# Generated by pormake.
# Topology dag, (6,3)-cn, num edge types: 1
# Building blocks:
#     Node 0, Type 0, BuildingBlock: IZENUY_clean_sbu_0, # of connection points: 6
#     Node 1, Type 0, BuildingBlock: IZENUY_clean_sbu_0, # of connection points: 6
#     Node 2, Type 0, BuildingBlock: IZENUY_clean_sbu_0, # of connection points: 6
#     Node 3, Type 0, BuildingBlock: IZENUY_clean_sbu_0, # of connection points: 6
#     Node 4, Type 1, BuildingBlock: PAMTOO_clean_linker_0, # of connection points: 3
#     Node 5, Type 1, BuildingBlock: PAMTOO_clean_linker_0, # of connection points: 3
#     Node 6, Type 1, BuildingBlock: PAMTOO_clean_linker_0, # of connection points: 3
#     Node 7, Type 1, BuildingBlock: PAMTOO_clean_linker_0, # of connection points: 3
#     Node 8, Type 1, BuildingBlock: PAMTOO_clean_linker_0, # of connection points: 3
#     Node 9, Type 1, BuildingBlock: PAMTOO_clean_linker_0, # of connection points: 3
#     Node 10, Type 1, BuildingBlock: PAMTOO_clean_linker_0, # of connection points: 3
#     Node 11, Type 1, BuildingBlock: PAMTOO_clean_linker_0, # of connection points: 3
#     Edge 12, Type (0, 1), BuildingBlock: XUDNAN_clean_linker_2, # of connection points: 2
#     Edge 13, Type (0, 1), BuildingBlock: XUDNAN_clean_linker_2, # of connection points: 2
#     Edge 14, Type (0, 1), BuildingBlock: XUDNAN_clean_linker_2, # of connection points: 2
#     Edge 15, Type (0, 1), BuildingBlock: XUDNAN_clean_linker_2, # of connection points: 2
#     Edge 16, Type (0, 1), BuildingBlock: XUDNAN_clean_linker_2, # of connection points: 2
#     Edge 17, Type (0, 1), BuildingBlock: XUDNAN_clean_linker_2, # of connection points: 2
#     Edge 18, Type (0, 1), BuildingBlock: XUDNAN_clean_linker_2, # of connection points: 2
#     Edge 19, Type (0, 1), BuildingBlock: XUDNAN_clean_linker_2, # of connection points: 2
#     Edge 20, Type (0, 1), BuildingBlock: XUDNAN_clean_linker_2, # of connection points: 2
#     Edge 21, Type (0, 1), BuildingBlock: XUDNAN_clean_linker_2, # of connection points: 2
#     Edge 22, Type (0, 1), BuildingBlock: XUDNAN_clean_linker_2, # of connection points: 2
#     Edge 23, Type (0, 1), BuildingBlock: XUDNAN_clean_linker_2, # of connection points: 2
#     Edge 24, Type (0, 1), BuildingBlock: XUDNAN_clean_linker_2, # of connection points: 2
#     Edge 25, Type (0, 1), BuildingBlock: XUDNAN_clean_linker_2, # of connection points: 2
#     Edge 26, Type (0, 1), BuildingBlock: XUDNAN_clean_linker_2, # of connection points: 2
#     Edge 27, Type (0, 1), BuildingBlock: XUDNAN_clean_linker_2, # of connection points: 2
#     Edge 28, Type (0, 1), BuildingBlock: XUDNAN_clean_linker_2, # of connection points: 2
#     Edge 29, Type (0, 1), BuildingBlock: XUDNAN_clean_linker_2, # of connection points: 2
#     Edge 30, Type (0, 1), BuildingBlock: XUDNAN_clean_linker_2, # of connection points: 2
#     Edge 31, Type (0, 1), BuildingBlock: XUDNAN_clean_linker_2, # of connection points: 2
#     Edge 32, Type (0, 1), BuildingBlock: XUDNAN_clean_linker_2, # of connection points: 2
#     Edge 33, Type (0, 1), BuildingBlock: XUDNAN_clean_linker_2, # of connection points: 2
#     Edge 34, Type (0, 1), BuildingBlock: XUDNAN_clean_linker_2, # of connection points: 2
#     Edge 35, Type (0, 1), BuildingBlock: XUDNAN_clean_linker_2, # of connection points: 2
# Relax obj value: 0.093
# Max RMSD: 0.109
# Mean RMSD: 0.087
data_MOF--net-dag--node1-IZENUY_clean_sbu_0--node2-PAMTOO_clean_linker_0--edge1-XUDNAN_clean_linker_2
_symmetry_space_group_name_H-M    P1
_symmetry_Int_Tables_number       1
_symmetry_cell_setting            triclinic
loop_
_symmetry_equiv_pos_as_xyz
'x, y, z'
_cell_length_a     39.311183
_cell_length_b     40.463763
_cell_length_c     35.797202
_cell_angle_alpha  89.822794
_cell_angle_beta   94.274242
_cell_angle_gamma 90.171001
loop_
_atom_site_label
_atom_site_type_symbol
_atom_site_fract_x
_atom_site_fract_y
_atom_site_fract_z
_atom_type_partial_charge
Fe0 Fe 0.19815 0.86405 0.00951 0.0
Fe1 Fe 0.12179 0.87825 0.00334 0.0
O2 O 0.15566 0.85011 5e-05 0.0
Fe3 Fe 0.14664 0.80844 0.98789 0.0
O4 O 0.18264 0.79123 0.01757 0.0
O5 O 0.20573 0.83443 0.04697 0.0
O6 O 0.18745 0.89378 0.04585 0.0
C7 C 0.16214 0.89336 0.06588 0.0
C8 C 0.20238 0.82031 0.94818 0.0
O9 O 0.13321 0.8838 0.05263 0.0
C10 C 0.09969 0.84582 0.94011 0.0
O11 O 0.19357 0.89479 0.97235 0.0
O12 O 0.14607 0.91499 0.99084 0.0
O13 O 0.17171 0.81099 0.9476 0.0
O14 O 0.2161 0.83656 0.9755 0.0
C15 C 0.09494 0.81997 0.03271 0.0
O16 O 0.1087 0.8733 0.95431 0.0
O17 O 0.10903 0.81878 0.95586 0.0
C18 C 0.17175 0.91752 0.97176 0.0
O19 O 0.09069 0.84748 0.01642 0.0
O20 O 0.12084 0.80271 0.02778 0.0
C21 C 0.20108 0.80367 0.04456 0.0
Fe22 Fe 0.6938 0.66135 0.50446 0.0
Fe23 Fe 0.62792 0.70189 0.48761 0.0
O24 O 0.64867 0.66374 0.49824 0.0
Fe25 Fe 0.6237 0.62782 0.503 0.0
O26 O 0.65374 0.60719 0.53651 0.0
O27 O 0.69287 0.64438 0.55177 0.0
O28 O 0.69905 0.70242 0.52659 0.0
C29 C 0.6777 0.72116 0.54099 0.0
C30 C 0.67392 0.60335 0.46295 0.0
O31 O 0.64643 0.72022 0.53028 0.0
C32 C 0.5891 0.66063 0.44225 0.0
O33 O 0.69849 0.6779 0.45793 0.0
O34 O 0.66181 0.71856 0.46047 0.0
O35 O 0.64237 0.60827 0.4643 0.0
O36 O 0.69582 0.61969 0.48336 0.0
C37 C 0.58799 0.67252 0.54071 0.0
O38 O 0.60785 0.68595 0.44389 0.0
O39 O 0.58868 0.641 0.4697 0.0
C40 C 0.68582 0.70455 0.44503 0.0
O41 O 0.59029 0.69218 0.51339 0.0
O42 O 0.60417 0.64566 0.54246 0.0
C43 C 0.67738 0.61806 0.5589 0.0
Fe44 Fe 0.86339 0.19705 0.06045 0.0
Fe45 Fe 0.88371 0.12691 0.03935 0.0
O46 O 0.85173 0.1567 0.04493 0.0
Fe47 Fe 0.80825 0.14619 0.03466 0.0
O48 O 0.80315 0.17846 0.99902 0.0
O49 O 0.82783 0.21754 0.034 0.0
O50 O 0.88831 0.20404 0.02024 0.0
C51 C 0.91158 0.18502 0.01096 0.0
C52 C 0.80766 0.18582 0.09993 0.0
O53 O 0.91551 0.15673 0.0257 0.0
C54 C 0.83136 0.08979 0.06997 0.0
O55 O 0.90114 0.18373 0.08986 0.0
O56 O 0.89874 0.1295 0.08852 0.0
O57 O 0.79269 0.17314 0.07079 0.0
O58 O 0.83904 0.19289 0.10135 0.0
C59 C 0.84151 0.11461 0.97696 0.0
O60 O 0.85758 0.09144 0.05159 0.0
O61 O 0.81053 0.11344 0.06973 0.0
C62 C 0.90922 0.15592 0.10421 0.0
O63 O 0.87097 0.12275 0.98997 0.0
O64 O 0.81616 0.11704 0.99668 0.0
C65 C 0.80967 0.20866 0.0051 0.0
Fe66 Fe 0.37777 0.37338 0.53019 0.0
Fe67 Fe 0.30567 0.34862 0.54298 0.0
O68 O 0.34978 0.34066 0.53979 0.0
Fe69 Fe 0.36589 0.29982 0.54595 0.0
O70 O 0.3945 0.3121 0.58566 0.0
O71 O 0.41425 0.35649 0.55878 0.0
O72 O 0.36738 0.39611 0.57121 0.0
C73 C 0.33765 0.40424 0.5783 0.0
C74 C 0.40318 0.32515 0.48732 0.0
O75 O 0.31172 0.39021 0.56244 0.0
C76 C 0.30618 0.28806 0.50382 0.0
O77 O 0.34647 0.39608 0.50014 0.0
O78 O 0.30063 0.36458 0.49526 0.0
O79 O 0.39998 0.30467 0.51363 0.0
O80 O 0.38996 0.35335 0.48811 0.0
C81 C 0.31759 0.3048 0.60072 0.0
O82 O 0.29169 0.30852 0.52405 0.0
O83 O 0.33823 0.28479 0.5066 0.0
C84 C 0.31904 0.38692 0.48255 0.0
O85 O 0.30755 0.3333 0.59075 0.0
O86 O 0.33516 0.28759 0.57978 0.0
C87 C 0.41594 0.33531 0.58497 0.0
H88 H 0.1016 0.05409 0.22935 0.0
H89 H 0.1272 0.13568 0.30391 0.0
H90 H 0.19766 0.05594 0.29422 0.0
H91 H 0.20797 0.08583 0.36995 0.0
C92 C 0.18985 0.10652 0.36375 0.0
O93 O 0.18752 0.11288 0.3258 0.0
H94 H 0.16465 0.09893 0.37339 0.0
C95 C 0.11844 0.06613 0.25048 0.0
C96 C 0.14974 0.05118 0.26118 0.0
C97 C 0.10969 0.09686 0.26528 0.0
C98 C 0.13312 0.11221 0.29151 0.0
C99 C 0.16474 0.09745 0.30174 0.0
C100 C 0.17313 0.06711 0.28634 0.0
H101 H 0.38903 0.6279 0.64527 0.0
H102 H 0.29972 0.63966 0.70722 0.0
H103 H 0.37749 0.71447 0.71165 0.0
H104 H 0.35401 0.68589 0.78288 0.0
C105 C 0.3261 0.68814 0.77528 0.0
O106 O 0.32008 0.69535 0.73772 0.0
H107 H 0.3141 0.664 0.78151 0.0
C108 C 0.37332 0.64244 0.6626 0.0
C109 C 0.38572 0.67312 0.6755 0.0
C110 C 0.34238 0.62963 0.67387 0.0
C111 C 0.3237 0.64863 0.69801 0.0
C112 C 0.33653 0.67895 0.71177 0.0
C113 C 0.36747 0.69125 0.70046 0.0
H114 H 0.89662 0.87223 0.14609 0.0
H115 H 0.81187 0.85722 0.21394 0.0
H116 H 0.88607 0.78066 0.20539 0.0
H117 H 0.8182 0.75281 0.21849 0.0
C118 C 0.80631 0.77634 0.22672 0.0
O119 O 0.83158 0.79877 0.23762 0.0
H120 H 0.79027 0.78573 0.20199 0.0
C121 C 0.88215 0.8565 0.16366 0.0
C122 C 0.89434 0.82461 0.17261 0.0
C123 C 0.85213 0.86864 0.17767 0.0
C124 C 0.83507 0.84871 0.2026 0.0
C125 C 0.84764 0.81728 0.21282 0.0
C126 C 0.87709 0.80524 0.19778 0.0
H127 H 0.62761 0.4313 0.69105 0.0
H128 H 0.63737 0.35601 0.77676 0.0
H129 H 0.71345 0.43172 0.77272 0.0
H130 H 0.74211 0.36479 0.78688 0.0
C131 C 0.71988 0.35306 0.79919 0.0
O132 O 0.69598 0.37688 0.80573 0.0
H133 H 0.70855 0.33451 0.77892 0.0
C134 C 0.64101 0.42049 0.71563 0.0
C135 C 0.67147 0.43537 0.73034 0.0
C136 C 0.62796 0.39192 0.73207 0.0
C137 C 0.64657 0.37792 0.76324 0.0
C138 C 0.6775 0.39193 0.77731 0.0
C139 C 0.68958 0.42099 0.76146 0.0
H140 H 0.611 0.38641 0.39072 0.0
H141 H 0.61845 0.2983 0.32536 0.0
H142 H 0.70081 0.36836 0.33145 0.0
H143 H 0.68747 0.34254 0.25809 0.0
C144 C 0.6756 0.31832 0.2643 0.0
O145 O 0.67859 0.31263 0.30238 0.0
H146 H 0.64819 0.31953 0.25397 0.0
C147 C 0.62579 0.37081 0.3735 0.0
C148 C 0.65789 0.38144 0.36304 0.0
C149 C 0.61157 0.34084 0.3603 0.0
C150 C 0.62946 0.32123 0.33626 0.0
C151 C 0.66163 0.33126 0.32608 0.0
C152 C 0.6759 0.36105 0.33967 0.0
H153 H 0.1077 0.13609 0.89579 0.0
H154 H 0.11865 0.22703 0.83534 0.0
H155 H 0.19628 0.15284 0.83428 0.0
H156 H 0.21673 0.22334 0.84661 0.0
C157 C 0.20136 0.23322 0.82167 0.0
O158 O 0.17665 0.2108 0.80907 0.0
H159 H 0.18894 0.25641 0.83013 0.0
C160 C 0.12234 0.1517 0.87829 0.0
C161 C 0.15371 0.14035 0.86688 0.0
C162 C 0.10937 0.18289 0.86737 0.0
C163 C 0.12826 0.20304 0.84448 0.0
C164 C 0.15937 0.19194 0.83248 0.0
C165 C 0.17204 0.16078 0.84362 0.0
H166 H 0.38281 0.55909 0.33562 0.0
H167 H 0.36769 0.64472 0.26533 0.0
H168 H 0.28556 0.5757 0.27433 0.0
H169 H 0.28525 0.60524 0.19749 0.0
C170 C 0.30279 0.62618 0.20507 0.0
O171 O 0.30422 0.63067 0.24337 0.0
H172 H 0.32847 0.62012 0.19584 0.0
C173 C 0.36641 0.57342 0.31605 0.0
C174 C 0.33247 0.56338 0.30698 0.0
C175 C 0.37929 0.60256 0.30112 0.0
C176 C 0.35804 0.62214 0.27704 0.0
C177 C 0.3244 0.61213 0.26724 0.0
C178 C 0.31162 0.58301 0.28227 0.0
H179 H 0.89462 0.94029 0.82595 0.0
H180 H 0.86666 0.8518 0.76416 0.0
H181 H 0.79731 0.9338 0.76342 0.0
H182 H 0.76785 0.86439 0.76933 0.0
C183 C 0.78465 0.85184 0.7501 0.0
O184 O 0.80759 0.87421 0.7372 0.0
H185 H 0.79855 0.83181 0.76616 0.0
C186 C 0.87651 0.92621 0.80799 0.0
C187 C 0.84523 0.94065 0.79616 0.0
C188 C 0.88446 0.8939 0.79738 0.0
C189 C 0.86112 0.87668 0.77294 0.0
C190 C 0.82979 0.89106 0.7607 0.0
C191 C 0.82164 0.9229 0.7727 0.0
H192 H 0.20082 0.94626 0.09067 0.0
H193 H 0.12828 0.87344 0.12514 0.0
H194 H 0.12673 0.9012 0.18622 0.0
H195 H 0.24502 0.96292 0.18679 0.0
H196 H 0.24804 0.00649 0.17686 0.0
H197 H 0.24987 0.97681 0.13958 0.0
H198 H 0.19959 0.00634 0.10236 0.0
H199 H 0.19763 0.03597 0.13937 0.0
H200 H 0.16019 0.01237 0.12415 0.0
H201 H 0.12468 0.94114 0.23744 0.0
H202 H 0.1208 0.99211 0.27475 0.0
H203 H 0.19404 0.04005 0.20797 0.0
C204 C 0.18567 0.93558 0.11172 0.0
C205 C 0.16496 0.90763 0.10364 0.0
C206 C 0.14441 0.89483 0.13109 0.0
C207 C 0.14359 0.91025 0.16591 0.0
C208 C 0.16345 0.93845 0.17274 0.0
C209 C 0.18417 0.95105 0.14647 0.0
C210 C 0.1988 0.98436 0.15849 0.0
C211 C 0.23775 0.98252 0.16587 0.0
C212 C 0.18841 0.01133 0.12938 0.0
C213 C 0.18167 0.98925 0.19458 0.0
C214 C 0.16206 0.96207 0.20272 0.0
C215 C 0.14069 0.96217 0.23209 0.0
C216 C 0.13859 0.9911 0.25308 0.0
C217 C 0.15776 0.01932 0.24452 0.0
C218 C 0.18018 0.01819 0.21565 0.0
H219 H 0.52208 0.69179 0.52671 0.0
H220 H 0.59769 0.66607 0.61623 0.0
H221 H 0.55482 0.67395 0.66271 0.0
H222 H 0.4716 0.75149 0.57904 0.0
H223 H 0.43169 0.73637 0.55746 0.0
H224 H 0.46963 0.73512 0.53214 0.0
H225 H 0.46136 0.67216 0.52174 0.0
H226 H 0.42338 0.67327 0.54668 0.0
H227 H 0.45749 0.64547 0.56165 0.0
H228 H 0.503 0.67978 0.69848 0.0
H229 H 0.44467 0.67513 0.71986 0.0
H230 H 0.4021 0.69254 0.60652 0.0
C231 C 0.52969 0.68876 0.55624 0.0
C232 C 0.56308 0.67897 0.56828 0.0
C233 C 0.57213 0.67389 0.60681 0.0
C234 C 0.54809 0.67857 0.6333 0.0
C235 C 0.5151 0.68788 0.6206 0.0
C236 C 0.50576 0.69246 0.5829 0.0
C237 C 0.46768 0.69747 0.57599 0.0
C238 C 0.45969 0.73218 0.56023 0.0
C239 C 0.45155 0.67048 0.55 0.0
C240 C 0.45692 0.69396 0.61553 0.0
C241 C 0.48476 0.68951 0.64101 0.0
C242 C 0.48104 0.68374 0.67893 0.0
C243 C 0.44796 0.68132 0.69088 0.0
C244 C 0.41933 0.68407 0.66481 0.0
C245 C 0.42382 0.69119 0.62694 0.0
H246 H 0.84629 0.02775 0.04787 0.0
H247 H 0.80147 0.08174 0.13626 0.0
H248 H 0.79673 0.02954 0.17217 0.0
H249 H 0.79398 0.95194 0.05556 0.0
H250 H 0.82895 0.92566 0.04508 0.0
H251 H 0.82561 0.96672 0.02552 0.0
H252 H 0.88667 0.97996 0.05394 0.0
H253 H 0.89013 0.93916 0.07385 0.0
H254 H 0.89665 0.97482 0.10359 0.0
H255 H 0.8047 0.97221 0.20166 0.0
H256 H 0.82075 0.91509 0.22 0.0
H257 H 0.85509 0.89861 0.10903 0.0
C258 C 0.83495 0.02849 0.07453 0.0
C259 C 0.82434 0.05863 0.08949 0.0
C260 C 0.80952 0.05874 0.12432 0.0
C261 C 0.80682 0.02926 0.14486 0.0
C262 C 0.8183 0.99996 0.12965 0.0
C263 C 0.83145 0.99936 0.09488 0.0
C264 C 0.84306 0.9651 0.08507 0.0
C265 C 0.82161 0.95156 0.05078 0.0
C266 C 0.88139 0.96476 0.07876 0.0
C267 C 0.83572 0.94666 0.12037 0.0
C268 C 0.8214 0.96701 0.14581 0.0
C269 C 0.81519 0.95587 0.1816 0.0
C270 C 0.82428 0.92327 0.19173 0.0
C271 C 0.83934 0.90213 0.1661 0.0
C272 C 0.84414 0.91403 0.12966 0.0
H273 H 0.45017 0.39012 0.61029 0.0
H274 H 0.44838 0.28346 0.62214 0.0
H275 H 0.50123 0.28615 0.66443 0.0
H276 H 0.53815 0.40005 0.60748 0.0
H277 H 0.54083 0.43762 0.63449 0.0
H278 H 0.50194 0.4273 0.6073 0.0
H279 H 0.4682 0.4314 0.66662 0.0
H280 H 0.50698 0.44205 0.69402 0.0
H281 H 0.48167 0.40741 0.70757 0.0
H282 H 0.55787 0.30068 0.69953 0.0
H283 H 0.61065 0.32565 0.72847 0.0
H284 H 0.57142 0.42327 0.69842 0.0
C285 C 0.46072 0.36735 0.62212 0.0
C286 C 0.44544 0.33656 0.6129 0.0
C287 C 0.45972 0.30729 0.62906 0.0
C288 C 0.48972 0.30861 0.65298 0.0
C289 C 0.50452 0.33942 0.66096 0.0
C290 C 0.49011 0.36829 0.6465 0.0
C291 C 0.51104 0.39824 0.65889 0.0
C292 C 0.52374 0.41688 0.62503 0.0
C293 C 0.49076 0.42112 0.68323 0.0
C294 C 0.54011 0.3817 0.68174 0.0
C295 C 0.53603 0.3478 0.68257 0.0
C296 C 0.56095 0.32726 0.69978 0.0
C297 C 0.59083 0.34178 0.7164 0.0
C298 C 0.59547 0.3766 0.71609 0.0
C299 C 0.56926 0.39661 0.69893 0.0
H300 H 0.66089 0.54241 0.48793 0.0
H301 H 0.70703 0.59482 0.39895 0.0
H302 H 0.71455 0.54157 0.366 0.0
H303 H 0.71408 0.46591 0.48523 0.0
H304 H 0.67847 0.43988 0.49502 0.0
H305 H 0.68148 0.48123 0.51337 0.0
H306 H 0.62151 0.49437 0.48288 0.0
H307 H 0.61812 0.45334 0.4639 0.0
H308 H 0.61287 0.4886 0.43314 0.0
H309 H 0.70886 0.48347 0.33922 0.0
H310 H 0.69244 0.42632 0.32177 0.0
H311 H 0.65274 0.41213 0.43066 0.0
C312 C 0.67356 0.54242 0.46206 0.0
C313 C 0.68383 0.57227 0.44594 0.0
C314 C 0.69958 0.57188 0.41177 0.0
C315 C 0.70385 0.54184 0.39298 0.0
C316 C 0.69264 0.51269 0.40923 0.0
C317 C 0.67829 0.51279 0.44335 0.0
C318 C 0.66592 0.47878 0.45368 0.0
C319 C 0.68624 0.46565 0.4889 0.0
C320 C 0.62733 0.4788 0.45866 0.0
C321 C 0.67412 0.45967 0.41935 0.0
C322 C 0.68985 0.47943 0.39415 0.0
C323 C 0.69729 0.46762 0.35915 0.0
C324 C 0.68799 0.435 0.34956 0.0
C325 C 0.67135 0.41454 0.37486 0.0
C326 C 0.66519 0.42705 0.41051 0.0
H327 H 0.93781 0.14662 0.95913 0.0
H328 H 0.94074 0.24643 0.00267 0.0
H329 H 0.98797 0.26002 0.96269 0.0
H330 H 0.02326 0.13444 0.95942 0.0
H331 H 0.02214 0.11097 0.91664 0.0
H332 H 0.98565 0.11117 0.94397 0.0
H333 H 0.9475 0.13168 0.88639 0.0
H334 H 0.98394 0.13129 0.85865 0.0
H335 H 0.95933 0.16854 0.86201 0.0
H336 H 0.04119 0.25891 0.92575 0.0
H337 H 0.09299 0.24412 0.89421 0.0
H338 H 0.05143 0.14614 0.87199 0.0
C339 C 0.94791 0.17157 0.95961 0.0
C340 C 0.93595 0.1955 0.98392 0.0
C341 C 0.94957 0.22789 0.98393 0.0
C342 C 0.97633 0.23574 0.96135 0.0
C343 C 0.98832 0.21112 0.93841 0.0
C344 C 0.97399 0.17985 0.93695 0.0
C345 C 0.99261 0.15696 0.91226 0.0
C346 C 0.00675 0.12663 0.93441 0.0
C347 C 0.96946 0.14651 0.87778 0.0
C348 C 0.02088 0.1796 0.90148 0.0
C349 C 0.01795 0.21087 0.9164 0.0
C350 C 0.04325 0.23478 0.91319 0.0
C351 C 0.07255 0.2262 0.89512 0.0
C352 C 0.07632 0.19394 0.88072 0.0
C353 C 0.04946 0.17094 0.88289 0.0
H354 H 0.35793 0.40122 0.42618 0.0
H355 H 0.25691 0.41561 0.46373 0.0
H356 H 0.24514 0.45774 0.4139 0.0
H357 H 0.37711 0.48025 0.41341 0.0
H358 H 0.40017 0.47556 0.37208 0.0
H359 H 0.39762 0.44163 0.40415 0.0
H360 H 0.37184 0.40413 0.35074 0.0
H361 H 0.37487 0.43784 0.31808 0.0
H362 H 0.3345 0.4175 0.32249 0.0
H363 H 0.24992 0.50623 0.36972 0.0
H364 H 0.26898 0.55367 0.33301 0.0
H365 H 0.36585 0.5049 0.32188 0.0
C366 C 0.33282 0.41231 0.42279 0.0
C367 C 0.30814 0.40519 0.44825 0.0
C368 C 0.27581 0.42044 0.44385 0.0
C369 C 0.26903 0.44442 0.41575 0.0
C370 C 0.29464 0.45207 0.39201 0.0
C371 C 0.32563 0.4358 0.39476 0.0
C372 C 0.35032 0.4507 0.36896 0.0
C373 C 0.38321 0.46275 0.39098 0.0
C374 C 0.35834 0.42607 0.33823 0.0
C375 C 0.32927 0.47926 0.35293 0.0
C376 C 0.29705 0.47948 0.36604 0.0
C377 C 0.27467 0.50573 0.35838 0.0
C378 C 0.28573 0.53259 0.3374 0.0
C379 C 0.31896 0.53309 0.32447 0.0
C380 C 0.34038 0.50546 0.33146 0.0
H381 H 0.03967 0.87459 0.94958 0.0
H382 H 0.09239 0.81636 0.87076 0.0
H383 H 0.04109 0.81888 0.82553 0.0
H384 H 0.95611 0.83633 0.9288 0.0
H385 H 0.93395 0.8745 0.93575 0.0
H386 H 0.97437 0.86662 0.96126 0.0
H387 H 0.99825 0.92145 0.93594 0.0
H388 H 0.95805 0.9294 0.91021 0.0
H389 H 0.99667 0.92844 0.88607 0.0
H390 H 0.9847 0.8327 0.78746 0.0
H391 H 0.92883 0.85417 0.76147 0.0
H392 H 0.91321 0.89891 0.86885 0.0
C393 C 0.04034 0.86236 0.92275 0.0
C394 C 0.06981 0.84577 0.91304 0.0
C395 C 0.06986 0.82938 0.87825 0.0
C396 C 0.04092 0.83067 0.85261 0.0
C397 C 0.01219 0.8477 0.86291 0.0
C398 C 0.01168 0.86279 0.89747 0.0
C399 C 0.97809 0.8796 0.90223 0.0
C400 C 0.95953 0.86328 0.93387 0.0
C401 C 0.98309 0.91693 0.90899 0.0
C402 C 0.96 0.87279 0.86438 0.0
C403 C 0.97982 0.85428 0.84198 0.0
C404 C 0.96882 0.84678 0.80499 0.0
C405 C 0.93701 0.85896 0.7905 0.0
C406 C 0.91672 0.87843 0.81302 0.0
C407 C 0.92825 0.88458 0.85065 0.0
H408 H 0.80187 0.06067 0.95838 0.0
H409 H 0.87535 0.12815 0.91518 0.0
H410 H 0.87546 0.09506 0.85728 0.0
H411 H 0.84137 0.99037 0.93039 0.0
H412 H 0.80307 0.96672 0.91913 0.0
H413 H 0.80308 0.99921 0.95322 0.0
H414 H 0.75213 0.02699 0.91528 0.0
H415 H 0.75204 0.99451 0.88089 0.0
H416 H 0.75548 0.03707 0.8666 0.0
H417 H 0.87395 0.0513 0.8088 0.0
H418 H 0.87424 0.99792 0.77537 0.0
H419 H 0.80324 0.95734 0.85023 0.0
C420 C 0.81693 0.06908 0.93604 0.0
C421 C 0.83804 0.09728 0.94071 0.0
C422 C 0.85868 0.10682 0.91177 0.0
C423 C 0.85875 0.08828 0.87877 0.0
C424 C 0.83824 0.06011 0.87528 0.0
C425 C 0.81781 0.05042 0.90321 0.0
C426 C 0.80217 0.01666 0.895 0.0
C427 C 0.81309 0.99179 0.92628 0.0
C428 C 0.76313 0.01896 0.88908 0.0
C429 C 0.81783 0.00844 0.85872 0.0
C430 C 0.83796 0.03418 0.84744 0.0
C431 C 0.85764 0.0313 0.81678 0.0
C432 C 0.85757 0.00102 0.79787 0.0
C433 C 0.83802 0.97411 0.80971 0.0
C434 C 0.8173 0.97808 0.83989 0.0
H435 H 0.46968 0.30949 0.50294 0.0
H436 H 0.39483 0.33171 0.4115 0.0
H437 H 0.44015 0.33042 0.36693 0.0
H438 H 0.53008 0.36391 0.47349 0.0
H439 H 0.56678 0.33937 0.48862 0.0
H440 H 0.52797 0.33514 0.51182 0.0
H441 H 0.52691 0.27227 0.49823 0.0
H442 H 0.56591 0.27626 0.4751 0.0
H443 H 0.52873 0.25799 0.45077 0.0
H444 H 0.49426 0.33115 0.33342 0.0
H445 H 0.55316 0.3395 0.31463 0.0
H446 H 0.59292 0.3224 0.4291 0.0
C447 C 0.46279 0.31276 0.47329 0.0
C448 C 0.42881 0.31955 0.46019 0.0
C449 C 0.42071 0.32561 0.42165 0.0
C450 C 0.44624 0.3249 0.39626 0.0
C451 C 0.47976 0.31874 0.4101 0.0
C452 C 0.48812 0.31309 0.44781 0.0
C453 C 0.52641 0.31189 0.4564 0.0
C454 C 0.5385 0.33921 0.48421 0.0
C455 C 0.53765 0.27755 0.47098 0.0
C456 C 0.53836 0.31837 0.41781 0.0
C457 C 0.51108 0.32143 0.3913 0.0
C458 C 0.51579 0.32851 0.35386 0.0
C459 C 0.5492 0.33313 0.3434 0.0
C460 C 0.57721 0.33129 0.37045 0.0
C461 C 0.57175 0.32352 0.40795 0.0
H462 H 0.15302 0.97891 0.99277 0.0
H463 H 0.204 0.92701 0.90718 0.0
H464 H 0.20975 0.97978 0.87261 0.0
H465 H 0.10503 0.03283 0.9345 0.0
H466 H 0.10965 0.06779 0.96555 0.0
H467 H 0.11195 0.02653 0.98437 0.0
H468 H 0.17138 0.03938 0.01756 0.0
H469 H 0.1692 0.08082 0.99896 0.0
H470 H 0.20495 0.0548 0.9905 0.0
H471 H 0.20328 0.03759 0.84418 0.0
H472 H 0.18824 0.09503 0.82629 0.0
H473 H 0.14706 0.10921 0.93436 0.0
C474 C 0.16571 0.9787 0.96692 0.0
C475 C 0.17788 0.94899 0.9524 0.0
C476 C 0.19461 0.94965 0.91873 0.0
C477 C 0.19794 0.97945 0.89897 0.0
C478 C 0.18514 0.00833 0.91383 0.0
C479 C 0.16989 0.00818 0.94741 0.0
C480 C 0.15759 0.04221 0.9572 0.0
C481 C 0.11876 0.04232 0.96058 0.0
C482 C 0.17695 0.05506 0.99319 0.0
C483 C 0.16711 0.0614 0.92321 0.0
C484 C 0.18301 0.04159 0.89846 0.0
C485 C 0.19151 0.05349 0.86374 0.0
C486 C 0.18302 0.08629 0.8539 0.0
C487 C 0.16631 0.10688 0.87877 0.0
C488 C 0.15931 0.09423 0.91429 0.0
H489 H 0.5281 0.69101 0.42536 0.0
H490 H 0.59482 0.6145 0.38907 0.0
H491 H 0.54976 0.59608 0.34172 0.0
H492 H 0.45623 0.64322 0.42302 0.0
H493 H 0.42623 0.67461 0.40663 0.0
H494 H 0.46552 0.68622 0.43219 0.0
H495 H 0.48066 0.72438 0.37755 0.0
H496 H 0.44115 0.71311 0.35185 0.0
H497 H 0.48107 0.70772 0.33094 0.0
H498 H 0.4955 0.5803 0.30646 0.0
H499 H 0.43557 0.56901 0.28399 0.0
H500 H 0.40316 0.65583 0.3421 0.0
C501 C 0.53351 0.67138 0.40619 0.0
C502 C 0.56501 0.65467 0.40973 0.0
C503 C 0.571 0.62799 0.3858 0.0
C504 C 0.54558 0.61739 0.35896 0.0
C505 C 0.51433 0.63375 0.35663 0.0
C506 C 0.50822 0.66038 0.37935 0.0
C507 C 0.47122 0.67109 0.37414 0.0
C508 C 0.45379 0.66862 0.41119 0.0
C509 C 0.46836 0.70616 0.35763 0.0
C510 C 0.45723 0.64558 0.34606 0.0
C511 C 0.48265 0.62453 0.33604 0.0
C512 C 0.47553 0.59709 0.31331 0.0
C513 C 0.44152 0.59081 0.30077 0.0
C514 C 0.41516 0.61193 0.31085 0.0
C515 C 0.42314 0.63992 0.33325 0.0
H516 H 0.35738 0.46487 0.55719 0.0
H517 H 0.30611 0.4129 0.64288 0.0
H518 H 0.29737 0.46614 0.6753 0.0
H519 H 0.40057 0.52482 0.61452 0.0
H520 H 0.39421 0.5579 0.58091 0.0
H521 H 0.39591 0.51582 0.5651 0.0
H522 H 0.33674 0.5228 0.52883 0.0
H523 H 0.33479 0.56491 0.54474 0.0
H524 H 0.30096 0.53637 0.55347 0.0
H525 H 0.29932 0.52475 0.70052 0.0
H526 H 0.30952 0.58348 0.71548 0.0
H527 H 0.35224 0.59738 0.60795 0.0
C528 C 0.34447 0.46485 0.5829 0.0
C529 C 0.33293 0.43517 0.59823 0.0
C530 C 0.31539 0.43567 0.63126 0.0
C531 C 0.31025 0.46568 0.64962 0.0
C532 C 0.32197 0.49474 0.63377 0.0
C533 C 0.3383 0.49453 0.60086 0.0
C534 C 0.34812 0.52898 0.58927 0.0
C535 C 0.387 0.53204 0.58736 0.0
C536 C 0.329 0.53884 0.55186 0.0
C537 C 0.33583 0.5486 0.62145 0.0
C538 C 0.32088 0.52851 0.64689 0.0
C539 C 0.31031 0.54085 0.6804 0.0
C540 C 0.31595 0.57444 0.68849 0.0
C541 C 0.33171 0.5954 0.66295 0.0
C542 C 0.34058 0.58222 0.62847 0.0
H543 H 0.02755 0.83144 0.01916 0.0
H544 H 0.10062 0.78239 0.09709 0.0
H545 H 0.05459 0.77131 0.13948 0.0
H546 H 0.98513 0.87322 0.08359 0.0
H547 H 0.94337 0.86946 0.05954 0.0
H548 H 0.98063 0.86837 0.03343 0.0
H549 H 0.96163 0.81159 0.00534 0.0
H550 H 0.92409 0.81276 0.0313 0.0
H551 H 0.9526 0.77794 0.03625 0.0
H552 H 0.00202 0.77435 0.17744 0.0
H553 H 0.9483 0.78871 0.20553 0.0
H554 H 0.91014 0.83321 0.10029 0.0
C555 C 0.0337 0.81757 0.04471 0.0
C556 C 0.06748 0.80769 0.055 0.0
C557 C 0.07471 0.78978 0.08863 0.0
C558 C 0.04877 0.7835 0.11283 0.0
C559 C 0.01581 0.79473 0.10241 0.0
C560 C 0.00823 0.81088 0.06872 0.0
C561 C 0.97178 0.82286 0.06493 0.0
C562 C 0.97016 0.8607 0.06011 0.0
C563 C 0.95132 0.80522 0.03254 0.0
C564 C 0.96025 0.81222 0.10243 0.0
C565 C 0.98574 0.7958 0.12369 0.0
C566 C 0.98166 0.7865 0.16068 0.0
C567 C 0.95103 0.79469 0.17641 0.0
C568 C 0.92502 0.81218 0.15517 0.0
C569 C 0.92957 0.82007 0.11742 0.0
H570 H 0.68319 0.55205 0.55638 0.0
H571 H 0.6968 0.63507 0.6321 0.0
H572 H 0.70555 0.59602 0.68581 0.0
H573 H 0.63367 0.50516 0.60961 0.0
H574 H 0.6512 0.46617 0.59638 0.0
H575 H 0.65225 0.50109 0.56542 0.0
H576 H 0.71954 0.49511 0.56584 0.0
H577 H 0.71614 0.45955 0.59586 0.0
H578 H 0.74406 0.49333 0.61023 0.0
H579 H 0.70331 0.54695 0.73155 0.0
H580 H 0.69102 0.49423 0.76366 0.0
H581 H 0.67895 0.44488 0.65628 0.0
C582 C 0.68897 0.56203 0.58419 0.0
C583 C 0.6894 0.59641 0.59031 0.0
C584 C 0.69684 0.60871 0.62695 0.0
C585 C 0.70173 0.5867 0.65751 0.0
C586 C 0.69971 0.55269 0.65057 0.0
C587 C 0.69403 0.54058 0.61457 0.0
C588 C 0.68966 0.5035 0.61416 0.0
C589 C 0.65465 0.49341 0.59528 0.0
C590 C 0.71907 0.48687 0.5954 0.0
C591 C 0.69185 0.49652 0.65566 0.0
C592 C 0.69835 0.52494 0.67642 0.0
C593 C 0.69889 0.52453 0.71548 0.0
C594 C 0.69194 0.49453 0.7335 0.0
C595 C 0.68407 0.46562 0.71234 0.0
C596 C 0.68495 0.46664 0.67309 0.0
H597 H 0.93271 0.10131 0.14425 0.0
H598 H 0.94629 0.20753 0.13536 0.0
H599 H 0.99499 0.2049 0.18261 0.0
H600 H 0.95858 0.09565 0.24712 0.0
H601 H 0.97971 0.05668 0.2416 0.0
H602 H 0.94299 0.06745 0.21083 0.0
H603 H 0.97812 0.05823 0.15334 0.0
H604 H 0.01491 0.04764 0.18382 0.0
H605 H 0.01758 0.08052 0.15008 0.0
H606 H 0.04743 0.18977 0.22263 0.0
H607 H 0.09806 0.16348 0.25434 0.0
H608 H 0.04798 0.06776 0.24238 0.0
C609 C 0.94543 0.12411 0.15285 0.0
C610 C 0.93566 0.15459 0.13595 0.0
C611 C 0.95317 0.18385 0.14787 0.0
C612 C 0.98088 0.18266 0.17481 0.0
C613 C 0.99045 0.15213 0.19016 0.0
C614 C 0.97295 0.12344 0.18007 0.0
C615 C 0.98985 0.09355 0.19894 0.0
C616 C 0.96638 0.07739 0.22625 0.0
C617 C 0.00077 0.06853 0.1698 0.0
C618 C 0.02045 0.10977 0.21972 0.0
C619 C 0.02018 0.14359 0.21456 0.0
C620 C 0.04751 0.16341 0.22778 0.0
C621 C 0.07618 0.14818 0.24604 0.0
C622 C 0.07733 0.11341 0.25111 0.0
C623 C 0.04839 0.09432 0.23876 0.0
H624 H 0.19488 0.73623 0.05243 0.0
H625 H 0.24905 0.82179 0.10009 0.0
H626 H 0.28048 0.78582 0.14621 0.0
H627 H 0.18613 0.69399 0.14012 0.0
H628 H 0.19231 0.65348 0.12098 0.0
H629 H 0.17398 0.68593 0.09143 0.0
H630 H 0.22093 0.67744 0.04527 0.0
H631 H 0.23941 0.64497 0.07466 0.0
H632 H 0.26518 0.67971 0.0624 0.0
H633 H 0.30734 0.7407 0.186 0.0
H634 H 0.32611 0.68912 0.21857 0.0
H635 H 0.25366 0.63314 0.14651 0.0
C636 C 0.21336 0.74742 0.07253 0.0
C637 C 0.21954 0.78186 0.07247 0.0
C638 C 0.24383 0.7955 0.09947 0.0
C639 C 0.26187 0.77528 0.12581 0.0
C640 C 0.25526 0.74148 0.12499 0.0
C641 C 0.2315 0.72762 0.09922 0.0
C642 C 0.22912 0.69056 0.10462 0.0
C643 C 0.19326 0.68041 0.11491 0.0
C644 C 0.23927 0.67209 0.06966 0.0
C645 C 0.25535 0.68579 0.13737 0.0
C646 C 0.2702 0.71548 0.1486 0.0
C647 C 0.29566 0.71733 0.17775 0.0
C648 C 0.3061 0.68803 0.19611 0.0
C649 C 0.29076 0.65744 0.18554 0.0
C650 C 0.26532 0.65633 0.15555 0.0
H651 H 0.73967 0.72422 0.58253 0.0
H652 H 0.64167 0.77345 0.56534 0.0
H653 H 0.6592 0.8131 0.61513 0.0
H654 H 0.74667 0.73094 0.68183 0.0
H655 H 0.79206 0.7382 0.68566 0.0
H656 H 0.77284 0.71468 0.64697 0.0
H657 H 0.79889 0.75478 0.6002 0.0
H658 H 0.81829 0.77839 0.63876 0.0
H659 H 0.79071 0.79847 0.60321 0.0
H660 H 0.68635 0.84671 0.66765 0.0
H661 H 0.72138 0.87121 0.72094 0.0
H662 H 0.8013 0.8001 0.70536 0.0
C663 C 0.72208 0.7436 0.58892 0.0
C664 C 0.68935 0.74576 0.56982 0.0
C665 C 0.66689 0.77122 0.57948 0.0
C666 C 0.67662 0.79396 0.6077 0.0
C667 C 0.70887 0.79097 0.62619 0.0
C668 C 0.7313 0.76647 0.61728 0.0
C669 C 0.76396 0.76806 0.6426 0.0
C670 C 0.76917 0.73607 0.66563 0.0
C671 C 0.79478 0.77537 0.61983 0.0
C672 C 0.75618 0.79706 0.66726 0.0
C673 C 0.72434 0.81004 0.65712 0.0
C674 C 0.71131 0.83676 0.67592 0.0
C675 C 0.73126 0.85044 0.70613 0.0
C676 C 0.76364 0.83712 0.71744 0.0
C677 C 0.77641 0.81041 0.69741 0.0
H678 H 0.81934 0.23849 0.14726 0.0
H679 H 0.74787 0.15892 0.11915 0.0
H680 H 0.70885 0.1811 0.16381 0.0
H681 H 0.8016 0.24657 0.24789 0.0
H682 H 0.80511 0.29097 0.24638 0.0
H683 H 0.82979 0.26594 0.21685 0.0
H684 H 0.80434 0.2979 0.15853 0.0
H685 H 0.77941 0.3228 0.18773 0.0
H686 H 0.75867 0.2999 0.14933 0.0
H687 H 0.67516 0.21469 0.20633 0.0
H688 H 0.64861 0.2584 0.24267 0.0
H689 H 0.74097 0.31701 0.24178 0.0
C690 C 0.79595 0.2252 0.1514 0.0
C691 C 0.78671 0.19682 0.13008 0.0
C692 C 0.75543 0.18065 0.13536 0.0
C693 C 0.73318 0.19298 0.16074 0.0
C694 C 0.74256 0.22155 0.18056 0.0
C695 C 0.77323 0.23745 0.17628 0.0
C696 C 0.77563 0.26953 0.19806 0.0
C697 C 0.80476 0.26815 0.22915 0.0
C698 C 0.77974 0.29928 0.17184 0.0
C699 C 0.74114 0.26966 0.21429 0.0
C700 C 0.72268 0.24149 0.20437 0.0
C701 C 0.68946 0.23672 0.21455 0.0
C702 C 0.67455 0.26162 0.23499 0.0
C703 C 0.69268 0.29103 0.24443 0.0
C704 C 0.72661 0.29473 0.23467 0.0
H705 H 0.26978 0.32896 0.64594 0.0
H706 H 0.33877 0.24666 0.63389 0.0
H707 H 0.31808 0.22055 0.69031 0.0
H708 H 0.27732 0.33167 0.74772 0.0
H709 H 0.23292 0.3414 0.75098 0.0
H710 H 0.25428 0.3544 0.71059 0.0
H711 H 0.20846 0.32437 0.66719 0.0
H712 H 0.187 0.31124 0.70741 0.0
H713 H 0.20026 0.28106 0.67457 0.0
H714 H 0.28856 0.20232 0.74669 0.0
H715 H 0.25186 0.19341 0.79921 0.0
H716 H 0.20179 0.287 0.77416 0.0
C717 C 0.28077 0.30558 0.65531 0.0
C718 C 0.30594 0.28988 0.63542 0.0
C719 C 0.31942 0.25916 0.64855 0.0
C720 C 0.30789 0.24414 0.68063 0.0
C721 C 0.28285 0.26011 0.69932 0.0
C722 C 0.26944 0.29014 0.68718 0.0
C723 C 0.24196 0.30157 0.71167 0.0
C724 C 0.25225 0.33419 0.73141 0.0
C725 C 0.20738 0.30473 0.68884 0.0
C726 C 0.24185 0.27315 0.7393 0.0
C727 C 0.26576 0.24957 0.7318 0.0
C728 C 0.26995 0.22074 0.75304 0.0
C729 C 0.24913 0.21589 0.78275 0.0
C730 C 0.22457 0.23977 0.79093 0.0
C731 C 0.2208 0.26865 0.76878 0.0
H732 H 0.73736 0.68218 0.4035 0.0
H733 H 0.66659 0.76356 0.41247 0.0
H734 H 0.68969 0.7905 0.35795 0.0
H735 H 0.80834 0.73135 0.37677 0.0
H736 H 0.82233 0.70099 0.34455 0.0
H737 H 0.80038 0.68805 0.38453 0.0
H738 H 0.75548 0.65726 0.3407 0.0
H739 H 0.77727 0.67014 0.30057 0.0
H740 H 0.73269 0.67952 0.30302 0.0
H741 H 0.72028 0.80883 0.30248 0.0
H742 H 0.75648 0.81685 0.24936 0.0
H743 H 0.8072 0.7239 0.27625 0.0
C744 C 0.72676 0.70571 0.39411 0.0
C745 C 0.70017 0.72074 0.41244 0.0
C746 C 0.68698 0.75151 0.39904 0.0
C747 C 0.69992 0.76706 0.36804 0.0
C748 C 0.72606 0.75157 0.35065 0.0
C749 C 0.73937 0.72161 0.36316 0.0
C750 C 0.76731 0.7102 0.33926 0.0
C751 C 0.80162 0.7075 0.36268 0.0
C752 C 0.75759 0.67734 0.31973 0.0
C753 C 0.76757 0.73842 0.31137 0.0
C754 C 0.74357 0.76204 0.31846 0.0
C755 C 0.73906 0.79045 0.29654 0.0
C756 C 0.75959 0.79479 0.26649 0.0
C757 C 0.78408 0.77077 0.25857 0.0
C758 C 0.7883 0.74241 0.28152 0.0
H759 H 0.7766 0.20153 0.93464 0.0
H760 H 0.80942 0.27497 0.01814 0.0
H761 H 0.78794 0.31921 0.97565 0.0
H762 H 0.79984 0.2475 0.85581 0.0
H763 H 0.76374 0.2346 0.82527 0.0
H764 H 0.77977 0.2081 0.86303 0.0
H765 H 0.71986 0.20634 0.88866 0.0
H766 H 0.70361 0.23278 0.85089 0.0
H767 H 0.69889 0.2445 0.89877 0.0
H768 H 0.76624 0.35589 0.9235 0.0
H769 H 0.744 0.38264 0.86443 0.0
H770 H 0.72454 0.28625 0.81457 0.0
C771 C 0.77884 0.22688 0.94414 0.0
C772 C 0.79467 0.23467 0.9798 0.0
C773 C 0.79747 0.26825 0.99098 0.0
C774 C 0.78528 0.29366 0.96707 0.0
C775 C 0.77026 0.28522 0.93201 0.0
C776 C 0.76683 0.25271 0.92052 0.0
C777 C 0.75066 0.25067 0.88079 0.0
C778 C 0.77496 0.23425 0.8547 0.0
C779 C 0.7162 0.2325 0.87973 0.0
C780 C 0.74596 0.28709 0.87177 0.0
C781 C 0.75736 0.30655 0.9018 0.0
C782 C 0.7568 0.34095 0.89991 0.0
C783 C 0.74415 0.35592 0.86639 0.0
C784 C 0.73204 0.3365 0.83539 0.0
C785 C 0.73311 0.30165 0.83813 0.0
H786 H 0.32375 0.22904 0.47195 0.0
H787 H 0.23907 0.29642 0.48174 0.0
H788 H 0.20083 0.25803 0.44566 0.0
H789 H 0.29776 0.20041 0.37686 0.0
H790 H 0.31114 0.15851 0.38669 0.0
H791 H 0.33261 0.19231 0.41128 0.0
H792 H 0.32026 0.16535 0.47463 0.0
H793 H 0.29853 0.13162 0.45027 0.0
H794 H 0.2769 0.15542 0.48373 0.0
H795 H 0.17102 0.21183 0.41128 0.0
H796 H 0.15171 0.16009 0.37948 0.0
H797 H 0.25499 0.12225 0.39202 0.0
C798 C 0.29729 0.23589 0.46603 0.0
C799 C 0.28441 0.2657 0.47974 0.0
C800 C 0.24951 0.27364 0.47172 0.0
C801 C 0.22756 0.25205 0.45116 0.0
C802 C 0.24084 0.2226 0.43872 0.0
C803 C 0.27487 0.21449 0.44562 0.0
C804 C 0.28218 0.18065 0.43012 0.0
C805 C 0.30742 0.18313 0.39941 0.0
C806 C 0.29523 0.15686 0.46157 0.0
C807 C 0.24686 0.17094 0.41396 0.0
C808 C 0.22345 0.19561 0.41908 0.0
C809 C 0.18907 0.1923 0.40706 0.0
C810 C 0.17831 0.16291 0.38926 0.0
C811 C 0.20178 0.13724 0.38407 0.0
C812 C 0.23652 0.14145 0.3962 0.0
H813 H 0.18841 0.77039 0.89776 0.0
H814 H 0.26534 0.84336 0.93293 0.0
H815 H 0.30359 0.8205 0.88791 0.0
H816 H 0.24411 0.70473 0.89185 0.0
H817 H 0.22201 0.68589 0.85138 0.0
H818 H 0.19884 0.71068 0.88243 0.0
H819 H 0.17687 0.74795 0.82681 0.0
H820 H 0.19981 0.7231 0.79544 0.0
H821 H 0.20702 0.76708 0.79786 0.0
H822 H 0.33521 0.78692 0.8432 0.0
H823 H 0.35827 0.74403 0.80286 0.0
H824 H 0.26127 0.69248 0.79804 0.0
C825 C 0.21298 0.78207 0.8954 0.0
C826 C 0.22386 0.80874 0.91874 0.0
C827 C 0.25649 0.8229 0.91531 0.0
C828 C 0.27833 0.81019 0.88972 0.0
C829 C 0.26713 0.78338 0.86777 0.0
C830 C 0.23518 0.76954 0.87025 0.0
C831 C 0.23035 0.73921 0.84577 0.0
C832 C 0.22344 0.70832 0.86927 0.0
C833 C 0.20182 0.74468 0.81462 0.0
C834 C 0.26494 0.7376 0.82998 0.0
C835 C 0.28561 0.76357 0.84257 0.0
C836 C 0.3192 0.76659 0.83297 0.0
C837 C 0.33211 0.74215 0.81028 0.0
C838 C 0.3116 0.71493 0.79808 0.0
C839 C 0.27743 0.71303 0.80737 0.0
loop_
_geom_bond_atom_site_label_1
_geom_bond_atom_site_label_2
_geom_bond_distance
_geom_bond_site_symmetry_2
_ccdc_geom_bond_type
Fe0 O2 1.918 1_554 S
Fe0 O5 1.997 . S
Fe0 O6 2.002 . S
Fe0 O11 1.976 1_554 S
Fe0 O14 1.996 1_554 S
Fe1 O2 1.918 1_554 S
Fe1 O9 1.997 . S
Fe1 O12 1.996 1_554 S
Fe1 O16 1.976 1_554 S
Fe1 O19 2.002 . S
O2 Fe0 1.918 1_556 S
O2 Fe1 1.918 1_556 S
O2 Fe3 1.918 . S
Fe3 O2 1.918 . S
Fe3 O4 2.002 1_556 S
Fe3 O13 1.976 . S
Fe3 O17 1.996 . S
Fe3 O20 1.997 1_556 S
O4 Fe3 2.002 1_554 S
O4 C21 1.295 . S
O5 Fe0 1.997 . S
O5 C21 1.235 . S
O6 Fe0 2.002 . S
O6 C7 1.295 . S
C7 O6 1.295 . S
C7 O9 1.235 . S
C8 O13 1.287 . S
C8 O14 1.255 . S
O9 Fe1 1.997 . S
O9 C7 1.235 . S
C10 O16 1.287 . S
C10 O17 1.255 . S
O11 Fe0 1.976 1_556 S
O11 C18 1.287 . S
O12 Fe1 1.996 1_556 S
O12 C18 1.255 . S
O13 Fe3 1.976 . S
O13 C8 1.287 . S
O14 Fe0 1.996 1_556 S
O14 C8 1.255 . S
C15 O19 1.295 . S
C15 O20 1.235 . S
O16 Fe1 1.976 1_556 S
O16 C10 1.287 . S
O17 Fe3 1.996 . S
O17 C10 1.255 . S
C18 O11 1.287 . S
C18 O12 1.255 . S
O19 Fe1 2.002 . S
O19 C15 1.295 . S
O20 Fe3 1.997 1_554 S
O20 C15 1.235 . S
C21 O4 1.295 . S
C21 O5 1.235 . S
Fe22 O24 1.918 . S
Fe22 O27 1.997 . S
Fe22 O28 2.002 . S
Fe22 O33 1.976 . S
Fe22 O36 1.996 . S
Fe23 O24 1.918 . S
Fe23 O31 1.997 . S
Fe23 O34 1.996 . S
Fe23 O38 1.976 . S
Fe23 O41 2.002 . S
O24 Fe22 1.918 . S
O24 Fe23 1.918 . S
O24 Fe25 1.918 . S
Fe25 O24 1.918 . S
Fe25 O26 2.002 . S
Fe25 O35 1.976 . S
Fe25 O39 1.996 . S
Fe25 O42 1.997 . S
O26 Fe25 2.002 . S
O26 C43 1.295 . S
O27 Fe22 1.997 . S
O27 C43 1.235 . S
O28 Fe22 2.002 . S
O28 C29 1.295 . S
C29 O28 1.295 . S
C29 O31 1.235 . S
C30 O35 1.287 . S
C30 O36 1.255 . S
O31 Fe23 1.997 . S
O31 C29 1.235 . S
C32 O38 1.287 . S
C32 O39 1.255 . S
O33 Fe22 1.976 . S
O33 C40 1.287 . S
O34 Fe23 1.996 . S
O34 C40 1.255 . S
O35 Fe25 1.976 . S
O35 C30 1.287 . S
O36 Fe22 1.996 . S
O36 C30 1.255 . S
C37 O41 1.295 . S
C37 O42 1.235 . S
O38 Fe23 1.976 . S
O38 C32 1.287 . S
O39 Fe25 1.996 . S
O39 C32 1.255 . S
C40 O33 1.287 . S
C40 O34 1.255 . S
O41 Fe23 2.002 . S
O41 C37 1.295 . S
O42 Fe25 1.997 . S
O42 C37 1.235 . S
C43 O26 1.295 . S
C43 O27 1.235 . S
Fe44 O46 1.918 . S
Fe44 O49 1.997 . S
Fe44 O50 2.002 . S
Fe44 O55 1.976 . S
Fe44 O58 1.996 . S
Fe45 O46 1.918 . S
Fe45 O53 1.997 . S
Fe45 O56 1.996 . S
Fe45 O60 1.976 . S
Fe45 O63 2.002 1_554 S
O46 Fe44 1.918 . S
O46 Fe45 1.918 . S
O46 Fe47 1.918 . S
Fe47 O46 1.918 . S
Fe47 O48 2.002 . S
Fe47 O57 1.976 . S
Fe47 O61 1.996 . S
Fe47 O64 1.997 1_554 S
O48 Fe47 2.002 . S
O48 C65 1.295 . S
O49 Fe44 1.997 . S
O49 C65 1.235 . S
O50 Fe44 2.002 . S
O50 C51 1.295 . S
C51 O50 1.295 . S
C51 O53 1.235 . S
C52 O57 1.287 . S
C52 O58 1.255 . S
O53 Fe45 1.997 . S
O53 C51 1.235 . S
C54 O60 1.287 . S
C54 O61 1.255 . S
O55 Fe44 1.976 . S
O55 C62 1.287 . S
O56 Fe45 1.996 . S
O56 C62 1.255 . S
O57 Fe47 1.976 . S
O57 C52 1.287 . S
O58 Fe44 1.996 . S
O58 C52 1.255 . S
C59 O63 1.295 . S
C59 O64 1.235 . S
O60 Fe45 1.976 . S
O60 C54 1.287 . S
O61 Fe47 1.996 . S
O61 C54 1.255 . S
C62 O55 1.287 . S
C62 O56 1.255 . S
O63 Fe45 2.002 1_556 S
O63 C59 1.295 . S
O64 Fe47 1.997 1_556 S
O64 C59 1.235 . S
C65 O48 1.295 . S
C65 O49 1.235 . S
Fe66 O68 1.918 . S
Fe66 O71 1.997 . S
Fe66 O72 2.002 . S
Fe66 O77 1.976 . S
Fe66 O80 1.996 . S
Fe67 O68 1.918 . S
Fe67 O75 1.997 . S
Fe67 O78 1.996 . S
Fe67 O82 1.976 . S
Fe67 O85 2.002 . S
O68 Fe66 1.918 . S
O68 Fe67 1.918 . S
O68 Fe69 1.918 . S
Fe69 O68 1.918 . S
Fe69 O70 2.002 . S
Fe69 O79 1.976 . S
Fe69 O83 1.996 . S
Fe69 O86 1.997 . S
O70 Fe69 2.002 . S
O70 C87 1.295 . S
O71 Fe66 1.997 . S
O71 C87 1.235 . S
O72 Fe66 2.002 . S
O72 C73 1.295 . S
C73 O72 1.295 . S
C73 O75 1.235 . S
C74 O79 1.287 . S
C74 O80 1.255 . S
O75 Fe67 1.997 . S
O75 C73 1.235 . S
C76 O82 1.287 . S
C76 O83 1.255 . S
O77 Fe66 1.976 . S
O77 C84 1.287 . S
O78 Fe67 1.996 . S
O78 C84 1.255 . S
O79 Fe69 1.976 . S
O79 C74 1.287 . S
O80 Fe66 1.996 . S
O80 C74 1.255 . S
C81 O85 1.295 . S
C81 O86 1.235 . S
O82 Fe67 1.976 . S
O82 C76 1.287 . S
O83 Fe69 1.996 . S
O83 C76 1.255 . S
C84 O77 1.287 . S
C84 O78 1.255 . S
O85 Fe67 2.002 . S
O85 C81 1.295 . S
O86 Fe69 1.997 . S
O86 C81 1.235 . S
C87 O70 1.295 . S
C87 O71 1.235 . S
H88 C95 0.929 . S
H89 C98 0.930 . S
H90 C100 0.929 . S
H91 C92 0.969 . S
C92 H91 0.969 . S
C92 O93 1.550 . S
C92 H94 0.973 . S
O93 C92 1.550 . S
O93 C99 1.412 . S
H94 C92 0.973 . S
C95 H88 0.929 . S
C95 C96 1.400 . S
C95 C97 1.364 . S
C96 C95 1.400 . S
C96 C100 1.377 . S
C97 C95 1.364 . S
C97 C98 1.374 . S
C98 H89 0.930 . S
C98 C97 1.374 . S
C98 C99 1.383 . S
C99 O93 1.412 . S
C99 C98 1.383 . S
C99 C100 1.394 . S
C100 H90 0.929 . S
C100 C96 1.377 . S
C100 C99 1.394 . S
H101 C108 0.929 . S
H102 C111 0.930 . S
H103 C113 0.929 . S
H104 C105 0.969 . S
C105 H104 0.969 . S
C105 O106 1.550 . S
C105 H107 0.973 . S
O106 C105 1.550 . S
O106 C112 1.412 . S
H107 C105 0.973 . S
C108 H101 0.929 . S
C108 C109 1.400 . S
C108 C110 1.364 . S
C109 C108 1.400 . S
C109 C113 1.377 . S
C110 C108 1.364 . S
C110 C111 1.374 . S
C111 H102 0.930 . S
C111 C110 1.374 . S
C111 C112 1.383 . S
C112 O106 1.412 . S
C112 C111 1.383 . S
C112 C113 1.394 . S
C113 H103 0.929 . S
C113 C109 1.377 . S
C113 C112 1.394 . S
H114 C121 0.929 . S
H115 C124 0.930 . S
H116 C126 0.929 . S
H117 C118 0.969 . S
C118 H117 0.969 . S
C118 O119 1.550 . S
C118 H120 0.973 . S
O119 C118 1.550 . S
O119 C125 1.412 . S
H120 C118 0.973 . S
C121 H114 0.929 . S
C121 C122 1.400 . S
C121 C123 1.364 . S
C122 C121 1.400 . S
C122 C126 1.377 . S
C123 C121 1.364 . S
C123 C124 1.374 . S
C124 H115 0.930 . S
C124 C123 1.374 . S
C124 C125 1.383 . S
C125 O119 1.412 . S
C125 C124 1.383 . S
C125 C126 1.394 . S
C126 H116 0.929 . S
C126 C122 1.377 . S
C126 C125 1.394 . S
H127 C134 0.929 . S
H128 C137 0.930 . S
H129 C139 0.929 . S
H130 C131 0.969 . S
C131 H130 0.969 . S
C131 O132 1.550 . S
C131 H133 0.973 . S
O132 C131 1.550 . S
O132 C138 1.412 . S
H133 C131 0.973 . S
C134 H127 0.929 . S
C134 C135 1.400 . S
C134 C136 1.364 . S
C135 C134 1.400 . S
C135 C139 1.377 . S
C136 C134 1.364 . S
C136 C137 1.374 . S
C137 H128 0.930 . S
C137 C136 1.374 . S
C137 C138 1.383 . S
C138 O132 1.412 . S
C138 C137 1.383 . S
C138 C139 1.394 . S
C139 H129 0.929 . S
C139 C135 1.377 . S
C139 C138 1.394 . S
H140 C147 0.929 . S
H141 C150 0.930 . S
H142 C152 0.929 . S
H143 C144 0.969 . S
C144 H143 0.969 . S
C144 O145 1.550 . S
C144 H146 0.973 . S
O145 C144 1.550 . S
O145 C151 1.412 . S
H146 C144 0.973 . S
C147 H140 0.929 . S
C147 C148 1.400 . S
C147 C149 1.364 . S
C148 C147 1.400 . S
C148 C152 1.377 . S
C149 C147 1.364 . S
C149 C150 1.374 . S
C150 H141 0.930 . S
C150 C149 1.374 . S
C150 C151 1.383 . S
C151 O145 1.412 . S
C151 C150 1.383 . S
C151 C152 1.394 . S
C152 H142 0.929 . S
C152 C148 1.377 . S
C152 C151 1.394 . S
H153 C160 0.929 . S
H154 C163 0.930 . S
H155 C165 0.929 . S
H156 C157 0.969 . S
C157 H156 0.969 . S
C157 O158 1.550 . S
C157 H159 0.973 . S
O158 C157 1.550 . S
O158 C164 1.412 . S
H159 C157 0.973 . S
C160 H153 0.929 . S
C160 C161 1.400 . S
C160 C162 1.364 . S
C161 C160 1.400 . S
C161 C165 1.377 . S
C162 C160 1.364 . S
C162 C163 1.374 . S
C163 H154 0.930 . S
C163 C162 1.374 . S
C163 C164 1.383 . S
C164 O158 1.412 . S
C164 C163 1.383 . S
C164 C165 1.394 . S
C165 H155 0.929 . S
C165 C161 1.377 . S
C165 C164 1.394 . S
H166 C173 0.929 . S
H167 C176 0.930 . S
H168 C178 0.929 . S
H169 C170 0.969 . S
C170 H169 0.969 . S
C170 O171 1.550 . S
C170 H172 0.973 . S
O171 C170 1.550 . S
O171 C177 1.412 . S
H172 C170 0.973 . S
C173 H166 0.929 . S
C173 C174 1.400 . S
C173 C175 1.364 . S
C174 C173 1.400 . S
C174 C178 1.377 . S
C175 C173 1.364 . S
C175 C176 1.374 . S
C176 H167 0.930 . S
C176 C175 1.374 . S
C176 C177 1.383 . S
C177 O171 1.412 . S
C177 C176 1.383 . S
C177 C178 1.394 . S
C178 H168 0.929 . S
C178 C174 1.377 . S
C178 C177 1.394 . S
H179 C186 0.929 . S
H180 C189 0.930 . S
H181 C191 0.929 . S
H182 C183 0.969 . S
C183 H182 0.969 . S
C183 O184 1.550 . S
C183 H185 0.973 . S
O184 C183 1.550 . S
O184 C190 1.412 . S
H185 C183 0.973 . S
C186 H179 0.929 . S
C186 C187 1.400 . S
C186 C188 1.364 . S
C187 C186 1.400 . S
C187 C191 1.377 . S
C188 C186 1.364 . S
C188 C189 1.374 . S
C189 H180 0.930 . S
C189 C188 1.374 . S
C189 C190 1.383 . S
C190 O184 1.412 . S
C190 C189 1.383 . S
C190 C191 1.394 . S
C191 H181 0.929 . S
C191 C187 1.377 . S
C191 C190 1.394 . S
H192 C204 0.930 . S
H193 C206 0.930 . S
H194 C207 0.930 . S
H195 C211 0.959 1_565 S
H196 C211 0.959 . S
H197 C211 0.961 . S
H198 C212 0.960 . S
H199 C212 0.961 . S
H200 C212 0.959 . S
H201 C215 0.929 . S
H202 C216 0.929 1_565 S
H203 C218 0.930 . S
C204 H192 0.930 . S
C204 C205 1.399 . S
C204 C209 1.399 . S
C205 C204 1.399 . S
C205 C206 1.376 . S
C206 H193 0.930 . S
C206 C205 1.376 . S
C206 C207 1.388 . S
C207 H194 0.930 . S
C207 C206 1.388 . S
C207 C208 1.390 . S
C208 C207 1.390 . S
C208 C209 1.394 . S
C208 C214 1.465 . S
C209 C204 1.399 . S
C209 C208 1.394 . S
C209 C210 1.516 1_565 S
C210 C209 1.516 1_545 S
C210 C211 1.502 . S
C210 C212 1.561 . S
C210 C213 1.526 . S
C211 H195 0.959 1_545 S
C211 H196 0.959 . S
C211 H197 0.961 . S
C211 C210 1.502 . S
C212 H198 0.960 . S
C212 H199 0.961 . S
C212 H200 0.959 . S
C212 C210 1.561 . S
C213 C210 1.526 . S
C213 C214 1.396 1_545 S
C213 C218 1.390 . S
C214 C208 1.465 . S
C214 C213 1.396 1_565 S
C214 C215 1.399 . S
C215 H201 0.929 . S
C215 C214 1.399 . S
C215 C216 1.373 1_565 S
C216 H202 0.929 1_545 S
C216 C215 1.373 1_545 S
C216 C217 1.404 . S
C217 C216 1.404 . S
C217 C218 1.387 . S
C218 H203 0.930 . S
C218 C213 1.390 . S
C218 C217 1.387 . S
H219 C231 0.930 . S
H220 C233 0.930 . S
H221 C234 0.930 . S
H222 C238 0.959 . S
H223 C238 0.959 . S
H224 C238 0.961 . S
H225 C239 0.960 . S
H226 C239 0.961 . S
H227 C239 0.959 . S
H228 C242 0.929 . S
H229 C243 0.931 . S
H230 C245 0.930 . S
C231 H219 0.930 . S
C231 C232 1.399 . S
C231 C236 1.399 . S
C232 C231 1.399 . S
C232 C233 1.376 . S
C233 H220 0.930 . S
C233 C232 1.376 . S
C233 C234 1.388 . S
C234 H221 0.930 . S
C234 C233 1.388 . S
C234 C235 1.390 . S
C235 C234 1.390 . S
C235 C236 1.394 . S
C235 C241 1.465 . S
C236 C231 1.399 . S
C236 C235 1.394 . S
C236 C237 1.516 . S
C237 C236 1.516 . S
C237 C238 1.502 . S
C237 C239 1.561 . S
C237 C240 1.526 . S
C238 H222 0.959 . S
C238 H223 0.959 . S
C238 H224 0.961 . S
C238 C237 1.502 . S
C239 H225 0.960 . S
C239 H226 0.961 . S
C239 H227 0.959 . S
C239 C237 1.561 . S
C240 C237 1.526 . S
C240 C241 1.396 . S
C240 C245 1.390 . S
C241 C235 1.465 . S
C241 C240 1.396 . S
C241 C242 1.399 . S
C242 H228 0.929 . S
C242 C241 1.399 . S
C242 C243 1.385 . S
C243 H229 0.931 . S
C243 C242 1.385 . S
C243 C244 1.389 . S
C244 C243 1.389 . S
C244 C245 1.387 . S
C245 H230 0.930 . S
C245 C240 1.390 . S
C245 C244 1.387 . S
H246 C258 0.930 . S
H247 C260 0.930 . S
H248 C261 0.930 . S
H249 C265 0.959 . S
H250 C265 0.959 . S
H251 C265 0.961 . S
H252 C266 0.960 . S
H253 C266 0.961 . S
H254 C266 0.959 . S
H255 C269 0.929 . S
H256 C270 0.931 . S
H257 C272 0.930 . S
C258 H246 0.930 . S
C258 C259 1.399 . S
C258 C263 1.399 1_545 S
C259 C258 1.399 . S
C259 C260 1.376 . S
C260 H247 0.930 . S
C260 C259 1.376 . S
C260 C261 1.388 . S
C261 H248 0.930 . S
C261 C260 1.388 . S
C261 C262 1.390 1_545 S
C262 C261 1.390 1_565 S
C262 C263 1.394 . S
C262 C268 1.465 . S
C263 C258 1.399 1_565 S
C263 C262 1.394 . S
C263 C264 1.516 . S
C264 C263 1.516 . S
C264 C265 1.502 . S
C264 C266 1.561 . S
C264 C267 1.526 . S
C265 H249 0.959 . S
C265 H250 0.959 . S
C265 H251 0.961 . S
C265 C264 1.502 . S
C266 H252 0.960 . S
C266 H253 0.961 . S
C266 H254 0.959 . S
C266 C264 1.561 . S
C267 C264 1.526 . S
C267 C268 1.396 . S
C267 C272 1.390 . S
C268 C262 1.465 . S
C268 C267 1.396 . S
C268 C269 1.399 . S
C269 H255 0.929 . S
C269 C268 1.399 . S
C269 C270 1.385 . S
C270 H256 0.931 . S
C270 C269 1.385 . S
C270 C271 1.389 . S
C271 C270 1.389 . S
C271 C272 1.387 . S
C272 H257 0.930 . S
C272 C267 1.390 . S
C272 C271 1.387 . S
H273 C285 0.930 . S
H274 C287 0.930 . S
H275 C288 0.930 . S
H276 C292 0.959 . S
H277 C292 0.959 . S
H278 C292 0.961 . S
H279 C293 0.960 . S
H280 C293 0.961 . S
H281 C293 0.959 . S
H282 C296 0.929 . S
H283 C297 0.931 . S
H284 C299 0.930 . S
C285 H273 0.930 . S
C285 C286 1.399 . S
C285 C290 1.399 . S
C286 C285 1.399 . S
C286 C287 1.376 . S
C287 H274 0.930 . S
C287 C286 1.376 . S
C287 C288 1.388 . S
C288 H275 0.930 . S
C288 C287 1.388 . S
C288 C289 1.390 . S
C289 C288 1.390 . S
C289 C290 1.394 . S
C289 C295 1.465 . S
C290 C285 1.399 . S
C290 C289 1.394 . S
C290 C291 1.516 . S
C291 C290 1.516 . S
C291 C292 1.502 . S
C291 C293 1.561 . S
C291 C294 1.526 . S
C292 H276 0.959 . S
C292 H277 0.959 . S
C292 H278 0.961 . S
C292 C291 1.502 . S
C293 H279 0.960 . S
C293 H280 0.961 . S
C293 H281 0.959 . S
C293 C291 1.561 . S
C294 C291 1.526 . S
C294 C295 1.396 . S
C294 C299 1.390 . S
C295 C289 1.465 . S
C295 C294 1.396 . S
C295 C296 1.399 . S
C296 H282 0.929 . S
C296 C295 1.399 . S
C296 C297 1.385 . S
C297 H283 0.931 . S
C297 C296 1.385 . S
C297 C298 1.389 . S
C298 C297 1.389 . S
C298 C299 1.387 . S
C299 H284 0.930 . S
C299 C294 1.390 . S
C299 C298 1.387 . S
H300 C312 0.930 . S
H301 C314 0.930 . S
H302 C315 0.930 . S
H303 C319 0.959 . S
H304 C319 0.959 . S
H305 C319 0.961 . S
H306 C320 0.960 . S
H307 C320 0.961 . S
H308 C320 0.959 . S
H309 C323 0.929 . S
H310 C324 0.931 . S
H311 C326 0.930 . S
C312 H300 0.930 . S
C312 C313 1.399 . S
C312 C317 1.399 . S
C313 C312 1.399 . S
C313 C314 1.376 . S
C314 H301 0.930 . S
C314 C313 1.376 . S
C314 C315 1.388 . S
C315 H302 0.930 . S
C315 C314 1.388 . S
C315 C316 1.390 . S
C316 C315 1.390 . S
C316 C317 1.394 . S
C316 C322 1.465 . S
C317 C312 1.399 . S
C317 C316 1.394 . S
C317 C318 1.516 . S
C318 C317 1.516 . S
C318 C319 1.502 . S
C318 C320 1.561 . S
C318 C321 1.526 . S
C319 H303 0.959 . S
C319 H304 0.959 . S
C319 H305 0.961 . S
C319 C318 1.502 . S
C320 H306 0.960 . S
C320 H307 0.961 . S
C320 H308 0.959 . S
C320 C318 1.561 . S
C321 C318 1.526 . S
C321 C322 1.396 . S
C321 C326 1.390 . S
C322 C316 1.465 . S
C322 C321 1.396 . S
C322 C323 1.399 . S
C323 H309 0.929 . S
C323 C322 1.399 . S
C323 C324 1.385 . S
C324 H310 0.931 . S
C324 C323 1.385 . S
C324 C325 1.389 . S
C325 C324 1.389 . S
C325 C326 1.387 . S
C326 H311 0.930 . S
C326 C321 1.390 . S
C326 C325 1.387 . S
H327 C339 0.930 . S
H328 C341 0.930 . S
H329 C342 0.930 . S
H330 C346 0.959 . S
H331 C346 0.959 . S
H332 C346 0.961 . S
H333 C347 0.960 . S
H334 C347 0.961 . S
H335 C347 0.959 . S
H336 C350 0.929 . S
H337 C351 0.931 . S
H338 C353 0.930 . S
C339 H327 0.930 . S
C339 C340 1.399 . S
C339 C344 1.399 1_655 S
C340 C339 1.399 . S
C340 C341 1.376 . S
C341 H328 0.930 . S
C341 C340 1.376 . S
C341 C342 1.388 . S
C342 H329 0.930 . S
C342 C341 1.388 . S
C342 C343 1.390 1_655 S
C343 C342 1.390 1_455 S
C343 C344 1.394 . S
C343 C349 1.465 . S
C344 C339 1.399 1_455 S
C344 C343 1.394 . S
C344 C345 1.516 . S
C345 C344 1.516 . S
C345 C346 1.502 . S
C345 C347 1.561 . S
C345 C348 1.526 . S
C346 H330 0.959 . S
C346 H331 0.959 . S
C346 H332 0.961 . S
C346 C345 1.502 . S
C347 H333 0.960 . S
C347 H334 0.961 . S
C347 H335 0.959 . S
C347 C345 1.561 . S
C348 C345 1.526 . S
C348 C349 1.396 . S
C348 C353 1.390 . S
C349 C343 1.465 . S
C349 C348 1.396 . S
C349 C350 1.399 . S
C350 H336 0.929 . S
C350 C349 1.399 . S
C350 C351 1.385 . S
C351 H337 0.931 . S
C351 C350 1.385 . S
C351 C352 1.389 . S
C352 C351 1.389 . S
C352 C353 1.387 . S
C353 H338 0.930 . S
C353 C348 1.390 . S
C353 C352 1.387 . S
H354 C366 0.930 . S
H355 C368 0.930 . S
H356 C369 0.930 . S
H357 C373 0.959 . S
H358 C373 0.959 . S
H359 C373 0.961 . S
H360 C374 0.960 . S
H361 C374 0.961 . S
H362 C374 0.959 . S
H363 C377 0.929 . S
H364 C378 0.931 . S
H365 C380 0.930 . S
C366 H354 0.930 . S
C366 C367 1.399 . S
C366 C371 1.399 . S
C367 C366 1.399 . S
C367 C368 1.376 . S
C368 H355 0.930 . S
C368 C367 1.376 . S
C368 C369 1.388 . S
C369 H356 0.930 . S
C369 C368 1.388 . S
C369 C370 1.390 . S
C370 C369 1.390 . S
C370 C371 1.394 . S
C370 C376 1.465 . S
C371 C366 1.399 . S
C371 C370 1.394 . S
C371 C372 1.516 . S
C372 C371 1.516 . S
C372 C373 1.502 . S
C372 C374 1.561 . S
C372 C375 1.526 . S
C373 H357 0.959 . S
C373 H358 0.959 . S
C373 H359 0.961 . S
C373 C372 1.502 . S
C374 H360 0.960 . S
C374 H361 0.961 . S
C374 H362 0.959 . S
C374 C372 1.561 . S
C375 C372 1.526 . S
C375 C376 1.396 . S
C375 C380 1.390 . S
C376 C370 1.465 . S
C376 C375 1.396 . S
C376 C377 1.399 . S
C377 H363 0.929 . S
C377 C376 1.399 . S
C377 C378 1.385 . S
C378 H364 0.931 . S
C378 C377 1.385 . S
C378 C379 1.389 . S
C379 C378 1.389 . S
C379 C380 1.387 . S
C380 H365 0.930 . S
C380 C375 1.390 . S
C380 C379 1.387 . S
H381 C393 0.930 . S
H382 C395 0.930 . S
H383 C396 0.930 . S
H384 C400 0.959 . S
H385 C400 0.959 . S
H386 C400 0.961 . S
H387 C401 0.960 . S
H388 C401 0.961 . S
H389 C401 0.959 . S
H390 C404 0.929 . S
H391 C405 0.931 . S
H392 C407 0.930 . S
C393 H381 0.930 . S
C393 C394 1.399 . S
C393 C398 1.399 1_455 S
C394 C393 1.399 . S
C394 C395 1.376 . S
C395 H382 0.930 . S
C395 C394 1.376 . S
C395 C396 1.388 . S
C396 H383 0.930 . S
C396 C395 1.388 . S
C396 C397 1.390 1_455 S
C397 C396 1.390 1_655 S
C397 C398 1.394 . S
C397 C403 1.465 . S
C398 C393 1.399 1_655 S
C398 C397 1.394 . S
C398 C399 1.516 . S
C399 C398 1.516 . S
C399 C400 1.502 . S
C399 C401 1.561 . S
C399 C402 1.526 . S
C400 H384 0.959 . S
C400 H385 0.959 . S
C400 H386 0.961 . S
C400 C399 1.502 . S
C401 H387 0.960 . S
C401 H388 0.961 . S
C401 H389 0.959 . S
C401 C399 1.561 . S
C402 C399 1.526 . S
C402 C403 1.396 . S
C402 C407 1.390 . S
C403 C397 1.465 . S
C403 C402 1.396 . S
C403 C404 1.399 . S
C404 H390 0.929 . S
C404 C403 1.399 . S
C404 C405 1.385 . S
C405 H391 0.931 . S
C405 C404 1.385 . S
C405 C406 1.389 . S
C406 C405 1.389 . S
C406 C407 1.387 . S
C407 H392 0.930 . S
C407 C402 1.390 . S
C407 C406 1.387 . S
H408 C420 0.930 . S
H409 C422 0.930 . S
H410 C423 0.930 . S
H411 C427 0.959 . S
H412 C427 0.959 . S
H413 C427 0.961 . S
H414 C428 0.960 . S
H415 C428 0.961 . S
H416 C428 0.959 . S
H417 C431 0.929 . S
H418 C432 0.931 . S
H419 C434 0.930 . S
C420 H408 0.930 . S
C420 C421 1.399 . S
C420 C425 1.399 . S
C421 C420 1.399 . S
C421 C422 1.376 . S
C422 H409 0.930 . S
C422 C421 1.376 . S
C422 C423 1.388 . S
C423 H410 0.930 . S
C423 C422 1.388 . S
C423 C424 1.390 . S
C424 C423 1.390 . S
C424 C425 1.394 . S
C424 C430 1.465 . S
C425 C420 1.399 . S
C425 C424 1.394 . S
C425 C426 1.516 1_545 S
C426 C425 1.516 1_565 S
C426 C427 1.502 . S
C426 C428 1.561 . S
C426 C429 1.526 . S
C427 H411 0.959 . S
C427 H412 0.959 . S
C427 H413 0.961 . S
C427 C426 1.502 . S
C428 H414 0.960 . S
C428 H415 0.961 . S
C428 H416 0.959 . S
C428 C426 1.561 . S
C429 C426 1.526 . S
C429 C430 1.396 1_565 S
C429 C434 1.390 . S
C430 C424 1.465 . S
C430 C429 1.396 1_545 S
C430 C431 1.399 . S
C431 H417 0.929 . S
C431 C430 1.399 . S
C431 C432 1.385 . S
C432 H418 0.931 . S
C432 C431 1.385 . S
C432 C433 1.389 1_545 S
C433 C432 1.389 1_565 S
C433 C434 1.387 . S
C434 H419 0.930 . S
C434 C429 1.390 . S
C434 C433 1.387 . S
H435 C447 0.930 . S
H436 C449 0.930 . S
H437 C450 0.930 . S
H438 C454 0.959 . S
H439 C454 0.959 . S
H440 C454 0.961 . S
H441 C455 0.960 . S
H442 C455 0.961 . S
H443 C455 0.959 . S
H444 C458 0.929 . S
H445 C459 0.931 . S
H446 C461 0.930 . S
C447 H435 0.930 . S
C447 C448 1.399 . S
C447 C452 1.399 . S
C448 C447 1.399 . S
C448 C449 1.376 . S
C449 H436 0.930 . S
C449 C448 1.376 . S
C449 C450 1.388 . S
C450 H437 0.930 . S
C450 C449 1.388 . S
C450 C451 1.390 . S
C451 C450 1.390 . S
C451 C452 1.394 . S
C451 C457 1.465 . S
C452 C447 1.399 . S
C452 C451 1.394 . S
C452 C453 1.516 . S
C453 C452 1.516 . S
C453 C454 1.502 . S
C453 C455 1.561 . S
C453 C456 1.526 . S
C454 H438 0.959 . S
C454 H439 0.959 . S
C454 H440 0.961 . S
C454 C453 1.502 . S
C455 H441 0.960 . S
C455 H442 0.961 . S
C455 H443 0.959 . S
C455 C453 1.561 . S
C456 C453 1.526 . S
C456 C457 1.396 . S
C456 C461 1.390 . S
C457 C451 1.465 . S
C457 C456 1.396 . S
C457 C458 1.399 . S
C458 H444 0.929 . S
C458 C457 1.399 . S
C458 C459 1.385 . S
C459 H445 0.931 . S
C459 C458 1.385 . S
C459 C460 1.389 . S
C460 C459 1.389 . S
C460 C461 1.387 . S
C461 H446 0.930 . S
C461 C456 1.390 . S
C461 C460 1.387 . S
H462 C474 0.930 . S
H463 C476 0.930 . S
H464 C477 0.930 . S
H465 C481 0.959 . S
H466 C481 0.959 . S
H467 C481 0.961 . S
H468 C482 0.960 . S
H469 C482 0.961 . S
H470 C482 0.959 . S
H471 C485 0.929 . S
H472 C486 0.931 . S
H473 C488 0.930 . S
C474 H462 0.930 . S
C474 C475 1.399 . S
C474 C479 1.399 1_565 S
C475 C474 1.399 . S
C475 C476 1.376 . S
C476 H463 0.930 . S
C476 C475 1.376 . S
C476 C477 1.388 1_565 S
C477 H464 0.930 . S
C477 C476 1.388 1_545 S
C477 C478 1.390 . S
C478 C477 1.390 . S
C478 C479 1.394 . S
C478 C484 1.465 . S
C479 C474 1.399 1_545 S
C479 C478 1.394 . S
C479 C480 1.516 . S
C480 C479 1.516 . S
C480 C481 1.502 . S
C480 C482 1.561 . S
C480 C483 1.526 . S
C481 H465 0.959 . S
C481 H466 0.959 . S
C481 H467 0.961 . S
C481 C480 1.502 . S
C482 H468 0.960 . S
C482 H469 0.961 . S
C482 H470 0.959 . S
C482 C480 1.561 . S
C483 C480 1.526 . S
C483 C484 1.396 . S
C483 C488 1.390 . S
C484 C478 1.465 . S
C484 C483 1.396 . S
C484 C485 1.399 . S
C485 H471 0.929 . S
C485 C484 1.399 . S
C485 C486 1.385 . S
C486 H472 0.931 . S
C486 C485 1.385 . S
C486 C487 1.389 . S
C487 C486 1.389 . S
C487 C488 1.387 . S
C488 H473 0.930 . S
C488 C483 1.390 . S
C488 C487 1.387 . S
H489 C501 0.930 . S
H490 C503 0.930 . S
H491 C504 0.930 . S
H492 C508 0.959 . S
H493 C508 0.959 . S
H494 C508 0.961 . S
H495 C509 0.960 . S
H496 C509 0.961 . S
H497 C509 0.959 . S
H498 C512 0.929 . S
H499 C513 0.931 . S
H500 C515 0.930 . S
C501 H489 0.930 . S
C501 C502 1.399 . S
C501 C506 1.399 . S
C502 C501 1.399 . S
C502 C503 1.376 . S
C503 H490 0.930 . S
C503 C502 1.376 . S
C503 C504 1.388 . S
C504 H491 0.930 . S
C504 C503 1.388 . S
C504 C505 1.390 . S
C505 C504 1.390 . S
C505 C506 1.394 . S
C505 C511 1.465 . S
C506 C501 1.399 . S
C506 C505 1.394 . S
C506 C507 1.516 . S
C507 C506 1.516 . S
C507 C508 1.502 . S
C507 C509 1.561 . S
C507 C510 1.526 . S
C508 H492 0.959 . S
C508 H493 0.959 . S
C508 H494 0.961 . S
C508 C507 1.502 . S
C509 H495 0.960 . S
C509 H496 0.961 . S
C509 H497 0.959 . S
C509 C507 1.561 . S
C510 C507 1.526 . S
C510 C511 1.396 . S
C510 C515 1.390 . S
C511 C505 1.465 . S
C511 C510 1.396 . S
C511 C512 1.399 . S
C512 H498 0.929 . S
C512 C511 1.399 . S
C512 C513 1.385 . S
C513 H499 0.931 . S
C513 C512 1.385 . S
C513 C514 1.389 . S
C514 C513 1.389 . S
C514 C515 1.387 . S
C515 H500 0.930 . S
C515 C510 1.390 . S
C515 C514 1.387 . S
H516 C528 0.930 . S
H517 C530 0.930 . S
H518 C531 0.930 . S
H519 C535 0.959 . S
H520 C535 0.959 . S
H521 C535 0.961 . S
H522 C536 0.960 . S
H523 C536 0.961 . S
H524 C536 0.959 . S
H525 C539 0.929 . S
H526 C540 0.931 . S
H527 C542 0.930 . S
C528 H516 0.930 . S
C528 C529 1.399 . S
C528 C533 1.399 . S
C529 C528 1.399 . S
C529 C530 1.376 . S
C530 H517 0.930 . S
C530 C529 1.376 . S
C530 C531 1.388 . S
C531 H518 0.930 . S
C531 C530 1.388 . S
C531 C532 1.390 . S
C532 C531 1.390 . S
C532 C533 1.394 . S
C532 C538 1.465 . S
C533 C528 1.399 . S
C533 C532 1.394 . S
C533 C534 1.516 . S
C534 C533 1.516 . S
C534 C535 1.502 . S
C534 C536 1.561 . S
C534 C537 1.526 . S
C535 H519 0.959 . S
C535 H520 0.959 . S
C535 H521 0.961 . S
C535 C534 1.502 . S
C536 H522 0.960 . S
C536 H523 0.961 . S
C536 H524 0.959 . S
C536 C534 1.561 . S
C537 C534 1.526 . S
C537 C538 1.396 . S
C537 C542 1.390 . S
C538 C532 1.465 . S
C538 C537 1.396 . S
C538 C539 1.399 . S
C539 H525 0.929 . S
C539 C538 1.399 . S
C539 C540 1.385 . S
C540 H526 0.931 . S
C540 C539 1.385 . S
C540 C541 1.389 . S
C541 C540 1.389 . S
C541 C542 1.387 . S
C542 H527 0.930 . S
C542 C537 1.390 . S
C542 C541 1.387 . S
H543 C555 0.930 . S
H544 C557 0.930 . S
H545 C558 0.930 . S
H546 C562 0.959 . S
H547 C562 0.959 . S
H548 C562 0.961 . S
H549 C563 0.960 . S
H550 C563 0.961 . S
H551 C563 0.959 . S
H552 C566 0.929 . S
H553 C567 0.931 . S
H554 C569 0.930 . S
C555 H543 0.930 . S
C555 C556 1.399 . S
C555 C560 1.399 1_455 S
C556 C555 1.399 . S
C556 C557 1.376 . S
C557 H544 0.930 . S
C557 C556 1.376 . S
C557 C558 1.388 . S
C558 H545 0.930 . S
C558 C557 1.388 . S
C558 C559 1.390 1_455 S
C559 C558 1.390 1_655 S
C559 C560 1.394 . S
C559 C565 1.465 . S
C560 C555 1.399 1_655 S
C560 C559 1.394 . S
C560 C561 1.516 . S
C561 C560 1.516 . S
C561 C562 1.502 . S
C561 C563 1.561 . S
C561 C564 1.526 . S
C562 H546 0.959 . S
C562 H547 0.959 . S
C562 H548 0.961 . S
C562 C561 1.502 . S
C563 H549 0.960 . S
C563 H550 0.961 . S
C563 H551 0.959 . S
C563 C561 1.561 . S
C564 C561 1.526 . S
C564 C565 1.396 . S
C564 C569 1.390 . S
C565 C559 1.465 . S
C565 C564 1.396 . S
C565 C566 1.399 . S
C566 H552 0.929 . S
C566 C565 1.399 . S
C566 C567 1.385 . S
C567 H553 0.931 . S
C567 C566 1.385 . S
C567 C568 1.389 . S
C568 C567 1.389 . S
C568 C569 1.387 . S
C569 H554 0.930 . S
C569 C564 1.390 . S
C569 C568 1.387 . S
H570 C582 0.930 . S
H571 C584 0.930 . S
H572 C585 0.930 . S
H573 C589 0.959 . S
H574 C589 0.959 . S
H575 C589 0.961 . S
H576 C590 0.960 . S
H577 C590 0.961 . S
H578 C590 0.959 . S
H579 C593 0.929 . S
H580 C594 0.931 . S
H581 C596 0.930 . S
C582 H570 0.930 . S
C582 C583 1.399 . S
C582 C587 1.399 . S
C583 C582 1.399 . S
C583 C584 1.376 . S
C584 H571 0.930 . S
C584 C583 1.376 . S
C584 C585 1.388 . S
C585 H572 0.930 . S
C585 C584 1.388 . S
C585 C586 1.390 . S
C586 C585 1.390 . S
C586 C587 1.394 . S
C586 C592 1.465 . S
C587 C582 1.399 . S
C587 C586 1.394 . S
C587 C588 1.516 . S
C588 C587 1.516 . S
C588 C589 1.502 . S
C588 C590 1.561 . S
C588 C591 1.526 . S
C589 H573 0.959 . S
C589 H574 0.959 . S
C589 H575 0.961 . S
C589 C588 1.502 . S
C590 H576 0.960 . S
C590 H577 0.961 . S
C590 H578 0.959 . S
C590 C588 1.561 . S
C591 C588 1.526 . S
C591 C592 1.396 . S
C591 C596 1.390 . S
C592 C586 1.465 . S
C592 C591 1.396 . S
C592 C593 1.399 . S
C593 H579 0.929 . S
C593 C592 1.399 . S
C593 C594 1.385 . S
C594 H580 0.931 . S
C594 C593 1.385 . S
C594 C595 1.389 . S
C595 C594 1.389 . S
C595 C596 1.387 . S
C596 H581 0.930 . S
C596 C591 1.390 . S
C596 C595 1.387 . S
H597 C609 0.930 . S
H598 C611 0.930 . S
H599 C612 0.930 . S
H600 C616 0.959 . S
H601 C616 0.959 1_455 S
H602 C616 0.961 . S
H603 C617 0.960 . S
H604 C617 0.961 . S
H605 C617 0.959 . S
H606 C620 0.929 . S
H607 C621 0.931 . S
H608 C623 0.930 . S
C609 H597 0.930 . S
C609 C610 1.399 . S
C609 C614 1.399 1_655 S
C610 C609 1.399 . S
C610 C611 1.376 . S
C611 H598 0.930 . S
C611 C610 1.376 . S
C611 C612 1.388 1_655 S
C612 H599 0.930 . S
C612 C611 1.388 1_455 S
C612 C613 1.390 . S
C613 C612 1.390 . S
C613 C614 1.394 . S
C613 C619 1.465 . S
C614 C609 1.399 1_455 S
C614 C613 1.394 . S
C614 C615 1.516 . S
C615 C614 1.516 . S
C615 C616 1.502 1_455 S
C615 C617 1.561 . S
C615 C618 1.526 . S
C616 H600 0.959 . S
C616 H601 0.959 1_655 S
C616 H602 0.961 . S
C616 C615 1.502 1_655 S
C617 H603 0.960 . S
C617 H604 0.961 . S
C617 H605 0.959 . S
C617 C615 1.561 . S
C618 C615 1.526 . S
C618 C619 1.396 . S
C618 C623 1.390 . S
C619 C613 1.465 . S
C619 C618 1.396 . S
C619 C620 1.399 . S
C620 H606 0.929 . S
C620 C619 1.399 . S
C620 C621 1.385 . S
C621 H607 0.931 . S
C621 C620 1.385 . S
C621 C622 1.389 . S
C622 C621 1.389 . S
C622 C623 1.387 . S
C623 H608 0.930 . S
C623 C618 1.390 . S
C623 C622 1.387 . S
H624 C636 0.930 . S
H625 C638 0.930 . S
H626 C639 0.930 . S
H627 C643 0.959 . S
H628 C643 0.959 . S
H629 C643 0.961 . S
H630 C644 0.960 . S
H631 C644 0.961 . S
H632 C644 0.959 . S
H633 C647 0.929 . S
H634 C648 0.931 . S
H635 C650 0.930 . S
C636 H624 0.930 . S
C636 C637 1.399 . S
C636 C641 1.399 . S
C637 C636 1.399 . S
C637 C638 1.376 . S
C638 H625 0.930 . S
C638 C637 1.376 . S
C638 C639 1.388 . S
C639 H626 0.930 . S
C639 C638 1.388 . S
C639 C640 1.390 . S
C640 C639 1.390 . S
C640 C641 1.394 . S
C640 C646 1.465 . S
C641 C636 1.399 . S
C641 C640 1.394 . S
C641 C642 1.516 . S
C642 C641 1.516 . S
C642 C643 1.502 . S
C642 C644 1.561 . S
C642 C645 1.526 . S
C643 H627 0.959 . S
C643 H628 0.959 . S
C643 H629 0.961 . S
C643 C642 1.502 . S
C644 H630 0.960 . S
C644 H631 0.961 . S
C644 H632 0.959 . S
C644 C642 1.561 . S
C645 C642 1.526 . S
C645 C646 1.396 . S
C645 C650 1.390 . S
C646 C640 1.465 . S
C646 C645 1.396 . S
C646 C647 1.399 . S
C647 H633 0.929 . S
C647 C646 1.399 . S
C647 C648 1.385 . S
C648 H634 0.931 . S
C648 C647 1.385 . S
C648 C649 1.389 . S
C649 C648 1.389 . S
C649 C650 1.387 . S
C650 H635 0.930 . S
C650 C645 1.390 . S
C650 C649 1.387 . S
H651 C663 0.930 . S
H652 C665 0.930 . S
H653 C666 0.930 . S
H654 C670 0.959 . S
H655 C670 0.959 . S
H656 C670 0.961 . S
H657 C671 0.960 . S
H658 C671 0.961 . S
H659 C671 0.959 . S
H660 C674 0.929 . S
H661 C675 0.931 . S
H662 C677 0.930 . S
C663 H651 0.930 . S
C663 C664 1.399 . S
C663 C668 1.399 . S
C664 C663 1.399 . S
C664 C665 1.376 . S
C665 H652 0.930 . S
C665 C664 1.376 . S
C665 C666 1.388 . S
C666 H653 0.930 . S
C666 C665 1.388 . S
C666 C667 1.390 . S
C667 C666 1.390 . S
C667 C668 1.394 . S
C667 C673 1.465 . S
C668 C663 1.399 . S
C668 C667 1.394 . S
C668 C669 1.516 . S
C669 C668 1.516 . S
C669 C670 1.502 . S
C669 C671 1.561 . S
C669 C672 1.526 . S
C670 H654 0.959 . S
C670 H655 0.959 . S
C670 H656 0.961 . S
C670 C669 1.502 . S
C671 H657 0.960 . S
C671 H658 0.961 . S
C671 H659 0.959 . S
C671 C669 1.561 . S
C672 C669 1.526 . S
C672 C673 1.396 . S
C672 C677 1.390 . S
C673 C667 1.465 . S
C673 C672 1.396 . S
C673 C674 1.399 . S
C674 H660 0.929 . S
C674 C673 1.399 . S
C674 C675 1.385 . S
C675 H661 0.931 . S
C675 C674 1.385 . S
C675 C676 1.389 . S
C676 C675 1.389 . S
C676 C677 1.387 . S
C677 H662 0.930 . S
C677 C672 1.390 . S
C677 C676 1.387 . S
H678 C690 0.930 . S
H679 C692 0.930 . S
H680 C693 0.930 . S
H681 C697 0.959 . S
H682 C697 0.959 . S
H683 C697 0.961 . S
H684 C698 0.960 . S
H685 C698 0.961 . S
H686 C698 0.959 . S
H687 C701 0.929 . S
H688 C702 0.931 . S
H689 C704 0.930 . S
C690 H678 0.930 . S
C690 C691 1.399 . S
C690 C695 1.399 . S
C691 C690 1.399 . S
C691 C692 1.376 . S
C692 H679 0.930 . S
C692 C691 1.376 . S
C692 C693 1.388 . S
C693 H680 0.930 . S
C693 C692 1.388 . S
C693 C694 1.390 . S
C694 C693 1.390 . S
C694 C695 1.394 . S
C694 C700 1.465 . S
C695 C690 1.399 . S
C695 C694 1.394 . S
C695 C696 1.516 . S
C696 C695 1.516 . S
C696 C697 1.502 . S
C696 C698 1.561 . S
C696 C699 1.526 . S
C697 H681 0.959 . S
C697 H682 0.959 . S
C697 H683 0.961 . S
C697 C696 1.502 . S
C698 H684 0.960 . S
C698 H685 0.961 . S
C698 H686 0.959 . S
C698 C696 1.561 . S
C699 C696 1.526 . S
C699 C700 1.396 . S
C699 C704 1.390 . S
C700 C694 1.465 . S
C700 C699 1.396 . S
C700 C701 1.399 . S
C701 H687 0.929 . S
C701 C700 1.399 . S
C701 C702 1.385 . S
C702 H688 0.931 . S
C702 C701 1.385 . S
C702 C703 1.389 . S
C703 C702 1.389 . S
C703 C704 1.387 . S
C704 H689 0.930 . S
C704 C699 1.390 . S
C704 C703 1.387 . S
H705 C717 0.930 . S
H706 C719 0.930 . S
H707 C720 0.930 . S
H708 C724 0.959 . S
H709 C724 0.959 . S
H710 C724 0.961 . S
H711 C725 0.960 . S
H712 C725 0.961 . S
H713 C725 0.959 . S
H714 C728 0.929 . S
H715 C729 0.931 . S
H716 C731 0.930 . S
C717 H705 0.930 . S
C717 C718 1.399 . S
C717 C722 1.399 . S
C718 C717 1.399 . S
C718 C719 1.376 . S
C719 H706 0.930 . S
C719 C718 1.376 . S
C719 C720 1.388 . S
C720 H707 0.930 . S
C720 C719 1.388 . S
C720 C721 1.390 . S
C721 C720 1.390 . S
C721 C722 1.394 . S
C721 C727 1.465 . S
C722 C717 1.399 . S
C722 C721 1.394 . S
C722 C723 1.516 . S
C723 C722 1.516 . S
C723 C724 1.502 . S
C723 C725 1.561 . S
C723 C726 1.526 . S
C724 H708 0.959 . S
C724 H709 0.959 . S
C724 H710 0.961 . S
C724 C723 1.502 . S
C725 H711 0.960 . S
C725 H712 0.961 . S
C725 H713 0.959 . S
C725 C723 1.561 . S
C726 C723 1.526 . S
C726 C727 1.396 . S
C726 C731 1.390 . S
C727 C721 1.465 . S
C727 C726 1.396 . S
C727 C728 1.399 . S
C728 H714 0.929 . S
C728 C727 1.399 . S
C728 C729 1.385 . S
C729 H715 0.931 . S
C729 C728 1.385 . S
C729 C730 1.389 . S
C730 C729 1.389 . S
C730 C731 1.387 . S
C731 H716 0.930 . S
C731 C726 1.390 . S
C731 C730 1.387 . S
H732 C744 0.930 . S
H733 C746 0.930 . S
H734 C747 0.930 . S
H735 C751 0.959 . S
H736 C751 0.959 . S
H737 C751 0.961 . S
H738 C752 0.960 . S
H739 C752 0.961 . S
H740 C752 0.959 . S
H741 C755 0.929 . S
H742 C756 0.931 . S
H743 C758 0.930 . S
C744 H732 0.930 . S
C744 C745 1.399 . S
C744 C749 1.399 . S
C745 C744 1.399 . S
C745 C746 1.376 . S
C746 H733 0.930 . S
C746 C745 1.376 . S
C746 C747 1.388 . S
C747 H734 0.930 . S
C747 C746 1.388 . S
C747 C748 1.390 . S
C748 C747 1.390 . S
C748 C749 1.394 . S
C748 C754 1.465 . S
C749 C744 1.399 . S
C749 C748 1.394 . S
C749 C750 1.516 . S
C750 C749 1.516 . S
C750 C751 1.502 . S
C750 C752 1.561 . S
C750 C753 1.526 . S
C751 H735 0.959 . S
C751 H736 0.959 . S
C751 H737 0.961 . S
C751 C750 1.502 . S
C752 H738 0.960 . S
C752 H739 0.961 . S
C752 H740 0.959 . S
C752 C750 1.561 . S
C753 C750 1.526 . S
C753 C754 1.396 . S
C753 C758 1.390 . S
C754 C748 1.465 . S
C754 C753 1.396 . S
C754 C755 1.399 . S
C755 H741 0.929 . S
C755 C754 1.399 . S
C755 C756 1.385 . S
C756 H742 0.931 . S
C756 C755 1.385 . S
C756 C757 1.389 . S
C757 C756 1.389 . S
C757 C758 1.387 . S
C758 H743 0.930 . S
C758 C753 1.390 . S
C758 C757 1.387 . S
H759 C771 0.930 . S
H760 C773 0.930 . S
H761 C774 0.930 1_554 S
H762 C778 0.959 . S
H763 C778 0.959 . S
H764 C778 0.961 . S
H765 C779 0.960 . S
H766 C779 0.961 . S
H767 C779 0.959 . S
H768 C782 0.929 . S
H769 C783 0.931 . S
H770 C785 0.930 . S
C771 H759 0.930 . S
C771 C772 1.399 . S
C771 C776 1.399 . S
C772 C771 1.399 . S
C772 C773 1.376 1_556 S
C773 H760 0.930 . S
C773 C772 1.376 1_554 S
C773 C774 1.388 1_554 S
C774 H761 0.930 1_556 S
C774 C773 1.388 1_556 S
C774 C775 1.390 . S
C775 C774 1.390 . S
C775 C776 1.394 . S
C775 C781 1.465 . S
C776 C771 1.399 . S
C776 C775 1.394 . S
C776 C777 1.516 . S
C777 C776 1.516 . S
C777 C778 1.502 . S
C777 C779 1.561 . S
C777 C780 1.526 . S
C778 H762 0.959 . S
C778 H763 0.959 . S
C778 H764 0.961 . S
C778 C777 1.502 . S
C779 H765 0.960 . S
C779 H766 0.961 . S
C779 H767 0.959 . S
C779 C777 1.561 . S
C780 C777 1.526 . S
C780 C781 1.396 . S
C780 C785 1.390 . S
C781 C775 1.465 . S
C781 C780 1.396 . S
C781 C782 1.399 . S
C782 H768 0.929 . S
C782 C781 1.399 . S
C782 C783 1.385 . S
C783 H769 0.931 . S
C783 C782 1.385 . S
C783 C784 1.389 . S
C784 C783 1.389 . S
C784 C785 1.387 . S
C785 H770 0.930 . S
C785 C780 1.390 . S
C785 C784 1.387 . S
H786 C798 0.930 . S
H787 C800 0.930 . S
H788 C801 0.930 . S
H789 C805 0.959 . S
H790 C805 0.959 . S
H791 C805 0.961 . S
H792 C806 0.960 . S
H793 C806 0.961 . S
H794 C806 0.959 . S
H795 C809 0.929 . S
H796 C810 0.931 . S
H797 C812 0.930 . S
C798 H786 0.930 . S
C798 C799 1.399 . S
C798 C803 1.399 . S
C799 C798 1.399 . S
C799 C800 1.376 . S
C800 H787 0.930 . S
C800 C799 1.376 . S
C800 C801 1.388 . S
C801 H788 0.930 . S
C801 C800 1.388 . S
C801 C802 1.390 . S
C802 C801 1.390 . S
C802 C803 1.394 . S
C802 C808 1.465 . S
C803 C798 1.399 . S
C803 C802 1.394 . S
C803 C804 1.516 . S
C804 C803 1.516 . S
C804 C805 1.502 . S
C804 C806 1.561 . S
C804 C807 1.526 . S
C805 H789 0.959 . S
C805 H790 0.959 . S
C805 H791 0.961 . S
C805 C804 1.502 . S
C806 H792 0.960 . S
C806 H793 0.961 . S
C806 H794 0.959 . S
C806 C804 1.561 . S
C807 C804 1.526 . S
C807 C808 1.396 . S
C807 C812 1.390 . S
C808 C802 1.465 . S
C808 C807 1.396 . S
C808 C809 1.399 . S
C809 H795 0.929 . S
C809 C808 1.399 . S
C809 C810 1.385 . S
C810 H796 0.931 . S
C810 C809 1.385 . S
C810 C811 1.389 . S
C811 C810 1.389 . S
C811 C812 1.387 . S
C812 H797 0.930 . S
C812 C807 1.390 . S
C812 C811 1.387 . S
H813 C825 0.930 . S
H814 C827 0.930 . S
H815 C828 0.930 . S
H816 C832 0.959 . S
H817 C832 0.959 . S
H818 C832 0.961 . S
H819 C833 0.960 . S
H820 C833 0.961 . S
H821 C833 0.959 . S
H822 C836 0.929 . S
H823 C837 0.931 . S
H824 C839 0.930 . S
C825 H813 0.930 . S
C825 C826 1.399 . S
C825 C830 1.399 . S
C826 C825 1.399 . S
C826 C827 1.376 . S
C827 H814 0.930 . S
C827 C826 1.376 . S
C827 C828 1.388 . S
C828 H815 0.930 . S
C828 C827 1.388 . S
C828 C829 1.390 . S
C829 C828 1.390 . S
C829 C830 1.394 . S
C829 C835 1.465 . S
C830 C825 1.399 . S
C830 C829 1.394 . S
C830 C831 1.516 . S
C831 C830 1.516 . S
C831 C832 1.502 . S
C831 C833 1.561 . S
C831 C834 1.526 . S
C832 H816 0.959 . S
C832 H817 0.959 . S
C832 H818 0.961 . S
C832 C831 1.502 . S
C833 H819 0.960 . S
C833 H820 0.961 . S
C833 H821 0.959 . S
C833 C831 1.561 . S
C834 C831 1.526 . S
C834 C835 1.396 . S
C834 C839 1.390 . S
C835 C829 1.465 . S
C835 C834 1.396 . S
C835 C836 1.399 . S
C836 H822 0.929 . S
C836 C835 1.399 . S
C836 C837 1.385 . S
C837 H823 0.931 . S
C837 C836 1.385 . S
C837 C838 1.389 . S
C838 C837 1.389 . S
C838 C839 1.387 . S
C839 H824 0.930 . S
C839 C834 1.390 . S
C839 C838 1.387 . S
C205 C7 1.339 . S
C217 C96 1.297 . S
C232 C37 1.190 . S
C244 C109 1.143 . S
C259 C54 1.416 . S
C271 C123 1.357 . S
C298 C136 1.387 . S
C286 C87 1.403 . S
C325 C148 1.213 . S
C313 C30 1.257 . S
C340 C51 1.471 1_556 S
C352 C162 1.436 . S
C367 C84 1.256 . S
C379 C174 1.213 . S
C394 C10 1.370 . S
C406 C188 1.358 . S
C421 C59 1.323 . S
C433 C187 1.298 . S
C460 C149 1.305 . S
C448 C74 1.421 . S
C487 C161 1.246 . S
C475 C18 1.285 . S
C502 C32 1.363 . S
C514 C175 1.317 . S
C541 C110 1.435 . S
C529 C73 1.461 . S
C556 C15 1.264 . S
C568 C122 1.202 . S
C595 C135 1.269 . S
C583 C43 1.336 . S
C622 C97 1.326 . S
C610 C62 1.361 . S
C649 C170 1.267 . S
C637 C21 1.349 . S
C676 C183 1.273 . S
C664 C29 1.388 . S
C691 C52 1.416 . S
C703 C144 1.333 . S
C730 C157 1.448 . S
C718 C81 1.440 . S
C757 C118 1.290 . S
C745 C40 1.358 . S
C772 C65 1.402 1_556 S
C784 C131 1.379 . S
C811 C92 1.303 . S
C799 C76 1.406 . S
C838 C105 1.241 . S
C826 C8 1.360 . S
