# Generated by pormake.
# Topology ptr, (4,4)-cn, num edge types: 1
# Building blocks:
#     Node 0, Type 0, BuildingBlock: UXUYUI_clean_sbu_0, # of connection points: 4
#     Node 1, Type 0, BuildingBlock: UXUYUI_clean_sbu_0, # of connection points: 4
#     Node 2, Type 0, BuildingBlock: UXUYUI_clean_sbu_0, # of connection points: 4
#     Node 3, Type 0, BuildingBlock: UXUYUI_clean_sbu_0, # of connection points: 4
#     Node 4, Type 0, BuildingBlock: UXUYUI_clean_sbu_0, # of connection points: 4
#     Node 5, Type 0, BuildingBlock: UXUYUI_clean_sbu_0, # of connection points: 4
#     Node 6, Type 0, BuildingBlock: UXUYUI_clean_sbu_0, # of connection points: 4
#     Node 7, Type 0, BuildingBlock: UXUYUI_clean_sbu_0, # of connection points: 4
#     Node 8, Type 0, BuildingBlock: UXUYUI_clean_sbu_0, # of connection points: 4
#     Node 9, Type 0, BuildingBlock: UXUYUI_clean_sbu_0, # of connection points: 4
#     Node 10, Type 0, BuildingBlock: UXUYUI_clean_sbu_0, # of connection points: 4
#     Node 11, Type 0, BuildingBlock: UXUYUI_clean_sbu_0, # of connection points: 4
#     Node 12, Type 0, BuildingBlock: UXUYUI_clean_sbu_0, # of connection points: 4
#     Node 13, Type 0, BuildingBlock: UXUYUI_clean_sbu_0, # of connection points: 4
#     Node 14, Type 0, BuildingBlock: UXUYUI_clean_sbu_0, # of connection points: 4
#     Node 15, Type 0, BuildingBlock: UXUYUI_clean_sbu_0, # of connection points: 4
#     Node 16, Type 0, BuildingBlock: UXUYUI_clean_sbu_0, # of connection points: 4
#     Node 17, Type 0, BuildingBlock: UXUYUI_clean_sbu_0, # of connection points: 4
#     Node 18, Type 1, BuildingBlock: MIFKUJ_clean_linker_1, # of connection points: 4
#     Node 19, Type 1, BuildingBlock: MIFKUJ_clean_linker_1, # of connection points: 4
#     Node 20, Type 1, BuildingBlock: MIFKUJ_clean_linker_1, # of connection points: 4
#     Node 21, Type 1, BuildingBlock: MIFKUJ_clean_linker_1, # of connection points: 4
#     Node 22, Type 1, BuildingBlock: MIFKUJ_clean_linker_1, # of connection points: 4
#     Node 23, Type 1, BuildingBlock: MIFKUJ_clean_linker_1, # of connection points: 4
#     Node 24, Type 1, BuildingBlock: MIFKUJ_clean_linker_1, # of connection points: 4
#     Node 25, Type 1, BuildingBlock: MIFKUJ_clean_linker_1, # of connection points: 4
#     Node 26, Type 1, BuildingBlock: MIFKUJ_clean_linker_1, # of connection points: 4
#     Node 27, Type 1, BuildingBlock: MIFKUJ_clean_linker_1, # of connection points: 4
#     Node 28, Type 1, BuildingBlock: MIFKUJ_clean_linker_1, # of connection points: 4
#     Node 29, Type 1, BuildingBlock: MIFKUJ_clean_linker_1, # of connection points: 4
#     Node 30, Type 1, BuildingBlock: MIFKUJ_clean_linker_1, # of connection points: 4
#     Node 31, Type 1, BuildingBlock: MIFKUJ_clean_linker_1, # of connection points: 4
#     Node 32, Type 1, BuildingBlock: MIFKUJ_clean_linker_1, # of connection points: 4
#     Node 33, Type 1, BuildingBlock: MIFKUJ_clean_linker_1, # of connection points: 4
#     Node 34, Type 1, BuildingBlock: MIFKUJ_clean_linker_1, # of connection points: 4
#     Node 35, Type 1, BuildingBlock: MIFKUJ_clean_linker_1, # of connection points: 4
#     Edge 36, Type (0, 1), BuildingBlock: KIFKEQ_clean_linker_1, # of connection points: 2
#     Edge 37, Type (0, 1), BuildingBlock: KIFKEQ_clean_linker_1, # of connection points: 2
#     Edge 38, Type (0, 1), BuildingBlock: KIFKEQ_clean_linker_1, # of connection points: 2
#     Edge 39, Type (0, 1), BuildingBlock: KIFKEQ_clean_linker_1, # of connection points: 2
#     Edge 40, Type (0, 1), BuildingBlock: KIFKEQ_clean_linker_1, # of connection points: 2
#     Edge 41, Type (0, 1), BuildingBlock: KIFKEQ_clean_linker_1, # of connection points: 2
#     Edge 42, Type (0, 1), BuildingBlock: KIFKEQ_clean_linker_1, # of connection points: 2
#     Edge 43, Type (0, 1), BuildingBlock: KIFKEQ_clean_linker_1, # of connection points: 2
#     Edge 44, Type (0, 1), BuildingBlock: KIFKEQ_clean_linker_1, # of connection points: 2
#     Edge 45, Type (0, 1), BuildingBlock: KIFKEQ_clean_linker_1, # of connection points: 2
#     Edge 46, Type (0, 1), BuildingBlock: KIFKEQ_clean_linker_1, # of connection points: 2
#     Edge 47, Type (0, 1), BuildingBlock: KIFKEQ_clean_linker_1, # of connection points: 2
#     Edge 48, Type (0, 1), BuildingBlock: KIFKEQ_clean_linker_1, # of connection points: 2
#     Edge 49, Type (0, 1), BuildingBlock: KIFKEQ_clean_linker_1, # of connection points: 2
#     Edge 50, Type (0, 1), BuildingBlock: KIFKEQ_clean_linker_1, # of connection points: 2
#     Edge 51, Type (0, 1), BuildingBlock: KIFKEQ_clean_linker_1, # of connection points: 2
#     Edge 52, Type (0, 1), BuildingBlock: KIFKEQ_clean_linker_1, # of connection points: 2
#     Edge 53, Type (0, 1), BuildingBlock: KIFKEQ_clean_linker_1, # of connection points: 2
#     Edge 54, Type (0, 1), BuildingBlock: KIFKEQ_clean_linker_1, # of connection points: 2
#     Edge 55, Type (0, 1), BuildingBlock: KIFKEQ_clean_linker_1, # of connection points: 2
#     Edge 56, Type (0, 1), BuildingBlock: KIFKEQ_clean_linker_1, # of connection points: 2
#     Edge 57, Type (0, 1), BuildingBlock: KIFKEQ_clean_linker_1, # of connection points: 2
#     Edge 58, Type (0, 1), BuildingBlock: KIFKEQ_clean_linker_1, # of connection points: 2
#     Edge 59, Type (0, 1), BuildingBlock: KIFKEQ_clean_linker_1, # of connection points: 2
#     Edge 60, Type (0, 1), BuildingBlock: KIFKEQ_clean_linker_1, # of connection points: 2
#     Edge 61, Type (0, 1), BuildingBlock: KIFKEQ_clean_linker_1, # of connection points: 2
#     Edge 62, Type (0, 1), BuildingBlock: KIFKEQ_clean_linker_1, # of connection points: 2
#     Edge 63, Type (0, 1), BuildingBlock: KIFKEQ_clean_linker_1, # of connection points: 2
#     Edge 64, Type (0, 1), BuildingBlock: KIFKEQ_clean_linker_1, # of connection points: 2
#     Edge 65, Type (0, 1), BuildingBlock: KIFKEQ_clean_linker_1, # of connection points: 2
#     Edge 66, Type (0, 1), BuildingBlock: KIFKEQ_clean_linker_1, # of connection points: 2
#     Edge 67, Type (0, 1), BuildingBlock: KIFKEQ_clean_linker_1, # of connection points: 2
#     Edge 68, Type (0, 1), BuildingBlock: KIFKEQ_clean_linker_1, # of connection points: 2
#     Edge 69, Type (0, 1), BuildingBlock: KIFKEQ_clean_linker_1, # of connection points: 2
#     Edge 70, Type (0, 1), BuildingBlock: KIFKEQ_clean_linker_1, # of connection points: 2
#     Edge 71, Type (0, 1), BuildingBlock: KIFKEQ_clean_linker_1, # of connection points: 2
#     Edge 72, Type (0, 1), BuildingBlock: KIFKEQ_clean_linker_1, # of connection points: 2
#     Edge 73, Type (0, 1), BuildingBlock: KIFKEQ_clean_linker_1, # of connection points: 2
#     Edge 74, Type (0, 1), BuildingBlock: KIFKEQ_clean_linker_1, # of connection points: 2
#     Edge 75, Type (0, 1), BuildingBlock: KIFKEQ_clean_linker_1, # of connection points: 2
#     Edge 76, Type (0, 1), BuildingBlock: KIFKEQ_clean_linker_1, # of connection points: 2
#     Edge 77, Type (0, 1), BuildingBlock: KIFKEQ_clean_linker_1, # of connection points: 2
#     Edge 78, Type (0, 1), BuildingBlock: KIFKEQ_clean_linker_1, # of connection points: 2
#     Edge 79, Type (0, 1), BuildingBlock: KIFKEQ_clean_linker_1, # of connection points: 2
#     Edge 80, Type (0, 1), BuildingBlock: KIFKEQ_clean_linker_1, # of connection points: 2
#     Edge 81, Type (0, 1), BuildingBlock: KIFKEQ_clean_linker_1, # of connection points: 2
#     Edge 82, Type (0, 1), BuildingBlock: KIFKEQ_clean_linker_1, # of connection points: 2
#     Edge 83, Type (0, 1), BuildingBlock: KIFKEQ_clean_linker_1, # of connection points: 2
#     Edge 84, Type (0, 1), BuildingBlock: KIFKEQ_clean_linker_1, # of connection points: 2
#     Edge 85, Type (0, 1), BuildingBlock: KIFKEQ_clean_linker_1, # of connection points: 2
#     Edge 86, Type (0, 1), BuildingBlock: KIFKEQ_clean_linker_1, # of connection points: 2
#     Edge 87, Type (0, 1), BuildingBlock: KIFKEQ_clean_linker_1, # of connection points: 2
#     Edge 88, Type (0, 1), BuildingBlock: KIFKEQ_clean_linker_1, # of connection points: 2
#     Edge 89, Type (0, 1), BuildingBlock: KIFKEQ_clean_linker_1, # of connection points: 2
#     Edge 90, Type (0, 1), BuildingBlock: KIFKEQ_clean_linker_1, # of connection points: 2
#     Edge 91, Type (0, 1), BuildingBlock: KIFKEQ_clean_linker_1, # of connection points: 2
#     Edge 92, Type (0, 1), BuildingBlock: KIFKEQ_clean_linker_1, # of connection points: 2
#     Edge 93, Type (0, 1), BuildingBlock: KIFKEQ_clean_linker_1, # of connection points: 2
#     Edge 94, Type (0, 1), BuildingBlock: KIFKEQ_clean_linker_1, # of connection points: 2
#     Edge 95, Type (0, 1), BuildingBlock: KIFKEQ_clean_linker_1, # of connection points: 2
#     Edge 96, Type (0, 1), BuildingBlock: KIFKEQ_clean_linker_1, # of connection points: 2
#     Edge 97, Type (0, 1), BuildingBlock: KIFKEQ_clean_linker_1, # of connection points: 2
#     Edge 98, Type (0, 1), BuildingBlock: KIFKEQ_clean_linker_1, # of connection points: 2
#     Edge 99, Type (0, 1), BuildingBlock: KIFKEQ_clean_linker_1, # of connection points: 2
#     Edge 100, Type (0, 1), BuildingBlock: KIFKEQ_clean_linker_1, # of connection points: 2
#     Edge 101, Type (0, 1), BuildingBlock: KIFKEQ_clean_linker_1, # of connection points: 2
#     Edge 102, Type (0, 1), BuildingBlock: KIFKEQ_clean_linker_1, # of connection points: 2
#     Edge 103, Type (0, 1), BuildingBlock: KIFKEQ_clean_linker_1, # of connection points: 2
#     Edge 104, Type (0, 1), BuildingBlock: KIFKEQ_clean_linker_1, # of connection points: 2
#     Edge 105, Type (0, 1), BuildingBlock: KIFKEQ_clean_linker_1, # of connection points: 2
#     Edge 106, Type (0, 1), BuildingBlock: KIFKEQ_clean_linker_1, # of connection points: 2
#     Edge 107, Type (0, 1), BuildingBlock: KIFKEQ_clean_linker_1, # of connection points: 2
# Relax obj value: 0.094
# Max RMSD: 0.272
# Mean RMSD: 0.119
data_MOF--net-ptr--node1-UXUYUI_clean_sbu_0--node2-MIFKUJ_clean_linker_1--edge1-KIFKEQ_clean_linker_1
_symmetry_space_group_name_H-M    P1
_symmetry_Int_Tables_number       1
_symmetry_cell_setting            triclinic
loop_
_symmetry_equiv_pos_as_xyz
'x, y, z'
_cell_length_a     109.33957
_cell_length_b     109.34441
_cell_length_c     71.783774
_cell_angle_alpha  90.139886
_cell_angle_beta   89.893155
_cell_angle_gamma 120.11457
loop_
_atom_site_label
_atom_site_type_symbol
_atom_site_fract_x
_atom_site_fract_y
_atom_site_fract_z
_atom_type_partial_charge
Li0 Li 0.98923 0.33678 0.00554 0.0
Li1 Li 0.01384 0.34927 0.01574 0.0
Li2 Li 0.99776 0.35815 0.02438 0.0
Li3 Li 0.00586 0.35996 0.99252 0.0
C4 C 0.98901 0.32971 0.04381 0.0
N5 N 0.97368 0.30852 0.06931 0.0
C6 C 0.99234 0.31911 0.04697 0.0
C7 C 0.97808 0.32971 0.05396 0.0
C8 C 0.98441 0.30844 0.05981 0.0
C9 C 0.9704 0.31886 0.0667 0.0
C10 C 0.01697 0.34397 0.97843 0.0
C11 C 0.0413 0.35706 0.96843 0.0
N12 N 0.03822 0.34778 0.95413 0.0
C13 C 0.01405 0.33455 0.96367 0.0
C14 C 0.0307 0.35531 0.98087 0.0
C15 C 0.02494 0.33666 0.95152 0.0
C16 C 0.96375 0.3173 0.98759 0.0
N17 N 0.97428 0.31849 0.99885 0.0
C18 C 0.96537 0.29359 0.99697 0.0
C19 C 0.97531 0.307 0.0035 0.0
C20 C 0.95438 0.29204 0.9853 0.0
C21 C 0.95356 0.30411 0.98078 0.0
H22 H 0.96353 0.32666 0.98331 0.0
H23 H 0.98414 0.30829 0.01171 0.0
C24 C 0.03918 0.35661 0.0347 0.0
N25 N 0.02852 0.34639 0.02444 0.0
C26 C 0.04947 0.35419 0.04246 0.0
C27 C 0.03765 0.33081 0.02876 0.0
C28 C 0.02768 0.33376 0.02109 0.0
C29 C 0.04865 0.34103 0.03984 0.0
H30 H 0.03953 0.36654 0.03714 0.0
H31 H 0.01902 0.32582 0.0129 0.0
C32 C 0.97342 0.35203 0.00411 0.0
N33 N 0.9476 0.35023 0.01024 0.0
C34 C 0.9702 0.36148 0.99535 0.0
C35 C 0.96345 0.3416 0.01584 0.0
C36 C 0.95711 0.36042 0.99868 0.0
C37 C 0.95047 0.34087 0.01879 0.0
C38 C 0.02201 0.3833 0.01527 0.0
C39 C 0.01324 0.38808 0.00823 0.0
C40 C 0.0352 0.39302 0.02266 0.0
C41 C 0.01779 0.40251 0.00876 0.0
C42 C 0.03938 0.40737 0.02295 0.0
N43 N 0.03066 0.41178 0.01605 0.0
C44 C 0.99868 0.36715 0.06123 0.0
C45 C 0.98777 0.37555 0.0404 0.0
C46 C 0.99742 0.37492 0.07584 0.0
N47 N 0.99393 0.36765 0.04392 0.0
C48 C 0.98628 0.38345 0.05457 0.0
C49 C 0.99127 0.38333 0.07254 0.0
H50 H 0.00371 0.36093 0.06358 0.0
H51 H 0.98448 0.37618 0.02647 0.0
C52 C 0.99936 0.369 0.95975 0.0
N53 N 0.01042 0.3711 0.97057 0.0
C54 C 0.00147 0.37797 0.9448 0.0
C55 C 0.02648 0.39056 0.95168 0.0
C56 C 0.02384 0.38147 0.96671 0.0
C57 C 0.01515 0.38911 0.94073 0.0
H58 H 0.9888 0.36066 0.96317 0.0
H59 H 0.03244 0.38297 0.97564 0.0
O60 O 0.99682 0.34037 0.03147 0.0
O61 O 0.00639 0.342 0.9904 0.0
O62 O 0.98625 0.35302 0.0011 0.0
O63 O 0.01781 0.36921 0.0149 0.0
H64 H 0.00092 0.31907 0.03951 0.0
H65 H 0.97561 0.33805 0.05218 0.0
H66 H 0.9868 0.3001 0.06226 0.0
H67 H 0.96187 0.31869 0.07457 0.0
H68 H 0.05196 0.36581 0.97014 0.0
H69 H 0.00347 0.32571 0.96162 0.0
H70 H 0.03317 0.36271 0.99221 0.0
H71 H 0.02283 0.32946 0.94002 0.0
H72 H 0.96642 0.28458 0.00075 0.0
H73 H 0.94549 0.30346 0.97145 0.0
H74 H 0.05789 0.36249 0.05058 0.0
H75 H 0.03642 0.32046 0.02654 0.0
H76 H 0.9778 0.36966 0.98626 0.0
H77 H 0.96562 0.334 0.02234 0.0
H78 H 0.95451 0.36772 0.99208 0.0
H79 H 0.94267 0.33283 0.02782 0.0
H80 H 0.00304 0.38076 0.00238 0.0
H81 H 0.04216 0.38953 0.02811 0.0
H82 H 0.0111 0.40634 0.00336 0.0
H83 H 0.04955 0.41501 0.02864 0.0
H84 H 0.00135 0.37446 0.08951 0.0
H85 H 0.98175 0.39001 0.05129 0.0
H86 H 0.99234 0.37649 0.93706 0.0
H87 H 0.03724 0.3988 0.94894 0.0
Li88 Li 0.66156 0.64926 0.0021 0.0
Li89 Li 0.64937 0.66088 0.01518 0.0
Li90 Li 0.64188 0.63599 0.02433 0.0
Li91 Li 0.63624 0.6416 0.99356 0.0
C92 C 0.67002 0.65385 0.04071 0.0
N93 N 0.6897 0.65429 0.06519 0.0
C94 C 0.67934 0.66633 0.05006 0.0
C95 C 0.67059 0.64156 0.04399 0.0
C96 C 0.68926 0.66636 0.06232 0.0
C97 C 0.68064 0.64201 0.05638 0.0
C98 C 0.65883 0.67313 0.98192 0.0
C99 C 0.65478 0.69155 0.97064 0.0
N100 N 0.66899 0.70039 0.96928 0.0
C101 C 0.67338 0.68233 0.98022 0.0
C102 C 0.64943 0.6777 0.97692 0.0
C103 C 0.67831 0.6961 0.97387 0.0
C104 C 0.67933 0.64652 0.97621 0.0
N105 N 0.6792 0.6525 0.99277 0.0
C106 C 0.70441 0.66449 0.99439 0.0
C107 C 0.69139 0.66138 0.00186 0.0
C108 C 0.70495 0.65862 0.97717 0.0
C109 C 0.69214 0.64945 0.96811 0.0
H110 H 0.66947 0.6397 0.96913 0.0
H111 H 0.69106 0.66634 0.01472 0.0
C112 C 0.64238 0.68016 0.03197 0.0
N113 N 0.65292 0.67862 0.02438 0.0
C114 C 0.64538 0.69308 0.03981 0.0
C115 C 0.66997 0.70258 0.03162 0.0
C116 C 0.66653 0.68945 0.02417 0.0
C117 C 0.65934 0.70446 0.03971 0.0
H118 H 0.6317 0.67129 0.03227 0.0
H119 H 0.67476 0.68778 0.01857 0.0
C120 C 0.6445 0.61726 0.99764 0.0
N121 N 0.64367 0.59173 0.99329 0.0
C122 C 0.63246 0.60558 0.99029 0.0
C123 C 0.65621 0.61602 0.00243 0.0
C124 C 0.63221 0.59274 0.98832 0.0
C125 C 0.65556 0.60301 0.00022 0.0
C126 C 0.61618 0.64079 0.01706 0.0
C127 C 0.6058 0.62854 0.02583 0.0
C128 C 0.61224 0.6491 0.00681 0.0
C129 C 0.5916 0.62469 0.02393 0.0
C130 C 0.59792 0.64489 0.00522 0.0
N131 N 0.58799 0.63287 0.01373 0.0
C132 C 0.63725 0.62769 0.06191 0.0
C133 C 0.62594 0.60875 0.04043 0.0
C134 C 0.63098 0.61846 0.07687 0.0
N135 N 0.63459 0.62271 0.04414 0.0
C136 C 0.61948 0.59915 0.05495 0.0
C137 C 0.62183 0.604 0.07346 0.0
H138 H 0.64397 0.63889 0.06443 0.0
H139 H 0.62359 0.60512 0.02621 0.0
C140 C 0.62595 0.63969 0.95678 0.0
N141 N 0.62258 0.63398 0.97414 0.0
C142 C 0.61633 0.63348 0.94213 0.0
C143 C 0.59988 0.61594 0.96366 0.0
C144 C 0.60988 0.6223 0.97777 0.0
C145 C 0.60313 0.62143 0.94554 0.0
H146 H 0.63621 0.64886 0.95424 0.0
H147 H 0.60765 0.61768 0.9915 0.0
O148 O 0.66026 0.65369 0.02865 0.0
O149 O 0.65381 0.65967 0.98832 0.0
O150 O 0.64496 0.62996 0.99944 0.0
O151 O 0.63012 0.64465 0.01865 0.0
H152 H 0.67896 0.67592 0.0478 0.0
H153 H 0.66323 0.63174 0.03727 0.0
H154 H 0.69659 0.67596 0.06957 0.0
H155 H 0.6812 0.63256 0.05904 0.0
H156 H 0.64763 0.69526 0.96681 0.0
H157 H 0.6808 0.67894 0.98394 0.0
H158 H 0.63814 0.67063 0.97786 0.0
H159 H 0.68955 0.70338 0.97263 0.0
H160 H 0.71396 0.67148 0.00201 0.0
H161 H 0.69201 0.64487 0.95467 0.0
H162 H 0.6369 0.69415 0.04594 0.0
H163 H 0.68089 0.71103 0.03157 0.0
H164 H 0.62336 0.60638 0.98629 0.0
H165 H 0.66578 0.62503 0.00759 0.0
H166 H 0.62292 0.58359 0.98279 0.0
H167 H 0.66454 0.6019 0.00392 0.0
H168 H 0.60867 0.62203 0.03393 0.0
H169 H 0.62014 0.65868 0.00011 0.0
H170 H 0.58345 0.6152 0.03055 0.0
H171 H 0.59472 0.65119 0.99724 0.0
H172 H 0.63311 0.62263 0.09093 0.0
H173 H 0.61227 0.58814 0.05167 0.0
H174 H 0.61921 0.63796 0.92829 0.0
H175 H 0.58991 0.60649 0.96673 0.0
Li176 Li 0.35539 0.99525 0.99157 0.0
Li177 Li 0.36132 0.00536 0.02304 0.0
Li178 Li 0.33603 0.98876 0.01352 0.0
Li179 Li 0.34843 0.01294 0.00208 0.0
C180 C 0.35459 0.97421 0.01318 0.0
N181 N 0.35999 0.95233 0.00776 0.0
C182 C 0.36701 0.97522 0.0201 0.0
C183 C 0.3448 0.96195 0.00382 0.0
C184 C 0.36959 0.96408 0.01713 0.0
C185 C 0.34775 0.95104 0.00113 0.0
C186 C 0.38037 0.02765 0.99919 0.0
C187 C 0.3948 0.05212 0.00812 0.0
N188 N 0.40617 0.05246 0.99986 0.0
C189 C 0.39215 0.0283 0.99055 0.0
C190 C 0.38166 0.0397 0.00786 0.0
C191 C 0.40512 0.04091 0.99114 0.0
C192 C 0.35755 0.98762 0.95416 0.0
N193 N 0.36306 0.9898 0.97162 0.0
C194 C 0.38192 0.98652 0.96098 0.0
C195 C 0.37502 0.98935 0.97522 0.0
C196 C 0.37662 0.98441 0.94274 0.0
C197 C 0.36422 0.9849 0.93939 0.0
H198 H 0.34821 0.98838 0.95159 0.0
H199 H 0.3795 0.9917 0.98906 0.0
C200 C 0.37093 0.00856 0.06039 0.0
N201 N 0.37493 0.0101 0.04221 0.0
C202 C 0.3805 0.01025 0.07443 0.0
C203 C 0.39816 0.01533 0.05075 0.0
C204 C 0.38826 0.01351 0.03722 0.0
C205 C 0.39426 0.01342 0.06964 0.0
H206 H 0.36015 0.00551 0.06394 0.0
H207 H 0.39104 0.01416 0.02269 0.0
C208 C 0.32473 0.98675 0.97901 0.0
N209 N 0.29881 0.9694 0.96252 0.0
C210 C 0.31508 0.99146 0.97666 0.0
C211 C 0.3213 0.97331 0.97264 0.0
C212 C 0.302 0.98251 0.96839 0.0
C213 C 0.30812 0.96467 0.96443 0.0
C214 C 0.34263 0.01576 0.03979 0.0
C215 C 0.3292 0.01306 0.04514 0.0
C216 C 0.35461 0.02778 0.04662 0.0
C217 C 0.32797 0.02263 0.0568 0.0
C218 C 0.35294 0.03709 0.05827 0.0
N219 N 0.33976 0.03436 0.06305 0.0
C220 C 0.31673 0.9629 0.03104 0.0
C221 C 0.30703 0.9768 0.02066 0.0
C222 C 0.30375 0.95299 0.03874 0.0
N223 N 0.3181 0.97452 0.02224 0.0
C224 C 0.29386 0.96716 0.02808 0.0
C225 C 0.29212 0.95513 0.03746 0.0
H226 H 0.3258 0.96153 0.03255 0.0
H227 H 0.30851 0.98631 0.01404 0.0
C228 C 0.35449 0.03713 0.98103 0.0
N229 N 0.34559 0.02784 0.99394 0.0
C230 C 0.3518 0.04731 0.9735 0.0
C231 C 0.33081 0.03812 0.99261 0.0
C232 C 0.33392 0.02815 0.9998 0.0
C233 C 0.33973 0.04778 0.97912 0.0
H234 H 0.36348 0.03641 0.97623 0.0
H235 H 0.32669 0.02027 0.00944 0.0
O236 O 0.35195 0.98507 0.01584 0.0
O237 O 0.36759 0.01536 0.99873 0.0
O238 O 0.33756 0.99535 0.98717 0.0
O239 O 0.34402 0.00643 0.02848 0.0
H240 H 0.37464 0.98455 0.02756 0.0
H241 H 0.33498 0.96083 0.9988 0.0
H242 H 0.37921 0.96478 0.02227 0.0
H243 H 0.34029 0.94152 0.99384 0.0
H244 H 0.39594 0.06151 0.01481 0.0
H245 H 0.39132 0.01914 0.98357 0.0
H246 H 0.37258 0.03954 0.01405 0.0
H247 H 0.41434 0.04152 0.98464 0.0
H248 H 0.39165 0.98659 0.96408 0.0
H249 H 0.35983 0.98337 0.9255 0.0
H250 H 0.37698 0.00848 0.08879 0.0
H251 H 0.40867 0.01787 0.04642 0.0
H252 H 0.31761 0.00188 0.98131 0.0
H253 H 0.32877 0.96964 0.97388 0.0
H254 H 0.29439 0.98598 0.96664 0.0
H255 H 0.30531 0.95422 0.95951 0.0
H256 H 0.31981 0.00371 0.04025 0.0
H257 H 0.36509 0.02981 0.04317 0.0
H258 H 0.31763 0.02072 0.0609 0.0
H259 H 0.36213 0.04645 0.06359 0.0
H260 H 0.30296 0.94401 0.04614 0.0
H261 H 0.28518 0.96919 0.02661 0.0
H262 H 0.35901 0.05461 0.96321 0.0
H263 H 0.32121 0.03788 0.99703 0.0
Li264 Li 0.01097 0.66416 0.01173 0.0
Li265 Li 0.99349 0.64063 0.02362 0.0
Li266 Li 0.00266 0.64344 0.9907 0.0
Li267 Li 0.98623 0.65117 0.99975 0.0
C268 C 0.02601 0.6489 0.01836 0.0
N269 N 0.05223 0.65202 0.02579 0.0
C270 C 0.02922 0.64632 0.03625 0.0
C271 C 0.03608 0.65284 0.00418 0.0
C272 C 0.04256 0.64803 0.03975 0.0
C273 C 0.04929 0.65441 0.00823 0.0
C274 C 0.98907 0.65931 0.043 0.0
C275 C 0.9715 0.65095 0.06736 0.0
N276 N 0.98124 0.66063 0.07925 0.0
C277 C 0.99888 0.66925 0.05541 0.0
C278 C 0.97524 0.65016 0.04897 0.0
C279 C 0.99472 0.66973 0.07369 0.0
C280 C 0.02565 0.69378 0.01275 0.0
N281 N 0.02594 0.68223 0.01911 0.0
C282 C 0.0459 0.69669 0.03832 0.0
C283 C 0.03581 0.68344 0.03161 0.0
C284 C 0.04569 0.7088 0.03231 0.0
C285 C 0.03548 0.70726 0.01922 0.0
H286 H 0.01755 0.69246 0.00299 0.0
H287 H 0.03557 0.67412 0.03694 0.0
C288 C 0.98054 0.61451 0.04232 0.0
N289 N 0.98866 0.6287 0.04485 0.0
C290 C 0.97853 0.60525 0.0569 0.0
C291 C 0.9928 0.62541 0.07662 0.0
C292 C 0.99463 0.63426 0.06162 0.0
C293 C 0.98499 0.61067 0.07424 0.0
H294 H 0.97616 0.61036 0.02872 0.0
H295 H 0.00138 0.64555 0.06316 0.0
C296 C 0.01321 0.66891 0.97095 0.0
N297 N 0.03147 0.68293 0.9418 0.0
C298 C 0.00792 0.67004 0.95372 0.0
C299 C 0.0278 0.67512 0.97342 0.0
C300 C 0.01731 0.67711 0.93913 0.0
C301 C 0.03686 0.68211 0.9585 0.0
C302 C 0.9696 0.62383 0.9938 0.0
C303 C 0.9672 0.61999 0.97501 0.0
C304 C 0.95813 0.61978 0.0058 0.0
C305 C 0.95332 0.61237 0.96845 0.0
C306 C 0.94441 0.61216 0.99871 0.0
N307 N 0.9423 0.60866 0.98033 0.0
C308 C 0.01206 0.6254 0.9779 0.0
C309 C 0.00494 0.63514 0.95367 0.0
C310 C 0.01444 0.61718 0.96515 0.0
N311 N 0.00741 0.63415 0.972 0.0
C312 C 0.00706 0.62699 0.94042 0.0
C313 C 0.0117 0.6177 0.94613 0.0
H314 H 0.01361 0.62456 0.99261 0.0
H315 H 0.00077 0.64179 0.9494 0.0
C316 C 0.96456 0.65828 0.00175 0.0
N317 N 0.97135 0.65361 0.99044 0.0
C318 C 0.95426 0.66091 0.99449 0.0
C319 C 0.95811 0.65379 0.96414 0.0
C320 C 0.96832 0.65131 0.97199 0.0
C321 C 0.951 0.65877 0.9754 0.0
H322 H 0.9673 0.66019 0.01633 0.0
H323 H 0.974 0.64775 0.9633 0.0
O324 O 0.01296 0.64721 0.0147 0.0
O325 O 0.99297 0.65866 0.02507 0.0
O326 O 0.00412 0.66204 0.98539 0.0
O327 O 0.98312 0.63151 0.00041 0.0
H328 H 0.02156 0.64315 0.04736 0.0
H329 H 0.03368 0.65445 0.99013 0.0
H330 H 0.0452 0.64616 0.05357 0.0
H331 H 0.05717 0.65747 0.99739 0.0
H332 H 0.96085 0.64388 0.07219 0.0
H333 H 0.0096 0.67649 0.05103 0.0
H334 H 0.96749 0.6425 0.03952 0.0
H335 H 0.00222 0.67732 0.08347 0.0
H336 H 0.05341 0.6974 0.04868 0.0
H337 H 0.03501 0.71634 0.01419 0.0
H338 H 0.97261 0.59397 0.0543 0.0
H339 H 0.99785 0.63009 0.08976 0.0
H340 H 0.99667 0.66547 0.95159 0.0
H341 H 0.03213 0.67468 0.98673 0.0
H342 H 0.01335 0.67798 0.9257 0.0
H343 H 0.04817 0.68692 0.96023 0.0
H344 H 0.97596 0.623 0.96555 0.0
H345 H 0.95981 0.62248 0.02043 0.0
H346 H 0.9513 0.60943 0.95391 0.0
H347 H 0.93543 0.60902 0.00782 0.0
H348 H 0.0182 0.61032 0.97021 0.0
H349 H 0.00453 0.62756 0.92598 0.0
H350 H 0.94895 0.66463 0.0037 0.0
H351 H 0.95611 0.65221 0.94931 0.0
Li352 Li 0.33779 0.3519 0.01579 0.0
Li353 Li 0.36192 0.35974 0.02483 0.0
Li354 Li 0.35646 0.36472 0.9933 0.0
Li355 Li 0.35005 0.34058 0.00224 0.0
C356 C 0.35244 0.37824 0.03332 0.0
N357 N 0.35019 0.39138 0.06502 0.0
C358 C 0.34678 0.37049 0.04968 0.0
C359 C 0.35693 0.39267 0.03309 0.0
C360 C 0.34574 0.37732 0.06555 0.0
C361 C 0.35571 0.39912 0.04926 0.0
C362 C 0.34768 0.33264 0.04052 0.0
C363 C 0.36121 0.32155 0.04869 0.0
N364 N 0.35333 0.31633 0.06442 0.0
C365 C 0.33967 0.32713 0.05672 0.0
C366 C 0.35851 0.32982 0.03642 0.0
C367 C 0.3427 0.31893 0.06865 0.0
C368 C 0.31072 0.33468 0.03001 0.0
N369 N 0.31984 0.34813 0.02446 0.0
C370 C 0.30343 0.35549 0.03316 0.0
C371 C 0.31642 0.35846 0.02565 0.0
C372 C 0.29387 0.34174 0.03933 0.0
C373 C 0.29759 0.33122 0.03748 0.0
H374 H 0.31378 0.32671 0.02889 0.0
H375 H 0.32385 0.36906 0.02103 0.0
C376 C 0.38848 0.37886 0.0385 0.0
N377 N 0.37575 0.36797 0.04392 0.0
C378 C 0.39897 0.38653 0.05164 0.0
C379 C 0.38308 0.37159 0.07578 0.0
C380 C 0.3729 0.36414 0.06211 0.0
C381 C 0.39626 0.38309 0.07063 0.0
H382 H 0.39036 0.38177 0.02394 0.0
H383 H 0.36259 0.35563 0.06613 0.0
C384 C 0.32906 0.34946 0.97912 0.0
N385 N 0.31046 0.3544 0.959 0.0
C386 C 0.31921 0.33904 0.96726 0.0
C387 C 0.32946 0.36239 0.98078 0.0
C388 C 0.30989 0.34174 0.95719 0.0
C389 C 0.31997 0.36469 0.97049 0.0
C390 C 0.38049 0.35738 0.99352 0.0
C391 C 0.38323 0.35919 0.97439 0.0
C392 C 0.38966 0.35556 0.00522 0.0
C393 C 0.39503 0.35901 0.96726 0.0
C394 C 0.40135 0.35543 0.99755 0.0
N395 N 0.40377 0.35714 0.97889 0.0
C396 C 0.37215 0.39188 0.97819 0.0
C397 C 0.36074 0.37371 0.95565 0.0
C398 C 0.37852 0.402 0.96419 0.0
N399 N 0.36358 0.37806 0.97368 0.0
C400 C 0.36698 0.38345 0.94121 0.0
C401 C 0.37613 0.39779 0.94542 0.0
H402 H 0.37429 0.39497 0.99267 0.0
H403 H 0.35392 0.36261 0.95252 0.0
C404 C 0.3339 0.31163 0.99677 0.0
N405 N 0.34695 0.32284 0.99329 0.0
C406 C 0.33011 0.29825 0.98983 0.0
C407 C 0.35335 0.30816 0.97609 0.0
C408 C 0.35669 0.32135 0.98329 0.0
C409 C 0.33986 0.29641 0.97917 0.0
H410 H 0.32636 0.31316 0.00475 0.0
H411 H 0.36695 0.33036 0.98058 0.0
O412 O 0.35366 0.37184 0.01759 0.0
O413 O 0.34487 0.34078 0.02884 0.0
O414 O 0.33817 0.34689 0.98912 0.0
O415 O 0.36906 0.35768 0.00079 0.0
H416 H 0.34321 0.35932 0.05015 0.0
H417 H 0.36132 0.39881 0.02053 0.0
H418 H 0.34139 0.37145 0.0783 0.0
H419 H 0.35915 0.41028 0.04927 0.0
H420 H 0.36957 0.31928 0.04569 0.0
H421 H 0.33125 0.32925 0.06007 0.0
H422 H 0.36472 0.3339 0.02389 0.0
H423 H 0.33662 0.31463 0.08127 0.0
H424 H 0.30089 0.36386 0.03417 0.0
H425 H 0.29059 0.32052 0.04225 0.0
H426 H 0.40903 0.39516 0.04697 0.0
H427 H 0.38044 0.3687 0.09026 0.0
H428 H 0.31876 0.32896 0.96586 0.0
H429 H 0.33699 0.37058 0.98991 0.0
H430 H 0.30221 0.33377 0.94795 0.0
H431 H 0.32015 0.37465 0.97164 0.0
H432 H 0.37624 0.36057 0.96512 0.0
H433 H 0.38782 0.3543 0.02008 0.0
H434 H 0.39724 0.36033 0.95247 0.0
H435 H 0.40851 0.354 0.00644 0.0
H436 H 0.38564 0.41291 0.96803 0.0
H437 H 0.3648 0.3798 0.92691 0.0
H438 H 0.31965 0.28946 0.99275 0.0
H439 H 0.36114 0.30728 0.96774 0.0
Li440 Li 0.65214 0.9875 0.01669 0.0
Li441 Li 0.64448 0.004 0.02674 0.0
Li442 Li 0.63989 0.99468 0.99396 0.0
Li443 Li 0.66372 0.01245 0.00436 0.0
C444 C 0.62204 0.97043 0.01851 0.0
N445 N 0.60064 0.94251 0.01985 0.0
C446 C 0.61365 0.96514 0.03446 0.0
C447 C 0.61941 0.96158 0.00315 0.0
C448 C 0.60293 0.95098 0.0349 0.0
C449 C 0.60858 0.94749 0.00412 0.0
C450 C 0.66722 0.01054 0.04794 0.0
C451 C 0.67658 0.02953 0.07038 0.0
N452 N 0.67466 0.02015 0.08407 0.0
C453 C 0.66549 0.00111 0.06218 0.0
C454 C 0.67294 0.02489 0.05201 0.0
C455 C 0.66926 0.00617 0.08038 0.0
C456 C 0.66755 0.97332 0.01862 0.0
N457 N 0.65568 0.97307 0.02484 0.0
C458 C 0.65017 0.9534 0.04456 0.0
C459 C 0.64704 0.96342 0.03761 0.0
C460 C 0.66242 0.95346 0.03851 0.0
C461 C 0.67115 0.96355 0.0253 0.0
H462 H 0.67434 0.98128 0.00867 0.0
H463 H 0.63796 0.96375 0.04285 0.0
C464 C 0.63164 0.01773 0.04504 0.0
N465 N 0.63615 0.00828 0.04713 0.0
C466 C 0.62389 0.01955 0.05918 0.0
C467 C 0.62596 0.00218 0.07755 0.0
C468 C 0.63353 0.0006 0.063 0.0
C469 C 0.62073 0.01153 0.07561 0.0
H470 H 0.63355 0.02344 0.03209 0.0
H471 H 0.6369 0.99288 0.0641 0.0
C472 C 0.65947 0.98807 0.97546 0.0
N473 N 0.66307 0.97513 0.9445 0.0
C474 C 0.66766 0.99621 0.96047 0.0
C475 C 0.65332 0.97337 0.97484 0.0
C476 C 0.66929 0.98946 0.9449 0.0
C477 C 0.65521 0.96702 0.95903 0.0
C478 C 0.65025 0.02723 0.99637 0.0
C479 C 0.64634 0.0287 0.97835 0.0
C480 C 0.65807 0.03922 0.00742 0.0
C481 C 0.65053 0.04221 0.97157 0.0
C482 C 0.66207 0.05254 0.00013 0.0
N483 N 0.65826 0.05375 0.9825 0.0
C484 C 0.61328 0.98535 0.97837 0.0
C485 C 0.63113 0.99059 0.95589 0.0
C486 C 0.60344 0.98284 0.96438 0.0
N487 N 0.62684 0.98926 0.97392 0.0
C488 C 0.62163 0.98814 0.94144 0.0
C489 C 0.60763 0.98446 0.9456 0.0
H490 H 0.61024 0.98466 0.99285 0.0
H491 H 0.64202 0.99406 0.95267 0.0
C492 C 0.69315 0.03131 0.00569 0.0
N493 N 0.68119 0.0277 0.99584 0.0
C494 C 0.70632 0.04152 0.99879 0.0
C495 C 0.69457 0.04435 0.97204 0.0
C496 C 0.68167 0.03394 0.97929 0.0
C497 C 0.70711 0.04811 0.98172 0.0
H498 H 0.69247 0.02599 0.01865 0.0
H499 H 0.67211 0.03049 0.97136 0.0
O500 O 0.63257 0.98428 0.01789 0.0
O501 O 0.6635 0.00577 0.03007 0.0
O502 O 0.65789 0.99453 0.99089 0.0
O503 O 0.6463 0.01409 0.00319 0.0
H504 H 0.61546 0.97188 0.04642 0.0
H505 H 0.62555 0.96558 0.99054 0.0
H506 H 0.59641 0.94672 0.04719 0.0
H507 H 0.60645 0.94052 0.99233 0.0
H508 H 0.68096 0.0406 0.07375 0.0
H509 H 0.66116 0.98998 0.05924 0.0
H510 H 0.67458 0.03235 0.04109 0.0
H511 H 0.66788 0.99897 0.09156 0.0
H512 H 0.64332 0.94598 0.05501 0.0
H513 H 0.68067 0.96392 0.02025 0.0
H514 H 0.61988 0.02668 0.05687 0.0
H515 H 0.62395 0.99589 0.09001 0.0
H516 H 0.67262 0.0076 0.96078 0.0
H517 H 0.64728 0.96691 0.9865 0.0
H518 H 0.67552 0.99563 0.93314 0.0
H519 H 0.65048 0.95565 0.95835 0.0
H520 H 0.64021 0.01952 0.96965 0.0
H521 H 0.66101 0.03824 0.02147 0.0
H522 H 0.64765 0.04351 0.95761 0.0
H523 H 0.66818 0.06192 0.0085 0.0
H524 H 0.59285 0.98028 0.96829 0.0
H525 H 0.62531 0.98941 0.92717 0.0
H526 H 0.7158 0.04416 0.00661 0.0
H527 H 0.69478 0.04901 0.95866 0.0
Li528 Li 0.65586 0.67358 0.33658 0.0
Li529 Li 0.67849 0.68397 0.35116 0.0
Li530 Li 0.66035 0.69127 0.35975 0.0
Li531 Li 0.67233 0.69755 0.32937 0.0
C532 C 0.64988 0.65959 0.36783 0.0
N533 N 0.62931 0.63197 0.37485 0.0
C534 C 0.65329 0.64887 0.36745 0.0
C535 C 0.63607 0.65632 0.37194 0.0
C536 C 0.64272 0.63495 0.371 0.0
C537 C 0.62581 0.64227 0.37541 0.0
C538 C 0.68637 0.68427 0.31419 0.0
C539 C 0.71087 0.70064 0.30726 0.0
N540 N 0.71075 0.69144 0.29438 0.0
C541 C 0.68646 0.675 0.30082 0.0
C542 C 0.69864 0.69721 0.31739 0.0
C543 C 0.6989 0.67881 0.29098 0.0
C544 C 0.62819 0.65212 0.3246 0.0
N545 N 0.64197 0.6558 0.32671 0.0
C546 C 0.6374 0.63364 0.31425 0.0
C547 C 0.64668 0.64688 0.32177 0.0
C548 C 0.62313 0.62959 0.31146 0.0
C549 C 0.61856 0.63903 0.31684 0.0
H550 H 0.62471 0.6594 0.32877 0.0
H551 H 0.65768 0.65006 0.32382 0.0
C552 C 0.6984 0.6863 0.37784 0.0
N553 N 0.69267 0.68069 0.361 0.0
C554 C 0.70841 0.68354 0.38583 0.0
C555 C 0.7064 0.66929 0.35896 0.0
C556 C 0.69634 0.6722 0.3516 0.0
C557 C 0.71255 0.67491 0.37637 0.0
H558 H 0.69504 0.69277 0.38518 0.0
H559 H 0.69134 0.66754 0.33848 0.0
C560 C 0.64499 0.68864 0.31838 0.0
N561 N 0.63153 0.68744 0.28528 0.0
C562 C 0.64765 0.68304 0.30235 0.0
C563 C 0.63545 0.69359 0.31754 0.0
C564 C 0.64075 0.68253 0.28577 0.0
C565 C 0.62876 0.6929 0.30069 0.0
C566 C 0.69068 0.71625 0.36043 0.0
C567 C 0.68643 0.72578 0.36615 0.0
C568 C 0.70496 0.72018 0.36153 0.0
C569 C 0.69655 0.73915 0.37259 0.0
C570 C 0.71476 0.73365 0.36806 0.0
N571 N 0.71039 0.74278 0.3734 0.0
C572 C 0.65824 0.69849 0.39703 0.0
C573 C 0.64621 0.70447 0.37462 0.0
C574 C 0.65522 0.70555 0.41097 0.0
N575 N 0.6539 0.6983 0.37925 0.0
C576 C 0.64303 0.71169 0.38805 0.0
C577 C 0.64781 0.71256 0.40642 0.0
H578 H 0.66453 0.69366 0.40021 0.0
H579 H 0.64309 0.70431 0.36032 0.0
C580 C 0.6803 0.70918 0.29272 0.0
N581 N 0.67906 0.71206 0.31084 0.0
C582 C 0.68378 0.71947 0.27902 0.0
C583 C 0.68505 0.73564 0.30294 0.0
C584 C 0.68132 0.72498 0.31609 0.0
C585 C 0.68607 0.73291 0.28402 0.0
H586 H 0.67813 0.69873 0.28876 0.0
H587 H 0.67985 0.7269 0.33041 0.0
O588 O 0.65996 0.6732 0.36387 0.0
O589 O 0.67425 0.6806 0.32394 0.0
O590 O 0.65168 0.68935 0.33483 0.0
O591 O 0.68088 0.70296 0.35449 0.0
H592 H 0.66394 0.65127 0.36424 0.0
H593 H 0.63329 0.66453 0.37223 0.0
H594 H 0.64517 0.62652 0.37064 0.0
H595 H 0.61504 0.63955 0.37849 0.0
H596 H 0.72044 0.71064 0.3096 0.0
H597 H 0.67702 0.66496 0.29812 0.0
H598 H 0.69869 0.70459 0.32741 0.0
H599 H 0.69913 0.67172 0.28063 0.0
H600 H 0.64139 0.62664 0.31078 0.0
H601 H 0.60772 0.63648 0.3148 0.0
H602 H 0.71261 0.68789 0.39944 0.0
H603 H 0.70932 0.6627 0.35104 0.0
H604 H 0.65494 0.6791 0.30263 0.0
H605 H 0.63322 0.69794 0.32977 0.0
H606 H 0.64273 0.67824 0.27328 0.0
H607 H 0.62136 0.69671 0.29986 0.0
H608 H 0.67545 0.72297 0.36544 0.0
H609 H 0.70847 0.7129 0.35748 0.0
H610 H 0.69339 0.74665 0.37695 0.0
H611 H 0.72584 0.73683 0.36893 0.0
H612 H 0.65923 0.7061 0.42492 0.0
H613 H 0.63718 0.71684 0.384 0.0
H614 H 0.68417 0.71674 0.26461 0.0
H615 H 0.68691 0.74586 0.3076 0.0
Li616 Li 0.29854 0.97288 0.32928 0.0
Li617 Li 0.30503 0.96788 0.36013 0.0
Li618 Li 0.31343 0.9929 0.34973 0.0
Li619 Li 0.32383 0.97971 0.33658 0.0
C620 C 0.28043 0.97497 0.35525 0.0
N621 N 0.25314 0.97026 0.35675 0.0
C622 C 0.2701 0.96367 0.36558 0.0
C623 C 0.27693 0.98399 0.3459 0.0
C624 C 0.25635 0.96143 0.36611 0.0
C625 C 0.26307 0.9814 0.34676 0.0
C626 C 0.30374 0.94697 0.33518 0.0
C627 C 0.31023 0.92942 0.3423 0.0
N628 N 0.29777 0.91923 0.33498 0.0
C629 C 0.29108 0.93635 0.32752 0.0
C630 C 0.31346 0.94351 0.34246 0.0
C631 C 0.28822 0.92238 0.32763 0.0
C632 C 0.28768 0.96858 0.29259 0.0
N633 N 0.28414 0.96517 0.31077 0.0
C634 C 0.26016 0.94899 0.30243 0.0
C635 C 0.2707 0.95556 0.31585 0.0
C636 C 0.26351 0.95204 0.28346 0.0
C637 C 0.27749 0.96211 0.27863 0.0
H638 H 0.29852 0.97605 0.2889 0.0
H639 H 0.26822 0.95262 0.33028 0.0
C640 C 0.30253 0.95995 0.39805 0.0
N641 N 0.2979 0.95507 0.38054 0.0
C642 C 0.29675 0.95095 0.41337 0.0
C643 C 0.28165 0.9321 0.39229 0.0
C644 C 0.2876 0.94148 0.37745 0.0
C645 C 0.28614 0.93683 0.41054 0.0
H646 H 0.31055 0.97089 0.40014 0.0
H647 H 0.28363 0.93801 0.36355 0.0
C648 C 0.31944 0.00272 0.3141 0.0
N649 N 0.32553 0.02763 0.29658 0.0
C650 C 0.33346 0.01297 0.31037 0.0
C651 C 0.30851 0.00502 0.30859 0.0
C652 C 0.33632 0.02553 0.3016 0.0
C653 C 0.3118 0.01771 0.29984 0.0
C654 C 0.33568 0.98653 0.37186 0.0
C655 C 0.34719 -5e-05 0.37555 0.0
C656 C 0.33616 0.97454 0.37742 0.0
C657 C 0.35913 0.00115 0.38434 0.0
C658 C 0.34828 0.97617 0.3862 0.0
N659 N 0.35943 0.98933 0.38942 0.0
C660 C 0.30815 0.01303 0.3674 0.0
C661 C 0.33123 0.02218 0.35511 0.0
C662 C 0.31161 0.02634 0.37426 0.0
N663 N 0.31791 0.01122 0.35797 0.0
C664 C 0.33516 0.03566 0.36173 0.0
C665 C 0.3253 0.03787 0.37154 0.0
H666 H 0.29776 0.00409 0.36998 0.0
H667 H 0.33889 0.02038 0.34793 0.0
C668 C 0.34043 0.97123 0.31582 0.0
N669 N 0.34082 0.98169 0.32653 0.0
C670 C 0.35283 0.97285 0.30788 0.0
C671 C 0.36574 0.99608 0.32185 0.0
C672 C 0.3531 0.99399 0.32955 0.0
C673 C 0.3657 0.98544 0.3108 0.0
H674 H 0.33046 0.96174 0.31316 0.0
H675 H 0.35306 0.00229 0.33769 0.0
O676 O 0.29393 0.97724 0.3545 0.0
O677 O 0.30667 0.9607 0.33522 0.0
O678 O 0.31643 0.9904 0.32278 0.0
O679 O 0.32392 0.98516 0.36318 0.0
H680 H 0.27264 0.95665 0.37304 0.0
H681 H 0.28484 0.99294 0.33816 0.0
H682 H 0.24823 0.95268 0.37396 0.0
H683 H 0.2602 0.98827 0.33954 0.0
H684 H 0.31765 0.9266 0.34793 0.0
H685 H 0.28349 0.93884 0.32166 0.0
H686 H 0.32348 0.95162 0.34796 0.0
H687 H 0.27842 0.91405 0.32187 0.0
H688 H 0.24954 0.94146 0.30692 0.0
H689 H 0.28067 0.96464 0.26421 0.0
H690 H 0.30046 0.95499 0.42725 0.0
H691 H 0.27325 0.92138 0.38957 0.0
H692 H 0.34204 0.0113 0.31434 0.0
H693 H 0.2976 0.99706 0.31092 0.0
H694 H 0.34713 0.0336 0.29878 0.0
H695 H 0.30344 0.01965 0.29558 0.0
H696 H 0.34694 0.00936 0.37156 0.0
H697 H 0.32722 0.96409 0.37515 0.0
H698 H 0.36815 0.01147 0.38714 0.0
H699 H 0.3488 0.96697 0.39052 0.0
H700 H 0.30376 0.0275 0.38206 0.0
H701 H 0.34581 0.04426 0.35924 0.0
H702 H 0.35228 0.9645 0.29916 0.0
H703 H 0.37542 0.00592 0.32452 0.0
Li704 Li 0.02279 0.32705 0.32504 0.0
Li705 Li 0.02933 0.33933 0.35622 0.0
Li706 Li 0.0049 0.32352 0.3481 0.0
Li707 Li 0.01726 0.3461 0.33438 0.0
C708 C 0.01447 0.30703 0.3604 0.0
N709 N 0.00153 0.28267 0.38153 0.0
C710 C 0.01369 0.30789 0.37975 0.0
C711 C 0.00876 0.29381 0.35179 0.0
C712 C 0.00708 0.29544 0.39019 0.0
C713 C 0.00225 0.28161 0.36272 0.0
C714 C 0.0503 0.35565 0.33297 0.0
C715 C 0.07074 0.37607 0.34582 0.0
N716 N 0.07921 0.37164 0.3381 0.0
C717 C 0.05923 0.35136 0.32502 0.0
C718 C 0.05611 0.36818 0.34331 0.0
C719 C 0.07381 0.35957 0.32782 0.0
C720 C 0.02908 0.32269 0.28806 0.0
N721 N 0.02928 0.3195 0.30631 0.0
C722 C 0.04201 0.30763 0.29914 0.0
C723 C 0.03537 0.31196 0.312 0.0
C724 C 0.04236 0.31111 0.28025 0.0
C725 C 0.03552 0.31846 0.27466 0.0
H726 H 0.02432 0.32889 0.28403 0.0
H727 H 0.03556 0.30979 0.32666 0.0
C728 C 0.04252 0.35032 0.39159 0.0
N729 N 0.04311 0.34439 0.3752 0.0
C730 C 0.05239 0.35286 0.40563 0.0
C731 C 0.06321 0.3432 0.38551 0.0
C732 C 0.0531 0.34073 0.37202 0.0
C733 C 0.06285 0.34917 0.40273 0.0
H734 H 0.0342 0.35273 0.39397 0.0
H735 H 0.05307 0.33568 0.35903 0.0
C736 C 0.99214 0.31799 0.31473 0.0
N737 N 0.96569 0.29802 0.3019 0.0
C738 C 0.98017 0.31864 0.32008 0.0
C739 C 0.99064 0.3072 0.3028 0.0
C740 C 0.9669 0.30843 0.31348 0.0
C741 C 0.97718 0.2972 0.29647 0.0
C742 C 0.01007 0.35218 0.36589 0.0
C743 C 0.99612 0.34942 0.36558 0.0
C744 C 0.021 0.36571 0.37054 0.0
C745 C 0.99337 0.36029 0.36979 0.0
C746 C 0.01781 0.3763 0.37463 0.0
N747 N 0.00418 0.3734 0.37417 0.0
C748 C 0.98344 0.31236 0.37513 0.0
C749 C 0.97954 0.29633 0.35053 0.0
C750 C 0.97072 0.30264 0.38353 0.0
N751 N 0.98742 0.30922 0.35869 0.0
C752 C 0.9667 0.2863 0.35841 0.0
C753 C 0.96206 0.28947 0.37502 0.0
H754 H 0.99018 0.32241 0.38181 0.0
H755 H 0.98316 0.29384 0.33786 0.0
C756 C 0.0279 0.37345 0.31875 0.0
N757 N 0.01599 0.36156 0.32433 0.0
C758 C 0.02701 0.38461 0.31071 0.0
C759 C 0.00164 0.37112 0.31449 0.0
C760 C 0.00302 0.36021 0.32226 0.0
C761 C 0.01372 0.38349 0.30839 0.0
H762 H 0.03807 0.37418 0.32022 0.0
H763 H 0.9937 0.35066 0.32664 0.0
O764 O 0.02057 0.31907 0.34992 0.0
O765 O 0.03596 0.34764 0.33063 0.0
O766 O 0.00526 0.32793 0.32091 0.0
O767 O 0.01301 0.34172 0.36156 0.0
H768 H 0.01799 0.31805 0.3866 0.0
H769 H 0.00919 0.29299 0.3368 0.0
H770 H 0.00631 0.29593 0.40517 0.0
H771 H 0.9977 0.2713 0.35624 0.0
H772 H 0.07535 0.38573 0.3539 0.0
H773 H 0.05498 0.34178 0.31685 0.0
H774 H 0.04939 0.37172 0.34944 0.0
H775 H 0.08083 0.35632 0.32184 0.0
H776 H 0.04711 0.30191 0.30397 0.0
H777 H 0.03571 0.32147 0.26026 0.0
H778 H 0.05155 0.35727 0.41878 0.0
H779 H 0.07119 0.34037 0.38249 0.0
H780 H 0.98105 0.32671 0.32959 0.0
H781 H -0.00025 0.30648 0.29855 0.0
H782 H 0.95754 0.30874 0.31764 0.0
H783 H 0.97588 0.28878 0.28727 0.0
H784 H 0.98753 0.33908 0.3618 0.0
H785 H 0.03183 0.36804 0.37093 0.0
H786 H 0.98264 0.35832 0.36947 0.0
H787 H 0.02618 0.38683 0.37817 0.0
H788 H 0.96776 0.30538 0.39663 0.0
H789 H 0.9604 0.27627 0.35138 0.0
H790 H 0.0366 0.39383 0.30595 0.0
H791 H 0.9912 0.36986 0.31329 0.0
Li792 Li 0.67791 0.99184 0.34888 0.0
Li793 Li 0.66118 0.96735 0.35768 0.0
Li794 Li 0.67271 0.97297 0.32599 0.0
Li795 Li 0.65388 0.97816 0.33366 0.0
C796 C 0.69522 0.98006 0.35555 0.0
N797 N 0.72297 0.98884 0.36467 0.0
C798 C 0.69854 0.97702 0.37311 0.0
C799 C 0.70599 0.98737 0.34255 0.0
C800 C 0.71264 0.98161 0.37748 0.0
C801 C 0.71995 0.99176 0.34744 0.0
C802 C 0.65244 0.98333 0.37675 0.0
C803 C 0.63152 0.97429 0.39584 0.0
N804 N 0.63968 0.98154 0.41068 0.0
C805 C 0.66061 0.99085 0.39213 0.0
C806 C 0.63777 0.97512 0.37855 0.0
C807 C 0.65396 0.98975 0.40919 0.0
C808 C 0.69274 0.02157 0.34977 0.0
N809 N 0.69155 0.0099 0.35816 0.0
C810 C 0.70869 0.02416 0.38102 0.0
C811 C 0.69924 0.01094 0.37355 0.0
C812 C 0.71011 0.03645 0.37276 0.0
C813 C 0.70202 0.03502 0.35684 0.0
H814 H 0.68626 0.02041 0.33778 0.0
H815 H 0.69779 0.00151 0.38032 0.0
C816 C 0.64651 0.94038 0.37471 0.0
N817 N 0.65532 0.9544 0.37789 0.0
C818 C 0.64278 0.93067 0.38922 0.0
C819 C 0.65723 0.95 0.41004 0.0
C820 C 0.66073 0.95932 0.39511 0.0
C821 C 0.64825 0.93542 0.40718 0.0
H822 H 0.64267 0.93668 0.3608 0.0
H823 H 0.66803 0.97046 0.39716 0.0
C824 C 0.67954 0.99807 0.30654 0.0
N825 N 0.69355 0.01267 0.2748 0.0
C826 C 0.67193 0.99723 0.2905 0.0
C827 C 0.69426 0.00658 0.30655 0.0
C828 C 0.67921 0.00461 0.27456 0.0
C829 C 0.70115 0.01382 0.29034 0.0
C830 C 0.63986 0.94953 0.32628 0.0
C831 C 0.63873 0.94337 0.30881 0.0
C832 C 0.62769 0.94547 0.33689 0.0
C833 C 0.62538 0.93341 0.30211 0.0
C834 C 0.61454 0.93548 0.3297 0.0
N835 N 0.61366 0.92972 0.3126 0.0
C836 C 0.68754 0.96017 0.31079 0.0
C837 C 0.67578 0.96673 0.28873 0.0
C838 C 0.69166 0.9541 0.29677 0.0
N839 N 0.67973 0.96631 0.30654 0.0
C840 C 0.67966 0.96081 0.2743 0.0
C841 C 0.68756 0.95421 0.27826 0.0
H842 H 0.69019 0.95959 0.32513 0.0
H843 H 0.66914 0.97119 0.2858 0.0
C844 C 0.63455 0.98803 0.3321 0.0
N845 N 0.63879 0.97977 0.3233 0.0
C846 C 0.62393 0.98997 0.32439 0.0
C847 C 0.62215 0.97474 0.29882 0.0
C848 C 0.63293 0.97327 0.30689 0.0
C849 C 0.61756 0.98329 0.30747 0.0
H850 H 0.63961 0.99332 0.34495 0.0
H851 H 0.63678 0.96711 0.29987 0.0
O852 O 0.68147 0.97571 0.3511 0.0
O853 O 0.65877 0.98426 0.35995 0.0
O854 O 0.67256 0.99096 0.3223 0.0
O855 O 0.65283 0.95939 0.33299 0.0
H856 H 0.69032 0.97126 0.38329 0.0
H857 H 0.70357 0.98947 0.32876 0.0
H858 H 0.71537 0.97942 0.39105 0.0
H859 H 0.72839 0.99746 0.33751 0.0
H860 H 0.62017 0.96792 0.39744 0.0
H861 H 0.67196 0.99737 0.39095 0.0
H862 H 0.63126 0.96952 0.3667 0.0
H863 H 0.66017 0.99542 0.42124 0.0
H864 H 0.71479 0.02472 0.3932 0.0
H865 H 0.70256 0.04416 0.35019 0.0
H866 H 0.63607 0.91951 0.38625 0.0
H867 H 0.66164 0.95417 0.42364 0.0
H868 H 0.66052 0.99084 0.29031 0.0
H869 H 0.70029 0.00772 0.31899 0.0
H870 H 0.67345 0.00395 0.26199 0.0
H871 H 0.71255 0.0204 0.29015 0.0
H872 H 0.64804 0.94628 0.30049 0.0
H873 H 0.62841 0.94994 0.35055 0.0
H874 H 0.62434 0.92861 0.28857 0.0
H875 H 0.60503 0.93228 0.33774 0.0
H876 H 0.69751 0.94889 0.30052 0.0
H877 H 0.67631 0.96118 0.26023 0.0
H878 H 0.621 0.9969 0.3314 0.0
H879 H 0.6175 0.96922 0.28592 0.0
Li880 Li 0.0319 0.69612 0.36031 0.0
Li881 Li 0.00725 0.68829 0.35191 0.0
Li882 Li 0.02068 0.67752 0.3372 0.0
Li883 Li 0.02607 0.70134 0.32848 0.0
C884 C 0.01584 0.67306 0.38129 0.0
N885 N 0.01793 0.66541 0.41727 0.0
C886 C 0.00801 0.67458 0.39561 0.0
C887 C 0.02456 0.66746 0.38521 0.0
C888 C 0.00926 0.6707 0.41373 0.0
C889 C 0.02553 0.66371 0.40351 0.0
C890 C 0.02053 0.71853 0.35605 0.0
C891 C 0.01031 0.73235 0.34545 0.0
N892 N 0.01439 0.73989 0.3616 0.0
C893 C 0.02472 0.72649 0.37248 0.0
C894 C 0.01335 0.72153 0.34237 0.0
C895 C 0.02148 0.73721 0.37504 0.0
C896 C 0.0589 0.70786 0.37721 0.0
N897 N 0.04509 0.70372 0.38026 0.0
C898 C 0.0501 0.71184 0.41177 0.0
C899 C 0.04057 0.70562 0.39709 0.0
C900 C 0.0645 0.71643 0.40902 0.0
C901 C 0.06883 0.71426 0.39145 0.0
H902 H 0.06229 0.70653 0.36359 0.0
H903 H 0.0296 0.70255 0.39902 0.0
C904 C 0.97812 0.67105 0.35721 0.0
N905 N 0.98925 0.68402 0.36133 0.0
C906 C 0.96478 0.66674 0.36474 0.0
C907 C 0.97455 0.68935 0.38029 0.0
C908 C 0.98771 0.69314 0.37264 0.0
C909 C 0.96286 0.6759 0.3766 0.0
H910 H 0.97971 0.66394 0.34837 0.0
H911 H 0.99671 0.70325 0.37611 0.0
C912 C 0.04848 0.69101 0.3282 0.0
N913 N 0.06617 0.68248 0.31278 0.0
C914 C 0.05384 0.69529 0.31022 0.0
C915 C 0.05227 0.68257 0.33843 0.0
C916 C 0.06273 0.69082 0.30264 0.0
C917 C 0.06117 0.67831 0.33036 0.0
C918 C -0.00038 0.68251 0.31084 0.0
C919 C 0.99941 0.6754 0.29453 0.0
C920 C 0.99088 0.6884 0.31231 0.0
C921 C 0.99076 0.67464 0.27975 0.0
C922 C 0.98236 0.68739 0.29724 0.0
N923 N 0.98249 0.68062 0.2814 0.0
C924 C 0.01197 0.64841 0.33752 0.0
C925 C 0.02375 0.6606 0.30998 0.0
C926 C 0.00999 0.6357 0.33017 0.0
N927 N 0.01877 0.66051 0.32737 0.0
C928 C 0.02226 0.64821 0.30226 0.0
C929 C 0.01523 0.63556 0.31236 0.0
H930 H 0.00794 0.64862 0.35121 0.0
H931 H 0.02871 0.67026 0.30198 0.0
C932 C 0.04008 0.72869 0.31261 0.0
N933 N 0.03266 0.71464 0.3086 0.0
C934 C 0.04596 0.73862 0.29831 0.0
C935 C 0.03663 0.71946 0.276 0.0
C936 C 0.03087 0.70991 0.29073 0.0
C937 C 0.0444 0.73403 0.27971 0.0
H938 H 0.04175 0.73218 0.32696 0.0
H939 H 0.02539 0.6987 0.28793 0.0
O940 O 0.01482 0.67689 0.36348 0.0
O941 O 0.02357 0.70794 0.3534 0.0
O942 O 0.03963 0.69515 0.33576 0.0
O943 O 0.00792 0.68322 0.32551 0.0
H944 H 0.00116 0.67884 0.39281 0.0
H945 H 0.0305 0.666 0.37425 0.0
H946 H 0.00335 0.67191 0.42497 0.0
H947 H 0.03229 0.65943 0.40677 0.0
H948 H 0.00476 0.73479 0.33497 0.0
H949 H 0.03037 0.72436 0.38316 0.0
H950 H 0.01032 0.71572 0.32942 0.0
H951 H 0.0246 0.74341 0.38772 0.0
H952 H 0.04621 0.71313 0.42508 0.0
H953 H 0.07984 0.71786 0.38852 0.0
H954 H 0.95618 0.6562 0.36171 0.0
H955 H 0.97359 0.69687 0.38912 0.0
H956 H 0.05112 0.70192 0.30216 0.0
H957 H 0.04833 0.6793 0.35243 0.0
H958 H 0.06689 0.69398 0.2887 0.0
H959 H 0.06412 0.6717 0.33809 0.0
H960 H 0.00595 0.67061 0.29324 0.0
H961 H 0.99054 0.69355 0.32501 0.0
H962 H 0.9906 0.66928 0.26699 0.0
H963 H 0.97558 0.69195 0.29818 0.0
H964 H 0.00448 0.6261 0.33832 0.0
H965 H 0.02623 0.64843 0.28835 0.0
H966 H 0.05212 0.74974 0.30182 0.0
H967 H 0.03518 0.71546 0.26188 0.0
Li968 Li 0.31001 0.3403 0.35908 0.0
Li969 Li 0.3166 0.32289 0.35225 0.0
Li970 Li 0.32825 0.34538 0.33662 0.0
Li971 Li 0.30418 0.32834 0.32924 0.0
C972 C 0.33765 0.35415 0.37239 0.0
N973 N 0.35606 0.3792 0.39013 0.0
C974 C 0.34756 0.35463 0.38507 0.0
C975 C 0.3371 0.36642 0.36873 0.0
C976 C 0.35677 0.36739 0.3939 0.0
C977 C 0.3465 0.37898 0.37784 0.0
C978 C 0.29067 0.31324 0.37037 0.0
C979 C 0.26961 0.2977 0.38772 0.0
N980 N 0.27759 0.30011 0.40329 0.0
C981 C 0.29867 0.31556 0.38654 0.0
C982 C 0.27603 0.30424 0.37095 0.0
C983 C 0.29185 0.30883 0.40304 0.0
C984 C 0.29301 0.35062 0.37291 0.0
N985 N 0.30318 0.34762 0.37792 0.0
C986 C 0.30177 0.35344 0.40967 0.0
C987 C 0.30772 0.34904 0.39584 0.0
C988 C 0.29104 0.35639 0.40499 0.0
C989 C 0.28678 0.35507 0.38627 0.0
H990 H 0.28951 0.34924 0.35858 0.0
H991 H 0.31576 0.34648 0.3995 0.0
C992 C 0.33385 0.31292 0.36508 0.0
N993 N 0.32006 0.30884 0.3621 0.0
C994 C 0.33754 0.30345 0.37252 0.0
C995 C 0.31273 0.2857 0.37361 0.0
C996 C 0.30954 0.29549 0.36595 0.0
C997 C 0.32691 0.28965 0.37708 0.0
H998 H 0.34198 0.32358 0.36165 0.0
H999 H 0.29865 0.29245 0.36323 0.0
C1000 C 0.31271 0.35555 0.31783 0.0
N1001 N 0.31352 0.36884 0.28478 0.0
C1002 C 0.31866 0.35326 0.30189 0.0
C1003 C 0.30717 0.3646 0.31696 0.0
C1004 C 0.31897 0.36007 0.28532 0.0
C1005 C 0.30768 0.37123 0.30012 0.0
C1006 C 0.31761 0.31399 0.31667 0.0
C1007 C 0.32707 0.31327 0.30424 0.0
C1008 C 0.30457 0.30188 0.3202 0.0
C1009 C 0.32334 0.30043 0.29551 0.0
C1010 C 0.30122 0.28924 0.3112 0.0
N1011 N 0.3106 0.28878 0.29915 0.0
C1012 C 0.35556 0.35494 0.32388 0.0
C1013 C 0.34919 0.37271 0.32356 0.0
C1014 C 0.36883 0.36433 0.31651 0.0
N1015 N 0.34605 0.35924 0.32708 0.0
C1016 C 0.36229 0.38242 0.31601 0.0
C1017 C 0.37232 0.37826 0.31229 0.0
H1018 H 0.35278 0.34418 0.32703 0.0
H1019 H 0.34147 0.3759 0.32642 0.0
C1020 C 0.27728 0.31893 0.31415 0.0
N1021 N 0.29046 0.32147 0.30987 0.0
C1022 C 0.26715 0.31524 0.30017 0.0
C1023 C 0.28429 0.3166 0.2777 0.0
C1024 C 0.29407 0.32023 0.29211 0.0
C1025 C 0.27069 0.31426 0.2816 0.0
H1026 H 0.27479 0.32018 0.32837 0.0
H1027 H 0.30467 0.32243 0.28903 0.0
O1028 O 0.32863 0.34171 0.36363 0.0
O1029 O 0.29702 0.31979 0.35403 0.0
O1030 O 0.31211 0.34889 0.33421 0.0
O1031 O 0.32122 0.32651 0.32533 0.0
H1032 H 0.34812 0.34522 0.38803 0.0
H1033 H 0.3295 0.36629 0.35901 0.0
H1034 H 0.3645 0.36791 0.40375 0.0
H1035 H 0.34618 0.38855 0.37514 0.0
H1036 H 0.25828 0.29071 0.38837 0.0
H1037 H 0.31001 0.32247 0.38638 0.0
H1038 H 0.2697 0.30235 0.35855 0.0
H1039 H 0.29791 0.31054 0.41565 0.0
H1040 H 0.30546 0.35442 0.42388 0.0
H1041 H 0.27838 0.357 0.38208 0.0
H1042 H 0.34862 0.30691 0.37455 0.0
H1043 H 0.30416 0.27524 0.37706 0.0
H1044 H 0.32301 0.3463 0.30227 0.0
H1045 H 0.30251 0.36647 0.32917 0.0
H1046 H 0.32353 0.35839 0.27288 0.0
H1047 H 0.30343 0.37826 0.29925 0.0
H1048 H 0.33721 0.32255 0.30138 0.0
H1049 H 0.29708 0.30221 0.32973 0.0
H1050 H 0.33056 0.29972 0.28586 0.0
H1051 H 0.29118 0.2798 0.3138 0.0
H1052 H 0.37629 0.3607 0.31424 0.0
H1053 H 0.36442 0.39298 0.3128 0.0
H1054 H 0.25686 0.31373 0.30376 0.0
H1055 H 0.28742 0.31584 0.26361 0.0
Li1056 Li 0.32363 0.00756 0.66987 0.0
Li1057 Li 0.34727 0.02168 0.68284 0.0
Li1058 Li 0.32891 0.02772 0.68907 0.0
Li1059 Li 0.33989 0.03136 0.65823 0.0
C1060 C 0.32166 0.99731 0.70347 0.0
N1061 N 0.306 0.96978 0.71594 0.0
C1062 C 0.32802 0.98904 0.70549 0.0
C1063 C 0.30738 0.99163 0.70793 0.0
C1064 C 0.31991 0.97513 0.7118 0.0
C1065 C 0.29963 0.97768 0.71416 0.0
C1066 C 0.34649 0.0148 0.63945 0.0
C1067 C 0.36436 0.02552 0.61561 0.0
N1068 N 0.35509 0.0163 0.60289 0.0
C1069 C 0.33715 0.00541 0.62616 0.0
C1070 C 0.36022 0.02491 0.63417 0.0
C1071 C 0.34171 0.00634 0.60774 0.0
C1072 C 0.29675 0.98626 0.65711 0.0
N1073 N 0.30975 0.98898 0.66264 0.0
C1074 C 0.30378 0.96519 0.65607 0.0
C1075 C 0.31342 0.9788 0.66221 0.0
C1076 C 0.29028 0.96206 0.65006 0.0
C1077 C 0.28679 0.97281 0.65075 0.0
H1078 H 0.29421 0.99462 0.65723 0.0
H1079 H 0.32394 0.98135 0.6664 0.0
C1080 C 0.36351 0.02137 0.71276 0.0
N1081 N 0.3625 0.02069 0.69388 0.0
C1082 C 0.37409 0.02005 0.72171 0.0
C1083 C 0.38244 0.01738 0.69159 0.0
C1084 C 0.37168 0.01876 0.68323 0.0
C1085 C 0.38368 0.0179 0.7111 0.0
H1086 H 0.35595 0.02279 0.72086 0.0
H1087 H 0.37049 0.01803 0.66827 0.0
C1088 C 0.30997 0.0272 0.66548 0.0
N1089 N 0.29105 0.03683 0.66899 0.0
C1090 C 0.31236 0.03938 0.65606 0.0
C1091 C 0.29791 0.01985 0.67656 0.0
C1092 C 0.30268 0.04409 0.65804 0.0
C1093 C 0.28849 0.02492 0.6782 0.0
C1094 C 0.36106 0.04846 0.69147 0.0
C1095 C 0.36058 0.05131 0.71036 0.0
C1096 C 0.37412 0.05324 0.68274 0.0
C1097 C 0.37322 0.05884 0.72026 0.0
C1098 C 0.38652 0.06072 0.69314 0.0
N1099 N 0.38582 0.06333 0.71153 0.0
C1100 C 0.31803 0.03032 0.72405 0.0
C1101 C 0.3237 0.04872 0.70238 0.0
C1102 C 0.31487 0.03749 0.73767 0.0
N1103 N 0.32245 0.03609 0.70688 0.0
C1104 C 0.3204 0.05611 0.71539 0.0
C1105 C 0.31622 0.05069 0.7335 0.0
H1106 H 0.31746 0.02041 0.72739 0.0
H1107 H 0.32759 0.05323 0.68878 0.0
C1108 C 0.33824 0.03816 0.62075 0.0
N1109 N 0.34527 0.04335 0.63706 0.0
C1110 C 0.34097 0.04711 0.60557 0.0
C1111 C 0.35809 0.06661 0.62429 0.0
C1112 C 0.35514 0.05723 0.63904 0.0
C1113 C 0.35082 0.06163 0.60732 0.0
H1114 H 0.3302 0.02713 0.61972 0.0
H1115 H 0.36033 0.06113 0.65231 0.0
O1116 O 0.32934 0.01085 0.69697 0.0
O1117 O 0.3422 0.01415 0.65751 0.0
O1118 O 0.3194 0.02249 0.66389 0.0
O1119 O 0.34881 0.04081 0.68163 0.0
H1120 H 0.33904 0.99324 0.702 0.0
H1121 H 0.30232 0.99791 0.70647 0.0
H1122 H 0.32466 0.96858 0.71332 0.0
H1123 H 0.28854 0.97311 0.71756 0.0
H1124 H 0.37492 0.03335 0.6113 0.0
H1125 H 0.32647 0.99756 0.62996 0.0
H1126 H 0.36755 0.03233 0.64424 0.0
H1127 H 0.33458 0.99917 0.5973 0.0
H1128 H 0.30689 0.95722 0.65596 0.0
H1129 H 0.27663 0.97098 0.64593 0.0
H1130 H 0.37475 0.02068 0.73676 0.0
H1131 H 0.38947 0.01554 0.68291 0.0
H1132 H 0.32164 0.04521 0.64745 0.0
H1133 H 0.29591 0.01042 0.68396 0.0
H1134 H 0.30442 0.05353 0.6509 0.0
H1135 H 0.27916 0.01939 0.68683 0.0
H1136 H 0.35057 0.04763 0.71736 0.0
H1137 H 0.37467 0.05108 0.66814 0.0
H1138 H 0.37301 0.06107 0.73491 0.0
H1139 H 0.3967 0.06441 0.6866 0.0
H1140 H 0.31194 0.03298 0.75148 0.0
H1141 H 0.32136 0.06608 0.71133 0.0
H1142 H 0.33522 0.04274 0.59273 0.0
H1143 H 0.36555 0.07772 0.62646 0.0
Li1144 Li 0.99408 0.31215 0.66897 0.0
Li1145 Li 0.98147 0.32309 0.68225 0.0
Li1146 Li 0.97541 0.29826 0.69114 0.0
Li1147 Li 0.96869 0.30305 0.66033 0.0
C1148 C 0.00654 0.32144 0.7018 0.0
N1149 N 0.03403 0.33136 0.71333 0.0
C1150 C 0.01613 0.33596 0.70234 0.0
C1151 C 0.01086 0.31197 0.70741 0.0
C1152 C 0.03 0.34077 0.70813 0.0
C1153 C 0.02482 0.31719 0.71312 0.0
C1154 C 0.98512 0.33225 0.64505 0.0
C1155 C 0.97184 0.34179 0.63048 0.0
N1156 N 0.9841 0.35287 0.62404 0.0
C1157 C 0.99756 0.34364 0.63807 0.0
C1158 C 0.97214 0.33123 0.64105 0.0
C1159 C 0.99684 0.354 0.62758 0.0
C1160 C 0.01429 0.30579 0.6538 0.0
N1161 N 0.01208 0.31636 0.6596 0.0
C1162 C 0.03556 0.33378 0.65077 0.0
C1163 C 0.02239 0.33015 0.65828 0.0
C1164 C 0.03814 0.3231 0.64448 0.0
C1165 C 0.02732 0.30893 0.64623 0.0
H1166 H 0.00589 0.29493 0.65479 0.0
H1167 H 0.0203 0.33835 0.66285 0.0
C1168 C 0.9745 0.3397 0.70517 0.0
N1169 N 0.98342 0.34028 0.69155 0.0
C1170 C 0.97599 0.35213 0.71281 0.0
C1171 C 0.9961 0.36554 0.69265 0.0
C1172 C 0.99413 0.35285 0.68528 0.0
C1173 C 0.98696 0.36527 0.70662 0.0
H1174 H 0.96634 0.32957 0.71033 0.0
H1175 H 0.00135 0.35302 0.67485 0.0
C1176 C 0.97528 0.27858 0.66719 0.0
N1177 N 0.96853 0.25067 0.66985 0.0
C1178 C 0.96346 0.26801 0.65786 0.0
C1179 C 0.98375 0.27497 0.67768 0.0
C1180 C 0.96021 0.25396 0.65942 0.0
C1181 C 0.98014 0.26079 0.67891 0.0
C1182 C 0.94941 0.30387 0.68757 0.0
C1183 C 0.93894 0.29181 0.6966 0.0
C1184 C 0.94627 0.31405 0.68119 0.0
C1185 C 0.92542 0.28999 0.6987 0.0
C1186 C 0.93263 0.31185 0.68359 0.0
N1187 N 0.92257 0.29996 0.69219 0.0
C1188 C 0.97425 0.28882 0.72821 0.0
C1189 C 0.95797 0.27145 0.70736 0.0
C1190 C 0.96878 0.27928 0.74304 0.0
N1191 N 0.96876 0.28477 0.71081 0.0
C1192 C 0.95238 0.26152 0.72165 0.0
C1193 C 0.9577 0.26544 0.73979 0.0
H1194 H 0.98267 0.29955 0.73064 0.0
H1195 H 0.95339 0.26864 0.69361 0.0
C1196 C 0.9587 0.29752 0.62308 0.0
N1197 N 0.95476 0.29471 0.64125 0.0
C1198 C 0.94875 0.29077 0.60892 0.0
C1199 C 0.9309 0.27852 0.63248 0.0
C1200 C 0.94119 0.28539 0.64612 0.0
C1201 C 0.93463 0.28102 0.61355 0.0
H1202 H 0.96963 0.3048 0.61959 0.0
H1203 H 0.93839 0.28297 0.66059 0.0
O1204 O 0.99297 0.31652 0.69587 0.0
O1205 O 0.98566 0.32202 0.65538 0.0
O1206 O 0.97855 0.29238 0.66594 0.0
O1207 O 0.96272 0.3058 0.68542 0.0
H1208 H 0.01294 0.34344 0.69814 0.0
H1209 H 0.0035 0.30071 0.7074 0.0
H1210 H 0.03757 0.35198 0.70847 0.0
H1211 H 0.02833 0.30997 0.71741 0.0
H1212 H 0.96186 0.34113 0.62733 0.0
H1213 H 0.0077 0.34452 0.6408 0.0
H1214 H 0.96238 0.32232 0.64585 0.0
H1215 H 0.0064 0.36292 0.62221 0.0
H1216 H 0.0435 0.34484 0.64946 0.0
H1217 H 0.02887 0.30034 0.64174 0.0
H1218 H 0.96888 0.35147 0.72381 0.0
H1219 H 0.0047 0.37546 0.68751 0.0
H1220 H 0.95685 0.2706 0.64955 0.0
H1221 H 0.99299 0.28301 0.68486 0.0
H1222 H 0.95106 0.24566 0.65235 0.0
H1223 H 0.98656 0.25785 0.68708 0.0
H1224 H 0.94119 0.28388 0.70181 0.0
H1225 H 0.95431 0.32366 0.67474 0.0
H1226 H 0.91721 0.28065 0.70554 0.0
H1227 H 0.93006 0.31965 0.67869 0.0
H1228 H 0.97308 0.28267 0.7569 0.0
H1229 H 0.94364 0.25103 0.71869 0.0
H1230 H 0.95218 0.29288 0.59454 0.0
H1231 H 0.92015 0.27124 0.63677 0.0
Li1232 Li 0.68298 0.67792 0.66786 0.0
Li1233 Li 0.67136 0.65422 0.68108 0.0
Li1234 Li 0.69654 0.67224 0.68932 0.0
Li1235 Li 0.69077 0.66063 0.65867 0.0
C1236 C 0.67489 0.68153 0.702 0.0
N1237 N 0.6669 0.6999 0.71658 0.0
C1238 C 0.66063 0.67689 0.70541 0.0
C1239 C 0.6851 0.69545 0.70633 0.0
C1240 C 0.65679 0.68635 0.7127 0.0
C1241 C 0.68085 0.70459 0.71361 0.0
C1242 C 0.66071 0.64971 0.64483 0.0
C1243 C 0.64777 0.62691 0.62989 0.0
N1244 N 0.63736 0.62973 0.62537 0.0
C1245 C 0.64999 0.65247 0.63978 0.0
C1246 C 0.65968 0.6369 0.63964 0.0
C1247 C 0.63823 0.6422 0.63005 0.0
C1248 C 0.68991 0.7037 0.65013 0.0
N1249 N 0.67947 0.69217 0.65891 0.0
C1250 C 0.66308 0.70019 0.65366 0.0
C1251 C 0.66625 0.69024 0.66075 0.0
C1252 C 0.67361 0.71218 0.6444 0.0
C1253 C 0.68721 0.71392 0.64278 0.0
H1254 H 0.70025 0.70482 0.64851 0.0
H1255 H 0.65809 0.68085 0.66752 0.0
C1256 C 0.65401 0.63021 0.70298 0.0
N1257 N 0.65393 0.63957 0.69063 0.0
C1258 C 0.64141 0.61987 0.71103 0.0
C1259 C 0.6289 0.62914 0.69374 0.0
C1260 C 0.64173 0.63924 0.68595 0.0
C1261 C 0.62863 0.6193 0.70655 0.0
H1262 H 0.6639 0.63092 0.70683 0.0
H1263 H 0.64202 0.64712 0.67665 0.0
C1264 C 0.71634 0.69146 0.66556 0.0
N1265 N 0.74451 0.71206 0.66847 0.0
C1266 C 0.72681 0.6893 0.65768 0.0
C1267 C 0.7202 0.70421 0.67464 0.0
C1268 C 0.74099 0.69981 0.65937 0.0
C1269 C 0.73449 0.71447 0.67605 0.0
C1270 C 0.68979 0.64018 0.68365 0.0
C1271 C 0.70202 0.64109 0.69113 0.0
C1272 C 0.67917 0.62728 0.67655 0.0
C1273 C 0.70357 0.62917 0.69094 0.0
C1274 C 0.68111 0.61558 0.67664 0.0
N1275 N 0.69318 0.61677 0.68374 0.0
C1276 C 0.70654 0.68148 0.72589 0.0
C1277 C 0.72296 0.68003 0.70573 0.0
C1278 C 0.71601 0.68542 0.74075 0.0
N1279 N 0.71015 0.67886 0.70882 0.0
C1280 C 0.73278 0.68401 0.72014 0.0
C1281 C 0.7293 0.68663 0.73798 0.0
H1282 H 0.69618 0.68021 0.72807 0.0
H1283 H 0.7254 0.67744 0.69222 0.0
C1284 C 0.6934 0.65458 0.62111 0.0
N1285 N 0.69783 0.65439 0.63873 0.0
C1286 C 0.69914 0.65109 0.606 0.0
C1287 C 0.71389 0.64727 0.62748 0.0
C1288 C 0.70786 0.65082 0.64214 0.0
C1289 C 0.70964 0.64751 0.60909 0.0
H1290 H 0.68559 0.65772 0.61874 0.0
H1291 H 0.71163 0.6513 0.65614 0.0
O1292 O 0.67884 0.67246 0.69467 0.0
O1293 O 0.67229 0.65964 0.65441 0.0
O1294 O 0.7024 0.68123 0.66415 0.0
O1295 O 0.68812 0.65178 0.68371 0.0
H1296 H 0.65259 0.66612 0.70235 0.0
H1297 H 0.69619 0.69912 0.70421 0.0
H1298 H 0.64578 0.68292 0.71526 0.0
H1299 H 0.68864 0.71541 0.71693 0.0
H1300 H 0.64683 0.61693 0.62585 0.0
H1301 H 0.65068 0.66239 0.64344 0.0
H1302 H 0.66806 0.63475 0.64288 0.0
H1303 H 0.6298 0.64416 0.6262 0.0
H1304 H 0.6525 0.69848 0.65538 0.0
H1305 H 0.69557 0.72288 0.63548 0.0
H1306 H 0.64171 0.61245 0.72072 0.0
H1307 H 0.61938 0.62933 0.69019 0.0
H1308 H 0.72404 0.67959 0.65041 0.0
H1309 H 0.71226 0.70621 0.68045 0.0
H1310 H 0.74919 0.69823 0.65344 0.0
H1311 H 0.73762 0.72435 0.68312 0.0
H1312 H 0.71027 0.65092 0.6969 0.0
H1313 H 0.66944 0.62622 0.67129 0.0
H1314 H 0.71304 0.62976 0.69655 0.0
H1315 H 0.67298 0.60555 0.67114 0.0
H1316 H 0.71293 0.68736 0.75429 0.0
H1317 H 0.74277 0.68451 0.71749 0.0
H1318 H 0.69552 0.65136 0.59206 0.0
H1319 H 0.7222 0.64493 0.63049 0.0
Li1320 Li 0.34396 0.32683 0.68269 0.0
Li1321 Li 0.32618 0.3026 0.69124 0.0
Li1322 Li 0.33781 0.30773 0.6598 0.0
Li1323 Li 0.31994 0.31452 0.66716 0.0
C1324 C 0.36016 0.31404 0.68831 0.0
N1325 N 0.38809 0.32221 0.69514 0.0
C1326 C 0.36403 0.3107 0.70527 0.0
C1327 C 0.37046 0.3214 0.67476 0.0
C1328 C 0.37822 0.31496 0.70848 0.0
C1329 C 0.38453 0.32547 0.67849 0.0
C1330 C 0.31741 0.31917 0.70924 0.0
C1331 C 0.29512 0.31113 0.72486 0.0
N1332 N 0.30216 0.3173 0.74089 0.0
C1333 C 0.32443 0.3256 0.72579 0.0
C1334 C 0.30265 0.31202 0.70868 0.0
C1335 C 0.31653 0.32447 0.74168 0.0
C1336 C 0.36081 0.35655 0.68421 0.0
N1337 N 0.35814 0.34432 0.69258 0.0
C1338 C 0.37452 0.35712 0.71691 0.0
C1339 C 0.36469 0.34437 0.70866 0.0
C1340 C 0.37741 0.37 0.70878 0.0
C1341 C 0.37045 0.36958 0.69211 0.0
H1342 H 0.3552 0.35618 0.67164 0.0
H1343 H 0.36207 0.33451 0.71531 0.0
C1344 C 0.31125 0.27557 0.70815 0.0
N1345 N 0.31996 0.2896 0.71139 0.0
C1346 C 0.3077 0.26582 0.72258 0.0
C1347 C 0.32217 0.28513 0.74342 0.0
C1348 C 0.32547 0.2945 0.72857 0.0
C1349 C 0.3133 0.27055 0.74048 0.0
H1350 H 0.30745 0.27188 0.69423 0.0
H1351 H 0.33278 0.30564 0.73062 0.0
C1352 C 0.34465 0.33254 0.63927 0.0
N1353 N 0.35599 0.34528 0.60548 0.0
C1354 C 0.33577 0.33062 0.62421 0.0
C1355 C 0.35928 0.34114 0.63725 0.0
C1356 C 0.34171 0.33709 0.60721 0.0
C1357 C 0.36481 0.34744 0.62003 0.0
C1358 C 0.30471 0.28506 0.6602 0.0
C1359 C 0.30346 0.27878 0.64279 0.0
C1360 C 0.29266 0.28083 0.67115 0.0
C1361 C 0.29011 0.26845 0.63654 0.0
C1362 C 0.27951 0.27047 0.6644 0.0
N1363 N 0.27852 0.26455 0.64737 0.0
C1364 C 0.35022 0.29224 0.64689 0.0
C1365 C 0.34187 0.30087 0.62271 0.0
C1366 C 0.35382 0.28498 0.63404 0.0
N1367 N 0.34432 0.29995 0.64108 0.0
C1368 C 0.34534 0.29379 0.60935 0.0
C1369 C 0.3512 0.28553 0.61499 0.0
H1370 H 0.35173 0.29138 0.6616 0.0
H1371 H 0.33667 0.30656 0.61845 0.0
C1372 C 0.30597 0.3298 0.66313 0.0
N1373 N 0.30582 0.31793 0.6571 0.0
C1374 C 0.29666 0.33369 0.65558 0.0
C1375 C 0.28696 0.31288 0.63604 0.0
C1376 C 0.29661 0.30953 0.64375 0.0
C1377 C 0.28699 0.32522 0.64174 0.0
H1378 H 0.31358 0.33641 0.67355 0.0
H1379 H 0.29691 0.30039 0.63873 0.0
O1380 O 0.34634 0.31004 0.68501 0.0
O1381 O 0.32497 0.32017 0.69357 0.0
O1382 O 0.33901 0.32642 0.65607 0.0
O1383 O 0.31768 0.29524 0.66646 0.0
H1384 H 0.35617 0.30495 0.71587 0.0
H1385 H 0.36758 0.32385 0.66148 0.0
H1386 H 0.38139 0.31252 0.72158 0.0
H1387 H 0.39261 0.33119 0.66814 0.0
H1388 H 0.28369 0.30558 0.72465 0.0
H1389 H 0.33586 0.33132 0.72638 0.0
H1390 H 0.29706 0.30729 0.69587 0.0
H1391 H 0.32182 0.32929 0.75462 0.0
H1392 H 0.37973 0.35686 0.72958 0.0
H1393 H 0.37211 0.37918 0.68549 0.0
H1394 H 0.30111 0.25467 0.71954 0.0
H1395 H 0.3267 0.28927 0.75699 0.0
H1396 H 0.32443 0.32409 0.62557 0.0
H1397 H 0.36628 0.34305 0.64889 0.0
H1398 H 0.33498 0.3356 0.59539 0.0
H1399 H 0.37611 0.35408 0.61825 0.0
H1400 H 0.31268 0.28189 0.63417 0.0
H1401 H 0.29348 0.28544 0.68475 0.0
H1402 H 0.28898 0.26353 0.62306 0.0
H1403 H 0.2701 0.26711 0.67271 0.0
H1404 H 0.35838 0.27879 0.63899 0.0
H1405 H 0.34286 0.29427 0.59487 0.0
H1406 H 0.29732 0.34343 0.66021 0.0
H1407 H 0.27962 0.30589 0.62563 0.0
Li1408 Li 0.67658 0.02164 0.68532 0.0
Li1409 Li 0.70058 0.0263 0.69208 0.0
Li1410 Li 0.69498 0.03248 0.66077 0.0
Li1411 Li 0.68671 0.00796 0.66963 0.0
C1412 C 0.69335 0.05189 0.68861 0.0
N1413 N 0.691 0.07564 0.69424 0.0
C1414 C 0.69921 0.06024 0.70449 0.0
C1415 C 0.68642 0.0557 0.67551 0.0
C1416 C 0.69787 0.07218 0.70711 0.0
C1417 C 0.68532 0.06773 0.67862 0.0
C1418 C 0.6833 0.00461 0.71406 0.0
C1419 C 0.69183 0.99379 0.73574 0.0
N1420 N 0.68574 0.99707 0.74997 0.0
C1421 C 0.677 0.00774 0.72886 0.0
C1422 C 0.69066 0.99746 0.71748 0.0
C1423 C 0.6784 0.00389 0.74693 0.0
C1424 C 0.64751 0.00791 0.69211 0.0
N1425 N 0.65982 0.02002 0.69576 0.0
C1426 C 0.64778 0.02839 0.71516 0.0
C1427 C 0.66018 0.03016 0.70711 0.0
C1428 C 0.63487 0.0159 0.71186 0.0
C1429 C 0.63486 0.0056 0.70007 0.0
H1430 H 0.64758 -6e-05 0.68322 0.0
H1431 H 0.67009 0.03954 0.71023 0.0
C1432 C 0.72758 0.03478 0.70755 0.0
N1433 N 0.71448 0.03271 0.71122 0.0
C1434 C 0.73816 0.0406 0.72111 0.0
C1435 C 0.72146 0.0418 0.74208 0.0
C1436 C 0.71127 0.03608 0.72807 0.0
C1437 C 0.73517 0.0443 0.73859 0.0
H1438 H 0.72994 0.03225 0.69393 0.0
H1439 H 0.70089 0.03472 0.73044 0.0
C1440 C 0.66743 0.01624 0.64455 0.0
N1441 N 0.6507 0.01647 0.61588 0.0
C1442 C 0.66603 0.00879 0.62809 0.0
C1443 C 0.66006 0.02354 0.64658 0.0
C1444 C 0.65761 0.00912 0.61371 0.0
C1445 C 0.65172 0.0236 0.63189 0.0
C1446 C 0.71374 0.01794 0.65871 0.0
C1447 C 0.71854 0.02148 0.64038 0.0
C1448 C 0.71624 0.00837 0.66849 0.0
C1449 C 0.72558 0.01519 0.63202 0.0
C1450 C 0.7233 0.0023 0.65963 0.0
N1451 N 0.72778 0.0058 0.64173 0.0
C1452 C 0.71101 0.05955 0.64472 0.0
C1453 C 0.69943 0.04095 0.62285 0.0
C1454 C 0.71702 0.06943 0.63039 0.0
N1455 N 0.70228 0.04564 0.64074 0.0
C1456 C 0.70532 0.05044 0.60807 0.0
C1457 C 0.71425 0.06489 0.61177 0.0
H1458 H 0.71352 0.06297 0.65904 0.0
H1459 H 0.69291 0.02979 0.62003 0.0
C1460 C 0.67431 0.97821 0.67042 0.0
N1461 N 0.68194 0.98994 0.65983 0.0
C1462 C 0.67012 0.96481 0.66314 0.0
C1463 C 0.68192 0.97586 0.63432 0.0
C1464 C 0.68568 0.98899 0.64206 0.0
C1465 C 0.6739 0.96348 0.6448 0.0
H1466 H 0.67128 0.97925 0.68442 0.0
H1467 H 0.69148 0.99845 0.63379 0.0
O1468 O 0.69451 0.04012 0.68591 0.0
O1469 O 0.68215 0.00841 0.69629 0.0
O1470 O 0.67551 0.01589 0.65885 0.0
O1471 O 0.7067 0.02388 0.66705 0.0
H1472 H 0.7047 0.05751 0.71471 0.0
H1473 H 0.68214 0.04958 0.66295 0.0
H1474 H 0.7023 0.07871 0.71937 0.0
H1475 H 0.67999 0.0708 0.66858 0.0
H1476 H 0.69756 0.98832 0.73861 0.0
H1477 H 0.67122 0.01322 0.72646 0.0
H1478 H 0.69541 0.99477 0.70615 0.0
H1479 H 0.67367 0.00634 0.75854 0.0
H1480 H 0.64834 0.03672 0.72393 0.0
H1481 H 0.62525 0.9957 0.69735 0.0
H1482 H 0.7486 0.04236 0.71789 0.0
H1483 H 0.71879 0.04475 0.75523 0.0
H1484 H 0.67148 0.00291 0.62637 0.0
H1485 H 0.66062 0.02899 0.6594 0.0
H1486 H 0.65655 0.00351 0.60084 0.0
H1487 H 0.64601 0.02927 0.63325 0.0
H1488 H 0.7168 0.02895 0.63266 0.0
H1489 H 0.71271 0.00563 0.68273 0.0
H1490 H 0.72929 0.01778 0.6178 0.0
H1491 H 0.72522 0.99481 0.667 0.0
H1492 H 0.7241 0.08043 0.63384 0.0
H1493 H 0.70297 0.0465 0.5939 0.0
H1494 H 0.66374 0.95561 0.67167 0.0
H1495 H 0.6853 0.97547 0.62026 0.0
Li1496 Li 0.97432 0.67052 0.6889 0.0
Li1497 Li 0.98 0.65204 0.68243 0.0
Li1498 Li 0.9936 0.67559 0.66773 0.0
Li1499 Li 0.96932 0.6592 0.65807 0.0
C1500 C 0.99328 0.66861 0.71339 0.0
N1501 N 0.99527 0.66398 0.7508 0.0
C1502 C 0.98117 0.65941 0.7235 0.0
C1503 C 0.0064 0.67545 0.72231 0.0
C1504 C 0.9824 0.65721 0.74239 0.0
C1505 C 0.00719 0.67298 0.74124 0.0
C1506 C 0.94985 0.63734 0.68389 0.0
C1507 C 0.93569 0.61358 0.67217 0.0
N1508 N 0.92677 0.61042 0.68691 0.0
C1509 C 0.94051 0.63389 0.69887 0.0
C1510 C 0.94741 0.62714 0.67038 0.0
C1511 C 0.92892 0.6202 0.70017 0.0
C1512 C 0.95292 0.67397 0.70288 0.0
N1513 N 0.96647 0.67753 0.70664 0.0
C1514 C 0.9659 0.68831 0.73539 0.0
C1515 C 0.97319 0.68488 0.72226 0.0
C1516 C 0.95167 0.68426 0.73222 0.0
C1517 C 0.94533 0.67733 0.71544 0.0
H1518 H 0.94794 0.66826 0.69022 0.0
H1519 H 0.98405 0.68777 0.72479 0.0
C1520 C 0.99339 0.63631 0.68783 0.0
N1521 N 0.98165 0.63689 0.69253 0.0
C1522 C 0.99573 0.62592 0.69541 0.0
C1523 C 0.97379 0.61685 0.71246 0.0
C1524 C 0.97192 0.62745 0.70462 0.0
C1525 C 0.98587 0.61604 0.70796 0.0
H1526 H 0.00102 0.64404 0.6783 0.0
H1527 H 0.96285 0.62831 0.70855 0.0
C1528 C 0.98289 0.69386 0.66641 0.0
N1529 N 0.99277 0.72237 0.6714 0.0
C1530 C 0.97784 0.7008 0.65522 0.0
C1531 C 0.99296 0.70141 0.68016 0.0
C1532 C 0.98297 0.71523 0.65795 0.0
C1533 C 0.99782 0.71582 0.68246 0.0
C1534 C 0.98759 0.65031 0.64109 0.0
C1535 C 0.99579 0.65842 0.62608 0.0
C1536 C 0.98134 0.6356 0.64047 0.0
C1537 C 0.99733 0.65164 0.61049 0.0
C1538 C 0.98314 0.62921 0.62462 0.0
N1539 N 0.99101 0.6373 0.61008 0.0
C1540 C 0.0233 0.68967 0.66622 0.0
C1541 C 0.01264 0.69759 0.64425 0.0
C1542 C 0.03671 0.69906 0.65913 0.0
N1543 N 0.01165 0.68911 0.65867 0.0
C1544 C 0.02582 0.70716 0.6368 0.0
C1545 C 0.03809 0.70791 0.64414 0.0
H1546 H 0.02214 0.68266 0.67756 0.0
H1547 H 0.00316 0.69678 0.63838 0.0
C1548 C 0.94274 0.65008 0.64317 0.0
N1549 N 0.95593 0.65296 0.63828 0.0
C1550 C 0.93217 0.64586 0.62975 0.0
C1551 C 0.94896 0.64779 0.60635 0.0
C1552 C 0.95923 0.65195 0.62027 0.0
C1553 C 0.93522 0.64471 0.61102 0.0
H1554 H 0.94048 0.65127 0.65752 0.0
H1555 H 0.96983 0.65458 0.6166 0.0
O1556 O 0.99241 0.67087 0.69483 0.0
O1557 O 0.96125 0.65068 0.68249 0.0
O1558 O 0.97792 0.67973 0.66386 0.0
O1559 O 0.98611 0.65678 0.65655 0.0
H1560 H 0.97091 0.65407 0.71688 0.0
H1561 H 0.01587 0.68259 0.71467 0.0
H1562 H 0.97311 0.65013 0.75037 0.0
H1563 H 0.01728 0.6782 0.74832 0.0
H1564 H 0.93367 0.60558 0.66181 0.0
H1565 H 0.94225 0.64169 0.70942 0.0
H1566 H 0.95442 0.62971 0.65858 0.0
H1567 H 0.92163 0.61736 0.71173 0.0
H1568 H 0.97123 0.69363 0.74812 0.0
H1569 H 0.93453 0.67435 0.7121 0.0
H1570 H 0.00514 0.6256 0.69149 0.0
H1571 H 0.96606 0.6096 0.72233 0.0
H1572 H 0.97003 0.69509 0.64454 0.0
H1573 H 0.99701 0.69625 0.68896 0.0
H1574 H 0.97916 0.72074 0.64938 0.0
H1575 H 0.00561 0.7218 0.69303 0.0
H1576 H 0.0008 0.66983 0.6264 0.0
H1577 H 0.97527 0.62917 0.65214 0.0
H1578 H 0.00356 0.65778 0.59872 0.0
H1579 H 0.97832 0.61783 0.62392 0.0
H1580 H 0.04585 0.69913 0.66506 0.0
H1581 H 0.02637 0.7139 0.62542 0.0
H1582 H 0.92182 0.64391 0.63394 0.0
H1583 H 0.95177 0.64703 0.59209 0.0
H1584 H 0.14354 0.31814 0.18966 0.0
H1585 H 0.12423 0.31582 0.20922 0.0
H1586 H 0.09388 0.28649 0.1698 0.0
H1587 H 0.11329 0.28825 0.1505 0.0
H1588 H 0.15184 0.30147 0.18109 0.0
H1589 H 0.13523 0.32685 0.14644 0.0
H1590 H 0.11881 0.33181 0.12959 0.0
H1591 H 0.11261 0.30032 0.08848 0.0
H1592 H 0.12879 0.29508 0.10568 0.0
H1593 H 0.16819 0.29341 0.1082 0.0
H1594 H 0.18968 0.29872 0.09106 0.0
H1595 H 0.21371 0.3358 0.12539 0.0
H1596 H 0.19228 0.33023 0.14263 0.0
H1597 H 0.15591 0.31105 0.11321 0.0
H1598 H 0.1765 0.28874 0.15227 0.0
H1599 H 0.19571 0.28931 0.17064 0.0
H1600 H 0.19781 0.3232 0.20412 0.0
H1601 H 0.17885 0.32271 0.18567 0.0
C1602 C 0.12993 0.30339 0.16855 0.0
C1603 C 0.13275 0.31107 0.18525 0.0
C1604 C 0.12173 0.30978 0.1964 0.0
C1605 C 0.10763 0.30095 0.19099 0.0
C1606 C 0.10471 0.2934 0.17418 0.0
C1607 C 0.11578 0.29446 0.16315 0.0
C1608 C 0.14191 0.30469 0.15714 0.0
C1609 C 0.15269 0.30363 0.16625 0.0
C1610 C 0.14308 0.30744 0.13773 0.0
C1611 C 0.13302 0.31037 0.12755 0.0
C1612 C 0.13015 0.32082 0.13399 0.0
C1613 C 0.12081 0.32369 0.12433 0.0
C1614 C 0.11439 0.31639 0.1078 0.0
C1615 C 0.11746 0.30613 0.10115 0.0
C1616 C 0.12667 0.30312 0.11097 0.0
C1617 C 0.17871 0.31133 0.12681 0.0
C1618 C 0.17811 0.30267 0.11199 0.0
C1619 C 0.19039 0.30576 0.10217 0.0
C1620 C 0.20345 0.31766 0.1069 0.0
C1621 C 0.20391 0.3264 0.12161 0.0
C1622 C 0.19166 0.32327 0.13145 0.0
C1623 C 0.16576 0.30805 0.13731 0.0
C1624 C 0.15481 0.30866 0.12799 0.0
C1625 C 0.16471 0.30558 0.1567 0.0
C1626 C 0.17629 0.30572 0.16759 0.0
C1627 C 0.18117 0.29633 0.16351 0.0
C1628 C 0.19207 0.29661 0.17406 0.0
C1629 C 0.1983 0.30635 0.18875 0.0
C1630 C 0.19337 0.31572 0.19273 0.0
C1631 C 0.18245 0.31537 0.18231 0.0
H1632 H 0.72106 0.87895 0.17187 0.0
H1633 H 0.72184 0.89782 0.19124 0.0
H1634 H 0.67895 0.88482 0.17511 0.0
H1635 H 0.67823 0.86604 0.15591 0.0
H1636 H 0.70342 0.85067 0.17556 0.0
H1637 H 0.71302 0.88537 0.12665 0.0
H1638 H 0.70804 0.90194 0.10995 0.0
H1639 H 0.66602 0.86777 0.09731 0.0
H1640 H 0.67096 0.85135 0.1142 0.0
H1641 H 0.67154 0.81744 0.11211 0.0
H1642 H 0.66646 0.79591 0.09544 0.0
H1643 H 0.70614 0.80072 0.11418 0.0
H1644 H 0.71145 0.82258 0.13045 0.0
H1645 H 0.69024 0.84336 0.10873 0.0
H1646 H 0.6779 0.80905 0.15625 0.0
H1647 H 0.6782 0.79139 0.17674 0.0
H1648 H 0.72008 0.82221 0.19542 0.0
H1649 H 0.71995 0.83979 0.17446 0.0
C1650 C 0.69967 0.87122 0.16223 0.0
C1651 C 0.71188 0.88026 0.17242 0.0
C1652 C 0.71229 0.89099 0.18352 0.0
C1653 C 0.70048 0.89285 0.18464 0.0
C1654 C 0.68832 0.88385 0.17427 0.0
C1655 C 0.6879 0.8731 0.16327 0.0
C1656 C 0.69889 0.85929 0.15139 0.0
C1657 C 0.70088 0.8492 0.16083 0.0
C1658 C 0.69498 0.85712 0.13238 0.0
C1659 C 0.69233 0.86716 0.12174 0.0
C1660 C 0.70274 0.88148 0.12028 0.0
C1661 C 0.69992 0.8909 0.11065 0.0
C1662 C 0.68662 0.88614 0.10241 0.0
C1663 C 0.6763 0.87176 0.10372 0.0
C1664 C 0.67915 0.86236 0.11322 0.0
C1665 C 0.69184 0.82161 0.12267 0.0
C1666 C 0.67925 0.81398 0.11248 0.0
C1667 C 0.67634 0.80168 0.10296 0.0
C1668 C 0.6859 0.79667 0.10356 0.0
C1669 C 0.69854 0.8043 0.11366 0.0
C1670 C 0.70155 0.81676 0.12298 0.0
C1671 C 0.69466 0.83458 0.13293 0.0
C1672 C 0.69308 0.8449 0.12338 0.0
C1673 C 0.69852 0.83672 0.152 0.0
C1674 C 0.69899 0.82572 0.16358 0.0
C1675 C 0.6873 0.81194 0.16438 0.0
C1676 C 0.68746 0.80185 0.17613 0.0
C1677 C 0.69918 0.80544 0.18762 0.0
C1678 C 0.7109 0.81919 0.18675 0.0
C1679 C 0.71082 0.82922 0.1748 0.0
H1680 H 0.11828 0.84113 0.17065 0.0
H1681 H 0.09962 0.82325 0.19044 0.0
H1682 H 0.11202 0.79299 0.17392 0.0
H1683 H 0.13068 0.81088 0.1544 0.0
H1684 H 0.14616 0.85191 0.17404 0.0
H1685 H 0.11186 0.82617 0.12494 0.0
H1686 H 0.09553 0.80478 0.10756 0.0
H1687 H 0.12985 0.79714 0.09548 0.0
H1688 H 0.14602 0.81831 0.11306 0.0
H1689 H 0.18047 0.85293 0.11275 0.0
H1690 H 0.20206 0.8693 0.09622 0.0
H1691 H 0.19589 0.90403 0.11187 0.0
H1692 H 0.17392 0.88746 0.12779 0.0
H1693 H 0.15409 0.8454 0.10762 0.0
H1694 H 0.18778 0.8678 0.15569 0.0
H1695 H 0.20531 0.88605 0.17611 0.0
H1696 H 0.17457 0.89769 0.19298 0.0
H1697 H 0.1571 0.87959 0.17215 0.0
C1698 C 0.12576 0.82731 0.16082 0.0
C1699 C 0.11688 0.83061 0.17118 0.0
C1700 C 0.10627 0.8204 0.18251 0.0
C1701 C 0.10433 0.80671 0.18368 0.0
C1702 C 0.11308 0.80337 0.17305 0.0
C1703 C 0.12375 0.81359 0.16185 0.0
C1704 C 0.13774 0.83843 0.14998 0.0
C1705 C 0.14773 0.85068 0.15938 0.0
C1706 C 0.14008 0.83653 0.13108 0.0
C1707 C 0.13012 0.82377 0.12037 0.0
C1708 C 0.11583 0.81984 0.11859 0.0
C1709 C 0.10655 0.8077 0.10857 0.0
C1710 C 0.11142 0.79928 0.10023 0.0
C1711 C 0.12576 0.80332 0.10195 0.0
C1712 C 0.13502 0.81547 0.11186 0.0
C1713 C 0.17562 0.86897 0.12161 0.0
C1714 C 0.1837 0.86406 0.1125 0.0
C1715 C 0.19613 0.87346 0.10322 0.0
C1716 C 0.20076 0.88799 0.10283 0.0
C1717 C 0.19256 0.89288 0.11178 0.0
C1718 C 0.18008 0.88345 0.12103 0.0
C1719 C 0.16257 0.85886 0.13171 0.0
C1720 C 0.15238 0.84682 0.12217 0.0
C1721 C 0.16026 0.86078 0.15063 0.0
C1722 C 0.17117 0.87245 0.16215 0.0
C1723 C 0.18489 0.8745 0.1634 0.0
C1724 C 0.19491 0.88493 0.17511 0.0
C1725 C 0.19131 0.89331 0.18608 0.0
C1726 C 0.1776 0.89133 0.18473 0.0
C1727 C 0.16764 0.88101 0.17285 0.0
H1728 H 0.28136 0.16245 0.84647 0.0
H1729 H 0.2808 0.18064 0.82726 0.0
H1730 H 0.32403 0.21015 0.84279 0.0
H1731 H 0.32443 0.19199 0.86205 0.0
H1732 H 0.29955 0.15167 0.84281 0.0
H1733 H 0.28919 0.17749 0.89012 0.0
H1734 H 0.29428 0.19931 0.90627 0.0
H1735 H 0.33528 0.20593 0.92213 0.0
H1736 H 0.33029 0.18439 0.90558 0.0
H1737 H 0.32958 0.14974 0.90725 0.0
H1738 H 0.33401 0.13301 0.92408 0.0
H1739 H 0.29343 0.09873 0.90627 0.0
H1740 H 0.28909 0.11558 0.88929 0.0
H1741 H 0.31062 0.1574 0.91032 0.0
H1742 H 0.32429 0.13541 0.86545 0.0
H1743 H 0.32517 0.1177 0.84592 0.0
H1744 H 0.28511 0.10768 0.82127 0.0
H1745 H 0.28373 0.12459 0.84213 0.0
C1746 C 0.30287 0.17593 0.85585 0.0
C1747 C 0.29067 0.17287 0.84579 0.0
C1748 C 0.29039 0.18326 0.83478 0.0
C1749 C 0.30235 0.19687 0.83353 0.0
C1750 C 0.31454 0.19988 0.84371 0.0
C1751 C 0.3148 0.1895 0.8547 0.0
C1752 C 0.30336 0.16477 0.86696 0.0
C1753 C 0.3016 0.15269 0.85768 0.0
C1754 C 0.30675 0.16654 0.88614 0.0
C1755 C 0.30941 0.17937 0.89654 0.0
C1756 C 0.29928 0.18368 0.89704 0.0
C1757 C 0.30216 0.19608 0.90639 0.0
C1758 C 0.31521 0.20438 0.91539 0.0
C1759 C 0.32522 0.19989 0.91509 0.0
C1760 C 0.32233 0.18751 0.9058 0.0
C1761 C 0.30904 0.13391 0.89693 0.0
C1762 C 0.32157 0.13863 0.90711 0.0
C1763 C 0.32408 0.12906 0.91677 0.0
C1764 C 0.31407 0.11453 0.91652 0.0
C1765 C 0.30142 0.10982 0.90653 0.0
C1766 C 0.29891 0.11944 0.89686 0.0
C1767 C 0.30677 0.14418 0.88621 0.0
C1768 C 0.3082 0.15612 0.89555 0.0
C1769 C 0.30363 0.14252 0.86691 0.0
C1770 C 0.30381 0.13119 0.85558 0.0
C1771 C 0.31546 0.1291 0.85628 0.0
C1772 C 0.31608 0.11911 0.84478 0.0
C1773 C 0.30527 0.11128 0.83181 0.0
C1774 C 0.29354 0.11331 0.83124 0.0
C1775 C 0.2928 0.12312 0.84304 0.0
H1776 H 0.84136 0.11894 0.85036 0.0
H1777 H 0.82382 0.09987 0.8307 0.0
H1778 H 0.79516 0.11586 0.83885 0.0
H1779 H 0.81256 0.13459 0.85872 0.0
H1780 H 0.85347 0.14819 0.84432 0.0
H1781 H 0.82664 0.11474 0.89453 0.0
H1782 H 0.8048 0.09853 0.91123 0.0
H1783 H 0.79449 0.13172 0.91574 0.0
H1784 H 0.81636 0.14789 0.89925 0.0
H1785 H 0.85313 0.18307 0.90422 0.0
H1786 H 0.8693 0.20413 0.92193 0.0
H1787 H 0.90338 0.19597 0.91055 0.0
H1788 H 0.887 0.1746 0.89327 0.0
H1789 H 0.84425 0.15625 0.90959 0.0
H1790 H 0.86981 0.19018 0.86349 0.0
H1791 H 0.88924 0.20773 0.84453 0.0
H1792 H 0.89971 0.17613 0.82777 0.0
H1793 H 0.88054 0.15865 0.84737 0.0
C1794 C 0.82819 0.12806 0.85617 0.0
C1795 C 0.83123 0.11822 0.848 0.0
C1796 C 0.82122 0.10738 0.8367 0.0
C1797 C 0.80804 0.10628 0.83321 0.0
C1798 C 0.80505 0.11616 0.84153 0.0
C1799 C 0.81502 0.12693 0.85287 0.0
C1800 C 0.83899 0.13998 0.86738 0.0
C1801 C 0.85168 0.14982 0.85875 0.0
C1802 C 0.8363 0.14238 0.88588 0.0
C1803 C 0.82306 0.13248 0.89567 0.0
C1804 C 0.81965 0.11849 0.89911 0.0
C1805 C 0.80724 0.10929 0.90869 0.0
C1806 C 0.798 0.11391 0.91473 0.0
C1807 C 0.80139 0.12789 0.91111 0.0
C1808 C 0.81389 0.13713 0.9018 0.0
C1809 C 0.86887 0.1773 0.89733 0.0
C1810 C 0.86406 0.18576 0.90563 0.0
C1811 C 0.87335 0.19787 0.9156 0.0
C1812 C 0.88764 0.20176 0.91755 0.0
C1813 C 0.89241 0.19319 0.90941 0.0
C1814 C 0.8831 0.18105 0.8994 0.0
C1815 C 0.85889 0.16454 0.8866 0.0
C1816 C 0.8463 0.15455 0.89529 0.0
C1817 C 0.86156 0.16225 0.86796 0.0
C1818 C 0.87384 0.17311 0.85718 0.0
C1819 C 0.87651 0.18708 0.85619 0.0
C1820 C 0.88758 0.19711 0.84529 0.0
C1821 C 0.896 0.19328 0.83477 0.0
C1822 C 0.89335 0.17933 0.83573 0.0
C1823 C 0.88241 0.16935 0.8469 0.0
H1824 H 0.81845 0.67671 0.83539 0.0
H1825 H 0.7992 0.67643 0.81784 0.0
H1826 H 0.80459 0.71262 0.84911 0.0
H1827 H 0.82404 0.71294 0.86655 0.0
H1828 H 0.84597 0.69706 0.83715 0.0
H1829 H 0.8087 0.66999 0.88008 0.0
H1830 H 0.7874 0.66443 0.8978 0.0
H1831 H 0.81029 0.70453 0.92639 0.0
H1832 H 0.83168 0.71001 0.90858 0.0
H1833 H 0.87455 0.70888 0.90896 0.0
H1834 H 0.89043 0.70326 0.92625 0.0
H1835 H 0.8776 0.66658 0.89129 0.0
H1836 H 0.86157 0.67204 0.87443 0.0
H1837 H 0.84529 0.69189 0.90585 0.0
H1838 H 0.88559 0.7131 0.86205 0.0
H1839 H 0.90337 0.71334 0.84087 0.0
H1840 H 0.87043 0.67679 0.81229 0.0
H1841 H 0.85285 0.67686 0.83306 0.0
C1842 C 0.82266 0.69483 0.85226 0.0
C1843 C 0.81548 0.68457 0.83848 0.0
C1844 C 0.80441 0.68436 0.82859 0.0
C1845 C 0.80036 0.69447 0.83218 0.0
C1846 C 0.80754 0.70474 0.84601 0.0
C1847 C 0.81858 0.70489 0.85603 0.0
C1848 C 0.83453 0.69503 0.86244 0.0
C1849 C 0.84587 0.69598 0.85218 0.0
C1850 C 0.83438 0.69364 0.88199 0.0
C1851 C 0.82169 0.69043 0.893 0.0
C1852 C 0.80912 0.67757 0.89019 0.0
C1853 C 0.79701 0.67438 0.90037 0.0
C1854 C 0.79723 0.68405 0.91347 0.0
C1855 C 0.80984 0.69694 0.91629 0.0
C1856 C 0.82204 0.70005 0.90623 0.0
C1857 C 0.86704 0.69099 0.89027 0.0
C1858 C 0.87525 0.69968 0.90499 0.0
C1859 C 0.88435 0.6965 0.91478 0.0
C1860 C 0.88524 0.68446 0.91014 0.0
C1861 C 0.87704 0.67584 0.89532 0.0
C1862 C 0.868 0.67905 0.88553 0.0
C1863 C 0.85679 0.69382 0.88053 0.0
C1864 C 0.84569 0.69345 0.89089 0.0
C1865 C 0.8569 0.69516 0.86092 0.0
C1866 C 0.86791 0.69502 0.84901 0.0
C1867 C 0.88227 0.70512 0.85125 0.0
C1868 C 0.8924 0.70522 0.83917 0.0
C1869 C 0.8883 0.6952 0.82471 0.0
C1870 C 0.87393 0.68489 0.82293 0.0
C1871 C 0.86386 0.68486 0.83487 0.0
H1872 H 0.81086 0.65712 0.51502 0.0
H1873 H 0.79192 0.6575 0.53258 0.0
H1874 H 0.7609 0.62397 0.49782 0.0
H1875 H 0.77999 0.62342 0.48052 0.0
H1876 H 0.81687 0.6362 0.51099 0.0
H1877 H 0.80783 0.66586 0.47002 0.0
H1878 H 0.79171 0.67132 0.45317 0.0
H1879 H 0.77556 0.63225 0.42235 0.0
H1880 H 0.79181 0.62687 0.43926 0.0
H1881 H 0.8341 0.62851 0.43644 0.0
H1882 H 0.8557 0.63288 0.4202 0.0
H1883 H 0.88092 0.66447 0.46125 0.0
H1884 H 0.85942 0.66046 0.47704 0.0
H1885 H 0.82339 0.64507 0.44297 0.0
H1886 H 0.84099 0.62119 0.48249 0.0
H1887 H 0.85832 0.61936 0.5022 0.0
H1888 H 0.85983 0.65158 0.53863 0.0
H1889 H 0.8428 0.65355 0.51887 0.0
C1890 C 0.79683 0.64029 0.49643 0.0
C1891 C 0.79998 0.64984 0.51119 0.0
C1892 C 0.78914 0.65013 0.5211 0.0
C1893 C 0.77491 0.64083 0.5165 0.0
C1894 C 0.77176 0.63122 0.50173 0.0
C1895 C 0.78264 0.63096 0.49177 0.0
C1896 C 0.80851 0.64013 0.48611 0.0
C1897 C 0.81836 0.63816 0.49612 0.0
C1898 C 0.81027 0.64248 0.46671 0.0
C1899 C 0.80093 0.64595 0.4559 0.0
C1900 C 0.80086 0.65852 0.45956 0.0
C1901 C 0.79171 0.66165 0.44989 0.0
C1902 C 0.7824 0.6522 0.43649 0.0
C1903 C 0.78257 0.63966 0.43272 0.0
C1904 C 0.79187 0.63662 0.44225 0.0
C1905 C 0.84513 0.64394 0.45819 0.0
C1906 C 0.84428 0.6364 0.44191 0.0
C1907 C 0.85659 0.63889 0.43265 0.0
C1908 C 0.86994 0.6489 0.43961 0.0
C1909 C 0.87076 0.65651 0.45579 0.0
C1910 C 0.85848 0.65418 0.46485 0.0
C1911 C 0.83208 0.64144 0.46794 0.0
C1912 C 0.82186 0.64281 0.45777 0.0
C1913 C 0.83021 0.63891 0.48739 0.0
C1914 C 0.84061 0.63753 0.49917 0.0
C1915 C 0.84514 0.62792 0.49465 0.0
C1916 C 0.85502 0.62687 0.50591 0.0
C1917 C 0.86034 0.63526 0.522 0.0
C1918 C 0.85574 0.64482 0.52649 0.0
C1919 C 0.84601 0.64595 0.51519 0.0
H1920 H 0.3831 0.21098 0.50624 0.0
H1921 H 0.38208 0.22803 0.52747 0.0
H1922 H 0.33924 0.21379 0.50974 0.0
H1923 H 0.34024 0.1966 0.48891 0.0
H1924 H 0.36596 0.18191 0.50745 0.0
H1925 H 0.37557 0.21948 0.46426 0.0
H1926 H 0.37039 0.23645 0.44944 0.0
H1927 H 0.33183 0.20191 0.42678 0.0
H1928 H 0.3366 0.18509 0.44263 0.0
H1929 H 0.33598 0.1514 0.4424 0.0
H1930 H 0.33093 0.13007 0.42525 0.0
H1931 H 0.37101 0.13519 0.44291 0.0
H1932 H 0.37622 0.15684 0.45957 0.0
H1933 H 0.35546 0.17813 0.4398 0.0
H1934 H 0.34009 0.1426 0.48618 0.0
H1935 H 0.33891 0.12345 0.50501 0.0
H1936 H 0.38208 0.15082 0.52264 0.0
H1937 H 0.38328 0.16993 0.50344 0.0
C1938 C 0.3618 0.20262 0.49589 0.0
C1939 C 0.37354 0.21161 0.50687 0.0
C1940 C 0.37296 0.2214 0.51889 0.0
C1941 C 0.36057 0.22224 0.52028 0.0
C1942 C 0.34889 0.21331 0.5091 0.0
C1943 C 0.34949 0.20357 0.49707 0.0
C1944 C 0.36209 0.19169 0.48393 0.0
C1945 C 0.36403 0.18129 0.49255 0.0
C1946 C 0.35897 0.19057 0.46465 0.0
C1947 C 0.35639 0.20099 0.45479 0.0
C1948 C 0.36593 0.21558 0.45626 0.0
C1949 C 0.36303 0.22527 0.44757 0.0
C1950 C 0.35064 0.22057 0.43698 0.0
C1951 C 0.34132 0.20594 0.43513 0.0
C1952 C 0.34413 0.19628 0.444 0.0
C1953 C 0.35644 0.15567 0.45237 0.0
C1954 C 0.34376 0.14802 0.4424 0.0
C1955 C 0.34082 0.13575 0.43277 0.0
C1956 C 0.35051 0.13087 0.43285 0.0
C1957 C 0.36336 0.13872 0.44248 0.0
C1958 C 0.36631 0.15102 0.45213 0.0
C1959 C 0.35905 0.16824 0.4634 0.0
C1960 C 0.35773 0.17896 0.45461 0.0
C1961 C 0.36217 0.16939 0.48266 0.0
C1962 C 0.36182 0.15763 0.49328 0.0
C1963 C 0.34938 0.14441 0.49387 0.0
C1964 C 0.34868 0.13353 0.50475 0.0
C1965 C 0.36039 0.13566 0.51533 0.0
C1966 C 0.37294 0.14884 0.51449 0.0
C1967 C 0.37361 0.15977 0.50364 0.0
H1968 H 0.78773 0.17204 0.50315 0.0
H1969 H 0.76927 0.15414 0.52314 0.0
H1970 H 0.7802 0.12335 0.50398 0.0
H1971 H 0.79871 0.14127 0.48428 0.0
H1972 H 0.81552 0.18208 0.50544 0.0
H1973 H 0.78013 0.15803 0.45714 0.0
H1974 H 0.76285 0.13691 0.44024 0.0
H1975 H 0.79583 0.12768 0.42602 0.0
H1976 H 0.81302 0.14892 0.44255 0.0
H1977 H 0.84898 0.18433 0.4426 0.0
H1978 H 0.87075 0.20138 0.42689 0.0
H1979 H 0.86329 0.23517 0.44323 0.0
H1980 H 0.84157 0.21803 0.45912 0.0
H1981 H 0.82186 0.17654 0.43811 0.0
H1982 H 0.85658 0.19769 0.48524 0.0
H1983 H 0.87472 0.21547 0.50554 0.0
H1984 H 0.84491 0.22763 0.52498 0.0
H1985 H 0.82682 0.20996 0.50436 0.0
C1986 C 0.79449 0.15796 0.49203 0.0
C1987 C 0.78606 0.1614 0.50315 0.0
C1988 C 0.77555 0.15119 0.51458 0.0
C1989 C 0.77328 0.13734 0.51508 0.0
C1990 C 0.78154 0.13386 0.50366 0.0
C1991 C 0.79212 0.1441 0.49236 0.0
C1992 C 0.8064 0.16909 0.48111 0.0
C1993 C 0.81673 0.18107 0.4906 0.0
C1994 C 0.80828 0.16745 0.46194 0.0
C1995 C 0.79784 0.15499 0.45116 0.0
C1996 C 0.78361 0.15145 0.45032 0.0
C1997 C 0.77375 0.13935 0.44072 0.0
C1998 C 0.77794 0.13057 0.43179 0.0
C1999 C 0.79226 0.13431 0.43246 0.0
C2000 C 0.80211 0.14642 0.44197 0.0
C2001 C 0.84372 0.19993 0.45214 0.0
C2002 C 0.85198 0.1954 0.44265 0.0
C2003 C 0.8644 0.20516 0.43364 0.0
C2004 C 0.86878 0.21964 0.43386 0.0
C2005 C 0.86033 0.22412 0.44307 0.0
C2006 C 0.8479 0.21434 0.45209 0.0
C2007 C 0.83094 0.18957 0.46244 0.0
C2008 C 0.82049 0.17775 0.45285 0.0
C2009 C 0.82911 0.1912 0.48163 0.0
C2010 C 0.84037 0.20261 0.49308 0.0
C2011 C 0.85403 0.2044 0.49353 0.0
C2012 C 0.86439 0.21456 0.50515 0.0
C2013 C 0.86124 0.22295 0.51681 0.0
C2014 C 0.84761 0.22124 0.51623 0.0
C2015 C 0.83728 0.21117 0.50446 0.0
H2016 H 0.96904 0.50665 0.17663 0.0
H2017 H 0.96696 0.52416 0.15776 0.0
H2018 H 0.00966 0.55563 0.17276 0.0
H2019 H 0.01179 0.53802 0.19111 0.0
H2020 H 0.98792 0.49719 0.17161 0.0
H2021 H 0.97564 0.51856 0.22351 0.0
H2022 H 0.97827 0.53868 0.24164 0.0
H2023 H 0.02297 0.55364 0.24777 0.0
H2024 H 0.01998 0.53306 0.23053 0.0
H2025 H 0.01923 0.49475 0.23563 0.0
H2026 H 0.02239 0.47733 0.25298 0.0
H2027 H 0.98175 0.44424 0.2333 0.0
H2028 H 0.97835 0.46179 0.21684 0.0
H2029 H 0.00101 0.50343 0.23854 0.0
H2030 H 0.01383 0.4818 0.19091 0.0
H2031 H 0.01312 0.46274 0.1723 0.0
H2032 H 0.97072 0.45038 0.15447 0.0
H2033 H 0.97131 0.46917 0.1737 0.0
C2034 C 0.99051 0.52107 0.18539 0.0
C2035 C 0.97791 0.51735 0.1759 0.0
C2036 C 0.9767 0.52738 0.16525 0.0
C2037 C 0.98815 0.54127 0.16376 0.0
C2038 C 0.0007 0.54499 0.17348 0.0
C2039 C 0.00188 0.53497 0.18414 0.0
C2040 C 0.99207 0.51028 0.1959 0.0
C2041 C 0.99051 0.49838 0.18633 0.0
C2042 C 0.99601 0.51214 0.21488 0.0
C2043 C 0.99762 0.52437 0.22573 0.0
C2044 C 0.98597 0.52618 0.22886 0.0
C2045 C 0.98754 0.53777 0.23912 0.0
C2046 C 0.00086 0.54788 0.24622 0.0
C2047 C 0.0125 0.54598 0.24291 0.0
C2048 C 0.01086 0.53427 0.23294 0.0
C2049 C 0.99862 0.47956 0.22478 0.0
C2050 C 0.01096 0.48375 0.23519 0.0
C2051 C 0.01281 0.47376 0.24494 0.0
C2052 C 0.00235 0.45937 0.24449 0.0
C2053 C 0.98995 0.45524 0.23415 0.0
C2054 C 0.98807 0.46525 0.22453 0.0
C2055 C 0.99672 0.49018 0.21431 0.0
C2056 C 0.99828 0.50209 0.22386 0.0
C2057 C 0.99302 0.48842 0.19519 0.0
C2058 C 0.99256 0.47682 0.18387 0.0
C2059 C 0.00431 0.47488 0.18318 0.0
C2060 C 0.00395 0.46406 0.17238 0.0
C2061 C 0.99186 0.45503 0.16189 0.0
C2062 C 0.98011 0.45702 0.16258 0.0
C2063 C 0.98048 0.46784 0.17343 0.0
H2064 H 0.50391 0.45833 0.17571 0.0
H2065 H 0.48511 0.44133 0.15538 0.0
H2066 H 0.45613 0.45291 0.17973 0.0
H2067 H 0.47514 0.47033 0.19934 0.0
H2068 H 0.51517 0.48649 0.1762 0.0
H2069 H 0.48923 0.44848 0.22007 0.0
H2070 H 0.46761 0.43143 0.23612 0.0
H2071 H 0.46477 0.46587 0.26139 0.0
H2072 H 0.4858 0.48277 0.24443 0.0
H2073 H 0.51934 0.51561 0.24503 0.0
H2074 H 0.53668 0.53665 0.26187 0.0
H2075 H 0.5705 0.53275 0.23684 0.0
H2076 H 0.55309 0.51133 0.22049 0.0
H2077 H 0.5118 0.48946 0.24478 0.0
H2078 H 0.5322 0.52639 0.19966 0.0
H2079 H 0.55048 0.5453 0.18081 0.0
H2080 H 0.56128 0.51558 0.15697 0.0
H2081 H 0.54338 0.49686 0.17653 0.0
C2082 C 0.49091 0.46551 0.18918 0.0
C2083 C 0.49349 0.45715 0.17669 0.0
C2084 C 0.48269 0.44735 0.1652 0.0
C2085 C 0.46909 0.44573 0.16592 0.0
C2086 C 0.46651 0.45399 0.17865 0.0
C2087 C 0.47733 0.46385 0.19004 0.0
C2088 C 0.50261 0.47649 0.20056 0.0
C2089 C 0.51458 0.48698 0.19126 0.0
C2090 C 0.50158 0.4774 0.22013 0.0
C2091 C 0.48904 0.46692 0.23081 0.0
C2092 C 0.48387 0.45234 0.22896 0.0
C2093 C 0.47159 0.4426 0.23832 0.0
C2094 C 0.46436 0.44726 0.24996 0.0
C2095 C 0.46986 0.46188 0.25224 0.0
C2096 C 0.48202 0.47158 0.24272 0.0
C2097 C 0.53489 0.51195 0.23129 0.0
C2098 C 0.53047 0.51911 0.24337 0.0
C2099 C 0.54037 0.53115 0.25298 0.0
C2100 C 0.5549 0.53633 0.25055 0.0
C2101 C 0.55934 0.52903 0.23877 0.0
C2102 C 0.54942 0.51683 0.2294 0.0
C2103 C 0.52422 0.49963 0.22038 0.0
C2104 C 0.51251 0.48885 0.22977 0.0
C2105 C 0.52523 0.49869 0.20081 0.0
C2106 C 0.53655 0.51025 0.18969 0.0
C2107 C 0.53867 0.52401 0.1906 0.0
C2108 C 0.54902 0.53477 0.17966 0.0
C2109 C 0.55735 0.53196 0.16735 0.0
C2110 C 0.55522 0.51817 0.1665 0.0
C2111 C 0.5449 0.50742 0.17754 0.0
H2112 H 0.53628 0.03319 0.17932 0.0
H2113 H 0.55519 0.03412 0.15984 0.0
H2114 H 0.54058 0.99032 0.17259 0.0
H2115 H 0.52163 0.9894 0.19172 0.0
H2116 H 0.50716 0.0155 0.17431 0.0
H2117 H 0.54116 0.02548 0.22438 0.0
H2118 H 0.55846 0.02141 0.24079 0.0
H2119 H 0.52659 0.97765 0.24881 0.0
H2120 H 0.50929 0.9818 0.23257 0.0
H2121 H 0.47254 0.98317 0.2364 0.0
H2122 H 0.45159 0.97959 0.25341 0.0
H2123 H 0.46117 0.02175 0.23845 0.0
H2124 H 0.4823 0.02539 0.22188 0.0
H2125 H 0.50005 0.00131 0.24084 0.0
H2126 H 0.46583 0.99021 0.19383 0.0
H2127 H 0.44793 0.99123 0.17475 0.0
H2128 H 0.47874 0.03357 0.15749 0.0
H2129 H 0.49648 0.0327 0.17727 0.0
C2130 C 0.52764 0.01127 0.18707 0.0
C2131 C 0.53723 0.02383 0.17797 0.0
C2132 C 0.54806 0.02437 0.16696 0.0
C2133 C 0.54934 0.01228 0.16468 0.0
C2134 C 0.53978 -0.00024 0.17395 0.0
C2135 C 0.52903 0.99926 0.18502 0.0
C2136 C 0.51576 0.01044 0.19807 0.0
C2137 C 0.50575 0.01274 0.18898 0.0
C2138 C 0.51365 0.00626 0.21695 0.0
C2139 C 0.52399 0.00393 0.22726 0.0
C2140 C 0.53791 0.01504 0.22975 0.0
C2141 C 0.54774 0.01272 0.23917 0.0
C2142 C 0.54382 0.99922 0.24602 0.0
C2143 C 0.52987 0.98813 0.24355 0.0
C2144 C 0.51999 0.9905 0.23439 0.0
C2145 C 0.47892 0.0045 0.22777 0.0
C2146 C 0.47018 0.99167 0.23691 0.0
C2147 C 0.45815 0.9896 0.24648 0.0
C2148 C 0.45469 0.00036 0.2472 0.0
C2149 C 0.4636 0.01329 0.23828 0.0
C2150 C 0.47562 0.01535 0.22868 0.0
C2151 C 0.49143 0.00648 0.21714 0.0
C2152 C 0.50154 0.00434 0.22627 0.0
C2153 C 0.49347 0.01056 0.19817 0.0
C2154 C 0.48247 0.01145 0.18716 0.0
C2155 C 0.46867 -0.00018 0.18623 0.0
C2156 C 0.45848 0.00036 0.17514 0.0
C2157 C 0.46191 0.01247 0.16454 0.0
C2158 C 0.4757 0.02416 0.16566 0.0
C2159 C 0.48588 0.02363 0.17683 0.0
H2160 H 0.48444 0.00613 0.85375 0.0
H2161 H 0.46406 0.00392 0.87083 0.0
H2162 H 0.43599 0.97017 0.83394 0.0
H2163 H 0.45648 0.97233 0.81699 0.0
H2164 H 0.49305 0.98683 0.84828 0.0
H2165 H 0.47979 0.01456 0.81169 0.0
H2166 H 0.46298 0.01914 0.79522 0.0
H2167 H 0.45406 0.98506 0.75698 0.0
H2168 H 0.47101 0.98059 0.77353 0.0
H2169 H 0.50973 0.98076 0.77321 0.0
H2170 H 0.53095 0.98443 0.75667 0.0
H2171 H 0.55714 0.01535 0.79785 0.0
H2172 H 0.53598 0.01205 0.81398 0.0
H2173 H 0.49961 0.99765 0.78068 0.0
H2174 H 0.51644 0.97224 0.81878 0.0
H2175 H 0.53431 0.97032 0.83705 0.0
H2176 H 0.53744 0.0029 0.87427 0.0
H2177 H 0.51997 0.00507 0.85568 0.0
C2178 C 0.47196 0.98943 0.83409 0.0
C2179 C 0.4739 0.99823 0.84938 0.0
C2180 C 0.46225 0.99705 0.859 0.0
C2181 C 0.44844 0.98693 0.85364 0.0
C2182 C 0.44652 0.97802 0.83842 0.0
C2183 C 0.45819 0.97929 0.82869 0.0
C2184 C 0.4844 0.99094 0.82378 0.0
C2185 C 0.49455 0.98927 0.83352 0.0
C2186 C 0.48625 0.99401 0.80452 0.0
C2187 C 0.47648 0.9971 0.79399 0.0
C2188 C 0.47418 0.00804 0.7998 0.0
C2189 C 0.46454 0.01063 0.7904 0.0
C2190 C 0.4571 0.00238 0.77489 0.0
C2191 C 0.45971 0.99166 0.76879 0.0
C2192 C 0.46935 0.98907 0.77825 0.0
C2193 C 0.52124 0.99591 0.79505 0.0
C2194 C 0.52004 0.9884 0.77861 0.0
C2195 C 0.53214 0.9905 0.76918 0.0
C2196 C 0.54564 8e-05 0.77611 0.0
C2197 C 0.54684 0.00774 0.7924 0.0
C2198 C 0.53476 0.00581 0.80165 0.0
C2199 C 0.50837 0.99353 0.80516 0.0
C2200 C 0.49807 0.99502 0.79538 0.0
C2201 C 0.50653 0.99054 0.8245 0.0
C2202 C 0.51697 0.98889 0.83577 0.0
C2203 C 0.52104 0.97901 0.83083 0.0
C2204 C 0.53117 0.97785 0.84135 0.0
C2205 C 0.53736 0.98653 0.85704 0.0
C2206 C 0.53307 0.99624 0.86209 0.0
C2207 C 0.52297 0.99739 0.85158 0.0
H2208 H 0.03365 0.53287 0.84254 0.0
H2209 H 0.0355 0.55205 0.86217 0.0
H2210 H 0.9932 0.54138 0.84621 0.0
H2211 H 0.99134 0.52214 0.82679 0.0
H2212 H 0.01634 0.50532 0.84516 0.0
H2213 H 0.02622 0.54015 0.79787 0.0
H2214 H 0.02297 0.55772 0.78107 0.0
H2215 H 0.98003 0.52567 0.76797 0.0
H2216 H 0.98348 0.50812 0.78451 0.0
H2217 H 0.98357 0.47042 0.7844 0.0
H2218 H 0.98013 0.44964 0.76697 0.0
H2219 H 0.02354 0.46138 0.77763 0.0
H2220 H 0.02696 0.48222 0.79492 0.0
H2221 H 0.00198 0.4988 0.77873 0.0
H2222 H 0.99303 0.46351 0.82416 0.0
H2223 H 0.99614 0.44622 0.84196 0.0
H2224 H 0.03708 0.47932 0.86038 0.0
H2225 H 0.03424 0.49655 0.84193 0.0
C2226 C 0.01242 0.52614 0.83304 0.0
C2227 C 0.02479 0.53468 0.84324 0.0
C2228 C 0.02583 0.54563 0.85446 0.0
C2229 C 0.01451 0.54824 0.85569 0.0
C2230 C 0.00218 0.53977 0.84531 0.0
C2231 C 0.00112 0.52877 0.8342 0.0
C2232 C 0.01113 0.51413 0.82178 0.0
C2233 C 0.01347 0.50403 0.83053 0.0
C2234 C 0.00698 0.51223 0.80285 0.0
C2235 C 0.00505 0.52287 0.79254 0.0
C2236 C 0.0161 0.53694 0.79142 0.0
C2237 C 0.0142 0.54698 0.78186 0.0
C2238 C 0.00122 0.54312 0.77321 0.0
C2239 C 0.99022 0.52897 0.77425 0.0
C2240 C 0.99215 0.51893 0.78375 0.0
C2241 C 0.00549 0.47779 0.79104 0.0
C2242 C 0.99236 0.46855 0.78287 0.0
C2243 C 0.99038 0.45665 0.77305 0.0
C2244 C 0.00155 0.45388 0.77102 0.0
C2245 C 0.01478 0.46331 0.77888 0.0
C2246 C 0.01672 0.47516 0.78883 0.0
C2247 C 0.00733 0.49006 0.80208 0.0
C2248 C 0.00501 0.50016 0.7933 0.0
C2249 C 0.01157 0.49197 0.82099 0.0
C2250 C 0.01351 0.48133 0.83141 0.0
C2251 C 0.00284 0.46703 0.83163 0.0
C2252 C 0.00458 0.45715 0.84185 0.0
C2253 C 0.01687 0.46146 0.85245 0.0
C2254 C 0.0275 0.47576 0.85235 0.0
C2255 C 0.02587 0.48559 0.84184 0.0
H2256 H 0.4565 0.50529 0.84024 0.0
H2257 H 0.4372 0.48783 0.8597 0.0
H2258 H 0.44753 0.45611 0.84291 0.0
H2259 H 0.46691 0.4736 0.82386 0.0
H2260 H 0.48438 0.51494 0.84312 0.0
H2261 H 0.44911 0.4905 0.79361 0.0
H2262 H 0.43178 0.46883 0.77748 0.0
H2263 H 0.46414 0.45791 0.76785 0.0
H2264 H 0.4814 0.47955 0.78384 0.0
H2265 H 0.51753 0.51545 0.78093 0.0
H2266 H 0.53906 0.53195 0.76421 0.0
H2267 H 0.53198 0.5663 0.77858 0.0
H2268 H 0.51027 0.54968 0.79506 0.0
H2269 H 0.49042 0.50769 0.77624 0.0
H2270 H 0.52573 0.53052 0.82162 0.0
H2271 H 0.54437 0.54935 0.83987 0.0
H2272 H 0.5142 0.56024 0.86193 0.0
H2273 H 0.49585 0.54214 0.84227 0.0
C2274 C 0.46301 0.49071 0.83034 0.0
C2275 C 0.45456 0.49456 0.8407 0.0
C2276 C 0.44356 0.48459 0.85181 0.0
C2277 C 0.44081 0.47059 0.85271 0.0
C2278 C 0.44922 0.46675 0.84222 0.0
C2279 C 0.46029 0.47673 0.83129 0.0
C2280 C 0.47511 0.50145 0.81926 0.0
C2281 C 0.48556 0.51358 0.82837 0.0
C2282 C 0.47694 0.49931 0.80025 0.0
C2283 C 0.4665 0.48657 0.78995 0.0
C2284 C 0.45245 0.48345 0.78794 0.0
C2285 C 0.44261 0.47114 0.77869 0.0
C2286 C 0.44664 0.46171 0.77152 0.0
C2287 C 0.46074 0.46495 0.77341 0.0
C2288 C 0.47061 0.47733 0.78241 0.0
C2289 C 0.51236 0.53136 0.78932 0.0
C2290 C 0.52055 0.52652 0.78034 0.0
C2291 C 0.5329 0.53596 0.77094 0.0
C2292 C 0.53723 0.55042 0.7702 0.0
C2293 C 0.52884 0.55521 0.77884 0.0
C2294 C 0.51651 0.54575 0.78834 0.0
C2295 C 0.49965 0.52133 0.80002 0.0
C2296 C 0.48912 0.5093 0.79087 0.0
C2297 C 0.49797 0.52343 0.81914 0.0
C2298 C 0.5094 0.53507 0.83019 0.0
C2299 C 0.52318 0.53721 0.82997 0.0
C2300 C 0.53382 0.54786 0.84075 0.0
C2301 C 0.53086 0.55637 0.85253 0.0
C2302 C 0.517 0.55413 0.85282 0.0
C2303 C 0.50642 0.54364 0.84172 0.0
H2304 H 0.61557 0.82818 0.51552 0.0
H2305 H 0.61437 0.84609 0.49638 0.0
H2306 H 0.65752 0.87634 0.51131 0.0
H2307 H 0.65858 0.85849 0.53039 0.0
H2308 H 0.63386 0.81787 0.51109 0.0
H2309 H 0.62289 0.84125 0.56169 0.0
H2310 H 0.62673 0.86223 0.57888 0.0
H2311 H 0.67055 0.8742 0.58705 0.0
H2312 H 0.66638 0.8529 0.57064 0.0
H2313 H 0.66674 0.81713 0.57336 0.0
H2314 H 0.67172 0.8006 0.58984 0.0
H2315 H 0.63116 0.76593 0.57266 0.0
H2316 H 0.62603 0.7826 0.55677 0.0
H2317 H 0.6475 0.82445 0.57782 0.0
H2318 H 0.66149 0.80513 0.5288 0.0
H2319 H 0.66236 0.78746 0.5088 0.0
H2320 H 0.61862 0.77112 0.49379 0.0
H2321 H 0.61775 0.78873 0.51412 0.0
C2322 C 0.63709 0.84207 0.52459 0.0
C2323 C 0.6247 0.83872 0.51477 0.0
C2324 C 0.62406 0.84894 0.5038 0.0
C2325 C 0.63583 0.86266 0.50238 0.0
C2326 C 0.64816 0.86598 0.51239 0.0
C2327 C 0.6488 0.85577 0.52331 0.0
C2328 C 0.63814 0.83107 0.53531 0.0
C2329 C 0.63647 0.81909 0.5258 0.0
C2330 C 0.64219 0.83301 0.55427 0.0
C2331 C 0.64435 0.84555 0.56493 0.0
C2332 C 0.63328 0.84839 0.56731 0.0
C2333 C 0.63554 0.86045 0.57703 0.0
C2334 C 0.64897 0.86998 0.58439 0.0
C2335 C 0.66 0.86701 0.58197 0.0
C2336 C 0.65768 0.85486 0.57248 0.0
C2337 C 0.64606 0.80109 0.56373 0.0
C2338 C 0.65888 0.80598 0.57326 0.0
C2339 C 0.66177 0.7965 0.58253 0.0
C2340 C 0.65187 0.78194 0.58248 0.0
C2341 C 0.63896 0.77709 0.5731 0.0
C2342 C 0.63606 0.78659 0.56386 0.0
C2343 C 0.64319 0.8112 0.55361 0.0
C2344 C 0.64455 0.823 0.56322 0.0
C2345 C 0.63927 0.80931 0.53459 0.0
C2346 C 0.63951 0.79816 0.52307 0.0
C2347 C 0.65203 0.79762 0.5214 0.0
C2348 C 0.65255 0.7876 0.50986 0.0
C2349 C 0.64056 0.77792 0.4997 0.0
C2350 C 0.62797 0.77834 0.50159 0.0
C2351 C 0.62748 0.78844 0.51308 0.0
H2352 H 0.1729 0.78939 0.51675 0.0
H2353 H 0.15462 0.77126 0.49681 0.0
H2354 H 0.12545 0.78487 0.51432 0.0
H2355 H 0.14364 0.80267 0.53445 0.0
H2356 H 0.18375 0.81875 0.51478 0.0
H2357 H 0.15941 0.7812 0.56032 0.0
H2358 H 0.13814 0.76326 0.57625 0.0
H2359 H 0.12916 0.7957 0.59431 0.0
H2360 H 0.15053 0.81354 0.57867 0.0
H2361 H 0.18542 0.84829 0.58226 0.0
H2362 H 0.20205 0.86924 0.59972 0.0
H2363 H 0.23679 0.86538 0.57765 0.0
H2364 H 0.21999 0.84396 0.56098 0.0
H2365 H 0.17814 0.82194 0.5829 0.0
H2366 H 0.19941 0.85892 0.53878 0.0
H2367 H 0.21761 0.87816 0.52038 0.0
H2368 H 0.22907 0.84912 0.49587 0.0
H2369 H 0.21143 0.83013 0.51527 0.0
C2370 C 0.15957 0.79726 0.52721 0.0
C2371 C 0.16252 0.78836 0.51635 0.0
C2372 C 0.15207 0.77805 0.50491 0.0
C2373 C 0.13853 0.77656 0.50396 0.0
C2374 C 0.13564 0.78549 0.51496 0.0
C2375 C 0.14605 0.79573 0.52644 0.0
C2376 C 0.17077 0.80859 0.53873 0.0
C2377 C 0.18275 0.81932 0.52976 0.0
C2378 C 0.16909 0.80956 0.55811 0.0
C2379 C 0.15651 0.79869 0.56826 0.0
C2380 C 0.15285 0.78441 0.56775 0.0
C2381 C 0.14066 0.77418 0.5768 0.0
C2382 C 0.13192 0.77803 0.58655 0.0
C2383 C 0.13575 0.79238 0.58721 0.0
C2384 C 0.14795 0.8026 0.57821 0.0
C2385 C 0.20145 0.84461 0.57014 0.0
C2386 C 0.1966 0.85184 0.58137 0.0
C2387 C 0.20615 0.86393 0.59119 0.0
C2388 C 0.22078 0.86911 0.58994 0.0
C2389 C 0.2256 0.86165 0.57905 0.0
C2390 C 0.21601 0.84947 0.56934 0.0
C2391 C 0.19122 0.83223 0.55897 0.0
C2392 C 0.17939 0.82129 0.568 0.0
C2393 C 0.19284 0.8313 0.53951 0.0
C2394 C 0.2042 0.84311 0.52867 0.0
C2395 C 0.20606 0.85676 0.52977 0.0
C2396 C 0.21636 0.86773 0.519 0.0
C2397 C 0.22483 0.86523 0.50656 0.0
C2398 C 0.22294 0.85153 0.50551 0.0
C2399 C 0.21274 0.8406 0.51646 0.0
H2400 H 0.15466 0.34201 0.50231 0.0
H2401 H 0.13636 0.3414 0.48243 0.0
H2402 H 0.139 0.37697 0.51245 0.0
H2403 H 0.15717 0.37724 0.5328 0.0
H2404 H 0.18183 0.36425 0.50577 0.0
H2405 H 0.14113 0.33627 0.54323 0.0
H2406 H 0.11955 0.33101 0.55985 0.0
H2407 H 0.14379 0.36654 0.59646 0.0
H2408 H 0.16543 0.37182 0.57962 0.0
H2409 H 0.20479 0.37128 0.58159 0.0
H2410 H 0.22165 0.36675 0.59844 0.0
H2411 H 0.21657 0.33602 0.55679 0.0
H2412 H 0.1993 0.34001 0.54051 0.0
H2413 H 0.1779 0.35531 0.5738 0.0
H2414 H 0.22044 0.37912 0.53516 0.0
H2415 H 0.23976 0.38119 0.5154 0.0
H2416 H 0.2092 0.34874 0.47904 0.0
H2417 H 0.19008 0.34658 0.49879 0.0
C2418 C 0.15732 0.35972 0.51892 0.0
C2419 C 0.15127 0.34966 0.50465 0.0
C2420 C 0.14087 0.34939 0.49322 0.0
C2421 C 0.13638 0.3593 0.49562 0.0
C2422 C 0.14219 0.36917 0.51027 0.0
C2423 C 0.15259 0.36937 0.52186 0.0
C2424 C 0.16893 0.36023 0.53011 0.0
C2425 C 0.18102 0.36228 0.52066 0.0
C2426 C 0.16787 0.35791 0.54955 0.0
C2427 C 0.15485 0.35461 0.55996 0.0
C2428 C 0.14179 0.34303 0.5547 0.0
C2429 C 0.12946 0.34003 0.56422 0.0
C2430 C 0.12995 0.34844 0.57936 0.0
C2431 C 0.14309 0.35984 0.5849 0.0
C2432 C 0.15544 0.36288 0.57528 0.0
C2433 C 0.20102 0.35625 0.55951 0.0
C2434 C 0.20726 0.36353 0.57613 0.0
C2435 C 0.21687 0.36095 0.58573 0.0
C2436 C 0.22049 0.35118 0.57873 0.0
C2437 C 0.21413 0.34379 0.56227 0.0
C2438 C 0.20433 0.34614 0.55291 0.0
C2439 C 0.19076 0.35889 0.54931 0.0
C2440 C 0.17895 0.35758 0.55899 0.0
C2441 C 0.19187 0.36146 0.52987 0.0
C2442 C 0.20379 0.36271 0.51844 0.0
C2443 C 0.21793 0.37239 0.52302 0.0
C2444 C 0.22894 0.37356 0.51174 0.0
C2445 C 0.22595 0.36523 0.49559 0.0
C2446 C 0.21181 0.35549 0.49119 0.0
C2447 C 0.20087 0.35424 0.50249 0.0
H2448 H 0.01185 0.39943 0.09782 0.0
H2449 H 0.96965 0.38827 0.08066 0.0
H2450 H 0.01171 0.41586 0.12073 0.0
H2451 H 0.9697 0.40507 0.10313 0.0
H2452 H 0.97011 0.42787 0.15683 0.0
H2453 H 0.96964 0.40968 0.13655 0.0
H2454 H 0.01264 0.43863 0.11968 0.0
H2455 H 0.0131 0.45679 0.13983 0.0
C2456 C 0.00248 0.40036 0.09908 0.0
C2457 C 0.99077 0.39256 0.08738 0.0
C2458 C 0.00246 0.4099 0.11205 0.0
C2459 C 0.99074 0.41185 0.11366 0.0
C2460 C 0.97886 0.40375 0.10234 0.0
C2461 C 0.97889 0.39423 0.08933 0.0
C2462 C 0.97943 0.43036 0.14872 0.0
C2463 C 0.99164 0.44379 0.14995 0.0
C2464 C 0.97917 0.41994 0.13713 0.0
C2465 C 0.99111 0.4227 0.12653 0.0
C2466 C 0.00335 0.43608 0.1279 0.0
C2467 C 0.00361 0.44649 0.13946 0.0
H2468 H 0.60897 0.6086 0.10312 0.0
H2469 H 0.61682 0.57706 0.07861 0.0
H2470 H 0.59454 0.59184 0.12722 0.0
H2471 H 0.60204 0.56015 0.10244 0.0
H2472 H 0.58387 0.53723 0.15776 0.0
H2473 H 0.60059 0.55518 0.13631 0.0
H2474 H 0.57122 0.57012 0.1275 0.0
H2475 H 0.55448 0.55214 0.14867 0.0
C2476 C 0.60777 0.59815 0.10302 0.0
C2477 C 0.61401 0.59414 0.08893 0.0
C2478 C 0.59938 0.5885 0.1167 0.0
C2479 C 0.59707 0.57465 0.11665 0.0
C2480 C 0.60369 0.57078 0.10293 0.0
C2481 C 0.61204 0.58041 0.08918 0.0
C2482 C 0.58096 0.54431 0.15118 0.0
C2483 C 0.56783 0.54324 0.15495 0.0
C2484 C 0.59055 0.5546 0.13893 0.0
C2485 C 0.58723 0.56408 0.13026 0.0
C2486 C 0.57419 0.56313 0.13422 0.0
C2487 C 0.5646 0.55282 0.14638 0.0
H2488 H 0.41165 0.00232 0.06711 0.0
H2489 H 0.39915 0.02499 0.10475 0.0
H2490 H 0.42777 0.00248 0.09046 0.0
H2491 H 0.41497 0.02465 0.12854 0.0
H2492 H 0.45677 0.03419 0.15777 0.0
H2493 H 0.44034 0.03469 0.13516 0.0
H2494 H 0.42649 0.99139 0.12008 0.0
H2495 H 0.44325 0.99108 0.14201 0.0
C2496 C 0.4124 0.00743 0.08035 0.0
C2497 C 0.40417 0.01373 0.08401 0.0
C2498 C 0.42151 0.00733 0.09385 0.0
C2499 C 0.42259 0.01349 0.11141 0.0
C2500 C 0.41444 0.0199 0.11509 0.0
C2501 C 0.40529 0.01998 0.10154 0.0
C2502 C 0.45026 0.02481 0.14955 0.0
C2503 C 0.45136 0.01261 0.15166 0.0
C2504 C 0.44074 0.02505 0.13676 0.0
C2505 C 0.43217 0.01311 0.12575 0.0
C2506 C 0.43308 0.00084 0.12815 0.0
C2507 C 0.44257 0.0006 0.1409 0.0
H2508 H 0.38309 0.9976 0.90893 0.0
H2509 H 0.38853 0.96763 0.9418 0.0
H2510 H 0.39879 0.99706 0.88507 0.0
H2511 H 0.40441 0.96729 0.91813 0.0
H2512 H 0.42533 0.96271 0.866 0.0
H2513 H 0.40594 0.96067 0.88534 0.0
H2514 H 0.42468 0.00609 0.88471 0.0
H2515 H 0.44388 0.0081 0.86515 0.0
C2516 C 0.38743 0.9907 0.91089 0.0
C2517 C 0.38465 0.98271 0.92726 0.0
C2518 C 0.39652 0.99049 0.89732 0.0
C2519 C 0.4029 0.98221 0.8998 0.0
C2520 C 0.39957 0.9737 0.91576 0.0
C2521 C 0.39058 0.97399 0.92938 0.0
C2522 C 0.42516 0.97222 0.86976 0.0
C2523 C 0.43615 0.98557 0.86418 0.0
C2524 C 0.41413 0.97106 0.88093 0.0
C2525 C 0.41381 0.98322 0.88657 0.0
C2526 C 0.42456 0.99652 0.88044 0.0
C2527 C 0.43562 0.99768 0.86942 0.0
H2528 H 0.03416 0.41764 0.94063 0.0
H2529 H 0.00109 0.38458 0.90741 0.0
H2530 H 0.03641 0.43507 0.91801 0.0
H2531 H 0.00246 0.40217 0.88569 0.0
H2532 H 0.01326 0.43578 0.84232 0.0
H2533 H 0.01476 0.41849 0.86222 0.0
H2534 H 0.02427 0.44654 0.90941 0.0
H2535 H 0.02345 0.46396 0.88925 0.0
C2536 C 0.02743 0.41402 0.92844 0.0
C2537 C 0.01735 0.39963 0.92601 0.0
C2538 C 0.02855 0.4241 0.91558 0.0
C2539 C 0.01947 0.42013 0.9001 0.0
C2540 C 0.00973 0.40569 0.89732 0.0
C2541 C 0.00878 0.39557 0.91001 0.0
C2542 C 0.01578 0.43821 0.85694 0.0
C2543 C 0.01827 0.45117 0.86428 0.0
C2544 C 0.01657 0.4283 0.86839 0.0
C2545 C 0.01961 0.43104 0.88751 0.0
C2546 C 0.02221 0.44412 0.89473 0.0
C2547 C 0.02166 0.4541 0.88321 0.0
H2548 H 0.60856 0.613 0.91236 0.0
H2549 H 0.575 0.6128 0.94436 0.0
H2550 H 0.59145 0.59832 0.88849 0.0
H2551 H 0.5579 0.59824 0.92037 0.0
H2552 H 0.5348 0.58234 0.86325 0.0
H2553 H 0.55256 0.59935 0.88469 0.0
H2554 H 0.57038 0.57222 0.89073 0.0
H2555 H 0.55232 0.55486 0.8702 0.0
C2556 C 0.59757 0.61004 0.91408 0.0
C2557 C 0.59307 0.61399 0.93017 0.0
C2558 C 0.58779 0.60158 0.90052 0.0
C2559 C 0.57338 0.59714 0.90266 0.0
C2560 C 0.56897 0.60161 0.91836 0.0
C2561 C 0.57871 0.60985 0.93209 0.0
C2562 C 0.54239 0.57988 0.86927 0.0
C2563 C 0.54205 0.56715 0.86491 0.0
C2564 C 0.5526 0.5897 0.88144 0.0
C2565 C 0.56286 0.58711 0.88922 0.0
C2566 C 0.56271 0.57456 0.88467 0.0
C2567 C 0.55238 0.56464 0.8728 0.0
H2568 H 0.00464 0.59015 0.95138 0.0
H2569 H 0.02141 0.62332 0.91001 0.0
H2570 H 0.00635 0.57421 0.92926 0.0
H2571 H 0.02283 0.60715 0.8877 0.0
H2572 H 0.00622 0.56764 0.84873 0.0
H2573 H 0.00626 0.58497 0.87035 0.0
H2574 H 0.02474 0.57136 0.9128 0.0
H2575 H 0.02444 0.55387 0.89136 0.0
C2576 C 0.00887 0.59412 0.93765 0.0
C2577 C 0.01298 0.60808 0.93255 0.0
C2578 C 0.00981 0.58495 0.92495 0.0
C2579 C 0.01478 0.58944 0.90677 0.0
C2580 C 0.01884 0.60336 0.90158 0.0
C2581 C 0.018 0.6126 0.91435 0.0
C2582 C 0.01029 0.56836 0.86268 0.0
C2583 C 0.01529 0.55936 0.86837 0.0
C2584 C 0.01043 0.57837 0.87499 0.0
C2585 C 0.01546 0.57949 0.89328 0.0
C2586 C 0.02067 0.57065 0.89885 0.0
C2587 C 0.02063 0.56073 0.88651 0.0
H2588 H 0.38959 0.39459 0.91542 0.0
H2589 H 0.3802 0.42448 0.94175 0.0
H2590 H 0.40389 0.4122 0.89219 0.0
H2591 H 0.39429 0.4421 0.91823 0.0
H2592 H 0.43555 0.47437 0.8888 0.0
H2593 H 0.41861 0.45669 0.91018 0.0
H2594 H 0.40378 0.42553 0.86605 0.0
H2595 H 0.421 0.4432 0.84482 0.0
C2596 C 0.39036 0.40485 0.916 0.0
C2597 C 0.38381 0.40817 0.93043 0.0
C2598 C 0.39854 0.41496 0.90265 0.0
C2599 C 0.40029 0.42861 0.90333 0.0
C2600 C 0.39338 0.43178 0.91747 0.0
C2601 C 0.38528 0.42169 0.93091 0.0
C2602 C 0.42852 0.46379 0.88362 0.0
C2603 C 0.42964 0.46014 0.86518 0.0
C2604 C 0.41877 0.45365 0.89585 0.0
C2605 C 0.40985 0.43964 0.88989 0.0
C2606 C 0.41067 0.43614 0.87123 0.0
C2607 C 0.4205 0.44626 0.85904 0.0
H2608 H 0.61362 0.00115 0.91474 0.0
H2609 H 0.57923 0.96542 0.94263 0.0
H2610 H 0.5972 0.00066 0.89154 0.0
H2611 H 0.56268 0.96537 0.91987 0.0
H2612 H 0.53764 0.96264 0.86792 0.0
H2613 H 0.55515 0.96118 0.88744 0.0
H2614 H 0.57888 0.00676 0.89141 0.0
H2615 H 0.56175 0.00822 0.87138 0.0
C2616 C 0.60258 0.99306 0.91581 0.0
C2617 C 0.59775 0.98335 0.93061 0.0
C2618 C 0.59313 0.99291 0.90262 0.0
C2619 C 0.5786 0.98307 0.90395 0.0
C2620 C 0.57382 0.97303 0.91836 0.0
C2621 C 0.58328 0.97316 0.93154 0.0
C2622 C 0.54672 0.97234 0.87273 0.0
C2623 C 0.54827 0.98554 0.86819 0.0
C2624 C 0.55667 0.9715 0.88407 0.0
C2625 C 0.5684 0.98385 0.89103 0.0
C2626 C 0.57007 0.99704 0.88613 0.0
C2627 C 0.56014 0.99787 0.87483 0.0
H2628 H 0.61933 0.0347 0.08768 0.0
H2629 H 0.60033 0.98964 0.09599 0.0
H2630 H 0.60236 0.03513 0.10938 0.0
H2631 H 0.58402 0.99023 0.11841 0.0
H2632 H 0.54597 0.99259 0.13877 0.0
H2633 H 0.56369 0.99282 0.11804 0.0
H2634 H 0.59526 0.03273 0.14159 0.0
H2635 H 0.57734 0.03259 0.16215 0.0
C2636 C 0.61162 0.02491 0.09422 0.0
C2637 C 0.61121 0.01213 0.08999 0.0
C2638 C 0.60199 0.02518 0.10684 0.0
C2639 C 0.59175 0.0127 0.11558 0.0
C2640 C 0.5916 1e-05 0.11172 0.0
C2641 C 0.60114 -0.00028 0.09904 0.0
C2642 C 0.55672 0.00136 0.13963 0.0
C2643 C 0.56029 0.01253 0.15216 0.0
C2644 C 0.56691 0.00148 0.12777 0.0
C2645 C 0.58096 0.01274 0.12822 0.0
C2646 C 0.58452 0.02397 0.14072 0.0
C2647 C 0.57427 0.02388 0.15253 0.0
H2648 H 0.96285 0.58472 0.08454 0.0
H2649 H 0.0065 0.61473 0.09744 0.0
H2650 H 0.9633 0.56811 0.1068 0.0
H2651 H 0.0067 0.5985 0.12026 0.0
H2652 H 0.0081 0.5596 0.1395 0.0
H2653 H 0.00678 0.57659 0.11907 0.0
H2654 H 0.96486 0.5636 0.13971 0.0
H2655 H 0.96616 0.54642 0.16015 0.0
C2656 C 0.97249 0.58784 0.09224 0.0
C2657 C 0.98465 0.60106 0.08912 0.0
C2658 C 0.9727 0.57837 0.10514 0.0
C2659 C 0.98507 0.58193 0.11521 0.0
C2660 C 0.99706 0.59533 0.11253 0.0
C2661 C 0.99687 0.60474 0.09961 0.0
C2662 C 0.99866 0.56047 0.13985 0.0
C2663 C 0.98727 0.55172 0.15152 0.0
C2664 C 0.99791 0.57023 0.12815 0.0
C2665 C 0.98575 0.57154 0.12785 0.0
C2666 C 0.97432 0.56276 0.13948 0.0
C2667 C 0.97506 0.55293 0.15119 0.0
H2668 H 0.41323 0.41183 0.07109 0.0
H2669 H 0.40327 0.37437 0.10272 0.0
H2670 H 0.43064 0.42639 0.09431 0.0
H2671 H 0.42027 0.38909 0.12654 0.0
H2672 H 0.46304 0.41927 0.15457 0.0
H2673 H 0.44547 0.40393 0.13174 0.0
H2674 H 0.43171 0.43448 0.12558 0.0
H2675 H 0.44969 0.45008 0.1476 0.0
C2676 C 0.41479 0.40667 0.08297 0.0
C2677 C 0.40689 0.3919 0.08496 0.0
C2678 C 0.42464 0.41507 0.09645 0.0
C2679 C 0.4268 0.40893 0.11237 0.0
C2680 C 0.41894 0.39415 0.11438 0.0
C2681 C 0.40909 0.38572 0.10082 0.0
C2682 C 0.45633 0.42275 0.14824 0.0
C2683 C 0.45783 0.43594 0.15289 0.0
C2684 C 0.44614 0.41388 0.13532 0.0
C2685 C 0.43722 0.418 0.12675 0.0
C2686 C 0.43855 0.43106 0.13169 0.0
C2687 C 0.44874 0.43993 0.14454 0.0
H2688 H 0.65204 0.73906 0.40129 0.0
H2689 H 0.63966 0.70653 0.443 0.0
H2690 H 0.64984 0.75437 0.42412 0.0
H2691 H 0.63767 0.72203 0.46604 0.0
H2692 H 0.62153 0.74971 0.49495 0.0
H2693 H 0.62282 0.73344 0.47258 0.0
H2694 H 0.6629 0.76723 0.45267 0.0
H2695 H 0.66151 0.78348 0.47472 0.0
C2696 C 0.64871 0.73513 0.41531 0.0
C2697 C 0.64596 0.72157 0.42034 0.0
C2698 C 0.64761 0.74396 0.42843 0.0
C2699 C 0.64365 0.73942 0.44688 0.0
C2700 C 0.64066 0.72577 0.45189 0.0
C2701 C 0.6419 0.71696 0.43876 0.0
C2702 C 0.63058 0.75364 0.48574 0.0
C2703 C 0.64142 0.76786 0.48658 0.0
C2704 C 0.63138 0.74431 0.47306 0.0
C2705 C 0.64294 0.74908 0.46084 0.0
C2706 C 0.65379 0.76328 0.46178 0.0
C2707 C 0.65306 0.77255 0.47453 0.0
H2708 H 0.28014 0.90954 0.4144 0.0
H2709 H 0.27618 0.94236 0.44245 0.0
H2710 H 0.26649 0.89294 0.43919 0.0
H2711 H 0.26261 0.92579 0.46733 0.0
H2712 H 0.22188 0.88591 0.48924 0.0
H2713 H 0.23825 0.90405 0.46795 0.0
H2714 H 0.26733 0.88846 0.47372 0.0
H2715 H 0.25114 0.8705 0.49557 0.0
C2716 C 0.27646 0.91322 0.42598 0.0
C2717 C 0.27916 0.92721 0.42648 0.0
C2718 C 0.26875 0.90376 0.44022 0.0
C2719 C 0.26345 0.90807 0.45513 0.0
C2720 C 0.26649 0.92217 0.45591 0.0
C2721 C 0.27434 0.93167 0.44177 0.0
C2722 C 0.23188 0.88649 0.48635 0.0
C2723 C 0.23515 0.87669 0.49417 0.0
C2724 C 0.24125 0.89689 0.47409 0.0
C2725 C 0.25406 0.89766 0.46919 0.0
C2726 C 0.25746 0.88801 0.47713 0.0
C2727 C 0.24815 0.87769 0.48957 0.0
H2728 H 0.07265 0.33135 0.41166 0.0
H2729 H 0.07612 0.3711 0.42781 0.0
H2730 H 0.09054 0.33495 0.43448 0.0
H2731 H 0.09382 0.37441 0.45122 0.0
H2732 H 0.1141 0.36356 0.50334 0.0
H2733 H 0.09608 0.36192 0.48154 0.0
H2734 H 0.11704 0.35343 0.43658 0.0
H2735 H 0.13516 0.35544 0.458 0.0
C2736 C 0.07726 0.3409 0.41999 0.0
C2737 C 0.0731 0.35106 0.41762 0.0
C2738 C 0.08746 0.3429 0.43314 0.0
C2739 C 0.09365 0.35502 0.44444 0.0
C2740 C 0.08916 0.36496 0.44268 0.0
C2741 C 0.07902 0.36303 0.42932 0.0
C2742 C 0.11497 0.36157 0.48875 0.0
C2743 C 0.12593 0.35938 0.48248 0.0
C2744 C 0.10465 0.36061 0.47632 0.0
C2745 C 0.10509 0.35734 0.45748 0.0
C2746 C 0.11631 0.35568 0.45112 0.0
C2747 C 0.12664 0.35677 0.46343 0.0
H2748 H 0.06903 0.31588 0.28492 0.0
H2749 H 0.03484 0.29978 0.24514 0.0
H2750 H 0.08345 0.31181 0.26287 0.0
H2751 H 0.04919 0.29524 0.22302 0.0
H2752 H 0.08627 0.30589 0.18189 0.0
H2753 H 0.0694 0.30709 0.20321 0.0
H2754 H 0.0862 0.29399 0.24857 0.0
H2755 H 0.10337 0.29347 0.22739 0.0
C2756 C 0.06451 0.3112 0.27153 0.0
C2757 C 0.05078 0.30804 0.2668 0.0
C2758 C 0.07276 0.30881 0.25888 0.0
C2759 C 0.06746 0.30303 0.24118 0.0
C2760 C 0.05366 0.29981 0.23645 0.0
C2761 C 0.04543 0.30236 0.24911 0.0
C2762 C 0.08616 0.3031 0.19639 0.0
C2763 C 0.09615 0.29974 0.20312 0.0
C2764 C 0.07649 0.30374 0.2086 0.0
C2765 C 0.07657 0.30085 0.22771 0.0
C2766 C 0.08609 0.29668 0.23409 0.0
C2767 C 0.09585 0.29627 0.22196 0.0
H2768 H 0.70137 0.73835 0.25149 0.0
H2769 H 0.67694 0.75212 0.28361 0.0
H2770 H 0.70535 0.75593 0.22769 0.0
H2771 H 0.6815 0.76998 0.26027 0.0
H2772 H 0.70566 0.80975 0.22451 0.0
H2773 H 0.70341 0.79237 0.24764 0.0
H2774 H 0.68938 0.7604 0.20475 0.0
H2775 H 0.69159 0.77782 0.18154 0.0
C2776 C 0.69683 0.74506 0.25352 0.0
C2777 C 0.68889 0.74381 0.26961 0.0
C2778 C 0.69918 0.75516 0.23992 0.0
C2779 C 0.69381 0.76435 0.24225 0.0
C2780 C 0.68595 0.76317 0.25829 0.0
C2781 C 0.68342 0.75297 0.27172 0.0
C2782 C 0.70228 0.79906 0.21999 0.0
C2783 C 0.69878 0.79511 0.20126 0.0
C2784 C 0.7009 0.78911 0.23322 0.0
C2785 C 0.69618 0.77506 0.22796 0.0
C2786 C 0.69311 0.77119 0.20913 0.0
C2787 C 0.69429 0.78111 0.19592 0.0
H2788 H 0.24255 0.92425 0.28376 0.0
H2789 H 0.2599 0.96199 0.2499 0.0
H2790 H 0.22478 0.91135 0.2601 0.0
H2791 H 0.2423 0.94877 0.22585 0.0
H2792 H 0.21927 0.91266 0.18056 0.0
H2793 H 0.23657 0.92782 0.20396 0.0
H2794 H 0.20374 0.9118 0.24578 0.0
H2795 H 0.1865 0.89662 0.22248 0.0
C2796 C 0.24249 0.92988 0.27141 0.0
C2797 C 0.25264 0.94424 0.26888 0.0
C2798 C 0.23232 0.92244 0.2578 0.0
C2799 C 0.23212 0.92909 0.2412 0.0
C2800 C 0.24228 0.94338 0.2385 0.0
C2801 C 0.25238 0.95091 0.25225 0.0
C2802 C 0.21576 0.91248 0.19473 0.0
C2803 C 0.20156 0.90344 0.19973 0.0
C2804 C 0.22562 0.92121 0.20807 0.0
C2805 C 0.22149 0.92091 0.22668 0.0
C2806 C 0.20722 0.91215 0.23156 0.0
C2807 C 0.19735 0.90355 0.2182 0.0
H2808 H 0.71209 0.95362 0.27256 0.0
H2809 H 0.67002 0.93762 0.25047 0.0
H2810 H 0.71664 0.94024 0.24897 0.0
H2811 H 0.67455 0.92431 0.22701 0.0
H2812 H 0.69023 0.91063 0.17762 0.0
H2813 H 0.68837 0.92685 0.19929 0.0
H2814 H 0.70873 0.91551 0.24191 0.0
H2815 H 0.71064 0.89936 0.22023 0.0
C2816 C 0.70382 0.94726 0.26268 0.0
C2817 C 0.69071 0.94671 0.26338 0.0
C2818 C 0.70643 0.9396 0.24917 0.0
C2819 C 0.69597 0.93123 0.23608 0.0
C2820 C 0.68294 0.93086 0.23664 0.0
C2821 C 0.68034 0.9385 0.25012 0.0
C2822 C 0.69434 0.91164 0.19161 0.0
C2823 C 0.7005 0.90364 0.19725 0.0
C2824 C 0.69327 0.92092 0.20402 0.0
C2825 C 0.69831 0.9224 0.22237 0.0
C2826 C 0.7049 0.91476 0.22781 0.0
C2827 C 0.70599 0.90549 0.21539 0.0
H2828 H 0.0461 0.75966 0.27465 0.0
H2829 H 0.05906 0.73177 0.25038 0.0
H2830 H 0.05905 0.77713 0.25044 0.0
H2831 H 0.07211 0.74921 0.22638 0.0
H2832 H 0.08593 0.77864 0.17716 0.0
H2833 H 0.06996 0.7609 0.19936 0.0
H2834 H 0.08325 0.79313 0.24189 0.0
H2835 H 0.09902 0.81084 0.21963 0.0
C2836 C 0.05172 0.75727 0.26414 0.0
C2837 C 0.05156 0.74434 0.26442 0.0
C2838 C 0.05915 0.76727 0.25029 0.0
C2839 C 0.06664 0.76459 0.23646 0.0
C2840 C 0.06625 0.75154 0.23659 0.0
C2841 C 0.05878 0.74153 0.25038 0.0
C2842 C 0.08537 0.78192 0.19124 0.0
C2843 C 0.09376 0.79612 0.19667 0.0
C2844 C 0.07625 0.77176 0.20397 0.0
C2845 C 0.07538 0.77556 0.22246 0.0
C2846 C 0.08349 0.78985 0.22771 0.0
C2847 C 0.09255 0.80001 0.21496 0.0
H2848 H 0.24219 0.29543 0.28095 0.0
H2849 H 0.27618 0.32736 0.24775 0.0
H2850 H 0.22525 0.29277 0.25691 0.0
H2851 H 0.25932 0.32439 0.22351 0.0
H2852 H 0.22281 0.32954 0.19988 0.0
H2853 H 0.24063 0.33042 0.22104 0.0
H2854 H 0.21765 0.28483 0.22451 0.0
H2855 H 0.19958 0.28398 0.2036 0.0
C2856 C 0.24605 0.30178 0.26845 0.0
C2857 C 0.26052 0.31165 0.26631 0.0
C2858 C 0.23638 0.30015 0.25459 0.0
C2859 C 0.24095 0.30841 0.23834 0.0
C2860 C 0.25546 0.31798 0.23596 0.0
C2861 C 0.26513 0.31957 0.24978 0.0
C2862 C 0.22158 0.31971 0.20513 0.0
C2863 C 0.20975 0.3067 0.2002 0.0
C2864 C 0.23186 0.3202 0.2171 0.0
C2865 C 0.23053 0.30769 0.22448 0.0
C2866 C 0.21889 0.29465 0.21918 0.0
C2867 C 0.20862 0.29415 0.20708 0.0
H2868 H 0.28272 0.37618 0.40327 0.0
H2869 H 0.28283 0.34484 0.43972 0.0
H2870 H 0.26878 0.38056 0.4261 0.0
H2871 H 0.26895 0.34925 0.46252 0.0
H2872 H 0.25076 0.36641 0.50528 0.0
H2873 H 0.26852 0.36652 0.48432 0.0
H2874 H 0.24436 0.36677 0.4369 0.0
H2875 H 0.22691 0.367 0.45776 0.0
C2876 C 0.27982 0.37027 0.41618 0.0
C2877 C 0.28379 0.36008 0.4196 0.0
C2878 C 0.27186 0.37279 0.42927 0.0
C2879 C 0.26769 0.36519 0.44607 0.0
C2880 C 0.27214 0.35542 0.44982 0.0
C2881 C 0.28009 0.35288 0.43673 0.0
C2882 C 0.24941 0.36674 0.49038 0.0
C2883 C 0.2374 0.36658 0.48314 0.0
C2884 C 0.2595 0.36668 0.47839 0.0
C2885 C 0.25781 0.3666 0.45895 0.0
C2886 C 0.24606 0.36698 0.45179 0.0
C2887 C 0.23598 0.36695 0.46373 0.0
H2888 H 0.6232 0.91129 0.41515 0.0
H2889 H 0.66647 0.93625 0.43386 0.0
H2890 H 0.61876 0.8938 0.43925 0.0
H2891 H 0.66197 0.91891 0.45798 0.0
H2892 H 0.64671 0.89095 0.50884 0.0
H2893 H 0.64853 0.90881 0.48693 0.0
H2894 H 0.62635 0.87636 0.44551 0.0
H2895 H 0.62461 0.85851 0.46733 0.0
C2896 C 0.63176 0.91306 0.4244 0.0
C2897 C 0.6452 0.92518 0.42254 0.0
C2898 C 0.6292 0.90306 0.43822 0.0
C2899 C 0.64001 0.90499 0.45053 0.0
C2900 C 0.65335 0.91724 0.44892 0.0
C2901 C 0.65592 0.92719 0.43508 0.0
C2902 C 0.64219 0.88762 0.49507 0.0
C2903 C 0.63562 0.87332 0.48979 0.0
C2904 C 0.64323 0.89785 0.48253 0.0
C2905 C 0.63768 0.894 0.46445 0.0
C2906 C 0.6306 0.87964 0.45941 0.0
C2907 C 0.62959 0.86941 0.47193 0.0
H2908 H 0.08806 0.71471 0.41783 0.0
H2909 H 0.0649 0.73548 0.43422 0.0
H2910 H 0.10587 0.72814 0.44149 0.0
H2911 H 0.08248 0.74853 0.45809 0.0
H2912 H 0.11 0.7601 0.51002 0.0
H2913 H 0.0919 0.74456 0.48789 0.0
H2914 H 0.12416 0.75372 0.44666 0.0
H2915 H 0.14226 0.76951 0.46856 0.0
C2916 C 0.08674 0.72212 0.42644 0.0
C2917 C 0.07501 0.72399 0.42406 0.0
C2918 C 0.09693 0.72976 0.44003 0.0
C2919 C 0.09554 0.73935 0.45166 0.0
C2920 C 0.08372 0.74105 0.44953 0.0
C2921 C 0.07361 0.73352 0.43585 0.0
C2922 C 0.11325 0.75885 0.49622 0.0
C2923 C 0.1276 0.76616 0.49105 0.0
C2924 C 0.10287 0.74992 0.48357 0.0
C2925 C 0.10661 0.74798 0.46553 0.0
C2926 C 0.12097 0.75489 0.46054 0.0
C2927 C 0.13135 0.76392 0.47313 0.0
H2928 H 0.33075 0.07946 0.738 0.0
H2929 H 0.29699 0.04123 0.7624 0.0
H2930 H 0.32742 0.0934 0.76145 0.0
H2931 H 0.29444 0.05522 0.78695 0.0
H2932 H 0.28426 0.08596 0.81754 0.0
H2933 H 0.28649 0.07125 0.7938 0.0
H2934 H 0.33174 0.09949 0.79277 0.0
H2935 H 0.32939 0.11474 0.81515 0.0
C2936 C 0.32256 0.07398 0.74832 0.0
C2937 C 0.31407 0.05915 0.74812 0.0
C2938 C 0.32083 0.08201 0.76207 0.0
C2939 C 0.31075 0.07548 0.7763 0.0
C2940 C 0.30223 0.06065 0.77614 0.0
C2941 C 0.30383 0.05259 0.76218 0.0
C2942 C 0.29467 0.08913 0.81208 0.0
C2943 C 0.30662 0.10163 0.81829 0.0
C2944 C 0.29597 0.08056 0.79863 0.0
C2945 C 0.30929 0.08419 0.7912 0.0
C2946 C 0.32126 0.09647 0.79782 0.0
C2947 C 0.31994 0.10512 0.81101 0.0
H2948 H 0.94786 0.2697 0.77258 0.0
H2949 H 0.95233 0.23829 0.74167 0.0
H2950 H 0.93429 0.25223 0.79638 0.0
H2951 H 0.93935 0.22088 0.76587 0.0
H2952 H 0.89973 0.18962 0.79815 0.0
H2953 H 0.91611 0.20719 0.77628 0.0
H2954 H 0.93361 0.23788 0.82093 0.0
H2955 H 0.91667 0.22034 0.84258 0.0
C2956 C 0.94621 0.25912 0.77115 0.0
C2957 C 0.95105 0.2553 0.75529 0.0
C2958 C 0.93848 0.24908 0.78483 0.0
C2959 C 0.93559 0.23504 0.78307 0.0
C2960 C 0.94105 0.23146 0.76753 0.0
C2961 C 0.94857 0.24144 0.75372 0.0
C2962 C 0.90721 0.20008 0.80329 0.0
C2963 C 0.90692 0.20365 0.82201 0.0
C2964 C 0.91668 0.21018 0.79078 0.0
C2965 C 0.92624 0.22404 0.79676 0.0
C2966 C 0.92624 0.22743 0.8157 0.0
C2967 C 0.9166 0.21737 0.82815 0.0
H2968 H 0.75794 0.70441 0.73837 0.0
H2969 H 0.723 0.67568 0.77316 0.0
H2970 H 0.77445 0.70736 0.76316 0.0
H2971 H 0.73949 0.67893 0.79813 0.0
H2972 H 0.77476 0.67184 0.82305 0.0
H2973 H 0.75709 0.67134 0.80192 0.0
H2974 H 0.78245 0.7166 0.79505 0.0
H2975 H 0.80032 0.71704 0.81593 0.0
C2976 C 0.75379 0.69886 0.7514 0.0
C2977 C 0.73919 0.68973 0.75376 0.0
C2978 C 0.76323 0.70066 0.76566 0.0
C2979 C 0.75827 0.69333 0.78257 0.0
C2980 C 0.74363 0.68461 0.78519 0.0
C2981 C 0.73418 0.68286 0.77095 0.0
C2982 C 0.77651 0.68169 0.8171 0.0
C2983 C 0.78896 0.69446 0.82101 0.0
C2984 C 0.76633 0.68143 0.80515 0.0
C2985 C 0.7684 0.69393 0.79678 0.0
C2986 C 0.78063 0.70679 0.80117 0.0
C2987 C 0.79079 0.70705 0.81324 0.0
H2988 H 0.71808 0.6618 0.57603 0.0
H2989 H 0.71766 0.62751 0.6064 0.0
H2990 H 0.73188 0.6591 0.55136 0.0
H2991 H 0.73195 0.6252 0.58207 0.0
H2992 H 0.75046 0.61823 0.52953 0.0
H2993 H 0.73268 0.61872 0.54971 0.0
H2994 H 0.75618 0.66439 0.54896 0.0
H2995 H 0.77362 0.66389 0.52834 0.0
C2996 C 0.72075 0.65355 0.57733 0.0
C2997 C 0.71684 0.64493 0.59325 0.0
C2998 C 0.7288 0.65211 0.56328 0.0
C2999 C 0.73313 0.64203 0.56482 0.0
C3000 C 0.72872 0.63301 0.58037 0.0
C3001 C 0.72066 0.63445 0.59442 0.0
C3002 C 0.75166 0.62836 0.5334 0.0
C3003 C 0.76349 0.64103 0.52746 0.0
C3004 C 0.74156 0.62864 0.5451 0.0
C3005 C 0.74305 0.64159 0.55102 0.0
C3006 C 0.75463 0.65423 0.54453 0.0
C3007 C 0.76472 0.65395 0.53289 0.0
H3008 H 0.33061 0.06076 0.58399 0.0
H3009 H 0.37529 0.08538 0.59625 0.0
H3010 H 0.33329 0.07783 0.56048 0.0
H3011 H 0.37778 0.10298 0.57348 0.0
H3012 H 0.37944 0.1266 0.52011 0.0
H3013 H 0.37742 0.10803 0.54099 0.0
H3014 H 0.33691 0.10113 0.56008 0.0
H3015 H 0.33885 0.11939 0.53902 0.0
C3016 C 0.34105 0.06974 0.58157 0.0
C3017 C 0.35273 0.07167 0.5921 0.0
C3018 C 0.34254 0.07967 0.56826 0.0
C3019 C 0.35571 0.0919 0.56523 0.0
C3020 C 0.36749 0.09366 0.57536 0.0
C3021 C 0.36602 0.08364 0.5886 0.0
C3022 C 0.37013 0.12108 0.5288 0.0
C3023 C 0.35926 0.12437 0.52785 0.0
C3024 C 0.36897 0.11047 0.54078 0.0
C3025 C 0.35696 0.10301 0.55215 0.0
C3026 C 0.34616 0.1064 0.55122 0.0
C3027 C 0.34727 0.11691 0.53918 0.0
H3028 H 0.9316 0.29064 0.57944 0.0
H3029 H 0.91344 0.25336 0.61421 0.0
H3030 H 0.91387 0.27743 0.55552 0.0
H3031 H 0.89561 0.24042 0.5906 0.0
H3032 H 0.85718 0.22624 0.55353 0.0
H3033 H 0.87492 0.24108 0.5765 0.0
H3034 H 0.90714 0.25647 0.53386 0.0
H3035 H 0.88931 0.24171 0.51075 0.0
C3036 C 0.9239 0.27965 0.58198 0.0
C3037 C 0.92391 0.27312 0.59885 0.0
C3038 C 0.91373 0.27211 0.5683 0.0
C3039 C 0.9033 0.25795 0.57129 0.0
C3040 C 0.90336 0.25141 0.58807 0.0
C3041 C 0.91357 0.25887 0.60163 0.0
C3042 C 0.86801 0.23296 0.549 0.0
C3043 C 0.87187 0.2328 0.53036 0.0
C3044 C 0.87818 0.24135 0.56217 0.0
C3045 C 0.89241 0.24985 0.55698 0.0
C3046 C 0.89623 0.25006 0.53823 0.0
C3047 C 0.88606 0.24155 0.52506 0.0
H3048 H 0.36262 0.29296 0.57995 0.0
H3049 H 0.34509 0.25822 0.61895 0.0
H3050 H 0.36522 0.27794 0.55684 0.0
H3051 H 0.34804 0.24339 0.59612 0.0
H3052 H 0.33865 0.21654 0.54363 0.0
H3053 H 0.33697 0.23225 0.56629 0.0
H3054 H 0.37877 0.26552 0.5509 0.0
H3055 H 0.38031 0.24985 0.52781 0.0
C3056 C 0.35939 0.28215 0.58361 0.0
C3057 C 0.35365 0.27678 0.60128 0.0
C3058 C 0.36099 0.2736 0.57045 0.0
C3059 C 0.35677 0.25947 0.57464 0.0
C3060 C 0.35123 0.25419 0.59239 0.0
C3061 C 0.3497 0.26274 0.60556 0.0
C3062 C 0.34742 0.22725 0.54493 0.0
C3063 C 0.3596 0.23196 0.53389 0.0
C3064 C 0.34653 0.2362 0.55806 0.0
C3065 C 0.35777 0.2501 0.56045 0.0
C3066 C 0.3699 0.25489 0.5493 0.0
C3067 C 0.37084 0.24589 0.5362 0.0
H3068 H 0.71724 0.09112 0.60798 0.0
H3069 H 0.72709 0.0618 0.58092 0.0
H3070 H 0.72994 0.1085 0.58362 0.0
H3071 H 0.74002 0.0792 0.55679 0.0
H3072 H 0.75399 0.10953 0.50835 0.0
H3073 H 0.73821 0.09181 0.53073 0.0
H3074 H 0.75387 0.12359 0.57408 0.0
H3075 H 0.76939 0.14127 0.55165 0.0
C3076 C 0.72214 0.08841 0.59682 0.0
C3077 C 0.72121 0.07512 0.59638 0.0
C3078 C 0.72944 0.09836 0.58289 0.0
C3079 C 0.73607 0.09529 0.56827 0.0
C3080 C 0.73486 0.08187 0.56765 0.0
C3081 C 0.72747 0.07188 0.58151 0.0
C3082 C 0.75398 0.11271 0.52266 0.0
C3083 C 0.76293 0.12678 0.52826 0.0
C3084 C 0.74498 0.10256 0.53549 0.0
C3085 C 0.7448 0.10624 0.55424 0.0
C3086 C 0.75354 0.12041 0.55971 0.0
C3087 C 0.76246 0.13056 0.54686 0.0
H3088 H 0.90717 0.62462 0.61276 0.0
H3089 H 0.93843 0.65644 0.57642 0.0
H3090 H 0.88871 0.62028 0.59029 0.0
H3091 H 0.91998 0.65205 0.55394 0.0
H3092 H 0.88411 0.63456 0.5117 0.0
H3093 H 0.90209 0.63473 0.53217 0.0
H3094 H 0.87798 0.63417 0.58024 0.0
H3095 H 0.85997 0.63369 0.55986 0.0
C3096 C 0.91011 0.63065 0.59994 0.0
C3097 C 0.92425 0.64098 0.59647 0.0
C3098 C 0.89954 0.62814 0.58706 0.0
C3099 C 0.90287 0.6359 0.57041 0.0
C3100 C 0.91709 0.64579 0.56655 0.0
C3101 C 0.92767 0.6483 0.57945 0.0
C3102 C 0.88258 0.63424 0.52664 0.0
C3103 C 0.8707 0.63421 0.5342 0.0
C3104 C 0.89291 0.63445 0.53835 0.0
C3105 C 0.89147 0.6345 0.55782 0.0
C3106 C 0.87934 0.63399 0.56531 0.0
C3107 C 0.86909 0.63387 0.55364 0.0
H3108 H 0.96018 0.70717 0.75566 0.0
H3109 H 0.92398 0.66669 0.74147 0.0
H3110 H 0.94578 0.71098 0.77858 0.0
H3111 H 0.90968 0.67079 0.76373 0.0
H3112 H 0.88508 0.69064 0.7872 0.0
H3113 H 0.90115 0.68881 0.76541 0.0
H3114 H 0.93162 0.69907 0.80945 0.0
H3115 H 0.91531 0.70053 0.8316 0.0
C3116 C 0.94922 0.69907 0.75744 0.0
C3117 C 0.94321 0.6867 0.74648 0.0
C3118 C 0.941 0.70129 0.77052 0.0
C3119 C 0.9266 0.69126 0.77272 0.0
C3120 C 0.92068 0.67882 0.76204 0.0
C3121 C 0.92889 0.67653 0.7492 0.0
C3122 C 0.89515 0.69242 0.79234 0.0
C3123 C 0.89878 0.69546 0.81125 0.0
C3124 C 0.90438 0.69144 0.77982 0.0
C3125 C 0.91753 0.69364 0.78582 0.0
C3126 C 0.92153 0.69736 0.80449 0.0
C3127 C 0.9122 0.69821 0.81713 0.0
H3128 H 0.33205 0.27148 0.76642 0.0
H3129 H 0.28857 0.24618 0.74871 0.0
H3130 H 0.32819 0.25394 0.78997 0.0
H3131 H 0.28477 0.22851 0.77224 0.0
H3132 H 0.29117 0.19319 0.79851 0.0
H3133 H 0.29272 0.21127 0.77729 0.0
H3134 H 0.31536 0.24329 0.81906 0.0
H3135 H 0.31372 0.22518 0.84039 0.0
C3136 C 0.32159 0.2623 0.76776 0.0
C3137 C 0.31062 0.26025 0.75564 0.0
C3138 C 0.31939 0.25223 0.78126 0.0
C3139 C 0.30618 0.23983 0.78295 0.0
C3140 C 0.29512 0.23788 0.77111 0.0
C3141 C 0.2973 0.24799 0.75763 0.0
C3142 C 0.29624 0.20405 0.80331 0.0
C3143 C 0.30239 0.20775 0.82112 0.0
C3144 C 0.29713 0.21441 0.79113 0.0
C3145 C 0.30422 0.22872 0.79646 0.0
C3146 C 0.31002 0.23238 0.81445 0.0
C3147 C 0.3091 0.22201 0.82665 0.0
H3148 H 0.76202 0.06609 0.73305 0.0
H3149 H 0.73374 0.03914 0.77604 0.0
H3150 H 0.77986 0.07962 0.75645 0.0
H3151 H 0.75172 0.05245 0.79954 0.0
H3152 H 0.77918 0.09109 0.83659 0.0
H3153 H 0.76208 0.07505 0.81401 0.0
H3154 H 0.79619 0.07988 0.77849 0.0
H3155 H 0.8133 0.09662 0.80057 0.0
C3156 C 0.75974 0.06287 0.74749 0.0
C3157 C 0.74647 0.05159 0.75272 0.0
C3158 C 0.76998 0.07061 0.76094 0.0
C3159 C 0.76724 0.06718 0.77994 0.0
C3160 C 0.75411 0.05556 0.78509 0.0
C3161 C 0.74382 0.0479 0.77163 0.0
C3162 C 0.78305 0.08879 0.82393 0.0
C3163 C 0.79763 0.0953 0.82034 0.0
C3164 C 0.77322 0.07941 0.81107 0.0
C3165 C 0.77773 0.07619 0.79434 0.0
C3166 C 0.79233 0.08228 0.79108 0.0
C3167 C 0.80216 0.09174 0.80389 0.0
H3168 H 0.06022 0.34925 0.07465 0.0
H3169 H 0.06003 0.32528 0.02656 0.0
H3170 H 0.07638 0.34362 0.09037 0.0
H3171 H 0.07545 0.3188 0.04286 0.0
H3172 H 0.11433 0.32135 0.07054 0.0
H3173 H 0.09885 0.32761 0.05378 0.0
H3174 H 0.0767 0.32453 0.1051 0.0
H3175 H 0.0925 0.31875 0.12183 0.0
C3176 C 0.06366 0.34283 0.06736 0.0
C3177 C 0.05881 0.33777 0.04927 0.0
C3178 C 0.07277 0.33938 0.07654 0.0
C3179 C 0.07716 0.33064 0.06799 0.0
C3180 C 0.07241 0.32566 0.04984 0.0
C3181 C 0.06339 0.32923 0.04057 0.0
C3182 C 0.10609 0.32195 0.07816 0.0
C3183 C 0.10464 0.31963 0.09748 0.0
C3184 C 0.09719 0.3255 0.06857 0.0
C3185 C 0.08654 0.32666 0.07807 0.0
C3186 C 0.08497 0.32406 0.09737 0.0
C3187 C 0.09397 0.32068 0.10697 0.0
H3188 H 0.67572 0.73101 0.02564 0.0
H3189 H 0.65127 0.70859 0.07402 0.0
H3190 H 0.68249 0.75355 0.04097 0.0
H3191 H 0.65802 0.73111 0.08932 0.0
H3192 H 0.68747 0.77428 0.11738 0.0
H3193 H 0.68099 0.75195 0.10165 0.0
H3194 H 0.67016 0.76682 0.05214 0.0
H3195 H 0.67666 0.78914 0.06786 0.0
C3196 C 0.67179 0.73093 0.03953 0.0
C3197 C 0.66296 0.71809 0.04865 0.0
C3198 C 0.6756 0.74379 0.04825 0.0
C3199 C 0.67081 0.74404 0.06634 0.0
C3200 C 0.66195 0.7312 0.07543 0.0
C3201 C 0.65799 0.71834 0.06662 0.0
C3202 C 0.68381 0.7728 0.10309 0.0
C3203 C 0.68255 0.7834 0.09382 0.0
C3204 C 0.68 0.76 0.09416 0.0
C3205 C 0.67503 0.75767 0.07572 0.0
C3206 C 0.67402 0.76838 0.06634 0.0
C3207 C 0.67765 0.78109 0.07534 0.0
H3208 H 0.27886 0.9262 0.03881 0.0
H3209 H 0.27446 0.96157 0.05671 0.0
H3210 H 0.2567 0.91001 0.05442 0.0
H3211 H 0.25227 0.94537 0.0721 0.0
H3212 H 0.20598 0.91055 0.08083 0.0
H3213 H 0.22787 0.92671 0.06465 0.0
H3214 H 0.24757 0.90405 0.08661 0.0
H3215 H 0.22577 0.88799 0.10292 0.0
C3216 C 0.2732 0.93053 0.04613 0.0
C3217 C 0.27843 0.94518 0.04648 0.0
C3218 C 0.26051 0.92125 0.05506 0.0
C3219 C 0.25275 0.92642 0.06449 0.0
C3220 C 0.25791 0.94105 0.06472 0.0
C3221 C 0.27061 0.95033 0.05585 0.0
C3222 C 0.21502 0.90911 0.08236 0.0
C3223 C 0.21411 0.89796 0.09314 0.0
C3224 C 0.22755 0.91834 0.07306 0.0
C3225 C 0.23942 0.91661 0.0743 0.0
C3226 C 0.23853 0.9055 0.08512 0.0
C3227 C 0.22603 0.8963 0.09446 0.0
H3228 H 0.32896 0.06292 0.99587 0.0
H3229 H 0.342 0.05517 0.94238 0.0
H3230 H 0.32195 0.07852 0.98107 0.0
H3231 H 0.33557 0.07121 0.92775 0.0
H3232 H 0.3089 0.08865 0.90429 0.0
H3233 H 0.31463 0.07237 0.91987 0.0
H3234 H 0.33232 0.10146 0.9661 0.0
H3235 H 0.32604 0.11746 0.95089 0.0
C3236 C 0.33036 0.06457 0.98097 0.0
C3237 C 0.33605 0.0578 0.97032 0.0
C3238 C 0.32647 0.07361 0.97252 0.0
C3239 C 0.32817 0.07608 0.95322 0.0
C3240 C 0.33395 0.06939 0.9426 0.0
C3241 C 0.33783 0.06035 0.95104 0.0
C3242 C 0.31381 0.09147 0.91791 0.0
C3243 C 0.31704 0.10436 0.92633 0.0
C3244 C 0.31726 0.08223 0.92673 0.0
C3245 C 0.32403 0.08567 0.94417 0.0
C3246 C 0.32702 0.09844 0.95274 0.0
C3247 C 0.32356 0.10768 0.94393 0.0
H3248 H 0.92582 0.28028 0.98071 0.0
H3249 H 0.96026 0.27243 0.97072 0.0
H3250 H 0.90961 0.25815 0.96506 0.0
H3251 H 0.94407 0.25034 0.95503 0.0
H3252 H 0.90806 0.20535 0.9426 0.0
H3253 H 0.92396 0.22669 0.96007 0.0
H3254 H 0.90534 0.24888 0.93345 0.0
H3255 H 0.88948 0.22758 0.91607 0.0
C3256 C 0.92992 0.27383 0.97516 0.0
C3257 C 0.94432 0.27813 0.97693 0.0
C3258 C 0.92065 0.26117 0.96617 0.0
C3259 C 0.92557 0.25252 0.95869 0.0
C3260 C 0.93991 0.25666 0.96083 0.0
C3261 C 0.94918 0.26932 0.96985 0.0
C3262 C 0.90745 0.21482 0.94039 0.0
C3263 C 0.89749 0.21477 0.92799 0.0
C3264 C 0.91654 0.22704 0.95041 0.0
C3265 C 0.91586 0.23946 0.94823 0.0
C3266 C 0.90595 0.23941 0.93574 0.0
C3267 C 0.89687 0.22721 0.92575 0.0
H3268 H 0.7295 0.68429 0.97758 0.0
H3269 H 0.71176 0.64153 0.95697 0.0
H3270 H 0.75211 0.69042 0.96361 0.0
H3271 H 0.73411 0.64794 0.94188 0.0
H3272 H 0.77954 0.65962 0.93176 0.0
H3273 H 0.75762 0.65359 0.94798 0.0
H3274 H 0.76344 0.69468 0.9343 0.0
H3275 H 0.7856 0.7008 0.91865 0.0
C3276 C 0.73041 0.67616 0.97012 0.0
C3277 C 0.71877 0.66237 0.9685 0.0
C3278 C 0.74335 0.67975 0.96184 0.0
C3279 C 0.74497 0.6697 0.95155 0.0
C3280 C 0.73333 0.65592 0.94991 0.0
C3281 C 0.72042 0.65228 0.95835 0.0
C3282 C 0.77611 0.66735 0.93229 0.0
C3283 C 0.78423 0.68066 0.92395 0.0
C3284 C 0.76352 0.66388 0.94149 0.0
C3285 C 0.75867 0.6736 0.94237 0.0
C3286 C 0.76692 0.687 0.93417 0.0
C3287 C 0.77961 0.69051 0.92515 0.0
H3288 H 0.93104 0.64386 0.94883 0.0
H3289 H 0.94756 0.68143 0.983 0.0
H3290 H 0.91508 0.65021 0.93372 0.0
H3291 H 0.93115 0.68746 0.96845 0.0
H3292 H 0.91238 0.70208 0.92188 0.0
H3293 H 0.92781 0.69571 0.93858 0.0
H3294 H 0.8943 0.65204 0.9395 0.0
H3295 H 0.87897 0.6584 0.92268 0.0
C3296 C 0.93122 0.65345 0.95318 0.0
C3297 C 0.94062 0.66216 0.96707 0.0
C3298 C 0.92196 0.65701 0.94467 0.0
C3299 C 0.92184 0.66936 0.94986 0.0
C3300 C 0.93108 0.67796 0.96397 0.0
C3301 C 0.94036 0.6744 0.97248 0.0
C3302 C 0.90829 0.69115 0.92581 0.0
C3303 C 0.8945 0.68073 0.92086 0.0
C3304 C 0.91711 0.6875 0.93541 0.0
C3305 C 0.91231 0.67335 0.94032 0.0
C3306 C 0.89842 0.66298 0.93563 0.0
C3307 C 0.88963 0.66663 0.926 0.0
H3308 H 0.31479 0.27763 0.96263 0.0
H3309 H 0.3559 0.28369 0.97661 0.0
H3310 H 0.3086 0.25524 0.94762 0.0
H3311 H 0.3497 0.26129 0.96159 0.0
H3312 H 0.33993 0.22964 0.91426 0.0
H3313 H 0.34561 0.25153 0.93025 0.0
H3314 H 0.30367 0.23129 0.95413 0.0
H3315 H 0.29796 0.20935 0.93802 0.0
C3316 C 0.32244 0.27409 0.96273 0.0
C3317 C 0.33586 0.28247 0.97078 0.0
C3318 C 0.31889 0.26126 0.9541 0.0
C3319 C 0.32868 0.25651 0.95333 0.0
C3320 C 0.34201 0.26477 0.96165 0.0
C3321 C 0.34556 0.2776 0.97027 0.0
C3322 C 0.33196 0.22983 0.92304 0.0
C3323 C 0.31852 0.21775 0.92494 0.0
C3324 C 0.33522 0.24237 0.93223 0.0
C3325 C 0.32512 0.24314 0.94355 0.0
C3326 C 0.31163 0.23109 0.94534 0.0
C3327 C 0.30836 0.21853 0.93612 0.0
H3328 H 0.71517 0.07415 0.96744 0.0
H3329 H 0.73004 0.04487 0.97706 0.0
H3330 H 0.73743 0.09036 0.95212 0.0
H3331 H 0.75208 0.0607 0.96104 0.0
H3332 H 0.7951 0.09752 0.94485 0.0
H3333 H 0.77355 0.08221 0.96227 0.0
H3334 H 0.74967 0.09289 0.92427 0.0
H3335 H 0.77135 0.10861 0.90749 0.0
C3336 C 0.72323 0.0712 0.96621 0.0
C3337 C 0.72093 0.0583 0.97343 0.0
C3338 C 0.73595 0.08042 0.95731 0.0
C3339 C 0.74657 0.07683 0.95515 0.0
C3340 C 0.74429 0.06396 0.96266 0.0
C3341 C 0.73164 0.05485 0.97181 0.0
C3342 C 0.7852 0.09652 0.94026 0.0
C3343 C 0.78485 0.10424 0.92489 0.0
C3344 C 0.77284 0.08772 0.95018 0.0
C3345 C 0.75981 0.0863 0.94476 0.0
C3346 C 0.75952 0.09394 0.92916 0.0
C3347 C 0.77191 0.10288 0.91944 0.0
H3348 H 0.68837 0.95906 0.05077 0.0
H3349 H 0.64522 0.92518 0.04454 0.0
H3350 H 0.69444 0.94283 0.06582 0.0
H3351 H 0.6513 0.90886 0.05925 0.0
H3352 H 0.66283 0.88811 0.10557 0.0
H3353 H 0.65725 0.90427 0.08945 0.0
H3354 H 0.69745 0.92276 0.06086 0.0
H3355 H 0.70311 0.90671 0.07733 0.0
C3356 C 0.68024 0.94808 0.05236 0.0
C3357 C 0.66631 0.94339 0.04655 0.0
C3358 C 0.68371 0.93877 0.06097 0.0
C3359 C 0.67335 0.92455 0.06385 0.0
C3360 C 0.65949 0.91981 0.05761 0.0
C3361 C 0.656 0.92914 0.04912 0.0
C3362 C 0.67043 0.89558 0.09575 0.0
C3363 C 0.68339 0.89613 0.09266 0.0
C3364 C 0.66722 0.90481 0.08646 0.0
C3365 C 0.67686 0.91477 0.07374 0.0
C3366 C 0.68986 0.91535 0.07072 0.0
C3367 C 0.69311 0.90615 0.08013 0.0
H3368 H 0.03973 0.72884 0.04485 0.0
H3369 H 0.074 0.72028 0.03847 0.0
H3370 H 0.05559 0.75097 0.06074 0.0
H3371 H 0.08996 0.74251 0.05407 0.0
H3372 H 0.10941 0.77345 0.10237 0.0
H3373 H 0.09372 0.7521 0.08498 0.0
H3374 H 0.07572 0.77437 0.05698 0.0
H3375 H 0.09133 0.79571 0.07468 0.0
C3376 C 0.05072 0.73183 0.04655 0.0
C3377 C 0.05562 0.72281 0.0405 0.0
C3378 C 0.05982 0.74451 0.05566 0.0
C3379 C 0.07403 0.74848 0.05882 0.0
C3380 C 0.079 0.73964 0.05222 0.0
C3381 C 0.06989 0.72693 0.04323 0.0
C3382 C 0.10215 0.7738 0.09241 0.0
C3383 C 0.10163 0.78625 0.08983 0.0
C3384 C 0.09319 0.76158 0.08239 0.0
C3385 C 0.08352 0.76154 0.06946 0.0
C3386 C 0.08293 0.77399 0.06697 0.0
C3387 C 0.09187 0.78621 0.07709 0.0
H3388 H 0.28956 0.35737 0.06542 0.0
H3389 H 0.26767 0.31866 0.03365 0.0
H3390 H 0.26752 0.35159 0.08121 0.0
H3391 H 0.24565 0.31273 0.04973 0.0
H3392 H 0.20663 0.31539 0.06935 0.0
H3393 H 0.22829 0.32123 0.05247 0.0
H3394 H 0.25162 0.33351 0.10415 0.0
H3395 H 0.22998 0.32745 0.12108 0.0
C3396 C 0.28001 0.34769 0.06171 0.0
C3397 C 0.28034 0.33847 0.0483 0.0
C3398 C 0.26743 0.3443 0.07088 0.0
C3399 C 0.25489 0.33168 0.06677 0.0
C3400 C 0.25514 0.32258 0.05311 0.0
C3401 C 0.26775 0.32591 0.04402 0.0
C3402 C 0.21634 0.31917 0.07714 0.0
C3403 C 0.21656 0.32099 0.09657 0.0
C3404 C 0.22875 0.32255 0.06746 0.0
C3405 C 0.24165 0.32791 0.07698 0.0
C3406 C 0.24187 0.32964 0.0964 0.0
C3407 C 0.22947 0.32618 0.10609 0.0
H3408 H 0.7361 0.69233 0.39703 0.0
H3409 H 0.71268 0.6499 0.37476 0.0
H3410 H 0.75274 0.68664 0.41141 0.0
H3411 H 0.72988 0.64455 0.38801 0.0
H3412 H 0.75411 0.63462 0.4314 0.0
H3413 H 0.73732 0.64011 0.41679 0.0
H3414 H 0.77141 0.68233 0.40466 0.0
H3415 H 0.78805 0.6769 0.41986 0.0
C3416 C 0.73449 0.68179 0.39515 0.0
C3417 C 0.72299 0.67158 0.38473 0.0
C3418 C 0.74419 0.67859 0.40318 0.0
C3419 C 0.74271 0.66513 0.40086 0.0
C3420 C 0.73127 0.65496 0.39032 0.0
C3421 C 0.72151 0.65812 0.38245 0.0
C3422 C 0.75799 0.64502 0.42546 0.0
C3423 C 0.77235 0.65534 0.42677 0.0
C3424 C 0.74839 0.64818 0.41704 0.0
C3425 C 0.75298 0.66169 0.40954 0.0
C3426 C 0.76743 0.67192 0.4106 0.0
C3427 C 0.77699 0.6688 0.41922 0.0
H3428 H 0.30982 0.05124 0.37192 0.0
H3429 H 0.34998 0.05636 0.38911 0.0
H3430 H 0.31614 0.07397 0.38603 0.0
H3431 H 0.35629 0.07907 0.40324 0.0
H3432 H 0.36792 0.12529 0.41139 0.0
H3433 H 0.36208 0.10316 0.39572 0.0
H3434 H 0.31945 0.08403 0.41715 0.0
H3435 H 0.32527 0.10609 0.43274 0.0
C3436 C 0.31998 0.0572 0.37877 0.0
C3437 C 0.32938 0.05198 0.37943 0.0
C3438 C 0.3236 0.07021 0.38687 0.0
C3439 C 0.3367 0.0783 0.39583 0.0
C3440 C 0.3462 0.07319 0.39623 0.0
C3441 C 0.34258 0.06017 0.38812 0.0
C3442 C 0.35733 0.11633 0.41283 0.0
C3443 C 0.34705 0.11746 0.42325 0.0
C3444 C 0.35398 0.10366 0.40385 0.0
C3445 C 0.34028 0.09185 0.40512 0.0
C3446 C 0.33003 0.093 0.41559 0.0
C3447 C 0.33337 0.10565 0.42454 0.0
H3448 H 0.95018 0.26073 0.37782 0.0
H3449 H 0.94264 0.29496 0.39114 0.0
H3450 H 0.92746 0.24392 0.39166 0.0
H3451 H 0.92002 0.27817 0.40511 0.0
H3452 H 0.88867 0.24563 0.44694 0.0
H3453 H 0.91107 0.26249 0.43247 0.0
H3454 H 0.90189 0.23399 0.38603 0.0
H3455 H 0.87942 0.21716 0.4004 0.0
C3456 C 0.94363 0.26465 0.38356 0.0
C3457 C 0.94824 0.27919 0.38341 0.0
C3458 C 0.93063 0.25503 0.39149 0.0
C3459 C 0.92197 0.25973 0.3995 0.0
C3460 C 0.92656 0.27425 0.39931 0.0
C3461 C 0.93953 0.28387 0.39133 0.0
C3462 C 0.89134 0.24303 0.43353 0.0
C3463 C 0.88225 0.23005 0.42482 0.0
C3464 C 0.90418 0.25268 0.42526 0.0
C3465 C 0.90824 0.24955 0.40813 0.0
C3466 C 0.89914 0.23661 0.39937 0.0
C3467 C 0.88627 0.22697 0.40761 0.0
H3468 H 0.99325 0.38074 0.28408 0.0
H3469 H 0.03118 0.41221 0.31188 0.0
H3470 H 0.9907 0.39939 0.26948 0.0
H3471 H 0.02876 0.43089 0.2968 0.0
H3472 H 0.02665 0.45809 0.24809 0.0
H3473 H 0.02969 0.44014 0.26417 0.0
H3474 H 0.98557 0.41837 0.27966 0.0
H3475 H 0.98256 0.43643 0.264 0.0
C3476 C 0.00098 0.39162 0.28723 0.0
C3477 C 0.01237 0.39495 0.29929 0.0
C3478 C -0.00047 0.40231 0.2788 0.0
C3479 C 0.00949 0.41658 0.28208 0.0
C3480 C 0.02098 0.41996 0.29392 0.0
C3481 C 0.02238 0.40926 0.3025 0.0
C3482 C 0.01764 0.4496 0.25516 0.0
C3483 C 0.00434 0.44867 0.25467 0.0
C3484 C 0.01939 0.43931 0.26433 0.0
C3485 C 0.00785 0.42784 0.27307 0.0
C3486 C 0.9946 0.42699 0.27279 0.0
C3487 C 0.99288 0.43732 0.26376 0.0
H3488 H 0.6287 0.61574 0.28376 0.0
H3489 H 0.595 0.61185 0.31938 0.0
H3490 H 0.61275 0.59288 0.27004 0.0
H3491 H 0.57874 0.58948 0.30457 0.0
H3492 H 0.55585 0.54339 0.2872 0.0
H3493 H 0.57257 0.56561 0.30228 0.0
H3494 H 0.59367 0.58166 0.24946 0.0
H3495 H 0.57729 0.55921 0.23472 0.0
C3496 C 0.61789 0.61003 0.28871 0.0
C3497 C 0.6132 0.61568 0.30279 0.0
C3498 C 0.60865 0.59697 0.28059 0.0
C3499 C 0.5944 0.58929 0.2861 0.0
C3500 C 0.58968 0.59497 0.30012 0.0
C3501 C 0.59897 0.60795 0.30843 0.0
C3502 C 0.56413 0.55168 0.27891 0.0
C3503 C 0.56534 0.5496 0.25984 0.0
C3504 C 0.57366 0.56445 0.28749 0.0
C3505 C 0.58448 0.57551 0.27711 0.0
C3506 C 0.58567 0.57334 0.25801 0.0
C3507 C 0.57626 0.56049 0.24951 0.0
H3508 H 0.38627 0.00929 0.29381 0.0
H3509 H 0.375 0.96648 0.30774 0.0
H3510 H 0.40782 0.01282 0.27889 0.0
H3511 H 0.39664 0.97003 0.29289 0.0
H3512 H 0.42836 0.97686 0.24634 0.0
H3513 H 0.40702 0.97322 0.26209 0.0
H3514 H 0.43048 0.01502 0.28616 0.0
H3515 H 0.45181 0.01869 0.27031 0.0
C3516 C 0.38848 0.00068 0.29387 0.0
C3517 C 0.37893 0.98761 0.30198 0.0
C3518 C 0.40084 0.00271 0.28533 0.0
C3519 C 0.40397 0.99171 0.28471 0.0
C3520 C 0.39444 0.97865 0.29288 0.0
C3521 C 0.38206 0.97662 0.3014 0.0
C3522 C 0.42899 0.98522 0.25514 0.0
C3523 C 0.44177 0.99807 0.25707 0.0
C3524 C 0.41676 0.98313 0.26419 0.0
C3525 C 0.41704 0.99383 0.27538 0.0
C3526 C 0.42985 0.00665 0.2774 0.0
C3527 C 0.44207 0.00875 0.26833 0.0
H3528 H 0.59675 0.98633 0.3247 0.0
H3529 H 0.61325 0.98533 0.27023 0.0
H3530 H 0.5789 0.99032 0.31011 0.0
H3531 H 0.595 0.98866 0.25581 0.0
H3532 H 0.54983 0.97836 0.23872 0.0
H3533 H 0.56754 0.97434 0.2539 0.0
H3534 H 0.57914 0.01026 0.28979 0.0
H3535 H 0.56149 0.01435 0.27449 0.0
C3536 C 0.59665 0.98701 0.30966 0.0
C3537 C 0.60648 0.98547 0.29868 0.0
C3538 C 0.58637 0.98923 0.30133 0.0
C3539 C 0.58557 0.98973 0.28186 0.0
C3540 C 0.59529 0.98812 0.27086 0.0
C3541 C 0.60569 0.98613 0.27916 0.0
C3542 C 0.55613 0.98533 0.24991 0.0
C3543 C 0.55434 0.99666 0.25546 0.0
C3544 C 0.56629 0.98309 0.2585 0.0
C3545 C 0.57467 0.992 0.27298 0.0
C3546 C 0.57274 0.0032 0.27872 0.0
C3547 C 0.56274 0.00559 0.26992 0.0
H3548 H 0.99043 0.6107 0.30864 0.0
H3549 H 0.03513 0.63056 0.29714 0.0
H3550 H 0.98665 0.58903 0.29322 0.0
H3551 H 0.03139 0.60883 0.28201 0.0
H3552 H 0.01849 0.56123 0.27591 0.0
H3553 H 0.02202 0.58225 0.29248 0.0
H3554 H 0.99037 0.58356 0.25815 0.0
H3555 H 0.98728 0.56301 0.24079 0.0
C3556 C 0.99944 0.61034 0.303 0.0
C3557 C 0.01306 0.62224 0.30403 0.0
C3558 C 0.99727 0.59802 0.29411 0.0
C3559 C 0.00874 0.59732 0.28646 0.0
C3560 C 0.0224 0.60911 0.2879 0.0
C3561 C 0.02453 0.62152 0.29645 0.0
C3562 C 0.0124 0.56607 0.27164 0.0
C3563 C 0.00263 0.56039 0.25688 0.0
C3564 C 0.01437 0.57806 0.28125 0.0
C3565 C 0.00644 0.58445 0.27658 0.0
C3566 C 0.9965 0.57869 0.26213 0.0
C3567 C 0.9947 0.56687 0.25227 0.0
H3568 H 0.3872 0.37262 0.28622 0.0
H3569 H 0.38896 0.40669 0.31903 0.0
H3570 H 0.40976 0.38917 0.27186 0.0
H3571 H 0.41131 0.42326 0.30418 0.0
H3572 H 0.44072 0.44939 0.25554 0.0
H3573 H 0.41894 0.43278 0.2714 0.0
H3574 H 0.43559 0.40495 0.28114 0.0
H3575 H 0.45765 0.42177 0.26577 0.0
C3576 C 0.39244 0.38359 0.29053 0.0
C3577 C 0.38622 0.3883 0.30379 0.0
C3578 C 0.40535 0.39306 0.28225 0.0
C3579 C 0.41224 0.40748 0.28688 0.0
C3580 C 0.40611 0.41221 0.30019 0.0
C3581 C 0.39328 0.40272 0.30863 0.0
C3582 C 0.43988 0.43985 0.26131 0.0
C3583 C 0.45101 0.43698 0.25945 0.0
C3584 C 0.42737 0.43032 0.27034 0.0
C3585 C 0.42562 0.41762 0.27754 0.0
C3586 C 0.43664 0.41463 0.27557 0.0
C3587 C 0.44924 0.42425 0.2667 0.0
H3588 H 0.34779 0.29522 0.40249 0.0
H3589 H 0.3144 0.26106 0.37096 0.0
H3590 H 0.35381 0.27861 0.4164 0.0
H3591 H 0.32019 0.24444 0.38544 0.0
H3592 H 0.32474 0.21857 0.43341 0.0
H3593 H 0.31921 0.23514 0.41834 0.0
H3594 H 0.36341 0.26265 0.4058 0.0
H3595 H 0.36899 0.24587 0.42031 0.0
C3596 C 0.3418 0.28421 0.39838 0.0
C3597 C 0.3306 0.27951 0.38555 0.0
C3598 C 0.34524 0.27471 0.40642 0.0
C3599 C 0.33745 0.26026 0.402 0.0
C3600 C 0.32626 0.25551 0.38924 0.0
C3601 C 0.32292 0.26504 0.38102 0.0
C3602 C 0.33329 0.22803 0.4272 0.0
C3603 C 0.34732 0.23082 0.42802 0.0
C3604 C 0.3301 0.23753 0.41863 0.0
C3605 C 0.34087 0.25014 0.4109 0.0
C3606 C 0.35491 0.25305 0.41183 0.0
C3607 C 0.3581 0.24346 0.42021 0.0
H3608 H 0.71475 0.04359 0.40969 0.0
H3609 H 0.72709 0.0614 0.35451 0.0
H3610 H 0.73086 0.06652 0.42326 0.0
H3611 H 0.74263 0.08457 0.36814 0.0
H3612 H 0.7811 0.1195 0.39904 0.0
H3613 H 0.76452 0.09701 0.38467 0.0
H3614 H 0.73406 0.08954 0.42801 0.0
H3615 H 0.75095 0.11165 0.44297 0.0
C3616 C 0.7209 0.0524 0.40043 0.0
C3617 C 0.71969 0.0506 0.38099 0.0
C3618 C 0.72999 0.06562 0.40823 0.0
C3619 C 0.73803 0.07743 0.39681 0.0
C3620 C 0.73672 0.07568 0.37736 0.0
C3621 C 0.72767 0.06242 0.36954 0.0
C3622 C 0.7709 0.11302 0.40559 0.0
C3623 C 0.76742 0.11735 0.42225 0.0
C3624 C 0.76131 0.10019 0.3972 0.0
C3625 C 0.74796 0.09142 0.40521 0.0
C3626 C 0.74433 0.09593 0.42161 0.0
C3627 C 0.75396 0.10872 0.43006 0.0
H3628 H 0.95782 0.68191 0.41189 0.0
H3629 H 0.93629 0.65946 0.36179 0.0
H3630 H 0.93526 0.67502 0.42642 0.0
H3631 H 0.91359 0.65169 0.37689 0.0
H3632 H 0.87616 0.65389 0.40259 0.0
H3633 H 0.8984 0.65997 0.38712 0.0
H3634 H 0.91528 0.65556 0.43951 0.0
H3635 H 0.89323 0.65003 0.45496 0.0
C3636 C 0.94828 0.67551 0.40393 0.0
C3637 C 0.94894 0.67135 0.38557 0.0
C3638 C 0.93528 0.67133 0.41242 0.0
C3639 C 0.92254 0.66271 0.40291 0.0
C3640 C 0.92317 0.65845 0.38459 0.0
C3641 C 0.93621 0.66276 0.376 0.0
C3642 C 0.88462 0.65412 0.4107 0.0
C3643 C 0.88305 0.6516 0.42996 0.0
C3644 C 0.89735 0.65756 0.40186 0.0
C3645 C 0.90872 0.65837 0.41207 0.0
C3646 C 0.90691 0.65538 0.43127 0.0
C3647 C 0.89426 0.65214 0.44012 0.0
H3648 H 0.38069 0.00233 0.74225 0.0
H3649 H 0.41135 0.02863 0.70086 0.0
H3650 H 0.3985 0.9987 0.75745 0.0
H3651 H 0.42922 0.02498 0.71611 0.0
H3652 H 0.45265 0.00263 0.73737 0.0
H3653 H 0.43491 0.00632 0.72185 0.0
H3654 H 0.42015 0.01182 0.77538 0.0
H3655 H 0.4375 0.00763 0.79087 0.0
C3656 C 0.39128 0.00746 0.73651 0.0
C3657 C 0.39462 0.01582 0.72039 0.0
C3658 C 0.40149 0.00537 0.74522 0.0
C3659 C 0.41528 0.01158 0.73801 0.0
C3660 C 0.41863 0.0199 0.72186 0.0
C3661 C 0.4084 0.022 0.71314 0.0
C3662 C 0.44553 0.00451 0.74581 0.0
C3663 C 0.44648 0.00484 0.76535 0.0
C3664 C 0.43548 0.00678 0.73692 0.0
C3665 C 0.42612 0.00937 0.74738 0.0
C3666 C 0.4271 0.00971 0.76692 0.0
C3667 C 0.43715 0.00747 0.77579 0.0
H3668 H 0.96699 0.37259 0.71431 0.0
H3669 H 0.01178 0.38791 0.71827 0.0
H3670 H 0.97045 0.39423 0.72906 0.0
H3671 H 0.01525 0.40939 0.73341 0.0
H3672 H 0.01865 0.45193 0.7448 0.0
H3673 H 0.01502 0.43081 0.72836 0.0
H3674 H 0.97599 0.40574 0.75859 0.0
H3675 H 0.97949 0.42693 0.77462 0.0
C3676 C 0.97757 0.38057 0.71844 0.0
C3677 C 0.98911 0.37858 0.71514 0.0
C3678 C 0.97956 0.39295 0.72695 0.0
C3679 C 0.99314 0.40356 0.7325 0.0
C3680 C 0.00469 0.40157 0.72905 0.0
C3681 C 0.0027 0.38924 0.72041 0.0
C3682 C 0.00932 0.44188 0.74793 0.0
C3683 C 0.99934 0.44107 0.76096 0.0
C3684 C 0.00725 0.42977 0.73856 0.0
C3685 C 0.99521 0.41654 0.74214 0.0
C3686 C 0.98524 0.41577 0.75521 0.0
C3687 C 0.98726 0.4279 0.76445 0.0
H3688 H 0.62452 0.61061 0.7429 0.0
H3689 H 0.60223 0.60452 0.69094 0.0
H3690 H 0.60243 0.59386 0.75804 0.0
H3691 H 0.58008 0.58793 0.70625 0.0
H3692 H 0.54184 0.57172 0.74621 0.0
H3693 H 0.56397 0.58832 0.73071 0.0
H3694 H 0.58479 0.56819 0.75705 0.0
H3695 H 0.56278 0.55181 0.77281 0.0
C3696 C 0.61495 0.60559 0.73464 0.0
C3697 C 0.61517 0.60888 0.71567 0.0
C3698 C 0.60228 0.59603 0.74335 0.0
C3699 C 0.58953 0.5896 0.73333 0.0
C3700 C 0.58972 0.59287 0.71438 0.0
C3701 C 0.60241 0.60237 0.70563 0.0
C3702 C 0.55118 0.57092 0.74875 0.0
C3703 C 0.55059 0.56047 0.76069 0.0
C3704 C 0.56379 0.58032 0.73976 0.0
C3705 C 0.57609 0.57953 0.74266 0.0
C3706 C 0.5755 0.56912 0.75466 0.0
C3707 C 0.56288 0.55966 0.76354 0.0
H3708 H 0.69 0.74106 0.64428 0.0
H3709 H 0.64979 0.70681 0.62536 0.0
H3710 H 0.68473 0.75806 0.62978 0.0
H3711 H 0.64451 0.72379 0.61098 0.0
H3712 H 0.63409 0.75917 0.6039 0.0
H3713 H 0.6393 0.74248 0.6194 0.0
H3714 H 0.68206 0.76524 0.59832 0.0
H3715 H 0.67685 0.78189 0.58275 0.0
C3716 C 0.68007 0.73716 0.63696 0.0
C3717 C 0.67031 0.72259 0.63599 0.0
C3718 C 0.67705 0.74689 0.62866 0.0
C3719 C 0.6642 0.74226 0.61924 0.0
C3720 C 0.65441 0.7277 0.61839 0.0
C3721 C 0.65743 0.71798 0.62665 0.0
C3722 C 0.64457 0.76055 0.60246 0.0
C3723 C 0.65505 0.77185 0.59208 0.0
C3724 C 0.64755 0.751 0.61135 0.0
C3725 C 0.66109 0.75255 0.61009 0.0
C3726 C 0.67159 0.76389 0.59979 0.0
C3727 C 0.6686 0.77342 0.59088 0.0
H3728 H 0.26155 0.94685 0.65509 0.0
H3729 H 0.2959 0.94511 0.6277 0.0
H3730 H 0.24475 0.92412 0.64127 0.0
H3731 H 0.27909 0.92228 0.6142 0.0
H3732 H 0.24533 0.87521 0.60802 0.0
H3733 H 0.26213 0.8973 0.62337 0.0
H3734 H 0.23598 0.91516 0.60927 0.0
H3735 H 0.21934 0.89327 0.59364 0.0
C3736 C 0.26553 0.94165 0.64611 0.0
C3737 C 0.28009 0.94786 0.64247 0.0
C3738 C 0.2559 0.92862 0.63823 0.0
C3739 C 0.26061 0.92145 0.62663 0.0
C3740 C 0.27517 0.92748 0.62328 0.0
C3741 C 0.28479 0.94056 0.63106 0.0
C3742 C 0.24322 0.88388 0.60806 0.0
C3743 C 0.23095 0.88243 0.59962 0.0
C3744 C 0.25283 0.89651 0.61689 0.0
C3745 C 0.25033 0.90793 0.61758 0.0
C3746 C 0.23806 0.90646 0.60924 0.0
C3747 C 0.22851 0.89389 0.60031 0.0
H3748 H 0.04248 0.31071 0.61398 0.0
H3749 H 0.0648 0.3438 0.65462 0.0
H3750 H 0.06478 0.31687 0.5989 0.0
H3751 H 0.0871 0.3504 0.63898 0.0
H3752 H 0.12559 0.34814 0.61699 0.0
H3753 H 0.10357 0.34205 0.63314 0.0
H3754 H 0.08254 0.33564 0.58011 0.0
H3755 H 0.10447 0.3416 0.56404 0.0
C3756 C 0.05215 0.31926 0.61976 0.0
C3757 C 0.05184 0.32674 0.63554 0.0
C3758 C 0.06493 0.32292 0.61095 0.0
C3759 C 0.07773 0.3342 0.61764 0.0
C3760 C 0.07745 0.34159 0.63354 0.0
C3761 C 0.06465 0.33791 0.64238 0.0
C3762 C 0.11628 0.34555 0.60881 0.0
C3763 C 0.11674 0.34526 0.58925 0.0
C3764 C 0.10367 0.34206 0.61805 0.0
C3765 C 0.09126 0.33826 0.60792 0.0
C3766 C 0.09181 0.33823 0.58835 0.0
C3767 C 0.10439 0.34166 0.57914 0.0
H3768 H 0.27821 0.32158 0.60535 0.0
H3769 H 0.27392 0.33856 0.65784 0.0
H3770 H 0.2622 0.32795 0.59092 0.0
H3771 H 0.25884 0.34607 0.64294 0.0
H3772 H 0.22011 0.34401 0.61517 0.0
H3773 H 0.2362 0.33792 0.63068 0.0
H3774 H 0.26058 0.34703 0.57986 0.0
H3775 H 0.24402 0.35235 0.56428 0.0
C3776 C 0.27386 0.32666 0.61387 0.0
C3777 C 0.27734 0.32943 0.63286 0.0
C3778 C 0.26485 0.33059 0.60546 0.0
C3779 C 0.25925 0.33765 0.61567 0.0
C3780 C 0.26279 0.34051 0.63464 0.0
C3781 C 0.27165 0.33638 0.64315 0.0
C3782 C 0.22898 0.34476 0.60743 0.0
C3783 C 0.23082 0.34854 0.58855 0.0
C3784 C 0.23825 0.34134 0.61631 0.0
C3785 C 0.24969 0.34186 0.60653 0.0
C3786 C 0.25172 0.34613 0.58775 0.0
C3787 C 0.24231 0.34929 0.57882 0.0
H3788 H 0.66621 0.95488 0.60864 0.0
H3789 H 0.67122 0.93985 0.66215 0.0
H3790 H 0.65999 0.93227 0.59476 0.0
H3791 H 0.66381 0.9168 0.64856 0.0
H3792 H 0.6662 0.88288 0.61451 0.0
H3793 H 0.67182 0.90514 0.62905 0.0
H3794 H 0.64243 0.90858 0.59224 0.0
H3795 H 0.63771 0.88692 0.57666 0.0
C3796 C 0.66597 0.94676 0.6175 0.0
C3797 C 0.66939 0.94932 0.63653 0.0
C3798 C 0.66212 0.93364 0.60957 0.0
C3799 C 0.66135 0.92262 0.62049 0.0
C3800 C 0.66449 0.92508 0.63961 0.0
C3801 C 0.66854 0.93828 0.6475 0.0
C3802 C 0.66106 0.88846 0.60932 0.0
C3803 C 0.65159 0.8831 0.59423 0.0
C3804 C 0.66411 0.90116 0.61791 0.0
C3805 C 0.65762 0.90876 0.61185 0.0
C3806 C 0.64785 0.90319 0.59711 0.0
C3807 C 0.64495 0.89059 0.58834 0.0
H3808 H 0.04487 0.7142 0.60733 0.0
H3809 H 0.06328 0.72381 0.66242 0.0
H3810 H 0.06773 0.73082 0.59398 0.0
H3811 H 0.08634 0.73989 0.64894 0.0
H3812 H 0.12102 0.77976 0.6202 0.0
H3813 H 0.09858 0.76258 0.63414 0.0
H3814 H 0.09074 0.73416 0.58793 0.0
H3815 H 0.11281 0.75166 0.5735 0.0
C3816 C 0.0538 0.71985 0.61661 0.0
C3817 C 0.0522 0.71773 0.63598 0.0
C3818 C 0.06697 0.72924 0.60891 0.0
C3819 C 0.0789 0.73669 0.62037 0.0
C3820 C 0.07734 0.73445 0.63972 0.0
C3821 C 0.06414 0.7251 0.64744 0.0
C3822 C 0.11446 0.76988 0.61294 0.0
C3823 C 0.11869 0.76714 0.59566 0.0
C3824 C 0.10167 0.75995 0.62106 0.0
C3825 C 0.09282 0.74698 0.61214 0.0
C3826 C 0.0972 0.74411 0.59506 0.0
C3827 C 0.10996 0.75408 0.5869 0.0
H3828 H 0.96676 0.58803 0.71328 0.0
H3829 H 0.01049 0.6196 0.72259 0.0
H3830 H 0.9706 0.57041 0.72886 0.0
H3831 H 0.0144 0.6019 0.7378 0.0
H3832 H 0.01042 0.57051 0.78352 0.0
H3833 H 0.00697 0.58806 0.76716 0.0
H3834 H 0.98368 0.5575 0.72409 0.0
H3835 H 0.98729 0.53997 0.74028 0.0
C3836 C 0.97719 0.59119 0.71863 0.0
C3837 C 0.98832 0.60519 0.71674 0.0
C3838 C 0.97942 0.58108 0.72739 0.0
C3839 C 0.9928 0.58478 0.73457 0.0
C3840 C 0.00395 0.59877 0.73256 0.0
C3841 C 0.00175 0.60886 0.72368 0.0
C3842 C 0.00471 0.56757 0.77045 0.0
C3843 C 0.99914 0.55383 0.76321 0.0
C3844 C 0.00272 0.57762 0.76109 0.0
C3845 C 0.99506 0.57415 0.74434 0.0
C3846 C 0.98948 0.56042 0.7371 0.0
C3847 C 0.99153 0.55038 0.7464 0.0
H3848 H 0.39614 0.39524 0.69217 0.0
H3849 H 0.38111 0.37595 0.74617 0.0
H3850 H 0.41238 0.41762 0.70737 0.0
H3851 H 0.39773 0.39815 0.76118 0.0
H3852 H 0.44179 0.4352 0.77848 0.0
H3853 H 0.42478 0.41315 0.76316 0.0
H3854 H 0.41093 0.43612 0.72854 0.0
H3855 H 0.42796 0.45823 0.74396 0.0
C3856 C 0.3962 0.39575 0.70724 0.0
C3857 C 0.38733 0.38371 0.71791 0.0
C3858 C 0.40554 0.40857 0.71591 0.0
C3859 C 0.40633 0.40956 0.73542 0.0
C3860 C 0.39746 0.3976 0.74611 0.0
C3861 C 0.388 0.38486 0.73746 0.0
C3862 C 0.43512 0.43552 0.76757 0.0
C3863 C 0.43617 0.44838 0.76236 0.0
C3864 C 0.42535 0.42292 0.75891 0.0
C3865 C 0.41657 0.42296 0.74468 0.0
C3866 C 0.41765 0.43583 0.7394 0.0
C3867 C 0.42729 0.44843 0.74828 0.0
H3868 H 0.63177 0.02388 0.747 0.0
H3869 H 0.60786 0.00242 0.69771 0.0
H3870 H 0.61034 0.02039 0.76189 0.0
H3871 H 0.58621 0.99794 0.71321 0.0
H3872 H 0.552 0.00493 0.73912 0.0
H3873 H 0.5735 0.00887 0.72342 0.0
H3874 H 0.5894 0.00296 0.77575 0.0
H3875 H 0.56816 0.99962 0.79142 0.0
C3876 C 0.62195 0.01843 0.73928 0.0
C3877 C 0.62162 0.01351 0.72106 0.0
C3878 C 0.60957 0.01619 0.74799 0.0
C3879 C 0.59646 0.00879 0.73884 0.0
C3880 C 0.59611 0.00383 0.72063 0.0
C3881 C 0.60854 0.00622 0.71182 0.0
C3882 C 0.56011 0.00445 0.74718 0.0
C3883 C 0.55849 0.00205 0.76647 0.0
C3884 C 0.57241 0.00664 0.73821 0.0
C3885 C 0.58326 0.00628 0.74829 0.0
C3886 C 0.58145 0.00364 0.76757 0.0
C3887 C 0.56925 0.00165 0.77657 0.0
loop_
_geom_bond_atom_site_label_1
_geom_bond_atom_site_label_2
_geom_bond_distance
_geom_bond_site_symmetry_2
_ccdc_geom_bond_type
Li0 N17 1.984 1_554 S
Li0 O60 1.956 . S
Li0 O61 1.970 1_654 S
Li0 O62 1.961 . S
Li1 N25 1.990 . S
Li1 O60 1.970 1_455 S
Li1 O61 1.956 1_554 S
Li1 O63 1.961 . S
Li2 N47 1.990 . S
Li2 O60 1.961 . S
Li2 O62 1.956 . S
Li2 O63 1.970 1_655 S
Li3 N53 1.990 . S
Li3 O61 1.961 . S
Li3 O62 1.970 1_456 S
Li3 O63 1.956 1_556 S
C4 C6 1.320 1_655 S
C4 C7 1.356 . S
C4 O60 1.325 . S
N5 C8 1.314 . S
N5 C9 1.279 . S
C6 C4 1.320 1_455 S
C6 C8 1.353 1_455 S
C6 H64 0.958 . S
C7 C4 1.356 . S
C7 C9 1.358 . S
C7 H65 0.930 . S
C8 N5 1.314 . S
C8 C6 1.353 1_655 S
C8 H66 0.930 1_655 S
C9 N5 1.279 . S
C9 C7 1.358 . S
C9 H67 0.930 . S
C10 C13 1.348 . S
C10 C14 1.356 . S
C10 O61 1.325 . S
C11 N12 1.279 . S
C11 C14 1.358 . S
C11 H68 0.930 . S
N12 C11 1.279 . S
N12 C15 1.314 . S
C13 C10 1.348 . S
C13 C15 1.353 . S
C13 H69 0.929 1_455 S
C14 C10 1.356 . S
C14 C11 1.358 . S
C14 H70 0.930 . S
C15 N12 1.314 . S
C15 C13 1.353 . S
C15 H71 0.930 . S
C16 N17 1.339 . S
C16 C21 1.353 . S
C16 H22 0.930 . S
N17 Li0 1.984 1_556 S
N17 C16 1.339 . S
N17 C19 1.265 1_556 S
C18 C19 1.358 . S
C18 C20 1.356 1_554 S
C18 H72 0.930 . S
C19 N17 1.265 1_554 S
C19 C18 1.358 . S
C19 H23 0.930 . S
C20 C18 1.356 1_556 S
C20 C21 1.348 . S
C21 C16 1.353 . S
C21 C20 1.348 . S
C21 H73 0.929 . S
H22 C16 0.930 . S
H23 C19 0.930 . S
C24 N25 1.314 . S
C24 C26 1.353 . S
C24 H30 0.930 . S
N25 Li1 1.990 . S
N25 C24 1.314 . S
N25 C28 1.279 . S
C26 C24 1.353 . S
C26 C29 1.348 . S
C26 H74 0.929 . S
C27 C28 1.358 . S
C27 C29 1.356 . S
C27 H75 0.930 . S
C28 N25 1.279 . S
C28 C27 1.358 . S
C28 H31 0.961 . S
C29 C26 1.348 . S
C29 C27 1.356 . S
H30 C24 0.930 . S
H31 C28 0.961 . S
C32 C34 1.377 . S
C32 C35 1.337 1_556 S
C32 O62 1.315 1_556 S
N33 C36 1.314 . S
N33 C37 1.279 1_556 S
C34 C32 1.377 . S
C34 C36 1.353 . S
C34 H76 0.929 . S
C35 C32 1.337 1_554 S
C35 C37 1.358 . S
C35 H77 0.930 . S
C36 N33 1.314 . S
C36 C34 1.353 . S
C36 H78 0.930 . S
C37 N33 1.279 1_554 S
C37 C35 1.358 . S
C37 H79 0.930 . S
C38 C39 1.348 . S
C38 C40 1.356 . S
C38 O63 1.325 . S
C39 C38 1.348 . S
C39 C41 1.353 . S
C39 H80 0.929 . S
C40 C38 1.356 . S
C40 C42 1.358 . S
C40 H81 0.930 . S
C41 C39 1.353 . S
C41 N43 1.314 . S
C41 H82 0.930 . S
C42 C40 1.358 . S
C42 N43 1.279 . S
C42 H83 0.930 . S
N43 C41 1.314 . S
N43 C42 1.279 . S
C44 C46 1.353 . S
C44 N47 1.314 . S
C44 H50 0.886 1_655 S
C45 N47 1.279 . S
C45 C48 1.358 . S
C45 H51 0.930 . S
C46 C44 1.353 . S
C46 C49 1.348 . S
C46 H84 0.929 . S
N47 Li2 1.990 . S
N47 C44 1.314 . S
N47 C45 1.279 . S
C48 C45 1.358 . S
C48 C49 1.356 . S
C48 H85 0.930 . S
C49 C46 1.348 . S
C49 C48 1.356 . S
H50 C44 0.886 1_455 S
H51 C45 0.930 . S
C52 N53 1.314 . S
C52 C54 1.353 . S
C52 H58 0.930 . S
N53 Li3 1.990 . S
N53 C52 1.314 . S
N53 C56 1.279 . S
C54 C52 1.353 . S
C54 C57 1.348 . S
C54 H86 0.929 . S
C55 C56 1.358 . S
C55 C57 1.356 . S
C55 H87 0.930 . S
C56 N53 1.279 . S
C56 C55 1.358 . S
C56 H59 0.930 . S
C57 C54 1.348 . S
C57 C55 1.356 . S
H58 C52 0.930 . S
H59 C56 0.930 . S
O60 Li0 1.956 . S
O60 Li1 1.970 1_655 S
O60 Li2 1.961 . S
O60 C4 1.325 . S
O61 Li0 1.970 1_456 S
O61 Li1 1.956 1_556 S
O61 Li3 1.961 . S
O61 C10 1.325 . S
O62 Li0 1.961 . S
O62 Li2 1.956 . S
O62 Li3 1.970 1_654 S
O62 C32 1.315 1_554 S
O63 Li1 1.961 . S
O63 Li2 1.970 1_455 S
O63 Li3 1.956 1_554 S
O63 C38 1.325 . S
H64 C6 0.958 . S
H65 C7 0.930 . S
H66 C8 0.930 1_455 S
H67 C9 0.930 . S
H68 C11 0.930 . S
H69 C13 0.929 1_655 S
H70 C14 0.930 . S
H71 C15 0.930 . S
H72 C18 0.930 . S
H73 C21 0.929 . S
H74 C26 0.929 . S
H75 C27 0.930 . S
H76 C34 0.929 . S
H77 C35 0.930 . S
H78 C36 0.930 . S
H79 C37 0.930 . S
H80 C39 0.929 . S
H81 C40 0.930 . S
H82 C41 0.930 . S
H83 C42 0.930 . S
H84 C46 0.929 . S
H85 C48 0.930 . S
H86 C54 0.929 . S
H87 C55 0.930 . S
Li88 N105 1.990 1_554 S
Li88 O148 1.956 . S
Li88 O149 1.970 1_554 S
Li88 O150 1.965 . S
Li89 N113 1.990 . S
Li89 O148 1.970 . S
Li89 O149 1.956 1_554 S
Li89 O151 1.961 . S
Li90 N135 1.990 . S
Li90 O148 1.961 . S
Li90 O150 2.004 . S
Li90 O151 1.970 . S
Li91 N141 1.990 . S
Li91 O149 1.961 . S
Li91 O150 1.956 1_556 S
Li91 O151 1.956 1_556 S
C92 C94 1.348 . S
C92 C95 1.356 . S
C92 O148 1.325 . S
N93 C96 1.314 . S
N93 C97 1.279 . S
C94 C92 1.348 . S
C94 C96 1.353 . S
C94 H152 0.929 . S
C95 C92 1.356 . S
C95 C97 1.358 . S
C95 H153 0.930 . S
C96 N93 1.314 . S
C96 C94 1.353 . S
C96 H154 0.930 . S
C97 N93 1.279 . S
C97 C95 1.358 . S
C97 H155 0.930 . S
C98 C101 1.348 . S
C98 C102 1.356 . S
C98 O149 1.325 . S
C99 N100 1.279 . S
C99 C102 1.358 . S
C99 H156 0.930 . S
N100 C99 1.279 . S
N100 C103 1.314 . S
C101 C98 1.348 . S
C101 C103 1.353 . S
C101 H157 0.929 . S
C102 C98 1.356 . S
C102 C99 1.358 . S
C102 H158 0.930 . S
C103 N100 1.314 . S
C103 C101 1.353 . S
C103 H159 0.930 . S
C104 N105 1.314 . S
C104 C109 1.353 . S
C104 H110 0.930 . S
N105 Li88 1.990 1_556 S
N105 C104 1.314 . S
N105 C107 1.279 1_556 S
C106 C107 1.358 1_556 S
C106 C108 1.356 . S
C106 H160 0.930 1_556 S
C107 N105 1.279 1_554 S
C107 C106 1.358 1_554 S
C107 H111 0.930 . S
C108 C106 1.356 . S
C108 C109 1.348 . S
C109 C104 1.353 . S
C109 C108 1.348 . S
C109 H161 0.929 . S
H110 C104 0.930 . S
H111 C107 0.930 . S
C112 N113 1.314 . S
C112 C114 1.353 . S
C112 H118 0.930 . S
N113 Li89 1.990 . S
N113 C112 1.314 . S
N113 C116 1.279 . S
C114 C112 1.353 . S
C114 C117 1.348 . S
C114 H162 0.929 . S
C115 C116 1.358 . S
C115 C117 1.356 . S
C115 H163 0.930 . S
C116 N113 1.279 . S
C116 C115 1.358 . S
C116 H119 0.930 . S
C117 C114 1.348 . S
C117 C115 1.356 . S
H118 C112 0.930 . S
H119 C116 0.930 . S
C120 C122 1.348 . S
C120 C123 1.340 1_556 S
C120 O150 1.311 1_556 S
N121 C124 1.314 . S
N121 C125 1.279 . S
C122 C120 1.348 . S
C122 C124 1.353 . S
C122 H164 0.929 . S
C123 C120 1.340 1_554 S
C123 C125 1.341 1_554 S
C123 H165 0.967 . S
C124 N121 1.314 . S
C124 C122 1.353 . S
C124 H166 0.930 . S
C125 N121 1.279 . S
C125 C123 1.341 1_556 S
C125 H167 0.930 . S
C126 C127 1.348 . S
C126 C128 1.356 . S
C126 O151 1.325 . S
C127 C126 1.348 . S
C127 C129 1.353 . S
C127 H168 0.929 . S
C128 C126 1.356 . S
C128 C130 1.358 . S
C128 H169 0.930 . S
C129 C127 1.353 . S
C129 N131 1.314 . S
C129 H170 0.930 . S
C130 C128 1.358 . S
C130 N131 1.279 . S
C130 H171 0.930 . S
N131 C129 1.314 . S
N131 C130 1.279 . S
C132 C134 1.353 . S
C132 N135 1.314 . S
C132 H138 0.930 . S
C133 N135 1.279 . S
C133 C136 1.358 . S
C133 H139 0.930 . S
C134 C132 1.353 . S
C134 C137 1.348 . S
C134 H172 0.929 . S
N135 Li90 1.990 . S
N135 C132 1.314 . S
N135 C133 1.279 . S
C136 C133 1.358 . S
C136 C137 1.356 . S
C136 H173 0.930 . S
C137 C134 1.348 . S
C137 C136 1.356 . S
H138 C132 0.930 . S
H139 C133 0.930 . S
C140 N141 1.314 . S
C140 C142 1.353 . S
C140 H146 0.930 . S
N141 Li91 1.990 . S
N141 C140 1.314 . S
N141 C144 1.279 . S
C142 C140 1.353 . S
C142 C145 1.348 . S
C142 H174 0.929 . S
C143 C144 1.358 . S
C143 C145 1.356 . S
C143 H175 0.930 . S
C144 N141 1.279 . S
C144 C143 1.358 . S
C144 H147 0.930 . S
C145 C142 1.348 . S
C145 C143 1.356 . S
H146 C140 0.930 . S
H147 C144 0.930 . S
O148 Li88 1.956 . S
O148 Li89 1.970 . S
O148 Li90 1.961 . S
O148 C92 1.325 . S
O149 Li88 1.970 1_556 S
O149 Li89 1.956 1_556 S
O149 Li91 1.961 . S
O149 C98 1.325 . S
O150 Li88 1.965 . S
O150 Li90 2.004 . S
O150 Li91 1.956 1_554 S
O150 C120 1.311 1_554 S
O151 Li89 1.961 . S
O151 Li90 1.970 . S
O151 Li91 1.956 1_554 S
O151 C126 1.325 . S
H152 C94 0.929 . S
H153 C95 0.930 . S
H154 C96 0.930 . S
H155 C97 0.930 . S
H156 C99 0.930 . S
H157 C101 0.929 . S
H158 C102 0.930 . S
H159 C103 0.930 . S
H160 C106 0.930 1_554 S
H161 C109 0.929 . S
H162 C114 0.929 . S
H163 C115 0.930 . S
H164 C122 0.929 . S
H165 C123 0.967 . S
H166 C124 0.930 . S
H167 C125 0.930 . S
H168 C127 0.929 . S
H169 C128 0.930 . S
H170 C129 0.930 . S
H171 C130 0.930 . S
H172 C134 0.929 . S
H173 C136 0.930 . S
H174 C142 0.929 . S
H175 C143 0.930 . S
Li176 N193 1.990 . S
Li176 O236 1.956 1_556 S
Li176 O237 1.970 1_566 S
Li176 O238 1.961 . S
Li177 N201 1.990 . S
Li177 O236 1.970 1_545 S
Li177 O237 1.956 . S
Li177 O239 1.961 . S
Li178 N223 1.990 . S
Li178 O236 1.961 . S
Li178 O238 1.956 1_554 S
Li178 O239 1.970 1_565 S
Li179 N229 1.990 1_554 S
Li179 O237 1.961 . S
Li179 O238 1.970 1_544 S
Li179 O239 1.956 . S
C180 C182 1.348 . S
C180 C183 1.356 . S
C180 O236 1.325 . S
N181 C184 1.314 . S
N181 C185 1.279 . S
C182 C180 1.348 . S
C182 C184 1.353 . S
C182 H240 0.929 . S
C183 C180 1.356 . S
C183 C185 1.358 . S
C183 H241 0.930 . S
C184 N181 1.314 . S
C184 C182 1.353 . S
C184 H242 0.930 . S
C185 N181 1.279 . S
C185 C183 1.358 . S
C185 H243 0.930 . S
C186 C189 1.348 . S
C186 C190 1.356 1_556 S
C186 O237 1.325 1_556 S
C187 N188 1.279 1_554 S
C187 C190 1.358 . S
C187 H244 0.930 . S
N188 C187 1.279 1_556 S
N188 C191 1.314 . S
C189 C186 1.348 . S
C189 C191 1.353 . S
C189 H245 0.929 . S
C190 C186 1.356 1_554 S
C190 C187 1.358 . S
C190 H246 0.930 . S
C191 N188 1.314 . S
C191 C189 1.353 . S
C191 H247 0.930 . S
C192 N193 1.314 . S
C192 C197 1.353 . S
C192 H198 0.884 1_565 S
N193 Li176 1.990 . S
N193 C192 1.314 . S
N193 C195 1.279 . S
C194 C195 1.358 . S
C194 C196 1.356 . S
C194 H248 0.930 . S
C195 N193 1.279 . S
C195 C194 1.358 . S
C195 H199 0.930 . S
C196 C194 1.356 . S
C196 C197 1.348 . S
C197 C192 1.353 . S
C197 C196 1.348 . S
C197 H249 0.929 . S
H198 C192 0.884 1_545 S
H199 C195 0.930 . S
C200 N201 1.314 . S
C200 C202 1.353 . S
C200 H206 0.930 . S
N201 Li177 1.990 . S
N201 C200 1.314 . S
N201 C204 1.279 . S
C202 C200 1.353 . S
C202 C205 1.348 . S
C202 H250 0.929 . S
C203 C204 1.358 . S
C203 C205 1.356 . S
C203 H251 0.930 . S
C204 N201 1.279 . S
C204 C203 1.358 . S
C204 H207 0.930 . S
C205 C202 1.348 . S
C205 C203 1.356 . S
H206 C200 0.930 . S
H207 C204 0.930 . S
C208 C210 1.319 1_565 S
C208 C211 1.356 . S
C208 O238 1.325 . S
N209 C212 1.314 . S
N209 C213 1.279 . S
C210 C208 1.319 1_545 S
C210 C212 1.353 1_545 S
C210 H252 0.958 . S
C211 C208 1.356 . S
C211 C213 1.358 . S
C211 H253 0.930 . S
C212 N209 1.314 . S
C212 C210 1.353 1_565 S
C212 H254 0.930 1_565 S
C213 N209 1.279 . S
C213 C211 1.358 . S
C213 H255 0.930 . S
C214 C215 1.348 . S
C214 C216 1.356 . S
C214 O239 1.325 . S
C215 C214 1.348 . S
C215 C217 1.353 . S
C215 H256 0.929 1_545 S
C216 C214 1.356 . S
C216 C218 1.358 . S
C216 H257 0.930 . S
C217 C215 1.353 . S
C217 N219 1.314 . S
C217 H258 0.930 . S
C218 C216 1.358 . S
C218 N219 1.279 . S
C218 H259 0.930 . S
N219 C217 1.314 . S
N219 C218 1.279 . S
C220 C222 1.353 . S
C220 N223 1.314 . S
C220 H226 0.930 . S
C221 N223 1.279 . S
C221 C224 1.358 . S
C221 H227 0.934 1_554 S
C222 C220 1.353 . S
C222 C225 1.348 . S
C222 H260 0.929 . S
N223 Li178 1.990 . S
N223 C220 1.314 . S
N223 C221 1.279 . S
C224 C221 1.358 . S
C224 C225 1.356 . S
C224 H261 0.930 . S
C225 C222 1.348 . S
C225 C224 1.356 . S
H226 C220 0.930 . S
H227 C221 0.934 1_556 S
C228 N229 1.314 . S
C228 C230 1.353 . S
C228 H234 0.930 . S
N229 Li179 1.990 1_556 S
N229 C228 1.314 . S
N229 C232 1.279 1_556 S
C230 C228 1.353 . S
C230 C233 1.348 . S
C230 H262 0.929 . S
C231 C232 1.358 . S
C231 C233 1.356 1_554 S
C231 H263 0.930 . S
C232 N229 1.279 1_554 S
C232 C231 1.358 . S
C232 H235 0.930 . S
C233 C230 1.348 . S
C233 C231 1.356 1_556 S
H234 C228 0.930 . S
H235 C232 0.930 . S
O236 Li176 1.956 1_554 S
O236 Li177 1.970 1_565 S
O236 Li178 1.961 . S
O236 C180 1.325 . S
O237 Li176 1.970 1_544 S
O237 Li177 1.956 . S
O237 Li179 1.961 . S
O237 C186 1.325 1_554 S
O238 Li176 1.961 . S
O238 Li178 1.956 1_556 S
O238 Li179 1.970 1_566 S
O238 C208 1.325 . S
O239 Li177 1.961 . S
O239 Li178 1.970 1_545 S
O239 Li179 1.956 . S
O239 C214 1.325 . S
H240 C182 0.929 . S
H241 C183 0.930 . S
H242 C184 0.930 . S
H243 C185 0.930 . S
H244 C187 0.930 . S
H245 C189 0.929 . S
H246 C190 0.930 . S
H247 C191 0.930 . S
H248 C194 0.930 . S
H249 C197 0.929 . S
H250 C202 0.929 . S
H251 C203 0.930 . S
H252 C210 0.958 . S
H253 C211 0.930 . S
H254 C212 0.930 1_545 S
H255 C213 0.930 . S
H256 C215 0.929 1_565 S
H257 C216 0.930 . S
H258 C217 0.930 . S
H259 C218 0.930 . S
H260 C222 0.929 . S
H261 C224 0.930 . S
H262 C230 0.929 . S
H263 C231 0.930 . S
Li264 N281 1.990 . S
Li264 O324 1.956 . S
Li264 O325 1.970 1_455 S
Li264 O326 1.961 1_554 S
Li265 N289 1.990 . S
Li265 O324 1.970 1_655 S
Li265 O325 1.956 . S
Li265 O327 1.961 . S
Li266 N311 1.990 . S
Li266 O324 1.961 1_556 S
Li266 O326 1.956 . S
Li266 O327 1.970 1_456 S
Li267 N317 1.990 1_554 S
Li267 O325 1.961 . S
Li267 O326 1.970 1_654 S
Li267 O327 1.956 . S
C268 C270 1.348 . S
C268 C271 1.356 . S
C268 O324 1.325 . S
N269 C272 1.314 . S
N269 C273 1.279 . S
C270 C268 1.348 . S
C270 C272 1.353 . S
C270 H328 0.929 . S
C271 C268 1.356 . S
C271 C273 1.358 . S
C271 H329 0.930 1_554 S
C272 N269 1.314 . S
C272 C270 1.353 . S
C272 H330 0.930 . S
C273 N269 1.279 . S
C273 C271 1.358 . S
C273 H331 0.930 . S
C274 C277 1.348 1_655 S
C274 C278 1.356 . S
C274 O325 1.325 . S
C275 N276 1.279 . S
C275 C278 1.358 . S
C275 H332 0.930 . S
N276 C275 1.279 . S
N276 C279 1.314 . S
C277 C274 1.348 1_455 S
C277 C279 1.353 1_455 S
C277 H333 0.929 . S
C278 C274 1.356 . S
C278 C275 1.358 . S
C278 H334 0.930 . S
C279 N276 1.314 . S
C279 C277 1.353 1_655 S
C279 H335 0.930 1_655 S
C280 N281 1.314 . S
C280 C285 1.353 . S
C280 H286 0.930 . S
N281 Li264 1.990 . S
N281 C280 1.314 . S
N281 C283 1.279 . S
C282 C283 1.358 . S
C282 C284 1.356 . S
C282 H336 0.930 . S
C283 N281 1.279 . S
C283 C282 1.358 . S
C283 H287 0.930 . S
C284 C282 1.356 . S
C284 C285 1.348 . S
C285 C280 1.353 . S
C285 C284 1.348 . S
C285 H337 0.929 . S
H286 C280 0.930 . S
H287 C283 0.930 . S
C288 N289 1.314 . S
C288 C290 1.353 . S
C288 H294 0.930 . S
N289 Li265 1.990 . S
N289 C288 1.314 . S
N289 C292 1.279 . S
C290 C288 1.353 . S
C290 C293 1.348 . S
C290 H338 0.929 . S
C291 C292 1.358 . S
C291 C293 1.356 . S
C291 H339 0.930 . S
C292 N289 1.279 . S
C292 C291 1.358 . S
C292 H295 0.930 . S
C293 C290 1.348 . S
C293 C291 1.356 . S
H294 C288 0.930 . S
H295 C292 0.930 . S
C296 C298 1.348 1_455 S
C296 C299 1.356 . S
C296 O326 1.325 . S
N297 C300 1.314 . S
N297 C301 1.279 . S
C298 C296 1.348 1_655 S
C298 C300 1.353 1_655 S
C298 H340 0.929 . S
C299 C296 1.356 . S
C299 C301 1.358 . S
C299 H341 0.930 . S
C300 N297 1.314 . S
C300 C298 1.353 1_455 S
C300 H342 0.930 1_455 S
C301 N297 1.279 . S
C301 C299 1.358 . S
C301 H343 0.930 . S
C302 C303 1.348 . S
C302 C304 1.356 1_556 S
C302 O327 1.325 1_556 S
C303 C302 1.348 . S
C303 C305 1.353 . S
C303 H344 0.929 . S
C304 C302 1.356 1_554 S
C304 C306 1.358 . S
C304 H345 0.930 . S
C305 C303 1.353 . S
C305 N307 1.314 . S
C305 H346 0.930 . S
C306 C304 1.358 . S
C306 N307 1.279 1_554 S
C306 H347 0.930 . S
N307 C305 1.314 . S
N307 C306 1.279 1_556 S
C308 C310 1.353 . S
C308 N311 1.314 . S
C308 H314 0.930 . S
C309 N311 1.279 . S
C309 C312 1.358 . S
C309 H315 0.930 . S
C310 C308 1.353 . S
C310 C313 1.348 . S
C310 H348 0.929 . S
N311 Li266 1.990 . S
N311 C308 1.314 . S
N311 C309 1.279 . S
C312 C309 1.358 . S
C312 C313 1.356 . S
C312 H349 0.930 . S
C313 C310 1.348 . S
C313 C312 1.356 . S
H314 C308 0.930 . S
H315 C309 0.930 . S
C316 N317 1.314 1_554 S
C316 C318 1.353 1_554 S
C316 H322 0.930 . S
N317 Li267 1.990 1_556 S
N317 C316 1.314 1_556 S
N317 C320 1.279 . S
C318 C316 1.353 1_556 S
C318 C321 1.348 . S
C318 H350 0.929 1_556 S
C319 C320 1.358 . S
C319 C321 1.356 . S
C319 H351 0.930 . S
C320 N317 1.279 . S
C320 C319 1.358 . S
C320 H323 0.930 . S
C321 C318 1.348 . S
C321 C319 1.356 . S
H322 C316 0.930 . S
H323 C320 0.930 . S
O324 Li264 1.956 . S
O324 Li265 1.970 1_455 S
O324 Li266 1.961 1_554 S
O324 C268 1.325 . S
O325 Li264 1.970 1_655 S
O325 Li265 1.956 . S
O325 Li267 1.961 . S
O325 C274 1.325 . S
O326 Li264 1.961 1_556 S
O326 Li266 1.956 . S
O326 Li267 1.970 1_456 S
O326 C296 1.325 . S
O327 Li265 1.961 . S
O327 Li266 1.970 1_654 S
O327 Li267 1.956 . S
O327 C302 1.325 1_554 S
H328 C270 0.929 . S
H329 C271 0.930 1_556 S
H330 C272 0.930 . S
H331 C273 0.930 . S
H332 C275 0.930 . S
H333 C277 0.929 . S
H334 C278 0.930 . S
H335 C279 0.930 1_455 S
H336 C282 0.930 . S
H337 C285 0.929 . S
H338 C290 0.929 . S
H339 C291 0.930 . S
H340 C298 0.929 . S
H341 C299 0.930 . S
H342 C300 0.930 1_655 S
H343 C301 0.930 . S
H344 C303 0.929 . S
H345 C304 0.930 . S
H346 C305 0.930 . S
H347 C306 0.930 . S
H348 C310 0.929 . S
H349 C312 0.930 . S
H350 C318 0.929 1_554 S
H351 C319 0.930 . S
Li352 N369 1.990 . S
Li352 O412 1.956 . S
Li352 O413 1.970 . S
Li352 O414 1.961 1_554 S
Li353 N377 1.990 . S
Li353 O412 1.970 . S
Li353 O413 1.956 . S
Li353 O415 1.961 . S
Li354 N399 1.990 . S
Li354 O412 1.961 1_556 S
Li354 O414 1.956 . S
Li354 O415 1.970 1_556 S
Li355 N405 1.990 1_554 S
Li355 O413 1.961 . S
Li355 O414 1.970 1_554 S
Li355 O415 1.956 . S
C356 C358 1.348 . S
C356 C359 1.356 . S
C356 O412 1.325 . S
N357 C360 1.314 . S
N357 C361 1.279 . S
C358 C356 1.348 . S
C358 C360 1.353 . S
C358 H416 0.929 . S
C359 C356 1.356 . S
C359 C361 1.358 . S
C359 H417 0.930 . S
C360 N357 1.314 . S
C360 C358 1.353 . S
C360 H418 0.930 . S
C361 N357 1.279 . S
C361 C359 1.358 . S
C361 H419 0.930 . S
C362 C365 1.348 . S
C362 C366 1.356 . S
C362 O413 1.325 . S
C363 N364 1.279 . S
C363 C366 1.358 . S
C363 H420 0.930 . S
N364 C363 1.279 . S
N364 C367 1.314 . S
C365 C362 1.348 . S
C365 C367 1.353 . S
C365 H421 0.929 . S
C366 C362 1.356 . S
C366 C363 1.358 . S
C366 H422 0.930 . S
C367 N364 1.314 . S
C367 C365 1.353 . S
C367 H423 0.930 . S
C368 N369 1.314 . S
C368 C373 1.353 . S
C368 H374 0.930 . S
N369 Li352 1.990 . S
N369 C368 1.314 . S
N369 C371 1.279 . S
C370 C371 1.358 . S
C370 C372 1.356 . S
C370 H424 0.930 . S
C371 N369 1.279 . S
C371 C370 1.358 . S
C371 H375 0.930 . S
C372 C370 1.356 . S
C372 C373 1.348 . S
C373 C368 1.353 . S
C373 C372 1.348 . S
C373 H425 0.929 . S
H374 C368 0.930 . S
H375 C371 0.930 . S
C376 N377 1.314 . S
C376 C378 1.353 . S
C376 H382 0.930 . S
N377 Li353 1.990 . S
N377 C376 1.314 . S
N377 C380 1.279 . S
C378 C376 1.353 . S
C378 C381 1.348 . S
C378 H426 0.929 . S
C379 C380 1.358 . S
C379 C381 1.356 . S
C379 H427 0.930 . S
C380 N377 1.279 . S
C380 C379 1.358 . S
C380 H383 0.930 . S
C381 C378 1.348 . S
C381 C379 1.356 . S
H382 C376 0.930 . S
H383 C380 0.930 . S
C384 C386 1.348 . S
C384 C387 1.356 . S
C384 O414 1.325 . S
N385 C388 1.314 . S
N385 C389 1.279 . S
C386 C384 1.348 . S
C386 C388 1.353 . S
C386 H428 0.929 . S
C387 C384 1.356 . S
C387 C389 1.358 . S
C387 H429 0.930 . S
C388 N385 1.314 . S
C388 C386 1.353 . S
C388 H430 0.930 . S
C389 N385 1.279 . S
C389 C387 1.358 . S
C389 H431 0.930 . S
C390 C391 1.348 . S
C390 C392 1.356 1_556 S
C390 O415 1.325 1_556 S
C391 C390 1.348 . S
C391 C393 1.353 . S
C391 H432 0.929 . S
C392 C390 1.356 1_554 S
C392 C394 1.358 1_554 S
C392 H433 0.930 . S
C393 C391 1.353 . S
C393 N395 1.314 . S
C393 H434 0.930 . S
C394 C392 1.358 1_556 S
C394 N395 1.279 . S
C394 H435 0.930 1_556 S
N395 C393 1.314 . S
N395 C394 1.279 . S
C396 C398 1.353 . S
C396 N399 1.314 . S
C396 H402 0.930 . S
C397 N399 1.279 . S
C397 C400 1.358 . S
C397 H403 0.930 . S
C398 C396 1.353 . S
C398 C401 1.348 . S
C398 H436 0.929 . S
N399 Li354 1.990 . S
N399 C396 1.314 . S
N399 C397 1.279 . S
C400 C397 1.358 . S
C400 C401 1.356 . S
C400 H437 0.930 . S
C401 C398 1.348 . S
C401 C400 1.356 . S
H402 C396 0.930 . S
H403 C397 0.930 . S
C404 N405 1.314 . S
C404 C406 1.353 . S
C404 H410 0.930 1_556 S
N405 Li355 1.990 1_556 S
N405 C404 1.314 . S
N405 C408 1.279 . S
C406 C404 1.353 . S
C406 C409 1.348 . S
C406 H438 0.929 . S
C407 C408 1.358 . S
C407 C409 1.356 . S
C407 H439 0.930 . S
C408 N405 1.279 . S
C408 C407 1.358 . S
C408 H411 0.930 . S
C409 C406 1.348 . S
C409 C407 1.356 . S
H410 C404 0.930 1_554 S
H411 C408 0.930 . S
O412 Li352 1.956 . S
O412 Li353 1.970 . S
O412 Li354 1.961 1_554 S
O412 C356 1.325 . S
O413 Li352 1.970 . S
O413 Li353 1.956 . S
O413 Li355 1.961 . S
O413 C362 1.325 . S
O414 Li352 1.961 1_556 S
O414 Li354 1.956 . S
O414 Li355 1.970 1_556 S
O414 C384 1.325 . S
O415 Li353 1.961 . S
O415 Li354 1.970 1_554 S
O415 Li355 1.956 . S
O415 C390 1.325 1_554 S
H416 C358 0.929 . S
H417 C359 0.930 . S
H418 C360 0.930 . S
H419 C361 0.930 . S
H420 C363 0.930 . S
H421 C365 0.929 . S
H422 C366 0.930 . S
H423 C367 0.930 . S
H424 C370 0.930 . S
H425 C373 0.929 . S
H426 C378 0.929 . S
H427 C379 0.930 . S
H428 C386 0.929 . S
H429 C387 0.930 . S
H430 C388 0.930 . S
H431 C389 0.930 . S
H432 C391 0.929 . S
H433 C392 0.930 . S
H434 C393 0.930 . S
H435 C394 0.930 1_554 S
H436 C398 0.929 . S
H437 C400 0.930 . S
H438 C406 0.929 . S
H439 C407 0.930 . S
Li440 N457 1.990 . S
Li440 O500 1.956 . S
Li440 O501 1.970 1_565 S
Li440 O502 1.961 1_554 S
Li441 N465 1.990 . S
Li441 O500 1.970 1_545 S
Li441 O501 1.956 . S
Li441 O503 1.961 . S
Li442 N487 1.990 . S
Li442 O500 1.961 1_556 S
Li442 O502 1.956 . S
Li442 O503 1.970 1_566 S
Li443 N493 1.990 1_554 S
Li443 O501 1.961 . S
Li443 O502 1.970 1_544 S
Li443 O503 1.956 . S
C444 C446 1.348 . S
C444 C447 1.356 . S
C444 O500 1.325 . S
N445 C448 1.314 . S
N445 C449 1.279 . S
C446 C444 1.348 . S
C446 C448 1.353 . S
C446 H504 0.929 . S
C447 C444 1.356 . S
C447 C449 1.358 . S
C447 H505 0.930 1_554 S
C448 N445 1.314 . S
C448 C446 1.353 . S
C448 H506 0.930 . S
C449 N445 1.279 . S
C449 C447 1.358 . S
C449 H507 0.930 . S
C450 C453 1.348 1_545 S
C450 C454 1.356 . S
C450 O501 1.325 . S
C451 N452 1.279 . S
C451 C454 1.358 . S
C451 H508 0.930 . S
N452 C451 1.279 . S
N452 C455 1.314 . S
C453 C450 1.348 1_565 S
C453 C455 1.353 1_565 S
C453 H509 0.929 . S
C454 C450 1.356 . S
C454 C451 1.358 . S
C454 H510 0.930 . S
C455 N452 1.314 . S
C455 C453 1.353 1_545 S
C455 H511 0.930 1_545 S
C456 N457 1.314 . S
C456 C461 1.353 . S
C456 H462 0.930 . S
N457 Li440 1.990 . S
N457 C456 1.314 . S
N457 C459 1.279 . S
C458 C459 1.358 . S
C458 C460 1.356 . S
C458 H512 0.930 . S
C459 N457 1.279 . S
C459 C458 1.358 . S
C459 H463 0.930 . S
C460 C458 1.356 . S
C460 C461 1.348 . S
C461 C456 1.353 . S
C461 C460 1.348 . S
C461 H513 0.929 . S
H462 C456 0.930 . S
H463 C459 0.930 . S
C464 N465 1.314 . S
C464 C466 1.353 . S
C464 H470 0.930 . S
N465 Li441 1.990 . S
N465 C464 1.314 . S
N465 C468 1.279 . S
C466 C464 1.353 . S
C466 C469 1.348 . S
C466 H514 0.929 . S
C467 C468 1.358 . S
C467 C469 1.356 . S
C467 H515 0.930 . S
C468 N465 1.279 . S
C468 C467 1.358 . S
C468 H471 0.930 . S
C469 C466 1.348 . S
C469 C467 1.356 . S
H470 C464 0.930 . S
H471 C468 0.930 . S
C472 C474 1.348 1_565 S
C472 C475 1.356 . S
C472 O502 1.325 . S
N473 C476 1.314 . S
N473 C477 1.279 . S
C474 C472 1.348 1_545 S
C474 C476 1.353 1_545 S
C474 H516 0.929 . S
C475 C472 1.356 . S
C475 C477 1.358 . S
C475 H517 0.930 . S
C476 N473 1.314 . S
C476 C474 1.353 1_565 S
C476 H518 0.930 1_565 S
C477 N473 1.279 . S
C477 C475 1.358 . S
C477 H519 0.930 . S
C478 C479 1.363 . S
C478 C480 1.346 1_556 S
C478 O503 1.321 1_556 S
C479 C478 1.363 . S
C479 C481 1.353 . S
C479 H520 0.929 . S
C480 C478 1.346 1_554 S
C480 C482 1.358 . S
C480 H521 0.930 . S
C481 C479 1.353 . S
C481 N483 1.314 . S
C481 H522 0.930 . S
C482 C480 1.358 . S
C482 N483 1.279 1_554 S
C482 H523 0.930 . S
N483 C481 1.314 . S
N483 C482 1.279 1_556 S
C484 C486 1.353 . S
C484 N487 1.314 . S
C484 H490 0.930 . S
C485 N487 1.279 . S
C485 C488 1.358 . S
C485 H491 0.930 . S
C486 C484 1.353 . S
C486 C489 1.348 . S
C486 H524 0.929 . S
N487 Li442 1.990 . S
N487 C484 1.314 . S
N487 C485 1.279 . S
C488 C485 1.358 . S
C488 C489 1.356 . S
C488 H525 0.930 . S
C489 C486 1.348 . S
C489 C488 1.356 . S
H490 C484 0.930 . S
H491 C485 0.930 . S
C492 N493 1.314 1_554 S
C492 C494 1.353 1_554 S
C492 H498 0.930 . S
N493 Li443 1.990 1_556 S
N493 C492 1.314 1_556 S
N493 C496 1.279 . S
C494 C492 1.353 1_556 S
C494 C497 1.348 . S
C494 H526 0.929 1_556 S
C495 C496 1.358 . S
C495 C497 1.356 . S
C495 H527 0.930 . S
C496 N493 1.279 . S
C496 C495 1.358 . S
C496 H499 0.930 . S
C497 C494 1.348 . S
C497 C495 1.356 . S
H498 C492 0.930 . S
H499 C496 0.930 . S
O500 Li440 1.956 . S
O500 Li441 1.970 1_565 S
O500 Li442 1.961 1_554 S
O500 C444 1.325 . S
O501 Li440 1.970 1_545 S
O501 Li441 1.956 . S
O501 Li443 1.961 . S
O501 C450 1.325 . S
O502 Li440 1.961 1_556 S
O502 Li442 1.956 . S
O502 Li443 1.970 1_566 S
O502 C472 1.325 . S
O503 Li441 1.961 . S
O503 Li442 1.970 1_544 S
O503 Li443 1.956 . S
O503 C478 1.321 1_554 S
H504 C446 0.929 . S
H505 C447 0.930 1_556 S
H506 C448 0.930 . S
H507 C449 0.930 . S
H508 C451 0.930 . S
H509 C453 0.929 . S
H510 C454 0.930 . S
H511 C455 0.930 1_565 S
H512 C458 0.930 . S
H513 C461 0.929 . S
H514 C466 0.929 . S
H515 C467 0.930 . S
H516 C474 0.929 . S
H517 C475 0.930 . S
H518 C476 0.930 1_545 S
H519 C477 0.930 . S
H520 C479 0.929 . S
H521 C480 0.930 . S
H522 C481 0.930 . S
H523 C482 0.930 . S
H524 C486 0.929 . S
H525 C488 0.930 . S
H526 C494 0.929 1_554 S
H527 C495 0.930 . S
Li528 N545 1.990 . S
Li528 O588 1.956 . S
Li528 O589 1.970 . S
Li528 O590 1.961 . S
Li529 N553 1.990 . S
Li529 O588 1.970 . S
Li529 O589 1.956 . S
Li529 O591 1.961 . S
Li530 N575 1.990 . S
Li530 O588 1.961 . S
Li530 O590 1.956 . S
Li530 O591 1.970 . S
Li531 N581 1.990 . S
Li531 O589 1.961 . S
Li531 O590 1.970 . S
Li531 O591 1.956 . S
C532 C534 1.348 . S
C532 C535 1.356 . S
C532 O588 1.325 . S
N533 C536 1.314 . S
N533 C537 1.279 . S
C534 C532 1.348 . S
C534 C536 1.353 . S
C534 H592 0.929 . S
C535 C532 1.356 . S
C535 C537 1.358 . S
C535 H593 0.930 . S
C536 N533 1.314 . S
C536 C534 1.353 . S
C536 H594 0.930 . S
C537 N533 1.279 . S
C537 C535 1.358 . S
C537 H595 0.930 . S
C538 C541 1.348 . S
C538 C542 1.356 . S
C538 O589 1.325 . S
C539 N540 1.279 . S
C539 C542 1.358 . S
C539 H596 0.930 . S
N540 C539 1.279 . S
N540 C543 1.314 . S
C541 C538 1.348 . S
C541 C543 1.353 . S
C541 H597 0.929 . S
C542 C538 1.356 . S
C542 C539 1.358 . S
C542 H598 0.930 . S
C543 N540 1.314 . S
C543 C541 1.353 . S
C543 H599 0.930 . S
C544 N545 1.314 . S
C544 C549 1.353 . S
C544 H550 0.930 . S
N545 Li528 1.990 . S
N545 C544 1.314 . S
N545 C547 1.279 . S
C546 C547 1.358 . S
C546 C548 1.356 . S
C546 H600 0.930 . S
C547 N545 1.279 . S
C547 C546 1.358 . S
C547 H551 0.930 . S
C548 C546 1.356 . S
C548 C549 1.348 . S
C549 C544 1.353 . S
C549 C548 1.348 . S
C549 H601 0.929 . S
H550 C544 0.930 . S
H551 C547 0.930 . S
C552 N553 1.314 . S
C552 C554 1.353 . S
C552 H558 0.930 . S
N553 Li529 1.990 . S
N553 C552 1.314 . S
N553 C556 1.279 . S
C554 C552 1.353 . S
C554 C557 1.348 . S
C554 H602 0.929 . S
C555 C556 1.358 . S
C555 C557 1.356 . S
C555 H603 0.930 . S
C556 N553 1.279 . S
C556 C555 1.358 . S
C556 H559 0.930 . S
C557 C554 1.348 . S
C557 C555 1.356 . S
H558 C552 0.930 . S
H559 C556 0.930 . S
C560 C562 1.348 . S
C560 C563 1.356 . S
C560 O590 1.325 . S
N561 C564 1.314 . S
N561 C565 1.279 . S
C562 C560 1.348 . S
C562 C564 1.353 . S
C562 H604 0.929 . S
C563 C560 1.356 . S
C563 C565 1.358 . S
C563 H605 0.930 . S
C564 N561 1.314 . S
C564 C562 1.353 . S
C564 H606 0.930 . S
C565 N561 1.279 . S
C565 C563 1.358 . S
C565 H607 0.930 . S
C566 C567 1.348 . S
C566 C568 1.356 . S
C566 O591 1.325 . S
C567 C566 1.348 . S
C567 C569 1.353 . S
C567 H608 0.929 . S
C568 C566 1.356 . S
C568 C570 1.358 . S
C568 H609 0.930 . S
C569 C567 1.353 . S
C569 N571 1.314 . S
C569 H610 0.930 . S
C570 C568 1.358 . S
C570 N571 1.279 . S
C570 H611 0.930 . S
N571 C569 1.314 . S
N571 C570 1.279 . S
C572 C574 1.353 . S
C572 N575 1.314 . S
C572 H578 0.930 . S
C573 N575 1.279 . S
C573 C576 1.358 . S
C573 H579 0.930 . S
C574 C572 1.353 . S
C574 C577 1.348 . S
C574 H612 0.929 . S
N575 Li530 1.990 . S
N575 C572 1.314 . S
N575 C573 1.279 . S
C576 C573 1.358 . S
C576 C577 1.356 . S
C576 H613 0.930 . S
C577 C574 1.348 . S
C577 C576 1.356 . S
H578 C572 0.930 . S
H579 C573 0.930 . S
C580 N581 1.314 . S
C580 C582 1.353 . S
C580 H586 0.930 . S
N581 Li531 1.990 . S
N581 C580 1.314 . S
N581 C584 1.279 . S
C582 C580 1.353 . S
C582 C585 1.348 . S
C582 H614 0.929 . S
C583 C584 1.358 . S
C583 C585 1.356 . S
C583 H615 0.930 . S
C584 N581 1.279 . S
C584 C583 1.358 . S
C584 H587 0.930 . S
C585 C582 1.348 . S
C585 C583 1.356 . S
H586 C580 0.930 . S
H587 C584 0.930 . S
O588 Li528 1.956 . S
O588 Li529 1.970 . S
O588 Li530 1.961 . S
O588 C532 1.325 . S
O589 Li528 1.970 . S
O589 Li529 1.956 . S
O589 Li531 1.961 . S
O589 C538 1.325 . S
O590 Li528 1.961 . S
O590 Li530 1.956 . S
O590 Li531 1.970 . S
O590 C560 1.325 . S
O591 Li529 1.961 . S
O591 Li530 1.970 . S
O591 Li531 1.956 . S
O591 C566 1.325 . S
H592 C534 0.929 . S
H593 C535 0.930 . S
H594 C536 0.930 . S
H595 C537 0.930 . S
H596 C539 0.930 . S
H597 C541 0.929 . S
H598 C542 0.930 . S
H599 C543 0.930 . S
H600 C546 0.930 . S
H601 C549 0.929 . S
H602 C554 0.929 . S
H603 C555 0.930 . S
H604 C562 0.929 . S
H605 C563 0.930 . S
H606 C564 0.930 . S
H607 C565 0.930 . S
H608 C567 0.929 . S
H609 C568 0.930 . S
H610 C569 0.930 . S
H611 C570 0.930 . S
H612 C574 0.929 . S
H613 C576 0.930 . S
H614 C582 0.929 . S
H615 C583 0.930 . S
Li616 N633 1.990 . S
Li616 O676 1.956 . S
Li616 O677 1.970 . S
Li616 O678 1.961 . S
Li617 N641 1.990 . S
Li617 O676 1.970 . S
Li617 O677 1.956 . S
Li617 O679 1.961 . S
Li618 N663 1.990 1_565 S
Li618 O676 1.961 . S
Li618 O678 1.956 . S
Li618 O679 1.970 . S
Li619 N669 1.990 . S
Li619 O677 1.961 . S
Li619 O678 1.970 . S
Li619 O679 1.956 . S
C620 C622 1.348 . S
C620 C623 1.356 . S
C620 O676 1.325 . S
N621 C624 1.314 . S
N621 C625 1.279 . S
C622 C620 1.348 . S
C622 C624 1.353 . S
C622 H680 0.929 . S
C623 C620 1.356 . S
C623 C625 1.358 . S
C623 H681 0.930 . S
C624 N621 1.314 . S
C624 C622 1.353 . S
C624 H682 0.930 . S
C625 N621 1.279 . S
C625 C623 1.358 . S
C625 H683 0.930 . S
C626 C629 1.348 . S
C626 C630 1.356 . S
C626 O677 1.325 . S
C627 N628 1.279 . S
C627 C630 1.358 . S
C627 H684 0.930 . S
N628 C627 1.279 . S
N628 C631 1.314 . S
C629 C626 1.348 . S
C629 C631 1.353 . S
C629 H685 0.929 . S
C630 C626 1.356 . S
C630 C627 1.358 . S
C630 H686 0.930 . S
C631 N628 1.314 . S
C631 C629 1.353 . S
C631 H687 0.930 . S
C632 N633 1.314 . S
C632 C637 1.353 . S
C632 H638 0.930 . S
N633 Li616 1.990 . S
N633 C632 1.314 . S
N633 C635 1.279 . S
C634 C635 1.358 . S
C634 C636 1.356 . S
C634 H688 0.930 . S
C635 N633 1.279 . S
C635 C634 1.358 . S
C635 H639 0.930 . S
C636 C634 1.356 . S
C636 C637 1.348 . S
C637 C632 1.353 . S
C637 C636 1.348 . S
C637 H689 0.929 . S
H638 C632 0.930 . S
H639 C635 0.930 . S
C640 N641 1.314 . S
C640 C642 1.353 . S
C640 H646 0.930 . S
N641 Li617 1.990 . S
N641 C640 1.314 . S
N641 C644 1.279 . S
C642 C640 1.353 . S
C642 C645 1.348 . S
C642 H690 0.929 . S
C643 C644 1.358 . S
C643 C645 1.356 . S
C643 H691 0.930 . S
C644 N641 1.279 . S
C644 C643 1.358 . S
C644 H647 0.930 . S
C645 C642 1.348 . S
C645 C643 1.356 . S
H646 C640 0.930 . S
H647 C644 0.930 . S
C648 C650 1.348 . S
C648 C651 1.356 . S
C648 O678 1.325 1_545 S
N649 C652 1.314 . S
N649 C653 1.279 . S
C650 C648 1.348 . S
C650 C652 1.353 . S
C650 H692 0.929 . S
C651 C648 1.356 . S
C651 C653 1.358 . S
C651 H693 0.930 . S
C652 N649 1.314 . S
C652 C650 1.353 . S
C652 H694 0.930 . S
C653 N649 1.279 . S
C653 C651 1.358 . S
C653 H695 0.930 . S
C654 C655 1.348 1_565 S
C654 C656 1.356 . S
C654 O679 1.325 . S
C655 C654 1.348 1_545 S
C655 C657 1.353 . S
C655 H696 0.929 . S
C656 C654 1.356 . S
C656 C658 1.358 . S
C656 H697 0.930 . S
C657 C655 1.353 . S
C657 N659 1.314 . S
C657 H698 0.930 . S
C658 C656 1.358 . S
C658 N659 1.279 1_565 S
C658 H699 0.930 . S
N659 C657 1.314 . S
N659 C658 1.279 1_545 S
C660 C662 1.353 . S
C660 N663 1.314 . S
C660 H666 0.930 . S
C661 N663 1.279 . S
C661 C664 1.358 . S
C661 H667 0.930 . S
C662 C660 1.353 . S
C662 C665 1.348 . S
C662 H700 0.929 . S
N663 Li618 1.990 1_545 S
N663 C660 1.314 . S
N663 C661 1.279 . S
C664 C661 1.358 . S
C664 C665 1.356 . S
C664 H701 0.930 . S
C665 C662 1.348 . S
C665 C664 1.356 . S
H666 C660 0.930 . S
H667 C661 0.930 . S
C668 N669 1.314 . S
C668 C670 1.353 . S
C668 H674 0.930 . S
N669 Li619 1.990 . S
N669 C668 1.314 . S
N669 C672 1.279 . S
C670 C668 1.353 . S
C670 C673 1.348 . S
C670 H702 0.929 . S
C671 C672 1.358 . S
C671 C673 1.356 . S
C671 H703 0.930 . S
C672 N669 1.279 . S
C672 C671 1.358 . S
C672 H675 0.930 . S
C673 C670 1.348 . S
C673 C671 1.356 . S
H674 C668 0.930 . S
H675 C672 0.930 . S
O676 Li616 1.956 . S
O676 Li617 1.970 . S
O676 Li618 1.961 . S
O676 C620 1.325 . S
O677 Li616 1.970 . S
O677 Li617 1.956 . S
O677 Li619 1.961 . S
O677 C626 1.325 . S
O678 Li616 1.961 . S
O678 Li618 1.956 . S
O678 Li619 1.970 . S
O678 C648 1.325 1_565 S
O679 Li617 1.961 . S
O679 Li618 1.970 . S
O679 Li619 1.956 . S
O679 C654 1.325 . S
H680 C622 0.929 . S
H681 C623 0.930 . S
H682 C624 0.930 . S
H683 C625 0.930 . S
H684 C627 0.930 . S
H685 C629 0.929 . S
H686 C630 0.930 . S
H687 C631 0.930 . S
H688 C634 0.930 . S
H689 C637 0.929 . S
H690 C642 0.929 . S
H691 C643 0.930 . S
H692 C650 0.929 . S
H693 C651 0.930 . S
H694 C652 0.930 . S
H695 C653 0.930 . S
H696 C655 0.929 . S
H697 C656 0.930 . S
H698 C657 0.930 . S
H699 C658 0.930 . S
H700 C662 0.929 . S
H701 C664 0.930 . S
H702 C670 0.929 . S
H703 C671 0.930 . S
Li704 N721 1.990 . S
Li704 O764 1.956 . S
Li704 O765 1.970 . S
Li704 O766 1.961 . S
Li705 N729 1.990 . S
Li705 O764 1.970 . S
Li705 O765 1.956 . S
Li705 O767 1.961 . S
Li706 N751 1.990 1_455 S
Li706 O764 1.961 . S
Li706 O766 1.956 . S
Li706 O767 1.970 . S
Li707 N757 1.990 . S
Li707 O765 1.961 . S
Li707 O766 1.970 . S
Li707 O767 1.956 . S
C708 C710 1.348 . S
C708 C711 1.356 . S
C708 O764 1.325 . S
N709 C712 1.314 . S
N709 C713 1.279 . S
C710 C708 1.348 . S
C710 C712 1.353 . S
C710 H768 0.929 . S
C711 C708 1.356 . S
C711 C713 1.358 . S
C711 H769 0.930 . S
C712 N709 1.314 . S
C712 C710 1.353 . S
C712 H770 0.930 . S
C713 N709 1.279 . S
C713 C711 1.358 . S
C713 H771 0.930 . S
C714 C717 1.348 . S
C714 C718 1.356 . S
C714 O765 1.325 . S
C715 N716 1.279 . S
C715 C718 1.358 . S
C715 H772 0.930 . S
N716 C715 1.279 . S
N716 C719 1.314 . S
C717 C714 1.348 . S
C717 C719 1.353 . S
C717 H773 0.929 . S
C718 C714 1.356 . S
C718 C715 1.358 . S
C718 H774 0.930 . S
C719 N716 1.314 . S
C719 C717 1.353 . S
C719 H775 0.930 . S
C720 N721 1.314 . S
C720 C725 1.353 . S
C720 H726 0.930 . S
N721 Li704 1.990 . S
N721 C720 1.314 . S
N721 C723 1.279 . S
C722 C723 1.358 . S
C722 C724 1.356 . S
C722 H776 0.930 . S
C723 N721 1.279 . S
C723 C722 1.358 . S
C723 H727 0.930 . S
C724 C722 1.356 . S
C724 C725 1.348 . S
C725 C720 1.353 . S
C725 C724 1.348 . S
C725 H777 0.929 . S
H726 C720 0.930 . S
H727 C723 0.930 . S
C728 N729 1.314 . S
C728 C730 1.353 . S
C728 H734 0.930 . S
N729 Li705 1.990 . S
N729 C728 1.314 . S
N729 C732 1.279 . S
C730 C728 1.353 . S
C730 C733 1.348 . S
C730 H778 0.929 . S
C731 C732 1.358 . S
C731 C733 1.356 . S
C731 H779 0.930 . S
C732 N729 1.279 . S
C732 C731 1.358 . S
C732 H735 0.930 . S
C733 C730 1.348 . S
C733 C731 1.356 . S
H734 C728 0.930 . S
H735 C732 0.930 . S
C736 C738 1.348 . S
C736 C739 1.356 . S
C736 O766 1.325 1_655 S
N737 C740 1.314 . S
N737 C741 1.279 . S
C738 C736 1.348 . S
C738 C740 1.353 . S
C738 H780 0.929 . S
C739 C736 1.356 . S
C739 C741 1.358 . S
C739 H781 0.930 . S
C740 N737 1.314 . S
C740 C738 1.353 . S
C740 H782 0.930 . S
C741 N737 1.279 . S
C741 C739 1.358 . S
C741 H783 0.930 . S
C742 C743 1.348 1_455 S
C742 C744 1.356 . S
C742 O767 1.325 . S
C743 C742 1.348 1_655 S
C743 C745 1.353 . S
C743 H784 0.929 . S
C744 C742 1.356 . S
C744 C746 1.358 . S
C744 H785 0.930 . S
C745 C743 1.353 . S
C745 N747 1.316 1_655 S
C745 H786 0.930 . S
C746 C744 1.358 . S
C746 N747 1.273 . S
C746 H787 0.930 . S
N747 C745 1.316 1_455 S
N747 C746 1.273 . S
C748 C750 1.353 . S
C748 N751 1.314 . S
C748 H754 0.930 . S
C749 N751 1.279 . S
C749 C752 1.358 . S
C749 H755 0.930 . S
C750 C748 1.353 . S
C750 C753 1.348 . S
C750 H788 0.929 . S
N751 Li706 1.990 1_655 S
N751 C748 1.314 . S
N751 C749 1.279 . S
C752 C749 1.358 . S
C752 C753 1.356 . S
C752 H789 0.930 . S
C753 C750 1.348 . S
C753 C752 1.356 . S
H754 C748 0.930 . S
H755 C749 0.930 . S
C756 N757 1.314 . S
C756 C758 1.353 . S
C756 H762 0.930 . S
N757 Li707 1.990 . S
N757 C756 1.314 . S
N757 C760 1.279 . S
C758 C756 1.353 . S
C758 C761 1.348 . S
C758 H790 0.929 . S
C759 C760 1.358 . S
C759 C761 1.356 . S
C759 H791 0.930 . S
C760 N757 1.279 . S
C760 C759 1.358 . S
C760 H763 0.930 . S
C761 C758 1.348 . S
C761 C759 1.356 . S
H762 C756 0.930 . S
H763 C760 0.930 . S
O764 Li704 1.956 . S
O764 Li705 1.970 . S
O764 Li706 1.961 . S
O764 C708 1.325 . S
O765 Li704 1.970 . S
O765 Li705 1.956 . S
O765 Li707 1.961 . S
O765 C714 1.325 . S
O766 Li704 1.961 . S
O766 Li706 1.956 . S
O766 Li707 1.970 . S
O766 C736 1.325 1_455 S
O767 Li705 1.961 . S
O767 Li706 1.970 . S
O767 Li707 1.956 . S
O767 C742 1.325 . S
H768 C710 0.929 . S
H769 C711 0.930 . S
H770 C712 0.930 . S
H771 C713 0.930 . S
H772 C715 0.930 . S
H773 C717 0.929 . S
H774 C718 0.930 . S
H775 C719 0.930 . S
H776 C722 0.930 . S
H777 C725 0.929 . S
H778 C730 0.929 . S
H779 C731 0.930 . S
H780 C738 0.929 . S
H781 C739 0.930 . S
H782 C740 0.930 . S
H783 C741 0.930 . S
H784 C743 0.929 . S
H785 C744 0.930 . S
H786 C745 0.930 . S
H787 C746 0.930 . S
H788 C750 0.929 . S
H789 C752 0.930 . S
H790 C758 0.929 . S
H791 C759 0.930 . S
Li792 N809 1.990 1_565 S
Li792 O852 1.956 . S
Li792 O853 1.970 . S
Li792 O854 1.961 . S
Li793 N817 1.990 . S
Li793 O852 1.970 . S
Li793 O853 1.956 . S
Li793 O855 1.961 . S
Li794 N839 1.990 . S
Li794 O852 1.961 . S
Li794 O854 1.956 . S
Li794 O855 1.970 . S
Li795 N845 1.990 . S
Li795 O853 1.961 . S
Li795 O854 1.970 . S
Li795 O855 1.956 . S
C796 C798 1.348 . S
C796 C799 1.356 . S
C796 O852 1.325 . S
N797 C800 1.314 . S
N797 C801 1.279 . S
C798 C796 1.348 . S
C798 C800 1.353 . S
C798 H856 0.929 . S
C799 C796 1.356 . S
C799 C801 1.358 . S
C799 H857 0.930 . S
C800 N797 1.314 . S
C800 C798 1.353 . S
C800 H858 0.930 . S
C801 N797 1.279 . S
C801 C799 1.358 . S
C801 H859 0.930 . S
C802 C805 1.348 1_565 S
C802 C806 1.356 . S
C802 O853 1.325 . S
C803 N804 1.289 . S
C803 C806 1.358 . S
C803 H860 0.930 . S
N804 C803 1.289 . S
N804 C807 1.316 1_565 S
C805 C802 1.348 1_545 S
C805 C807 1.353 . S
C805 H861 0.929 . S
C806 C802 1.356 . S
C806 C803 1.358 . S
C806 H862 0.930 . S
C807 N804 1.316 1_545 S
C807 C805 1.353 . S
C807 H863 0.930 . S
C808 N809 1.314 . S
C808 C813 1.353 . S
C808 H814 0.930 . S
N809 Li792 1.990 1_545 S
N809 C808 1.314 . S
N809 C811 1.279 . S
C810 C811 1.358 . S
C810 C812 1.356 . S
C810 H864 0.930 . S
C811 N809 1.279 . S
C811 C810 1.358 . S
C811 H815 0.930 . S
C812 C810 1.356 . S
C812 C813 1.348 . S
C813 C808 1.353 . S
C813 C812 1.348 . S
C813 H865 0.929 . S
H814 C808 0.930 . S
H815 C811 0.930 . S
C816 N817 1.314 . S
C816 C818 1.353 . S
C816 H822 0.930 . S
N817 Li793 1.990 . S
N817 C816 1.314 . S
N817 C820 1.279 . S
C818 C816 1.353 . S
C818 C821 1.348 . S
C818 H866 0.929 . S
C819 C820 1.358 . S
C819 C821 1.356 . S
C819 H867 0.930 . S
C820 N817 1.279 . S
C820 C819 1.358 . S
C820 H823 0.930 . S
C821 C818 1.348 . S
C821 C819 1.356 . S
H822 C816 0.930 . S
H823 C820 0.930 . S
C824 C826 1.348 . S
C824 C827 1.356 . S
C824 O854 1.325 1_545 S
N825 C828 1.314 . S
N825 C829 1.279 . S
C826 C824 1.348 . S
C826 C828 1.353 . S
C826 H868 0.929 1_545 S
C827 C824 1.356 . S
C827 C829 1.358 . S
C827 H869 0.930 . S
C828 N825 1.314 . S
C828 C826 1.353 . S
C828 H870 0.930 . S
C829 N825 1.279 . S
C829 C827 1.358 . S
C829 H871 0.930 . S
C830 C831 1.348 . S
C830 C832 1.356 . S
C830 O855 1.325 . S
C831 C830 1.348 . S
C831 C833 1.353 . S
C831 H872 0.929 . S
C832 C830 1.356 . S
C832 C834 1.358 . S
C832 H873 0.930 . S
C833 C831 1.353 . S
C833 N835 1.314 . S
C833 H874 0.930 . S
C834 C832 1.358 . S
C834 N835 1.279 . S
C834 H875 0.930 . S
N835 C833 1.314 . S
N835 C834 1.279 . S
C836 C838 1.353 . S
C836 N839 1.314 . S
C836 H842 0.930 . S
C837 N839 1.279 . S
C837 C840 1.358 . S
C837 H843 0.930 . S
C838 C836 1.353 . S
C838 C841 1.348 . S
C838 H876 0.929 . S
N839 Li794 1.990 . S
N839 C836 1.314 . S
N839 C837 1.279 . S
C840 C837 1.358 . S
C840 C841 1.356 . S
C840 H877 0.930 . S
C841 C838 1.348 . S
C841 C840 1.356 . S
H842 C836 0.930 . S
H843 C837 0.930 . S
C844 N845 1.314 . S
C844 C846 1.353 . S
C844 H850 0.921 1_565 S
N845 Li795 1.990 . S
N845 C844 1.314 . S
N845 C848 1.279 . S
C846 C844 1.353 . S
C846 C849 1.348 . S
C846 H878 0.929 1_565 S
C847 C848 1.358 . S
C847 C849 1.356 . S
C847 H879 0.930 . S
C848 N845 1.279 . S
C848 C847 1.358 . S
C848 H851 0.930 . S
C849 C846 1.348 . S
C849 C847 1.356 . S
H850 C844 0.921 1_545 S
H851 C848 0.930 . S
O852 Li792 1.956 . S
O852 Li793 1.970 . S
O852 Li794 1.961 . S
O852 C796 1.325 . S
O853 Li792 1.970 . S
O853 Li793 1.956 . S
O853 Li795 1.961 . S
O853 C802 1.325 . S
O854 Li792 1.961 . S
O854 Li794 1.956 . S
O854 Li795 1.970 . S
O854 C824 1.325 1_565 S
O855 Li793 1.961 . S
O855 Li794 1.970 . S
O855 Li795 1.956 . S
O855 C830 1.325 . S
H856 C798 0.929 . S
H857 C799 0.930 . S
H858 C800 0.930 . S
H859 C801 0.930 . S
H860 C803 0.930 . S
H861 C805 0.929 . S
H862 C806 0.930 . S
H863 C807 0.930 . S
H864 C810 0.930 . S
H865 C813 0.929 . S
H866 C818 0.929 . S
H867 C819 0.930 . S
H868 C826 0.929 1_565 S
H869 C827 0.930 . S
H870 C828 0.930 . S
H871 C829 0.930 . S
H872 C831 0.929 . S
H873 C832 0.930 . S
H874 C833 0.930 . S
H875 C834 0.930 . S
H876 C838 0.929 . S
H877 C840 0.930 . S
H878 C846 0.929 1_545 S
H879 C847 0.930 . S
Li880 N897 1.990 . S
Li880 O940 1.956 . S
Li880 O941 1.970 . S
Li880 O942 1.961 . S
Li881 N905 1.990 1_455 S
Li881 O940 1.970 . S
Li881 O941 1.956 . S
Li881 O943 1.961 . S
Li882 N927 1.990 . S
Li882 O940 1.961 . S
Li882 O942 1.956 . S
Li882 O943 1.970 . S
Li883 N933 1.990 . S
Li883 O941 1.961 . S
Li883 O942 1.970 . S
Li883 O943 1.956 . S
C884 C886 1.348 1_455 S
C884 C887 1.356 . S
C884 O940 1.325 . S
N885 C888 1.303 1_455 S
N885 C889 1.289 . S
C886 C884 1.348 1_655 S
C886 C888 1.353 . S
C886 H944 0.929 . S
C887 C884 1.356 . S
C887 C889 1.358 . S
C887 H945 0.930 . S
C888 N885 1.303 1_655 S
C888 C886 1.353 . S
C888 H946 0.930 . S
C889 N885 1.289 . S
C889 C887 1.358 . S
C889 H947 0.930 . S
C890 C893 1.348 . S
C890 C894 1.356 . S
C890 O941 1.325 . S
C891 N892 1.279 . S
C891 C894 1.358 . S
C891 H948 0.930 . S
N892 C891 1.279 . S
N892 C895 1.314 . S
C893 C890 1.348 . S
C893 C895 1.353 . S
C893 H949 0.929 . S
C894 C890 1.356 . S
C894 C891 1.358 . S
C894 H950 0.930 . S
C895 N892 1.314 . S
C895 C893 1.353 . S
C895 H951 0.930 . S
C896 N897 1.314 . S
C896 C901 1.353 . S
C896 H902 0.930 . S
N897 Li880 1.990 . S
N897 C896 1.314 . S
N897 C899 1.279 . S
C898 C899 1.358 . S
C898 C900 1.356 . S
C898 H952 0.930 . S
C899 N897 1.279 . S
C899 C898 1.358 . S
C899 H903 0.930 . S
C900 C898 1.356 . S
C900 C901 1.348 . S
C901 C896 1.353 . S
C901 C900 1.348 . S
C901 H953 0.929 . S
H902 C896 0.930 . S
H903 C899 0.930 . S
C904 N905 1.314 . S
C904 C906 1.353 . S
C904 H910 0.930 . S
N905 Li881 1.990 1_655 S
N905 C904 1.314 . S
N905 C908 1.279 . S
C906 C904 1.353 . S
C906 C909 1.348 . S
C906 H954 0.929 . S
C907 C908 1.358 . S
C907 C909 1.356 . S
C907 H955 0.930 . S
C908 N905 1.279 . S
C908 C907 1.358 . S
C908 H911 0.930 . S
C909 C906 1.348 . S
C909 C907 1.356 . S
H910 C904 0.930 . S
H911 C908 0.930 . S
C912 C914 1.348 . S
C912 C915 1.356 . S
C912 O942 1.325 . S
N913 C916 1.314 . S
N913 C917 1.279 . S
C914 C912 1.348 . S
C914 C916 1.353 . S
C914 H956 0.929 . S
C915 C912 1.356 . S
C915 C917 1.358 . S
C915 H957 0.930 . S
C916 N913 1.314 . S
C916 C914 1.353 . S
C916 H958 0.930 . S
C917 N913 1.279 . S
C917 C915 1.358 . S
C917 H959 0.930 . S
C918 C919 1.348 . S
C918 C920 1.356 . S
C918 O943 1.325 1_655 S
C919 C918 1.348 . S
C919 C921 1.353 . S
C919 H960 0.929 1_655 S
C920 C918 1.356 . S
C920 C922 1.358 . S
C920 H961 0.930 . S
C921 C919 1.353 . S
C921 N923 1.314 . S
C921 H962 0.930 . S
C922 C920 1.358 . S
C922 N923 1.279 . S
C922 H963 0.930 . S
N923 C921 1.314 . S
N923 C922 1.279 . S
C924 C926 1.353 . S
C924 N927 1.314 . S
C924 H930 0.885 1_455 S
C925 N927 1.279 . S
C925 C928 1.358 . S
C925 H931 0.930 . S
C926 C924 1.353 . S
C926 C929 1.348 . S
C926 H964 0.929 1_455 S
N927 Li882 1.990 . S
N927 C924 1.314 . S
N927 C925 1.279 . S
C928 C925 1.358 . S
C928 C929 1.356 . S
C928 H965 0.930 . S
C929 C926 1.348 . S
C929 C928 1.356 . S
H930 C924 0.885 1_655 S
H931 C925 0.930 . S
C932 N933 1.314 . S
C932 C934 1.353 . S
C932 H938 0.930 . S
N933 Li883 1.990 . S
N933 C932 1.314 . S
N933 C936 1.279 . S
C934 C932 1.353 . S
C934 C937 1.348 . S
C934 H966 0.929 . S
C935 C936 1.358 . S
C935 C937 1.356 . S
C935 H967 0.930 . S
C936 N933 1.279 . S
C936 C935 1.358 . S
C936 H939 0.930 . S
C937 C934 1.348 . S
C937 C935 1.356 . S
H938 C932 0.930 . S
H939 C936 0.930 . S
O940 Li880 1.956 . S
O940 Li881 1.970 . S
O940 Li882 1.961 . S
O940 C884 1.325 . S
O941 Li880 1.970 . S
O941 Li881 1.956 . S
O941 Li883 1.961 . S
O941 C890 1.325 . S
O942 Li880 1.961 . S
O942 Li882 1.956 . S
O942 Li883 1.970 . S
O942 C912 1.325 . S
O943 Li881 1.961 . S
O943 Li882 1.970 . S
O943 Li883 1.956 . S
O943 C918 1.325 1_455 S
H944 C886 0.929 . S
H945 C887 0.930 . S
H946 C888 0.930 . S
H947 C889 0.930 . S
H948 C891 0.930 . S
H949 C893 0.929 . S
H950 C894 0.930 . S
H951 C895 0.930 . S
H952 C898 0.930 . S
H953 C901 0.929 . S
H954 C906 0.929 . S
H955 C907 0.930 . S
H956 C914 0.929 . S
H957 C915 0.930 . S
H958 C916 0.930 . S
H959 C917 0.930 . S
H960 C919 0.929 1_455 S
H961 C920 0.930 . S
H962 C921 0.930 . S
H963 C922 0.930 . S
H964 C926 0.929 1_655 S
H965 C928 0.930 . S
H966 C934 0.929 . S
H967 C935 0.930 . S
Li968 N985 1.990 . S
Li968 O1028 1.956 . S
Li968 O1029 1.970 . S
Li968 O1030 1.961 . S
Li969 N993 1.990 . S
Li969 O1028 1.970 . S
Li969 O1029 1.956 . S
Li969 O1031 1.961 . S
Li970 N1015 1.990 . S
Li970 O1028 1.961 . S
Li970 O1030 1.956 . S
Li970 O1031 1.970 . S
Li971 N1021 1.990 . S
Li971 O1029 1.961 . S
Li971 O1030 1.970 . S
Li971 O1031 1.956 . S
C972 C974 1.348 . S
C972 C975 1.356 . S
C972 O1028 1.325 . S
N973 C976 1.314 . S
N973 C977 1.279 . S
C974 C972 1.348 . S
C974 C976 1.353 . S
C974 H1032 0.929 . S
C975 C972 1.356 . S
C975 C977 1.358 . S
C975 H1033 0.930 . S
C976 N973 1.314 . S
C976 C974 1.353 . S
C976 H1034 0.930 . S
C977 N973 1.279 . S
C977 C975 1.358 . S
C977 H1035 0.930 . S
C978 C981 1.348 . S
C978 C982 1.356 . S
C978 O1029 1.325 . S
C979 N980 1.279 . S
C979 C982 1.358 . S
C979 H1036 0.930 . S
N980 C979 1.279 . S
N980 C983 1.314 . S
C981 C978 1.348 . S
C981 C983 1.353 . S
C981 H1037 0.929 . S
C982 C978 1.356 . S
C982 C979 1.358 . S
C982 H1038 0.930 . S
C983 N980 1.314 . S
C983 C981 1.353 . S
C983 H1039 0.930 . S
C984 N985 1.314 . S
C984 C989 1.353 . S
C984 H990 0.930 . S
N985 Li968 1.990 . S
N985 C984 1.314 . S
N985 C987 1.279 . S
C986 C987 1.358 . S
C986 C988 1.356 . S
C986 H1040 0.930 . S
C987 N985 1.279 . S
C987 C986 1.358 . S
C987 H991 0.930 . S
C988 C986 1.356 . S
C988 C989 1.348 . S
C989 C984 1.353 . S
C989 C988 1.348 . S
C989 H1041 0.929 . S
H990 C984 0.930 . S
H991 C987 0.930 . S
C992 N993 1.314 . S
C992 C994 1.353 . S
C992 H998 0.930 . S
N993 Li969 1.990 . S
N993 C992 1.314 . S
N993 C996 1.279 . S
C994 C992 1.353 . S
C994 C997 1.348 . S
C994 H1042 0.929 . S
C995 C996 1.358 . S
C995 C997 1.356 . S
C995 H1043 0.930 . S
C996 N993 1.279 . S
C996 C995 1.358 . S
C996 H999 0.930 . S
C997 C994 1.348 . S
C997 C995 1.356 . S
H998 C992 0.930 . S
H999 C996 0.930 . S
C1000 C1002 1.348 . S
C1000 C1003 1.356 . S
C1000 O1030 1.325 . S
N1001 C1004 1.314 . S
N1001 C1005 1.279 . S
C1002 C1000 1.348 . S
C1002 C1004 1.353 . S
C1002 H1044 0.929 . S
C1003 C1000 1.356 . S
C1003 C1005 1.358 . S
C1003 H1045 0.930 . S
C1004 N1001 1.314 . S
C1004 C1002 1.353 . S
C1004 H1046 0.930 . S
C1005 N1001 1.279 . S
C1005 C1003 1.358 . S
C1005 H1047 0.930 . S
C1006 C1007 1.348 . S
C1006 C1008 1.356 . S
C1006 O1031 1.325 . S
C1007 C1006 1.348 . S
C1007 C1009 1.353 . S
C1007 H1048 0.929 . S
C1008 C1006 1.356 . S
C1008 C1010 1.358 . S
C1008 H1049 0.930 . S
C1009 C1007 1.353 . S
C1009 N1011 1.314 . S
C1009 H1050 0.930 . S
C1010 C1008 1.358 . S
C1010 N1011 1.279 . S
C1010 H1051 0.930 . S
N1011 C1009 1.314 . S
N1011 C1010 1.279 . S
C1012 C1014 1.353 . S
C1012 N1015 1.314 . S
C1012 H1018 0.930 . S
C1013 N1015 1.279 . S
C1013 C1016 1.358 . S
C1013 H1019 0.930 . S
C1014 C1012 1.353 . S
C1014 C1017 1.348 . S
C1014 H1052 0.929 . S
N1015 Li970 1.990 . S
N1015 C1012 1.314 . S
N1015 C1013 1.279 . S
C1016 C1013 1.358 . S
C1016 C1017 1.356 . S
C1016 H1053 0.930 . S
C1017 C1014 1.348 . S
C1017 C1016 1.356 . S
H1018 C1012 0.930 . S
H1019 C1013 0.930 . S
C1020 N1021 1.314 . S
C1020 C1022 1.353 . S
C1020 H1026 0.930 . S
N1021 Li971 1.990 . S
N1021 C1020 1.314 . S
N1021 C1024 1.279 . S
C1022 C1020 1.353 . S
C1022 C1025 1.348 . S
C1022 H1054 0.929 . S
C1023 C1024 1.358 . S
C1023 C1025 1.356 . S
C1023 H1055 0.930 . S
C1024 N1021 1.279 . S
C1024 C1023 1.358 . S
C1024 H1027 0.930 . S
C1025 C1022 1.348 . S
C1025 C1023 1.356 . S
H1026 C1020 0.930 . S
H1027 C1024 0.930 . S
O1028 Li968 1.956 . S
O1028 Li969 1.970 . S
O1028 Li970 1.961 . S
O1028 C972 1.325 . S
O1029 Li968 1.970 . S
O1029 Li969 1.956 . S
O1029 Li971 1.961 . S
O1029 C978 1.325 . S
O1030 Li968 1.961 . S
O1030 Li970 1.956 . S
O1030 Li971 1.970 . S
O1030 C1000 1.325 . S
O1031 Li969 1.961 . S
O1031 Li970 1.970 . S
O1031 Li971 1.956 . S
O1031 C1006 1.325 . S
H1032 C974 0.929 . S
H1033 C975 0.930 . S
H1034 C976 0.930 . S
H1035 C977 0.930 . S
H1036 C979 0.930 . S
H1037 C981 0.929 . S
H1038 C982 0.930 . S
H1039 C983 0.930 . S
H1040 C986 0.930 . S
H1041 C989 0.929 . S
H1042 C994 0.929 . S
H1043 C995 0.930 . S
H1044 C1002 0.929 . S
H1045 C1003 0.930 . S
H1046 C1004 0.930 . S
H1047 C1005 0.930 . S
H1048 C1007 0.929 . S
H1049 C1008 0.930 . S
H1050 C1009 0.930 . S
H1051 C1010 0.930 . S
H1052 C1014 0.929 . S
H1053 C1016 0.930 . S
H1054 C1022 0.929 . S
H1055 C1023 0.930 . S
Li1056 N1073 1.990 1_545 S
Li1056 O1116 1.956 . S
Li1056 O1117 1.970 . S
Li1056 O1118 1.961 . S
Li1057 N1081 1.990 . S
Li1057 O1116 1.970 . S
Li1057 O1117 1.956 . S
Li1057 O1119 1.961 . S
Li1058 N1103 1.990 . S
Li1058 O1116 1.961 . S
Li1058 O1118 1.956 . S
Li1058 O1119 1.970 . S
Li1059 N1109 1.990 . S
Li1059 O1117 1.961 . S
Li1059 O1118 1.970 . S
Li1059 O1119 1.956 . S
C1060 C1062 1.348 . S
C1060 C1063 1.356 . S
C1060 O1116 1.325 1_565 S
N1061 C1064 1.314 . S
N1061 C1065 1.279 . S
C1062 C1060 1.348 . S
C1062 C1064 1.353 . S
C1062 H1120 0.929 . S
C1063 C1060 1.356 . S
C1063 C1065 1.358 . S
C1063 H1121 0.930 . S
C1064 N1061 1.314 . S
C1064 C1062 1.353 . S
C1064 H1122 0.930 . S
C1065 N1061 1.279 . S
C1065 C1063 1.358 . S
C1065 H1123 0.930 . S
C1066 C1069 1.348 1_545 S
C1066 C1070 1.356 . S
C1066 O1117 1.325 . S
C1067 N1068 1.280 1_545 S
C1067 C1070 1.358 . S
C1067 H1124 0.930 . S
N1068 C1067 1.280 1_565 S
N1068 C1071 1.314 . S
C1069 C1066 1.348 1_565 S
C1069 C1071 1.353 . S
C1069 H1125 0.929 . S
C1070 C1066 1.356 . S
C1070 C1067 1.358 . S
C1070 H1126 0.930 . S
C1071 N1068 1.314 . S
C1071 C1069 1.353 . S
C1071 H1127 0.930 . S
C1072 N1073 1.314 . S
C1072 C1077 1.353 . S
C1072 H1078 0.930 . S
N1073 Li1056 1.990 1_565 S
N1073 C1072 1.314 . S
N1073 C1075 1.279 . S
C1074 C1075 1.358 . S
C1074 C1076 1.356 . S
C1074 H1128 0.930 . S
C1075 N1073 1.279 . S
C1075 C1074 1.358 . S
C1075 H1079 0.930 . S
C1076 C1074 1.356 . S
C1076 C1077 1.348 . S
C1077 C1072 1.353 . S
C1077 C1076 1.348 . S
C1077 H1129 0.929 . S
H1078 C1072 0.930 . S
H1079 C1075 0.930 . S
C1080 N1081 1.314 . S
C1080 C1082 1.353 . S
C1080 H1086 0.930 . S
N1081 Li1057 1.990 . S
N1081 C1080 1.314 . S
N1081 C1084 1.279 . S
C1082 C1080 1.353 . S
C1082 C1085 1.348 . S
C1082 H1130 0.929 . S
C1083 C1084 1.358 . S
C1083 C1085 1.356 . S
C1083 H1131 0.930 . S
C1084 N1081 1.279 . S
C1084 C1083 1.358 . S
C1084 H1087 0.930 . S
C1085 C1082 1.348 . S
C1085 C1083 1.356 . S
H1086 C1080 0.930 . S
H1087 C1084 0.930 . S
C1088 C1090 1.348 . S
C1088 C1091 1.356 . S
C1088 O1118 1.325 . S
N1089 C1092 1.314 . S
N1089 C1093 1.279 . S
C1090 C1088 1.348 . S
C1090 C1092 1.353 . S
C1090 H1132 0.929 . S
C1091 C1088 1.356 . S
C1091 C1093 1.358 . S
C1091 H1133 0.930 . S
C1092 N1089 1.314 . S
C1092 C1090 1.353 . S
C1092 H1134 0.930 . S
C1093 N1089 1.279 . S
C1093 C1091 1.358 . S
C1093 H1135 0.930 . S
C1094 C1095 1.348 . S
C1094 C1096 1.356 . S
C1094 O1119 1.325 . S
C1095 C1094 1.348 . S
C1095 C1097 1.353 . S
C1095 H1136 0.929 . S
C1096 C1094 1.356 . S
C1096 C1098 1.358 . S
C1096 H1137 0.930 . S
C1097 C1095 1.353 . S
C1097 N1099 1.314 . S
C1097 H1138 0.930 . S
C1098 C1096 1.358 . S
C1098 N1099 1.279 . S
C1098 H1139 0.930 . S
N1099 C1097 1.314 . S
N1099 C1098 1.279 . S
C1100 C1102 1.353 . S
C1100 N1103 1.314 . S
C1100 H1106 0.930 . S
C1101 N1103 1.279 . S
C1101 C1104 1.358 . S
C1101 H1107 0.930 . S
C1102 C1100 1.353 . S
C1102 C1105 1.348 . S
C1102 H1140 0.929 . S
N1103 Li1058 1.990 . S
N1103 C1100 1.314 . S
N1103 C1101 1.279 . S
C1104 C1101 1.358 . S
C1104 C1105 1.356 . S
C1104 H1141 0.930 . S
C1105 C1102 1.348 . S
C1105 C1104 1.356 . S
H1106 C1100 0.930 . S
H1107 C1101 0.930 . S
C1108 N1109 1.314 . S
C1108 C1110 1.353 . S
C1108 H1114 0.930 . S
N1109 Li1059 1.990 . S
N1109 C1108 1.314 . S
N1109 C1112 1.279 . S
C1110 C1108 1.353 . S
C1110 C1113 1.348 . S
C1110 H1142 0.929 . S
C1111 C1112 1.358 . S
C1111 C1113 1.356 . S
C1111 H1143 0.930 . S
C1112 N1109 1.279 . S
C1112 C1111 1.358 . S
C1112 H1115 0.930 . S
C1113 C1110 1.348 . S
C1113 C1111 1.356 . S
H1114 C1108 0.930 . S
H1115 C1112 0.930 . S
O1116 Li1056 1.956 . S
O1116 Li1057 1.970 . S
O1116 Li1058 1.961 . S
O1116 C1060 1.325 1_545 S
O1117 Li1056 1.970 . S
O1117 Li1057 1.956 . S
O1117 Li1059 1.961 . S
O1117 C1066 1.325 . S
O1118 Li1056 1.961 . S
O1118 Li1058 1.956 . S
O1118 Li1059 1.970 . S
O1118 C1088 1.325 . S
O1119 Li1057 1.961 . S
O1119 Li1058 1.970 . S
O1119 Li1059 1.956 . S
O1119 C1094 1.325 . S
H1120 C1062 0.929 . S
H1121 C1063 0.930 . S
H1122 C1064 0.930 . S
H1123 C1065 0.930 . S
H1124 C1067 0.930 . S
H1125 C1069 0.929 . S
H1126 C1070 0.930 . S
H1127 C1071 0.930 . S
H1128 C1074 0.930 . S
H1129 C1077 0.929 . S
H1130 C1082 0.929 . S
H1131 C1083 0.930 . S
H1132 C1090 0.929 . S
H1133 C1091 0.930 . S
H1134 C1092 0.930 . S
H1135 C1093 0.930 . S
H1136 C1095 0.929 . S
H1137 C1096 0.930 . S
H1138 C1097 0.930 . S
H1139 C1098 0.930 . S
H1140 C1102 0.929 . S
H1141 C1104 0.930 . S
H1142 C1110 0.929 . S
H1143 C1111 0.930 . S
Li1144 N1161 1.990 1_655 S
Li1144 O1204 1.956 . S
Li1144 O1205 1.970 . S
Li1144 O1206 1.961 . S
Li1145 N1169 1.990 . S
Li1145 O1204 1.970 . S
Li1145 O1205 1.956 . S
Li1145 O1207 1.961 . S
Li1146 N1191 1.990 . S
Li1146 O1204 1.961 . S
Li1146 O1206 1.956 . S
Li1146 O1207 1.970 . S
Li1147 N1197 1.990 . S
Li1147 O1205 1.961 . S
Li1147 O1206 1.970 . S
Li1147 O1207 1.956 . S
C1148 C1150 1.348 . S
C1148 C1151 1.356 . S
C1148 O1204 1.325 1_455 S
N1149 C1152 1.314 . S
N1149 C1153 1.279 . S
C1150 C1148 1.348 . S
C1150 C1152 1.353 . S
C1150 H1208 0.929 . S
C1151 C1148 1.356 . S
C1151 C1153 1.358 . S
C1151 H1209 0.930 . S
C1152 N1149 1.314 . S
C1152 C1150 1.353 . S
C1152 H1210 0.930 . S
C1153 N1149 1.279 . S
C1153 C1151 1.358 . S
C1153 H1211 0.930 . S
C1154 C1157 1.348 1_655 S
C1154 C1158 1.356 . S
C1154 O1205 1.325 . S
C1155 N1156 1.279 1_655 S
C1155 C1158 1.358 . S
C1155 H1212 0.930 . S
N1156 C1155 1.279 1_455 S
N1156 C1159 1.314 . S
C1157 C1154 1.348 1_455 S
C1157 C1159 1.353 . S
C1157 H1213 0.929 . S
C1158 C1154 1.356 . S
C1158 C1155 1.358 . S
C1158 H1214 0.930 . S
C1159 N1156 1.314 . S
C1159 C1157 1.353 . S
C1159 H1215 0.930 . S
C1160 N1161 1.314 . S
C1160 C1165 1.353 . S
C1160 H1166 0.930 . S
N1161 Li1144 1.990 1_455 S
N1161 C1160 1.314 . S
N1161 C1163 1.279 . S
C1162 C1163 1.358 . S
C1162 C1164 1.356 . S
C1162 H1216 0.930 . S
C1163 N1161 1.279 . S
C1163 C1162 1.358 . S
C1163 H1167 0.930 . S
C1164 C1162 1.356 . S
C1164 C1165 1.348 . S
C1165 C1160 1.353 . S
C1165 C1164 1.348 . S
C1165 H1217 0.929 . S
H1166 C1160 0.930 . S
H1167 C1163 0.930 . S
C1168 N1169 1.314 . S
C1168 C1170 1.353 . S
C1168 H1174 0.930 . S
N1169 Li1145 1.990 . S
N1169 C1168 1.314 . S
N1169 C1172 1.279 . S
C1170 C1168 1.353 . S
C1170 C1173 1.348 . S
C1170 H1218 0.929 . S
C1171 C1172 1.358 . S
C1171 C1173 1.356 . S
C1171 H1219 0.930 . S
C1172 N1169 1.279 . S
C1172 C1171 1.358 . S
C1172 H1175 0.930 . S
C1173 C1170 1.348 . S
C1173 C1171 1.356 . S
H1174 C1168 0.930 . S
H1175 C1172 0.930 . S
C1176 C1178 1.348 . S
C1176 C1179 1.356 . S
C1176 O1206 1.325 . S
N1177 C1180 1.314 . S
N1177 C1181 1.279 . S
C1178 C1176 1.348 . S
C1178 C1180 1.353 . S
C1178 H1220 0.929 . S
C1179 C1176 1.356 . S
C1179 C1181 1.358 . S
C1179 H1221 0.930 . S
C1180 N1177 1.314 . S
C1180 C1178 1.353 . S
C1180 H1222 0.930 . S
C1181 N1177 1.279 . S
C1181 C1179 1.358 . S
C1181 H1223 0.930 . S
C1182 C1183 1.348 . S
C1182 C1184 1.356 . S
C1182 O1207 1.325 . S
C1183 C1182 1.348 . S
C1183 C1185 1.353 . S
C1183 H1224 0.929 . S
C1184 C1182 1.356 . S
C1184 C1186 1.358 . S
C1184 H1225 0.930 . S
C1185 C1183 1.353 . S
C1185 N1187 1.314 . S
C1185 H1226 0.930 . S
C1186 C1184 1.358 . S
C1186 N1187 1.279 . S
C1186 H1227 0.930 . S
N1187 C1185 1.314 . S
N1187 C1186 1.279 . S
C1188 C1190 1.353 . S
C1188 N1191 1.314 . S
C1188 H1194 0.930 . S
C1189 N1191 1.279 . S
C1189 C1192 1.358 . S
C1189 H1195 0.930 . S
C1190 C1188 1.353 . S
C1190 C1193 1.348 . S
C1190 H1228 0.929 . S
N1191 Li1146 1.990 . S
N1191 C1188 1.314 . S
N1191 C1189 1.279 . S
C1192 C1189 1.358 . S
C1192 C1193 1.356 . S
C1192 H1229 0.930 . S
C1193 C1190 1.348 . S
C1193 C1192 1.356 . S
H1194 C1188 0.930 . S
H1195 C1189 0.930 . S
C1196 N1197 1.314 . S
C1196 C1198 1.353 . S
C1196 H1202 0.930 . S
N1197 Li1147 1.990 . S
N1197 C1196 1.314 . S
N1197 C1200 1.279 . S
C1198 C1196 1.353 . S
C1198 C1201 1.348 . S
C1198 H1230 0.929 . S
C1199 C1200 1.358 . S
C1199 C1201 1.356 . S
C1199 H1231 0.930 . S
C1200 N1197 1.279 . S
C1200 C1199 1.358 . S
C1200 H1203 0.930 . S
C1201 C1198 1.348 . S
C1201 C1199 1.356 . S
H1202 C1196 0.930 . S
H1203 C1200 0.930 . S
O1204 Li1144 1.956 . S
O1204 Li1145 1.970 . S
O1204 Li1146 1.961 . S
O1204 C1148 1.325 1_655 S
O1205 Li1144 1.970 . S
O1205 Li1145 1.956 . S
O1205 Li1147 1.961 . S
O1205 C1154 1.325 . S
O1206 Li1144 1.961 . S
O1206 Li1146 1.956 . S
O1206 Li1147 1.970 . S
O1206 C1176 1.325 . S
O1207 Li1145 1.961 . S
O1207 Li1146 1.970 . S
O1207 Li1147 1.956 . S
O1207 C1182 1.325 . S
H1208 C1150 0.929 . S
H1209 C1151 0.930 . S
H1210 C1152 0.930 . S
H1211 C1153 0.930 . S
H1212 C1155 0.930 . S
H1213 C1157 0.929 . S
H1214 C1158 0.930 . S
H1215 C1159 0.930 . S
H1216 C1162 0.930 . S
H1217 C1165 0.929 . S
H1218 C1170 0.929 . S
H1219 C1171 0.930 . S
H1220 C1178 0.929 . S
H1221 C1179 0.930 . S
H1222 C1180 0.930 . S
H1223 C1181 0.930 . S
H1224 C1183 0.929 . S
H1225 C1184 0.930 . S
H1226 C1185 0.930 . S
H1227 C1186 0.930 . S
H1228 C1190 0.929 . S
H1229 C1192 0.930 . S
H1230 C1198 0.929 . S
H1231 C1199 0.930 . S
Li1232 N1249 1.990 . S
Li1232 O1292 1.956 . S
Li1232 O1293 1.970 . S
Li1232 O1294 1.961 . S
Li1233 N1257 1.990 . S
Li1233 O1292 1.970 . S
Li1233 O1293 1.956 . S
Li1233 O1295 1.961 . S
Li1234 N1279 1.990 . S
Li1234 O1292 1.961 . S
Li1234 O1294 1.956 . S
Li1234 O1295 1.970 . S
Li1235 N1285 1.990 . S
Li1235 O1293 1.961 . S
Li1235 O1294 1.970 . S
Li1235 O1295 1.956 . S
C1236 C1238 1.348 . S
C1236 C1239 1.356 . S
C1236 O1292 1.325 . S
N1237 C1240 1.314 . S
N1237 C1241 1.279 . S
C1238 C1236 1.348 . S
C1238 C1240 1.353 . S
C1238 H1296 0.929 . S
C1239 C1236 1.356 . S
C1239 C1241 1.358 . S
C1239 H1297 0.930 . S
C1240 N1237 1.314 . S
C1240 C1238 1.353 . S
C1240 H1298 0.930 . S
C1241 N1237 1.279 . S
C1241 C1239 1.358 . S
C1241 H1299 0.930 . S
C1242 C1245 1.348 . S
C1242 C1246 1.356 . S
C1242 O1293 1.325 . S
C1243 N1244 1.279 . S
C1243 C1246 1.358 . S
C1243 H1300 0.930 . S
N1244 C1243 1.279 . S
N1244 C1247 1.314 . S
C1245 C1242 1.348 . S
C1245 C1247 1.353 . S
C1245 H1301 0.929 . S
C1246 C1242 1.356 . S
C1246 C1243 1.358 . S
C1246 H1302 0.930 . S
C1247 N1244 1.314 . S
C1247 C1245 1.353 . S
C1247 H1303 0.930 . S
C1248 N1249 1.314 . S
C1248 C1253 1.353 . S
C1248 H1254 0.930 . S
N1249 Li1232 1.990 . S
N1249 C1248 1.314 . S
N1249 C1251 1.279 . S
C1250 C1251 1.358 . S
C1250 C1252 1.356 . S
C1250 H1304 0.930 . S
C1251 N1249 1.279 . S
C1251 C1250 1.358 . S
C1251 H1255 0.930 . S
C1252 C1250 1.356 . S
C1252 C1253 1.348 . S
C1253 C1248 1.353 . S
C1253 C1252 1.348 . S
C1253 H1305 0.929 . S
H1254 C1248 0.930 . S
H1255 C1251 0.930 . S
C1256 N1257 1.314 . S
C1256 C1258 1.353 . S
C1256 H1262 0.930 . S
N1257 Li1233 1.990 . S
N1257 C1256 1.314 . S
N1257 C1260 1.279 . S
C1258 C1256 1.353 . S
C1258 C1261 1.348 . S
C1258 H1306 0.929 . S
C1259 C1260 1.358 . S
C1259 C1261 1.356 . S
C1259 H1307 0.930 . S
C1260 N1257 1.279 . S
C1260 C1259 1.358 . S
C1260 H1263 0.930 . S
C1261 C1258 1.348 . S
C1261 C1259 1.356 . S
H1262 C1256 0.930 . S
H1263 C1260 0.930 . S
C1264 C1266 1.348 . S
C1264 C1267 1.356 . S
C1264 O1294 1.325 . S
N1265 C1268 1.314 . S
N1265 C1269 1.279 . S
C1266 C1264 1.348 . S
C1266 C1268 1.353 . S
C1266 H1308 0.929 . S
C1267 C1264 1.356 . S
C1267 C1269 1.358 . S
C1267 H1309 0.930 . S
C1268 N1265 1.314 . S
C1268 C1266 1.353 . S
C1268 H1310 0.930 . S
C1269 N1265 1.279 . S
C1269 C1267 1.358 . S
C1269 H1311 0.930 . S
C1270 C1271 1.348 . S
C1270 C1272 1.356 . S
C1270 O1295 1.325 . S
C1271 C1270 1.348 . S
C1271 C1273 1.353 . S
C1271 H1312 0.929 . S
C1272 C1270 1.356 . S
C1272 C1274 1.358 . S
C1272 H1313 0.930 . S
C1273 C1271 1.353 . S
C1273 N1275 1.314 . S
C1273 H1314 0.930 . S
C1274 C1272 1.358 . S
C1274 N1275 1.279 . S
C1274 H1315 0.930 . S
N1275 C1273 1.314 . S
N1275 C1274 1.279 . S
C1276 C1278 1.353 . S
C1276 N1279 1.314 . S
C1276 H1282 0.930 . S
C1277 N1279 1.279 . S
C1277 C1280 1.358 . S
C1277 H1283 0.930 . S
C1278 C1276 1.353 . S
C1278 C1281 1.348 . S
C1278 H1316 0.929 . S
N1279 Li1234 1.990 . S
N1279 C1276 1.314 . S
N1279 C1277 1.279 . S
C1280 C1277 1.358 . S
C1280 C1281 1.356 . S
C1280 H1317 0.930 . S
C1281 C1278 1.348 . S
C1281 C1280 1.356 . S
H1282 C1276 0.930 . S
H1283 C1277 0.930 . S
C1284 N1285 1.314 . S
C1284 C1286 1.353 . S
C1284 H1290 0.930 . S
N1285 Li1235 1.990 . S
N1285 C1284 1.314 . S
N1285 C1288 1.279 . S
C1286 C1284 1.353 . S
C1286 C1289 1.348 . S
C1286 H1318 0.929 . S
C1287 C1288 1.358 . S
C1287 C1289 1.356 . S
C1287 H1319 0.930 . S
C1288 N1285 1.279 . S
C1288 C1287 1.358 . S
C1288 H1291 0.930 . S
C1289 C1286 1.348 . S
C1289 C1287 1.356 . S
H1290 C1284 0.930 . S
H1291 C1288 0.930 . S
O1292 Li1232 1.956 . S
O1292 Li1233 1.970 . S
O1292 Li1234 1.961 . S
O1292 C1236 1.325 . S
O1293 Li1232 1.970 . S
O1293 Li1233 1.956 . S
O1293 Li1235 1.961 . S
O1293 C1242 1.325 . S
O1294 Li1232 1.961 . S
O1294 Li1234 1.956 . S
O1294 Li1235 1.970 . S
O1294 C1264 1.325 . S
O1295 Li1233 1.961 . S
O1295 Li1234 1.970 . S
O1295 Li1235 1.956 . S
O1295 C1270 1.325 . S
H1296 C1238 0.929 . S
H1297 C1239 0.930 . S
H1298 C1240 0.930 . S
H1299 C1241 0.930 . S
H1300 C1243 0.930 . S
H1301 C1245 0.929 . S
H1302 C1246 0.930 . S
H1303 C1247 0.930 . S
H1304 C1250 0.930 . S
H1305 C1253 0.929 . S
H1306 C1258 0.929 . S
H1307 C1259 0.930 . S
H1308 C1266 0.929 . S
H1309 C1267 0.930 . S
H1310 C1268 0.930 . S
H1311 C1269 0.930 . S
H1312 C1271 0.929 . S
H1313 C1272 0.930 . S
H1314 C1273 0.930 . S
H1315 C1274 0.930 . S
H1316 C1278 0.929 . S
H1317 C1280 0.930 . S
H1318 C1286 0.929 . S
H1319 C1287 0.930 . S
Li1320 N1337 1.990 . S
Li1320 O1380 1.956 . S
Li1320 O1381 1.970 . S
Li1320 O1382 1.961 . S
Li1321 N1345 1.990 . S
Li1321 O1380 1.970 . S
Li1321 O1381 1.956 . S
Li1321 O1383 1.961 . S
Li1322 N1367 1.990 . S
Li1322 O1380 1.961 . S
Li1322 O1382 1.956 . S
Li1322 O1383 1.970 . S
Li1323 N1373 1.990 . S
Li1323 O1381 1.961 . S
Li1323 O1382 1.970 . S
Li1323 O1383 1.956 . S
C1324 C1326 1.348 . S
C1324 C1327 1.356 . S
C1324 O1380 1.325 . S
N1325 C1328 1.314 . S
N1325 C1329 1.279 . S
C1326 C1324 1.348 . S
C1326 C1328 1.353 . S
C1326 H1384 0.929 . S
C1327 C1324 1.356 . S
C1327 C1329 1.358 . S
C1327 H1385 0.930 . S
C1328 N1325 1.314 . S
C1328 C1326 1.353 . S
C1328 H1386 0.930 . S
C1329 N1325 1.279 . S
C1329 C1327 1.358 . S
C1329 H1387 0.930 . S
C1330 C1333 1.348 . S
C1330 C1334 1.356 . S
C1330 O1381 1.325 . S
C1331 N1332 1.279 . S
C1331 C1334 1.358 . S
C1331 H1388 0.930 . S
N1332 C1331 1.279 . S
N1332 C1335 1.314 . S
C1333 C1330 1.348 . S
C1333 C1335 1.353 . S
C1333 H1389 0.929 . S
C1334 C1330 1.356 . S
C1334 C1331 1.358 . S
C1334 H1390 0.930 . S
C1335 N1332 1.314 . S
C1335 C1333 1.353 . S
C1335 H1391 0.930 . S
C1336 N1337 1.314 . S
C1336 C1341 1.353 . S
C1336 H1342 0.930 . S
N1337 Li1320 1.990 . S
N1337 C1336 1.314 . S
N1337 C1339 1.279 . S
C1338 C1339 1.358 . S
C1338 C1340 1.356 . S
C1338 H1392 0.930 . S
C1339 N1337 1.279 . S
C1339 C1338 1.358 . S
C1339 H1343 0.930 . S
C1340 C1338 1.356 . S
C1340 C1341 1.348 . S
C1341 C1336 1.353 . S
C1341 C1340 1.348 . S
C1341 H1393 0.929 . S
H1342 C1336 0.930 . S
H1343 C1339 0.930 . S
C1344 N1345 1.314 . S
C1344 C1346 1.353 . S
C1344 H1350 0.930 . S
N1345 Li1321 1.990 . S
N1345 C1344 1.314 . S
N1345 C1348 1.279 . S
C1346 C1344 1.353 . S
C1346 C1349 1.348 . S
C1346 H1394 0.929 . S
C1347 C1348 1.358 . S
C1347 C1349 1.356 . S
C1347 H1395 0.930 . S
C1348 N1345 1.279 . S
C1348 C1347 1.358 . S
C1348 H1351 0.930 . S
C1349 C1346 1.348 . S
C1349 C1347 1.356 . S
H1350 C1344 0.930 . S
H1351 C1348 0.930 . S
C1352 C1354 1.348 . S
C1352 C1355 1.356 . S
C1352 O1382 1.325 . S
N1353 C1356 1.314 . S
N1353 C1357 1.279 . S
C1354 C1352 1.348 . S
C1354 C1356 1.353 . S
C1354 H1396 0.929 . S
C1355 C1352 1.356 . S
C1355 C1357 1.358 . S
C1355 H1397 0.930 . S
C1356 N1353 1.314 . S
C1356 C1354 1.353 . S
C1356 H1398 0.930 . S
C1357 N1353 1.279 . S
C1357 C1355 1.358 . S
C1357 H1399 0.930 . S
C1358 C1359 1.348 . S
C1358 C1360 1.356 . S
C1358 O1383 1.325 . S
C1359 C1358 1.348 . S
C1359 C1361 1.353 . S
C1359 H1400 0.929 . S
C1360 C1358 1.356 . S
C1360 C1362 1.358 . S
C1360 H1401 0.930 . S
C1361 C1359 1.353 . S
C1361 N1363 1.314 . S
C1361 H1402 0.930 . S
C1362 C1360 1.358 . S
C1362 N1363 1.279 . S
C1362 H1403 0.930 . S
N1363 C1361 1.314 . S
N1363 C1362 1.279 . S
C1364 C1366 1.353 . S
C1364 N1367 1.314 . S
C1364 H1370 0.930 . S
C1365 N1367 1.279 . S
C1365 C1368 1.358 . S
C1365 H1371 0.930 . S
C1366 C1364 1.353 . S
C1366 C1369 1.348 . S
C1366 H1404 0.929 . S
N1367 Li1322 1.990 . S
N1367 C1364 1.314 . S
N1367 C1365 1.279 . S
C1368 C1365 1.358 . S
C1368 C1369 1.356 . S
C1368 H1405 0.930 . S
C1369 C1366 1.348 . S
C1369 C1368 1.356 . S
H1370 C1364 0.930 . S
H1371 C1365 0.930 . S
C1372 N1373 1.314 . S
C1372 C1374 1.353 . S
C1372 H1378 0.930 . S
N1373 Li1323 1.990 . S
N1373 C1372 1.314 . S
N1373 C1376 1.279 . S
C1374 C1372 1.353 . S
C1374 C1377 1.348 . S
C1374 H1406 0.929 . S
C1375 C1376 1.358 . S
C1375 C1377 1.356 . S
C1375 H1407 0.930 . S
C1376 N1373 1.279 . S
C1376 C1375 1.358 . S
C1376 H1379 0.930 . S
C1377 C1374 1.348 . S
C1377 C1375 1.356 . S
H1378 C1372 0.930 . S
H1379 C1376 0.930 . S
O1380 Li1320 1.956 . S
O1380 Li1321 1.970 . S
O1380 Li1322 1.961 . S
O1380 C1324 1.325 . S
O1381 Li1320 1.970 . S
O1381 Li1321 1.956 . S
O1381 Li1323 1.961 . S
O1381 C1330 1.325 . S
O1382 Li1320 1.961 . S
O1382 Li1322 1.956 . S
O1382 Li1323 1.970 . S
O1382 C1352 1.325 . S
O1383 Li1321 1.961 . S
O1383 Li1322 1.970 . S
O1383 Li1323 1.956 . S
O1383 C1358 1.325 . S
H1384 C1326 0.929 . S
H1385 C1327 0.930 . S
H1386 C1328 0.930 . S
H1387 C1329 0.930 . S
H1388 C1331 0.930 . S
H1389 C1333 0.929 . S
H1390 C1334 0.930 . S
H1391 C1335 0.930 . S
H1392 C1338 0.930 . S
H1393 C1341 0.929 . S
H1394 C1346 0.929 . S
H1395 C1347 0.930 . S
H1396 C1354 0.929 . S
H1397 C1355 0.930 . S
H1398 C1356 0.930 . S
H1399 C1357 0.930 . S
H1400 C1359 0.929 . S
H1401 C1360 0.930 . S
H1402 C1361 0.930 . S
H1403 C1362 0.930 . S
H1404 C1366 0.929 . S
H1405 C1368 0.930 . S
H1406 C1374 0.929 . S
H1407 C1375 0.930 . S
Li1408 N1425 1.990 . S
Li1408 O1468 1.956 . S
Li1408 O1469 1.970 . S
Li1408 O1470 1.961 . S
Li1409 N1433 1.990 . S
Li1409 O1468 1.970 . S
Li1409 O1469 1.956 . S
Li1409 O1471 1.961 . S
Li1410 N1455 1.990 . S
Li1410 O1468 1.961 . S
Li1410 O1470 1.956 . S
Li1410 O1471 1.970 . S
Li1411 N1461 1.990 1_545 S
Li1411 O1469 1.961 . S
Li1411 O1470 1.970 . S
Li1411 O1471 1.956 . S
C1412 C1414 1.348 . S
C1412 C1415 1.356 . S
C1412 O1468 1.325 . S
N1413 C1416 1.314 . S
N1413 C1417 1.279 . S
C1414 C1412 1.348 . S
C1414 C1416 1.353 . S
C1414 H1472 0.929 . S
C1415 C1412 1.356 . S
C1415 C1417 1.358 . S
C1415 H1473 0.930 . S
C1416 N1413 1.314 . S
C1416 C1414 1.353 . S
C1416 H1474 0.930 . S
C1417 N1413 1.279 . S
C1417 C1415 1.358 . S
C1417 H1475 0.930 . S
C1418 C1421 1.348 . S
C1418 C1422 1.356 . S
C1418 O1469 1.325 1_565 S
C1419 N1420 1.279 . S
C1419 C1422 1.358 . S
C1419 H1476 0.930 . S
N1420 C1419 1.279 . S
N1420 C1423 1.314 . S
C1421 C1418 1.348 . S
C1421 C1423 1.353 . S
C1421 H1477 0.929 1_565 S
C1422 C1418 1.356 . S
C1422 C1419 1.358 . S
C1422 H1478 0.930 . S
C1423 N1420 1.314 . S
C1423 C1421 1.353 . S
C1423 H1479 0.930 . S
C1424 N1425 1.314 . S
C1424 C1429 1.353 . S
C1424 H1430 0.884 1_545 S
N1425 Li1408 1.990 . S
N1425 C1424 1.314 . S
N1425 C1427 1.279 . S
C1426 C1427 1.358 . S
C1426 C1428 1.356 . S
C1426 H1480 0.930 . S
C1427 N1425 1.279 . S
C1427 C1426 1.358 . S
C1427 H1431 0.930 . S
C1428 C1426 1.356 . S
C1428 C1429 1.348 . S
C1429 C1424 1.353 . S
C1429 C1428 1.348 . S
C1429 H1481 0.929 1_545 S
H1430 C1424 0.884 1_565 S
H1431 C1427 0.930 . S
C1432 N1433 1.314 . S
C1432 C1434 1.353 . S
C1432 H1438 0.930 . S
N1433 Li1409 1.990 . S
N1433 C1432 1.314 . S
N1433 C1436 1.279 . S
C1434 C1432 1.353 . S
C1434 C1437 1.348 . S
C1434 H1482 0.929 . S
C1435 C1436 1.358 . S
C1435 C1437 1.356 . S
C1435 H1483 0.930 . S
C1436 N1433 1.279 . S
C1436 C1435 1.358 . S
C1436 H1439 0.930 . S
C1437 C1434 1.348 . S
C1437 C1435 1.356 . S
H1438 C1432 0.930 . S
H1439 C1436 0.930 . S
C1440 C1442 1.348 1_545 S
C1440 C1443 1.356 . S
C1440 O1470 1.325 . S
N1441 C1444 1.305 1_545 S
N1441 C1445 1.288 . S
C1442 C1440 1.348 1_565 S
C1442 C1444 1.353 . S
C1442 H1484 0.929 . S
C1443 C1440 1.356 . S
C1443 C1445 1.358 . S
C1443 H1485 0.930 . S
C1444 N1441 1.305 1_565 S
C1444 C1442 1.353 . S
C1444 H1486 0.930 . S
C1445 N1441 1.288 . S
C1445 C1443 1.358 . S
C1445 H1487 0.930 . S
C1446 C1447 1.348 . S
C1446 C1448 1.356 . S
C1446 O1471 1.325 . S
C1447 C1446 1.348 . S
C1447 C1449 1.353 . S
C1447 H1488 0.929 . S
C1448 C1446 1.356 . S
C1448 C1450 1.358 . S
C1448 H1489 0.930 . S
C1449 C1447 1.353 . S
C1449 N1451 1.314 . S
C1449 H1490 0.930 . S
C1450 C1448 1.358 . S
C1450 N1451 1.279 . S
C1450 H1491 0.930 . S
N1451 C1449 1.314 . S
N1451 C1450 1.279 . S
C1452 C1454 1.353 . S
C1452 N1455 1.314 . S
C1452 H1458 0.930 . S
C1453 N1455 1.279 . S
C1453 C1456 1.358 . S
C1453 H1459 0.930 . S
C1454 C1452 1.353 . S
C1454 C1457 1.348 . S
C1454 H1492 0.929 . S
N1455 Li1410 1.990 . S
N1455 C1452 1.314 . S
N1455 C1453 1.279 . S
C1456 C1453 1.358 . S
C1456 C1457 1.356 . S
C1456 H1493 0.930 . S
C1457 C1454 1.348 . S
C1457 C1456 1.356 . S
H1458 C1452 0.930 . S
H1459 C1453 0.930 . S
C1460 N1461 1.314 . S
C1460 C1462 1.353 . S
C1460 H1466 0.930 . S
N1461 Li1411 1.990 1_565 S
N1461 C1460 1.314 . S
N1461 C1464 1.279 . S
C1462 C1460 1.353 . S
C1462 C1465 1.348 . S
C1462 H1494 0.929 . S
C1463 C1464 1.358 . S
C1463 C1465 1.356 . S
C1463 H1495 0.930 . S
C1464 N1461 1.279 . S
C1464 C1463 1.358 . S
C1464 H1467 0.930 . S
C1465 C1462 1.348 . S
C1465 C1463 1.356 . S
H1466 C1460 0.930 . S
H1467 C1464 0.930 . S
O1468 Li1408 1.956 . S
O1468 Li1409 1.970 . S
O1468 Li1410 1.961 . S
O1468 C1412 1.325 . S
O1469 Li1408 1.970 . S
O1469 Li1409 1.956 . S
O1469 Li1411 1.961 . S
O1469 C1418 1.325 1_545 S
O1470 Li1408 1.961 . S
O1470 Li1410 1.956 . S
O1470 Li1411 1.970 . S
O1470 C1440 1.325 . S
O1471 Li1409 1.961 . S
O1471 Li1410 1.970 . S
O1471 Li1411 1.956 . S
O1471 C1446 1.325 . S
H1472 C1414 0.929 . S
H1473 C1415 0.930 . S
H1474 C1416 0.930 . S
H1475 C1417 0.930 . S
H1476 C1419 0.930 . S
H1477 C1421 0.929 1_545 S
H1478 C1422 0.930 . S
H1479 C1423 0.930 . S
H1480 C1426 0.930 . S
H1481 C1429 0.929 1_565 S
H1482 C1434 0.929 . S
H1483 C1435 0.930 . S
H1484 C1442 0.929 . S
H1485 C1443 0.930 . S
H1486 C1444 0.930 . S
H1487 C1445 0.930 . S
H1488 C1447 0.929 . S
H1489 C1448 0.930 . S
H1490 C1449 0.930 . S
H1491 C1450 0.930 . S
H1492 C1454 0.929 . S
H1493 C1456 0.930 . S
H1494 C1462 0.929 . S
H1495 C1463 0.930 . S
Li1496 N1513 1.990 . S
Li1496 O1556 1.956 . S
Li1496 O1557 1.970 . S
Li1496 O1558 1.961 . S
Li1497 N1521 1.990 . S
Li1497 O1556 1.970 . S
Li1497 O1557 1.956 . S
Li1497 O1559 1.961 . S
Li1498 N1543 1.990 1_655 S
Li1498 O1556 1.961 . S
Li1498 O1558 1.956 . S
Li1498 O1559 1.970 . S
Li1499 N1549 1.990 . S
Li1499 O1557 1.961 . S
Li1499 O1558 1.970 . S
Li1499 O1559 1.956 . S
C1500 C1502 1.348 . S
C1500 C1503 1.356 . S
C1500 O1556 1.325 1_455 S
N1501 C1504 1.314 . S
N1501 C1505 1.279 . S
C1502 C1500 1.348 . S
C1502 C1504 1.353 . S
C1502 H1560 0.929 1_455 S
C1503 C1500 1.356 . S
C1503 C1505 1.358 . S
C1503 H1561 0.930 . S
C1504 N1501 1.314 . S
C1504 C1502 1.353 . S
C1504 H1562 0.930 . S
C1505 N1501 1.279 . S
C1505 C1503 1.358 . S
C1505 H1563 0.930 . S
C1506 C1509 1.348 . S
C1506 C1510 1.356 . S
C1506 O1557 1.325 . S
C1507 N1508 1.279 . S
C1507 C1510 1.358 . S
C1507 H1564 0.930 . S
N1508 C1507 1.279 . S
N1508 C1511 1.314 . S
C1509 C1506 1.348 . S
C1509 C1511 1.353 . S
C1509 H1565 0.929 . S
C1510 C1506 1.356 . S
C1510 C1507 1.358 . S
C1510 H1566 0.930 . S
C1511 N1508 1.314 . S
C1511 C1509 1.353 . S
C1511 H1567 0.930 . S
C1512 N1513 1.314 . S
C1512 C1517 1.353 . S
C1512 H1518 0.930 . S
N1513 Li1496 1.990 . S
N1513 C1512 1.314 . S
N1513 C1515 1.279 . S
C1514 C1515 1.358 . S
C1514 C1516 1.356 . S
C1514 H1568 0.930 . S
C1515 N1513 1.279 . S
C1515 C1514 1.358 . S
C1515 H1519 0.930 . S
C1516 C1514 1.356 . S
C1516 C1517 1.348 . S
C1517 C1512 1.353 . S
C1517 C1516 1.348 . S
C1517 H1569 0.929 . S
H1518 C1512 0.930 . S
H1519 C1515 0.930 . S
C1520 N1521 1.314 . S
C1520 C1522 1.353 . S
C1520 H1526 0.915 1_655 S
N1521 Li1497 1.990 . S
N1521 C1520 1.314 . S
N1521 C1524 1.279 . S
C1522 C1520 1.353 . S
C1522 C1525 1.348 . S
C1522 H1570 0.929 1_655 S
C1523 C1524 1.358 . S
C1523 C1525 1.356 . S
C1523 H1571 0.930 . S
C1524 N1521 1.279 . S
C1524 C1523 1.358 . S
C1524 H1527 0.930 . S
C1525 C1522 1.348 . S
C1525 C1523 1.356 . S
H1526 C1520 0.915 1_455 S
H1527 C1524 0.930 . S
C1528 C1530 1.348 . S
C1528 C1531 1.356 . S
C1528 O1558 1.325 . S
N1529 C1532 1.314 . S
N1529 C1533 1.279 . S
C1530 C1528 1.348 . S
C1530 C1532 1.353 . S
C1530 H1572 0.929 . S
C1531 C1528 1.356 . S
C1531 C1533 1.358 . S
C1531 H1573 0.930 . S
C1532 N1529 1.314 . S
C1532 C1530 1.353 . S
C1532 H1574 0.930 . S
C1533 N1529 1.279 . S
C1533 C1531 1.358 . S
C1533 H1575 0.930 . S
C1534 C1535 1.348 1_655 S
C1534 C1536 1.356 . S
C1534 O1559 1.325 . S
C1535 C1534 1.348 1_455 S
C1535 C1537 1.353 . S
C1535 H1576 0.929 . S
C1536 C1534 1.356 . S
C1536 C1538 1.358 . S
C1536 H1577 0.930 . S
C1537 C1535 1.353 . S
C1537 N1539 1.315 1_455 S
C1537 H1578 0.930 . S
C1538 C1536 1.358 . S
C1538 N1539 1.281 . S
C1538 H1579 0.930 . S
N1539 C1537 1.315 1_655 S
N1539 C1538 1.281 . S
C1540 C1542 1.353 . S
C1540 N1543 1.314 . S
C1540 H1546 0.930 . S
C1541 N1543 1.279 . S
C1541 C1544 1.358 . S
C1541 H1547 0.930 . S
C1542 C1540 1.353 . S
C1542 C1545 1.348 . S
C1542 H1580 0.929 . S
N1543 Li1498 1.990 1_455 S
N1543 C1540 1.314 . S
N1543 C1541 1.279 . S
C1544 C1541 1.358 . S
C1544 C1545 1.356 . S
C1544 H1581 0.930 . S
C1545 C1542 1.348 . S
C1545 C1544 1.356 . S
H1546 C1540 0.930 . S
H1547 C1541 0.930 . S
C1548 N1549 1.314 . S
C1548 C1550 1.353 . S
C1548 H1554 0.930 . S
N1549 Li1499 1.990 . S
N1549 C1548 1.314 . S
N1549 C1552 1.279 . S
C1550 C1548 1.353 . S
C1550 C1553 1.348 . S
C1550 H1582 0.929 . S
C1551 C1552 1.358 . S
C1551 C1553 1.356 . S
C1551 H1583 0.930 . S
C1552 N1549 1.279 . S
C1552 C1551 1.358 . S
C1552 H1555 0.930 . S
C1553 C1550 1.348 . S
C1553 C1551 1.356 . S
H1554 C1548 0.930 . S
H1555 C1552 0.930 . S
O1556 Li1496 1.956 . S
O1556 Li1497 1.970 . S
O1556 Li1498 1.961 . S
O1556 C1500 1.325 1_655 S
O1557 Li1496 1.970 . S
O1557 Li1497 1.956 . S
O1557 Li1499 1.961 . S
O1557 C1506 1.325 . S
O1558 Li1496 1.961 . S
O1558 Li1498 1.956 . S
O1558 Li1499 1.970 . S
O1558 C1528 1.325 . S
O1559 Li1497 1.961 . S
O1559 Li1498 1.970 . S
O1559 Li1499 1.956 . S
O1559 C1534 1.325 . S
H1560 C1502 0.929 1_655 S
H1561 C1503 0.930 . S
H1562 C1504 0.930 . S
H1563 C1505 0.930 . S
H1564 C1507 0.930 . S
H1565 C1509 0.929 . S
H1566 C1510 0.930 . S
H1567 C1511 0.930 . S
H1568 C1514 0.930 . S
H1569 C1517 0.929 . S
H1570 C1522 0.929 1_455 S
H1571 C1523 0.930 . S
H1572 C1530 0.929 . S
H1573 C1531 0.930 . S
H1574 C1532 0.930 . S
H1575 C1533 0.930 . S
H1576 C1535 0.929 . S
H1577 C1536 0.930 . S
H1578 C1537 0.930 . S
H1579 C1538 0.930 . S
H1580 C1542 0.929 . S
H1581 C1544 0.930 . S
H1582 C1550 0.929 . S
H1583 C1551 0.930 . S
H1584 C1603 0.949 . S
H1585 C1604 0.950 . S
H1586 C1606 0.950 . S
H1587 C1607 0.950 . S
H1588 C1609 0.950 . S
H1589 C1612 0.950 . S
H1590 C1613 0.950 . S
H1591 C1615 0.951 . S
H1592 C1616 0.949 . S
H1593 C1618 0.949 . S
H1594 C1619 0.950 . S
H1595 C1621 0.950 . S
H1596 C1622 0.950 . S
H1597 C1624 0.950 . S
H1598 C1627 0.950 . S
H1599 C1628 0.950 . S
H1600 C1630 0.951 . S
H1601 C1631 0.949 . S
C1602 C1603 1.376 . S
C1602 C1607 1.386 . S
C1602 C1608 1.483 . S
C1603 H1584 0.949 . S
C1603 C1602 1.376 . S
C1603 C1604 1.397 . S
C1604 H1585 0.950 . S
C1604 C1603 1.397 . S
C1604 C1605 1.391 . S
C1605 C1604 1.391 . S
C1605 C1606 1.405 . S
C1606 H1586 0.950 . S
C1606 C1605 1.405 . S
C1606 C1607 1.367 . S
C1607 H1587 0.950 . S
C1607 C1602 1.386 . S
C1607 C1606 1.367 . S
C1608 C1602 1.483 . S
C1608 C1609 1.382 . S
C1608 C1610 1.403 . S
C1609 H1588 0.950 . S
C1609 C1608 1.382 . S
C1609 C1625 1.411 . S
C1610 C1608 1.403 . S
C1610 C1611 1.489 . S
C1610 C1624 1.411 . S
C1611 C1610 1.489 . S
C1611 C1612 1.383 . S
C1611 C1616 1.382 . S
C1612 H1589 0.950 . S
C1612 C1611 1.383 . S
C1612 C1613 1.395 . S
C1613 H1590 0.950 . S
C1613 C1612 1.395 . S
C1613 C1614 1.288 . S
C1614 C1613 1.288 . S
C1614 C1615 1.392 . S
C1615 H1591 0.951 . S
C1615 C1614 1.392 . S
C1615 C1616 1.392 . S
C1616 H1592 0.949 . S
C1616 C1611 1.382 . S
C1616 C1615 1.392 . S
C1617 C1618 1.376 . S
C1617 C1622 1.386 . S
C1617 C1623 1.483 . S
C1618 H1593 0.949 . S
C1618 C1617 1.376 . S
C1618 C1619 1.397 . S
C1619 H1594 0.950 . S
C1619 C1618 1.397 . S
C1619 C1620 1.391 . S
C1620 C1619 1.391 . S
C1620 C1621 1.405 . S
C1621 H1595 0.950 . S
C1621 C1620 1.405 . S
C1621 C1622 1.367 . S
C1622 H1596 0.950 . S
C1622 C1617 1.386 . S
C1622 C1621 1.367 . S
C1623 C1617 1.483 . S
C1623 C1624 1.382 . S
C1623 C1625 1.403 . S
C1624 H1597 0.950 . S
C1624 C1610 1.411 . S
C1624 C1623 1.382 . S
C1625 C1609 1.411 . S
C1625 C1623 1.403 . S
C1625 C1626 1.489 . S
C1626 C1625 1.489 . S
C1626 C1627 1.383 . S
C1626 C1631 1.382 . S
C1627 H1598 0.950 . S
C1627 C1626 1.383 . S
C1627 C1628 1.395 . S
C1628 H1599 0.950 . S
C1628 C1627 1.395 . S
C1628 C1629 1.288 . S
C1629 C1628 1.288 . S
C1629 C1630 1.392 . S
C1630 H1600 0.951 . S
C1630 C1629 1.392 . S
C1630 C1631 1.392 . S
C1631 H1601 0.949 . S
C1631 C1626 1.382 . S
C1631 C1630 1.392 . S
H1632 C1651 0.949 . S
H1633 C1652 0.950 . S
H1634 C1654 0.950 . S
H1635 C1655 0.950 . S
H1636 C1657 0.950 . S
H1637 C1660 0.950 . S
H1638 C1661 0.950 . S
H1639 C1663 0.951 . S
H1640 C1664 0.949 . S
H1641 C1666 0.949 . S
H1642 C1667 0.950 . S
H1643 C1669 0.950 . S
H1644 C1670 0.950 . S
H1645 C1672 0.950 . S
H1646 C1675 0.950 . S
H1647 C1676 0.950 . S
H1648 C1678 0.951 . S
H1649 C1679 0.949 . S
C1650 C1651 1.376 . S
C1650 C1655 1.386 . S
C1650 C1656 1.483 . S
C1651 H1632 0.949 . S
C1651 C1650 1.376 . S
C1651 C1652 1.397 . S
C1652 H1633 0.950 . S
C1652 C1651 1.397 . S
C1652 C1653 1.391 . S
C1653 C1652 1.391 . S
C1653 C1654 1.405 . S
C1654 H1634 0.950 . S
C1654 C1653 1.405 . S
C1654 C1655 1.367 . S
C1655 H1635 0.950 . S
C1655 C1650 1.386 . S
C1655 C1654 1.367 . S
C1656 C1650 1.483 . S
C1656 C1657 1.382 . S
C1656 C1658 1.403 . S
C1657 H1636 0.950 . S
C1657 C1656 1.382 . S
C1657 C1673 1.411 . S
C1658 C1656 1.403 . S
C1658 C1659 1.489 . S
C1658 C1672 1.411 . S
C1659 C1658 1.489 . S
C1659 C1660 1.383 . S
C1659 C1664 1.382 . S
C1660 H1637 0.950 . S
C1660 C1659 1.383 . S
C1660 C1661 1.395 . S
C1661 H1638 0.950 . S
C1661 C1660 1.395 . S
C1661 C1662 1.288 . S
C1662 C1661 1.288 . S
C1662 C1663 1.392 . S
C1663 H1639 0.951 . S
C1663 C1662 1.392 . S
C1663 C1664 1.392 . S
C1664 H1640 0.949 . S
C1664 C1659 1.382 . S
C1664 C1663 1.392 . S
C1665 C1666 1.376 . S
C1665 C1670 1.386 . S
C1665 C1671 1.483 . S
C1666 H1641 0.949 . S
C1666 C1665 1.376 . S
C1666 C1667 1.397 . S
C1667 H1642 0.950 . S
C1667 C1666 1.397 . S
C1667 C1668 1.391 . S
C1668 C1667 1.391 . S
C1668 C1669 1.405 . S
C1669 H1643 0.950 . S
C1669 C1668 1.405 . S
C1669 C1670 1.367 . S
C1670 H1644 0.950 . S
C1670 C1665 1.386 . S
C1670 C1669 1.367 . S
C1671 C1665 1.483 . S
C1671 C1672 1.382 . S
C1671 C1673 1.403 . S
C1672 H1645 0.950 . S
C1672 C1658 1.411 . S
C1672 C1671 1.382 . S
C1673 C1657 1.411 . S
C1673 C1671 1.403 . S
C1673 C1674 1.489 . S
C1674 C1673 1.489 . S
C1674 C1675 1.383 . S
C1674 C1679 1.382 . S
C1675 H1646 0.950 . S
C1675 C1674 1.383 . S
C1675 C1676 1.395 . S
C1676 H1647 0.950 . S
C1676 C1675 1.395 . S
C1676 C1677 1.288 . S
C1677 C1676 1.288 . S
C1677 C1678 1.392 . S
C1678 H1648 0.951 . S
C1678 C1677 1.392 . S
C1678 C1679 1.392 . S
C1679 H1649 0.949 . S
C1679 C1674 1.382 . S
C1679 C1678 1.392 . S
H1680 C1699 0.949 . S
H1681 C1700 0.950 . S
H1682 C1702 0.950 . S
H1683 C1703 0.950 . S
H1684 C1705 0.950 . S
H1685 C1708 0.950 . S
H1686 C1709 0.950 . S
H1687 C1711 0.951 . S
H1688 C1712 0.949 . S
H1689 C1714 0.949 . S
H1690 C1715 0.950 . S
H1691 C1717 0.950 . S
H1692 C1718 0.950 . S
H1693 C1720 0.950 . S
H1694 C1723 0.950 . S
H1695 C1724 0.950 . S
H1696 C1726 0.951 . S
H1697 C1727 0.949 . S
C1698 C1699 1.376 . S
C1698 C1703 1.386 . S
C1698 C1704 1.483 . S
C1699 H1680 0.949 . S
C1699 C1698 1.376 . S
C1699 C1700 1.397 . S
C1700 H1681 0.950 . S
C1700 C1699 1.397 . S
C1700 C1701 1.391 . S
C1701 C1700 1.391 . S
C1701 C1702 1.405 . S
C1702 H1682 0.950 . S
C1702 C1701 1.405 . S
C1702 C1703 1.367 . S
C1703 H1683 0.950 . S
C1703 C1698 1.386 . S
C1703 C1702 1.367 . S
C1704 C1698 1.483 . S
C1704 C1705 1.382 . S
C1704 C1706 1.403 . S
C1705 H1684 0.950 . S
C1705 C1704 1.382 . S
C1705 C1721 1.411 . S
C1706 C1704 1.403 . S
C1706 C1707 1.489 . S
C1706 C1720 1.411 . S
C1707 C1706 1.489 . S
C1707 C1708 1.383 . S
C1707 C1712 1.382 . S
C1708 H1685 0.950 . S
C1708 C1707 1.383 . S
C1708 C1709 1.395 . S
C1709 H1686 0.950 . S
C1709 C1708 1.395 . S
C1709 C1710 1.288 . S
C1710 C1709 1.288 . S
C1710 C1711 1.392 . S
C1711 H1687 0.951 . S
C1711 C1710 1.392 . S
C1711 C1712 1.392 . S
C1712 H1688 0.949 . S
C1712 C1707 1.382 . S
C1712 C1711 1.392 . S
C1713 C1714 1.376 . S
C1713 C1718 1.386 . S
C1713 C1719 1.483 . S
C1714 H1689 0.949 . S
C1714 C1713 1.376 . S
C1714 C1715 1.397 . S
C1715 H1690 0.950 . S
C1715 C1714 1.397 . S
C1715 C1716 1.391 . S
C1716 C1715 1.391 . S
C1716 C1717 1.405 . S
C1717 H1691 0.950 . S
C1717 C1716 1.405 . S
C1717 C1718 1.367 . S
C1718 H1692 0.950 . S
C1718 C1713 1.386 . S
C1718 C1717 1.367 . S
C1719 C1713 1.483 . S
C1719 C1720 1.382 . S
C1719 C1721 1.403 . S
C1720 H1693 0.950 . S
C1720 C1706 1.411 . S
C1720 C1719 1.382 . S
C1721 C1705 1.411 . S
C1721 C1719 1.403 . S
C1721 C1722 1.489 . S
C1722 C1721 1.489 . S
C1722 C1723 1.383 . S
C1722 C1727 1.382 . S
C1723 H1694 0.950 . S
C1723 C1722 1.383 . S
C1723 C1724 1.395 . S
C1724 H1695 0.950 . S
C1724 C1723 1.395 . S
C1724 C1725 1.288 . S
C1725 C1724 1.288 . S
C1725 C1726 1.392 . S
C1726 H1696 0.951 . S
C1726 C1725 1.392 . S
C1726 C1727 1.392 . S
C1727 H1697 0.949 . S
C1727 C1722 1.382 . S
C1727 C1726 1.392 . S
H1728 C1747 0.949 . S
H1729 C1748 0.950 . S
H1730 C1750 0.950 . S
H1731 C1751 0.950 . S
H1732 C1753 0.950 . S
H1733 C1756 0.950 . S
H1734 C1757 0.950 . S
H1735 C1759 0.951 . S
H1736 C1760 0.949 . S
H1737 C1762 0.949 . S
H1738 C1763 0.950 . S
H1739 C1765 0.950 . S
H1740 C1766 0.950 . S
H1741 C1768 0.950 . S
H1742 C1771 0.950 . S
H1743 C1772 0.950 . S
H1744 C1774 0.951 . S
H1745 C1775 0.949 . S
C1746 C1747 1.376 . S
C1746 C1751 1.386 . S
C1746 C1752 1.483 . S
C1747 H1728 0.949 . S
C1747 C1746 1.376 . S
C1747 C1748 1.397 . S
C1748 H1729 0.950 . S
C1748 C1747 1.397 . S
C1748 C1749 1.391 . S
C1749 C1748 1.391 . S
C1749 C1750 1.405 . S
C1750 H1730 0.950 . S
C1750 C1749 1.405 . S
C1750 C1751 1.367 . S
C1751 H1731 0.950 . S
C1751 C1746 1.386 . S
C1751 C1750 1.367 . S
C1752 C1746 1.483 . S
C1752 C1753 1.382 . S
C1752 C1754 1.403 . S
C1753 H1732 0.950 . S
C1753 C1752 1.382 . S
C1753 C1769 1.411 . S
C1754 C1752 1.403 . S
C1754 C1755 1.489 . S
C1754 C1768 1.411 . S
C1755 C1754 1.489 . S
C1755 C1756 1.383 . S
C1755 C1760 1.382 . S
C1756 H1733 0.950 . S
C1756 C1755 1.383 . S
C1756 C1757 1.395 . S
C1757 H1734 0.950 . S
C1757 C1756 1.395 . S
C1757 C1758 1.288 . S
C1758 C1757 1.288 . S
C1758 C1759 1.392 . S
C1759 H1735 0.951 . S
C1759 C1758 1.392 . S
C1759 C1760 1.392 . S
C1760 H1736 0.949 . S
C1760 C1755 1.382 . S
C1760 C1759 1.392 . S
C1761 C1762 1.376 . S
C1761 C1766 1.386 . S
C1761 C1767 1.483 . S
C1762 H1737 0.949 . S
C1762 C1761 1.376 . S
C1762 C1763 1.397 . S
C1763 H1738 0.950 . S
C1763 C1762 1.397 . S
C1763 C1764 1.391 . S
C1764 C1763 1.391 . S
C1764 C1765 1.405 . S
C1765 H1739 0.950 . S
C1765 C1764 1.405 . S
C1765 C1766 1.367 . S
C1766 H1740 0.950 . S
C1766 C1761 1.386 . S
C1766 C1765 1.367 . S
C1767 C1761 1.483 . S
C1767 C1768 1.382 . S
C1767 C1769 1.403 . S
C1768 H1741 0.950 . S
C1768 C1754 1.411 . S
C1768 C1767 1.382 . S
C1769 C1753 1.411 . S
C1769 C1767 1.403 . S
C1769 C1770 1.489 . S
C1770 C1769 1.489 . S
C1770 C1771 1.383 . S
C1770 C1775 1.382 . S
C1771 H1742 0.950 . S
C1771 C1770 1.383 . S
C1771 C1772 1.395 . S
C1772 H1743 0.950 . S
C1772 C1771 1.395 . S
C1772 C1773 1.288 . S
C1773 C1772 1.288 . S
C1773 C1774 1.392 . S
C1774 H1744 0.951 . S
C1774 C1773 1.392 . S
C1774 C1775 1.392 . S
C1775 H1745 0.949 . S
C1775 C1770 1.382 . S
C1775 C1774 1.392 . S
H1776 C1795 0.949 . S
H1777 C1796 0.950 . S
H1778 C1798 0.950 . S
H1779 C1799 0.950 . S
H1780 C1801 0.950 . S
H1781 C1804 0.950 . S
H1782 C1805 0.950 . S
H1783 C1807 0.951 . S
H1784 C1808 0.949 . S
H1785 C1810 0.949 . S
H1786 C1811 0.950 . S
H1787 C1813 0.950 . S
H1788 C1814 0.950 . S
H1789 C1816 0.950 . S
H1790 C1819 0.950 . S
H1791 C1820 0.950 . S
H1792 C1822 0.951 . S
H1793 C1823 0.949 . S
C1794 C1795 1.376 . S
C1794 C1799 1.386 . S
C1794 C1800 1.483 . S
C1795 H1776 0.949 . S
C1795 C1794 1.376 . S
C1795 C1796 1.397 . S
C1796 H1777 0.950 . S
C1796 C1795 1.397 . S
C1796 C1797 1.391 . S
C1797 C1796 1.391 . S
C1797 C1798 1.405 . S
C1798 H1778 0.950 . S
C1798 C1797 1.405 . S
C1798 C1799 1.367 . S
C1799 H1779 0.950 . S
C1799 C1794 1.386 . S
C1799 C1798 1.367 . S
C1800 C1794 1.483 . S
C1800 C1801 1.382 . S
C1800 C1802 1.403 . S
C1801 H1780 0.950 . S
C1801 C1800 1.382 . S
C1801 C1817 1.411 . S
C1802 C1800 1.403 . S
C1802 C1803 1.489 . S
C1802 C1816 1.411 . S
C1803 C1802 1.489 . S
C1803 C1804 1.383 . S
C1803 C1808 1.382 . S
C1804 H1781 0.950 . S
C1804 C1803 1.383 . S
C1804 C1805 1.395 . S
C1805 H1782 0.950 . S
C1805 C1804 1.395 . S
C1805 C1806 1.288 . S
C1806 C1805 1.288 . S
C1806 C1807 1.392 . S
C1807 H1783 0.951 . S
C1807 C1806 1.392 . S
C1807 C1808 1.392 . S
C1808 H1784 0.949 . S
C1808 C1803 1.382 . S
C1808 C1807 1.392 . S
C1809 C1810 1.376 . S
C1809 C1814 1.386 . S
C1809 C1815 1.483 . S
C1810 H1785 0.949 . S
C1810 C1809 1.376 . S
C1810 C1811 1.397 . S
C1811 H1786 0.950 . S
C1811 C1810 1.397 . S
C1811 C1812 1.391 . S
C1812 C1811 1.391 . S
C1812 C1813 1.405 . S
C1813 H1787 0.950 . S
C1813 C1812 1.405 . S
C1813 C1814 1.367 . S
C1814 H1788 0.950 . S
C1814 C1809 1.386 . S
C1814 C1813 1.367 . S
C1815 C1809 1.483 . S
C1815 C1816 1.382 . S
C1815 C1817 1.403 . S
C1816 H1789 0.950 . S
C1816 C1802 1.411 . S
C1816 C1815 1.382 . S
C1817 C1801 1.411 . S
C1817 C1815 1.403 . S
C1817 C1818 1.489 . S
C1818 C1817 1.489 . S
C1818 C1819 1.383 . S
C1818 C1823 1.382 . S
C1819 H1790 0.950 . S
C1819 C1818 1.383 . S
C1819 C1820 1.395 . S
C1820 H1791 0.950 . S
C1820 C1819 1.395 . S
C1820 C1821 1.288 . S
C1821 C1820 1.288 . S
C1821 C1822 1.392 . S
C1822 H1792 0.951 . S
C1822 C1821 1.392 . S
C1822 C1823 1.392 . S
C1823 H1793 0.949 . S
C1823 C1818 1.382 . S
C1823 C1822 1.392 . S
H1824 C1843 0.949 . S
H1825 C1844 0.950 . S
H1826 C1846 0.950 . S
H1827 C1847 0.950 . S
H1828 C1849 0.950 . S
H1829 C1852 0.950 . S
H1830 C1853 0.950 . S
H1831 C1855 0.951 . S
H1832 C1856 0.949 . S
H1833 C1858 0.949 . S
H1834 C1859 0.950 . S
H1835 C1861 0.950 . S
H1836 C1862 0.950 . S
H1837 C1864 0.950 . S
H1838 C1867 0.950 . S
H1839 C1868 0.950 . S
H1840 C1870 0.951 . S
H1841 C1871 0.949 . S
C1842 C1843 1.376 . S
C1842 C1847 1.386 . S
C1842 C1848 1.483 . S
C1843 H1824 0.949 . S
C1843 C1842 1.376 . S
C1843 C1844 1.397 . S
C1844 H1825 0.950 . S
C1844 C1843 1.397 . S
C1844 C1845 1.391 . S
C1845 C1844 1.391 . S
C1845 C1846 1.405 . S
C1846 H1826 0.950 . S
C1846 C1845 1.405 . S
C1846 C1847 1.367 . S
C1847 H1827 0.950 . S
C1847 C1842 1.386 . S
C1847 C1846 1.367 . S
C1848 C1842 1.483 . S
C1848 C1849 1.382 . S
C1848 C1850 1.403 . S
C1849 H1828 0.950 . S
C1849 C1848 1.382 . S
C1849 C1865 1.411 . S
C1850 C1848 1.403 . S
C1850 C1851 1.489 . S
C1850 C1864 1.411 . S
C1851 C1850 1.489 . S
C1851 C1852 1.383 . S
C1851 C1856 1.382 . S
C1852 H1829 0.950 . S
C1852 C1851 1.383 . S
C1852 C1853 1.395 . S
C1853 H1830 0.950 . S
C1853 C1852 1.395 . S
C1853 C1854 1.288 . S
C1854 C1853 1.288 . S
C1854 C1855 1.392 . S
C1855 H1831 0.951 . S
C1855 C1854 1.392 . S
C1855 C1856 1.392 . S
C1856 H1832 0.949 . S
C1856 C1851 1.382 . S
C1856 C1855 1.392 . S
C1857 C1858 1.376 . S
C1857 C1862 1.386 . S
C1857 C1863 1.483 . S
C1858 H1833 0.949 . S
C1858 C1857 1.376 . S
C1858 C1859 1.397 . S
C1859 H1834 0.950 . S
C1859 C1858 1.397 . S
C1859 C1860 1.391 . S
C1860 C1859 1.391 . S
C1860 C1861 1.405 . S
C1861 H1835 0.950 . S
C1861 C1860 1.405 . S
C1861 C1862 1.367 . S
C1862 H1836 0.950 . S
C1862 C1857 1.386 . S
C1862 C1861 1.367 . S
C1863 C1857 1.483 . S
C1863 C1864 1.382 . S
C1863 C1865 1.403 . S
C1864 H1837 0.950 . S
C1864 C1850 1.411 . S
C1864 C1863 1.382 . S
C1865 C1849 1.411 . S
C1865 C1863 1.403 . S
C1865 C1866 1.489 . S
C1866 C1865 1.489 . S
C1866 C1867 1.383 . S
C1866 C1871 1.382 . S
C1867 H1838 0.950 . S
C1867 C1866 1.383 . S
C1867 C1868 1.395 . S
C1868 H1839 0.950 . S
C1868 C1867 1.395 . S
C1868 C1869 1.288 . S
C1869 C1868 1.288 . S
C1869 C1870 1.392 . S
C1870 H1840 0.951 . S
C1870 C1869 1.392 . S
C1870 C1871 1.392 . S
C1871 H1841 0.949 . S
C1871 C1866 1.382 . S
C1871 C1870 1.392 . S
H1872 C1891 0.949 . S
H1873 C1892 0.950 . S
H1874 C1894 0.950 . S
H1875 C1895 0.950 . S
H1876 C1897 0.950 . S
H1877 C1900 0.950 . S
H1878 C1901 0.950 . S
H1879 C1903 0.951 . S
H1880 C1904 0.949 . S
H1881 C1906 0.949 . S
H1882 C1907 0.950 . S
H1883 C1909 0.950 . S
H1884 C1910 0.950 . S
H1885 C1912 0.950 . S
H1886 C1915 0.950 . S
H1887 C1916 0.950 . S
H1888 C1918 0.951 . S
H1889 C1919 0.949 . S
C1890 C1891 1.376 . S
C1890 C1895 1.386 . S
C1890 C1896 1.483 . S
C1891 H1872 0.949 . S
C1891 C1890 1.376 . S
C1891 C1892 1.397 . S
C1892 H1873 0.950 . S
C1892 C1891 1.397 . S
C1892 C1893 1.391 . S
C1893 C1892 1.391 . S
C1893 C1894 1.405 . S
C1894 H1874 0.950 . S
C1894 C1893 1.405 . S
C1894 C1895 1.367 . S
C1895 H1875 0.950 . S
C1895 C1890 1.386 . S
C1895 C1894 1.367 . S
C1896 C1890 1.483 . S
C1896 C1897 1.382 . S
C1896 C1898 1.403 . S
C1897 H1876 0.950 . S
C1897 C1896 1.382 . S
C1897 C1913 1.411 . S
C1898 C1896 1.403 . S
C1898 C1899 1.489 . S
C1898 C1912 1.411 . S
C1899 C1898 1.489 . S
C1899 C1900 1.383 . S
C1899 C1904 1.382 . S
C1900 H1877 0.950 . S
C1900 C1899 1.383 . S
C1900 C1901 1.395 . S
C1901 H1878 0.950 . S
C1901 C1900 1.395 . S
C1901 C1902 1.288 . S
C1902 C1901 1.288 . S
C1902 C1903 1.392 . S
C1903 H1879 0.951 . S
C1903 C1902 1.392 . S
C1903 C1904 1.392 . S
C1904 H1880 0.949 . S
C1904 C1899 1.382 . S
C1904 C1903 1.392 . S
C1905 C1906 1.376 . S
C1905 C1910 1.386 . S
C1905 C1911 1.483 . S
C1906 H1881 0.949 . S
C1906 C1905 1.376 . S
C1906 C1907 1.397 . S
C1907 H1882 0.950 . S
C1907 C1906 1.397 . S
C1907 C1908 1.391 . S
C1908 C1907 1.391 . S
C1908 C1909 1.405 . S
C1909 H1883 0.950 . S
C1909 C1908 1.405 . S
C1909 C1910 1.367 . S
C1910 H1884 0.950 . S
C1910 C1905 1.386 . S
C1910 C1909 1.367 . S
C1911 C1905 1.483 . S
C1911 C1912 1.382 . S
C1911 C1913 1.403 . S
C1912 H1885 0.950 . S
C1912 C1898 1.411 . S
C1912 C1911 1.382 . S
C1913 C1897 1.411 . S
C1913 C1911 1.403 . S
C1913 C1914 1.489 . S
C1914 C1913 1.489 . S
C1914 C1915 1.383 . S
C1914 C1919 1.382 . S
C1915 H1886 0.950 . S
C1915 C1914 1.383 . S
C1915 C1916 1.395 . S
C1916 H1887 0.950 . S
C1916 C1915 1.395 . S
C1916 C1917 1.288 . S
C1917 C1916 1.288 . S
C1917 C1918 1.392 . S
C1918 H1888 0.951 . S
C1918 C1917 1.392 . S
C1918 C1919 1.392 . S
C1919 H1889 0.949 . S
C1919 C1914 1.382 . S
C1919 C1918 1.392 . S
H1920 C1939 0.949 . S
H1921 C1940 0.950 . S
H1922 C1942 0.950 . S
H1923 C1943 0.950 . S
H1924 C1945 0.950 . S
H1925 C1948 0.950 . S
H1926 C1949 0.950 . S
H1927 C1951 0.951 . S
H1928 C1952 0.949 . S
H1929 C1954 0.949 . S
H1930 C1955 0.950 . S
H1931 C1957 0.950 . S
H1932 C1958 0.950 . S
H1933 C1960 0.950 . S
H1934 C1963 0.950 . S
H1935 C1964 0.950 . S
H1936 C1966 0.951 . S
H1937 C1967 0.949 . S
C1938 C1939 1.376 . S
C1938 C1943 1.386 . S
C1938 C1944 1.483 . S
C1939 H1920 0.949 . S
C1939 C1938 1.376 . S
C1939 C1940 1.397 . S
C1940 H1921 0.950 . S
C1940 C1939 1.397 . S
C1940 C1941 1.391 . S
C1941 C1940 1.391 . S
C1941 C1942 1.405 . S
C1942 H1922 0.950 . S
C1942 C1941 1.405 . S
C1942 C1943 1.367 . S
C1943 H1923 0.950 . S
C1943 C1938 1.386 . S
C1943 C1942 1.367 . S
C1944 C1938 1.483 . S
C1944 C1945 1.382 . S
C1944 C1946 1.403 . S
C1945 H1924 0.950 . S
C1945 C1944 1.382 . S
C1945 C1961 1.411 . S
C1946 C1944 1.403 . S
C1946 C1947 1.489 . S
C1946 C1960 1.411 . S
C1947 C1946 1.489 . S
C1947 C1948 1.383 . S
C1947 C1952 1.382 . S
C1948 H1925 0.950 . S
C1948 C1947 1.383 . S
C1948 C1949 1.395 . S
C1949 H1926 0.950 . S
C1949 C1948 1.395 . S
C1949 C1950 1.288 . S
C1950 C1949 1.288 . S
C1950 C1951 1.392 . S
C1951 H1927 0.951 . S
C1951 C1950 1.392 . S
C1951 C1952 1.392 . S
C1952 H1928 0.949 . S
C1952 C1947 1.382 . S
C1952 C1951 1.392 . S
C1953 C1954 1.376 . S
C1953 C1958 1.386 . S
C1953 C1959 1.483 . S
C1954 H1929 0.949 . S
C1954 C1953 1.376 . S
C1954 C1955 1.397 . S
C1955 H1930 0.950 . S
C1955 C1954 1.397 . S
C1955 C1956 1.391 . S
C1956 C1955 1.391 . S
C1956 C1957 1.405 . S
C1957 H1931 0.950 . S
C1957 C1956 1.405 . S
C1957 C1958 1.367 . S
C1958 H1932 0.950 . S
C1958 C1953 1.386 . S
C1958 C1957 1.367 . S
C1959 C1953 1.483 . S
C1959 C1960 1.382 . S
C1959 C1961 1.403 . S
C1960 H1933 0.950 . S
C1960 C1946 1.411 . S
C1960 C1959 1.382 . S
C1961 C1945 1.411 . S
C1961 C1959 1.403 . S
C1961 C1962 1.489 . S
C1962 C1961 1.489 . S
C1962 C1963 1.383 . S
C1962 C1967 1.382 . S
C1963 H1934 0.950 . S
C1963 C1962 1.383 . S
C1963 C1964 1.395 . S
C1964 H1935 0.950 . S
C1964 C1963 1.395 . S
C1964 C1965 1.288 . S
C1965 C1964 1.288 . S
C1965 C1966 1.392 . S
C1966 H1936 0.951 . S
C1966 C1965 1.392 . S
C1966 C1967 1.392 . S
C1967 H1937 0.949 . S
C1967 C1962 1.382 . S
C1967 C1966 1.392 . S
H1968 C1987 0.949 . S
H1969 C1988 0.950 . S
H1970 C1990 0.950 . S
H1971 C1991 0.950 . S
H1972 C1993 0.950 . S
H1973 C1996 0.950 . S
H1974 C1997 0.950 . S
H1975 C1999 0.951 . S
H1976 C2000 0.949 . S
H1977 C2002 0.949 . S
H1978 C2003 0.950 . S
H1979 C2005 0.950 . S
H1980 C2006 0.950 . S
H1981 C2008 0.950 . S
H1982 C2011 0.950 . S
H1983 C2012 0.950 . S
H1984 C2014 0.951 . S
H1985 C2015 0.949 . S
C1986 C1987 1.376 . S
C1986 C1991 1.386 . S
C1986 C1992 1.483 . S
C1987 H1968 0.949 . S
C1987 C1986 1.376 . S
C1987 C1988 1.397 . S
C1988 H1969 0.950 . S
C1988 C1987 1.397 . S
C1988 C1989 1.391 . S
C1989 C1988 1.391 . S
C1989 C1990 1.405 . S
C1990 H1970 0.950 . S
C1990 C1989 1.405 . S
C1990 C1991 1.367 . S
C1991 H1971 0.950 . S
C1991 C1986 1.386 . S
C1991 C1990 1.367 . S
C1992 C1986 1.483 . S
C1992 C1993 1.382 . S
C1992 C1994 1.403 . S
C1993 H1972 0.950 . S
C1993 C1992 1.382 . S
C1993 C2009 1.411 . S
C1994 C1992 1.403 . S
C1994 C1995 1.489 . S
C1994 C2008 1.411 . S
C1995 C1994 1.489 . S
C1995 C1996 1.383 . S
C1995 C2000 1.382 . S
C1996 H1973 0.950 . S
C1996 C1995 1.383 . S
C1996 C1997 1.395 . S
C1997 H1974 0.950 . S
C1997 C1996 1.395 . S
C1997 C1998 1.288 . S
C1998 C1997 1.288 . S
C1998 C1999 1.392 . S
C1999 H1975 0.951 . S
C1999 C1998 1.392 . S
C1999 C2000 1.392 . S
C2000 H1976 0.949 . S
C2000 C1995 1.382 . S
C2000 C1999 1.392 . S
C2001 C2002 1.376 . S
C2001 C2006 1.386 . S
C2001 C2007 1.483 . S
C2002 H1977 0.949 . S
C2002 C2001 1.376 . S
C2002 C2003 1.397 . S
C2003 H1978 0.950 . S
C2003 C2002 1.397 . S
C2003 C2004 1.391 . S
C2004 C2003 1.391 . S
C2004 C2005 1.405 . S
C2005 H1979 0.950 . S
C2005 C2004 1.405 . S
C2005 C2006 1.367 . S
C2006 H1980 0.950 . S
C2006 C2001 1.386 . S
C2006 C2005 1.367 . S
C2007 C2001 1.483 . S
C2007 C2008 1.382 . S
C2007 C2009 1.403 . S
C2008 H1981 0.950 . S
C2008 C1994 1.411 . S
C2008 C2007 1.382 . S
C2009 C1993 1.411 . S
C2009 C2007 1.403 . S
C2009 C2010 1.489 . S
C2010 C2009 1.489 . S
C2010 C2011 1.383 . S
C2010 C2015 1.382 . S
C2011 H1982 0.950 . S
C2011 C2010 1.383 . S
C2011 C2012 1.395 . S
C2012 H1983 0.950 . S
C2012 C2011 1.395 . S
C2012 C2013 1.288 . S
C2013 C2012 1.288 . S
C2013 C2014 1.392 . S
C2014 H1984 0.951 . S
C2014 C2013 1.392 . S
C2014 C2015 1.392 . S
C2015 H1985 0.949 . S
C2015 C2010 1.382 . S
C2015 C2014 1.392 . S
H2016 C2035 0.949 . S
H2017 C2036 0.950 . S
H2018 C2038 0.950 . S
H2019 C2039 0.950 . S
H2020 C2041 0.950 . S
H2021 C2044 0.950 . S
H2022 C2045 0.950 . S
H2023 C2047 0.951 . S
H2024 C2048 0.949 . S
H2025 C2050 0.949 . S
H2026 C2051 0.950 . S
H2027 C2053 0.950 . S
H2028 C2054 0.950 . S
H2029 C2056 0.950 . S
H2030 C2059 0.950 . S
H2031 C2060 0.950 . S
H2032 C2062 0.951 . S
H2033 C2063 0.949 . S
C2034 C2035 1.376 . S
C2034 C2039 1.386 1_655 S
C2034 C2040 1.483 . S
C2035 H2016 0.949 . S
C2035 C2034 1.376 . S
C2035 C2036 1.397 . S
C2036 H2017 0.950 . S
C2036 C2035 1.397 . S
C2036 C2037 1.391 . S
C2037 C2036 1.391 . S
C2037 C2038 1.405 1_655 S
C2038 H2018 0.950 . S
C2038 C2037 1.405 1_455 S
C2038 C2039 1.367 . S
C2039 H2019 0.950 . S
C2039 C2034 1.386 1_455 S
C2039 C2038 1.367 . S
C2040 C2034 1.483 . S
C2040 C2041 1.382 . S
C2040 C2042 1.403 1_655 S
C2041 H2020 0.950 . S
C2041 C2040 1.382 . S
C2041 C2057 1.411 . S
C2042 C2040 1.403 1_455 S
C2042 C2043 1.489 . S
C2042 C2056 1.411 . S
C2043 C2042 1.489 . S
C2043 C2044 1.383 1_455 S
C2043 C2048 1.382 . S
C2044 H2021 0.950 . S
C2044 C2043 1.383 1_655 S
C2044 C2045 1.395 . S
C2045 H2022 0.950 . S
C2045 C2044 1.395 . S
C2045 C2046 1.288 1_655 S
C2046 C2045 1.288 1_455 S
C2046 C2047 1.392 . S
C2047 H2023 0.951 . S
C2047 C2046 1.392 . S
C2047 C2048 1.392 . S
C2048 H2024 0.949 . S
C2048 C2043 1.382 . S
C2048 C2047 1.392 . S
C2049 C2050 1.376 . S
C2049 C2054 1.386 1_455 S
C2049 C2055 1.483 . S
C2050 H2025 0.949 . S
C2050 C2049 1.376 . S
C2050 C2051 1.397 . S
C2051 H2026 0.950 . S
C2051 C2050 1.397 . S
C2051 C2052 1.391 . S
C2052 C2051 1.391 . S
C2052 C2053 1.405 1_455 S
C2053 H2027 0.950 . S
C2053 C2052 1.405 1_655 S
C2053 C2054 1.367 . S
C2054 H2028 0.950 . S
C2054 C2049 1.386 1_655 S
C2054 C2053 1.367 . S
C2055 C2049 1.483 . S
C2055 C2056 1.382 . S
C2055 C2057 1.403 1_455 S
C2056 H2029 0.950 . S
C2056 C2042 1.411 . S
C2056 C2055 1.382 . S
C2057 C2041 1.411 . S
C2057 C2055 1.403 1_655 S
C2057 C2058 1.489 . S
C2058 C2057 1.489 . S
C2058 C2059 1.383 1_655 S
C2058 C2063 1.382 . S
C2059 H2030 0.950 . S
C2059 C2058 1.383 1_455 S
C2059 C2060 1.395 . S
C2060 H2031 0.950 . S
C2060 C2059 1.395 . S
C2060 C2061 1.288 1_455 S
C2061 C2060 1.288 1_655 S
C2061 C2062 1.392 . S
C2062 H2032 0.951 . S
C2062 C2061 1.392 . S
C2062 C2063 1.392 . S
C2063 H2033 0.949 . S
C2063 C2058 1.382 . S
C2063 C2062 1.392 . S
H2064 C2083 0.949 . S
H2065 C2084 0.950 . S
H2066 C2086 0.950 . S
H2067 C2087 0.950 . S
H2068 C2089 0.950 . S
H2069 C2092 0.950 . S
H2070 C2093 0.950 . S
H2071 C2095 0.951 . S
H2072 C2096 0.949 . S
H2073 C2098 0.949 . S
H2074 C2099 0.950 . S
H2075 C2101 0.950 . S
H2076 C2102 0.950 . S
H2077 C2104 0.950 . S
H2078 C2107 0.950 . S
H2079 C2108 0.950 . S
H2080 C2110 0.951 . S
H2081 C2111 0.949 . S
C2082 C2083 1.376 . S
C2082 C2087 1.386 . S
C2082 C2088 1.483 . S
C2083 H2064 0.949 . S
C2083 C2082 1.376 . S
C2083 C2084 1.397 . S
C2084 H2065 0.950 . S
C2084 C2083 1.397 . S
C2084 C2085 1.391 . S
C2085 C2084 1.391 . S
C2085 C2086 1.405 . S
C2086 H2066 0.950 . S
C2086 C2085 1.405 . S
C2086 C2087 1.367 . S
C2087 H2067 0.950 . S
C2087 C2082 1.386 . S
C2087 C2086 1.367 . S
C2088 C2082 1.483 . S
C2088 C2089 1.382 . S
C2088 C2090 1.403 . S
C2089 H2068 0.950 . S
C2089 C2088 1.382 . S
C2089 C2105 1.411 . S
C2090 C2088 1.403 . S
C2090 C2091 1.489 . S
C2090 C2104 1.411 . S
C2091 C2090 1.489 . S
C2091 C2092 1.383 . S
C2091 C2096 1.382 . S
C2092 H2069 0.950 . S
C2092 C2091 1.383 . S
C2092 C2093 1.395 . S
C2093 H2070 0.950 . S
C2093 C2092 1.395 . S
C2093 C2094 1.288 . S
C2094 C2093 1.288 . S
C2094 C2095 1.392 . S
C2095 H2071 0.951 . S
C2095 C2094 1.392 . S
C2095 C2096 1.392 . S
C2096 H2072 0.949 . S
C2096 C2091 1.382 . S
C2096 C2095 1.392 . S
C2097 C2098 1.376 . S
C2097 C2102 1.386 . S
C2097 C2103 1.483 . S
C2098 H2073 0.949 . S
C2098 C2097 1.376 . S
C2098 C2099 1.397 . S
C2099 H2074 0.950 . S
C2099 C2098 1.397 . S
C2099 C2100 1.391 . S
C2100 C2099 1.391 . S
C2100 C2101 1.405 . S
C2101 H2075 0.950 . S
C2101 C2100 1.405 . S
C2101 C2102 1.367 . S
C2102 H2076 0.950 . S
C2102 C2097 1.386 . S
C2102 C2101 1.367 . S
C2103 C2097 1.483 . S
C2103 C2104 1.382 . S
C2103 C2105 1.403 . S
C2104 H2077 0.950 . S
C2104 C2090 1.411 . S
C2104 C2103 1.382 . S
C2105 C2089 1.411 . S
C2105 C2103 1.403 . S
C2105 C2106 1.489 . S
C2106 C2105 1.489 . S
C2106 C2107 1.383 . S
C2106 C2111 1.382 . S
C2107 H2078 0.950 . S
C2107 C2106 1.383 . S
C2107 C2108 1.395 . S
C2108 H2079 0.950 . S
C2108 C2107 1.395 . S
C2108 C2109 1.288 . S
C2109 C2108 1.288 . S
C2109 C2110 1.392 . S
C2110 H2080 0.951 . S
C2110 C2109 1.392 . S
C2110 C2111 1.392 . S
C2111 H2081 0.949 . S
C2111 C2106 1.382 . S
C2111 C2110 1.392 . S
H2112 C2131 0.949 . S
H2113 C2132 0.950 . S
H2114 C2134 0.950 . S
H2115 C2135 0.950 . S
H2116 C2137 0.950 . S
H2117 C2140 0.950 . S
H2118 C2141 0.950 . S
H2119 C2143 0.951 . S
H2120 C2144 0.949 . S
H2121 C2146 0.949 . S
H2122 C2147 0.950 . S
H2123 C2149 0.950 . S
H2124 C2150 0.950 . S
H2125 C2152 0.950 . S
H2126 C2155 0.950 . S
H2127 C2156 0.950 . S
H2128 C2158 0.951 . S
H2129 C2159 0.949 . S
C2130 C2131 1.376 . S
C2130 C2135 1.386 1_545 S
C2130 C2136 1.483 . S
C2131 H2112 0.949 . S
C2131 C2130 1.376 . S
C2131 C2132 1.397 . S
C2132 H2113 0.950 . S
C2132 C2131 1.397 . S
C2132 C2133 1.391 . S
C2133 C2132 1.391 . S
C2133 C2134 1.405 1_545 S
C2134 H2114 0.950 . S
C2134 C2133 1.405 1_565 S
C2134 C2135 1.367 . S
C2135 H2115 0.950 . S
C2135 C2130 1.386 1_565 S
C2135 C2134 1.367 . S
C2136 C2130 1.483 . S
C2136 C2137 1.382 . S
C2136 C2138 1.403 1_545 S
C2137 H2116 0.950 . S
C2137 C2136 1.382 . S
C2137 C2153 1.411 . S
C2138 C2136 1.403 1_565 S
C2138 C2139 1.489 . S
C2138 C2152 1.411 . S
C2139 C2138 1.489 . S
C2139 C2140 1.383 1_565 S
C2139 C2144 1.382 . S
C2140 H2117 0.950 . S
C2140 C2139 1.383 1_545 S
C2140 C2141 1.395 . S
C2141 H2118 0.950 . S
C2141 C2140 1.395 . S
C2141 C2142 1.288 1_545 S
C2142 C2141 1.288 1_565 S
C2142 C2143 1.392 . S
C2143 H2119 0.951 . S
C2143 C2142 1.392 . S
C2143 C2144 1.392 . S
C2144 H2120 0.949 . S
C2144 C2139 1.382 . S
C2144 C2143 1.392 . S
C2145 C2146 1.376 . S
C2145 C2150 1.386 1_565 S
C2145 C2151 1.483 . S
C2146 H2121 0.949 . S
C2146 C2145 1.376 . S
C2146 C2147 1.397 . S
C2147 H2122 0.950 . S
C2147 C2146 1.397 . S
C2147 C2148 1.391 . S
C2148 C2147 1.391 . S
C2148 C2149 1.405 1_565 S
C2149 H2123 0.950 . S
C2149 C2148 1.405 1_545 S
C2149 C2150 1.367 . S
C2150 H2124 0.950 . S
C2150 C2145 1.386 1_545 S
C2150 C2149 1.367 . S
C2151 C2145 1.483 . S
C2151 C2152 1.382 . S
C2151 C2153 1.403 1_565 S
C2152 H2125 0.950 . S
C2152 C2138 1.411 . S
C2152 C2151 1.382 . S
C2153 C2137 1.411 . S
C2153 C2151 1.403 1_545 S
C2153 C2154 1.489 . S
C2154 C2153 1.489 . S
C2154 C2155 1.383 1_545 S
C2154 C2159 1.382 . S
C2155 H2126 0.950 . S
C2155 C2154 1.383 1_565 S
C2155 C2156 1.395 . S
C2156 H2127 0.950 . S
C2156 C2155 1.395 . S
C2156 C2157 1.288 1_565 S
C2157 C2156 1.288 1_545 S
C2157 C2158 1.392 . S
C2158 H2128 0.951 . S
C2158 C2157 1.392 . S
C2158 C2159 1.392 . S
C2159 H2129 0.949 . S
C2159 C2154 1.382 . S
C2159 C2158 1.392 . S
H2160 C2179 0.949 . S
H2161 C2180 0.950 . S
H2162 C2182 0.950 . S
H2163 C2183 0.950 . S
H2164 C2185 0.950 . S
H2165 C2188 0.950 . S
H2166 C2189 0.950 . S
H2167 C2191 0.951 . S
H2168 C2192 0.949 . S
H2169 C2194 0.949 . S
H2170 C2195 0.950 . S
H2171 C2197 0.950 . S
H2172 C2198 0.950 . S
H2173 C2200 0.950 . S
H2174 C2203 0.950 . S
H2175 C2204 0.950 . S
H2176 C2206 0.951 . S
H2177 C2207 0.949 . S
C2178 C2179 1.378 . S
C2178 C2183 1.385 1_545 S
C2178 C2184 1.506 . S
C2179 H2160 0.949 . S
C2179 C2178 1.378 . S
C2179 C2180 1.397 . S
C2180 H2161 0.950 . S
C2180 C2179 1.397 . S
C2180 C2181 1.391 1_545 S
C2181 C2180 1.391 1_565 S
C2181 C2182 1.405 . S
C2182 H2162 0.950 . S
C2182 C2181 1.405 . S
C2182 C2183 1.367 . S
C2183 H2163 0.950 . S
C2183 C2178 1.385 1_565 S
C2183 C2182 1.367 . S
C2184 C2178 1.506 . S
C2184 C2185 1.359 . S
C2184 C2186 1.399 1_545 S
C2185 H2164 0.950 . S
C2185 C2184 1.359 . S
C2185 C2201 1.440 . S
C2186 C2184 1.399 1_565 S
C2186 C2187 1.480 . S
C2186 C2200 1.429 . S
C2187 C2186 1.480 . S
C2187 C2188 1.369 1_565 S
C2187 C2192 1.389 . S
C2188 H2165 0.950 . S
C2188 C2187 1.369 1_545 S
C2188 C2189 1.395 . S
C2189 H2166 0.950 . S
C2189 C2188 1.395 . S
C2189 C2190 1.288 . S
C2190 C2189 1.288 . S
C2190 C2191 1.392 1_545 S
C2191 H2167 0.951 . S
C2191 C2190 1.392 1_565 S
C2191 C2192 1.392 . S
C2192 H2168 0.949 . S
C2192 C2187 1.389 . S
C2192 C2191 1.392 . S
C2193 C2194 1.378 1_545 S
C2193 C2198 1.385 . S
C2193 C2199 1.497 1_545 S
C2194 H2169 0.949 . S
C2194 C2193 1.378 1_565 S
C2194 C2195 1.397 . S
C2195 H2170 0.950 . S
C2195 C2194 1.397 . S
C2195 C2196 1.391 1_565 S
C2196 C2195 1.391 1_545 S
C2196 C2197 1.405 . S
C2197 H2171 0.950 . S
C2197 C2196 1.405 . S
C2197 C2198 1.367 . S
C2198 H2172 0.950 . S
C2198 C2193 1.385 . S
C2198 C2197 1.367 . S
C2199 C2193 1.497 1_565 S
C2199 C2200 1.367 . S
C2199 C2201 1.399 1_565 S
C2200 H2173 0.950 . S
C2200 C2186 1.429 . S
C2200 C2199 1.367 . S
C2201 C2185 1.440 . S
C2201 C2199 1.399 1_545 S
C2201 C2202 1.480 . S
C2202 C2201 1.480 . S
C2202 C2203 1.348 1_545 S
C2202 C2207 1.401 . S
C2203 H2174 0.950 . S
C2203 C2202 1.348 1_565 S
C2203 C2204 1.395 . S
C2204 H2175 0.950 . S
C2204 C2203 1.395 . S
C2204 C2205 1.288 . S
C2205 C2204 1.288 . S
C2205 C2206 1.392 1_565 S
C2206 H2176 0.951 . S
C2206 C2205 1.392 1_545 S
C2206 C2207 1.392 . S
C2207 H2177 0.949 . S
C2207 C2202 1.401 . S
C2207 C2206 1.392 . S
H2208 C2227 0.949 . S
H2209 C2228 0.950 . S
H2210 C2230 0.950 . S
H2211 C2231 0.950 . S
H2212 C2233 0.950 . S
H2213 C2236 0.950 . S
H2214 C2237 0.950 . S
H2215 C2239 0.951 . S
H2216 C2240 0.949 . S
H2217 C2242 0.949 . S
H2218 C2243 0.950 . S
H2219 C2245 0.950 . S
H2220 C2246 0.950 . S
H2221 C2248 0.950 . S
H2222 C2251 0.950 . S
H2223 C2252 0.950 . S
H2224 C2254 0.951 . S
H2225 C2255 0.949 . S
C2226 C2227 1.376 . S
C2226 C2231 1.386 1_455 S
C2226 C2232 1.483 . S
C2227 H2208 0.949 . S
C2227 C2226 1.376 . S
C2227 C2228 1.397 . S
C2228 H2209 0.950 . S
C2228 C2227 1.397 . S
C2228 C2229 1.391 . S
C2229 C2228 1.391 . S
C2229 C2230 1.405 1_455 S
C2230 H2210 0.950 . S
C2230 C2229 1.405 1_655 S
C2230 C2231 1.367 . S
C2231 H2211 0.950 . S
C2231 C2226 1.386 1_655 S
C2231 C2230 1.367 . S
C2232 C2226 1.483 . S
C2232 C2233 1.382 . S
C2232 C2234 1.403 1_455 S
C2233 H2212 0.950 . S
C2233 C2232 1.382 . S
C2233 C2249 1.411 . S
C2234 C2232 1.403 1_655 S
C2234 C2235 1.489 . S
C2234 C2248 1.411 . S
C2235 C2234 1.489 . S
C2235 C2236 1.383 1_655 S
C2235 C2240 1.382 . S
C2236 H2213 0.950 . S
C2236 C2235 1.383 1_455 S
C2236 C2237 1.395 . S
C2237 H2214 0.950 . S
C2237 C2236 1.395 . S
C2237 C2238 1.288 1_455 S
C2238 C2237 1.288 1_655 S
C2238 C2239 1.392 . S
C2239 H2215 0.951 . S
C2239 C2238 1.392 . S
C2239 C2240 1.392 . S
C2240 H2216 0.949 . S
C2240 C2235 1.382 . S
C2240 C2239 1.392 . S
C2241 C2242 1.376 . S
C2241 C2246 1.386 1_655 S
C2241 C2247 1.483 . S
C2242 H2217 0.949 . S
C2242 C2241 1.376 . S
C2242 C2243 1.397 . S
C2243 H2218 0.950 . S
C2243 C2242 1.397 . S
C2243 C2244 1.391 . S
C2244 C2243 1.391 . S
C2244 C2245 1.405 1_655 S
C2245 H2219 0.950 . S
C2245 C2244 1.405 1_455 S
C2245 C2246 1.367 . S
C2246 H2220 0.950 . S
C2246 C2241 1.386 1_455 S
C2246 C2245 1.367 . S
C2247 C2241 1.483 . S
C2247 C2248 1.382 . S
C2247 C2249 1.403 1_655 S
C2248 H2221 0.950 . S
C2248 C2234 1.411 . S
C2248 C2247 1.382 . S
C2249 C2233 1.411 . S
C2249 C2247 1.403 1_455 S
C2249 C2250 1.489 . S
C2250 C2249 1.489 . S
C2250 C2251 1.383 1_455 S
C2250 C2255 1.382 . S
C2251 H2222 0.950 . S
C2251 C2250 1.383 1_655 S
C2251 C2252 1.395 . S
C2252 H2223 0.950 . S
C2252 C2251 1.395 . S
C2252 C2253 1.288 1_655 S
C2253 C2252 1.288 1_455 S
C2253 C2254 1.392 . S
C2254 H2224 0.951 . S
C2254 C2253 1.392 . S
C2254 C2255 1.392 . S
C2255 H2225 0.949 . S
C2255 C2250 1.382 . S
C2255 C2254 1.392 . S
H2256 C2275 0.949 . S
H2257 C2276 0.950 . S
H2258 C2278 0.950 . S
H2259 C2279 0.950 . S
H2260 C2281 0.950 . S
H2261 C2284 0.950 . S
H2262 C2285 0.950 . S
H2263 C2287 0.951 . S
H2264 C2288 0.949 . S
H2265 C2290 0.949 . S
H2266 C2291 0.950 . S
H2267 C2293 0.950 . S
H2268 C2294 0.950 . S
H2269 C2296 0.950 . S
H2270 C2299 0.950 . S
H2271 C2300 0.950 . S
H2272 C2302 0.951 . S
H2273 C2303 0.949 . S
C2274 C2275 1.376 . S
C2274 C2279 1.386 . S
C2274 C2280 1.483 . S
C2275 H2256 0.949 . S
C2275 C2274 1.376 . S
C2275 C2276 1.397 . S
C2276 H2257 0.950 . S
C2276 C2275 1.397 . S
C2276 C2277 1.391 . S
C2277 C2276 1.391 . S
C2277 C2278 1.405 . S
C2278 H2258 0.950 . S
C2278 C2277 1.405 . S
C2278 C2279 1.367 . S
C2279 H2259 0.950 . S
C2279 C2274 1.386 . S
C2279 C2278 1.367 . S
C2280 C2274 1.483 . S
C2280 C2281 1.382 . S
C2280 C2282 1.403 . S
C2281 H2260 0.950 . S
C2281 C2280 1.382 . S
C2281 C2297 1.411 . S
C2282 C2280 1.403 . S
C2282 C2283 1.489 . S
C2282 C2296 1.411 . S
C2283 C2282 1.489 . S
C2283 C2284 1.383 . S
C2283 C2288 1.382 . S
C2284 H2261 0.950 . S
C2284 C2283 1.383 . S
C2284 C2285 1.395 . S
C2285 H2262 0.950 . S
C2285 C2284 1.395 . S
C2285 C2286 1.288 . S
C2286 C2285 1.288 . S
C2286 C2287 1.392 . S
C2287 H2263 0.951 . S
C2287 C2286 1.392 . S
C2287 C2288 1.392 . S
C2288 H2264 0.949 . S
C2288 C2283 1.382 . S
C2288 C2287 1.392 . S
C2289 C2290 1.376 . S
C2289 C2294 1.386 . S
C2289 C2295 1.483 . S
C2290 H2265 0.949 . S
C2290 C2289 1.376 . S
C2290 C2291 1.397 . S
C2291 H2266 0.950 . S
C2291 C2290 1.397 . S
C2291 C2292 1.391 . S
C2292 C2291 1.391 . S
C2292 C2293 1.405 . S
C2293 H2267 0.950 . S
C2293 C2292 1.405 . S
C2293 C2294 1.367 . S
C2294 H2268 0.950 . S
C2294 C2289 1.386 . S
C2294 C2293 1.367 . S
C2295 C2289 1.483 . S
C2295 C2296 1.382 . S
C2295 C2297 1.403 . S
C2296 H2269 0.950 . S
C2296 C2282 1.411 . S
C2296 C2295 1.382 . S
C2297 C2281 1.411 . S
C2297 C2295 1.403 . S
C2297 C2298 1.489 . S
C2298 C2297 1.489 . S
C2298 C2299 1.383 . S
C2298 C2303 1.382 . S
C2299 H2270 0.950 . S
C2299 C2298 1.383 . S
C2299 C2300 1.395 . S
C2300 H2271 0.950 . S
C2300 C2299 1.395 . S
C2300 C2301 1.288 . S
C2301 C2300 1.288 . S
C2301 C2302 1.392 . S
C2302 H2272 0.951 . S
C2302 C2301 1.392 . S
C2302 C2303 1.392 . S
C2303 H2273 0.949 . S
C2303 C2298 1.382 . S
C2303 C2302 1.392 . S
H2304 C2323 0.949 . S
H2305 C2324 0.950 . S
H2306 C2326 0.950 . S
H2307 C2327 0.950 . S
H2308 C2329 0.950 . S
H2309 C2332 0.950 . S
H2310 C2333 0.950 . S
H2311 C2335 0.951 . S
H2312 C2336 0.949 . S
H2313 C2338 0.949 . S
H2314 C2339 0.950 . S
H2315 C2341 0.950 . S
H2316 C2342 0.950 . S
H2317 C2344 0.950 . S
H2318 C2347 0.950 . S
H2319 C2348 0.950 . S
H2320 C2350 0.951 . S
H2321 C2351 0.949 . S
C2322 C2323 1.376 . S
C2322 C2327 1.386 . S
C2322 C2328 1.483 . S
C2323 H2304 0.949 . S
C2323 C2322 1.376 . S
C2323 C2324 1.397 . S
C2324 H2305 0.950 . S
C2324 C2323 1.397 . S
C2324 C2325 1.391 . S
C2325 C2324 1.391 . S
C2325 C2326 1.405 . S
C2326 H2306 0.950 . S
C2326 C2325 1.405 . S
C2326 C2327 1.367 . S
C2327 H2307 0.950 . S
C2327 C2322 1.386 . S
C2327 C2326 1.367 . S
C2328 C2322 1.483 . S
C2328 C2329 1.382 . S
C2328 C2330 1.403 . S
C2329 H2308 0.950 . S
C2329 C2328 1.382 . S
C2329 C2345 1.411 . S
C2330 C2328 1.403 . S
C2330 C2331 1.489 . S
C2330 C2344 1.411 . S
C2331 C2330 1.489 . S
C2331 C2332 1.383 . S
C2331 C2336 1.382 . S
C2332 H2309 0.950 . S
C2332 C2331 1.383 . S
C2332 C2333 1.395 . S
C2333 H2310 0.950 . S
C2333 C2332 1.395 . S
C2333 C2334 1.288 . S
C2334 C2333 1.288 . S
C2334 C2335 1.392 . S
C2335 H2311 0.951 . S
C2335 C2334 1.392 . S
C2335 C2336 1.392 . S
C2336 H2312 0.949 . S
C2336 C2331 1.382 . S
C2336 C2335 1.392 . S
C2337 C2338 1.376 . S
C2337 C2342 1.386 . S
C2337 C2343 1.483 . S
C2338 H2313 0.949 . S
C2338 C2337 1.376 . S
C2338 C2339 1.397 . S
C2339 H2314 0.950 . S
C2339 C2338 1.397 . S
C2339 C2340 1.391 . S
C2340 C2339 1.391 . S
C2340 C2341 1.405 . S
C2341 H2315 0.950 . S
C2341 C2340 1.405 . S
C2341 C2342 1.367 . S
C2342 H2316 0.950 . S
C2342 C2337 1.386 . S
C2342 C2341 1.367 . S
C2343 C2337 1.483 . S
C2343 C2344 1.382 . S
C2343 C2345 1.403 . S
C2344 H2317 0.950 . S
C2344 C2330 1.411 . S
C2344 C2343 1.382 . S
C2345 C2329 1.411 . S
C2345 C2343 1.403 . S
C2345 C2346 1.489 . S
C2346 C2345 1.489 . S
C2346 C2347 1.383 . S
C2346 C2351 1.382 . S
C2347 H2318 0.950 . S
C2347 C2346 1.383 . S
C2347 C2348 1.395 . S
C2348 H2319 0.950 . S
C2348 C2347 1.395 . S
C2348 C2349 1.288 . S
C2349 C2348 1.288 . S
C2349 C2350 1.392 . S
C2350 H2320 0.951 . S
C2350 C2349 1.392 . S
C2350 C2351 1.392 . S
C2351 H2321 0.949 . S
C2351 C2346 1.382 . S
C2351 C2350 1.392 . S
H2352 C2371 0.949 . S
H2353 C2372 0.950 . S
H2354 C2374 0.950 . S
H2355 C2375 0.950 . S
H2356 C2377 0.950 . S
H2357 C2380 0.950 . S
H2358 C2381 0.950 . S
H2359 C2383 0.951 . S
H2360 C2384 0.949 . S
H2361 C2386 0.949 . S
H2362 C2387 0.950 . S
H2363 C2389 0.950 . S
H2364 C2390 0.950 . S
H2365 C2392 0.950 . S
H2366 C2395 0.950 . S
H2367 C2396 0.950 . S
H2368 C2398 0.951 . S
H2369 C2399 0.949 . S
C2370 C2371 1.376 . S
C2370 C2375 1.386 . S
C2370 C2376 1.483 . S
C2371 H2352 0.949 . S
C2371 C2370 1.376 . S
C2371 C2372 1.397 . S
C2372 H2353 0.950 . S
C2372 C2371 1.397 . S
C2372 C2373 1.391 . S
C2373 C2372 1.391 . S
C2373 C2374 1.405 . S
C2374 H2354 0.950 . S
C2374 C2373 1.405 . S
C2374 C2375 1.367 . S
C2375 H2355 0.950 . S
C2375 C2370 1.386 . S
C2375 C2374 1.367 . S
C2376 C2370 1.483 . S
C2376 C2377 1.382 . S
C2376 C2378 1.403 . S
C2377 H2356 0.950 . S
C2377 C2376 1.382 . S
C2377 C2393 1.411 . S
C2378 C2376 1.403 . S
C2378 C2379 1.489 . S
C2378 C2392 1.411 . S
C2379 C2378 1.489 . S
C2379 C2380 1.383 . S
C2379 C2384 1.382 . S
C2380 H2357 0.950 . S
C2380 C2379 1.383 . S
C2380 C2381 1.395 . S
C2381 H2358 0.950 . S
C2381 C2380 1.395 . S
C2381 C2382 1.288 . S
C2382 C2381 1.288 . S
C2382 C2383 1.392 . S
C2383 H2359 0.951 . S
C2383 C2382 1.392 . S
C2383 C2384 1.392 . S
C2384 H2360 0.949 . S
C2384 C2379 1.382 . S
C2384 C2383 1.392 . S
C2385 C2386 1.376 . S
C2385 C2390 1.386 . S
C2385 C2391 1.483 . S
C2386 H2361 0.949 . S
C2386 C2385 1.376 . S
C2386 C2387 1.397 . S
C2387 H2362 0.950 . S
C2387 C2386 1.397 . S
C2387 C2388 1.391 . S
C2388 C2387 1.391 . S
C2388 C2389 1.405 . S
C2389 H2363 0.950 . S
C2389 C2388 1.405 . S
C2389 C2390 1.367 . S
C2390 H2364 0.950 . S
C2390 C2385 1.386 . S
C2390 C2389 1.367 . S
C2391 C2385 1.483 . S
C2391 C2392 1.382 . S
C2391 C2393 1.403 . S
C2392 H2365 0.950 . S
C2392 C2378 1.411 . S
C2392 C2391 1.382 . S
C2393 C2377 1.411 . S
C2393 C2391 1.403 . S
C2393 C2394 1.489 . S
C2394 C2393 1.489 . S
C2394 C2395 1.383 . S
C2394 C2399 1.382 . S
C2395 H2366 0.950 . S
C2395 C2394 1.383 . S
C2395 C2396 1.395 . S
C2396 H2367 0.950 . S
C2396 C2395 1.395 . S
C2396 C2397 1.288 . S
C2397 C2396 1.288 . S
C2397 C2398 1.392 . S
C2398 H2368 0.951 . S
C2398 C2397 1.392 . S
C2398 C2399 1.392 . S
C2399 H2369 0.949 . S
C2399 C2394 1.382 . S
C2399 C2398 1.392 . S
H2400 C2419 0.949 . S
H2401 C2420 0.950 . S
H2402 C2422 0.950 . S
H2403 C2423 0.950 . S
H2404 C2425 0.950 . S
H2405 C2428 0.950 . S
H2406 C2429 0.950 . S
H2407 C2431 0.951 . S
H2408 C2432 0.949 . S
H2409 C2434 0.949 . S
H2410 C2435 0.950 . S
H2411 C2437 0.950 . S
H2412 C2438 0.950 . S
H2413 C2440 0.950 . S
H2414 C2443 0.950 . S
H2415 C2444 0.950 . S
H2416 C2446 0.951 . S
H2417 C2447 0.949 . S
C2418 C2419 1.376 . S
C2418 C2423 1.386 . S
C2418 C2424 1.483 . S
C2419 H2400 0.949 . S
C2419 C2418 1.376 . S
C2419 C2420 1.397 . S
C2420 H2401 0.950 . S
C2420 C2419 1.397 . S
C2420 C2421 1.391 . S
C2421 C2420 1.391 . S
C2421 C2422 1.405 . S
C2422 H2402 0.950 . S
C2422 C2421 1.405 . S
C2422 C2423 1.367 . S
C2423 H2403 0.950 . S
C2423 C2418 1.386 . S
C2423 C2422 1.367 . S
C2424 C2418 1.483 . S
C2424 C2425 1.382 . S
C2424 C2426 1.403 . S
C2425 H2404 0.950 . S
C2425 C2424 1.382 . S
C2425 C2441 1.411 . S
C2426 C2424 1.403 . S
C2426 C2427 1.489 . S
C2426 C2440 1.411 . S
C2427 C2426 1.489 . S
C2427 C2428 1.383 . S
C2427 C2432 1.382 . S
C2428 H2405 0.950 . S
C2428 C2427 1.383 . S
C2428 C2429 1.395 . S
C2429 H2406 0.950 . S
C2429 C2428 1.395 . S
C2429 C2430 1.288 . S
C2430 C2429 1.288 . S
C2430 C2431 1.392 . S
C2431 H2407 0.951 . S
C2431 C2430 1.392 . S
C2431 C2432 1.392 . S
C2432 H2408 0.949 . S
C2432 C2427 1.382 . S
C2432 C2431 1.392 . S
C2433 C2434 1.376 . S
C2433 C2438 1.386 . S
C2433 C2439 1.483 . S
C2434 H2409 0.949 . S
C2434 C2433 1.376 . S
C2434 C2435 1.397 . S
C2435 H2410 0.950 . S
C2435 C2434 1.397 . S
C2435 C2436 1.391 . S
C2436 C2435 1.391 . S
C2436 C2437 1.405 . S
C2437 H2411 0.950 . S
C2437 C2436 1.405 . S
C2437 C2438 1.367 . S
C2438 H2412 0.950 . S
C2438 C2433 1.386 . S
C2438 C2437 1.367 . S
C2439 C2433 1.483 . S
C2439 C2440 1.382 . S
C2439 C2441 1.403 . S
C2440 H2413 0.950 . S
C2440 C2426 1.411 . S
C2440 C2439 1.382 . S
C2441 C2425 1.411 . S
C2441 C2439 1.403 . S
C2441 C2442 1.489 . S
C2442 C2441 1.489 . S
C2442 C2443 1.383 . S
C2442 C2447 1.382 . S
C2443 H2414 0.950 . S
C2443 C2442 1.383 . S
C2443 C2444 1.395 . S
C2444 H2415 0.950 . S
C2444 C2443 1.395 . S
C2444 C2445 1.288 . S
C2445 C2444 1.288 . S
C2445 C2446 1.392 . S
C2446 H2416 0.951 . S
C2446 C2445 1.392 . S
C2446 C2447 1.392 . S
C2447 H2417 0.949 . S
C2447 C2442 1.382 . S
C2447 C2446 1.392 . S
H2448 C2456 0.950 1_455 S
H2449 C2461 0.950 . S
H2450 C2458 0.945 . S
H2451 C2460 0.950 . S
H2452 C2462 0.950 . S
H2453 C2464 0.950 . S
H2454 C2466 0.950 . S
H2455 C2467 0.950 . S
C2456 H2448 0.950 1_655 S
C2456 C2457 1.386 . S
C2456 C2458 1.389 1_655 S
C2457 C2456 1.386 . S
C2457 C2461 1.393 . S
C2458 H2450 0.945 . S
C2458 C2456 1.389 1_455 S
C2458 C2459 1.406 1_455 S
C2459 C2458 1.406 1_655 S
C2459 C2460 1.398 . S
C2459 C2465 1.491 . S
C2460 H2451 0.950 . S
C2460 C2459 1.398 . S
C2460 C2461 1.391 . S
C2461 H2449 0.950 . S
C2461 C2457 1.393 . S
C2461 C2460 1.391 . S
C2462 H2452 0.950 . S
C2462 C2463 1.386 . S
C2462 C2464 1.391 . S
C2463 C2462 1.386 . S
C2463 C2467 1.393 1_655 S
C2464 H2453 0.950 . S
C2464 C2462 1.391 . S
C2464 C2465 1.400 . S
C2465 C2459 1.491 . S
C2465 C2464 1.400 . S
C2465 C2466 1.398 1_655 S
C2466 H2454 0.950 . S
C2466 C2465 1.398 1_455 S
C2466 C2467 1.391 . S
C2467 H2455 0.950 . S
C2467 C2463 1.393 1_455 S
C2467 C2466 1.391 . S
H2468 C2476 0.950 . S
H2469 C2481 0.950 . S
H2470 C2478 0.950 . S
H2471 C2480 0.950 . S
H2472 C2482 0.950 . S
H2473 C2484 0.950 . S
H2474 C2486 0.950 . S
H2475 C2487 0.950 . S
C2476 H2468 0.950 . S
C2476 C2477 1.386 . S
C2476 C2478 1.391 . S
C2477 C2476 1.386 . S
C2477 C2481 1.393 . S
C2478 H2470 0.950 . S
C2478 C2476 1.391 . S
C2478 C2479 1.400 . S
C2479 C2478 1.400 . S
C2479 C2480 1.398 . S
C2479 C2485 1.491 . S
C2480 H2471 0.950 . S
C2480 C2479 1.398 . S
C2480 C2481 1.391 . S
C2481 H2469 0.950 . S
C2481 C2477 1.393 . S
C2481 C2480 1.391 . S
C2482 H2472 0.950 . S
C2482 C2483 1.386 . S
C2482 C2484 1.391 . S
C2483 C2482 1.386 . S
C2483 C2487 1.393 . S
C2484 H2473 0.950 . S
C2484 C2482 1.391 . S
C2484 C2485 1.400 . S
C2485 C2479 1.491 . S
C2485 C2484 1.400 . S
C2485 C2486 1.398 . S
C2486 H2474 0.950 . S
C2486 C2485 1.398 . S
C2486 C2487 1.391 . S
C2487 H2475 0.950 . S
C2487 C2483 1.393 . S
C2487 C2486 1.391 . S
H2488 C2496 0.950 1_565 S
H2489 C2501 0.950 . S
H2490 C2498 0.950 1_565 S
H2491 C2500 0.950 . S
H2492 C2502 0.950 . S
H2493 C2504 0.950 . S
H2494 C2506 0.950 . S
H2495 C2507 0.950 . S
C2496 H2488 0.950 1_545 S
C2496 C2497 1.386 . S
C2496 C2498 1.391 . S
C2497 C2496 1.386 . S
C2497 C2501 1.393 . S
C2498 H2490 0.950 1_545 S
C2498 C2496 1.391 . S
C2498 C2499 1.400 . S
C2499 C2498 1.400 . S
C2499 C2500 1.398 . S
C2499 C2505 1.491 . S
C2500 H2491 0.950 . S
C2500 C2499 1.398 . S
C2500 C2501 1.391 . S
C2501 H2489 0.950 . S
C2501 C2497 1.393 . S
C2501 C2500 1.391 . S
C2502 H2492 0.950 . S
C2502 C2503 1.386 . S
C2502 C2504 1.391 . S
C2503 C2502 1.386 . S
C2503 C2507 1.393 1_545 S
C2504 H2493 0.950 . S
C2504 C2502 1.391 . S
C2504 C2505 1.400 . S
C2505 C2499 1.491 . S
C2505 C2504 1.400 . S
C2505 C2506 1.398 1_545 S
C2506 H2494 0.950 . S
C2506 C2505 1.398 1_565 S
C2506 C2507 1.391 . S
C2507 H2495 0.950 . S
C2507 C2503 1.393 1_565 S
C2507 C2506 1.391 . S
H2508 C2516 0.950 1_545 S
H2509 C2521 0.950 . S
H2510 C2518 0.950 1_545 S
H2511 C2520 0.950 . S
H2512 C2522 0.950 . S
H2513 C2524 0.950 . S
H2514 C2526 0.950 . S
H2515 C2527 0.950 . S
C2516 H2508 0.950 1_565 S
C2516 C2517 1.386 . S
C2516 C2518 1.391 . S
C2517 C2516 1.386 . S
C2517 C2521 1.393 . S
C2518 H2510 0.950 1_565 S
C2518 C2516 1.391 . S
C2518 C2519 1.400 . S
C2519 C2518 1.400 . S
C2519 C2520 1.398 . S
C2519 C2525 1.491 . S
C2520 H2511 0.950 . S
C2520 C2519 1.398 . S
C2520 C2521 1.391 . S
C2521 H2509 0.950 . S
C2521 C2517 1.393 . S
C2521 C2520 1.391 . S
C2522 H2512 0.950 . S
C2522 C2523 1.386 . S
C2522 C2524 1.391 . S
C2523 C2522 1.386 . S
C2523 C2527 1.393 1_565 S
C2524 H2513 0.950 . S
C2524 C2522 1.391 . S
C2524 C2525 1.400 . S
C2525 C2519 1.491 . S
C2525 C2524 1.400 . S
C2525 C2526 1.398 1_565 S
C2526 H2514 0.950 . S
C2526 C2525 1.398 1_545 S
C2526 C2527 1.391 . S
C2527 H2515 0.950 . S
C2527 C2523 1.393 1_545 S
C2527 C2526 1.391 . S
H2528 C2536 0.950 . S
H2529 C2541 0.950 . S
H2530 C2538 0.950 . S
H2531 C2540 0.950 . S
H2532 C2542 0.940 1_655 S
H2533 C2544 0.942 . S
H2534 C2546 0.950 . S
H2535 C2547 0.950 . S
C2536 H2528 0.950 . S
C2536 C2537 1.386 . S
C2536 C2538 1.391 . S
C2537 C2536 1.386 . S
C2537 C2541 1.393 . S
C2538 H2530 0.950 . S
C2538 C2536 1.391 . S
C2538 C2539 1.400 . S
C2539 C2538 1.400 . S
C2539 C2540 1.398 . S
C2539 C2545 1.491 . S
C2540 H2531 0.950 . S
C2540 C2539 1.398 . S
C2540 C2541 1.391 . S
C2541 H2529 0.950 . S
C2541 C2537 1.393 . S
C2541 C2540 1.391 . S
C2542 H2532 0.940 1_455 S
C2542 C2543 1.379 . S
C2542 C2544 1.409 . S
C2543 C2542 1.379 . S
C2543 C2547 1.393 . S
C2544 H2533 0.942 . S
C2544 C2542 1.409 . S
C2544 C2545 1.400 . S
C2545 C2539 1.491 . S
C2545 C2544 1.400 . S
C2545 C2546 1.398 . S
C2546 H2534 0.950 . S
C2546 C2545 1.398 . S
C2546 C2547 1.391 . S
C2547 H2535 0.950 . S
C2547 C2543 1.393 . S
C2547 C2546 1.391 . S
H2548 C2556 0.950 . S
H2549 C2561 0.950 . S
H2550 C2558 0.950 . S
H2551 C2560 0.950 . S
H2552 C2562 0.950 . S
H2553 C2564 0.950 . S
H2554 C2566 0.950 . S
H2555 C2567 0.950 . S
C2556 H2548 0.950 . S
C2556 C2557 1.386 . S
C2556 C2558 1.391 . S
C2557 C2556 1.386 . S
C2557 C2561 1.393 . S
C2558 H2550 0.950 . S
C2558 C2556 1.391 . S
C2558 C2559 1.400 . S
C2559 C2558 1.400 . S
C2559 C2560 1.398 . S
C2559 C2565 1.491 . S
C2560 H2551 0.950 . S
C2560 C2559 1.398 . S
C2560 C2561 1.391 . S
C2561 H2549 0.950 . S
C2561 C2557 1.393 . S
C2561 C2560 1.391 . S
C2562 H2552 0.950 . S
C2562 C2563 1.386 . S
C2562 C2564 1.391 . S
C2563 C2562 1.386 . S
C2563 C2567 1.393 . S
C2564 H2553 0.950 . S
C2564 C2562 1.391 . S
C2564 C2565 1.400 . S
C2565 C2559 1.491 . S
C2565 C2564 1.400 . S
C2565 C2566 1.398 . S
C2566 H2554 0.950 . S
C2566 C2565 1.398 . S
C2566 C2567 1.391 . S
C2567 H2555 0.950 . S
C2567 C2563 1.393 . S
C2567 C2566 1.391 . S
H2568 C2576 0.950 . S
H2569 C2581 0.950 . S
H2570 C2578 0.950 . S
H2571 C2580 0.950 . S
H2572 C2582 0.950 . S
H2573 C2584 0.950 . S
H2574 C2586 0.950 . S
H2575 C2587 0.950 . S
C2576 H2568 0.950 . S
C2576 C2577 1.386 . S
C2576 C2578 1.391 . S
C2577 C2576 1.386 . S
C2577 C2581 1.393 . S
C2578 H2570 0.950 . S
C2578 C2576 1.391 . S
C2578 C2579 1.400 . S
C2579 C2578 1.400 . S
C2579 C2580 1.398 . S
C2579 C2585 1.491 . S
C2580 H2571 0.950 . S
C2580 C2579 1.398 . S
C2580 C2581 1.391 . S
C2581 H2569 0.950 . S
C2581 C2577 1.393 . S
C2581 C2580 1.391 . S
C2582 H2572 0.950 . S
C2582 C2583 1.386 . S
C2582 C2584 1.391 . S
C2583 C2582 1.386 . S
C2583 C2587 1.393 . S
C2584 H2573 0.950 . S
C2584 C2582 1.391 . S
C2584 C2585 1.400 . S
C2585 C2579 1.491 . S
C2585 C2584 1.400 . S
C2585 C2586 1.398 . S
C2586 H2574 0.950 . S
C2586 C2585 1.398 . S
C2586 C2587 1.391 . S
C2587 H2575 0.950 . S
C2587 C2583 1.393 . S
C2587 C2586 1.391 . S
H2588 C2596 0.950 . S
H2589 C2601 0.950 . S
H2590 C2598 0.950 . S
H2591 C2600 0.950 . S
H2592 C2602 0.950 . S
H2593 C2604 0.950 . S
H2594 C2606 0.950 . S
H2595 C2607 0.950 . S
C2596 H2588 0.950 . S
C2596 C2597 1.386 . S
C2596 C2598 1.391 . S
C2597 C2596 1.386 . S
C2597 C2601 1.393 . S
C2598 H2590 0.950 . S
C2598 C2596 1.391 . S
C2598 C2599 1.400 . S
C2599 C2598 1.400 . S
C2599 C2600 1.398 . S
C2599 C2605 1.491 . S
C2600 H2591 0.950 . S
C2600 C2599 1.398 . S
C2600 C2601 1.391 . S
C2601 H2589 0.950 . S
C2601 C2597 1.393 . S
C2601 C2600 1.391 . S
C2602 H2592 0.950 . S
C2602 C2603 1.386 . S
C2602 C2604 1.391 . S
C2603 C2602 1.386 . S
C2603 C2607 1.393 . S
C2604 H2593 0.950 . S
C2604 C2602 1.391 . S
C2604 C2605 1.400 . S
C2605 C2599 1.491 . S
C2605 C2604 1.400 . S
C2605 C2606 1.398 . S
C2606 H2594 0.950 . S
C2606 C2605 1.398 . S
C2606 C2607 1.391 . S
C2607 H2595 0.950 . S
C2607 C2603 1.393 . S
C2607 C2606 1.391 . S
H2608 C2616 0.950 1_545 S
H2609 C2621 0.950 . S
H2610 C2618 0.950 1_545 S
H2611 C2620 0.950 . S
H2612 C2622 0.950 . S
H2613 C2624 0.950 . S
H2614 C2626 0.950 . S
H2615 C2627 0.950 . S
C2616 H2608 0.950 1_565 S
C2616 C2617 1.386 . S
C2616 C2618 1.391 . S
C2617 C2616 1.386 . S
C2617 C2621 1.393 . S
C2618 H2610 0.950 1_565 S
C2618 C2616 1.391 . S
C2618 C2619 1.400 . S
C2619 C2618 1.400 . S
C2619 C2620 1.398 . S
C2619 C2625 1.491 . S
C2620 H2611 0.950 . S
C2620 C2619 1.398 . S
C2620 C2621 1.391 . S
C2621 H2609 0.950 . S
C2621 C2617 1.393 . S
C2621 C2620 1.391 . S
C2622 H2612 0.950 . S
C2622 C2623 1.386 . S
C2622 C2624 1.391 . S
C2623 C2622 1.386 . S
C2623 C2627 1.393 1_565 S
C2624 H2613 0.950 . S
C2624 C2622 1.391 . S
C2624 C2625 1.400 . S
C2625 C2619 1.491 . S
C2625 C2624 1.400 . S
C2625 C2626 1.398 1_565 S
C2626 H2614 0.950 . S
C2626 C2625 1.398 1_545 S
C2626 C2627 1.391 . S
C2627 H2615 0.950 . S
C2627 C2623 1.393 1_545 S
C2627 C2626 1.391 . S
H2628 C2636 0.950 . S
H2629 C2641 0.950 1_565 S
H2630 C2638 0.950 . S
H2631 C2640 0.903 1_565 S
H2632 C2642 0.950 . S
H2633 C2644 0.950 . S
H2634 C2646 0.950 . S
H2635 C2647 0.950 . S
C2636 H2628 0.950 . S
C2636 C2637 1.386 . S
C2636 C2638 1.391 . S
C2637 C2636 1.386 . S
C2637 C2641 1.393 . S
C2638 H2630 0.950 . S
C2638 C2636 1.391 . S
C2638 C2639 1.400 . S
C2639 C2638 1.400 . S
C2639 C2640 1.466 . S
C2639 C2645 1.491 . S
C2640 H2631 0.903 1_545 S
C2640 C2639 1.466 . S
C2640 C2641 1.373 . S
C2641 H2629 0.950 1_545 S
C2641 C2637 1.393 . S
C2641 C2640 1.373 . S
C2642 H2632 0.950 . S
C2642 C2643 1.386 1_565 S
C2642 C2644 1.391 . S
C2643 C2642 1.386 1_545 S
C2643 C2647 1.393 . S
C2644 H2633 0.950 . S
C2644 C2642 1.391 . S
C2644 C2645 1.400 1_565 S
C2645 C2639 1.491 . S
C2645 C2644 1.400 1_545 S
C2645 C2646 1.398 . S
C2646 H2634 0.950 . S
C2646 C2645 1.398 . S
C2646 C2647 1.391 . S
C2647 H2635 0.950 . S
C2647 C2643 1.393 . S
C2647 C2646 1.391 . S
H2648 C2656 0.950 . S
H2649 C2661 0.950 1_455 S
H2650 C2658 0.950 . S
H2651 C2660 0.883 1_455 S
H2652 C2662 0.950 . S
H2653 C2664 0.950 . S
H2654 C2666 0.950 . S
H2655 C2667 0.950 . S
C2656 H2648 0.950 . S
C2656 C2657 1.386 . S
C2656 C2658 1.391 . S
C2657 C2656 1.386 . S
C2657 C2661 1.393 . S
C2658 H2650 0.950 . S
C2658 C2656 1.391 . S
C2658 C2659 1.400 . S
C2659 C2658 1.400 . S
C2659 C2660 1.429 . S
C2659 C2665 1.491 . S
C2660 H2651 0.883 1_655 S
C2660 C2659 1.429 . S
C2660 C2661 1.428 . S
C2661 H2649 0.950 1_655 S
C2661 C2657 1.393 . S
C2661 C2660 1.428 . S
C2662 H2652 0.950 . S
C2662 C2663 1.386 1_455 S
C2662 C2664 1.391 . S
C2663 C2662 1.386 1_655 S
C2663 C2667 1.393 . S
C2664 H2653 0.950 . S
C2664 C2662 1.391 . S
C2664 C2665 1.400 1_455 S
C2665 C2659 1.491 . S
C2665 C2664 1.400 1_655 S
C2665 C2666 1.398 . S
C2666 H2654 0.950 . S
C2666 C2665 1.398 . S
C2666 C2667 1.391 . S
C2667 H2655 0.950 . S
C2667 C2663 1.393 . S
C2667 C2666 1.391 . S
H2668 C2676 0.950 . S
H2669 C2681 0.950 . S
H2670 C2678 0.950 . S
H2671 C2680 0.950 . S
H2672 C2682 0.950 . S
H2673 C2684 0.950 . S
H2674 C2686 0.950 . S
H2675 C2687 0.950 . S
C2676 H2668 0.950 . S
C2676 C2677 1.386 . S
C2676 C2678 1.391 . S
C2677 C2676 1.386 . S
C2677 C2681 1.393 . S
C2678 H2670 0.950 . S
C2678 C2676 1.391 . S
C2678 C2679 1.400 . S
C2679 C2678 1.400 . S
C2679 C2680 1.398 . S
C2679 C2685 1.491 . S
C2680 H2671 0.950 . S
C2680 C2679 1.398 . S
C2680 C2681 1.391 . S
C2681 H2669 0.950 . S
C2681 C2677 1.393 . S
C2681 C2680 1.391 . S
C2682 H2672 0.950 . S
C2682 C2683 1.386 . S
C2682 C2684 1.391 . S
C2683 C2682 1.386 . S
C2683 C2687 1.393 . S
C2684 H2673 0.950 . S
C2684 C2682 1.391 . S
C2684 C2685 1.400 . S
C2685 C2679 1.491 . S
C2685 C2684 1.400 . S
C2685 C2686 1.398 . S
C2686 H2674 0.950 . S
C2686 C2685 1.398 . S
C2686 C2687 1.391 . S
C2687 H2675 0.950 . S
C2687 C2683 1.393 . S
C2687 C2686 1.391 . S
H2688 C2696 0.950 . S
H2689 C2701 0.950 . S
H2690 C2698 0.950 . S
H2691 C2700 0.950 . S
H2692 C2702 0.950 . S
H2693 C2704 0.950 . S
H2694 C2706 0.950 . S
H2695 C2707 0.950 . S
C2696 H2688 0.950 . S
C2696 C2697 1.386 . S
C2696 C2698 1.391 . S
C2697 C2696 1.386 . S
C2697 C2701 1.393 . S
C2698 H2690 0.950 . S
C2698 C2696 1.391 . S
C2698 C2699 1.400 . S
C2699 C2698 1.400 . S
C2699 C2700 1.398 . S
C2699 C2705 1.491 . S
C2700 H2691 0.950 . S
C2700 C2699 1.398 . S
C2700 C2701 1.391 . S
C2701 H2689 0.950 . S
C2701 C2697 1.393 . S
C2701 C2700 1.391 . S
C2702 H2692 0.950 . S
C2702 C2703 1.386 . S
C2702 C2704 1.391 . S
C2703 C2702 1.386 . S
C2703 C2707 1.393 . S
C2704 H2693 0.950 . S
C2704 C2702 1.391 . S
C2704 C2705 1.400 . S
C2705 C2699 1.491 . S
C2705 C2704 1.400 . S
C2705 C2706 1.398 . S
C2706 H2694 0.950 . S
C2706 C2705 1.398 . S
C2706 C2707 1.391 . S
C2707 H2695 0.950 . S
C2707 C2703 1.393 . S
C2707 C2706 1.391 . S
H2708 C2716 0.950 . S
H2709 C2721 0.950 . S
H2710 C2718 0.950 . S
H2711 C2720 0.950 . S
H2712 C2722 0.950 . S
H2713 C2724 0.950 . S
H2714 C2726 0.950 . S
H2715 C2727 0.950 . S
C2716 H2708 0.950 . S
C2716 C2717 1.386 . S
C2716 C2718 1.391 . S
C2717 C2716 1.386 . S
C2717 C2721 1.393 . S
C2718 H2710 0.950 . S
C2718 C2716 1.391 . S
C2718 C2719 1.400 . S
C2719 C2718 1.400 . S
C2719 C2720 1.398 . S
C2719 C2725 1.491 . S
C2720 H2711 0.950 . S
C2720 C2719 1.398 . S
C2720 C2721 1.391 . S
C2721 H2709 0.950 . S
C2721 C2717 1.393 . S
C2721 C2720 1.391 . S
C2722 H2712 0.950 . S
C2722 C2723 1.386 . S
C2722 C2724 1.391 . S
C2723 C2722 1.386 . S
C2723 C2727 1.393 . S
C2724 H2713 0.950 . S
C2724 C2722 1.391 . S
C2724 C2725 1.400 . S
C2725 C2719 1.491 . S
C2725 C2724 1.400 . S
C2725 C2726 1.398 . S
C2726 H2714 0.950 . S
C2726 C2725 1.398 . S
C2726 C2727 1.391 . S
C2727 H2715 0.950 . S
C2727 C2723 1.393 . S
C2727 C2726 1.391 . S
H2728 C2736 0.950 . S
H2729 C2741 0.950 . S
H2730 C2738 0.950 . S
H2731 C2740 0.950 . S
H2732 C2742 0.950 . S
H2733 C2744 0.950 . S
H2734 C2746 0.950 . S
H2735 C2747 0.950 . S
C2736 H2728 0.950 . S
C2736 C2737 1.386 . S
C2736 C2738 1.391 . S
C2737 C2736 1.386 . S
C2737 C2741 1.393 . S
C2738 H2730 0.950 . S
C2738 C2736 1.391 . S
C2738 C2739 1.400 . S
C2739 C2738 1.400 . S
C2739 C2740 1.398 . S
C2739 C2745 1.491 . S
C2740 H2731 0.950 . S
C2740 C2739 1.398 . S
C2740 C2741 1.391 . S
C2741 H2729 0.950 . S
C2741 C2737 1.393 . S
C2741 C2740 1.391 . S
C2742 H2732 0.950 . S
C2742 C2743 1.386 . S
C2742 C2744 1.391 . S
C2743 C2742 1.386 . S
C2743 C2747 1.393 . S
C2744 H2733 0.950 . S
C2744 C2742 1.391 . S
C2744 C2745 1.400 . S
C2745 C2739 1.491 . S
C2745 C2744 1.400 . S
C2745 C2746 1.398 . S
C2746 H2734 0.950 . S
C2746 C2745 1.398 . S
C2746 C2747 1.391 . S
C2747 H2735 0.950 . S
C2747 C2743 1.393 . S
C2747 C2746 1.391 . S
H2748 C2756 0.950 . S
H2749 C2761 0.950 . S
H2750 C2758 0.950 . S
H2751 C2760 0.950 . S
H2752 C2762 0.950 . S
H2753 C2764 0.950 . S
H2754 C2766 0.950 . S
H2755 C2767 0.950 . S
C2756 H2748 0.950 . S
C2756 C2757 1.386 . S
C2756 C2758 1.391 . S
C2757 C2756 1.386 . S
C2757 C2761 1.393 . S
C2758 H2750 0.950 . S
C2758 C2756 1.391 . S
C2758 C2759 1.400 . S
C2759 C2758 1.400 . S
C2759 C2760 1.398 . S
C2759 C2765 1.491 . S
C2760 H2751 0.950 . S
C2760 C2759 1.398 . S
C2760 C2761 1.391 . S
C2761 H2749 0.950 . S
C2761 C2757 1.393 . S
C2761 C2760 1.391 . S
C2762 H2752 0.950 . S
C2762 C2763 1.386 . S
C2762 C2764 1.391 . S
C2763 C2762 1.386 . S
C2763 C2767 1.393 . S
C2764 H2753 0.950 . S
C2764 C2762 1.391 . S
C2764 C2765 1.400 . S
C2765 C2759 1.491 . S
C2765 C2764 1.400 . S
C2765 C2766 1.398 . S
C2766 H2754 0.950 . S
C2766 C2765 1.398 . S
C2766 C2767 1.391 . S
C2767 H2755 0.950 . S
C2767 C2763 1.393 . S
C2767 C2766 1.391 . S
H2768 C2776 0.950 . S
H2769 C2781 0.950 . S
H2770 C2778 0.950 . S
H2771 C2780 0.950 . S
H2772 C2782 0.950 . S
H2773 C2784 0.950 . S
H2774 C2786 0.950 . S
H2775 C2787 0.950 . S
C2776 H2768 0.950 . S
C2776 C2777 1.386 . S
C2776 C2778 1.391 . S
C2777 C2776 1.386 . S
C2777 C2781 1.393 . S
C2778 H2770 0.950 . S
C2778 C2776 1.391 . S
C2778 C2779 1.400 . S
C2779 C2778 1.400 . S
C2779 C2780 1.398 . S
C2779 C2785 1.491 . S
C2780 H2771 0.950 . S
C2780 C2779 1.398 . S
C2780 C2781 1.391 . S
C2781 H2769 0.950 . S
C2781 C2777 1.393 . S
C2781 C2780 1.391 . S
C2782 H2772 0.950 . S
C2782 C2783 1.386 . S
C2782 C2784 1.391 . S
C2783 C2782 1.386 . S
C2783 C2787 1.393 . S
C2784 H2773 0.950 . S
C2784 C2782 1.391 . S
C2784 C2785 1.400 . S
C2785 C2779 1.491 . S
C2785 C2784 1.400 . S
C2785 C2786 1.398 . S
C2786 H2774 0.950 . S
C2786 C2785 1.398 . S
C2786 C2787 1.391 . S
C2787 H2775 0.950 . S
C2787 C2783 1.393 . S
C2787 C2786 1.391 . S
H2788 C2796 0.950 . S
H2789 C2801 0.950 . S
H2790 C2798 0.950 . S
H2791 C2800 0.950 . S
H2792 C2802 0.950 . S
H2793 C2804 0.950 . S
H2794 C2806 0.950 . S
H2795 C2807 0.950 . S
C2796 H2788 0.950 . S
C2796 C2797 1.386 . S
C2796 C2798 1.391 . S
C2797 C2796 1.386 . S
C2797 C2801 1.393 . S
C2798 H2790 0.950 . S
C2798 C2796 1.391 . S
C2798 C2799 1.400 . S
C2799 C2798 1.400 . S
C2799 C2800 1.398 . S
C2799 C2805 1.491 . S
C2800 H2791 0.950 . S
C2800 C2799 1.398 . S
C2800 C2801 1.391 . S
C2801 H2789 0.950 . S
C2801 C2797 1.393 . S
C2801 C2800 1.391 . S
C2802 H2792 0.950 . S
C2802 C2803 1.386 . S
C2802 C2804 1.391 . S
C2803 C2802 1.386 . S
C2803 C2807 1.393 . S
C2804 H2793 0.950 . S
C2804 C2802 1.391 . S
C2804 C2805 1.400 . S
C2805 C2799 1.491 . S
C2805 C2804 1.400 . S
C2805 C2806 1.398 . S
C2806 H2794 0.950 . S
C2806 C2805 1.398 . S
C2806 C2807 1.391 . S
C2807 H2795 0.950 . S
C2807 C2803 1.393 . S
C2807 C2806 1.391 . S
H2808 C2816 0.950 . S
H2809 C2821 0.950 . S
H2810 C2818 0.950 . S
H2811 C2820 0.950 . S
H2812 C2822 0.950 . S
H2813 C2824 0.950 . S
H2814 C2826 0.950 . S
H2815 C2827 0.950 . S
C2816 H2808 0.950 . S
C2816 C2817 1.386 . S
C2816 C2818 1.391 . S
C2817 C2816 1.386 . S
C2817 C2821 1.393 . S
C2818 H2810 0.950 . S
C2818 C2816 1.391 . S
C2818 C2819 1.400 . S
C2819 C2818 1.400 . S
C2819 C2820 1.398 . S
C2819 C2825 1.491 . S
C2820 H2811 0.950 . S
C2820 C2819 1.398 . S
C2820 C2821 1.391 . S
C2821 H2809 0.950 . S
C2821 C2817 1.393 . S
C2821 C2820 1.391 . S
C2822 H2812 0.950 . S
C2822 C2823 1.386 . S
C2822 C2824 1.391 . S
C2823 C2822 1.386 . S
C2823 C2827 1.393 . S
C2824 H2813 0.950 . S
C2824 C2822 1.391 . S
C2824 C2825 1.400 . S
C2825 C2819 1.491 . S
C2825 C2824 1.400 . S
C2825 C2826 1.398 . S
C2826 H2814 0.950 . S
C2826 C2825 1.398 . S
C2826 C2827 1.391 . S
C2827 H2815 0.950 . S
C2827 C2823 1.393 . S
C2827 C2826 1.391 . S
H2828 C2836 0.950 . S
H2829 C2841 0.950 . S
H2830 C2838 0.950 . S
H2831 C2840 0.950 . S
H2832 C2842 0.950 . S
H2833 C2844 0.950 . S
H2834 C2846 0.950 . S
H2835 C2847 0.950 . S
C2836 H2828 0.950 . S
C2836 C2837 1.386 . S
C2836 C2838 1.391 . S
C2837 C2836 1.386 . S
C2837 C2841 1.393 . S
C2838 H2830 0.950 . S
C2838 C2836 1.391 . S
C2838 C2839 1.400 . S
C2839 C2838 1.400 . S
C2839 C2840 1.398 . S
C2839 C2845 1.491 . S
C2840 H2831 0.950 . S
C2840 C2839 1.398 . S
C2840 C2841 1.391 . S
C2841 H2829 0.950 . S
C2841 C2837 1.393 . S
C2841 C2840 1.391 . S
C2842 H2832 0.950 . S
C2842 C2843 1.386 . S
C2842 C2844 1.391 . S
C2843 C2842 1.386 . S
C2843 C2847 1.393 . S
C2844 H2833 0.950 . S
C2844 C2842 1.391 . S
C2844 C2845 1.400 . S
C2845 C2839 1.491 . S
C2845 C2844 1.400 . S
C2845 C2846 1.398 . S
C2846 H2834 0.950 . S
C2846 C2845 1.398 . S
C2846 C2847 1.391 . S
C2847 H2835 0.950 . S
C2847 C2843 1.393 . S
C2847 C2846 1.391 . S
H2848 C2856 0.950 . S
H2849 C2861 0.950 . S
H2850 C2858 0.950 . S
H2851 C2860 0.950 . S
H2852 C2862 0.950 . S
H2853 C2864 0.950 . S
H2854 C2866 0.950 . S
H2855 C2867 0.950 . S
C2856 H2848 0.950 . S
C2856 C2857 1.386 . S
C2856 C2858 1.391 . S
C2857 C2856 1.386 . S
C2857 C2861 1.393 . S
C2858 H2850 0.950 . S
C2858 C2856 1.391 . S
C2858 C2859 1.400 . S
C2859 C2858 1.400 . S
C2859 C2860 1.398 . S
C2859 C2865 1.491 . S
C2860 H2851 0.950 . S
C2860 C2859 1.398 . S
C2860 C2861 1.391 . S
C2861 H2849 0.950 . S
C2861 C2857 1.393 . S
C2861 C2860 1.391 . S
C2862 H2852 0.950 . S
C2862 C2863 1.386 . S
C2862 C2864 1.391 . S
C2863 C2862 1.386 . S
C2863 C2867 1.393 . S
C2864 H2853 0.950 . S
C2864 C2862 1.391 . S
C2864 C2865 1.400 . S
C2865 C2859 1.491 . S
C2865 C2864 1.400 . S
C2865 C2866 1.398 . S
C2866 H2854 0.950 . S
C2866 C2865 1.398 . S
C2866 C2867 1.391 . S
C2867 H2855 0.950 . S
C2867 C2863 1.393 . S
C2867 C2866 1.391 . S
H2868 C2876 0.950 . S
H2869 C2881 0.950 . S
H2870 C2878 0.950 . S
H2871 C2880 0.950 . S
H2872 C2882 0.950 . S
H2873 C2884 0.950 . S
H2874 C2886 0.950 . S
H2875 C2887 0.950 . S
C2876 H2868 0.950 . S
C2876 C2877 1.386 . S
C2876 C2878 1.391 . S
C2877 C2876 1.386 . S
C2877 C2881 1.393 . S
C2878 H2870 0.950 . S
C2878 C2876 1.391 . S
C2878 C2879 1.400 . S
C2879 C2878 1.400 . S
C2879 C2880 1.398 . S
C2879 C2885 1.491 . S
C2880 H2871 0.950 . S
C2880 C2879 1.398 . S
C2880 C2881 1.391 . S
C2881 H2869 0.950 . S
C2881 C2877 1.393 . S
C2881 C2880 1.391 . S
C2882 H2872 0.950 . S
C2882 C2883 1.386 . S
C2882 C2884 1.391 . S
C2883 C2882 1.386 . S
C2883 C2887 1.393 . S
C2884 H2873 0.950 . S
C2884 C2882 1.391 . S
C2884 C2885 1.400 . S
C2885 C2879 1.491 . S
C2885 C2884 1.400 . S
C2885 C2886 1.398 . S
C2886 H2874 0.950 . S
C2886 C2885 1.398 . S
C2886 C2887 1.391 . S
C2887 H2875 0.950 . S
C2887 C2883 1.393 . S
C2887 C2886 1.391 . S
H2888 C2896 0.950 . S
H2889 C2901 0.950 . S
H2890 C2898 0.950 . S
H2891 C2900 0.950 . S
H2892 C2902 0.950 . S
H2893 C2904 0.950 . S
H2894 C2906 0.950 . S
H2895 C2907 0.950 . S
C2896 H2888 0.950 . S
C2896 C2897 1.386 . S
C2896 C2898 1.391 . S
C2897 C2896 1.386 . S
C2897 C2901 1.393 . S
C2898 H2890 0.950 . S
C2898 C2896 1.391 . S
C2898 C2899 1.400 . S
C2899 C2898 1.400 . S
C2899 C2900 1.398 . S
C2899 C2905 1.491 . S
C2900 H2891 0.950 . S
C2900 C2899 1.398 . S
C2900 C2901 1.391 . S
C2901 H2889 0.950 . S
C2901 C2897 1.393 . S
C2901 C2900 1.391 . S
C2902 H2892 0.950 . S
C2902 C2903 1.386 . S
C2902 C2904 1.391 . S
C2903 C2902 1.386 . S
C2903 C2907 1.393 . S
C2904 H2893 0.950 . S
C2904 C2902 1.391 . S
C2904 C2905 1.400 . S
C2905 C2899 1.491 . S
C2905 C2904 1.400 . S
C2905 C2906 1.398 . S
C2906 H2894 0.950 . S
C2906 C2905 1.398 . S
C2906 C2907 1.391 . S
C2907 H2895 0.950 . S
C2907 C2903 1.393 . S
C2907 C2906 1.391 . S
H2908 C2916 0.950 . S
H2909 C2921 0.950 . S
H2910 C2918 0.950 . S
H2911 C2920 0.950 . S
H2912 C2922 0.950 . S
H2913 C2924 0.950 . S
H2914 C2926 0.950 . S
H2915 C2927 0.950 . S
C2916 H2908 0.950 . S
C2916 C2917 1.386 . S
C2916 C2918 1.391 . S
C2917 C2916 1.386 . S
C2917 C2921 1.393 . S
C2918 H2910 0.950 . S
C2918 C2916 1.391 . S
C2918 C2919 1.400 . S
C2919 C2918 1.400 . S
C2919 C2920 1.398 . S
C2919 C2925 1.491 . S
C2920 H2911 0.950 . S
C2920 C2919 1.398 . S
C2920 C2921 1.391 . S
C2921 H2909 0.950 . S
C2921 C2917 1.393 . S
C2921 C2920 1.391 . S
C2922 H2912 0.950 . S
C2922 C2923 1.386 . S
C2922 C2924 1.391 . S
C2923 C2922 1.386 . S
C2923 C2927 1.393 . S
C2924 H2913 0.950 . S
C2924 C2922 1.391 . S
C2924 C2925 1.400 . S
C2925 C2919 1.491 . S
C2925 C2924 1.400 . S
C2925 C2926 1.398 . S
C2926 H2914 0.950 . S
C2926 C2925 1.398 . S
C2926 C2927 1.391 . S
C2927 H2915 0.950 . S
C2927 C2923 1.393 . S
C2927 C2926 1.391 . S
H2928 C2936 0.950 . S
H2929 C2941 0.950 . S
H2930 C2938 0.950 . S
H2931 C2940 0.950 . S
H2932 C2942 0.950 . S
H2933 C2944 0.950 . S
H2934 C2946 0.950 . S
H2935 C2947 0.950 . S
C2936 H2928 0.950 . S
C2936 C2937 1.386 . S
C2936 C2938 1.391 . S
C2937 C2936 1.386 . S
C2937 C2941 1.393 . S
C2938 H2930 0.950 . S
C2938 C2936 1.391 . S
C2938 C2939 1.400 . S
C2939 C2938 1.400 . S
C2939 C2940 1.398 . S
C2939 C2945 1.491 . S
C2940 H2931 0.950 . S
C2940 C2939 1.398 . S
C2940 C2941 1.391 . S
C2941 H2929 0.950 . S
C2941 C2937 1.393 . S
C2941 C2940 1.391 . S
C2942 H2932 0.950 . S
C2942 C2943 1.386 . S
C2942 C2944 1.391 . S
C2943 C2942 1.386 . S
C2943 C2947 1.393 . S
C2944 H2933 0.950 . S
C2944 C2942 1.391 . S
C2944 C2945 1.400 . S
C2945 C2939 1.491 . S
C2945 C2944 1.400 . S
C2945 C2946 1.398 . S
C2946 H2934 0.950 . S
C2946 C2945 1.398 . S
C2946 C2947 1.391 . S
C2947 H2935 0.950 . S
C2947 C2943 1.393 . S
C2947 C2946 1.391 . S
H2948 C2956 0.950 . S
H2949 C2961 0.950 . S
H2950 C2958 0.950 . S
H2951 C2960 0.950 . S
H2952 C2962 0.950 . S
H2953 C2964 0.950 . S
H2954 C2966 0.950 . S
H2955 C2967 0.950 . S
C2956 H2948 0.950 . S
C2956 C2957 1.386 . S
C2956 C2958 1.391 . S
C2957 C2956 1.386 . S
C2957 C2961 1.393 . S
C2958 H2950 0.950 . S
C2958 C2956 1.391 . S
C2958 C2959 1.400 . S
C2959 C2958 1.400 . S
C2959 C2960 1.398 . S
C2959 C2965 1.491 . S
C2960 H2951 0.950 . S
C2960 C2959 1.398 . S
C2960 C2961 1.391 . S
C2961 H2949 0.950 . S
C2961 C2957 1.393 . S
C2961 C2960 1.391 . S
C2962 H2952 0.950 . S
C2962 C2963 1.386 . S
C2962 C2964 1.391 . S
C2963 C2962 1.386 . S
C2963 C2967 1.393 . S
C2964 H2953 0.950 . S
C2964 C2962 1.391 . S
C2964 C2965 1.400 . S
C2965 C2959 1.491 . S
C2965 C2964 1.400 . S
C2965 C2966 1.398 . S
C2966 H2954 0.950 . S
C2966 C2965 1.398 . S
C2966 C2967 1.391 . S
C2967 H2955 0.950 . S
C2967 C2963 1.393 . S
C2967 C2966 1.391 . S
H2968 C2976 0.950 . S
H2969 C2981 0.950 . S
H2970 C2978 0.950 . S
H2971 C2980 0.950 . S
H2972 C2982 0.950 . S
H2973 C2984 0.950 . S
H2974 C2986 0.950 . S
H2975 C2987 0.950 . S
C2976 H2968 0.950 . S
C2976 C2977 1.386 . S
C2976 C2978 1.391 . S
C2977 C2976 1.386 . S
C2977 C2981 1.393 . S
C2978 H2970 0.950 . S
C2978 C2976 1.391 . S
C2978 C2979 1.400 . S
C2979 C2978 1.400 . S
C2979 C2980 1.398 . S
C2979 C2985 1.491 . S
C2980 H2971 0.950 . S
C2980 C2979 1.398 . S
C2980 C2981 1.391 . S
C2981 H2969 0.950 . S
C2981 C2977 1.393 . S
C2981 C2980 1.391 . S
C2982 H2972 0.950 . S
C2982 C2983 1.386 . S
C2982 C2984 1.391 . S
C2983 C2982 1.386 . S
C2983 C2987 1.393 . S
C2984 H2973 0.950 . S
C2984 C2982 1.391 . S
C2984 C2985 1.400 . S
C2985 C2979 1.491 . S
C2985 C2984 1.400 . S
C2985 C2986 1.398 . S
C2986 H2974 0.950 . S
C2986 C2985 1.398 . S
C2986 C2987 1.391 . S
C2987 H2975 0.950 . S
C2987 C2983 1.393 . S
C2987 C2986 1.391 . S
H2988 C2996 0.950 . S
H2989 C3001 0.950 . S
H2990 C2998 0.950 . S
H2991 C3000 0.950 . S
H2992 C3002 0.950 . S
H2993 C3004 0.950 . S
H2994 C3006 0.950 . S
H2995 C3007 0.950 . S
C2996 H2988 0.950 . S
C2996 C2997 1.386 . S
C2996 C2998 1.391 . S
C2997 C2996 1.386 . S
C2997 C3001 1.393 . S
C2998 H2990 0.950 . S
C2998 C2996 1.391 . S
C2998 C2999 1.400 . S
C2999 C2998 1.400 . S
C2999 C3000 1.398 . S
C2999 C3005 1.491 . S
C3000 H2991 0.950 . S
C3000 C2999 1.398 . S
C3000 C3001 1.391 . S
C3001 H2989 0.950 . S
C3001 C2997 1.393 . S
C3001 C3000 1.391 . S
C3002 H2992 0.950 . S
C3002 C3003 1.386 . S
C3002 C3004 1.391 . S
C3003 C3002 1.386 . S
C3003 C3007 1.393 . S
C3004 H2993 0.950 . S
C3004 C3002 1.391 . S
C3004 C3005 1.400 . S
C3005 C2999 1.491 . S
C3005 C3004 1.400 . S
C3005 C3006 1.398 . S
C3006 H2994 0.950 . S
C3006 C3005 1.398 . S
C3006 C3007 1.391 . S
C3007 H2995 0.950 . S
C3007 C3003 1.393 . S
C3007 C3006 1.391 . S
H3008 C3016 0.950 . S
H3009 C3021 0.950 . S
H3010 C3018 0.950 . S
H3011 C3020 0.950 . S
H3012 C3022 0.950 . S
H3013 C3024 0.950 . S
H3014 C3026 0.950 . S
H3015 C3027 0.950 . S
C3016 H3008 0.950 . S
C3016 C3017 1.386 . S
C3016 C3018 1.391 . S
C3017 C3016 1.386 . S
C3017 C3021 1.393 . S
C3018 H3010 0.950 . S
C3018 C3016 1.391 . S
C3018 C3019 1.400 . S
C3019 C3018 1.400 . S
C3019 C3020 1.398 . S
C3019 C3025 1.491 . S
C3020 H3011 0.950 . S
C3020 C3019 1.398 . S
C3020 C3021 1.391 . S
C3021 H3009 0.950 . S
C3021 C3017 1.393 . S
C3021 C3020 1.391 . S
C3022 H3012 0.950 . S
C3022 C3023 1.386 . S
C3022 C3024 1.391 . S
C3023 C3022 1.386 . S
C3023 C3027 1.393 . S
C3024 H3013 0.950 . S
C3024 C3022 1.391 . S
C3024 C3025 1.400 . S
C3025 C3019 1.491 . S
C3025 C3024 1.400 . S
C3025 C3026 1.398 . S
C3026 H3014 0.950 . S
C3026 C3025 1.398 . S
C3026 C3027 1.391 . S
C3027 H3015 0.950 . S
C3027 C3023 1.393 . S
C3027 C3026 1.391 . S
H3028 C3036 0.950 . S
H3029 C3041 0.950 . S
H3030 C3038 0.950 . S
H3031 C3040 0.950 . S
H3032 C3042 0.950 . S
H3033 C3044 0.950 . S
H3034 C3046 0.950 . S
H3035 C3047 0.950 . S
C3036 H3028 0.950 . S
C3036 C3037 1.386 . S
C3036 C3038 1.391 . S
C3037 C3036 1.386 . S
C3037 C3041 1.393 . S
C3038 H3030 0.950 . S
C3038 C3036 1.391 . S
C3038 C3039 1.400 . S
C3039 C3038 1.400 . S
C3039 C3040 1.398 . S
C3039 C3045 1.491 . S
C3040 H3031 0.950 . S
C3040 C3039 1.398 . S
C3040 C3041 1.391 . S
C3041 H3029 0.950 . S
C3041 C3037 1.393 . S
C3041 C3040 1.391 . S
C3042 H3032 0.950 . S
C3042 C3043 1.386 . S
C3042 C3044 1.391 . S
C3043 C3042 1.386 . S
C3043 C3047 1.393 . S
C3044 H3033 0.950 . S
C3044 C3042 1.391 . S
C3044 C3045 1.400 . S
C3045 C3039 1.491 . S
C3045 C3044 1.400 . S
C3045 C3046 1.398 . S
C3046 H3034 0.950 . S
C3046 C3045 1.398 . S
C3046 C3047 1.391 . S
C3047 H3035 0.950 . S
C3047 C3043 1.393 . S
C3047 C3046 1.391 . S
H3048 C3056 0.950 . S
H3049 C3061 0.950 . S
H3050 C3058 0.950 . S
H3051 C3060 0.950 . S
H3052 C3062 0.950 . S
H3053 C3064 0.950 . S
H3054 C3066 0.950 . S
H3055 C3067 0.950 . S
C3056 H3048 0.950 . S
C3056 C3057 1.386 . S
C3056 C3058 1.391 . S
C3057 C3056 1.386 . S
C3057 C3061 1.393 . S
C3058 H3050 0.950 . S
C3058 C3056 1.391 . S
C3058 C3059 1.400 . S
C3059 C3058 1.400 . S
C3059 C3060 1.398 . S
C3059 C3065 1.491 . S
C3060 H3051 0.950 . S
C3060 C3059 1.398 . S
C3060 C3061 1.391 . S
C3061 H3049 0.950 . S
C3061 C3057 1.393 . S
C3061 C3060 1.391 . S
C3062 H3052 0.950 . S
C3062 C3063 1.386 . S
C3062 C3064 1.391 . S
C3063 C3062 1.386 . S
C3063 C3067 1.393 . S
C3064 H3053 0.950 . S
C3064 C3062 1.391 . S
C3064 C3065 1.400 . S
C3065 C3059 1.491 . S
C3065 C3064 1.400 . S
C3065 C3066 1.398 . S
C3066 H3054 0.950 . S
C3066 C3065 1.398 . S
C3066 C3067 1.391 . S
C3067 H3055 0.950 . S
C3067 C3063 1.393 . S
C3067 C3066 1.391 . S
H3068 C3076 0.950 . S
H3069 C3081 0.950 . S
H3070 C3078 0.950 . S
H3071 C3080 0.950 . S
H3072 C3082 0.950 . S
H3073 C3084 0.950 . S
H3074 C3086 0.950 . S
H3075 C3087 0.950 . S
C3076 H3068 0.950 . S
C3076 C3077 1.386 . S
C3076 C3078 1.391 . S
C3077 C3076 1.386 . S
C3077 C3081 1.393 . S
C3078 H3070 0.950 . S
C3078 C3076 1.391 . S
C3078 C3079 1.400 . S
C3079 C3078 1.400 . S
C3079 C3080 1.398 . S
C3079 C3085 1.491 . S
C3080 H3071 0.950 . S
C3080 C3079 1.398 . S
C3080 C3081 1.391 . S
C3081 H3069 0.950 . S
C3081 C3077 1.393 . S
C3081 C3080 1.391 . S
C3082 H3072 0.950 . S
C3082 C3083 1.386 . S
C3082 C3084 1.391 . S
C3083 C3082 1.386 . S
C3083 C3087 1.393 . S
C3084 H3073 0.950 . S
C3084 C3082 1.391 . S
C3084 C3085 1.400 . S
C3085 C3079 1.491 . S
C3085 C3084 1.400 . S
C3085 C3086 1.398 . S
C3086 H3074 0.950 . S
C3086 C3085 1.398 . S
C3086 C3087 1.391 . S
C3087 H3075 0.950 . S
C3087 C3083 1.393 . S
C3087 C3086 1.391 . S
H3088 C3096 0.950 . S
H3089 C3101 0.950 . S
H3090 C3098 0.950 . S
H3091 C3100 0.950 . S
H3092 C3102 0.950 . S
H3093 C3104 0.950 . S
H3094 C3106 0.950 . S
H3095 C3107 0.950 . S
C3096 H3088 0.950 . S
C3096 C3097 1.386 . S
C3096 C3098 1.391 . S
C3097 C3096 1.386 . S
C3097 C3101 1.393 . S
C3098 H3090 0.950 . S
C3098 C3096 1.391 . S
C3098 C3099 1.400 . S
C3099 C3098 1.400 . S
C3099 C3100 1.398 . S
C3099 C3105 1.491 . S
C3100 H3091 0.950 . S
C3100 C3099 1.398 . S
C3100 C3101 1.391 . S
C3101 H3089 0.950 . S
C3101 C3097 1.393 . S
C3101 C3100 1.391 . S
C3102 H3092 0.950 . S
C3102 C3103 1.386 . S
C3102 C3104 1.391 . S
C3103 C3102 1.386 . S
C3103 C3107 1.393 . S
C3104 H3093 0.950 . S
C3104 C3102 1.391 . S
C3104 C3105 1.400 . S
C3105 C3099 1.491 . S
C3105 C3104 1.400 . S
C3105 C3106 1.398 . S
C3106 H3094 0.950 . S
C3106 C3105 1.398 . S
C3106 C3107 1.391 . S
C3107 H3095 0.950 . S
C3107 C3103 1.393 . S
C3107 C3106 1.391 . S
H3108 C3116 0.950 . S
H3109 C3121 0.950 . S
H3110 C3118 0.950 . S
H3111 C3120 0.950 . S
H3112 C3122 0.950 . S
H3113 C3124 0.950 . S
H3114 C3126 0.950 . S
H3115 C3127 0.950 . S
C3116 H3108 0.950 . S
C3116 C3117 1.386 . S
C3116 C3118 1.391 . S
C3117 C3116 1.386 . S
C3117 C3121 1.393 . S
C3118 H3110 0.950 . S
C3118 C3116 1.391 . S
C3118 C3119 1.400 . S
C3119 C3118 1.400 . S
C3119 C3120 1.398 . S
C3119 C3125 1.491 . S
C3120 H3111 0.950 . S
C3120 C3119 1.398 . S
C3120 C3121 1.391 . S
C3121 H3109 0.950 . S
C3121 C3117 1.393 . S
C3121 C3120 1.391 . S
C3122 H3112 0.950 . S
C3122 C3123 1.386 . S
C3122 C3124 1.391 . S
C3123 C3122 1.386 . S
C3123 C3127 1.393 . S
C3124 H3113 0.950 . S
C3124 C3122 1.391 . S
C3124 C3125 1.400 . S
C3125 C3119 1.491 . S
C3125 C3124 1.400 . S
C3125 C3126 1.398 . S
C3126 H3114 0.950 . S
C3126 C3125 1.398 . S
C3126 C3127 1.391 . S
C3127 H3115 0.950 . S
C3127 C3123 1.393 . S
C3127 C3126 1.391 . S
H3128 C3136 0.950 . S
H3129 C3141 0.950 . S
H3130 C3138 0.950 . S
H3131 C3140 0.950 . S
H3132 C3142 0.950 . S
H3133 C3144 0.950 . S
H3134 C3146 0.950 . S
H3135 C3147 0.950 . S
C3136 H3128 0.950 . S
C3136 C3137 1.386 . S
C3136 C3138 1.391 . S
C3137 C3136 1.386 . S
C3137 C3141 1.393 . S
C3138 H3130 0.950 . S
C3138 C3136 1.391 . S
C3138 C3139 1.400 . S
C3139 C3138 1.400 . S
C3139 C3140 1.398 . S
C3139 C3145 1.491 . S
C3140 H3131 0.950 . S
C3140 C3139 1.398 . S
C3140 C3141 1.391 . S
C3141 H3129 0.950 . S
C3141 C3137 1.393 . S
C3141 C3140 1.391 . S
C3142 H3132 0.950 . S
C3142 C3143 1.386 . S
C3142 C3144 1.391 . S
C3143 C3142 1.386 . S
C3143 C3147 1.393 . S
C3144 H3133 0.950 . S
C3144 C3142 1.391 . S
C3144 C3145 1.400 . S
C3145 C3139 1.491 . S
C3145 C3144 1.400 . S
C3145 C3146 1.398 . S
C3146 H3134 0.950 . S
C3146 C3145 1.398 . S
C3146 C3147 1.391 . S
C3147 H3135 0.950 . S
C3147 C3143 1.393 . S
C3147 C3146 1.391 . S
H3148 C3156 0.950 . S
H3149 C3161 0.950 . S
H3150 C3158 0.950 . S
H3151 C3160 0.950 . S
H3152 C3162 0.950 . S
H3153 C3164 0.950 . S
H3154 C3166 0.950 . S
H3155 C3167 0.950 . S
C3156 H3148 0.950 . S
C3156 C3157 1.386 . S
C3156 C3158 1.391 . S
C3157 C3156 1.386 . S
C3157 C3161 1.393 . S
C3158 H3150 0.950 . S
C3158 C3156 1.391 . S
C3158 C3159 1.400 . S
C3159 C3158 1.400 . S
C3159 C3160 1.398 . S
C3159 C3165 1.491 . S
C3160 H3151 0.950 . S
C3160 C3159 1.398 . S
C3160 C3161 1.391 . S
C3161 H3149 0.950 . S
C3161 C3157 1.393 . S
C3161 C3160 1.391 . S
C3162 H3152 0.950 . S
C3162 C3163 1.386 . S
C3162 C3164 1.391 . S
C3163 C3162 1.386 . S
C3163 C3167 1.393 . S
C3164 H3153 0.950 . S
C3164 C3162 1.391 . S
C3164 C3165 1.400 . S
C3165 C3159 1.491 . S
C3165 C3164 1.400 . S
C3165 C3166 1.398 . S
C3166 H3154 0.950 . S
C3166 C3165 1.398 . S
C3166 C3167 1.391 . S
C3167 H3155 0.950 . S
C3167 C3163 1.393 . S
C3167 C3166 1.391 . S
H3168 C3176 0.950 . S
H3169 C3181 0.950 . S
H3170 C3178 0.950 . S
H3171 C3180 0.950 . S
H3172 C3182 0.950 . S
H3173 C3184 0.950 . S
H3174 C3186 0.950 . S
H3175 C3187 0.950 . S
C3176 H3168 0.950 . S
C3176 C3177 1.386 . S
C3176 C3178 1.391 . S
C3177 C3176 1.386 . S
C3177 C3181 1.393 . S
C3178 H3170 0.950 . S
C3178 C3176 1.391 . S
C3178 C3179 1.400 . S
C3179 C3178 1.400 . S
C3179 C3180 1.398 . S
C3179 C3185 1.491 . S
C3180 H3171 0.950 . S
C3180 C3179 1.398 . S
C3180 C3181 1.391 . S
C3181 H3169 0.950 . S
C3181 C3177 1.393 . S
C3181 C3180 1.391 . S
C3182 H3172 0.950 . S
C3182 C3183 1.386 . S
C3182 C3184 1.391 . S
C3183 C3182 1.386 . S
C3183 C3187 1.393 . S
C3184 H3173 0.950 . S
C3184 C3182 1.391 . S
C3184 C3185 1.400 . S
C3185 C3179 1.491 . S
C3185 C3184 1.400 . S
C3185 C3186 1.398 . S
C3186 H3174 0.950 . S
C3186 C3185 1.398 . S
C3186 C3187 1.391 . S
C3187 H3175 0.950 . S
C3187 C3183 1.393 . S
C3187 C3186 1.391 . S
H3188 C3196 0.950 . S
H3189 C3201 0.950 . S
H3190 C3198 0.950 . S
H3191 C3200 0.950 . S
H3192 C3202 0.950 . S
H3193 C3204 0.950 . S
H3194 C3206 0.950 . S
H3195 C3207 0.950 . S
C3196 H3188 0.950 . S
C3196 C3197 1.386 . S
C3196 C3198 1.391 . S
C3197 C3196 1.386 . S
C3197 C3201 1.393 . S
C3198 H3190 0.950 . S
C3198 C3196 1.391 . S
C3198 C3199 1.400 . S
C3199 C3198 1.400 . S
C3199 C3200 1.398 . S
C3199 C3205 1.491 . S
C3200 H3191 0.950 . S
C3200 C3199 1.398 . S
C3200 C3201 1.391 . S
C3201 H3189 0.950 . S
C3201 C3197 1.393 . S
C3201 C3200 1.391 . S
C3202 H3192 0.950 . S
C3202 C3203 1.386 . S
C3202 C3204 1.391 . S
C3203 C3202 1.386 . S
C3203 C3207 1.393 . S
C3204 H3193 0.950 . S
C3204 C3202 1.391 . S
C3204 C3205 1.400 . S
C3205 C3199 1.491 . S
C3205 C3204 1.400 . S
C3205 C3206 1.398 . S
C3206 H3194 0.950 . S
C3206 C3205 1.398 . S
C3206 C3207 1.391 . S
C3207 H3195 0.950 . S
C3207 C3203 1.393 . S
C3207 C3206 1.391 . S
H3208 C3216 0.950 . S
H3209 C3221 0.950 . S
H3210 C3218 0.950 . S
H3211 C3220 0.950 . S
H3212 C3222 0.950 . S
H3213 C3224 0.950 . S
H3214 C3226 0.950 . S
H3215 C3227 0.950 . S
C3216 H3208 0.950 . S
C3216 C3217 1.386 . S
C3216 C3218 1.391 . S
C3217 C3216 1.386 . S
C3217 C3221 1.393 . S
C3218 H3210 0.950 . S
C3218 C3216 1.391 . S
C3218 C3219 1.400 . S
C3219 C3218 1.400 . S
C3219 C3220 1.398 . S
C3219 C3225 1.491 . S
C3220 H3211 0.950 . S
C3220 C3219 1.398 . S
C3220 C3221 1.391 . S
C3221 H3209 0.950 . S
C3221 C3217 1.393 . S
C3221 C3220 1.391 . S
C3222 H3212 0.950 . S
C3222 C3223 1.386 . S
C3222 C3224 1.391 . S
C3223 C3222 1.386 . S
C3223 C3227 1.393 . S
C3224 H3213 0.950 . S
C3224 C3222 1.391 . S
C3224 C3225 1.400 . S
C3225 C3219 1.491 . S
C3225 C3224 1.400 . S
C3225 C3226 1.398 . S
C3226 H3214 0.950 . S
C3226 C3225 1.398 . S
C3226 C3227 1.391 . S
C3227 H3215 0.950 . S
C3227 C3223 1.393 . S
C3227 C3226 1.391 . S
H3228 C3236 0.950 . S
H3229 C3241 0.950 . S
H3230 C3238 0.950 . S
H3231 C3240 0.950 . S
H3232 C3242 0.950 . S
H3233 C3244 0.950 . S
H3234 C3246 0.950 . S
H3235 C3247 0.950 . S
C3236 H3228 0.950 . S
C3236 C3237 1.386 . S
C3236 C3238 1.391 . S
C3237 C3236 1.386 . S
C3237 C3241 1.393 . S
C3238 H3230 0.950 . S
C3238 C3236 1.391 . S
C3238 C3239 1.400 . S
C3239 C3238 1.400 . S
C3239 C3240 1.398 . S
C3239 C3245 1.491 . S
C3240 H3231 0.950 . S
C3240 C3239 1.398 . S
C3240 C3241 1.391 . S
C3241 H3229 0.950 . S
C3241 C3237 1.393 . S
C3241 C3240 1.391 . S
C3242 H3232 0.950 . S
C3242 C3243 1.386 . S
C3242 C3244 1.391 . S
C3243 C3242 1.386 . S
C3243 C3247 1.393 . S
C3244 H3233 0.950 . S
C3244 C3242 1.391 . S
C3244 C3245 1.400 . S
C3245 C3239 1.491 . S
C3245 C3244 1.400 . S
C3245 C3246 1.398 . S
C3246 H3234 0.950 . S
C3246 C3245 1.398 . S
C3246 C3247 1.391 . S
C3247 H3235 0.950 . S
C3247 C3243 1.393 . S
C3247 C3246 1.391 . S
H3248 C3256 0.950 . S
H3249 C3261 0.950 . S
H3250 C3258 0.950 . S
H3251 C3260 0.950 . S
H3252 C3262 0.950 . S
H3253 C3264 0.950 . S
H3254 C3266 0.950 . S
H3255 C3267 0.950 . S
C3256 H3248 0.950 . S
C3256 C3257 1.386 . S
C3256 C3258 1.391 . S
C3257 C3256 1.386 . S
C3257 C3261 1.393 . S
C3258 H3250 0.950 . S
C3258 C3256 1.391 . S
C3258 C3259 1.400 . S
C3259 C3258 1.400 . S
C3259 C3260 1.398 . S
C3259 C3265 1.491 . S
C3260 H3251 0.950 . S
C3260 C3259 1.398 . S
C3260 C3261 1.391 . S
C3261 H3249 0.950 . S
C3261 C3257 1.393 . S
C3261 C3260 1.391 . S
C3262 H3252 0.950 . S
C3262 C3263 1.386 . S
C3262 C3264 1.391 . S
C3263 C3262 1.386 . S
C3263 C3267 1.393 . S
C3264 H3253 0.950 . S
C3264 C3262 1.391 . S
C3264 C3265 1.400 . S
C3265 C3259 1.491 . S
C3265 C3264 1.400 . S
C3265 C3266 1.398 . S
C3266 H3254 0.950 . S
C3266 C3265 1.398 . S
C3266 C3267 1.391 . S
C3267 H3255 0.950 . S
C3267 C3263 1.393 . S
C3267 C3266 1.391 . S
H3268 C3276 0.950 . S
H3269 C3281 0.950 . S
H3270 C3278 0.950 . S
H3271 C3280 0.950 . S
H3272 C3282 0.950 . S
H3273 C3284 0.950 . S
H3274 C3286 0.950 . S
H3275 C3287 0.950 . S
C3276 H3268 0.950 . S
C3276 C3277 1.386 . S
C3276 C3278 1.391 . S
C3277 C3276 1.386 . S
C3277 C3281 1.393 . S
C3278 H3270 0.950 . S
C3278 C3276 1.391 . S
C3278 C3279 1.400 . S
C3279 C3278 1.400 . S
C3279 C3280 1.398 . S
C3279 C3285 1.491 . S
C3280 H3271 0.950 . S
C3280 C3279 1.398 . S
C3280 C3281 1.391 . S
C3281 H3269 0.950 . S
C3281 C3277 1.393 . S
C3281 C3280 1.391 . S
C3282 H3272 0.950 . S
C3282 C3283 1.386 . S
C3282 C3284 1.391 . S
C3283 C3282 1.386 . S
C3283 C3287 1.393 . S
C3284 H3273 0.950 . S
C3284 C3282 1.391 . S
C3284 C3285 1.400 . S
C3285 C3279 1.491 . S
C3285 C3284 1.400 . S
C3285 C3286 1.398 . S
C3286 H3274 0.950 . S
C3286 C3285 1.398 . S
C3286 C3287 1.391 . S
C3287 H3275 0.950 . S
C3287 C3283 1.393 . S
C3287 C3286 1.391 . S
H3288 C3296 0.950 . S
H3289 C3301 0.950 . S
H3290 C3298 0.950 . S
H3291 C3300 0.950 . S
H3292 C3302 0.950 . S
H3293 C3304 0.950 . S
H3294 C3306 0.950 . S
H3295 C3307 0.950 . S
C3296 H3288 0.950 . S
C3296 C3297 1.386 . S
C3296 C3298 1.391 . S
C3297 C3296 1.386 . S
C3297 C3301 1.393 . S
C3298 H3290 0.950 . S
C3298 C3296 1.391 . S
C3298 C3299 1.400 . S
C3299 C3298 1.400 . S
C3299 C3300 1.398 . S
C3299 C3305 1.491 . S
C3300 H3291 0.950 . S
C3300 C3299 1.398 . S
C3300 C3301 1.391 . S
C3301 H3289 0.950 . S
C3301 C3297 1.393 . S
C3301 C3300 1.391 . S
C3302 H3292 0.950 . S
C3302 C3303 1.386 . S
C3302 C3304 1.391 . S
C3303 C3302 1.386 . S
C3303 C3307 1.393 . S
C3304 H3293 0.950 . S
C3304 C3302 1.391 . S
C3304 C3305 1.400 . S
C3305 C3299 1.491 . S
C3305 C3304 1.400 . S
C3305 C3306 1.398 . S
C3306 H3294 0.950 . S
C3306 C3305 1.398 . S
C3306 C3307 1.391 . S
C3307 H3295 0.950 . S
C3307 C3303 1.393 . S
C3307 C3306 1.391 . S
H3308 C3316 0.950 . S
H3309 C3321 0.950 . S
H3310 C3318 0.950 . S
H3311 C3320 0.950 . S
H3312 C3322 0.950 . S
H3313 C3324 0.950 . S
H3314 C3326 0.950 . S
H3315 C3327 0.950 . S
C3316 H3308 0.950 . S
C3316 C3317 1.386 . S
C3316 C3318 1.391 . S
C3317 C3316 1.386 . S
C3317 C3321 1.393 . S
C3318 H3310 0.950 . S
C3318 C3316 1.391 . S
C3318 C3319 1.400 . S
C3319 C3318 1.400 . S
C3319 C3320 1.398 . S
C3319 C3325 1.491 . S
C3320 H3311 0.950 . S
C3320 C3319 1.398 . S
C3320 C3321 1.391 . S
C3321 H3309 0.950 . S
C3321 C3317 1.393 . S
C3321 C3320 1.391 . S
C3322 H3312 0.950 . S
C3322 C3323 1.386 . S
C3322 C3324 1.391 . S
C3323 C3322 1.386 . S
C3323 C3327 1.393 . S
C3324 H3313 0.950 . S
C3324 C3322 1.391 . S
C3324 C3325 1.400 . S
C3325 C3319 1.491 . S
C3325 C3324 1.400 . S
C3325 C3326 1.398 . S
C3326 H3314 0.950 . S
C3326 C3325 1.398 . S
C3326 C3327 1.391 . S
C3327 H3315 0.950 . S
C3327 C3323 1.393 . S
C3327 C3326 1.391 . S
H3328 C3336 0.950 . S
H3329 C3341 0.950 . S
H3330 C3338 0.950 . S
H3331 C3340 0.950 . S
H3332 C3342 0.950 . S
H3333 C3344 0.950 . S
H3334 C3346 0.950 . S
H3335 C3347 0.950 . S
C3336 H3328 0.950 . S
C3336 C3337 1.386 . S
C3336 C3338 1.391 . S
C3337 C3336 1.386 . S
C3337 C3341 1.393 . S
C3338 H3330 0.950 . S
C3338 C3336 1.391 . S
C3338 C3339 1.400 . S
C3339 C3338 1.400 . S
C3339 C3340 1.398 . S
C3339 C3345 1.491 . S
C3340 H3331 0.950 . S
C3340 C3339 1.398 . S
C3340 C3341 1.391 . S
C3341 H3329 0.950 . S
C3341 C3337 1.393 . S
C3341 C3340 1.391 . S
C3342 H3332 0.950 . S
C3342 C3343 1.386 . S
C3342 C3344 1.391 . S
C3343 C3342 1.386 . S
C3343 C3347 1.393 . S
C3344 H3333 0.950 . S
C3344 C3342 1.391 . S
C3344 C3345 1.400 . S
C3345 C3339 1.491 . S
C3345 C3344 1.400 . S
C3345 C3346 1.398 . S
C3346 H3334 0.950 . S
C3346 C3345 1.398 . S
C3346 C3347 1.391 . S
C3347 H3335 0.950 . S
C3347 C3343 1.393 . S
C3347 C3346 1.391 . S
H3348 C3356 0.950 . S
H3349 C3361 0.950 . S
H3350 C3358 0.950 . S
H3351 C3360 0.950 . S
H3352 C3362 0.950 . S
H3353 C3364 0.950 . S
H3354 C3366 0.950 . S
H3355 C3367 0.950 . S
C3356 H3348 0.950 . S
C3356 C3357 1.386 . S
C3356 C3358 1.391 . S
C3357 C3356 1.386 . S
C3357 C3361 1.393 . S
C3358 H3350 0.950 . S
C3358 C3356 1.391 . S
C3358 C3359 1.400 . S
C3359 C3358 1.400 . S
C3359 C3360 1.398 . S
C3359 C3365 1.491 . S
C3360 H3351 0.950 . S
C3360 C3359 1.398 . S
C3360 C3361 1.391 . S
C3361 H3349 0.950 . S
C3361 C3357 1.393 . S
C3361 C3360 1.391 . S
C3362 H3352 0.950 . S
C3362 C3363 1.386 . S
C3362 C3364 1.391 . S
C3363 C3362 1.386 . S
C3363 C3367 1.393 . S
C3364 H3353 0.950 . S
C3364 C3362 1.391 . S
C3364 C3365 1.400 . S
C3365 C3359 1.491 . S
C3365 C3364 1.400 . S
C3365 C3366 1.398 . S
C3366 H3354 0.950 . S
C3366 C3365 1.398 . S
C3366 C3367 1.391 . S
C3367 H3355 0.950 . S
C3367 C3363 1.393 . S
C3367 C3366 1.391 . S
H3368 C3376 0.950 . S
H3369 C3381 0.950 . S
H3370 C3378 0.950 . S
H3371 C3380 0.950 . S
H3372 C3382 0.950 . S
H3373 C3384 0.950 . S
H3374 C3386 0.950 . S
H3375 C3387 0.950 . S
C3376 H3368 0.950 . S
C3376 C3377 1.386 . S
C3376 C3378 1.391 . S
C3377 C3376 1.386 . S
C3377 C3381 1.393 . S
C3378 H3370 0.950 . S
C3378 C3376 1.391 . S
C3378 C3379 1.400 . S
C3379 C3378 1.400 . S
C3379 C3380 1.398 . S
C3379 C3385 1.491 . S
C3380 H3371 0.950 . S
C3380 C3379 1.398 . S
C3380 C3381 1.391 . S
C3381 H3369 0.950 . S
C3381 C3377 1.393 . S
C3381 C3380 1.391 . S
C3382 H3372 0.950 . S
C3382 C3383 1.386 . S
C3382 C3384 1.391 . S
C3383 C3382 1.386 . S
C3383 C3387 1.393 . S
C3384 H3373 0.950 . S
C3384 C3382 1.391 . S
C3384 C3385 1.400 . S
C3385 C3379 1.491 . S
C3385 C3384 1.400 . S
C3385 C3386 1.398 . S
C3386 H3374 0.950 . S
C3386 C3385 1.398 . S
C3386 C3387 1.391 . S
C3387 H3375 0.950 . S
C3387 C3383 1.393 . S
C3387 C3386 1.391 . S
H3388 C3396 0.950 . S
H3389 C3401 0.950 . S
H3390 C3398 0.950 . S
H3391 C3400 0.950 . S
H3392 C3402 0.950 . S
H3393 C3404 0.950 . S
H3394 C3406 0.950 . S
H3395 C3407 0.950 . S
C3396 H3388 0.950 . S
C3396 C3397 1.386 . S
C3396 C3398 1.391 . S
C3397 C3396 1.386 . S
C3397 C3401 1.393 . S
C3398 H3390 0.950 . S
C3398 C3396 1.391 . S
C3398 C3399 1.400 . S
C3399 C3398 1.400 . S
C3399 C3400 1.398 . S
C3399 C3405 1.491 . S
C3400 H3391 0.950 . S
C3400 C3399 1.398 . S
C3400 C3401 1.391 . S
C3401 H3389 0.950 . S
C3401 C3397 1.393 . S
C3401 C3400 1.391 . S
C3402 H3392 0.950 . S
C3402 C3403 1.386 . S
C3402 C3404 1.391 . S
C3403 C3402 1.386 . S
C3403 C3407 1.393 . S
C3404 H3393 0.950 . S
C3404 C3402 1.391 . S
C3404 C3405 1.400 . S
C3405 C3399 1.491 . S
C3405 C3404 1.400 . S
C3405 C3406 1.398 . S
C3406 H3394 0.950 . S
C3406 C3405 1.398 . S
C3406 C3407 1.391 . S
C3407 H3395 0.950 . S
C3407 C3403 1.393 . S
C3407 C3406 1.391 . S
H3408 C3416 0.950 . S
H3409 C3421 0.950 . S
H3410 C3418 0.950 . S
H3411 C3420 0.950 . S
H3412 C3422 0.950 . S
H3413 C3424 0.950 . S
H3414 C3426 0.950 . S
H3415 C3427 0.950 . S
C3416 H3408 0.950 . S
C3416 C3417 1.386 . S
C3416 C3418 1.391 . S
C3417 C3416 1.386 . S
C3417 C3421 1.393 . S
C3418 H3410 0.950 . S
C3418 C3416 1.391 . S
C3418 C3419 1.400 . S
C3419 C3418 1.400 . S
C3419 C3420 1.398 . S
C3419 C3425 1.491 . S
C3420 H3411 0.950 . S
C3420 C3419 1.398 . S
C3420 C3421 1.391 . S
C3421 H3409 0.950 . S
C3421 C3417 1.393 . S
C3421 C3420 1.391 . S
C3422 H3412 0.950 . S
C3422 C3423 1.386 . S
C3422 C3424 1.391 . S
C3423 C3422 1.386 . S
C3423 C3427 1.393 . S
C3424 H3413 0.950 . S
C3424 C3422 1.391 . S
C3424 C3425 1.400 . S
C3425 C3419 1.491 . S
C3425 C3424 1.400 . S
C3425 C3426 1.398 . S
C3426 H3414 0.950 . S
C3426 C3425 1.398 . S
C3426 C3427 1.391 . S
C3427 H3415 0.950 . S
C3427 C3423 1.393 . S
C3427 C3426 1.391 . S
H3428 C3436 0.950 . S
H3429 C3441 0.950 . S
H3430 C3438 0.950 . S
H3431 C3440 0.950 . S
H3432 C3442 0.950 . S
H3433 C3444 0.950 . S
H3434 C3446 0.950 . S
H3435 C3447 0.950 . S
C3436 H3428 0.950 . S
C3436 C3437 1.386 . S
C3436 C3438 1.391 . S
C3437 C3436 1.386 . S
C3437 C3441 1.393 . S
C3438 H3430 0.950 . S
C3438 C3436 1.391 . S
C3438 C3439 1.400 . S
C3439 C3438 1.400 . S
C3439 C3440 1.398 . S
C3439 C3445 1.491 . S
C3440 H3431 0.950 . S
C3440 C3439 1.398 . S
C3440 C3441 1.391 . S
C3441 H3429 0.950 . S
C3441 C3437 1.393 . S
C3441 C3440 1.391 . S
C3442 H3432 0.950 . S
C3442 C3443 1.386 . S
C3442 C3444 1.391 . S
C3443 C3442 1.386 . S
C3443 C3447 1.393 . S
C3444 H3433 0.950 . S
C3444 C3442 1.391 . S
C3444 C3445 1.400 . S
C3445 C3439 1.491 . S
C3445 C3444 1.400 . S
C3445 C3446 1.398 . S
C3446 H3434 0.950 . S
C3446 C3445 1.398 . S
C3446 C3447 1.391 . S
C3447 H3435 0.950 . S
C3447 C3443 1.393 . S
C3447 C3446 1.391 . S
H3448 C3456 0.950 . S
H3449 C3461 0.950 . S
H3450 C3458 0.950 . S
H3451 C3460 0.950 . S
H3452 C3462 0.950 . S
H3453 C3464 0.950 . S
H3454 C3466 0.950 . S
H3455 C3467 0.950 . S
C3456 H3448 0.950 . S
C3456 C3457 1.386 . S
C3456 C3458 1.391 . S
C3457 C3456 1.386 . S
C3457 C3461 1.393 . S
C3458 H3450 0.950 . S
C3458 C3456 1.391 . S
C3458 C3459 1.400 . S
C3459 C3458 1.400 . S
C3459 C3460 1.398 . S
C3459 C3465 1.491 . S
C3460 H3451 0.950 . S
C3460 C3459 1.398 . S
C3460 C3461 1.391 . S
C3461 H3449 0.950 . S
C3461 C3457 1.393 . S
C3461 C3460 1.391 . S
C3462 H3452 0.950 . S
C3462 C3463 1.386 . S
C3462 C3464 1.391 . S
C3463 C3462 1.386 . S
C3463 C3467 1.393 . S
C3464 H3453 0.950 . S
C3464 C3462 1.391 . S
C3464 C3465 1.400 . S
C3465 C3459 1.491 . S
C3465 C3464 1.400 . S
C3465 C3466 1.398 . S
C3466 H3454 0.950 . S
C3466 C3465 1.398 . S
C3466 C3467 1.391 . S
C3467 H3455 0.950 . S
C3467 C3463 1.393 . S
C3467 C3466 1.391 . S
H3468 C3476 0.950 . S
H3469 C3481 0.950 . S
H3470 C3478 0.950 1_655 S
H3471 C3480 0.950 . S
H3472 C3482 0.950 . S
H3473 C3484 0.950 . S
H3474 C3486 0.950 . S
H3475 C3487 0.950 . S
C3476 H3468 0.950 . S
C3476 C3477 1.386 . S
C3476 C3478 1.391 . S
C3477 C3476 1.386 . S
C3477 C3481 1.393 . S
C3478 H3470 0.950 1_455 S
C3478 C3476 1.391 . S
C3478 C3479 1.400 . S
C3479 C3478 1.400 . S
C3479 C3480 1.398 . S
C3479 C3485 1.491 . S
C3480 H3471 0.950 . S
C3480 C3479 1.398 . S
C3480 C3481 1.391 . S
C3481 H3469 0.950 . S
C3481 C3477 1.393 . S
C3481 C3480 1.391 . S
C3482 H3472 0.950 . S
C3482 C3483 1.386 . S
C3482 C3484 1.391 . S
C3483 C3482 1.386 . S
C3483 C3487 1.393 1_455 S
C3484 H3473 0.950 . S
C3484 C3482 1.391 . S
C3484 C3485 1.400 . S
C3485 C3479 1.491 . S
C3485 C3484 1.400 . S
C3485 C3486 1.398 1_455 S
C3486 H3474 0.950 . S
C3486 C3485 1.398 1_655 S
C3486 C3487 1.391 . S
C3487 H3475 0.950 . S
C3487 C3483 1.393 1_655 S
C3487 C3486 1.391 . S
H3488 C3496 0.950 . S
H3489 C3501 0.950 . S
H3490 C3498 0.950 . S
H3491 C3500 0.950 . S
H3492 C3502 0.950 . S
H3493 C3504 0.950 . S
H3494 C3506 0.950 . S
H3495 C3507 0.950 . S
C3496 H3488 0.950 . S
C3496 C3497 1.386 . S
C3496 C3498 1.391 . S
C3497 C3496 1.386 . S
C3497 C3501 1.393 . S
C3498 H3490 0.950 . S
C3498 C3496 1.391 . S
C3498 C3499 1.400 . S
C3499 C3498 1.400 . S
C3499 C3500 1.398 . S
C3499 C3505 1.491 . S
C3500 H3491 0.950 . S
C3500 C3499 1.398 . S
C3500 C3501 1.391 . S
C3501 H3489 0.950 . S
C3501 C3497 1.393 . S
C3501 C3500 1.391 . S
C3502 H3492 0.950 . S
C3502 C3503 1.386 . S
C3502 C3504 1.391 . S
C3503 C3502 1.386 . S
C3503 C3507 1.393 . S
C3504 H3493 0.950 . S
C3504 C3502 1.391 . S
C3504 C3505 1.400 . S
C3505 C3499 1.491 . S
C3505 C3504 1.400 . S
C3505 C3506 1.398 . S
C3506 H3494 0.950 . S
C3506 C3505 1.398 . S
C3506 C3507 1.391 . S
C3507 H3495 0.950 . S
C3507 C3503 1.393 . S
C3507 C3506 1.391 . S
H3508 C3516 0.950 1_545 S
H3509 C3521 0.950 . S
H3510 C3518 0.940 1_545 S
H3511 C3520 0.950 . S
H3512 C3522 0.950 . S
H3513 C3524 0.950 . S
H3514 C3526 0.950 . S
H3515 C3527 0.950 . S
C3516 H3508 0.950 1_565 S
C3516 C3517 1.386 . S
C3516 C3518 1.379 . S
C3517 C3516 1.386 . S
C3517 C3521 1.393 . S
C3518 H3510 0.940 1_565 S
C3518 C3516 1.379 . S
C3518 C3519 1.424 . S
C3519 C3518 1.424 . S
C3519 C3520 1.398 . S
C3519 C3525 1.491 . S
C3520 H3511 0.950 . S
C3520 C3519 1.398 . S
C3520 C3521 1.391 . S
C3521 H3509 0.950 . S
C3521 C3517 1.393 . S
C3521 C3520 1.391 . S
C3522 H3512 0.950 . S
C3522 C3523 1.386 . S
C3522 C3524 1.391 . S
C3523 C3522 1.386 . S
C3523 C3527 1.393 1_565 S
C3524 H3513 0.950 . S
C3524 C3522 1.391 . S
C3524 C3525 1.400 . S
C3525 C3519 1.491 . S
C3525 C3524 1.400 . S
C3525 C3526 1.398 1_565 S
C3526 H3514 0.950 . S
C3526 C3525 1.398 1_545 S
C3526 C3527 1.391 . S
C3527 H3515 0.950 . S
C3527 C3523 1.393 1_545 S
C3527 C3526 1.391 . S
H3528 C3536 0.950 1_545 S
H3529 C3541 0.950 . S
H3530 C3538 0.946 1_545 S
H3531 C3540 0.950 . S
H3532 C3542 0.950 . S
H3533 C3544 0.950 . S
H3534 C3546 0.950 . S
H3535 C3547 0.950 . S
C3536 H3528 0.950 1_565 S
C3536 C3537 1.386 . S
C3536 C3538 1.393 . S
C3537 C3536 1.386 . S
C3537 C3541 1.393 . S
C3538 H3530 0.946 1_565 S
C3538 C3536 1.393 . S
C3538 C3539 1.402 . S
C3539 C3538 1.402 . S
C3539 C3540 1.398 . S
C3539 C3545 1.491 . S
C3540 H3531 0.950 . S
C3540 C3539 1.398 . S
C3540 C3541 1.391 . S
C3541 H3529 0.950 . S
C3541 C3537 1.393 . S
C3541 C3540 1.391 . S
C3542 H3532 0.950 . S
C3542 C3543 1.386 . S
C3542 C3544 1.391 . S
C3543 C3542 1.386 . S
C3543 C3547 1.393 1_565 S
C3544 H3533 0.950 . S
C3544 C3542 1.391 . S
C3544 C3545 1.400 . S
C3545 C3539 1.491 . S
C3545 C3544 1.400 . S
C3545 C3546 1.398 1_565 S
C3546 H3534 0.950 . S
C3546 C3545 1.398 1_545 S
C3546 C3547 1.391 . S
C3547 H3535 0.950 . S
C3547 C3543 1.393 1_545 S
C3547 C3546 1.391 . S
H3548 C3556 1.010 . S
H3549 C3561 0.950 . S
H3550 C3558 0.950 1_655 S
H3551 C3560 0.950 . S
H3552 C3562 0.950 . S
H3553 C3564 0.950 . S
H3554 C3566 0.950 . S
H3555 C3567 0.950 . S
C3556 H3548 1.010 . S
C3556 C3557 1.386 . S
C3556 C3558 1.391 . S
C3557 C3556 1.386 . S
C3557 C3561 1.393 . S
C3558 H3550 0.950 1_455 S
C3558 C3556 1.391 . S
C3558 C3559 1.400 . S
C3559 C3558 1.400 . S
C3559 C3560 1.398 . S
C3559 C3565 1.491 . S
C3560 H3551 0.950 . S
C3560 C3559 1.398 . S
C3560 C3561 1.391 . S
C3561 H3549 0.950 . S
C3561 C3557 1.393 . S
C3561 C3560 1.391 . S
C3562 H3552 0.950 . S
C3562 C3563 1.386 . S
C3562 C3564 1.391 . S
C3563 C3562 1.386 . S
C3563 C3567 1.393 1_455 S
C3564 H3553 0.950 . S
C3564 C3562 1.391 . S
C3564 C3565 1.400 . S
C3565 C3559 1.491 . S
C3565 C3564 1.400 . S
C3565 C3566 1.398 1_455 S
C3566 H3554 0.950 . S
C3566 C3565 1.398 1_655 S
C3566 C3567 1.391 . S
C3567 H3555 0.950 . S
C3567 C3563 1.393 1_655 S
C3567 C3566 1.391 . S
H3568 C3576 0.950 . S
H3569 C3581 0.950 . S
H3570 C3578 0.950 . S
H3571 C3580 0.950 . S
H3572 C3582 0.950 . S
H3573 C3584 0.950 . S
H3574 C3586 0.950 . S
H3575 C3587 0.950 . S
C3576 H3568 0.950 . S
C3576 C3577 1.386 . S
C3576 C3578 1.391 . S
C3577 C3576 1.386 . S
C3577 C3581 1.393 . S
C3578 H3570 0.950 . S
C3578 C3576 1.391 . S
C3578 C3579 1.400 . S
C3579 C3578 1.400 . S
C3579 C3580 1.398 . S
C3579 C3585 1.491 . S
C3580 H3571 0.950 . S
C3580 C3579 1.398 . S
C3580 C3581 1.391 . S
C3581 H3569 0.950 . S
C3581 C3577 1.393 . S
C3581 C3580 1.391 . S
C3582 H3572 0.950 . S
C3582 C3583 1.386 . S
C3582 C3584 1.391 . S
C3583 C3582 1.386 . S
C3583 C3587 1.393 . S
C3584 H3573 0.950 . S
C3584 C3582 1.391 . S
C3584 C3585 1.400 . S
C3585 C3579 1.491 . S
C3585 C3584 1.400 . S
C3585 C3586 1.398 . S
C3586 H3574 0.950 . S
C3586 C3585 1.398 . S
C3586 C3587 1.391 . S
C3587 H3575 0.950 . S
C3587 C3583 1.393 . S
C3587 C3586 1.391 . S
H3588 C3596 0.950 . S
H3589 C3601 0.950 . S
H3590 C3598 0.950 . S
H3591 C3600 0.950 . S
H3592 C3602 0.950 . S
H3593 C3604 0.950 . S
H3594 C3606 0.950 . S
H3595 C3607 0.950 . S
C3596 H3588 0.950 . S
C3596 C3597 1.386 . S
C3596 C3598 1.391 . S
C3597 C3596 1.386 . S
C3597 C3601 1.393 . S
C3598 H3590 0.950 . S
C3598 C3596 1.391 . S
C3598 C3599 1.400 . S
C3599 C3598 1.400 . S
C3599 C3600 1.398 . S
C3599 C3605 1.491 . S
C3600 H3591 0.950 . S
C3600 C3599 1.398 . S
C3600 C3601 1.391 . S
C3601 H3589 0.950 . S
C3601 C3597 1.393 . S
C3601 C3600 1.391 . S
C3602 H3592 0.950 . S
C3602 C3603 1.386 . S
C3602 C3604 1.391 . S
C3603 C3602 1.386 . S
C3603 C3607 1.393 . S
C3604 H3593 0.950 . S
C3604 C3602 1.391 . S
C3604 C3605 1.400 . S
C3605 C3599 1.491 . S
C3605 C3604 1.400 . S
C3605 C3606 1.398 . S
C3606 H3594 0.950 . S
C3606 C3605 1.398 . S
C3606 C3607 1.391 . S
C3607 H3595 0.950 . S
C3607 C3603 1.393 . S
C3607 C3606 1.391 . S
H3608 C3616 0.950 . S
H3609 C3621 0.950 . S
H3610 C3618 0.950 . S
H3611 C3620 0.950 . S
H3612 C3622 0.950 . S
H3613 C3624 0.950 . S
H3614 C3626 0.950 . S
H3615 C3627 0.950 . S
C3616 H3608 0.950 . S
C3616 C3617 1.386 . S
C3616 C3618 1.391 . S
C3617 C3616 1.386 . S
C3617 C3621 1.393 . S
C3618 H3610 0.950 . S
C3618 C3616 1.391 . S
C3618 C3619 1.400 . S
C3619 C3618 1.400 . S
C3619 C3620 1.398 . S
C3619 C3625 1.491 . S
C3620 H3611 0.950 . S
C3620 C3619 1.398 . S
C3620 C3621 1.391 . S
C3621 H3609 0.950 . S
C3621 C3617 1.393 . S
C3621 C3620 1.391 . S
C3622 H3612 0.950 . S
C3622 C3623 1.386 . S
C3622 C3624 1.391 . S
C3623 C3622 1.386 . S
C3623 C3627 1.393 . S
C3624 H3613 0.950 . S
C3624 C3622 1.391 . S
C3624 C3625 1.400 . S
C3625 C3619 1.491 . S
C3625 C3624 1.400 . S
C3625 C3626 1.398 . S
C3626 H3614 0.950 . S
C3626 C3625 1.398 . S
C3626 C3627 1.391 . S
C3627 H3615 0.950 . S
C3627 C3623 1.393 . S
C3627 C3626 1.391 . S
H3628 C3636 0.950 . S
H3629 C3641 0.950 . S
H3630 C3638 0.950 . S
H3631 C3640 0.950 . S
H3632 C3642 0.950 . S
H3633 C3644 0.950 . S
H3634 C3646 0.950 . S
H3635 C3647 0.950 . S
C3636 H3628 0.950 . S
C3636 C3637 1.386 . S
C3636 C3638 1.391 . S
C3637 C3636 1.386 . S
C3637 C3641 1.393 . S
C3638 H3630 0.950 . S
C3638 C3636 1.391 . S
C3638 C3639 1.400 . S
C3639 C3638 1.400 . S
C3639 C3640 1.398 . S
C3639 C3645 1.491 . S
C3640 H3631 0.950 . S
C3640 C3639 1.398 . S
C3640 C3641 1.391 . S
C3641 H3629 0.950 . S
C3641 C3637 1.393 . S
C3641 C3640 1.391 . S
C3642 H3632 0.950 . S
C3642 C3643 1.386 . S
C3642 C3644 1.391 . S
C3643 C3642 1.386 . S
C3643 C3647 1.393 . S
C3644 H3633 0.950 . S
C3644 C3642 1.391 . S
C3644 C3645 1.400 . S
C3645 C3639 1.491 . S
C3645 C3644 1.400 . S
C3645 C3646 1.398 . S
C3646 H3634 0.950 . S
C3646 C3645 1.398 . S
C3646 C3647 1.391 . S
C3647 H3635 0.950 . S
C3647 C3643 1.393 . S
C3647 C3646 1.391 . S
H3648 C3656 0.950 . S
H3649 C3661 0.950 . S
H3650 C3658 0.950 . S
H3651 C3660 1.007 . S
H3652 C3662 0.931 1_565 S
H3653 C3664 0.942 1_565 S
H3654 C3666 0.950 . S
H3655 C3667 0.950 . S
C3656 H3648 0.950 . S
C3656 C3657 1.386 . S
C3656 C3658 1.391 . S
C3657 C3656 1.386 . S
C3657 C3661 1.393 . S
C3658 H3650 0.950 . S
C3658 C3656 1.391 . S
C3658 C3659 1.400 . S
C3659 C3658 1.400 . S
C3659 C3660 1.398 . S
C3659 C3665 1.491 . S
C3660 H3651 1.007 . S
C3660 C3659 1.398 . S
C3660 C3661 1.391 . S
C3661 H3649 0.950 . S
C3661 C3657 1.393 . S
C3661 C3660 1.391 . S
C3662 H3652 0.931 1_545 S
C3662 C3663 1.390 . S
C3662 C3664 1.406 . S
C3663 C3662 1.390 . S
C3663 C3667 1.393 . S
C3664 H3653 0.942 1_545 S
C3664 C3662 1.406 . S
C3664 C3665 1.400 . S
C3665 C3659 1.491 . S
C3665 C3664 1.400 . S
C3665 C3666 1.398 . S
C3666 H3654 0.950 . S
C3666 C3665 1.398 . S
C3666 C3667 1.391 . S
C3667 H3655 0.950 . S
C3667 C3663 1.393 . S
C3667 C3666 1.391 . S
H3668 C3676 0.950 . S
H3669 C3681 0.950 . S
H3670 C3678 0.950 . S
H3671 C3680 0.950 . S
H3672 C3682 0.950 . S
H3673 C3684 0.950 . S
H3674 C3686 0.950 . S
H3675 C3687 0.950 . S
C3676 H3668 0.950 . S
C3676 C3677 1.386 . S
C3676 C3678 1.391 . S
C3677 C3676 1.386 . S
C3677 C3681 1.393 1_655 S
C3678 H3670 0.950 . S
C3678 C3676 1.391 . S
C3678 C3679 1.400 . S
C3679 C3678 1.400 . S
C3679 C3680 1.398 1_655 S
C3679 C3685 1.491 . S
C3680 H3671 0.950 . S
C3680 C3679 1.398 1_455 S
C3680 C3681 1.391 . S
C3681 H3669 0.950 . S
C3681 C3677 1.393 1_455 S
C3681 C3680 1.391 . S
C3682 H3672 0.950 . S
C3682 C3683 1.386 1_455 S
C3682 C3684 1.391 . S
C3683 C3682 1.386 1_655 S
C3683 C3687 1.393 . S
C3684 H3673 0.950 . S
C3684 C3682 1.391 . S
C3684 C3685 1.400 1_455 S
C3685 C3679 1.491 . S
C3685 C3684 1.400 1_655 S
C3685 C3686 1.398 . S
C3686 H3674 0.950 . S
C3686 C3685 1.398 . S
C3686 C3687 1.391 . S
C3687 H3675 0.950 . S
C3687 C3683 1.393 . S
C3687 C3686 1.391 . S
H3688 C3696 0.950 . S
H3689 C3701 0.950 . S
H3690 C3698 0.950 . S
H3691 C3700 0.950 . S
H3692 C3702 0.950 . S
H3693 C3704 0.950 . S
H3694 C3706 0.950 . S
H3695 C3707 0.950 . S
C3696 H3688 0.950 . S
C3696 C3697 1.386 . S
C3696 C3698 1.391 . S
C3697 C3696 1.386 . S
C3697 C3701 1.393 . S
C3698 H3690 0.950 . S
C3698 C3696 1.391 . S
C3698 C3699 1.400 . S
C3699 C3698 1.400 . S
C3699 C3700 1.398 . S
C3699 C3705 1.491 . S
C3700 H3691 0.950 . S
C3700 C3699 1.398 . S
C3700 C3701 1.391 . S
C3701 H3689 0.950 . S
C3701 C3697 1.393 . S
C3701 C3700 1.391 . S
C3702 H3692 0.950 . S
C3702 C3703 1.386 . S
C3702 C3704 1.391 . S
C3703 C3702 1.386 . S
C3703 C3707 1.393 . S
C3704 H3693 0.950 . S
C3704 C3702 1.391 . S
C3704 C3705 1.400 . S
C3705 C3699 1.491 . S
C3705 C3704 1.400 . S
C3705 C3706 1.398 . S
C3706 H3694 0.950 . S
C3706 C3705 1.398 . S
C3706 C3707 1.391 . S
C3707 H3695 0.950 . S
C3707 C3703 1.393 . S
C3707 C3706 1.391 . S
H3708 C3716 0.950 . S
H3709 C3721 0.950 . S
H3710 C3718 0.950 . S
H3711 C3720 0.950 . S
H3712 C3722 0.950 . S
H3713 C3724 0.950 . S
H3714 C3726 0.950 . S
H3715 C3727 0.950 . S
C3716 H3708 0.950 . S
C3716 C3717 1.386 . S
C3716 C3718 1.391 . S
C3717 C3716 1.386 . S
C3717 C3721 1.393 . S
C3718 H3710 0.950 . S
C3718 C3716 1.391 . S
C3718 C3719 1.400 . S
C3719 C3718 1.400 . S
C3719 C3720 1.398 . S
C3719 C3725 1.491 . S
C3720 H3711 0.950 . S
C3720 C3719 1.398 . S
C3720 C3721 1.391 . S
C3721 H3709 0.950 . S
C3721 C3717 1.393 . S
C3721 C3720 1.391 . S
C3722 H3712 0.950 . S
C3722 C3723 1.386 . S
C3722 C3724 1.391 . S
C3723 C3722 1.386 . S
C3723 C3727 1.393 . S
C3724 H3713 0.950 . S
C3724 C3722 1.391 . S
C3724 C3725 1.400 . S
C3725 C3719 1.491 . S
C3725 C3724 1.400 . S
C3725 C3726 1.398 . S
C3726 H3714 0.950 . S
C3726 C3725 1.398 . S
C3726 C3727 1.391 . S
C3727 H3715 0.950 . S
C3727 C3723 1.393 . S
C3727 C3726 1.391 . S
H3728 C3736 0.950 . S
H3729 C3741 0.950 . S
H3730 C3738 0.950 . S
H3731 C3740 0.950 . S
H3732 C3742 0.950 . S
H3733 C3744 0.950 . S
H3734 C3746 0.950 . S
H3735 C3747 0.950 . S
C3736 H3728 0.950 . S
C3736 C3737 1.386 . S
C3736 C3738 1.391 . S
C3737 C3736 1.386 . S
C3737 C3741 1.393 . S
C3738 H3730 0.950 . S
C3738 C3736 1.391 . S
C3738 C3739 1.400 . S
C3739 C3738 1.400 . S
C3739 C3740 1.398 . S
C3739 C3745 1.491 . S
C3740 H3731 0.950 . S
C3740 C3739 1.398 . S
C3740 C3741 1.391 . S
C3741 H3729 0.950 . S
C3741 C3737 1.393 . S
C3741 C3740 1.391 . S
C3742 H3732 0.950 . S
C3742 C3743 1.386 . S
C3742 C3744 1.391 . S
C3743 C3742 1.386 . S
C3743 C3747 1.393 . S
C3744 H3733 0.950 . S
C3744 C3742 1.391 . S
C3744 C3745 1.400 . S
C3745 C3739 1.491 . S
C3745 C3744 1.400 . S
C3745 C3746 1.398 . S
C3746 H3734 0.950 . S
C3746 C3745 1.398 . S
C3746 C3747 1.391 . S
C3747 H3735 0.950 . S
C3747 C3743 1.393 . S
C3747 C3746 1.391 . S
H3748 C3756 0.950 . S
H3749 C3761 0.950 . S
H3750 C3758 0.950 . S
H3751 C3760 0.950 . S
H3752 C3762 0.950 . S
H3753 C3764 0.950 . S
H3754 C3766 0.950 . S
H3755 C3767 0.950 . S
C3756 H3748 0.950 . S
C3756 C3757 1.386 . S
C3756 C3758 1.391 . S
C3757 C3756 1.386 . S
C3757 C3761 1.393 . S
C3758 H3750 0.950 . S
C3758 C3756 1.391 . S
C3758 C3759 1.400 . S
C3759 C3758 1.400 . S
C3759 C3760 1.398 . S
C3759 C3765 1.491 . S
C3760 H3751 0.950 . S
C3760 C3759 1.398 . S
C3760 C3761 1.391 . S
C3761 H3749 0.950 . S
C3761 C3757 1.393 . S
C3761 C3760 1.391 . S
C3762 H3752 0.950 . S
C3762 C3763 1.386 . S
C3762 C3764 1.391 . S
C3763 C3762 1.386 . S
C3763 C3767 1.393 . S
C3764 H3753 0.950 . S
C3764 C3762 1.391 . S
C3764 C3765 1.400 . S
C3765 C3759 1.491 . S
C3765 C3764 1.400 . S
C3765 C3766 1.398 . S
C3766 H3754 0.950 . S
C3766 C3765 1.398 . S
C3766 C3767 1.391 . S
C3767 H3755 0.950 . S
C3767 C3763 1.393 . S
C3767 C3766 1.391 . S
H3768 C3776 0.950 . S
H3769 C3781 0.950 . S
H3770 C3778 0.950 . S
H3771 C3780 0.950 . S
H3772 C3782 0.950 . S
H3773 C3784 0.950 . S
H3774 C3786 0.950 . S
H3775 C3787 0.950 . S
C3776 H3768 0.950 . S
C3776 C3777 1.386 . S
C3776 C3778 1.391 . S
C3777 C3776 1.386 . S
C3777 C3781 1.393 . S
C3778 H3770 0.950 . S
C3778 C3776 1.391 . S
C3778 C3779 1.400 . S
C3779 C3778 1.400 . S
C3779 C3780 1.398 . S
C3779 C3785 1.491 . S
C3780 H3771 0.950 . S
C3780 C3779 1.398 . S
C3780 C3781 1.391 . S
C3781 H3769 0.950 . S
C3781 C3777 1.393 . S
C3781 C3780 1.391 . S
C3782 H3772 0.950 . S
C3782 C3783 1.386 . S
C3782 C3784 1.391 . S
C3783 C3782 1.386 . S
C3783 C3787 1.393 . S
C3784 H3773 0.950 . S
C3784 C3782 1.391 . S
C3784 C3785 1.400 . S
C3785 C3779 1.491 . S
C3785 C3784 1.400 . S
C3785 C3786 1.398 . S
C3786 H3774 0.950 . S
C3786 C3785 1.398 . S
C3786 C3787 1.391 . S
C3787 H3775 0.950 . S
C3787 C3783 1.393 . S
C3787 C3786 1.391 . S
H3788 C3796 0.950 . S
H3789 C3801 0.950 . S
H3790 C3798 0.950 . S
H3791 C3800 0.950 . S
H3792 C3802 0.950 . S
H3793 C3804 0.950 . S
H3794 C3806 0.950 . S
H3795 C3807 0.950 . S
C3796 H3788 0.950 . S
C3796 C3797 1.386 . S
C3796 C3798 1.391 . S
C3797 C3796 1.386 . S
C3797 C3801 1.393 . S
C3798 H3790 0.950 . S
C3798 C3796 1.391 . S
C3798 C3799 1.400 . S
C3799 C3798 1.400 . S
C3799 C3800 1.398 . S
C3799 C3805 1.491 . S
C3800 H3791 0.950 . S
C3800 C3799 1.398 . S
C3800 C3801 1.391 . S
C3801 H3789 0.950 . S
C3801 C3797 1.393 . S
C3801 C3800 1.391 . S
C3802 H3792 0.950 . S
C3802 C3803 1.386 . S
C3802 C3804 1.391 . S
C3803 C3802 1.386 . S
C3803 C3807 1.393 . S
C3804 H3793 0.950 . S
C3804 C3802 1.391 . S
C3804 C3805 1.400 . S
C3805 C3799 1.491 . S
C3805 C3804 1.400 . S
C3805 C3806 1.398 . S
C3806 H3794 0.950 . S
C3806 C3805 1.398 . S
C3806 C3807 1.391 . S
C3807 H3795 0.950 . S
C3807 C3803 1.393 . S
C3807 C3806 1.391 . S
H3808 C3816 0.950 . S
H3809 C3821 0.950 . S
H3810 C3818 0.950 . S
H3811 C3820 0.950 . S
H3812 C3822 0.950 . S
H3813 C3824 0.950 . S
H3814 C3826 0.950 . S
H3815 C3827 0.950 . S
C3816 H3808 0.950 . S
C3816 C3817 1.386 . S
C3816 C3818 1.391 . S
C3817 C3816 1.386 . S
C3817 C3821 1.393 . S
C3818 H3810 0.950 . S
C3818 C3816 1.391 . S
C3818 C3819 1.400 . S
C3819 C3818 1.400 . S
C3819 C3820 1.398 . S
C3819 C3825 1.491 . S
C3820 H3811 0.950 . S
C3820 C3819 1.398 . S
C3820 C3821 1.391 . S
C3821 H3809 0.950 . S
C3821 C3817 1.393 . S
C3821 C3820 1.391 . S
C3822 H3812 0.950 . S
C3822 C3823 1.386 . S
C3822 C3824 1.391 . S
C3823 C3822 1.386 . S
C3823 C3827 1.393 . S
C3824 H3813 0.950 . S
C3824 C3822 1.391 . S
C3824 C3825 1.400 . S
C3825 C3819 1.491 . S
C3825 C3824 1.400 . S
C3825 C3826 1.398 . S
C3826 H3814 0.950 . S
C3826 C3825 1.398 . S
C3826 C3827 1.391 . S
C3827 H3815 0.950 . S
C3827 C3823 1.393 . S
C3827 C3826 1.391 . S
H3828 C3836 0.950 . S
H3829 C3841 0.951 1_455 S
H3830 C3838 0.950 . S
H3831 C3840 0.950 1_455 S
H3832 C3842 0.950 . S
H3833 C3844 0.950 . S
H3834 C3846 0.950 . S
H3835 C3847 0.950 . S
C3836 H3828 0.950 . S
C3836 C3837 1.386 . S
C3836 C3838 1.391 . S
C3837 C3836 1.386 . S
C3837 C3841 1.393 . S
C3838 H3830 0.950 . S
C3838 C3836 1.391 . S
C3838 C3839 1.400 . S
C3839 C3838 1.400 . S
C3839 C3840 1.398 . S
C3839 C3845 1.491 . S
C3840 H3831 0.950 1_655 S
C3840 C3839 1.398 . S
C3840 C3841 1.391 . S
C3841 H3829 0.951 1_655 S
C3841 C3837 1.393 . S
C3841 C3840 1.391 . S
C3842 H3832 0.950 . S
C3842 C3843 1.386 1_455 S
C3842 C3844 1.420 . S
C3843 C3842 1.386 1_655 S
C3843 C3847 1.393 . S
C3844 H3833 0.950 . S
C3844 C3842 1.420 . S
C3844 C3845 1.374 1_455 S
C3845 C3839 1.491 . S
C3845 C3844 1.374 1_655 S
C3845 C3846 1.398 . S
C3846 H3834 0.950 . S
C3846 C3845 1.398 . S
C3846 C3847 1.391 . S
C3847 H3835 0.950 . S
C3847 C3843 1.393 . S
C3847 C3846 1.391 . S
H3848 C3856 0.950 . S
H3849 C3861 0.950 . S
H3850 C3858 0.950 . S
H3851 C3860 0.950 . S
H3852 C3862 0.950 . S
H3853 C3864 0.950 . S
H3854 C3866 0.950 . S
H3855 C3867 0.950 . S
C3856 H3848 0.950 . S
C3856 C3857 1.386 . S
C3856 C3858 1.391 . S
C3857 C3856 1.386 . S
C3857 C3861 1.393 . S
C3858 H3850 0.950 . S
C3858 C3856 1.391 . S
C3858 C3859 1.400 . S
C3859 C3858 1.400 . S
C3859 C3860 1.398 . S
C3859 C3865 1.491 . S
C3860 H3851 0.950 . S
C3860 C3859 1.398 . S
C3860 C3861 1.391 . S
C3861 H3849 0.950 . S
C3861 C3857 1.393 . S
C3861 C3860 1.391 . S
C3862 H3852 0.950 . S
C3862 C3863 1.386 . S
C3862 C3864 1.391 . S
C3863 C3862 1.386 . S
C3863 C3867 1.393 . S
C3864 H3853 0.950 . S
C3864 C3862 1.391 . S
C3864 C3865 1.400 . S
C3865 C3859 1.491 . S
C3865 C3864 1.400 . S
C3865 C3866 1.398 . S
C3866 H3854 0.950 . S
C3866 C3865 1.398 . S
C3866 C3867 1.391 . S
C3867 H3855 0.950 . S
C3867 C3863 1.393 . S
C3867 C3866 1.391 . S
H3868 C3876 0.950 . S
H3869 C3881 0.950 . S
H3870 C3878 0.950 . S
H3871 C3880 0.950 1_565 S
H3872 C3882 0.950 . S
H3873 C3884 0.971 . S
H3874 C3886 0.950 . S
H3875 C3887 0.950 . S
C3876 H3868 0.950 . S
C3876 C3877 1.386 . S
C3876 C3878 1.391 . S
C3877 C3876 1.386 . S
C3877 C3881 1.393 . S
C3878 H3870 0.950 . S
C3878 C3876 1.391 . S
C3878 C3879 1.400 . S
C3879 C3878 1.400 . S
C3879 C3880 1.398 . S
C3879 C3885 1.491 . S
C3880 H3871 0.950 1_545 S
C3880 C3879 1.398 . S
C3880 C3881 1.391 . S
C3881 H3869 0.950 . S
C3881 C3877 1.393 . S
C3881 C3880 1.391 . S
C3882 H3872 0.950 . S
C3882 C3883 1.386 1_565 S
C3882 C3884 1.375 . S
C3883 C3882 1.386 1_545 S
C3883 C3887 1.393 . S
C3884 H3873 0.971 . S
C3884 C3882 1.375 . S
C3884 C3885 1.399 1_565 S
C3885 C3879 1.491 . S
C3885 C3884 1.399 1_545 S
C3885 C3886 1.398 . S
C3886 H3874 0.950 . S
C3886 C3885 1.398 . S
C3886 C3887 1.391 . S
C3887 H3875 0.950 . S
C3887 C3883 1.393 . S
C3887 C3886 1.391 . S
C2457 C49 1.593 . S
C2463 C2061 1.625 . S
C2477 C137 1.629 . S
C2483 C2109 1.651 . S
C2503 C2157 1.648 . S
C2497 C205 1.618 . S
C2517 C196 1.591 . S
C2523 C2181 1.641 . S
C2537 C57 1.623 . S
C2543 C2253 1.651 . S
C2557 C145 1.627 . S
C2563 C2301 1.651 . S
C2577 C313 1.597 . S
C2583 C2229 1.632 . S
C2603 C2277 1.650 . S
C2597 C401 1.642 . S
C2623 C2205 1.655 . S
C2617 C489 1.626 . S
C2637 C469 1.596 . S
C2643 C2133 1.633 . S
C2663 C2037 1.656 . S
C2657 C293 1.614 . S
C2677 C381 1.640 . S
C2683 C2085 1.653 . S
C2697 C577 1.700 . S
C2703 C2349 1.710 . S
C2717 C645 1.686 . S
C2723 C2397 1.683 . S
C2743 C2421 1.642 . S
C2737 C733 1.648 . S
C2757 C724 1.633 . S
C2763 C1605 1.627 . S
C2777 C585 1.677 . S
C2783 C1677 1.692 . S
C2797 C636 1.694 . S
C2803 C1725 1.698 . S
C2817 C841 1.620 . S
C2823 C1653 1.639 . S
C2837 C937 1.691 . S
C2843 C1701 1.706 . S
C2863 C1629 1.676 . S
C2857 C1025 1.677 . S
C2883 C2445 1.695 . S
C2877 C988 1.699 . S
C2903 C2325 1.654 . S
C2897 C821 1.642 . S
C2923 C2373 1.693 . S
C2917 C900 1.685 . S
C2937 C1105 1.622 . S
C2943 C1773 1.639 . S
C2957 C1193 1.683 . S
C2963 C1821 1.701 . S
C2977 C1281 1.690 . S
C2983 C1845 1.686 . S
C2997 C1289 1.696 . S
C3003 C1893 1.707 . S
C3023 C1965 1.655 . S
C3017 C1113 1.639 . S
C3043 C2013 1.686 . S
C3037 C1201 1.680 . S
C3063 C1941 1.715 . S
C3057 C1369 1.705 . S
C3083 C1989 1.693 . S
C3077 C1457 1.684 . S
C3097 C1553 1.639 . S
C3103 C1917 1.631 . S
C3123 C1869 1.608 . S
C3117 C1516 1.622 . S
C3137 C1349 1.692 . S
C3143 C1749 1.695 . S
C3163 C1797 1.705 . S
C3157 C1437 1.693 . S
C3183 C1614 1.531 . S
C3177 C29 1.508 . S
C3197 C117 1.439 . S
C3203 C1668 1.412 . S
C3223 C1716 1.529 . S
C3217 C225 1.546 . S
C3243 C1764 1.517 . S
C3237 C233 1.524 . S
C3263 C1812 1.538 . S
C3257 C20 1.549 . S
C3283 C1854 1.433 . S
C3277 C108 1.433 . S
C3297 C321 1.529 . S
C3303 C1860 1.533 . S
C3317 C409 1.435 . S
C3323 C1758 1.397 . S
C3337 C497 1.562 . S
C3343 C1806 1.511 . S
C3357 C460 1.520 . S
C3363 C1662 1.501 . S
C3383 C1710 1.519 . S
C3377 C284 1.551 . S
C3397 C372 1.444 . S
C3403 C1620 1.427 . S
C3423 C1902 1.444 . S
C3417 C557 1.435 . S
C3437 C665 1.533 . S
C3443 C1956 1.502 . S
C3457 C753 1.543 . S
C3463 C2004 1.517 . S
C3483 C2052 1.163 . S
C3477 C761 1.166 . S
C3497 C548 1.423 . S
C3503 C2100 1.389 . S
C3517 C673 1.170 . S
C3523 C2148 1.165 . S
C3537 C849 1.161 . S
C3543 C2142 1.151 . S
C3557 C929 1.175 . S
C3563 C2046 1.182 . S
C3583 C2094 1.398 . S
C3577 C1017 1.431 . S
C3597 C997 1.446 . S
C3603 C1950 1.408 . S
C3617 C812 1.544 . S
C3623 C1998 1.501 . S
C3643 C1908 1.528 . S
C3637 C909 1.547 . S
C3663 C2190 1.167 . S
C3657 C1085 1.155 . S
C3677 C1173 1.164 . S
C3683 C2244 1.171 . S
C3697 C1261 1.421 . S
C3703 C2292 1.394 . S
C3723 C2340 1.410 . S
C3717 C1252 1.435 . S
C3743 C2388 1.507 . S
C3737 C1076 1.535 . S
C3757 C1164 1.531 . S
C3763 C2430 1.530 . S
C3777 C1377 1.457 . S
C3783 C2436 1.445 . S
C3797 C1465 1.546 . S
C3803 C2334 1.505 . S
C3823 C2382 1.497 . S
C3817 C1545 1.542 . S
C3843 C2238 1.146 . S
C3837 C1525 1.156 . S
C3863 C2286 1.388 . S
C3857 C1340 1.428 . S
C3877 C1428 1.180 . S
C3883 C2196 1.175 . S
