# Generated by pormake.
# Topology nom, (4,4)-cn, num edge types: 1
# Building blocks:
#     Node 0, Type 0, BuildingBlock: GIZVER_clean_linker_0, # of connection points: 4
#     Node 1, Type 0, BuildingBlock: GIZVER_clean_linker_0, # of connection points: 4
#     Node 2, Type 0, BuildingBlock: GIZVER_clean_linker_0, # of connection points: 4
#     Node 3, Type 0, BuildingBlock: GIZVER_clean_linker_0, # of connection points: 4
#     Node 4, Type 0, BuildingBlock: GIZVER_clean_linker_0, # of connection points: 4
#     Node 5, Type 0, BuildingBlock: GIZVER_clean_linker_0, # of connection points: 4
#     Node 6, Type 1, BuildingBlock: NAHDIM_clean_sbu_0, # of connection points: 4
#     Node 7, Type 1, BuildingBlock: NAHDIM_clean_sbu_0, # of connection points: 4
#     Node 8, Type 1, BuildingBlock: NAHDIM_clean_sbu_0, # of connection points: 4
#     Node 9, Type 1, BuildingBlock: NAHDIM_clean_sbu_0, # of connection points: 4
#     Node 10, Type 1, BuildingBlock: NAHDIM_clean_sbu_0, # of connection points: 4
#     Node 11, Type 1, BuildingBlock: NAHDIM_clean_sbu_0, # of connection points: 4
#     Edge 12, Type (0, 1), BuildingBlock: KIFKEQ_clean_linker_1, # of connection points: 2
#     Edge 13, Type (0, 1), BuildingBlock: KIFKEQ_clean_linker_1, # of connection points: 2
#     Edge 14, Type (0, 1), BuildingBlock: KIFKEQ_clean_linker_1, # of connection points: 2
#     Edge 15, Type (0, 1), BuildingBlock: KIFKEQ_clean_linker_1, # of connection points: 2
#     Edge 16, Type (0, 1), BuildingBlock: KIFKEQ_clean_linker_1, # of connection points: 2
#     Edge 17, Type (0, 1), BuildingBlock: KIFKEQ_clean_linker_1, # of connection points: 2
#     Edge 18, Type (0, 1), BuildingBlock: KIFKEQ_clean_linker_1, # of connection points: 2
#     Edge 19, Type (0, 1), BuildingBlock: KIFKEQ_clean_linker_1, # of connection points: 2
#     Edge 20, Type (0, 1), BuildingBlock: KIFKEQ_clean_linker_1, # of connection points: 2
#     Edge 21, Type (0, 1), BuildingBlock: KIFKEQ_clean_linker_1, # of connection points: 2
#     Edge 22, Type (0, 1), BuildingBlock: KIFKEQ_clean_linker_1, # of connection points: 2
#     Edge 23, Type (0, 1), BuildingBlock: KIFKEQ_clean_linker_1, # of connection points: 2
#     Edge 24, Type (0, 1), BuildingBlock: KIFKEQ_clean_linker_1, # of connection points: 2
#     Edge 25, Type (0, 1), BuildingBlock: KIFKEQ_clean_linker_1, # of connection points: 2
#     Edge 26, Type (0, 1), BuildingBlock: KIFKEQ_clean_linker_1, # of connection points: 2
#     Edge 27, Type (0, 1), BuildingBlock: KIFKEQ_clean_linker_1, # of connection points: 2
#     Edge 28, Type (0, 1), BuildingBlock: KIFKEQ_clean_linker_1, # of connection points: 2
#     Edge 29, Type (0, 1), BuildingBlock: KIFKEQ_clean_linker_1, # of connection points: 2
#     Edge 30, Type (0, 1), BuildingBlock: KIFKEQ_clean_linker_1, # of connection points: 2
#     Edge 31, Type (0, 1), BuildingBlock: KIFKEQ_clean_linker_1, # of connection points: 2
#     Edge 32, Type (0, 1), BuildingBlock: KIFKEQ_clean_linker_1, # of connection points: 2
#     Edge 33, Type (0, 1), BuildingBlock: KIFKEQ_clean_linker_1, # of connection points: 2
#     Edge 34, Type (0, 1), BuildingBlock: KIFKEQ_clean_linker_1, # of connection points: 2
#     Edge 35, Type (0, 1), BuildingBlock: KIFKEQ_clean_linker_1, # of connection points: 2
# Relax obj value: 0.022
# Max RMSD: 0.125
# Mean RMSD: 0.093
data_MOF--net-nom--node1-NAHDIM_clean_sbu_0--node2-GIZVER_clean_linker_0--edge1-KIFKEQ_clean_linker_1
_symmetry_space_group_name_H-M    P1
_symmetry_Int_Tables_number       1
_symmetry_cell_setting            triclinic
loop_
_symmetry_equiv_pos_as_xyz
'x, y, z'
_cell_length_a     46.273725
_cell_length_b     47.571854
_cell_length_c     47.672448
_cell_angle_alpha  90.157352
_cell_angle_beta   90.678626
_cell_angle_gamma 120.86716
loop_
_atom_site_label
_atom_site_type_symbol
_atom_site_fract_x
_atom_site_fract_y
_atom_site_fract_z
_atom_type_partial_charge
H0 H 0.96866 0.55575 0.345 0.0
H1 H 0.9961 0.54717 0.2608 0.0
H2 H 0.90078 0.47339 0.29336 0.0
H3 H 0.01661 0.60149 0.32457 0.0
H4 H 0.02025 0.60209 0.28731 0.0
H5 H 0.03936 0.57055 0.35299 0.0
H6 H 0.13344 0.58732 0.32139 0.0
H7 H 0.06666 0.60109 0.26764 0.0
C8 C 0.96333 0.54191 0.32559 0.0
C9 C 0.93256 0.51236 0.32211 0.0
C10 C 0.9866 0.55433 0.30364 0.0
C11 C 0.97872 0.53702 0.27805 0.0
C12 C 0.94786 0.50759 0.27423 0.0
C13 C 0.92537 0.49515 0.2966 0.0
C14 C 0.01806 0.58764 0.30633 0.0
C15 C 0.04906 0.58502 0.30968 0.0
C16 C 0.05657 0.57639 0.33576 0.0
C17 C 0.08685 0.57678 0.34003 0.0
C18 C 0.1092 0.58513 0.3177 0.0
C19 C 0.10231 0.59409 0.29157 0.0
C20 C 0.07194 0.59364 0.28759 0.0
H21 H 0.42704 0.97266 0.51388 0.0
H22 H 0.45433 1.00109 0.4281 0.0
H23 H 0.44388 0.91136 0.45882 0.0
H24 H 0.42181 0.01648 0.49487 0.0
H25 H 0.42157 0.02037 0.45769 0.0
H26 H 0.47473 0.04851 0.52245 0.0
H27 H 0.55219 0.13631 0.48377 0.0
H28 H 0.47007 0.06332 0.43379 0.0
C29 C 0.43475 0.9686 0.49363 0.0
C30 C 0.43643 0.94034 0.48907 0.0
C31 C 0.4417 0.99089 0.47173 0.0
C32 C 0.44999 0.9844 0.44514 0.0
C33 C 0.45097 0.95575 0.44016 0.0
C34 C 0.44491 0.93436 0.46253 0.0
C35 C 0.43661 0.01952 0.47571 0.0
C36 C 0.46979 0.05145 0.47766 0.0
C37 C 0.48614 0.0629 0.50388 0.0
C38 C 0.5155 0.09393 0.50641 0.0
C39 C 0.52955 0.11233 0.48213 0.0
C40 C 0.51318 0.10164 0.45607 0.0
C41 C 0.48332 0.07115 0.4538 0.0
H42 H 0.42276 0.47599 0.59358 0.0
H43 H 0.46068 0.48305 0.67775 0.0
H44 H 0.44132 0.55674 0.6465 0.0
H45 H 0.42143 0.42935 0.61408 0.0
H46 H 0.42697 0.42883 0.65114 0.0
H47 H 0.4733 0.45691 0.58338 0.0
H48 H 0.55415 0.44469 0.61338 0.0
H49 H 0.47704 0.43254 0.66979 0.0
C50 C 0.43224 0.48943 0.6132 0.0
C51 C 0.43255 0.51883 0.61714 0.0
C52 C 0.44272 0.47661 0.63497 0.0
C53 C 0.4535 0.49347 0.66079 0.0
C54 C 0.45321 0.52256 0.66525 0.0
C55 C 0.44343 0.53534 0.643 0.0
C56 C 0.43874 0.44323 0.63191 0.0
C57 C 0.47217 0.44575 0.62733 0.0
C58 C 0.48623 0.45264 0.60045 0.0
C59 C 0.51594 0.45243 0.59526 0.0
C60 C 0.53212 0.44644 0.61749 0.0
C61 C 0.51822 0.43913 0.64433 0.0
C62 C 0.48829 0.43896 0.64923 0.0
H63 H 0.96929 0.42075 0.77099 0.0
H64 H 1.00138 0.45895 0.85478 0.0
H65 H 0.90402 0.43623 0.82339 0.0
H66 H 0.01799 0.42291 0.79096 0.0
H67 H 0.02352 0.42685 0.82817 0.0
H68 H 0.0393 0.47599 0.76251 0.0
H69 H 0.13598 0.55285 0.79298 0.0
H70 H 0.07138 0.47425 0.84725 0.0
C71 C 0.96506 0.42981 0.79047 0.0
C72 C 0.93458 0.42886 0.79432 0.0
C73 C 0.98942 0.44105 0.81217 0.0
C74 C 0.98296 0.45122 0.83784 0.0
C75 C 0.95217 0.44968 0.84219 0.0
C76 C 0.92857 0.43922 0.81998 0.0
C77 C 0.02051 0.43872 0.80918 0.0
C78 C 0.05146 0.47204 0.80551 0.0
C79 C 0.05766 0.48757 0.7794 0.0
C80 C 0.08811 0.51691 0.77461 0.0
C81 C 0.11165 0.53123 0.79676 0.0
C82 C 0.10582 0.5161 0.82296 0.0
C83 C 0.07559 0.48652 0.82729 0.0
H84 H 0.61529 0.07296 0.01605 0.0
H85 H 0.57823 0.04157 0.9317 0.0
H86 H 0.59808 0.13518 0.96235 0.0
H87 H 0.61553 0.02667 -0.00356 0.0
H88 H 0.61186 0.02117 0.95924 0.0
H89 H 0.56108 1.00407 0.02459 0.0
H90 H 0.48186 0.91083 -0.00697 0.0
H91 H 0.56343 0.97424 0.9397 0.0
C92 C 0.60626 0.07692 -0.00377 0.0
C93 C 0.60617 0.10605 -0.00795 0.0
C94 C 0.59592 0.05347 0.97452 0.0
C95 C 0.5855 0.05942 0.94853 0.0
C96 C 0.58606 0.08887 0.94382 0.0
C97 C 0.5958 0.11165 0.96598 0.0
C98 C 0.59926 0.02375 0.97797 0.0
C99 C 0.56535 0.99314 0.98146 0.0
C100 C 0.5493 0.98657 0.00748 0.0
C101 C 0.51908 0.95691 0.01189 0.0
C102 C 0.50435 0.93442 -0.01044 0.0
C103 C 0.52023 0.9405 0.96359 0.0
C104 C 0.55069 0.96992 0.95955 0.0
H105 H 0.60305 0.56042 0.09853 0.0
H106 H 0.57172 0.55853 0.18356 0.0
H107 H 0.58644 0.48177 0.1524 0.0
H108 H 0.60635 0.6085 0.11845 0.0
H109 H 0.6036 0.61111 0.15559 0.0
H110 H 0.55159 0.57803 0.08952 0.0
H111 H 0.47484 0.59526 0.11979 0.0
H112 H 0.55547 0.60954 0.17492 0.0
C113 C 0.59483 0.54811 0.11848 0.0
C114 C 0.5939 0.51852 0.12272 0.0
C115 C 0.58637 0.56241 0.14035 0.0
C116 C 0.57733 0.54698 0.16656 0.0
C117 C 0.57721 0.51775 0.17125 0.0
C118 C 0.58479 0.50342 0.1489 0.0
C119 C 0.59036 0.5957 0.13679 0.0
C120 C 0.5567 0.59315 0.13286 0.0
C121 C 0.54038 0.58417 0.10652 0.0
C122 C 0.51059 0.58456 0.10172 0.0
C123 C 0.49675 0.59314 0.12382 0.0
C124 C 0.51272 0.60229 0.15026 0.0
C125 C 0.54261 0.60196 0.15474 0.0
C126 C 0.62723 0.32413 0.38051 0.0
O127 O 0.66025 0.34161 0.38044 0.0
O128 O 0.68256 0.41173 0.37827 0.0
Zn129 Zn 0.63183 0.388 0.3808 0.0
O130 O 0.61882 0.40238 0.41593 0.0
C131 C 0.62911 0.43231 0.34301 0.0
O132 O 0.65511 0.45278 0.35867 0.0
O133 O 0.61048 0.33857 0.38036 0.0
C134 C 0.59233 0.40422 0.4156 0.0
O135 O 0.57352 0.39561 0.39271 0.0
C136 C 0.70272 0.41371 0.3976 0.0
O137 O 0.69067 0.39869 0.42146 0.0
O138 O 0.61453 0.40183 0.34793 0.0
C139 C 0.32717 0.71281 0.55493 0.0
O140 O 0.34045 0.69565 0.54653 0.0
O141 O 0.29272 0.6253 0.56208 0.0
Zn142 Zn 0.26629 0.64846 0.56006 0.0
O143 O 0.23857 0.63657 0.52445 0.0
C144 C 0.2219 0.60395 0.60099 0.0
O145 O 0.23185 0.58529 0.58945 0.0
O146 O 0.29652 0.69792 0.56225 0.0
C147 C 0.22061 0.6072 0.51562 0.0
O148 O 0.22132 0.58363 0.52931 0.0
C149 C 0.30779 0.6206 0.5421 0.0
O150 O 0.30805 0.63234 0.51714 0.0
O151 O 0.23376 0.63298 0.59217 0.0
C152 C 0.62657 0.32052 0.71634 0.0
O153 O 0.65459 0.32796 0.70363 0.0
O154 O 0.68136 0.29033 0.7361 0.0
Zn155 Zn 0.63072 0.2642 0.73109 0.0
O156 O 0.61861 0.23793 0.69511 0.0
C157 C 0.6267 0.21701 0.76875 0.0
O158 O 0.65234 0.2221 0.75342 0.0
O159 O 0.61144 0.29408 0.73014 0.0
C160 C 0.59389 0.20862 0.69364 0.0
O161 O 0.57551 0.19534 0.71593 0.0
C162 C 0.70246 0.30151 0.71631 0.0
O163 O 0.69169 0.29704 0.69014 0.0
O164 O 0.61214 0.23295 0.76341 0.0
C165 C 0.41039 0.71606 0.88226 0.0
O166 O 0.37747 0.69732 0.88254 0.0
O167 O 0.35817 0.62838 0.87869 0.0
Zn168 Zn 0.40907 0.65378 0.88037 0.0
O169 O 0.42533 0.642 0.91519 0.0
C170 C 0.40879 0.61092 0.83847 0.0
O171 O 0.38006 0.5911 0.85058 0.0
O172 O 0.42835 0.70294 0.88063 0.0
C173 C 0.41162 0.61285 0.92418 0.0
O174 O 0.38494 0.58943 0.91103 0.0
C175 C 0.33865 0.62571 0.8984 0.0
O176 O 0.35144 0.64122 0.92232 0.0
O177 O 0.42632 0.64034 0.84727 0.0
C178 C 0.70735 0.4037 0.05627 0.0
O179 O 0.69307 0.37237 0.06182 0.0
O180 O 0.74316 0.35156 0.05084 0.0
Zn181 Zn 0.76917 0.40105 0.05368 0.0
O182 O 0.79645 0.41631 0.08956 0.0
C183 C 0.81522 0.40233 0.01376 0.0
O184 O 0.80608 0.37414 0.02562 0.0
O185 O 0.73879 0.42015 0.05165 0.0
C186 C 0.8128 0.40353 0.09917 0.0
O187 O 0.81061 0.37812 0.08617 0.0
C188 C 0.72678 0.33151 0.07022 0.0
O189 O 0.72468 0.34261 0.09491 0.0
O190 O 0.80219 0.41876 0.02198 0.0
C191 C 0.41414 0.72553 0.23335 0.0
O192 O 0.38855 0.71378 0.25046 0.0
O193 O 0.34953 0.74865 0.22706 0.0
Zn194 Zn 0.39989 0.77819 0.22425 0.0
O195 O 0.41079 0.80717 0.19042 0.0
C196 C 0.40026 0.82089 0.26567 0.0
O197 O 0.37325 0.81441 0.25103 0.0
O198 O 0.42302 0.75215 0.22062 0.0
C199 C 0.43545 0.83653 0.19149 0.0
O200 O 0.45363 0.84744 0.21467 0.0
C201 C 0.33125 0.72241 0.21308 0.0
O202 O 0.34532 0.71243 0.19494 0.0
O203 O 0.41659 0.80721 0.25868 0.0
H204 H 0.14221 0.57072 0.27405 0.0
H205 H 0.12443 0.6506 0.26229 0.0
H206 H 0.19516 0.60108 0.24909 0.0
H207 H 0.17693 0.68062 0.23666 0.0
H208 H 0.29386 0.74022 0.24387 0.0
H209 H 0.23471 0.7071 0.25551 0.0
H210 H 0.22601 0.62706 0.20568 0.0
H211 H 0.28571 0.66031 0.19412 0.0
C212 C 0.14919 0.59438 0.26541 0.0
C213 C 0.12939 0.60844 0.27043 0.0
C214 C 0.17942 0.61171 0.25097 0.0
C215 C 0.19051 0.6435 0.2413 0.0
C216 C 0.16931 0.65639 0.24428 0.0
C217 C 0.13903 0.63902 0.25867 0.0
C218 C 0.27934 0.71567 0.23514 0.0
C219 C 0.2946 0.70282 0.21824 0.0
C220 C 0.24528 0.69677 0.2416 0.0
C221 C 0.22558 0.66446 0.23144 0.0
C222 C 0.24058 0.65183 0.21393 0.0
C223 C 0.27473 0.67089 0.20727 0.0
H224 H 0.57051 0.12537 0.42578 0.0
H225 H 0.4829 0.13356 0.4371 0.0
H226 H 0.59698 0.17594 0.39884 0.0
H227 H 0.50974 0.18508 0.41215 0.0
H228 H 0.56193 0.27875 0.36653 0.0
H229 H 0.53225 0.21996 0.37494 0.0
H230 H 0.62345 0.23031 0.41126 0.0
H231 H 0.65322 0.2883 0.40108 0.0
C232 C 0.55661 0.13762 0.42171 0.0
C233 C 0.52467 0.12564 0.43318 0.0
C234 C 0.57192 0.16692 0.40675 0.0
C235 C 0.55602 0.18535 0.40382 0.0
C236 C 0.52287 0.17176 0.41357 0.0
C237 C 0.50732 0.1421 0.42792 0.0
C238 C 0.57563 0.26821 0.37591 0.0
C239 C 0.6098 0.28814 0.38337 0.0
C240 C 0.5586 0.2345 0.3809 0.0
C241 C 0.57515 0.22005 0.3941 0.0
C242 C 0.60974 0.24005 0.40058 0.0
C243 C 0.62689 0.27356 0.39501 0.0
H244 H 0.4592 0.57967 0.59457 0.0
H245 H 0.36939 0.48382 0.59468 0.0
H246 H 0.42819 0.60162 0.57025 0.0
H247 H 0.33828 0.50582 0.57067 0.0
H248 H 0.29443 0.57585 0.58278 0.0
H249 H 0.32496 0.5479 0.59365 0.0
H250 H 0.39189 0.59679 0.52492 0.0
H251 H 0.36076 0.62448 0.51355 0.0
C252 C 0.43311 0.56315 0.58857 0.0
C253 C 0.41663 0.5301 0.59646 0.0
C254 C 0.41541 0.57566 0.57465 0.0
C255 C 0.38081 0.55543 0.56884 0.0
C256 C 0.36491 0.52192 0.57505 0.0
C257 C 0.38275 0.5093 0.58856 0.0
C258 C 0.31544 0.58041 0.56979 0.0
C259 C 0.32533 0.60245 0.5474 0.0
C260 C 0.33271 0.56419 0.57586 0.0
C261 C 0.36063 0.57007 0.56001 0.0
C262 C 0.37037 0.5918 0.53738 0.0
C263 C 0.35257 0.60756 0.5309 0.0
H264 H 0.90596 0.36646 0.77484 0.0
H265 H 0.89873 0.45317 0.76939 0.0
H266 H 0.85116 0.33462 0.75094 0.0
H267 H 0.84422 0.42145 0.74488 0.0
H268 H 0.75348 0.34928 0.68553 0.0
H269 H 0.81363 0.38107 0.69834 0.0
H270 H 0.79339 0.32548 0.77441 0.0
H271 H 0.73345 0.29448 0.76218 0.0
C272 C 0.89323 0.37892 0.76753 0.0
C273 C 0.90644 0.4122 0.77383 0.0
C274 C 0.86187 0.3607 0.75407 0.0
C275 C 0.8436 0.37566 0.74624 0.0
C276 C 0.85801 0.40949 0.75056 0.0
C277 C 0.88908 0.42758 0.76453 0.0
C278 C 0.762 0.34377 0.70487 0.0
C279 C 0.73887 0.31957 0.72296 0.0
C280 C 0.79628 0.36192 0.71215 0.0
C281 C 0.80797 0.35543 0.73719 0.0
C282 C 0.78497 0.33063 0.75483 0.0
C283 C 0.75071 0.31311 0.74794 0.0
H284 H 0.45974 0.91147 0.93594 0.0
H285 H 0.55061 0.90815 0.94574 0.0
H286 H 0.43378 0.86028 0.90903 0.0
H287 H 0.52437 0.85599 0.92071 0.0
H288 H 0.4747 0.76416 0.86999 0.0
H289 H 0.50229 0.82228 0.88187 0.0
H290 H 0.41013 0.80576 0.91929 0.0
H291 H 0.38238 0.74851 0.90577 0.0
C292 C 0.47427 0.89992 0.93183 0.0
C293 C 0.50711 0.91363 0.94267 0.0
C294 C 0.45933 0.87035 0.91679 0.0
C295 C 0.47659 0.85336 0.91305 0.0
C296 C 0.51024 0.86827 0.9227 0.0
C297 C 0.52539 0.89821 0.93715 0.0
C298 C 0.46031 0.7732 0.88036 0.0
C299 C 0.42645 0.75176 0.88709 0.0
C300 C 0.47616 0.80651 0.88737 0.0
C301 C 0.45871 0.81902 0.90187 0.0
C302 C 0.42445 0.79753 0.90771 0.0
C303 C 0.40847 0.76444 0.90015 0.0
H304 H 0.65798 0.54682 0.10457 0.0
H305 H 0.56018 0.45952 0.09584 0.0
H306 H 0.6836 0.51908 0.08206 0.0
H307 H 0.58519 0.43196 0.07168 0.0
H308 H 0.64551 0.38002 0.07912 0.0
H309 H 0.61611 0.40908 0.08756 0.0
H310 H 0.69453 0.49378 0.04509 0.0
H311 H 0.72487 0.46494 0.03796 0.0
C312 C 0.64184 0.5221 0.0966 0.0
C313 C 0.60721 0.50522 0.10185 0.0
C314 C 0.65646 0.50608 0.08367 0.0
C315 C 0.63662 0.47292 0.07545 0.0
C316 C 0.60145 0.45714 0.07844 0.0
C317 C 0.58696 0.473 0.09187 0.0
C318 C 0.65632 0.40471 0.07128 0.0
C319 C 0.68773 0.42029 0.05817 0.0
C320 C 0.63925 0.4214 0.07589 0.0
C321 C 0.65285 0.454 0.0671 0.0
C322 C 0.68352 0.46898 0.05266 0.0
C323 C 0.70088 0.4524 0.04844 0.0
H324 H 0.47173 0.91532 0.51348 0.0
H325 H 0.37361 0.90493 0.50998 0.0
H326 H 0.44822 0.86299 0.53753 0.0
H327 H 0.34942 0.85182 0.53251 0.0
H328 H 0.31115 0.7567 0.57618 0.0
H329 H 0.34102 0.81582 0.56921 0.0
H330 H 0.41614 0.8092 0.52128 0.0
H331 H 0.38727 0.75081 0.5294 0.0
C332 C 0.44525 0.90211 0.51859 0.0
C333 C 0.42443 0.91401 0.51003 0.0
C334 C 0.43161 0.87192 0.53198 0.0
C335 C 0.39669 0.85261 0.53641 0.0
C336 C 0.3764 0.86591 0.52973 0.0
C337 C 0.39021 0.89641 0.5168 0.0
C338 C 0.33435 0.76805 0.56453 0.0
C339 C 0.34669 0.74901 0.55315 0.0
C340 C 0.35142 0.80195 0.56041 0.0
C341 C 0.381 0.81752 0.54452 0.0
C342 C 0.39387 0.79845 0.53408 0.0
C343 C 0.37708 0.76473 0.53851 0.0
H344 H 0.58261 0.47005 0.66471 0.0
H345 H 0.48686 0.38008 0.66998 0.0
H346 H 0.60978 0.44479 0.68966 0.0
H347 H 0.51395 0.35411 0.69369 0.0
H348 H 0.56968 0.314 0.74029 0.0
H349 H 0.54385 0.3469 0.73112 0.0
H350 H 0.62411 0.40667 0.67416 0.0
H351 H 0.65025 0.37484 0.68408 0.0
C352 C 0.56732 0.44507 0.67186 0.0
C353 C 0.53275 0.42693 0.66542 0.0
C354 C 0.58285 0.43042 0.68584 0.0
C355 C 0.56425 0.3971 0.69311 0.0
C356 C 0.52913 0.37981 0.68861 0.0
C357 C 0.51352 0.39467 0.67501 0.0
C358 C 0.58197 0.33447 0.72612 0.0
C359 C 0.6119 0.34163 0.71276 0.0
C360 C 0.56711 0.35326 0.72078 0.0
C361 C 0.5818 0.37951 0.70187 0.0
C362 C 0.6123 0.38715 0.68928 0.0
C363 C 0.6272 0.36859 0.69475 0.0
H364 H 0.13258 0.48309 0.84798 0.0
H365 H 0.1432 0.57854 0.84348 0.0
H366 H 0.18692 0.50706 0.87264 0.0
H367 H 0.19747 0.60251 0.8683 0.0
H368 H 0.28995 0.63166 0.92515 0.0
H369 H 0.2294 0.60228 0.914 0.0
H370 H 0.24416 0.54668 0.84998 0.0
H371 H 0.30435 0.57618 0.8607 0.0
C372 C 0.14597 0.50898 0.85318 0.0
C373 C 0.13384 0.52903 0.84379 0.0
C374 C 0.17714 0.52271 0.86707 0.0
C375 C 0.19646 0.55664 0.87212 0.0
C376 C 0.183 0.57626 0.86481 0.0
C377 C 0.15205 0.5626 0.85057 0.0
C378 C 0.28011 0.61287 0.90895 0.0
C379 C 0.30184 0.60634 0.89365 0.0
C380 C 0.24557 0.59615 0.90258 0.0
C381 C 0.23215 0.57212 0.88127 0.0
C382 C 0.25375 0.56477 0.86677 0.0
C383 C 0.28824 0.58187 0.87273 0.0
H384 H 0.57851 0.13984 0.01381 0.0
H385 H 0.66869 0.13427 0.01589 0.0
H386 H 0.60836 0.19244 0.03888 0.0
H387 H 0.69867 0.18703 0.04071 0.0
H388 H 0.74263 0.30087 0.03041 0.0
H389 H 0.71299 0.24264 0.0187 0.0
H390 H 0.64234 0.22332 0.08477 0.0
H391 H 0.67252 0.28189 0.09696 0.0
C392 C 0.60443 0.14946 0.02042 0.0
C393 C 0.62136 0.13312 0.01294 0.0
C394 C 0.62147 0.17946 0.03478 0.0
C395 C 0.65586 0.19386 0.04147 0.0
C396 C 0.67218 0.17647 0.03563 0.0
C397 C 0.65499 0.14622 0.02166 0.0
C398 C 0.72099 0.2842 0.04265 0.0
C399 C 0.70977 0.29593 0.0645 0.0
C400 C 0.70421 0.25083 0.0361 0.0
C401 C 0.6755 0.2285 0.05094 0.0
C402 C 0.66447 0.24007 0.07308 0.0
C403 C 0.68173 0.2735 0.08004 0.0
H404 H 0.54924 0.65891 0.18064 0.0
H405 H 0.44783 0.57812 0.1667 0.0
H406 H 0.52745 0.68795 0.20706 0.0
H407 H 0.42595 0.60745 0.19248 0.0
H408 H 0.39584 0.66348 0.25 0.0
H409 H 0.42181 0.63178 0.23688 0.0
H410 H 0.49672 0.71408 0.18994 0.0
H411 H 0.47115 0.74575 0.2032 0.0
C412 C 0.52237 0.64695 0.1839 0.0
C413 C 0.50021 0.61636 0.1714 0.0
C414 C 0.50985 0.66375 0.19875 0.0
C415 C 0.47495 0.65024 0.20148 0.0
C416 C 0.45297 0.61853 0.19085 0.0
C417 C 0.46547 0.60179 0.17594 0.0
C418 C 0.41811 0.67493 0.23718 0.0
C419 C 0.43127 0.70707 0.22747 0.0
C420 C 0.43291 0.65672 0.22961 0.0
C421 C 0.46133 0.6704 0.21239 0.0
C422 C 0.47515 0.70294 0.20357 0.0
C423 C 0.46028 0.72102 0.21096 0.0
H424 H 0.89464 0.45159 0.34467 0.0
H425 H 0.90809 0.54832 0.34492 0.0
H426 H 0.84132 0.43054 0.36909 0.0
H427 H 0.85471 0.52728 0.36925 0.0
H428 H 0.73671 0.46075 0.35874 0.0
H429 H 0.79635 0.48788 0.34779 0.0
H430 H 0.81135 0.43411 0.41344 0.0
H431 H 0.7514 0.40707 0.42476 0.0
C432 C 0.88664 0.46849 0.35075 0.0
C433 C 0.90536 0.50152 0.34287 0.0
C434 C 0.85621 0.45649 0.36476 0.0
C435 C 0.84376 0.47724 0.37077 0.0
C436 C 0.86366 0.51074 0.36465 0.0
C437 C 0.89431 0.52282 0.35098 0.0
C438 C 0.75276 0.45495 0.37107 0.0
C439 C 0.73935 0.43165 0.3925 0.0
C440 C 0.78697 0.47071 0.36496 0.0
C441 C 0.80848 0.4632 0.37987 0.0
C442 C 0.79528 0.44034 0.40167 0.0
C443 C 0.76105 0.42495 0.40814 0.0
H444 H 0.08314 0.60474 0.38884 0.0
H445 H 0.1168 0.54215 0.35521 0.0
H446 H 0.11155 0.60843 0.4333 0.0
H447 H 0.14605 0.5466 0.39945 0.0
H448 H 0.17976 0.5475 0.49037 0.0
H449 H 0.14151 0.53511 0.45029 0.0
H450 H 0.17197 0.6373 0.44533 0.0
H451 H 0.20977 0.64964 0.48538 0.0
C452 C 0.09586 0.59107 0.39118 0.0
C453 C 0.09794 0.57333 0.36848 0.0
C454 C 0.11252 0.59355 0.41652 0.0
C455 C 0.13153 0.57829 0.41969 0.0
C456 C 0.1316 0.55862 0.39767 0.0
C457 C 0.115 0.5562 0.37231 0.0
C458 C 0.17824 0.5673 0.48073 0.0
C459 C 0.19787 0.59957 0.49104 0.0
C460 C 0.15635 0.56019 0.45778 0.0
C461 C 0.1535 0.58517 0.44481 0.0
C462 C 0.17308 0.61739 0.45519 0.0
C463 C 0.19503 0.62452 0.478 0.0
H464 H 0.53667 0.1566 0.52227 0.0
H465 H 0.52385 0.06595 0.55413 0.0
H466 H 0.55827 0.18263 0.56756 0.0
H467 H 0.54517 0.09227 0.60019 0.0
H468 H 0.5436 0.14531 0.68366 0.0
H469 H 0.5269 0.116 0.63875 0.0
H470 H 0.60809 0.2003 0.59841 0.0
H471 H 0.62461 0.22977 0.64311 0.0
C472 C 0.53906 0.14233 0.53881 0.0
C473 C 0.52911 0.1093 0.53437 0.0
C474 C 0.55138 0.1573 0.56485 0.0
C475 C 0.55382 0.13963 0.58732 0.0
C476 C 0.54352 0.10646 0.58318 0.0
C477 C 0.53132 0.09142 0.55689 0.0
C478 C 0.55804 0.15752 0.66524 0.0
C479 C 0.58518 0.19003 0.66688 0.0
C480 C 0.54861 0.14061 0.63958 0.0
C481 C 0.56604 0.15594 0.61507 0.0
C482 C 0.5939 0.18802 0.61692 0.0
C483 C 0.60339 0.20487 0.64254 0.0
H484 H 0.43133 0.48997 0.71491 0.0
H485 H 0.48394 0.58751 0.68056 0.0
H486 H 0.427 0.51213 0.75949 0.0
H487 H 0.47743 0.60942 0.72466 0.0
H488 H 0.47002 0.64216 0.81244 0.0
H489 H 0.48827 0.62128 0.77379 0.0
H490 H 0.39124 0.53165 0.77291 0.0
H491 H 0.37361 0.55194 0.81178 0.0
C492 C 0.44271 0.51624 0.71698 0.0
C493 C 0.45749 0.53687 0.69389 0.0
C494 C 0.43968 0.52891 0.74249 0.0
C495 C 0.45093 0.56243 0.74544 0.0
C496 C 0.46832 0.58346 0.72316 0.0
C497 C 0.47175 0.57083 0.69774 0.0
C498 C 0.45273 0.61793 0.80403 0.0
C499 C 0.42035 0.59873 0.81514 0.0
C500 C 0.46316 0.60599 0.78187 0.0
C501 C 0.44136 0.57466 0.77033 0.0
C502 C 0.40907 0.55553 0.78165 0.0
C503 C 0.39878 0.56734 0.80382 0.0
H504 H 0.91543 0.47783 0.85704 0.0
H505 H 0.96486 0.42934 0.89205 0.0
H506 H 0.88647 0.47074 0.90106 0.0
H507 H 0.93776 0.42431 0.93656 0.0
H508 H 0.8419 0.36979 -0.01182 0.0
H509 H 0.88125 0.38818 0.94986 0.0
H510 H 0.88567 0.4812 0.95009 0.0
H511 H 0.84513 0.4622 -0.01187 0.0
C512 C 0.92081 0.46643 0.87435 0.0
C513 C 0.94192 0.45352 0.87074 0.0
C514 C 0.90444 0.46266 0.89973 0.0
C515 C 0.90917 0.44624 0.92217 0.0
C516 C 0.93283 0.43626 0.91943 0.0
C517 C 0.94887 0.43967 0.89397 0.0
C518 C 0.85136 0.39424 0.98021 0.0
C519 C 0.84021 0.41444 -0.00891 0.0
C520 C 0.87428 0.40498 0.95837 0.0
C521 C 0.88692 0.43633 0.94697 0.0
C522 C 0.87624 0.45682 0.95821 0.0
C523 C 0.85306 0.44596 0.98003 0.0
H524 H 0.45312 0.92619 0.02785 0.0
H525 H 0.55408 0.96387 0.06032 0.0
H526 H 0.43038 0.90066 0.07299 0.0
H527 H 0.53153 0.9383 0.10513 0.0
H528 H 0.48351 0.90135 0.18831 0.0
H529 H 0.50138 0.93563 0.14679 0.0
H530 H 0.42661 0.85402 0.09687 0.0
H531 H 0.40816 0.81999 0.13851 0.0
C532 C 0.47044 0.92944 0.04477 0.0
C533 C 0.50538 0.94691 0.04049 0.0
C534 C 0.45743 0.9147 0.07056 0.0
C535 C 0.47911 0.9171 0.09257 0.0
C536 C 0.51409 0.93624 0.08877 0.0
C537 C 0.52707 0.951 0.06304 0.0
C538 C 0.47067 0.89079 0.16852 0.0
C539 C 0.44463 0.85784 0.16665 0.0
C540 C 0.48098 0.91044 0.14471 0.0
C541 C 0.46558 0.89756 0.11847 0.0
C542 C 0.43874 0.86489 0.11681 0.0
C543 C 0.42834 0.84527 0.14065 0.0
H544 H 0.54635 0.45343 0.18725 0.0
H545 H 0.60257 0.55222 0.2205 0.0
H546 H 0.55528 0.43287 0.23101 0.0
H547 H 0.609 0.53141 0.26509 0.0
H548 H 0.66291 0.49202 0.31843 0.0
H549 H 0.64395 0.51225 0.28004 0.0
H550 H 0.54764 0.42168 0.2789 0.0
H551 H 0.56751 0.40086 0.31656 0.0
C552 C 0.5599 0.47071 0.20415 0.0
C553 C 0.57448 0.50458 0.20002 0.0
C554 C 0.56469 0.45885 0.22947 0.0
C555 C 0.58364 0.48053 0.25148 0.0
C556 C 0.59522 0.51407 0.2483 0.0
C557 C 0.59095 0.52599 0.22281 0.0
C558 C 0.63764 0.47647 0.31004 0.0
C559 C 0.61682 0.44476 0.32031 0.0
C560 C 0.62655 0.48821 0.28818 0.0
C561 C 0.5941 0.46873 0.27632 0.0
C562 C 0.57294 0.43723 0.28717 0.0
C563 C 0.58428 0.42529 0.30879 0.0
H564 H 0.48307 0.92376 0.42287 0.0
H565 H 0.42293 0.96302 0.39178 0.0
H566 H 0.47397 0.89432 0.37887 0.0
H567 H 0.41615 0.93579 0.34699 0.0
H568 H 0.36445 0.84313 0.29287 0.0
H569 H 0.38252 0.88122 0.33216 0.0
H570 H 0.48104 0.89173 0.33043 0.0
H571 H 0.4622 0.85221 0.29173 0.0
C572 C 0.46858 0.92676 0.4064 0.0
C573 C 0.45308 0.94516 0.4112 0.0
C574 C 0.46366 0.91013 0.38096 0.0
C575 C 0.4436 0.91197 0.3595 0.0
C576 C 0.43086 0.93294 0.36335 0.0
C577 C 0.43532 0.94914 0.38895 0.0
C578 C 0.38999 0.85362 0.30083 0.0
C579 C 0.41181 0.8445 0.28934 0.0
C580 C 0.40055 0.87582 0.32322 0.0
C581 C 0.43342 0.88991 0.33446 0.0
C582 C 0.45545 0.88113 0.3226 0.0
C583 C 0.44468 0.85851 0.30039 0.0
H584 H 0.58046 0.48662 0.576 0.0
H585 H 0.47786 0.41933 0.54935 0.0
H586 H 0.60041 0.47957 0.53081 0.0
H587 H 0.49764 0.41188 0.50449 0.0
H588 H 0.5413 0.4169 0.41957 0.0
H589 H 0.52433 0.43494 0.46078 0.0
H590 H 0.60413 0.43556 0.50934 0.0
H591 H 0.62168 0.4184 0.46792 0.0
C592 C 0.56217 0.47074 0.56029 0.0
C593 C 0.52763 0.45344 0.56624 0.0
C594 C 0.57358 0.46651 0.53451 0.0
C595 C 0.55067 0.4448 0.51416 0.0
C596 C 0.51599 0.42904 0.51953 0.0
C597 C 0.5046 0.43337 0.54526 0.0
C598 C 0.55534 0.42103 0.43901 0.0
C599 C 0.5827 0.41598 0.44053 0.0
C600 C 0.54555 0.43132 0.46265 0.0
C601 C 0.5628 0.43665 0.4884 0.0
C602 C 0.59059 0.43219 0.48975 0.0
C603 C 0.60049 0.42206 0.46606 0.0
H604 H 0.1233 0.58124 0.75847 0.0
H605 H 0.07625 0.48244 0.7255 0.0
H606 H 0.15148 0.6022 0.71407 0.0
H607 H 0.10257 0.50352 0.68058 0.0
H608 H 0.19765 0.54584 0.62775 0.0
H609 H 0.15913 0.52513 0.66663 0.0
H610 H 0.15088 0.61161 0.66484 0.0
H611 H 0.19059 0.63294 0.62623 0.0
C612 C 0.11829 0.56404 0.74153 0.0
C613 C 0.09806 0.53011 0.74581 0.0
C614 C 0.1342 0.5761 0.71592 0.0
C615 C 0.12989 0.55448 0.69391 0.0
C616 C 0.10715 0.52079 0.69735 0.0
C617 C 0.09156 0.50872 0.72304 0.0
C618 C 0.18753 0.56042 0.6355 0.0
C619 C 0.19737 0.59114 0.624 0.0
C620 C 0.16508 0.54836 0.65767 0.0
C621 C 0.15162 0.56656 0.6688 0.0
C622 C 0.16098 0.59708 0.65695 0.0
C623 C 0.18369 0.60928 0.6348 0.0
H624 H 0.60618 0.0761 0.89389 0.0
H625 H 0.55624 0.1239 0.92848 0.0
H626 H 0.60922 0.10091 0.84885 0.0
H627 H 0.56196 0.151 0.88406 0.0
H628 H 0.56735 0.19004 0.79721 0.0
H629 H 0.54985 0.15178 0.83621 0.0
H630 H 0.64426 0.15383 0.83224 0.0
H631 H 0.66078 0.19056 0.79272 0.0
C632 C 0.59522 0.09137 0.89184 0.0
C633 C 0.58152 0.09843 0.9151 0.0
C634 C 0.59756 0.10616 0.86603 0.0
C635 C 0.58683 0.12882 0.86294 0.0
C636 C 0.57064 0.1338 0.88554 0.0
C637 C 0.56774 0.11854 0.91122 0.0
C638 C 0.58417 0.18204 0.80462 0.0
C639 C 0.61548 0.19338 0.79199 0.0
C640 C 0.5742 0.16018 0.82701 0.0
C641 C 0.59554 0.14953 0.83745 0.0
C642 C 0.6267 0.16072 0.82446 0.0
C643 C 0.63641 0.18214 0.80191 0.0
H644 H 0.44421 0.55046 0.08543 0.0
H645 H 0.54452 0.61095 0.0533 0.0
H646 H 0.42048 0.55422 0.04059 0.0
H647 H 0.52083 0.61376 0.00822 0.0
H648 H 0.46816 0.6551 0.95427 0.0
H649 H 0.49228 0.64311 -0.00523 0.0
H650 H 0.41293 0.54149 -0.00999 0.0
H651 H 0.38836 0.55357 0.94953 0.0
C652 C 0.46115 0.56392 0.06856 0.0
C653 C 0.49622 0.5807 0.07299 0.0
C654 C 0.44757 0.5659 0.04283 0.0
C655 C 0.46881 0.58472 0.02102 0.0
C656 C 0.50384 0.59956 0.02482 0.0
C657 C 0.51741 0.59757 0.05053 0.0
C658 C 0.45585 0.63016 0.96177 0.0
C659 C 0.42626 0.60532 0.94872 0.0
C660 C 0.46988 0.62322 0.98484 0.0
C661 C 0.45467 0.59128 -0.00454 0.0
C662 C 0.42514 0.56636 0.98237 0.0
C663 C 0.41111 0.5733 0.95918 0.0
H664 H 0.91506 0.44234 0.26046 0.0
H665 H 0.95353 0.53812 0.22451 0.0
H666 H 0.88526 0.41699 0.21649 0.0
H667 H 0.92465 0.5128 0.18035 0.0
H668 H 0.82641 0.4586 0.12822 0.0
H669 H 0.86431 0.48369 0.16829 0.0
H670 H 0.88912 0.4077 0.16593 0.0
H671 H 0.85073 0.3822 0.12584 0.0
C672 C 0.91779 0.45793 0.24293 0.0
C673 C 0.93637 0.49221 0.24603 0.0
C674 C 0.90088 0.44342 0.21772 0.0
C675 C 0.90217 0.46293 0.19512 0.0
C676 C 0.9227 0.49715 0.19759 0.0
C677 C 0.93964 0.51165 0.22277 0.0
C678 C 0.83991 0.44718 0.13619 0.0
C679 C 0.83547 0.41834 0.12386 0.0
C680 C 0.86192 0.46177 0.159 0.0
C681 C 0.87998 0.44786 0.1701 0.0
C682 C 0.87548 0.41893 0.15788 0.0
C683 C 0.85352 0.40437 0.13491 0.0
loop_
_geom_bond_atom_site_label_1
_geom_bond_atom_site_label_2
_geom_bond_distance
_geom_bond_site_symmetry_2
_ccdc_geom_bond_type
H0 C8 0.930 . S
H1 C11 0.930 . S
H2 C13 0.930 . S
H3 C14 0.970 1_655 S
H4 C14 0.970 . S
H5 C16 0.930 . S
H6 C18 0.930 . S
H7 C20 0.930 . S
C8 H0 0.930 . S
C8 C9 1.382 . S
C8 C10 1.426 . S
C9 C8 1.382 . S
C9 C13 1.389 . S
C10 C8 1.426 . S
C10 C11 1.375 . S
C10 C14 1.532 1_655 S
C11 H1 0.930 . S
C11 C10 1.375 . S
C11 C12 1.416 . S
C12 C11 1.416 . S
C12 C13 1.371 . S
C13 H2 0.930 . S
C13 C9 1.389 . S
C13 C12 1.371 . S
C14 H3 0.970 1_455 S
C14 H4 0.970 . S
C14 C10 1.532 1_455 S
C14 C15 1.499 . S
C15 C14 1.499 . S
C15 C16 1.370 . S
C15 C20 1.415 . S
C16 H5 0.930 . S
C16 C15 1.370 . S
C16 C17 1.407 . S
C17 C16 1.407 . S
C17 C18 1.365 . S
C18 H6 0.930 . S
C18 C17 1.365 . S
C18 C19 1.393 . S
C19 C18 1.393 . S
C19 C20 1.387 . S
C20 H7 0.930 . S
C20 C15 1.415 . S
C20 C19 1.387 . S
H21 C29 0.930 . S
H22 C32 0.930 . S
H23 C34 0.930 . S
H24 C35 0.970 . S
H25 C35 0.970 . S
H26 C37 0.930 . S
H27 C39 0.930 . S
H28 C41 0.930 . S
C29 H21 0.930 . S
C29 C30 1.382 . S
C29 C31 1.426 . S
C30 C29 1.382 . S
C30 C34 1.389 . S
C31 C29 1.426 . S
C31 C32 1.375 . S
C31 C35 1.532 1_565 S
C32 H22 0.930 . S
C32 C31 1.375 . S
C32 C33 1.416 . S
C33 C32 1.416 . S
C33 C34 1.371 . S
C34 H23 0.930 . S
C34 C30 1.389 . S
C34 C33 1.371 . S
C35 H24 0.970 . S
C35 H25 0.970 . S
C35 C31 1.532 1_545 S
C35 C36 1.499 . S
C36 C35 1.499 . S
C36 C37 1.370 . S
C36 C41 1.415 . S
C37 H26 0.930 . S
C37 C36 1.370 . S
C37 C38 1.407 . S
C38 C37 1.407 . S
C38 C39 1.365 . S
C39 H27 0.930 . S
C39 C38 1.365 . S
C39 C40 1.393 . S
C40 C39 1.393 . S
C40 C41 1.387 . S
C41 H28 0.930 . S
C41 C36 1.415 . S
C41 C40 1.387 . S
H42 C50 0.930 . S
H43 C53 0.930 . S
H44 C55 0.930 . S
H45 C56 0.970 . S
H46 C56 0.970 . S
H47 C58 0.930 . S
H48 C60 0.930 . S
H49 C62 0.930 . S
C50 H42 0.930 . S
C50 C51 1.382 . S
C50 C52 1.426 . S
C51 C50 1.382 . S
C51 C55 1.389 . S
C52 C50 1.426 . S
C52 C53 1.375 . S
C52 C56 1.532 . S
C53 H43 0.930 . S
C53 C52 1.375 . S
C53 C54 1.416 . S
C54 C53 1.416 . S
C54 C55 1.371 . S
C55 H44 0.930 . S
C55 C51 1.389 . S
C55 C54 1.371 . S
C56 H45 0.970 . S
C56 H46 0.970 . S
C56 C52 1.532 . S
C56 C57 1.499 . S
C57 C56 1.499 . S
C57 C58 1.370 . S
C57 C62 1.415 . S
C58 H47 0.930 . S
C58 C57 1.370 . S
C58 C59 1.407 . S
C59 C58 1.407 . S
C59 C60 1.365 . S
C60 H48 0.930 . S
C60 C59 1.365 . S
C60 C61 1.393 . S
C61 C60 1.393 . S
C61 C62 1.387 . S
C62 H49 0.930 . S
C62 C57 1.415 . S
C62 C61 1.387 . S
H63 C71 0.930 . S
H64 C74 0.930 . S
H65 C76 0.930 . S
H66 C77 0.970 1_655 S
H67 C77 0.970 . S
H68 C79 0.930 . S
H69 C81 0.930 . S
H70 C83 0.930 . S
C71 H63 0.930 . S
C71 C72 1.382 . S
C71 C73 1.426 . S
C72 C71 1.382 . S
C72 C76 1.389 . S
C73 C71 1.426 . S
C73 C74 1.375 . S
C73 C77 1.532 1_655 S
C74 H64 0.930 . S
C74 C73 1.375 . S
C74 C75 1.416 . S
C75 C74 1.416 . S
C75 C76 1.371 . S
C76 H65 0.930 . S
C76 C72 1.389 . S
C76 C75 1.371 . S
C77 H66 0.970 1_455 S
C77 H67 0.970 . S
C77 C73 1.532 1_455 S
C77 C78 1.499 . S
C78 C77 1.499 . S
C78 C79 1.370 . S
C78 C83 1.415 . S
C79 H68 0.930 . S
C79 C78 1.370 . S
C79 C80 1.407 . S
C80 C79 1.407 . S
C80 C81 1.365 . S
C81 H69 0.930 . S
C81 C80 1.365 . S
C81 C82 1.393 . S
C82 C81 1.393 . S
C82 C83 1.387 . S
C83 H70 0.930 . S
C83 C78 1.415 . S
C83 C82 1.387 . S
H84 C92 0.930 . S
H85 C95 0.930 . S
H86 C97 0.930 . S
H87 C98 0.970 1_554 S
H88 C98 0.970 . S
H89 C100 0.930 . S
H90 C102 0.930 . S
H91 C104 0.930 . S
C92 H84 0.930 . S
C92 C93 1.382 1_554 S
C92 C94 1.426 1_554 S
C93 C92 1.382 1_556 S
C93 C97 1.389 . S
C94 C92 1.426 1_556 S
C94 C95 1.375 . S
C94 C98 1.532 . S
C95 H85 0.930 . S
C95 C94 1.375 . S
C95 C96 1.416 . S
C96 C95 1.416 . S
C96 C97 1.371 . S
C97 H86 0.930 . S
C97 C93 1.389 . S
C97 C96 1.371 . S
C98 H87 0.970 1_556 S
C98 H88 0.970 . S
C98 C94 1.532 . S
C98 C99 1.499 1_545 S
C99 C98 1.499 1_565 S
C99 C100 1.370 1_556 S
C99 C104 1.415 . S
C100 H89 0.930 . S
C100 C99 1.370 1_554 S
C100 C101 1.407 . S
C101 C100 1.407 . S
C101 C102 1.365 . S
C102 H90 0.930 . S
C102 C101 1.365 . S
C102 C103 1.393 1_554 S
C103 C102 1.393 1_556 S
C103 C104 1.387 . S
C104 H91 0.930 . S
C104 C99 1.415 . S
C104 C103 1.387 . S
H105 C113 0.930 . S
H106 C116 0.930 . S
H107 C118 0.930 . S
H108 C119 0.970 . S
H109 C119 0.970 . S
H110 C121 0.930 . S
H111 C123 0.930 . S
H112 C125 0.930 . S
C113 H105 0.930 . S
C113 C114 1.382 . S
C113 C115 1.426 . S
C114 C113 1.382 . S
C114 C118 1.389 . S
C115 C113 1.426 . S
C115 C116 1.375 . S
C115 C119 1.532 . S
C116 H106 0.930 . S
C116 C115 1.375 . S
C116 C117 1.416 . S
C117 C116 1.416 . S
C117 C118 1.371 . S
C118 H107 0.930 . S
C118 C114 1.389 . S
C118 C117 1.371 . S
C119 H108 0.970 . S
C119 H109 0.970 . S
C119 C115 1.532 . S
C119 C120 1.499 . S
C120 C119 1.499 . S
C120 C121 1.370 . S
C120 C125 1.415 . S
C121 H110 0.930 . S
C121 C120 1.370 . S
C121 C122 1.407 . S
C122 C121 1.407 . S
C122 C123 1.365 . S
C123 H111 0.930 . S
C123 C122 1.365 . S
C123 C124 1.393 . S
C124 C123 1.393 . S
C124 C125 1.387 . S
C125 H112 0.930 . S
C125 C120 1.415 . S
C125 C124 1.387 . S
C126 O127 1.160 . S
C126 O133 1.185 . S
O127 C126 1.160 . S
O128 Zn129 1.899 . S
O128 C136 1.284 . S
Zn129 O128 1.899 . S
Zn129 O130 2.032 . S
Zn129 O133 2.086 . S
Zn129 O138 1.977 . S
O130 Zn129 2.032 . S
O130 C134 1.278 . S
C131 O132 1.203 . S
C131 O138 1.267 . S
O132 C131 1.203 . S
O133 C126 1.185 . S
O133 Zn129 2.086 . S
C134 O130 1.278 . S
C134 O135 1.211 . S
O135 C134 1.211 . S
C136 O128 1.284 . S
C136 O137 1.273 . S
O137 C136 1.273 . S
O138 Zn129 1.977 . S
O138 C131 1.267 . S
C139 O140 1.160 . S
C139 O146 1.185 . S
O140 C139 1.160 . S
O141 Zn142 1.899 . S
O141 C149 1.284 . S
Zn142 O141 1.899 . S
Zn142 O143 2.032 . S
Zn142 O146 2.086 . S
Zn142 O151 1.977 . S
O143 Zn142 2.032 . S
O143 C147 1.278 . S
C144 O145 1.203 . S
C144 O151 1.267 . S
O145 C144 1.203 . S
O146 C139 1.185 . S
O146 Zn142 2.086 . S
C147 O143 1.278 . S
C147 O148 1.211 . S
O148 C147 1.211 . S
C149 O141 1.284 . S
C149 O150 1.273 . S
O150 C149 1.273 . S
O151 Zn142 1.977 . S
O151 C144 1.267 . S
C152 O153 1.160 . S
C152 O159 1.185 . S
O153 C152 1.160 . S
O154 Zn155 1.899 . S
O154 C162 1.284 . S
Zn155 O154 1.899 . S
Zn155 O156 2.032 . S
Zn155 O159 2.086 . S
Zn155 O164 1.977 . S
O156 Zn155 2.032 . S
O156 C160 1.278 . S
C157 O158 1.203 . S
C157 O164 1.267 . S
O158 C157 1.203 . S
O159 C152 1.185 . S
O159 Zn155 2.086 . S
C160 O156 1.278 . S
C160 O161 1.211 . S
O161 C160 1.211 . S
C162 O154 1.284 . S
C162 O163 1.273 . S
O163 C162 1.273 . S
O164 Zn155 1.977 . S
O164 C157 1.267 . S
C165 O166 1.160 . S
C165 O172 1.185 . S
O166 C165 1.160 . S
O167 Zn168 1.899 . S
O167 C175 1.284 . S
Zn168 O167 1.899 . S
Zn168 O169 2.032 . S
Zn168 O172 2.086 . S
Zn168 O177 1.977 . S
O169 Zn168 2.032 . S
O169 C173 1.278 . S
C170 O171 1.203 . S
C170 O177 1.267 . S
O171 C170 1.203 . S
O172 C165 1.185 . S
O172 Zn168 2.086 . S
C173 O169 1.278 . S
C173 O174 1.211 . S
O174 C173 1.211 . S
C175 O167 1.284 . S
C175 O176 1.273 . S
O176 C175 1.273 . S
O177 Zn168 1.977 . S
O177 C170 1.267 . S
C178 O179 1.160 . S
C178 O185 1.185 . S
O179 C178 1.160 . S
O180 Zn181 1.899 . S
O180 C188 1.284 . S
Zn181 O180 1.899 . S
Zn181 O182 2.032 . S
Zn181 O185 2.086 . S
Zn181 O190 1.977 . S
O182 Zn181 2.032 . S
O182 C186 1.278 . S
C183 O184 1.203 . S
C183 O190 1.267 . S
O184 C183 1.203 . S
O185 C178 1.185 . S
O185 Zn181 2.086 . S
C186 O182 1.278 . S
C186 O187 1.211 . S
O187 C186 1.211 . S
C188 O180 1.284 . S
C188 O189 1.273 . S
O189 C188 1.273 . S
O190 Zn181 1.977 . S
O190 C183 1.267 . S
C191 O192 1.160 . S
C191 O198 1.185 . S
O192 C191 1.160 . S
O193 Zn194 1.899 . S
O193 C201 1.284 . S
Zn194 O193 1.899 . S
Zn194 O195 2.032 . S
Zn194 O198 2.086 . S
Zn194 O203 1.977 . S
O195 Zn194 2.032 . S
O195 C199 1.278 . S
C196 O197 1.203 . S
C196 O203 1.267 . S
O197 C196 1.203 . S
O198 C191 1.185 . S
O198 Zn194 2.086 . S
C199 O195 1.278 . S
C199 O200 1.211 . S
O200 C199 1.211 . S
C201 O193 1.284 . S
C201 O202 1.273 . S
O202 C201 1.273 . S
O203 Zn194 1.977 . S
O203 C196 1.267 . S
H204 C212 0.950 . S
H205 C217 0.950 . S
H206 C214 0.950 . S
H207 C216 0.950 . S
H208 C218 0.950 . S
H209 C220 0.950 . S
H210 C222 0.950 . S
H211 C223 0.950 . S
C212 H204 0.950 . S
C212 C213 1.386 . S
C212 C214 1.391 . S
C213 C212 1.386 . S
C213 C217 1.393 . S
C214 H206 0.950 . S
C214 C212 1.391 . S
C214 C215 1.400 . S
C215 C214 1.400 . S
C215 C216 1.398 . S
C215 C221 1.491 . S
C216 H207 0.950 . S
C216 C215 1.398 . S
C216 C217 1.391 . S
C217 H205 0.950 . S
C217 C213 1.393 . S
C217 C216 1.391 . S
C218 H208 0.950 . S
C218 C219 1.386 . S
C218 C220 1.391 . S
C219 C218 1.386 . S
C219 C223 1.393 . S
C220 H209 0.950 . S
C220 C218 1.391 . S
C220 C221 1.400 . S
C221 C215 1.491 . S
C221 C220 1.400 . S
C221 C222 1.398 . S
C222 H210 0.950 . S
C222 C221 1.398 . S
C222 C223 1.391 . S
C223 H211 0.950 . S
C223 C219 1.393 . S
C223 C222 1.391 . S
H224 C232 0.950 . S
H225 C237 0.950 . S
H226 C234 0.950 . S
H227 C236 0.950 . S
H228 C238 0.950 . S
H229 C240 0.950 . S
H230 C242 0.950 . S
H231 C243 0.950 . S
C232 H224 0.950 . S
C232 C233 1.386 . S
C232 C234 1.391 . S
C233 C232 1.386 . S
C233 C237 1.393 . S
C234 H226 0.950 . S
C234 C232 1.391 . S
C234 C235 1.400 . S
C235 C234 1.400 . S
C235 C236 1.398 . S
C235 C241 1.491 . S
C236 H227 0.950 . S
C236 C235 1.398 . S
C236 C237 1.391 . S
C237 H225 0.950 . S
C237 C233 1.393 . S
C237 C236 1.391 . S
C238 H228 0.950 . S
C238 C239 1.386 . S
C238 C240 1.391 . S
C239 C238 1.386 . S
C239 C243 1.393 . S
C240 H229 0.950 . S
C240 C238 1.391 . S
C240 C241 1.400 . S
C241 C235 1.491 . S
C241 C240 1.400 . S
C241 C242 1.398 . S
C242 H230 0.950 . S
C242 C241 1.398 . S
C242 C243 1.391 . S
C243 H231 0.950 . S
C243 C239 1.393 . S
C243 C242 1.391 . S
H244 C252 0.950 . S
H245 C257 0.950 . S
H246 C254 0.950 . S
H247 C256 0.950 . S
H248 C258 0.950 . S
H249 C260 0.950 . S
H250 C262 0.950 . S
H251 C263 0.950 . S
C252 H244 0.950 . S
C252 C253 1.386 . S
C252 C254 1.391 . S
C253 C252 1.386 . S
C253 C257 1.393 . S
C254 H246 0.950 . S
C254 C252 1.391 . S
C254 C255 1.400 . S
C255 C254 1.400 . S
C255 C256 1.398 . S
C255 C261 1.491 . S
C256 H247 0.950 . S
C256 C255 1.398 . S
C256 C257 1.391 . S
C257 H245 0.950 . S
C257 C253 1.393 . S
C257 C256 1.391 . S
C258 H248 0.950 . S
C258 C259 1.386 . S
C258 C260 1.391 . S
C259 C258 1.386 . S
C259 C263 1.393 . S
C260 H249 0.950 . S
C260 C258 1.391 . S
C260 C261 1.400 . S
C261 C255 1.491 . S
C261 C260 1.400 . S
C261 C262 1.398 . S
C262 H250 0.950 . S
C262 C261 1.398 . S
C262 C263 1.391 . S
C263 H251 0.950 . S
C263 C259 1.393 . S
C263 C262 1.391 . S
H264 C272 0.950 . S
H265 C277 0.950 . S
H266 C274 0.950 . S
H267 C276 0.950 . S
H268 C278 0.950 . S
H269 C280 0.950 . S
H270 C282 0.950 . S
H271 C283 0.950 . S
C272 H264 0.950 . S
C272 C273 1.386 . S
C272 C274 1.391 . S
C273 C272 1.386 . S
C273 C277 1.393 . S
C274 H266 0.950 . S
C274 C272 1.391 . S
C274 C275 1.400 . S
C275 C274 1.400 . S
C275 C276 1.398 . S
C275 C281 1.491 . S
C276 H267 0.950 . S
C276 C275 1.398 . S
C276 C277 1.391 . S
C277 H265 0.950 . S
C277 C273 1.393 . S
C277 C276 1.391 . S
C278 H268 0.950 . S
C278 C279 1.386 . S
C278 C280 1.391 . S
C279 C278 1.386 . S
C279 C283 1.393 . S
C280 H269 0.950 . S
C280 C278 1.391 . S
C280 C281 1.400 . S
C281 C275 1.491 . S
C281 C280 1.400 . S
C281 C282 1.398 . S
C282 H270 0.950 . S
C282 C281 1.398 . S
C282 C283 1.391 . S
C283 H271 0.950 . S
C283 C279 1.393 . S
C283 C282 1.391 . S
H284 C292 0.950 . S
H285 C297 0.950 . S
H286 C294 0.950 . S
H287 C296 0.950 . S
H288 C298 0.950 . S
H289 C300 0.950 . S
H290 C302 0.950 . S
H291 C303 0.950 . S
C292 H284 0.950 . S
C292 C293 1.386 . S
C292 C294 1.391 . S
C293 C292 1.386 . S
C293 C297 1.393 . S
C294 H286 0.950 . S
C294 C292 1.391 . S
C294 C295 1.400 . S
C295 C294 1.400 . S
C295 C296 1.398 . S
C295 C301 1.491 . S
C296 H287 0.950 . S
C296 C295 1.398 . S
C296 C297 1.391 . S
C297 H285 0.950 . S
C297 C293 1.393 . S
C297 C296 1.391 . S
C298 H288 0.950 . S
C298 C299 1.386 . S
C298 C300 1.391 . S
C299 C298 1.386 . S
C299 C303 1.393 . S
C300 H289 0.950 . S
C300 C298 1.391 . S
C300 C301 1.400 . S
C301 C295 1.491 . S
C301 C300 1.400 . S
C301 C302 1.398 . S
C302 H290 0.950 . S
C302 C301 1.398 . S
C302 C303 1.391 . S
C303 H291 0.950 . S
C303 C299 1.393 . S
C303 C302 1.391 . S
H304 C312 0.950 . S
H305 C317 0.950 . S
H306 C314 0.950 . S
H307 C316 0.950 . S
H308 C318 0.950 . S
H309 C320 0.950 . S
H310 C322 0.950 . S
H311 C323 0.950 . S
C312 H304 0.950 . S
C312 C313 1.386 . S
C312 C314 1.391 . S
C313 C312 1.386 . S
C313 C317 1.393 . S
C314 H306 0.950 . S
C314 C312 1.391 . S
C314 C315 1.400 . S
C315 C314 1.400 . S
C315 C316 1.398 . S
C315 C321 1.491 . S
C316 H307 0.950 . S
C316 C315 1.398 . S
C316 C317 1.391 . S
C317 H305 0.950 . S
C317 C313 1.393 . S
C317 C316 1.391 . S
C318 H308 0.950 . S
C318 C319 1.386 . S
C318 C320 1.391 . S
C319 C318 1.386 . S
C319 C323 1.393 . S
C320 H309 0.950 . S
C320 C318 1.391 . S
C320 C321 1.400 . S
C321 C315 1.491 . S
C321 C320 1.400 . S
C321 C322 1.398 . S
C322 H310 0.950 . S
C322 C321 1.398 . S
C322 C323 1.391 . S
C323 H311 0.950 . S
C323 C319 1.393 . S
C323 C322 1.391 . S
H324 C332 0.950 . S
H325 C337 0.950 . S
H326 C334 0.950 . S
H327 C336 0.950 . S
H328 C338 0.950 . S
H329 C340 0.950 . S
H330 C342 0.950 . S
H331 C343 0.950 . S
C332 H324 0.950 . S
C332 C333 1.386 . S
C332 C334 1.391 . S
C333 C332 1.386 . S
C333 C337 1.393 . S
C334 H326 0.950 . S
C334 C332 1.391 . S
C334 C335 1.400 . S
C335 C334 1.400 . S
C335 C336 1.398 . S
C335 C341 1.491 . S
C336 H327 0.950 . S
C336 C335 1.398 . S
C336 C337 1.391 . S
C337 H325 0.950 . S
C337 C333 1.393 . S
C337 C336 1.391 . S
C338 H328 0.950 . S
C338 C339 1.386 . S
C338 C340 1.391 . S
C339 C338 1.386 . S
C339 C343 1.393 . S
C340 H329 0.950 . S
C340 C338 1.391 . S
C340 C341 1.400 . S
C341 C335 1.491 . S
C341 C340 1.400 . S
C341 C342 1.398 . S
C342 H330 0.950 . S
C342 C341 1.398 . S
C342 C343 1.391 . S
C343 H331 0.950 . S
C343 C339 1.393 . S
C343 C342 1.391 . S
H344 C352 0.950 . S
H345 C357 0.950 . S
H346 C354 0.950 . S
H347 C356 0.950 . S
H348 C358 0.950 . S
H349 C360 0.950 . S
H350 C362 0.950 . S
H351 C363 0.950 . S
C352 H344 0.950 . S
C352 C353 1.386 . S
C352 C354 1.391 . S
C353 C352 1.386 . S
C353 C357 1.393 . S
C354 H346 0.950 . S
C354 C352 1.391 . S
C354 C355 1.400 . S
C355 C354 1.400 . S
C355 C356 1.398 . S
C355 C361 1.491 . S
C356 H347 0.950 . S
C356 C355 1.398 . S
C356 C357 1.391 . S
C357 H345 0.950 . S
C357 C353 1.393 . S
C357 C356 1.391 . S
C358 H348 0.950 . S
C358 C359 1.386 . S
C358 C360 1.391 . S
C359 C358 1.386 . S
C359 C363 1.393 . S
C360 H349 0.950 . S
C360 C358 1.391 . S
C360 C361 1.400 . S
C361 C355 1.491 . S
C361 C360 1.400 . S
C361 C362 1.398 . S
C362 H350 0.950 . S
C362 C361 1.398 . S
C362 C363 1.391 . S
C363 H351 0.950 . S
C363 C359 1.393 . S
C363 C362 1.391 . S
H364 C372 0.950 . S
H365 C377 0.950 . S
H366 C374 0.950 . S
H367 C376 0.950 . S
H368 C378 0.950 . S
H369 C380 0.950 . S
H370 C382 0.950 . S
H371 C383 0.950 . S
C372 H364 0.950 . S
C372 C373 1.386 . S
C372 C374 1.391 . S
C373 C372 1.386 . S
C373 C377 1.393 . S
C374 H366 0.950 . S
C374 C372 1.391 . S
C374 C375 1.400 . S
C375 C374 1.400 . S
C375 C376 1.398 . S
C375 C381 1.491 . S
C376 H367 0.950 . S
C376 C375 1.398 . S
C376 C377 1.391 . S
C377 H365 0.950 . S
C377 C373 1.393 . S
C377 C376 1.391 . S
C378 H368 0.950 . S
C378 C379 1.386 . S
C378 C380 1.391 . S
C379 C378 1.386 . S
C379 C383 1.393 . S
C380 H369 0.950 . S
C380 C378 1.391 . S
C380 C381 1.400 . S
C381 C375 1.491 . S
C381 C380 1.400 . S
C381 C382 1.398 . S
C382 H370 0.950 . S
C382 C381 1.398 . S
C382 C383 1.391 . S
C383 H371 0.950 . S
C383 C379 1.393 . S
C383 C382 1.391 . S
H384 C392 0.950 . S
H385 C397 0.950 . S
H386 C394 0.950 . S
H387 C396 0.950 1_556 S
H388 C398 0.950 . S
H389 C400 0.950 . S
H390 C402 0.950 . S
H391 C403 0.950 . S
C392 H384 0.950 . S
C392 C393 1.386 . S
C392 C394 1.391 . S
C393 C392 1.386 . S
C393 C397 1.393 1_554 S
C394 H386 0.950 . S
C394 C392 1.391 . S
C394 C395 1.400 . S
C395 C394 1.400 . S
C395 C396 1.398 . S
C395 C401 1.491 . S
C396 H387 0.950 1_554 S
C396 C395 1.398 . S
C396 C397 1.391 1_554 S
C397 H385 0.950 . S
C397 C393 1.393 1_556 S
C397 C396 1.391 1_556 S
C398 H388 0.950 . S
C398 C399 1.386 . S
C398 C400 1.391 . S
C399 C398 1.386 . S
C399 C403 1.393 . S
C400 H389 0.950 . S
C400 C398 1.391 . S
C400 C401 1.400 . S
C401 C395 1.491 . S
C401 C400 1.400 . S
C401 C402 1.398 . S
C402 H390 0.950 . S
C402 C401 1.398 . S
C402 C403 1.391 . S
C403 H391 0.950 . S
C403 C399 1.393 . S
C403 C402 1.391 . S
H404 C412 0.950 . S
H405 C417 0.950 . S
H406 C414 0.950 . S
H407 C416 0.950 . S
H408 C418 0.950 . S
H409 C420 0.950 . S
H410 C422 0.950 . S
H411 C423 0.950 . S
C412 H404 0.950 . S
C412 C413 1.386 . S
C412 C414 1.391 . S
C413 C412 1.386 . S
C413 C417 1.393 . S
C414 H406 0.950 . S
C414 C412 1.391 . S
C414 C415 1.400 . S
C415 C414 1.400 . S
C415 C416 1.398 . S
C415 C421 1.491 . S
C416 H407 0.950 . S
C416 C415 1.398 . S
C416 C417 1.391 . S
C417 H405 0.950 . S
C417 C413 1.393 . S
C417 C416 1.391 . S
C418 H408 0.950 . S
C418 C419 1.386 . S
C418 C420 1.391 . S
C419 C418 1.386 . S
C419 C423 1.393 . S
C420 H409 0.950 . S
C420 C418 1.391 . S
C420 C421 1.400 . S
C421 C415 1.491 . S
C421 C420 1.400 . S
C421 C422 1.398 . S
C422 H410 0.950 . S
C422 C421 1.398 . S
C422 C423 1.391 . S
C423 H411 0.950 . S
C423 C419 1.393 . S
C423 C422 1.391 . S
H424 C432 0.950 . S
H425 C437 0.950 . S
H426 C434 0.950 . S
H427 C436 0.950 . S
H428 C438 0.950 . S
H429 C440 0.950 . S
H430 C442 0.950 . S
H431 C443 0.950 . S
C432 H424 0.950 . S
C432 C433 1.386 . S
C432 C434 1.391 . S
C433 C432 1.386 . S
C433 C437 1.393 . S
C434 H426 0.950 . S
C434 C432 1.391 . S
C434 C435 1.400 . S
C435 C434 1.400 . S
C435 C436 1.398 . S
C435 C441 1.491 . S
C436 H427 0.950 . S
C436 C435 1.398 . S
C436 C437 1.391 . S
C437 H425 0.950 . S
C437 C433 1.393 . S
C437 C436 1.391 . S
C438 H428 0.950 . S
C438 C439 1.386 . S
C438 C440 1.391 . S
C439 C438 1.386 . S
C439 C443 1.393 . S
C440 H429 0.950 . S
C440 C438 1.391 . S
C440 C441 1.400 . S
C441 C435 1.491 . S
C441 C440 1.400 . S
C441 C442 1.398 . S
C442 H430 0.950 . S
C442 C441 1.398 . S
C442 C443 1.391 . S
C443 H431 0.950 . S
C443 C439 1.393 . S
C443 C442 1.391 . S
H444 C452 0.950 . S
H445 C457 0.950 . S
H446 C454 0.950 . S
H447 C456 0.950 . S
H448 C458 0.950 . S
H449 C460 0.950 . S
H450 C462 0.950 . S
H451 C463 0.950 . S
C452 H444 0.950 . S
C452 C453 1.386 . S
C452 C454 1.391 . S
C453 C452 1.386 . S
C453 C457 1.393 . S
C454 H446 0.950 . S
C454 C452 1.391 . S
C454 C455 1.400 . S
C455 C454 1.400 . S
C455 C456 1.398 . S
C455 C461 1.491 . S
C456 H447 0.950 . S
C456 C455 1.398 . S
C456 C457 1.391 . S
C457 H445 0.950 . S
C457 C453 1.393 . S
C457 C456 1.391 . S
C458 H448 0.950 . S
C458 C459 1.386 . S
C458 C460 1.391 . S
C459 C458 1.386 . S
C459 C463 1.393 . S
C460 H449 0.950 . S
C460 C458 1.391 . S
C460 C461 1.400 . S
C461 C455 1.491 . S
C461 C460 1.400 . S
C461 C462 1.398 . S
C462 H450 0.950 . S
C462 C461 1.398 . S
C462 C463 1.391 . S
C463 H451 0.950 . S
C463 C459 1.393 . S
C463 C462 1.391 . S
H464 C472 0.950 . S
H465 C477 0.950 . S
H466 C474 0.950 . S
H467 C476 0.950 . S
H468 C478 0.950 . S
H469 C480 0.950 . S
H470 C482 0.950 . S
H471 C483 0.950 . S
C472 H464 0.950 . S
C472 C473 1.386 . S
C472 C474 1.391 . S
C473 C472 1.386 . S
C473 C477 1.393 . S
C474 H466 0.950 . S
C474 C472 1.391 . S
C474 C475 1.400 . S
C475 C474 1.400 . S
C475 C476 1.398 . S
C475 C481 1.491 . S
C476 H467 0.950 . S
C476 C475 1.398 . S
C476 C477 1.391 . S
C477 H465 0.950 . S
C477 C473 1.393 . S
C477 C476 1.391 . S
C478 H468 0.950 . S
C478 C479 1.386 . S
C478 C480 1.391 . S
C479 C478 1.386 . S
C479 C483 1.393 . S
C480 H469 0.950 . S
C480 C478 1.391 . S
C480 C481 1.400 . S
C481 C475 1.491 . S
C481 C480 1.400 . S
C481 C482 1.398 . S
C482 H470 0.950 . S
C482 C481 1.398 . S
C482 C483 1.391 . S
C483 H471 0.950 . S
C483 C479 1.393 . S
C483 C482 1.391 . S
H484 C492 0.950 . S
H485 C497 0.950 . S
H486 C494 0.950 . S
H487 C496 0.950 . S
H488 C498 0.950 . S
H489 C500 0.950 . S
H490 C502 0.950 . S
H491 C503 0.950 . S
C492 H484 0.950 . S
C492 C493 1.386 . S
C492 C494 1.391 . S
C493 C492 1.386 . S
C493 C497 1.393 . S
C494 H486 0.950 . S
C494 C492 1.391 . S
C494 C495 1.400 . S
C495 C494 1.400 . S
C495 C496 1.398 . S
C495 C501 1.491 . S
C496 H487 0.950 . S
C496 C495 1.398 . S
C496 C497 1.391 . S
C497 H485 0.950 . S
C497 C493 1.393 . S
C497 C496 1.391 . S
C498 H488 0.950 . S
C498 C499 1.386 . S
C498 C500 1.391 . S
C499 C498 1.386 . S
C499 C503 1.393 . S
C500 H489 0.950 . S
C500 C498 1.391 . S
C500 C501 1.400 . S
C501 C495 1.491 . S
C501 C500 1.400 . S
C501 C502 1.398 . S
C502 H490 0.950 . S
C502 C501 1.398 . S
C502 C503 1.391 . S
C503 H491 0.950 . S
C503 C499 1.393 . S
C503 C502 1.391 . S
H504 C512 0.950 . S
H505 C517 0.950 . S
H506 C514 0.950 . S
H507 C516 0.950 . S
H508 C518 0.950 . S
H509 C520 0.950 . S
H510 C522 0.950 . S
H511 C523 0.950 . S
C512 H504 0.950 . S
C512 C513 1.386 . S
C512 C514 1.391 . S
C513 C512 1.386 . S
C513 C517 1.393 . S
C514 H506 0.950 . S
C514 C512 1.391 . S
C514 C515 1.400 . S
C515 C514 1.400 . S
C515 C516 1.398 . S
C515 C521 1.491 . S
C516 H507 0.950 . S
C516 C515 1.398 . S
C516 C517 1.391 . S
C517 H505 0.950 . S
C517 C513 1.393 . S
C517 C516 1.391 . S
C518 H508 0.950 . S
C518 C519 1.386 . S
C518 C520 1.391 . S
C519 C518 1.386 . S
C519 C523 1.393 1_556 S
C520 H509 0.950 . S
C520 C518 1.391 . S
C520 C521 1.400 . S
C521 C515 1.491 . S
C521 C520 1.400 . S
C521 C522 1.398 . S
C522 H510 0.950 . S
C522 C521 1.398 . S
C522 C523 1.391 1_556 S
C523 H511 0.950 . S
C523 C519 1.393 1_554 S
C523 C522 1.391 1_554 S
H524 C532 0.950 . S
H525 C537 0.950 . S
H526 C534 0.950 . S
H527 C536 0.950 . S
H528 C538 0.950 . S
H529 C540 0.950 . S
H530 C542 0.950 . S
H531 C543 0.950 . S
C532 H524 0.950 . S
C532 C533 1.386 . S
C532 C534 1.391 . S
C533 C532 1.386 . S
C533 C537 1.393 . S
C534 H526 0.950 . S
C534 C532 1.391 . S
C534 C535 1.400 . S
C535 C534 1.400 . S
C535 C536 1.398 . S
C535 C541 1.491 . S
C536 H527 0.950 . S
C536 C535 1.398 . S
C536 C537 1.391 . S
C537 H525 0.950 . S
C537 C533 1.393 . S
C537 C536 1.391 . S
C538 H528 0.950 . S
C538 C539 1.386 . S
C538 C540 1.391 . S
C539 C538 1.386 . S
C539 C543 1.393 . S
C540 H529 0.950 . S
C540 C538 1.391 . S
C540 C541 1.400 . S
C541 C535 1.491 . S
C541 C540 1.400 . S
C541 C542 1.398 . S
C542 H530 0.950 . S
C542 C541 1.398 . S
C542 C543 1.391 . S
C543 H531 0.950 . S
C543 C539 1.393 . S
C543 C542 1.391 . S
H544 C552 0.950 . S
H545 C557 0.950 . S
H546 C554 0.950 . S
H547 C556 0.950 . S
H548 C558 0.950 . S
H549 C560 0.950 . S
H550 C562 0.950 . S
H551 C563 0.950 . S
C552 H544 0.950 . S
C552 C553 1.386 . S
C552 C554 1.391 . S
C553 C552 1.386 . S
C553 C557 1.393 . S
C554 H546 0.950 . S
C554 C552 1.391 . S
C554 C555 1.400 . S
C555 C554 1.400 . S
C555 C556 1.398 . S
C555 C561 1.491 . S
C556 H547 0.950 . S
C556 C555 1.398 . S
C556 C557 1.391 . S
C557 H545 0.950 . S
C557 C553 1.393 . S
C557 C556 1.391 . S
C558 H548 0.950 . S
C558 C559 1.386 . S
C558 C560 1.391 . S
C559 C558 1.386 . S
C559 C563 1.393 . S
C560 H549 0.950 . S
C560 C558 1.391 . S
C560 C561 1.400 . S
C561 C555 1.491 . S
C561 C560 1.400 . S
C561 C562 1.398 . S
C562 H550 0.950 . S
C562 C561 1.398 . S
C562 C563 1.391 . S
C563 H551 0.950 . S
C563 C559 1.393 . S
C563 C562 1.391 . S
H564 C572 0.950 . S
H565 C577 0.950 . S
H566 C574 0.950 . S
H567 C576 0.950 . S
H568 C578 0.950 . S
H569 C580 0.950 . S
H570 C582 0.950 . S
H571 C583 0.950 . S
C572 H564 0.950 . S
C572 C573 1.386 . S
C572 C574 1.391 . S
C573 C572 1.386 . S
C573 C577 1.393 . S
C574 H566 0.950 . S
C574 C572 1.391 . S
C574 C575 1.400 . S
C575 C574 1.400 . S
C575 C576 1.398 . S
C575 C581 1.491 . S
C576 H567 0.950 . S
C576 C575 1.398 . S
C576 C577 1.391 . S
C577 H565 0.950 . S
C577 C573 1.393 . S
C577 C576 1.391 . S
C578 H568 0.950 . S
C578 C579 1.386 . S
C578 C580 1.391 . S
C579 C578 1.386 . S
C579 C583 1.393 . S
C580 H569 0.950 . S
C580 C578 1.391 . S
C580 C581 1.400 . S
C581 C575 1.491 . S
C581 C580 1.400 . S
C581 C582 1.398 . S
C582 H570 0.950 . S
C582 C581 1.398 . S
C582 C583 1.391 . S
C583 H571 0.950 . S
C583 C579 1.393 . S
C583 C582 1.391 . S
H584 C592 0.950 . S
H585 C597 0.950 . S
H586 C594 0.950 . S
H587 C596 0.950 . S
H588 C598 0.950 . S
H589 C600 0.950 . S
H590 C602 0.950 . S
H591 C603 0.950 . S
C592 H584 0.950 . S
C592 C593 1.386 . S
C592 C594 1.391 . S
C593 C592 1.386 . S
C593 C597 1.393 . S
C594 H586 0.950 . S
C594 C592 1.391 . S
C594 C595 1.400 . S
C595 C594 1.400 . S
C595 C596 1.398 . S
C595 C601 1.491 . S
C596 H587 0.950 . S
C596 C595 1.398 . S
C596 C597 1.391 . S
C597 H585 0.950 . S
C597 C593 1.393 . S
C597 C596 1.391 . S
C598 H588 0.950 . S
C598 C599 1.386 . S
C598 C600 1.391 . S
C599 C598 1.386 . S
C599 C603 1.393 . S
C600 H589 0.950 . S
C600 C598 1.391 . S
C600 C601 1.400 . S
C601 C595 1.491 . S
C601 C600 1.400 . S
C601 C602 1.398 . S
C602 H590 0.950 . S
C602 C601 1.398 . S
C602 C603 1.391 . S
C603 H591 0.950 . S
C603 C599 1.393 . S
C603 C602 1.391 . S
H604 C612 0.950 . S
H605 C617 0.950 . S
H606 C614 0.950 . S
H607 C616 0.950 . S
H608 C618 0.950 . S
H609 C620 0.950 . S
H610 C622 0.950 . S
H611 C623 0.950 . S
C612 H604 0.950 . S
C612 C613 1.386 . S
C612 C614 1.391 . S
C613 C612 1.386 . S
C613 C617 1.393 . S
C614 H606 0.950 . S
C614 C612 1.391 . S
C614 C615 1.400 . S
C615 C614 1.400 . S
C615 C616 1.398 . S
C615 C621 1.491 . S
C616 H607 0.950 . S
C616 C615 1.398 . S
C616 C617 1.391 . S
C617 H605 0.950 . S
C617 C613 1.393 . S
C617 C616 1.391 . S
C618 H608 0.950 . S
C618 C619 1.386 . S
C618 C620 1.391 . S
C619 C618 1.386 . S
C619 C623 1.393 . S
C620 H609 0.950 . S
C620 C618 1.391 . S
C620 C621 1.400 . S
C621 C615 1.491 . S
C621 C620 1.400 . S
C621 C622 1.398 . S
C622 H610 0.950 . S
C622 C621 1.398 . S
C622 C623 1.391 . S
C623 H611 0.950 . S
C623 C619 1.393 . S
C623 C622 1.391 . S
H624 C632 0.950 . S
H625 C637 0.950 . S
H626 C634 0.950 . S
H627 C636 0.950 . S
H628 C638 0.950 . S
H629 C640 0.950 . S
H630 C642 0.950 . S
H631 C643 0.950 . S
C632 H624 0.950 . S
C632 C633 1.386 . S
C632 C634 1.391 . S
C633 C632 1.386 . S
C633 C637 1.393 . S
C634 H626 0.950 . S
C634 C632 1.391 . S
C634 C635 1.400 . S
C635 C634 1.400 . S
C635 C636 1.398 . S
C635 C641 1.491 . S
C636 H627 0.950 . S
C636 C635 1.398 . S
C636 C637 1.391 . S
C637 H625 0.950 . S
C637 C633 1.393 . S
C637 C636 1.391 . S
C638 H628 0.950 . S
C638 C639 1.386 . S
C638 C640 1.391 . S
C639 C638 1.386 . S
C639 C643 1.393 . S
C640 H629 0.950 . S
C640 C638 1.391 . S
C640 C641 1.400 . S
C641 C635 1.491 . S
C641 C640 1.400 . S
C641 C642 1.398 . S
C642 H630 0.950 . S
C642 C641 1.398 . S
C642 C643 1.391 . S
C643 H631 0.950 . S
C643 C639 1.393 . S
C643 C642 1.391 . S
H644 C652 0.950 . S
H645 C657 0.950 . S
H646 C654 0.950 . S
H647 C656 0.950 . S
H648 C658 0.950 . S
H649 C660 0.950 . S
H650 C662 0.950 . S
H651 C663 0.950 . S
C652 H644 0.950 . S
C652 C653 1.386 . S
C652 C654 1.391 . S
C653 C652 1.386 . S
C653 C657 1.393 . S
C654 H646 0.950 . S
C654 C652 1.391 . S
C654 C655 1.400 . S
C655 C654 1.400 . S
C655 C656 1.398 . S
C655 C661 1.491 . S
C656 H647 0.950 . S
C656 C655 1.398 . S
C656 C657 1.391 . S
C657 H645 0.950 . S
C657 C653 1.393 . S
C657 C656 1.391 . S
C658 H648 0.950 . S
C658 C659 1.386 . S
C658 C660 1.391 1_556 S
C659 C658 1.386 . S
C659 C663 1.393 . S
C660 H649 0.950 . S
C660 C658 1.391 1_554 S
C660 C661 1.400 . S
C661 C655 1.491 . S
C661 C660 1.400 . S
C661 C662 1.398 1_554 S
C662 H650 0.950 . S
C662 C661 1.398 1_556 S
C662 C663 1.391 . S
C663 H651 0.950 . S
C663 C659 1.393 . S
C663 C662 1.391 . S
H664 C672 0.950 . S
H665 C677 0.950 . S
H666 C674 0.950 . S
H667 C676 0.950 . S
H668 C678 0.950 . S
H669 C680 0.950 . S
H670 C682 0.950 . S
H671 C683 0.950 . S
C672 H664 0.950 . S
C672 C673 1.386 . S
C672 C674 1.391 . S
C673 C672 1.386 . S
C673 C677 1.393 . S
C674 H666 0.950 . S
C674 C672 1.391 . S
C674 C675 1.400 . S
C675 C674 1.400 . S
C675 C676 1.398 . S
C675 C681 1.491 . S
C676 H667 0.950 . S
C676 C675 1.398 . S
C676 C677 1.391 . S
C677 H665 0.950 . S
C677 C673 1.393 . S
C677 C676 1.391 . S
C678 H668 0.950 . S
C678 C679 1.386 . S
C678 C680 1.391 . S
C679 C678 1.386 . S
C679 C683 1.393 . S
C680 H669 0.950 . S
C680 C678 1.391 . S
C680 C681 1.400 . S
C681 C675 1.491 . S
C681 C680 1.400 . S
C681 C682 1.398 . S
C682 H670 0.950 . S
C682 C681 1.398 . S
C682 C683 1.391 . S
C683 H671 0.950 . S
C683 C679 1.393 . S
C683 C682 1.391 . S
C219 C201 1.566 . S
C213 C19 1.474 . S
C233 C40 1.466 . S
C239 C126 1.490 . S
C253 C51 1.469 . S
C259 C149 1.590 . S
C273 C72 1.399 . S
C279 C162 1.479 . S
C299 C165 1.510 . S
C293 C103 1.485 . S
C313 C114 1.372 . S
C319 C178 1.450 . S
C333 C30 1.412 . S
C339 C139 1.462 . S
C353 C61 1.493 . S
C359 C152 1.520 . S
C373 C82 1.400 . S
C379 C175 1.473 . S
C399 C188 1.581 . S
C393 C93 1.455 1_554 S
C419 C191 1.493 . S
C413 C124 1.445 . S
C439 C136 1.570 . S
C433 C9 1.459 . S
C453 C17 1.438 . S
C459 C147 1.479 . S
C473 C38 1.396 . S
C479 C160 1.448 . S
C499 C170 1.478 . S
C493 C54 1.432 . S
C513 C75 1.417 . S
C519 C183 1.445 1_556 S
C539 C199 1.477 . S
C533 C101 1.425 . S
C559 C131 1.435 . S
C553 C117 1.392 . S
C579 C196 1.438 . S
C573 C33 1.378 . S
C593 C59 1.427 . S
C599 C134 1.480 . S
C619 C144 1.451 . S
C613 C80 1.408 . S
C633 C96 1.427 . S
C639 C157 1.484 . S
C653 C122 1.396 . S
C659 C173 1.437 . S
C673 C12 1.421 . S
C679 C186 1.458 . S
