# Generated by pormake.
# Topology zzz, (3,6)-cn, num edge types: 1
# Building blocks:
#     Node 0, Type 0, BuildingBlock: PAMTOO_clean_linker_0, # of connection points: 3
#     Node 1, Type 0, BuildingBlock: PAMTOO_clean_linker_0, # of connection points: 3
#     Node 2, Type 0, BuildingBlock: PAMTOO_clean_linker_0, # of connection points: 3
#     Node 3, Type 0, BuildingBlock: PAMTOO_clean_linker_0, # of connection points: 3
#     Node 4, Type 0, BuildingBlock: PAMTOO_clean_linker_0, # of connection points: 3
#     Node 5, Type 0, BuildingBlock: PAMTOO_clean_linker_0, # of connection points: 3
#     Node 6, Type 0, BuildingBlock: PAMTOO_clean_linker_0, # of connection points: 3
#     Node 7, Type 0, BuildingBlock: PAMTOO_clean_linker_0, # of connection points: 3
#     Node 8, Type 1, BuildingBlock: BETFEN_clean_sbu_0, # of connection points: 6
#     Node 9, Type 1, BuildingBlock: BETFEN_clean_sbu_0, # of connection points: 6
#     Node 10, Type 1, BuildingBlock: BETFEN_clean_sbu_0, # of connection points: 6
#     Node 11, Type 1, BuildingBlock: BETFEN_clean_sbu_0, # of connection points: 6
#     Edge 12, Type (0, 1), BuildingBlock: MIFKUJ_clean_linker_0, # of connection points: 2
#     Edge 13, Type (0, 1), BuildingBlock: MIFKUJ_clean_linker_0, # of connection points: 2
#     Edge 14, Type (0, 1), BuildingBlock: MIFKUJ_clean_linker_0, # of connection points: 2
#     Edge 15, Type (0, 1), BuildingBlock: MIFKUJ_clean_linker_0, # of connection points: 2
#     Edge 16, Type (0, 1), BuildingBlock: MIFKUJ_clean_linker_0, # of connection points: 2
#     Edge 17, Type (0, 1), BuildingBlock: MIFKUJ_clean_linker_0, # of connection points: 2
#     Edge 18, Type (0, 1), BuildingBlock: MIFKUJ_clean_linker_0, # of connection points: 2
#     Edge 19, Type (0, 1), BuildingBlock: MIFKUJ_clean_linker_0, # of connection points: 2
#     Edge 20, Type (0, 1), BuildingBlock: MIFKUJ_clean_linker_0, # of connection points: 2
#     Edge 21, Type (0, 1), BuildingBlock: MIFKUJ_clean_linker_0, # of connection points: 2
#     Edge 22, Type (0, 1), BuildingBlock: MIFKUJ_clean_linker_0, # of connection points: 2
#     Edge 23, Type (0, 1), BuildingBlock: MIFKUJ_clean_linker_0, # of connection points: 2
#     Edge 24, Type (0, 1), BuildingBlock: MIFKUJ_clean_linker_0, # of connection points: 2
#     Edge 25, Type (0, 1), BuildingBlock: MIFKUJ_clean_linker_0, # of connection points: 2
#     Edge 26, Type (0, 1), BuildingBlock: MIFKUJ_clean_linker_0, # of connection points: 2
#     Edge 27, Type (0, 1), BuildingBlock: MIFKUJ_clean_linker_0, # of connection points: 2
#     Edge 28, Type (0, 1), BuildingBlock: MIFKUJ_clean_linker_0, # of connection points: 2
#     Edge 29, Type (0, 1), BuildingBlock: MIFKUJ_clean_linker_0, # of connection points: 2
#     Edge 30, Type (0, 1), BuildingBlock: MIFKUJ_clean_linker_0, # of connection points: 2
#     Edge 31, Type (0, 1), BuildingBlock: MIFKUJ_clean_linker_0, # of connection points: 2
#     Edge 32, Type (0, 1), BuildingBlock: MIFKUJ_clean_linker_0, # of connection points: 2
#     Edge 33, Type (0, 1), BuildingBlock: MIFKUJ_clean_linker_0, # of connection points: 2
#     Edge 34, Type (0, 1), BuildingBlock: MIFKUJ_clean_linker_0, # of connection points: 2
#     Edge 35, Type (0, 1), BuildingBlock: MIFKUJ_clean_linker_0, # of connection points: 2
# Relax obj value: 0.229
# Max RMSD: 0.176
# Mean RMSD: 0.158
data_MOF--net-zzz--node1-BETFEN_clean_sbu_0--node2-PAMTOO_clean_linker_0--edge1-MIFKUJ_clean_linker_0
_symmetry_space_group_name_H-M    P1
_symmetry_Int_Tables_number       1
_symmetry_cell_setting            triclinic
loop_
_symmetry_equiv_pos_as_xyz
'x, y, z'
_cell_length_a     68.75043
_cell_length_b     68.623305
_cell_length_c     17.317903
_cell_angle_alpha  90.04238
_cell_angle_beta   90.046797
_cell_angle_gamma 90.234614
loop_
_atom_site_label
_atom_site_type_symbol
_atom_site_fract_x
_atom_site_fract_y
_atom_site_fract_z
_atom_type_partial_charge
H0 H 0.79138 0.52547 0.26943 0.0
H1 H 0.73116 0.52484 0.20424 0.0
H2 H 0.7474 0.51397 0.44089 0.0
H3 H 0.70039 0.49533 0.37665 0.0
C4 C 0.70595 0.50175 0.32204 0.0
O5 O 0.71744 0.51785 0.34039 0.0
H6 H 0.71479 0.49014 0.29412 0.0
C7 C 0.77618 0.52413 0.28567 0.0
C8 C 0.77145 0.52001 0.36262 0.0
C9 C 0.7618 0.52551 0.22854 0.0
C10 C 0.74224 0.52348 0.24834 0.0
C11 C 0.73682 0.51923 0.3242 0.0
C12 C 0.7515 0.5172 0.38191 0.0
H13 H 0.98336 0.78601 0.22129 0.0
H14 H 0.98856 0.72533 0.16743 0.0
H15 H 0.01507 0.74815 0.37483 0.0
H16 H 0.03391 0.7026 0.30669 0.0
C17 C 0.02409 0.7071 0.25899 0.0
O18 O 1.00785 0.71596 0.29092 0.0
H19 H 0.0326 0.71762 0.22336 0.0
C20 C 0.98876 0.77172 0.23703 0.0
C21 C 0.99998 0.76951 0.30422 0.0
C22 C 0.98486 0.75603 0.18755 0.0
C23 C 0.99146 0.73744 0.20604 0.0
C24 C 1.00216 0.73443 0.27377 0.0
C25 C 1.0065 0.75048 0.32318 0.0
H26 H 0.72877 0.01112 0.21796 0.0
H27 H 0.78718 1.00109 0.14575 0.0
H28 H 0.77268 0.99778 0.38799 0.0
H29 H 0.82166 0.01055 0.34425 0.0
C30 C 0.81608 0.0095 0.28415 0.0
O31 O 0.80158 0.99527 0.2822 0.0
H32 H 0.81003 0.02412 0.27016 0.0
C33 C 0.74361 1.0077 0.2336 0.0
C34 C 0.74849 1.00451 0.31126 0.0
C35 C 0.75744 1.0067 0.17477 0.0
C36 C 0.77663 1.00205 0.19186 0.0
C37 C 0.78244 0.9992 0.26843 0.0
C38 C 0.76828 1.00017 0.32874 0.0
H39 H 0.52976 0.72647 0.29355 0.0
H40 H 0.52909 0.78547 0.20948 0.0
H41 H 0.50506 0.772 0.43296 0.0
H42 H 0.48644 0.81414 0.34276 0.0
C43 C 0.49631 0.80929 0.29584 0.0
O44 O 0.5124 0.80041 0.32925 0.0
H45 H 0.48779 0.79865 0.26067 0.0
C46 C 0.52649 0.74178 0.30225 0.0
C47 C 0.51738 0.74742 0.37093 0.0
C48 C 0.53061 0.75528 0.24348 0.0
C49 C 0.52587 0.77491 0.25424 0.0
C50 C 0.51655 0.78109 0.32163 0.0
C51 C 0.51218 0.76728 0.38047 0.0
H52 H 0.23163 0.53709 0.13129 0.0
H53 H 0.28635 0.52371 0.23635 0.0
H54 H 0.26691 0.49116 0.03731 0.0
H55 H 0.31319 0.5175 0.09859 0.0
C56 C 0.31366 0.50194 0.11678 0.0
O57 O 0.29549 0.49578 0.14264 0.0
H58 H 0.31746 0.49322 0.0649 0.0
C59 C 0.24517 0.52907 0.12974 0.0
C60 C 0.24744 0.51422 0.07484 0.0
C61 C 0.25901 0.53271 0.18747 0.0
C62 C 0.27581 0.52136 0.19067 0.0
C63 C 0.27903 0.50668 0.13595 0.0
C64 C 0.2647 0.50287 0.07822 0.0
H65 H 0.99259 0.21603 0.14575 0.0
H66 H 0.99179 0.2749 0.23148 0.0
H67 H 0.02418 0.26097 0.02586 0.0
H68 H 0.041 0.3014 0.11816 0.0
C69 C 0.02993 0.2973 0.16202 0.0
O70 O 0.01396 0.28933 0.1242 0.0
H71 H 0.03696 0.2863 0.20015 0.0
C72 C 0.99691 0.23119 0.14042 0.0
C73 C 0.00899 0.23666 0.07908 0.0
C74 C 0.99047 0.2448 0.1952 0.0
C75 C 0.99661 0.26425 0.18949 0.0
C76 C 0.0088 0.27019 0.12902 0.0
C77 C 0.01489 0.25639 0.07301 0.0
H78 H 0.29449 0.98218 0.14496 0.0
H79 H 0.23652 0.99451 0.22314 0.0
H80 H 0.25527 0.01428 0.99937 0.0
H81 H 0.2113 0.98743 0.08281 0.0
C82 C 0.20872 1.00344 0.08399 0.0
O83 O 0.22577 0.01348 0.10184 0.0
H84 H 0.20418 1.00778 0.02488 0.0
C85 C 0.2801 0.98797 0.134 0.0
C86 C 0.27669 0.99779 0.06432 0.0
C87 C 0.26584 0.98701 0.19209 0.0
C88 C 0.24756 0.9952 0.1787 0.0
C89 C 0.24344 1.00475 0.10943 0.0
C90 C 0.25814 1.0063 0.05203 0.0
H91 H 0.52744 0.28794 0.1244 0.0
H92 H 0.52481 0.22822 0.19705 0.0
H93 H 0.49471 0.24631 0.99044 0.0
H94 H 0.47627 0.20409 0.08139 0.0
C95 C 0.48795 0.20774 0.1234 0.0
O96 O 0.50345 0.21594 0.08318 0.0
H97 H 0.48151 0.21846 0.16431 0.0
C98 C 0.52277 0.27304 0.11364 0.0
C99 C 0.51084 0.26914 0.05007 0.0
C100 C 0.52774 0.25845 0.1666 0.0
C101 C 0.52121 0.23939 0.15535 0.0
C102 C 0.5094 0.23479 0.09197 0.0
C103 C 0.50409 0.24973 0.03888 0.0
Pr104 Pr 0.02419 0.99781 0.76684 0.0
Pr105 Pr 1.00211 0.01126 0.60703 0.0
C106 C 0.03016 0.98208 0.90634 0.0
C107 C 0.02164 0.96453 0.94213 0.0
C108 C 0.03351 0.9483 0.95571 0.0
C109 C 0.02521 0.93012 0.97121 0.0
C110 C 1.00489 0.92792 0.97368 0.0
C111 C 0.9931 0.94446 0.96612 0.0
C112 C 1.0014 0.96259 0.9506 0.0
C113 C 0.05171 1.00508 0.6489 0.0
C114 C 0.01013 0.96413 0.63381 0.0
C115 C 0.99394 0.02967 0.47552 0.0
C116 C 0.98534 0.04931 0.46874 0.0
C117 C 0.96647 0.0517 0.43895 0.0
C118 C 0.95692 0.06961 0.44622 0.0
C119 C 0.96604 0.08527 0.48428 0.0
C120 C 0.98519 0.08311 0.51079 0.0
C121 C 0.99474 0.06539 0.50302 0.0
C122 C 0.97458 1.0056 0.7268 0.0
C123 C 0.01565 0.04528 0.74078 0.0
O124 O 0.01861 0.99702 0.89568 0.0
O125 O 0.04141 0.9786 0.84702 0.0
O126 O 0.03341 1.00631 0.64481 0.0
O127 O 0.05645 1.00078 0.71952 0.0
O128 O 1.00734 0.97804 0.58173 0.0
O129 O 0.01382 0.96818 0.7076 0.0
O130 O 0.01162 0.02895 0.50385 0.0
O131 O 0.98241 0.01618 0.50381 0.0
O132 O 0.99283 1.00345 0.73045 0.0
O133 O 0.97 0.01039 0.65663 0.0
O134 O 0.02238 0.03166 0.78812 0.0
O135 O 1.00818 0.0411 0.67191 0.0
H136 H 0.04916 0.94941 0.94946 0.0
H137 H 0.03468 0.91762 0.97671 0.0
H138 H 0.9774 0.94326 0.96958 0.0
H139 H 0.99184 0.97481 0.94145 0.0
H140 H 0.95886 0.03952 0.41273 0.0
H141 H 0.94223 0.07105 0.42426 0.0
H142 H 0.99277 0.09515 0.53818 0.0
H143 H 0.00926 0.06417 0.52674 0.0
Pr144 Pr 0.51917 0.0182 0.7722 0.0
Pr145 Pr 0.50735 0.99418 0.61828 0.0
C146 C 0.53533 0.02967 0.90483 0.0
C147 C 0.55263 0.04209 0.91158 0.0
C148 C 0.55892 0.05247 0.84622 0.0
C149 C 0.57779 0.0598 0.84233 0.0
C150 C 0.59068 0.05687 0.90385 0.0
C151 C 0.58384 0.04801 0.97204 0.0
C152 C 0.56492 0.04053 0.97566 0.0
C153 C 0.51446 0.04467 0.64808 0.0
C154 C 0.55441 1.00456 0.64437 0.0
C155 C 0.49025 0.98578 0.48398 0.0
C156 C 0.47023 0.97874 0.4737 0.0
C157 C 0.46234 0.96531 0.52666 0.0
C158 C 0.44223 0.96369 0.53565 0.0
C159 C 0.42983 0.97571 0.49283 0.0
C160 C 0.43764 0.98787 0.43537 0.0
C161 C 0.45772 0.98929 0.42555 0.0
C162 C 0.51109 0.96782 0.74271 0.0
C163 C 0.47245 1.00579 0.74957 0.0
O164 O 0.53886 0.0126 0.87398 0.0
O165 O 0.51978 0.03807 0.87653 0.0
O166 O 0.51245 0.02633 0.64608 0.0
O167 O 0.51852 0.04979 0.71822 0.0
O168 O 0.54097 0.99802 0.59561 0.0
O169 O 0.54979 0.01158 0.71356 0.0
O170 O 0.49118 1.00351 0.51164 0.0
O171 O 0.5026 0.97382 0.51672 0.0
O172 O 0.51351 0.98613 0.74503 0.0
O173 O 0.50731 0.9626 0.67214 0.0
O174 O 0.48593 0.01244 0.79783 0.0
O175 O 0.47684 0.99955 0.67907 0.0
H176 H 0.54979 0.05359 0.79561 0.0
H177 H 0.58273 0.06655 0.78924 0.0
H178 H 0.59361 0.04533 0.01996 0.0
H179 H 0.56041 0.0323 0.02599 0.0
H180 H 0.47165 0.95725 0.56557 0.0
H181 H 0.43646 0.95419 0.58009 0.0
H182 H 0.42824 0.99703 0.40083 0.0
H183 H 0.4635 0.99989 0.38516 0.0
Pr184 Pr 0.49702 0.5155 0.80708 0.0
Pr185 Pr 0.52016 0.50486 0.64762 0.0
C186 C 0.49008 0.53028 0.94685 0.0
C187 C 0.49634 0.54969 0.97425 0.0
C188 C 0.48249 0.56461 0.98002 0.0
C189 C 0.48835 0.58411 0.97938 0.0
C190 C 0.50817 0.58897 0.97408 0.0
C191 C 0.52208 0.57408 0.97622 0.0
C192 C 0.51622 0.5546 0.9763 0.0
C193 C 0.47001 0.50691 0.68853 0.0
C194 C 0.51032 0.55175 0.68354 0.0
C195 C 0.52836 0.49508 0.50107 0.0
C196 C 0.52494 0.47785 0.4536 0.0
C197 C 0.53803 0.47337 0.39444 0.0
C198 C 0.53802 0.45478 0.36184 0.0
C199 C 0.52498 0.44047 0.38868 0.0
C200 C 0.5108 0.44561 0.44342 0.0
C201 C 0.51082 0.46418 0.47588 0.0
C202 C 0.54721 0.51298 0.76707 0.0
C203 C 0.50647 0.46845 0.77001 0.0
O204 O 0.50375 0.51732 0.93507 0.0
O205 O 0.47722 0.53076 0.89111 0.0
O206 O 0.48838 0.50686 0.68398 0.0
O207 O 0.46507 0.51074 0.75931 0.0
O208 O 0.51583 0.53858 0.63219 0.0
O209 O 0.50437 0.54675 0.75386 0.0
O210 O 0.51305 0.5053 0.52007 0.0
O211 O 0.54036 0.49226 0.55858 0.0
O212 O 0.52883 0.51342 0.77098 0.0
O213 O 0.55212 0.5089 0.69655 0.0
O214 O 0.50098 0.48156 0.82223 0.0
O215 O 0.51265 0.47353 0.69978 0.0
H216 H 0.46708 0.56125 0.97873 0.0
H217 H 0.47736 0.59537 0.97972 0.0
H218 H 0.53746 0.57743 0.97264 0.0
H219 H 0.5273 0.54352 0.97223 0.0
H220 H 0.54907 0.4838 0.37702 0.0
H221 H 0.5489 0.45128 0.31884 0.0
H222 H 0.50066 0.43488 0.46571 0.0
H223 H 0.50073 0.46741 0.52215 0.0
Pr224 Pr 1.0042 0.4934 0.78337 0.0
Pr225 Pr 0.01645 0.51407 0.61941 0.0
C226 C 0.98807 0.48817 0.92196 0.0
C227 C 0.96841 0.49422 0.94415 0.0
C228 C 0.95557 0.48037 0.97508 0.0
C229 C 0.93556 0.48371 0.97373 0.0
C230 C 0.92817 0.50098 0.94176 0.0
C231 C 0.9411 0.51546 0.91634 0.0
C232 C 0.96107 0.51207 0.91712 0.0
C233 C 0.01091 0.46479 0.66885 0.0
C234 C 0.96949 0.50493 0.65208 0.0
C235 C 0.03091 0.52253 0.48004 0.0
C236 C 0.0471 0.53571 0.46279 0.0
C237 C 0.05519 0.54663 0.52347 0.0
C238 C 0.07303 0.55594 0.51413 0.0
C239 C 0.083 0.55452 0.44388 0.0
C240 C 0.07419 0.54496 0.38105 0.0
C241 C 0.05629 0.53545 0.39066 0.0
C242 C 0.01094 0.54272 0.73515 0.0
C243 C 0.05139 0.503 0.75323 0.0
O244 O 1.00073 0.50211 0.9088 0.0
O245 O 0.98829 0.4745 0.86937 0.0
O246 O 0.01195 0.48307 0.66158 0.0
O247 O 1.00721 0.46073 0.74062 0.0
O248 O 0.98314 0.50731 0.59869 0.0
O249 O 0.97398 0.50206 0.72588 0.0
O250 O 0.03597 0.50693 0.51871 0.0
O251 O 0.01524 0.53089 0.5073 0.0
O252 O 0.00904 0.52447 0.74136 0.0
O253 O 0.01568 0.5467 0.66444 0.0
O254 O 0.0379 0.49719 0.80319 0.0
O255 O 0.047 0.50884 0.68185 0.0
H256 H 0.96091 0.46642 0.9951 0.0
H257 H 0.92582 0.47247 0.99493 0.0
H258 H 0.93574 0.52886 0.89123 0.0
H259 H 0.9706 0.52286 0.89133 0.0
H260 H 0.04838 0.54681 0.57982 0.0
H261 H 0.07968 0.56311 0.56336 0.0
H262 H 0.08184 0.5435 0.3267 0.0
H263 H 0.05028 0.52695 0.34354 0.0
H264 H 0.20985 0.01576 0.23885 0.0
H265 H 0.18271 0.01808 0.32993 0.0
H266 H 0.14269 1.00143 0.14966 0.0
H267 H 0.16982 0.99908 0.05846 0.0
H268 H 0.12673 0.02971 0.23819 0.0
H269 H 0.15845 0.96841 0.28493 0.0
H270 H 0.18652 0.94733 0.31362 0.0
H271 H 0.19548 0.97725 0.52866 0.0
H272 H 0.16761 0.99869 0.50074 0.0
H273 H 0.04669 1.00398 0.48978 0.0
H274 H 0.07227 1.00543 0.39046 0.0
H275 H 0.1154 0.01467 0.56805 0.0
H276 H 0.09017 0.01243 0.66633 0.0
H277 H 0.12942 0.99 0.47692 0.0
H278 H 0.09816 0.05152 0.43258 0.0
H279 H 0.07064 0.07336 0.4045 0.0
H280 H 0.06122 0.04436 0.18778 0.0
H281 H 0.08854 0.02217 0.21506 0.0
C282 C 0.1953 0.01274 0.21821 0.0
C283 C 0.19209 1.00738 0.14066 0.0
C284 C 0.1797 0.01403 0.27065 0.0
C285 C 0.16048 0.00976 0.24738 0.0
C286 C 0.15724 1.00488 0.16956 0.0
C287 C 0.17281 1.00355 0.11729 0.0
C288 C 0.14392 0.00957 0.30436 0.0
C289 C 0.12725 0.02088 0.29006 0.0
C290 C 0.14451 0.99833 0.37298 0.0
C291 C 0.16107 0.98526 0.39042 0.0
C292 C 0.16648 0.97056 0.33813 0.0
C293 C 0.18235 0.95855 0.35427 0.0
C294 C 0.19281 0.96099 0.42282 0.0
C295 C 0.18738 0.9754 0.47553 0.0
C296 C 0.17154 0.98747 0.45962 0.0
C297 C 0.0616 1.00658 0.50727 0.0
C298 C 0.06633 1.00815 0.5861 0.0
C299 C 0.0763 1.00745 0.45037 0.0
C300 C 0.09602 0.0103 0.4709 0.0
C301 C 0.1005 0.01233 0.54976 0.0
C302 C 0.08595 0.01116 0.60625 0.0
C303 C 0.11221 0.01044 0.41185 0.0
C304 C 0.12883 0.99897 0.42543 0.0
C305 C 0.11159 0.02167 0.343 0.0
C306 C 0.09526 0.03506 0.32624 0.0
C307 C 0.09013 0.04972 0.37918 0.0
C308 C 0.07458 0.06217 0.36337 0.0
C309 C 0.06415 0.06021 0.2945 0.0
C310 C 0.06929 0.04584 0.24117 0.0
C311 C 0.08482 0.03333 0.25674 0.0
H312 H 0.05212 0.06985 0.28239 0.0
H313 H 0.2051 0.95168 0.43518 0.0
H314 H 0.48556 0.16917 0.07792 0.0
H315 H 0.49134 0.13976 0.15525 0.0
H316 H 0.50894 0.17559 0.34783 0.0
H317 H 0.50321 0.20496 0.27039 0.0
H318 H 0.53212 0.14445 0.33761 0.0
H319 H 0.46266 0.15437 0.33458 0.0
H320 H 0.43053 0.15852 0.27345 0.0
H321 H 0.43592 0.10264 0.16397 0.0
H322 H 0.46821 0.09827 0.2237 0.0
H323 H 0.51988 0.08359 0.65838 0.0
H324 H 0.51697 0.10845 0.55933 0.0
H325 H 0.50151 0.0645 0.39203 0.0
H326 H 0.50448 0.03917 0.49261 0.0
H327 H 0.47832 0.09709 0.37703 0.0
H328 H 0.54641 0.08597 0.3821 0.0
H329 H 0.57894 0.08131 0.43847 0.0
H330 H 0.57661 0.13841 0.53976 0.0
H331 H 0.54399 0.14341 0.48375 0.0
C332 C 0.49088 0.17075 0.13648 0.0
C333 C 0.49383 0.18946 0.16802 0.0
C334 C 0.49404 0.15389 0.18103 0.0
C335 C 0.50026 0.15527 0.25841 0.0
C336 C 0.50406 0.17396 0.28868 0.0
C337 C 0.50084 0.19081 0.24422 0.0
C338 C 0.5025 0.1374 0.30832 0.0
C339 C 0.52025 0.13425 0.34662 0.0
C340 C 0.48734 0.12349 0.31868 0.0
C341 C 0.46794 0.12609 0.28289 0.0
C342 C 0.45706 0.14304 0.29698 0.0
C343 C 0.43881 0.14542 0.26267 0.0
C344 C 0.43122 0.13088 0.21467 0.0
C345 C 0.44184 0.1139 0.20105 0.0
C346 C 0.46011 0.11146 0.23514 0.0
C347 C 0.51588 0.07904 0.60058 0.0
C348 C 0.5124 0.05922 0.58394 0.0
C349 C 0.51431 0.0934 0.54353 0.0
C350 C 0.50926 0.08854 0.46732 0.0
C351 C 0.5055 0.06875 0.45019 0.0
C352 C 0.5072 0.05422 0.50776 0.0
C353 C 0.50783 0.10437 0.40722 0.0
C354 C 0.49025 0.10719 0.3673 0.0
C355 C 0.52318 0.11792 0.39479 0.0
C356 C 0.5427 0.11499 0.42925 0.0
C357 C 0.55277 0.09748 0.41689 0.0
C358 C 0.57125 0.09479 0.44868 0.0
C359 C 0.57982 0.10952 0.49308 0.0
C360 C 0.56994 0.127 0.50546 0.0
C361 C 0.55148 0.1298 0.47347 0.0
H362 H 0.59414 0.10742 0.51766 0.0
H363 H 0.41708 0.13275 0.18818 0.0
H364 H 0.31157 0.49506 0.27707 0.0
H365 H 0.33847 0.4938 0.36997 0.0
H366 H 0.37943 0.50425 0.18598 0.0
H367 H 0.35262 0.50485 0.09291 0.0
H368 H 0.3953 0.47948 0.27954 0.0
H369 H 0.3636 0.54094 0.31755 0.0
H370 H 0.33584 0.56268 0.34285 0.0
H371 H 0.32659 0.53516 0.56244 0.0
H372 H 0.35415 0.51307 0.53798 0.0
H373 H 0.47488 0.50856 0.5292 0.0
H374 H 0.44936 0.50648 0.42978 0.0
H375 H 0.40651 0.49599 0.60692 0.0
H376 H 0.43171 0.49866 0.70539 0.0
H377 H 0.39225 0.52096 0.51363 0.0
H378 H 0.42507 0.45961 0.47445 0.0
H379 H 0.4539 0.43931 0.44885 0.0
H380 H 0.462 0.46774 0.23041 0.0
H381 H 0.43341 0.48844 0.25526 0.0
C382 C 0.3263 0.49685 0.25616 0.0
C383 C 0.32988 0.49984 0.17695 0.0
C384 C 0.34177 0.49629 0.30966 0.0
C385 C 0.36123 0.49918 0.28588 0.0
C386 C 0.36474 0.5019 0.20662 0.0
C387 C 0.34934 0.50229 0.15323 0.0
C388 C 0.37783 0.49997 0.34318 0.0
C389 C 0.39464 0.48871 0.33034 0.0
C390 C 0.37723 0.51182 0.41035 0.0
C391 C 0.36081 0.52523 0.4256 0.0
C392 C 0.35557 0.53945 0.37104 0.0
C393 C 0.33988 0.55184 0.38524 0.0
C394 C 0.32942 0.55026 0.45411 0.0
C395 C 0.33468 0.53634 0.50907 0.0
C396 C 0.35034 0.52389 0.4951 0.0
C397 C 0.46008 0.50552 0.54664 0.0
C398 C 0.45544 0.50368 0.62543 0.0
C399 C 0.4454 0.50432 0.48966 0.0
C400 C 0.42577 0.50092 0.51004 0.0
C401 C 0.42135 0.49872 0.58881 0.0
C402 C 0.43589 0.50014 0.64538 0.0
C403 C 0.40961 0.50024 0.45085 0.0
C404 C 0.39289 0.51163 0.46311 0.0
C405 C 0.41039 0.48858 0.38314 0.0
C406 C 0.42719 0.47569 0.36704 0.0
C407 C 0.43304 0.46158 0.42108 0.0
C408 C 0.44935 0.45001 0.40673 0.0
C409 C 0.45981 0.45227 0.33815 0.0
C410 C 0.45391 0.46603 0.28357 0.0
C411 C 0.43764 0.47767 0.29773 0.0
H412 H 0.47246 0.44334 0.32725 0.0
H413 H 0.31727 0.55986 0.46497 0.0
H414 H 0.02082 0.33414 0.10972 0.0
H415 H 0.01578 0.36398 0.18567 0.0
H416 H 0.02275 0.33101 0.39579 0.0
H417 H 0.02723 0.30122 0.31996 0.0
H418 H 0.99517 0.35625 0.41624 0.0
H419 H 0.06024 0.3608 0.31016 0.0
H420 H 0.08447 0.36185 0.20521 0.0
H421 H 0.05637 0.412 0.10852 0.0
H422 H 0.03184 0.41111 0.21243 0.0
H423 H 0.01795 0.42655 0.69277 0.0
H424 H 0.01985 0.40024 0.5989 0.0
H425 H 0.01156 0.4414 0.41382 0.0
H426 H 0.01028 0.4682 0.50891 0.0
H427 H 0.037 0.41414 0.36992 0.0
H428 H 0.97361 0.41146 0.48071 0.0
H429 H 0.94931 0.41081 0.58536 0.0
H430 H 0.97349 0.35744 0.67112 0.0
H431 H 0.99811 0.3579 0.56761 0.0
C432 C 0.02101 0.33328 0.17215 0.0
C433 C 0.02456 0.31534 0.20875 0.0
C434 C 0.01833 0.35039 0.21569 0.0
C435 C 0.01931 0.35002 0.29699 0.0
C436 C 0.02203 0.33189 0.33341 0.0
C437 C 0.0246 0.3148 0.28995 0.0
C438 C 0.01774 0.36834 0.34459 0.0
C439 C 1.00448 0.3688 0.40633 0.0
C440 C 0.02932 0.38518 0.33077 0.0
C441 C 0.0441 0.38575 0.26855 0.0
C442 C 0.05916 0.37197 0.2662 0.0
C443 C 0.07296 0.37255 0.20697 0.0
C444 C 0.07193 0.38695 0.15011 0.0
C445 C 0.05713 0.40084 0.15251 0.0
C446 C 0.04329 0.40031 0.21158 0.0
C447 C 0.01669 0.43012 0.63206 0.0
C448 C 0.01385 0.44952 0.60853 0.0
C449 C 0.01763 0.41495 0.57818 0.0
C450 C 0.0153 0.41856 0.49884 0.0
C451 C 0.01322 0.43808 0.47459 0.0
C452 C 0.01252 0.45343 0.52893 0.0
C453 C 0.01479 0.40179 0.44268 0.0
C454 C 0.02759 0.40165 0.37938 0.0
C455 C 1.00271 0.38523 0.45474 0.0
C456 C 0.98779 0.38479 0.51664 0.0
C457 C 0.97381 0.39964 0.52213 0.0
C458 C 0.95998 0.3993 0.58123 0.0
C459 C 0.95988 0.38411 0.63492 0.0
C460 C 0.97358 0.3692 0.6295 0.0
C461 C 0.98747 0.36948 0.57056 0.0
H462 H 0.94916 0.38388 0.68067 0.0
H463 H 0.08262 0.38737 0.1043 0.0
H464 H 0.85297 0.99568 0.31672 0.0
H465 H 0.88103 0.99277 0.22968 0.0
H466 H 0.84541 0.01121 0.03868 0.0
H467 H 0.81758 0.01479 0.12591 0.0
H468 H 0.86985 0.97907 0.00233 0.0
H469 H 0.87545 0.04278 0.12339 0.0
H470 H 0.8785 0.06528 0.23389 0.0
H471 H 0.93097 0.03667 0.30503 0.0
H472 H 0.92806 0.01379 0.19559 0.0
H473 H 0.93537 1.00539 0.71139 0.0
H474 H 0.91044 1.00375 0.81061 0.0
H475 H 0.95482 0.99975 0.98606 0.0
H476 H 0.98004 1.0028 0.8854 0.0
H477 H 0.92773 0.02142 0.04027 0.0
H478 H 0.92495 0.95904 0.92596 0.0
H479 H 0.92356 0.93446 0.82217 0.0
H480 H 0.86816 0.9565 0.7491 0.0
H481 H 0.86932 0.9814 0.85183 0.0
C482 C 0.85104 0.99889 0.25598 0.0
C483 C 0.83284 1.00523 0.22836 0.0
C484 C 0.86717 0.99733 0.20622 0.0
C485 C 0.86551 1.00187 0.12723 0.0
C486 C 0.84717 1.00754 0.0991 0.0
C487 C 0.83114 0.0094 0.14903 0.0
C488 C 0.88284 1.00115 0.07405 0.0
C489 C 0.88242 0.98848 0.01027 0.0
C490 C 0.89975 0.01273 0.08579 0.0
C491 C 0.9014 0.02642 0.15182 0.0
C492 C 0.88752 0.04115 0.16305 0.0
C493 C 0.88925 0.054 0.2254 0.0
C494 C 0.90489 0.05237 0.27659 0.0
C495 C 0.91884 0.03789 0.26545 0.0
C496 C 0.91716 0.02499 0.20326 0.0
C497 C 0.93993 1.00403 0.77102 0.0
C498 C 0.95984 1.00363 0.79008 0.0
C499 C 0.92554 1.00292 0.82815 0.0
C500 C 0.93045 1.00099 0.90665 0.0
C501 C 0.95041 1.00092 0.9262 0.0
C502 C 0.96491 1.00233 0.86858 0.0
C503 C 0.91463 0.9996 0.96714 0.0
C504 C 0.9153 0.01185 0.03238 0.0
C505 C 0.89815 0.98721 0.95803 0.0
C506 C 0.89729 0.9722 0.89631 0.0
C507 C 0.91252 0.95873 0.88747 0.0
C508 C 0.91177 0.94473 0.82886 0.0
C509 C 0.8958 0.94395 0.77898 0.0
C510 C 0.88052 0.95713 0.78776 0.0
C511 C 0.8812 0.97118 0.84625 0.0
H512 H 0.89525 0.9331 0.73361 0.0
H513 H 0.90622 0.06235 0.32476 0.0
H514 H 0.50513 0.80986 0.14049 0.0
H515 H 0.51013 0.8381 0.05607 0.0
H516 H 0.50487 0.87646 0.25224 0.0
H517 H 0.49956 0.84813 0.3365 0.0
H518 H 0.48436 0.89096 0.13706 0.0
H519 H 0.54948 0.8679 0.15911 0.0
H520 H 0.57593 0.84377 0.15565 0.0
H521 H 0.56508 0.83354 0.91478 0.0
H522 H 0.53836 0.85743 0.91702 0.0
H523 H 0.51192 0.97424 0.90175 0.0
H524 H 0.51201 0.94931 0.00462 0.0
H525 H 0.51318 0.90404 0.83195 0.0
H526 H 0.51304 0.92858 0.73048 0.0
H527 H 0.53784 0.89525 0.94587 0.0
H528 H 0.4712 0.91652 0.92731 0.0
H529 H 0.44468 0.94061 0.93086 0.0
H530 H 0.45877 0.95442 0.16627 0.0
H531 H 0.48558 0.93061 0.16372 0.0
C532 C 0.50534 0.8243 0.16577 0.0
C533 C 0.50193 0.8267 0.24532 0.0
C534 C 0.50821 0.84053 0.11738 0.0
C535 C 0.50801 0.85966 0.14719 0.0
C536 C 0.50505 0.86201 0.22715 0.0
C537 C 0.50217 0.84576 0.27555 0.0
C538 C 0.51032 0.8771 0.0947 0.0
C539 C 0.49629 0.89202 0.09631 0.0
C540 C 0.52566 0.87863 0.0402 0.0
C541 C 0.54181 0.86435 0.03842 0.0
C542 C 0.55264 0.86042 0.10552 0.0
C543 C 0.5677 0.84679 0.10376 0.0
C544 C 0.57215 0.8371 0.03508 0.0
C545 C 0.5616 0.84105 0.96795 0.0
C546 C 0.54651 0.85465 0.96941 0.0
C547 C 0.51236 0.95897 0.88601 0.0
C548 C 0.51248 0.95347 0.80766 0.0
C549 C 0.51229 0.94468 0.94485 0.0
C550 C 0.51248 0.9246 0.92656 0.0
C551 C 0.51307 0.91929 0.84829 0.0
C552 C 0.51295 0.93344 0.79 0.0
C553 C 0.51174 0.90891 0.98749 0.0
C554 C 0.52605 0.8943 0.98732 0.0
C555 C 0.49669 0.9077 0.04331 0.0
C556 C 0.48055 0.92197 0.04501 0.0
C557 C 0.46875 0.92482 0.97961 0.0
C558 C 0.45365 0.9384 0.98147 0.0
C559 C 0.45008 0.94908 0.04866 0.0
C560 C 0.46158 0.94617 0.11421 0.0
C561 C 0.47673 0.93263 0.11259 0.0
H562 H 0.43838 0.95958 0.05 0.0
H563 H 0.58381 0.82655 0.03384 0.0
H564 H 0.6681 0.51106 0.36161 0.0
H565 H 0.63986 0.51556 0.27636 0.0
H566 H 0.6768 0.50825 0.07754 0.0
H567 H 0.70493 0.50351 0.16267 0.0
H568 H 0.65091 0.5377 0.05464 0.0
H569 H 0.64739 0.47121 0.14835 0.0
H570 H 0.64489 0.44554 0.24744 0.0
H571 H 0.59112 0.46986 0.32774 0.0
H572 H 0.59348 0.49589 0.22999 0.0
H573 H 0.58637 0.51546 0.75277 0.0
H574 H 0.6112 0.51623 0.85278 0.0
H575 H 0.56664 0.51562 0.02792 0.0
H576 H 0.54156 0.51382 0.92635 0.0
H577 H 0.59432 0.49291 0.07353 0.0
H578 H 0.59545 0.55786 0.98323 0.0
H579 H 0.59642 0.58478 0.88911 0.0
H580 H 0.6526 0.56603 0.81122 0.0
H581 H 0.65185 0.53882 0.90415 0.0
C582 C 0.67023 0.51063 0.29968 0.0
C583 C 0.68885 0.50694 0.26915 0.0
C584 C 0.65401 0.51306 0.25082 0.0
C585 C 0.65596 0.51199 0.16992 0.0
C586 C 0.67473 0.50911 0.13944 0.0
C587 C 0.6909 0.50652 0.18827 0.0
C588 C 0.63859 0.51354 0.11688 0.0
C589 C 0.63865 0.52776 0.05844 0.0
C590 C 0.62201 0.50119 0.12317 0.0
C591 C 0.62075 0.48566 0.18249 0.0
C592 C 0.63515 0.47122 0.18769 0.0
C593 C 0.63374 0.45657 0.24353 0.0
C594 C 0.6179 0.45611 0.29405 0.0
C595 C 0.60342 0.47027 0.28875 0.0
C596 C 0.60479 0.48498 0.23316 0.0
C597 C 0.58174 0.51568 0.81253 0.0
C598 C 0.5618 0.51498 0.83115 0.0
C599 C 0.59607 0.51626 0.87015 0.0
C600 C 0.59107 0.51648 0.9489 0.0
C601 C 0.5711 0.51568 0.96796 0.0
C602 C 0.55666 0.51492 0.90979 0.0
C603 C 0.60681 0.51685 0.01006 0.0
C604 C 0.60647 0.503 0.07001 0.0
C605 C 0.62296 0.52982 0.00628 0.0
C606 C 0.62352 0.5462 0.95032 0.0
C607 C 0.60796 0.55939 0.94568 0.0
C608 C 0.60847 0.57472 0.89258 0.0
C609 C 0.62454 0.57709 0.84411 0.0
C610 C 0.64015 0.56417 0.84877 0.0
C611 C 0.6397 0.5488 0.90172 0.0
H612 H 0.62492 0.58897 0.80304 0.0
H613 H 0.61682 0.44474 0.33713 0.0
H614 H 0.0159 0.66967 0.3079 0.0
H615 H 0.01053 0.64032 0.2292 0.0
H616 H 0.01524 0.67496 0.02227 0.0
H617 H 0.02016 0.70427 0.10103 0.0
H618 H 0.98757 0.64921 0.00314 0.0
H619 H 0.05361 0.64551 0.10016 0.0
H620 H 0.0792 0.64378 0.19983 0.0
H621 H 0.05327 0.59169 0.29157 0.0
H622 H 0.02734 0.59328 0.19314 0.0
H623 H 0.0129 0.58179 0.71579 0.0
H624 H 0.01195 0.60749 0.81258 0.0
H625 H 1.00468 0.56448 0.99171 0.0
H626 H 1.00599 0.53845 0.89382 0.0
H627 H 0.03061 0.59199 0.0362 0.0
H628 H 0.96648 0.59352 0.93548 0.0
H629 H 0.94099 0.5941 0.83529 0.0
H630 H 0.96251 0.64912 0.75317 0.0
H631 H 0.98833 0.64875 0.85214 0.0
C632 C 0.01558 0.671 0.24561 0.0
C633 C 0.01867 0.68927 0.21071 0.0
C634 C 0.01268 0.65417 0.20047 0.0
C635 C 0.0129 0.65515 0.11918 0.0
C636 C 0.01512 0.6736 0.08458 0.0
C637 C 0.01795 0.69041 0.12967 0.0
C638 C 0.01105 0.63714 0.0698 0.0
C639 C 0.99714 0.63681 0.01016 0.0
C640 C 0.02296 0.62044 0.08006 0.0
C641 C 0.03839 0.61966 0.13988 0.0
C642 C 0.05325 0.6338 0.14207 0.0
C643 C 0.06783 0.63283 0.19826 0.0
C644 C 0.06782 0.61768 0.25216 0.0
C645 C 0.05323 0.60346 0.24993 0.0
C646 C 0.03859 0.60439 0.19398 0.0
C647 C 0.01096 0.57769 0.77569 0.0
C648 C 0.00934 0.55794 0.79671 0.0
C649 C 0.01034 0.59251 0.83125 0.0
C650 C 1.00794 0.58814 0.90993 0.0
C651 C 1.00643 0.56837 0.93151 0.0
C652 C 1.00704 0.55344 0.87544 0.0
C653 C 1.00748 0.60433 0.96857 0.0
C654 C 0.02092 0.60431 0.02981 0.0
C655 C 0.99505 0.62065 0.96028 0.0
C656 C 0.97944 0.62104 0.90098 0.0
C657 C 0.96587 0.60569 0.89575 0.0
C658 C 0.95134 0.60598 0.83921 0.0
C659 C 0.95015 0.62162 0.78783 0.0
C660 C 0.96345 0.63702 0.793 0.0
C661 C 0.97802 0.63679 0.84939 0.0
H662 H 0.9389 0.62182 0.74407 0.0
H663 H 0.07915 0.61692 0.2955 0.0
H664 H 0.95863 0.22151 0.18382 0.0
H665 H 0.94326 0.20343 0.28688 0.0
H666 H 0.97728 0.23526 0.45523 0.0
H667 H 0.99375 0.25266 0.35018 0.0
H668 H 0.98272 0.20046 0.48126 0.0
H669 H 0.92428 0.23271 0.46357 0.0
H670 H 0.89631 0.25028 0.4088 0.0
H671 H 0.87815 0.19855 0.28885 0.0
H672 H 0.90615 0.18071 0.34164 0.0
H673 H 0.96331 0.10713 0.6157 0.0
H674 H 0.95477 0.1417 0.62308 0.0
H675 H 0.93907 0.1409 0.38195 0.0
H676 H 0.94723 0.10638 0.37456 0.0
H677 H 0.91802 0.16855 0.46369 0.0
H678 H 0.98859 0.14653 0.44924 0.0
H679 H 0.01581 0.12964 0.51358 0.0
H680 H 0.0085 0.1656 0.71443 0.0
H681 H 0.98102 0.18244 0.65168 0.0
C682 C 0.96256 0.22497 0.2429 0.0
C683 C 0.97773 0.2381 0.25891 0.0
C684 C 0.95345 0.21485 0.30237 0.0
C685 C 0.95894 0.21794 0.37965 0.0
C686 C 0.97277 0.23254 0.39624 0.0
C687 C 0.98213 0.24255 0.33623 0.0
C688 C 0.95329 0.20316 0.4385 0.0
C689 C 0.96829 0.19401 0.47983 0.0
C690 C 0.93442 0.19478 0.43934 0.0
C691 C 0.91736 0.20531 0.4071 0.0
C692 C 0.91438 0.22507 0.42528 0.0
C693 C 0.8985 0.23509 0.39453 0.0
C694 C 0.88545 0.22553 0.34549 0.0
C695 C 0.88824 0.20592 0.32709 0.0
C696 C 0.90409 0.19581 0.35767 0.0
C697 C 0.95742 0.11423 0.56498 0.0
C698 C 0.9563 0.10428 0.49399 0.0
C699 C 0.95244 0.13391 0.56951 0.0
C700 C 0.94667 0.14394 0.50285 0.0
C701 C 0.94352 0.13345 0.43419 0.0
C702 C 0.94826 0.11373 0.4298 0.0
C703 C 0.94784 0.16546 0.49857 0.0
C704 C 0.93202 0.17578 0.46825 0.0
C705 C 0.96578 0.17526 0.50995 0.0
C706 C 0.98275 0.16564 0.54605 0.0
C707 C 0.99284 0.15083 0.50705 0.0
C708 C 1.00825 0.14123 0.54335 0.0
C709 C 0.01384 0.14651 0.61815 0.0
C710 C 1.00411 0.16148 0.65665 0.0
C711 C 0.98862 0.17105 0.62078 0.0
H712 H 0.02573 0.13902 0.64628 0.0
H713 H 0.87317 0.23332 0.3217 0.0
H714 H 0.25722 1.00429 0.32983 0.0
H715 H 0.27575 1.00058 0.4486 0.0
H716 H 0.30602 0.95167 0.35014 0.0
H717 H 0.2872 0.95492 0.23146 0.0
H718 H 0.30398 0.95907 0.54087 0.0
H719 H 0.33332 0.98715 0.27639 0.0
H720 H 0.32522 1.00685 0.16129 0.0
H721 H 0.2954 0.04807 0.30491 0.0
H722 H 0.3035 0.02862 0.42054 0.0
H723 H 0.40354 0.94593 0.50218 0.0
H724 H 0.36822 0.9489 0.51473 0.0
H725 H 0.3743 0.01118 0.54225 0.0
H726 H 0.40953 1.00821 0.52791 0.0
H727 H 0.35264 1.00456 0.4287 0.0
H728 H 0.35114 0.98346 0.68219 0.0
H729 H 0.35868 0.9647 0.79906 0.0
H730 H 0.33308 0.91351 0.69832 0.0
H731 H 0.32568 0.93185 0.57963 0.0
C732 C 0.26694 0.99198 0.33489 0.0
C733 C 0.27128 0.98027 0.27042 0.0
C734 C 0.27744 0.98981 0.40334 0.0
C735 C 0.29243 0.9761 0.40733 0.0
C736 C 0.29446 0.96235 0.34796 0.0
C737 C 0.28394 0.96444 0.27963 0.0
C738 C 0.30982 0.98059 0.45367 0.0
C739 C 0.31465 0.96919 0.51791 0.0
C740 C 0.32329 0.99437 0.425 0.0
C741 C 0.31896 1.00647 0.35648 0.0
C742 C 0.32515 1.00048 0.28304 0.0
C743 C 0.32056 0.01158 0.21791 0.0
C744 C 0.30979 0.02869 0.22579 0.0
C745 C 0.30372 0.03481 0.29889 0.0
C746 C 0.30836 0.02379 0.36422 0.0
C747 C 0.39728 0.96015 0.51268 0.0
C748 C 0.40901 0.9769 0.51196 0.0
C749 C 0.37715 0.96185 0.52088 0.0
C750 C 0.36859 0.9803 0.52963 0.0
C751 C 0.38058 0.99683 0.53538 0.0
C752 C 0.40062 0.99515 0.52636 0.0
C753 C 0.34747 0.98264 0.51596 0.0
C754 C 0.34195 0.99515 0.45594 0.0
C755 C 0.33335 0.97042 0.55091 0.0
C756 C 0.3379 0.95906 0.62162 0.0
C757 C 0.34724 0.96816 0.68448 0.0
C758 C 0.35146 0.95759 0.75126 0.0
C759 C 0.34635 0.93792 0.75633 0.0
C760 C 0.33701 0.92876 0.69439 0.0
C761 C 0.33276 0.93925 0.62729 0.0
H762 H 0.34961 0.92978 0.80822 0.0
H763 H 0.30616 0.03722 0.17533 0.0
H764 H 0.56447 0.27201 0.18939 0.0
H765 H 0.57032 0.29967 0.27478 0.0
H766 H 0.51553 0.28877 0.38769 0.0
H767 H 0.51002 0.26072 0.30445 0.0
H768 H 0.52488 0.31871 0.23766 0.0
H769 H 0.53523 0.29984 0.50448 0.0
H770 H 0.55307 0.28431 0.61133 0.0
H771 H 0.60291 0.32027 0.56403 0.0
H772 H 0.58544 0.3358 0.45598 0.0
H773 H 0.49721 0.41291 0.35687 0.0
H774 H 0.50211 0.37781 0.34415 0.0
H775 H 0.56418 0.38612 0.36338 0.0
H776 H 0.55937 0.42109 0.37933 0.0
H777 H 0.55214 0.35703 0.45543 0.0
H778 H 0.54513 0.37372 0.18695 0.0
H779 H 0.52966 0.38962 0.07497 0.0
H780 H 0.47662 0.35838 0.11921 0.0
H781 H 0.4919 0.342 0.23057 0.0
C782 C 0.55454 0.2745 0.23693 0.0
C783 C 0.53662 0.26468 0.23967 0.0
C784 C 0.55787 0.29034 0.28574 0.0
C785 C 0.54316 0.29642 0.33625 0.0
C786 C 0.5271 0.28421 0.34935 0.0
C787 C 0.52395 0.26814 0.30156 0.0
C788 C 0.54043 0.3175 0.34584 0.0
C789 C 0.53058 0.32709 0.28593 0.0
C790 C 0.54851 0.32828 0.40725 0.0
C791 C 0.55913 0.31875 0.47132 0.0
C792 C 0.55009 0.30422 0.51602 0.0
C793 C 0.56011 0.29548 0.57707 0.0
C794 C 0.57915 0.30124 0.59425 0.0
C795 C 0.58819 0.31578 0.55053 0.0
C796 C 0.57823 0.32456 0.48941 0.0
C797 C 0.51189 0.40726 0.35779 0.0
C798 C 0.52789 0.41975 0.36875 0.0
C799 C 0.51469 0.38725 0.35024 0.0
C800 C 0.53352 0.37944 0.3527 0.0
C801 C 0.54954 0.3919 0.36154 0.0
C802 C 0.54677 0.4119 0.36943 0.0
C803 C 0.53642 0.3582 0.34757 0.0
C804 C 0.54637 0.34862 0.40748 0.0
C805 C 0.52874 0.34732 0.28536 0.0
C806 C 0.5196 0.35678 0.21743 0.0
C807 C 0.53016 0.37025 0.17273 0.0
C808 C 0.52146 0.37927 0.10917 0.0
C809 C 0.50217 0.37502 0.09001 0.0
C810 C 0.49158 0.3616 0.13397 0.0
C811 C 0.50029 0.35235 0.197 0.0
H812 H 0.4954 0.38215 0.04126 0.0
H813 H 0.58687 0.29448 0.64161 0.0
H814 H 0.2597 0.52567 0.34232 0.0
H815 H 0.23562 0.53911 0.43052 0.0
H816 H 0.22033 0.58239 0.26083 0.0
H817 H 0.24524 0.5698 0.17463 0.0
H818 H 0.20604 0.59259 0.40145 0.0
H819 H 0.20138 0.53567 0.22825 0.0
H820 H 0.21222 0.50393 0.17686 0.0
H821 H 0.21197 0.47994 0.40568 0.0
H822 H 0.20072 0.51145 0.45815 0.0
H823 H 0.10231 0.57982 0.34766 0.0
H824 H 0.13784 0.58413 0.33824 0.0
H825 H 0.14564 0.54222 0.52107 0.0
H826 H 0.11054 0.53876 0.53346 0.0
H827 H 0.16499 0.53295 0.39502 0.0
H828 H 0.1567 0.59046 0.54971 0.0
H829 H 0.14266 0.62236 0.58264 0.0
H830 H 0.16538 0.64658 0.37253 0.0
H831 H 0.17931 0.61469 0.33778 0.0
C832 C 0.25224 0.53892 0.32604 0.0
C833 C 0.25363 0.54621 0.25051 0.0
C834 C 0.23832 0.54652 0.37634 0.0
C835 C 0.22552 0.56101 0.35023 0.0
C836 C 0.22976 0.57089 0.28144 0.0
C837 C 0.24398 0.56363 0.232 0.0
C838 C 0.20536 0.56168 0.38002 0.0
C839 C 0.19705 0.57958 0.40095 0.0
C840 C 0.19355 0.54473 0.37803 0.0
C841 C 0.20051 0.52589 0.3471 0.0
C842 C 0.20376 0.52363 0.26752 0.0
C843 C 0.20997 0.50572 0.23824 0.0
C844 C 0.21304 0.49002 0.28805 0.0
C845 C 0.2097 0.49214 0.36722 0.0
C846 C 0.20332 0.50999 0.39673 0.0
C847 C 0.11173 0.57207 0.38718 0.0
C848 C 0.10388 0.55917 0.44183 0.0
C849 C 0.13191 0.5746 0.38221 0.0
C850 C 0.14433 0.56391 0.43073 0.0
C851 C 0.13633 0.55116 0.48537 0.0
C852 C 0.11631 0.54907 0.49186 0.0
C853 C 0.16557 0.56381 0.41801 0.0
C854 C 0.17401 0.54594 0.39861 0.0
C855 C 0.17718 0.58088 0.4199 0.0
C856 C 0.16894 0.60011 0.44092 0.0
C857 C 0.15858 0.60253 0.51024 0.0
C858 C 0.15066 0.62063 0.52929 0.0
C859 C 0.1531 0.63649 0.47964 0.0
C860 C 0.1635 0.63428 0.41093 0.0
C861 C 0.17143 0.61619 0.39159 0.0
H862 H 0.14695 0.65049 0.49447 0.0
H863 H 0.21784 0.47617 0.2652 0.0
H864 H 0.94661 0.76225 0.15794 0.0
H865 H 0.93621 0.78719 0.06672 0.0
H866 H 0.99333 0.78697 0.96366 0.0
H867 H 1.00331 0.76154 0.05241 0.0
H868 H 0.95659 0.81654 0.11465 0.0
H869 H 0.99758 0.81946 0.81593 0.0
H870 H 0.99975 0.80026 0.69621 0.0
H871 H 0.94535 0.77232 0.74844 0.0
H872 H 0.94254 0.79171 0.86766 0.0
H873 H 0.01572 0.89777 0.06685 0.0
H874 H 1.00208 0.86486 0.06959 0.0
H875 H 0.96033 0.88084 0.89477 0.0
H876 H 0.97438 0.91364 0.88964 0.0
H877 H 0.9773 0.84547 0.86587 0.0
H878 H 0.94555 0.87679 0.07939 0.0
H879 H 0.94438 0.89645 0.19857 0.0
H880 H 0.98032 0.85466 0.31469 0.0
H881 H 0.98198 0.83487 0.19592 0.0
C882 C 0.95636 0.76642 0.11165 0.0
C883 C 0.97583 0.76042 0.1127 0.0
C884 C 0.95045 0.78074 0.05953 0.0
C885 C 0.9642 0.78949 0.0103 0.0
C886 C 0.98243 0.7806 0.00123 0.0
C887 C 0.98821 0.76602 0.05233 0.0
C888 C 0.96281 0.81067 0.9945 0.0
C889 C 0.96056 0.82282 0.05936 0.0
C890 C 0.96815 0.81899 0.92278 0.0
C891 C 0.96988 0.80704 0.85137 0.0
C892 C 0.98598 0.80933 0.80187 0.0
C893 C 0.98734 0.79839 0.73397 0.0
C894 C 0.97272 0.78505 0.71482 0.0
C895 C 0.9567 0.78263 0.7635 0.0
C896 C 0.95523 0.79358 0.83135 0.0
C897 C 1.00367 0.89426 0.02892 0.0
C898 C 0.99601 0.9083 0.9786 0.0
C899 C 0.9958 0.87553 0.03087 0.0
C900 C 0.98002 0.87056 0.98312 0.0
C901 C 0.97242 0.88447 0.93235 0.0
C902 C 0.98032 0.90322 0.9302 0.0
C903 C 0.97175 0.8507 0.98621 0.0
C904 C 0.97243 0.83904 0.91965 0.0
C905 C 0.96512 0.84265 0.05643 0.0
C906 C 0.96389 0.85436 0.12853 0.0
C907 C 0.95327 0.87182 0.13022 0.0
C908 C 0.95253 0.88299 0.19772 0.0
C909 C 0.96228 0.8768 0.2641 0.0
C910 C 0.97277 0.85941 0.2632 0.0
C911 C 0.97358 0.8482 0.19584 0.0
H912 H 0.96171 0.88548 0.31627 0.0
H913 H 0.97381 0.77659 0.66221 0.0
H914 H 0.75492 0.04284 0.11651 0.0
H915 H 0.73251 0.05251 0.01438 0.0
H916 H 0.7229 0.99204 0.95667 0.0
H917 H 0.74491 0.98237 0.06124 0.0
H918 H 0.71982 0.0486 0.8633 0.0
H919 H 0.67886 0.98363 0.9608 0.0
H920 H 0.67613 0.9589 0.06389 0.0
H921 H 0.69422 1.00123 0.23217 0.0
H922 H 0.69748 0.02611 0.12955 0.0
H923 H 0.61199 0.04391 0.78268 0.0
H924 H 0.6471 0.03873 0.78196 0.0
H925 H 0.65221 0.06978 0.99728 0.0
H926 H 0.61693 0.07444 1.00008 0.0
H927 H 0.65838 0.02491 0.98122 0.0
H928 H 0.67556 0.08915 0.88092 0.0
H929 H 0.67566 0.11482 0.78135 0.0
H930 H 0.70214 0.07544 0.62023 0.0
H931 H 0.70204 0.04949 0.71872 0.0
C932 C 0.7488 0.03171 0.0792 0.0
C933 C 0.75137 0.01194 0.09637 0.0
C934 C 0.73603 0.03721 0.02074 0.0
C935 C 0.72571 0.02296 0.97935 0.0
C936 C 0.73057 1.00323 0.98883 0.0
C937 C 0.74318 0.9977 0.04813 0.0
C938 C 0.70692 0.0285 0.94437 0.0
C939 C 0.70633 0.04318 0.8878 0.0
C940 C 0.68932 0.02154 0.97657 0.0
C941 C 0.6886 1.00655 0.03773 0.0
C942 C 0.68244 0.98756 0.01974 0.0
C943 C 0.68085 0.97355 0.07793 0.0
C944 C 0.68513 0.9785 0.15435 0.0
C945 C 0.69111 0.99742 0.17277 0.0
C946 C 0.69293 0.01145 0.11462 0.0
C947 C 0.62068 0.05044 0.82807 0.0
C948 C 0.61179 0.05941 0.892 0.0
C949 C 0.64076 0.04762 0.82699 0.0
C950 C 0.65217 0.0542 0.88861 0.0
C951 C 0.64357 0.06492 0.94853 0.0
C952 C 0.62346 0.06745 0.9504 0.0
C953 C 0.67128 0.04536 0.90209 0.0
C954 C 0.67179 0.02995 0.95467 0.0
C955 C 0.68857 0.05169 0.86588 0.0
C956 C 0.68856 0.06731 0.80689 0.0
C957 C 0.68121 0.0859 0.82403 0.0
C958 C 0.68136 0.10054 0.7679 0.0
C959 C 0.68888 0.09676 0.69447 0.0
C960 C 0.69634 0.07836 0.67714 0.0
C961 C 0.69628 0.0637 0.73316 0.0
H962 H 0.68892 0.10809 0.65102 0.0
H963 H 0.68368 0.96769 0.19928 0.0
H964 H 0.55956 0.72907 0.21673 0.0
H965 H 0.56233 0.70881 0.10255 0.0
H966 H 0.52078 0.74513 0.98395 0.0
H967 H 0.51732 0.76499 0.09999 0.0
H968 H 0.50625 0.71138 0.00514 0.0
H969 H 0.56437 0.73098 0.89156 0.0
H970 H 0.59816 0.74272 0.8804 0.0
H971 H 0.61884 0.68993 0.98425 0.0
H972 H 0.58519 0.67796 0.9973 0.0
H973 H 0.49272 0.61506 0.8727 0.0
H974 H 0.502 0.64926 0.85546 0.0
H975 H 0.54655 0.64294 0.02904 0.0
H976 H 0.53761 0.60871 0.04557 0.0
H977 H 0.5584 0.6674 0.91374 0.0
H978 H 0.50012 0.65687 0.07268 0.0
H979 H 0.46627 0.64634 0.09555 0.0
H980 H 0.44654 0.68424 0.91475 0.0
H981 H 0.48038 0.69455 0.88934 0.0
C982 C 0.55157 0.73317 0.16534 0.0
C983 C 0.53773 0.74813 0.16801 0.0
C984 C 0.55339 0.72174 0.09928 0.0
C985 C 0.54155 0.72526 0.03463 0.0
C986 C 0.52997 0.74208 0.0333 0.0
C987 C 0.52801 0.75343 0.09979 0.0
C988 C 0.53701 0.7087 0.98256 0.0
C989 C 0.51763 0.70215 0.98202 0.0
C990 C 0.55176 0.69652 0.95276 0.0
C991 C 0.57216 0.70354 0.94517 0.0
C992 C 0.5761 0.72189 0.9124 0.0
C993 C 0.59525 0.72859 0.90571 0.0
C994 C 0.61064 0.71707 0.93151 0.0
C995 C 0.60691 0.69882 0.96406 0.0
C996 C 0.58778 0.69204 0.9709 0.0
C997 C 0.50456 0.62098 0.90686 0.0
C998 C 0.51425 0.60939 0.96155 0.0
C999 C 0.50996 0.64042 0.89626 0.0
C1000 C 0.52485 0.64864 0.94122 0.0
C1001 C 0.53512 0.63683 0.99325 0.0
C1002 C 0.52989 0.61734 0.00323 0.0
C1003 C 0.5281 0.66993 0.94289 0.0
C1004 C 0.54707 0.67718 0.93322 0.0
C1005 C 0.51303 0.68282 0.96422 0.0
C1006 C 0.49278 0.6762 0.97816 0.0
C1007 C 0.48859 0.66274 0.0371 0.0
C1008 C 0.46941 0.65682 0.05056 0.0
C1009 C 0.45427 0.66454 0.00638 0.0
C1010 C 0.45829 0.67822 0.94875 0.0
C1011 C 0.47747 0.68402 0.93449 0.0
H1012 H 0.43943 0.65999 0.01699 0.0
H1013 H 0.62546 0.72229 0.92631 0.0
H1014 H 0.78496 0.55288 0.16216 0.0
H1015 H 0.80405 0.54805 0.04543 0.0
H1016 H 0.77202 0.49522 0.99677 0.0
H1017 H 0.75275 0.50017 0.11385 0.0
H1018 H 0.80905 0.48864 0.03766 0.0
H1019 H 0.77876 0.52684 0.85006 0.0
H1020 H 0.76166 0.55467 0.79179 0.0
H1021 H 0.81126 0.5914 0.83359 0.0
H1022 H 0.82858 0.56393 0.89332 0.0
H1023 H 0.90264 0.47486 0.87994 0.0
H1024 H 0.86724 0.47802 0.86992 0.0
H1025 H 0.87092 0.53573 0.9681 0.0
H1026 H 0.90628 0.53275 0.97723 0.0
H1027 H 0.84229 0.53273 0.85339 0.0
H1028 H 0.86434 0.49873 0.08443 0.0
H1029 H 0.88171 0.47255 0.153 0.0
H1030 H 0.84682 0.42955 0.03671 0.0
H1031 H 0.82947 0.45553 0.96641 0.0
C1032 C 0.78136 0.54081 0.12431 0.0
C1033 C 0.76775 0.5267 0.14712 0.0
C1034 C 0.79213 0.53812 0.05717 0.0
C1035 C 0.78955 0.52116 0.01277 0.0
C1036 C 0.77416 0.50841 0.03017 0.0
C1037 C 0.76321 0.51123 0.09705 0.0
C1038 C 0.80618 0.51428 0.96645 0.0
C1039 C 0.81595 0.49779 0.99443 0.0
C1040 C 0.81534 0.52646 0.91161 0.0
C1041 C 0.805 0.54323 0.87634 0.0
C1042 C 0.786 0.54087 0.84741 0.0
C1043 C 0.77626 0.5566 0.81399 0.0
C1044 C 0.78537 0.57479 0.80898 0.0
C1045 C 0.80424 0.57729 0.83739 0.0
C1046 C 0.81404 0.56162 0.8709 0.0
C1047 C 0.89585 0.48826 0.89886 0.0
C1048 C 0.90704 0.50342 0.93094 0.0
C1049 C 0.87573 0.49012 0.89225 0.0
C1050 C 0.86654 0.50708 0.91843 0.0
C1051 C 0.8778 0.5226 0.94683 0.0
C1052 C 0.89793 0.52083 0.9527 0.0
C1053 C 0.84523 0.50774 0.92719 0.0
C1054 C 0.83487 0.523 0.89269 0.0
C1055 C 0.8355 0.49463 0.97694 0.0
C1056 C 0.84587 0.47902 0.01918 0.0
C1057 C 0.86054 0.48368 0.07283 0.0
C1058 C 0.87038 0.46889 0.11198 0.0
C1059 C 0.86547 0.44939 0.09878 0.0
C1060 C 0.85067 0.44466 0.04656 0.0
C1061 C 0.84085 0.4594 0.00697 0.0
H1062 H 0.87305 0.43796 0.12941 0.0
H1063 H 0.7778 0.58694 0.78305 0.0
H1064 H 0.03379 0.20678 0.10637 0.0
H1065 H 0.03678 0.17647 0.03309 0.0
H1066 H 0.99883 0.19954 0.8574 0.0
H1067 H 0.9957 0.22995 0.93191 0.0
H1068 H 0.98692 0.16426 0.89587 0.0
H1069 H 0.04813 0.1902 0.8214 0.0
H1070 H 0.08027 0.20573 0.83797 0.0
H1071 H 0.09892 0.15793 0.97934 0.0
H1072 H 0.06679 0.14223 0.96452 0.0
H1073 H 0.99856 0.07704 0.67162 0.0
H1074 H 0.99936 0.11113 0.7127 0.0
H1075 H 0.03471 0.09545 0.90862 0.0
H1076 H 0.03415 0.06133 0.86722 0.0
H1077 H 0.04816 0.12867 0.84377 0.0
H1078 H 0.98543 0.10408 0.92251 0.0
H1079 H 0.95328 0.08886 0.90227 0.0
H1080 H 0.9374 0.13504 0.74782 0.0
H1081 H 0.96968 0.1503 0.76553 0.0
C1082 C 0.02669 0.20567 0.05065 0.0
C1083 C 0.01493 0.22099 0.02401 0.0
C1084 C 0.02831 0.18824 0.00874 0.0
C1085 C 0.01815 0.18554 0.9389 0.0
C1086 C 1.00689 0.20113 0.9108 0.0
C1087 C 1.00533 0.21867 0.9528 0.0
C1088 C 0.0182 0.16599 0.89914 0.0
C1089 C 1.00036 0.15668 0.88313 0.0
C1090 C 0.03563 0.15574 0.88317 0.0
C1091 C 0.05499 0.16511 0.89234 0.0
C1092 C 0.05903 0.18307 0.85654 0.0
C1093 C 0.07726 0.19189 0.86552 0.0
C1094 C 0.09161 0.18285 0.90982 0.0
C1095 C 0.08778 0.16493 0.94509 0.0
C1096 C 0.06957 0.15605 0.93633 0.0
C1097 C 1.00664 0.0808 0.72314 0.0
C1098 C 0.01631 0.06625 0.76581 0.0
C1099 C 1.007 0.1004 0.74694 0.0
C1100 C 0.01699 0.10605 0.81436 0.0
C1101 C 0.02689 0.09161 0.85641 0.0
C1102 C 0.02648 0.072 0.83278 0.0
C1103 C 0.01692 0.12685 0.84207 0.0
C1104 C 0.03475 0.13636 0.85583 0.0
C1105 C 0.99948 0.13734 0.85532 0.0
C1106 C 0.98008 0.12819 0.84453 0.0
C1107 C 0.97517 0.11088 0.88352 0.0
C1108 C 0.95693 0.10225 0.87249 0.0
C1109 C 0.94336 0.11092 0.82336 0.0
C1110 C 0.94799 0.12828 0.7854 0.0
C1111 C 0.96626 0.13692 0.79583 0.0
H1112 H 0.92923 0.10424 0.815 0.0
H1113 H 0.10571 0.1897 0.9167 0.0
H1114 H 0.29425 0.96945 0.97849 0.0
H1115 H 0.32606 0.97096 0.91484 0.0
H1116 H 0.33072 0.0319 0.97362 0.0
H1117 H 0.29836 0.03052 0.03345 0.0
H1118 H 0.34783 0.02757 0.84338 0.0
H1119 H 0.35224 0.99219 0.08104 0.0
H1120 H 0.34404 0.96631 0.17448 0.0
H1121 H 0.36252 0.92274 0.0129 0.0
H1122 H 0.37054 0.94827 0.91805 0.0
H1123 H 0.4553 0.02541 0.87062 0.0
H1124 H 0.4212 0.02434 0.91262 0.0
H1125 H 0.40799 0.98324 0.73189 0.0
H1126 H 0.44192 0.98465 0.68796 0.0
H1127 H 0.39581 0.97748 0.92133 0.0
H1128 H 0.38959 0.01456 0.6822 0.0
H1129 H 0.39859 0.04144 0.59449 0.0
H1130 H 0.38527 0.08306 0.77185 0.0
H1131 H 0.37647 0.05634 0.86076 0.0
C1132 C 0.30179 0.98332 0.97545 0.0
C1133 C 0.29357 0.99994 0.00998 0.0
C1134 C 0.32022 0.98412 0.94022 0.0
C1135 C 0.33137 1.00142 0.94092 0.0
C1136 C 0.3227 0.01829 0.97212 0.0
C1137 C 0.30406 0.01756 0.00604 0.0
C1138 C 0.35218 1.00176 0.91207 0.0
C1139 C 0.35823 0.01661 0.86119 0.0
C1140 C 0.36617 0.98755 0.93431 0.0
C1141 C 0.36165 0.97216 0.99184 0.0
C1142 C 0.35438 0.97708 0.06517 0.0
C1143 C 0.3498 0.96248 0.11846 0.0
C1144 C 0.35267 0.94291 0.09955 0.0
C1145 C 0.36022 0.9379 0.02739 0.0
C1146 C 0.36477 0.95244 0.97378 0.0
C1147 C 0.44518 0.01615 0.83949 0.0
C1148 C 0.45154 1.00514 0.77556 0.0
C1149 C 0.42562 0.01558 0.86366 0.0
C1150 C 0.4119 1.00375 0.82552 0.0
C1151 C 0.4182 0.99254 0.76233 0.0
C1152 C 0.43768 0.99341 0.7371 0.0
C1153 C 0.39109 1.00301 0.85233 0.0
C1154 C 0.38522 0.98826 0.90348 0.0
C1155 C 0.37736 0.01739 0.83135 0.0
C1156 C 0.38264 0.03345 0.77824 0.0
C1157 C 0.38881 0.02943 0.70261 0.0
C1158 C 0.39381 0.04463 0.65266 0.0
C1159 C 0.39257 0.06395 0.67768 0.0
C1160 C 0.38627 0.06809 0.75261 0.0
C1161 C 0.38126 0.05292 0.80275 0.0
H1162 H 0.39644 0.07571 0.63894 0.0
H1163 H 0.34912 0.93164 0.14094 0.0
H1164 H 0.48547 0.29779 0.08795 0.0
H1165 H 0.48301 0.33019 0.03121 0.0
H1166 H 0.52266 0.31326 0.85065 0.0
H1167 H 0.52535 0.2807 0.90912 0.0
H1168 H 0.53392 0.34657 0.89897 0.0
H1169 H 0.47048 0.32431 0.82397 0.0
H1170 H 0.43801 0.30965 0.84259 0.0
H1171 H 0.42377 0.35425 0.0069 0.0
H1172 H 0.45624 0.36905 0.98991 0.0
H1173 H 0.52136 0.43668 0.69132 0.0
H1174 H 0.52055 0.40221 0.7289 0.0
H1175 H 0.48896 0.41708 0.93529 0.0
H1176 H 0.48979 0.4515 0.89848 0.0
H1177 H 0.4733 0.38459 0.86668 0.0
H1178 H 0.53703 0.40611 0.94317 0.0
H1179 H 0.56946 0.42081 0.92423 0.0
H1180 H 0.5829 0.37741 0.75385 0.0
H1181 H 0.55043 0.36258 0.77117 0.0
C1182 C 0.49305 0.30071 0.03436 0.0
C1183 C 0.50509 0.28635 0.00176 0.0
C1184 C 0.49179 0.31945 0.002 0.0
C1185 C 0.50254 0.32458 0.9357 0.0
C1186 C 0.51412 0.30996 0.90155 0.0
C1187 C 0.51541 0.29115 0.93419 0.0
C1188 C 0.50264 0.34535 0.90557 0.0
C1189 C 0.52057 0.35465 0.89049 0.0
C1190 C 0.4854 0.35649 0.89606 0.0
C1191 C 0.46584 0.3477 0.90605 0.0
C1192 C 0.46046 0.33092 0.86439 0.0
C1193 C 0.44205 0.3226 0.87461 0.0
C1194 C 0.42885 0.33099 0.926 0.0
C1195 C 0.43401 0.34776 0.96714 0.0
C1196 C 0.4524 0.35614 0.95715 0.0
C1197 C 0.5142 0.43268 0.74474 0.0
C1198 C 0.5057 0.44714 0.79171 0.0
C1199 C 0.51382 0.41286 0.76642 0.0
C1200 C 0.50479 0.4068 0.8355 0.0
C1201 C 0.49602 0.42116 0.88176 0.0
C1202 C 0.49658 0.44098 0.86058 0.0
C1203 C 0.50452 0.38563 0.85985 0.0
C1204 C 0.4866 0.37635 0.87424 0.0
C1205 C 0.52173 0.37448 0.86838 0.0
C1206 C 0.54124 0.38336 0.85792 0.0
C1207 C 0.54685 0.39979 0.90127 0.0
C1208 C 0.56525 0.40812 0.89091 0.0
C1209 C 0.57821 0.40008 0.83772 0.0
C1210 C 0.57283 0.38365 0.79494 0.0
C1211 C 0.55444 0.37526 0.80506 0.0
H1212 H 0.59245 0.40656 0.82977 0.0
H1213 H 0.4146 0.32452 0.93385 0.0
H1214 H 0.2259 0.54157 0.99874 0.0
H1215 H 0.19399 0.53792 0.94245 0.0
H1216 H 0.19877 0.47536 0.96059 0.0
H1217 H 0.23013 0.47931 0.02714 0.0
H1218 H 0.1768 0.52804 0.83543 0.0
H1219 H 0.15623 0.45216 0.95695 0.0
H1220 H 0.16235 0.43183 0.07199 0.0
H1221 H 0.17441 0.48315 0.20592 0.0
H1222 H 0.16858 0.50375 0.09156 0.0
H1223 H 0.08483 0.50643 0.6649 0.0
H1224 H 0.11876 0.50643 0.70832 0.0
H1225 H 0.09956 0.50088 0.9444 0.0
H1226 H 0.06583 0.49996 0.90095 0.0
H1227 H 0.12879 0.48096 0.93897 0.0
H1228 H 0.11656 0.54382 0.84884 0.0
H1229 H 0.10872 0.57212 0.76755 0.0
H1230 H 0.15865 0.56069 0.62632 0.0
H1231 H 0.16575 0.53129 0.70184 0.0
C1232 C 0.22022 0.52694 0.99127 0.0
C1233 C 0.23063 0.51079 0.01985 0.0
C1234 C 0.20178 0.52481 0.95788 0.0
C1235 C 0.19312 0.50634 0.94818 0.0
C1236 C 0.20434 0.48994 0.96985 0.0
C1237 C 0.22268 0.49214 0.0063 0.0
C1238 C 0.17246 0.50474 0.91679 0.0
C1239 C 0.16638 0.51767 0.8583 0.0
C1240 C 0.15826 0.49172 0.94707 0.0
C1241 C 0.1622 0.47943 0.01553 0.0
C1242 C 0.16027 0.45907 0.01092 0.0
C1243 C 0.16374 0.44752 0.07593 0.0
C1244 C 0.16893 0.4562 0.14605 0.0
C1245 C 0.17063 0.47645 0.15135 0.0
C1246 C 0.1673 0.48806 0.08643 0.0
C1247 C 0.08781 0.50514 0.7261 0.0
C1248 C 0.07236 0.50316 0.77912 0.0
C1249 C 0.10736 0.50525 0.75117 0.0
C1250 C 0.11214 0.50386 0.83031 0.0
C1251 C 0.09665 0.50184 0.88306 0.0
C1252 C 0.07717 0.5014 0.85797 0.0
C1253 C 0.13307 0.50456 0.85854 0.0
C1254 C 0.1392 0.49134 0.91595 0.0
C1255 C 0.14694 0.51837 0.83128 0.0
C1256 C 0.14147 0.53497 0.78045 0.0
C1257 C 0.12549 0.54688 0.79879 0.0
C1258 C 0.12112 0.56313 0.7534 0.0
C1259 C 0.13298 0.56804 0.69089 0.0
C1260 C 0.14917 0.55664 0.67348 0.0
C1261 C 0.15324 0.54003 0.71703 0.0
H1262 H 0.12974 0.58078 0.65644 0.0
H1263 H 0.17155 0.44724 0.19638 0.0
H1264 H 0.01133 0.80494 0.24805 0.0
H1265 H 0.01377 0.83583 0.31479 0.0
H1266 H 1.00309 0.80704 0.53212 0.0
H1267 H 0.99925 0.77574 0.46347 0.0
H1268 H 0.98393 0.83923 0.53439 0.0
H1269 H 0.05009 0.82715 0.47429 0.0
H1270 H 0.07839 0.81823 0.3945 0.0
H1271 H 0.06745 0.86682 0.24477 0.0
H1272 H 0.03894 0.8759 0.32309 0.0
H1273 H 0.00942 0.93073 0.72336 0.0
H1274 H 0.00895 0.89665 0.68013 0.0
H1275 H 0.00886 0.91573 0.44312 0.0
H1276 H 0.00923 0.9497 0.48563 0.0
H1277 H 0.03547 0.88698 0.46669 0.0
H1278 H 0.96829 0.89809 0.53335 0.0
H1279 H 0.9413 0.9066 0.62049 0.0
H1280 H 0.95582 0.85863 0.76818 0.0
H1281 H 0.98339 0.85019 0.6835 0.0
C1282 C 0.00951 0.805 0.31018 0.0
C1283 C 1.00489 0.78764 0.34989 0.0
C1284 C 0.01117 0.82285 0.34881 0.0
C1285 C 0.00897 0.82411 0.42937 0.0
C1286 C 1.00493 0.8067 0.47003 0.0
C1287 C 1.00298 0.78868 0.43083 0.0
C1288 C 0.01025 0.84372 0.46919 0.0
C1289 C 0.99547 0.84947 0.52064 0.0
C1290 C 0.02511 0.85747 0.45154 0.0
C1291 C 0.04231 0.85213 0.40437 0.0
C1292 C 0.05366 0.83587 0.4241 0.0
C1293 C 0.06975 0.8308 0.37916 0.0
C1294 C 0.0747 0.84194 0.31456 0.0
C1295 C 0.0636 0.85821 0.29484 0.0
C1296 C 0.04749 0.86334 0.33956 0.0
C1297 C 0.00922 0.92772 0.66196 0.0
C1298 C 0.00934 0.94317 0.60818 0.0
C1299 C 0.00888 0.90813 0.63725 0.0
C1300 C 0.00878 0.90341 0.55806 0.0
C1301 C 0.00894 0.91882 0.50448 0.0
C1302 C 0.00908 0.93835 0.52904 0.0
C1303 C 0.00898 0.88258 0.53024 0.0
C1304 C 0.02408 0.87662 0.48103 0.0
C1305 C 0.99463 0.8686 0.55133 0.0
C1306 C 0.97813 0.87371 0.6026 0.0
C1307 C 0.96594 0.88952 0.58503 0.0
C1308 C 0.95054 0.89433 0.63404 0.0
C1309 C 0.94698 0.88326 0.70024 0.0
C1310 C 0.95876 0.8673 0.71738 0.0
C1311 C 0.9743 0.86252 0.66895 0.0
H1312 H 0.93502 0.88698 0.73802 0.0
H1313 H 0.08716 0.83798 0.27983 0.0
H1314 H 0.73886 0.97982 0.43367 0.0
H1315 H 0.70845 0.97964 0.50863 0.0
H1316 H 0.68986 0.03151 0.38937 0.0
H1317 H 0.72055 0.03265 0.32079 0.0
H1318 H 0.67561 0.03464 0.51703 0.0
H1319 H 0.67731 0.97759 0.34574 0.0
H1320 H 0.69048 0.94599 0.30153 0.0
H1321 H 0.68135 0.92167 0.52672 0.0
H1322 H 0.66853 0.95312 0.57281 0.0
H1323 H 0.57035 0.99058 0.50903 0.0
H1324 H 0.60446 0.9904 0.469 0.0
H1325 H 0.62099 0.01689 0.68505 0.0
H1326 H 0.58681 0.01741 0.72515 0.0
H1327 H 0.63681 0.97364 0.52011 0.0
H1328 H 0.66289 0.0469 0.65098 0.0
H1329 H 0.64887 0.07805 0.69475 0.0
H1330 H 0.60074 0.0703 0.53999 0.0
H1331 H 0.61473 0.03952 0.49326 0.0
C1332 C 0.72853 0.9915 0.42532 0.0
C1333 C 0.73223 1.00606 0.36984 0.0
C1334 C 0.71083 0.99119 0.46718 0.0
C1335 C 0.69611 1.00515 0.45334 0.0
C1336 C 0.70051 0.02035 0.40168 0.0
C1337 C 0.71823 0.02092 0.36167 0.0
C1338 C 0.67594 1.00401 0.48928 0.0
C1339 C 0.66727 0.0212 0.51772 0.0
C1340 C 0.66459 0.98662 0.49124 0.0
C1341 C 0.67215 0.96774 0.46286 0.0
C1342 C 0.6782 0.96551 0.38583 0.0
C1343 C 0.6856 0.94766 0.36047 0.0
C1344 C 0.68674 0.93189 0.41121 0.0
C1345 C 0.68048 0.93391 0.48749 0.0
C1346 C 0.67318 0.95174 0.5133 0.0
C1347 C 0.58117 0.9964 0.54833 0.0
C1348 C 0.57553 1.0041 0.62046 0.0
C1349 C 0.60082 0.99619 0.52534 0.0
C1350 C 0.61558 1.00378 0.5733 0.0
C1351 C 0.61005 0.01118 0.64601 0.0
C1352 C 0.59037 0.01141 0.66909 0.0
C1353 C 0.63653 1.00429 0.54616 0.0
C1354 C 0.64527 0.98702 0.51959 0.0
C1355 C 0.64787 0.02165 0.54514 0.0
C1356 C 0.63972 0.04067 0.56976 0.0
C1357 C 0.64942 0.05196 0.62566 0.0
C1358 C 0.64151 0.0696 0.65077 0.0
C1359 C 0.62393 0.07617 0.62015 0.0
C1360 C 0.61435 0.06523 0.56362 0.0
C1361 C 0.62228 0.04768 0.53776 0.0
H1362 H 0.61773 0.08973 0.64019 0.0
H1363 H 0.69246 0.91809 0.39138 0.0
H1364 H 0.54288 0.73229 0.47512 0.0
H1365 H 0.54047 0.70074 0.5409 0.0
H1366 H 0.48193 0.69372 0.45576 0.0
H1367 H 0.48433 0.7255 0.39073 0.0
H1368 H 0.48492 0.67693 0.59772 0.0
H1369 H 0.51966 0.67392 0.36012 0.0
H1370 H 0.54475 0.68375 0.26606 0.0
H1371 H 0.58959 0.66751 0.42608 0.0
H1372 H 0.56473 0.65794 0.52176 0.0
H1373 H 0.51518 0.56702 0.53822 0.0
H1374 H 0.51503 0.60103 0.49765 0.0
H1375 H 0.50684 0.61907 0.73377 0.0
H1376 H 0.50628 0.58482 0.77469 0.0
H1377 H 0.53627 0.6307 0.5163 0.0
H1378 H 0.48353 0.66298 0.74348 0.0
H1379 H 0.45626 0.65174 0.82489 0.0
H1380 H 0.44255 0.6071 0.65983 0.0
H1381 H 0.46969 0.61803 0.57733 0.0
C1382 C 0.52921 0.72441 0.4732 0.0
C1383 C 0.51363 0.73171 0.42926 0.0
C1384 C 0.52791 0.70616 0.50998 0.0
C1385 C 0.5111 0.69447 0.50277 0.0
C1386 C 0.49507 0.7023 0.46281 0.0
C1387 C 0.49637 0.72061 0.42604 0.0
C1388 C 0.51098 0.67356 0.53036 0.0
C1389 C 0.49624 0.66689 0.58029 0.0
C1390 C 0.52533 0.66002 0.50627 0.0
C1391 C 0.54033 0.66539 0.4484 0.0
C1392 C 0.53487 0.67256 0.37544 0.0
C1393 C 0.54904 0.67808 0.32183 0.0
C1394 C 0.56875 0.67628 0.34014 0.0
C1395 C 0.57431 0.66891 0.41203 0.0
C1396 C 0.56019 0.66344 0.46599 0.0
C1397 C 0.51331 0.57815 0.58193 0.0
C1398 C 0.51064 0.57292 0.66 0.0
C1399 C 0.51329 0.59777 0.55845 0.0
C1400 C 0.5107 0.61298 0.61204 0.0
C1401 C 0.50843 0.60782 0.69046 0.0
C1402 C 0.50821 0.58812 0.71401 0.0
C1403 C 0.5104 0.63402 0.58522 0.0
C1404 C 0.52504 0.64073 0.53479 0.0
C1405 C 0.49561 0.64738 0.60703 0.0
C1406 C 0.47883 0.64116 0.65486 0.0
C1407 C 0.47467 0.6508 0.7245 0.0
C1408 C 0.45926 0.64447 0.77088 0.0
C1409 C 0.44774 0.6287 0.74775 0.0
C1410 C 0.45154 0.61926 0.6779 0.0
C1411 C 0.46696 0.62549 0.63139 0.0
H1412 H 0.43584 0.62382 0.78384 0.0
H1413 H 0.57971 0.68057 0.29858 0.0
H1414 H 0.79562 0.54917 0.41033 0.0
H1415 H 0.82785 0.54603 0.46926 0.0
H1416 H 0.81866 0.48417 0.49361 0.0
H1417 H 0.78635 0.48737 0.43371 0.0
H1418 H 0.84498 0.53498 0.59757 0.0
H1419 H 0.86121 0.46021 0.45632 0.0
H1420 H 0.85034 0.44099 0.34358 0.0
H1421 H 0.83476 0.49357 0.22485 0.0
H1422 H 0.84578 0.51311 0.33633 0.0
H1423 H 0.93663 0.50243 0.74404 0.0
H1424 H 0.90242 0.50423 0.70525 0.0
H1425 H 0.91978 0.51118 0.4677 0.0
H1426 H 0.95398 0.5092 0.50597 0.0
H1427 H 0.88938 0.48813 0.47025 0.0
H1428 H 0.90429 0.54973 0.58069 0.0
H1429 H 0.91603 0.57285 0.67949 0.0
H1430 H 0.87138 0.55359 0.83496 0.0
H1431 H 0.85986 0.5297 0.73789 0.0
C1432 C 0.80018 0.53499 0.43079 0.0
C1433 C 0.78814 0.51859 0.41853 0.0
C1434 C 0.81876 0.53316 0.46414 0.0
C1435 C 0.82612 0.51481 0.48529 0.0
C1436 C 0.81365 0.49851 0.47714 0.0
C1437 C 0.79496 0.50037 0.44394 0.0
C1438 C 0.84714 0.5127 0.51043 0.0
C1439 C 0.85457 0.52456 0.57014 0.0
C1440 C 0.86018 0.49968 0.47338 0.0
C1441 C 0.85408 0.48808 0.40513 0.0
C1442 C 0.85555 0.46767 0.40602 0.0
C1443 C 0.84934 0.45672 0.34237 0.0
C1444 C 0.84173 0.46605 0.27738 0.0
C1445 C 0.84053 0.48636 0.27545 0.0
C1446 C 0.84675 0.49737 0.33884 0.0
C1447 C 0.93325 0.50432 0.68343 0.0
C1448 C 0.94834 0.50575 0.62844 0.0
C1449 C 0.91353 0.50541 0.66118 0.0
C1450 C 0.9082 0.50804 0.58318 0.0
C1451 C 0.92325 0.50913 0.52816 0.0
C1452 C 0.94295 0.50808 0.55036 0.0
C1453 C 0.8871 0.51001 0.55898 0.0
C1454 C 0.87971 0.49828 0.49879 0.0
C1455 C 0.87429 0.52362 0.59386 0.0
C1456 C 0.88131 0.5378 0.65247 0.0
C1457 C 0.89712 0.55022 0.63633 0.0
C1458 C 0.90377 0.56343 0.69203 0.0
C1459 C 0.89454 0.56455 0.76371 0.0
C1460 C 0.87862 0.55251 0.77973 0.0
C1461 C 0.87205 0.53913 0.72451 0.0
H1462 H 0.89966 0.57483 0.80668 0.0
H1463 H 0.83681 0.45754 0.22842 0.0
loop_
_geom_bond_atom_site_label_1
_geom_bond_atom_site_label_2
_geom_bond_distance
_geom_bond_site_symmetry_2
_ccdc_geom_bond_type
H0 C7 0.929 . S
H1 C10 0.930 . S
H2 C12 0.929 . S
H3 C4 0.969 . S
C4 H3 0.969 . S
C4 O5 1.550 . S
C4 H6 0.973 . S
O5 C4 1.550 . S
O5 C11 1.412 . S
H6 C4 0.973 . S
C7 H0 0.929 . S
C7 C8 1.400 . S
C7 C9 1.364 . S
C8 C7 1.400 . S
C8 C12 1.377 . S
C9 C7 1.364 . S
C9 C10 1.374 . S
C10 H1 0.930 . S
C10 C9 1.374 . S
C10 C11 1.383 . S
C11 O5 1.412 . S
C11 C10 1.383 . S
C11 C12 1.394 . S
C12 H2 0.929 . S
C12 C8 1.377 . S
C12 C11 1.394 . S
H13 C20 0.928 . S
H14 C23 0.933 . S
H15 C25 0.928 . S
H16 C17 0.969 . S
C17 H16 0.969 . S
C17 O18 1.550 1_455 S
C17 H19 0.973 1_455 S
O18 C17 1.550 1_655 S
O18 C24 1.414 1_655 S
H19 C17 0.973 1_655 S
C20 H13 0.928 . S
C20 C21 1.400 . S
C20 C22 1.364 . S
C21 C20 1.400 . S
C21 C25 1.377 . S
C22 C20 1.364 . S
C22 C23 1.374 . S
C23 H14 0.933 . S
C23 C22 1.374 . S
C23 C24 1.382 1_655 S
C24 O18 1.414 1_455 S
C24 C23 1.382 1_455 S
C24 C25 1.394 1_455 S
C25 H15 0.928 . S
C25 C21 1.377 . S
C25 C24 1.394 1_655 S
H26 C33 0.928 . S
H27 C36 0.933 . S
H28 C38 0.928 . S
H29 C30 0.969 . S
C30 H29 0.969 . S
C30 O31 1.550 1_545 S
C30 H32 0.973 1_545 S
O31 C30 1.550 1_565 S
O31 C37 1.413 1_565 S
H32 C30 0.973 1_565 S
C33 H26 0.928 . S
C33 C34 1.400 . S
C33 C35 1.364 . S
C34 C33 1.400 . S
C34 C38 1.377 . S
C35 C33 1.364 . S
C35 C36 1.374 . S
C36 H27 0.933 . S
C36 C35 1.374 . S
C36 C37 1.382 1_565 S
C37 O31 1.413 1_545 S
C37 C36 1.382 1_545 S
C37 C38 1.394 1_545 S
C38 H28 0.928 . S
C38 C34 1.377 . S
C38 C37 1.394 1_565 S
H39 C46 0.929 . S
H40 C49 0.930 . S
H41 C51 0.929 . S
H42 C43 0.969 . S
C43 H42 0.969 . S
C43 O44 1.550 . S
C43 H45 0.973 . S
O44 C43 1.550 . S
O44 C50 1.412 . S
H45 C43 0.973 . S
C46 H39 0.929 . S
C46 C47 1.400 . S
C46 C48 1.364 . S
C47 C46 1.400 . S
C47 C51 1.377 . S
C48 C46 1.364 . S
C48 C49 1.374 . S
C49 H40 0.930 . S
C49 C48 1.374 . S
C49 C50 1.383 . S
C50 O44 1.412 . S
C50 C49 1.383 . S
C50 C51 1.394 . S
C51 H41 0.929 . S
C51 C47 1.377 . S
C51 C50 1.394 . S
H52 C59 0.929 . S
H53 C62 0.930 . S
H54 C64 0.929 . S
H55 C56 0.969 . S
C56 H55 0.969 . S
C56 O57 1.550 . S
C56 H58 0.973 . S
O57 C56 1.550 . S
O57 C63 1.412 . S
H58 C56 0.973 . S
C59 H52 0.929 . S
C59 C60 1.400 1_554 S
C59 C61 1.364 . S
C60 C59 1.400 1_556 S
C60 C64 1.377 . S
C61 C59 1.364 . S
C61 C62 1.374 . S
C62 H53 0.930 . S
C62 C61 1.374 . S
C62 C63 1.383 . S
C63 O57 1.412 . S
C63 C62 1.383 . S
C63 C64 1.394 1_554 S
C64 H54 0.929 . S
C64 C60 1.377 . S
C64 C63 1.394 1_556 S
H65 C72 0.928 . S
H66 C75 0.930 1_655 S
H67 C77 0.928 . S
H68 C69 0.969 . S
C69 H68 0.969 . S
C69 O70 1.550 1_455 S
C69 H71 0.973 1_455 S
O70 C69 1.550 1_655 S
O70 C76 1.412 1_655 S
H71 C69 0.973 1_655 S
C72 H65 0.928 . S
C72 C73 1.400 1_554 S
C72 C74 1.364 . S
C73 C72 1.400 1_556 S
C73 C77 1.377 . S
C74 C72 1.364 . S
C74 C75 1.374 . S
C75 H66 0.930 1_455 S
C75 C74 1.374 . S
C75 C76 1.384 . S
C76 O70 1.412 1_455 S
C76 C75 1.384 . S
C76 C77 1.396 1_554 S
C77 H67 0.928 . S
C77 C73 1.377 . S
C77 C76 1.396 1_556 S
H78 C85 0.928 . S
H79 C88 0.930 1_565 S
H80 C90 0.928 . S
H81 C82 0.969 . S
C82 H81 0.969 . S
C82 O83 1.550 1_545 S
C82 H84 0.973 1_545 S
O83 C82 1.550 1_565 S
O83 C89 1.412 1_565 S
H84 C82 0.973 1_565 S
C85 H78 0.928 . S
C85 C86 1.400 1_554 S
C85 C87 1.364 . S
C86 C85 1.400 1_556 S
C86 C90 1.377 . S
C87 C85 1.364 . S
C87 C88 1.374 . S
C88 H79 0.930 1_545 S
C88 C87 1.374 . S
C88 C89 1.384 . S
C89 O83 1.412 1_545 S
C89 C88 1.384 . S
C89 C90 1.396 1_554 S
C90 H80 0.928 . S
C90 C86 1.377 . S
C90 C89 1.396 1_556 S
H91 C98 0.929 . S
H92 C101 0.930 . S
H93 C103 0.929 . S
H94 C95 0.969 . S
C95 H94 0.969 . S
C95 O96 1.550 . S
C95 H97 0.973 . S
O96 C95 1.550 . S
O96 C102 1.412 . S
H97 C95 0.973 . S
C98 H91 0.929 . S
C98 C99 1.400 1_554 S
C98 C100 1.364 . S
C99 C98 1.400 1_556 S
C99 C103 1.377 . S
C100 C98 1.364 . S
C100 C101 1.374 . S
C101 H92 0.930 . S
C101 C100 1.374 . S
C101 C102 1.383 . S
C102 O96 1.412 . S
C102 C101 1.383 . S
C102 C103 1.394 1_554 S
C103 H93 0.929 . S
C103 C99 1.377 . S
C103 C102 1.394 1_556 S
Pr104 C106 2.880 . S
Pr104 O124 2.566 . S
Pr104 O125 2.490 . S
Pr104 O126 2.695 1_565 S
Pr104 O127 2.512 . S
Pr104 O129 2.437 . S
Pr104 O132 2.436 1_455 S
Pr104 O134 2.438 1_565 S
Pr105 C115 2.880 . S
Pr105 O126 2.436 1_655 S
Pr105 O128 2.438 1_545 S
Pr105 O130 2.561 . S
Pr105 O131 2.490 . S
Pr105 O132 2.695 1_545 S
Pr105 O133 2.512 . S
Pr105 O135 2.437 . S
C106 Pr104 2.880 . S
C106 C107 1.491 . S
C106 O124 1.262 . S
C106 O125 1.225 . S
C107 C106 1.491 . S
C107 C108 1.392 . S
C107 C112 1.356 . S
C108 C107 1.392 . S
C108 C109 1.368 . S
C108 H136 0.929 . S
C109 C108 1.368 . S
C109 C110 1.386 . S
C109 H137 0.929 . S
C110 C109 1.386 . S
C110 C111 1.373 . S
C111 C110 1.373 . S
C111 C112 1.409 . S
C111 H138 0.931 1_455 S
C112 C107 1.356 . S
C112 C111 1.409 . S
C112 H139 0.930 1_455 S
C113 O126 1.255 1_565 S
C113 O127 1.276 . S
C114 O128 1.267 . S
C114 O129 1.278 1_655 S
C115 Pr105 2.880 . S
C115 C116 1.491 . S
C115 O130 1.250 . S
C115 O131 1.225 . S
C116 C115 1.491 . S
C116 C117 1.392 . S
C116 C121 1.356 . S
C117 C116 1.392 . S
C117 C118 1.368 . S
C117 H140 0.929 . S
C118 C117 1.368 . S
C118 C119 1.386 . S
C118 H141 0.929 . S
C119 C118 1.386 . S
C119 C120 1.373 . S
C120 C119 1.373 . S
C120 C121 1.409 . S
C120 H142 0.931 1_655 S
C121 C116 1.356 . S
C121 C120 1.409 . S
C121 H143 0.930 1_655 S
C122 O132 1.270 1_545 S
C122 O133 1.248 . S
C123 O134 1.267 . S
C123 O135 1.278 1_455 S
O124 Pr104 2.566 . S
O124 C106 1.262 . S
O125 Pr104 2.490 . S
O125 C106 1.225 . S
O126 Pr104 2.695 1_545 S
O126 Pr105 2.436 1_455 S
O126 C113 1.255 1_545 S
O127 Pr104 2.512 . S
O127 C113 1.276 . S
O128 Pr105 2.438 1_565 S
O128 C114 1.267 . S
O129 Pr104 2.437 . S
O129 C114 1.278 1_455 S
O130 Pr105 2.561 . S
O130 C115 1.250 . S
O131 Pr105 2.490 . S
O131 C115 1.225 . S
O132 Pr104 2.436 1_655 S
O132 Pr105 2.695 1_565 S
O132 C122 1.270 1_565 S
O133 Pr105 2.512 . S
O133 C122 1.248 . S
O134 Pr104 2.438 1_545 S
O134 C123 1.267 . S
O135 Pr105 2.437 . S
O135 C123 1.278 1_655 S
H136 C108 0.929 . S
H137 C109 0.929 . S
H138 C111 0.931 1_655 S
H139 C112 0.930 1_655 S
H140 C117 0.929 . S
H141 C118 0.929 . S
H142 C120 0.931 1_455 S
H143 C121 0.930 1_455 S
Pr144 C146 2.880 . S
Pr144 O164 2.566 . S
Pr144 O165 2.490 . S
Pr144 O166 2.695 . S
Pr144 O167 2.512 . S
Pr144 O169 2.437 . S
Pr144 O172 2.436 1_545 S
Pr144 O174 2.438 . S
Pr145 C155 2.880 . S
Pr145 O166 2.436 1_565 S
Pr145 O168 2.438 . S
Pr145 O170 2.561 . S
Pr145 O171 2.490 . S
Pr145 O172 2.695 . S
Pr145 O173 2.512 . S
Pr145 O175 2.437 . S
C146 Pr144 2.880 . S
C146 C147 1.491 . S
C146 O164 1.262 . S
C146 O165 1.225 . S
C147 C146 1.491 . S
C147 C148 1.392 . S
C147 C152 1.356 . S
C148 C147 1.392 . S
C148 C149 1.368 . S
C148 H176 0.929 . S
C149 C148 1.368 . S
C149 C150 1.386 . S
C149 H177 0.929 . S
C150 C149 1.386 . S
C150 C151 1.373 . S
C151 C150 1.373 . S
C151 C152 1.409 . S
C151 H178 0.931 1_545 S
C152 C147 1.356 . S
C152 C151 1.409 . S
C152 H179 0.930 1_545 S
C153 O166 1.270 . S
C153 O167 1.248 . S
C154 O168 1.267 . S
C154 O169 1.278 1_565 S
C155 Pr145 2.880 . S
C155 C156 1.491 . S
C155 O170 1.250 . S
C155 O171 1.225 . S
C156 C155 1.491 . S
C156 C157 1.392 . S
C156 C161 1.356 . S
C157 C156 1.392 . S
C157 C158 1.368 . S
C157 H180 0.929 . S
C158 C157 1.368 . S
C158 C159 1.386 . S
C158 H181 0.929 . S
C159 C158 1.386 . S
C159 C160 1.373 . S
C160 C159 1.373 . S
C160 C161 1.409 . S
C160 H182 0.931 1_565 S
C161 C156 1.356 . S
C161 C160 1.409 . S
C161 H183 0.930 1_565 S
C162 O172 1.270 . S
C162 O173 1.248 . S
C163 O174 1.267 . S
C163 O175 1.278 1_545 S
O164 Pr144 2.566 . S
O164 C146 1.262 . S
O165 Pr144 2.490 . S
O165 C146 1.225 . S
O166 Pr144 2.695 . S
O166 Pr145 2.436 1_545 S
O166 C153 1.270 . S
O167 Pr144 2.512 . S
O167 C153 1.248 . S
O168 Pr145 2.438 . S
O168 C154 1.267 . S
O169 Pr144 2.437 . S
O169 C154 1.278 1_545 S
O170 Pr145 2.561 . S
O170 C155 1.250 . S
O171 Pr145 2.490 . S
O171 C155 1.225 . S
O172 Pr144 2.436 1_565 S
O172 Pr145 2.695 . S
O172 C162 1.270 . S
O173 Pr145 2.512 . S
O173 C162 1.248 . S
O174 Pr144 2.438 . S
O174 C163 1.267 . S
O175 Pr145 2.437 . S
O175 C163 1.278 1_565 S
H176 C148 0.929 . S
H177 C149 0.929 . S
H178 C151 0.931 1_565 S
H179 C152 0.930 1_565 S
H180 C157 0.929 . S
H181 C158 0.929 . S
H182 C160 0.931 1_545 S
H183 C161 0.930 1_545 S
Pr184 C186 2.880 . S
Pr184 O204 2.562 . S
Pr184 O205 2.490 . S
Pr184 O206 2.695 . S
Pr184 O207 2.512 . S
Pr184 O209 2.437 . S
Pr184 O212 2.436 . S
Pr184 O214 2.438 . S
Pr185 C195 2.880 . S
Pr185 O206 2.436 . S
Pr185 O208 2.438 . S
Pr185 O210 2.562 . S
Pr185 O211 2.490 . S
Pr185 O212 2.695 . S
Pr185 O213 2.512 . S
Pr185 O215 2.437 . S
C186 Pr184 2.880 . S
C186 C187 1.491 . S
C186 O204 1.254 . S
C186 O205 1.225 . S
C187 C186 1.491 . S
C187 C188 1.392 . S
C187 C192 1.356 . S
C188 C187 1.392 . S
C188 C189 1.368 . S
C188 H216 0.929 . S
C189 C188 1.368 . S
C189 C190 1.386 . S
C189 H217 0.929 . S
C190 C189 1.386 . S
C190 C191 1.373 . S
C191 C190 1.373 . S
C191 C192 1.409 . S
C191 H218 0.931 . S
C192 C187 1.356 . S
C192 C191 1.409 . S
C192 H219 0.930 . S
C193 O206 1.270 . S
C193 O207 1.248 . S
C194 O208 1.267 . S
C194 O209 1.278 . S
C195 Pr185 2.880 . S
C195 C196 1.491 . S
C195 O210 1.254 . S
C195 O211 1.225 . S
C196 C195 1.491 . S
C196 C197 1.392 . S
C196 C201 1.356 . S
C197 C196 1.392 . S
C197 C198 1.368 . S
C197 H220 0.929 . S
C198 C197 1.368 . S
C198 C199 1.386 . S
C198 H221 0.929 . S
C199 C198 1.386 . S
C199 C200 1.373 . S
C200 C199 1.373 . S
C200 C201 1.409 . S
C200 H222 0.931 . S
C201 C196 1.356 . S
C201 C200 1.409 . S
C201 H223 0.930 . S
C202 O212 1.270 . S
C202 O213 1.248 . S
C203 O214 1.267 . S
C203 O215 1.278 . S
O204 Pr184 2.562 . S
O204 C186 1.254 . S
O205 Pr184 2.490 . S
O205 C186 1.225 . S
O206 Pr184 2.695 . S
O206 Pr185 2.436 . S
O206 C193 1.270 . S
O207 Pr184 2.512 . S
O207 C193 1.248 . S
O208 Pr185 2.438 . S
O208 C194 1.267 . S
O209 Pr184 2.437 . S
O209 C194 1.278 . S
O210 Pr185 2.562 . S
O210 C195 1.254 . S
O211 Pr185 2.490 . S
O211 C195 1.225 . S
O212 Pr184 2.436 . S
O212 Pr185 2.695 . S
O212 C202 1.270 . S
O213 Pr185 2.512 . S
O213 C202 1.248 . S
O214 Pr184 2.438 . S
O214 C203 1.267 . S
O215 Pr185 2.437 . S
O215 C203 1.278 . S
H216 C188 0.929 . S
H217 C189 0.929 . S
H218 C191 0.931 . S
H219 C192 0.930 . S
H220 C197 0.929 . S
H221 C198 0.929 . S
H222 C200 0.931 . S
H223 C201 0.930 . S
Pr224 C226 2.880 . S
Pr224 O244 2.562 . S
Pr224 O245 2.490 . S
Pr224 O246 2.695 1_655 S
Pr224 O247 2.512 . S
Pr224 O249 2.437 . S
Pr224 O252 2.436 . S
Pr224 O254 2.438 1_655 S
Pr225 C235 2.880 . S
Pr225 O246 2.436 . S
Pr225 O248 2.438 1_455 S
Pr225 O250 2.562 . S
Pr225 O251 2.490 . S
Pr225 O252 2.695 1_455 S
Pr225 O253 2.512 . S
Pr225 O255 2.437 . S
C226 Pr224 2.880 . S
C226 C227 1.491 . S
C226 O244 1.254 . S
C226 O245 1.225 . S
C227 C226 1.491 . S
C227 C228 1.392 . S
C227 C232 1.356 . S
C228 C227 1.392 . S
C228 C229 1.368 . S
C228 H256 0.929 . S
C229 C228 1.368 . S
C229 C230 1.386 . S
C229 H257 0.929 . S
C230 C229 1.386 . S
C230 C231 1.373 . S
C231 C230 1.373 . S
C231 C232 1.409 . S
C231 H258 0.931 . S
C232 C227 1.356 . S
C232 C231 1.409 . S
C232 H259 0.930 . S
C233 O246 1.254 1_655 S
C233 O247 1.276 . S
C234 O248 1.267 . S
C234 O249 1.278 . S
C235 Pr225 2.880 . S
C235 C236 1.491 . S
C235 O250 1.254 . S
C235 O251 1.225 . S
C236 C235 1.491 . S
C236 C237 1.392 . S
C236 C241 1.356 . S
C237 C236 1.392 . S
C237 C238 1.368 . S
C237 H260 0.929 . S
C238 C237 1.368 . S
C238 C239 1.386 . S
C238 H261 0.929 . S
C239 C238 1.386 . S
C239 C240 1.373 . S
C240 C239 1.373 . S
C240 C241 1.409 . S
C240 H262 0.931 . S
C241 C236 1.356 . S
C241 C240 1.409 . S
C241 H263 0.930 . S
C242 O252 1.270 1_455 S
C242 O253 1.248 . S
C243 O254 1.267 . S
C243 O255 1.278 . S
O244 Pr224 2.562 . S
O244 C226 1.254 . S
O245 Pr224 2.490 . S
O245 C226 1.225 . S
O246 Pr224 2.695 1_455 S
O246 Pr225 2.436 . S
O246 C233 1.254 1_455 S
O247 Pr224 2.512 . S
O247 C233 1.276 . S
O248 Pr225 2.438 1_655 S
O248 C234 1.267 . S
O249 Pr224 2.437 . S
O249 C234 1.278 . S
O250 Pr225 2.562 . S
O250 C235 1.254 . S
O251 Pr225 2.490 . S
O251 C235 1.225 . S
O252 Pr224 2.436 . S
O252 Pr225 2.695 1_655 S
O252 C242 1.270 1_655 S
O253 Pr225 2.512 . S
O253 C242 1.248 . S
O254 Pr224 2.438 1_455 S
O254 C243 1.267 . S
O255 Pr225 2.437 . S
O255 C243 1.278 . S
H256 C228 0.929 . S
H257 C229 0.929 . S
H258 C231 0.931 . S
H259 C232 0.930 . S
H260 C237 0.929 . S
H261 C238 0.929 . S
H262 C240 0.931 . S
H263 C241 0.930 . S
H264 C282 0.951 . S
H265 C284 0.951 . S
H266 C286 0.950 . S
H267 C287 0.950 . S
H268 C289 0.950 . S
H269 C292 0.950 . S
H270 C293 0.950 . S
H271 C295 0.950 . S
H272 C296 0.950 . S
H273 C297 0.951 . S
H274 C299 0.951 . S
H275 C301 0.950 . S
H276 C302 0.950 . S
H277 C304 0.950 . S
H278 C307 0.950 . S
H279 C308 0.950 . S
H280 C310 0.950 . S
H281 C311 0.950 . S
C282 H264 0.951 . S
C282 C283 1.381 . S
C282 C284 1.388 . S
C283 C282 1.381 . S
C283 C287 1.370 1_545 S
C284 H265 0.951 . S
C284 C282 1.388 . S
C284 C285 1.365 1_545 S
C285 C284 1.365 1_565 S
C285 C286 1.415 . S
C285 C288 1.499 . S
C286 H266 0.950 . S
C286 C285 1.415 . S
C286 C287 1.374 . S
C287 H267 0.950 . S
C287 C283 1.370 1_565 S
C287 C286 1.374 . S
C288 C285 1.499 . S
C288 C289 1.366 1_565 S
C288 C290 1.396 . S
C289 H268 0.950 . S
C289 C288 1.366 1_545 S
C289 C305 1.377 . S
C290 C288 1.396 . S
C290 C291 1.524 . S
C290 C304 1.377 . S
C291 C290 1.524 . S
C291 C292 1.397 . S
C291 C296 1.363 . S
C292 H269 0.950 . S
C292 C291 1.397 . S
C292 C293 1.334 . S
C293 H270 0.950 . S
C293 C292 1.334 . S
C293 C294 1.287 . S
C294 C293 1.287 . S
C294 C295 1.524 . S
C294 H313 0.913 . S
C295 H271 0.950 . S
C295 C294 1.524 . S
C295 C296 1.415 . S
C296 H272 0.950 . S
C296 C291 1.363 . S
C296 C295 1.415 . S
C297 H273 0.951 . S
C297 C298 1.366 1_565 S
C297 C299 1.388 . S
C298 C297 1.366 1_545 S
C298 C302 1.385 . S
C299 H274 0.951 . S
C299 C297 1.388 . S
C299 C300 1.366 1_565 S
C300 C299 1.366 1_545 S
C300 C301 1.414 . S
C300 C303 1.499 . S
C301 H275 0.950 . S
C301 C300 1.414 . S
C301 C302 1.374 . S
C302 H276 0.950 . S
C302 C298 1.385 . S
C302 C301 1.374 . S
C303 C300 1.499 . S
C303 C304 1.373 1_545 S
C303 C305 1.389 . S
C304 H277 0.950 . S
C304 C290 1.377 . S
C304 C303 1.373 1_565 S
C305 C289 1.377 . S
C305 C303 1.389 . S
C305 C306 1.524 . S
C306 C305 1.524 . S
C306 C307 1.397 . S
C306 C311 1.363 . S
C307 H278 0.950 . S
C307 C306 1.397 . S
C307 C308 1.334 . S
C308 H279 0.950 . S
C308 C307 1.334 . S
C308 C309 1.287 . S
C309 C308 1.287 . S
C309 C310 1.524 . S
C309 H312 0.999 . S
C310 H280 0.950 . S
C310 C309 1.524 . S
C310 C311 1.415 . S
C311 H281 0.950 . S
C311 C306 1.363 . S
C311 C310 1.415 . S
H312 C309 0.999 . S
H313 C294 0.913 . S
H314 C332 0.951 . S
H315 C334 0.951 . S
H316 C336 0.950 . S
H317 C337 0.950 . S
H318 C339 0.950 . S
H319 C342 0.950 . S
H320 C343 0.950 . S
H321 C345 0.950 . S
H322 C346 0.950 . S
H323 C347 0.951 . S
H324 C349 0.951 . S
H325 C351 0.950 . S
H326 C352 0.950 . S
H327 C354 0.950 . S
H328 C357 0.950 . S
H329 C358 0.950 . S
H330 C360 0.950 . S
H331 C361 0.950 . S
C332 H314 0.951 . S
C332 C333 1.366 . S
C332 C334 1.388 . S
C333 C332 1.366 . S
C333 C337 1.385 . S
C334 H315 0.951 . S
C334 C332 1.388 . S
C334 C335 1.366 . S
C335 C334 1.366 . S
C335 C336 1.414 . S
C335 C338 1.499 . S
C336 H316 0.950 . S
C336 C335 1.414 . S
C336 C337 1.374 . S
C337 H317 0.950 . S
C337 C333 1.385 . S
C337 C336 1.374 . S
C338 C335 1.499 . S
C338 C339 1.373 . S
C338 C340 1.389 . S
C339 H318 0.950 . S
C339 C338 1.373 . S
C339 C355 1.377 . S
C340 C338 1.389 . S
C340 C341 1.524 . S
C340 C354 1.377 . S
C341 C340 1.524 . S
C341 C342 1.397 . S
C341 C346 1.363 . S
C342 H319 0.950 . S
C342 C341 1.397 . S
C342 C343 1.334 . S
C343 H320 0.950 . S
C343 C342 1.334 . S
C343 C344 1.287 . S
C344 C343 1.287 . S
C344 C345 1.524 . S
C344 H363 0.913 . S
C345 H321 0.950 . S
C345 C344 1.524 . S
C345 C346 1.415 . S
C346 H322 0.950 . S
C346 C341 1.363 . S
C346 C345 1.415 . S
C347 H323 0.951 . S
C347 C348 1.366 . S
C347 C349 1.388 . S
C348 C347 1.366 . S
C348 C352 1.385 . S
C349 H324 0.951 . S
C349 C347 1.388 . S
C349 C350 1.366 . S
C350 C349 1.366 . S
C350 C351 1.414 . S
C350 C353 1.499 . S
C351 H325 0.950 . S
C351 C350 1.414 . S
C351 C352 1.374 . S
C352 H326 0.950 . S
C352 C348 1.385 . S
C352 C351 1.374 . S
C353 C350 1.499 . S
C353 C354 1.373 . S
C353 C355 1.389 . S
C354 H327 0.950 . S
C354 C340 1.377 . S
C354 C353 1.373 . S
C355 C339 1.377 . S
C355 C353 1.389 . S
C355 C356 1.524 . S
C356 C355 1.524 . S
C356 C357 1.397 . S
C356 C361 1.363 . S
C357 H328 0.950 . S
C357 C356 1.397 . S
C357 C358 1.334 . S
C358 H329 0.950 . S
C358 C357 1.334 . S
C358 C359 1.287 . S
C359 C358 1.287 . S
C359 C360 1.524 . S
C359 H362 0.999 . S
C360 H330 0.950 . S
C360 C359 1.524 . S
C360 C361 1.415 . S
C361 H331 0.950 . S
C361 C356 1.363 . S
C361 C360 1.415 . S
H362 C359 0.999 . S
H363 C344 0.913 . S
H364 C382 0.951 . S
H365 C384 0.951 . S
H366 C386 0.950 . S
H367 C387 0.950 . S
H368 C389 0.950 . S
H369 C392 0.950 . S
H370 C393 0.950 . S
H371 C395 0.950 . S
H372 C396 0.950 . S
H373 C397 0.951 . S
H374 C399 0.951 . S
H375 C401 0.950 . S
H376 C402 0.950 . S
H377 C404 0.950 . S
H378 C407 0.950 . S
H379 C408 0.950 . S
H380 C410 0.950 . S
H381 C411 0.950 . S
C382 H364 0.951 . S
C382 C383 1.366 . S
C382 C384 1.388 . S
C383 C382 1.366 . S
C383 C387 1.385 . S
C384 H365 0.951 . S
C384 C382 1.388 . S
C384 C385 1.366 . S
C385 C384 1.366 . S
C385 C386 1.414 . S
C385 C388 1.499 . S
C386 H366 0.950 . S
C386 C385 1.414 . S
C386 C387 1.374 . S
C387 H367 0.950 . S
C387 C383 1.385 . S
C387 C386 1.374 . S
C388 C385 1.499 . S
C388 C389 1.373 . S
C388 C390 1.389 . S
C389 H368 0.950 . S
C389 C388 1.373 . S
C389 C405 1.377 . S
C390 C388 1.389 . S
C390 C391 1.524 . S
C390 C404 1.377 . S
C391 C390 1.524 . S
C391 C392 1.397 . S
C391 C396 1.363 . S
C392 H369 0.950 . S
C392 C391 1.397 . S
C392 C393 1.334 . S
C393 H370 0.950 . S
C393 C392 1.334 . S
C393 C394 1.287 . S
C394 C393 1.287 . S
C394 C395 1.524 . S
C394 H413 0.913 . S
C395 H371 0.950 . S
C395 C394 1.524 . S
C395 C396 1.415 . S
C396 H372 0.950 . S
C396 C391 1.363 . S
C396 C395 1.415 . S
C397 H373 0.951 . S
C397 C398 1.366 . S
C397 C399 1.388 . S
C398 C397 1.366 . S
C398 C402 1.385 . S
C399 H374 0.951 . S
C399 C397 1.388 . S
C399 C400 1.366 . S
C400 C399 1.366 . S
C400 C401 1.414 . S
C400 C403 1.499 . S
C401 H375 0.950 . S
C401 C400 1.414 . S
C401 C402 1.374 . S
C402 H376 0.950 . S
C402 C398 1.385 . S
C402 C401 1.374 . S
C403 C400 1.499 . S
C403 C404 1.373 . S
C403 C405 1.389 . S
C404 H377 0.950 . S
C404 C390 1.377 . S
C404 C403 1.373 . S
C405 C389 1.377 . S
C405 C403 1.389 . S
C405 C406 1.524 . S
C406 C405 1.524 . S
C406 C407 1.397 . S
C406 C411 1.363 . S
C407 H378 0.950 . S
C407 C406 1.397 . S
C407 C408 1.334 . S
C408 H379 0.950 . S
C408 C407 1.334 . S
C408 C409 1.287 . S
C409 C408 1.287 . S
C409 C410 1.524 . S
C409 H412 0.999 . S
C410 H380 0.950 . S
C410 C409 1.524 . S
C410 C411 1.415 . S
C411 H381 0.950 . S
C411 C406 1.363 . S
C411 C410 1.415 . S
H412 C409 0.999 . S
H413 C394 0.913 . S
H414 C432 0.951 . S
H415 C434 0.951 . S
H416 C436 0.950 . S
H417 C437 0.950 . S
H418 C439 0.950 . S
H419 C442 0.950 . S
H420 C443 0.950 . S
H421 C445 0.950 . S
H422 C446 0.950 . S
H423 C447 0.951 . S
H424 C449 0.951 . S
H425 C451 0.950 . S
H426 C452 0.950 . S
H427 C454 0.950 . S
H428 C457 0.950 . S
H429 C458 0.950 . S
H430 C460 0.950 . S
H431 C461 0.950 . S
C432 H414 0.951 . S
C432 C433 1.335 1_655 S
C432 C434 1.388 . S
C433 C432 1.335 1_455 S
C433 C437 1.417 . S
C434 H415 0.951 . S
C434 C432 1.388 . S
C434 C435 1.366 1_655 S
C435 C434 1.366 1_455 S
C435 C436 1.414 . S
C435 C438 1.499 . S
C436 H416 0.950 . S
C436 C435 1.414 . S
C436 C437 1.374 . S
C437 H417 0.950 . S
C437 C433 1.417 . S
C437 C436 1.374 . S
C438 C435 1.499 . S
C438 C439 1.373 . S
C438 C440 1.389 1_455 S
C439 H418 0.950 . S
C439 C438 1.373 . S
C439 C455 1.377 . S
C440 C438 1.389 1_655 S
C440 C441 1.524 . S
C440 C454 1.377 . S
C441 C440 1.524 . S
C441 C442 1.397 1_655 S
C441 C446 1.363 . S
C442 H419 0.950 . S
C442 C441 1.397 1_455 S
C442 C443 1.334 . S
C443 H420 0.950 . S
C443 C442 1.334 . S
C443 C444 1.296 . S
C444 C443 1.296 . S
C444 C445 1.513 1_455 S
C444 H463 0.906 1_554 S
C445 H421 0.950 . S
C445 C444 1.513 1_655 S
C445 C446 1.415 . S
C446 H422 0.950 . S
C446 C441 1.363 . S
C446 C445 1.415 . S
C447 H423 0.951 . S
C447 C448 1.366 . S
C447 C449 1.388 . S
C448 C447 1.366 . S
C448 C452 1.385 1_455 S
C449 H424 0.951 . S
C449 C447 1.388 . S
C449 C450 1.388 . S
C450 C449 1.388 . S
C450 C451 1.392 1_455 S
C450 C453 1.498 1_455 S
C451 H425 0.950 . S
C451 C450 1.392 1_655 S
C451 C452 1.374 . S
C452 H426 0.950 . S
C452 C448 1.385 1_655 S
C452 C451 1.374 . S
C453 C450 1.498 1_655 S
C453 C454 1.373 . S
C453 C455 1.390 1_655 S
C454 H427 0.950 . S
C454 C440 1.377 . S
C454 C453 1.373 . S
C455 C439 1.377 . S
C455 C453 1.390 1_455 S
C455 C456 1.524 . S
C456 C455 1.524 . S
C456 C457 1.397 1_455 S
C456 C461 1.363 . S
C457 H428 0.950 . S
C457 C456 1.397 1_655 S
C457 C458 1.334 . S
C458 H429 0.950 . S
C458 C457 1.334 . S
C458 C459 1.287 1_655 S
C459 C458 1.287 1_455 S
C459 C460 1.524 . S
C459 H462 0.999 . S
C460 H430 0.950 . S
C460 C459 1.524 . S
C460 C461 1.415 . S
C461 H431 0.950 . S
C461 C456 1.363 . S
C461 C460 1.415 . S
H462 C459 0.999 . S
H463 C444 0.906 1_556 S
H464 C482 0.951 . S
H465 C484 0.951 . S
H466 C486 0.950 . S
H467 C487 0.950 . S
H468 C489 0.950 . S
H469 C492 0.950 . S
H470 C493 0.950 . S
H471 C495 0.950 . S
H472 C496 0.950 . S
H473 C497 0.951 . S
H474 C499 0.951 . S
H475 C501 0.950 1_554 S
H476 C502 0.950 . S
H477 C504 0.950 . S
H478 C507 0.950 . S
H479 C508 0.950 . S
H480 C510 0.950 . S
H481 C511 0.950 . S
C482 H464 0.951 . S
C482 C483 1.377 . S
C482 C484 1.388 . S
C483 C482 1.377 . S
C483 C487 1.373 1_565 S
C484 H465 0.951 . S
C484 C482 1.388 . S
C484 C485 1.360 1_565 S
C485 C484 1.360 1_545 S
C485 C486 1.419 . S
C485 C488 1.499 . S
C486 H466 0.950 . S
C486 C485 1.419 . S
C486 C487 1.374 . S
C487 H467 0.950 . S
C487 C483 1.373 1_545 S
C487 C486 1.374 . S
C488 C485 1.499 . S
C488 C489 1.361 1_545 S
C488 C490 1.400 . S
C489 H468 0.950 . S
C489 C488 1.361 1_565 S
C489 C505 1.377 1_554 S
C490 C488 1.400 . S
C490 C491 1.524 . S
C490 C504 1.377 . S
C491 C490 1.524 . S
C491 C492 1.397 . S
C491 C496 1.363 . S
C492 H469 0.950 . S
C492 C491 1.397 . S
C492 C493 1.334 . S
C493 H470 0.950 . S
C493 C492 1.334 . S
C493 C494 1.287 . S
C494 C493 1.287 . S
C494 C495 1.524 . S
C494 H513 0.913 . S
C495 H471 0.950 . S
C495 C494 1.524 . S
C495 C496 1.415 . S
C496 H472 0.950 . S
C496 C491 1.363 . S
C496 C495 1.415 . S
C497 H473 0.951 . S
C497 C498 1.366 1_545 S
C497 C499 1.388 . S
C498 C497 1.366 1_565 S
C498 C502 1.385 . S
C499 H474 0.951 . S
C499 C497 1.388 . S
C499 C500 1.366 1_545 S
C500 C499 1.366 1_565 S
C500 C501 1.414 . S
C500 C503 1.499 . S
C501 H475 0.950 1_556 S
C501 C500 1.414 . S
C501 C502 1.374 . S
C502 H476 0.950 . S
C502 C498 1.385 . S
C502 C501 1.374 . S
C503 C500 1.499 . S
C503 C504 1.373 1_566 S
C503 C505 1.389 . S
C504 H477 0.950 . S
C504 C490 1.377 . S
C504 C503 1.373 1_544 S
C505 C489 1.377 1_556 S
C505 C503 1.389 . S
C505 C506 1.524 . S
C506 C505 1.524 . S
C506 C507 1.397 . S
C506 C511 1.363 . S
C507 H478 0.950 . S
C507 C506 1.397 . S
C507 C508 1.334 . S
C508 H479 0.950 . S
C508 C507 1.334 . S
C508 C509 1.287 . S
C509 C508 1.287 . S
C509 C510 1.524 . S
C509 H512 0.999 . S
C510 H480 0.950 . S
C510 C509 1.524 . S
C510 C511 1.415 . S
C511 H481 0.950 . S
C511 C506 1.363 . S
C511 C510 1.415 . S
H512 C509 0.999 . S
H513 C494 0.913 . S
H514 C532 0.951 . S
H515 C534 0.951 . S
H516 C536 0.950 . S
H517 C537 0.950 . S
H518 C539 0.950 . S
H519 C542 0.950 . S
H520 C543 0.950 . S
H521 C545 0.950 . S
H522 C546 0.950 1_556 S
H523 C547 0.951 . S
H524 C549 0.951 . S
H525 C551 0.950 . S
H526 C552 0.950 . S
H527 C554 0.950 1_556 S
H528 C557 0.950 . S
H529 C558 0.950 . S
H530 C560 0.950 . S
H531 C561 0.950 . S
C532 H514 0.951 . S
C532 C533 1.366 . S
C532 C534 1.388 . S
C533 C532 1.366 . S
C533 C537 1.385 . S
C534 H515 0.951 . S
C534 C532 1.388 . S
C534 C535 1.366 . S
C535 C534 1.366 . S
C535 C536 1.414 . S
C535 C538 1.499 . S
C536 H516 0.950 . S
C536 C535 1.414 . S
C536 C537 1.374 . S
C537 H517 0.950 . S
C537 C533 1.385 . S
C537 C536 1.374 . S
C538 C535 1.499 . S
C538 C539 1.373 . S
C538 C540 1.389 . S
C539 H518 0.950 . S
C539 C538 1.373 . S
C539 C555 1.377 . S
C540 C538 1.389 . S
C540 C541 1.524 . S
C540 C554 1.377 . S
C541 C540 1.524 . S
C541 C542 1.397 . S
C541 C546 1.363 . S
C542 H519 0.950 . S
C542 C541 1.397 . S
C542 C543 1.334 . S
C543 H520 0.950 . S
C543 C542 1.334 . S
C543 C544 1.287 . S
C544 C543 1.287 . S
C544 C545 1.524 . S
C544 H563 0.913 . S
C545 H521 0.950 . S
C545 C544 1.524 . S
C545 C546 1.415 . S
C546 H522 0.950 1_554 S
C546 C541 1.363 . S
C546 C545 1.415 . S
C547 H523 0.951 . S
C547 C548 1.366 . S
C547 C549 1.388 . S
C548 C547 1.366 . S
C548 C552 1.385 . S
C549 H524 0.951 . S
C549 C547 1.388 . S
C549 C550 1.366 . S
C550 C549 1.366 . S
C550 C551 1.414 . S
C550 C553 1.499 . S
C551 H525 0.950 . S
C551 C550 1.414 . S
C551 C552 1.374 . S
C552 H526 0.950 . S
C552 C548 1.385 . S
C552 C551 1.374 . S
C553 C550 1.499 . S
C553 C554 1.373 1_556 S
C553 C555 1.389 1_556 S
C554 H527 0.950 1_554 S
C554 C540 1.377 . S
C554 C553 1.373 1_554 S
C555 C539 1.377 . S
C555 C553 1.389 1_554 S
C555 C556 1.524 1_554 S
C556 C555 1.524 1_556 S
C556 C557 1.397 . S
C556 C561 1.363 1_556 S
C557 H528 0.950 . S
C557 C556 1.397 . S
C557 C558 1.334 . S
C558 H529 0.950 . S
C558 C557 1.334 . S
C558 C559 1.287 . S
C559 C558 1.287 . S
C559 C560 1.524 1_556 S
C559 H562 0.999 . S
C560 H530 0.950 . S
C560 C559 1.524 1_554 S
C560 C561 1.415 . S
C561 H531 0.950 . S
C561 C556 1.363 1_554 S
C561 C560 1.415 . S
H562 C559 0.999 . S
H563 C544 0.913 . S
H564 C582 0.951 . S
H565 C584 0.951 . S
H566 C586 0.950 . S
H567 C587 0.950 . S
H568 C589 0.950 . S
H569 C592 0.950 . S
H570 C593 0.950 . S
H571 C595 0.950 . S
H572 C596 0.950 . S
H573 C597 0.951 . S
H574 C599 0.951 . S
H575 C601 0.950 1_554 S
H576 C602 0.950 . S
H577 C604 0.950 . S
H578 C607 0.950 . S
H579 C608 0.950 . S
H580 C610 0.950 . S
H581 C611 0.950 . S
C582 H564 0.951 . S
C582 C583 1.366 . S
C582 C584 1.388 . S
C583 C582 1.366 . S
C583 C587 1.385 . S
C584 H565 0.951 . S
C584 C582 1.388 . S
C584 C585 1.366 . S
C585 C584 1.366 . S
C585 C586 1.414 . S
C585 C588 1.499 . S
C586 H566 0.950 . S
C586 C585 1.414 . S
C586 C587 1.374 . S
C587 H567 0.950 . S
C587 C583 1.385 . S
C587 C586 1.374 . S
C588 C585 1.499 . S
C588 C589 1.373 . S
C588 C590 1.389 . S
C589 H568 0.950 . S
C589 C588 1.373 . S
C589 C605 1.377 1_554 S
C590 C588 1.389 . S
C590 C591 1.524 . S
C590 C604 1.377 . S
C591 C590 1.524 . S
C591 C592 1.397 . S
C591 C596 1.363 . S
C592 H569 0.950 . S
C592 C591 1.397 . S
C592 C593 1.334 . S
C593 H570 0.950 . S
C593 C592 1.334 . S
C593 C594 1.287 . S
C594 C593 1.287 . S
C594 C595 1.524 . S
C594 H613 0.913 . S
C595 H571 0.950 . S
C595 C594 1.524 . S
C595 C596 1.415 . S
C596 H572 0.950 . S
C596 C591 1.363 . S
C596 C595 1.415 . S
C597 H573 0.951 . S
C597 C598 1.366 . S
C597 C599 1.388 . S
C598 C597 1.366 . S
C598 C602 1.385 . S
C599 H574 0.951 . S
C599 C597 1.388 . S
C599 C600 1.366 . S
C600 C599 1.366 . S
C600 C601 1.414 . S
C600 C603 1.499 . S
C601 H575 0.950 1_556 S
C601 C600 1.414 . S
C601 C602 1.374 . S
C602 H576 0.950 . S
C602 C598 1.385 . S
C602 C601 1.374 . S
C603 C600 1.499 . S
C603 C604 1.373 1_556 S
C603 C605 1.389 . S
C604 H577 0.950 . S
C604 C590 1.377 . S
C604 C603 1.373 1_554 S
C605 C589 1.377 1_556 S
C605 C603 1.389 . S
C605 C606 1.524 . S
C606 C605 1.524 . S
C606 C607 1.397 . S
C606 C611 1.363 . S
C607 H578 0.950 . S
C607 C606 1.397 . S
C607 C608 1.334 . S
C608 H579 0.950 . S
C608 C607 1.334 . S
C608 C609 1.287 . S
C609 C608 1.287 . S
C609 C610 1.524 . S
C609 H612 0.999 . S
C610 H580 0.950 . S
C610 C609 1.524 . S
C610 C611 1.415 . S
C611 H581 0.950 . S
C611 C606 1.363 . S
C611 C610 1.415 . S
H612 C609 0.999 . S
H613 C594 0.913 . S
H614 C632 0.951 . S
H615 C634 0.951 . S
H616 C636 0.950 . S
H617 C637 0.950 . S
H618 C639 0.950 . S
H619 C642 0.950 . S
H620 C643 0.950 . S
H621 C645 0.950 . S
H622 C646 0.950 . S
H623 C647 0.951 . S
H624 C649 0.951 . S
H625 C651 0.950 1_554 S
H626 C652 0.950 . S
H627 C654 0.950 . S
H628 C657 0.950 . S
H629 C658 0.950 . S
H630 C660 0.950 . S
H631 C661 0.950 . S
C632 H614 0.951 . S
C632 C633 1.378 . S
C632 C634 1.388 . S
C633 C632 1.378 . S
C633 C637 1.372 1_655 S
C634 H615 0.951 . S
C634 C632 1.388 . S
C634 C635 1.362 1_655 S
C635 C634 1.362 1_455 S
C635 C636 1.417 . S
C635 C638 1.499 . S
C636 H616 0.950 . S
C636 C635 1.417 . S
C636 C637 1.374 . S
C637 H617 0.950 . S
C637 C633 1.372 1_455 S
C637 C636 1.374 . S
C638 C635 1.499 . S
C638 C639 1.363 1_455 S
C638 C640 1.399 . S
C639 H618 0.950 . S
C639 C638 1.363 1_655 S
C639 C655 1.377 1_554 S
C640 C638 1.399 . S
C640 C641 1.524 . S
C640 C654 1.377 . S
C641 C640 1.524 . S
C641 C642 1.397 . S
C641 C646 1.363 . S
C642 H619 0.950 . S
C642 C641 1.397 . S
C642 C643 1.334 . S
C643 H620 0.950 . S
C643 C642 1.334 . S
C643 C644 1.287 . S
C644 C643 1.287 . S
C644 C645 1.524 . S
C644 H663 0.913 . S
C645 H621 0.950 . S
C645 C644 1.524 . S
C645 C646 1.415 . S
C646 H622 0.950 . S
C646 C641 1.363 . S
C646 C645 1.415 . S
C647 H623 0.951 . S
C647 C648 1.366 1_455 S
C647 C649 1.388 . S
C648 C647 1.366 1_655 S
C648 C652 1.385 . S
C649 H624 0.951 . S
C649 C647 1.388 . S
C649 C650 1.366 1_455 S
C650 C649 1.366 1_655 S
C650 C651 1.414 . S
C650 C653 1.499 . S
C651 H625 0.950 1_556 S
C651 C650 1.414 . S
C651 C652 1.374 . S
C652 H626 0.950 . S
C652 C648 1.385 . S
C652 C651 1.374 . S
C653 C650 1.499 . S
C653 C654 1.373 1_656 S
C653 C655 1.389 . S
C654 H627 0.950 . S
C654 C640 1.377 . S
C654 C653 1.373 1_454 S
C655 C639 1.377 1_556 S
C655 C653 1.389 . S
C655 C656 1.524 . S
C656 C655 1.524 . S
C656 C657 1.397 . S
C656 C661 1.363 . S
C657 H628 0.950 . S
C657 C656 1.397 . S
C657 C658 1.334 . S
C658 H629 0.950 . S
C658 C657 1.334 . S
C658 C659 1.287 . S
C659 C658 1.287 . S
C659 C660 1.524 . S
C659 H662 0.999 . S
C660 H630 0.950 . S
C660 C659 1.524 . S
C660 C661 1.415 . S
C661 H631 0.950 . S
C661 C656 1.363 . S
C661 C660 1.415 . S
H662 C659 0.999 . S
H663 C644 0.913 . S
H664 C682 0.951 . S
H665 C684 0.951 . S
H666 C686 0.950 . S
H667 C687 0.950 . S
H668 C689 0.950 . S
H669 C692 0.950 . S
H670 C693 0.950 . S
H671 C695 0.950 . S
H672 C696 0.950 . S
H673 C697 0.951 . S
H674 C699 0.951 . S
H675 C701 0.950 . S
H676 C702 0.950 . S
H677 C704 0.950 . S
H678 C707 0.950 . S
H679 C708 0.950 . S
H680 C710 0.950 . S
H681 C711 0.950 . S
C682 H664 0.951 . S
C682 C683 1.366 1_655 S
C682 C684 1.388 . S
C683 C682 1.366 1_455 S
C683 C687 1.385 . S
C684 H665 0.951 . S
C684 C682 1.388 . S
C684 C685 1.366 . S
C685 C684 1.366 . S
C685 C686 1.414 1_655 S
C685 C688 1.499 . S
C686 H666 0.950 . S
C686 C685 1.414 1_455 S
C686 C687 1.374 . S
C687 H667 0.950 . S
C687 C683 1.385 . S
C687 C686 1.374 . S
C688 C685 1.499 . S
C688 C689 1.373 1_655 S
C688 C690 1.389 . S
C689 H668 0.950 . S
C689 C688 1.373 1_455 S
C689 C705 1.377 . S
C690 C688 1.389 . S
C690 C691 1.524 . S
C690 C704 1.377 . S
C691 C690 1.524 . S
C691 C692 1.397 . S
C691 C696 1.363 . S
C692 H669 0.950 . S
C692 C691 1.397 . S
C692 C693 1.334 . S
C693 H670 0.950 . S
C693 C692 1.334 . S
C693 C694 1.287 . S
C694 C693 1.287 . S
C694 C695 1.524 . S
C694 H713 0.913 . S
C695 H671 0.950 . S
C695 C694 1.524 . S
C695 C696 1.415 . S
C696 H672 0.950 . S
C696 C691 1.363 . S
C696 C695 1.415 . S
C697 H673 0.951 . S
C697 C698 1.366 . S
C697 C699 1.388 . S
C698 C697 1.366 . S
C698 C702 1.385 . S
C699 H674 0.951 . S
C699 C697 1.388 . S
C699 C700 1.366 . S
C700 C699 1.366 . S
C700 C701 1.414 . S
C700 C703 1.499 . S
C701 H675 0.950 . S
C701 C700 1.414 . S
C701 C702 1.374 . S
C702 H676 0.950 . S
C702 C698 1.385 . S
C702 C701 1.374 . S
C703 C700 1.499 . S
C703 C704 1.373 . S
C703 C705 1.389 1_655 S
C704 H677 0.950 . S
C704 C690 1.377 . S
C704 C703 1.373 . S
C705 C689 1.377 . S
C705 C703 1.389 1_455 S
C705 C706 1.524 . S
C706 C705 1.524 . S
C706 C707 1.397 . S
C706 C711 1.363 . S
C707 H678 0.950 . S
C707 C706 1.397 . S
C707 C708 1.334 . S
C708 H679 0.950 . S
C708 C707 1.334 . S
C708 C709 1.287 . S
C709 C708 1.287 . S
C709 C710 1.524 . S
C709 H712 0.999 . S
C710 H680 0.950 . S
C710 C709 1.524 . S
C710 C711 1.415 . S
C711 H681 0.950 . S
C711 C706 1.363 . S
C711 C710 1.415 . S
H712 C709 0.999 . S
H713 C694 0.913 . S
H714 C732 0.951 . S
H715 C734 0.951 . S
H716 C736 0.950 . S
H717 C737 0.950 . S
H718 C739 0.950 . S
H719 C742 0.950 . S
H720 C743 0.950 . S
H721 C745 0.950 . S
H722 C746 0.950 . S
H723 C747 0.951 . S
H724 C749 0.951 . S
H725 C751 0.950 1_545 S
H726 C752 0.950 . S
H727 C754 0.950 . S
H728 C757 0.950 . S
H729 C758 0.950 . S
H730 C760 0.950 . S
H731 C761 0.950 . S
C732 H714 0.951 . S
C732 C733 1.366 . S
C732 C734 1.388 . S
C733 C732 1.366 . S
C733 C737 1.385 1_545 S
C734 H715 0.951 . S
C734 C732 1.388 . S
C734 C735 1.366 1_545 S
C735 C734 1.366 1_565 S
C735 C736 1.414 . S
C735 C738 1.499 . S
C736 H716 0.950 . S
C736 C735 1.414 . S
C736 C737 1.374 . S
C737 H717 0.950 . S
C737 C733 1.385 1_565 S
C737 C736 1.374 . S
C738 C735 1.499 . S
C738 C739 1.373 . S
C738 C740 1.389 1_565 S
C739 H718 0.950 . S
C739 C738 1.373 . S
C739 C755 1.377 . S
C740 C738 1.389 1_545 S
C740 C741 1.524 . S
C740 C754 1.377 . S
C741 C740 1.524 . S
C741 C742 1.397 . S
C741 C746 1.363 . S
C742 H719 0.950 . S
C742 C741 1.397 . S
C742 C743 1.334 . S
C743 H720 0.950 . S
C743 C742 1.334 . S
C743 C744 1.287 . S
C744 C743 1.287 . S
C744 C745 1.524 . S
C744 H763 0.913 . S
C745 H721 0.950 . S
C745 C744 1.524 . S
C745 C746 1.415 . S
C746 H722 0.950 . S
C746 C741 1.363 . S
C746 C745 1.415 . S
C747 H723 0.951 . S
C747 C748 1.366 . S
C747 C749 1.388 . S
C748 C747 1.366 . S
C748 C752 1.385 . S
C749 H724 0.951 . S
C749 C747 1.388 . S
C749 C750 1.366 . S
C750 C749 1.366 . S
C750 C751 1.414 . S
C750 C753 1.499 . S
C751 H725 0.950 1_565 S
C751 C750 1.414 . S
C751 C752 1.374 . S
C752 H726 0.950 . S
C752 C748 1.385 . S
C752 C751 1.374 . S
C753 C750 1.499 . S
C753 C754 1.373 1_565 S
C753 C755 1.389 . S
C754 H727 0.950 . S
C754 C740 1.377 . S
C754 C753 1.373 1_545 S
C755 C739 1.377 . S
C755 C753 1.389 . S
C755 C756 1.524 . S
C756 C755 1.524 . S
C756 C757 1.397 . S
C756 C761 1.363 . S
C757 H728 0.950 . S
C757 C756 1.397 . S
C757 C758 1.334 . S
C758 H729 0.950 . S
C758 C757 1.334 . S
C758 C759 1.287 . S
C759 C758 1.287 . S
C759 C760 1.524 . S
C759 H762 0.999 . S
C760 H730 0.950 . S
C760 C759 1.524 . S
C760 C761 1.415 . S
C761 H731 0.950 . S
C761 C756 1.363 . S
C761 C760 1.415 . S
H762 C759 0.999 . S
H763 C744 0.913 . S
H764 C782 0.951 . S
H765 C784 0.951 . S
H766 C786 0.950 . S
H767 C787 0.950 . S
H768 C789 0.950 . S
H769 C792 0.950 . S
H770 C793 0.950 . S
H771 C795 0.950 . S
H772 C796 0.950 . S
H773 C797 0.951 . S
H774 C799 0.951 . S
H775 C801 0.950 . S
H776 C802 0.950 . S
H777 C804 0.950 . S
H778 C807 0.950 . S
H779 C808 0.950 . S
H780 C810 0.950 . S
H781 C811 0.950 . S
C782 H764 0.951 . S
C782 C783 1.366 . S
C782 C784 1.388 . S
C783 C782 1.366 . S
C783 C787 1.385 . S
C784 H765 0.951 . S
C784 C782 1.388 . S
C784 C785 1.366 . S
C785 C784 1.366 . S
C785 C786 1.414 . S
C785 C788 1.499 . S
C786 H766 0.950 . S
C786 C785 1.414 . S
C786 C787 1.374 . S
C787 H767 0.950 . S
C787 C783 1.385 . S
C787 C786 1.374 . S
C788 C785 1.499 . S
C788 C789 1.373 . S
C788 C790 1.389 . S
C789 H768 0.950 . S
C789 C788 1.373 . S
C789 C805 1.377 . S
C790 C788 1.389 . S
C790 C791 1.524 . S
C790 C804 1.377 . S
C791 C790 1.524 . S
C791 C792 1.397 . S
C791 C796 1.363 . S
C792 H769 0.950 . S
C792 C791 1.397 . S
C792 C793 1.334 . S
C793 H770 0.950 . S
C793 C792 1.334 . S
C793 C794 1.287 . S
C794 C793 1.287 . S
C794 C795 1.524 . S
C794 H813 0.913 . S
C795 H771 0.950 . S
C795 C794 1.524 . S
C795 C796 1.415 . S
C796 H772 0.950 . S
C796 C791 1.363 . S
C796 C795 1.415 . S
C797 H773 0.951 . S
C797 C798 1.366 . S
C797 C799 1.388 . S
C798 C797 1.366 . S
C798 C802 1.385 . S
C799 H774 0.951 . S
C799 C797 1.388 . S
C799 C800 1.366 . S
C800 C799 1.366 . S
C800 C801 1.414 . S
C800 C803 1.499 . S
C801 H775 0.950 . S
C801 C800 1.414 . S
C801 C802 1.374 . S
C802 H776 0.950 . S
C802 C798 1.385 . S
C802 C801 1.374 . S
C803 C800 1.499 . S
C803 C804 1.373 . S
C803 C805 1.389 . S
C804 H777 0.950 . S
C804 C790 1.377 . S
C804 C803 1.373 . S
C805 C789 1.377 . S
C805 C803 1.389 . S
C805 C806 1.524 . S
C806 C805 1.524 . S
C806 C807 1.397 . S
C806 C811 1.363 . S
C807 H778 0.950 . S
C807 C806 1.397 . S
C807 C808 1.334 . S
C808 H779 0.950 . S
C808 C807 1.334 . S
C808 C809 1.287 . S
C809 C808 1.287 . S
C809 C810 1.524 . S
C809 H812 0.999 . S
C810 H780 0.950 . S
C810 C809 1.524 . S
C810 C811 1.415 . S
C811 H781 0.950 . S
C811 C806 1.363 . S
C811 C810 1.415 . S
H812 C809 0.999 . S
H813 C794 0.913 . S
H814 C832 0.951 . S
H815 C834 0.951 . S
H816 C836 0.950 . S
H817 C837 0.950 . S
H818 C839 0.950 . S
H819 C842 0.950 . S
H820 C843 0.950 . S
H821 C845 0.950 . S
H822 C846 0.950 . S
H823 C847 0.951 . S
H824 C849 0.951 . S
H825 C851 0.950 . S
H826 C852 0.950 . S
H827 C854 0.950 . S
H828 C857 0.950 . S
H829 C858 0.950 . S
H830 C860 0.950 . S
H831 C861 0.950 . S
C832 H814 0.951 . S
C832 C833 1.366 . S
C832 C834 1.388 . S
C833 C832 1.366 . S
C833 C837 1.385 . S
C834 H815 0.951 . S
C834 C832 1.388 . S
C834 C835 1.366 . S
C835 C834 1.366 . S
C835 C836 1.414 . S
C835 C838 1.499 . S
C836 H816 0.950 . S
C836 C835 1.414 . S
C836 C837 1.374 . S
C837 H817 0.950 . S
C837 C833 1.385 . S
C837 C836 1.374 . S
C838 C835 1.499 . S
C838 C839 1.373 . S
C838 C840 1.389 . S
C839 H818 0.950 . S
C839 C838 1.373 . S
C839 C855 1.377 . S
C840 C838 1.389 . S
C840 C841 1.524 . S
C840 C854 1.377 . S
C841 C840 1.524 . S
C841 C842 1.397 . S
C841 C846 1.363 . S
C842 H819 0.950 . S
C842 C841 1.397 . S
C842 C843 1.334 . S
C843 H820 0.950 . S
C843 C842 1.334 . S
C843 C844 1.287 . S
C844 C843 1.287 . S
C844 C845 1.524 . S
C844 H863 0.913 . S
C845 H821 0.950 . S
C845 C844 1.524 . S
C845 C846 1.415 . S
C846 H822 0.950 . S
C846 C841 1.363 . S
C846 C845 1.415 . S
C847 H823 0.951 . S
C847 C848 1.366 . S
C847 C849 1.388 . S
C848 C847 1.366 . S
C848 C852 1.385 . S
C849 H824 0.951 . S
C849 C847 1.388 . S
C849 C850 1.366 . S
C850 C849 1.366 . S
C850 C851 1.414 . S
C850 C853 1.499 . S
C851 H825 0.950 . S
C851 C850 1.414 . S
C851 C852 1.374 . S
C852 H826 0.950 . S
C852 C848 1.385 . S
C852 C851 1.374 . S
C853 C850 1.499 . S
C853 C854 1.373 . S
C853 C855 1.389 . S
C854 H827 0.950 . S
C854 C840 1.377 . S
C854 C853 1.373 . S
C855 C839 1.377 . S
C855 C853 1.389 . S
C855 C856 1.524 . S
C856 C855 1.524 . S
C856 C857 1.397 . S
C856 C861 1.363 . S
C857 H828 0.950 . S
C857 C856 1.397 . S
C857 C858 1.334 . S
C858 H829 0.950 . S
C858 C857 1.334 . S
C858 C859 1.287 . S
C859 C858 1.287 . S
C859 C860 1.524 . S
C859 H862 0.999 . S
C860 H830 0.950 . S
C860 C859 1.524 . S
C860 C861 1.415 . S
C861 H831 0.950 . S
C861 C856 1.363 . S
C861 C860 1.415 . S
H862 C859 0.999 . S
H863 C844 0.913 . S
H864 C882 0.951 . S
H865 C884 0.947 1_655 S
H866 C886 0.950 . S
H867 C887 0.950 . S
H868 C889 0.923 1_655 S
H869 C892 0.950 . S
H870 C893 0.950 . S
H871 C895 0.950 . S
H872 C896 0.950 1_556 S
H873 C897 0.951 . S
H874 C899 0.951 . S
H875 C901 0.950 . S
H876 C902 0.950 . S
H877 C904 0.950 . S
H878 C907 0.950 . S
H879 C908 0.950 . S
H880 C910 0.950 . S
H881 C911 0.950 . S
C882 H864 0.951 . S
C882 C883 1.366 . S
C882 C884 1.381 1_655 S
C883 C882 1.366 . S
C883 C887 1.385 1_655 S
C884 H865 0.947 1_455 S
C884 C882 1.381 1_455 S
C884 C885 1.376 . S
C885 C884 1.376 . S
C885 C886 1.414 . S
C885 C888 1.499 . S
C886 H866 0.950 . S
C886 C885 1.414 . S
C886 C887 1.374 . S
C887 H867 0.950 . S
C887 C883 1.385 1_455 S
C887 C886 1.374 . S
C888 C885 1.499 . S
C888 C889 1.397 . S
C888 C890 1.389 . S
C889 H868 0.923 1_455 S
C889 C888 1.397 . S
C889 C905 1.382 . S
C890 C888 1.389 . S
C890 C891 1.524 . S
C890 C904 1.377 . S
C891 C890 1.524 . S
C891 C892 1.397 . S
C891 C896 1.363 . S
C892 H869 0.950 . S
C892 C891 1.397 . S
C892 C893 1.334 . S
C893 H870 0.950 . S
C893 C892 1.334 . S
C893 C894 1.287 . S
C894 C893 1.287 . S
C894 C895 1.524 1_554 S
C894 H913 0.913 . S
C895 H871 0.950 . S
C895 C894 1.524 1_556 S
C895 C896 1.415 1_556 S
C896 H872 0.950 1_554 S
C896 C891 1.363 . S
C896 C895 1.415 1_554 S
C897 H873 0.951 . S
C897 C898 1.366 1_554 S
C897 C899 1.388 . S
C898 C897 1.366 1_556 S
C898 C902 1.385 . S
C899 H874 0.951 . S
C899 C897 1.388 . S
C899 C900 1.366 . S
C900 C899 1.366 . S
C900 C901 1.414 1_554 S
C900 C903 1.499 . S
C901 H875 0.950 . S
C901 C900 1.414 1_556 S
C901 C902 1.374 . S
C902 H876 0.950 . S
C902 C898 1.385 . S
C902 C901 1.374 . S
C903 C900 1.499 . S
C903 C904 1.373 . S
C903 C905 1.389 . S
C904 H877 0.950 . S
C904 C890 1.377 . S
C904 C903 1.373 . S
C905 C889 1.382 . S
C905 C903 1.389 . S
C905 C906 1.524 1_455 S
C906 C905 1.524 1_655 S
C906 C907 1.397 . S
C906 C911 1.363 . S
C907 H878 0.950 . S
C907 C906 1.397 . S
C907 C908 1.334 . S
C908 H879 0.950 . S
C908 C907 1.334 . S
C908 C909 1.287 . S
C909 C908 1.287 . S
C909 C910 1.524 . S
C909 H912 0.999 . S
C910 H880 0.950 . S
C910 C909 1.524 . S
C910 C911 1.415 . S
C911 H881 0.950 . S
C911 C906 1.363 . S
C911 C910 1.415 . S
H912 C909 0.999 . S
H913 C894 0.913 . S
H914 C932 0.951 . S
H915 C934 0.951 . S
H916 C936 0.950 . S
H917 C937 0.950 . S
H918 C939 0.950 . S
H919 C942 0.950 . S
H920 C943 0.950 . S
H921 C945 0.950 . S
H922 C946 0.956 1_545 S
H923 C947 0.951 . S
H924 C949 0.951 . S
H925 C951 0.950 . S
H926 C952 0.950 . S
H927 C954 0.950 . S
H928 C957 0.950 1_554 S
H929 C958 0.950 . S
H930 C960 0.950 . S
H931 C961 0.950 . S
C932 H914 0.951 . S
C932 C933 1.366 1_545 S
C932 C934 1.388 . S
C933 C932 1.366 1_565 S
C933 C937 1.385 . S
C934 H915 0.951 . S
C934 C932 1.388 . S
C934 C935 1.366 . S
C935 C934 1.366 . S
C935 C936 1.414 1_545 S
C935 C938 1.499 . S
C936 H916 0.950 . S
C936 C935 1.414 1_565 S
C936 C937 1.374 . S
C937 H917 0.950 . S
C937 C933 1.385 . S
C937 C936 1.374 . S
C938 C935 1.499 . S
C938 C939 1.373 . S
C938 C940 1.389 . S
C939 H918 0.950 . S
C939 C938 1.373 . S
C939 C955 1.377 . S
C940 C938 1.389 . S
C940 C941 1.524 1_545 S
C940 C954 1.377 . S
C941 C940 1.524 1_565 S
C941 C942 1.397 . S
C941 C946 1.361 . S
C942 H919 0.950 . S
C942 C941 1.397 . S
C942 C943 1.334 . S
C943 H920 0.950 . S
C943 C942 1.334 . S
C943 C944 1.287 . S
C944 C943 1.287 . S
C944 C945 1.524 . S
C944 H963 0.913 . S
C945 H921 0.950 . S
C945 C944 1.524 . S
C945 C946 1.412 . S
C946 H922 0.956 1_565 S
C946 C941 1.361 . S
C946 C945 1.412 . S
C947 H923 0.951 . S
C947 C948 1.366 . S
C947 C949 1.388 . S
C948 C947 1.366 . S
C948 C952 1.385 1_556 S
C949 H924 0.951 . S
C949 C947 1.388 . S
C949 C950 1.366 1_556 S
C950 C949 1.366 1_554 S
C950 C951 1.414 . S
C950 C953 1.499 . S
C951 H925 0.950 . S
C951 C950 1.414 . S
C951 C952 1.374 . S
C952 H926 0.950 . S
C952 C948 1.385 1_554 S
C952 C951 1.374 . S
C953 C950 1.499 . S
C953 C954 1.373 . S
C953 C955 1.389 . S
C954 H927 0.950 . S
C954 C940 1.377 . S
C954 C953 1.373 . S
C955 C939 1.377 . S
C955 C953 1.389 . S
C955 C956 1.524 1_554 S
C956 C955 1.524 1_556 S
C956 C957 1.397 . S
C956 C961 1.363 . S
C957 H928 0.950 1_556 S
C957 C956 1.397 . S
C957 C958 1.334 . S
C958 H929 0.950 . S
C958 C957 1.334 . S
C958 C959 1.287 . S
C959 C958 1.287 . S
C959 C960 1.524 . S
C959 H962 0.999 . S
C960 H930 0.950 . S
C960 C959 1.524 . S
C960 C961 1.415 . S
C961 H931 0.950 . S
C961 C956 1.363 . S
C961 C960 1.415 . S
H962 C959 0.999 . S
H963 C944 0.913 . S
H964 C982 0.951 . S
H965 C984 0.951 . S
H966 C986 0.950 . S
H967 C987 0.950 . S
H968 C989 0.950 . S
H969 C992 0.950 . S
H970 C993 0.950 . S
H971 C995 0.950 . S
H972 C996 0.950 . S
H973 C997 0.951 . S
H974 C999 0.951 1_556 S
H975 C1001 0.950 . S
H976 C1002 0.950 . S
H977 C1004 0.950 . S
H978 C1007 0.950 . S
H979 C1008 0.950 . S
H980 C1010 0.950 . S
H981 C1011 0.950 . S
C982 H964 0.951 . S
C982 C983 1.366 . S
C982 C984 1.388 . S
C983 C982 1.366 . S
C983 C987 1.385 . S
C984 H965 0.951 . S
C984 C982 1.388 . S
C984 C985 1.366 . S
C985 C984 1.366 . S
C985 C986 1.414 . S
C985 C988 1.499 . S
C986 H966 0.950 . S
C986 C985 1.414 . S
C986 C987 1.374 . S
C987 H967 0.950 . S
C987 C983 1.385 . S
C987 C986 1.374 . S
C988 C985 1.499 . S
C988 C989 1.373 . S
C988 C990 1.389 . S
C989 H968 0.950 . S
C989 C988 1.373 . S
C989 C1005 1.377 . S
C990 C988 1.389 . S
C990 C991 1.524 . S
C990 C1004 1.377 . S
C991 C990 1.524 . S
C991 C992 1.397 . S
C991 C996 1.363 . S
C992 H969 0.950 . S
C992 C991 1.397 . S
C992 C993 1.334 . S
C993 H970 0.950 . S
C993 C992 1.334 . S
C993 C994 1.287 . S
C994 C993 1.287 . S
C994 C995 1.524 . S
C994 H1013 0.913 . S
C995 H971 0.950 . S
C995 C994 1.524 . S
C995 C996 1.415 . S
C996 H972 0.950 . S
C996 C991 1.363 . S
C996 C995 1.415 . S
C997 H973 0.951 . S
C997 C998 1.366 . S
C997 C999 1.388 1_556 S
C998 C997 1.366 . S
C998 C1002 1.385 1_556 S
C999 H974 0.951 1_554 S
C999 C997 1.388 1_554 S
C999 C1000 1.366 . S
C1000 C999 1.366 . S
C1000 C1001 1.414 . S
C1000 C1003 1.499 . S
C1001 H975 0.950 . S
C1001 C1000 1.414 . S
C1001 C1002 1.374 . S
C1002 H976 0.950 . S
C1002 C998 1.385 1_554 S
C1002 C1001 1.374 . S
C1003 C1000 1.499 . S
C1003 C1004 1.373 . S
C1003 C1005 1.389 . S
C1004 H977 0.950 . S
C1004 C990 1.377 . S
C1004 C1003 1.373 . S
C1005 C989 1.377 . S
C1005 C1003 1.389 . S
C1005 C1006 1.524 . S
C1006 C1005 1.524 . S
C1006 C1007 1.397 . S
C1006 C1011 1.363 . S
C1007 H978 0.950 . S
C1007 C1006 1.397 . S
C1007 C1008 1.334 . S
C1008 H979 0.950 . S
C1008 C1007 1.334 . S
C1008 C1009 1.287 . S
C1009 C1008 1.287 . S
C1009 C1010 1.524 . S
C1009 H1012 0.999 . S
C1010 H980 0.950 . S
C1010 C1009 1.524 . S
C1010 C1011 1.415 . S
C1011 H981 0.950 . S
C1011 C1006 1.363 . S
C1011 C1010 1.415 . S
H1012 C1009 0.999 . S
H1013 C994 0.913 . S
H1014 C1032 0.951 . S
H1015 C1034 0.951 . S
H1016 C1036 0.950 . S
H1017 C1037 0.950 . S
H1018 C1039 0.950 . S
H1019 C1042 0.950 . S
H1020 C1043 0.950 . S
H1021 C1045 0.950 . S
H1022 C1046 0.950 . S
H1023 C1047 0.951 . S
H1024 C1049 0.951 . S
H1025 C1051 0.950 . S
H1026 C1052 0.950 . S
H1027 C1054 0.950 . S
H1028 C1057 0.950 . S
H1029 C1058 0.950 . S
H1030 C1060 0.950 . S
H1031 C1061 0.950 . S
C1032 H1014 0.951 . S
C1032 C1033 1.366 . S
C1032 C1034 1.388 . S
C1033 C1032 1.366 . S
C1033 C1037 1.385 . S
C1034 H1015 0.951 . S
C1034 C1032 1.388 . S
C1034 C1035 1.366 . S
C1035 C1034 1.366 . S
C1035 C1036 1.414 . S
C1035 C1038 1.499 . S
C1036 H1016 0.950 . S
C1036 C1035 1.414 . S
C1036 C1037 1.374 . S
C1037 H1017 0.950 . S
C1037 C1033 1.385 . S
C1037 C1036 1.374 . S
C1038 C1035 1.499 . S
C1038 C1039 1.373 . S
C1038 C1040 1.389 . S
C1039 H1018 0.950 . S
C1039 C1038 1.373 . S
C1039 C1055 1.377 . S
C1040 C1038 1.389 . S
C1040 C1041 1.524 . S
C1040 C1054 1.377 . S
C1041 C1040 1.524 . S
C1041 C1042 1.397 . S
C1041 C1046 1.363 . S
C1042 H1019 0.950 . S
C1042 C1041 1.397 . S
C1042 C1043 1.334 . S
C1043 H1020 0.950 . S
C1043 C1042 1.334 . S
C1043 C1044 1.287 . S
C1044 C1043 1.287 . S
C1044 C1045 1.524 . S
C1044 H1063 0.913 . S
C1045 H1021 0.950 . S
C1045 C1044 1.524 . S
C1045 C1046 1.415 . S
C1046 H1022 0.950 . S
C1046 C1041 1.363 . S
C1046 C1045 1.415 . S
C1047 H1023 0.951 . S
C1047 C1048 1.366 . S
C1047 C1049 1.388 . S
C1048 C1047 1.366 . S
C1048 C1052 1.385 1_556 S
C1049 H1024 0.951 . S
C1049 C1047 1.388 . S
C1049 C1050 1.366 1_556 S
C1050 C1049 1.366 1_554 S
C1050 C1051 1.414 . S
C1050 C1053 1.499 . S
C1051 H1025 0.950 . S
C1051 C1050 1.414 . S
C1051 C1052 1.374 . S
C1052 H1026 0.950 . S
C1052 C1048 1.385 1_554 S
C1052 C1051 1.374 . S
C1053 C1050 1.499 . S
C1053 C1054 1.373 . S
C1053 C1055 1.389 . S
C1054 H1027 0.950 . S
C1054 C1040 1.377 . S
C1054 C1053 1.373 . S
C1055 C1039 1.377 . S
C1055 C1053 1.389 . S
C1055 C1056 1.524 . S
C1056 C1055 1.524 . S
C1056 C1057 1.397 . S
C1056 C1061 1.363 . S
C1057 H1028 0.950 . S
C1057 C1056 1.397 . S
C1057 C1058 1.334 . S
C1058 H1029 0.950 . S
C1058 C1057 1.334 . S
C1058 C1059 1.287 . S
C1059 C1058 1.287 . S
C1059 C1060 1.524 . S
C1059 H1062 0.999 . S
C1060 H1030 0.950 . S
C1060 C1059 1.524 . S
C1060 C1061 1.415 . S
C1061 H1031 0.950 . S
C1061 C1056 1.363 . S
C1061 C1060 1.415 . S
H1062 C1059 0.999 . S
H1063 C1044 0.913 . S
H1064 C1082 0.951 . S
H1065 C1084 0.951 . S
H1066 C1086 0.950 . S
H1067 C1087 0.950 . S
H1068 C1089 0.950 . S
H1069 C1092 0.950 . S
H1070 C1093 0.950 . S
H1071 C1095 0.950 . S
H1072 C1096 0.950 . S
H1073 C1097 0.951 . S
H1074 C1099 0.951 . S
H1075 C1101 0.950 . S
H1076 C1102 0.950 . S
H1077 C1104 0.950 . S
H1078 C1107 0.950 . S
H1079 C1108 0.950 . S
H1080 C1110 0.950 . S
H1081 C1111 0.950 . S
C1082 H1064 0.951 . S
C1082 C1083 1.366 . S
C1082 C1084 1.388 . S
C1083 C1082 1.366 . S
C1083 C1087 1.385 1_455 S
C1084 H1065 0.951 . S
C1084 C1082 1.388 . S
C1084 C1085 1.366 . S
C1085 C1084 1.366 . S
C1085 C1086 1.414 1_455 S
C1085 C1088 1.499 . S
C1086 H1066 0.950 . S
C1086 C1085 1.414 1_655 S
C1086 C1087 1.374 . S
C1087 H1067 0.950 . S
C1087 C1083 1.385 1_655 S
C1087 C1086 1.374 . S
C1088 C1085 1.499 . S
C1088 C1089 1.373 1_455 S
C1088 C1090 1.389 . S
C1089 H1068 0.950 . S
C1089 C1088 1.373 1_655 S
C1089 C1105 1.377 . S
C1090 C1088 1.389 . S
C1090 C1091 1.524 . S
C1090 C1104 1.377 . S
C1091 C1090 1.524 . S
C1091 C1092 1.397 . S
C1091 C1096 1.363 . S
C1092 H1069 0.950 . S
C1092 C1091 1.397 . S
C1092 C1093 1.334 . S
C1093 H1070 0.950 . S
C1093 C1092 1.334 . S
C1093 C1094 1.287 . S
C1094 C1093 1.287 . S
C1094 C1095 1.524 . S
C1094 H1113 0.913 . S
C1095 H1071 0.950 . S
C1095 C1094 1.524 . S
C1095 C1096 1.415 . S
C1096 H1072 0.950 . S
C1096 C1091 1.363 . S
C1096 C1095 1.415 . S
C1097 H1073 0.951 . S
C1097 C1098 1.366 1_655 S
C1097 C1099 1.388 . S
C1098 C1097 1.366 1_455 S
C1098 C1102 1.385 . S
C1099 H1074 0.951 . S
C1099 C1097 1.388 . S
C1099 C1100 1.366 1_655 S
C1100 C1099 1.366 1_455 S
C1100 C1101 1.414 . S
C1100 C1103 1.499 . S
C1101 H1075 0.950 . S
C1101 C1100 1.414 . S
C1101 C1102 1.374 . S
C1102 H1076 0.950 . S
C1102 C1098 1.385 . S
C1102 C1101 1.374 . S
C1103 C1100 1.499 . S
C1103 C1104 1.373 . S
C1103 C1105 1.389 1_455 S
C1104 H1077 0.950 . S
C1104 C1090 1.377 . S
C1104 C1103 1.373 . S
C1105 C1089 1.377 . S
C1105 C1103 1.389 1_655 S
C1105 C1106 1.524 . S
C1106 C1105 1.524 . S
C1106 C1107 1.397 . S
C1106 C1111 1.363 . S
C1107 H1078 0.950 . S
C1107 C1106 1.397 . S
C1107 C1108 1.334 . S
C1108 H1079 0.950 . S
C1108 C1107 1.334 . S
C1108 C1109 1.287 . S
C1109 C1108 1.287 . S
C1109 C1110 1.524 . S
C1109 H1112 0.999 . S
C1110 H1080 0.950 . S
C1110 C1109 1.524 . S
C1110 C1111 1.415 . S
C1111 H1081 0.950 . S
C1111 C1106 1.363 . S
C1111 C1110 1.415 . S
H1112 C1109 0.999 . S
H1113 C1094 0.913 . S
H1114 C1132 0.951 . S
H1115 C1134 0.951 . S
H1116 C1136 0.950 . S
H1117 C1137 0.950 . S
H1118 C1139 0.950 . S
H1119 C1142 0.950 . S
H1120 C1143 0.950 . S
H1121 C1145 0.950 . S
H1122 C1146 0.950 . S
H1123 C1147 0.951 . S
H1124 C1149 0.951 . S
H1125 C1151 0.950 . S
H1126 C1152 0.950 . S
H1127 C1154 0.950 . S
H1128 C1157 0.950 . S
H1129 C1158 0.950 . S
H1130 C1160 0.950 . S
H1131 C1161 0.950 . S
C1132 H1114 0.951 . S
C1132 C1133 1.366 1_565 S
C1132 C1134 1.388 . S
C1133 C1132 1.366 1_545 S
C1133 C1137 1.385 . S
C1134 H1115 0.951 . S
C1134 C1132 1.388 . S
C1134 C1135 1.366 1_565 S
C1135 C1134 1.366 1_545 S
C1135 C1136 1.414 . S
C1135 C1138 1.499 . S
C1136 H1116 0.950 . S
C1136 C1135 1.414 . S
C1136 C1137 1.374 . S
C1137 H1117 0.950 . S
C1137 C1133 1.385 . S
C1137 C1136 1.374 . S
C1138 C1135 1.499 . S
C1138 C1139 1.373 . S
C1138 C1140 1.389 1_545 S
C1139 H1118 0.950 . S
C1139 C1138 1.373 . S
C1139 C1155 1.377 . S
C1140 C1138 1.389 1_565 S
C1140 C1141 1.524 . S
C1140 C1154 1.377 . S
C1141 C1140 1.524 . S
C1141 C1142 1.397 1_556 S
C1141 C1146 1.363 . S
C1142 H1119 0.950 . S
C1142 C1141 1.397 1_554 S
C1142 C1143 1.334 . S
C1143 H1120 0.950 . S
C1143 C1142 1.334 . S
C1143 C1144 1.287 . S
C1144 C1143 1.287 . S
C1144 C1145 1.524 1_554 S
C1144 H1163 0.913 . S
C1145 H1121 0.950 . S
C1145 C1144 1.524 1_556 S
C1145 C1146 1.415 . S
C1146 H1122 0.950 . S
C1146 C1141 1.363 . S
C1146 C1145 1.415 . S
C1147 H1123 0.951 . S
C1147 C1148 1.366 . S
C1147 C1149 1.388 . S
C1148 C1147 1.366 . S
C1148 C1152 1.385 1_545 S
C1149 H1124 0.951 . S
C1149 C1147 1.388 . S
C1149 C1150 1.366 . S
C1150 C1149 1.366 . S
C1150 C1151 1.414 1_545 S
C1150 C1153 1.499 . S
C1151 H1125 0.950 . S
C1151 C1150 1.414 1_565 S
C1151 C1152 1.374 . S
C1152 H1126 0.950 . S
C1152 C1148 1.385 1_565 S
C1152 C1151 1.374 . S
C1153 C1150 1.499 . S
C1153 C1154 1.373 1_545 S
C1153 C1155 1.389 . S
C1154 H1127 0.950 . S
C1154 C1140 1.377 . S
C1154 C1153 1.373 1_565 S
C1155 C1139 1.377 . S
C1155 C1153 1.389 . S
C1155 C1156 1.524 . S
C1156 C1155 1.524 . S
C1156 C1157 1.397 . S
C1156 C1161 1.363 . S
C1157 H1128 0.950 . S
C1157 C1156 1.397 . S
C1157 C1158 1.334 . S
C1158 H1129 0.950 . S
C1158 C1157 1.334 . S
C1158 C1159 1.287 . S
C1159 C1158 1.287 . S
C1159 C1160 1.524 . S
C1159 H1162 0.999 . S
C1160 H1130 0.950 . S
C1160 C1159 1.524 . S
C1160 C1161 1.415 . S
C1161 H1131 0.950 . S
C1161 C1156 1.363 . S
C1161 C1160 1.415 . S
H1162 C1159 0.999 . S
H1163 C1144 0.913 . S
H1164 C1182 0.951 . S
H1165 C1184 0.951 . S
H1166 C1186 0.950 . S
H1167 C1187 0.950 . S
H1168 C1189 0.950 . S
H1169 C1192 0.950 . S
H1170 C1193 0.950 . S
H1171 C1195 0.950 . S
H1172 C1196 0.950 . S
H1173 C1197 0.951 . S
H1174 C1199 0.951 . S
H1175 C1201 0.950 . S
H1176 C1202 0.950 . S
H1177 C1204 0.950 . S
H1178 C1207 0.950 . S
H1179 C1208 0.950 . S
H1180 C1210 0.950 . S
H1181 C1211 0.950 . S
C1182 H1164 0.951 . S
C1182 C1183 1.366 . S
C1182 C1184 1.388 . S
C1183 C1182 1.366 . S
C1183 C1187 1.385 . S
C1184 H1165 0.951 . S
C1184 C1182 1.388 . S
C1184 C1185 1.366 . S
C1185 C1184 1.366 . S
C1185 C1186 1.414 . S
C1185 C1188 1.499 . S
C1186 H1166 0.950 . S
C1186 C1185 1.414 . S
C1186 C1187 1.374 . S
C1187 H1167 0.950 . S
C1187 C1183 1.385 . S
C1187 C1186 1.374 . S
C1188 C1185 1.499 . S
C1188 C1189 1.373 . S
C1188 C1190 1.389 . S
C1189 H1168 0.950 . S
C1189 C1188 1.373 . S
C1189 C1205 1.377 . S
C1190 C1188 1.389 . S
C1190 C1191 1.524 . S
C1190 C1204 1.377 . S
C1191 C1190 1.524 . S
C1191 C1192 1.397 . S
C1191 C1196 1.363 . S
C1192 H1169 0.950 . S
C1192 C1191 1.397 . S
C1192 C1193 1.334 . S
C1193 H1170 0.950 . S
C1193 C1192 1.334 . S
C1193 C1194 1.287 . S
C1194 C1193 1.287 . S
C1194 C1195 1.524 . S
C1194 H1213 0.913 . S
C1195 H1171 0.950 . S
C1195 C1194 1.524 . S
C1195 C1196 1.415 . S
C1196 H1172 0.950 . S
C1196 C1191 1.363 . S
C1196 C1195 1.415 . S
C1197 H1173 0.951 . S
C1197 C1198 1.366 . S
C1197 C1199 1.388 . S
C1198 C1197 1.366 . S
C1198 C1202 1.385 . S
C1199 H1174 0.951 . S
C1199 C1197 1.388 . S
C1199 C1200 1.366 . S
C1200 C1199 1.366 . S
C1200 C1201 1.414 . S
C1200 C1203 1.499 . S
C1201 H1175 0.950 . S
C1201 C1200 1.414 . S
C1201 C1202 1.374 . S
C1202 H1176 0.950 . S
C1202 C1198 1.385 . S
C1202 C1201 1.374 . S
C1203 C1200 1.499 . S
C1203 C1204 1.373 . S
C1203 C1205 1.389 . S
C1204 H1177 0.950 . S
C1204 C1190 1.377 . S
C1204 C1203 1.373 . S
C1205 C1189 1.377 . S
C1205 C1203 1.389 . S
C1205 C1206 1.524 . S
C1206 C1205 1.524 . S
C1206 C1207 1.397 . S
C1206 C1211 1.363 . S
C1207 H1178 0.950 . S
C1207 C1206 1.397 . S
C1207 C1208 1.334 . S
C1208 H1179 0.950 . S
C1208 C1207 1.334 . S
C1208 C1209 1.287 . S
C1209 C1208 1.287 . S
C1209 C1210 1.524 . S
C1209 H1212 0.999 . S
C1210 H1180 0.950 . S
C1210 C1209 1.524 . S
C1210 C1211 1.415 . S
C1211 H1181 0.950 . S
C1211 C1206 1.363 . S
C1211 C1210 1.415 . S
H1212 C1209 0.999 . S
H1213 C1194 0.913 . S
H1214 C1232 0.951 1_554 S
H1215 C1234 0.951 . S
H1216 C1236 0.950 . S
H1217 C1237 0.950 . S
H1218 C1239 0.950 . S
H1219 C1242 0.950 . S
H1220 C1243 0.950 1_556 S
H1221 C1245 0.950 . S
H1222 C1246 0.950 . S
H1223 C1247 0.951 . S
H1224 C1249 0.951 . S
H1225 C1251 0.950 . S
H1226 C1252 0.950 . S
H1227 C1254 0.950 . S
H1228 C1257 0.950 . S
H1229 C1258 0.950 . S
H1230 C1260 0.950 . S
H1231 C1261 0.950 . S
C1232 H1214 0.951 1_556 S
C1232 C1233 1.366 . S
C1232 C1234 1.388 . S
C1233 C1232 1.366 . S
C1233 C1237 1.385 . S
C1234 H1215 0.951 . S
C1234 C1232 1.388 . S
C1234 C1235 1.366 . S
C1235 C1234 1.366 . S
C1235 C1236 1.414 . S
C1235 C1238 1.499 . S
C1236 H1216 0.950 . S
C1236 C1235 1.414 . S
C1236 C1237 1.374 . S
C1237 H1217 0.950 . S
C1237 C1233 1.385 . S
C1237 C1236 1.374 . S
C1238 C1235 1.499 . S
C1238 C1239 1.373 . S
C1238 C1240 1.389 . S
C1239 H1218 0.950 . S
C1239 C1238 1.373 . S
C1239 C1255 1.377 . S
C1240 C1238 1.389 . S
C1240 C1241 1.524 . S
C1240 C1254 1.377 . S
C1241 C1240 1.524 . S
C1241 C1242 1.397 . S
C1241 C1246 1.363 1_556 S
C1242 H1219 0.950 . S
C1242 C1241 1.397 . S
C1242 C1243 1.334 1_556 S
C1243 H1220 0.950 1_554 S
C1243 C1242 1.334 1_554 S
C1243 C1244 1.287 . S
C1244 C1243 1.287 . S
C1244 C1245 1.524 . S
C1244 H1263 0.913 . S
C1245 H1221 0.950 . S
C1245 C1244 1.524 . S
C1245 C1246 1.415 . S
C1246 H1222 0.950 . S
C1246 C1241 1.363 1_554 S
C1246 C1245 1.415 . S
C1247 H1223 0.951 . S
C1247 C1248 1.366 . S
C1247 C1249 1.388 . S
C1248 C1247 1.366 . S
C1248 C1252 1.385 . S
C1249 H1224 0.951 . S
C1249 C1247 1.388 . S
C1249 C1250 1.366 . S
C1250 C1249 1.366 . S
C1250 C1251 1.414 . S
C1250 C1253 1.499 . S
C1251 H1225 0.950 . S
C1251 C1250 1.414 . S
C1251 C1252 1.374 . S
C1252 H1226 0.950 . S
C1252 C1248 1.385 . S
C1252 C1251 1.374 . S
C1253 C1250 1.499 . S
C1253 C1254 1.373 . S
C1253 C1255 1.389 . S
C1254 H1227 0.950 . S
C1254 C1240 1.377 . S
C1254 C1253 1.373 . S
C1255 C1239 1.377 . S
C1255 C1253 1.389 . S
C1255 C1256 1.524 . S
C1256 C1255 1.524 . S
C1256 C1257 1.397 . S
C1256 C1261 1.363 . S
C1257 H1228 0.950 . S
C1257 C1256 1.397 . S
C1257 C1258 1.334 . S
C1258 H1229 0.950 . S
C1258 C1257 1.334 . S
C1258 C1259 1.287 . S
C1259 C1258 1.287 . S
C1259 C1260 1.524 . S
C1259 H1262 0.999 . S
C1260 H1230 0.950 . S
C1260 C1259 1.524 . S
C1260 C1261 1.415 . S
C1261 H1231 0.950 . S
C1261 C1256 1.363 . S
C1261 C1260 1.415 . S
H1262 C1259 0.999 . S
H1263 C1244 0.913 . S
H1264 C1282 0.951 1_455 S
H1265 C1284 0.949 1_455 S
H1266 C1286 0.950 . S
H1267 C1287 0.950 . S
H1268 C1289 0.950 . S
H1269 C1292 0.950 . S
H1270 C1293 0.950 . S
H1271 C1295 0.950 . S
H1272 C1296 0.950 . S
H1273 C1297 0.951 . S
H1274 C1299 0.951 . S
H1275 C1301 0.950 . S
H1276 C1302 0.950 . S
H1277 C1304 0.950 . S
H1278 C1307 0.950 . S
H1279 C1308 0.950 . S
H1280 C1310 0.950 . S
H1281 C1311 0.950 . S
C1282 H1264 0.951 1_655 S
C1282 C1283 1.366 . S
C1282 C1284 1.387 . S
C1283 C1282 1.366 . S
C1283 C1287 1.385 . S
C1284 H1265 0.949 1_655 S
C1284 C1282 1.387 . S
C1284 C1285 1.368 . S
C1285 C1284 1.368 . S
C1285 C1286 1.414 . S
C1285 C1288 1.499 . S
C1286 H1266 0.950 . S
C1286 C1285 1.414 . S
C1286 C1287 1.374 . S
C1287 H1267 0.950 . S
C1287 C1283 1.385 . S
C1287 C1286 1.374 . S
C1288 C1285 1.499 . S
C1288 C1289 1.373 . S
C1288 C1290 1.389 1_655 S
C1289 H1268 0.950 . S
C1289 C1288 1.373 . S
C1289 C1305 1.377 . S
C1290 C1288 1.389 1_455 S
C1290 C1291 1.524 . S
C1290 C1304 1.377 . S
C1291 C1290 1.524 . S
C1291 C1292 1.397 . S
C1291 C1296 1.363 . S
C1292 H1269 0.950 . S
C1292 C1291 1.397 . S
C1292 C1293 1.334 . S
C1293 H1270 0.950 . S
C1293 C1292 1.334 . S
C1293 C1294 1.287 . S
C1294 C1293 1.287 . S
C1294 C1295 1.524 . S
C1294 H1313 0.913 . S
C1295 H1271 0.950 . S
C1295 C1294 1.524 . S
C1295 C1296 1.415 . S
C1296 H1272 0.950 . S
C1296 C1291 1.363 . S
C1296 C1295 1.415 . S
C1297 H1273 0.951 . S
C1297 C1298 1.366 . S
C1297 C1299 1.388 . S
C1298 C1297 1.366 . S
C1298 C1302 1.385 . S
C1299 H1274 0.951 . S
C1299 C1297 1.388 . S
C1299 C1300 1.366 . S
C1300 C1299 1.366 . S
C1300 C1301 1.414 . S
C1300 C1303 1.499 . S
C1301 H1275 0.950 . S
C1301 C1300 1.414 . S
C1301 C1302 1.374 . S
C1302 H1276 0.950 . S
C1302 C1298 1.385 . S
C1302 C1301 1.374 . S
C1303 C1300 1.499 . S
C1303 C1304 1.373 1_655 S
C1303 C1305 1.389 . S
C1304 H1277 0.950 . S
C1304 C1290 1.377 . S
C1304 C1303 1.373 1_455 S
C1305 C1289 1.377 . S
C1305 C1303 1.389 . S
C1305 C1306 1.524 . S
C1306 C1305 1.524 . S
C1306 C1307 1.397 . S
C1306 C1311 1.363 . S
C1307 H1278 0.950 . S
C1307 C1306 1.397 . S
C1307 C1308 1.334 . S
C1308 H1279 0.950 . S
C1308 C1307 1.334 . S
C1308 C1309 1.287 . S
C1309 C1308 1.287 . S
C1309 C1310 1.524 . S
C1309 H1312 0.999 . S
C1310 H1280 0.950 . S
C1310 C1309 1.524 . S
C1310 C1311 1.415 . S
C1311 H1281 0.950 . S
C1311 C1306 1.363 . S
C1311 C1310 1.415 . S
H1312 C1309 0.999 . S
H1313 C1294 0.913 . S
H1314 C1332 0.951 . S
H1315 C1334 0.951 . S
H1316 C1336 0.950 . S
H1317 C1337 0.950 . S
H1318 C1339 0.950 . S
H1319 C1342 0.950 . S
H1320 C1343 0.950 . S
H1321 C1345 0.950 . S
H1322 C1346 0.950 . S
H1323 C1347 0.951 . S
H1324 C1349 0.951 . S
H1325 C1351 0.950 . S
H1326 C1352 0.950 . S
H1327 C1354 0.950 . S
H1328 C1357 0.950 . S
H1329 C1358 0.950 . S
H1330 C1360 0.950 . S
H1331 C1361 0.950 . S
C1332 H1314 0.951 . S
C1332 C1333 1.366 . S
C1332 C1334 1.388 . S
C1333 C1332 1.366 . S
C1333 C1337 1.385 1_565 S
C1334 H1315 0.951 . S
C1334 C1332 1.388 . S
C1334 C1335 1.366 . S
C1335 C1334 1.366 . S
C1335 C1336 1.414 1_565 S
C1335 C1338 1.499 . S
C1336 H1316 0.950 . S
C1336 C1335 1.414 1_545 S
C1336 C1337 1.374 . S
C1337 H1317 0.950 . S
C1337 C1333 1.385 1_545 S
C1337 C1336 1.374 . S
C1338 C1335 1.499 . S
C1338 C1339 1.373 1_565 S
C1338 C1340 1.389 . S
C1339 H1318 0.950 . S
C1339 C1338 1.373 1_545 S
C1339 C1355 1.377 . S
C1340 C1338 1.389 . S
C1340 C1341 1.524 . S
C1340 C1354 1.377 . S
C1341 C1340 1.524 . S
C1341 C1342 1.397 . S
C1341 C1346 1.363 . S
C1342 H1319 0.950 . S
C1342 C1341 1.397 . S
C1342 C1343 1.334 . S
C1343 H1320 0.950 . S
C1343 C1342 1.334 . S
C1343 C1344 1.287 . S
C1344 C1343 1.287 . S
C1344 C1345 1.524 . S
C1344 H1363 0.913 . S
C1345 H1321 0.950 . S
C1345 C1344 1.524 . S
C1345 C1346 1.415 . S
C1346 H1322 0.950 . S
C1346 C1341 1.363 . S
C1346 C1345 1.415 . S
C1347 H1323 0.951 . S
C1347 C1348 1.366 1_545 S
C1347 C1349 1.388 . S
C1348 C1347 1.366 1_565 S
C1348 C1352 1.385 . S
C1349 H1324 0.951 . S
C1349 C1347 1.388 . S
C1349 C1350 1.366 1_545 S
C1350 C1349 1.366 1_565 S
C1350 C1351 1.414 . S
C1350 C1353 1.499 . S
C1351 H1325 0.950 . S
C1351 C1350 1.414 . S
C1351 C1352 1.374 . S
C1352 H1326 0.950 . S
C1352 C1348 1.385 . S
C1352 C1351 1.374 . S
C1353 C1350 1.499 . S
C1353 C1354 1.373 . S
C1353 C1355 1.389 1_565 S
C1354 H1327 0.950 . S
C1354 C1340 1.377 . S
C1354 C1353 1.373 . S
C1355 C1339 1.377 . S
C1355 C1353 1.389 1_545 S
C1355 C1356 1.524 . S
C1356 C1355 1.524 . S
C1356 C1357 1.397 . S
C1356 C1361 1.363 . S
C1357 H1328 0.950 . S
C1357 C1356 1.397 . S
C1357 C1358 1.334 . S
C1358 H1329 0.950 . S
C1358 C1357 1.334 . S
C1358 C1359 1.287 . S
C1359 C1358 1.287 . S
C1359 C1360 1.524 . S
C1359 H1362 0.999 . S
C1360 H1330 0.950 . S
C1360 C1359 1.524 . S
C1360 C1361 1.415 . S
C1361 H1331 0.950 . S
C1361 C1356 1.363 . S
C1361 C1360 1.415 . S
H1362 C1359 0.999 . S
H1363 C1344 0.913 . S
H1364 C1382 0.951 . S
H1365 C1384 0.951 . S
H1366 C1386 0.950 . S
H1367 C1387 0.950 . S
H1368 C1389 0.950 . S
H1369 C1392 0.950 . S
H1370 C1393 0.950 . S
H1371 C1395 0.950 . S
H1372 C1396 0.950 . S
H1373 C1397 0.951 . S
H1374 C1399 0.951 . S
H1375 C1401 0.950 . S
H1376 C1402 0.950 . S
H1377 C1404 0.950 . S
H1378 C1407 0.950 . S
H1379 C1408 0.950 . S
H1380 C1410 0.950 . S
H1381 C1411 0.950 . S
C1382 H1364 0.951 . S
C1382 C1383 1.366 . S
C1382 C1384 1.388 . S
C1383 C1382 1.366 . S
C1383 C1387 1.385 . S
C1384 H1365 0.951 . S
C1384 C1382 1.388 . S
C1384 C1385 1.366 . S
C1385 C1384 1.366 . S
C1385 C1386 1.414 . S
C1385 C1388 1.499 . S
C1386 H1366 0.950 . S
C1386 C1385 1.414 . S
C1386 C1387 1.374 . S
C1387 H1367 0.950 . S
C1387 C1383 1.385 . S
C1387 C1386 1.374 . S
C1388 C1385 1.499 . S
C1388 C1389 1.373 . S
C1388 C1390 1.389 . S
C1389 H1368 0.950 . S
C1389 C1388 1.373 . S
C1389 C1405 1.377 . S
C1390 C1388 1.389 . S
C1390 C1391 1.524 . S
C1390 C1404 1.377 . S
C1391 C1390 1.524 . S
C1391 C1392 1.397 . S
C1391 C1396 1.363 . S
C1392 H1369 0.950 . S
C1392 C1391 1.397 . S
C1392 C1393 1.334 . S
C1393 H1370 0.950 . S
C1393 C1392 1.334 . S
C1393 C1394 1.287 . S
C1394 C1393 1.287 . S
C1394 C1395 1.524 . S
C1394 H1413 0.913 . S
C1395 H1371 0.950 . S
C1395 C1394 1.524 . S
C1395 C1396 1.415 . S
C1396 H1372 0.950 . S
C1396 C1391 1.363 . S
C1396 C1395 1.415 . S
C1397 H1373 0.951 . S
C1397 C1398 1.366 . S
C1397 C1399 1.388 . S
C1398 C1397 1.366 . S
C1398 C1402 1.385 . S
C1399 H1374 0.951 . S
C1399 C1397 1.388 . S
C1399 C1400 1.366 . S
C1400 C1399 1.366 . S
C1400 C1401 1.414 . S
C1400 C1403 1.499 . S
C1401 H1375 0.950 . S
C1401 C1400 1.414 . S
C1401 C1402 1.374 . S
C1402 H1376 0.950 . S
C1402 C1398 1.385 . S
C1402 C1401 1.374 . S
C1403 C1400 1.499 . S
C1403 C1404 1.373 . S
C1403 C1405 1.389 . S
C1404 H1377 0.950 . S
C1404 C1390 1.377 . S
C1404 C1403 1.373 . S
C1405 C1389 1.377 . S
C1405 C1403 1.389 . S
C1405 C1406 1.524 . S
C1406 C1405 1.524 . S
C1406 C1407 1.397 . S
C1406 C1411 1.363 . S
C1407 H1378 0.950 . S
C1407 C1406 1.397 . S
C1407 C1408 1.334 . S
C1408 H1379 0.950 . S
C1408 C1407 1.334 . S
C1408 C1409 1.287 . S
C1409 C1408 1.287 . S
C1409 C1410 1.524 . S
C1409 H1412 0.999 . S
C1410 H1380 0.950 . S
C1410 C1409 1.524 . S
C1410 C1411 1.415 . S
C1411 H1381 0.950 . S
C1411 C1406 1.363 . S
C1411 C1410 1.415 . S
H1412 C1409 0.999 . S
H1413 C1394 0.913 . S
H1414 C1432 0.951 . S
H1415 C1434 0.951 . S
H1416 C1436 0.950 . S
H1417 C1437 0.950 . S
H1418 C1439 0.950 . S
H1419 C1442 0.950 . S
H1420 C1443 0.950 . S
H1421 C1445 0.950 . S
H1422 C1446 0.950 . S
H1423 C1447 0.951 . S
H1424 C1449 0.951 . S
H1425 C1451 0.950 . S
H1426 C1452 0.950 . S
H1427 C1454 0.950 . S
H1428 C1457 0.950 . S
H1429 C1458 0.950 . S
H1430 C1460 0.950 . S
H1431 C1461 0.950 . S
C1432 H1414 0.951 . S
C1432 C1433 1.366 . S
C1432 C1434 1.388 . S
C1433 C1432 1.366 . S
C1433 C1437 1.385 . S
C1434 H1415 0.951 . S
C1434 C1432 1.388 . S
C1434 C1435 1.366 . S
C1435 C1434 1.366 . S
C1435 C1436 1.414 . S
C1435 C1438 1.499 . S
C1436 H1416 0.950 . S
C1436 C1435 1.414 . S
C1436 C1437 1.374 . S
C1437 H1417 0.950 . S
C1437 C1433 1.385 . S
C1437 C1436 1.374 . S
C1438 C1435 1.499 . S
C1438 C1439 1.373 . S
C1438 C1440 1.389 . S
C1439 H1418 0.950 . S
C1439 C1438 1.373 . S
C1439 C1455 1.377 . S
C1440 C1438 1.389 . S
C1440 C1441 1.524 . S
C1440 C1454 1.377 . S
C1441 C1440 1.524 . S
C1441 C1442 1.397 . S
C1441 C1446 1.363 . S
C1442 H1419 0.950 . S
C1442 C1441 1.397 . S
C1442 C1443 1.334 . S
C1443 H1420 0.950 . S
C1443 C1442 1.334 . S
C1443 C1444 1.287 . S
C1444 C1443 1.287 . S
C1444 C1445 1.524 . S
C1444 H1463 0.913 . S
C1445 H1421 0.950 . S
C1445 C1444 1.524 . S
C1445 C1446 1.415 . S
C1446 H1422 0.950 . S
C1446 C1441 1.363 . S
C1446 C1445 1.415 . S
C1447 H1423 0.951 . S
C1447 C1448 1.366 . S
C1447 C1449 1.388 . S
C1448 C1447 1.366 . S
C1448 C1452 1.385 . S
C1449 H1424 0.951 . S
C1449 C1447 1.388 . S
C1449 C1450 1.366 . S
C1450 C1449 1.366 . S
C1450 C1451 1.414 . S
C1450 C1453 1.499 . S
C1451 H1425 0.950 . S
C1451 C1450 1.414 . S
C1451 C1452 1.374 . S
C1452 H1426 0.950 . S
C1452 C1448 1.385 . S
C1452 C1451 1.374 . S
C1453 C1450 1.499 . S
C1453 C1454 1.373 . S
C1453 C1455 1.389 . S
C1454 H1427 0.950 . S
C1454 C1440 1.377 . S
C1454 C1453 1.373 . S
C1455 C1439 1.377 . S
C1455 C1453 1.389 . S
C1455 C1456 1.524 . S
C1456 C1455 1.524 . S
C1456 C1457 1.397 . S
C1456 C1461 1.363 . S
C1457 H1428 0.950 . S
C1457 C1456 1.397 . S
C1457 C1458 1.334 . S
C1458 H1429 0.950 . S
C1458 C1457 1.334 . S
C1458 C1459 1.287 . S
C1459 C1458 1.287 . S
C1459 C1460 1.524 . S
C1459 H1462 0.999 . S
C1460 H1430 0.950 . S
C1460 C1459 1.524 . S
C1460 C1461 1.415 . S
C1461 H1431 0.950 . S
C1461 C1456 1.363 . S
C1461 C1460 1.415 . S
H1462 C1459 0.999 . S
H1463 C1444 0.913 . S
C283 C82 1.610 . S
C298 C113 1.799 1_545 S
C348 C153 1.809 . S
C333 C95 1.604 . S
C398 C193 1.807 . S
C383 C56 1.604 . S
C448 C233 1.803 1_455 S
C433 C69 1.608 . S
C498 C122 1.808 1_565 S
C483 C30 1.607 1_565 S
C533 C43 1.604 . S
C548 C162 1.808 . S
C583 C4 1.605 . S
C598 C202 1.808 . S
C633 C17 1.600 1_655 S
C648 C242 1.808 1_655 S
C698 C119 0.328 . S
C683 C74 0.398 . S
C748 C159 0.326 . S
C733 C87 0.398 . S
C798 C199 0.327 . S
C783 C100 0.383 . S
C833 C61 0.384 . S
C848 C239 0.322 . S
C883 C22 0.395 . S
C898 C110 0.325 . S
C948 C150 0.326 . S
C933 C35 0.394 . S
C998 C190 0.326 . S
C983 C48 0.388 . S
C1033 C9 0.388 . S
C1048 C230 0.330 . S
C1083 C73 1.866 . S
C1098 C123 2.044 . S
C1133 C86 1.868 . S
C1148 C163 2.046 . S
C1198 C203 2.048 . S
C1183 C99 1.866 . S
C1248 C243 2.046 . S
C1233 C60 1.860 . S
C1283 C21 1.868 . S
C1298 C114 2.048 . S
C1348 C154 2.046 . S
C1333 C34 1.867 . S
C1398 C194 2.046 . S
C1383 C47 1.866 . S
C1433 C8 1.867 . S
C1448 C234 2.052 . S
