# Generated by pormake.
# Topology tbo, (3,4)-cn, num edge types: 1
# Building blocks:
#     Node 0, Type 0, BuildingBlock: WUSLED_clean_sbu_0, # of connection points: 3
#     Node 1, Type 0, BuildingBlock: WUSLED_clean_sbu_0, # of connection points: 3
#     Node 2, Type 0, BuildingBlock: WUSLED_clean_sbu_0, # of connection points: 3
#     Node 3, Type 0, BuildingBlock: WUSLED_clean_sbu_0, # of connection points: 3
#     Node 4, Type 0, BuildingBlock: WUSLED_clean_sbu_0, # of connection points: 3
#     Node 5, Type 0, BuildingBlock: WUSLED_clean_sbu_0, # of connection points: 3
#     Node 6, Type 0, BuildingBlock: WUSLED_clean_sbu_0, # of connection points: 3
#     Node 7, Type 0, BuildingBlock: WUSLED_clean_sbu_0, # of connection points: 3
#     Node 8, Type 0, BuildingBlock: WUSLED_clean_sbu_0, # of connection points: 3
#     Node 9, Type 0, BuildingBlock: WUSLED_clean_sbu_0, # of connection points: 3
#     Node 10, Type 0, BuildingBlock: WUSLED_clean_sbu_0, # of connection points: 3
#     Node 11, Type 0, BuildingBlock: WUSLED_clean_sbu_0, # of connection points: 3
#     Node 12, Type 0, BuildingBlock: WUSLED_clean_sbu_0, # of connection points: 3
#     Node 13, Type 0, BuildingBlock: WUSLED_clean_sbu_0, # of connection points: 3
#     Node 14, Type 0, BuildingBlock: WUSLED_clean_sbu_0, # of connection points: 3
#     Node 15, Type 0, BuildingBlock: WUSLED_clean_sbu_0, # of connection points: 3
#     Node 16, Type 0, BuildingBlock: WUSLED_clean_sbu_0, # of connection points: 3
#     Node 17, Type 0, BuildingBlock: WUSLED_clean_sbu_0, # of connection points: 3
#     Node 18, Type 0, BuildingBlock: WUSLED_clean_sbu_0, # of connection points: 3
#     Node 19, Type 0, BuildingBlock: WUSLED_clean_sbu_0, # of connection points: 3
#     Node 20, Type 0, BuildingBlock: WUSLED_clean_sbu_0, # of connection points: 3
#     Node 21, Type 0, BuildingBlock: WUSLED_clean_sbu_0, # of connection points: 3
#     Node 22, Type 0, BuildingBlock: WUSLED_clean_sbu_0, # of connection points: 3
#     Node 23, Type 0, BuildingBlock: WUSLED_clean_sbu_0, # of connection points: 3
#     Node 24, Type 0, BuildingBlock: WUSLED_clean_sbu_0, # of connection points: 3
#     Node 25, Type 0, BuildingBlock: WUSLED_clean_sbu_0, # of connection points: 3
#     Node 26, Type 0, BuildingBlock: WUSLED_clean_sbu_0, # of connection points: 3
#     Node 27, Type 0, BuildingBlock: WUSLED_clean_sbu_0, # of connection points: 3
#     Node 28, Type 0, BuildingBlock: WUSLED_clean_sbu_0, # of connection points: 3
#     Node 29, Type 0, BuildingBlock: WUSLED_clean_sbu_0, # of connection points: 3
#     Node 30, Type 0, BuildingBlock: WUSLED_clean_sbu_0, # of connection points: 3
#     Node 31, Type 0, BuildingBlock: WUSLED_clean_sbu_0, # of connection points: 3
#     Node 32, Type 1, BuildingBlock: GIZVER_clean_linker_0, # of connection points: 4
#     Node 33, Type 1, BuildingBlock: GIZVER_clean_linker_0, # of connection points: 4
#     Node 34, Type 1, BuildingBlock: GIZVER_clean_linker_0, # of connection points: 4
#     Node 35, Type 1, BuildingBlock: GIZVER_clean_linker_0, # of connection points: 4
#     Node 36, Type 1, BuildingBlock: GIZVER_clean_linker_0, # of connection points: 4
#     Node 37, Type 1, BuildingBlock: GIZVER_clean_linker_0, # of connection points: 4
#     Node 38, Type 1, BuildingBlock: GIZVER_clean_linker_0, # of connection points: 4
#     Node 39, Type 1, BuildingBlock: GIZVER_clean_linker_0, # of connection points: 4
#     Node 40, Type 1, BuildingBlock: GIZVER_clean_linker_0, # of connection points: 4
#     Node 41, Type 1, BuildingBlock: GIZVER_clean_linker_0, # of connection points: 4
#     Node 42, Type 1, BuildingBlock: GIZVER_clean_linker_0, # of connection points: 4
#     Node 43, Type 1, BuildingBlock: GIZVER_clean_linker_0, # of connection points: 4
#     Node 44, Type 1, BuildingBlock: GIZVER_clean_linker_0, # of connection points: 4
#     Node 45, Type 1, BuildingBlock: GIZVER_clean_linker_0, # of connection points: 4
#     Node 46, Type 1, BuildingBlock: GIZVER_clean_linker_0, # of connection points: 4
#     Node 47, Type 1, BuildingBlock: GIZVER_clean_linker_0, # of connection points: 4
#     Node 48, Type 1, BuildingBlock: GIZVER_clean_linker_0, # of connection points: 4
#     Node 49, Type 1, BuildingBlock: GIZVER_clean_linker_0, # of connection points: 4
#     Node 50, Type 1, BuildingBlock: GIZVER_clean_linker_0, # of connection points: 4
#     Node 51, Type 1, BuildingBlock: GIZVER_clean_linker_0, # of connection points: 4
#     Node 52, Type 1, BuildingBlock: GIZVER_clean_linker_0, # of connection points: 4
#     Node 53, Type 1, BuildingBlock: GIZVER_clean_linker_0, # of connection points: 4
#     Node 54, Type 1, BuildingBlock: GIZVER_clean_linker_0, # of connection points: 4
#     Node 55, Type 1, BuildingBlock: GIZVER_clean_linker_0, # of connection points: 4
#     Edge 56, Type (0, 1), BuildingBlock: OJICUG_clean_linker_0, # of connection points: 2
#     Edge 57, Type (0, 1), BuildingBlock: OJICUG_clean_linker_0, # of connection points: 2
#     Edge 58, Type (0, 1), BuildingBlock: OJICUG_clean_linker_0, # of connection points: 2
#     Edge 59, Type (0, 1), BuildingBlock: OJICUG_clean_linker_0, # of connection points: 2
#     Edge 60, Type (0, 1), BuildingBlock: OJICUG_clean_linker_0, # of connection points: 2
#     Edge 61, Type (0, 1), BuildingBlock: OJICUG_clean_linker_0, # of connection points: 2
#     Edge 62, Type (0, 1), BuildingBlock: OJICUG_clean_linker_0, # of connection points: 2
#     Edge 63, Type (0, 1), BuildingBlock: OJICUG_clean_linker_0, # of connection points: 2
#     Edge 64, Type (0, 1), BuildingBlock: OJICUG_clean_linker_0, # of connection points: 2
#     Edge 65, Type (0, 1), BuildingBlock: OJICUG_clean_linker_0, # of connection points: 2
#     Edge 66, Type (0, 1), BuildingBlock: OJICUG_clean_linker_0, # of connection points: 2
#     Edge 67, Type (0, 1), BuildingBlock: OJICUG_clean_linker_0, # of connection points: 2
#     Edge 68, Type (0, 1), BuildingBlock: OJICUG_clean_linker_0, # of connection points: 2
#     Edge 69, Type (0, 1), BuildingBlock: OJICUG_clean_linker_0, # of connection points: 2
#     Edge 70, Type (0, 1), BuildingBlock: OJICUG_clean_linker_0, # of connection points: 2
#     Edge 71, Type (0, 1), BuildingBlock: OJICUG_clean_linker_0, # of connection points: 2
#     Edge 72, Type (0, 1), BuildingBlock: OJICUG_clean_linker_0, # of connection points: 2
#     Edge 73, Type (0, 1), BuildingBlock: OJICUG_clean_linker_0, # of connection points: 2
#     Edge 74, Type (0, 1), BuildingBlock: OJICUG_clean_linker_0, # of connection points: 2
#     Edge 75, Type (0, 1), BuildingBlock: OJICUG_clean_linker_0, # of connection points: 2
#     Edge 76, Type (0, 1), BuildingBlock: OJICUG_clean_linker_0, # of connection points: 2
#     Edge 77, Type (0, 1), BuildingBlock: OJICUG_clean_linker_0, # of connection points: 2
#     Edge 78, Type (0, 1), BuildingBlock: OJICUG_clean_linker_0, # of connection points: 2
#     Edge 79, Type (0, 1), BuildingBlock: OJICUG_clean_linker_0, # of connection points: 2
#     Edge 80, Type (0, 1), BuildingBlock: OJICUG_clean_linker_0, # of connection points: 2
#     Edge 81, Type (0, 1), BuildingBlock: OJICUG_clean_linker_0, # of connection points: 2
#     Edge 82, Type (0, 1), BuildingBlock: OJICUG_clean_linker_0, # of connection points: 2
#     Edge 83, Type (0, 1), BuildingBlock: OJICUG_clean_linker_0, # of connection points: 2
#     Edge 84, Type (0, 1), BuildingBlock: OJICUG_clean_linker_0, # of connection points: 2
#     Edge 85, Type (0, 1), BuildingBlock: OJICUG_clean_linker_0, # of connection points: 2
#     Edge 86, Type (0, 1), BuildingBlock: OJICUG_clean_linker_0, # of connection points: 2
#     Edge 87, Type (0, 1), BuildingBlock: OJICUG_clean_linker_0, # of connection points: 2
#     Edge 88, Type (0, 1), BuildingBlock: OJICUG_clean_linker_0, # of connection points: 2
#     Edge 89, Type (0, 1), BuildingBlock: OJICUG_clean_linker_0, # of connection points: 2
#     Edge 90, Type (0, 1), BuildingBlock: OJICUG_clean_linker_0, # of connection points: 2
#     Edge 91, Type (0, 1), BuildingBlock: OJICUG_clean_linker_0, # of connection points: 2
#     Edge 92, Type (0, 1), BuildingBlock: OJICUG_clean_linker_0, # of connection points: 2
#     Edge 93, Type (0, 1), BuildingBlock: OJICUG_clean_linker_0, # of connection points: 2
#     Edge 94, Type (0, 1), BuildingBlock: OJICUG_clean_linker_0, # of connection points: 2
#     Edge 95, Type (0, 1), BuildingBlock: OJICUG_clean_linker_0, # of connection points: 2
#     Edge 96, Type (0, 1), BuildingBlock: OJICUG_clean_linker_0, # of connection points: 2
#     Edge 97, Type (0, 1), BuildingBlock: OJICUG_clean_linker_0, # of connection points: 2
#     Edge 98, Type (0, 1), BuildingBlock: OJICUG_clean_linker_0, # of connection points: 2
#     Edge 99, Type (0, 1), BuildingBlock: OJICUG_clean_linker_0, # of connection points: 2
#     Edge 100, Type (0, 1), BuildingBlock: OJICUG_clean_linker_0, # of connection points: 2
#     Edge 101, Type (0, 1), BuildingBlock: OJICUG_clean_linker_0, # of connection points: 2
#     Edge 102, Type (0, 1), BuildingBlock: OJICUG_clean_linker_0, # of connection points: 2
#     Edge 103, Type (0, 1), BuildingBlock: OJICUG_clean_linker_0, # of connection points: 2
#     Edge 104, Type (0, 1), BuildingBlock: OJICUG_clean_linker_0, # of connection points: 2
#     Edge 105, Type (0, 1), BuildingBlock: OJICUG_clean_linker_0, # of connection points: 2
#     Edge 106, Type (0, 1), BuildingBlock: OJICUG_clean_linker_0, # of connection points: 2
#     Edge 107, Type (0, 1), BuildingBlock: OJICUG_clean_linker_0, # of connection points: 2
#     Edge 108, Type (0, 1), BuildingBlock: OJICUG_clean_linker_0, # of connection points: 2
#     Edge 109, Type (0, 1), BuildingBlock: OJICUG_clean_linker_0, # of connection points: 2
#     Edge 110, Type (0, 1), BuildingBlock: OJICUG_clean_linker_0, # of connection points: 2
#     Edge 111, Type (0, 1), BuildingBlock: OJICUG_clean_linker_0, # of connection points: 2
#     Edge 112, Type (0, 1), BuildingBlock: OJICUG_clean_linker_0, # of connection points: 2
#     Edge 113, Type (0, 1), BuildingBlock: OJICUG_clean_linker_0, # of connection points: 2
#     Edge 114, Type (0, 1), BuildingBlock: OJICUG_clean_linker_0, # of connection points: 2
#     Edge 115, Type (0, 1), BuildingBlock: OJICUG_clean_linker_0, # of connection points: 2
#     Edge 116, Type (0, 1), BuildingBlock: OJICUG_clean_linker_0, # of connection points: 2
#     Edge 117, Type (0, 1), BuildingBlock: OJICUG_clean_linker_0, # of connection points: 2
#     Edge 118, Type (0, 1), BuildingBlock: OJICUG_clean_linker_0, # of connection points: 2
#     Edge 119, Type (0, 1), BuildingBlock: OJICUG_clean_linker_0, # of connection points: 2
#     Edge 120, Type (0, 1), BuildingBlock: OJICUG_clean_linker_0, # of connection points: 2
#     Edge 121, Type (0, 1), BuildingBlock: OJICUG_clean_linker_0, # of connection points: 2
#     Edge 122, Type (0, 1), BuildingBlock: OJICUG_clean_linker_0, # of connection points: 2
#     Edge 123, Type (0, 1), BuildingBlock: OJICUG_clean_linker_0, # of connection points: 2
#     Edge 124, Type (0, 1), BuildingBlock: OJICUG_clean_linker_0, # of connection points: 2
#     Edge 125, Type (0, 1), BuildingBlock: OJICUG_clean_linker_0, # of connection points: 2
#     Edge 126, Type (0, 1), BuildingBlock: OJICUG_clean_linker_0, # of connection points: 2
#     Edge 127, Type (0, 1), BuildingBlock: OJICUG_clean_linker_0, # of connection points: 2
#     Edge 128, Type (0, 1), BuildingBlock: OJICUG_clean_linker_0, # of connection points: 2
#     Edge 129, Type (0, 1), BuildingBlock: OJICUG_clean_linker_0, # of connection points: 2
#     Edge 130, Type (0, 1), BuildingBlock: OJICUG_clean_linker_0, # of connection points: 2
#     Edge 131, Type (0, 1), BuildingBlock: OJICUG_clean_linker_0, # of connection points: 2
#     Edge 132, Type (0, 1), BuildingBlock: OJICUG_clean_linker_0, # of connection points: 2
#     Edge 133, Type (0, 1), BuildingBlock: OJICUG_clean_linker_0, # of connection points: 2
#     Edge 134, Type (0, 1), BuildingBlock: OJICUG_clean_linker_0, # of connection points: 2
#     Edge 135, Type (0, 1), BuildingBlock: OJICUG_clean_linker_0, # of connection points: 2
#     Edge 136, Type (0, 1), BuildingBlock: OJICUG_clean_linker_0, # of connection points: 2
#     Edge 137, Type (0, 1), BuildingBlock: OJICUG_clean_linker_0, # of connection points: 2
#     Edge 138, Type (0, 1), BuildingBlock: OJICUG_clean_linker_0, # of connection points: 2
#     Edge 139, Type (0, 1), BuildingBlock: OJICUG_clean_linker_0, # of connection points: 2
#     Edge 140, Type (0, 1), BuildingBlock: OJICUG_clean_linker_0, # of connection points: 2
#     Edge 141, Type (0, 1), BuildingBlock: OJICUG_clean_linker_0, # of connection points: 2
#     Edge 142, Type (0, 1), BuildingBlock: OJICUG_clean_linker_0, # of connection points: 2
#     Edge 143, Type (0, 1), BuildingBlock: OJICUG_clean_linker_0, # of connection points: 2
#     Edge 144, Type (0, 1), BuildingBlock: OJICUG_clean_linker_0, # of connection points: 2
#     Edge 145, Type (0, 1), BuildingBlock: OJICUG_clean_linker_0, # of connection points: 2
#     Edge 146, Type (0, 1), BuildingBlock: OJICUG_clean_linker_0, # of connection points: 2
#     Edge 147, Type (0, 1), BuildingBlock: OJICUG_clean_linker_0, # of connection points: 2
#     Edge 148, Type (0, 1), BuildingBlock: OJICUG_clean_linker_0, # of connection points: 2
#     Edge 149, Type (0, 1), BuildingBlock: OJICUG_clean_linker_0, # of connection points: 2
#     Edge 150, Type (0, 1), BuildingBlock: OJICUG_clean_linker_0, # of connection points: 2
#     Edge 151, Type (0, 1), BuildingBlock: OJICUG_clean_linker_0, # of connection points: 2
# Relax obj value: 0.000
# Max RMSD: 0.036
# Mean RMSD: 0.016
data_MOF--net-tbo--node1-WUSLED_clean_sbu_0--node2-GIZVER_clean_linker_0--edge1-OJICUG_clean_linker_0
_symmetry_space_group_name_H-M    P1
_symmetry_Int_Tables_number       1
_symmetry_cell_setting            triclinic
loop_
_symmetry_equiv_pos_as_xyz
'x, y, z'
_cell_length_a     75.012111
_cell_length_b     75.32282
_cell_length_c     75.074573
_cell_angle_alpha  89.700645
_cell_angle_beta   90.395249
_cell_angle_gamma 90.95541
loop_
_atom_site_label
_atom_site_type_symbol
_atom_site_fract_x
_atom_site_fract_y
_atom_site_fract_z
_atom_type_partial_charge
C0 C 0.18758 0.13472 0.21103 0.0
C1 C 0.20586 0.13699 0.21483 0.0
C2 C 0.2079 0.106 0.22428 0.0
C3 C 0.21585 0.12285 0.22143 0.0
C4 C 0.18974 0.10363 0.21986 0.0
C5 C 0.1797 0.11785 0.21339 0.0
U6 U 0.17651 0.17508 0.18139 0.0
O7 O 0.15054 0.1856 0.17281 0.0
O8 O 0.16869 0.20193 0.1892 0.0
C9 C 0.15278 0.20039 0.18187 0.0
C10 C 0.17635 0.14996 0.20584 0.0
C11 C 0.13772 0.20658 0.19281 0.0
C12 C 0.10765 0.20332 0.20478 0.0
C13 C 0.12193 0.19649 0.19508 0.0
C14 C 0.12476 0.23029 0.21016 0.0
C15 C 0.10884 0.22038 0.21234 0.0
C16 C 0.13893 0.22352 0.20047 0.0
C17 C 0.2083 0.18712 0.1424 0.0
C18 C 0.20542 0.19946 0.11241 0.0
C19 C 0.23225 0.2052 0.12964 0.0
C20 C 0.22528 0.19513 0.14372 0.0
C21 C 0.22251 0.20741 0.11371 0.0
C22 C 0.1984 0.1894 0.12658 0.0
C23 C 0.20183 0.17577 0.15732 0.0
O24 O 0.18338 0.16587 0.20831 0.0
O25 O 0.16744 0.14857 0.19074 0.0
O26 O 0.18659 0.16713 0.15514 0.0
O27 O 0.2038 0.18246 0.17336 0.0
H28 H 0.21238 0.14983 0.21318 0.0
H29 H 0.22968 0.12538 0.22491 0.0
H30 H 0.18318 0.09083 0.22157 0.0
H31 H 0.16564 0.11573 0.21055 0.0
H32 H 0.09558 0.19534 0.20607 0.0
H33 H 0.12051 0.18342 0.18925 0.0
H34 H 0.12639 0.2433 0.21608 0.0
H35 H 0.15088 0.23163 0.19887 0.0
H36 H 0.19758 0.20075 0.10032 0.0
H37 H 0.24527 0.2114 0.13136 0.0
H38 H 0.23327 0.19352 0.15568 0.0
H39 H 0.18531 0.18328 0.12505 0.0
C40 C 0.82471 0.18706 0.13555 0.0
C41 C 0.82323 0.20554 0.13738 0.0
C42 C 0.8125 0.20812 0.10672 0.0
C43 C 0.81712 0.21592 0.12317 0.0
C44 C 0.81468 0.1897 0.10475 0.0
C45 C 0.82065 0.17929 0.11904 0.0
U46 U 0.8538 0.17589 0.17622 0.0
O47 O 0.84606 0.16745 0.20311 0.0
O48 O 0.86217 0.14984 0.18675 0.0
C49 C 0.85293 0.1516 0.20146 0.0
C50 C 0.82951 0.17563 0.15087 0.0
C51 C 0.84144 0.13632 0.20686 0.0
C52 C 0.81332 0.12443 0.21826 0.0
C53 C 0.82342 0.13856 0.21125 0.0
C54 C 0.83876 0.10527 0.21592 0.0
C55 C 0.82091 0.10764 0.22097 0.0
C56 C 0.84891 0.11947 0.20903 0.0
C57 C 0.89284 0.20799 0.1884 0.0
C58 C 0.92268 0.20527 0.20113 0.0
C59 C 0.90549 0.23151 0.20691 0.0
C60 C 0.89151 0.22464 0.19654 0.0
C61 C 0.92133 0.222 0.20928 0.0
C62 C 0.90859 0.19834 0.19078 0.0
C63 C 0.87797 0.20155 0.1769 0.0
O64 O 0.84458 0.16707 0.14964 0.0
O65 O 0.82692 0.18234 0.16675 0.0
O66 O 0.86189 0.2031 0.18351 0.0
O67 O 0.88012 0.18656 0.16831 0.0
H68 H 0.82635 0.21194 0.14993 0.0
H69 H 0.8154 0.22998 0.12535 0.0
H70 H 0.81157 0.18324 0.09224 0.0
H71 H 0.82177 0.16509 0.11729 0.0
H72 H 0.79975 0.12693 0.22222 0.0
H73 H 0.81721 0.15136 0.20979 0.0
H74 H 0.84501 0.0925 0.21752 0.0
H75 H 0.86276 0.11738 0.20577 0.0
H76 H 0.93471 0.19764 0.20253 0.0
H77 H 0.90377 0.24424 0.21324 0.0
H78 H 0.87959 0.23242 0.19484 0.0
H79 H 0.91012 0.18552 0.18457 0.0
C80 C 0.82776 0.8456 0.1379 0.0
C81 C 0.8247 0.82727 0.14015 0.0
C82 C 0.81489 0.8246 0.10917 0.0
C83 C 0.81829 0.81692 0.12599 0.0
C84 C 0.81863 0.84284 0.10681 0.0
C85 C 0.82492 0.85321 0.12103 0.0
U86 U 0.85673 0.85832 0.1787 0.0
O87 O 0.86493 0.88489 0.1884 0.0
O88 O 0.84862 0.86716 0.2052 0.0
C89 C 0.85563 0.88315 0.20311 0.0
C90 C 0.83264 0.85717 0.15313 0.0
C91 C 0.84425 0.89823 0.20798 0.0
C92 C 0.81555 0.91001 0.21661 0.0
C93 C 0.82573 0.8961 0.21008 0.0
C94 C 0.84204 0.92872 0.21828 0.0
C95 C 0.8236 0.92644 0.2211 0.0
C96 C 0.85224 0.91475 0.21187 0.0
C97 C 0.89644 0.82883 0.19212 0.0
C98 C 0.90776 0.81716 0.22026 0.0
C99 C 0.92759 0.82061 0.19515 0.0
C100 C 0.91355 0.82734 0.1849 0.0
C101 C 0.9248 0.81506 0.21287 0.0
C102 C 0.89376 0.82398 0.21004 0.0
C103 C 0.88139 0.83399 0.18038 0.0
O104 O 0.83004 0.85047 0.16913 0.0
O105 O 0.84767 0.86631 0.15181 0.0
O106 O 0.88336 0.84885 0.17129 0.0
O107 O 0.86524 0.83172 0.18682 0.0
H108 H 0.82676 0.82097 0.15298 0.0
H109 H 0.81534 0.80301 0.12848 0.0
H110 H 0.81647 0.84919 0.09402 0.0
H111 H 0.8272 0.86731 0.11894 0.0
H112 H 0.80146 0.90761 0.2188 0.0
H113 H 0.81915 0.88353 0.20718 0.0
H114 H 0.84868 0.94124 0.22128 0.0
H115 H 0.86648 0.91674 0.21034 0.0
H116 H 0.90498 0.81283 0.23375 0.0
H117 H 0.94057 0.81949 0.18907 0.0
H118 H 0.91598 0.83096 0.17113 0.0
H119 H 0.88073 0.82493 0.21604 0.0
C120 C 0.13621 0.82419 0.18442 0.0
C121 C 0.12991 0.83405 0.19883 0.0
C122 C 0.10794 0.81066 0.20554 0.0
C123 C 0.11588 0.82734 0.2093 0.0
C124 C 0.1143 0.80101 0.19095 0.0
C125 C 0.12824 0.80772 0.18052 0.0
U126 U 0.17588 0.85579 0.17391 0.0
O127 O 0.20274 0.849 0.16498 0.0
O128 O 0.18555 0.86496 0.1477 0.0
C129 C 0.20055 0.8563 0.14919 0.0
C130 C 0.15142 0.83037 0.17361 0.0
C131 C 0.20518 0.84498 0.13401 0.0
C132 C 0.20246 0.81708 0.11802 0.0
C133 C 0.19689 0.82833 0.13161 0.0
C134 C 0.22421 0.83928 0.10864 0.0
C135 C 0.21642 0.82228 0.10656 0.0
C136 C 0.21866 0.85049 0.12228 0.0
C137 C 0.18778 0.89516 0.20471 0.0
C138 C 0.21641 0.90756 0.2144 0.0
C139 C 0.18999 0.92548 0.21574 0.0
C140 C 0.17981 0.91136 0.20875 0.0
C141 C 0.20838 0.92367 0.21901 0.0
C142 C 0.20626 0.89351 0.20729 0.0
C143 C 0.17643 0.87988 0.19911 0.0
O144 O 0.14957 0.84557 0.16517 0.0
O145 O 0.1672 0.82866 0.18105 0.0
O146 O 0.18338 0.86406 0.20096 0.0
O147 O 0.16739 0.88174 0.18416 0.0
H148 H 0.13596 0.8468 0.20206 0.0
H149 H 0.11127 0.83521 0.22033 0.0
H150 H 0.10886 0.78798 0.18783 0.0
H151 H 0.13301 0.79987 0.16954 0.0
H152 H 0.19602 0.80418 0.11665 0.0
H153 H 0.18639 0.82387 0.1405 0.0
H154 H 0.2351 0.84364 0.1002 0.0
H155 H 0.22523 0.8633 0.12395 0.0
H156 H 0.23046 0.9055 0.21692 0.0
H157 H 0.18336 0.93774 0.21881 0.0
H158 H 0.1656 0.91298 0.20686 0.0
H159 H 0.21283 0.88119 0.20429 0.0
C160 C 0.13116 0.82874 0.84659 0.0
C161 C 0.133 0.82647 0.82813 0.0
C162 C 0.1025 0.81482 0.82589 0.0
C163 C 0.11888 0.81952 0.81793 0.0
C164 C 0.10052 0.81774 0.84428 0.0
C165 C 0.11472 0.82455 0.8545 0.0
U166 U 0.17083 0.85982 0.8579 0.0
O167 O 0.18102 0.8686 0.88412 0.0
O168 O 0.19803 0.85336 0.86638 0.0
C169 C 0.19613 0.86022 0.8823 0.0
C170 C 0.14643 0.8344 0.85792 0.0
C171 C 0.20141 0.84859 0.8972 0.0
C172 C 0.20122 0.81962 0.91161 0.0
C173 C 0.19472 0.83113 0.89849 0.0
C174 C 0.22056 0.84313 0.92286 0.0
C175 C 0.21447 0.82538 0.92374 0.0
C176 C 0.21412 0.85461 0.90965 0.0
C177 C 0.18138 0.89937 0.82691 0.0
C178 C 0.20924 0.91631 0.82765 0.0
C179 C 0.18608 0.92414 0.80652 0.0
C180 C 0.17523 0.91039 0.81318 0.0
C181 C 0.20334 0.9271 0.81347 0.0
C182 C 0.19835 0.90255 0.8343 0.0
C183 C 0.17032 0.88407 0.83259 0.0
O184 O 0.16237 0.83267 0.85102 0.0
O185 O 0.14465 0.84932 0.86671 0.0
O186 O 0.16185 0.88574 0.84775 0.0
O187 O 0.1777 0.86849 0.83079 0.0
H188 H 0.1455 0.82961 0.8216 0.0
H189 H 0.12109 0.81725 0.8039 0.0
H190 H 0.08805 0.81457 0.85085 0.0
H191 H 0.11296 0.82623 0.86871 0.0
H192 H 0.19608 0.8061 0.91208 0.0
H193 H 0.18483 0.82626 0.88904 0.0
H194 H 0.23086 0.84794 0.93188 0.0
H195 H 0.21945 0.86804 0.90884 0.0
H196 H 0.22252 0.91806 0.83318 0.0
H197 H 0.18101 0.93233 0.79579 0.0
H198 H 0.16214 0.90815 0.80734 0.0
H199 H 0.20334 0.89412 0.8449 0.0
C200 C 0.13273 0.18305 0.82772 0.0
C201 C 0.13035 0.20049 0.83365 0.0
C202 C 0.10415 0.2034 0.81442 0.0
C203 C 0.11621 0.21057 0.82705 0.0
C204 C 0.1063 0.18569 0.80902 0.0
C205 C 0.12046 0.17565 0.81559 0.0
U206 U 0.17279 0.17459 0.85853 0.0
O207 O 0.18372 0.14936 0.86833 0.0
O208 O 0.20013 0.16714 0.85171 0.0
C209 C 0.19883 0.15166 0.85978 0.0
C210 C 0.14835 0.17272 0.83331 0.0
C211 C 0.20515 0.13639 0.84955 0.0
C212 C 0.20206 0.11511 0.82539 0.0
C213 C 0.19526 0.1292 0.8353 0.0
C214 C 0.22856 0.11528 0.844 0.0
C215 C 0.21887 0.10802 0.82957 0.0
C216 C 0.22176 0.12927 0.85386 0.0
C217 C 0.18245 0.20626 0.89758 0.0
C218 C 0.20684 0.20271 0.91878 0.0
C219 C 0.18913 0.22929 0.91926 0.0
C220 C 0.17881 0.22277 0.90509 0.0
C221 C 0.20333 0.2194 0.9263 0.0
C222 C 0.19649 0.1962 0.90453 0.0
C223 C 0.17169 0.20009 0.88226 0.0
O224 O 0.16389 0.18075 0.83129 0.0
O225 O 0.14696 0.16416 0.84856 0.0
O226 O 0.16337 0.1847 0.88421 0.0
O227 O 0.17922 0.20201 0.8666 0.0
H228 H 0.1397 0.20644 0.84303 0.0
H229 H 0.11512 0.22421 0.83137 0.0
H230 H 0.09715 0.17963 0.79953 0.0
H231 H 0.12203 0.16218 0.81092 0.0
H232 H 0.19416 0.10979 0.81447 0.0
H233 H 0.1824 0.13457 0.83175 0.0
H234 H 0.24169 0.11049 0.84741 0.0
H235 H 0.22964 0.13475 0.86474 0.0
H236 H 0.21757 0.19467 0.92392 0.0
H237 H 0.18623 0.24233 0.92438 0.0
H238 H 0.1681 0.23077 0.89982 0.0
H239 H 0.19952 0.18341 0.89886 0.0
C240 C 0.82573 0.13584 0.85312 0.0
C241 C 0.83568 0.12974 0.83869 0.0
C242 C 0.81266 0.10732 0.83215 0.0
C243 C 0.8292 0.11558 0.82828 0.0
C244 C 0.8029 0.11349 0.84676 0.0
C245 C 0.80939 0.12757 0.85711 0.0
U246 U 0.85771 0.17498 0.86417 0.0
O247 O 0.85111 0.20202 0.87246 0.0
O248 O 0.8662 0.18487 0.89055 0.0
C249 C 0.85775 0.19991 0.88856 0.0
C250 C 0.83172 0.15112 0.8639 0.0
C251 C 0.84577 0.20475 0.90319 0.0
C252 C 0.8173 0.20179 0.9183 0.0
C253 C 0.82922 0.19608 0.90533 0.0
C254 C 0.83861 0.22447 0.92759 0.0
C255 C 0.82171 0.21627 0.92939 0.0
C256 C 0.8505 0.21877 0.91457 0.0
C257 C 0.89837 0.1847 0.83412 0.0
C258 C 0.91561 0.21234 0.83341 0.0
C259 C 0.92384 0.18792 0.81446 0.0
C260 C 0.90981 0.17764 0.8214 0.0
C261 C 0.92672 0.20553 0.8201 0.0
C262 C 0.90152 0.20202 0.84033 0.0
C263 C 0.8826 0.17419 0.8397 0.0
O264 O 0.84659 0.14918 0.87301 0.0
O265 O 0.83059 0.16672 0.85611 0.0
O266 O 0.86717 0.18191 0.83736 0.0
O267 O 0.88383 0.16571 0.85499 0.0
H268 H 0.84835 0.13602 0.83539 0.0
H269 H 0.83713 0.11112 0.81722 0.0
H270 H 0.78997 0.10778 0.84995 0.0
H271 H 0.80147 0.13219 0.86813 0.0
H272 H 0.8045 0.19504 0.91946 0.0
H273 H 0.82536 0.18517 0.8967 0.0
H274 H 0.84237 0.23577 0.93573 0.0
H275 H 0.86322 0.22564 0.91309 0.0
H276 H 0.91732 0.2259 0.83793 0.0
H277 H 0.93227 0.18217 0.80444 0.0
H278 H 0.9076 0.16428 0.81647 0.0
H279 H 0.8928 0.20772 0.85014 0.0
C280 C 0.84564 0.89568 0.82967 0.0
C281 C 0.829 0.89785 0.83772 0.0
C282 C 0.82263 0.92274 0.81784 0.0
C283 C 0.8176 0.91124 0.83186 0.0
C284 C 0.83962 0.92092 0.8103 0.0
C285 C 0.85099 0.90747 0.81613 0.0
U286 U 0.85625 0.85606 0.85961 0.0
O287 O 0.86413 0.829 0.85256 0.0
O288 O 0.88198 0.84566 0.86894 0.0
C289 C 0.87979 0.83057 0.86039 0.0
C290 C 0.85701 0.88063 0.83459 0.0
C291 C 0.89504 0.82443 0.84993 0.0
C292 C 0.91736 0.82862 0.82682 0.0
C293 C 0.90335 0.83522 0.83702 0.0
C294 C 0.9149 0.80047 0.84242 0.0
C295 C 0.92325 0.81108 0.82931 0.0
C296 C 0.90099 0.8071 0.8526 0.0
C297 C 0.82444 0.84593 0.89874 0.0
C298 C 0.82737 0.82128 0.91959 0.0
C299 C 0.8012 0.83965 0.92036 0.0
C300 C 0.80801 0.84993 0.90634 0.0
C301 C 0.81071 0.82511 0.92715 0.0
C302 C 0.83417 0.8316 0.90549 0.0
C303 C 0.83074 0.8566 0.88346 0.0
O304 O 0.86584 0.88213 0.84971 0.0
O305 O 0.84957 0.86486 0.83246 0.0
O306 O 0.8289 0.84909 0.86779 0.0
O307 O 0.84613 0.86499 0.88549 0.0
H308 H 0.82466 0.88893 0.84826 0.0
H309 H 0.80471 0.91241 0.83812 0.0
H310 H 0.84385 0.92941 0.79938 0.0
H311 H 0.86378 0.90598 0.80975 0.0
H312 H 0.92354 0.83723 0.81697 0.0
H313 H 0.8989 0.84866 0.83473 0.0
H314 H 0.91872 0.78682 0.84451 0.0
H315 H 0.89466 0.79852 0.86241 0.0
H316 H 0.83513 0.81029 0.92454 0.0
H317 H 0.78819 0.84282 0.9255 0.0
H318 H 0.80025 0.86087 0.90123 0.0
H319 H 0.8469 0.8283 0.89975 0.0
C320 C 0.18302 0.63364 0.70511 0.0
C321 C 0.1994 0.63135 0.69657 0.0
C322 C 0.20628 0.60661 0.71648 0.0
C323 C 0.21092 0.61797 0.7022 0.0
C324 C 0.1895 0.60851 0.72445 0.0
C325 C 0.17801 0.62194 0.71884 0.0
U326 U 0.17145 0.67406 0.67633 0.0
O327 O 0.14542 0.68513 0.66887 0.0
O328 O 0.1645 0.70104 0.68462 0.0
C329 C 0.1483 0.69984 0.67791 0.0
C330 C 0.17171 0.64892 0.70078 0.0
C331 C 0.13375 0.70622 0.68941 0.0
C332 C 0.10374 0.70372 0.70165 0.0
C333 C 0.11763 0.69665 0.69162 0.0
C334 C 0.12188 0.72993 0.70755 0.0
C335 C 0.10563 0.72054 0.70963 0.0
C336 C 0.13568 0.7229 0.69752 0.0
C337 C 0.20084 0.6857 0.63572 0.0
C338 C 0.21109 0.71419 0.62381 0.0
C339 C 0.21089 0.6882 0.605 0.0
C340 C 0.20403 0.67798 0.6191 0.0
C341 C 0.21485 0.7064 0.60725 0.0
C342 C 0.20411 0.704 0.63784 0.0
C343 C 0.19538 0.67426 0.65091 0.0
O344 O 0.17947 0.66455 0.70286 0.0
O345 O 0.16222 0.64778 0.68603 0.0
O346 O 0.17988 0.66596 0.64946 0.0
O347 O 0.19841 0.68067 0.66692 0.0
H348 H 0.20348 0.64024 0.6859 0.0
H349 H 0.22364 0.61674 0.69562 0.0
H350 H 0.18557 0.60016 0.73559 0.0
H351 H 0.16545 0.62355 0.72563 0.0
H352 H 0.0914 0.69616 0.70286 0.0
H353 H 0.11564 0.6838 0.68543 0.0
H354 H 0.12402 0.74273 0.71378 0.0
H355 H 0.14788 0.73063 0.69596 0.0
H356 H 0.21418 0.72807 0.62623 0.0
H357 H 0.21331 0.68176 0.59241 0.0
H358 H 0.20159 0.6639 0.61712 0.0
H359 H 0.20178 0.71037 0.65049 0.0
C360 C 0.82044 0.68579 0.63479 0.0
C361 C 0.82792 0.70269 0.63156 0.0
C362 C 0.80694 0.70729 0.60704 0.0
C363 C 0.82124 0.71334 0.61779 0.0
C364 C 0.79989 0.69011 0.61006 0.0
C365 C 0.80658 0.67949 0.62381 0.0
U366 U 0.85151 0.67648 0.67448 0.0
O367 O 0.84483 0.66797 0.70165 0.0
O368 O 0.86102 0.65081 0.68491 0.0
C369 C 0.85211 0.65234 0.69984 0.0
C370 C 0.82624 0.67496 0.65008 0.0
C371 C 0.84113 0.63676 0.70542 0.0
C372 C 0.81319 0.62393 0.71621 0.0
C373 C 0.82291 0.63834 0.70925 0.0
C374 C 0.83947 0.6058 0.71492 0.0
C375 C 0.82137 0.60751 0.7194 0.0
C376 C 0.84923 0.62029 0.70809 0.0
C377 C 0.8901 0.70933 0.68554 0.0
C378 C 0.91997 0.70666 0.69824 0.0
C379 C 0.9028 0.73291 0.70396 0.0
C380 C 0.8888 0.72602 0.69361 0.0
C381 C 0.91863 0.72339 0.70639 0.0
C382 C 0.90587 0.6997 0.68792 0.0
C383 C 0.87508 0.7027 0.67433 0.0
O384 O 0.84162 0.66704 0.64842 0.0
O385 O 0.8242 0.68228 0.66576 0.0
O386 O 0.85914 0.70393 0.68135 0.0
O387 O 0.87729 0.68777 0.66564 0.0
H388 H 0.83862 0.70779 0.63996 0.0
H389 H 0.82684 0.72657 0.616 0.0
H390 H 0.78905 0.68493 0.6019 0.0
H391 H 0.80068 0.66645 0.6261 0.0
H392 H 0.79939 0.62593 0.71972 0.0
H393 H 0.81622 0.65085 0.70735 0.0
H394 H 0.84618 0.59333 0.7169 0.0
H395 H 0.86325 0.61871 0.70523 0.0
H396 H 0.93199 0.69901 0.69966 0.0
H397 H 0.90106 0.74565 0.71028 0.0
H398 H 0.87686 0.73378 0.69193 0.0
H399 H 0.90737 0.68684 0.68179 0.0
C400 C 0.82988 0.34601 0.63622 0.0
C401 C 0.83756 0.32929 0.63427 0.0
C402 C 0.81745 0.3226 0.60938 0.0
C403 C 0.8314 0.31769 0.62098 0.0
C404 C 0.8103 0.33966 0.611 0.0
C405 C 0.81644 0.35123 0.62432 0.0
U406 U 0.85964 0.35874 0.67618 0.0
O407 O 0.86783 0.38532 0.68589 0.0
O408 O 0.85202 0.36735 0.7029 0.0
C409 C 0.85884 0.38341 0.70078 0.0
C410 C 0.83488 0.35769 0.6512 0.0
C411 C 0.84743 0.39837 0.70599 0.0
C412 C 0.8189 0.40979 0.71562 0.0
C413 C 0.82904 0.39598 0.70882 0.0
C414 C 0.84513 0.42892 0.71616 0.0
C415 C 0.82684 0.42639 0.71967 0.0
C416 C 0.8553 0.41505 0.70947 0.0
C417 C 0.8994 0.32974 0.68906 0.0
C418 C 0.91403 0.33061 0.71805 0.0
C419 C 0.92502 0.31121 0.69512 0.0
C420 C 0.91177 0.31723 0.68344 0.0
C421 C 0.92608 0.31754 0.71271 0.0
C422 C 0.90083 0.33667 0.70633 0.0
C423 C 0.88446 0.33449 0.67719 0.0
O424 O 0.83283 0.35065 0.66712 0.0
O425 O 0.84991 0.36676 0.64957 0.0
O426 O 0.88621 0.34949 0.66829 0.0
O427 O 0.8685 0.33216 0.684 0.0
H428 H 0.848 0.32505 0.6433 0.0
H429 H 0.83737 0.30474 0.61997 0.0
H430 H 0.79943 0.34382 0.60247 0.0
H431 H 0.81032 0.36408 0.62566 0.0
H432 H 0.80495 0.40717 0.71836 0.0
H433 H 0.82255 0.38329 0.70627 0.0
H434 H 0.85168 0.44155 0.71881 0.0
H435 H 0.86945 0.41723 0.70739 0.0
H436 H 0.91461 0.33594 0.73142 0.0
H437 H 0.93392 0.30102 0.69061 0.0
H438 H 0.91085 0.3117 0.67016 0.0
H439 H 0.89144 0.3464 0.7109 0.0
C440 C 0.13503 0.32569 0.68869 0.0
C441 C 0.12053 0.33616 0.69361 0.0
C442 C 0.10657 0.31078 0.70879 0.0
C443 C 0.10644 0.32877 0.70354 0.0
C444 C 0.12121 0.30046 0.70389 0.0
C445 C 0.13518 0.3078 0.69392 0.0
U446 U 0.17313 0.35937 0.67861 0.0
O447 O 0.2005 0.35412 0.66995 0.0
O448 O 0.18272 0.36963 0.65281 0.0
C449 C 0.19824 0.36188 0.6544 0.0
C450 C 0.15 0.33278 0.67787 0.0
C451 C 0.20425 0.35172 0.63889 0.0
C452 C 0.20002 0.32838 0.61688 0.0
C453 C 0.19358 0.3383 0.63116 0.0
C454 C 0.22776 0.34527 0.61789 0.0
C455 C 0.21727 0.33164 0.61013 0.0
C456 C 0.2213 0.35518 0.63208 0.0
C457 C 0.18229 0.39854 0.71026 0.0
C458 C 0.20949 0.41658 0.71014 0.0
C459 C 0.18582 0.42331 0.73069 0.0
C460 C 0.17558 0.40921 0.72382 0.0
C461 C 0.20304 0.42702 0.72415 0.0
C462 C 0.19921 0.40246 0.70327 0.0
C463 C 0.17187 0.38286 0.70436 0.0
O464 O 0.14755 0.34785 0.66931 0.0
O465 O 0.1659 0.33168 0.68521 0.0
O466 O 0.18001 0.36761 0.70586 0.0
O467 O 0.16303 0.3845 0.68927 0.0
H468 H 0.12002 0.35002 0.68975 0.0
H469 H 0.09536 0.33711 0.70694 0.0
H470 H 0.12207 0.28669 0.70799 0.0
H471 H 0.14621 0.29945 0.69031 0.0
H472 H 0.1915 0.31812 0.61118 0.0
H473 H 0.18038 0.3354 0.63628 0.0
H474 H 0.24121 0.34797 0.61338 0.0
H475 H 0.22977 0.3654 0.63795 0.0
H476 H 0.22275 0.4189 0.70491 0.0
H477 H 0.18032 0.4312 0.74128 0.0
H478 H 0.16252 0.40641 0.72936 0.0
H479 H 0.20463 0.39433 0.69282 0.0
C480 C 0.13399 0.32781 0.34877 0.0
C481 C 0.13571 0.32571 0.33027 0.0
C482 C 0.10527 0.31391 0.32816 0.0
C483 C 0.12156 0.31876 0.32012 0.0
C484 C 0.10341 0.31665 0.3466 0.0
C485 C 0.11765 0.32346 0.35678 0.0
U486 U 0.17367 0.35902 0.35898 0.0
O487 O 0.18415 0.36887 0.38465 0.0
O488 O 0.20095 0.35272 0.3675 0.0
C489 C 0.19933 0.36057 0.38297 0.0
C490 C 0.14929 0.33362 0.35998 0.0
C491 C 0.20533 0.3502 0.39849 0.0
C492 C 0.20201 0.32539 0.41916 0.0
C493 C 0.1954 0.33562 0.40499 0.0
C494 C 0.22837 0.34436 0.42052 0.0
C495 C 0.21867 0.32956 0.42703 0.0
C496 C 0.22175 0.35455 0.40643 0.0
C497 C 0.18402 0.39774 0.32713 0.0
C498 C 0.21165 0.41504 0.32827 0.0
C499 C 0.18896 0.42216 0.30638 0.0
C500 C 0.1781 0.40841 0.31301 0.0
C501 C 0.20599 0.4255 0.31375 0.0
C502 C 0.20076 0.40127 0.3349 0.0
C503 C 0.17293 0.38254 0.33301 0.0
O504 O 0.16519 0.33165 0.35307 0.0
O505 O 0.1476 0.34877 0.36837 0.0
O506 O 0.16443 0.38453 0.3481 0.0
O507 O 0.18034 0.36693 0.33159 0.0
H508 H 0.14814 0.32901 0.32368 0.0
H509 H 0.12368 0.31662 0.30605 0.0
H510 H 0.09101 0.31337 0.35324 0.0
H511 H 0.11598 0.32504 0.37101 0.0
H512 H 0.1941 0.3142 0.4239 0.0
H513 H 0.18269 0.33204 0.39896 0.0
H514 H 0.24139 0.34779 0.42593 0.0
H515 H 0.22966 0.36567 0.40149 0.0
H516 H 0.22475 0.41707 0.33413 0.0
H517 H 0.18408 0.43009 0.29536 0.0
H518 H 0.16518 0.4059 0.30689 0.0
H519 H 0.20555 0.39313 0.34581 0.0
C520 C 0.1372 0.68594 0.32971 0.0
C521 C 0.1402 0.70375 0.32467 0.0
C522 C 0.10899 0.70661 0.31583 0.0
C523 C 0.12629 0.71392 0.3178 0.0
C524 C 0.10592 0.68895 0.3214 0.0
C525 C 0.11987 0.67873 0.32818 0.0
U526 U 0.17566 0.67294 0.36132 0.0
O527 O 0.18465 0.64631 0.36951 0.0
O528 O 0.20275 0.66442 0.35509 0.0
C529 C 0.20002 0.64827 0.36134 0.0
C530 C 0.15207 0.6744 0.33534 0.0
C531 C 0.20549 0.63345 0.34977 0.0
C532 C 0.21612 0.62235 0.3214 0.0
C533 C 0.20934 0.63613 0.33165 0.0
C534 C 0.21462 0.60271 0.34697 0.0
C535 C 0.21911 0.60549 0.32897 0.0
C536 C 0.20796 0.61655 0.35724 0.0
C537 C 0.18538 0.70221 0.40249 0.0
C538 C 0.21316 0.7034 0.41938 0.0
C539 C 0.18808 0.7208 0.42877 0.0
C540 C 0.17792 0.71404 0.41458 0.0
C541 C 0.20596 0.71588 0.43113 0.0
C542 C 0.20296 0.69663 0.40516 0.0
C543 C 0.17502 0.697 0.38655 0.0
O544 O 0.16826 0.68127 0.33423 0.0
O545 O 0.1496 0.66485 0.34986 0.0
O546 O 0.16608 0.68186 0.38747 0.0
O547 O 0.18312 0.69942 0.37125 0.0
H548 H 0.15339 0.70975 0.3256 0.0
H549 H 0.1293 0.72735 0.31341 0.0
H550 H 0.09275 0.68291 0.32035 0.0
H551 H 0.11718 0.66504 0.33191 0.0
H552 H 0.21963 0.62515 0.3077 0.0
H553 H 0.20757 0.64901 0.32545 0.0
H554 H 0.21643 0.58987 0.35322 0.0
H555 H 0.20507 0.61412 0.37118 0.0
H556 H 0.22693 0.69945 0.42068 0.0
H557 H 0.18203 0.73018 0.43769 0.0
H558 H 0.16435 0.71846 0.41276 0.0
H559 H 0.20896 0.68751 0.39594 0.0
C560 C 0.82177 0.63445 0.34782 0.0
C561 C 0.83287 0.62016 0.34378 0.0
C562 C 0.80851 0.60541 0.32753 0.0
C563 C 0.82629 0.60578 0.33371 0.0
C564 C 0.79759 0.61986 0.33151 0.0
C565 C 0.80412 0.63411 0.34158 0.0
U566 U 0.85328 0.67401 0.35993 0.0
O567 O 0.84611 0.70091 0.36802 0.0
O568 O 0.86107 0.68401 0.38652 0.0
C569 C 0.85244 0.69892 0.38428 0.0
C570 C 0.82782 0.64962 0.35892 0.0
C571 C 0.84075 0.70444 0.39904 0.0
C572 C 0.81275 0.71625 0.40971 0.0
C573 C 0.82295 0.70924 0.39597 0.0
C574 C 0.83765 0.71311 0.43008 0.0
C575 C 0.82003 0.71855 0.42691 0.0
C576 C 0.84789 0.70622 0.41629 0.0
C577 C 0.89414 0.68599 0.33105 0.0
C578 C 0.90651 0.71432 0.32078 0.0
C579 C 0.9253 0.68855 0.32231 0.0
C580 C 0.91091 0.67837 0.32874 0.0
C581 C 0.92322 0.7066 0.31787 0.0
C582 C 0.89218 0.70417 0.32734 0.0
C583 C 0.87867 0.67452 0.33598 0.0
O584 O 0.84261 0.64784 0.36825 0.0
O585 O 0.82635 0.6654 0.35156 0.0
O586 O 0.8628 0.6812 0.33324 0.0
O587 O 0.8799 0.66567 0.35108 0.0
H588 H 0.84656 0.62002 0.34844 0.0
H589 H 0.83507 0.59487 0.33098 0.0
H590 H 0.78398 0.62033 0.32665 0.0
H591 H 0.79529 0.64495 0.34451 0.0
H592 H 0.79936 0.7205 0.40662 0.0
H593 H 0.81701 0.70808 0.38283 0.0
H594 H 0.84365 0.7144 0.44318 0.0
H595 H 0.86157 0.70263 0.41902 0.0
H596 H 0.90424 0.72807 0.31732 0.0
H597 H 0.938 0.68218 0.32056 0.0
H598 H 0.91278 0.66439 0.33152 0.0
H599 H 0.87944 0.71049 0.32898 0.0
C600 C 0.8467 0.39527 0.328 0.0
C601 C 0.82817 0.39315 0.32573 0.0
C602 C 0.82594 0.42357 0.31457 0.0
C603 C 0.81795 0.40708 0.31903 0.0
C604 C 0.84442 0.42579 0.31741 0.0
C605 C 0.85467 0.41178 0.32398 0.0
U606 U 0.85713 0.35571 0.35865 0.0
O607 O 0.86569 0.32879 0.3519 0.0
O608 O 0.88284 0.3458 0.36862 0.0
C609 C 0.88111 0.33063 0.36013 0.0
C610 C 0.85798 0.38025 0.33365 0.0
C611 C 0.89672 0.32456 0.35017 0.0
C612 C 0.9195 0.3286 0.32749 0.0
C613 C 0.90521 0.33523 0.33728 0.0
C614 C 0.91699 0.30069 0.34349 0.0
C615 C 0.9255 0.31115 0.33037 0.0
C616 C 0.90282 0.30733 0.35327 0.0
C617 C 0.82426 0.34465 0.39691 0.0
C618 C 0.8277 0.33084 0.42617 0.0
C619 C 0.79929 0.329 0.41077 0.0
C620 C 0.80643 0.33875 0.39655 0.0
C621 C 0.80976 0.32501 0.42586 0.0
C622 C 0.83489 0.34056 0.41184 0.0
C623 C 0.831 0.35552 0.38182 0.0
O624 O 0.86642 0.38201 0.34897 0.0
O625 O 0.85113 0.36425 0.33128 0.0
O626 O 0.82965 0.34821 0.366 0.0
O627 O 0.84606 0.36442 0.3842 0.0
H628 H 0.8216 0.38059 0.32875 0.0
H629 H 0.80384 0.40468 0.31681 0.0
H630 H 0.85104 0.43833 0.31444 0.0
H631 H 0.86892 0.41377 0.32567 0.0
H632 H 0.92579 0.33711 0.31762 0.0
H633 H 0.90065 0.34857 0.33467 0.0
H634 H 0.92089 0.2871 0.34588 0.0
H635 H 0.89635 0.29885 0.36307 0.0
H636 H 0.83614 0.32812 0.43759 0.0
H637 H 0.78556 0.32442 0.4098 0.0
H638 H 0.79795 0.34172 0.38522 0.0
H639 H 0.84869 0.34497 0.41254 0.0
C640 C 0.68608 0.13465 0.71084 0.0
C641 C 0.70422 0.13741 0.71501 0.0
C642 C 0.70692 0.10648 0.72447 0.0
C643 C 0.71447 0.12353 0.72179 0.0
C644 C 0.68887 0.10365 0.71981 0.0
C645 C 0.67858 0.11759 0.71314 0.0
U646 U 0.6743 0.17327 0.6793 0.0
O647 O 0.64809 0.18242 0.6698 0.0
O648 O 0.66547 0.20021 0.68544 0.0
C649 C 0.64978 0.19782 0.67785 0.0
C650 C 0.6746 0.14951 0.70506 0.0
C651 C 0.6344 0.2036 0.68835 0.0
C652 C 0.6172 0.20364 0.71572 0.0
C653 C 0.63108 0.19684 0.70549 0.0
C654 C 0.60958 0.22365 0.6916 0.0
C655 C 0.60646 0.21735 0.709 0.0
C656 C 0.6234 0.21684 0.6814 0.0
C657 C 0.70545 0.18302 0.63954 0.0
C658 C 0.70164 0.20693 0.618 0.0
C659 C 0.72832 0.18928 0.61753 0.0
C660 C 0.72191 0.17923 0.6319 0.0
C661 C 0.71836 0.20336 0.61044 0.0
C662 C 0.69525 0.19685 0.63245 0.0
C663 C 0.69962 0.17272 0.65525 0.0
O664 O 0.6814 0.16563 0.70668 0.0
O665 O 0.6656 0.14723 0.69012 0.0
O666 O 0.6845 0.16378 0.65366 0.0
O667 O 0.70133 0.18085 0.67062 0.0
H668 H 0.71045 0.15039 0.71342 0.0
H669 H 0.72819 0.12638 0.72547 0.0
H670 H 0.68262 0.09069 0.72141 0.0
H671 H 0.66464 0.1151 0.71004 0.0
H672 H 0.61531 0.19859 0.72912 0.0
H673 H 0.63947 0.18663 0.71109 0.0
H674 H 0.60143 0.234 0.6859 0.0
H675 H 0.62574 0.2222 0.66818 0.0
H676 H 0.69353 0.21756 0.61281 0.0
H677 H 0.74139 0.18633 0.61238 0.0
H678 H 0.73002 0.16867 0.63727 0.0
H679 H 0.68248 0.19997 0.63821 0.0
C680 C 0.32375 0.18693 0.63513 0.0
C681 C 0.33192 0.20368 0.63296 0.0
C682 C 0.31134 0.21058 0.60871 0.0
C683 C 0.32577 0.2154 0.61987 0.0
C684 C 0.30369 0.19348 0.61047 0.0
C685 C 0.30983 0.18178 0.62362 0.0
U686 U 0.35396 0.17597 0.67462 0.0
O687 O 0.34711 0.16754 0.70175 0.0
O688 O 0.36289 0.15004 0.68496 0.0
C689 C 0.35404 0.15175 0.69991 0.0
C690 C 0.32884 0.17528 0.65005 0.0
C691 C 0.34274 0.13642 0.70554 0.0
C692 C 0.31464 0.12432 0.71674 0.0
C693 C 0.32462 0.13846 0.70961 0.0
C694 C 0.34042 0.10552 0.71513 0.0
C695 C 0.32245 0.1077 0.71987 0.0
C696 C 0.35045 0.11974 0.70813 0.0
C697 C 0.39287 0.2086 0.68574 0.0
C698 C 0.42273 0.20596 0.69843 0.0
C699 C 0.40581 0.2325 0.70355 0.0
C700 C 0.39173 0.22548 0.69341 0.0
C701 C 0.42156 0.2229 0.70615 0.0
C702 C 0.40854 0.19888 0.68832 0.0
C703 C 0.37781 0.20194 0.67461 0.0
O704 O 0.34404 0.16702 0.64838 0.0
O705 O 0.32674 0.18215 0.66593 0.0
O706 O 0.36189 0.2033 0.68162 0.0
O707 O 0.37994 0.18695 0.66599 0.0
H708 H 0.34275 0.20785 0.6417 0.0
H709 H 0.33209 0.22839 0.61871 0.0
H710 H 0.29247 0.18943 0.60222 0.0
H711 H 0.30334 0.16891 0.62515 0.0
H712 H 0.30096 0.12668 0.72045 0.0
H713 H 0.31823 0.15114 0.70779 0.0
H714 H 0.34684 0.09288 0.71705 0.0
H715 H 0.36438 0.11781 0.7051 0.0
H716 H 0.43469 0.19824 0.7 0.0
H717 H 0.40421 0.24541 0.70956 0.0
H718 H 0.37986 0.23331 0.69156 0.0
H719 H 0.40991 0.18586 0.68247 0.0
C720 C 0.32805 0.84714 0.63609 0.0
C721 C 0.33525 0.83015 0.63451 0.0
C722 C 0.3156 0.82384 0.60919 0.0
C723 C 0.32906 0.8186 0.6212 0.0
C724 C 0.30896 0.84115 0.61041 0.0
C725 C 0.31511 0.85266 0.62378 0.0
U726 U 0.35802 0.85984 0.67582 0.0
O727 O 0.36608 0.88638 0.68572 0.0
O728 O 0.35058 0.86812 0.70272 0.0
C729 C 0.35725 0.88426 0.70068 0.0
C730 C 0.33303 0.85878 0.65109 0.0
C731 C 0.34575 0.89905 0.7061 0.0
C732 C 0.31704 0.91024 0.71552 0.0
C733 C 0.32731 0.89659 0.70857 0.0
C734 C 0.34327 0.92933 0.71694 0.0
C735 C 0.32493 0.92672 0.72009 0.0
C736 C 0.35356 0.91563 0.7101 0.0
C737 C 0.39817 0.83124 0.68805 0.0
C738 C 0.41398 0.83378 0.71633 0.0
C739 C 0.42294 0.81185 0.69483 0.0
C740 C 0.40959 0.81759 0.68313 0.0
C741 C 0.42507 0.81962 0.71173 0.0
C742 C 0.40064 0.83953 0.70459 0.0
C743 C 0.38308 0.83584 0.67634 0.0
O744 O 0.33118 0.85162 0.66699 0.0
O745 O 0.34795 0.86803 0.64939 0.0
O746 O 0.38456 0.85092 0.66754 0.0
O747 O 0.36722 0.83328 0.68331 0.0
H748 H 0.34531 0.82568 0.64385 0.0
H749 H 0.33462 0.80545 0.62048 0.0
H750 H 0.29848 0.84555 0.60152 0.0
H751 H 0.30938 0.86572 0.62482 0.0
H752 H 0.30304 0.90758 0.71795 0.0
H753 H 0.32087 0.88396 0.7056 0.0
H754 H 0.34978 0.9419 0.71998 0.0
H755 H 0.36774 0.91786 0.7083 0.0
H756 H 0.41539 0.84021 0.72914 0.0
H757 H 0.43107 0.8008 0.69092 0.0
H758 H 0.40783 0.811 0.67043 0.0
H759 H 0.39197 0.85014 0.70861 0.0
C760 C 0.63074 0.82654 0.685 0.0
C761 C 0.62831 0.83225 0.70257 0.0
C762 C 0.60225 0.81262 0.70555 0.0
C763 C 0.61421 0.82535 0.71275 0.0
C764 C 0.60445 0.80744 0.68771 0.0
C765 C 0.61856 0.81432 0.67757 0.0
U766 U 0.67057 0.858 0.6766 0.0
O767 O 0.69805 0.85172 0.66911 0.0
O768 O 0.68169 0.8681 0.65136 0.0
C769 C 0.6968 0.85974 0.65358 0.0
C770 C 0.64634 0.83245 0.67457 0.0
C771 C 0.70316 0.84955 0.63826 0.0
C772 C 0.69917 0.82661 0.61581 0.0
C773 C 0.69244 0.83654 0.62995 0.0
C774 C 0.72731 0.84267 0.61819 0.0
C775 C 0.71675 0.82948 0.6098 0.0
C776 C 0.72057 0.85258 0.63222 0.0
C777 C 0.67978 0.89668 0.70875 0.0
C778 C 0.70388 0.9184 0.70513 0.0
C779 C 0.68705 0.91736 0.73254 0.0
C780 C 0.6766 0.90338 0.72578 0.0
C781 C 0.70092 0.92502 0.72237 0.0
C782 C 0.69342 0.90433 0.69839 0.0
C783 C 0.66909 0.88138 0.7024 0.0
O784 O 0.64488 0.8477 0.66613 0.0
O785 O 0.66186 0.83063 0.68254 0.0
O786 O 0.67663 0.86585 0.7042 0.0
O787 O 0.66093 0.88336 0.68698 0.0
H788 H 0.63759 0.8417 0.70854 0.0
H789 H 0.6131 0.8295 0.72648 0.0
H790 H 0.59537 0.79789 0.68163 0.0
H791 H 0.62018 0.80981 0.664 0.0
H792 H 0.6906 0.81668 0.60961 0.0
H793 H 0.67895 0.83397 0.63448 0.0
H794 H 0.74101 0.84504 0.61425 0.0
H795 H 0.72909 0.86248 0.63857 0.0
H796 H 0.71433 0.92404 0.69686 0.0
H797 H 0.68457 0.92179 0.74598 0.0
H798 H 0.66621 0.89756 0.73401 0.0
H799 H 0.69609 0.89929 0.6852 0.0
C800 C 0.63314 0.82523 0.34642 0.0
C801 C 0.63517 0.8227 0.32802 0.0
C802 C 0.60472 0.81097 0.32561 0.0
C803 C 0.62118 0.81559 0.31777 0.0
C804 C 0.60256 0.81409 0.34395 0.0
C805 C 0.61664 0.82107 0.35423 0.0
U806 U 0.67206 0.85723 0.35732 0.0
O807 O 0.68205 0.86703 0.38318 0.0
O808 O 0.6994 0.85145 0.36604 0.0
C809 C 0.69745 0.85911 0.38157 0.0
C810 C 0.64825 0.83128 0.35778 0.0
C811 C 0.7036 0.84877 0.39707 0.0
C812 C 0.70025 0.82433 0.41817 0.0
C813 C 0.69357 0.83444 0.40394 0.0
C814 C 0.72692 0.84289 0.41879 0.0
C815 C 0.71709 0.82836 0.42571 0.0
C816 C 0.72023 0.85297 0.40466 0.0
C817 C 0.68168 0.8966 0.32594 0.0
C818 C 0.70904 0.91433 0.32691 0.0
C819 C 0.68566 0.92176 0.30588 0.0
C820 C 0.67521 0.90761 0.31234 0.0
C821 C 0.70283 0.92516 0.31289 0.0
C822 C 0.69856 0.90018 0.33337 0.0
C823 C 0.67098 0.88104 0.33161 0.0
O824 O 0.66426 0.82976 0.35097 0.0
O825 O 0.64615 0.84627 0.36636 0.0
O826 O 0.6623 0.88264 0.34665 0.0
O827 O 0.67881 0.86565 0.33009 0.0
H828 H 0.64772 0.82582 0.32157 0.0
H829 H 0.62353 0.81315 0.30379 0.0
H830 H 0.59003 0.811 0.35043 0.0
H831 H 0.61472 0.82295 0.36838 0.0
H832 H 0.69225 0.81335 0.42323 0.0
H833 H 0.6807 0.83098 0.39819 0.0
H834 H 0.74008 0.8462 0.42393 0.0
H835 H 0.72822 0.8639 0.39943 0.0
H836 H 0.72226 0.9164 0.33248 0.0
H837 H 0.68034 0.92995 0.29527 0.0
H838 H 0.66218 0.90508 0.30649 0.0
H839 H 0.70378 0.89179 0.34389 0.0
C840 C 0.63586 0.18522 0.32791 0.0
C841 C 0.62134 0.1899 0.33857 0.0
C842 C 0.60734 0.20489 0.31325 0.0
C843 C 0.60721 0.19963 0.3313 0.0
C844 C 0.62202 0.20025 0.30276 0.0
C845 C 0.63602 0.19049 0.30998 0.0
U846 U 0.67371 0.17496 0.36154 0.0
O847 O 0.68346 0.14912 0.37097 0.0
O848 O 0.7012 0.16705 0.35594 0.0
C849 C 0.69904 0.15128 0.36325 0.0
C850 C 0.65086 0.17461 0.33483 0.0
C851 C 0.70532 0.13626 0.35262 0.0
C852 C 0.70194 0.1154 0.32812 0.0
C853 C 0.69529 0.12934 0.33833 0.0
C854 C 0.72863 0.1152 0.34645 0.0
C855 C 0.71876 0.10819 0.33201 0.0
C856 C 0.72196 0.12905 0.35663 0.0
C857 C 0.68237 0.20521 0.40191 0.0
C858 C 0.71011 0.20651 0.41889 0.0
C859 C 0.68484 0.22359 0.42836 0.0
C860 C 0.67478 0.21689 0.41406 0.0
C861 C 0.70276 0.21877 0.43078 0.0
C862 C 0.7 0.19979 0.40459 0.0
C863 C 0.67206 0.19972 0.38601 0.0
O864 O 0.66669 0.18229 0.33398 0.0
O865 O 0.64831 0.16561 0.34969 0.0
O866 O 0.6633 0.1845 0.38714 0.0
O867 O 0.68023 0.20195 0.37071 0.0
H868 H 0.62084 0.18601 0.35247 0.0
H869 H 0.59612 0.20285 0.33977 0.0
H870 H 0.62288 0.20437 0.28895 0.0
H871 H 0.64707 0.18707 0.3015 0.0
H872 H 0.69391 0.11028 0.31721 0.0
H873 H 0.6824 0.13479 0.33501 0.0
H874 H 0.74177 0.11032 0.34966 0.0
H875 H 0.72995 0.13431 0.36753 0.0
H876 H 0.7239 0.20264 0.42019 0.0
H877 H 0.67865 0.23278 0.43738 0.0
H878 H 0.66117 0.22118 0.41225 0.0
H879 H 0.70611 0.19076 0.39534 0.0
C880 C 0.3246 0.13734 0.35293 0.0
C881 C 0.33466 0.13092 0.33871 0.0
C882 C 0.31184 0.10816 0.33266 0.0
C883 C 0.32834 0.11644 0.32867 0.0
C884 C 0.302 0.1146 0.3471 0.0
C885 C 0.30833 0.12901 0.35711 0.0
U886 U 0.35561 0.17766 0.36109 0.0
O887 O 0.34862 0.20487 0.36847 0.0
O888 O 0.36538 0.18907 0.38637 0.0
C889 C 0.35663 0.2039 0.38405 0.0
C890 C 0.33038 0.15309 0.36312 0.0
C891 C 0.34617 0.21004 0.39931 0.0
C892 C 0.32135 0.20683 0.41987 0.0
C893 C 0.33158 0.20018 0.40588 0.0
C894 C 0.34034 0.23312 0.42088 0.0
C895 C 0.32554 0.22347 0.42748 0.0
C896 C 0.35053 0.22646 0.40698 0.0
C897 C 0.39434 0.18749 0.32846 0.0
C898 C 0.42379 0.2014 0.33167 0.0
C899 C 0.40815 0.20289 0.30341 0.0
C900 C 0.3939 0.19318 0.31065 0.0
C901 C 0.42338 0.20704 0.31375 0.0
C902 C 0.40943 0.19172 0.33896 0.0
C903 C 0.37916 0.1767 0.33535 0.0
O904 O 0.34573 0.15198 0.37158 0.0
O905 O 0.32831 0.16839 0.35493 0.0
O906 O 0.36333 0.18372 0.33346 0.0
O907 O 0.38131 0.16859 0.35077 0.0
H908 H 0.34726 0.13724 0.33527 0.0
H909 H 0.33636 0.11178 0.31776 0.0
H910 H 0.28909 0.10887 0.35038 0.0
H911 H 0.30032 0.13386 0.36796 0.0
H912 H 0.31016 0.19895 0.42467 0.0
H913 H 0.328 0.18746 0.40009 0.0
H914 H 0.3438 0.24612 0.42609 0.0
H915 H 0.36167 0.23432 0.40199 0.0
H916 H 0.43531 0.20425 0.34 0.0
H917 H 0.4071 0.20731 0.28971 0.0
H918 H 0.38246 0.19008 0.30227 0.0
H919 H 0.4102 0.18747 0.35274 0.0
C920 C 0.34912 0.89661 0.32737 0.0
C921 C 0.33215 0.8995 0.33445 0.0
C922 C 0.32804 0.92472 0.31433 0.0
C923 C 0.32171 0.91343 0.328 0.0
C924 C 0.34531 0.92206 0.30771 0.0
C925 C 0.35571 0.90814 0.31417 0.0
U926 U 0.35898 0.85692 0.35816 0.0
O927 O 0.36614 0.82966 0.35101 0.0
O928 O 0.38473 0.84606 0.36681 0.0
C929 C 0.382 0.83094 0.35847 0.0
C930 C 0.35971 0.88115 0.3328 0.0
C931 C 0.3969 0.82429 0.34783 0.0
C932 C 0.41937 0.82779 0.32478 0.0
C933 C 0.40551 0.83481 0.3349 0.0
C934 C 0.41612 0.79977 0.34047 0.0
C935 C 0.42482 0.81013 0.32739 0.0
C936 C 0.40236 0.80679 0.35056 0.0
C937 C 0.32946 0.84626 0.39827 0.0
C938 C 0.33015 0.8178 0.41365 0.0
C939 C 0.3109 0.84092 0.42426 0.0
C940 C 0.31697 0.85219 0.41061 0.0
C941 C 0.31714 0.82345 0.42573 0.0
C942 C 0.33627 0.8291 0.40007 0.0
C943 C 0.33454 0.8577 0.38307 0.0
O944 O 0.36884 0.88269 0.34774 0.0
O945 O 0.35159 0.86564 0.33117 0.0
O946 O 0.33182 0.85065 0.36729 0.0
O947 O 0.35 0.86607 0.38443 0.0
H948 H 0.32681 0.89071 0.34464 0.0
H949 H 0.30842 0.91493 0.33327 0.0
H950 H 0.35073 0.93062 0.29739 0.0
H951 H 0.3688 0.90615 0.30857 0.0
H952 H 0.42583 0.83621 0.31494 0.0
H953 H 0.40145 0.84837 0.33258 0.0
H954 H 0.4196 0.78603 0.34264 0.0
H955 H 0.3958 0.79843 0.36041 0.0
H956 H 0.3354 0.80451 0.41454 0.0
H957 H 0.30077 0.84564 0.4332 0.0
H958 H 0.31156 0.86539 0.40942 0.0
H959 H 0.34599 0.82432 0.39071 0.0
C960 C 0.68248 0.6311 0.20491 0.0
C961 C 0.69968 0.62989 0.19782 0.0
C962 C 0.70571 0.60428 0.21685 0.0
C963 C 0.71119 0.61663 0.20375 0.0
C964 C 0.68819 0.60512 0.22335 0.0
C965 C 0.67672 0.61845 0.21747 0.0
U966 U 0.67113 0.67113 0.17566 0.0
O967 O 0.6451 0.68123 0.16669 0.0
O968 O 0.66276 0.69782 0.18331 0.0
C969 C 0.64707 0.69616 0.17553 0.0
C970 C 0.6709 0.64605 0.20015 0.0
C971 C 0.63174 0.7018 0.18616 0.0
C972 C 0.61475 0.70172 0.21366 0.0
C973 C 0.62856 0.69498 0.2033 0.0
C974 C 0.60689 0.72179 0.18967 0.0
C975 C 0.60393 0.71543 0.20708 0.0
C976 C 0.62066 0.71504 0.17935 0.0
C977 C 0.70183 0.68352 0.13666 0.0
C978 C 0.70156 0.71221 0.12169 0.0
C979 C 0.72123 0.6893 0.11137 0.0
C980 C 0.71474 0.67782 0.12464 0.0
C981 C 0.71497 0.70677 0.10995 0.0
C982 C 0.69504 0.70069 0.1349 0.0
C983 C 0.69637 0.67181 0.1515 0.0
O984 O 0.67806 0.6619 0.20259 0.0
O985 O 0.66212 0.64465 0.185 0.0
O986 O 0.68119 0.66307 0.14941 0.0
O987 O 0.69829 0.67865 0.16748 0.0
H988 H 0.70435 0.63949 0.18804 0.0
H989 H 0.72451 0.61624 0.19831 0.0
H990 H 0.68361 0.59595 0.23356 0.0
H991 H 0.66349 0.61918 0.22311 0.0
H992 H 0.61297 0.69663 0.22707 0.0
H993 H 0.63701 0.68477 0.20882 0.0
H994 H 0.59869 0.73214 0.18407 0.0
H995 H 0.62288 0.72045 0.16613 0.0
H996 H 0.69629 0.72548 0.12081 0.0
H997 H 0.73166 0.68474 0.1027 0.0
H998 H 0.72015 0.66461 0.12582 0.0
H999 H 0.685 0.7053 0.14401 0.0
C1000 C 0.32331 0.68245 0.13253 0.0
C1001 C 0.334 0.69618 0.12541 0.0
C1002 C 0.31076 0.70304 0.1036 0.0
C1003 C 0.32779 0.70636 0.11103 0.0
C1004 C 0.30031 0.68902 0.11068 0.0
C1005 C 0.30654 0.67886 0.12496 0.0
U1006 U 0.3538 0.67427 0.17306 0.0
O1007 O 0.34647 0.66666 0.20033 0.0
O1008 O 0.36284 0.64884 0.18448 0.0
C1009 C 0.35363 0.6509 0.19916 0.0
C1010 C 0.32893 0.67224 0.1483 0.0
C1011 C 0.34243 0.63556 0.20502 0.0
C1012 C 0.31465 0.62343 0.21698 0.0
C1013 C 0.3245 0.63765 0.20981 0.0
C1014 C 0.3402 0.6045 0.21411 0.0
C1015 C 0.32242 0.6067 0.21948 0.0
C1016 C 0.35009 0.61878 0.20705 0.0
C1017 C 0.39258 0.7069 0.18393 0.0
C1018 C 0.42225 0.70423 0.19708 0.0
C1019 C 0.40508 0.73058 0.20236 0.0
C1020 C 0.39121 0.72366 0.19185 0.0
C1021 C 0.42083 0.72101 0.2051 0.0
C1022 C 0.40828 0.69725 0.18661 0.0
C1023 C 0.37768 0.7002 0.17259 0.0
O1024 O 0.34426 0.66412 0.14718 0.0
O1025 O 0.32671 0.68016 0.16365 0.0
O1026 O 0.36163 0.70183 0.17925 0.0
O1027 O 0.37985 0.685 0.16436 0.0
H1028 H 0.347 0.69917 0.13113 0.0
H1029 H 0.33628 0.71692 0.10585 0.0
H1030 H 0.287 0.68626 0.10562 0.0
H1031 H 0.29806 0.66839 0.13037 0.0
H1032 H 0.30113 0.62579 0.22119 0.0
H1033 H 0.31815 0.6504 0.20848 0.0
H1034 H 0.34658 0.59178 0.21556 0.0
H1035 H 0.36389 0.6168 0.20349 0.0
H1036 H 0.43423 0.69655 0.19872 0.0
H1037 H 0.40329 0.74336 0.20857 0.0
H1038 H 0.37933 0.73145 0.18994 0.0
H1039 H 0.40984 0.68434 0.18059 0.0
C1040 C 0.32727 0.34818 0.13969 0.0
C1041 C 0.3379 0.33538 0.13162 0.0
C1042 C 0.31367 0.32781 0.11093 0.0
C1043 C 0.33117 0.3253 0.11734 0.0
C1044 C 0.30322 0.34082 0.11904 0.0
C1045 C 0.30997 0.35089 0.13323 0.0
U1046 U 0.35986 0.35717 0.17855 0.0
O1047 O 0.36965 0.38264 0.18943 0.0
O1048 O 0.35386 0.36446 0.2062 0.0
C1049 C 0.36151 0.38021 0.20473 0.0
C1050 C 0.3336 0.35842 0.15523 0.0
C1051 C 0.35101 0.39517 0.21126 0.0
C1052 C 0.328 0.41729 0.20735 0.0
C1053 C 0.33809 0.40337 0.20056 0.0
C1054 C 0.34368 0.41491 0.23554 0.0
C1055 C 0.33062 0.4232 0.22498 0.0
C1056 C 0.35376 0.40108 0.22873 0.0
C1057 C 0.39965 0.32657 0.18661 0.0
C1058 C 0.41675 0.32534 0.21423 0.0
C1059 C 0.42549 0.30762 0.18902 0.0
C1060 C 0.41135 0.31447 0.17902 0.0
C1061 C 0.42819 0.31271 0.20687 0.0
C1062 C 0.4026 0.3322 0.20419 0.0
C1063 C 0.38397 0.33235 0.17631 0.0
O1064 O 0.33235 0.35017 0.17064 0.0
O1065 O 0.34872 0.3673 0.15333 0.0
O1066 O 0.38547 0.34779 0.16817 0.0
O1067 O 0.36852 0.32999 0.1842 0.0
H1068 H 0.3513 0.33307 0.13648 0.0
H1069 H 0.33966 0.31552 0.11136 0.0
H1070 H 0.28959 0.34291 0.1148 0.0
H1071 H 0.30153 0.36062 0.13938 0.0
H1072 H 0.31818 0.42343 0.19877 0.0
H1073 H 0.33574 0.39895 0.18702 0.0
H1074 H 0.34585 0.41877 0.24926 0.0
H1075 H 0.36359 0.39483 0.23723 0.0
H1076 H 0.41828 0.32942 0.22797 0.0
H1077 H 0.43416 0.29814 0.18283 0.0
H1078 H 0.40932 0.31002 0.16544 0.0
H1079 H 0.3937 0.34155 0.21028 0.0
C1080 C 0.63733 0.32228 0.18705 0.0
C1081 C 0.62301 0.33313 0.19167 0.0
C1082 C 0.60837 0.30824 0.20705 0.0
C1083 C 0.60867 0.32617 0.20156 0.0
C1084 C 0.62283 0.29754 0.20246 0.0
C1085 C 0.63705 0.30446 0.19253 0.0
U1086 U 0.676 0.35525 0.17669 0.0
O1087 O 0.70355 0.34935 0.16907 0.0
O1088 O 0.68649 0.36441 0.15081 0.0
C1089 C 0.70175 0.35629 0.15308 0.0
C1090 C 0.65259 0.32889 0.17636 0.0
C1091 C 0.70834 0.34543 0.13812 0.0
C1092 C 0.70539 0.33309 0.10822 0.0
C1093 C 0.69839 0.34285 0.12235 0.0
C1094 C 0.73232 0.32828 0.12537 0.0
C1095 C 0.7225 0.32572 0.10951 0.0
C1096 C 0.72537 0.33807 0.1394 0.0
C1097 C 0.68471 0.39535 0.2074 0.0
C1098 C 0.71187 0.41346 0.20727 0.0
C1099 C 0.68815 0.42018 0.22777 0.0
C1100 C 0.67795 0.40604 0.22091 0.0
C1101 C 0.70537 0.42391 0.22125 0.0
C1102 C 0.70163 0.39929 0.20042 0.0
C1103 C 0.67434 0.37961 0.20158 0.0
O1104 O 0.65049 0.34368 0.16724 0.0
O1105 O 0.66831 0.32789 0.1841 0.0
O1106 O 0.68227 0.36433 0.20381 0.0
O1107 O 0.66601 0.38089 0.18618 0.0
H1108 H 0.62285 0.34694 0.18762 0.0
H1109 H 0.59774 0.33479 0.20474 0.0
H1110 H 0.62337 0.28382 0.20676 0.0
H1111 H 0.64793 0.29583 0.18918 0.0
H1112 H 0.69749 0.33155 0.09619 0.0
H1113 H 0.68526 0.34845 0.12084 0.0
H1114 H 0.74536 0.32254 0.12708 0.0
H1115 H 0.73339 0.33992 0.15134 0.0
H1116 H 0.72513 0.41581 0.20206 0.0
H1117 H 0.68263 0.42807 0.23835 0.0
H1118 H 0.6649 0.40322 0.22645 0.0
H1119 H 0.70709 0.39114 0.19 0.0
C1120 C 0.63176 0.32805 0.84989 0.0
C1121 C 0.62446 0.33797 0.83584 0.0
C1122 C 0.60389 0.31346 0.82875 0.0
C1123 C 0.6106 0.33075 0.82536 0.0
C1124 C 0.61121 0.30376 0.84304 0.0
C1125 C 0.62495 0.311 0.85348 0.0
U1126 U 0.67081 0.36067 0.85984 0.0
O1127 O 0.68088 0.36988 0.88592 0.0
O1128 O 0.69802 0.35441 0.86853 0.0
C1129 C 0.696 0.36147 0.88434 0.0
C1130 C 0.64694 0.33473 0.86057 0.0
C1131 C 0.70096 0.34992 0.89938 0.0
C1132 C 0.69839 0.32174 0.91512 0.0
C1133 C 0.69243 0.33338 0.90186 0.0
C1134 C 0.72098 0.34333 0.92405 0.0
C1135 C 0.71296 0.32643 0.92615 0.0
C1136 C 0.71505 0.35494 0.91073 0.0
C1137 C 0.68254 0.39966 0.82932 0.0
C1138 C 0.71136 0.41476 0.83113 0.0
C1139 C 0.68945 0.42438 0.80943 0.0
C1140 C 0.67752 0.41126 0.81558 0.0
C1141 C 0.70667 0.42601 0.81687 0.0
C1142 C 0.6994 0.40172 0.83731 0.0
C1143 C 0.67068 0.38472 0.83437 0.0
O1144 O 0.66264 0.33334 0.85312 0.0
O1145 O 0.64483 0.34995 0.86873 0.0
O1146 O 0.66191 0.38649 0.84934 0.0
O1147 O 0.67767 0.36895 0.83262 0.0
H1148 H 0.62961 0.35117 0.83285 0.0
H1149 H 0.60521 0.33866 0.81458 0.0
H1150 H 0.60672 0.29031 0.84586 0.0
H1151 H 0.63053 0.3031 0.8642 0.0
H1152 H 0.69179 0.30891 0.91653 0.0
H1153 H 0.68148 0.3293 0.89324 0.0
H1154 H 0.73234 0.34727 0.93219 0.0
H1155 H 0.7218 0.36765 0.90897 0.0
H1156 H 0.72444 0.41582 0.83728 0.0
H1157 H 0.68548 0.43272 0.79835 0.0
H1158 H 0.66456 0.40982 0.80923 0.0
H1159 H 0.70349 0.39292 0.84799 0.0
C1160 C 0.63114 0.68369 0.82614 0.0
C1161 C 0.62915 0.70125 0.83188 0.0
C1162 C 0.6027 0.70432 0.81302 0.0
C1163 C 0.61506 0.71147 0.82537 0.0
C1164 C 0.60447 0.6865 0.80783 0.0
C1165 C 0.61856 0.67632 0.81432 0.0
U1166 U 0.67125 0.674 0.8567 0.0
O1167 O 0.68168 0.64817 0.86564 0.0
O1168 O 0.6984 0.66628 0.84967 0.0
C1169 C 0.6966 0.65033 0.85673 0.0
C1170 C 0.64666 0.67314 0.83158 0.0
C1171 C 0.7022 0.63522 0.8456 0.0
C1172 C 0.71339 0.62345 0.81772 0.0
C1173 C 0.70648 0.63749 0.82752 0.0
C1174 C 0.71122 0.60436 0.84366 0.0
C1175 C 0.7161 0.60674 0.82571 0.0
C1176 C 0.70443 0.61845 0.85348 0.0
C1177 C 0.68141 0.70501 0.89638 0.0
C1178 C 0.70618 0.7017 0.91718 0.0
C1179 C 0.68775 0.72775 0.91846 0.0
C1180 C 0.67742 0.72124 0.9043 0.0
C1181 C 0.70233 0.71813 0.92509 0.0
C1182 C 0.69581 0.6952 0.90293 0.0
C1183 C 0.67066 0.699 0.88099 0.0
O1184 O 0.6623 0.68102 0.82968 0.0
O1185 O 0.64517 0.6643 0.84665 0.0
O1186 O 0.66226 0.68364 0.88274 0.0
O1187 O 0.67817 0.70112 0.86535 0.0
H1188 H 0.63874 0.70718 0.84103 0.0
H1189 H 0.61425 0.72518 0.82952 0.0
H1190 H 0.59507 0.68046 0.79858 0.0
H1191 H 0.61983 0.66276 0.8098 0.0
H1192 H 0.71721 0.62595 0.80405 0.0
H1193 H 0.70495 0.65025 0.821 0.0
H1194 H 0.71283 0.59164 0.85021 0.0
H1195 H 0.70124 0.61633 0.8674 0.0
H1196 H 0.7172 0.69386 0.922 0.0
H1197 H 0.68457 0.7406 0.92388 0.0
H1198 H 0.66644 0.72906 0.89933 0.0
H1199 H 0.6991 0.68263 0.89694 0.0
C1200 C 0.32846 0.6323 0.85097 0.0
C1201 C 0.33703 0.63013 0.8346 0.0
C1202 C 0.31664 0.60565 0.82705 0.0
C1203 C 0.33117 0.61693 0.82275 0.0
C1204 C 0.30858 0.60746 0.84381 0.0
C1205 C 0.31442 0.6207 0.85563 0.0
U1206 U 0.35813 0.67224 0.8634 0.0
O1207 O 0.35065 0.69895 0.87186 0.0
O1208 O 0.36654 0.6823 0.88977 0.0
C1209 C 0.35794 0.69724 0.88773 0.0
C1210 C 0.33324 0.64724 0.86277 0.0
C1211 C 0.34692 0.70291 0.90279 0.0
C1212 C 0.31847 0.70408 0.91809 0.0
C1213 C 0.32918 0.69703 0.9047 0.0
C1214 C 0.34332 0.72245 0.92814 0.0
C1215 C 0.32532 0.71716 0.92975 0.0
C1216 C 0.35398 0.7154 0.91479 0.0
C1217 C 0.39794 0.68486 0.83393 0.0
C1218 C 0.41382 0.71315 0.83642 0.0
C1219 C 0.42257 0.69195 0.81409 0.0
C1220 C 0.40923 0.68015 0.82 0.0
C1221 C 0.4248 0.70875 0.82199 0.0
C1222 C 0.40051 0.70131 0.84233 0.0
C1223 C 0.38291 0.673 0.83879 0.0
O1224 O 0.3482 0.64579 0.87184 0.0
O1225 O 0.33122 0.66308 0.85569 0.0
O1226 O 0.36702 0.67979 0.83655 0.0
O1227 O 0.38455 0.66423 0.85388 0.0
H1228 H 0.34794 0.63893 0.83079 0.0
H1229 H 0.33782 0.61577 0.81005 0.0
H1230 H 0.29725 0.59917 0.84749 0.0
H1231 H 0.30762 0.62221 0.8682 0.0
H1232 H 0.30464 0.69982 0.91882 0.0
H1233 H 0.32347 0.6874 0.89554 0.0
H1234 H 0.34911 0.73229 0.93702 0.0
H1235 H 0.36766 0.72008 0.91355 0.0
H1236 H 0.41531 0.72588 0.84294 0.0
H1237 H 0.43062 0.68821 0.80284 0.0
H1238 H 0.4074 0.66752 0.81332 0.0
H1239 H 0.39194 0.70516 0.85316 0.0
C1240 C 0.34449 0.39719 0.82991 0.0
C1241 C 0.326 0.39497 0.8274 0.0
C1242 C 0.32358 0.4257 0.81721 0.0
C1243 C 0.31569 0.40903 0.82109 0.0
C1244 C 0.342 0.42803 0.82037 0.0
C1245 C 0.35232 0.41392 0.82658 0.0
U1246 U 0.35733 0.35662 0.85875 0.0
O1247 O 0.36618 0.33031 0.85044 0.0
O1248 O 0.38407 0.34726 0.86649 0.0
C1249 C 0.38226 0.33254 0.85726 0.0
C1250 C 0.35601 0.38205 0.83468 0.0
C1251 C 0.3974 0.32768 0.84579 0.0
C1252 C 0.40925 0.31884 0.81709 0.0
C1253 C 0.39531 0.32543 0.82731 0.0
C1254 C 0.42791 0.31736 0.84346 0.0
C1255 C 0.42567 0.31441 0.82506 0.0
C1256 C 0.41392 0.32385 0.85368 0.0
C1257 C 0.32804 0.34301 0.89904 0.0
C1258 C 0.31645 0.31485 0.9106 0.0
C1259 C 0.31998 0.33997 0.93033 0.0
C1260 C 0.32661 0.35025 0.91616 0.0
C1261 C 0.31447 0.32221 0.92767 0.0
C1262 C 0.32318 0.32509 0.89648 0.0
C1263 C 0.33312 0.35472 0.88388 0.0
O1264 O 0.36531 0.38348 0.84952 0.0
O1265 O 0.34914 0.36606 0.83226 0.0
O1266 O 0.33071 0.34824 0.8678 0.0
O1267 O 0.34807 0.36395 0.88556 0.0
H1268 H 0.31953 0.38223 0.82985 0.0
H1269 H 0.30163 0.40657 0.81862 0.0
H1270 H 0.34853 0.44072 0.81785 0.0
H1271 H 0.36654 0.41599 0.82842 0.0
H1272 H 0.40686 0.31655 0.80305 0.0
H1273 H 0.38274 0.32826 0.82081 0.0
H1274 H 0.44041 0.31441 0.85004 0.0
H1275 H 0.41588 0.32548 0.8679 0.0
H1276 H 0.31213 0.30134 0.90789 0.0
H1277 H 0.31894 0.34605 0.94331 0.0
H1278 H 0.33022 0.36403 0.91851 0.0
H1279 H 0.32405 0.31908 0.88345 0.0
H1280 H 0.27404 0.2958 1.00112 0.0
H1281 H 0.23286 0.25537 1.00055 0.0
H1282 H 0.26594 0.26369 0.95458 0.0
H1283 H 0.24692 0.29775 0.02004 0.0
H1284 H 0.23123 0.27989 0.02106 0.0
H1285 H 0.27366 0.29799 0.03853 0.0
H1286 H 0.27218 0.2632 0.08415 0.0
H1287 H 0.23693 0.25348 0.03985 0.0
C1288 C 0.2674 0.28472 0.99455 0.0
C1289 C 0.27227 0.28019 0.9771 0.0
C1290 C 0.25326 0.27572 1.00316 0.0
C1291 C 0.2441 0.26193 0.99416 0.0
C1292 C 0.2486 0.25739 0.97659 0.0
C1293 C 0.26294 0.26639 0.9684 0.0
C1294 C 0.24577 0.283 0.02028 0.0
C1295 C 0.25482 0.27609 0.03697 0.0
C1296 C 0.2686 0.28614 0.04513 0.0
C1297 C 0.27503 0.28159 0.0622 0.0
C1298 C 0.26799 0.26637 0.07067 0.0
C1299 C 0.25435 0.25609 0.06274 0.0
C1300 C 0.24787 0.26098 0.04582 0.0
H1301 H 0.77142 0.2362 0.03456 0.0
H1302 H 0.73578 0.28039 0.03584 0.0
H1303 H 0.77202 0.27138 0.07943 0.0
H1304 H 0.74409 0.23619 0.01659 0.0
H1305 H 0.72943 0.25443 0.01698 0.0
H1306 H 0.77147 0.23713 0.99763 0.0
H1307 H 0.76528 0.26891 0.95036 0.0
H1308 H 0.73241 0.27851 0.99581 0.0
C1309 C 0.76687 0.24818 0.04092 0.0
C1310 C 0.77376 0.25295 0.05772 0.0
C1311 C 0.75332 0.25814 0.03279 0.0
C1312 C 0.74673 0.27311 0.04166 0.0
C1313 C 0.75362 0.27812 0.05842 0.0
C1314 C 0.76734 0.26814 0.06612 0.0
C1315 C 0.74378 0.25095 0.01646 0.0
C1316 C 0.7516 0.25759 0.99905 0.0
C1317 C 0.76538 0.24819 0.99076 0.0
C1318 C 0.77022 0.25211 0.97308 0.0
C1319 C 0.76161 0.26588 0.964 0.0
C1320 C 0.74804 0.2755 0.97205 0.0
C1321 C 0.74333 0.27156 0.98973 0.0
H1322 H 0.7341 0.75361 0.03976 0.0
H1323 H 0.77308 0.79614 0.03669 0.0
H1324 H 0.77005 0.7633 0.08358 0.0
H1325 H 0.72985 0.77867 0.01959 0.0
H1326 H 0.74543 0.7966 0.01882 0.0
H1327 H 0.73194 0.75405 0.99928 0.0
H1328 H 0.764 0.76382 0.95292 0.0
H1329 H 0.77263 0.79491 1.00015 0.0
C1330 C 0.74559 0.7606 0.04531 0.0
C1331 C 0.75139 0.75652 0.06269 0.0
C1332 C 0.75342 0.77485 0.03575 0.0
C1333 C 0.76752 0.78468 0.04362 0.0
C1334 C 0.77371 0.78048 0.06084 0.0
C1335 C 0.76576 0.76621 0.07006 0.0
C1336 C 0.74438 0.78184 0.01909 0.0
C1337 C 0.75191 0.77481 1.00187 0.0
C1338 C 0.74297 0.76091 0.99284 0.0
C1339 C 0.74733 0.75671 0.97515 0.0
C1340 C 0.76132 0.76619 0.96686 0.0
C1341 C 0.77065 0.77994 0.97569 0.0
C1342 C 0.76599 0.78398 0.99334 0.0
H1343 H 0.27194 0.73525 0.03158 0.0
H1344 H 0.23357 0.77697 0.03508 0.0
H1345 H 0.26767 0.76559 0.07969 0.0
H1346 H 0.24439 0.73502 1.01313 0.0
H1347 H 0.22958 0.75314 1.01358 0.0
H1348 H 0.27369 0.73784 0.99693 0.0
H1349 H 0.27046 0.77131 0.95049 0.0
H1350 H 0.23287 0.77728 0.99285 0.0
C1351 C 0.26627 0.74615 0.03887 0.0
C1352 C 0.27197 0.74957 0.05644 0.0
C1353 C 0.25251 0.75606 0.03097 0.0
C1354 C 0.24468 0.7698 0.04076 0.0
C1355 C 0.25005 0.77318 0.05841 0.0
C1356 C 0.26388 0.76325 0.06594 0.0
C1357 C 0.24397 0.74977 0.01373 0.0
C1358 C 0.2528 0.75727 0.99718 0.0
C1359 C 0.26767 0.74881 0.98985 0.0
C1360 C 0.27427 0.75397 0.97307 0.0
C1361 C 0.26582 0.76767 0.96369 0.0
C1362 C 0.25085 0.77609 0.97062 0.0
C1363 C 0.2447 0.77117 0.98762 0.0
H1364 H 0.03463 0.23408 0.25699 0.0
H1365 H 0.03322 0.27078 0.30076 0.0
H1366 H 0.07856 0.27035 0.26611 0.0
H1367 H 0.01414 0.22909 0.28169 0.0
H1368 H 0.01472 0.24319 0.30061 0.0
H1369 H 0.99456 0.23529 0.25638 0.0
H1370 H 0.95119 0.27025 0.26635 0.0
H1371 H 0.99682 0.27042 0.30143 0.0
C1372 C 0.04053 0.24511 0.26429 0.0
C1373 C 0.05745 0.25179 0.2594 0.0
C1374 C 0.03153 0.25213 0.27904 0.0
C1375 C 0.03972 0.26584 0.28897 0.0
C1376 C 0.05664 0.27258 0.28428 0.0
C1377 C 0.06518 0.26572 0.26929 0.0
C1378 C 0.01461 0.24327 0.28579 0.0
C1379 C 0.99785 0.25228 0.2793 0.0
C1380 C 0.98884 0.2459 0.26407 0.0
C1381 C 0.97209 0.25254 0.25921 0.0
C1382 C 0.96453 0.26588 0.26957 0.0
C1383 C 0.9732 0.27246 0.28489 0.0
C1384 C 0.99005 0.26573 0.28951 0.0
H1385 H 0.79498 0.03478 0.26278 0.0
H1386 H 0.75512 0.03507 0.30368 0.0
H1387 H 0.76308 0.08095 0.27009 0.0
H1388 H 0.79724 0.01578 0.29008 0.0
H1389 H 0.77938 0.01442 0.30547 0.0
H1390 H 0.79745 0.99735 0.26369 0.0
H1391 H 0.76079 0.95292 0.26307 0.0
H1392 H 0.75216 0.9965 0.2986 0.0
C1393 C 0.78404 0.04128 0.26931 0.0
C1394 C 0.77946 0.05861 0.2642 0.0
C1395 C 0.77522 0.03265 0.28349 0.0
C1396 C 0.76157 0.04152 0.29245 0.0
C1397 C 0.75699 0.05899 0.28771 0.0
C1398 C 0.76581 0.06721 0.27332 0.0
C1399 C 0.78244 0.0155 0.29101 0.0
C1400 C 0.77521 0.9991 0.28169 0.0
C1401 C 0.78519 0.99104 0.26822 0.0
C1402 C 0.77996 0.97442 0.2613 0.0
C1403 C 0.76434 0.96613 0.26769 0.0
C1404 C 0.75422 0.97389 0.28118 0.0
C1405 C 0.75963 0.99053 0.28794 0.0
H1406 H 0.99648 0.73185 0.27686 0.0
H1407 H 0.99705 0.77325 0.23718 0.0
H1408 H 0.952 0.7668 0.27185 0.0
H1409 H 0.01523 0.72973 0.25055 0.0
H1410 H 0.01496 0.74641 0.23377 0.0
H1411 H 0.03542 0.73212 0.27624 0.0
H1412 H 0.08174 0.76528 0.26781 0.0
H1413 H 0.0347 0.77257 0.23562 0.0
C1414 C 0.99042 0.74344 0.2709 0.0
C1415 C 0.97347 0.74871 0.27656 0.0
C1416 C 0.99911 0.75235 0.25681 0.0
C1417 C 0.99074 0.76682 0.2485 0.0
C1418 C 0.97377 0.77224 0.25395 0.0
C1419 C 0.96546 0.76333 0.26823 0.0
C1420 C 0.01544 0.74438 0.24847 0.0
C1421 C 0.03287 0.75198 0.25559 0.0
C1422 C 0.04183 0.7433 0.26958 0.0
C1423 C 0.05941 0.74823 0.27423 0.0
C1424 C 0.06783 0.76225 0.26498 0.0
C1425 C 0.05917 0.77113 0.25094 0.0
C1426 C 0.04148 0.76612 0.24661 0.0
H1427 H 0.23426 0.99471 0.26315 0.0
H1428 H 0.27879 0.99472 0.29962 0.0
H1429 H 0.27075 0.95136 0.26324 0.0
H1430 H 0.2338 1.01242 0.29028 0.0
H1431 H 0.25183 1.01202 0.3057 0.0
H1432 H 0.23478 0.03234 0.26373 0.0
H1433 H 0.26674 0.07955 0.27125 0.0
H1434 H 0.27618 0.03336 0.30371 0.0
C1435 C 0.24643 0.98873 0.26798 0.0
C1436 C 0.2517 0.97232 0.26109 0.0
C1437 C 0.25623 0.99701 0.28178 0.0
C1438 C 0.27156 0.98871 0.28859 0.0
C1439 C 0.27704 0.97229 0.28182 0.0
C1440 C 0.26716 0.96441 0.2679 0.0
C1441 C 0.24861 1.01287 0.29123 0.0
C1442 C 0.25527 0.03058 0.28401 0.0
C1443 C 0.24592 0.03912 0.27015 0.0
C1444 C 0.25027 0.05672 0.26527 0.0
C1445 C 0.26419 0.06565 0.27426 0.0
C1446 C 0.27357 0.0575 0.28828 0.0
C1447 C 0.26927 0.03976 0.29277 0.0
H1448 H 0.99415 0.77102 0.79904 0.0
H1449 H 0.99186 0.73642 0.75361 0.0
H1450 H 0.94839 0.7711 0.76414 0.0
H1451 H 1.01206 0.74382 0.79798 0.0
H1452 H 1.01148 0.72993 0.7789 0.0
H1453 H 0.0305 0.77152 0.79834 0.0
H1454 H 0.07603 0.77104 0.76394 0.0
H1455 H 0.03199 0.735 0.75443 0.0
C1456 C 0.98738 0.76649 0.78706 0.0
C1457 C 0.97046 0.77316 0.78263 0.0
C1458 C 0.99526 0.7533 0.7766 0.0
C1459 C 0.98614 0.74695 0.7614 0.0
C1460 C 0.96934 0.75358 0.75669 0.0
C1461 C 0.96177 0.76676 0.76724 0.0
C1462 C 1.01186 0.74406 0.78315 0.0
C1463 C 0.02895 0.75281 0.77666 0.0
C1464 C 0.03707 0.76657 0.78659 0.0
C1465 C 0.05401 0.77332 0.78197 0.0
C1466 C 0.06262 0.76644 0.76703 0.0
C1467 C 0.05489 0.75257 0.75705 0.0
C1468 C 0.03793 0.74593 0.76183 0.0
H1469 H 0.25392 0.99704 0.79815 0.0
H1470 H 0.29905 0.99723 0.76307 0.0
H1471 H 0.26212 0.953 0.76308 0.0
H1472 H 0.28123 0.01491 0.80474 0.0
H1473 H 0.29909 0.01606 0.78932 0.0
H1474 H 0.25656 0.03506 0.8025 0.0
H1475 H 0.26432 0.08079 0.76864 0.0
H1476 H 0.297 0.03504 0.76216 0.0
C1477 C 0.2613 0.99091 0.78752 0.0
C1478 C 0.25578 0.97422 0.78098 0.0
C1479 C 0.27683 0.99938 0.78103 0.0
C1480 C 0.28677 0.99104 0.76771 0.0
C1481 C 0.28143 0.97436 0.761 0.0
C1482 C 0.26579 0.96624 0.76755 0.0
C1483 C 0.28428 0.01571 0.79026 0.0
C1484 C 0.27712 0.03288 0.78274 0.0
C1485 C 0.26311 0.04154 0.79135 0.0
C1486 C 0.25831 0.05889 0.78636 0.0
C1487 C 0.26722 0.06713 0.77204 0.0
C1488 C 0.28113 0.05866 0.76319 0.0
C1489 C 0.28591 0.04146 0.76853 0.0
H1490 H 0.99582 0.2968 0.76073 0.0
H1491 H 0.99757 0.25412 0.79918 0.0
H1492 H 0.95052 0.26175 0.76723 0.0
H1493 H 0.01747 0.29758 0.78519 0.0
H1494 H 0.01746 0.28072 0.80185 0.0
H1495 H 0.03523 0.29472 0.75807 0.0
H1496 H 0.07736 0.25683 0.76024 0.0
H1497 H 0.03459 0.25341 0.79802 0.0
C1498 C 0.98973 0.28512 0.7668 0.0
C1499 C 0.97209 0.28027 0.76227 0.0
C1500 C 0.99906 0.27574 0.78014 0.0
C1501 C 0.99067 0.26111 0.7886 0.0
C1502 C 0.9732 0.25586 0.78383 0.0
C1503 C 0.96415 0.26545 0.77061 0.0
C1504 C 0.0167 0.28294 0.78719 0.0
C1505 C 0.03272 0.27459 0.7786 0.0
C1506 C 0.04097 0.28288 0.76386 0.0
C1507 C 0.057 0.27637 0.75705 0.0
C1508 C 0.06458 0.26134 0.76496 0.0
C1509 C 0.05672 0.25297 0.77978 0.0
C1510 C 0.04064 0.25957 0.78642 0.0
H1511 H 0.73328 0.99637 0.76237 0.0
H1512 H 0.77605 0.99305 0.80074 0.0
H1513 H 0.7648 0.94928 0.76583 0.0
H1514 H 0.733 0.01362 0.79016 0.0
H1515 H 0.75113 1.01292 0.8054 0.0
H1516 H 0.7342 0.03302 0.76336 0.0
H1517 H 0.76699 0.07972 0.77057 0.0
H1518 H 0.77626 0.03321 0.80261 0.0
C1519 C 0.74453 0.98931 0.76789 0.0
C1520 C 0.74816 0.97205 0.76191 0.0
C1521 C 0.75459 0.99707 0.78182 0.0
C1522 C 0.76878 0.98754 0.78947 0.0
C1523 C 0.77243 0.97022 0.78378 0.0
C1524 C 0.76229 0.96281 0.76982 0.0
C1525 C 0.74783 0.01352 0.79093 0.0
C1526 C 0.75499 0.03086 0.78327 0.0
C1527 C 0.7456 0.03958 0.76957 0.0
C1528 C 0.75011 0.05715 0.7647 0.0
C1529 C 0.76432 0.06583 0.77351 0.0
C1530 C 0.7738 0.05747 0.78734 0.0
C1531 C 0.76932 0.03976 0.79178 0.0
H1532 H 0.25645 0.73715 0.50063 0.0
H1533 H 0.29876 0.7764 0.49668 0.0
H1534 H 0.26116 0.76979 0.45373 0.0
H1535 H 0.28557 0.73451 0.51752 0.0
H1536 H 0.30092 0.75269 0.51818 0.0
H1537 H 0.25812 0.7344 0.53559 0.0
H1538 H 0.26135 0.7668 0.58247 0.0
H1539 H 0.29706 0.777 0.53894 0.0
C1540 C 0.26288 0.74802 0.49353 0.0
C1541 C 0.2566 0.7529 0.47653 0.0
C1542 C 0.27794 0.75665 0.50108 0.0
C1543 C 0.28671 0.77026 0.49135 0.0
C1544 C 0.28084 0.77486 0.47413 0.0
C1545 C 0.26559 0.76639 0.46708 0.0
C1546 C 0.28643 0.74928 0.51786 0.0
C1547 C 0.27792 0.75559 0.53489 0.0
C1548 C 0.26379 0.74572 0.5426 0.0
C1549 C 0.25762 0.74982 0.55972 0.0
C1550 C 0.26564 0.76397 0.56903 0.0
C1551 C 0.27997 0.77375 0.56178 0.0
C1552 C 0.2857 0.76984 0.54446 0.0
H1553 H 0.75581 0.8016 0.53747 0.0
H1554 H 0.7909 0.75703 0.53708 0.0
H1555 H 0.75726 0.7657 0.58218 0.0
H1556 H 0.78187 0.80189 0.51845 0.0
H1557 H 0.79736 0.78434 0.51941 0.0
H1558 H 0.755 0.79968 0.49918 0.0
H1559 H 0.76197 0.767 0.45297 0.0
H1560 H 0.79486 0.7593 0.4993 0.0
C1561 C 0.76062 0.78958 0.54371 0.0
C1562 C 0.75443 0.78457 0.56071 0.0
C1563 C 0.77378 0.7797 0.53509 0.0
C1564 C 0.78043 0.76438 0.54345 0.0
C1565 C 0.77428 0.75907 0.56034 0.0
C1566 C 0.76121 0.76916 0.56873 0.0
C1567 C 0.78286 0.78717 0.51868 0.0
C1568 C 0.7753 0.77987 0.50141 0.0
C1569 C 0.76132 0.78867 0.49264 0.0
C1570 C 0.7563 0.7841 0.47511 0.0
C1571 C 0.765 0.77002 0.46677 0.0
C1572 C 0.77887 0.76095 0.47534 0.0
C1573 C 0.78382 0.76584 0.49277 0.0
H1574 H 0.79615 0.27598 0.53905 0.0
H1575 H 0.75606 0.2344 0.53717 0.0
H1576 H 0.76369 0.26511 0.58484 0.0
H1577 H 0.79823 0.25167 0.51768 0.0
H1578 H 0.78215 0.2341 0.51733 0.0
H1579 H 0.79476 0.27778 0.49893 0.0
H1580 H 0.75597 0.27399 0.45673 0.0
H1581 H 0.75364 0.23716 0.50062 0.0
C1582 C 0.78508 0.26887 0.54517 0.0
C1583 C 0.78066 0.27243 0.56296 0.0
C1584 C 0.77627 0.25511 0.53576 0.0
C1585 C 0.76252 0.2453 0.54419 0.0
C1586 C 0.75776 0.24889 0.56191 0.0
C1587 C 0.76681 0.2626 0.57101 0.0
C1588 C 0.78364 0.2488 0.51818 0.0
C1589 C 0.77474 0.25702 0.50203 0.0
C1590 C 0.7828 0.27169 0.49335 0.0
C1591 C 0.77595 0.27799 0.47706 0.0
C1592 C 0.76075 0.26968 0.46968 0.0
C1593 C 0.75261 0.25493 0.47797 0.0
C1594 C 0.75958 0.24876 0.49428 0.0
H1595 H 0.25595 0.30206 0.5377 0.0
H1596 H 0.29305 0.25909 0.53986 0.0
H1597 H 0.25909 0.26888 0.58439 0.0
H1598 H 0.2829 0.30259 0.51948 0.0
H1599 H 0.29839 0.28511 0.5207 0.0
H1600 H 0.25583 0.29993 0.50043 0.0
H1601 H 0.26456 0.26888 0.45349 0.0
H1602 H 0.29628 0.26019 0.50053 0.0
C1603 C 0.26123 0.29057 0.54455 0.0
C1604 C 0.25534 0.28634 0.56187 0.0
C1605 C 0.27474 0.28071 0.53643 0.0
C1606 C 0.28207 0.26619 0.54565 0.0
C1607 C 0.27653 0.26198 0.56303 0.0
C1608 C 0.26297 0.27187 0.57081 0.0
C1609 C 0.28387 0.28786 0.51989 0.0
C1610 C 0.27643 0.28044 0.50261 0.0
C1611 C 0.26246 0.28917 0.49378 0.0
C1612 C 0.25793 0.28497 0.47604 0.0
C1613 C 0.26717 0.27139 0.46747 0.0
C1614 C 0.28101 0.26227 0.47611 0.0
C1615 C 0.28533 0.26672 0.49384 0.0
H1616 H 0.79736 0.5343 0.76163 0.0
H1617 H 0.75704 0.53415 0.80214 0.0
H1618 H 0.76289 0.57895 0.76684 0.0
H1619 H 0.79998 0.5159 0.78908 0.0
H1620 H 0.78226 0.51455 0.80463 0.0
H1621 H 0.79997 0.49736 0.76243 0.0
H1622 H 0.76571 0.45108 0.76428 0.0
H1623 H 0.75642 0.49469 0.79952 0.0
C1624 C 0.786 0.54045 0.76778 0.0
C1625 C 0.78069 0.55739 0.76206 0.0
C1626 C 0.77737 0.53186 0.78209 0.0
C1627 C 0.76325 0.54039 0.79066 0.0
C1628 C 0.75782 0.55735 0.78513 0.0
C1629 C 0.76638 0.56552 0.77059 0.0
C1630 C 0.78519 0.51522 0.79012 0.0
C1631 C 0.77843 0.49832 0.78137 0.0
C1632 C 0.78828 0.4905 0.76763 0.0
C1633 C 0.78367 0.47349 0.76127 0.0
C1634 C 0.76896 0.46444 0.76867 0.0
C1635 C 0.75912 0.47188 0.78252 0.0
C1636 C 0.76361 0.48906 0.78848 0.0
H1637 H 0.25407 0.53713 0.73699 0.0
H1638 H 0.29499 0.5367 0.77765 0.0
H1639 H 0.26343 0.58316 0.76948 0.0
H1640 H 0.27869 0.51663 0.73515 0.0
H1641 H 0.29652 0.51753 0.75078 0.0
H1642 H 0.25146 0.49853 0.74121 0.0
H1643 H 0.26044 0.45363 0.77553 0.0
H1644 H 0.29669 0.49837 0.77683 0.0
C1645 C 0.26086 0.54346 0.74812 0.0
C1646 C 0.25693 0.56113 0.75236 0.0
C1647 C 0.27463 0.53449 0.75717 0.0
C1648 C 0.28395 0.54322 0.77108 0.0
C1649 C 0.28009 0.56088 0.77542 0.0
C1650 C 0.26643 0.56954 0.76617 0.0
C1651 C 0.28171 0.51737 0.74966 0.0
C1652 C 0.27442 0.50072 0.75862 0.0
C1653 C 0.25894 0.49225 0.75185 0.0
C1654 C 0.25369 0.47528 0.75801 0.0
C1655 C 0.26387 0.46707 0.7714 0.0
C1656 C 0.27941 0.47521 0.77827 0.0
C1657 C 0.28447 0.49217 0.77197 0.0
H1658 H 0.29847 0.53355 0.26167 0.0
H1659 H 0.25932 0.53333 0.30329 0.0
H1660 H 0.26469 0.57853 0.26845 0.0
H1661 H 0.30173 0.51495 0.28896 0.0
H1662 H 0.28432 0.51341 0.30485 0.0
H1663 H 0.30225 0.49524 0.26379 0.0
H1664 H 0.266 0.45041 0.26504 0.0
H1665 H 0.25657 0.49561 0.29813 0.0
C1666 C 0.28737 0.53977 0.26822 0.0
C1667 C 0.28212 0.55684 0.26287 0.0
C1668 C 0.27907 0.53108 0.28267 0.0
C1669 C 0.26528 0.53965 0.29173 0.0
C1670 C 0.25988 0.55673 0.28656 0.0
C1671 C 0.26814 0.56501 0.27191 0.0
C1672 C 0.28696 0.51429 0.2903 0.0
C1673 C 0.27989 0.49753 0.28152 0.0
C1674 C 0.29006 0.48895 0.26852 0.0
C1675 C 0.2851 0.47192 0.26235 0.0
C1676 C 0.26944 0.46387 0.26896 0.0
C1677 C 0.259 0.47226 0.28178 0.0
C1678 C 0.26425 0.48919 0.2879 0.0
H1679 H 0.75479 0.53548 0.23519 0.0
H1680 H 0.79334 0.53321 0.27804 0.0
H1681 H 0.75887 0.57797 0.27303 0.0
H1682 H 0.77946 0.51536 0.23344 0.0
H1683 H 0.79711 0.51655 0.24931 0.0
H1684 H 0.75285 0.49591 0.23886 0.0
H1685 H 0.76295 0.45066 0.27239 0.0
H1686 H 0.7982 0.49616 0.27438 0.0
C1687 C 0.76048 0.54096 0.24733 0.0
C1688 C 0.75508 0.55773 0.25317 0.0
C1689 C 0.77426 0.53191 0.25629 0.0
C1690 C 0.7823 0.53971 0.27146 0.0
C1691 C 0.77657 0.55622 0.2777 0.0
C1692 C 0.7629 0.56497 0.26857 0.0
C1693 C 0.78234 0.51563 0.248 0.0
C1694 C 0.77582 0.49832 0.25623 0.0
C1695 C 0.76055 0.48959 0.2493 0.0
C1696 C 0.75572 0.4724 0.25518 0.0
C1697 C 0.76611 0.46421 0.26841 0.0
C1698 C 0.78146 0.47259 0.27539 0.0
C1699 C 0.78614 0.48975 0.26936 0.0
H1700 H 0.53473 0.23428 0.75487 0.0
H1701 H 0.5328 0.27198 0.79764 0.0
H1702 H 0.57968 0.26886 0.76518 0.0
H1703 H 0.5137 0.22998 0.77913 0.0
H1704 H 0.51425 0.24426 0.7979 0.0
H1705 H 0.49471 0.23635 0.75337 0.0
H1706 H 0.45179 0.27222 0.76234 0.0
H1707 H 0.49648 0.27145 0.79847 0.0
C1708 C 0.54079 0.24518 0.76222 0.0
C1709 C 0.55807 0.25121 0.75782 0.0
C1710 C 0.53156 0.2527 0.77654 0.0
C1711 C 0.53974 0.26648 0.78638 0.0
C1712 C 0.55712 0.27254 0.78233 0.0
C1713 C 0.566 0.26493 0.76789 0.0
C1714 C 0.51436 0.2442 0.78308 0.0
C1715 C 0.49785 0.25341 0.77626 0.0
C1716 C 0.48902 0.24709 0.76089 0.0
C1717 C 0.47244 0.25394 0.75571 0.0
C1718 C 0.46496 0.26753 0.76581 0.0
C1719 C 0.47342 0.27392 0.7813 0.0
C1720 C 0.49001 0.26692 0.78634 0.0
H1721 H 0.4951 0.79774 0.75941 0.0
H1722 H 0.49496 0.75687 0.79987 0.0
H1723 H 0.44758 0.76666 0.76913 0.0
H1724 H 0.51658 0.79866 0.78436 0.0
H1725 H 0.51653 0.78181 0.80099 0.0
H1726 H 0.533 0.79504 0.75643 0.0
H1727 H 0.57555 0.75756 0.75876 0.0
H1728 H 0.53331 0.75447 0.79708 0.0
C1729 C 0.48839 0.78684 0.76623 0.0
C1730 C 0.47029 0.78318 0.76252 0.0
C1731 C 0.49743 0.77741 0.77974 0.0
C1732 C 0.4883 0.76377 0.78907 0.0
C1733 C 0.47021 0.76001 0.78546 0.0
C1734 C 0.4615 0.76961 0.77203 0.0
C1735 C 0.51546 0.78403 0.78636 0.0
C1736 C 0.53104 0.77533 0.77736 0.0
C1737 C 0.53896 0.78336 0.76231 0.0
C1738 C 0.55497 0.7769 0.75538 0.0
C1739 C 0.56277 0.76204 0.76347 0.0
C1740 C 0.55512 0.75382 0.77847 0.0
C1741 C 0.53913 0.76045 0.78526 0.0
H1742 H 0.53278 0.73212 0.25407 0.0
H1743 H 0.53243 0.76856 0.29807 0.0
H1744 H 0.57784 0.76691 0.26359 0.0
H1745 H 0.51248 0.7273 0.279 0.0
H1746 H 0.51315 0.74156 0.2978 0.0
H1747 H 0.49338 0.7338 0.25329 0.0
H1748 H 0.45017 0.76905 0.26294 0.0
H1749 H 0.49549 0.76881 0.29841 0.0
C1750 C 0.53905 0.74287 0.26148 0.0
C1751 C 0.55619 0.74902 0.25667 0.0
C1752 C 0.53027 0.75002 0.27627 0.0
C1753 C 0.53882 0.76346 0.28628 0.0
C1754 C 0.55593 0.76976 0.28165 0.0
C1755 C 0.56432 0.76266 0.26669 0.0
C1756 C 0.51314 0.74152 0.28297 0.0
C1757 C 0.49657 0.75071 0.27627 0.0
C1758 C 0.48766 0.74443 0.26093 0.0
C1759 C 0.47101 0.75122 0.25592 0.0
C1760 C 0.46345 0.76459 0.26626 0.0
C1761 C 0.47203 0.77104 0.28169 0.0
C1762 C 0.4888 0.7642 0.28642 0.0
H1763 H 0.49858 0.29389 0.25613 0.0
H1764 H 0.49719 0.25381 0.29733 0.0
H1765 H 0.45357 0.25805 0.26027 0.0
H1766 H 0.51779 0.2965 0.28287 0.0
H1767 H 0.51745 0.27974 0.29969 0.0
H1768 H 0.53627 0.29346 0.25605 0.0
H1769 H 0.57867 0.2559 0.25941 0.0
H1770 H 0.53589 0.25325 0.29717 0.0
C1771 C 0.49205 0.28256 0.2624 0.0
C1772 C 0.47526 0.27668 0.25611 0.0
C1773 C 0.50021 0.27421 0.27712 0.0
C1774 C 0.49129 0.25993 0.28565 0.0
C1775 C 0.47454 0.2539 0.27944 0.0
C1776 C 0.46682 0.26221 0.26458 0.0
C1777 C 0.51729 0.28187 0.28501 0.0
C1778 C 0.53382 0.27385 0.27709 0.0
C1779 C 0.54212 0.28187 0.26222 0.0
C1780 C 0.55825 0.27533 0.25569 0.0
C1781 C 0.56588 0.26053 0.26398 0.0
C1782 C 0.55804 0.25256 0.279 0.0
C1783 C 0.5419 0.25918 0.28543 0.0
C1784 C 0.24858 0.21781 0.09519 0.0
C1785 C 0.2302 0.21824 0.0988 0.0
H1786 H 0.27054 0.22923 0.08078 0.0
C1787 C 0.21952 0.22982 0.08871 0.0
H1788 H 0.25717 0.20875 0.10231 0.0
C1789 C 0.2272 0.24137 0.0761 0.0
C1790 C 0.24573 0.24164 0.07337 0.0
H1791 H 0.20535 0.23062 0.09116 0.0
H1792 H 0.21879 0.25078 0.06924 0.0
C1793 C 0.25625 0.22942 0.08272 0.0
C1794 C 0.80956 0.23686 0.08955 0.0
C1795 C 0.80433 0.219 0.0922 0.0
H1796 H 0.80416 0.26155 0.07637 0.0
C1797 C 0.79026 0.21201 0.08174 0.0
H1798 H 0.82058 0.24263 0.09703 0.0
C1799 C 0.78109 0.2228 0.06967 0.0
C1800 C 0.78565 0.24087 0.06785 0.0
H1801 H 0.78564 0.19842 0.08352 0.0
H1802 H 0.76972 0.21722 0.06254 0.0
C1803 C 0.80026 0.24769 0.0776 0.0
C1804 C 0.79315 0.82124 0.08355 0.0
C1805 C 0.80633 0.81384 0.09466 0.0
H1806 H 0.77268 0.81651 0.064 0.0
C1807 C 0.8102 0.79573 0.09269 0.0
H1808 H 0.78961 0.83505 0.08477 0.0
C1809 C 0.80034 0.78508 0.08085 0.0
C1810 C 0.78652 0.7923 0.07053 0.0
H1811 H 0.82052 0.78962 0.10067 0.0
H1812 H 0.80311 0.77103 0.08021 0.0
C1813 C 0.78342 0.81061 0.07158 0.0
C1814 C 0.22893 0.8151 0.07625 0.0
C1815 C 0.22373 0.80956 0.09344 0.0
H1816 H 0.24116 0.80786 0.05153 0.0
C1817 C 0.22641 0.7918 0.09846 0.0
H1818 H 0.22691 0.82866 0.07192 0.0
C1819 C 0.23452 0.78003 0.08687 0.0
C1820 C 0.24017 0.78564 0.0699 0.0
H1821 H 0.22277 0.7871 0.11162 0.0
H1822 H 0.2366 0.7665 0.0913 0.0
C1823 C 0.23697 0.8032 0.06454 0.0
C1824 C 0.22681 0.81722 0.95407 0.0
C1825 C 0.22286 0.81258 0.93631 0.0
H1826 H 0.2386 0.80923 0.979 0.0
C1827 C 0.22769 0.79572 0.93026 0.0
H1828 H 0.22316 0.83008 0.95916 0.0
C1829 C 0.23654 0.78393 0.94152 0.0
C1830 C 0.24075 0.78863 0.95917 0.0
H1831 H 0.22505 0.79177 0.91663 0.0
H1832 H 0.24016 0.77109 0.93636 0.0
C1833 C 0.23554 0.80529 0.96545 0.0
C1834 C 0.20738 0.2373 0.95437 0.0
C1835 C 0.21482 0.22698 0.94082 0.0
H1836 H 0.21207 0.25495 0.97619 0.0
C1837 C 0.23344 0.22504 0.94057 0.0
H1838 H 0.19308 0.23882 0.95523 0.0
C1839 C 0.24436 0.23403 0.95288 0.0
C1840 C 0.23697 0.24525 0.96572 0.0
H1841 H 0.23969 0.21727 0.93033 0.0
H1842 H 0.25867 0.23268 0.95194 0.0
C1843 C 0.21829 0.24635 0.96662 0.0
C1844 C 0.813 0.22998 0.95875 0.0
C1845 C 0.80822 0.22375 0.94166 0.0
H1846 H 0.80459 0.2436 0.98232 0.0
C1847 C 0.79052 0.22572 0.93581 0.0
H1848 H 0.82648 0.22852 0.96373 0.0
C1849 C 0.77813 0.2343 0.94639 0.0
C1850 C 0.78304 0.2411 0.96316 0.0
H1851 H 0.78639 0.22129 0.9227 0.0
H1852 H 0.76474 0.23603 0.94125 0.0
C1853 C 0.80047 0.23847 0.96946 0.0
C1854 C 0.80411 0.795 0.94065 0.0
C1855 C 0.80269 0.81358 0.94135 0.0
H1856 H 0.79556 0.76983 0.95123 0.0
C1857 C 0.79237 0.82096 0.95495 0.0
H1858 H 0.81187 0.78879 0.93037 0.0
C1859 C 0.78279 0.81006 0.96677 0.0
C1860 C 0.78335 0.79146 0.96538 0.0
H1861 H 0.79124 0.83522 0.95616 0.0
H1862 H 0.7742 0.81626 0.97637 0.0
C1863 C 0.7946 0.78409 0.95254 0.0
C1864 C 0.09014 0.24616 0.2217 0.0
C1865 C 0.09381 0.22791 0.22272 0.0
H1866 H 0.0756 0.26793 0.23226 0.0
C1867 C 0.08369 0.21724 0.23448 0.0
H1868 H 0.09729 0.25474 0.21248 0.0
C1869 C 0.07099 0.22482 0.24564 0.0
C1870 C 0.0682 0.24323 0.24534 0.0
H1871 H 0.08617 0.20317 0.23572 0.0
H1872 H 0.0641 0.21642 0.25521 0.0
C1873 C 0.07759 0.25373 0.23292 0.0
C1874 C 0.81895 0.08192 0.24259 0.0
C1875 C 0.81057 0.09316 0.23015 0.0
H1876 H 0.8157 0.06209 0.26294 0.0
C1877 C 0.79201 0.09132 0.22764 0.0
H1878 H 0.83315 0.08304 0.24511 0.0
C1879 C 0.78199 0.07941 0.23805 0.0
C1880 C 0.7903 0.06887 0.25107 0.0
H1881 H 0.78511 0.09941 0.21792 0.0
H1882 H 0.76765 0.07881 0.23628 0.0
C1883 C 0.80894 0.06987 0.25286 0.0
C1884 C 0.95039 0.79386 0.21473 0.0
C1885 C 0.93913 0.80594 0.22318 0.0
H1886 H 0.97015 0.77388 0.21777 0.0
C1887 C 0.94085 0.80817 0.24173 0.0
H1888 H 0.94932 0.79154 0.20054 0.0
C1889 C 0.95279 0.79791 0.25165 0.0
C1890 C 0.9634 0.78526 0.24326 0.0
H1891 H 0.93269 0.81759 0.24867 0.0
H1892 H 0.95338 0.79954 0.26597 0.0
C1893 C 0.9624 0.7837 0.22463 0.0
C1894 C 0.23701 0.94113 0.22404 0.0
C1895 C 0.21895 0.93797 0.2282 0.0
H1896 H 0.26144 0.95466 0.23098 0.0
C1897 C 0.2114 0.94776 0.2421 0.0
H1898 H 0.24322 0.93417 0.2132 0.0
C1899 C 0.22181 0.95973 0.25209 0.0
C1900 C 0.24006 0.96211 0.24853 0.0
H1901 H 0.19764 0.94557 0.2459 0.0
H1902 H 0.21578 0.96635 0.26325 0.0
C1903 C 0.24744 0.95298 0.23414 0.0
C1904 C 0.08536 0.8103 0.79716 0.0
C1905 C 0.08808 0.80588 0.81521 0.0
H1906 H 0.07227 0.80362 0.77254 0.0
C1907 C 0.07777 0.79193 0.82262 0.0
H1908 H 0.0927 0.82121 0.79106 0.0
C1909 C 0.0658 0.78209 0.81205 0.0
C1910 C 0.06396 0.78585 0.79379 0.0
H1911 H 0.07959 0.78794 0.83638 0.0
H1912 H 0.05878 0.77085 0.81794 0.0
C1913 C 0.07354 0.80033 0.78656 0.0
C1914 C 0.23729 0.08052 0.82653 0.0
C1915 C 0.22681 0.09374 0.81855 0.0
H1916 H 0.25543 0.0593 0.82276 0.0
C1917 C 0.2251 0.09394 0.79988 0.0
H1918 H 0.23864 0.0797 0.84088 0.0
C1919 C 0.23447 0.08193 0.78945 0.0
C1920 C 0.24586 0.06945 0.7974 0.0
H1921 H 0.21721 0.10393 0.79323 0.0
H1922 H 0.23326 0.08282 0.77509 0.0
C1923 C 0.24673 0.06859 0.81611 0.0
C1924 C 0.95088 0.22934 0.82089 0.0
C1925 C 0.94032 0.21712 0.81116 0.0
H1926 H 0.96987 0.25098 0.81988 0.0
C1927 C 0.94208 0.21671 0.79252 0.0
H1928 H 0.94999 0.22988 0.83527 0.0
C1929 C 0.95348 0.22869 0.78378 0.0
C1930 C 0.96349 0.24135 0.79342 0.0
H1931 H 0.93404 0.20764 0.78456 0.0
H1932 H 0.95405 0.22842 0.76936 0.0
C1933 C 0.96243 0.24127 0.81211 0.0
C1934 C 0.81505 0.95291 0.80509 0.0
C1935 C 0.8097 0.93562 0.81024 0.0
H1936 H 0.80739 0.97759 0.79288 0.0
C1937 C 0.79188 0.93029 0.80734 0.0
H1938 H 0.82866 0.95747 0.80727 0.0
C1939 C 0.77985 0.94171 0.79912 0.0
C1940 C 0.78525 0.95882 0.7936 0.0
H1941 H 0.78731 0.91704 0.81093 0.0
H1942 H 0.76627 0.93706 0.79691 0.0
C1943 C 0.80289 0.96447 0.79697 0.0
C1944 C 0.21026 0.07984 0.24534 0.0
C1945 C 0.2183 0.09142 0.23284 0.0
H1946 H 0.21403 0.05963 0.26519 0.0
C1947 C 0.23668 0.08977 0.22963 0.0
H1948 H 0.19622 0.08077 0.24838 0.0
C1949 C 0.2469 0.07776 0.23946 0.0
C1950 C 0.23899 0.06689 0.25257 0.0
H1951 H 0.24331 0.09809 0.21983 0.0
H1952 H 0.26114 0.07735 0.23721 0.0
C1953 C 0.22047 0.06767 0.25501 0.0
C1954 C 0.21631 0.94257 0.78665 0.0
C1955 C 0.21551 0.94066 0.80528 0.0
H1956 H 0.22937 0.95489 0.7644 0.0
C1957 C 0.22707 0.95112 0.81588 0.0
H1958 H 0.20774 0.93463 0.77805 0.0
C1959 C 0.23956 0.9627 0.80801 0.0
C1960 C 0.24083 0.96402 0.78936 0.0
H1961 H 0.22668 0.95014 0.83027 0.0
H1962 H 0.24873 0.97003 0.81654 0.0
C1963 C 0.22881 0.95409 0.7788 0.0
C1964 C 0.08675 0.21362 0.78761 0.0
C1965 C 0.0902 0.21469 0.80602 0.0
H1966 H 0.07321 0.22457 0.76499 0.0
C1967 C 0.08099 0.22733 0.81602 0.0
H1968 H 0.09367 0.2042 0.77942 0.0
C1969 C 0.06926 0.23911 0.80767 0.0
C1970 C 0.06656 0.23858 0.78912 0.0
H1971 H 0.08312 0.22837 0.83026 0.0
H1972 H 0.06301 0.24919 0.81562 0.0
C1973 C 0.07509 0.2254 0.77928 0.0
C1974 C 0.79506 0.0788 0.82817 0.0
C1975 C 0.80503 0.09291 0.82064 0.0
H1976 H 0.77742 0.05669 0.8237 0.0
C1977 C 0.80645 0.09384 0.80198 0.0
H1978 H 0.79396 0.07743 0.84248 0.0
C1979 C 0.79724 0.08164 0.79115 0.0
C1980 C 0.7863 0.06825 0.79868 0.0
H1981 H 0.81396 0.10451 0.79567 0.0
H1982 H 0.79817 0.08311 0.77682 0.0
C1983 C 0.78578 0.06668 0.81735 0.0
C1984 C 0.9378 0.80726 0.7994 0.0
C1985 C 0.9373 0.80339 0.81775 0.0
H1986 H 0.949 0.8012 0.77403 0.0
C1987 C 0.94947 0.79106 0.82468 0.0
H1988 H 0.92864 0.81661 0.79352 0.0
C1989 C 0.96097 0.78198 0.81343 0.0
C1990 C 0.96069 0.78506 0.79493 0.0
H1991 H 0.94977 0.788 0.83878 0.0
H1992 H 0.96938 0.77187 0.81916 0.0
C1993 C 0.94938 0.79826 0.78817 0.0
C1994 C 0.79502 0.94321 0.22505 0.0
C1995 C 0.813 0.9406 0.22976 0.0
H1996 H 0.77057 0.95616 0.23112 0.0
C1997 C 0.82041 0.95081 0.24372 0.0
H1998 H 0.78893 0.93591 0.21415 0.0
C1999 C 0.80992 0.96261 0.25326 0.0
C2000 C 0.79174 0.96443 0.24917 0.0
H2001 H 0.8341 0.94905 0.24793 0.0
H2002 H 0.81583 0.96955 0.2645 0.0
C2003 C 0.78451 0.95491 0.23469 0.0
C2004 C 0.07983 0.79236 0.20979 0.0
C2005 C 0.09374 0.80278 0.21716 0.0
H2006 H 0.05815 0.77421 0.21451 0.0
C2007 C 0.09472 0.80444 0.2358 0.0
H2008 H 0.0784 0.79105 0.19549 0.0
C2009 C 0.08278 0.79506 0.24677 0.0
C2010 C 0.06962 0.78368 0.2394 0.0
H2011 H 0.10524 0.8123 0.242 0.0
H2012 H 0.08429 0.79622 0.26107 0.0
C2013 C 0.06798 0.78289 0.22074 0.0
C2014 C 0.93988 0.24786 0.22042 0.0
C2015 C 0.9361 0.22948 0.22051 0.0
H2016 H 0.95439 0.26949 0.2324 0.0
C2017 C 0.94588 0.21856 0.23216 0.0
H2018 H 0.93298 0.25664 0.21133 0.0
C2019 C 0.9584 0.22594 0.24403 0.0
C2020 C 0.96134 0.24441 0.24459 0.0
H2021 H 0.94326 0.20439 0.23272 0.0
H2022 H 0.96506 0.2173 0.25344 0.0
C2023 C 0.95226 0.25523 0.23237 0.0
C2024 C 0.22035 0.73515 0.59057 0.0
C2025 C 0.22391 0.71699 0.59293 0.0
H2026 H 0.22804 0.75972 0.578 0.0
C2027 C 0.23722 0.70938 0.58238 0.0
H2028 H 0.20995 0.74143 0.59809 0.0
C2029 C 0.24734 0.71984 0.57059 0.0
C2030 C 0.24451 0.73818 0.56918 0.0
H2031 H 0.24053 0.69552 0.5839 0.0
H2032 H 0.25813 0.71377 0.56343 0.0
C2033 C 0.23059 0.74563 0.57893 0.0
C2034 C 0.80927 0.73068 0.58294 0.0
C2035 C 0.7987 0.71924 0.59351 0.0
H2036 H 0.80987 0.75211 0.56403 0.0
C2037 C 0.78004 0.71997 0.59177 0.0
H2038 H 0.82368 0.73033 0.58379 0.0
C2039 C 0.77215 0.73231 0.58035 0.0
C2040 C 0.78269 0.74424 0.57033 0.0
H2041 H 0.77146 0.71149 0.5998 0.0
H2042 H 0.75773 0.73286 0.57971 0.0
C2043 C 0.80136 0.74301 0.57144 0.0
C2044 C 0.80629 0.29189 0.60213 0.0
C2045 C 0.80943 0.30953 0.59665 0.0
H2046 H 0.79499 0.26645 0.59575 0.0
C2047 C 0.80392 0.31465 0.57941 0.0
H2048 H 0.81014 0.28749 0.61534 0.0
C2049 C 0.7951 0.30251 0.56813 0.0
C2050 C 0.79141 0.28509 0.57397 0.0
H2051 H 0.80628 0.3281 0.57471 0.0
H2052 H 0.79066 0.30689 0.55509 0.0
C2053 C 0.79741 0.27986 0.59096 0.0
C2054 C 0.22159 0.30189 0.59567 0.0
C2055 C 0.22484 0.32033 0.59582 0.0
H2056 H 0.2282 0.27676 0.5845 0.0
C2057 C 0.23649 0.32765 0.58299 0.0
H2058 H 0.21279 0.29571 0.60534 0.0
C2059 C 0.24556 0.31672 0.57119 0.0
C2060 C 0.24316 0.29817 0.57182 0.0
H2061 H 0.23905 0.34183 0.58242 0.0
H2062 H 0.2552 0.32276 0.56225 0.0
C2063 C 0.23058 0.29097 0.5838 0.0
C2064 C 0.22494 0.29948 0.44034 0.0
C2065 C 0.2265 0.31809 0.44125 0.0
H2066 H 0.23321 0.27442 0.45088 0.0
C2067 C 0.2368 0.32561 0.45512 0.0
H2068 H 0.21721 0.29318 0.42984 0.0
C2069 C 0.24621 0.31485 0.46702 0.0
C2070 C 0.24549 0.29625 0.46547 0.0
H2071 H 0.23803 0.33989 0.45648 0.0
H2072 H 0.25478 0.32119 0.47685 0.0
C2073 C 0.23428 0.2887 0.45232 0.0
C2074 C 0.21643 0.74334 0.44716 0.0
C2075 C 0.21745 0.72487 0.44477 0.0
H2076 H 0.22782 0.76659 0.45933 0.0
C2077 C 0.23029 0.71544 0.45459 0.0
H2078 H 0.20686 0.75107 0.43971 0.0
C2079 C 0.24232 0.7244 0.46591 0.0
C2080 C 0.24185 0.74297 0.46749 0.0
H2081 H 0.2313 0.70119 0.45319 0.0
H2082 H 0.25257 0.71691 0.47267 0.0
C2083 C 0.2285 0.75227 0.45835 0.0
C2084 C 0.79105 0.72532 0.4422 0.0
C2085 C 0.80967 0.72766 0.44103 0.0
H2086 H 0.76675 0.7338 0.45413 0.0
C2087 C 0.81816 0.73975 0.4527 0.0
H2088 H 0.78406 0.71587 0.43374 0.0
C2089 C 0.80823 0.74981 0.46458 0.0
C2090 C 0.78956 0.74814 0.46501 0.0
H2091 H 0.83241 0.74214 0.45208 0.0
H2092 H 0.81512 0.75962 0.47272 0.0
C2093 C 0.78112 0.7355 0.45397 0.0
C2094 C 0.81175 0.30132 0.44975 0.0
C2095 C 0.8019 0.31451 0.44091 0.0
H2096 H 0.81129 0.27953 0.4683 0.0
C2097 C 0.78403 0.31689 0.44586 0.0
H2098 H 0.82549 0.29901 0.44625 0.0
C2099 C 0.7759 0.30566 0.45839 0.0
C2100 C 0.78547 0.29188 0.46647 0.0
H2101 H 0.77613 0.32719 0.43973 0.0
H2102 H 0.76193 0.30738 0.46136 0.0
C2103 C 0.80363 0.29016 0.46243 0.0
C2104 C 0.08049 0.71777 0.73179 0.0
C2105 C 0.09094 0.72836 0.72024 0.0
H2106 H 0.06079 0.71711 0.7524 0.0
C2107 C 0.08783 0.74673 0.71956 0.0
H2108 H 0.08256 0.7036 0.73278 0.0
C2109 C 0.07543 0.75445 0.73084 0.0
C2110 C 0.06566 0.74399 0.74301 0.0
H2111 H 0.09525 0.75527 0.71052 0.0
H2112 H 0.07381 0.76871 0.73039 0.0
C2113 C 0.06797 0.7255 0.74303 0.0
C2114 C 0.79296 0.5901 0.7254 0.0
C2115 C 0.81136 0.59275 0.72846 0.0
H2116 H 0.76887 0.57667 0.73346 0.0
C2117 C 0.81982 0.58203 0.7413 0.0
H2118 H 0.78603 0.59777 0.71536 0.0
C2119 C 0.81001 0.5697 0.75141 0.0
C2120 C 0.79148 0.56788 0.74906 0.0
H2121 H 0.83389 0.58379 0.74425 0.0
H2122 H 0.81679 0.56236 0.76182 0.0
C2123 C 0.78313 0.5779 0.73565 0.0
C2124 C 0.93282 0.30509 0.74301 0.0
C2125 C 0.93869 0.30949 0.72578 0.0
H2126 H 0.9388 0.29265 0.76796 0.0
C2127 C 0.95621 0.30514 0.72097 0.0
H2128 H 0.91938 0.30803 0.74714 0.0
C2129 C 0.9674 0.29622 0.73299 0.0
C2130 C 0.96118 0.29126 0.74994 0.0
H2131 H 0.9612 0.30848 0.70785 0.0
H2132 H 0.98066 0.29268 0.72882 0.0
C2133 C 0.94389 0.29609 0.7549 0.0
C2134 C 0.22598 0.4519 0.72234 0.0
C2135 C 0.21462 0.44096 0.73263 0.0
H2136 H 0.24706 0.47148 0.72226 0.0
C2137 C 0.21508 0.44275 0.75128 0.0
H2138 H 0.22582 0.45104 0.70795 0.0
C2139 C 0.22711 0.45458 0.75945 0.0
C2140 C 0.23899 0.46497 0.74921 0.0
H2141 H 0.20666 0.43446 0.75966 0.0
H2142 H 0.22749 0.45522 0.77386 0.0
C2143 C 0.23799 0.46381 0.73054 0.0
C2144 C 0.08798 0.30954 0.2995 0.0
C2145 C 0.09081 0.30501 0.31751 0.0
H2146 H 0.07478 0.30297 0.27491 0.0
C2147 C 0.08059 0.29097 0.32489 0.0
H2148 H 0.09525 0.32051 0.29343 0.0
C2149 C 0.0686 0.28117 0.31432 0.0
C2150 C 0.06665 0.28505 0.2961 0.0
H2151 H 0.0825 0.2869 0.33861 0.0
H2152 H 0.06164 0.26988 0.32018 0.0
C2153 C 0.07614 0.2996 0.2889 0.0
C2154 C 0.22457 0.58955 0.30002 0.0
C2155 C 0.22787 0.59131 0.31842 0.0
H2156 H 0.23186 0.57705 0.27557 0.0
C2157 C 0.24052 0.58015 0.32645 0.0
H2158 H 0.21467 0.5976 0.2934 0.0
C2159 C 0.25016 0.56817 0.31624 0.0
C2160 C 0.2475 0.56712 0.29773 0.0
H2161 H 0.24366 0.58123 0.3405 0.0
H2162 H 0.2604 0.56044 0.32273 0.0
C2163 C 0.23432 0.57767 0.2898 0.0
C2164 C 0.9489 0.70901 0.29644 0.0
C2165 C 0.9379 0.71702 0.30911 0.0
H2166 H 0.9688 0.71269 0.27638 0.0
C2167 C 0.94023 0.73533 0.31232 0.0
H2168 H 0.94739 0.69504 0.29337 0.0
C2169 C 0.95246 0.74549 0.30241 0.0
C2170 C 0.96281 0.73759 0.28918 0.0
H2171 H 0.93231 0.74192 0.32222 0.0
H2172 H 0.95348 0.75965 0.30476 0.0
C2173 C 0.96123 0.71915 0.28665 0.0
C2174 C 0.82232 0.44869 0.29246 0.0
C2175 C 0.81514 0.43793 0.30614 0.0
H2176 H 0.81736 0.46818 0.27218 0.0
C2177 C 0.79719 0.44027 0.31087 0.0
H2178 H 0.83598 0.44718 0.28824 0.0
C2179 C 0.78649 0.45221 0.30149 0.0
C2180 C 0.79348 0.4623 0.28729 0.0
H2181 H 0.79126 0.4326 0.32159 0.0
H2182 H 0.77256 0.45322 0.30503 0.0
C2183 C 0.81164 0.46077 0.28321 0.0
C2184 C 0.23731 0.59949 0.72647 0.0
C2185 C 0.21948 0.59398 0.72405 0.0
H2186 H 0.26302 0.59337 0.73711 0.0
C2187 C 0.21429 0.57687 0.72996 0.0
H2188 H 0.24177 0.61261 0.7223 0.0
C2189 C 0.22658 0.56577 0.73851 0.0
C2190 C 0.24419 0.57169 0.74155 0.0
H2191 H 0.20068 0.57216 0.72816 0.0
H2192 H 0.22217 0.55286 0.74333 0.0
C2193 C 0.24948 0.58852 0.73512 0.0
C2194 C 0.21949 0.44063 0.28701 0.0
C2195 C 0.21822 0.43905 0.30564 0.0
H2196 H 0.23309 0.45259 0.2649 0.0
C2197 C 0.2294 0.44982 0.31634 0.0
H2198 H 0.21122 0.43247 0.27834 0.0
C2199 C 0.24203 0.46133 0.30859 0.0
C2200 C 0.24381 0.46227 0.28997 0.0
H2201 H 0.22862 0.44911 0.33072 0.0
H2202 H 0.25093 0.46888 0.3172 0.0
C2203 C 0.23212 0.45208 0.27928 0.0
C2204 C 0.09357 0.73551 0.30938 0.0
C2205 C 0.09461 0.71703 0.30697 0.0
H2206 H 0.08144 0.75982 0.30113 0.0
C2207 C 0.08255 0.70877 0.29505 0.0
H2208 H 0.10234 0.74231 0.31871 0.0
C2209 C 0.07039 0.7188 0.28519 0.0
C2210 C 0.07006 0.73736 0.28691 0.0
H2211 H 0.08306 0.69463 0.29262 0.0
H2212 H 0.06193 0.71212 0.27549 0.0
C2213 C 0.0815 0.74555 0.29941 0.0
C2214 C 0.7834 0.58471 0.31845 0.0
C2215 C 0.80127 0.59039 0.31657 0.0
H2216 H 0.76167 0.56924 0.30771 0.0
C2217 C 0.81163 0.58251 0.30326 0.0
H2218 H 0.77513 0.59008 0.32882 0.0
C2219 C 0.80394 0.57021 0.2914 0.0
C2220 C 0.78575 0.56564 0.29255 0.0
H2221 H 0.8254 0.58658 0.30134 0.0
H2222 H 0.81191 0.56518 0.28062 0.0
C2223 C 0.77571 0.57261 0.30651 0.0
C2224 C 0.94056 0.30699 0.30076 0.0
C2225 C 0.93978 0.30337 0.31915 0.0
H2226 H 0.95207 0.30054 0.27564 0.0
C2227 C 0.95186 0.29112 0.32642 0.0
H2228 H 0.93149 0.31626 0.29461 0.0
C2229 C 0.96349 0.28186 0.31545 0.0
C2230 C 0.96344 0.28466 0.29692 0.0
H2231 H 0.95196 0.28826 0.34057 0.0
H2232 H 0.97181 0.2718 0.32143 0.0
C2233 C 0.95227 0.29781 0.28982 0.0
C2234 C 0.79811 0.44263 0.72453 0.0
C2235 C 0.81631 0.44047 0.72855 0.0
H2236 H 0.77359 0.45497 0.73152 0.0
C2237 C 0.82403 0.45102 0.7421 0.0
H2238 H 0.79176 0.43509 0.71394 0.0
C2239 C 0.81364 0.46266 0.75196 0.0
C2240 C 0.79525 0.46394 0.74862 0.0
H2241 H 0.83792 0.44963 0.74578 0.0
H2242 H 0.81979 0.46986 0.76291 0.0
C2243 C 0.7877 0.45414 0.7345 0.0
C2244 C 0.08646 0.28496 0.7171 0.0
C2245 C 0.09187 0.30276 0.71968 0.0
H2246 H 0.07102 0.26277 0.72675 0.0
C2247 C 0.08386 0.31239 0.73345 0.0
H2248 H 0.09192 0.27724 0.70638 0.0
C2249 C 0.07157 0.30412 0.74492 0.0
C2250 C 0.06711 0.28604 0.74296 0.0
H2251 H 0.08775 0.32606 0.73595 0.0
H2252 H 0.06635 0.3116 0.75596 0.0
C2253 C 0.07434 0.27669 0.72866 0.0
C2254 C 0.93708 0.74921 0.71786 0.0
C2255 C 0.93336 0.73082 0.71774 0.0
H2256 H 0.95152 0.77076 0.73009 0.0
C2257 C 0.94316 0.71981 0.72929 0.0
H2258 H 0.93017 0.75807 0.70887 0.0
C2259 C 0.95567 0.72711 0.74125 0.0
C2260 C 0.95856 0.74557 0.74201 0.0
H2261 H 0.9406 0.70563 0.72971 0.0
H2262 H 0.96236 0.71838 0.75055 0.0
C2263 C 0.94943 0.75649 0.72991 0.0
C2264 C 0.73666 0.20759 0.58258 0.0
C2265 C 0.72605 0.21486 0.59603 0.0
H2266 H 0.75492 0.21255 0.56126 0.0
C2267 C 0.72411 0.2334 0.59647 0.0
H2268 H 0.73818 0.19336 0.58158 0.0
C2269 C 0.73345 0.24439 0.58455 0.0
C2270 C 0.74506 0.23717 0.57195 0.0
H2271 H 0.71613 0.23953 0.60662 0.0
H2272 H 0.73216 0.25864 0.58571 0.0
C2273 C 0.74607 0.2186 0.57071 0.0
C2274 C 0.30062 0.24124 0.60221 0.0
C2275 C 0.30339 0.22383 0.59634 0.0
H2276 H 0.29013 0.26681 0.59626 0.0
C2277 C 0.29778 0.21914 0.57901 0.0
H2278 H 0.30456 0.24525 0.61552 0.0
C2279 C 0.28941 0.23158 0.56792 0.0
C2280 C 0.28625 0.24882 0.57408 0.0
H2281 H 0.29984 0.20585 0.57407 0.0
H2282 H 0.28503 0.22762 0.55473 0.0
C2283 C 0.29215 0.25354 0.59124 0.0
C2284 C 0.30351 0.79347 0.60206 0.0
C2285 C 0.30754 0.81087 0.5964 0.0
H2286 H 0.29186 0.76822 0.59557 0.0
C2287 C 0.30303 0.81586 0.57884 0.0
H2288 H 0.30659 0.78921 0.61552 0.0
C2289 C 0.29446 0.80375 0.56733 0.0
C2290 C 0.29 0.78653 0.57327 0.0
H2291 H 0.30607 0.82914 0.57402 0.0
H2292 H 0.29091 0.80798 0.55398 0.0
C2293 C 0.29486 0.78149 0.59068 0.0
C2294 C 0.73664 0.82568 0.58319 0.0
C2295 C 0.7245 0.81831 0.5955 0.0
H2296 H 0.7556 0.82094 0.56267 0.0
C2297 C 0.7208 0.79995 0.5948 0.0
H2298 H 0.73957 0.83981 0.58307 0.0
C2299 C 0.72974 0.78915 0.58278 0.0
C2300 C 0.74269 0.79638 0.57122 0.0
H2301 H 0.7116 0.79375 0.60408 0.0
H2302 H 0.72692 0.775 0.58296 0.0
C2303 C 0.74565 0.81486 0.57125 0.0
C2304 C 0.73561 0.82468 0.4536 0.0
C2305 C 0.72496 0.81705 0.44006 0.0
H2306 H 0.75384 0.8204 0.47514 0.0
C2307 C 0.72302 0.79845 0.4396 0.0
H2308 H 0.73713 0.83896 0.45463 0.0
C2309 C 0.73233 0.78776 0.45168 0.0
C2310 C 0.7439 0.79537 0.46448 0.0
H2311 H 0.715 0.79206 0.42936 0.0
H2312 H 0.73095 0.77347 0.45058 0.0
C2313 C 0.745 0.814 0.4656 0.0
C2314 C 0.72711 0.21794 0.45422 0.0
C2315 C 0.71408 0.22748 0.44477 0.0
H2316 H 0.74934 0.21908 0.47235 0.0
C2317 C 0.71269 0.2458 0.44795 0.0
H2318 H 0.72841 0.20378 0.45229 0.0
C2319 C 0.72455 0.25449 0.45956 0.0
C2320 C 0.73811 0.24512 0.46833 0.0
H2321 H 0.70297 0.25365 0.44083 0.0
H2322 H 0.7235 0.26872 0.4612 0.0
C2323 C 0.73895 0.22666 0.46592 0.0
C2324 C 0.29543 0.22964 0.44067 0.0
C2325 C 0.31413 0.2313 0.44157 0.0
H2326 H 0.27033 0.23768 0.45112 0.0
C2327 C 0.32176 0.24161 0.45532 0.0
H2328 H 0.28903 0.22189 0.43026 0.0
C2329 C 0.31102 0.25089 0.46713 0.0
C2330 C 0.29232 0.25003 0.4656 0.0
H2331 H 0.3361 0.24294 0.45667 0.0
H2332 H 0.31744 0.25944 0.47688 0.0
C2333 C 0.28468 0.23885 0.45255 0.0
C2334 C 0.30444 0.79345 0.4335 0.0
C2335 C 0.30912 0.81076 0.43885 0.0
H2336 H 0.29203 0.76864 0.44048 0.0
C2337 C 0.30525 0.81596 0.45639 0.0
H2338 H 0.30702 0.78904 0.42007 0.0
C2339 C 0.29659 0.80417 0.46817 0.0
C2340 C 0.29141 0.78709 0.46252 0.0
H2341 H 0.30881 0.82917 0.46096 0.0
H2342 H 0.29347 0.80857 0.48149 0.0
C2343 C 0.29568 0.7818 0.44516 0.0
C2344 C 0.58192 0.21554 0.73189 0.0
C2345 C 0.59278 0.22577 0.72042 0.0
H2346 H 0.56227 0.21551 0.75254 0.0
C2347 C 0.59102 0.24434 0.72043 0.0
H2348 H 0.5828 0.2012 0.73209 0.0
C2349 C 0.5792 0.2525 0.73203 0.0
C2350 C 0.56877 0.24232 0.7439 0.0
H2351 H 0.59926 0.25268 0.71193 0.0
H2352 H 0.57852 0.26685 0.732 0.0
C2353 C 0.56999 0.22371 0.74345 0.0
C2354 C 0.29369 0.09108 0.72639 0.0
C2355 C 0.31219 0.09323 0.72914 0.0
H2356 H 0.26939 0.07832 0.73487 0.0
C2357 C 0.32057 0.08231 0.74186 0.0
H2358 H 0.2868 0.09892 0.71645 0.0
C2359 C 0.31059 0.07025 0.75215 0.0
C2360 C 0.29199 0.06894 0.7501 0.0
H2361 H 0.33471 0.08368 0.74457 0.0
H2362 H 0.31732 0.06271 0.76244 0.0
C2363 C 0.2837 0.07918 0.73683 0.0
C2364 C 0.43232 0.80948 0.74277 0.0
C2365 C 0.43771 0.81197 0.72503 0.0
H2366 H 0.43846 0.79867 0.76844 0.0
C2367 C 0.45466 0.80603 0.72 0.0
H2368 H 0.41931 0.81369 0.7471 0.0
C2369 C 0.46569 0.79732 0.73233 0.0
C2370 C 0.45986 0.79419 0.74982 0.0
H2371 H 0.45929 0.80789 0.70648 0.0
H2372 H 0.47845 0.79244 0.72801 0.0
C2373 C 0.44323 0.80071 0.75498 0.0
C2374 C 0.70592 0.95187 0.74186 0.0
C2375 C 0.71279 0.93907 0.73028 0.0
H2376 H 0.7116 0.9723 0.76089 0.0
C2377 C 0.73131 0.93895 0.72744 0.0
H2378 H 0.69171 0.95263 0.7441 0.0
C2379 C 0.74271 0.95053 0.7368 0.0
C2380 C 0.73593 0.96246 0.74932 0.0
H2381 H 0.73714 0.92929 0.71869 0.0
H2382 H 0.75695 0.94963 0.73475 0.0
C2383 C 0.71734 0.96338 0.7513 0.0
C2384 C 0.57986 0.78821 0.32229 0.0
C2385 C 0.59036 0.80202 0.31486 0.0
H2386 H 0.56064 0.76734 0.31764 0.0
C2387 C 0.58784 0.80632 0.29675 0.0
H2388 H 0.58153 0.78432 0.33609 0.0
C2389 C 0.57598 0.79641 0.28614 0.0
C2390 C 0.56616 0.78211 0.29342 0.0
H2391 H 0.59532 0.81711 0.29063 0.0
H2392 H 0.57482 0.79963 0.2721 0.0
C2393 C 0.56785 0.77844 0.31171 0.0
C2394 C 0.73696 0.0806 0.32841 0.0
C2395 C 0.72649 0.094 0.32072 0.0
H2396 H 0.75477 0.05919 0.32416 0.0
C2397 C 0.72451 0.0944 0.30208 0.0
H2398 H 0.73851 0.07963 0.34273 0.0
C2399 C 0.73357 0.08236 0.29139 0.0
C2400 C 0.74491 0.06967 0.29904 0.0
H2401 H 0.71663 0.10452 0.29564 0.0
H2402 H 0.73214 0.08339 0.27705 0.0
C2403 C 0.74608 0.06865 0.31773 0.0
C2404 C 0.44755 0.23081 0.31554 0.0
C2405 C 0.43847 0.2175 0.30577 0.0
H2406 H 0.4663 0.25267 0.31487 0.0
C2407 C 0.4432 0.21495 0.28785 0.0
H2408 H 0.44422 0.23324 0.32931 0.0
C2409 C 0.45571 0.22615 0.27961 0.0
C2410 C 0.46402 0.24005 0.2891 0.0
H2411 H 0.43689 0.20455 0.28002 0.0
H2412 H 0.45849 0.22432 0.2656 0.0
C2413 C 0.46024 0.24194 0.30729 0.0
C2414 C 0.30475 0.94844 0.31684 0.0
C2415 C 0.31631 0.93849 0.30626 0.0
H2416 H 0.28344 0.96705 0.31746 0.0
C2417 C 0.31592 0.94111 0.28768 0.0
H2418 H 0.30483 0.94693 0.33119 0.0
C2419 C 0.30381 0.95277 0.27985 0.0
C2420 C 0.29175 0.96215 0.29036 0.0
H2421 H 0.32449 0.9336 0.27907 0.0
H2422 H 0.30353 0.95406 0.26548 0.0
C2423 C 0.29265 0.96017 0.30898 0.0
C2424 C 0.73601 0.09078 0.72976 0.0
C2425 C 0.71761 0.09209 0.73299 0.0
H2426 H 0.76065 0.07856 0.73704 0.0
C2427 C 0.70975 0.08024 0.74535 0.0
H2428 H 0.7425 0.09934 0.72006 0.0
C2429 C 0.72015 0.06808 0.75483 0.0
C2430 C 0.73868 0.06756 0.75231 0.0
H2431 H 0.6957 0.08092 0.74841 0.0
H2432 H 0.71383 0.05981 0.76489 0.0
C2433 C 0.74642 0.07876 0.73937 0.0
C2434 C 0.71528 0.94152 0.28634 0.0
C2435 C 0.71459 0.93922 0.30494 0.0
H2436 H 0.72804 0.95452 0.2643 0.0
C2437 C 0.72592 0.94976 0.3157 0.0
H2438 H 0.70688 0.93355 0.27761 0.0
C2439 C 0.73813 0.96176 0.30802 0.0
C2440 C 0.73936 0.96343 0.2894 0.0
H2441 H 0.72558 0.94851 0.33007 0.0
H2442 H 0.74718 0.9691 0.31666 0.0
C2443 C 0.7275 0.95347 0.27868 0.0
C2444 C 0.58725 0.2129 0.28751 0.0
C2445 C 0.59261 0.21555 0.30533 0.0
H2446 H 0.57194 0.22239 0.26532 0.0
C2447 C 0.58457 0.22919 0.31504 0.0
H2448 H 0.59274 0.20226 0.27974 0.0
C2449 C 0.57232 0.24052 0.3068 0.0
C2450 C 0.56796 0.23853 0.28868 0.0
H2451 H 0.5884 0.23172 0.32873 0.0
H2452 H 0.56709 0.25149 0.31432 0.0
C2453 C 0.57519 0.22431 0.27927 0.0
C2454 C 0.29429 0.07955 0.32901 0.0
C2455 C 0.30432 0.09355 0.32136 0.0
H2456 H 0.27677 0.05728 0.32469 0.0
C2457 C 0.30593 0.09417 0.3027 0.0
H2458 H 0.29304 0.07841 0.34333 0.0
C2459 C 0.29687 0.08178 0.29198 0.0
C2460 C 0.28589 0.06848 0.29961 0.0
H2461 H 0.31346 0.10476 0.29628 0.0
H2462 H 0.29794 0.08301 0.27764 0.0
C2463 C 0.28516 0.06721 0.31829 0.0
C2464 C 0.43964 0.80577 0.2977 0.0
C2465 C 0.43885 0.80208 0.31607 0.0
H2466 H 0.45106 0.7993 0.27254 0.0
C2467 C 0.45073 0.78963 0.32327 0.0
H2468 H 0.4307 0.81522 0.29162 0.0
C2469 C 0.46224 0.78028 0.31226 0.0
C2470 C 0.46225 0.78319 0.29374 0.0
H2471 H 0.45081 0.7867 0.3374 0.0
H2472 H 0.47043 0.7701 0.31819 0.0
C2473 C 0.45122 0.79649 0.2867 0.0
C2474 C 0.29618 0.94305 0.72467 0.0
C2475 C 0.31426 0.94063 0.72907 0.0
H2476 H 0.27171 0.95579 0.7311 0.0
C2477 C 0.32178 0.95086 0.74297 0.0
H2478 H 0.29 0.93573 0.71383 0.0
C2479 C 0.31133 0.96255 0.75268 0.0
C2480 C 0.29307 0.96424 0.74884 0.0
H2481 H 0.33555 0.94923 0.74696 0.0
H2482 H 0.31735 0.96956 0.76382 0.0
C2483 C 0.28571 0.95464 0.73448 0.0
C2484 C 0.57911 0.81362 0.72982 0.0
C2485 C 0.58835 0.80393 0.71694 0.0
H2486 H 0.56118 0.81274 0.75195 0.0
C2487 C 0.58499 0.78554 0.71571 0.0
H2488 H 0.58118 0.82783 0.73099 0.0
C2489 C 0.57338 0.77695 0.72756 0.0
C2490 C 0.56481 0.7865 0.74098 0.0
H2491 H 0.59193 0.77758 0.70609 0.0
H2492 H 0.57153 0.76269 0.72658 0.0
C2493 C 0.56745 0.80501 0.74169 0.0
C2494 C 0.44607 0.21971 0.72911 0.0
C2495 C 0.43639 0.2305 0.71726 0.0
H2496 H 0.46518 0.21867 0.75046 0.0
C2497 C 0.4403 0.24885 0.71687 0.0
H2498 H 0.44336 0.20556 0.72993 0.0
C2499 C 0.4527 0.25634 0.72873 0.0
C2500 C 0.46168 0.24567 0.74116 0.0
H2501 H 0.43348 0.25753 0.70762 0.0
H2502 H 0.45492 0.27059 0.72853 0.0
C2503 C 0.45862 0.22721 0.74089 0.0
C2504 C 0.72763 0.73695 0.10283 0.0
C2505 C 0.72332 0.71963 0.09722 0.0
H2506 H 0.73966 0.76205 0.09632 0.0
C2507 C 0.72778 0.71463 0.07976 0.0
H2508 H 0.7246 0.74121 0.11621 0.0
C2509 C 0.73654 0.72665 0.06829 0.0
C2510 C 0.74125 0.74379 0.07417 0.0
H2511 H 0.72452 0.70142 0.07498 0.0
H2512 H 0.74001 0.72243 0.05501 0.0
C2513 C 0.73647 0.74884 0.09148 0.0
C2514 C 0.30608 0.73327 0.09004 0.0
C2515 C 0.30325 0.71477 0.08942 0.0
H2516 H 0.29886 0.75873 0.07975 0.0
C2517 C 0.29192 0.70779 0.07606 0.0
H2518 H 0.31464 0.73918 0.10013 0.0
C2519 C 0.28262 0.71906 0.06453 0.0
C2520 C 0.28451 0.7376 0.066 0.0
H2521 H 0.28971 0.6936 0.07491 0.0
H2522 H 0.27318 0.71323 0.05519 0.0
C2523 C 0.29687 0.74452 0.07844 0.0
C2524 C 0.29379 0.32335 0.08402 0.0
C2525 C 0.30585 0.31636 0.09657 0.0
H2526 H 0.27465 0.31798 0.0634 0.0
C2527 C 0.30931 0.29807 0.09609 0.0
H2528 H 0.29106 0.33742 0.08371 0.0
C2529 C 0.30016 0.28694 0.08413 0.0
C2530 C 0.28722 0.29377 0.0724 0.0
H2531 H 0.31844 0.29214 0.10555 0.0
H2532 H 0.30275 0.27284 0.08454 0.0
C2533 C 0.28457 0.31221 0.07213 0.0
C2534 C 0.71923 0.30332 0.08466 0.0
C2535 C 0.73006 0.3151 0.09466 0.0
H2536 H 0.71818 0.28252 0.06523 0.0
C2537 C 0.74845 0.31595 0.09098 0.0
H2538 H 0.70507 0.30216 0.08718 0.0
C2539 C 0.75594 0.30461 0.07849 0.0
C2540 C 0.74524 0.29225 0.06918 0.0
H2541 H 0.75717 0.32515 0.09803 0.0
H2542 H 0.77022 0.30516 0.07646 0.0
C2543 C 0.72674 0.29206 0.07203 0.0
C2544 C 0.72658 0.31813 0.95589 0.0
C2545 C 0.72069 0.31322 0.93872 0.0
H2546 H 0.73968 0.30993 0.98009 0.0
C2547 C 0.72306 0.29565 0.93314 0.0
H2548 H 0.72482 0.33154 0.96061 0.0
C2549 C 0.73155 0.28343 0.94419 0.0
C2550 C 0.73784 0.2884 0.96115 0.0
H2551 H 0.71888 0.29146 0.91996 0.0
H2552 H 0.7334 0.27006 0.93936 0.0
C2553 C 0.73496 0.30577 0.96707 0.0
C2554 C 0.70633 0.7357 0.95338 0.0
C2555 C 0.71383 0.72578 0.93955 0.0
H2556 H 0.71087 0.7532 0.97532 0.0
C2557 C 0.7325 0.7244 0.93896 0.0
H2558 H 0.692 0.73677 0.9545 0.0
C2559 C 0.74337 0.73355 0.9512 0.0
C2560 C 0.73587 0.7444 0.96431 0.0
H2561 H 0.7388 0.71695 0.9285 0.0
H2562 H 0.7577 0.73264 0.94999 0.0
C2563 C 0.71718 0.74492 0.96554 0.0
C2564 C 0.30028 0.71669 0.95213 0.0
C2565 C 0.31345 0.72621 0.9426 0.0
H2566 H 0.27773 0.71798 0.96951 0.0
C2567 C 0.31459 0.74475 0.94465 0.0
H2568 H 0.29915 0.70239 0.951 0.0
C2569 C 0.30243 0.75362 0.9553 0.0
C2570 C 0.28884 0.74421 0.96424 0.0
H2571 H 0.32442 0.75256 0.9374 0.0
H2572 H 0.30333 0.76797 0.95611 0.0
C2573 C 0.28815 0.72559 0.96291 0.0
C2574 C 0.29366 0.31989 0.9539 0.0
C2575 C 0.30561 0.31174 0.94221 0.0
H2576 H 0.27392 0.31635 0.97417 0.0
C2577 C 0.30796 0.29328 0.94372 0.0
H2578 H 0.29128 0.33401 0.95304 0.0
C2579 C 0.29786 0.28315 0.95578 0.0
C2580 C 0.28528 0.29121 0.96678 0.0
H2581 H 0.31731 0.28655 0.93527 0.0
H2582 H 0.29949 0.26888 0.95614 0.0
C2583 C 0.28367 0.30976 0.96607 0.0
C2584 C 0.58853 0.74237 0.21872 0.0
C2585 C 0.59033 0.7238 0.21863 0.0
H2586 H 0.57616 0.76483 0.23055 0.0
C2587 C 0.57961 0.71351 0.23018 0.0
H2588 H 0.59667 0.75075 0.21016 0.0
C2589 C 0.56782 0.72163 0.24191 0.0
C2590 C 0.56659 0.74024 0.24246 0.0
H2591 H 0.58051 0.69918 0.23032 0.0
H2592 H 0.56024 0.71338 0.25108 0.0
C2593 C 0.57685 0.75047 0.2305 0.0
C2594 C 0.32103 0.58093 0.24103 0.0
C2595 C 0.31236 0.59209 0.22873 0.0
H2596 H 0.31829 0.56099 0.26132 0.0
C2597 C 0.29381 0.58999 0.22638 0.0
H2598 H 0.33524 0.58226 0.24343 0.0
C2599 C 0.28407 0.57785 0.2368 0.0
C2600 C 0.29266 0.56737 0.24969 0.0
H2601 H 0.2867 0.59803 0.21677 0.0
H2602 H 0.26972 0.57702 0.23514 0.0
C2603 C 0.3113 0.56868 0.25133 0.0
C2604 C 0.44458 0.28554 0.21686 0.0
C2605 C 0.44202 0.30395 0.21811 0.0
H2606 H 0.45733 0.26259 0.22762 0.0
C2607 C 0.45201 0.31359 0.23086 0.0
H2608 H 0.43704 0.27763 0.20735 0.0
C2609 C 0.46366 0.30489 0.24255 0.0
C2610 C 0.46549 0.28636 0.24183 0.0
H2611 H 0.45054 0.32781 0.23204 0.0
H2612 H 0.47057 0.31256 0.25271 0.0
C2613 C 0.45614 0.27687 0.22856 0.0
C2614 C 0.72813 0.44894 0.21948 0.0
C2615 C 0.7169 0.43785 0.22975 0.0
H2616 H 0.74903 0.46874 0.21944 0.0
C2617 C 0.71742 0.43954 0.24841 0.0
H2618 H 0.72793 0.44815 0.20508 0.0
C2619 C 0.72939 0.45141 0.2566 0.0
C2620 C 0.74112 0.46197 0.24637 0.0
H2621 H 0.7091 0.43113 0.25677 0.0
H2622 H 0.72983 0.45197 0.27102 0.0
C2623 C 0.74006 0.46092 0.2277 0.0
C2624 C 0.59062 0.30747 0.79839 0.0
C2625 C 0.59007 0.30504 0.81697 0.0
H2626 H 0.58033 0.29955 0.77292 0.0
C2627 C 0.57707 0.29337 0.82407 0.0
H2628 H 0.60046 0.31627 0.7924 0.0
C2629 C 0.56572 0.28352 0.81286 0.0
C2630 C 0.56698 0.28517 0.79424 0.0
H2631 H 0.57598 0.29142 0.83832 0.0
H2632 H 0.55661 0.27395 0.81883 0.0
C2633 C 0.57918 0.29771 0.78719 0.0
C2634 C 0.72207 0.59019 0.79723 0.0
C2635 C 0.72501 0.59231 0.81565 0.0
H2636 H 0.72991 0.57728 0.77319 0.0
C2637 C 0.73749 0.58131 0.82416 0.0
H2638 H 0.71231 0.59811 0.79026 0.0
C2639 C 0.74736 0.56916 0.81439 0.0
C2640 C 0.7451 0.56779 0.79584 0.0
H2641 H 0.74034 0.58266 0.83824 0.0
H2642 H 0.75749 0.56158 0.82122 0.0
C2643 C 0.73205 0.57815 0.78744 0.0
C2644 C 0.43212 0.73981 0.81196 0.0
C2645 C 0.43745 0.72214 0.81425 0.0
H2646 H 0.43836 0.76553 0.80131 0.0
C2647 C 0.45438 0.71729 0.80806 0.0
H2648 H 0.41914 0.744 0.81636 0.0
C2649 C 0.46546 0.72973 0.79933 0.0
C2650 C 0.4597 0.74716 0.79643 0.0
H2651 H 0.45896 0.70383 0.80976 0.0
H2652 H 0.47821 0.72555 0.79428 0.0
C2653 C 0.44308 0.75213 0.80317 0.0
C2654 C 0.32012 0.4511 0.79544 0.0
C2655 C 0.31282 0.44015 0.80891 0.0
H2656 H 0.31536 0.47081 0.77535 0.0
C2657 C 0.29483 0.44238 0.81348 0.0
H2658 H 0.33383 0.44967 0.79134 0.0
C2659 C 0.2842 0.45446 0.80418 0.0
C2660 C 0.29132 0.46475 0.79017 0.0
H2661 H 0.2888 0.43452 0.82402 0.0
H2662 H 0.27025 0.45542 0.80763 0.0
C2663 C 0.30952 0.46328 0.78624 0.0
C2664 C 0.73594 0.59755 0.22928 0.0
C2665 C 0.71865 0.5916 0.22476 0.0
H2666 H 0.76089 0.59146 0.24163 0.0
C2667 C 0.7137 0.5739 0.22875 0.0
H2668 H 0.74016 0.61112 0.22661 0.0
C2669 C 0.7257 0.56254 0.2374 0.0
C2670 C 0.74273 0.5688 0.24245 0.0
H2671 H 0.70051 0.56888 0.22533 0.0
H2672 H 0.72148 0.5491 0.24065 0.0
C2673 C 0.74778 0.58632 0.23804 0.0
C2674 C 0.71577 0.45577 0.80376 0.0
C2675 C 0.72015 0.43836 0.8089 0.0
H2676 H 0.72476 0.48019 0.79153 0.0
C2677 C 0.73748 0.43241 0.80574 0.0
H2678 H 0.70254 0.46076 0.80611 0.0
C2679 C 0.75004 0.44342 0.79737 0.0
C2680 C 0.74565 0.46071 0.79199 0.0
H2681 H 0.74125 0.41903 0.80933 0.0
H2682 H 0.76325 0.43835 0.79506 0.0
C2683 C 0.72847 0.46691 0.79551 0.0
C2684 C 0.57986 0.72854 0.81466 0.0
C2685 C 0.5888 0.7157 0.80468 0.0
H2686 H 0.56202 0.75052 0.81425 0.0
C2687 C 0.5851 0.71445 0.78633 0.0
H2688 H 0.58221 0.72973 0.82885 0.0
C2689 C 0.57341 0.72622 0.77803 0.0
C2690 C 0.5651 0.73956 0.78784 0.0
H2691 H 0.59182 0.70487 0.77816 0.0
H2692 H 0.5713 0.72523 0.76378 0.0
C2693 C 0.5681 0.74031 0.80634 0.0
C2694 C 0.30265 0.57607 0.81841 0.0
C2695 C 0.30893 0.59316 0.81358 0.0
H2696 H 0.28881 0.55225 0.81001 0.0
C2697 C 0.30677 0.59881 0.79584 0.0
H2698 H 0.30424 0.57126 0.83193 0.0
C2699 C 0.29798 0.58799 0.78343 0.0
C2700 C 0.29115 0.5712 0.78836 0.0
H2701 H 0.31123 0.61192 0.79166 0.0
H2702 H 0.29616 0.59295 0.76997 0.0
C2703 C 0.29394 0.56513 0.80587 0.0
C2704 C 0.44992 0.29183 0.82184 0.0
C2705 C 0.43984 0.30569 0.81443 0.0
H2706 H 0.46851 0.27107 0.81724 0.0
C2707 C 0.44259 0.31026 0.79644 0.0
H2708 H 0.44807 0.28773 0.83555 0.0
C2709 C 0.45426 0.30058 0.78591 0.0
C2710 C 0.46362 0.28617 0.79312 0.0
H2711 H 0.4354 0.32109 0.79034 0.0
H2712 H 0.45559 0.30404 0.77195 0.0
C2713 C 0.4617 0.28224 0.81133 0.0
C2714 C 0.30097 0.43798 0.22888 0.0
C2715 C 0.31933 0.43736 0.23273 0.0
H2716 H 0.27587 0.44967 0.23477 0.0
C2717 C 0.32658 0.44965 0.24497 0.0
H2718 H 0.29485 0.42871 0.21961 0.0
C2719 C 0.31563 0.46152 0.25388 0.0
C2720 C 0.29712 0.46147 0.25074 0.0
H2721 H 0.34071 0.44984 0.24802 0.0
H2722 H 0.32159 0.4701 0.26388 0.0
C2723 C 0.29003 0.44991 0.23773 0.0
C2724 C 0.58772 0.28291 0.2156 0.0
C2725 C 0.59342 0.30067 0.21794 0.0
H2726 H 0.57197 0.26108 0.22557 0.0
C2727 C 0.58551 0.31063 0.23151 0.0
H2728 H 0.5931 0.27493 0.20501 0.0
C2729 C 0.57306 0.30273 0.24307 0.0
C2730 C 0.56836 0.28467 0.24139 0.0
H2731 H 0.5896 0.32428 0.23382 0.0
H2732 H 0.56793 0.31044 0.25399 0.0
C2733 C 0.57547 0.27499 0.22725 0.0
C2734 C 0.44499 0.71745 0.22839 0.0
C2735 C 0.43541 0.72845 0.21664 0.0
H2736 H 0.46387 0.71603 0.24993 0.0
C2737 C 0.43921 0.74682 0.21671 0.0
H2738 H 0.44234 0.70328 0.22886 0.0
C2739 C 0.45143 0.7541 0.22889 0.0
C2740 C 0.46034 0.7432 0.24117 0.0
H2741 H 0.43248 0.75567 0.20757 0.0
H2742 H 0.4536 0.76836 0.22902 0.0
C2743 C 0.45736 0.72475 0.24048 0.0
loop_
_geom_bond_atom_site_label_1
_geom_bond_atom_site_label_2
_geom_bond_distance
_geom_bond_site_symmetry_2
_ccdc_geom_bond_type
C0 C1 1.264 . S
C0 C5 1.479 . S
C0 C10 1.465 . S
C1 C0 1.264 . S
C1 C3 1.339 . S
C1 H28 0.931 . S
C2 C3 1.395 . S
C2 C4 1.320 . S
C3 C1 1.339 . S
C3 C2 1.395 . S
C3 H29 0.929 . S
C4 C2 1.320 . S
C4 C5 1.405 . S
C4 H30 0.930 . S
C5 C0 1.479 . S
C5 C4 1.405 . S
C5 H31 0.931 . S
U6 O7 2.454 . S
U6 O8 2.458 . S
U6 C9 2.984 . S
U6 C10 2.847 . S
U6 C23 2.882 . S
U6 O24 2.441 . S
U6 O25 2.420 . S
U6 O26 2.455 . S
U6 O27 2.449 . S
O7 U6 2.454 . S
O7 C9 1.353 . S
O8 U6 2.458 . S
O8 C9 1.286 . S
C9 U6 2.984 . S
C9 O7 1.353 . S
C9 O8 1.286 . S
C9 C11 1.363 . S
C10 C0 1.465 . S
C10 U6 2.847 . S
C10 O24 1.249 . S
C10 O25 1.202 . S
C11 C9 1.363 . S
C11 C13 1.408 . S
C11 C16 1.342 . S
C12 C13 1.310 . S
C12 C15 1.461 . S
C12 H32 0.932 . S
C13 C11 1.408 . S
C13 C12 1.310 . S
C13 H33 0.930 . S
C14 C15 1.474 . S
C14 C16 1.285 . S
C14 H34 0.929 . S
C15 C12 1.461 . S
C15 C14 1.474 . S
C16 C11 1.342 . S
C16 C14 1.285 . S
C16 H35 0.930 . S
C17 C20 1.424 . S
C17 C22 1.245 . S
C17 C23 1.428 . S
C18 C21 1.260 . S
C18 C22 1.477 . S
C18 H36 0.932 . S
C19 C20 1.384 . S
C19 C21 1.479 . S
C19 H37 0.929 . S
C20 C17 1.424 . S
C20 C19 1.384 . S
C20 H38 0.928 . S
C21 C18 1.260 . S
C21 C19 1.479 . S
C22 C17 1.245 . S
C22 C18 1.477 . S
C22 H39 0.932 . S
C23 U6 2.882 . S
C23 C17 1.428 . S
C23 O26 1.301 . S
C23 O27 1.282 . S
O24 U6 2.441 . S
O24 C10 1.249 . S
O25 U6 2.420 . S
O25 C10 1.202 . S
O26 U6 2.455 . S
O26 C23 1.301 . S
O27 U6 2.449 . S
O27 C23 1.282 . S
H28 C1 0.931 . S
H29 C3 0.929 . S
H30 C4 0.930 . S
H31 C5 0.931 . S
H32 C12 0.932 . S
H33 C13 0.930 . S
H34 C14 0.929 . S
H35 C16 0.930 . S
H36 C18 0.932 . S
H37 C19 0.929 . S
H38 C20 0.928 . S
H39 C22 0.932 . S
C40 C41 1.264 . S
C40 C45 1.479 . S
C40 C50 1.465 . S
C41 C40 1.264 . S
C41 C43 1.339 . S
C41 H68 0.931 . S
C42 C43 1.395 . S
C42 C44 1.320 . S
C43 C41 1.339 . S
C43 C42 1.395 . S
C43 H69 0.929 . S
C44 C42 1.320 . S
C44 C45 1.405 . S
C44 H70 0.930 . S
C45 C40 1.479 . S
C45 C44 1.405 . S
C45 H71 0.931 . S
U46 O47 2.454 . S
U46 O48 2.458 . S
U46 C49 2.984 . S
U46 C50 2.847 . S
U46 C63 2.882 . S
U46 O64 2.441 . S
U46 O65 2.420 . S
U46 O66 2.455 . S
U46 O67 2.449 . S
O47 U46 2.454 . S
O47 C49 1.353 . S
O48 U46 2.458 . S
O48 C49 1.286 . S
C49 U46 2.984 . S
C49 O47 1.353 . S
C49 O48 1.286 . S
C49 C51 1.363 . S
C50 C40 1.465 . S
C50 U46 2.847 . S
C50 O64 1.249 . S
C50 O65 1.202 . S
C51 C49 1.363 . S
C51 C53 1.408 . S
C51 C56 1.342 . S
C52 C53 1.310 . S
C52 C55 1.461 . S
C52 H72 0.932 . S
C53 C51 1.408 . S
C53 C52 1.310 . S
C53 H73 0.930 . S
C54 C55 1.474 . S
C54 C56 1.285 . S
C54 H74 0.929 . S
C55 C52 1.461 . S
C55 C54 1.474 . S
C56 C51 1.342 . S
C56 C54 1.285 . S
C56 H75 0.930 . S
C57 C60 1.424 . S
C57 C62 1.245 . S
C57 C63 1.428 . S
C58 C61 1.260 . S
C58 C62 1.477 . S
C58 H76 0.932 . S
C59 C60 1.384 . S
C59 C61 1.479 . S
C59 H77 0.929 . S
C60 C57 1.424 . S
C60 C59 1.384 . S
C60 H78 0.928 . S
C61 C58 1.260 . S
C61 C59 1.479 . S
C62 C57 1.245 . S
C62 C58 1.477 . S
C62 H79 0.932 . S
C63 U46 2.882 . S
C63 C57 1.428 . S
C63 O66 1.301 . S
C63 O67 1.282 . S
O64 U46 2.441 . S
O64 C50 1.249 . S
O65 U46 2.420 . S
O65 C50 1.202 . S
O66 U46 2.455 . S
O66 C63 1.301 . S
O67 U46 2.449 . S
O67 C63 1.282 . S
H68 C41 0.931 . S
H69 C43 0.929 . S
H70 C44 0.930 . S
H71 C45 0.931 . S
H72 C52 0.932 . S
H73 C53 0.930 . S
H74 C54 0.929 . S
H75 C56 0.930 . S
H76 C58 0.932 . S
H77 C59 0.929 . S
H78 C60 0.928 . S
H79 C62 0.932 . S
C80 C81 1.264 . S
C80 C85 1.479 . S
C80 C90 1.465 . S
C81 C80 1.264 . S
C81 C83 1.339 . S
C81 H108 0.931 . S
C82 C83 1.395 . S
C82 C84 1.320 . S
C83 C81 1.339 . S
C83 C82 1.395 . S
C83 H109 0.929 . S
C84 C82 1.320 . S
C84 C85 1.405 . S
C84 H110 0.930 . S
C85 C80 1.479 . S
C85 C84 1.405 . S
C85 H111 0.931 . S
U86 O87 2.454 . S
U86 O88 2.458 . S
U86 C89 2.984 . S
U86 C90 2.847 . S
U86 C103 2.882 . S
U86 O104 2.441 . S
U86 O105 2.420 . S
U86 O106 2.455 . S
U86 O107 2.449 . S
O87 U86 2.454 . S
O87 C89 1.353 . S
O88 U86 2.458 . S
O88 C89 1.286 . S
C89 U86 2.984 . S
C89 O87 1.353 . S
C89 O88 1.286 . S
C89 C91 1.363 . S
C90 C80 1.465 . S
C90 U86 2.847 . S
C90 O104 1.249 . S
C90 O105 1.202 . S
C91 C89 1.363 . S
C91 C93 1.408 . S
C91 C96 1.342 . S
C92 C93 1.310 . S
C92 C95 1.461 . S
C92 H112 0.932 . S
C93 C91 1.408 . S
C93 C92 1.310 . S
C93 H113 0.930 . S
C94 C95 1.474 . S
C94 C96 1.285 . S
C94 H114 0.929 . S
C95 C92 1.461 . S
C95 C94 1.474 . S
C96 C91 1.342 . S
C96 C94 1.285 . S
C96 H115 0.930 . S
C97 C100 1.424 . S
C97 C102 1.245 . S
C97 C103 1.428 . S
C98 C101 1.260 . S
C98 C102 1.477 . S
C98 H116 0.932 . S
C99 C100 1.384 . S
C99 C101 1.479 . S
C99 H117 0.929 . S
C100 C97 1.424 . S
C100 C99 1.384 . S
C100 H118 0.928 . S
C101 C98 1.260 . S
C101 C99 1.479 . S
C102 C97 1.245 . S
C102 C98 1.477 . S
C102 H119 0.932 . S
C103 U86 2.882 . S
C103 C97 1.428 . S
C103 O106 1.301 . S
C103 O107 1.282 . S
O104 U86 2.441 . S
O104 C90 1.249 . S
O105 U86 2.420 . S
O105 C90 1.202 . S
O106 U86 2.455 . S
O106 C103 1.301 . S
O107 U86 2.449 . S
O107 C103 1.282 . S
H108 C81 0.931 . S
H109 C83 0.929 . S
H110 C84 0.930 . S
H111 C85 0.931 . S
H112 C92 0.932 . S
H113 C93 0.930 . S
H114 C94 0.929 . S
H115 C96 0.930 . S
H116 C98 0.932 . S
H117 C99 0.929 . S
H118 C100 0.928 . S
H119 C102 0.932 . S
C120 C121 1.264 . S
C120 C125 1.479 . S
C120 C130 1.465 . S
C121 C120 1.264 . S
C121 C123 1.339 . S
C121 H148 0.931 . S
C122 C123 1.395 . S
C122 C124 1.320 . S
C123 C121 1.339 . S
C123 C122 1.395 . S
C123 H149 0.929 . S
C124 C122 1.320 . S
C124 C125 1.405 . S
C124 H150 0.930 . S
C125 C120 1.479 . S
C125 C124 1.405 . S
C125 H151 0.931 . S
U126 O127 2.454 . S
U126 O128 2.458 . S
U126 C129 2.984 . S
U126 C130 2.847 . S
U126 C143 2.882 . S
U126 O144 2.441 . S
U126 O145 2.420 . S
U126 O146 2.455 . S
U126 O147 2.449 . S
O127 U126 2.454 . S
O127 C129 1.353 . S
O128 U126 2.458 . S
O128 C129 1.286 . S
C129 U126 2.984 . S
C129 O127 1.353 . S
C129 O128 1.286 . S
C129 C131 1.363 . S
C130 C120 1.465 . S
C130 U126 2.847 . S
C130 O144 1.249 . S
C130 O145 1.202 . S
C131 C129 1.363 . S
C131 C133 1.408 . S
C131 C136 1.342 . S
C132 C133 1.310 . S
C132 C135 1.461 . S
C132 H152 0.932 . S
C133 C131 1.408 . S
C133 C132 1.310 . S
C133 H153 0.930 . S
C134 C135 1.474 . S
C134 C136 1.285 . S
C134 H154 0.929 . S
C135 C132 1.461 . S
C135 C134 1.474 . S
C136 C131 1.342 . S
C136 C134 1.285 . S
C136 H155 0.930 . S
C137 C140 1.424 . S
C137 C142 1.245 . S
C137 C143 1.428 . S
C138 C141 1.260 . S
C138 C142 1.477 . S
C138 H156 0.932 . S
C139 C140 1.384 . S
C139 C141 1.479 . S
C139 H157 0.929 . S
C140 C137 1.424 . S
C140 C139 1.384 . S
C140 H158 0.928 . S
C141 C138 1.260 . S
C141 C139 1.479 . S
C142 C137 1.245 . S
C142 C138 1.477 . S
C142 H159 0.932 . S
C143 U126 2.882 . S
C143 C137 1.428 . S
C143 O146 1.301 . S
C143 O147 1.282 . S
O144 U126 2.441 . S
O144 C130 1.249 . S
O145 U126 2.420 . S
O145 C130 1.202 . S
O146 U126 2.455 . S
O146 C143 1.301 . S
O147 U126 2.449 . S
O147 C143 1.282 . S
H148 C121 0.931 . S
H149 C123 0.929 . S
H150 C124 0.930 . S
H151 C125 0.931 . S
H152 C132 0.932 . S
H153 C133 0.930 . S
H154 C134 0.929 . S
H155 C136 0.930 . S
H156 C138 0.932 . S
H157 C139 0.929 . S
H158 C140 0.928 . S
H159 C142 0.932 . S
C160 C161 1.264 . S
C160 C165 1.479 . S
C160 C170 1.465 . S
C161 C160 1.264 . S
C161 C163 1.339 . S
C161 H188 0.931 . S
C162 C163 1.395 . S
C162 C164 1.320 . S
C163 C161 1.339 . S
C163 C162 1.395 . S
C163 H189 0.929 . S
C164 C162 1.320 . S
C164 C165 1.405 . S
C164 H190 0.930 . S
C165 C160 1.479 . S
C165 C164 1.405 . S
C165 H191 0.931 . S
U166 O167 2.454 . S
U166 O168 2.458 . S
U166 C169 2.984 . S
U166 C170 2.847 . S
U166 C183 2.882 . S
U166 O184 2.441 . S
U166 O185 2.420 . S
U166 O186 2.455 . S
U166 O187 2.449 . S
O167 U166 2.454 . S
O167 C169 1.353 . S
O168 U166 2.458 . S
O168 C169 1.286 . S
C169 U166 2.984 . S
C169 O167 1.353 . S
C169 O168 1.286 . S
C169 C171 1.363 . S
C170 C160 1.465 . S
C170 U166 2.847 . S
C170 O184 1.249 . S
C170 O185 1.202 . S
C171 C169 1.363 . S
C171 C173 1.408 . S
C171 C176 1.342 . S
C172 C173 1.310 . S
C172 C175 1.461 . S
C172 H192 0.932 . S
C173 C171 1.408 . S
C173 C172 1.310 . S
C173 H193 0.930 . S
C174 C175 1.474 . S
C174 C176 1.285 . S
C174 H194 0.929 . S
C175 C172 1.461 . S
C175 C174 1.474 . S
C176 C171 1.342 . S
C176 C174 1.285 . S
C176 H195 0.930 . S
C177 C180 1.424 . S
C177 C182 1.245 . S
C177 C183 1.428 . S
C178 C181 1.260 . S
C178 C182 1.477 . S
C178 H196 0.932 . S
C179 C180 1.384 . S
C179 C181 1.479 . S
C179 H197 0.929 . S
C180 C177 1.424 . S
C180 C179 1.384 . S
C180 H198 0.928 . S
C181 C178 1.260 . S
C181 C179 1.479 . S
C182 C177 1.245 . S
C182 C178 1.477 . S
C182 H199 0.932 . S
C183 U166 2.882 . S
C183 C177 1.428 . S
C183 O186 1.301 . S
C183 O187 1.282 . S
O184 U166 2.441 . S
O184 C170 1.249 . S
O185 U166 2.420 . S
O185 C170 1.202 . S
O186 U166 2.455 . S
O186 C183 1.301 . S
O187 U166 2.449 . S
O187 C183 1.282 . S
H188 C161 0.931 . S
H189 C163 0.929 . S
H190 C164 0.930 . S
H191 C165 0.931 . S
H192 C172 0.932 . S
H193 C173 0.930 . S
H194 C174 0.929 . S
H195 C176 0.930 . S
H196 C178 0.932 . S
H197 C179 0.929 . S
H198 C180 0.928 . S
H199 C182 0.932 . S
C200 C201 1.264 . S
C200 C205 1.479 . S
C200 C210 1.465 . S
C201 C200 1.264 . S
C201 C203 1.339 . S
C201 H228 0.931 . S
C202 C203 1.395 . S
C202 C204 1.320 . S
C203 C201 1.339 . S
C203 C202 1.395 . S
C203 H229 0.929 . S
C204 C202 1.320 . S
C204 C205 1.405 . S
C204 H230 0.930 . S
C205 C200 1.479 . S
C205 C204 1.405 . S
C205 H231 0.931 . S
U206 O207 2.454 . S
U206 O208 2.458 . S
U206 C209 2.984 . S
U206 C210 2.847 . S
U206 C223 2.882 . S
U206 O224 2.441 . S
U206 O225 2.420 . S
U206 O226 2.455 . S
U206 O227 2.449 . S
O207 U206 2.454 . S
O207 C209 1.353 . S
O208 U206 2.458 . S
O208 C209 1.286 . S
C209 U206 2.984 . S
C209 O207 1.353 . S
C209 O208 1.286 . S
C209 C211 1.363 . S
C210 C200 1.465 . S
C210 U206 2.847 . S
C210 O224 1.249 . S
C210 O225 1.202 . S
C211 C209 1.363 . S
C211 C213 1.408 . S
C211 C216 1.342 . S
C212 C213 1.310 . S
C212 C215 1.461 . S
C212 H232 0.932 . S
C213 C211 1.408 . S
C213 C212 1.310 . S
C213 H233 0.930 . S
C214 C215 1.474 . S
C214 C216 1.285 . S
C214 H234 0.929 . S
C215 C212 1.461 . S
C215 C214 1.474 . S
C216 C211 1.342 . S
C216 C214 1.285 . S
C216 H235 0.930 . S
C217 C220 1.424 . S
C217 C222 1.245 . S
C217 C223 1.428 . S
C218 C221 1.260 . S
C218 C222 1.477 . S
C218 H236 0.932 . S
C219 C220 1.384 . S
C219 C221 1.479 . S
C219 H237 0.929 . S
C220 C217 1.424 . S
C220 C219 1.384 . S
C220 H238 0.928 . S
C221 C218 1.260 . S
C221 C219 1.479 . S
C222 C217 1.245 . S
C222 C218 1.477 . S
C222 H239 0.932 . S
C223 U206 2.882 . S
C223 C217 1.428 . S
C223 O226 1.301 . S
C223 O227 1.282 . S
O224 U206 2.441 . S
O224 C210 1.249 . S
O225 U206 2.420 . S
O225 C210 1.202 . S
O226 U206 2.455 . S
O226 C223 1.301 . S
O227 U206 2.449 . S
O227 C223 1.282 . S
H228 C201 0.931 . S
H229 C203 0.929 . S
H230 C204 0.930 . S
H231 C205 0.931 . S
H232 C212 0.932 . S
H233 C213 0.930 . S
H234 C214 0.929 . S
H235 C216 0.930 . S
H236 C218 0.932 . S
H237 C219 0.929 . S
H238 C220 0.928 . S
H239 C222 0.932 . S
C240 C241 1.264 . S
C240 C245 1.479 . S
C240 C250 1.465 . S
C241 C240 1.264 . S
C241 C243 1.339 . S
C241 H268 0.931 . S
C242 C243 1.395 . S
C242 C244 1.320 . S
C243 C241 1.339 . S
C243 C242 1.395 . S
C243 H269 0.929 . S
C244 C242 1.320 . S
C244 C245 1.405 . S
C244 H270 0.930 . S
C245 C240 1.479 . S
C245 C244 1.405 . S
C245 H271 0.931 . S
U246 O247 2.454 . S
U246 O248 2.458 . S
U246 C249 2.984 . S
U246 C250 2.847 . S
U246 C263 2.882 . S
U246 O264 2.441 . S
U246 O265 2.420 . S
U246 O266 2.455 . S
U246 O267 2.449 . S
O247 U246 2.454 . S
O247 C249 1.353 . S
O248 U246 2.458 . S
O248 C249 1.286 . S
C249 U246 2.984 . S
C249 O247 1.353 . S
C249 O248 1.286 . S
C249 C251 1.363 . S
C250 C240 1.465 . S
C250 U246 2.847 . S
C250 O264 1.249 . S
C250 O265 1.202 . S
C251 C249 1.363 . S
C251 C253 1.408 . S
C251 C256 1.342 . S
C252 C253 1.310 . S
C252 C255 1.461 . S
C252 H272 0.932 . S
C253 C251 1.408 . S
C253 C252 1.310 . S
C253 H273 0.930 . S
C254 C255 1.474 . S
C254 C256 1.285 . S
C254 H274 0.929 . S
C255 C252 1.461 . S
C255 C254 1.474 . S
C256 C251 1.342 . S
C256 C254 1.285 . S
C256 H275 0.930 . S
C257 C260 1.424 . S
C257 C262 1.245 . S
C257 C263 1.428 . S
C258 C261 1.260 . S
C258 C262 1.477 . S
C258 H276 0.932 . S
C259 C260 1.384 . S
C259 C261 1.479 . S
C259 H277 0.929 . S
C260 C257 1.424 . S
C260 C259 1.384 . S
C260 H278 0.928 . S
C261 C258 1.260 . S
C261 C259 1.479 . S
C262 C257 1.245 . S
C262 C258 1.477 . S
C262 H279 0.932 . S
C263 U246 2.882 . S
C263 C257 1.428 . S
C263 O266 1.301 . S
C263 O267 1.282 . S
O264 U246 2.441 . S
O264 C250 1.249 . S
O265 U246 2.420 . S
O265 C250 1.202 . S
O266 U246 2.455 . S
O266 C263 1.301 . S
O267 U246 2.449 . S
O267 C263 1.282 . S
H268 C241 0.931 . S
H269 C243 0.929 . S
H270 C244 0.930 . S
H271 C245 0.931 . S
H272 C252 0.932 . S
H273 C253 0.930 . S
H274 C254 0.929 . S
H275 C256 0.930 . S
H276 C258 0.932 . S
H277 C259 0.929 . S
H278 C260 0.928 . S
H279 C262 0.932 . S
C280 C281 1.264 . S
C280 C285 1.479 . S
C280 C290 1.465 . S
C281 C280 1.264 . S
C281 C283 1.339 . S
C281 H308 0.931 . S
C282 C283 1.395 . S
C282 C284 1.320 . S
C283 C281 1.339 . S
C283 C282 1.395 . S
C283 H309 0.929 . S
C284 C282 1.320 . S
C284 C285 1.405 . S
C284 H310 0.930 . S
C285 C280 1.479 . S
C285 C284 1.405 . S
C285 H311 0.931 . S
U286 O287 2.454 . S
U286 O288 2.458 . S
U286 C289 2.984 . S
U286 C290 2.847 . S
U286 C303 2.882 . S
U286 O304 2.441 . S
U286 O305 2.420 . S
U286 O306 2.455 . S
U286 O307 2.449 . S
O287 U286 2.454 . S
O287 C289 1.353 . S
O288 U286 2.458 . S
O288 C289 1.286 . S
C289 U286 2.984 . S
C289 O287 1.353 . S
C289 O288 1.286 . S
C289 C291 1.363 . S
C290 C280 1.465 . S
C290 U286 2.847 . S
C290 O304 1.249 . S
C290 O305 1.202 . S
C291 C289 1.363 . S
C291 C293 1.408 . S
C291 C296 1.342 . S
C292 C293 1.310 . S
C292 C295 1.461 . S
C292 H312 0.932 . S
C293 C291 1.408 . S
C293 C292 1.310 . S
C293 H313 0.930 . S
C294 C295 1.474 . S
C294 C296 1.285 . S
C294 H314 0.929 . S
C295 C292 1.461 . S
C295 C294 1.474 . S
C296 C291 1.342 . S
C296 C294 1.285 . S
C296 H315 0.930 . S
C297 C300 1.424 . S
C297 C302 1.245 . S
C297 C303 1.428 . S
C298 C301 1.260 . S
C298 C302 1.477 . S
C298 H316 0.932 . S
C299 C300 1.384 . S
C299 C301 1.479 . S
C299 H317 0.929 . S
C300 C297 1.424 . S
C300 C299 1.384 . S
C300 H318 0.928 . S
C301 C298 1.260 . S
C301 C299 1.479 . S
C302 C297 1.245 . S
C302 C298 1.477 . S
C302 H319 0.932 . S
C303 U286 2.882 . S
C303 C297 1.428 . S
C303 O306 1.301 . S
C303 O307 1.282 . S
O304 U286 2.441 . S
O304 C290 1.249 . S
O305 U286 2.420 . S
O305 C290 1.202 . S
O306 U286 2.455 . S
O306 C303 1.301 . S
O307 U286 2.449 . S
O307 C303 1.282 . S
H308 C281 0.931 . S
H309 C283 0.929 . S
H310 C284 0.930 . S
H311 C285 0.931 . S
H312 C292 0.932 . S
H313 C293 0.930 . S
H314 C294 0.929 . S
H315 C296 0.930 . S
H316 C298 0.932 . S
H317 C299 0.929 . S
H318 C300 0.928 . S
H319 C302 0.932 . S
C320 C321 1.264 . S
C320 C325 1.479 . S
C320 C330 1.465 . S
C321 C320 1.264 . S
C321 C323 1.339 . S
C321 H348 0.931 . S
C322 C323 1.395 . S
C322 C324 1.320 . S
C323 C321 1.339 . S
C323 C322 1.395 . S
C323 H349 0.929 . S
C324 C322 1.320 . S
C324 C325 1.405 . S
C324 H350 0.930 . S
C325 C320 1.479 . S
C325 C324 1.405 . S
C325 H351 0.931 . S
U326 O327 2.454 . S
U326 O328 2.458 . S
U326 C329 2.984 . S
U326 C330 2.847 . S
U326 C343 2.882 . S
U326 O344 2.441 . S
U326 O345 2.420 . S
U326 O346 2.455 . S
U326 O347 2.449 . S
O327 U326 2.454 . S
O327 C329 1.353 . S
O328 U326 2.458 . S
O328 C329 1.286 . S
C329 U326 2.984 . S
C329 O327 1.353 . S
C329 O328 1.286 . S
C329 C331 1.363 . S
C330 C320 1.465 . S
C330 U326 2.847 . S
C330 O344 1.249 . S
C330 O345 1.202 . S
C331 C329 1.363 . S
C331 C333 1.408 . S
C331 C336 1.342 . S
C332 C333 1.310 . S
C332 C335 1.461 . S
C332 H352 0.932 . S
C333 C331 1.408 . S
C333 C332 1.310 . S
C333 H353 0.930 . S
C334 C335 1.474 . S
C334 C336 1.285 . S
C334 H354 0.929 . S
C335 C332 1.461 . S
C335 C334 1.474 . S
C336 C331 1.342 . S
C336 C334 1.285 . S
C336 H355 0.930 . S
C337 C340 1.424 . S
C337 C342 1.245 . S
C337 C343 1.428 . S
C338 C341 1.260 . S
C338 C342 1.477 . S
C338 H356 0.932 . S
C339 C340 1.384 . S
C339 C341 1.479 . S
C339 H357 0.929 . S
C340 C337 1.424 . S
C340 C339 1.384 . S
C340 H358 0.928 . S
C341 C338 1.260 . S
C341 C339 1.479 . S
C342 C337 1.245 . S
C342 C338 1.477 . S
C342 H359 0.932 . S
C343 U326 2.882 . S
C343 C337 1.428 . S
C343 O346 1.301 . S
C343 O347 1.282 . S
O344 U326 2.441 . S
O344 C330 1.249 . S
O345 U326 2.420 . S
O345 C330 1.202 . S
O346 U326 2.455 . S
O346 C343 1.301 . S
O347 U326 2.449 . S
O347 C343 1.282 . S
H348 C321 0.931 . S
H349 C323 0.929 . S
H350 C324 0.930 . S
H351 C325 0.931 . S
H352 C332 0.932 . S
H353 C333 0.930 . S
H354 C334 0.929 . S
H355 C336 0.930 . S
H356 C338 0.932 . S
H357 C339 0.929 . S
H358 C340 0.928 . S
H359 C342 0.932 . S
C360 C361 1.264 . S
C360 C365 1.479 . S
C360 C370 1.465 . S
C361 C360 1.264 . S
C361 C363 1.339 . S
C361 H388 0.931 . S
C362 C363 1.395 . S
C362 C364 1.320 . S
C363 C361 1.339 . S
C363 C362 1.395 . S
C363 H389 0.929 . S
C364 C362 1.320 . S
C364 C365 1.405 . S
C364 H390 0.930 . S
C365 C360 1.479 . S
C365 C364 1.405 . S
C365 H391 0.931 . S
U366 O367 2.454 . S
U366 O368 2.458 . S
U366 C369 2.984 . S
U366 C370 2.847 . S
U366 C383 2.882 . S
U366 O384 2.441 . S
U366 O385 2.420 . S
U366 O386 2.455 . S
U366 O387 2.449 . S
O367 U366 2.454 . S
O367 C369 1.353 . S
O368 U366 2.458 . S
O368 C369 1.286 . S
C369 U366 2.984 . S
C369 O367 1.353 . S
C369 O368 1.286 . S
C369 C371 1.363 . S
C370 C360 1.465 . S
C370 U366 2.847 . S
C370 O384 1.249 . S
C370 O385 1.202 . S
C371 C369 1.363 . S
C371 C373 1.408 . S
C371 C376 1.342 . S
C372 C373 1.310 . S
C372 C375 1.461 . S
C372 H392 0.932 . S
C373 C371 1.408 . S
C373 C372 1.310 . S
C373 H393 0.930 . S
C374 C375 1.474 . S
C374 C376 1.285 . S
C374 H394 0.929 . S
C375 C372 1.461 . S
C375 C374 1.474 . S
C376 C371 1.342 . S
C376 C374 1.285 . S
C376 H395 0.930 . S
C377 C380 1.424 . S
C377 C382 1.245 . S
C377 C383 1.428 . S
C378 C381 1.260 . S
C378 C382 1.477 . S
C378 H396 0.932 . S
C379 C380 1.384 . S
C379 C381 1.479 . S
C379 H397 0.929 . S
C380 C377 1.424 . S
C380 C379 1.384 . S
C380 H398 0.928 . S
C381 C378 1.260 . S
C381 C379 1.479 . S
C382 C377 1.245 . S
C382 C378 1.477 . S
C382 H399 0.932 . S
C383 U366 2.882 . S
C383 C377 1.428 . S
C383 O386 1.301 . S
C383 O387 1.282 . S
O384 U366 2.441 . S
O384 C370 1.249 . S
O385 U366 2.420 . S
O385 C370 1.202 . S
O386 U366 2.455 . S
O386 C383 1.301 . S
O387 U366 2.449 . S
O387 C383 1.282 . S
H388 C361 0.931 . S
H389 C363 0.929 . S
H390 C364 0.930 . S
H391 C365 0.931 . S
H392 C372 0.932 . S
H393 C373 0.930 . S
H394 C374 0.929 . S
H395 C376 0.930 . S
H396 C378 0.932 . S
H397 C379 0.929 . S
H398 C380 0.928 . S
H399 C382 0.932 . S
C400 C401 1.264 . S
C400 C405 1.479 . S
C400 C410 1.465 . S
C401 C400 1.264 . S
C401 C403 1.339 . S
C401 H428 0.931 . S
C402 C403 1.395 . S
C402 C404 1.320 . S
C403 C401 1.339 . S
C403 C402 1.395 . S
C403 H429 0.929 . S
C404 C402 1.320 . S
C404 C405 1.405 . S
C404 H430 0.930 . S
C405 C400 1.479 . S
C405 C404 1.405 . S
C405 H431 0.931 . S
U406 O407 2.454 . S
U406 O408 2.458 . S
U406 C409 2.984 . S
U406 C410 2.847 . S
U406 C423 2.882 . S
U406 O424 2.441 . S
U406 O425 2.420 . S
U406 O426 2.455 . S
U406 O427 2.449 . S
O407 U406 2.454 . S
O407 C409 1.353 . S
O408 U406 2.458 . S
O408 C409 1.286 . S
C409 U406 2.984 . S
C409 O407 1.353 . S
C409 O408 1.286 . S
C409 C411 1.363 . S
C410 C400 1.465 . S
C410 U406 2.847 . S
C410 O424 1.249 . S
C410 O425 1.202 . S
C411 C409 1.363 . S
C411 C413 1.408 . S
C411 C416 1.342 . S
C412 C413 1.310 . S
C412 C415 1.461 . S
C412 H432 0.932 . S
C413 C411 1.408 . S
C413 C412 1.310 . S
C413 H433 0.930 . S
C414 C415 1.474 . S
C414 C416 1.285 . S
C414 H434 0.929 . S
C415 C412 1.461 . S
C415 C414 1.474 . S
C416 C411 1.342 . S
C416 C414 1.285 . S
C416 H435 0.930 . S
C417 C420 1.424 . S
C417 C422 1.245 . S
C417 C423 1.428 . S
C418 C421 1.260 . S
C418 C422 1.477 . S
C418 H436 0.932 . S
C419 C420 1.384 . S
C419 C421 1.479 . S
C419 H437 0.929 . S
C420 C417 1.424 . S
C420 C419 1.384 . S
C420 H438 0.928 . S
C421 C418 1.260 . S
C421 C419 1.479 . S
C422 C417 1.245 . S
C422 C418 1.477 . S
C422 H439 0.932 . S
C423 U406 2.882 . S
C423 C417 1.428 . S
C423 O426 1.301 . S
C423 O427 1.282 . S
O424 U406 2.441 . S
O424 C410 1.249 . S
O425 U406 2.420 . S
O425 C410 1.202 . S
O426 U406 2.455 . S
O426 C423 1.301 . S
O427 U406 2.449 . S
O427 C423 1.282 . S
H428 C401 0.931 . S
H429 C403 0.929 . S
H430 C404 0.930 . S
H431 C405 0.931 . S
H432 C412 0.932 . S
H433 C413 0.930 . S
H434 C414 0.929 . S
H435 C416 0.930 . S
H436 C418 0.932 . S
H437 C419 0.929 . S
H438 C420 0.928 . S
H439 C422 0.932 . S
C440 C441 1.264 . S
C440 C445 1.479 . S
C440 C450 1.465 . S
C441 C440 1.264 . S
C441 C443 1.339 . S
C441 H468 0.931 . S
C442 C443 1.395 . S
C442 C444 1.320 . S
C443 C441 1.339 . S
C443 C442 1.395 . S
C443 H469 0.929 . S
C444 C442 1.320 . S
C444 C445 1.405 . S
C444 H470 0.930 . S
C445 C440 1.479 . S
C445 C444 1.405 . S
C445 H471 0.931 . S
U446 O447 2.454 . S
U446 O448 2.458 . S
U446 C449 2.984 . S
U446 C450 2.847 . S
U446 C463 2.882 . S
U446 O464 2.441 . S
U446 O465 2.420 . S
U446 O466 2.455 . S
U446 O467 2.449 . S
O447 U446 2.454 . S
O447 C449 1.353 . S
O448 U446 2.458 . S
O448 C449 1.286 . S
C449 U446 2.984 . S
C449 O447 1.353 . S
C449 O448 1.286 . S
C449 C451 1.363 . S
C450 C440 1.465 . S
C450 U446 2.847 . S
C450 O464 1.249 . S
C450 O465 1.202 . S
C451 C449 1.363 . S
C451 C453 1.408 . S
C451 C456 1.342 . S
C452 C453 1.310 . S
C452 C455 1.461 . S
C452 H472 0.932 . S
C453 C451 1.408 . S
C453 C452 1.310 . S
C453 H473 0.930 . S
C454 C455 1.474 . S
C454 C456 1.285 . S
C454 H474 0.929 . S
C455 C452 1.461 . S
C455 C454 1.474 . S
C456 C451 1.342 . S
C456 C454 1.285 . S
C456 H475 0.930 . S
C457 C460 1.424 . S
C457 C462 1.245 . S
C457 C463 1.428 . S
C458 C461 1.260 . S
C458 C462 1.477 . S
C458 H476 0.932 . S
C459 C460 1.384 . S
C459 C461 1.479 . S
C459 H477 0.929 . S
C460 C457 1.424 . S
C460 C459 1.384 . S
C460 H478 0.928 . S
C461 C458 1.260 . S
C461 C459 1.479 . S
C462 C457 1.245 . S
C462 C458 1.477 . S
C462 H479 0.932 . S
C463 U446 2.882 . S
C463 C457 1.428 . S
C463 O466 1.301 . S
C463 O467 1.282 . S
O464 U446 2.441 . S
O464 C450 1.249 . S
O465 U446 2.420 . S
O465 C450 1.202 . S
O466 U446 2.455 . S
O466 C463 1.301 . S
O467 U446 2.449 . S
O467 C463 1.282 . S
H468 C441 0.931 . S
H469 C443 0.929 . S
H470 C444 0.930 . S
H471 C445 0.931 . S
H472 C452 0.932 . S
H473 C453 0.930 . S
H474 C454 0.929 . S
H475 C456 0.930 . S
H476 C458 0.932 . S
H477 C459 0.929 . S
H478 C460 0.928 . S
H479 C462 0.932 . S
C480 C481 1.264 . S
C480 C485 1.479 . S
C480 C490 1.465 . S
C481 C480 1.264 . S
C481 C483 1.339 . S
C481 H508 0.931 . S
C482 C483 1.395 . S
C482 C484 1.320 . S
C483 C481 1.339 . S
C483 C482 1.395 . S
C483 H509 0.929 . S
C484 C482 1.320 . S
C484 C485 1.405 . S
C484 H510 0.930 . S
C485 C480 1.479 . S
C485 C484 1.405 . S
C485 H511 0.931 . S
U486 O487 2.454 . S
U486 O488 2.458 . S
U486 C489 2.984 . S
U486 C490 2.847 . S
U486 C503 2.882 . S
U486 O504 2.441 . S
U486 O505 2.420 . S
U486 O506 2.455 . S
U486 O507 2.449 . S
O487 U486 2.454 . S
O487 C489 1.353 . S
O488 U486 2.458 . S
O488 C489 1.286 . S
C489 U486 2.984 . S
C489 O487 1.353 . S
C489 O488 1.286 . S
C489 C491 1.363 . S
C490 C480 1.465 . S
C490 U486 2.847 . S
C490 O504 1.249 . S
C490 O505 1.202 . S
C491 C489 1.363 . S
C491 C493 1.408 . S
C491 C496 1.342 . S
C492 C493 1.310 . S
C492 C495 1.461 . S
C492 H512 0.932 . S
C493 C491 1.408 . S
C493 C492 1.310 . S
C493 H513 0.930 . S
C494 C495 1.474 . S
C494 C496 1.285 . S
C494 H514 0.929 . S
C495 C492 1.461 . S
C495 C494 1.474 . S
C496 C491 1.342 . S
C496 C494 1.285 . S
C496 H515 0.930 . S
C497 C500 1.424 . S
C497 C502 1.245 . S
C497 C503 1.428 . S
C498 C501 1.260 . S
C498 C502 1.477 . S
C498 H516 0.932 . S
C499 C500 1.384 . S
C499 C501 1.479 . S
C499 H517 0.929 . S
C500 C497 1.424 . S
C500 C499 1.384 . S
C500 H518 0.928 . S
C501 C498 1.260 . S
C501 C499 1.479 . S
C502 C497 1.245 . S
C502 C498 1.477 . S
C502 H519 0.932 . S
C503 U486 2.882 . S
C503 C497 1.428 . S
C503 O506 1.301 . S
C503 O507 1.282 . S
O504 U486 2.441 . S
O504 C490 1.249 . S
O505 U486 2.420 . S
O505 C490 1.202 . S
O506 U486 2.455 . S
O506 C503 1.301 . S
O507 U486 2.449 . S
O507 C503 1.282 . S
H508 C481 0.931 . S
H509 C483 0.929 . S
H510 C484 0.930 . S
H511 C485 0.931 . S
H512 C492 0.932 . S
H513 C493 0.930 . S
H514 C494 0.929 . S
H515 C496 0.930 . S
H516 C498 0.932 . S
H517 C499 0.929 . S
H518 C500 0.928 . S
H519 C502 0.932 . S
C520 C521 1.264 . S
C520 C525 1.479 . S
C520 C530 1.465 . S
C521 C520 1.264 . S
C521 C523 1.339 . S
C521 H548 0.931 . S
C522 C523 1.395 . S
C522 C524 1.320 . S
C523 C521 1.339 . S
C523 C522 1.395 . S
C523 H549 0.929 . S
C524 C522 1.320 . S
C524 C525 1.405 . S
C524 H550 0.930 . S
C525 C520 1.479 . S
C525 C524 1.405 . S
C525 H551 0.931 . S
U526 O527 2.454 . S
U526 O528 2.458 . S
U526 C529 2.984 . S
U526 C530 2.847 . S
U526 C543 2.882 . S
U526 O544 2.441 . S
U526 O545 2.420 . S
U526 O546 2.455 . S
U526 O547 2.449 . S
O527 U526 2.454 . S
O527 C529 1.353 . S
O528 U526 2.458 . S
O528 C529 1.286 . S
C529 U526 2.984 . S
C529 O527 1.353 . S
C529 O528 1.286 . S
C529 C531 1.363 . S
C530 C520 1.465 . S
C530 U526 2.847 . S
C530 O544 1.249 . S
C530 O545 1.202 . S
C531 C529 1.363 . S
C531 C533 1.408 . S
C531 C536 1.342 . S
C532 C533 1.310 . S
C532 C535 1.461 . S
C532 H552 0.932 . S
C533 C531 1.408 . S
C533 C532 1.310 . S
C533 H553 0.930 . S
C534 C535 1.474 . S
C534 C536 1.285 . S
C534 H554 0.929 . S
C535 C532 1.461 . S
C535 C534 1.474 . S
C536 C531 1.342 . S
C536 C534 1.285 . S
C536 H555 0.930 . S
C537 C540 1.424 . S
C537 C542 1.245 . S
C537 C543 1.428 . S
C538 C541 1.260 . S
C538 C542 1.477 . S
C538 H556 0.932 . S
C539 C540 1.384 . S
C539 C541 1.479 . S
C539 H557 0.929 . S
C540 C537 1.424 . S
C540 C539 1.384 . S
C540 H558 0.928 . S
C541 C538 1.260 . S
C541 C539 1.479 . S
C542 C537 1.245 . S
C542 C538 1.477 . S
C542 H559 0.932 . S
C543 U526 2.882 . S
C543 C537 1.428 . S
C543 O546 1.301 . S
C543 O547 1.282 . S
O544 U526 2.441 . S
O544 C530 1.249 . S
O545 U526 2.420 . S
O545 C530 1.202 . S
O546 U526 2.455 . S
O546 C543 1.301 . S
O547 U526 2.449 . S
O547 C543 1.282 . S
H548 C521 0.931 . S
H549 C523 0.929 . S
H550 C524 0.930 . S
H551 C525 0.931 . S
H552 C532 0.932 . S
H553 C533 0.930 . S
H554 C534 0.929 . S
H555 C536 0.930 . S
H556 C538 0.932 . S
H557 C539 0.929 . S
H558 C540 0.928 . S
H559 C542 0.932 . S
C560 C561 1.264 . S
C560 C565 1.479 . S
C560 C570 1.465 . S
C561 C560 1.264 . S
C561 C563 1.339 . S
C561 H588 0.931 . S
C562 C563 1.395 . S
C562 C564 1.320 . S
C563 C561 1.339 . S
C563 C562 1.395 . S
C563 H589 0.929 . S
C564 C562 1.320 . S
C564 C565 1.405 . S
C564 H590 0.930 . S
C565 C560 1.479 . S
C565 C564 1.405 . S
C565 H591 0.931 . S
U566 O567 2.454 . S
U566 O568 2.458 . S
U566 C569 2.984 . S
U566 C570 2.847 . S
U566 C583 2.882 . S
U566 O584 2.441 . S
U566 O585 2.420 . S
U566 O586 2.455 . S
U566 O587 2.449 . S
O567 U566 2.454 . S
O567 C569 1.353 . S
O568 U566 2.458 . S
O568 C569 1.286 . S
C569 U566 2.984 . S
C569 O567 1.353 . S
C569 O568 1.286 . S
C569 C571 1.363 . S
C570 C560 1.465 . S
C570 U566 2.847 . S
C570 O584 1.249 . S
C570 O585 1.202 . S
C571 C569 1.363 . S
C571 C573 1.408 . S
C571 C576 1.342 . S
C572 C573 1.310 . S
C572 C575 1.461 . S
C572 H592 0.932 . S
C573 C571 1.408 . S
C573 C572 1.310 . S
C573 H593 0.930 . S
C574 C575 1.474 . S
C574 C576 1.285 . S
C574 H594 0.929 . S
C575 C572 1.461 . S
C575 C574 1.474 . S
C576 C571 1.342 . S
C576 C574 1.285 . S
C576 H595 0.930 . S
C577 C580 1.424 . S
C577 C582 1.245 . S
C577 C583 1.428 . S
C578 C581 1.260 . S
C578 C582 1.477 . S
C578 H596 0.932 . S
C579 C580 1.384 . S
C579 C581 1.479 . S
C579 H597 0.929 . S
C580 C577 1.424 . S
C580 C579 1.384 . S
C580 H598 0.928 . S
C581 C578 1.260 . S
C581 C579 1.479 . S
C582 C577 1.245 . S
C582 C578 1.477 . S
C582 H599 0.932 . S
C583 U566 2.882 . S
C583 C577 1.428 . S
C583 O586 1.301 . S
C583 O587 1.282 . S
O584 U566 2.441 . S
O584 C570 1.249 . S
O585 U566 2.420 . S
O585 C570 1.202 . S
O586 U566 2.455 . S
O586 C583 1.301 . S
O587 U566 2.449 . S
O587 C583 1.282 . S
H588 C561 0.931 . S
H589 C563 0.929 . S
H590 C564 0.930 . S
H591 C565 0.931 . S
H592 C572 0.932 . S
H593 C573 0.930 . S
H594 C574 0.929 . S
H595 C576 0.930 . S
H596 C578 0.932 . S
H597 C579 0.929 . S
H598 C580 0.928 . S
H599 C582 0.932 . S
C600 C601 1.264 . S
C600 C605 1.479 . S
C600 C610 1.465 . S
C601 C600 1.264 . S
C601 C603 1.339 . S
C601 H628 0.931 . S
C602 C603 1.395 . S
C602 C604 1.320 . S
C603 C601 1.339 . S
C603 C602 1.395 . S
C603 H629 0.929 . S
C604 C602 1.320 . S
C604 C605 1.405 . S
C604 H630 0.930 . S
C605 C600 1.479 . S
C605 C604 1.405 . S
C605 H631 0.931 . S
U606 O607 2.454 . S
U606 O608 2.458 . S
U606 C609 2.984 . S
U606 C610 2.847 . S
U606 C623 2.882 . S
U606 O624 2.441 . S
U606 O625 2.420 . S
U606 O626 2.455 . S
U606 O627 2.449 . S
O607 U606 2.454 . S
O607 C609 1.353 . S
O608 U606 2.458 . S
O608 C609 1.286 . S
C609 U606 2.984 . S
C609 O607 1.353 . S
C609 O608 1.286 . S
C609 C611 1.363 . S
C610 C600 1.465 . S
C610 U606 2.847 . S
C610 O624 1.249 . S
C610 O625 1.202 . S
C611 C609 1.363 . S
C611 C613 1.408 . S
C611 C616 1.342 . S
C612 C613 1.310 . S
C612 C615 1.461 . S
C612 H632 0.932 . S
C613 C611 1.408 . S
C613 C612 1.310 . S
C613 H633 0.930 . S
C614 C615 1.474 . S
C614 C616 1.285 . S
C614 H634 0.929 . S
C615 C612 1.461 . S
C615 C614 1.474 . S
C616 C611 1.342 . S
C616 C614 1.285 . S
C616 H635 0.930 . S
C617 C620 1.424 . S
C617 C622 1.245 . S
C617 C623 1.428 . S
C618 C621 1.260 . S
C618 C622 1.477 . S
C618 H636 0.932 . S
C619 C620 1.384 . S
C619 C621 1.479 . S
C619 H637 0.929 . S
C620 C617 1.424 . S
C620 C619 1.384 . S
C620 H638 0.928 . S
C621 C618 1.260 . S
C621 C619 1.479 . S
C622 C617 1.245 . S
C622 C618 1.477 . S
C622 H639 0.932 . S
C623 U606 2.882 . S
C623 C617 1.428 . S
C623 O626 1.301 . S
C623 O627 1.282 . S
O624 U606 2.441 . S
O624 C610 1.249 . S
O625 U606 2.420 . S
O625 C610 1.202 . S
O626 U606 2.455 . S
O626 C623 1.301 . S
O627 U606 2.449 . S
O627 C623 1.282 . S
H628 C601 0.931 . S
H629 C603 0.929 . S
H630 C604 0.930 . S
H631 C605 0.931 . S
H632 C612 0.932 . S
H633 C613 0.930 . S
H634 C614 0.929 . S
H635 C616 0.930 . S
H636 C618 0.932 . S
H637 C619 0.929 . S
H638 C620 0.928 . S
H639 C622 0.932 . S
C640 C641 1.264 . S
C640 C645 1.479 . S
C640 C650 1.465 . S
C641 C640 1.264 . S
C641 C643 1.339 . S
C641 H668 0.931 . S
C642 C643 1.395 . S
C642 C644 1.320 . S
C643 C641 1.339 . S
C643 C642 1.395 . S
C643 H669 0.929 . S
C644 C642 1.320 . S
C644 C645 1.405 . S
C644 H670 0.930 . S
C645 C640 1.479 . S
C645 C644 1.405 . S
C645 H671 0.931 . S
U646 O647 2.454 . S
U646 O648 2.458 . S
U646 C649 2.984 . S
U646 C650 2.847 . S
U646 C663 2.882 . S
U646 O664 2.441 . S
U646 O665 2.420 . S
U646 O666 2.455 . S
U646 O667 2.449 . S
O647 U646 2.454 . S
O647 C649 1.353 . S
O648 U646 2.458 . S
O648 C649 1.286 . S
C649 U646 2.984 . S
C649 O647 1.353 . S
C649 O648 1.286 . S
C649 C651 1.363 . S
C650 C640 1.465 . S
C650 U646 2.847 . S
C650 O664 1.249 . S
C650 O665 1.202 . S
C651 C649 1.363 . S
C651 C653 1.408 . S
C651 C656 1.342 . S
C652 C653 1.310 . S
C652 C655 1.461 . S
C652 H672 0.932 . S
C653 C651 1.408 . S
C653 C652 1.310 . S
C653 H673 0.930 . S
C654 C655 1.474 . S
C654 C656 1.285 . S
C654 H674 0.929 . S
C655 C652 1.461 . S
C655 C654 1.474 . S
C656 C651 1.342 . S
C656 C654 1.285 . S
C656 H675 0.930 . S
C657 C660 1.424 . S
C657 C662 1.245 . S
C657 C663 1.428 . S
C658 C661 1.260 . S
C658 C662 1.477 . S
C658 H676 0.932 . S
C659 C660 1.384 . S
C659 C661 1.479 . S
C659 H677 0.929 . S
C660 C657 1.424 . S
C660 C659 1.384 . S
C660 H678 0.928 . S
C661 C658 1.260 . S
C661 C659 1.479 . S
C662 C657 1.245 . S
C662 C658 1.477 . S
C662 H679 0.932 . S
C663 U646 2.882 . S
C663 C657 1.428 . S
C663 O666 1.301 . S
C663 O667 1.282 . S
O664 U646 2.441 . S
O664 C650 1.249 . S
O665 U646 2.420 . S
O665 C650 1.202 . S
O666 U646 2.455 . S
O666 C663 1.301 . S
O667 U646 2.449 . S
O667 C663 1.282 . S
H668 C641 0.931 . S
H669 C643 0.929 . S
H670 C644 0.930 . S
H671 C645 0.931 . S
H672 C652 0.932 . S
H673 C653 0.930 . S
H674 C654 0.929 . S
H675 C656 0.930 . S
H676 C658 0.932 . S
H677 C659 0.929 . S
H678 C660 0.928 . S
H679 C662 0.932 . S
C680 C681 1.264 . S
C680 C685 1.479 . S
C680 C690 1.465 . S
C681 C680 1.264 . S
C681 C683 1.339 . S
C681 H708 0.931 . S
C682 C683 1.395 . S
C682 C684 1.320 . S
C683 C681 1.339 . S
C683 C682 1.395 . S
C683 H709 0.929 . S
C684 C682 1.320 . S
C684 C685 1.405 . S
C684 H710 0.930 . S
C685 C680 1.479 . S
C685 C684 1.405 . S
C685 H711 0.931 . S
U686 O687 2.454 . S
U686 O688 2.458 . S
U686 C689 2.984 . S
U686 C690 2.847 . S
U686 C703 2.882 . S
U686 O704 2.441 . S
U686 O705 2.420 . S
U686 O706 2.455 . S
U686 O707 2.449 . S
O687 U686 2.454 . S
O687 C689 1.353 . S
O688 U686 2.458 . S
O688 C689 1.286 . S
C689 U686 2.984 . S
C689 O687 1.353 . S
C689 O688 1.286 . S
C689 C691 1.363 . S
C690 C680 1.465 . S
C690 U686 2.847 . S
C690 O704 1.249 . S
C690 O705 1.202 . S
C691 C689 1.363 . S
C691 C693 1.408 . S
C691 C696 1.342 . S
C692 C693 1.310 . S
C692 C695 1.461 . S
C692 H712 0.932 . S
C693 C691 1.408 . S
C693 C692 1.310 . S
C693 H713 0.930 . S
C694 C695 1.474 . S
C694 C696 1.285 . S
C694 H714 0.929 . S
C695 C692 1.461 . S
C695 C694 1.474 . S
C696 C691 1.342 . S
C696 C694 1.285 . S
C696 H715 0.930 . S
C697 C700 1.424 . S
C697 C702 1.245 . S
C697 C703 1.428 . S
C698 C701 1.260 . S
C698 C702 1.477 . S
C698 H716 0.932 . S
C699 C700 1.384 . S
C699 C701 1.479 . S
C699 H717 0.929 . S
C700 C697 1.424 . S
C700 C699 1.384 . S
C700 H718 0.928 . S
C701 C698 1.260 . S
C701 C699 1.479 . S
C702 C697 1.245 . S
C702 C698 1.477 . S
C702 H719 0.932 . S
C703 U686 2.882 . S
C703 C697 1.428 . S
C703 O706 1.301 . S
C703 O707 1.282 . S
O704 U686 2.441 . S
O704 C690 1.249 . S
O705 U686 2.420 . S
O705 C690 1.202 . S
O706 U686 2.455 . S
O706 C703 1.301 . S
O707 U686 2.449 . S
O707 C703 1.282 . S
H708 C681 0.931 . S
H709 C683 0.929 . S
H710 C684 0.930 . S
H711 C685 0.931 . S
H712 C692 0.932 . S
H713 C693 0.930 . S
H714 C694 0.929 . S
H715 C696 0.930 . S
H716 C698 0.932 . S
H717 C699 0.929 . S
H718 C700 0.928 . S
H719 C702 0.932 . S
C720 C721 1.264 . S
C720 C725 1.479 . S
C720 C730 1.465 . S
C721 C720 1.264 . S
C721 C723 1.339 . S
C721 H748 0.931 . S
C722 C723 1.395 . S
C722 C724 1.320 . S
C723 C721 1.339 . S
C723 C722 1.395 . S
C723 H749 0.929 . S
C724 C722 1.320 . S
C724 C725 1.405 . S
C724 H750 0.930 . S
C725 C720 1.479 . S
C725 C724 1.405 . S
C725 H751 0.931 . S
U726 O727 2.454 . S
U726 O728 2.458 . S
U726 C729 2.984 . S
U726 C730 2.847 . S
U726 C743 2.882 . S
U726 O744 2.441 . S
U726 O745 2.420 . S
U726 O746 2.455 . S
U726 O747 2.449 . S
O727 U726 2.454 . S
O727 C729 1.353 . S
O728 U726 2.458 . S
O728 C729 1.286 . S
C729 U726 2.984 . S
C729 O727 1.353 . S
C729 O728 1.286 . S
C729 C731 1.363 . S
C730 C720 1.465 . S
C730 U726 2.847 . S
C730 O744 1.249 . S
C730 O745 1.202 . S
C731 C729 1.363 . S
C731 C733 1.408 . S
C731 C736 1.342 . S
C732 C733 1.310 . S
C732 C735 1.461 . S
C732 H752 0.932 . S
C733 C731 1.408 . S
C733 C732 1.310 . S
C733 H753 0.930 . S
C734 C735 1.474 . S
C734 C736 1.285 . S
C734 H754 0.929 . S
C735 C732 1.461 . S
C735 C734 1.474 . S
C736 C731 1.342 . S
C736 C734 1.285 . S
C736 H755 0.930 . S
C737 C740 1.424 . S
C737 C742 1.245 . S
C737 C743 1.428 . S
C738 C741 1.260 . S
C738 C742 1.477 . S
C738 H756 0.932 . S
C739 C740 1.384 . S
C739 C741 1.479 . S
C739 H757 0.929 . S
C740 C737 1.424 . S
C740 C739 1.384 . S
C740 H758 0.928 . S
C741 C738 1.260 . S
C741 C739 1.479 . S
C742 C737 1.245 . S
C742 C738 1.477 . S
C742 H759 0.932 . S
C743 U726 2.882 . S
C743 C737 1.428 . S
C743 O746 1.301 . S
C743 O747 1.282 . S
O744 U726 2.441 . S
O744 C730 1.249 . S
O745 U726 2.420 . S
O745 C730 1.202 . S
O746 U726 2.455 . S
O746 C743 1.301 . S
O747 U726 2.449 . S
O747 C743 1.282 . S
H748 C721 0.931 . S
H749 C723 0.929 . S
H750 C724 0.930 . S
H751 C725 0.931 . S
H752 C732 0.932 . S
H753 C733 0.930 . S
H754 C734 0.929 . S
H755 C736 0.930 . S
H756 C738 0.932 . S
H757 C739 0.929 . S
H758 C740 0.928 . S
H759 C742 0.932 . S
C760 C761 1.264 . S
C760 C765 1.479 . S
C760 C770 1.465 . S
C761 C760 1.264 . S
C761 C763 1.339 . S
C761 H788 0.931 . S
C762 C763 1.395 . S
C762 C764 1.320 . S
C763 C761 1.339 . S
C763 C762 1.395 . S
C763 H789 0.929 . S
C764 C762 1.320 . S
C764 C765 1.405 . S
C764 H790 0.930 . S
C765 C760 1.479 . S
C765 C764 1.405 . S
C765 H791 0.931 . S
U766 O767 2.454 . S
U766 O768 2.458 . S
U766 C769 2.984 . S
U766 C770 2.847 . S
U766 C783 2.882 . S
U766 O784 2.441 . S
U766 O785 2.420 . S
U766 O786 2.455 . S
U766 O787 2.449 . S
O767 U766 2.454 . S
O767 C769 1.353 . S
O768 U766 2.458 . S
O768 C769 1.286 . S
C769 U766 2.984 . S
C769 O767 1.353 . S
C769 O768 1.286 . S
C769 C771 1.363 . S
C770 C760 1.465 . S
C770 U766 2.847 . S
C770 O784 1.249 . S
C770 O785 1.202 . S
C771 C769 1.363 . S
C771 C773 1.408 . S
C771 C776 1.342 . S
C772 C773 1.310 . S
C772 C775 1.461 . S
C772 H792 0.932 . S
C773 C771 1.408 . S
C773 C772 1.310 . S
C773 H793 0.930 . S
C774 C775 1.474 . S
C774 C776 1.285 . S
C774 H794 0.929 . S
C775 C772 1.461 . S
C775 C774 1.474 . S
C776 C771 1.342 . S
C776 C774 1.285 . S
C776 H795 0.930 . S
C777 C780 1.424 . S
C777 C782 1.245 . S
C777 C783 1.428 . S
C778 C781 1.260 . S
C778 C782 1.477 . S
C778 H796 0.932 . S
C779 C780 1.384 . S
C779 C781 1.479 . S
C779 H797 0.929 . S
C780 C777 1.424 . S
C780 C779 1.384 . S
C780 H798 0.928 . S
C781 C778 1.260 . S
C781 C779 1.479 . S
C782 C777 1.245 . S
C782 C778 1.477 . S
C782 H799 0.932 . S
C783 U766 2.882 . S
C783 C777 1.428 . S
C783 O786 1.301 . S
C783 O787 1.282 . S
O784 U766 2.441 . S
O784 C770 1.249 . S
O785 U766 2.420 . S
O785 C770 1.202 . S
O786 U766 2.455 . S
O786 C783 1.301 . S
O787 U766 2.449 . S
O787 C783 1.282 . S
H788 C761 0.931 . S
H789 C763 0.929 . S
H790 C764 0.930 . S
H791 C765 0.931 . S
H792 C772 0.932 . S
H793 C773 0.930 . S
H794 C774 0.929 . S
H795 C776 0.930 . S
H796 C778 0.932 . S
H797 C779 0.929 . S
H798 C780 0.928 . S
H799 C782 0.932 . S
C800 C801 1.264 . S
C800 C805 1.479 . S
C800 C810 1.465 . S
C801 C800 1.264 . S
C801 C803 1.339 . S
C801 H828 0.931 . S
C802 C803 1.395 . S
C802 C804 1.320 . S
C803 C801 1.339 . S
C803 C802 1.395 . S
C803 H829 0.929 . S
C804 C802 1.320 . S
C804 C805 1.405 . S
C804 H830 0.930 . S
C805 C800 1.479 . S
C805 C804 1.405 . S
C805 H831 0.931 . S
U806 O807 2.454 . S
U806 O808 2.458 . S
U806 C809 2.984 . S
U806 C810 2.847 . S
U806 C823 2.882 . S
U806 O824 2.441 . S
U806 O825 2.420 . S
U806 O826 2.455 . S
U806 O827 2.449 . S
O807 U806 2.454 . S
O807 C809 1.353 . S
O808 U806 2.458 . S
O808 C809 1.286 . S
C809 U806 2.984 . S
C809 O807 1.353 . S
C809 O808 1.286 . S
C809 C811 1.363 . S
C810 C800 1.465 . S
C810 U806 2.847 . S
C810 O824 1.249 . S
C810 O825 1.202 . S
C811 C809 1.363 . S
C811 C813 1.408 . S
C811 C816 1.342 . S
C812 C813 1.310 . S
C812 C815 1.461 . S
C812 H832 0.932 . S
C813 C811 1.408 . S
C813 C812 1.310 . S
C813 H833 0.930 . S
C814 C815 1.474 . S
C814 C816 1.285 . S
C814 H834 0.929 . S
C815 C812 1.461 . S
C815 C814 1.474 . S
C816 C811 1.342 . S
C816 C814 1.285 . S
C816 H835 0.930 . S
C817 C820 1.424 . S
C817 C822 1.245 . S
C817 C823 1.428 . S
C818 C821 1.260 . S
C818 C822 1.477 . S
C818 H836 0.932 . S
C819 C820 1.384 . S
C819 C821 1.479 . S
C819 H837 0.929 . S
C820 C817 1.424 . S
C820 C819 1.384 . S
C820 H838 0.928 . S
C821 C818 1.260 . S
C821 C819 1.479 . S
C822 C817 1.245 . S
C822 C818 1.477 . S
C822 H839 0.932 . S
C823 U806 2.882 . S
C823 C817 1.428 . S
C823 O826 1.301 . S
C823 O827 1.282 . S
O824 U806 2.441 . S
O824 C810 1.249 . S
O825 U806 2.420 . S
O825 C810 1.202 . S
O826 U806 2.455 . S
O826 C823 1.301 . S
O827 U806 2.449 . S
O827 C823 1.282 . S
H828 C801 0.931 . S
H829 C803 0.929 . S
H830 C804 0.930 . S
H831 C805 0.931 . S
H832 C812 0.932 . S
H833 C813 0.930 . S
H834 C814 0.929 . S
H835 C816 0.930 . S
H836 C818 0.932 . S
H837 C819 0.929 . S
H838 C820 0.928 . S
H839 C822 0.932 . S
C840 C841 1.264 . S
C840 C845 1.479 . S
C840 C850 1.465 . S
C841 C840 1.264 . S
C841 C843 1.339 . S
C841 H868 0.931 . S
C842 C843 1.395 . S
C842 C844 1.320 . S
C843 C841 1.339 . S
C843 C842 1.395 . S
C843 H869 0.929 . S
C844 C842 1.320 . S
C844 C845 1.405 . S
C844 H870 0.930 . S
C845 C840 1.479 . S
C845 C844 1.405 . S
C845 H871 0.931 . S
U846 O847 2.454 . S
U846 O848 2.458 . S
U846 C849 2.984 . S
U846 C850 2.847 . S
U846 C863 2.882 . S
U846 O864 2.441 . S
U846 O865 2.420 . S
U846 O866 2.455 . S
U846 O867 2.449 . S
O847 U846 2.454 . S
O847 C849 1.353 . S
O848 U846 2.458 . S
O848 C849 1.286 . S
C849 U846 2.984 . S
C849 O847 1.353 . S
C849 O848 1.286 . S
C849 C851 1.363 . S
C850 C840 1.465 . S
C850 U846 2.847 . S
C850 O864 1.249 . S
C850 O865 1.202 . S
C851 C849 1.363 . S
C851 C853 1.408 . S
C851 C856 1.342 . S
C852 C853 1.310 . S
C852 C855 1.461 . S
C852 H872 0.932 . S
C853 C851 1.408 . S
C853 C852 1.310 . S
C853 H873 0.930 . S
C854 C855 1.474 . S
C854 C856 1.285 . S
C854 H874 0.929 . S
C855 C852 1.461 . S
C855 C854 1.474 . S
C856 C851 1.342 . S
C856 C854 1.285 . S
C856 H875 0.930 . S
C857 C860 1.424 . S
C857 C862 1.245 . S
C857 C863 1.428 . S
C858 C861 1.260 . S
C858 C862 1.477 . S
C858 H876 0.932 . S
C859 C860 1.384 . S
C859 C861 1.479 . S
C859 H877 0.929 . S
C860 C857 1.424 . S
C860 C859 1.384 . S
C860 H878 0.928 . S
C861 C858 1.260 . S
C861 C859 1.479 . S
C862 C857 1.245 . S
C862 C858 1.477 . S
C862 H879 0.932 . S
C863 U846 2.882 . S
C863 C857 1.428 . S
C863 O866 1.301 . S
C863 O867 1.282 . S
O864 U846 2.441 . S
O864 C850 1.249 . S
O865 U846 2.420 . S
O865 C850 1.202 . S
O866 U846 2.455 . S
O866 C863 1.301 . S
O867 U846 2.449 . S
O867 C863 1.282 . S
H868 C841 0.931 . S
H869 C843 0.929 . S
H870 C844 0.930 . S
H871 C845 0.931 . S
H872 C852 0.932 . S
H873 C853 0.930 . S
H874 C854 0.929 . S
H875 C856 0.930 . S
H876 C858 0.932 . S
H877 C859 0.929 . S
H878 C860 0.928 . S
H879 C862 0.932 . S
C880 C881 1.264 . S
C880 C885 1.479 . S
C880 C890 1.465 . S
C881 C880 1.264 . S
C881 C883 1.339 . S
C881 H908 0.931 . S
C882 C883 1.395 . S
C882 C884 1.320 . S
C883 C881 1.339 . S
C883 C882 1.395 . S
C883 H909 0.929 . S
C884 C882 1.320 . S
C884 C885 1.405 . S
C884 H910 0.930 . S
C885 C880 1.479 . S
C885 C884 1.405 . S
C885 H911 0.931 . S
U886 O887 2.454 . S
U886 O888 2.458 . S
U886 C889 2.984 . S
U886 C890 2.847 . S
U886 C903 2.882 . S
U886 O904 2.441 . S
U886 O905 2.420 . S
U886 O906 2.455 . S
U886 O907 2.449 . S
O887 U886 2.454 . S
O887 C889 1.353 . S
O888 U886 2.458 . S
O888 C889 1.286 . S
C889 U886 2.984 . S
C889 O887 1.353 . S
C889 O888 1.286 . S
C889 C891 1.363 . S
C890 C880 1.465 . S
C890 U886 2.847 . S
C890 O904 1.249 . S
C890 O905 1.202 . S
C891 C889 1.363 . S
C891 C893 1.408 . S
C891 C896 1.342 . S
C892 C893 1.310 . S
C892 C895 1.461 . S
C892 H912 0.932 . S
C893 C891 1.408 . S
C893 C892 1.310 . S
C893 H913 0.930 . S
C894 C895 1.474 . S
C894 C896 1.285 . S
C894 H914 0.929 . S
C895 C892 1.461 . S
C895 C894 1.474 . S
C896 C891 1.342 . S
C896 C894 1.285 . S
C896 H915 0.930 . S
C897 C900 1.424 . S
C897 C902 1.245 . S
C897 C903 1.428 . S
C898 C901 1.260 . S
C898 C902 1.477 . S
C898 H916 0.932 . S
C899 C900 1.384 . S
C899 C901 1.479 . S
C899 H917 0.929 . S
C900 C897 1.424 . S
C900 C899 1.384 . S
C900 H918 0.928 . S
C901 C898 1.260 . S
C901 C899 1.479 . S
C902 C897 1.245 . S
C902 C898 1.477 . S
C902 H919 0.932 . S
C903 U886 2.882 . S
C903 C897 1.428 . S
C903 O906 1.301 . S
C903 O907 1.282 . S
O904 U886 2.441 . S
O904 C890 1.249 . S
O905 U886 2.420 . S
O905 C890 1.202 . S
O906 U886 2.455 . S
O906 C903 1.301 . S
O907 U886 2.449 . S
O907 C903 1.282 . S
H908 C881 0.931 . S
H909 C883 0.929 . S
H910 C884 0.930 . S
H911 C885 0.931 . S
H912 C892 0.932 . S
H913 C893 0.930 . S
H914 C894 0.929 . S
H915 C896 0.930 . S
H916 C898 0.932 . S
H917 C899 0.929 . S
H918 C900 0.928 . S
H919 C902 0.932 . S
C920 C921 1.264 . S
C920 C925 1.479 . S
C920 C930 1.465 . S
C921 C920 1.264 . S
C921 C923 1.339 . S
C921 H948 0.931 . S
C922 C923 1.395 . S
C922 C924 1.320 . S
C923 C921 1.339 . S
C923 C922 1.395 . S
C923 H949 0.929 . S
C924 C922 1.320 . S
C924 C925 1.405 . S
C924 H950 0.930 . S
C925 C920 1.479 . S
C925 C924 1.405 . S
C925 H951 0.931 . S
U926 O927 2.454 . S
U926 O928 2.458 . S
U926 C929 2.984 . S
U926 C930 2.847 . S
U926 C943 2.882 . S
U926 O944 2.441 . S
U926 O945 2.420 . S
U926 O946 2.455 . S
U926 O947 2.449 . S
O927 U926 2.454 . S
O927 C929 1.353 . S
O928 U926 2.458 . S
O928 C929 1.286 . S
C929 U926 2.984 . S
C929 O927 1.353 . S
C929 O928 1.286 . S
C929 C931 1.363 . S
C930 C920 1.465 . S
C930 U926 2.847 . S
C930 O944 1.249 . S
C930 O945 1.202 . S
C931 C929 1.363 . S
C931 C933 1.408 . S
C931 C936 1.342 . S
C932 C933 1.310 . S
C932 C935 1.461 . S
C932 H952 0.932 . S
C933 C931 1.408 . S
C933 C932 1.310 . S
C933 H953 0.930 . S
C934 C935 1.474 . S
C934 C936 1.285 . S
C934 H954 0.929 . S
C935 C932 1.461 . S
C935 C934 1.474 . S
C936 C931 1.342 . S
C936 C934 1.285 . S
C936 H955 0.930 . S
C937 C940 1.424 . S
C937 C942 1.245 . S
C937 C943 1.428 . S
C938 C941 1.260 . S
C938 C942 1.477 . S
C938 H956 0.932 . S
C939 C940 1.384 . S
C939 C941 1.479 . S
C939 H957 0.929 . S
C940 C937 1.424 . S
C940 C939 1.384 . S
C940 H958 0.928 . S
C941 C938 1.260 . S
C941 C939 1.479 . S
C942 C937 1.245 . S
C942 C938 1.477 . S
C942 H959 0.932 . S
C943 U926 2.882 . S
C943 C937 1.428 . S
C943 O946 1.301 . S
C943 O947 1.282 . S
O944 U926 2.441 . S
O944 C930 1.249 . S
O945 U926 2.420 . S
O945 C930 1.202 . S
O946 U926 2.455 . S
O946 C943 1.301 . S
O947 U926 2.449 . S
O947 C943 1.282 . S
H948 C921 0.931 . S
H949 C923 0.929 . S
H950 C924 0.930 . S
H951 C925 0.931 . S
H952 C932 0.932 . S
H953 C933 0.930 . S
H954 C934 0.929 . S
H955 C936 0.930 . S
H956 C938 0.932 . S
H957 C939 0.929 . S
H958 C940 0.928 . S
H959 C942 0.932 . S
C960 C961 1.264 . S
C960 C965 1.479 . S
C960 C970 1.465 . S
C961 C960 1.264 . S
C961 C963 1.339 . S
C961 H988 0.931 . S
C962 C963 1.395 . S
C962 C964 1.320 . S
C963 C961 1.339 . S
C963 C962 1.395 . S
C963 H989 0.929 . S
C964 C962 1.320 . S
C964 C965 1.405 . S
C964 H990 0.930 . S
C965 C960 1.479 . S
C965 C964 1.405 . S
C965 H991 0.931 . S
U966 O967 2.454 . S
U966 O968 2.458 . S
U966 C969 2.984 . S
U966 C970 2.847 . S
U966 C983 2.882 . S
U966 O984 2.441 . S
U966 O985 2.420 . S
U966 O986 2.455 . S
U966 O987 2.449 . S
O967 U966 2.454 . S
O967 C969 1.353 . S
O968 U966 2.458 . S
O968 C969 1.286 . S
C969 U966 2.984 . S
C969 O967 1.353 . S
C969 O968 1.286 . S
C969 C971 1.363 . S
C970 C960 1.465 . S
C970 U966 2.847 . S
C970 O984 1.249 . S
C970 O985 1.202 . S
C971 C969 1.363 . S
C971 C973 1.408 . S
C971 C976 1.342 . S
C972 C973 1.310 . S
C972 C975 1.461 . S
C972 H992 0.932 . S
C973 C971 1.408 . S
C973 C972 1.310 . S
C973 H993 0.930 . S
C974 C975 1.474 . S
C974 C976 1.285 . S
C974 H994 0.929 . S
C975 C972 1.461 . S
C975 C974 1.474 . S
C976 C971 1.342 . S
C976 C974 1.285 . S
C976 H995 0.930 . S
C977 C980 1.424 . S
C977 C982 1.245 . S
C977 C983 1.428 . S
C978 C981 1.260 . S
C978 C982 1.477 . S
C978 H996 0.932 . S
C979 C980 1.384 . S
C979 C981 1.479 . S
C979 H997 0.929 . S
C980 C977 1.424 . S
C980 C979 1.384 . S
C980 H998 0.928 . S
C981 C978 1.260 . S
C981 C979 1.479 . S
C982 C977 1.245 . S
C982 C978 1.477 . S
C982 H999 0.932 . S
C983 U966 2.882 . S
C983 C977 1.428 . S
C983 O986 1.301 . S
C983 O987 1.282 . S
O984 U966 2.441 . S
O984 C970 1.249 . S
O985 U966 2.420 . S
O985 C970 1.202 . S
O986 U966 2.455 . S
O986 C983 1.301 . S
O987 U966 2.449 . S
O987 C983 1.282 . S
H988 C961 0.931 . S
H989 C963 0.929 . S
H990 C964 0.930 . S
H991 C965 0.931 . S
H992 C972 0.932 . S
H993 C973 0.930 . S
H994 C974 0.929 . S
H995 C976 0.930 . S
H996 C978 0.932 . S
H997 C979 0.929 . S
H998 C980 0.928 . S
H999 C982 0.932 . S
C1000 C1001 1.264 . S
C1000 C1005 1.479 . S
C1000 C1010 1.465 . S
C1001 C1000 1.264 . S
C1001 C1003 1.339 . S
C1001 H1028 0.931 . S
C1002 C1003 1.395 . S
C1002 C1004 1.320 . S
C1003 C1001 1.339 . S
C1003 C1002 1.395 . S
C1003 H1029 0.929 . S
C1004 C1002 1.320 . S
C1004 C1005 1.405 . S
C1004 H1030 0.930 . S
C1005 C1000 1.479 . S
C1005 C1004 1.405 . S
C1005 H1031 0.931 . S
U1006 O1007 2.454 . S
U1006 O1008 2.458 . S
U1006 C1009 2.984 . S
U1006 C1010 2.847 . S
U1006 C1023 2.882 . S
U1006 O1024 2.441 . S
U1006 O1025 2.420 . S
U1006 O1026 2.455 . S
U1006 O1027 2.449 . S
O1007 U1006 2.454 . S
O1007 C1009 1.353 . S
O1008 U1006 2.458 . S
O1008 C1009 1.286 . S
C1009 U1006 2.984 . S
C1009 O1007 1.353 . S
C1009 O1008 1.286 . S
C1009 C1011 1.363 . S
C1010 C1000 1.465 . S
C1010 U1006 2.847 . S
C1010 O1024 1.249 . S
C1010 O1025 1.202 . S
C1011 C1009 1.363 . S
C1011 C1013 1.408 . S
C1011 C1016 1.342 . S
C1012 C1013 1.310 . S
C1012 C1015 1.461 . S
C1012 H1032 0.932 . S
C1013 C1011 1.408 . S
C1013 C1012 1.310 . S
C1013 H1033 0.930 . S
C1014 C1015 1.474 . S
C1014 C1016 1.285 . S
C1014 H1034 0.929 . S
C1015 C1012 1.461 . S
C1015 C1014 1.474 . S
C1016 C1011 1.342 . S
C1016 C1014 1.285 . S
C1016 H1035 0.930 . S
C1017 C1020 1.424 . S
C1017 C1022 1.245 . S
C1017 C1023 1.428 . S
C1018 C1021 1.260 . S
C1018 C1022 1.477 . S
C1018 H1036 0.932 . S
C1019 C1020 1.384 . S
C1019 C1021 1.479 . S
C1019 H1037 0.929 . S
C1020 C1017 1.424 . S
C1020 C1019 1.384 . S
C1020 H1038 0.928 . S
C1021 C1018 1.260 . S
C1021 C1019 1.479 . S
C1022 C1017 1.245 . S
C1022 C1018 1.477 . S
C1022 H1039 0.932 . S
C1023 U1006 2.882 . S
C1023 C1017 1.428 . S
C1023 O1026 1.301 . S
C1023 O1027 1.282 . S
O1024 U1006 2.441 . S
O1024 C1010 1.249 . S
O1025 U1006 2.420 . S
O1025 C1010 1.202 . S
O1026 U1006 2.455 . S
O1026 C1023 1.301 . S
O1027 U1006 2.449 . S
O1027 C1023 1.282 . S
H1028 C1001 0.931 . S
H1029 C1003 0.929 . S
H1030 C1004 0.930 . S
H1031 C1005 0.931 . S
H1032 C1012 0.932 . S
H1033 C1013 0.930 . S
H1034 C1014 0.929 . S
H1035 C1016 0.930 . S
H1036 C1018 0.932 . S
H1037 C1019 0.929 . S
H1038 C1020 0.928 . S
H1039 C1022 0.932 . S
C1040 C1041 1.264 . S
C1040 C1045 1.479 . S
C1040 C1050 1.465 . S
C1041 C1040 1.264 . S
C1041 C1043 1.339 . S
C1041 H1068 0.931 . S
C1042 C1043 1.395 . S
C1042 C1044 1.320 . S
C1043 C1041 1.339 . S
C1043 C1042 1.395 . S
C1043 H1069 0.929 . S
C1044 C1042 1.320 . S
C1044 C1045 1.405 . S
C1044 H1070 0.930 . S
C1045 C1040 1.479 . S
C1045 C1044 1.405 . S
C1045 H1071 0.931 . S
U1046 O1047 2.454 . S
U1046 O1048 2.458 . S
U1046 C1049 2.984 . S
U1046 C1050 2.847 . S
U1046 C1063 2.882 . S
U1046 O1064 2.441 . S
U1046 O1065 2.420 . S
U1046 O1066 2.455 . S
U1046 O1067 2.449 . S
O1047 U1046 2.454 . S
O1047 C1049 1.353 . S
O1048 U1046 2.458 . S
O1048 C1049 1.286 . S
C1049 U1046 2.984 . S
C1049 O1047 1.353 . S
C1049 O1048 1.286 . S
C1049 C1051 1.363 . S
C1050 C1040 1.465 . S
C1050 U1046 2.847 . S
C1050 O1064 1.249 . S
C1050 O1065 1.202 . S
C1051 C1049 1.363 . S
C1051 C1053 1.408 . S
C1051 C1056 1.342 . S
C1052 C1053 1.310 . S
C1052 C1055 1.461 . S
C1052 H1072 0.932 . S
C1053 C1051 1.408 . S
C1053 C1052 1.310 . S
C1053 H1073 0.930 . S
C1054 C1055 1.474 . S
C1054 C1056 1.285 . S
C1054 H1074 0.929 . S
C1055 C1052 1.461 . S
C1055 C1054 1.474 . S
C1056 C1051 1.342 . S
C1056 C1054 1.285 . S
C1056 H1075 0.930 . S
C1057 C1060 1.424 . S
C1057 C1062 1.245 . S
C1057 C1063 1.428 . S
C1058 C1061 1.260 . S
C1058 C1062 1.477 . S
C1058 H1076 0.932 . S
C1059 C1060 1.384 . S
C1059 C1061 1.479 . S
C1059 H1077 0.929 . S
C1060 C1057 1.424 . S
C1060 C1059 1.384 . S
C1060 H1078 0.928 . S
C1061 C1058 1.260 . S
C1061 C1059 1.479 . S
C1062 C1057 1.245 . S
C1062 C1058 1.477 . S
C1062 H1079 0.932 . S
C1063 U1046 2.882 . S
C1063 C1057 1.428 . S
C1063 O1066 1.301 . S
C1063 O1067 1.282 . S
O1064 U1046 2.441 . S
O1064 C1050 1.249 . S
O1065 U1046 2.420 . S
O1065 C1050 1.202 . S
O1066 U1046 2.455 . S
O1066 C1063 1.301 . S
O1067 U1046 2.449 . S
O1067 C1063 1.282 . S
H1068 C1041 0.931 . S
H1069 C1043 0.929 . S
H1070 C1044 0.930 . S
H1071 C1045 0.931 . S
H1072 C1052 0.932 . S
H1073 C1053 0.930 . S
H1074 C1054 0.929 . S
H1075 C1056 0.930 . S
H1076 C1058 0.932 . S
H1077 C1059 0.929 . S
H1078 C1060 0.928 . S
H1079 C1062 0.932 . S
C1080 C1081 1.264 . S
C1080 C1085 1.479 . S
C1080 C1090 1.465 . S
C1081 C1080 1.264 . S
C1081 C1083 1.339 . S
C1081 H1108 0.931 . S
C1082 C1083 1.395 . S
C1082 C1084 1.320 . S
C1083 C1081 1.339 . S
C1083 C1082 1.395 . S
C1083 H1109 0.929 . S
C1084 C1082 1.320 . S
C1084 C1085 1.405 . S
C1084 H1110 0.930 . S
C1085 C1080 1.479 . S
C1085 C1084 1.405 . S
C1085 H1111 0.931 . S
U1086 O1087 2.454 . S
U1086 O1088 2.458 . S
U1086 C1089 2.984 . S
U1086 C1090 2.847 . S
U1086 C1103 2.882 . S
U1086 O1104 2.441 . S
U1086 O1105 2.420 . S
U1086 O1106 2.455 . S
U1086 O1107 2.449 . S
O1087 U1086 2.454 . S
O1087 C1089 1.353 . S
O1088 U1086 2.458 . S
O1088 C1089 1.286 . S
C1089 U1086 2.984 . S
C1089 O1087 1.353 . S
C1089 O1088 1.286 . S
C1089 C1091 1.363 . S
C1090 C1080 1.465 . S
C1090 U1086 2.847 . S
C1090 O1104 1.249 . S
C1090 O1105 1.202 . S
C1091 C1089 1.363 . S
C1091 C1093 1.408 . S
C1091 C1096 1.342 . S
C1092 C1093 1.310 . S
C1092 C1095 1.461 . S
C1092 H1112 0.932 . S
C1093 C1091 1.408 . S
C1093 C1092 1.310 . S
C1093 H1113 0.930 . S
C1094 C1095 1.474 . S
C1094 C1096 1.285 . S
C1094 H1114 0.929 . S
C1095 C1092 1.461 . S
C1095 C1094 1.474 . S
C1096 C1091 1.342 . S
C1096 C1094 1.285 . S
C1096 H1115 0.930 . S
C1097 C1100 1.424 . S
C1097 C1102 1.245 . S
C1097 C1103 1.428 . S
C1098 C1101 1.260 . S
C1098 C1102 1.477 . S
C1098 H1116 0.932 . S
C1099 C1100 1.384 . S
C1099 C1101 1.479 . S
C1099 H1117 0.929 . S
C1100 C1097 1.424 . S
C1100 C1099 1.384 . S
C1100 H1118 0.928 . S
C1101 C1098 1.260 . S
C1101 C1099 1.479 . S
C1102 C1097 1.245 . S
C1102 C1098 1.477 . S
C1102 H1119 0.932 . S
C1103 U1086 2.882 . S
C1103 C1097 1.428 . S
C1103 O1106 1.301 . S
C1103 O1107 1.282 . S
O1104 U1086 2.441 . S
O1104 C1090 1.249 . S
O1105 U1086 2.420 . S
O1105 C1090 1.202 . S
O1106 U1086 2.455 . S
O1106 C1103 1.301 . S
O1107 U1086 2.449 . S
O1107 C1103 1.282 . S
H1108 C1081 0.931 . S
H1109 C1083 0.929 . S
H1110 C1084 0.930 . S
H1111 C1085 0.931 . S
H1112 C1092 0.932 . S
H1113 C1093 0.930 . S
H1114 C1094 0.929 . S
H1115 C1096 0.930 . S
H1116 C1098 0.932 . S
H1117 C1099 0.929 . S
H1118 C1100 0.928 . S
H1119 C1102 0.932 . S
C1120 C1121 1.264 . S
C1120 C1125 1.479 . S
C1120 C1130 1.465 . S
C1121 C1120 1.264 . S
C1121 C1123 1.339 . S
C1121 H1148 0.931 . S
C1122 C1123 1.395 . S
C1122 C1124 1.320 . S
C1123 C1121 1.339 . S
C1123 C1122 1.395 . S
C1123 H1149 0.929 . S
C1124 C1122 1.320 . S
C1124 C1125 1.405 . S
C1124 H1150 0.930 . S
C1125 C1120 1.479 . S
C1125 C1124 1.405 . S
C1125 H1151 0.931 . S
U1126 O1127 2.454 . S
U1126 O1128 2.458 . S
U1126 C1129 2.984 . S
U1126 C1130 2.847 . S
U1126 C1143 2.882 . S
U1126 O1144 2.441 . S
U1126 O1145 2.420 . S
U1126 O1146 2.455 . S
U1126 O1147 2.449 . S
O1127 U1126 2.454 . S
O1127 C1129 1.353 . S
O1128 U1126 2.458 . S
O1128 C1129 1.286 . S
C1129 U1126 2.984 . S
C1129 O1127 1.353 . S
C1129 O1128 1.286 . S
C1129 C1131 1.363 . S
C1130 C1120 1.465 . S
C1130 U1126 2.847 . S
C1130 O1144 1.249 . S
C1130 O1145 1.202 . S
C1131 C1129 1.363 . S
C1131 C1133 1.408 . S
C1131 C1136 1.342 . S
C1132 C1133 1.310 . S
C1132 C1135 1.461 . S
C1132 H1152 0.932 . S
C1133 C1131 1.408 . S
C1133 C1132 1.310 . S
C1133 H1153 0.930 . S
C1134 C1135 1.474 . S
C1134 C1136 1.285 . S
C1134 H1154 0.929 . S
C1135 C1132 1.461 . S
C1135 C1134 1.474 . S
C1136 C1131 1.342 . S
C1136 C1134 1.285 . S
C1136 H1155 0.930 . S
C1137 C1140 1.424 . S
C1137 C1142 1.245 . S
C1137 C1143 1.428 . S
C1138 C1141 1.260 . S
C1138 C1142 1.477 . S
C1138 H1156 0.932 . S
C1139 C1140 1.384 . S
C1139 C1141 1.479 . S
C1139 H1157 0.929 . S
C1140 C1137 1.424 . S
C1140 C1139 1.384 . S
C1140 H1158 0.928 . S
C1141 C1138 1.260 . S
C1141 C1139 1.479 . S
C1142 C1137 1.245 . S
C1142 C1138 1.477 . S
C1142 H1159 0.932 . S
C1143 U1126 2.882 . S
C1143 C1137 1.428 . S
C1143 O1146 1.301 . S
C1143 O1147 1.282 . S
O1144 U1126 2.441 . S
O1144 C1130 1.249 . S
O1145 U1126 2.420 . S
O1145 C1130 1.202 . S
O1146 U1126 2.455 . S
O1146 C1143 1.301 . S
O1147 U1126 2.449 . S
O1147 C1143 1.282 . S
H1148 C1121 0.931 . S
H1149 C1123 0.929 . S
H1150 C1124 0.930 . S
H1151 C1125 0.931 . S
H1152 C1132 0.932 . S
H1153 C1133 0.930 . S
H1154 C1134 0.929 . S
H1155 C1136 0.930 . S
H1156 C1138 0.932 . S
H1157 C1139 0.929 . S
H1158 C1140 0.928 . S
H1159 C1142 0.932 . S
C1160 C1161 1.264 . S
C1160 C1165 1.479 . S
C1160 C1170 1.465 . S
C1161 C1160 1.264 . S
C1161 C1163 1.339 . S
C1161 H1188 0.931 . S
C1162 C1163 1.395 . S
C1162 C1164 1.320 . S
C1163 C1161 1.339 . S
C1163 C1162 1.395 . S
C1163 H1189 0.929 . S
C1164 C1162 1.320 . S
C1164 C1165 1.405 . S
C1164 H1190 0.930 . S
C1165 C1160 1.479 . S
C1165 C1164 1.405 . S
C1165 H1191 0.931 . S
U1166 O1167 2.454 . S
U1166 O1168 2.458 . S
U1166 C1169 2.984 . S
U1166 C1170 2.847 . S
U1166 C1183 2.882 . S
U1166 O1184 2.441 . S
U1166 O1185 2.420 . S
U1166 O1186 2.455 . S
U1166 O1187 2.449 . S
O1167 U1166 2.454 . S
O1167 C1169 1.353 . S
O1168 U1166 2.458 . S
O1168 C1169 1.286 . S
C1169 U1166 2.984 . S
C1169 O1167 1.353 . S
C1169 O1168 1.286 . S
C1169 C1171 1.363 . S
C1170 C1160 1.465 . S
C1170 U1166 2.847 . S
C1170 O1184 1.249 . S
C1170 O1185 1.202 . S
C1171 C1169 1.363 . S
C1171 C1173 1.408 . S
C1171 C1176 1.342 . S
C1172 C1173 1.310 . S
C1172 C1175 1.461 . S
C1172 H1192 0.932 . S
C1173 C1171 1.408 . S
C1173 C1172 1.310 . S
C1173 H1193 0.930 . S
C1174 C1175 1.474 . S
C1174 C1176 1.285 . S
C1174 H1194 0.929 . S
C1175 C1172 1.461 . S
C1175 C1174 1.474 . S
C1176 C1171 1.342 . S
C1176 C1174 1.285 . S
C1176 H1195 0.930 . S
C1177 C1180 1.424 . S
C1177 C1182 1.245 . S
C1177 C1183 1.428 . S
C1178 C1181 1.260 . S
C1178 C1182 1.477 . S
C1178 H1196 0.932 . S
C1179 C1180 1.384 . S
C1179 C1181 1.479 . S
C1179 H1197 0.929 . S
C1180 C1177 1.424 . S
C1180 C1179 1.384 . S
C1180 H1198 0.928 . S
C1181 C1178 1.260 . S
C1181 C1179 1.479 . S
C1182 C1177 1.245 . S
C1182 C1178 1.477 . S
C1182 H1199 0.932 . S
C1183 U1166 2.882 . S
C1183 C1177 1.428 . S
C1183 O1186 1.301 . S
C1183 O1187 1.282 . S
O1184 U1166 2.441 . S
O1184 C1170 1.249 . S
O1185 U1166 2.420 . S
O1185 C1170 1.202 . S
O1186 U1166 2.455 . S
O1186 C1183 1.301 . S
O1187 U1166 2.449 . S
O1187 C1183 1.282 . S
H1188 C1161 0.931 . S
H1189 C1163 0.929 . S
H1190 C1164 0.930 . S
H1191 C1165 0.931 . S
H1192 C1172 0.932 . S
H1193 C1173 0.930 . S
H1194 C1174 0.929 . S
H1195 C1176 0.930 . S
H1196 C1178 0.932 . S
H1197 C1179 0.929 . S
H1198 C1180 0.928 . S
H1199 C1182 0.932 . S
C1200 C1201 1.264 . S
C1200 C1205 1.479 . S
C1200 C1210 1.465 . S
C1201 C1200 1.264 . S
C1201 C1203 1.339 . S
C1201 H1228 0.931 . S
C1202 C1203 1.395 . S
C1202 C1204 1.320 . S
C1203 C1201 1.339 . S
C1203 C1202 1.395 . S
C1203 H1229 0.929 . S
C1204 C1202 1.320 . S
C1204 C1205 1.405 . S
C1204 H1230 0.930 . S
C1205 C1200 1.479 . S
C1205 C1204 1.405 . S
C1205 H1231 0.931 . S
U1206 O1207 2.454 . S
U1206 O1208 2.458 . S
U1206 C1209 2.984 . S
U1206 C1210 2.847 . S
U1206 C1223 2.882 . S
U1206 O1224 2.441 . S
U1206 O1225 2.420 . S
U1206 O1226 2.455 . S
U1206 O1227 2.449 . S
O1207 U1206 2.454 . S
O1207 C1209 1.353 . S
O1208 U1206 2.458 . S
O1208 C1209 1.286 . S
C1209 U1206 2.984 . S
C1209 O1207 1.353 . S
C1209 O1208 1.286 . S
C1209 C1211 1.363 . S
C1210 C1200 1.465 . S
C1210 U1206 2.847 . S
C1210 O1224 1.249 . S
C1210 O1225 1.202 . S
C1211 C1209 1.363 . S
C1211 C1213 1.408 . S
C1211 C1216 1.342 . S
C1212 C1213 1.310 . S
C1212 C1215 1.461 . S
C1212 H1232 0.932 . S
C1213 C1211 1.408 . S
C1213 C1212 1.310 . S
C1213 H1233 0.930 . S
C1214 C1215 1.474 . S
C1214 C1216 1.285 . S
C1214 H1234 0.929 . S
C1215 C1212 1.461 . S
C1215 C1214 1.474 . S
C1216 C1211 1.342 . S
C1216 C1214 1.285 . S
C1216 H1235 0.930 . S
C1217 C1220 1.424 . S
C1217 C1222 1.245 . S
C1217 C1223 1.428 . S
C1218 C1221 1.260 . S
C1218 C1222 1.477 . S
C1218 H1236 0.932 . S
C1219 C1220 1.384 . S
C1219 C1221 1.479 . S
C1219 H1237 0.929 . S
C1220 C1217 1.424 . S
C1220 C1219 1.384 . S
C1220 H1238 0.928 . S
C1221 C1218 1.260 . S
C1221 C1219 1.479 . S
C1222 C1217 1.245 . S
C1222 C1218 1.477 . S
C1222 H1239 0.932 . S
C1223 U1206 2.882 . S
C1223 C1217 1.428 . S
C1223 O1226 1.301 . S
C1223 O1227 1.282 . S
O1224 U1206 2.441 . S
O1224 C1210 1.249 . S
O1225 U1206 2.420 . S
O1225 C1210 1.202 . S
O1226 U1206 2.455 . S
O1226 C1223 1.301 . S
O1227 U1206 2.449 . S
O1227 C1223 1.282 . S
H1228 C1201 0.931 . S
H1229 C1203 0.929 . S
H1230 C1204 0.930 . S
H1231 C1205 0.931 . S
H1232 C1212 0.932 . S
H1233 C1213 0.930 . S
H1234 C1214 0.929 . S
H1235 C1216 0.930 . S
H1236 C1218 0.932 . S
H1237 C1219 0.929 . S
H1238 C1220 0.928 . S
H1239 C1222 0.932 . S
C1240 C1241 1.264 . S
C1240 C1245 1.479 . S
C1240 C1250 1.465 . S
C1241 C1240 1.264 . S
C1241 C1243 1.339 . S
C1241 H1268 0.931 . S
C1242 C1243 1.395 . S
C1242 C1244 1.320 . S
C1243 C1241 1.339 . S
C1243 C1242 1.395 . S
C1243 H1269 0.929 . S
C1244 C1242 1.320 . S
C1244 C1245 1.405 . S
C1244 H1270 0.930 . S
C1245 C1240 1.479 . S
C1245 C1244 1.405 . S
C1245 H1271 0.931 . S
U1246 O1247 2.454 . S
U1246 O1248 2.458 . S
U1246 C1249 2.984 . S
U1246 C1250 2.847 . S
U1246 C1263 2.882 . S
U1246 O1264 2.441 . S
U1246 O1265 2.420 . S
U1246 O1266 2.455 . S
U1246 O1267 2.449 . S
O1247 U1246 2.454 . S
O1247 C1249 1.353 . S
O1248 U1246 2.458 . S
O1248 C1249 1.286 . S
C1249 U1246 2.984 . S
C1249 O1247 1.353 . S
C1249 O1248 1.286 . S
C1249 C1251 1.363 . S
C1250 C1240 1.465 . S
C1250 U1246 2.847 . S
C1250 O1264 1.249 . S
C1250 O1265 1.202 . S
C1251 C1249 1.363 . S
C1251 C1253 1.408 . S
C1251 C1256 1.342 . S
C1252 C1253 1.310 . S
C1252 C1255 1.461 . S
C1252 H1272 0.932 . S
C1253 C1251 1.408 . S
C1253 C1252 1.310 . S
C1253 H1273 0.930 . S
C1254 C1255 1.474 . S
C1254 C1256 1.285 . S
C1254 H1274 0.929 . S
C1255 C1252 1.461 . S
C1255 C1254 1.474 . S
C1256 C1251 1.342 . S
C1256 C1254 1.285 . S
C1256 H1275 0.930 . S
C1257 C1260 1.424 . S
C1257 C1262 1.245 . S
C1257 C1263 1.428 . S
C1258 C1261 1.260 . S
C1258 C1262 1.477 . S
C1258 H1276 0.932 . S
C1259 C1260 1.384 . S
C1259 C1261 1.479 . S
C1259 H1277 0.929 . S
C1260 C1257 1.424 . S
C1260 C1259 1.384 . S
C1260 H1278 0.928 . S
C1261 C1258 1.260 . S
C1261 C1259 1.479 . S
C1262 C1257 1.245 . S
C1262 C1258 1.477 . S
C1262 H1279 0.932 . S
C1263 U1246 2.882 . S
C1263 C1257 1.428 . S
C1263 O1266 1.301 . S
C1263 O1267 1.282 . S
O1264 U1246 2.441 . S
O1264 C1250 1.249 . S
O1265 U1246 2.420 . S
O1265 C1250 1.202 . S
O1266 U1246 2.455 . S
O1266 C1263 1.301 . S
O1267 U1246 2.449 . S
O1267 C1263 1.282 . S
H1268 C1241 0.931 . S
H1269 C1243 0.929 . S
H1270 C1244 0.930 . S
H1271 C1245 0.931 . S
H1272 C1252 0.932 . S
H1273 C1253 0.930 . S
H1274 C1254 0.929 . S
H1275 C1256 0.930 . S
H1276 C1258 0.932 . S
H1277 C1259 0.929 . S
H1278 C1260 0.928 . S
H1279 C1262 0.932 . S
H1280 C1288 0.930 . S
H1281 C1291 0.930 . S
H1282 C1293 0.930 . S
H1283 C1294 0.970 . S
H1284 C1294 0.970 . S
H1285 C1296 0.930 . S
H1286 C1298 0.930 . S
H1287 C1300 0.930 . S
C1288 H1280 0.930 . S
C1288 C1289 1.382 . S
C1288 C1290 1.426 . S
C1289 C1288 1.382 . S
C1289 C1293 1.389 . S
C1290 C1288 1.426 . S
C1290 C1291 1.375 . S
C1290 C1294 1.532 1_556 S
C1291 H1281 0.930 . S
C1291 C1290 1.375 . S
C1291 C1292 1.416 . S
C1292 C1291 1.416 . S
C1292 C1293 1.371 . S
C1293 H1282 0.930 . S
C1293 C1289 1.389 . S
C1293 C1292 1.371 . S
C1294 H1283 0.970 . S
C1294 H1284 0.970 . S
C1294 C1290 1.532 1_554 S
C1294 C1295 1.499 . S
C1295 C1294 1.499 . S
C1295 C1296 1.370 . S
C1295 C1300 1.415 . S
C1296 H1285 0.930 . S
C1296 C1295 1.370 . S
C1296 C1297 1.407 . S
C1297 C1296 1.407 . S
C1297 C1298 1.365 . S
C1298 H1286 0.930 . S
C1298 C1297 1.365 . S
C1298 C1299 1.393 . S
C1299 C1298 1.393 . S
C1299 C1300 1.387 . S
C1300 H1287 0.930 . S
C1300 C1295 1.415 . S
C1300 C1299 1.387 . S
H1301 C1309 0.930 . S
H1302 C1312 0.930 . S
H1303 C1314 0.930 . S
H1304 C1315 0.970 . S
H1305 C1315 0.970 . S
H1306 C1317 0.930 . S
H1307 C1319 0.930 . S
H1308 C1321 0.930 . S
C1309 H1301 0.930 . S
C1309 C1310 1.382 . S
C1309 C1311 1.426 . S
C1310 C1309 1.382 . S
C1310 C1314 1.389 . S
C1311 C1309 1.426 . S
C1311 C1312 1.375 . S
C1311 C1315 1.532 . S
C1312 H1302 0.930 . S
C1312 C1311 1.375 . S
C1312 C1313 1.416 . S
C1313 C1312 1.416 . S
C1313 C1314 1.371 . S
C1314 H1303 0.930 . S
C1314 C1310 1.389 . S
C1314 C1313 1.371 . S
C1315 H1304 0.970 . S
C1315 H1305 0.970 . S
C1315 C1311 1.532 . S
C1315 C1316 1.499 1_554 S
C1316 C1315 1.499 1_556 S
C1316 C1317 1.370 . S
C1316 C1321 1.415 . S
C1317 H1306 0.930 . S
C1317 C1316 1.370 . S
C1317 C1318 1.407 . S
C1318 C1317 1.407 . S
C1318 C1319 1.365 . S
C1319 H1307 0.930 . S
C1319 C1318 1.365 . S
C1319 C1320 1.393 . S
C1320 C1319 1.393 . S
C1320 C1321 1.387 . S
C1321 H1308 0.930 . S
C1321 C1316 1.415 . S
C1321 C1320 1.387 . S
H1322 C1330 0.930 . S
H1323 C1333 0.930 . S
H1324 C1335 0.930 . S
H1325 C1336 0.970 . S
H1326 C1336 0.970 . S
H1327 C1338 0.930 . S
H1328 C1340 0.930 . S
H1329 C1342 0.930 . S
C1330 H1322 0.930 . S
C1330 C1331 1.382 . S
C1330 C1332 1.426 . S
C1331 C1330 1.382 . S
C1331 C1335 1.389 . S
C1332 C1330 1.426 . S
C1332 C1333 1.375 . S
C1332 C1336 1.532 . S
C1333 H1323 0.930 . S
C1333 C1332 1.375 . S
C1333 C1334 1.416 . S
C1334 C1333 1.416 . S
C1334 C1335 1.371 . S
C1335 H1324 0.930 . S
C1335 C1331 1.389 . S
C1335 C1334 1.371 . S
C1336 H1325 0.970 . S
C1336 H1326 0.970 . S
C1336 C1332 1.532 . S
C1336 C1337 1.499 1_554 S
C1337 C1336 1.499 1_556 S
C1337 C1338 1.370 . S
C1337 C1342 1.415 . S
C1338 H1327 0.930 . S
C1338 C1337 1.370 . S
C1338 C1339 1.407 . S
C1339 C1338 1.407 . S
C1339 C1340 1.365 . S
C1340 H1328 0.930 . S
C1340 C1339 1.365 . S
C1340 C1341 1.393 . S
C1341 C1340 1.393 . S
C1341 C1342 1.387 . S
C1342 H1329 0.930 . S
C1342 C1337 1.415 . S
C1342 C1341 1.387 . S
H1343 C1351 0.930 . S
H1344 C1354 0.930 . S
H1345 C1356 0.930 . S
H1346 C1357 0.970 . S
H1347 C1357 0.970 . S
H1348 C1359 0.930 . S
H1349 C1361 0.930 . S
H1350 C1363 0.930 . S
C1351 H1343 0.930 . S
C1351 C1352 1.382 . S
C1351 C1353 1.426 . S
C1352 C1351 1.382 . S
C1352 C1356 1.389 . S
C1353 C1351 1.426 . S
C1353 C1354 1.375 . S
C1353 C1357 1.532 . S
C1354 H1344 0.930 . S
C1354 C1353 1.375 . S
C1354 C1355 1.416 . S
C1355 C1354 1.416 . S
C1355 C1356 1.371 . S
C1356 H1345 0.930 . S
C1356 C1352 1.389 . S
C1356 C1355 1.371 . S
C1357 H1346 0.970 . S
C1357 H1347 0.970 . S
C1357 C1353 1.532 . S
C1357 C1358 1.499 1_554 S
C1358 C1357 1.499 1_556 S
C1358 C1359 1.370 . S
C1358 C1363 1.415 . S
C1359 H1348 0.930 . S
C1359 C1358 1.370 . S
C1359 C1360 1.407 . S
C1360 C1359 1.407 . S
C1360 C1361 1.365 . S
C1361 H1349 0.930 . S
C1361 C1360 1.365 . S
C1361 C1362 1.393 . S
C1362 C1361 1.393 . S
C1362 C1363 1.387 . S
C1363 H1350 0.930 . S
C1363 C1358 1.415 . S
C1363 C1362 1.387 . S
H1364 C1372 0.930 . S
H1365 C1375 0.930 . S
H1366 C1377 0.930 . S
H1367 C1378 0.970 . S
H1368 C1378 0.970 . S
H1369 C1380 0.930 . S
H1370 C1382 0.930 . S
H1371 C1384 0.930 . S
C1372 H1364 0.930 . S
C1372 C1373 1.382 . S
C1372 C1374 1.426 . S
C1373 C1372 1.382 . S
C1373 C1377 1.389 . S
C1374 C1372 1.426 . S
C1374 C1375 1.375 . S
C1374 C1378 1.532 . S
C1375 H1365 0.930 . S
C1375 C1374 1.375 . S
C1375 C1376 1.416 . S
C1376 C1375 1.416 . S
C1376 C1377 1.371 . S
C1377 H1366 0.930 . S
C1377 C1373 1.389 . S
C1377 C1376 1.371 . S
C1378 H1367 0.970 . S
C1378 H1368 0.970 . S
C1378 C1374 1.532 . S
C1378 C1379 1.499 1_455 S
C1379 C1378 1.499 1_655 S
C1379 C1380 1.370 . S
C1379 C1384 1.415 . S
C1380 H1369 0.930 . S
C1380 C1379 1.370 . S
C1380 C1381 1.407 . S
C1381 C1380 1.407 . S
C1381 C1382 1.365 . S
C1382 H1370 0.930 . S
C1382 C1381 1.365 . S
C1382 C1383 1.393 . S
C1383 C1382 1.393 . S
C1383 C1384 1.387 . S
C1384 H1371 0.930 . S
C1384 C1379 1.415 . S
C1384 C1383 1.387 . S
H1385 C1393 0.930 . S
H1386 C1396 0.930 . S
H1387 C1398 0.930 . S
H1388 C1399 0.970 . S
H1389 C1399 0.970 1_565 S
H1390 C1401 0.930 . S
H1391 C1403 0.930 . S
H1392 C1405 0.930 . S
C1393 H1385 0.930 . S
C1393 C1394 1.382 . S
C1393 C1395 1.426 . S
C1394 C1393 1.382 . S
C1394 C1398 1.389 . S
C1395 C1393 1.426 . S
C1395 C1396 1.375 . S
C1395 C1399 1.528 . S
C1396 H1386 0.930 . S
C1396 C1395 1.375 . S
C1396 C1397 1.416 . S
C1397 C1396 1.416 . S
C1397 C1398 1.371 . S
C1398 H1387 0.930 . S
C1398 C1394 1.389 . S
C1398 C1397 1.371 . S
C1399 H1388 0.970 . S
C1399 H1389 0.970 1_545 S
C1399 C1395 1.528 . S
C1399 C1400 1.503 1_545 S
C1400 C1399 1.503 1_565 S
C1400 C1401 1.370 . S
C1400 C1405 1.415 . S
C1401 H1390 0.930 . S
C1401 C1400 1.370 . S
C1401 C1402 1.407 . S
C1402 C1401 1.407 . S
C1402 C1403 1.365 . S
C1403 H1391 0.930 . S
C1403 C1402 1.365 . S
C1403 C1404 1.393 . S
C1404 C1403 1.393 . S
C1404 C1405 1.387 . S
C1405 H1392 0.930 . S
C1405 C1400 1.415 . S
C1405 C1404 1.387 . S
H1406 C1414 0.930 . S
H1407 C1417 0.930 . S
H1408 C1419 0.930 . S
H1409 C1420 0.970 . S
H1410 C1420 0.970 . S
H1411 C1422 0.930 . S
H1412 C1424 0.930 . S
H1413 C1426 0.930 . S
C1414 H1406 0.930 . S
C1414 C1415 1.382 . S
C1414 C1416 1.426 . S
C1415 C1414 1.382 . S
C1415 C1419 1.389 . S
C1416 C1414 1.426 . S
C1416 C1417 1.375 . S
C1416 C1420 1.533 . S
C1417 H1407 0.930 . S
C1417 C1416 1.375 . S
C1417 C1418 1.416 . S
C1418 C1417 1.416 . S
C1418 C1419 1.371 . S
C1419 H1408 0.930 . S
C1419 C1415 1.389 . S
C1419 C1418 1.371 . S
C1420 H1409 0.970 . S
C1420 H1410 0.970 . S
C1420 C1416 1.533 . S
C1420 C1421 1.498 1_655 S
C1421 C1420 1.498 1_455 S
C1421 C1422 1.370 . S
C1421 C1426 1.415 . S
C1422 H1411 0.930 . S
C1422 C1421 1.370 . S
C1422 C1423 1.407 . S
C1423 C1422 1.407 . S
C1423 C1424 1.365 . S
C1424 H1412 0.930 . S
C1424 C1423 1.365 . S
C1424 C1425 1.393 . S
C1425 C1424 1.393 . S
C1425 C1426 1.387 . S
C1426 H1413 0.930 . S
C1426 C1421 1.415 . S
C1426 C1425 1.387 . S
H1427 C1435 0.930 . S
H1428 C1438 0.930 . S
H1429 C1440 0.930 . S
H1430 C1441 0.970 . S
H1431 C1441 0.970 . S
H1432 C1443 0.930 . S
H1433 C1445 0.930 . S
H1434 C1447 0.930 . S
C1435 H1427 0.930 . S
C1435 C1436 1.382 . S
C1435 C1437 1.426 . S
C1436 C1435 1.382 . S
C1436 C1440 1.389 . S
C1437 C1435 1.426 . S
C1437 C1438 1.375 . S
C1437 C1441 1.532 1_565 S
C1438 H1428 0.930 . S
C1438 C1437 1.375 . S
C1438 C1439 1.416 . S
C1439 C1438 1.416 . S
C1439 C1440 1.371 . S
C1440 H1429 0.930 . S
C1440 C1436 1.389 . S
C1440 C1439 1.371 . S
C1441 H1430 0.970 . S
C1441 H1431 0.970 . S
C1441 C1437 1.532 1_545 S
C1441 C1442 1.499 . S
C1442 C1441 1.499 . S
C1442 C1443 1.370 . S
C1442 C1447 1.415 . S
C1443 H1432 0.930 . S
C1443 C1442 1.370 . S
C1443 C1444 1.407 . S
C1444 C1443 1.407 . S
C1444 C1445 1.365 . S
C1445 H1433 0.930 . S
C1445 C1444 1.365 . S
C1445 C1446 1.393 . S
C1446 C1445 1.393 . S
C1446 C1447 1.387 . S
C1447 H1434 0.930 . S
C1447 C1442 1.415 . S
C1447 C1446 1.387 . S
H1448 C1456 0.930 . S
H1449 C1459 0.930 . S
H1450 C1461 0.930 . S
H1451 C1462 0.970 . S
H1452 C1462 0.970 . S
H1453 C1464 0.930 . S
H1454 C1466 0.930 . S
H1455 C1468 0.930 . S
C1456 H1448 0.930 . S
C1456 C1457 1.382 . S
C1456 C1458 1.426 . S
C1457 C1456 1.382 . S
C1457 C1461 1.389 . S
C1458 C1456 1.426 . S
C1458 C1459 1.375 . S
C1458 C1462 1.532 1_655 S
C1459 H1449 0.930 . S
C1459 C1458 1.375 . S
C1459 C1460 1.416 . S
C1460 C1459 1.416 . S
C1460 C1461 1.371 . S
C1461 H1450 0.930 . S
C1461 C1457 1.389 . S
C1461 C1460 1.371 . S
C1462 H1451 0.970 . S
C1462 H1452 0.970 . S
C1462 C1458 1.532 1_455 S
C1462 C1463 1.499 . S
C1463 C1462 1.499 . S
C1463 C1464 1.370 . S
C1463 C1468 1.415 . S
C1464 H1453 0.930 . S
C1464 C1463 1.370 . S
C1464 C1465 1.407 . S
C1465 C1464 1.407 . S
C1465 C1466 1.365 . S
C1466 H1454 0.930 . S
C1466 C1465 1.365 . S
C1466 C1467 1.393 . S
C1467 C1466 1.393 . S
C1467 C1468 1.387 . S
C1468 H1455 0.930 . S
C1468 C1463 1.415 . S
C1468 C1467 1.387 . S
H1469 C1477 0.930 . S
H1470 C1480 0.930 . S
H1471 C1482 0.930 . S
H1472 C1483 0.970 . S
H1473 C1483 0.970 . S
H1474 C1485 0.930 . S
H1475 C1487 0.930 . S
H1476 C1489 0.930 . S
C1477 H1469 0.930 . S
C1477 C1478 1.382 . S
C1477 C1479 1.426 . S
C1478 C1477 1.382 . S
C1478 C1482 1.389 . S
C1479 C1477 1.426 . S
C1479 C1480 1.375 . S
C1479 C1483 1.532 1_565 S
C1480 H1470 0.930 . S
C1480 C1479 1.375 . S
C1480 C1481 1.416 . S
C1481 C1480 1.416 . S
C1481 C1482 1.371 . S
C1482 H1471 0.930 . S
C1482 C1478 1.389 . S
C1482 C1481 1.371 . S
C1483 H1472 0.970 . S
C1483 H1473 0.970 . S
C1483 C1479 1.532 1_545 S
C1483 C1484 1.499 . S
C1484 C1483 1.499 . S
C1484 C1485 1.370 . S
C1484 C1489 1.415 . S
C1485 H1474 0.930 . S
C1485 C1484 1.370 . S
C1485 C1486 1.407 . S
C1486 C1485 1.407 . S
C1486 C1487 1.365 . S
C1487 H1475 0.930 . S
C1487 C1486 1.365 . S
C1487 C1488 1.393 . S
C1488 C1487 1.393 . S
C1488 C1489 1.387 . S
C1489 H1476 0.930 . S
C1489 C1484 1.415 . S
C1489 C1488 1.387 . S
H1490 C1498 0.930 . S
H1491 C1501 0.930 . S
H1492 C1503 0.930 . S
H1493 C1504 0.970 . S
H1494 C1504 0.970 . S
H1495 C1506 0.930 . S
H1496 C1508 0.930 . S
H1497 C1510 0.930 . S
C1498 H1490 0.930 . S
C1498 C1499 1.382 . S
C1498 C1500 1.426 . S
C1499 C1498 1.382 . S
C1499 C1503 1.389 . S
C1500 C1498 1.426 . S
C1500 C1501 1.375 . S
C1500 C1504 1.532 1_655 S
C1501 H1491 0.930 . S
C1501 C1500 1.375 . S
C1501 C1502 1.416 . S
C1502 C1501 1.416 . S
C1502 C1503 1.371 . S
C1503 H1492 0.930 . S
C1503 C1499 1.389 . S
C1503 C1502 1.371 . S
C1504 H1493 0.970 . S
C1504 H1494 0.970 . S
C1504 C1500 1.532 1_455 S
C1504 C1505 1.499 . S
C1505 C1504 1.499 . S
C1505 C1506 1.370 . S
C1505 C1510 1.415 . S
C1506 H1495 0.930 . S
C1506 C1505 1.370 . S
C1506 C1507 1.407 . S
C1507 C1506 1.407 . S
C1507 C1508 1.365 . S
C1508 H1496 0.930 . S
C1508 C1507 1.365 . S
C1508 C1509 1.393 . S
C1509 C1508 1.393 . S
C1509 C1510 1.387 . S
C1510 H1497 0.930 . S
C1510 C1505 1.415 . S
C1510 C1509 1.387 . S
H1511 C1519 0.930 . S
H1512 C1522 0.930 . S
H1513 C1524 0.930 . S
H1514 C1525 0.970 . S
H1515 C1525 0.970 . S
H1516 C1527 0.930 . S
H1517 C1529 0.930 . S
H1518 C1531 0.930 . S
C1519 H1511 0.930 . S
C1519 C1520 1.382 . S
C1519 C1521 1.426 . S
C1520 C1519 1.382 . S
C1520 C1524 1.389 . S
C1521 C1519 1.426 . S
C1521 C1522 1.375 . S
C1521 C1525 1.532 1_565 S
C1522 H1512 0.930 . S
C1522 C1521 1.375 . S
C1522 C1523 1.416 . S
C1523 C1522 1.416 . S
C1523 C1524 1.371 . S
C1524 H1513 0.930 . S
C1524 C1520 1.389 . S
C1524 C1523 1.371 . S
C1525 H1514 0.970 . S
C1525 H1515 0.970 . S
C1525 C1521 1.532 1_545 S
C1525 C1526 1.499 . S
C1526 C1525 1.499 . S
C1526 C1527 1.370 . S
C1526 C1531 1.415 . S
C1527 H1516 0.930 . S
C1527 C1526 1.370 . S
C1527 C1528 1.407 . S
C1528 C1527 1.407 . S
C1528 C1529 1.365 . S
C1529 H1517 0.930 . S
C1529 C1528 1.365 . S
C1529 C1530 1.393 . S
C1530 C1529 1.393 . S
C1530 C1531 1.387 . S
C1531 H1518 0.930 . S
C1531 C1526 1.415 . S
C1531 C1530 1.387 . S
H1532 C1540 0.930 . S
H1533 C1543 0.930 . S
H1534 C1545 0.930 . S
H1535 C1546 0.970 . S
H1536 C1546 0.970 . S
H1537 C1548 0.930 . S
H1538 C1550 0.930 . S
H1539 C1552 0.930 . S
C1540 H1532 0.930 . S
C1540 C1541 1.382 . S
C1540 C1542 1.426 . S
C1541 C1540 1.382 . S
C1541 C1545 1.389 . S
C1542 C1540 1.426 . S
C1542 C1543 1.375 . S
C1542 C1546 1.532 . S
C1543 H1533 0.930 . S
C1543 C1542 1.375 . S
C1543 C1544 1.416 . S
C1544 C1543 1.416 . S
C1544 C1545 1.371 . S
C1545 H1534 0.930 . S
C1545 C1541 1.389 . S
C1545 C1544 1.371 . S
C1546 H1535 0.970 . S
C1546 H1536 0.970 . S
C1546 C1542 1.532 . S
C1546 C1547 1.499 . S
C1547 C1546 1.499 . S
C1547 C1548 1.370 . S
C1547 C1552 1.415 . S
C1548 H1537 0.930 . S
C1548 C1547 1.370 . S
C1548 C1549 1.407 . S
C1549 C1548 1.407 . S
C1549 C1550 1.365 . S
C1550 H1538 0.930 . S
C1550 C1549 1.365 . S
C1550 C1551 1.393 . S
C1551 C1550 1.393 . S
C1551 C1552 1.387 . S
C1552 H1539 0.930 . S
C1552 C1547 1.415 . S
C1552 C1551 1.387 . S
H1553 C1561 0.930 . S
H1554 C1564 0.930 . S
H1555 C1566 0.930 . S
H1556 C1567 0.970 . S
H1557 C1567 0.970 . S
H1558 C1569 0.930 . S
H1559 C1571 0.930 . S
H1560 C1573 0.930 . S
C1561 H1553 0.930 . S
C1561 C1562 1.382 . S
C1561 C1563 1.426 . S
C1562 C1561 1.382 . S
C1562 C1566 1.389 . S
C1563 C1561 1.426 . S
C1563 C1564 1.375 . S
C1563 C1567 1.532 . S
C1564 H1554 0.930 . S
C1564 C1563 1.375 . S
C1564 C1565 1.416 . S
C1565 C1564 1.416 . S
C1565 C1566 1.371 . S
C1566 H1555 0.930 . S
C1566 C1562 1.389 . S
C1566 C1565 1.371 . S
C1567 H1556 0.970 . S
C1567 H1557 0.970 . S
C1567 C1563 1.532 . S
C1567 C1568 1.499 . S
C1568 C1567 1.499 . S
C1568 C1569 1.370 . S
C1568 C1573 1.415 . S
C1569 H1558 0.930 . S
C1569 C1568 1.370 . S
C1569 C1570 1.407 . S
C1570 C1569 1.407 . S
C1570 C1571 1.365 . S
C1571 H1559 0.930 . S
C1571 C1570 1.365 . S
C1571 C1572 1.393 . S
C1572 C1571 1.393 . S
C1572 C1573 1.387 . S
C1573 H1560 0.930 . S
C1573 C1568 1.415 . S
C1573 C1572 1.387 . S
H1574 C1582 0.930 . S
H1575 C1585 0.930 . S
H1576 C1587 0.930 . S
H1577 C1588 0.970 . S
H1578 C1588 0.970 . S
H1579 C1590 0.930 . S
H1580 C1592 0.930 . S
H1581 C1594 0.930 . S
C1582 H1574 0.930 . S
C1582 C1583 1.382 . S
C1582 C1584 1.426 . S
C1583 C1582 1.382 . S
C1583 C1587 1.389 . S
C1584 C1582 1.426 . S
C1584 C1585 1.375 . S
C1584 C1588 1.532 . S
C1585 H1575 0.930 . S
C1585 C1584 1.375 . S
C1585 C1586 1.416 . S
C1586 C1585 1.416 . S
C1586 C1587 1.371 . S
C1587 H1576 0.930 . S
C1587 C1583 1.389 . S
C1587 C1586 1.371 . S
C1588 H1577 0.970 . S
C1588 H1578 0.970 . S
C1588 C1584 1.532 . S
C1588 C1589 1.499 . S
C1589 C1588 1.499 . S
C1589 C1590 1.370 . S
C1589 C1594 1.415 . S
C1590 H1579 0.930 . S
C1590 C1589 1.370 . S
C1590 C1591 1.407 . S
C1591 C1590 1.407 . S
C1591 C1592 1.365 . S
C1592 H1580 0.930 . S
C1592 C1591 1.365 . S
C1592 C1593 1.393 . S
C1593 C1592 1.393 . S
C1593 C1594 1.387 . S
C1594 H1581 0.930 . S
C1594 C1589 1.415 . S
C1594 C1593 1.387 . S
H1595 C1603 0.930 . S
H1596 C1606 0.930 . S
H1597 C1608 0.930 . S
H1598 C1609 0.970 . S
H1599 C1609 0.970 . S
H1600 C1611 0.930 . S
H1601 C1613 0.930 . S
H1602 C1615 0.930 . S
C1603 H1595 0.930 . S
C1603 C1604 1.382 . S
C1603 C1605 1.426 . S
C1604 C1603 1.382 . S
C1604 C1608 1.389 . S
C1605 C1603 1.426 . S
C1605 C1606 1.375 . S
C1605 C1609 1.532 . S
C1606 H1596 0.930 . S
C1606 C1605 1.375 . S
C1606 C1607 1.416 . S
C1607 C1606 1.416 . S
C1607 C1608 1.371 . S
C1608 H1597 0.930 . S
C1608 C1604 1.389 . S
C1608 C1607 1.371 . S
C1609 H1598 0.970 . S
C1609 H1599 0.970 . S
C1609 C1605 1.532 . S
C1609 C1610 1.499 . S
C1610 C1609 1.499 . S
C1610 C1611 1.370 . S
C1610 C1615 1.415 . S
C1611 H1600 0.930 . S
C1611 C1610 1.370 . S
C1611 C1612 1.407 . S
C1612 C1611 1.407 . S
C1612 C1613 1.365 . S
C1613 H1601 0.930 . S
C1613 C1612 1.365 . S
C1613 C1614 1.393 . S
C1614 C1613 1.393 . S
C1614 C1615 1.387 . S
C1615 H1602 0.930 . S
C1615 C1610 1.415 . S
C1615 C1614 1.387 . S
H1616 C1624 0.930 . S
H1617 C1627 0.930 . S
H1618 C1629 0.930 . S
H1619 C1630 0.970 . S
H1620 C1630 0.970 . S
H1621 C1632 0.930 . S
H1622 C1634 0.930 . S
H1623 C1636 0.930 . S
C1624 H1616 0.930 . S
C1624 C1625 1.382 . S
C1624 C1626 1.426 . S
C1625 C1624 1.382 . S
C1625 C1629 1.389 . S
C1626 C1624 1.426 . S
C1626 C1627 1.375 . S
C1626 C1630 1.532 . S
C1627 H1617 0.930 . S
C1627 C1626 1.375 . S
C1627 C1628 1.416 . S
C1628 C1627 1.416 . S
C1628 C1629 1.371 . S
C1629 H1618 0.930 . S
C1629 C1625 1.389 . S
C1629 C1628 1.371 . S
C1630 H1619 0.970 . S
C1630 H1620 0.970 . S
C1630 C1626 1.532 . S
C1630 C1631 1.499 . S
C1631 C1630 1.499 . S
C1631 C1632 1.370 . S
C1631 C1636 1.415 . S
C1632 H1621 0.930 . S
C1632 C1631 1.370 . S
C1632 C1633 1.407 . S
C1633 C1632 1.407 . S
C1633 C1634 1.365 . S
C1634 H1622 0.930 . S
C1634 C1633 1.365 . S
C1634 C1635 1.393 . S
C1635 C1634 1.393 . S
C1635 C1636 1.387 . S
C1636 H1623 0.930 . S
C1636 C1631 1.415 . S
C1636 C1635 1.387 . S
H1637 C1645 0.930 . S
H1638 C1648 0.930 . S
H1639 C1650 0.930 . S
H1640 C1651 0.970 . S
H1641 C1651 0.970 . S
H1642 C1653 0.930 . S
H1643 C1655 0.930 . S
H1644 C1657 0.930 . S
C1645 H1637 0.930 . S
C1645 C1646 1.382 . S
C1645 C1647 1.426 . S
C1646 C1645 1.382 . S
C1646 C1650 1.389 . S
C1647 C1645 1.426 . S
C1647 C1648 1.375 . S
C1647 C1651 1.532 . S
C1648 H1638 0.930 . S
C1648 C1647 1.375 . S
C1648 C1649 1.416 . S
C1649 C1648 1.416 . S
C1649 C1650 1.371 . S
C1650 H1639 0.930 . S
C1650 C1646 1.389 . S
C1650 C1649 1.371 . S
C1651 H1640 0.970 . S
C1651 H1641 0.970 . S
C1651 C1647 1.532 . S
C1651 C1652 1.499 . S
C1652 C1651 1.499 . S
C1652 C1653 1.370 . S
C1652 C1657 1.415 . S
C1653 H1642 0.930 . S
C1653 C1652 1.370 . S
C1653 C1654 1.407 . S
C1654 C1653 1.407 . S
C1654 C1655 1.365 . S
C1655 H1643 0.930 . S
C1655 C1654 1.365 . S
C1655 C1656 1.393 . S
C1656 C1655 1.393 . S
C1656 C1657 1.387 . S
C1657 H1644 0.930 . S
C1657 C1652 1.415 . S
C1657 C1656 1.387 . S
H1658 C1666 0.930 . S
H1659 C1669 0.930 . S
H1660 C1671 0.930 . S
H1661 C1672 0.970 . S
H1662 C1672 0.970 . S
H1663 C1674 0.930 . S
H1664 C1676 0.930 . S
H1665 C1678 0.930 . S
C1666 H1658 0.930 . S
C1666 C1667 1.382 . S
C1666 C1668 1.426 . S
C1667 C1666 1.382 . S
C1667 C1671 1.389 . S
C1668 C1666 1.426 . S
C1668 C1669 1.375 . S
C1668 C1672 1.532 . S
C1669 H1659 0.930 . S
C1669 C1668 1.375 . S
C1669 C1670 1.416 . S
C1670 C1669 1.416 . S
C1670 C1671 1.371 . S
C1671 H1660 0.930 . S
C1671 C1667 1.389 . S
C1671 C1670 1.371 . S
C1672 H1661 0.970 . S
C1672 H1662 0.970 . S
C1672 C1668 1.532 . S
C1672 C1673 1.499 . S
C1673 C1672 1.499 . S
C1673 C1674 1.370 . S
C1673 C1678 1.415 . S
C1674 H1663 0.930 . S
C1674 C1673 1.370 . S
C1674 C1675 1.407 . S
C1675 C1674 1.407 . S
C1675 C1676 1.365 . S
C1676 H1664 0.930 . S
C1676 C1675 1.365 . S
C1676 C1677 1.393 . S
C1677 C1676 1.393 . S
C1677 C1678 1.387 . S
C1678 H1665 0.930 . S
C1678 C1673 1.415 . S
C1678 C1677 1.387 . S
H1679 C1687 0.930 . S
H1680 C1690 0.930 . S
H1681 C1692 0.930 . S
H1682 C1693 0.970 . S
H1683 C1693 0.970 . S
H1684 C1695 0.930 . S
H1685 C1697 0.930 . S
H1686 C1699 0.930 . S
C1687 H1679 0.930 . S
C1687 C1688 1.382 . S
C1687 C1689 1.426 . S
C1688 C1687 1.382 . S
C1688 C1692 1.389 . S
C1689 C1687 1.426 . S
C1689 C1690 1.375 . S
C1689 C1693 1.532 . S
C1690 H1680 0.930 . S
C1690 C1689 1.375 . S
C1690 C1691 1.416 . S
C1691 C1690 1.416 . S
C1691 C1692 1.371 . S
C1692 H1681 0.930 . S
C1692 C1688 1.389 . S
C1692 C1691 1.371 . S
C1693 H1682 0.970 . S
C1693 H1683 0.970 . S
C1693 C1689 1.532 . S
C1693 C1694 1.499 . S
C1694 C1693 1.499 . S
C1694 C1695 1.370 . S
C1694 C1699 1.415 . S
C1695 H1684 0.930 . S
C1695 C1694 1.370 . S
C1695 C1696 1.407 . S
C1696 C1695 1.407 . S
C1696 C1697 1.365 . S
C1697 H1685 0.930 . S
C1697 C1696 1.365 . S
C1697 C1698 1.393 . S
C1698 C1697 1.393 . S
C1698 C1699 1.387 . S
C1699 H1686 0.930 . S
C1699 C1694 1.415 . S
C1699 C1698 1.387 . S
H1700 C1708 0.930 . S
H1701 C1711 0.930 . S
H1702 C1713 0.930 . S
H1703 C1714 0.970 . S
H1704 C1714 0.970 . S
H1705 C1716 0.930 . S
H1706 C1718 0.930 . S
H1707 C1720 0.930 . S
C1708 H1700 0.930 . S
C1708 C1709 1.382 . S
C1708 C1710 1.426 . S
C1709 C1708 1.382 . S
C1709 C1713 1.389 . S
C1710 C1708 1.426 . S
C1710 C1711 1.375 . S
C1710 C1714 1.532 . S
C1711 H1701 0.930 . S
C1711 C1710 1.375 . S
C1711 C1712 1.416 . S
C1712 C1711 1.416 . S
C1712 C1713 1.371 . S
C1713 H1702 0.930 . S
C1713 C1709 1.389 . S
C1713 C1712 1.371 . S
C1714 H1703 0.970 . S
C1714 H1704 0.970 . S
C1714 C1710 1.532 . S
C1714 C1715 1.499 . S
C1715 C1714 1.499 . S
C1715 C1716 1.370 . S
C1715 C1720 1.415 . S
C1716 H1705 0.930 . S
C1716 C1715 1.370 . S
C1716 C1717 1.407 . S
C1717 C1716 1.407 . S
C1717 C1718 1.365 . S
C1718 H1706 0.930 . S
C1718 C1717 1.365 . S
C1718 C1719 1.393 . S
C1719 C1718 1.393 . S
C1719 C1720 1.387 . S
C1720 H1707 0.930 . S
C1720 C1715 1.415 . S
C1720 C1719 1.387 . S
H1721 C1729 0.930 . S
H1722 C1732 0.930 . S
H1723 C1734 0.930 . S
H1724 C1735 0.970 . S
H1725 C1735 0.970 . S
H1726 C1737 0.930 . S
H1727 C1739 0.930 . S
H1728 C1741 0.930 . S
C1729 H1721 0.930 . S
C1729 C1730 1.382 . S
C1729 C1731 1.426 . S
C1730 C1729 1.382 . S
C1730 C1734 1.389 . S
C1731 C1729 1.426 . S
C1731 C1732 1.375 . S
C1731 C1735 1.532 . S
C1732 H1722 0.930 . S
C1732 C1731 1.375 . S
C1732 C1733 1.416 . S
C1733 C1732 1.416 . S
C1733 C1734 1.371 . S
C1734 H1723 0.930 . S
C1734 C1730 1.389 . S
C1734 C1733 1.371 . S
C1735 H1724 0.970 . S
C1735 H1725 0.970 . S
C1735 C1731 1.532 . S
C1735 C1736 1.499 . S
C1736 C1735 1.499 . S
C1736 C1737 1.370 . S
C1736 C1741 1.415 . S
C1737 H1726 0.930 . S
C1737 C1736 1.370 . S
C1737 C1738 1.407 . S
C1738 C1737 1.407 . S
C1738 C1739 1.365 . S
C1739 H1727 0.930 . S
C1739 C1738 1.365 . S
C1739 C1740 1.393 . S
C1740 C1739 1.393 . S
C1740 C1741 1.387 . S
C1741 H1728 0.930 . S
C1741 C1736 1.415 . S
C1741 C1740 1.387 . S
H1742 C1750 0.930 . S
H1743 C1753 0.930 . S
H1744 C1755 0.930 . S
H1745 C1756 0.970 . S
H1746 C1756 0.970 . S
H1747 C1758 0.930 . S
H1748 C1760 0.930 . S
H1749 C1762 0.930 . S
C1750 H1742 0.930 . S
C1750 C1751 1.382 . S
C1750 C1752 1.426 . S
C1751 C1750 1.382 . S
C1751 C1755 1.389 . S
C1752 C1750 1.426 . S
C1752 C1753 1.375 . S
C1752 C1756 1.532 . S
C1753 H1743 0.930 . S
C1753 C1752 1.375 . S
C1753 C1754 1.416 . S
C1754 C1753 1.416 . S
C1754 C1755 1.371 . S
C1755 H1744 0.930 . S
C1755 C1751 1.389 . S
C1755 C1754 1.371 . S
C1756 H1745 0.970 . S
C1756 H1746 0.970 . S
C1756 C1752 1.532 . S
C1756 C1757 1.499 . S
C1757 C1756 1.499 . S
C1757 C1758 1.370 . S
C1757 C1762 1.415 . S
C1758 H1747 0.930 . S
C1758 C1757 1.370 . S
C1758 C1759 1.407 . S
C1759 C1758 1.407 . S
C1759 C1760 1.365 . S
C1760 H1748 0.930 . S
C1760 C1759 1.365 . S
C1760 C1761 1.393 . S
C1761 C1760 1.393 . S
C1761 C1762 1.387 . S
C1762 H1749 0.930 . S
C1762 C1757 1.415 . S
C1762 C1761 1.387 . S
H1763 C1771 0.930 . S
H1764 C1774 0.930 . S
H1765 C1776 0.930 . S
H1766 C1777 0.970 . S
H1767 C1777 0.970 . S
H1768 C1779 0.930 . S
H1769 C1781 0.930 . S
H1770 C1783 0.930 . S
C1771 H1763 0.930 . S
C1771 C1772 1.382 . S
C1771 C1773 1.426 . S
C1772 C1771 1.382 . S
C1772 C1776 1.389 . S
C1773 C1771 1.426 . S
C1773 C1774 1.375 . S
C1773 C1777 1.532 . S
C1774 H1764 0.930 . S
C1774 C1773 1.375 . S
C1774 C1775 1.416 . S
C1775 C1774 1.416 . S
C1775 C1776 1.371 . S
C1776 H1765 0.930 . S
C1776 C1772 1.389 . S
C1776 C1775 1.371 . S
C1777 H1766 0.970 . S
C1777 H1767 0.970 . S
C1777 C1773 1.532 . S
C1777 C1778 1.499 . S
C1778 C1777 1.499 . S
C1778 C1779 1.370 . S
C1778 C1783 1.415 . S
C1779 H1768 0.930 . S
C1779 C1778 1.370 . S
C1779 C1780 1.407 . S
C1780 C1779 1.407 . S
C1780 C1781 1.365 . S
C1781 H1769 0.930 . S
C1781 C1780 1.365 . S
C1781 C1782 1.393 . S
C1782 C1781 1.393 . S
C1782 C1783 1.387 . S
C1783 H1770 0.930 . S
C1783 C1778 1.415 . S
C1783 C1782 1.387 . S
C1784 C1785 1.387 . S
C1784 H1788 0.950 . S
C1784 C1793 1.390 . S
C1785 C1784 1.387 . S
C1785 C1787 1.387 . S
H1786 C1793 0.950 . S
C1787 C1785 1.387 . S
C1787 C1789 1.390 . S
C1787 H1791 0.950 . S
H1788 C1784 0.950 . S
C1789 C1787 1.390 . S
C1789 C1790 1.387 . S
C1789 H1792 0.950 . S
C1790 C1789 1.387 . S
C1790 C1793 1.387 . S
H1791 C1787 0.950 . S
H1792 C1789 0.950 . S
C1793 C1784 1.390 . S
C1793 H1786 0.950 . S
C1793 C1790 1.387 . S
C1794 C1795 1.387 . S
C1794 H1798 0.950 . S
C1794 C1803 1.390 . S
C1795 C1794 1.387 . S
C1795 C1797 1.387 . S
H1796 C1803 0.950 . S
C1797 C1795 1.387 . S
C1797 C1799 1.390 . S
C1797 H1801 0.950 . S
H1798 C1794 0.950 . S
C1799 C1797 1.390 . S
C1799 C1800 1.387 . S
C1799 H1802 0.950 . S
C1800 C1799 1.387 . S
C1800 C1803 1.387 . S
H1801 C1797 0.950 . S
H1802 C1799 0.950 . S
C1803 C1794 1.390 . S
C1803 H1796 0.950 . S
C1803 C1800 1.387 . S
C1804 C1805 1.387 . S
C1804 H1808 0.950 . S
C1804 C1813 1.390 . S
C1805 C1804 1.387 . S
C1805 C1807 1.387 . S
H1806 C1813 0.950 . S
C1807 C1805 1.387 . S
C1807 C1809 1.390 . S
C1807 H1811 0.950 . S
H1808 C1804 0.950 . S
C1809 C1807 1.390 . S
C1809 C1810 1.387 . S
C1809 H1812 0.950 . S
C1810 C1809 1.387 . S
C1810 C1813 1.387 . S
H1811 C1807 0.950 . S
H1812 C1809 0.950 . S
C1813 C1804 1.390 . S
C1813 H1806 0.950 . S
C1813 C1810 1.387 . S
C1814 C1815 1.387 . S
C1814 H1818 0.950 . S
C1814 C1823 1.390 . S
C1815 C1814 1.387 . S
C1815 C1817 1.387 . S
H1816 C1823 0.950 . S
C1817 C1815 1.387 . S
C1817 C1819 1.390 . S
C1817 H1821 0.950 . S
H1818 C1814 0.950 . S
C1819 C1817 1.390 . S
C1819 C1820 1.387 . S
C1819 H1822 0.950 . S
C1820 C1819 1.387 . S
C1820 C1823 1.387 . S
H1821 C1817 0.950 . S
H1822 C1819 0.950 . S
C1823 C1814 1.390 . S
C1823 H1816 0.950 . S
C1823 C1820 1.387 . S
C1824 C1825 1.387 . S
C1824 H1828 0.950 . S
C1824 C1833 1.390 . S
C1825 C1824 1.387 . S
C1825 C1827 1.387 . S
H1826 C1833 0.950 . S
C1827 C1825 1.387 . S
C1827 C1829 1.390 . S
C1827 H1831 0.950 . S
H1828 C1824 0.950 . S
C1829 C1827 1.390 . S
C1829 C1830 1.387 . S
C1829 H1832 0.950 . S
C1830 C1829 1.387 . S
C1830 C1833 1.387 . S
H1831 C1827 0.950 . S
H1832 C1829 0.950 . S
C1833 C1824 1.390 . S
C1833 H1826 0.950 . S
C1833 C1830 1.387 . S
C1834 C1835 1.387 . S
C1834 H1838 0.950 . S
C1834 C1843 1.390 . S
C1835 C1834 1.387 . S
C1835 C1837 1.387 . S
H1836 C1843 0.950 . S
C1837 C1835 1.387 . S
C1837 C1839 1.390 . S
C1837 H1841 0.950 . S
H1838 C1834 0.950 . S
C1839 C1837 1.390 . S
C1839 C1840 1.387 . S
C1839 H1842 0.950 . S
C1840 C1839 1.387 . S
C1840 C1843 1.387 . S
H1841 C1837 0.950 . S
H1842 C1839 0.950 . S
C1843 C1834 1.390 . S
C1843 H1836 0.950 . S
C1843 C1840 1.387 . S
C1844 C1845 1.387 . S
C1844 H1848 0.950 . S
C1844 C1853 1.390 . S
C1845 C1844 1.387 . S
C1845 C1847 1.387 . S
H1846 C1853 0.950 . S
C1847 C1845 1.387 . S
C1847 C1849 1.390 . S
C1847 H1851 0.950 . S
H1848 C1844 0.950 . S
C1849 C1847 1.390 . S
C1849 C1850 1.387 . S
C1849 H1852 0.950 . S
C1850 C1849 1.387 . S
C1850 C1853 1.387 . S
H1851 C1847 0.950 . S
H1852 C1849 0.950 . S
C1853 C1844 1.390 . S
C1853 H1846 0.950 . S
C1853 C1850 1.387 . S
C1854 C1855 1.387 . S
C1854 H1858 0.950 . S
C1854 C1863 1.390 . S
C1855 C1854 1.387 . S
C1855 C1857 1.387 . S
H1856 C1863 0.950 . S
C1857 C1855 1.387 . S
C1857 C1859 1.390 . S
C1857 H1861 0.950 . S
H1858 C1854 0.950 . S
C1859 C1857 1.390 . S
C1859 C1860 1.387 . S
C1859 H1862 0.950 . S
C1860 C1859 1.387 . S
C1860 C1863 1.387 . S
H1861 C1857 0.950 . S
H1862 C1859 0.950 . S
C1863 C1854 1.390 . S
C1863 H1856 0.950 . S
C1863 C1860 1.387 . S
C1864 C1865 1.387 . S
C1864 H1868 0.950 . S
C1864 C1873 1.390 . S
C1865 C1864 1.387 . S
C1865 C1867 1.387 . S
H1866 C1873 0.950 . S
C1867 C1865 1.387 . S
C1867 C1869 1.390 . S
C1867 H1871 0.950 . S
H1868 C1864 0.950 . S
C1869 C1867 1.390 . S
C1869 C1870 1.387 . S
C1869 H1872 0.950 . S
C1870 C1869 1.387 . S
C1870 C1873 1.387 . S
H1871 C1867 0.950 . S
H1872 C1869 0.950 . S
C1873 C1864 1.390 . S
C1873 H1866 0.950 . S
C1873 C1870 1.387 . S
C1874 C1875 1.387 . S
C1874 H1878 0.950 . S
C1874 C1883 1.390 . S
C1875 C1874 1.387 . S
C1875 C1877 1.387 . S
H1876 C1883 0.950 . S
C1877 C1875 1.387 . S
C1877 C1879 1.390 . S
C1877 H1881 0.950 . S
H1878 C1874 0.950 . S
C1879 C1877 1.390 . S
C1879 C1880 1.387 . S
C1879 H1882 0.950 . S
C1880 C1879 1.387 . S
C1880 C1883 1.387 . S
H1881 C1877 0.950 . S
H1882 C1879 0.950 . S
C1883 C1874 1.390 . S
C1883 H1876 0.950 . S
C1883 C1880 1.387 . S
C1884 C1885 1.387 . S
C1884 H1888 0.950 . S
C1884 C1893 1.390 . S
C1885 C1884 1.387 . S
C1885 C1887 1.387 . S
H1886 C1893 0.950 . S
C1887 C1885 1.387 . S
C1887 C1889 1.390 . S
C1887 H1891 0.950 . S
H1888 C1884 0.950 . S
C1889 C1887 1.390 . S
C1889 C1890 1.387 . S
C1889 H1892 0.950 . S
C1890 C1889 1.387 . S
C1890 C1893 1.387 . S
H1891 C1887 0.950 . S
H1892 C1889 0.950 . S
C1893 C1884 1.390 . S
C1893 H1886 0.950 . S
C1893 C1890 1.387 . S
C1894 C1895 1.387 . S
C1894 H1898 0.950 . S
C1894 C1903 1.390 . S
C1895 C1894 1.387 . S
C1895 C1897 1.387 . S
H1896 C1903 0.950 . S
C1897 C1895 1.387 . S
C1897 C1899 1.390 . S
C1897 H1901 0.950 . S
H1898 C1894 0.950 . S
C1899 C1897 1.390 . S
C1899 C1900 1.387 . S
C1899 H1902 0.950 . S
C1900 C1899 1.387 . S
C1900 C1903 1.387 . S
H1901 C1897 0.950 . S
H1902 C1899 0.950 . S
C1903 C1894 1.390 . S
C1903 H1896 0.950 . S
C1903 C1900 1.387 . S
C1904 C1905 1.387 . S
C1904 H1908 0.950 . S
C1904 C1913 1.390 . S
C1905 C1904 1.387 . S
C1905 C1907 1.387 . S
H1906 C1913 0.950 . S
C1907 C1905 1.387 . S
C1907 C1909 1.390 . S
C1907 H1911 0.950 . S
H1908 C1904 0.950 . S
C1909 C1907 1.390 . S
C1909 C1910 1.387 . S
C1909 H1912 0.950 . S
C1910 C1909 1.387 . S
C1910 C1913 1.387 . S
H1911 C1907 0.950 . S
H1912 C1909 0.950 . S
C1913 C1904 1.390 . S
C1913 H1906 0.950 . S
C1913 C1910 1.387 . S
C1914 C1915 1.387 . S
C1914 H1918 0.950 . S
C1914 C1923 1.390 . S
C1915 C1914 1.387 . S
C1915 C1917 1.387 . S
H1916 C1923 0.950 . S
C1917 C1915 1.387 . S
C1917 C1919 1.390 . S
C1917 H1921 0.950 . S
H1918 C1914 0.950 . S
C1919 C1917 1.390 . S
C1919 C1920 1.387 . S
C1919 H1922 0.950 . S
C1920 C1919 1.387 . S
C1920 C1923 1.387 . S
H1921 C1917 0.950 . S
H1922 C1919 0.950 . S
C1923 C1914 1.390 . S
C1923 H1916 0.950 . S
C1923 C1920 1.387 . S
C1924 C1925 1.387 . S
C1924 H1928 0.950 . S
C1924 C1933 1.390 . S
C1925 C1924 1.387 . S
C1925 C1927 1.387 . S
H1926 C1933 0.950 . S
C1927 C1925 1.387 . S
C1927 C1929 1.390 . S
C1927 H1931 0.950 . S
H1928 C1924 0.950 . S
C1929 C1927 1.390 . S
C1929 C1930 1.387 . S
C1929 H1932 0.950 . S
C1930 C1929 1.387 . S
C1930 C1933 1.387 . S
H1931 C1927 0.950 . S
H1932 C1929 0.950 . S
C1933 C1924 1.390 . S
C1933 H1926 0.950 . S
C1933 C1930 1.387 . S
C1934 C1935 1.387 . S
C1934 H1938 0.950 . S
C1934 C1943 1.390 . S
C1935 C1934 1.387 . S
C1935 C1937 1.387 . S
H1936 C1943 0.950 . S
C1937 C1935 1.387 . S
C1937 C1939 1.390 . S
C1937 H1941 0.950 . S
H1938 C1934 0.950 . S
C1939 C1937 1.390 . S
C1939 C1940 1.387 . S
C1939 H1942 0.950 . S
C1940 C1939 1.387 . S
C1940 C1943 1.387 . S
H1941 C1937 0.950 . S
H1942 C1939 0.950 . S
C1943 C1934 1.390 . S
C1943 H1936 0.950 . S
C1943 C1940 1.387 . S
C1944 C1945 1.387 . S
C1944 H1948 0.950 . S
C1944 C1953 1.390 . S
C1945 C1944 1.387 . S
C1945 C1947 1.387 . S
H1946 C1953 0.950 . S
C1947 C1945 1.387 . S
C1947 C1949 1.390 . S
C1947 H1951 0.950 . S
H1948 C1944 0.950 . S
C1949 C1947 1.390 . S
C1949 C1950 1.387 . S
C1949 H1952 0.950 . S
C1950 C1949 1.387 . S
C1950 C1953 1.387 . S
H1951 C1947 0.950 . S
H1952 C1949 0.950 . S
C1953 C1944 1.390 . S
C1953 H1946 0.950 . S
C1953 C1950 1.387 . S
C1954 C1955 1.387 . S
C1954 H1958 0.950 . S
C1954 C1963 1.390 . S
C1955 C1954 1.387 . S
C1955 C1957 1.387 . S
H1956 C1963 0.950 . S
C1957 C1955 1.387 . S
C1957 C1959 1.390 . S
C1957 H1961 0.950 . S
H1958 C1954 0.950 . S
C1959 C1957 1.390 . S
C1959 C1960 1.387 . S
C1959 H1962 0.950 . S
C1960 C1959 1.387 . S
C1960 C1963 1.387 . S
H1961 C1957 0.950 . S
H1962 C1959 0.950 . S
C1963 C1954 1.390 . S
C1963 H1956 0.950 . S
C1963 C1960 1.387 . S
C1964 C1965 1.387 . S
C1964 H1968 0.950 . S
C1964 C1973 1.390 . S
C1965 C1964 1.387 . S
C1965 C1967 1.387 . S
H1966 C1973 0.950 . S
C1967 C1965 1.387 . S
C1967 C1969 1.390 . S
C1967 H1971 0.950 . S
H1968 C1964 0.950 . S
C1969 C1967 1.390 . S
C1969 C1970 1.387 . S
C1969 H1972 0.950 . S
C1970 C1969 1.387 . S
C1970 C1973 1.387 . S
H1971 C1967 0.950 . S
H1972 C1969 0.950 . S
C1973 C1964 1.390 . S
C1973 H1966 0.950 . S
C1973 C1970 1.387 . S
C1974 C1975 1.387 . S
C1974 H1978 0.950 . S
C1974 C1983 1.390 . S
C1975 C1974 1.387 . S
C1975 C1977 1.387 . S
H1976 C1983 0.950 . S
C1977 C1975 1.387 . S
C1977 C1979 1.390 . S
C1977 H1981 0.950 . S
H1978 C1974 0.950 . S
C1979 C1977 1.390 . S
C1979 C1980 1.387 . S
C1979 H1982 0.950 . S
C1980 C1979 1.387 . S
C1980 C1983 1.387 . S
H1981 C1977 0.950 . S
H1982 C1979 0.950 . S
C1983 C1974 1.390 . S
C1983 H1976 0.950 . S
C1983 C1980 1.387 . S
C1984 C1985 1.387 . S
C1984 H1988 0.950 . S
C1984 C1993 1.390 . S
C1985 C1984 1.387 . S
C1985 C1987 1.387 . S
H1986 C1993 0.950 . S
C1987 C1985 1.387 . S
C1987 C1989 1.390 . S
C1987 H1991 0.950 . S
H1988 C1984 0.950 . S
C1989 C1987 1.390 . S
C1989 C1990 1.387 . S
C1989 H1992 0.950 . S
C1990 C1989 1.387 . S
C1990 C1993 1.387 . S
H1991 C1987 0.950 . S
H1992 C1989 0.950 . S
C1993 C1984 1.390 . S
C1993 H1986 0.950 . S
C1993 C1990 1.387 . S
C1994 C1995 1.387 . S
C1994 H1998 0.950 . S
C1994 C2003 1.390 . S
C1995 C1994 1.387 . S
C1995 C1997 1.387 . S
H1996 C2003 0.950 . S
C1997 C1995 1.387 . S
C1997 C1999 1.390 . S
C1997 H2001 0.950 . S
H1998 C1994 0.950 . S
C1999 C1997 1.390 . S
C1999 C2000 1.387 . S
C1999 H2002 0.950 . S
C2000 C1999 1.387 . S
C2000 C2003 1.387 . S
H2001 C1997 0.950 . S
H2002 C1999 0.950 . S
C2003 C1994 1.390 . S
C2003 H1996 0.950 . S
C2003 C2000 1.387 . S
C2004 C2005 1.387 . S
C2004 H2008 0.950 . S
C2004 C2013 1.390 . S
C2005 C2004 1.387 . S
C2005 C2007 1.387 . S
H2006 C2013 0.950 . S
C2007 C2005 1.387 . S
C2007 C2009 1.390 . S
C2007 H2011 0.950 . S
H2008 C2004 0.950 . S
C2009 C2007 1.390 . S
C2009 C2010 1.387 . S
C2009 H2012 0.950 . S
C2010 C2009 1.387 . S
C2010 C2013 1.387 . S
H2011 C2007 0.950 . S
H2012 C2009 0.950 . S
C2013 C2004 1.390 . S
C2013 H2006 0.950 . S
C2013 C2010 1.387 . S
C2014 C2015 1.387 . S
C2014 H2018 0.950 . S
C2014 C2023 1.390 . S
C2015 C2014 1.387 . S
C2015 C2017 1.387 . S
H2016 C2023 0.950 . S
C2017 C2015 1.387 . S
C2017 C2019 1.390 . S
C2017 H2021 0.950 . S
H2018 C2014 0.950 . S
C2019 C2017 1.390 . S
C2019 C2020 1.387 . S
C2019 H2022 0.950 . S
C2020 C2019 1.387 . S
C2020 C2023 1.387 . S
H2021 C2017 0.950 . S
H2022 C2019 0.950 . S
C2023 C2014 1.390 . S
C2023 H2016 0.950 . S
C2023 C2020 1.387 . S
C2024 C2025 1.387 . S
C2024 H2028 0.950 . S
C2024 C2033 1.390 . S
C2025 C2024 1.387 . S
C2025 C2027 1.387 . S
H2026 C2033 0.950 . S
C2027 C2025 1.387 . S
C2027 C2029 1.390 . S
C2027 H2031 0.950 . S
H2028 C2024 0.950 . S
C2029 C2027 1.390 . S
C2029 C2030 1.387 . S
C2029 H2032 0.950 . S
C2030 C2029 1.387 . S
C2030 C2033 1.387 . S
H2031 C2027 0.950 . S
H2032 C2029 0.950 . S
C2033 C2024 1.390 . S
C2033 H2026 0.950 . S
C2033 C2030 1.387 . S
C2034 C2035 1.387 . S
C2034 H2038 0.950 . S
C2034 C2043 1.390 . S
C2035 C2034 1.387 . S
C2035 C2037 1.387 . S
H2036 C2043 0.950 . S
C2037 C2035 1.387 . S
C2037 C2039 1.390 . S
C2037 H2041 0.950 . S
H2038 C2034 0.950 . S
C2039 C2037 1.390 . S
C2039 C2040 1.387 . S
C2039 H2042 0.950 . S
C2040 C2039 1.387 . S
C2040 C2043 1.387 . S
H2041 C2037 0.950 . S
H2042 C2039 0.950 . S
C2043 C2034 1.390 . S
C2043 H2036 0.950 . S
C2043 C2040 1.387 . S
C2044 C2045 1.387 . S
C2044 H2048 0.950 . S
C2044 C2053 1.390 . S
C2045 C2044 1.387 . S
C2045 C2047 1.387 . S
H2046 C2053 0.950 . S
C2047 C2045 1.387 . S
C2047 C2049 1.390 . S
C2047 H2051 0.950 . S
H2048 C2044 0.950 . S
C2049 C2047 1.390 . S
C2049 C2050 1.387 . S
C2049 H2052 0.950 . S
C2050 C2049 1.387 . S
C2050 C2053 1.387 . S
H2051 C2047 0.950 . S
H2052 C2049 0.950 . S
C2053 C2044 1.390 . S
C2053 H2046 0.950 . S
C2053 C2050 1.387 . S
C2054 C2055 1.387 . S
C2054 H2058 0.950 . S
C2054 C2063 1.390 . S
C2055 C2054 1.387 . S
C2055 C2057 1.387 . S
H2056 C2063 0.950 . S
C2057 C2055 1.387 . S
C2057 C2059 1.390 . S
C2057 H2061 0.950 . S
H2058 C2054 0.950 . S
C2059 C2057 1.390 . S
C2059 C2060 1.387 . S
C2059 H2062 0.950 . S
C2060 C2059 1.387 . S
C2060 C2063 1.387 . S
H2061 C2057 0.950 . S
H2062 C2059 0.950 . S
C2063 C2054 1.390 . S
C2063 H2056 0.950 . S
C2063 C2060 1.387 . S
C2064 C2065 1.387 . S
C2064 H2068 0.950 . S
C2064 C2073 1.390 . S
C2065 C2064 1.387 . S
C2065 C2067 1.387 . S
H2066 C2073 0.950 . S
C2067 C2065 1.387 . S
C2067 C2069 1.390 . S
C2067 H2071 0.950 . S
H2068 C2064 0.950 . S
C2069 C2067 1.390 . S
C2069 C2070 1.387 . S
C2069 H2072 0.950 . S
C2070 C2069 1.387 . S
C2070 C2073 1.387 . S
H2071 C2067 0.950 . S
H2072 C2069 0.950 . S
C2073 C2064 1.390 . S
C2073 H2066 0.950 . S
C2073 C2070 1.387 . S
C2074 C2075 1.387 . S
C2074 H2078 0.950 . S
C2074 C2083 1.390 . S
C2075 C2074 1.387 . S
C2075 C2077 1.387 . S
H2076 C2083 0.950 . S
C2077 C2075 1.387 . S
C2077 C2079 1.390 . S
C2077 H2081 0.950 . S
H2078 C2074 0.950 . S
C2079 C2077 1.390 . S
C2079 C2080 1.387 . S
C2079 H2082 0.950 . S
C2080 C2079 1.387 . S
C2080 C2083 1.387 . S
H2081 C2077 0.950 . S
H2082 C2079 0.950 . S
C2083 C2074 1.390 . S
C2083 H2076 0.950 . S
C2083 C2080 1.387 . S
C2084 C2085 1.387 . S
C2084 H2088 0.950 . S
C2084 C2093 1.390 . S
C2085 C2084 1.387 . S
C2085 C2087 1.387 . S
H2086 C2093 0.950 . S
C2087 C2085 1.387 . S
C2087 C2089 1.390 . S
C2087 H2091 0.950 . S
H2088 C2084 0.950 . S
C2089 C2087 1.390 . S
C2089 C2090 1.387 . S
C2089 H2092 0.950 . S
C2090 C2089 1.387 . S
C2090 C2093 1.387 . S
H2091 C2087 0.950 . S
H2092 C2089 0.950 . S
C2093 C2084 1.390 . S
C2093 H2086 0.950 . S
C2093 C2090 1.387 . S
C2094 C2095 1.387 . S
C2094 H2098 0.950 . S
C2094 C2103 1.390 . S
C2095 C2094 1.387 . S
C2095 C2097 1.387 . S
H2096 C2103 0.950 . S
C2097 C2095 1.387 . S
C2097 C2099 1.390 . S
C2097 H2101 0.950 . S
H2098 C2094 0.950 . S
C2099 C2097 1.390 . S
C2099 C2100 1.387 . S
C2099 H2102 0.950 . S
C2100 C2099 1.387 . S
C2100 C2103 1.387 . S
H2101 C2097 0.950 . S
H2102 C2099 0.950 . S
C2103 C2094 1.390 . S
C2103 H2096 0.950 . S
C2103 C2100 1.387 . S
C2104 C2105 1.387 . S
C2104 H2108 0.950 . S
C2104 C2113 1.390 . S
C2105 C2104 1.387 . S
C2105 C2107 1.387 . S
H2106 C2113 0.950 . S
C2107 C2105 1.387 . S
C2107 C2109 1.390 . S
C2107 H2111 0.950 . S
H2108 C2104 0.950 . S
C2109 C2107 1.390 . S
C2109 C2110 1.387 . S
C2109 H2112 0.950 . S
C2110 C2109 1.387 . S
C2110 C2113 1.387 . S
H2111 C2107 0.950 . S
H2112 C2109 0.950 . S
C2113 C2104 1.390 . S
C2113 H2106 0.950 . S
C2113 C2110 1.387 . S
C2114 C2115 1.387 . S
C2114 H2118 0.950 . S
C2114 C2123 1.390 . S
C2115 C2114 1.387 . S
C2115 C2117 1.387 . S
H2116 C2123 0.950 . S
C2117 C2115 1.387 . S
C2117 C2119 1.390 . S
C2117 H2121 0.950 . S
H2118 C2114 0.950 . S
C2119 C2117 1.390 . S
C2119 C2120 1.387 . S
C2119 H2122 0.950 . S
C2120 C2119 1.387 . S
C2120 C2123 1.387 . S
H2121 C2117 0.950 . S
H2122 C2119 0.950 . S
C2123 C2114 1.390 . S
C2123 H2116 0.950 . S
C2123 C2120 1.387 . S
C2124 C2125 1.387 . S
C2124 H2128 0.950 . S
C2124 C2133 1.390 . S
C2125 C2124 1.387 . S
C2125 C2127 1.387 . S
H2126 C2133 0.950 . S
C2127 C2125 1.387 . S
C2127 C2129 1.390 . S
C2127 H2131 0.950 . S
H2128 C2124 0.950 . S
C2129 C2127 1.390 . S
C2129 C2130 1.387 . S
C2129 H2132 0.950 . S
C2130 C2129 1.387 . S
C2130 C2133 1.387 . S
H2131 C2127 0.950 . S
H2132 C2129 0.950 . S
C2133 C2124 1.390 . S
C2133 H2126 0.950 . S
C2133 C2130 1.387 . S
C2134 C2135 1.387 . S
C2134 H2138 0.950 . S
C2134 C2143 1.390 . S
C2135 C2134 1.387 . S
C2135 C2137 1.387 . S
H2136 C2143 0.950 . S
C2137 C2135 1.387 . S
C2137 C2139 1.390 . S
C2137 H2141 0.950 . S
H2138 C2134 0.950 . S
C2139 C2137 1.390 . S
C2139 C2140 1.387 . S
C2139 H2142 0.950 . S
C2140 C2139 1.387 . S
C2140 C2143 1.387 . S
H2141 C2137 0.950 . S
H2142 C2139 0.950 . S
C2143 C2134 1.390 . S
C2143 H2136 0.950 . S
C2143 C2140 1.387 . S
C2144 C2145 1.387 . S
C2144 H2148 0.950 . S
C2144 C2153 1.390 . S
C2145 C2144 1.387 . S
C2145 C2147 1.387 . S
H2146 C2153 0.950 . S
C2147 C2145 1.387 . S
C2147 C2149 1.390 . S
C2147 H2151 0.950 . S
H2148 C2144 0.950 . S
C2149 C2147 1.390 . S
C2149 C2150 1.387 . S
C2149 H2152 0.950 . S
C2150 C2149 1.387 . S
C2150 C2153 1.387 . S
H2151 C2147 0.950 . S
H2152 C2149 0.950 . S
C2153 C2144 1.390 . S
C2153 H2146 0.950 . S
C2153 C2150 1.387 . S
C2154 C2155 1.387 . S
C2154 H2158 0.950 . S
C2154 C2163 1.390 . S
C2155 C2154 1.387 . S
C2155 C2157 1.387 . S
H2156 C2163 0.950 . S
C2157 C2155 1.387 . S
C2157 C2159 1.390 . S
C2157 H2161 0.950 . S
H2158 C2154 0.950 . S
C2159 C2157 1.390 . S
C2159 C2160 1.387 . S
C2159 H2162 0.950 . S
C2160 C2159 1.387 . S
C2160 C2163 1.387 . S
H2161 C2157 0.950 . S
H2162 C2159 0.950 . S
C2163 C2154 1.390 . S
C2163 H2156 0.950 . S
C2163 C2160 1.387 . S
C2164 C2165 1.387 . S
C2164 H2168 0.950 . S
C2164 C2173 1.390 . S
C2165 C2164 1.387 . S
C2165 C2167 1.387 . S
H2166 C2173 0.950 . S
C2167 C2165 1.387 . S
C2167 C2169 1.390 . S
C2167 H2171 0.950 . S
H2168 C2164 0.950 . S
C2169 C2167 1.390 . S
C2169 C2170 1.387 . S
C2169 H2172 0.950 . S
C2170 C2169 1.387 . S
C2170 C2173 1.387 . S
H2171 C2167 0.950 . S
H2172 C2169 0.950 . S
C2173 C2164 1.390 . S
C2173 H2166 0.950 . S
C2173 C2170 1.387 . S
C2174 C2175 1.387 . S
C2174 H2178 0.950 . S
C2174 C2183 1.390 . S
C2175 C2174 1.387 . S
C2175 C2177 1.387 . S
H2176 C2183 0.950 . S
C2177 C2175 1.387 . S
C2177 C2179 1.390 . S
C2177 H2181 0.950 . S
H2178 C2174 0.950 . S
C2179 C2177 1.390 . S
C2179 C2180 1.387 . S
C2179 H2182 0.950 . S
C2180 C2179 1.387 . S
C2180 C2183 1.387 . S
H2181 C2177 0.950 . S
H2182 C2179 0.950 . S
C2183 C2174 1.390 . S
C2183 H2176 0.950 . S
C2183 C2180 1.387 . S
C2184 C2185 1.387 . S
C2184 H2188 0.950 . S
C2184 C2193 1.390 . S
C2185 C2184 1.387 . S
C2185 C2187 1.387 . S
H2186 C2193 0.950 . S
C2187 C2185 1.387 . S
C2187 C2189 1.390 . S
C2187 H2191 0.950 . S
H2188 C2184 0.950 . S
C2189 C2187 1.390 . S
C2189 C2190 1.387 . S
C2189 H2192 0.950 . S
C2190 C2189 1.387 . S
C2190 C2193 1.387 . S
H2191 C2187 0.950 . S
H2192 C2189 0.950 . S
C2193 C2184 1.390 . S
C2193 H2186 0.950 . S
C2193 C2190 1.387 . S
C2194 C2195 1.387 . S
C2194 H2198 0.950 . S
C2194 C2203 1.390 . S
C2195 C2194 1.387 . S
C2195 C2197 1.387 . S
H2196 C2203 0.950 . S
C2197 C2195 1.387 . S
C2197 C2199 1.390 . S
C2197 H2201 0.950 . S
H2198 C2194 0.950 . S
C2199 C2197 1.390 . S
C2199 C2200 1.387 . S
C2199 H2202 0.950 . S
C2200 C2199 1.387 . S
C2200 C2203 1.387 . S
H2201 C2197 0.950 . S
H2202 C2199 0.950 . S
C2203 C2194 1.390 . S
C2203 H2196 0.950 . S
C2203 C2200 1.387 . S
C2204 C2205 1.387 . S
C2204 H2208 0.950 . S
C2204 C2213 1.390 . S
C2205 C2204 1.387 . S
C2205 C2207 1.387 . S
H2206 C2213 0.950 . S
C2207 C2205 1.387 . S
C2207 C2209 1.390 . S
C2207 H2211 0.950 . S
H2208 C2204 0.950 . S
C2209 C2207 1.390 . S
C2209 C2210 1.387 . S
C2209 H2212 0.950 . S
C2210 C2209 1.387 . S
C2210 C2213 1.387 . S
H2211 C2207 0.950 . S
H2212 C2209 0.950 . S
C2213 C2204 1.390 . S
C2213 H2206 0.950 . S
C2213 C2210 1.387 . S
C2214 C2215 1.387 . S
C2214 H2218 0.950 . S
C2214 C2223 1.390 . S
C2215 C2214 1.387 . S
C2215 C2217 1.387 . S
H2216 C2223 0.950 . S
C2217 C2215 1.387 . S
C2217 C2219 1.390 . S
C2217 H2221 0.950 . S
H2218 C2214 0.950 . S
C2219 C2217 1.390 . S
C2219 C2220 1.387 . S
C2219 H2222 0.950 . S
C2220 C2219 1.387 . S
C2220 C2223 1.387 . S
H2221 C2217 0.950 . S
H2222 C2219 0.950 . S
C2223 C2214 1.390 . S
C2223 H2216 0.950 . S
C2223 C2220 1.387 . S
C2224 C2225 1.387 . S
C2224 H2228 0.950 . S
C2224 C2233 1.390 . S
C2225 C2224 1.387 . S
C2225 C2227 1.387 . S
H2226 C2233 0.950 . S
C2227 C2225 1.387 . S
C2227 C2229 1.390 . S
C2227 H2231 0.950 . S
H2228 C2224 0.950 . S
C2229 C2227 1.390 . S
C2229 C2230 1.387 . S
C2229 H2232 0.950 . S
C2230 C2229 1.387 . S
C2230 C2233 1.387 . S
H2231 C2227 0.950 . S
H2232 C2229 0.950 . S
C2233 C2224 1.390 . S
C2233 H2226 0.950 . S
C2233 C2230 1.387 . S
C2234 C2235 1.387 . S
C2234 H2238 0.950 . S
C2234 C2243 1.390 . S
C2235 C2234 1.387 . S
C2235 C2237 1.387 . S
H2236 C2243 0.950 . S
C2237 C2235 1.387 . S
C2237 C2239 1.390 . S
C2237 H2241 0.950 . S
H2238 C2234 0.950 . S
C2239 C2237 1.390 . S
C2239 C2240 1.387 . S
C2239 H2242 0.950 . S
C2240 C2239 1.387 . S
C2240 C2243 1.387 . S
H2241 C2237 0.950 . S
H2242 C2239 0.950 . S
C2243 C2234 1.390 . S
C2243 H2236 0.950 . S
C2243 C2240 1.387 . S
C2244 C2245 1.387 . S
C2244 H2248 0.950 . S
C2244 C2253 1.390 . S
C2245 C2244 1.387 . S
C2245 C2247 1.387 . S
H2246 C2253 0.950 . S
C2247 C2245 1.387 . S
C2247 C2249 1.390 . S
C2247 H2251 0.950 . S
H2248 C2244 0.950 . S
C2249 C2247 1.390 . S
C2249 C2250 1.387 . S
C2249 H2252 0.950 . S
C2250 C2249 1.387 . S
C2250 C2253 1.387 . S
H2251 C2247 0.950 . S
H2252 C2249 0.950 . S
C2253 C2244 1.390 . S
C2253 H2246 0.950 . S
C2253 C2250 1.387 . S
C2254 C2255 1.387 . S
C2254 H2258 0.950 . S
C2254 C2263 1.390 . S
C2255 C2254 1.387 . S
C2255 C2257 1.387 . S
H2256 C2263 0.950 . S
C2257 C2255 1.387 . S
C2257 C2259 1.390 . S
C2257 H2261 0.950 . S
H2258 C2254 0.950 . S
C2259 C2257 1.390 . S
C2259 C2260 1.387 . S
C2259 H2262 0.950 . S
C2260 C2259 1.387 . S
C2260 C2263 1.387 . S
H2261 C2257 0.950 . S
H2262 C2259 0.950 . S
C2263 C2254 1.390 . S
C2263 H2256 0.950 . S
C2263 C2260 1.387 . S
C2264 C2265 1.387 . S
C2264 H2268 0.950 . S
C2264 C2273 1.390 . S
C2265 C2264 1.387 . S
C2265 C2267 1.387 . S
H2266 C2273 0.950 . S
C2267 C2265 1.387 . S
C2267 C2269 1.390 . S
C2267 H2271 0.950 . S
H2268 C2264 0.950 . S
C2269 C2267 1.390 . S
C2269 C2270 1.387 . S
C2269 H2272 0.950 . S
C2270 C2269 1.387 . S
C2270 C2273 1.387 . S
H2271 C2267 0.950 . S
H2272 C2269 0.950 . S
C2273 C2264 1.390 . S
C2273 H2266 0.950 . S
C2273 C2270 1.387 . S
C2274 C2275 1.387 . S
C2274 H2278 0.950 . S
C2274 C2283 1.390 . S
C2275 C2274 1.387 . S
C2275 C2277 1.387 . S
H2276 C2283 0.950 . S
C2277 C2275 1.387 . S
C2277 C2279 1.390 . S
C2277 H2281 0.950 . S
H2278 C2274 0.950 . S
C2279 C2277 1.390 . S
C2279 C2280 1.387 . S
C2279 H2282 0.950 . S
C2280 C2279 1.387 . S
C2280 C2283 1.387 . S
H2281 C2277 0.950 . S
H2282 C2279 0.950 . S
C2283 C2274 1.390 . S
C2283 H2276 0.950 . S
C2283 C2280 1.387 . S
C2284 C2285 1.387 . S
C2284 H2288 0.950 . S
C2284 C2293 1.390 . S
C2285 C2284 1.387 . S
C2285 C2287 1.387 . S
H2286 C2293 0.950 . S
C2287 C2285 1.387 . S
C2287 C2289 1.390 . S
C2287 H2291 0.950 . S
H2288 C2284 0.950 . S
C2289 C2287 1.390 . S
C2289 C2290 1.387 . S
C2289 H2292 0.950 . S
C2290 C2289 1.387 . S
C2290 C2293 1.387 . S
H2291 C2287 0.950 . S
H2292 C2289 0.950 . S
C2293 C2284 1.390 . S
C2293 H2286 0.950 . S
C2293 C2290 1.387 . S
C2294 C2295 1.387 . S
C2294 H2298 0.950 . S
C2294 C2303 1.390 . S
C2295 C2294 1.387 . S
C2295 C2297 1.387 . S
H2296 C2303 0.950 . S
C2297 C2295 1.387 . S
C2297 C2299 1.390 . S
C2297 H2301 0.950 . S
H2298 C2294 0.950 . S
C2299 C2297 1.390 . S
C2299 C2300 1.387 . S
C2299 H2302 0.950 . S
C2300 C2299 1.387 . S
C2300 C2303 1.387 . S
H2301 C2297 0.950 . S
H2302 C2299 0.950 . S
C2303 C2294 1.390 . S
C2303 H2296 0.950 . S
C2303 C2300 1.387 . S
C2304 C2305 1.387 . S
C2304 H2308 0.950 . S
C2304 C2313 1.390 . S
C2305 C2304 1.387 . S
C2305 C2307 1.387 . S
H2306 C2313 0.950 . S
C2307 C2305 1.387 . S
C2307 C2309 1.390 . S
C2307 H2311 0.950 . S
H2308 C2304 0.950 . S
C2309 C2307 1.390 . S
C2309 C2310 1.387 . S
C2309 H2312 0.950 . S
C2310 C2309 1.387 . S
C2310 C2313 1.387 . S
H2311 C2307 0.950 . S
H2312 C2309 0.950 . S
C2313 C2304 1.390 . S
C2313 H2306 0.950 . S
C2313 C2310 1.387 . S
C2314 C2315 1.387 . S
C2314 H2318 0.950 . S
C2314 C2323 1.390 . S
C2315 C2314 1.387 . S
C2315 C2317 1.387 . S
H2316 C2323 0.950 . S
C2317 C2315 1.387 . S
C2317 C2319 1.390 . S
C2317 H2321 0.950 . S
H2318 C2314 0.950 . S
C2319 C2317 1.390 . S
C2319 C2320 1.387 . S
C2319 H2322 0.950 . S
C2320 C2319 1.387 . S
C2320 C2323 1.387 . S
H2321 C2317 0.950 . S
H2322 C2319 0.950 . S
C2323 C2314 1.390 . S
C2323 H2316 0.950 . S
C2323 C2320 1.387 . S
C2324 C2325 1.387 . S
C2324 H2328 0.950 . S
C2324 C2333 1.390 . S
C2325 C2324 1.387 . S
C2325 C2327 1.387 . S
H2326 C2333 0.950 . S
C2327 C2325 1.387 . S
C2327 C2329 1.390 . S
C2327 H2331 0.950 . S
H2328 C2324 0.950 . S
C2329 C2327 1.390 . S
C2329 C2330 1.387 . S
C2329 H2332 0.950 . S
C2330 C2329 1.387 . S
C2330 C2333 1.387 . S
H2331 C2327 0.950 . S
H2332 C2329 0.950 . S
C2333 C2324 1.390 . S
C2333 H2326 0.950 . S
C2333 C2330 1.387 . S
C2334 C2335 1.387 . S
C2334 H2338 0.950 . S
C2334 C2343 1.390 . S
C2335 C2334 1.387 . S
C2335 C2337 1.387 . S
H2336 C2343 0.950 . S
C2337 C2335 1.387 . S
C2337 C2339 1.390 . S
C2337 H2341 0.950 . S
H2338 C2334 0.950 . S
C2339 C2337 1.390 . S
C2339 C2340 1.387 . S
C2339 H2342 0.950 . S
C2340 C2339 1.387 . S
C2340 C2343 1.387 . S
H2341 C2337 0.950 . S
H2342 C2339 0.950 . S
C2343 C2334 1.390 . S
C2343 H2336 0.950 . S
C2343 C2340 1.387 . S
C2344 C2345 1.387 . S
C2344 H2348 0.950 . S
C2344 C2353 1.390 . S
C2345 C2344 1.387 . S
C2345 C2347 1.387 . S
H2346 C2353 0.950 . S
C2347 C2345 1.387 . S
C2347 C2349 1.390 . S
C2347 H2351 0.950 . S
H2348 C2344 0.950 . S
C2349 C2347 1.390 . S
C2349 C2350 1.387 . S
C2349 H2352 0.950 . S
C2350 C2349 1.387 . S
C2350 C2353 1.387 . S
H2351 C2347 0.950 . S
H2352 C2349 0.950 . S
C2353 C2344 1.390 . S
C2353 H2346 0.950 . S
C2353 C2350 1.387 . S
C2354 C2355 1.387 . S
C2354 H2358 0.950 . S
C2354 C2363 1.390 . S
C2355 C2354 1.387 . S
C2355 C2357 1.387 . S
H2356 C2363 0.950 . S
C2357 C2355 1.387 . S
C2357 C2359 1.390 . S
C2357 H2361 0.950 . S
H2358 C2354 0.950 . S
C2359 C2357 1.390 . S
C2359 C2360 1.387 . S
C2359 H2362 0.950 . S
C2360 C2359 1.387 . S
C2360 C2363 1.387 . S
H2361 C2357 0.950 . S
H2362 C2359 0.950 . S
C2363 C2354 1.390 . S
C2363 H2356 0.950 . S
C2363 C2360 1.387 . S
C2364 C2365 1.387 . S
C2364 H2368 0.950 . S
C2364 C2373 1.390 . S
C2365 C2364 1.387 . S
C2365 C2367 1.387 . S
H2366 C2373 0.950 . S
C2367 C2365 1.387 . S
C2367 C2369 1.390 . S
C2367 H2371 0.950 . S
H2368 C2364 0.950 . S
C2369 C2367 1.390 . S
C2369 C2370 1.387 . S
C2369 H2372 0.950 . S
C2370 C2369 1.387 . S
C2370 C2373 1.387 . S
H2371 C2367 0.950 . S
H2372 C2369 0.950 . S
C2373 C2364 1.390 . S
C2373 H2366 0.950 . S
C2373 C2370 1.387 . S
C2374 C2375 1.387 . S
C2374 H2378 0.950 . S
C2374 C2383 1.390 . S
C2375 C2374 1.387 . S
C2375 C2377 1.387 . S
H2376 C2383 0.950 . S
C2377 C2375 1.387 . S
C2377 C2379 1.390 . S
C2377 H2381 0.950 . S
H2378 C2374 0.950 . S
C2379 C2377 1.390 . S
C2379 C2380 1.387 . S
C2379 H2382 0.950 . S
C2380 C2379 1.387 . S
C2380 C2383 1.387 . S
H2381 C2377 0.950 . S
H2382 C2379 0.950 . S
C2383 C2374 1.390 . S
C2383 H2376 0.950 . S
C2383 C2380 1.387 . S
C2384 C2385 1.387 . S
C2384 H2388 0.950 . S
C2384 C2393 1.390 . S
C2385 C2384 1.387 . S
C2385 C2387 1.387 . S
H2386 C2393 0.950 . S
C2387 C2385 1.387 . S
C2387 C2389 1.390 . S
C2387 H2391 0.950 . S
H2388 C2384 0.950 . S
C2389 C2387 1.390 . S
C2389 C2390 1.387 . S
C2389 H2392 0.950 . S
C2390 C2389 1.387 . S
C2390 C2393 1.387 . S
H2391 C2387 0.950 . S
H2392 C2389 0.950 . S
C2393 C2384 1.390 . S
C2393 H2386 0.950 . S
C2393 C2390 1.387 . S
C2394 C2395 1.387 . S
C2394 H2398 0.950 . S
C2394 C2403 1.390 . S
C2395 C2394 1.387 . S
C2395 C2397 1.387 . S
H2396 C2403 0.950 . S
C2397 C2395 1.387 . S
C2397 C2399 1.390 . S
C2397 H2401 0.950 . S
H2398 C2394 0.950 . S
C2399 C2397 1.390 . S
C2399 C2400 1.387 . S
C2399 H2402 0.950 . S
C2400 C2399 1.387 . S
C2400 C2403 1.387 . S
H2401 C2397 0.950 . S
H2402 C2399 0.950 . S
C2403 C2394 1.390 . S
C2403 H2396 0.950 . S
C2403 C2400 1.387 . S
C2404 C2405 1.387 . S
C2404 H2408 0.950 . S
C2404 C2413 1.390 . S
C2405 C2404 1.387 . S
C2405 C2407 1.387 . S
H2406 C2413 0.950 . S
C2407 C2405 1.387 . S
C2407 C2409 1.390 . S
C2407 H2411 0.950 . S
H2408 C2404 0.950 . S
C2409 C2407 1.390 . S
C2409 C2410 1.387 . S
C2409 H2412 0.950 . S
C2410 C2409 1.387 . S
C2410 C2413 1.387 . S
H2411 C2407 0.950 . S
H2412 C2409 0.950 . S
C2413 C2404 1.390 . S
C2413 H2406 0.950 . S
C2413 C2410 1.387 . S
C2414 C2415 1.387 . S
C2414 H2418 0.950 . S
C2414 C2423 1.390 . S
C2415 C2414 1.387 . S
C2415 C2417 1.387 . S
H2416 C2423 0.950 . S
C2417 C2415 1.387 . S
C2417 C2419 1.390 . S
C2417 H2421 0.950 . S
H2418 C2414 0.950 . S
C2419 C2417 1.390 . S
C2419 C2420 1.387 . S
C2419 H2422 0.950 . S
C2420 C2419 1.387 . S
C2420 C2423 1.387 . S
H2421 C2417 0.950 . S
H2422 C2419 0.950 . S
C2423 C2414 1.390 . S
C2423 H2416 0.950 . S
C2423 C2420 1.387 . S
C2424 C2425 1.387 . S
C2424 H2428 0.950 . S
C2424 C2433 1.390 . S
C2425 C2424 1.387 . S
C2425 C2427 1.387 . S
H2426 C2433 0.950 . S
C2427 C2425 1.387 . S
C2427 C2429 1.390 . S
C2427 H2431 0.950 . S
H2428 C2424 0.950 . S
C2429 C2427 1.390 . S
C2429 C2430 1.387 . S
C2429 H2432 0.950 . S
C2430 C2429 1.387 . S
C2430 C2433 1.387 . S
H2431 C2427 0.950 . S
H2432 C2429 0.950 . S
C2433 C2424 1.390 . S
C2433 H2426 0.950 . S
C2433 C2430 1.387 . S
C2434 C2435 1.387 . S
C2434 H2438 0.950 . S
C2434 C2443 1.390 . S
C2435 C2434 1.387 . S
C2435 C2437 1.387 . S
H2436 C2443 0.950 . S
C2437 C2435 1.387 . S
C2437 C2439 1.390 . S
C2437 H2441 0.950 . S
H2438 C2434 0.950 . S
C2439 C2437 1.390 . S
C2439 C2440 1.387 . S
C2439 H2442 0.950 . S
C2440 C2439 1.387 . S
C2440 C2443 1.387 . S
H2441 C2437 0.950 . S
H2442 C2439 0.950 . S
C2443 C2434 1.390 . S
C2443 H2436 0.950 . S
C2443 C2440 1.387 . S
C2444 C2445 1.387 . S
C2444 H2448 0.950 . S
C2444 C2453 1.390 . S
C2445 C2444 1.387 . S
C2445 C2447 1.387 . S
H2446 C2453 0.950 . S
C2447 C2445 1.387 . S
C2447 C2449 1.390 . S
C2447 H2451 0.950 . S
H2448 C2444 0.950 . S
C2449 C2447 1.390 . S
C2449 C2450 1.387 . S
C2449 H2452 0.950 . S
C2450 C2449 1.387 . S
C2450 C2453 1.387 . S
H2451 C2447 0.950 . S
H2452 C2449 0.950 . S
C2453 C2444 1.390 . S
C2453 H2446 0.950 . S
C2453 C2450 1.387 . S
C2454 C2455 1.387 . S
C2454 H2458 0.950 . S
C2454 C2463 1.390 . S
C2455 C2454 1.387 . S
C2455 C2457 1.387 . S
H2456 C2463 0.950 . S
C2457 C2455 1.387 . S
C2457 C2459 1.390 . S
C2457 H2461 0.950 . S
H2458 C2454 0.950 . S
C2459 C2457 1.390 . S
C2459 C2460 1.387 . S
C2459 H2462 0.950 . S
C2460 C2459 1.387 . S
C2460 C2463 1.387 . S
H2461 C2457 0.950 . S
H2462 C2459 0.950 . S
C2463 C2454 1.390 . S
C2463 H2456 0.950 . S
C2463 C2460 1.387 . S
C2464 C2465 1.387 . S
C2464 H2468 0.950 . S
C2464 C2473 1.390 . S
C2465 C2464 1.387 . S
C2465 C2467 1.387 . S
H2466 C2473 0.950 . S
C2467 C2465 1.387 . S
C2467 C2469 1.390 . S
C2467 H2471 0.950 . S
H2468 C2464 0.950 . S
C2469 C2467 1.390 . S
C2469 C2470 1.387 . S
C2469 H2472 0.950 . S
C2470 C2469 1.387 . S
C2470 C2473 1.387 . S
H2471 C2467 0.950 . S
H2472 C2469 0.950 . S
C2473 C2464 1.390 . S
C2473 H2466 0.950 . S
C2473 C2470 1.387 . S
C2474 C2475 1.387 . S
C2474 H2478 0.950 . S
C2474 C2483 1.390 . S
C2475 C2474 1.387 . S
C2475 C2477 1.387 . S
H2476 C2483 0.950 . S
C2477 C2475 1.387 . S
C2477 C2479 1.390 . S
C2477 H2481 0.950 . S
H2478 C2474 0.950 . S
C2479 C2477 1.390 . S
C2479 C2480 1.387 . S
C2479 H2482 0.950 . S
C2480 C2479 1.387 . S
C2480 C2483 1.387 . S
H2481 C2477 0.950 . S
H2482 C2479 0.950 . S
C2483 C2474 1.390 . S
C2483 H2476 0.950 . S
C2483 C2480 1.387 . S
C2484 C2485 1.387 . S
C2484 H2488 0.950 . S
C2484 C2493 1.390 . S
C2485 C2484 1.387 . S
C2485 C2487 1.387 . S
H2486 C2493 0.950 . S
C2487 C2485 1.387 . S
C2487 C2489 1.390 . S
C2487 H2491 0.950 . S
H2488 C2484 0.950 . S
C2489 C2487 1.390 . S
C2489 C2490 1.387 . S
C2489 H2492 0.950 . S
C2490 C2489 1.387 . S
C2490 C2493 1.387 . S
H2491 C2487 0.950 . S
H2492 C2489 0.950 . S
C2493 C2484 1.390 . S
C2493 H2486 0.950 . S
C2493 C2490 1.387 . S
C2494 C2495 1.387 . S
C2494 H2498 0.950 . S
C2494 C2503 1.390 . S
C2495 C2494 1.387 . S
C2495 C2497 1.387 . S
H2496 C2503 0.950 . S
C2497 C2495 1.387 . S
C2497 C2499 1.390 . S
C2497 H2501 0.950 . S
H2498 C2494 0.950 . S
C2499 C2497 1.390 . S
C2499 C2500 1.387 . S
C2499 H2502 0.950 . S
C2500 C2499 1.387 . S
C2500 C2503 1.387 . S
H2501 C2497 0.950 . S
H2502 C2499 0.950 . S
C2503 C2494 1.390 . S
C2503 H2496 0.950 . S
C2503 C2500 1.387 . S
C2504 C2505 1.387 . S
C2504 H2508 0.950 . S
C2504 C2513 1.390 . S
C2505 C2504 1.387 . S
C2505 C2507 1.387 . S
H2506 C2513 0.950 . S
C2507 C2505 1.387 . S
C2507 C2509 1.390 . S
C2507 H2511 0.950 . S
H2508 C2504 0.950 . S
C2509 C2507 1.390 . S
C2509 C2510 1.387 . S
C2509 H2512 0.950 . S
C2510 C2509 1.387 . S
C2510 C2513 1.387 . S
H2511 C2507 0.950 . S
H2512 C2509 0.950 . S
C2513 C2504 1.390 . S
C2513 H2506 0.950 . S
C2513 C2510 1.387 . S
C2514 C2515 1.387 . S
C2514 H2518 0.950 . S
C2514 C2523 1.390 . S
C2515 C2514 1.387 . S
C2515 C2517 1.387 . S
H2516 C2523 0.950 . S
C2517 C2515 1.387 . S
C2517 C2519 1.390 . S
C2517 H2521 0.950 . S
H2518 C2514 0.950 . S
C2519 C2517 1.390 . S
C2519 C2520 1.387 . S
C2519 H2522 0.950 . S
C2520 C2519 1.387 . S
C2520 C2523 1.387 . S
H2521 C2517 0.950 . S
H2522 C2519 0.950 . S
C2523 C2514 1.390 . S
C2523 H2516 0.950 . S
C2523 C2520 1.387 . S
C2524 C2525 1.387 . S
C2524 H2528 0.950 . S
C2524 C2533 1.390 . S
C2525 C2524 1.387 . S
C2525 C2527 1.387 . S
H2526 C2533 0.950 . S
C2527 C2525 1.387 . S
C2527 C2529 1.390 . S
C2527 H2531 0.950 . S
H2528 C2524 0.950 . S
C2529 C2527 1.390 . S
C2529 C2530 1.387 . S
C2529 H2532 0.950 . S
C2530 C2529 1.387 . S
C2530 C2533 1.387 . S
H2531 C2527 0.950 . S
H2532 C2529 0.950 . S
C2533 C2524 1.390 . S
C2533 H2526 0.950 . S
C2533 C2530 1.387 . S
C2534 C2535 1.387 . S
C2534 H2538 0.950 . S
C2534 C2543 1.390 . S
C2535 C2534 1.387 . S
C2535 C2537 1.387 . S
H2536 C2543 0.950 . S
C2537 C2535 1.387 . S
C2537 C2539 1.390 . S
C2537 H2541 0.950 . S
H2538 C2534 0.950 . S
C2539 C2537 1.390 . S
C2539 C2540 1.387 . S
C2539 H2542 0.950 . S
C2540 C2539 1.387 . S
C2540 C2543 1.387 . S
H2541 C2537 0.950 . S
H2542 C2539 0.950 . S
C2543 C2534 1.390 . S
C2543 H2536 0.950 . S
C2543 C2540 1.387 . S
C2544 C2545 1.387 . S
C2544 H2548 0.950 . S
C2544 C2553 1.390 . S
C2545 C2544 1.387 . S
C2545 C2547 1.387 . S
H2546 C2553 0.950 . S
C2547 C2545 1.387 . S
C2547 C2549 1.390 . S
C2547 H2551 0.950 . S
H2548 C2544 0.950 . S
C2549 C2547 1.390 . S
C2549 C2550 1.387 . S
C2549 H2552 0.950 . S
C2550 C2549 1.387 . S
C2550 C2553 1.387 . S
H2551 C2547 0.950 . S
H2552 C2549 0.950 . S
C2553 C2544 1.390 . S
C2553 H2546 0.950 . S
C2553 C2550 1.387 . S
C2554 C2555 1.387 . S
C2554 H2558 0.950 . S
C2554 C2563 1.390 . S
C2555 C2554 1.387 . S
C2555 C2557 1.387 . S
H2556 C2563 0.950 . S
C2557 C2555 1.387 . S
C2557 C2559 1.390 . S
C2557 H2561 0.950 . S
H2558 C2554 0.950 . S
C2559 C2557 1.390 . S
C2559 C2560 1.387 . S
C2559 H2562 0.950 . S
C2560 C2559 1.387 . S
C2560 C2563 1.387 . S
H2561 C2557 0.950 . S
H2562 C2559 0.950 . S
C2563 C2554 1.390 . S
C2563 H2556 0.950 . S
C2563 C2560 1.387 . S
C2564 C2565 1.387 . S
C2564 H2568 0.950 . S
C2564 C2573 1.390 . S
C2565 C2564 1.387 . S
C2565 C2567 1.387 . S
H2566 C2573 0.950 . S
C2567 C2565 1.387 . S
C2567 C2569 1.390 . S
C2567 H2571 0.950 . S
H2568 C2564 0.950 . S
C2569 C2567 1.390 . S
C2569 C2570 1.387 . S
C2569 H2572 0.950 . S
C2570 C2569 1.387 . S
C2570 C2573 1.387 . S
H2571 C2567 0.950 . S
H2572 C2569 0.950 . S
C2573 C2564 1.390 . S
C2573 H2566 0.950 . S
C2573 C2570 1.387 . S
C2574 C2575 1.387 . S
C2574 H2578 0.950 . S
C2574 C2583 1.390 . S
C2575 C2574 1.387 . S
C2575 C2577 1.387 . S
H2576 C2583 0.950 . S
C2577 C2575 1.387 . S
C2577 C2579 1.390 . S
C2577 H2581 0.950 . S
H2578 C2574 0.950 . S
C2579 C2577 1.390 . S
C2579 C2580 1.387 . S
C2579 H2582 0.950 . S
C2580 C2579 1.387 . S
C2580 C2583 1.387 . S
H2581 C2577 0.950 . S
H2582 C2579 0.950 . S
C2583 C2574 1.390 . S
C2583 H2576 0.950 . S
C2583 C2580 1.387 . S
C2584 C2585 1.387 . S
C2584 H2588 0.950 . S
C2584 C2593 1.390 . S
C2585 C2584 1.387 . S
C2585 C2587 1.387 . S
H2586 C2593 0.950 . S
C2587 C2585 1.387 . S
C2587 C2589 1.390 . S
C2587 H2591 0.950 . S
H2588 C2584 0.950 . S
C2589 C2587 1.390 . S
C2589 C2590 1.387 . S
C2589 H2592 0.950 . S
C2590 C2589 1.387 . S
C2590 C2593 1.387 . S
H2591 C2587 0.950 . S
H2592 C2589 0.950 . S
C2593 C2584 1.390 . S
C2593 H2586 0.950 . S
C2593 C2590 1.387 . S
C2594 C2595 1.387 . S
C2594 H2598 0.950 . S
C2594 C2603 1.390 . S
C2595 C2594 1.387 . S
C2595 C2597 1.387 . S
H2596 C2603 0.950 . S
C2597 C2595 1.387 . S
C2597 C2599 1.390 . S
C2597 H2601 0.950 . S
H2598 C2594 0.950 . S
C2599 C2597 1.390 . S
C2599 C2600 1.387 . S
C2599 H2602 0.950 . S
C2600 C2599 1.387 . S
C2600 C2603 1.387 . S
H2601 C2597 0.950 . S
H2602 C2599 0.950 . S
C2603 C2594 1.390 . S
C2603 H2596 0.950 . S
C2603 C2600 1.387 . S
C2604 C2605 1.387 . S
C2604 H2608 0.950 . S
C2604 C2613 1.390 . S
C2605 C2604 1.387 . S
C2605 C2607 1.387 . S
H2606 C2613 0.950 . S
C2607 C2605 1.387 . S
C2607 C2609 1.390 . S
C2607 H2611 0.950 . S
H2608 C2604 0.950 . S
C2609 C2607 1.390 . S
C2609 C2610 1.387 . S
C2609 H2612 0.950 . S
C2610 C2609 1.387 . S
C2610 C2613 1.387 . S
H2611 C2607 0.950 . S
H2612 C2609 0.950 . S
C2613 C2604 1.390 . S
C2613 H2606 0.950 . S
C2613 C2610 1.387 . S
C2614 C2615 1.387 . S
C2614 H2618 0.950 . S
C2614 C2623 1.390 . S
C2615 C2614 1.387 . S
C2615 C2617 1.387 . S
H2616 C2623 0.950 . S
C2617 C2615 1.387 . S
C2617 C2619 1.390 . S
C2617 H2621 0.950 . S
H2618 C2614 0.950 . S
C2619 C2617 1.390 . S
C2619 C2620 1.387 . S
C2619 H2622 0.950 . S
C2620 C2619 1.387 . S
C2620 C2623 1.387 . S
H2621 C2617 0.950 . S
H2622 C2619 0.950 . S
C2623 C2614 1.390 . S
C2623 H2616 0.950 . S
C2623 C2620 1.387 . S
C2624 C2625 1.387 . S
C2624 H2628 0.950 . S
C2624 C2633 1.390 . S
C2625 C2624 1.387 . S
C2625 C2627 1.387 . S
H2626 C2633 0.950 . S
C2627 C2625 1.387 . S
C2627 C2629 1.390 . S
C2627 H2631 0.950 . S
H2628 C2624 0.950 . S
C2629 C2627 1.390 . S
C2629 C2630 1.387 . S
C2629 H2632 0.950 . S
C2630 C2629 1.387 . S
C2630 C2633 1.387 . S
H2631 C2627 0.950 . S
H2632 C2629 0.950 . S
C2633 C2624 1.390 . S
C2633 H2626 0.950 . S
C2633 C2630 1.387 . S
C2634 C2635 1.387 . S
C2634 H2638 0.950 . S
C2634 C2643 1.390 . S
C2635 C2634 1.387 . S
C2635 C2637 1.387 . S
H2636 C2643 0.950 . S
C2637 C2635 1.387 . S
C2637 C2639 1.390 . S
C2637 H2641 0.950 . S
H2638 C2634 0.950 . S
C2639 C2637 1.390 . S
C2639 C2640 1.387 . S
C2639 H2642 0.950 . S
C2640 C2639 1.387 . S
C2640 C2643 1.387 . S
H2641 C2637 0.950 . S
H2642 C2639 0.950 . S
C2643 C2634 1.390 . S
C2643 H2636 0.950 . S
C2643 C2640 1.387 . S
C2644 C2645 1.387 . S
C2644 H2648 0.950 . S
C2644 C2653 1.390 . S
C2645 C2644 1.387 . S
C2645 C2647 1.387 . S
H2646 C2653 0.950 . S
C2647 C2645 1.387 . S
C2647 C2649 1.390 . S
C2647 H2651 0.950 . S
H2648 C2644 0.950 . S
C2649 C2647 1.390 . S
C2649 C2650 1.387 . S
C2649 H2652 0.950 . S
C2650 C2649 1.387 . S
C2650 C2653 1.387 . S
H2651 C2647 0.950 . S
H2652 C2649 0.950 . S
C2653 C2644 1.390 . S
C2653 H2646 0.950 . S
C2653 C2650 1.387 . S
C2654 C2655 1.387 . S
C2654 H2658 0.950 . S
C2654 C2663 1.390 . S
C2655 C2654 1.387 . S
C2655 C2657 1.387 . S
H2656 C2663 0.950 . S
C2657 C2655 1.387 . S
C2657 C2659 1.390 . S
C2657 H2661 0.950 . S
H2658 C2654 0.950 . S
C2659 C2657 1.390 . S
C2659 C2660 1.387 . S
C2659 H2662 0.950 . S
C2660 C2659 1.387 . S
C2660 C2663 1.387 . S
H2661 C2657 0.950 . S
H2662 C2659 0.950 . S
C2663 C2654 1.390 . S
C2663 H2656 0.950 . S
C2663 C2660 1.387 . S
C2664 C2665 1.387 . S
C2664 H2668 0.950 . S
C2664 C2673 1.390 . S
C2665 C2664 1.387 . S
C2665 C2667 1.387 . S
H2666 C2673 0.950 . S
C2667 C2665 1.387 . S
C2667 C2669 1.390 . S
C2667 H2671 0.950 . S
H2668 C2664 0.950 . S
C2669 C2667 1.390 . S
C2669 C2670 1.387 . S
C2669 H2672 0.950 . S
C2670 C2669 1.387 . S
C2670 C2673 1.387 . S
H2671 C2667 0.950 . S
H2672 C2669 0.950 . S
C2673 C2664 1.390 . S
C2673 H2666 0.950 . S
C2673 C2670 1.387 . S
C2674 C2675 1.387 . S
C2674 H2678 0.950 . S
C2674 C2683 1.390 . S
C2675 C2674 1.387 . S
C2675 C2677 1.387 . S
H2676 C2683 0.950 . S
C2677 C2675 1.387 . S
C2677 C2679 1.390 . S
C2677 H2681 0.950 . S
H2678 C2674 0.950 . S
C2679 C2677 1.390 . S
C2679 C2680 1.387 . S
C2679 H2682 0.950 . S
C2680 C2679 1.387 . S
C2680 C2683 1.387 . S
H2681 C2677 0.950 . S
H2682 C2679 0.950 . S
C2683 C2674 1.390 . S
C2683 H2676 0.950 . S
C2683 C2680 1.387 . S
C2684 C2685 1.387 . S
C2684 H2688 0.950 . S
C2684 C2693 1.390 . S
C2685 C2684 1.387 . S
C2685 C2687 1.387 . S
H2686 C2693 0.950 . S
C2687 C2685 1.387 . S
C2687 C2689 1.390 . S
C2687 H2691 0.950 . S
H2688 C2684 0.950 . S
C2689 C2687 1.390 . S
C2689 C2690 1.387 . S
C2689 H2692 0.950 . S
C2690 C2689 1.387 . S
C2690 C2693 1.387 . S
H2691 C2687 0.950 . S
H2692 C2689 0.950 . S
C2693 C2684 1.390 . S
C2693 H2686 0.950 . S
C2693 C2690 1.387 . S
C2694 C2695 1.387 . S
C2694 H2698 0.950 . S
C2694 C2703 1.390 . S
C2695 C2694 1.387 . S
C2695 C2697 1.387 . S
H2696 C2703 0.950 . S
C2697 C2695 1.387 . S
C2697 C2699 1.390 . S
C2697 H2701 0.950 . S
H2698 C2694 0.950 . S
C2699 C2697 1.390 . S
C2699 C2700 1.387 . S
C2699 H2702 0.950 . S
C2700 C2699 1.387 . S
C2700 C2703 1.387 . S
H2701 C2697 0.950 . S
H2702 C2699 0.950 . S
C2703 C2694 1.390 . S
C2703 H2696 0.950 . S
C2703 C2700 1.387 . S
C2704 C2705 1.387 . S
C2704 H2708 0.950 . S
C2704 C2713 1.390 . S
C2705 C2704 1.387 . S
C2705 C2707 1.387 . S
H2706 C2713 0.950 . S
C2707 C2705 1.387 . S
C2707 C2709 1.390 . S
C2707 H2711 0.950 . S
H2708 C2704 0.950 . S
C2709 C2707 1.390 . S
C2709 C2710 1.387 . S
C2709 H2712 0.950 . S
C2710 C2709 1.387 . S
C2710 C2713 1.387 . S
H2711 C2707 0.950 . S
H2712 C2709 0.950 . S
C2713 C2704 1.390 . S
C2713 H2706 0.950 . S
C2713 C2710 1.387 . S
C2714 C2715 1.387 . S
C2714 H2718 0.950 . S
C2714 C2723 1.390 . S
C2715 C2714 1.387 . S
C2715 C2717 1.387 . S
H2716 C2723 0.950 . S
C2717 C2715 1.387 . S
C2717 C2719 1.390 . S
C2717 H2721 0.950 . S
H2718 C2714 0.950 . S
C2719 C2717 1.390 . S
C2719 C2720 1.387 . S
C2719 H2722 0.950 . S
C2720 C2719 1.387 . S
C2720 C2723 1.387 . S
H2721 C2717 0.950 . S
H2722 C2719 0.950 . S
C2723 C2714 1.390 . S
C2723 H2716 0.950 . S
C2723 C2720 1.387 . S
C2724 C2725 1.387 . S
C2724 H2728 0.950 . S
C2724 C2733 1.390 . S
C2725 C2724 1.387 . S
C2725 C2727 1.387 . S
H2726 C2733 0.950 . S
C2727 C2725 1.387 . S
C2727 C2729 1.390 . S
C2727 H2731 0.950 . S
H2728 C2724 0.950 . S
C2729 C2727 1.390 . S
C2729 C2730 1.387 . S
C2729 H2732 0.950 . S
C2730 C2729 1.387 . S
C2730 C2733 1.387 . S
H2731 C2727 0.950 . S
H2732 C2729 0.950 . S
C2733 C2724 1.390 . S
C2733 H2726 0.950 . S
C2733 C2730 1.387 . S
C2734 C2735 1.387 . S
C2734 H2738 0.950 . S
C2734 C2743 1.390 . S
C2735 C2734 1.387 . S
C2735 C2737 1.387 . S
H2736 C2743 0.950 . S
C2737 C2735 1.387 . S
C2737 C2739 1.390 . S
C2737 H2741 0.950 . S
H2738 C2734 0.950 . S
C2739 C2737 1.390 . S
C2739 C2740 1.387 . S
C2739 H2742 0.950 . S
C2740 C2739 1.387 . S
C2740 C2743 1.387 . S
H2741 C2737 0.950 . S
H2742 C2739 0.950 . S
C2743 C2734 1.390 . S
C2743 H2736 0.950 . S
C2743 C2740 1.387 . S
C1790 C1299 1.472 . S
C1785 C21 1.540 . S
C1800 C1310 1.407 . S
C1795 C42 1.542 . S
C1805 C82 1.535 . S
C1810 C1334 1.425 . S
C1820 C1355 1.395 . S
C1815 C135 1.551 . S
C1825 C175 1.513 . S
C1830 C1362 1.402 . S
C1835 C221 1.536 . S
C1840 C1292 1.425 . S
C1845 C255 1.551 . S
C1850 C1318 1.399 . S
C1860 C1341 1.479 . S
C1855 C301 1.594 . S
C1870 C1373 1.434 . S
C1865 C15 1.546 . S
C1875 C55 1.525 . S
C1880 C1394 1.392 . S
C1885 C101 1.555 . S
C1890 C1418 1.445 . S
C1900 C1436 1.432 . S
C1895 C141 1.565 . S
C1905 C162 1.505 . S
C1910 C1465 1.398 . S
C1920 C1486 1.425 . S
C1915 C215 1.560 . S
C1925 C261 1.583 . S
C1930 C1502 1.427 . S
C1940 C1523 1.415 . S
C1935 C282 1.567 . S
C1945 C2 1.521 . S
C1950 C1444 1.426 . S
C1955 C181 1.482 . S
C1960 C1478 1.407 . S
C1970 C1509 1.474 . S
C1965 C202 1.539 . S
C1975 C242 1.572 . S
C1980 C1530 1.459 . S
C1990 C1457 1.420 . S
C1985 C295 1.544 . S
C2000 C1402 1.431 . S
C1995 C95 1.574 . S
C2005 C122 1.558 . S
C2010 C1425 1.444 . S
C2020 C1381 1.388 . S
C2015 C61 1.555 . S
C2030 C1549 1.435 . S
C2025 C341 1.538 . S
C2035 C362 1.545 . S
C2040 C1565 1.384 . S
C2045 C402 1.526 . S
C2050 C1583 1.447 . S
C2060 C1604 1.449 . S
C2055 C455 1.562 . S
C2065 C495 1.519 . S
C2070 C1612 1.380 . S
C2075 C541 1.543 . S
C2080 C1541 1.470 . S
C2085 C575 1.544 . S
C2090 C1572 1.437 . S
C2095 C621 1.591 . S
C2100 C1591 1.449 . S
C2110 C1467 1.439 . S
C2105 C335 1.541 . S
C2115 C375 1.532 . S
C2120 C1625 1.406 . S
C2130 C1499 1.463 . S
C2125 C421 1.539 . S
C2135 C461 1.571 . S
C2140 C1654 1.419 . S
C2145 C482 1.504 . S
C2150 C1376 1.393 . S
C2160 C1670 1.426 . S
C2155 C535 1.566 . S
C2165 C581 1.567 . S
C2170 C1415 1.434 . S
C2180 C1698 1.453 . S
C2175 C602 1.562 . S
C2185 C322 1.524 . S
C2190 C1646 1.439 . S
C2200 C1677 1.423 . S
C2195 C501 1.486 . S
C2205 C522 1.549 . S
C2210 C1423 1.444 . S
C2220 C1691 1.403 . S
C2215 C562 1.565 . S
C2225 C615 1.543 . S
C2230 C1383 1.435 . S
C2235 C415 1.558 . S
C2240 C1633 1.421 . S
C2245 C442 1.575 . S
C2250 C1507 1.423 . S
C2255 C381 1.565 . S
C2260 C1460 1.383 . S
C2265 C661 1.545 . S
C2270 C1586 1.438 . S
C2280 C1607 1.384 . S
C2275 C682 1.543 . S
C2285 C722 1.525 . S
C2290 C1551 1.457 . S
C2295 C775 1.552 . S
C2300 C1562 1.434 . S
C2305 C815 1.518 . S
C2310 C1570 1.382 . S
C2315 C861 1.529 . S
C2320 C1593 1.465 . S
C2330 C1614 1.441 . S
C2325 C895 1.547 . S
C2335 C941 1.599 . S
C2340 C1544 1.450 . S
C2350 C1709 1.430 . S
C2345 C655 1.547 . S
C2355 C695 1.527 . S
C2360 C1488 1.415 . S
C2370 C1730 1.466 . S
C2365 C741 1.542 . S
C2375 C781 1.568 . S
C2380 C1520 1.433 . S
C2385 C802 1.508 . S
C2390 C1754 1.394 . S
C2395 C855 1.560 . S
C2400 C1397 1.414 . S
C2410 C1775 1.415 . S
C2405 C901 1.572 . S
C2415 C922 1.568 . S
C2420 C1439 1.412 . S
C2430 C1528 1.437 . S
C2425 C642 1.527 . S
C2440 C1404 1.424 . S
C2435 C821 1.491 . S
C2445 C842 1.540 . S
C2450 C1782 1.475 . S
C2455 C882 1.564 . S
C2460 C1446 1.449 . S
C2470 C1761 1.437 . S
C2465 C935 1.546 . S
C2480 C1481 1.414 . S
C2475 C735 1.559 . S
C2490 C1738 1.420 . S
C2485 C762 1.565 . S
C2500 C1717 1.392 . S
C2495 C701 1.560 . S
C2505 C981 1.540 . S
C2510 C1331 1.460 . S
C2515 C1002 1.540 . S
C2520 C1352 1.404 . S
C2530 C1297 1.429 . S
C2525 C1042 1.530 . S
C2540 C1313 1.407 . S
C2535 C1095 1.563 . S
C2550 C1320 1.401 . S
C2545 C1135 1.515 . S
C2560 C1339 1.437 . S
C2555 C1181 1.539 . S
C2570 C1360 1.404 . S
C2565 C1215 1.554 . S
C2575 C1261 1.589 . S
C2580 C1289 1.457 . S
C2585 C975 1.544 . S
C2590 C1751 1.433 . S
C2600 C1667 1.399 . S
C2595 C1015 1.527 . S
C2610 C1772 1.471 . S
C2605 C1061 1.548 . S
C2620 C1696 1.419 . S
C2615 C1101 1.572 . S
C2625 C1122 1.502 . S
C2630 C1712 1.388 . S
C2640 C1628 1.414 . S
C2635 C1175 1.558 . S
C2650 C1733 1.423 . S
C2645 C1221 1.580 . S
C2655 C1242 1.560 . S
C2660 C1656 1.452 . S
C2670 C1688 1.438 . S
C2665 C962 1.523 . S
C2680 C1635 1.416 . S
C2675 C1141 1.479 . S
C2690 C1740 1.472 . S
C2685 C1162 1.541 . S
C2695 C1202 1.578 . S
C2700 C1649 1.418 . S
C2705 C1255 1.537 . S
C2710 C1719 1.425 . S
C2715 C1055 1.566 . S
C2720 C1675 1.429 . S
C2725 C1082 1.572 . S
C2730 C1780 1.417 . S
C2740 C1759 1.393 . S
C2735 C1021 1.558 . S
