# Generated by pormake.
# Topology anh, (6,3)-cn, num edge types: 1
# Building blocks:
#     Node 0, Type 0, BuildingBlock: BETDAH_clean_sbu_0, # of connection points: 6
#     Node 1, Type 0, BuildingBlock: BETDAH_clean_sbu_0, # of connection points: 6
#     Node 2, Type 0, BuildingBlock: BETDAH_clean_sbu_0, # of connection points: 6
#     Node 3, Type 1, BuildingBlock: BETDAH_clean_linker_0, # of connection points: 3
#     Node 4, Type 1, BuildingBlock: BETDAH_clean_linker_0, # of connection points: 3
#     Node 5, Type 1, BuildingBlock: BETDAH_clean_linker_0, # of connection points: 3
#     Node 6, Type 1, BuildingBlock: BETDAH_clean_linker_0, # of connection points: 3
#     Node 7, Type 1, BuildingBlock: BETDAH_clean_linker_0, # of connection points: 3
#     Node 8, Type 1, BuildingBlock: BETDAH_clean_linker_0, # of connection points: 3
#     Edge 9, Type (0, 1), BuildingBlock: EYOCIG_clean_linker_4, # of connection points: 2
#     Edge 10, Type (0, 1), BuildingBlock: EYOCIG_clean_linker_4, # of connection points: 2
#     Edge 11, Type (0, 1), BuildingBlock: EYOCIG_clean_linker_4, # of connection points: 2
#     Edge 12, Type (0, 1), BuildingBlock: EYOCIG_clean_linker_4, # of connection points: 2
#     Edge 13, Type (0, 1), BuildingBlock: EYOCIG_clean_linker_4, # of connection points: 2
#     Edge 14, Type (0, 1), BuildingBlock: EYOCIG_clean_linker_4, # of connection points: 2
#     Edge 15, Type (0, 1), BuildingBlock: EYOCIG_clean_linker_4, # of connection points: 2
#     Edge 16, Type (0, 1), BuildingBlock: EYOCIG_clean_linker_4, # of connection points: 2
#     Edge 17, Type (0, 1), BuildingBlock: EYOCIG_clean_linker_4, # of connection points: 2
#     Edge 18, Type (0, 1), BuildingBlock: EYOCIG_clean_linker_4, # of connection points: 2
#     Edge 19, Type (0, 1), BuildingBlock: EYOCIG_clean_linker_4, # of connection points: 2
#     Edge 20, Type (0, 1), BuildingBlock: EYOCIG_clean_linker_4, # of connection points: 2
#     Edge 21, Type (0, 1), BuildingBlock: EYOCIG_clean_linker_4, # of connection points: 2
#     Edge 22, Type (0, 1), BuildingBlock: EYOCIG_clean_linker_4, # of connection points: 2
#     Edge 23, Type (0, 1), BuildingBlock: EYOCIG_clean_linker_4, # of connection points: 2
#     Edge 24, Type (0, 1), BuildingBlock: EYOCIG_clean_linker_4, # of connection points: 2
#     Edge 25, Type (0, 1), BuildingBlock: EYOCIG_clean_linker_4, # of connection points: 2
#     Edge 26, Type (0, 1), BuildingBlock: EYOCIG_clean_linker_4, # of connection points: 2
# Relax obj value: 0.193
# Max RMSD: 0.207
# Mean RMSD: 0.118
data_MOF--net-anh--node1-BETDAH_clean_sbu_0--node2-BETDAH_clean_linker_0--edge1-EYOCIG_clean_linker_4
_symmetry_space_group_name_H-M    P1
_symmetry_Int_Tables_number       1
_symmetry_cell_setting            triclinic
loop_
_symmetry_equiv_pos_as_xyz
'x, y, z'
_cell_length_a     24.774768
_cell_length_b     31.666825
_cell_length_c     38.76406
_cell_angle_alpha  94.807562
_cell_angle_beta   89.415124
_cell_angle_gamma 132.21457
loop_
_atom_site_label
_atom_site_type_symbol
_atom_site_fract_x
_atom_site_fract_y
_atom_site_fract_z
_atom_type_partial_charge
Ho0 Ho 0.18156 0.55568 0.16419 0.0
Ho1 Ho 0.11066 0.58571 0.15721 0.0
C2 C 0.27455 0.69158 0.16326 0.0
C3 C 0.27442 0.54549 0.1646 0.0
C4 C 0.35264 0.59194 0.17002 0.0
C5 C 0.39373 0.62947 0.14461 0.0
C6 C 0.46942 0.6689 0.14868 0.0
C7 C 0.50354 0.66957 0.1776 0.0
C8 C 0.46234 0.64016 0.20569 0.0
C9 C 0.38682 0.60036 0.20164 0.0
C10 C 0.13721 0.56217 0.22678 0.0
C11 C 1.01771 0.4509 0.15664 0.0
C12 C 1.03616 0.60995 0.17397 0.0
C13 C 0.958 0.56426 0.17516 0.0
C14 C 0.92798 0.53071 0.20336 0.0
C15 C 0.85286 0.48955 0.20518 0.0
C16 C 0.80912 0.48305 0.1791 0.0
C17 C 0.83839 0.50648 0.1476 0.0
C18 C 0.91304 0.549 0.14616 0.0
C19 C 0.1189 0.55768 0.09084 0.0
O20 O 0.27768 0.65326 0.17079 0.0
O21 O 0.21221 0.67508 0.15398 0.0
O22 O 0.23873 0.53851 0.19165 0.0
O23 O 0.24473 0.54255 0.13583 0.0
O24 O 0.12305 0.51706 0.21289 0.0
O25 O 0.16889 0.59979 0.20578 0.0
O26 O 1.01646 0.49133 0.16491 0.0
O27 O 1.07923 0.46602 0.14853 0.0
O28 O 1.06101 0.6175 0.14304 0.0
O29 O 1.07396 0.61032 0.19735 0.0
O30 O 1.06686 0.55422 0.10207 0.0
O31 O 0.16868 0.57987 0.11476 0.0
H32 H 0.36814 0.62568 0.12058 0.0
H33 H 0.50026 0.69129 0.12667 0.0
H34 H 0.48774 0.6402 0.22831 0.0
H35 H 0.35555 0.57341 0.22219 0.0
H36 H 0.96195 0.5387 0.22507 0.0
H37 H 0.8304 0.47028 0.22916 0.0
H38 H 0.8043 0.49977 0.12643 0.0
H39 H 0.93507 0.57169 0.12321 0.0
Ho40 Ho 0.64246 0.02879 0.47191 0.0
Ho41 Ho 0.56149 0.06454 0.47804 0.0
C42 C 0.46405 0.93105 0.47221 0.0
C43 C 0.67824 0.97069 0.4799 0.0
C44 C 0.63674 0.90861 0.47623 0.0
C45 C 0.60244 0.87654 0.5047 0.0
C46 C 0.57785 0.8219 0.5038 0.0
C47 C 0.5867 0.79876 0.47444 0.0
C48 C 0.6127 0.82741 0.44456 0.0
C49 C 0.63753 0.88222 0.44541 0.0
C50 C 0.61413 0.0455 0.41056 0.0
C51 C 0.73978 0.16248 0.47628 0.0
C52 C 0.52342 0.12104 0.46898 0.0
C53 C 0.56123 0.18234 0.47419 0.0
C54 C 0.59338 0.21664 0.44643 0.0
C55 C 0.61846 0.27174 0.44999 0.0
C56 C 0.61172 0.29271 0.48133 0.0
C57 C 0.58537 0.26075 0.50978 0.0
C58 C 0.56036 0.20591 0.50631 0.0
C59 C 0.59427 0.05029 0.53962 0.0
O60 O 0.52706 0.94489 0.47654 0.0
O61 O 0.46109 0.97045 0.46813 0.0
O62 O 0.68832 0.99399 0.45142 0.0
O63 O 0.66336 0.99003 0.50582 0.0
O64 O 0.67443 0.05861 0.41927 0.0
O65 O 0.56898 0.02078 0.43394 0.0
O66 O 0.67653 0.14864 0.47305 0.0
O67 O 0.74314 0.12321 0.48033 0.0
O68 O 0.50986 0.0953 0.4968 0.0
O69 O 0.54505 0.10598 0.44399 0.0
O70 O 0.5332 0.0366 0.5318 0.0
O71 O 0.63703 0.0741 0.51544 0.0
H72 H 0.59933 0.89503 0.52856 0.0
H73 H 0.55762 0.79986 0.52703 0.0
H74 H 0.61975 0.80973 0.42168 0.0
H75 H 0.6621 0.90539 0.42281 0.0
H76 H 0.596 0.2 0.42152 0.0
H77 H 0.63965 0.29662 0.42795 0.0
H78 H 0.58079 0.27707 0.53427 0.0
H79 H 0.53717 0.18111 0.52834 0.0
Ho80 Ho 0.73913 0.61809 0.83525 0.0
Ho81 Ho 0.63874 0.49153 0.82364 0.0
C82 C 0.55713 0.5399 0.83375 0.0
C83 C 0.7919 0.72023 0.83222 0.0
C84 C 0.75733 0.7443 0.83484 0.0
C85 C 0.71777 0.73806 0.80598 0.0
C86 C 0.69317 0.7667 0.80691 0.0
C87 C 0.70697 0.80138 0.83671 0.0
C88 C 0.74102 0.80439 0.8666 0.0
C89 C 0.76606 0.77577 0.8657 0.0
C90 C 0.70204 0.56618 0.89175 0.0
C91 C 0.8195 0.56837 0.83466 0.0
C92 C 0.5838 0.38949 0.83004 0.0
C93 C 0.61294 0.3614 0.82585 0.0
C94 C 0.64741 0.36083 0.85428 0.0
C95 C 0.66695 0.32844 0.85114 0.0
C96 C 0.65223 0.2967 0.81961 0.0
C97 C 0.62278 0.30017 0.79064 0.0
C98 C 0.60321 0.33237 0.79369 0.0
C99 C 0.66993 0.54084 0.76508 0.0
O100 O 0.62482 0.59068 0.83245 0.0
O101 O 0.54762 0.49299 0.83334 0.0
O102 O 0.79694 0.70317 0.86057 0.0
O103 O 0.77314 0.68515 0.8045 0.0
O104 O 0.76704 0.61514 0.88911 0.0
O105 O 0.65997 0.54985 0.86609 0.0
O106 O 0.75111 0.51768 0.83191 0.0
O107 O 0.83094 0.61606 0.83395 0.0
O108 O 0.57322 0.4037 0.8018 0.0
O109 O 0.61194 0.42873 0.85642 0.0
O110 O 0.60714 0.49154 0.7701 0.0
O111 O 0.71591 0.56007 0.79013 0.0
H112 H 0.70851 0.71316 0.78207 0.0
H113 H 0.6666 0.76407 0.78369 0.0
H114 H 0.75176 0.83116 0.88985 0.0
H115 H 0.79496 0.78031 0.88859 0.0
H116 H 0.65668 0.3835 0.87927 0.0
H117 H 0.69029 0.32612 0.87359 0.0
H118 H 0.61182 0.27589 0.76603 0.0
H119 H 0.57785 0.3326 0.7712 0.0
H120 H 0.51435 0.95926 0.24404 0.0
H121 H 0.6962 0.13643 0.23038 0.0
H122 H 0.58632 1.0083 0.14185 0.0
C123 C 0.55089 0.99233 0.22705 0.0
C124 C 0.54362 0.97714 0.19142 0.0
C125 C 0.60519 0.0494 0.24117 0.0
C126 C 0.65365 0.09239 0.21932 0.0
C127 C 0.64693 0.07771 0.18318 0.0
C128 C 0.59146 0.01989 0.16952 0.0
N129 N 0.69476 0.11892 0.15965 0.0
C130 C 0.75181 0.17805 0.16768 0.0
H131 H 0.64128 0.48224 0.59297 0.0
H132 H 0.69343 0.64238 0.59361 0.0
H133 H 0.66431 0.55056 0.49697 0.0
C134 C 0.6495 0.51442 0.57914 0.0
C135 C 0.64851 0.51018 0.54283 0.0
C136 C 0.6653 0.56198 0.59761 0.0
C137 C 0.67872 0.60449 0.57957 0.0
C138 C 0.67821 0.60002 0.54329 0.0
C139 C 0.66226 0.55266 0.52499 0.0
N140 N 0.70426 0.64683 0.5254 0.0
C141 C 0.65865 0.65486 0.51544 0.0
H142 H 1.0629 0.56034 0.9177 0.0
H143 H 0.22707 0.54959 0.90839 0.0
H144 H 0.13225 0.55304 0.81656 0.0
C145 C 1.09639 0.55772 0.90119 0.0
C146 C 1.08964 0.55727 0.86516 0.0
C147 C 0.14515 0.55496 0.91668 0.0
C148 C 0.18991 0.55162 0.89606 0.0
C149 C 0.18682 0.55083 0.85969 0.0
C150 C 0.13576 0.55362 0.84443 0.0
N151 N 0.23299 0.5473 0.838 0.0
C152 C 0.28763 0.54469 0.84582 0.0
H153 H 0.21186 0.66648 0.39777 0.0
H154 H 1.0437 0.48635 0.4092 0.0
H155 H 0.16282 0.60973 0.49967 0.0
C156 C 0.18038 0.63198 0.41439 0.0
C157 C 0.19369 0.64506 0.45031 0.0
C158 C 0.12669 0.57533 0.39948 0.0
C159 C 1.08529 0.53015 0.42084 0.0
C160 C 1.09818 0.54217 0.4573 0.0
C161 C 0.15283 0.6 0.47175 0.0
N162 N 1.05766 0.49828 0.48038 0.0
C163 C 1.00263 0.4387 0.47193 0.0
H164 H 0.62324 0.10322 0.7104 0.0
H165 H 0.68183 1.00247 0.7132 0.0
H166 H 0.69085 0.08957 0.80714 0.0
C167 C 0.63823 0.08422 0.72493 0.0
C168 C 0.6529 0.0979 0.76085 0.0
C169 C 0.64763 0.04913 0.70747 0.0
C170 C 0.67076 0.02723 0.72649 0.0
C171 C 0.68614 0.04204 0.76257 0.0
C172 C 0.6759 0.07641 0.77957 0.0
N173 N 0.72675 0.03378 0.78075 0.0
C174 C 0.69704 0.98103 0.7899 0.0
H175 H 0.71721 0.53659 0.05805 0.0
H176 H 0.4867 0.43748 0.03891 0.0
H177 H 0.57373 0.4669 0.14174 0.0
C178 C 0.66278 0.51159 0.06739 0.0
C179 C 0.65165 0.50506 0.10245 0.0
C180 C 0.60189 0.48405 0.04447 0.0
C181 C 0.53217 0.45367 0.05647 0.0
C182 C 0.52243 0.4481 0.09173 0.0
C183 C 0.58173 0.47106 0.1142 0.0
N184 N 0.46139 0.4361 0.10579 0.0
C185 C 0.47728 0.48215 0.12546 0.0
C186 C 0.56105 0.63086 0.16102 0.0
C187 C 0.55561 0.66502 0.16951 0.0
C188 C 0.54297 0.58571 0.15164 0.0
C189 C 0.50547 0.52866 0.13932 0.0
C190 C 0.85406 0.27391 0.47274 0.0
C191 C 0.80537 0.22253 0.47468 0.0
C192 C 0.90847 0.33456 0.47027 0.0
C193 C 0.95505 0.38646 0.46967 0.0
C194 C 0.68158 0.8673 0.82628 0.0
C195 C 0.69484 0.83919 0.83418 0.0
C196 C 0.67496 0.89781 0.81505 0.0
C197 C 0.67989 0.93919 0.80047 0.0
C198 C 0.72844 0.50188 0.1822 0.0
C199 C 0.75385 0.48246 0.18972 0.0
C200 C 0.72462 0.52777 0.15639 0.0
C201 C 0.70793 0.52855 0.12793 0.0
C202 C 0.34946 0.81883 0.47096 0.0
C203 C 0.39835 0.8706 0.4712 0.0
C204 C 0.29491 0.75754 0.46897 0.0
C205 C 0.24823 0.70547 0.4638 0.0
C206 C 0.66112 0.21936 0.80894 0.0
C207 C 0.65998 0.25595 0.81712 0.0
C208 C 0.65659 0.17553 0.79375 0.0
C209 C 0.65454 0.1402 0.77823 0.0
C210 C 0.58213 0.71549 0.48414 0.0
C211 C 0.58484 0.7533 0.47799 0.0
C212 C 0.59734 0.68335 0.49534 0.0
C213 C 0.62391 0.66586 0.50572 0.0
C214 C 0.93093 0.56787 0.84212 0.0
C215 C 0.88227 0.57007 0.83879 0.0
C216 C 0.98768 0.56406 0.84657 0.0
C217 C 1.03488 0.56083 0.85199 0.0
C218 C 0.38538 0.80436 0.16877 0.0
C219 C 0.33773 0.7525 0.16688 0.0
C220 C 0.44025 0.86533 0.17241 0.0
C221 C 0.48846 0.91692 0.17851 0.0
C222 C 0.63191 0.38506 0.4927 0.0
C223 C 0.62504 0.34434 0.48421 0.0
C224 C 0.63607 0.42884 0.50809 0.0
C225 C 0.64176 0.46598 0.52387 0.0
C226 C 0.44354 0.53784 0.84079 0.0
C227 C 0.49364 0.53723 0.83762 0.0
C228 C 0.38512 0.53999 0.84438 0.0
C229 C 0.33632 0.54226 0.84635 0.0
C230 C 0.90756 0.3407 0.1651 0.0
C231 C 0.95614 0.39134 0.16161 0.0
C232 C 0.85961 0.28991 0.16835 0.0
C233 C 0.80198 0.22973 0.17006 0.0
C234 C 0.13884 0.55726 0.02267 0.0
C235 C 0.13111 0.55779 0.05382 0.0
C236 C 0.14561 0.55642 0.98585 0.0
C237 C 0.14806 0.55559 0.95439 0.0
C238 C 0.59801 0.0554 0.34548 0.0
C239 C 0.59804 0.04852 0.37571 0.0
C240 C 0.60523 0.0618 0.30949 0.0
C241 C 0.61041 0.06147 0.27841 0.0
C242 C 0.6883 0.57103 0.70192 0.0
C243 C 0.68696 0.56195 0.73166 0.0
C244 C 0.6818 0.57274 0.66601 0.0
C245 C 0.67485 0.56969 0.63491 0.0
C246 C 0.62486 0.04338 0.60326 0.0
C247 C 0.61423 0.04768 0.57382 0.0
C248 C 0.63387 0.04021 0.63884 0.0
C249 C 0.64124 0.04183 0.66991 0.0
C250 C 0.65119 0.51525 0.94746 0.0
C251 C 0.67618 0.53958 0.92231 0.0
C252 C 0.62547 0.49607 0.97934 0.0
C253 C 0.61152 0.48913 0.00877 0.0
C254 C 0.12406 0.57062 0.29443 0.0
C255 C 0.13228 0.57118 0.26352 0.0
C256 C 0.1168 0.56647 0.33075 0.0
C257 C 0.11669 0.5657 0.36196 0.0
loop_
_geom_bond_atom_site_label_1
_geom_bond_atom_site_label_2
_geom_bond_distance
_geom_bond_site_symmetry_2
_ccdc_geom_bond_type
Ho0 C3 2.811 . S
Ho0 O20 2.322 . S
Ho0 O22 2.378 . S
Ho0 O23 2.524 . S
Ho0 O24 2.381 . S
Ho0 O25 2.669 . S
Ho0 O27 2.346 1_455 S
Ho0 O31 2.305 . S
Ho1 C12 2.811 1_455 S
Ho1 O21 2.346 . S
Ho1 O25 2.305 . S
Ho1 O26 2.322 1_455 S
Ho1 O28 2.378 1_455 S
Ho1 O29 2.524 1_455 S
Ho1 O30 2.381 . S
Ho1 O31 2.669 . S
C2 O20 1.259 . S
C2 O21 1.268 . S
C3 Ho0 2.811 . S
C3 C4 1.488 . S
C3 O22 1.215 . S
C3 O23 1.289 . S
C4 C3 1.488 . S
C4 C5 1.348 . S
C4 C9 1.413 . S
C5 C4 1.348 . S
C5 C6 1.442 . S
C5 H32 0.930 . S
C6 C5 1.442 . S
C6 C7 1.381 . S
C6 H33 0.931 . S
C7 C6 1.381 . S
C7 C8 1.321 . S
C8 C7 1.321 . S
C8 C9 1.403 . S
C8 H34 0.934 . S
C9 C4 1.413 . S
C9 C8 1.403 . S
C9 H35 0.930 . S
C10 O24 1.275 . S
C10 O25 1.256 . S
C11 O26 1.259 . S
C11 O27 1.268 . S
C12 Ho1 2.811 1_655 S
C12 C13 1.488 . S
C12 O28 1.215 . S
C12 O29 1.289 . S
C13 C12 1.488 . S
C13 C14 1.348 . S
C13 C18 1.413 . S
C14 C13 1.348 . S
C14 C15 1.442 . S
C14 H36 0.930 . S
C15 C14 1.442 . S
C15 C16 1.381 . S
C15 H37 0.931 . S
C16 C15 1.381 . S
C16 C17 1.321 . S
C17 C16 1.321 . S
C17 C18 1.403 . S
C17 H38 0.934 . S
C18 C13 1.413 . S
C18 C17 1.403 . S
C18 H39 0.930 . S
C19 O30 1.275 . S
C19 O31 1.256 . S
O20 Ho0 2.322 . S
O20 C2 1.259 . S
O21 Ho1 2.346 . S
O21 C2 1.268 . S
O22 Ho0 2.378 . S
O22 C3 1.215 . S
O23 Ho0 2.524 . S
O23 C3 1.289 . S
O24 Ho0 2.381 . S
O24 C10 1.275 . S
O25 Ho0 2.669 . S
O25 Ho1 2.305 . S
O25 C10 1.256 . S
O26 Ho1 2.322 1_655 S
O26 C11 1.259 . S
O27 Ho0 2.346 1_655 S
O27 C11 1.268 . S
O28 Ho1 2.378 1_655 S
O28 C12 1.215 . S
O29 Ho1 2.524 1_655 S
O29 C12 1.289 . S
O30 Ho1 2.381 . S
O30 C19 1.275 . S
O31 Ho0 2.305 . S
O31 Ho1 2.669 . S
O31 C19 1.256 . S
H32 C5 0.930 . S
H33 C6 0.931 . S
H34 C8 0.934 . S
H35 C9 0.930 . S
H36 C14 0.930 . S
H37 C15 0.931 . S
H38 C17 0.934 . S
H39 C18 0.930 . S
Ho40 C43 2.811 1_545 S
Ho40 O60 2.322 1_545 S
Ho40 O62 2.378 1_545 S
Ho40 O63 2.524 1_545 S
Ho40 O64 2.381 . S
Ho40 O65 2.669 . S
Ho40 O67 2.346 . S
Ho40 O71 2.305 . S
Ho41 C52 2.811 . S
Ho41 O61 2.346 1_545 S
Ho41 O65 2.305 . S
Ho41 O66 2.322 . S
Ho41 O68 2.378 . S
Ho41 O69 2.524 . S
Ho41 O70 2.381 . S
Ho41 O71 2.669 . S
C42 O60 1.259 . S
C42 O61 1.268 . S
C43 Ho40 2.811 1_565 S
C43 C44 1.488 . S
C43 O62 1.215 . S
C43 O63 1.289 . S
C44 C43 1.488 . S
C44 C45 1.348 . S
C44 C49 1.413 . S
C45 C44 1.348 . S
C45 C46 1.442 . S
C45 H72 0.930 . S
C46 C45 1.442 . S
C46 C47 1.381 . S
C46 H73 0.931 . S
C47 C46 1.381 . S
C47 C48 1.321 . S
C48 C47 1.321 . S
C48 C49 1.403 . S
C48 H74 0.934 . S
C49 C44 1.413 . S
C49 C48 1.403 . S
C49 H75 0.930 . S
C50 O64 1.275 . S
C50 O65 1.256 . S
C51 O66 1.259 . S
C51 O67 1.268 . S
C52 Ho41 2.811 . S
C52 C53 1.488 . S
C52 O68 1.215 . S
C52 O69 1.289 . S
C53 C52 1.488 . S
C53 C54 1.348 . S
C53 C58 1.413 . S
C54 C53 1.348 . S
C54 C55 1.442 . S
C54 H76 0.930 . S
C55 C54 1.442 . S
C55 C56 1.381 . S
C55 H77 0.931 . S
C56 C55 1.381 . S
C56 C57 1.321 . S
C57 C56 1.321 . S
C57 C58 1.403 . S
C57 H78 0.934 . S
C58 C53 1.413 . S
C58 C57 1.403 . S
C58 H79 0.930 . S
C59 O70 1.275 . S
C59 O71 1.256 . S
O60 Ho40 2.322 1_565 S
O60 C42 1.259 . S
O61 Ho41 2.346 1_565 S
O61 C42 1.268 . S
O62 Ho40 2.378 1_565 S
O62 C43 1.215 . S
O63 Ho40 2.524 1_565 S
O63 C43 1.289 . S
O64 Ho40 2.381 . S
O64 C50 1.275 . S
O65 Ho40 2.669 . S
O65 Ho41 2.305 . S
O65 C50 1.256 . S
O66 Ho41 2.322 . S
O66 C51 1.259 . S
O67 Ho40 2.346 . S
O67 C51 1.268 . S
O68 Ho41 2.378 . S
O68 C52 1.215 . S
O69 Ho41 2.524 . S
O69 C52 1.289 . S
O70 Ho41 2.381 . S
O70 C59 1.275 . S
O71 Ho40 2.305 . S
O71 Ho41 2.669 . S
O71 C59 1.256 . S
H72 C45 0.930 . S
H73 C46 0.931 . S
H74 C48 0.934 . S
H75 C49 0.930 . S
H76 C54 0.930 . S
H77 C55 0.931 . S
H78 C57 0.934 . S
H79 C58 0.930 . S
Ho80 C83 2.811 . S
Ho80 O100 2.322 . S
Ho80 O102 2.378 . S
Ho80 O103 2.524 . S
Ho80 O104 2.381 . S
Ho80 O105 2.669 . S
Ho80 O107 2.346 . S
Ho80 O111 2.305 . S
Ho81 C92 2.811 . S
Ho81 O101 2.346 . S
Ho81 O105 2.305 . S
Ho81 O106 2.322 . S
Ho81 O108 2.378 . S
Ho81 O109 2.524 . S
Ho81 O110 2.381 . S
Ho81 O111 2.669 . S
C82 O100 1.259 . S
C82 O101 1.268 . S
C83 Ho80 2.811 . S
C83 C84 1.488 . S
C83 O102 1.215 . S
C83 O103 1.289 . S
C84 C83 1.488 . S
C84 C85 1.348 . S
C84 C89 1.413 . S
C85 C84 1.348 . S
C85 C86 1.442 . S
C85 H112 0.930 . S
C86 C85 1.442 . S
C86 C87 1.381 . S
C86 H113 0.931 . S
C87 C86 1.381 . S
C87 C88 1.321 . S
C88 C87 1.321 . S
C88 C89 1.403 . S
C88 H114 0.934 . S
C89 C84 1.413 . S
C89 C88 1.403 . S
C89 H115 0.930 . S
C90 O104 1.275 . S
C90 O105 1.256 . S
C91 O106 1.259 . S
C91 O107 1.268 . S
C92 Ho81 2.811 . S
C92 C93 1.488 . S
C92 O108 1.215 . S
C92 O109 1.289 . S
C93 C92 1.488 . S
C93 C94 1.348 . S
C93 C98 1.413 . S
C94 C93 1.348 . S
C94 C95 1.442 . S
C94 H116 0.930 . S
C95 C94 1.442 . S
C95 C96 1.381 . S
C95 H117 0.931 . S
C96 C95 1.381 . S
C96 C97 1.321 . S
C97 C96 1.321 . S
C97 C98 1.403 . S
C97 H118 0.934 . S
C98 C93 1.413 . S
C98 C97 1.403 . S
C98 H119 0.930 . S
C99 O110 1.275 . S
C99 O111 1.256 . S
O100 Ho80 2.322 . S
O100 C82 1.259 . S
O101 Ho81 2.346 . S
O101 C82 1.268 . S
O102 Ho80 2.378 . S
O102 C83 1.215 . S
O103 Ho80 2.524 . S
O103 C83 1.289 . S
O104 Ho80 2.381 . S
O104 C90 1.275 . S
O105 Ho80 2.669 . S
O105 Ho81 2.305 . S
O105 C90 1.256 . S
O106 Ho81 2.322 . S
O106 C91 1.259 . S
O107 Ho80 2.346 . S
O107 C91 1.268 . S
O108 Ho81 2.378 . S
O108 C92 1.215 . S
O109 Ho81 2.524 . S
O109 C92 1.289 . S
O110 Ho81 2.381 . S
O110 C99 1.275 . S
O111 Ho80 2.305 . S
O111 Ho81 2.669 . S
O111 C99 1.256 . S
H112 C85 0.930 . S
H113 C86 0.931 . S
H114 C88 0.934 . S
H115 C89 0.930 . S
H116 C94 0.930 . S
H117 C95 0.931 . S
H118 C97 0.934 . S
H119 C98 0.930 . S
H120 C123 0.929 . S
H121 C126 0.929 . S
H122 C128 0.930 . S
C123 H120 0.929 . S
C123 C124 1.398 . S
C123 C125 1.396 1_565 S
C124 C123 1.398 . S
C124 C128 1.407 1_565 S
C125 C123 1.396 1_545 S
C125 C126 1.394 . S
C126 H121 0.929 . S
C126 C125 1.394 . S
C126 C127 1.382 . S
C127 C126 1.382 . S
C127 C128 1.392 . S
C127 N129 1.420 . S
C128 H122 0.930 . S
C128 C124 1.407 1_545 S
C128 C127 1.392 . S
N129 C127 1.420 . S
N129 C130 1.244 . S
C130 N129 1.244 . S
H131 C134 0.929 . S
H132 C137 0.929 . S
H133 C139 0.930 . S
C134 H131 0.929 . S
C134 C135 1.398 . S
C134 C136 1.396 . S
C135 C134 1.398 . S
C135 C139 1.407 . S
C136 C134 1.396 . S
C136 C137 1.394 . S
C137 H132 0.929 . S
C137 C136 1.394 . S
C137 C138 1.382 . S
C138 C137 1.382 . S
C138 C139 1.392 . S
C138 N140 1.420 . S
C139 H133 0.930 . S
C139 C135 1.407 . S
C139 C138 1.392 . S
N140 C138 1.420 . S
N140 C141 1.244 . S
C141 N140 1.244 . S
H142 C145 0.929 1_655 S
H143 C148 0.929 . S
H144 C150 0.930 . S
C145 H142 0.929 1_455 S
C145 C146 1.398 . S
C145 C147 1.396 . S
C146 C145 1.398 . S
C146 C150 1.407 . S
C147 C145 1.396 . S
C147 C148 1.394 . S
C148 H143 0.929 . S
C148 C147 1.394 . S
C148 C149 1.382 . S
C149 C148 1.382 . S
C149 C150 1.392 . S
C149 N151 1.420 . S
C150 H144 0.930 . S
C150 C146 1.407 . S
C150 C149 1.392 . S
N151 C149 1.420 . S
N151 C152 1.244 . S
C152 N151 1.244 . S
H153 C156 0.929 . S
H154 C159 0.929 . S
H155 C161 0.930 . S
C156 H153 0.929 . S
C156 C157 1.398 . S
C156 C158 1.396 . S
C157 C156 1.398 . S
C157 C161 1.407 . S
C158 C156 1.396 . S
C158 C159 1.394 1_455 S
C159 H154 0.929 . S
C159 C158 1.394 1_655 S
C159 C160 1.382 . S
C160 C159 1.382 . S
C160 C161 1.392 1_655 S
C160 N162 1.420 . S
C161 H155 0.930 . S
C161 C157 1.407 . S
C161 C160 1.392 1_455 S
N162 C160 1.420 . S
N162 C163 1.244 . S
C163 N162 1.244 . S
H164 C167 0.929 . S
H165 C170 0.929 1_565 S
H166 C172 0.930 . S
C167 H164 0.929 . S
C167 C168 1.398 . S
C167 C169 1.396 . S
C168 C167 1.398 . S
C168 C172 1.407 . S
C169 C167 1.396 . S
C169 C170 1.394 . S
C170 H165 0.929 1_545 S
C170 C169 1.394 . S
C170 C171 1.382 . S
C171 C170 1.382 . S
C171 C172 1.392 . S
C171 N173 1.420 . S
C172 H166 0.930 . S
C172 C168 1.407 . S
C172 C171 1.392 . S
N173 C171 1.420 . S
N173 C174 1.244 1_545 S
C174 N173 1.244 1_565 S
H175 C178 0.929 . S
H176 C181 0.929 . S
H177 C183 0.930 . S
C178 H175 0.929 . S
C178 C179 1.398 . S
C178 C180 1.396 . S
C179 C178 1.398 . S
C179 C183 1.407 . S
C180 C178 1.396 . S
C180 C181 1.394 . S
C181 H176 0.929 . S
C181 C180 1.394 . S
C181 C182 1.382 . S
C182 C181 1.382 . S
C182 C183 1.392 . S
C182 N184 1.420 . S
C183 H177 0.930 . S
C183 C179 1.407 . S
C183 C182 1.392 . S
N184 C182 1.420 . S
N184 C185 1.244 . S
C185 N184 1.244 . S
C186 C187 1.170 . S
C186 C188 1.380 . S
C187 C186 1.170 . S
C188 C186 1.380 . S
C188 C189 1.170 . S
C189 C188 1.170 . S
C190 C191 1.170 . S
C190 C192 1.380 . S
C191 C190 1.170 . S
C192 C190 1.380 . S
C192 C193 1.170 . S
C193 C192 1.170 . S
C194 C195 1.170 . S
C194 C196 1.380 . S
C195 C194 1.170 . S
C196 C194 1.380 . S
C196 C197 1.170 . S
C197 C196 1.170 . S
C198 C199 1.170 . S
C198 C200 1.380 . S
C199 C198 1.170 . S
C200 C198 1.380 . S
C200 C201 1.170 . S
C201 C200 1.170 . S
C202 C203 1.170 . S
C202 C204 1.380 . S
C203 C202 1.170 . S
C204 C202 1.380 . S
C204 C205 1.170 . S
C205 C204 1.170 . S
C206 C207 1.170 . S
C206 C208 1.380 . S
C207 C206 1.170 . S
C208 C206 1.380 . S
C208 C209 1.170 . S
C209 C208 1.170 . S
C210 C211 1.170 . S
C210 C212 1.380 . S
C211 C210 1.170 . S
C212 C210 1.380 . S
C212 C213 1.170 . S
C213 C212 1.170 . S
C214 C215 1.170 . S
C214 C216 1.380 . S
C215 C214 1.170 . S
C216 C214 1.380 . S
C216 C217 1.170 . S
C217 C216 1.170 . S
C218 C219 1.170 . S
C218 C220 1.380 . S
C219 C218 1.170 . S
C220 C218 1.380 . S
C220 C221 1.170 . S
C221 C220 1.170 . S
C222 C223 1.170 . S
C222 C224 1.380 . S
C223 C222 1.170 . S
C224 C222 1.380 . S
C224 C225 1.170 . S
C225 C224 1.170 . S
C226 C227 1.170 . S
C226 C228 1.380 . S
C227 C226 1.170 . S
C228 C226 1.380 . S
C228 C229 1.170 . S
C229 C228 1.170 . S
C230 C231 1.170 . S
C230 C232 1.380 . S
C231 C230 1.170 . S
C232 C230 1.380 . S
C232 C233 1.170 . S
C233 C232 1.170 . S
C234 C235 1.170 . S
C234 C236 1.379 1_554 S
C235 C234 1.170 . S
C236 C234 1.379 1_556 S
C236 C237 1.171 . S
C237 C236 1.171 . S
C238 C239 1.170 . S
C238 C240 1.380 . S
C239 C238 1.170 . S
C240 C238 1.380 . S
C240 C241 1.170 . S
C241 C240 1.170 . S
C242 C243 1.170 . S
C242 C244 1.380 . S
C243 C242 1.170 . S
C244 C242 1.380 . S
C244 C245 1.170 . S
C245 C244 1.170 . S
C246 C247 1.170 . S
C246 C248 1.380 . S
C247 C246 1.170 . S
C248 C246 1.380 . S
C248 C249 1.170 . S
C249 C248 1.170 . S
C250 C251 1.170 . S
C250 C252 1.380 . S
C251 C250 1.170 . S
C252 C250 1.380 . S
C252 C253 1.170 1_556 S
C253 C252 1.170 1_554 S
C254 C255 1.170 . S
C254 C256 1.380 . S
C255 C254 1.170 . S
C256 C254 1.380 . S
C256 C257 1.170 . S
C257 C256 1.170 . S
C187 C7 1.067 . S
C189 C185 1.058 . S
C191 C51 1.962 . S
C193 C163 1.904 . S
C195 C87 1.389 . S
C197 C174 1.411 . S
C199 C16 0.589 . S
C201 C179 0.474 . S
C205 C157 1.880 . S
C203 C42 1.916 . S
C209 C168 1.233 . S
C207 C96 1.215 . S
C211 C47 1.363 . S
C213 C141 1.382 . S
C215 C91 3.079 . S
C217 C146 3.028 1_655 S
C219 C2 1.925 . S
C221 C124 1.925 . S
C225 C135 1.244 . S
C223 C56 1.214 . S
C229 C152 3.040 . S
C227 C82 3.081 . S
C231 C11 1.979 . S
C233 C130 1.932 . S
C237 C147 1.752 . S
C235 C19 1.726 . S
C239 C50 1.378 . S
C241 C125 1.462 . S
C243 C99 1.494 . S
C245 C136 1.528 . S
C249 C169 1.505 . S
C247 C59 1.500 . S
C253 C180 1.206 . S
C251 C90 1.217 . S
C255 C10 1.386 . S
C257 C158 1.416 . S
