# Generated by pormake.
# Topology rtl, (3,6)-cn, num edge types: 1
# Building blocks:
#     Node 0, Type 0, BuildingBlock: QEWDON_clean_linker_0, # of connection points: 3
#     Node 1, Type 0, BuildingBlock: QEWDON_clean_linker_0, # of connection points: 3
#     Node 2, Type 0, BuildingBlock: QEWDON_clean_linker_0, # of connection points: 3
#     Node 3, Type 0, BuildingBlock: QEWDON_clean_linker_0, # of connection points: 3
#     Node 4, Type 1, BuildingBlock: LEVNOQ01_clean_sbu_1, # of connection points: 6
#     Node 5, Type 1, BuildingBlock: LEVNOQ01_clean_sbu_1, # of connection points: 6
#     Edge 6, Type (0, 1), BuildingBlock: KIFKEQ_clean_linker_1, # of connection points: 2
#     Edge 7, Type (0, 1), BuildingBlock: KIFKEQ_clean_linker_1, # of connection points: 2
#     Edge 8, Type (0, 1), BuildingBlock: KIFKEQ_clean_linker_1, # of connection points: 2
#     Edge 9, Type (0, 1), BuildingBlock: KIFKEQ_clean_linker_1, # of connection points: 2
#     Edge 10, Type (0, 1), BuildingBlock: KIFKEQ_clean_linker_1, # of connection points: 2
#     Edge 11, Type (0, 1), BuildingBlock: KIFKEQ_clean_linker_1, # of connection points: 2
#     Edge 12, Type (0, 1), BuildingBlock: KIFKEQ_clean_linker_1, # of connection points: 2
#     Edge 13, Type (0, 1), BuildingBlock: KIFKEQ_clean_linker_1, # of connection points: 2
#     Edge 14, Type (0, 1), BuildingBlock: KIFKEQ_clean_linker_1, # of connection points: 2
#     Edge 15, Type (0, 1), BuildingBlock: KIFKEQ_clean_linker_1, # of connection points: 2
#     Edge 16, Type (0, 1), BuildingBlock: KIFKEQ_clean_linker_1, # of connection points: 2
#     Edge 17, Type (0, 1), BuildingBlock: KIFKEQ_clean_linker_1, # of connection points: 2
# Relax obj value: 0.038
# Max RMSD: 0.175
# Mean RMSD: 0.137
data_MOF--net-rtl--node1-LEVNOQ01_clean_sbu_1--node2-QEWDON_clean_linker_0--edge1-KIFKEQ_clean_linker_1
_symmetry_space_group_name_H-M    P1
_symmetry_Int_Tables_number       1
_symmetry_cell_setting            triclinic
loop_
_symmetry_equiv_pos_as_xyz
'x, y, z'
_cell_length_a     37.849775
_cell_length_b     37.900824
_cell_length_c     22.221699
_cell_angle_alpha  91.514136
_cell_angle_beta   100.4246
_cell_angle_gamma 90.523796
loop_
_atom_site_label
_atom_site_type_symbol
_atom_site_fract_x
_atom_site_fract_y
_atom_site_fract_z
_atom_type_partial_charge
H0 H 0.22824 0.87618 0.19734 0.0
C1 C 0.21591 0.87633 0.14934 0.0
C2 C 0.18017 0.88702 0.13254 0.0
C3 C 0.23609 0.86615 0.1047 0.0
H4 H 0.1376 0.89712 0.05693 0.0
C5 C 0.16462 0.8873 0.07024 0.0
C6 C 0.18448 0.8779 0.02473 0.0
C7 C 0.22027 0.86697 0.04233 0.0
C8 C 0.27461 0.85784 0.12404 0.0
H9 H 0.23613 0.86034 0.00771 0.0
C10 C 0.28824 0.82458 0.11105 0.0
C11 C 0.32453 0.81642 0.13366 0.0
C12 C 0.29762 0.88313 0.1586 0.0
H13 H 0.28768 0.90887 0.16911 0.0
C14 C 0.33359 0.87552 0.17984 0.0
H15 H 0.27033 0.8048 0.08544 0.0
C16 C 0.34699 0.84245 0.16768 0.0
H17 H 0.3751 0.83737 0.18454 0.0
H18 H 0.35116 0.89529 0.20611 0.0
H19 H 0.72681 0.71921 0.51634 0.0
C20 C 0.71034 0.7108 0.5486 0.0
C21 C 0.67472 0.69904 0.52703 0.0
C22 C 0.72521 0.71016 0.61147 0.0
H23 H 0.62694 0.67732 0.55263 0.0
C24 C 0.65408 0.68701 0.56915 0.0
C25 C 0.66858 0.68558 0.63182 0.0
C26 C 0.70393 0.6978 0.6526 0.0
C27 C 0.76383 0.71911 0.63435 0.0
H28 H 0.71547 0.69643 0.70079 0.0
C29 C 0.78001 0.75015 0.61732 0.0
C30 C 0.81644 0.75854 0.64154 0.0
C31 C 0.78471 0.69626 0.67477 0.0
H32 H 0.77331 0.67194 0.6879 0.0
C33 C 0.82055 0.70434 0.69861 0.0
H34 H 0.76421 0.76773 0.58575 0.0
C35 C 0.83627 0.73525 0.68257 0.0
H36 H 0.86394 0.7411 0.70314 0.0
H37 H 0.8362 0.68662 0.73005 0.0
H38 H 0.78558 0.19505 0.07873 0.0
C39 C 0.79894 0.19202 0.03975 0.0
C40 C 0.83565 0.18327 0.04841 0.0
C41 C 0.77874 0.19459 0.98034 0.0
H42 H 0.88001 0.17201 1.00239 0.0
C43 C 0.85181 0.17847 0.99652 0.0
C44 C 0.83177 0.18039 0.93699 0.0
C45 C 0.7952 0.18849 0.9294 0.0
C46 C 0.73955 0.2001 0.97036 0.0
H47 H 0.77933 0.18989 0.88374 0.0
C48 C 0.7253 0.23376 0.97783 0.0
C49 C 0.68785 0.23916 0.96294 0.0
C50 C 0.71631 0.17169 0.94882 0.0
H51 H 0.7269 0.14567 0.94228 0.0
C52 C 0.67933 0.17668 0.93485 0.0
H53 H 0.7434 0.25561 0.9945 0.0
C54 C 0.66516 0.21012 0.94147 0.0
H55 H 0.63641 0.21329 0.92853 0.0
H56 H 0.66159 0.15464 0.91793 0.0
H57 H 0.35768 0.28396 0.57271 0.0
C58 C 0.365 0.30217 0.54007 0.0
C59 C 0.37845 0.33598 0.56013 0.0
C60 C 0.36189 0.29164 0.47806 0.0
H61 H 0.39816 0.38547 0.53392 0.0
C62 C 0.38828 0.35933 0.5179 0.0
C63 C 0.38667 0.34898 0.45625 0.0
C64 C 0.37311 0.31506 0.43678 0.0
C65 C 0.34933 0.25544 0.45639 0.0
H66 H 0.37203 0.30635 0.38965 0.0
C67 C 0.31618 0.24165 0.46644 0.0
C68 C 0.30405 0.20772 0.44306 0.0
C69 C 0.37042 0.23481 0.42354 0.0
H70 H 0.39606 0.24468 0.41549 0.0
C71 C 0.35876 0.20125 0.40088 0.0
H72 H 0.29982 0.25742 0.49184 0.0
C73 C 0.32584 0.18781 0.41028 0.0
H74 H 0.31719 0.16196 0.39094 0.0
H75 H 0.3752 0.18566 0.37547 0.0
O76 O 0.01377 0.10571 0.66188 0.0
Mg77 Mg 0.05493 0.07699 0.63502 0.0
O78 O 0.97789 0.06816 0.6026 0.0
Mg79 Mg 0.01226 0.0374 0.53896 0.0
O80 O 0.06139 0.0791 0.54492 0.0
O81 O 0.09396 0.11045 0.62386 0.0
O82 O 0.04232 1.00641 0.473 0.0
O83 O 0.98732 0.07803 0.46018 0.0
Mg84 Mg 0.96221 0.01786 0.45697 0.0
O85 O 0.96582 0.99161 0.53653 0.0
O86 O 0.99765 1.00511 0.39497 0.0
O87 O 0.931 0.06342 0.44903 0.0
O88 O 0.9264 0.97826 0.4502 0.0
C89 C 0.06376 1.00329 0.66575 0.0
C90 C 0.98262 0.09364 0.64208 0.0
C91 C 0.08697 0.10206 0.56632 0.0
C92 C 0.0303 0.99922 0.41672 0.0
C93 C 0.95446 0.0854 0.44062 0.0
C94 C 0.93874 0.97273 0.50697 0.0
O95 O 0.07554 0.03347 0.68537 0.0
O96 O 0.04084 0.99977 0.61611 0.0
O97 O 0.59236 0.56733 0.11821 0.0
Mg98 Mg 0.56604 0.51815 0.11526 0.0
O99 O 0.53557 0.57599 0.11511 0.0
Mg100 Mg 0.51036 0.5313 0.03928 0.0
O101 O 0.55751 0.48864 0.03614 0.0
O102 O 0.60446 0.48238 0.11297 0.0
O103 O 0.48467 0.48589 0.96493 0.0
O104 O 0.53611 0.5621 0.96842 0.0
Mg105 Mg 0.45738 0.54723 0.95732 0.0
O106 O 0.46242 0.57349 0.04052 0.0
O107 O 0.42833 0.4999 0.94438 0.0
O108 O 0.4898 0.56282 0.89338 0.0
O109 O 0.42012 0.58405 0.9581 0.0
C110 C 0.50239 0.49447 0.16611 0.0
C111 C 0.568 0.58702 0.13046 0.0
C112 C 0.58719 0.4729 0.05956 0.0
C113 C 0.45221 0.47748 0.94163 0.0
C114 C 0.52272 0.5694 0.91348 0.0
C115 C 0.43414 0.59063 0.01451 0.0
O116 O 0.53537 0.50271 0.18237 0.0
O117 O 0.48643 0.50062 0.1119 0.0
H118 H 0.23947 0.24153 0.43378 0.0
H119 H 0.28842 0.14007 0.47106 0.0
H120 H 0.18161 0.2167 0.44674 0.0
H121 H 0.23083 0.11534 0.48418 0.0
H122 H 0.11979 0.07184 0.47717 0.0
H123 H 0.16963 0.09821 0.43574 0.0
H124 H 0.15586 0.19665 0.5309 0.0
H125 H 0.10643 0.17055 0.57094 0.0
C126 C 0.23795 0.214 0.44506 0.0
C127 C 0.26869 0.1929 0.45168 0.0
C128 C 0.20472 0.19967 0.4521 0.0
C129 C 0.2014 0.1639 0.46617 0.0
C130 C 0.23209 0.14275 0.472 0.0
C131 C 0.26524 0.15704 0.4649 0.0
C132 C 0.1267 0.09945 0.48713 0.0
C133 C 0.10938 0.11918 0.52723 0.0
C134 C 0.15552 0.11445 0.46423 0.0
C135 C 0.16715 0.14948 0.48067 0.0
C136 C 0.14767 0.16979 0.51679 0.0
C137 C 0.1193 0.15478 0.53991 0.0
H138 H 0.37063 0.77676 0.21377 0.0
H139 H 0.31211 0.77595 0.02785 0.0
H140 H 0.39683 0.71995 0.19388 0.0
H141 H 0.33826 0.71934 0.00797 0.0
H142 H 0.36374 0.60588 0.99879 0.0
H143 H 0.33632 0.65839 0.03385 0.0
H144 H 0.43954 0.6931 0.13579 0.0
H145 H 0.46697 0.63942 0.10154 0.0
C146 C 0.36344 0.76453 0.16854 0.0
C147 C 0.33924 0.78099 0.12232 0.0
C148 C 0.3785 0.73195 0.15721 0.0
C149 C 0.36962 0.71493 0.09946 0.0
C150 C 0.34521 0.7313 0.05343 0.0
C151 C 0.33017 0.76383 0.06475 0.0
C152 C 0.38051 0.62439 0.02965 0.0
C153 C 0.41755 0.61876 0.04699 0.0
C154 C 0.36483 0.65469 0.04929 0.0
C155 C 0.38583 0.68048 0.08631 0.0
C156 C 0.42256 0.67378 0.10718 0.0
C157 C 0.43831 0.64304 0.0878 0.0
H158 H 0.88534 0.76726 0.62121 0.0
H159 H 0.78783 0.82487 0.62594 0.0
H160 H 0.91512 0.82135 0.59898 0.0
H161 H 0.8176 0.87892 0.60237 0.0
H162 H 0.86971 0.95054 0.47517 0.0
H163 H 0.84042 0.90073 0.51296 0.0
H164 H 0.93708 0.88121 0.6433 0.0
H165 H 0.96683 0.93175 0.60487 0.0
C166 C 0.87028 0.7915 0.6181 0.0
C167 C 0.83406 0.79156 0.62547 0.0
C168 C 0.88748 0.82256 0.60555 0.0
C169 C 0.86886 0.85451 0.59934 0.0
C170 C 0.83266 0.85467 0.60654 0.0
C171 C 0.81549 0.82361 0.61956 0.0
C172 C 0.88474 0.93592 0.51238 0.0
C173 C 0.92074 0.94491 0.53671 0.0
C174 C 0.86777 0.90746 0.53434 0.0
C175 C 0.88638 0.88688 0.58098 0.0
C176 C 0.92212 0.89644 0.60689 0.0
C177 C 0.93908 0.92545 0.5853 0.0
H178 H 0.71499 0.30328 0.93632 0.0
H179 H 0.62508 0.25616 1.00153 0.0
H180 H 0.68941 0.36161 0.94617 0.0
H181 H 0.5993 0.31429 0.00997 0.0
H182 H 0.54914 0.42214 0.98302 0.0
H183 H 0.57263 0.3661 0.94963 0.0
H184 H 0.67999 0.39933 0.0344 0.0
H185 H 0.6567 0.4547 0.06741 0.0
C186 C 0.68987 0.30528 0.95291 0.0
C187 C 0.67227 0.27489 0.96843 0.0
C188 C 0.67506 0.33871 0.95803 0.0
C189 C 0.64219 0.34255 0.97841 0.0
C190 C 0.62428 0.31218 0.99291 0.0
C191 C 0.63919 0.27882 0.98825 0.0
C192 C 0.57782 0.41772 0.99296 0.0
C193 C 0.60108 0.44261 0.02809 0.0
C194 C 0.59124 0.38558 0.97444 0.0
C195 C 0.62815 0.37818 0.98988 0.0
C196 C 0.65151 0.40422 0.0214 0.0
C197 C 0.63812 0.43592 0.04054 0.0
H198 H 0.20358 0.93268 0.2293 0.0
H199 H 0.11039 0.87238 0.14072 0.0
H200 H 0.16836 0.95926 0.29994 0.0
H201 H 0.07523 0.89854 0.21173 0.0
H202 H 0.01315 0.98345 0.29432 0.0
H203 H 0.05026 0.95512 0.22921 0.0
H204 H 0.13715 0.94867 0.38397 0.0
H205 H 0.10015 0.97795 0.44917 0.0
C206 C 0.17574 0.9246 0.22569 0.0
C207 C 0.15971 0.90054 0.17927 0.0
C208 C 0.15552 0.93986 0.26616 0.0
C209 C 0.11885 0.93132 0.26121 0.0
C210 C 0.1032 0.90632 0.21603 0.0
C211 C 0.12336 0.8912 0.17547 0.0
C212 C 0.04019 0.9761 0.31459 0.0
C213 C 0.05362 0.98292 0.37707 0.0
C214 C 0.06141 0.95955 0.27727 0.0
C215 C 0.0966 0.94924 0.3014 0.0
C216 C 0.11025 0.95646 0.36377 0.0
C217 C 0.089 0.97314 0.4012 0.0
H218 H 0.62653 0.62589 0.61124 0.0
H219 H 0.66397 0.70658 0.74969 0.0
H220 H 0.59229 0.59805 0.68008 0.0
H221 H 0.62988 0.67821 0.81918 0.0
H222 H 0.59218 0.59444 0.9441 0.0
H223 H 0.62809 0.62277 0.87731 0.0
H224 H 0.53922 0.61104 0.72576 0.0
H225 H 0.50357 0.5826 0.79188 0.0
C226 C 0.62714 0.63798 0.65612 0.0
C227 C 0.64769 0.6688 0.67454 0.0
C228 C 0.60759 0.62189 0.69572 0.0
C229 C 0.60819 0.636 0.755 0.0
C230 C 0.62913 0.66651 0.77396 0.0
C231 C 0.64861 0.68277 0.73412 0.0
C232 C 0.58037 0.59782 0.89648 0.0
C233 C 0.54501 0.58614 0.87334 0.0
C234 C 0.60086 0.61427 0.85835 0.0
C235 C 0.58653 0.61909 0.7962 0.0
C236 C 0.55123 0.60734 0.7732 0.0
C237 C 0.53072 0.59116 0.81126 0.0
H238 H 0.83246 0.21743 0.15888 0.0
H239 H 0.88625 0.13254 0.07981 0.0
H240 H 0.86581 0.20359 0.26051 0.0
H241 H 0.92009 0.11998 0.17992 0.0
H242 H 0.99236 0.1127 0.35828 0.0
H243 H 0.96693 0.14454 0.26629 0.0
H244 H 0.86551 0.15118 0.32859 0.0
H245 H 0.89083 0.11946 0.42007 0.0
C246 C 0.85148 0.19608 0.16286 0.0
C247 C 0.85673 0.17638 0.11063 0.0
C248 C 0.87078 0.18836 0.22103 0.0
C249 C 0.89604 0.16107 0.22813 0.0
C250 C 0.90162 0.14182 0.17593 0.0
C251 C 0.88209 0.14913 0.11824 0.0
C252 C 0.96509 0.12216 0.35339 0.0
C253 C 0.94347 0.11333 0.39602 0.0
C254 C 0.9504 0.14007 0.30046 0.0
C255 C 0.91402 0.14986 0.28973 0.0
C256 C 0.89359 0.14411 0.33546 0.0
C257 C 0.9081 0.12586 0.38785 0.0
H258 H 0.34598 0.38915 0.61195 0.0
H259 H 0.42661 0.30955 0.65393 0.0
H260 H 0.36391 0.41544 0.7145 0.0
H261 H 0.44509 0.33605 0.75723 0.0
H262 H 0.49583 0.43665 0.88218 0.0
H263 H 0.47575 0.39448 0.79698 0.0
H264 H 0.36635 0.40485 0.82495 0.0
H265 H 0.38619 0.4469 0.90916 0.0
C266 C 0.36692 0.37678 0.64395 0.0
C267 C 0.38463 0.34717 0.62556 0.0
C268 C 0.37725 0.39176 0.70267 0.0
C269 C 0.40596 0.37781 0.74412 0.0
C270 C 0.42297 0.34743 0.7263 0.0
C271 C 0.41219 0.33207 0.6676 0.0
C272 C 0.46769 0.42906 0.87129 0.0
C273 C 0.44253 0.44557 0.90169 0.0
C274 C 0.45615 0.40491 0.82246 0.0
C275 C 0.41933 0.39691 0.80345 0.0
C276 C 0.39477 0.41104 0.83762 0.0
C277 C 0.40621 0.43504 0.88608 0.0
H278 H 0.70693 0.66957 0.43791 0.0
H279 H 0.60831 0.71801 0.46617 0.0
H280 H 0.67877 0.6518 0.33436 0.0
H281 H 0.58005 0.70102 0.36159 0.0
H282 H 0.53205 0.61196 0.21883 0.0
H283 H 0.55773 0.64796 0.30899 0.0
H284 H 0.65369 0.66511 0.23308 0.0
H285 H 0.62849 0.62781 0.14449 0.0
C286 C 0.67955 0.67748 0.42123 0.0
C287 C 0.65983 0.69501 0.46039 0.0
C288 C 0.66326 0.66729 0.36159 0.0
C289 C 0.62685 0.67464 0.33931 0.0
C290 C 0.60785 0.69423 0.37736 0.0
C291 C 0.62411 0.70418 0.4372 0.0
C292 C 0.55815 0.62433 0.22063 0.0
C293 C 0.57843 0.61672 0.175 0.0
C294 C 0.57301 0.64503 0.27246 0.0
C295 C 0.60827 0.6589 0.27928 0.0
C296 C 0.62697 0.65403 0.2305 0.0
C297 C 0.61236 0.63297 0.17929 0.0
H298 H 0.89803 0.20122 0.9181 0.0
H299 H 0.80447 0.13966 0.83487 0.0
H300 H 0.92906 0.18179 0.83702 0.0
H301 H 0.83499 0.1215 0.75136 0.0
H302 H 0.92429 0.05927 0.67152 0.0
H303 H 0.88307 0.08318 0.73504 0.0
H304 H 0.93226 0.18643 0.73262 0.0
H305 H 0.97419 0.1621 0.67209 0.0
C306 C 0.88392 0.18385 0.88198 0.0
C307 C 0.84889 0.1718 0.88329 0.0
C308 C 0.90154 0.17303 0.83486 0.0
C309 C 0.88453 0.15009 0.78731 0.0
C310 C 0.84902 0.13891 0.78748 0.0
C311 C 0.83138 0.14967 0.83496 0.0
C312 C 0.9256 0.08719 0.68359 0.0
C313 C 0.95265 0.10877 0.66784 0.0
C314 C 0.90201 0.10096 0.7199 0.0
C315 C 0.90487 0.13662 0.74019 0.0
C316 C 0.93 0.15865 0.71957 0.0
C317 C 0.95384 0.1448 0.68443 0.0
H318 H 0.3624 0.35743 0.33253 0.0
H319 H 0.44454 0.39453 0.48273 0.0
H320 H 0.38918 0.3933 0.2628 0.0
H321 H 0.46903 0.43255 0.41459 0.0
H322 H 0.53272 0.46278 0.27094 0.0
H323 H 0.50347 0.42886 0.33905 0.0
H324 H 0.39994 0.45018 0.2287 0.0
H325 H 0.4298 0.48289 0.15826 0.0
C326 C 0.38596 0.37336 0.35094 0.0
C327 C 0.40122 0.37276 0.41359 0.0
C328 C 0.40102 0.39445 0.31096 0.0
C329 C 0.43154 0.41582 0.33267 0.0
C330 C 0.44605 0.41597 0.3956 0.0
C331 C 0.43144 0.39452 0.43521 0.0
C332 C 0.50368 0.46048 0.26126 0.0
C333 C 0.48361 0.47569 0.20919 0.0
C334 C 0.48677 0.44111 0.30073 0.0
C335 C 0.44915 0.43685 0.29004 0.0
C336 C 0.42896 0.45244 0.23816 0.0
C337 C 0.44603 0.47145 0.19797 0.0
H338 H 0.21416 0.91388 0.9411 0.0
H339 H 0.11823 0.85694 0.96249 0.0
H340 H 0.18335 0.93556 0.84366 0.0
H341 H 0.08742 0.87769 0.86388 0.0
H342 H 0.03357 0.97187 0.75236 0.0
H343 H 0.0633 0.93268 0.83055 0.0
H344 H 0.15525 0.92798 0.74008 0.0
H345 H 0.12559 0.9684 0.66336 0.0
C346 C 0.18685 0.90496 0.92383 0.0
C347 C 0.16854 0.88395 0.95965 0.0
C348 C 0.16905 0.91739 0.86777 0.0
C349 C 0.13257 0.90884 0.84594 0.0
C350 C 0.11519 0.88554 0.87976 0.0
C351 C 0.13291 0.8734 0.93606 0.0
C352 C 0.05962 0.96143 0.74832 0.0
C353 C 0.07722 0.97267 0.70179 0.0
C354 C 0.07678 0.93892 0.79308 0.0
C355 C 0.11198 0.92727 0.79223 0.0
C356 C 0.12848 0.93684 0.74296 0.0
C357 C 0.11137 0.95958 0.69851 0.0
loop_
_geom_bond_atom_site_label_1
_geom_bond_atom_site_label_2
_geom_bond_distance
_geom_bond_site_symmetry_2
_ccdc_geom_bond_type
H0 C1 0.949 . S
C1 H0 0.949 . S
C1 C2 1.395 . S
C1 C3 1.391 . S
C2 C1 1.395 . S
C2 C5 1.390 . S
C3 C1 1.391 . S
C3 C7 1.387 . S
C3 C8 1.491 . S
H4 C5 0.950 . S
C5 C2 1.390 . S
C5 H4 0.950 . S
C5 C6 1.378 . S
C6 C5 1.378 . S
C6 C7 1.409 . S
C7 C3 1.387 . S
C7 C6 1.409 . S
C7 H9 0.951 1_554 S
C8 C3 1.491 . S
C8 C10 1.382 . S
C8 C12 1.404 . S
H9 C7 0.951 1_556 S
C10 C8 1.382 . S
C10 C11 1.390 . S
C10 H15 0.949 . S
C11 C10 1.390 . S
C11 C16 1.399 . S
C12 C8 1.404 . S
C12 H13 0.950 1_554 S
C12 C14 1.375 . S
H13 C12 0.950 1_556 S
C14 C12 1.375 . S
C14 C16 1.382 . S
C14 H18 0.950 1_554 S
H15 C10 0.949 . S
C16 C11 1.399 . S
C16 C14 1.382 . S
C16 H17 0.952 . S
H17 C16 0.952 . S
H18 C14 0.950 1_556 S
H19 C20 0.949 . S
C20 H19 0.949 . S
C20 C21 1.395 . S
C20 C22 1.391 . S
C21 C20 1.395 . S
C21 C24 1.390 . S
C22 C20 1.391 . S
C22 C26 1.387 . S
C22 C27 1.491 . S
H23 C24 0.950 . S
C24 C21 1.390 . S
C24 H23 0.950 . S
C24 C25 1.378 . S
C25 C24 1.378 . S
C25 C26 1.409 . S
C26 C22 1.387 . S
C26 C25 1.409 . S
C26 H28 0.951 . S
C27 C22 1.491 . S
C27 C29 1.382 . S
C27 C31 1.404 . S
H28 C26 0.951 . S
C29 C27 1.382 . S
C29 C30 1.390 . S
C29 H34 0.949 . S
C30 C29 1.390 . S
C30 C35 1.399 . S
C31 C27 1.404 . S
C31 H32 0.950 . S
C31 C33 1.375 . S
H32 C31 0.950 . S
C33 C31 1.375 . S
C33 C35 1.382 . S
C33 H37 0.950 . S
H34 C29 0.949 . S
C35 C30 1.399 . S
C35 C33 1.382 . S
C35 H36 0.952 . S
H36 C35 0.952 . S
H37 C33 0.950 . S
H38 C39 0.949 . S
C39 H38 0.949 . S
C39 C40 1.395 . S
C39 C41 1.391 1_554 S
C40 C39 1.395 . S
C40 C43 1.394 . S
C41 C39 1.391 1_556 S
C41 C45 1.387 . S
C41 C46 1.491 . S
H42 C43 0.950 . S
C43 C40 1.394 . S
C43 H42 0.950 . S
C43 C44 1.373 1_554 S
C44 C43 1.373 1_556 S
C44 C45 1.409 . S
C45 C41 1.387 . S
C45 C44 1.409 . S
C45 H47 0.951 . S
C46 C41 1.491 . S
C46 C48 1.390 . S
C46 C50 1.404 . S
H47 C45 0.951 . S
C48 C46 1.390 . S
C48 C49 1.391 . S
C48 H53 0.939 1_556 S
C49 C48 1.391 . S
C49 C54 1.399 . S
C50 C46 1.404 . S
C50 H51 0.950 . S
C50 C52 1.375 . S
H51 C50 0.950 . S
C52 C50 1.375 . S
C52 C54 1.382 . S
C52 H56 0.950 . S
H53 C48 0.939 1_554 S
C54 C49 1.399 . S
C54 C52 1.382 . S
C54 H55 0.952 . S
H55 C54 0.952 . S
H56 C52 0.950 . S
H57 C58 0.949 . S
C58 H57 0.949 . S
C58 C59 1.395 . S
C58 C60 1.391 . S
C59 C58 1.395 . S
C59 C62 1.390 . S
C60 C58 1.391 . S
C60 C64 1.387 . S
C60 C65 1.491 . S
H61 C62 0.950 . S
C62 C59 1.390 . S
C62 H61 0.950 . S
C62 C63 1.378 . S
C63 C62 1.378 . S
C63 C64 1.409 . S
C64 C60 1.387 . S
C64 C63 1.409 . S
C64 H66 0.951 . S
C65 C60 1.491 . S
C65 C67 1.382 . S
C65 C69 1.404 . S
H66 C64 0.951 . S
C67 C65 1.382 . S
C67 C68 1.390 . S
C67 H72 0.949 . S
C68 C67 1.390 . S
C68 C73 1.399 . S
C69 C65 1.404 . S
C69 H70 0.950 . S
C69 C71 1.375 . S
H70 C69 0.950 . S
C71 C69 1.375 . S
C71 C73 1.382 . S
C71 H75 0.950 . S
H72 C67 0.949 . S
C73 C68 1.399 . S
C73 C71 1.382 . S
C73 H74 0.952 . S
H74 C73 0.952 . S
H75 C71 0.950 . S
O76 Mg77 1.990 . S
O76 C90 1.253 1_455 S
Mg77 O76 1.990 . S
Mg77 O80 2.180 . S
Mg77 O81 2.117 . S
Mg77 O95 2.030 . S
O78 Mg79 2.072 1_655 S
O78 C90 1.260 . S
Mg79 O78 2.072 1_455 S
Mg79 O80 2.099 . S
Mg79 O82 2.079 1_545 S
Mg79 O83 2.072 1_455 S
Mg79 O85 2.099 1_445 S
Mg79 O96 2.079 1_545 S
O80 Mg77 2.180 . S
O80 Mg79 2.099 . S
O80 C91 1.279 . S
O81 Mg77 2.117 . S
O81 C91 1.250 . S
O82 Mg79 2.079 1_565 S
O82 C92 1.264 . S
O83 Mg79 2.072 1_655 S
O83 C93 1.260 . S
Mg84 O85 2.180 . S
Mg84 O86 2.030 1_655 S
Mg84 O87 1.990 1_565 S
Mg84 O88 2.117 . S
O85 Mg79 2.099 1_665 S
O85 Mg84 2.180 . S
O85 C94 1.279 . S
O86 Mg84 2.030 1_455 S
O86 C92 1.248 . S
O87 Mg84 1.990 1_545 S
O87 C93 1.253 . S
O88 Mg84 2.117 . S
O88 C94 1.250 . S
C89 O95 1.248 1_565 S
C89 O96 1.264 . S
C90 O76 1.253 1_655 S
C90 O78 1.260 . S
C91 O80 1.279 . S
C91 O81 1.250 . S
C92 O82 1.264 . S
C92 O86 1.248 . S
C93 O83 1.260 . S
C93 O87 1.253 . S
C94 O85 1.279 . S
C94 O88 1.250 . S
O95 Mg77 2.030 . S
O95 C89 1.248 1_545 S
O96 Mg79 2.079 1_565 S
O96 C89 1.264 . S
O97 Mg98 1.990 . S
O97 C111 1.253 . S
Mg98 O97 1.990 . S
Mg98 O101 2.180 . S
Mg98 O102 2.117 . S
Mg98 O116 2.030 . S
O99 Mg100 2.072 . S
O99 C111 1.260 . S
Mg100 O99 2.072 . S
Mg100 O101 2.099 . S
Mg100 O103 2.079 1_554 S
Mg100 O104 2.072 1_554 S
Mg100 O106 2.099 . S
Mg100 O117 2.079 . S
O101 Mg98 2.180 . S
O101 Mg100 2.099 . S
O101 C112 1.279 . S
O102 Mg98 2.117 . S
O102 C112 1.250 . S
O103 Mg100 2.079 1_556 S
O103 C113 1.264 . S
O104 Mg100 2.072 1_556 S
O104 C114 1.260 . S
Mg105 O106 2.180 1_556 S
Mg105 O107 2.030 . S
Mg105 O108 1.990 . S
Mg105 O109 2.117 . S
O106 Mg100 2.099 . S
O106 Mg105 2.180 1_554 S
O106 C115 1.279 . S
O107 Mg105 2.030 . S
O107 C113 1.248 . S
O108 Mg105 1.990 . S
O108 C114 1.253 . S
O109 Mg105 2.117 . S
O109 C115 1.250 1_556 S
C110 O116 1.248 . S
C110 O117 1.264 . S
C111 O97 1.253 . S
C111 O99 1.260 . S
C112 O101 1.279 . S
C112 O102 1.250 . S
C113 O103 1.264 . S
C113 O107 1.248 . S
C114 O104 1.260 . S
C114 O108 1.253 . S
C115 O106 1.279 . S
C115 O109 1.250 1_554 S
O116 Mg98 2.030 . S
O116 C110 1.248 . S
O117 Mg100 2.079 . S
O117 C110 1.264 . S
H118 C126 0.950 . S
H119 C131 0.950 . S
H120 C128 0.950 . S
H121 C130 0.950 . S
H122 C132 0.950 . S
H123 C134 0.950 . S
H124 C136 0.950 . S
H125 C137 0.950 . S
C126 H118 0.950 . S
C126 C127 1.386 . S
C126 C128 1.391 . S
C127 C126 1.386 . S
C127 C131 1.393 . S
C128 H120 0.950 . S
C128 C126 1.391 . S
C128 C129 1.400 . S
C129 C128 1.400 . S
C129 C130 1.398 . S
C129 C135 1.491 . S
C130 H121 0.950 . S
C130 C129 1.398 . S
C130 C131 1.391 . S
C131 H119 0.950 . S
C131 C127 1.393 . S
C131 C130 1.391 . S
C132 H122 0.950 . S
C132 C133 1.386 . S
C132 C134 1.391 . S
C133 C132 1.386 . S
C133 C137 1.393 . S
C134 H123 0.950 . S
C134 C132 1.391 . S
C134 C135 1.400 . S
C135 C129 1.491 . S
C135 C134 1.400 . S
C135 C136 1.398 . S
C136 H124 0.950 . S
C136 C135 1.398 . S
C136 C137 1.391 . S
C137 H125 0.950 . S
C137 C133 1.393 . S
C137 C136 1.391 . S
H138 C146 0.950 . S
H139 C151 0.950 . S
H140 C148 0.950 . S
H141 C150 0.950 . S
H142 C152 0.950 . S
H143 C154 0.950 . S
H144 C156 0.950 . S
H145 C157 0.950 . S
C146 H138 0.950 . S
C146 C147 1.386 . S
C146 C148 1.391 . S
C147 C146 1.386 . S
C147 C151 1.393 . S
C148 H140 0.950 . S
C148 C146 1.391 . S
C148 C149 1.400 . S
C149 C148 1.400 . S
C149 C150 1.398 . S
C149 C155 1.491 . S
C150 H141 0.950 . S
C150 C149 1.398 . S
C150 C151 1.391 . S
C151 H139 0.950 . S
C151 C147 1.393 . S
C151 C150 1.391 . S
C152 H142 0.950 . S
C152 C153 1.386 . S
C152 C154 1.391 . S
C153 C152 1.386 . S
C153 C157 1.393 . S
C154 H143 0.950 . S
C154 C152 1.391 . S
C154 C155 1.400 . S
C155 C149 1.491 . S
C155 C154 1.400 . S
C155 C156 1.398 . S
C156 H144 0.950 . S
C156 C155 1.398 . S
C156 C157 1.391 . S
C157 H145 0.950 . S
C157 C153 1.393 . S
C157 C156 1.391 . S
H158 C166 0.950 . S
H159 C171 0.950 . S
H160 C168 0.950 . S
H161 C170 0.950 . S
H162 C172 0.950 . S
H163 C174 0.950 . S
H164 C176 0.950 . S
H165 C177 0.950 . S
C166 H158 0.950 . S
C166 C167 1.386 . S
C166 C168 1.391 . S
C167 C166 1.386 . S
C167 C171 1.393 . S
C168 H160 0.950 . S
C168 C166 1.391 . S
C168 C169 1.400 . S
C169 C168 1.400 . S
C169 C170 1.398 . S
C169 C175 1.491 . S
C170 H161 0.950 . S
C170 C169 1.398 . S
C170 C171 1.391 . S
C171 H159 0.950 . S
C171 C167 1.393 . S
C171 C170 1.391 . S
C172 H162 0.950 . S
C172 C173 1.386 . S
C172 C174 1.391 . S
C173 C172 1.386 . S
C173 C177 1.393 . S
C174 H163 0.950 . S
C174 C172 1.391 . S
C174 C175 1.400 . S
C175 C169 1.491 . S
C175 C174 1.400 . S
C175 C176 1.398 . S
C176 H164 0.950 . S
C176 C175 1.398 . S
C176 C177 1.391 . S
C177 H165 0.950 . S
C177 C173 1.393 . S
C177 C176 1.391 . S
H178 C186 0.950 . S
H179 C191 0.950 . S
H180 C188 0.950 . S
H181 C190 0.950 . S
H182 C192 0.950 . S
H183 C194 0.950 . S
H184 C196 0.950 . S
H185 C197 0.950 . S
C186 H178 0.950 . S
C186 C187 1.386 1_556 S
C186 C188 1.391 . S
C187 C186 1.386 1_554 S
C187 C191 1.393 . S
C188 H180 0.950 . S
C188 C186 1.391 . S
C188 C189 1.400 1_556 S
C189 C188 1.400 1_554 S
C189 C190 1.398 . S
C189 C195 1.491 . S
C190 H181 0.950 . S
C190 C189 1.398 . S
C190 C191 1.391 . S
C191 H179 0.950 . S
C191 C187 1.393 . S
C191 C190 1.391 . S
C192 H182 0.950 . S
C192 C193 1.386 . S
C192 C194 1.391 . S
C193 C192 1.386 . S
C193 C197 1.393 1_554 S
C194 H183 0.950 . S
C194 C192 1.391 . S
C194 C195 1.400 . S
C195 C189 1.491 . S
C195 C194 1.400 . S
C195 C196 1.398 1_554 S
C196 H184 0.950 . S
C196 C195 1.398 1_556 S
C196 C197 1.391 . S
C197 H185 0.950 . S
C197 C193 1.393 1_556 S
C197 C196 1.391 . S
H198 C206 0.950 . S
H199 C211 0.950 . S
H200 C208 0.950 . S
H201 C210 0.950 . S
H202 C212 0.950 . S
H203 C214 0.950 . S
H204 C216 0.950 . S
H205 C217 0.950 . S
C206 H198 0.950 . S
C206 C207 1.386 . S
C206 C208 1.391 . S
C207 C206 1.386 . S
C207 C211 1.393 . S
C208 H200 0.950 . S
C208 C206 1.391 . S
C208 C209 1.400 . S
C209 C208 1.400 . S
C209 C210 1.398 . S
C209 C215 1.491 . S
C210 H201 0.950 . S
C210 C209 1.398 . S
C210 C211 1.391 . S
C211 H199 0.950 . S
C211 C207 1.393 . S
C211 C210 1.391 . S
C212 H202 0.950 . S
C212 C213 1.386 . S
C212 C214 1.391 . S
C213 C212 1.386 . S
C213 C217 1.393 . S
C214 H203 0.950 . S
C214 C212 1.391 . S
C214 C215 1.400 . S
C215 C209 1.491 . S
C215 C214 1.400 . S
C215 C216 1.398 . S
C216 H204 0.950 . S
C216 C215 1.398 . S
C216 C217 1.391 . S
C217 H205 0.950 . S
C217 C213 1.393 . S
C217 C216 1.391 . S
H218 C226 0.950 . S
H219 C231 0.950 . S
H220 C228 0.950 . S
H221 C230 0.950 . S
H222 C232 0.950 . S
H223 C234 0.950 . S
H224 C236 0.950 . S
H225 C237 0.950 . S
C226 H218 0.950 . S
C226 C227 1.386 . S
C226 C228 1.391 . S
C227 C226 1.386 . S
C227 C231 1.393 . S
C228 H220 0.950 . S
C228 C226 1.391 . S
C228 C229 1.400 . S
C229 C228 1.400 . S
C229 C230 1.398 . S
C229 C235 1.491 . S
C230 H221 0.950 . S
C230 C229 1.398 . S
C230 C231 1.391 . S
C231 H219 0.950 . S
C231 C227 1.393 . S
C231 C230 1.391 . S
C232 H222 0.950 . S
C232 C233 1.386 . S
C232 C234 1.391 . S
C233 C232 1.386 . S
C233 C237 1.393 . S
C234 H223 0.950 . S
C234 C232 1.391 . S
C234 C235 1.400 . S
C235 C229 1.491 . S
C235 C234 1.400 . S
C235 C236 1.398 . S
C236 H224 0.950 . S
C236 C235 1.398 . S
C236 C237 1.391 . S
C237 H225 0.950 . S
C237 C233 1.393 . S
C237 C236 1.391 . S
H238 C246 0.950 . S
H239 C251 0.950 . S
H240 C248 0.950 . S
H241 C250 0.950 . S
H242 C252 0.950 . S
H243 C254 0.950 . S
H244 C256 0.950 . S
H245 C257 0.950 . S
C246 H238 0.950 . S
C246 C247 1.386 . S
C246 C248 1.391 . S
C247 C246 1.386 . S
C247 C251 1.393 . S
C248 H240 0.950 . S
C248 C246 1.391 . S
C248 C249 1.400 . S
C249 C248 1.400 . S
C249 C250 1.398 . S
C249 C255 1.491 . S
C250 H241 0.950 . S
C250 C249 1.398 . S
C250 C251 1.391 . S
C251 H239 0.950 . S
C251 C247 1.393 . S
C251 C250 1.391 . S
C252 H242 0.950 . S
C252 C253 1.386 . S
C252 C254 1.391 . S
C253 C252 1.386 . S
C253 C257 1.393 . S
C254 H243 0.950 . S
C254 C252 1.391 . S
C254 C255 1.400 . S
C255 C249 1.491 . S
C255 C254 1.400 . S
C255 C256 1.398 . S
C256 H244 0.950 . S
C256 C255 1.398 . S
C256 C257 1.391 . S
C257 H245 0.950 . S
C257 C253 1.393 . S
C257 C256 1.391 . S
H258 C266 0.950 . S
H259 C271 0.950 . S
H260 C268 0.950 . S
H261 C270 0.950 . S
H262 C272 0.950 . S
H263 C274 0.950 . S
H264 C276 0.950 . S
H265 C277 0.950 . S
C266 H258 0.950 . S
C266 C267 1.386 . S
C266 C268 1.391 . S
C267 C266 1.386 . S
C267 C271 1.393 . S
C268 H260 0.950 . S
C268 C266 1.391 . S
C268 C269 1.400 . S
C269 C268 1.400 . S
C269 C270 1.398 . S
C269 C275 1.491 . S
C270 H261 0.950 . S
C270 C269 1.398 . S
C270 C271 1.391 . S
C271 H259 0.950 . S
C271 C267 1.393 . S
C271 C270 1.391 . S
C272 H262 0.950 . S
C272 C273 1.386 . S
C272 C274 1.391 . S
C273 C272 1.386 . S
C273 C277 1.393 . S
C274 H263 0.950 . S
C274 C272 1.391 . S
C274 C275 1.400 . S
C275 C269 1.491 . S
C275 C274 1.400 . S
C275 C276 1.398 . S
C276 H264 0.950 . S
C276 C275 1.398 . S
C276 C277 1.391 . S
C277 H265 0.950 . S
C277 C273 1.393 . S
C277 C276 1.391 . S
H278 C286 0.950 . S
H279 C291 0.950 . S
H280 C288 0.950 . S
H281 C290 0.950 . S
H282 C292 0.950 . S
H283 C294 0.950 . S
H284 C296 0.950 . S
H285 C297 0.950 . S
C286 H278 0.950 . S
C286 C287 1.386 . S
C286 C288 1.391 . S
C287 C286 1.386 . S
C287 C291 1.393 . S
C288 H280 0.950 . S
C288 C286 1.391 . S
C288 C289 1.400 . S
C289 C288 1.400 . S
C289 C290 1.398 . S
C289 C295 1.491 . S
C290 H281 0.950 . S
C290 C289 1.398 . S
C290 C291 1.391 . S
C291 H279 0.950 . S
C291 C287 1.393 . S
C291 C290 1.391 . S
C292 H282 0.950 . S
C292 C293 1.386 . S
C292 C294 1.391 . S
C293 C292 1.386 . S
C293 C297 1.393 . S
C294 H283 0.950 . S
C294 C292 1.391 . S
C294 C295 1.400 . S
C295 C289 1.491 . S
C295 C294 1.400 . S
C295 C296 1.398 . S
C296 H284 0.950 . S
C296 C295 1.398 . S
C296 C297 1.391 . S
C297 H285 0.950 . S
C297 C293 1.393 . S
C297 C296 1.391 . S
H298 C306 0.950 . S
H299 C311 0.950 . S
H300 C308 0.950 . S
H301 C310 0.950 . S
H302 C312 0.950 . S
H303 C314 0.950 . S
H304 C316 0.950 . S
H305 C317 0.950 . S
C306 H298 0.950 . S
C306 C307 1.386 . S
C306 C308 1.391 . S
C307 C306 1.386 . S
C307 C311 1.393 . S
C308 H300 0.950 . S
C308 C306 1.391 . S
C308 C309 1.400 . S
C309 C308 1.400 . S
C309 C310 1.398 . S
C309 C315 1.491 . S
C310 H301 0.950 . S
C310 C309 1.398 . S
C310 C311 1.391 . S
C311 H299 0.950 . S
C311 C307 1.393 . S
C311 C310 1.391 . S
C312 H302 0.950 . S
C312 C313 1.386 . S
C312 C314 1.391 . S
C313 C312 1.386 . S
C313 C317 1.393 . S
C314 H303 0.950 . S
C314 C312 1.391 . S
C314 C315 1.400 . S
C315 C309 1.491 . S
C315 C314 1.400 . S
C315 C316 1.398 . S
C316 H304 0.950 . S
C316 C315 1.398 . S
C316 C317 1.391 . S
C317 H305 0.950 . S
C317 C313 1.393 . S
C317 C316 1.391 . S
H318 C326 0.950 . S
H319 C331 0.950 . S
H320 C328 0.950 . S
H321 C330 0.950 . S
H322 C332 0.950 . S
H323 C334 0.950 . S
H324 C336 0.950 . S
H325 C337 0.950 . S
C326 H318 0.950 . S
C326 C327 1.386 . S
C326 C328 1.391 . S
C327 C326 1.386 . S
C327 C331 1.393 . S
C328 H320 0.950 . S
C328 C326 1.391 . S
C328 C329 1.400 . S
C329 C328 1.400 . S
C329 C330 1.398 . S
C329 C335 1.491 . S
C330 H321 0.950 . S
C330 C329 1.398 . S
C330 C331 1.391 . S
C331 H319 0.950 . S
C331 C327 1.393 . S
C331 C330 1.391 . S
C332 H322 0.950 . S
C332 C333 1.386 . S
C332 C334 1.391 . S
C333 C332 1.386 . S
C333 C337 1.393 . S
C334 H323 0.950 . S
C334 C332 1.391 . S
C334 C335 1.400 . S
C335 C329 1.491 . S
C335 C334 1.400 . S
C335 C336 1.398 . S
C336 H324 0.950 . S
C336 C335 1.398 . S
C336 C337 1.391 . S
C337 H325 0.950 . S
C337 C333 1.393 . S
C337 C336 1.391 . S
H338 C346 0.950 . S
H339 C351 0.950 1_554 S
H340 C348 0.950 . S
H341 C350 0.950 . S
H342 C352 0.950 . S
H343 C354 0.950 . S
H344 C356 0.950 . S
H345 C357 0.950 . S
C346 H338 0.950 . S
C346 C347 1.386 . S
C346 C348 1.391 . S
C347 C346 1.386 . S
C347 C351 1.393 . S
C348 H340 0.950 . S
C348 C346 1.391 . S
C348 C349 1.400 . S
C349 C348 1.400 . S
C349 C350 1.398 . S
C349 C355 1.491 . S
C350 H341 0.950 . S
C350 C349 1.398 . S
C350 C351 1.391 . S
C351 H339 0.950 1_556 S
C351 C347 1.393 . S
C351 C350 1.391 . S
C352 H342 0.950 . S
C352 C353 1.386 . S
C352 C354 1.391 . S
C353 C352 1.386 . S
C353 C357 1.393 . S
C354 H343 0.950 . S
C354 C352 1.391 . S
C354 C355 1.400 . S
C355 C349 1.491 . S
C355 C354 1.400 . S
C355 C356 1.398 . S
C356 H344 0.950 . S
C356 C355 1.398 . S
C356 C357 1.391 . S
C357 H345 0.950 . S
C357 C353 1.393 . S
C357 C356 1.391 . S
C133 C91 1.269 . S
C127 C68 1.376 . S
C147 C11 1.393 . S
C153 C115 1.318 . S
C167 C30 1.551 . S
C173 C94 1.464 . S
C187 C49 1.513 1_554 S
C193 C112 1.406 . S
C213 C92 1.562 . S
C207 C2 1.540 . S
C233 C114 1.591 . S
C227 C25 1.671 . S
C247 C40 1.634 . S
C253 C93 1.615 . S
C267 C59 1.546 . S
C273 C113 1.503 . S
C293 C111 1.511 . S
C287 C21 1.529 . S
C313 C90 1.498 . S
C307 C44 1.562 . S
C333 C110 1.459 . S
C327 C63 1.481 . S
C347 C6 1.490 1_556 S
C353 C89 1.423 . S
