# Generated by pormake.
# Topology eea, (3,6)-cn, num edge types: 1
# Building blocks:
#     Node 0, Type 0, BuildingBlock: QEWDON_clean_linker_0, # of connection points: 3
#     Node 1, Type 0, BuildingBlock: QEWDON_clean_linker_0, # of connection points: 3
#     Node 2, Type 0, BuildingBlock: QEWDON_clean_linker_0, # of connection points: 3
#     Node 3, Type 0, BuildingBlock: QEWDON_clean_linker_0, # of connection points: 3
#     Node 4, Type 0, BuildingBlock: QEWDON_clean_linker_0, # of connection points: 3
#     Node 5, Type 0, BuildingBlock: QEWDON_clean_linker_0, # of connection points: 3
#     Node 6, Type 0, BuildingBlock: QEWDON_clean_linker_0, # of connection points: 3
#     Node 7, Type 0, BuildingBlock: QEWDON_clean_linker_0, # of connection points: 3
#     Node 8, Type 0, BuildingBlock: QEWDON_clean_linker_0, # of connection points: 3
#     Node 9, Type 0, BuildingBlock: QEWDON_clean_linker_0, # of connection points: 3
#     Node 10, Type 0, BuildingBlock: QEWDON_clean_linker_0, # of connection points: 3
#     Node 11, Type 0, BuildingBlock: QEWDON_clean_linker_0, # of connection points: 3
#     Node 12, Type 0, BuildingBlock: QEWDON_clean_linker_0, # of connection points: 3
#     Node 13, Type 0, BuildingBlock: QEWDON_clean_linker_0, # of connection points: 3
#     Node 14, Type 0, BuildingBlock: QEWDON_clean_linker_0, # of connection points: 3
#     Node 15, Type 0, BuildingBlock: QEWDON_clean_linker_0, # of connection points: 3
#     Node 16, Type 0, BuildingBlock: QEWDON_clean_linker_0, # of connection points: 3
#     Node 17, Type 0, BuildingBlock: QEWDON_clean_linker_0, # of connection points: 3
#     Node 18, Type 1, BuildingBlock: HISSIN_clean_sbu_0, # of connection points: 6
#     Node 19, Type 1, BuildingBlock: HISSIN_clean_sbu_0, # of connection points: 6
#     Node 20, Type 1, BuildingBlock: HISSIN_clean_sbu_0, # of connection points: 6
#     Node 21, Type 1, BuildingBlock: HISSIN_clean_sbu_0, # of connection points: 6
#     Node 22, Type 1, BuildingBlock: HISSIN_clean_sbu_0, # of connection points: 6
#     Node 23, Type 1, BuildingBlock: HISSIN_clean_sbu_0, # of connection points: 6
#     Node 24, Type 1, BuildingBlock: HISSIN_clean_sbu_0, # of connection points: 6
#     Node 25, Type 1, BuildingBlock: HISSIN_clean_sbu_0, # of connection points: 6
#     Node 26, Type 1, BuildingBlock: HISSIN_clean_sbu_0, # of connection points: 6
#     Edge 27, Type (0, 1), BuildingBlock: OJICUG_clean_linker_0, # of connection points: 2
#     Edge 28, Type (0, 1), BuildingBlock: OJICUG_clean_linker_0, # of connection points: 2
#     Edge 29, Type (0, 1), BuildingBlock: OJICUG_clean_linker_0, # of connection points: 2
#     Edge 30, Type (0, 1), BuildingBlock: OJICUG_clean_linker_0, # of connection points: 2
#     Edge 31, Type (0, 1), BuildingBlock: OJICUG_clean_linker_0, # of connection points: 2
#     Edge 32, Type (0, 1), BuildingBlock: OJICUG_clean_linker_0, # of connection points: 2
#     Edge 33, Type (0, 1), BuildingBlock: OJICUG_clean_linker_0, # of connection points: 2
#     Edge 34, Type (0, 1), BuildingBlock: OJICUG_clean_linker_0, # of connection points: 2
#     Edge 35, Type (0, 1), BuildingBlock: OJICUG_clean_linker_0, # of connection points: 2
#     Edge 36, Type (0, 1), BuildingBlock: OJICUG_clean_linker_0, # of connection points: 2
#     Edge 37, Type (0, 1), BuildingBlock: OJICUG_clean_linker_0, # of connection points: 2
#     Edge 38, Type (0, 1), BuildingBlock: OJICUG_clean_linker_0, # of connection points: 2
#     Edge 39, Type (0, 1), BuildingBlock: OJICUG_clean_linker_0, # of connection points: 2
#     Edge 40, Type (0, 1), BuildingBlock: OJICUG_clean_linker_0, # of connection points: 2
#     Edge 41, Type (0, 1), BuildingBlock: OJICUG_clean_linker_0, # of connection points: 2
#     Edge 42, Type (0, 1), BuildingBlock: OJICUG_clean_linker_0, # of connection points: 2
#     Edge 43, Type (0, 1), BuildingBlock: OJICUG_clean_linker_0, # of connection points: 2
#     Edge 44, Type (0, 1), BuildingBlock: OJICUG_clean_linker_0, # of connection points: 2
#     Edge 45, Type (0, 1), BuildingBlock: OJICUG_clean_linker_0, # of connection points: 2
#     Edge 46, Type (0, 1), BuildingBlock: OJICUG_clean_linker_0, # of connection points: 2
#     Edge 47, Type (0, 1), BuildingBlock: OJICUG_clean_linker_0, # of connection points: 2
#     Edge 48, Type (0, 1), BuildingBlock: OJICUG_clean_linker_0, # of connection points: 2
#     Edge 49, Type (0, 1), BuildingBlock: OJICUG_clean_linker_0, # of connection points: 2
#     Edge 50, Type (0, 1), BuildingBlock: OJICUG_clean_linker_0, # of connection points: 2
#     Edge 51, Type (0, 1), BuildingBlock: OJICUG_clean_linker_0, # of connection points: 2
#     Edge 52, Type (0, 1), BuildingBlock: OJICUG_clean_linker_0, # of connection points: 2
#     Edge 53, Type (0, 1), BuildingBlock: OJICUG_clean_linker_0, # of connection points: 2
#     Edge 54, Type (0, 1), BuildingBlock: OJICUG_clean_linker_0, # of connection points: 2
#     Edge 55, Type (0, 1), BuildingBlock: OJICUG_clean_linker_0, # of connection points: 2
#     Edge 56, Type (0, 1), BuildingBlock: OJICUG_clean_linker_0, # of connection points: 2
#     Edge 57, Type (0, 1), BuildingBlock: OJICUG_clean_linker_0, # of connection points: 2
#     Edge 58, Type (0, 1), BuildingBlock: OJICUG_clean_linker_0, # of connection points: 2
#     Edge 59, Type (0, 1), BuildingBlock: OJICUG_clean_linker_0, # of connection points: 2
#     Edge 60, Type (0, 1), BuildingBlock: OJICUG_clean_linker_0, # of connection points: 2
#     Edge 61, Type (0, 1), BuildingBlock: OJICUG_clean_linker_0, # of connection points: 2
#     Edge 62, Type (0, 1), BuildingBlock: OJICUG_clean_linker_0, # of connection points: 2
#     Edge 63, Type (0, 1), BuildingBlock: OJICUG_clean_linker_0, # of connection points: 2
#     Edge 64, Type (0, 1), BuildingBlock: OJICUG_clean_linker_0, # of connection points: 2
#     Edge 65, Type (0, 1), BuildingBlock: OJICUG_clean_linker_0, # of connection points: 2
#     Edge 66, Type (0, 1), BuildingBlock: OJICUG_clean_linker_0, # of connection points: 2
#     Edge 67, Type (0, 1), BuildingBlock: OJICUG_clean_linker_0, # of connection points: 2
#     Edge 68, Type (0, 1), BuildingBlock: OJICUG_clean_linker_0, # of connection points: 2
#     Edge 69, Type (0, 1), BuildingBlock: OJICUG_clean_linker_0, # of connection points: 2
#     Edge 70, Type (0, 1), BuildingBlock: OJICUG_clean_linker_0, # of connection points: 2
#     Edge 71, Type (0, 1), BuildingBlock: OJICUG_clean_linker_0, # of connection points: 2
#     Edge 72, Type (0, 1), BuildingBlock: OJICUG_clean_linker_0, # of connection points: 2
#     Edge 73, Type (0, 1), BuildingBlock: OJICUG_clean_linker_0, # of connection points: 2
#     Edge 74, Type (0, 1), BuildingBlock: OJICUG_clean_linker_0, # of connection points: 2
#     Edge 75, Type (0, 1), BuildingBlock: OJICUG_clean_linker_0, # of connection points: 2
#     Edge 76, Type (0, 1), BuildingBlock: OJICUG_clean_linker_0, # of connection points: 2
#     Edge 77, Type (0, 1), BuildingBlock: OJICUG_clean_linker_0, # of connection points: 2
#     Edge 78, Type (0, 1), BuildingBlock: OJICUG_clean_linker_0, # of connection points: 2
#     Edge 79, Type (0, 1), BuildingBlock: OJICUG_clean_linker_0, # of connection points: 2
#     Edge 80, Type (0, 1), BuildingBlock: OJICUG_clean_linker_0, # of connection points: 2
# Relax obj value: 0.090
# Max RMSD: 0.275
# Mean RMSD: 0.193
data_MOF--net-eea--node1-HISSIN_clean_sbu_0--node2-QEWDON_clean_linker_0--edge1-OJICUG_clean_linker_0
_symmetry_space_group_name_H-M    P1
_symmetry_Int_Tables_number       1
_symmetry_cell_setting            triclinic
loop_
_symmetry_equiv_pos_as_xyz
'x, y, z'
_cell_length_a     42.79792
_cell_length_b     43.194669
_cell_length_c     53.216881
_cell_angle_alpha  93.027323
_cell_angle_beta   92.809415
_cell_angle_gamma 120.06575
loop_
_atom_site_label
_atom_site_type_symbol
_atom_site_fract_x
_atom_site_fract_y
_atom_site_fract_z
_atom_type_partial_charge
H0 H 0.22392 0.13698 0.44079 0.0
C1 C 0.22459 0.11473 0.43093 0.0
C2 C 0.24906 0.10426 0.43991 0.0
C3 C 0.19974 0.09554 0.40995 0.0
H4 H 0.26807 0.06696 0.43383 0.0
C5 C 0.24935 0.07519 0.42693 0.0
C6 C 0.22462 0.05564 0.40586 0.0
C7 C 0.19992 0.06613 0.39756 0.0
C8 C 0.17162 0.10425 0.40201 0.0
H9 H 0.17996 0.05077 0.38182 0.0
C10 C 0.18099 0.13928 0.39656 0.0
C11 C 0.15404 0.14645 0.38748 0.0
C12 C 0.13501 0.07692 0.39922 0.0
H13 H 0.12716 0.04988 0.40358 0.0
C14 C 0.1082 0.08422 0.39088 0.0
H15 H 0.2092 0.1604 0.39831 0.0
C16 C 0.1176 0.11868 0.38487 0.0
H17 H 0.09637 0.12367 0.37811 0.0
H18 H 0.08007 0.06303 0.38882 0.0
H19 H 0.88901 0.10819 0.43054 0.0
C20 C 0.90795 0.12994 0.42024 0.0
C21 C 0.91905 0.16567 0.42866 0.0
C22 C 0.92339 0.1221 0.39997 0.0
H23 H 0.95394 0.22123 0.42214 0.0
C24 C 0.94532 0.19363 0.41589 0.0
C25 C 0.96129 0.18633 0.39555 0.0
C26 C 0.94973 0.15039 0.3876 0.0
C27 C 0.91518 0.08471 0.39376 0.0
H28 H 0.96255 0.14436 0.37254 0.0
C29 C 0.87919 0.05574 0.39106 0.0
C30 C 0.87203 0.02024 0.38685 0.0
C31 C 0.94377 0.07773 0.39181 0.0
H32 H 0.9717 0.09943 0.39414 0.0
C33 C 0.93668 0.04257 0.38758 0.0
H34 H 0.85689 0.06074 0.39246 0.0
C35 C 0.90108 0.01395 0.38525 0.0
H36 H 0.89616 0.98685 0.38187 0.0
H37 H 0.9589 0.03747 0.38626 0.0
H38 H 0.92721 0.78765 0.44529 0.0
C39 C 0.90444 0.78723 0.4351 0.0
C40 C 0.86939 0.76788 0.4435 0.0
C41 C 0.91033 0.80717 0.41401 0.0
H42 H 0.81424 0.75644 0.43792 0.0
C43 C 0.84059 0.76928 0.43056 0.0
C44 C 0.846 0.78885 0.40927 0.0
C45 C 0.88091 0.80682 0.40088 0.0
C46 C 0.94737 0.8329 0.4074 0.0
H47 H 0.88582 0.82175 0.38437 0.0
C48 C 0.97076 0.82171 0.398 0.0
C49 C 1.00382 0.84709 0.38905 0.0
C50 C 0.95809 0.86954 0.40867 0.0
H51 H 0.94058 0.87873 0.41586 0.0
C52 C 0.99103 0.89458 0.40034 0.0
H53 H 0.96276 0.79354 0.39677 0.0
C54 C 0.01362 0.88343 0.39038 0.0
H55 H 0.03904 0.90332 0.38384 0.0
H56 H 0.99889 0.92268 0.40134 0.0
H57 H 0.13257 0.21903 0.58472 0.0
C58 C 0.11095 0.21976 0.59402 0.0
C59 C 0.09587 0.23989 0.5848 0.0
C60 C 0.09747 0.1996 0.61473 0.0
H61 H 0.05416 0.25351 0.589 0.0
C62 C 0.06693 0.2395 0.59679 0.0
C63 C 0.05324 0.21956 0.61782 0.0
C64 C 0.06964 0.20062 0.62688 0.0
C65 C 0.1094 0.17434 0.62243 0.0
H66 H 0.06047 0.18591 0.64339 0.0
C67 C 0.14624 0.18561 0.62839 0.0
C68 C 0.15606 0.16106 0.63688 0.0
C69 C 0.08297 0.13828 0.62443 0.0
H70 H 0.05451 0.12888 0.61972 0.0
C71 C 0.09287 0.11397 0.63247 0.0
H72 H 0.16691 0.21334 0.62711 0.0
C73 C 0.12919 0.1253 0.63879 0.0
H74 H 0.13641 0.10613 0.64526 0.0
H75 H 0.07229 0.08631 0.63395 0.0
H76 H 0.81158 0.91698 0.5905 0.0
C77 C 0.81084 0.89583 0.60102 0.0
C78 C 0.78809 0.85974 0.59174 0.0
C79 C 0.83424 0.905 0.62298 0.0
H80 H 0.77212 0.80497 0.59734 0.0
C81 C 0.78902 0.83272 0.60483 0.0
C82 C 0.81196 0.84133 0.62716 0.0
C83 C 0.83421 0.8777 0.63615 0.0
C84 C 0.86046 0.94322 0.6312 0.0
H85 H 0.85164 0.88504 0.65349 0.0
C86 C 0.84924 0.96877 0.63259 0.0
C87 C 0.87466 0.00528 0.63892 0.0
C88 C 0.8973 0.95454 0.63665 0.0
H89 H 0.90666 0.93543 0.6355 0.0
C90 C 0.92257 0.9908 0.64295 0.0
H91 H 0.82087 0.96032 0.62857 0.0
C92 C 0.91142 0.01611 0.64394 0.0
H93 H 0.93143 0.04413 0.64897 0.0
H94 H 0.95092 0.99932 0.64694 0.0
H95 H 0.09479 0.8706 0.58336 0.0
C96 C 0.11832 0.89303 0.59385 0.0
C97 C 0.15256 0.90751 0.58427 0.0
C98 C 0.11406 0.90954 0.6159 0.0
H99 H 0.20906 0.94778 0.5906 0.0
C100 C 0.18261 0.93734 0.59768 0.0
C101 C 0.1788 0.95435 0.61955 0.0
C102 C 0.14436 0.94001 0.62854 0.0
C103 C 0.07772 0.89853 0.62444 0.0
H104 H 0.14058 0.95344 0.64489 0.0
C105 C 0.05485 0.8638 0.63182 0.0
C106 C 0.02251 0.8559 0.64269 0.0
C107 C 0.06707 0.92443 0.62697 0.0
H108 H 0.08407 0.95119 0.62126 0.0
C109 C 0.03475 0.91632 0.63717 0.0
H110 H 0.06281 0.84364 0.63009 0.0
C111 C 0.01276 0.88242 0.64522 0.0
H112 H 0.98783 0.87673 0.65325 0.0
H113 H 0.02691 0.93652 0.6391 0.0
H114 H 0.88652 0.4648 0.77404 0.0
C115 C 0.88785 0.44328 0.76364 0.0
C116 C 0.91021 0.43078 0.77348 0.0
C117 C 0.86519 0.42624 0.74128 0.0
H118 H 0.9291 0.39351 0.76724 0.0
C119 C 0.91101 0.40233 0.76003 0.0
C120 C 0.88833 0.3848 0.7378 0.0
C121 C 0.8656 0.39711 0.72858 0.0
C122 C 0.83901 0.43676 0.73179 0.0
H123 H 0.84727 0.38339 0.71179 0.0
C124 C 0.8504 0.47256 0.72726 0.0
C125 C 0.82573 0.4812 0.71584 0.0
C126 C 0.80245 0.41018 0.72584 0.0
H127 H 0.79296 0.38252 0.72943 0.0
C128 C 0.77786 0.41893 0.71506 0.0
H129 H 0.87856 0.49324 0.73156 0.0
C130 C 0.78945 0.45416 0.70983 0.0
H131 H 0.77004 0.4604 0.7012 0.0
H132 H 0.74981 0.39826 0.71049 0.0
H133 H 0.56764 0.43894 0.77252 0.0
C134 C 0.58802 0.45977 0.76234 0.0
C135 C 0.60232 0.49604 0.77092 0.0
C136 C 0.60149 0.45007 0.74176 0.0
H137 H 0.64227 0.55061 0.7657 0.0
C138 C 0.63053 0.52277 0.75853 0.0
C139 C 0.64386 0.51362 0.73734 0.0
C140 C 0.62851 0.47703 0.72898 0.0
C141 C 0.58991 0.41184 0.73509 0.0
H142 H 0.63763 0.46912 0.71252 0.0
C143 C 0.55299 0.38505 0.73241 0.0
C144 C 0.54274 0.34871 0.72751 0.0
C145 C 0.61631 0.40188 0.73245 0.0
H146 H 0.6449 0.42192 0.73467 0.0
C147 C 0.60616 0.36588 0.7276 0.0
H148 H 0.53237 0.39239 0.73428 0.0
C149 C 0.56963 0.33939 0.72526 0.0
H150 H 0.56231 0.31159 0.72131 0.0
H151 H 0.6267 0.35847 0.72574 0.0
H152 H 0.59206 0.11852 0.77844 0.0
C153 C 0.56938 0.11851 0.76845 0.0
C154 C 0.53441 0.09951 0.77702 0.0
C155 C 0.57534 0.13863 0.74746 0.0
H156 H 0.47946 0.08879 0.77181 0.0
C157 C 0.50574 0.10142 0.76434 0.0
C158 C 0.51127 0.12127 0.74318 0.0
C159 C 0.54607 0.13886 0.73461 0.0
C160 C 0.61238 0.16403 0.74071 0.0
H161 H 0.55103 0.15398 0.7182 0.0
C162 C 0.63507 0.15239 0.73065 0.0
C163 C 0.66808 0.17752 0.72151 0.0
C164 C 0.62373 0.20082 0.74244 0.0
H165 H 0.60675 0.21033 0.75011 0.0
C166 C 0.65663 0.22561 0.73391 0.0
H167 H 0.62655 0.12409 0.72906 0.0
C168 C 0.67853 0.21405 0.7233 0.0
H169 H 0.70394 0.23376 0.71664 0.0
H170 H 0.66499 0.25385 0.73526 0.0
H171 H 0.80049 0.5527 0.9174 0.0
C172 C 0.77922 0.55383 0.92691 0.0
C173 C 0.76427 0.57418 0.91785 0.0
C174 C 0.76597 0.53391 0.94776 0.0
H175 H 0.72284 0.58814 0.92238 0.0
C176 C 0.73566 0.57413 0.93008 0.0
C177 C 0.72229 0.55445 0.95124 0.0
C178 C 0.73866 0.53548 0.96022 0.0
C179 C 0.77715 0.50805 0.95529 0.0
H180 H 0.72968 0.52094 0.97683 0.0
C181 C 0.8136 0.51879 0.9623 0.0
C182 C 0.82236 0.49386 0.97158 0.0
C183 C 0.75011 0.47206 0.95674 0.0
H184 H 0.72194 0.46311 0.95126 0.0
C185 C 0.75897 0.44734 0.96544 0.0
H186 H 0.8347 0.54647 0.96145 0.0
C187 C 0.79484 0.4582 0.97303 0.0
H188 H 0.80121 0.4387 0.98001 0.0
H189 H 0.73791 0.41976 0.96654 0.0
H190 H 0.47425 0.24995 0.92528 0.0
C191 C 0.47302 0.2286 0.93579 0.0
C192 C 0.44728 0.19269 0.92784 0.0
C193 C 0.49885 0.23718 0.95622 0.0
H194 H 0.42637 0.13771 0.9357 0.0
C195 C 0.44697 0.16537 0.94121 0.0
C196 C 0.47335 0.17328 0.96119 0.0
C197 C 0.4991 0.20941 0.96868 0.0
C198 C 0.52695 0.27518 0.96336 0.0
H199 H 0.51991 0.21603 0.98381 0.0
C200 C 0.51724 0.30177 0.96599 0.0
C201 C 0.54396 0.33809 0.97133 0.0
C202 C 0.56373 0.28526 0.96658 0.0
H203 H 0.57195 0.26535 0.96442 0.0
C204 C 0.59034 0.32133 0.97191 0.0
H205 H 0.48893 0.29426 0.96366 0.0
C206 C 0.5806 0.34768 0.97414 0.0
H207 H 0.60165 0.37551 0.9784 0.0
H208 H 0.61863 0.32892 0.9742 0.0
H209 H 0.76087 0.20251 0.91498 0.0
C210 C 0.78438 0.22475 0.92563 0.0
C211 C 0.8187 0.23942 0.91608 0.0
C212 C 0.78001 0.24084 0.94786 0.0
H213 H 0.87519 0.27971 0.92271 0.0
C214 C 0.8487 0.26911 0.92971 0.0
C215 C 0.8448 0.28572 0.9518 0.0
C216 C 0.81028 0.27112 0.96072 0.0
C217 C 0.74358 0.23004 0.95621 0.0
H218 H 0.80638 0.28428 0.97717 0.0
C219 C 0.72061 0.19564 0.96413 0.0
C220 C 0.68827 0.18823 0.97487 0.0
C221 C 0.73302 0.25605 0.95808 0.0
H222 H 0.7501 0.28256 0.95199 0.0
C223 C 0.70075 0.24844 0.96815 0.0
H224 H 0.72849 0.17539 0.96291 0.0
C225 C 0.67868 0.21492 0.97671 0.0
H226 H 0.65378 0.20965 0.98461 0.0
H227 H 0.693 0.26875 0.96957 0.0
H228 H 0.5527 0.79955 0.10398 0.0
C229 C 0.5531 0.77698 0.09443 0.0
C230 C 0.57695 0.76608 0.104 0.0
C231 C 0.52902 0.75818 0.07297 0.0
H232 H 0.59526 0.72811 0.09884 0.0
C233 C 0.57701 0.73664 0.09148 0.0
C234 C 0.55293 0.71734 0.07012 0.0
C235 C 0.52911 0.72845 0.061 0.0
C236 C 0.50276 0.76855 0.0633 0.0
H237 H 0.51003 0.71355 0.04476 0.0
C238 C 0.51407 0.80455 0.05946 0.0
C239 C 0.4895 0.81349 0.04835 0.0
C240 C 0.46632 0.74198 0.05681 0.0
H241 H 0.45678 0.71417 0.05992 0.0
C242 C 0.44183 0.75101 0.04619 0.0
H243 H 0.54212 0.82529 0.06413 0.0
C244 C 0.45338 0.78651 0.04174 0.0
H245 H 0.4341 0.79301 0.03322 0.0
H246 H 0.41388 0.73036 0.04119 0.0
H247 H 0.23365 0.77161 0.10698 0.0
C248 C 0.2539 0.79231 0.09664 0.0
C249 C 0.26853 0.82866 0.10519 0.0
C250 C 0.26689 0.78233 0.0759 0.0
H251 H 0.30853 0.8831 0.09963 0.0
C252 C 0.29657 0.8552 0.09254 0.0
C253 C 0.30944 0.8458 0.07117 0.0
C254 C 0.29381 0.80913 0.06292 0.0
C255 C 0.25507 0.74399 0.06931 0.0
H256 H 0.30262 0.80102 0.04638 0.0
C257 C 0.2181 0.71721 0.06685 0.0
C258 C 0.20775 0.6808 0.06201 0.0
C259 C 0.28138 0.73392 0.06656 0.0
H260 H 0.30998 0.75391 0.06863 0.0
C261 C 0.27114 0.69789 0.06179 0.0
H262 H 0.19754 0.72461 0.0688 0.0
C263 C 0.2346 0.67144 0.05965 0.0
H264 H 0.22723 0.64362 0.05575 0.0
H265 H 0.29162 0.69042 0.05985 0.0
H266 H 0.26156 0.4535 0.11016 0.0
C267 C 0.23867 0.45334 0.10036 0.0
C268 C 0.20392 0.43438 0.10926 0.0
C269 C 0.24417 0.47321 0.07927 0.0
H270 H 0.14881 0.42334 0.10439 0.0
C271 C 0.17496 0.43598 0.09674 0.0
C272 C 0.17998 0.45546 0.07541 0.0
C273 C 0.21461 0.47313 0.0666 0.0
C274 C 0.28102 0.49827 0.07199 0.0
H275 H 0.21916 0.48793 0.05005 0.0
C276 C 0.30395 0.48631 0.06287 0.0
C277 C 0.3368 0.51088 0.05329 0.0
C278 C 0.29204 0.53494 0.07239 0.0
H279 H 0.27493 0.54473 0.07939 0.0
C280 C 0.32481 0.55922 0.06344 0.0
H281 H 0.29571 0.4581 0.06232 0.0
C282 C 0.34691 0.54727 0.05373 0.0
H283 H 0.3722 0.56657 0.04671 0.0
H284 H 0.33291 0.58735 0.06378 0.0
H285 H 0.46617 0.88704 0.2504 0.0
C286 C 0.44509 0.88802 0.26028 0.0
C287 C 0.42964 0.90805 0.25154 0.0
C288 C 0.43254 0.8681 0.28121 0.0
H289 H 0.38827 0.92183 0.25686 0.0
C290 C 0.40137 0.90792 0.26428 0.0
C291 C 0.38868 0.88828 0.28557 0.0
C292 C 0.40532 0.86929 0.29408 0.0
C293 C 0.44432 0.84246 0.28813 0.0
H294 H 0.39675 0.85459 0.31065 0.0
C295 C 0.48111 0.85342 0.29399 0.0
C296 C 0.49081 0.82821 0.30115 0.0
C297 C 0.41778 0.8062 0.2892 0.0
H298 H 0.38937 0.7971 0.28462 0.0
C299 C 0.42754 0.78128 0.29599 0.0
H300 H 0.50185 0.8813 0.2934 0.0
C301 C 0.46384 0.79218 0.30198 0.0
H302 H 0.47095 0.7725 0.3074 0.0
H303 H 0.40689 0.75344 0.2967 0.0
H304 H 0.1316 0.58191 0.26719 0.0
C305 C 0.12945 0.55978 0.27719 0.0
C306 C 0.10512 0.52438 0.26722 0.0
C307 C 0.15243 0.56687 0.29913 0.0
H308 H 0.08503 0.46849 0.27189 0.0
C309 C 0.10318 0.49585 0.27987 0.0
C310 C 0.12642 0.50239 0.30164 0.0
C311 C 0.15054 0.53801 0.31137 0.0
C312 C 0.18087 0.60437 0.30753 0.0
H313 H 0.16915 0.54334 0.32776 0.0
C314 C 0.17272 0.63216 0.30819 0.0
C315 C 0.20028 0.66807 0.31401 0.0
C316 C 0.21688 0.61291 0.31335 0.0
H317 H 0.22406 0.59216 0.31263 0.0
C318 C 0.24426 0.64855 0.31932 0.0
H319 H 0.14506 0.62594 0.30383 0.0
C320 C 0.23612 0.67605 0.31948 0.0
H321 H 0.25775 0.70354 0.3242 0.0
H322 H 0.27193 0.65489 0.3236 0.0
H323 H 0.42992 0.53352 0.24697 0.0
C324 C 0.4525 0.55596 0.25821 0.0
C325 C 0.48715 0.57288 0.24922 0.0
C326 C 0.44634 0.56997 0.28063 0.0
H327 H 0.54199 0.61689 0.25586 0.0
C328 C 0.51567 0.60342 0.26325 0.0
C329 C 0.5102 0.61751 0.28596 0.0
C330 C 0.47536 0.6001 0.29459 0.0
C331 C 0.40898 0.55789 0.28731 0.0
H332 H 0.4702 0.61053 0.31188 0.0
C333 C 0.38653 0.52371 0.29573 0.0
C334 C 0.35232 0.51488 0.30381 0.0
C335 C 0.3964 0.58227 0.28621 0.0
H336 H 0.4132 0.60858 0.27972 0.0
C337 C 0.36229 0.57316 0.29359 0.0
H338 H 0.39612 0.50484 0.2969 0.0
C339 C 0.34048 0.53984 0.3025 0.0
H340 H 0.31421 0.53348 0.30847 0.0
H341 H 0.35289 0.59218 0.29268 0.0
Eu342 Eu 0.49145 0.98952 0.9848 0.0
Eu343 Eu 0.50933 0.02268 0.04577 0.0
C344 C 0.48609 0.05874 1.00339 0.0
C345 C 0.48673 0.98791 0.91311 0.0
C346 C 0.50336 0.02549 0.91437 0.0
C347 C 0.48692 0.98619 0.86735 0.0
C348 C 0.51174 0.0433 0.89225 0.0
C349 C 0.47859 0.96843 0.88947 0.0
C350 C 0.50367 0.0239 0.8684 0.0
C351 C 0.479 0.96902 0.93636 0.0
O352 O 0.44875 0.98772 0.03717 0.0
O353 O 0.44704 0.94804 1.00611 0.0
C354 C 0.4324 0.95573 0.02483 0.0
O355 O 0.51718 0.96142 1.00356 0.0
O356 O 0.49358 0.04176 0.07909 0.0
O357 O 0.54079 0.0356 0.08221 0.0
O358 O 0.50637 0.969 0.04468 0.0
C359 C 0.51426 0.95243 0.02688 0.0
O360 O 0.54446 0.04137 0.9865 0.0
O361 O 0.56337 0.05311 0.02906 0.0
O362 O 0.50697 0.06513 0.02422 0.0
O363 O 0.50727 0.97373 0.95023 0.0
O364 O 0.45533 0.97088 0.94997 0.0
O365 O 0.47033 0.02751 0.98997 0.0
C366 C 0.50485 0.0214 0.11744 0.0
C367 C 0.51747 0.99901 0.12602 0.0
C368 C 0.46706 0.00706 0.15284 0.0
C369 C 0.50503 0.98089 0.14767 0.0
C370 C 0.47964 0.02533 0.13121 0.0
C371 C 0.47952 0.9845 0.16138 0.0
C372 C 0.5178 0.04078 0.09442 0.0
C373 C 0.56948 0.05919 1.00526 0.0
H374 H 0.50997 0.04105 0.93247 0.0
H375 H 0.48073 0.97036 0.84943 0.0
H376 H 0.52414 0.07226 0.89384 0.0
H377 H 0.46603 0.93945 0.88812 0.0
H378 H 0.53705 0.99543 0.11604 0.0
H379 H 0.44714 0.01026 0.16264 0.0
H380 H 0.51582 0.96434 0.15383 0.0
H381 H 0.46947 0.04244 0.12515 0.0
Eu382 Eu 0.02791 0.50144 0.99047 0.0
Eu383 Eu 0.9966 0.48206 0.04675 0.0
C384 C 0.96053 0.42272 0.99903 0.0
C385 C 0.02914 0.50474 0.92013 0.0
C386 C 0.99287 0.47687 0.91738 0.0
C387 C 0.02603 0.51134 0.87517 0.0
C388 C 0.97343 0.46602 0.89367 0.0
C389 C 0.04557 0.52209 0.89896 0.0
C390 C 0.98981 0.48299 0.87226 0.0
C391 C 0.04913 0.5164 0.94526 0.0
O392 O 0.03323 0.45895 0.04208 0.0
O393 O 0.07037 0.49692 0.01437 0.0
C394 C 0.06404 0.47419 0.03159 0.0
O395 O 0.05159 0.55375 0.01485 0.0
O396 O 0.97868 0.44751 0.07787 0.0
O397 O 0.98003 0.4984 0.08058 0.0
O398 O 0.05187 0.53189 0.0529 0.0
C399 C 0.06499 0.55841 0.03834 0.0
O400 O 0.97271 0.49546 0.98659 0.0
O401 O 0.96797 0.50803 0.0281 0.0
O402 O 0.95508 0.43528 0.02039 0.0
O403 O 0.04145 0.53646 0.95984 0.0
O404 O 0.05063 0.49148 0.95724 0.0
O405 O 0.98956 0.44149 0.98702 0.0
C406 C 0.99424 0.47951 0.11839 0.0
C407 C 0.01978 0.51495 0.12775 0.0
C408 C 1.00302 0.45898 0.15843 0.0
C409 C 0.03666 0.52231 0.15221 0.0
C410 C 0.98589 0.45165 0.134 0.0
C411 C 0.02873 0.49443 0.16783 0.0
C412 C 0.97619 0.47124 0.09253 0.0
C413 C 0.95746 0.50456 1.00398 0.0
H414 H 0.97958 0.46355 0.93363 0.0
H415 H 0.03945 0.52472 0.859 0.0
H416 H 0.94543 0.44446 0.89212 0.0
H417 H 0.07348 0.54386 0.90083 0.0
H418 H 0.02683 0.53708 0.11622 0.0
H419 H 0.99658 0.43677 0.16976 0.0
H420 H 0.05581 0.54999 0.1589 0.0
H421 H 0.9663 0.42412 0.12719 0.0
Eu422 Eu 0.53448 0.51064 0.03629 0.0
Eu423 Eu 0.51686 0.52661 0.97821 0.0
C424 C 0.53944 0.58582 0.02503 0.0
C425 C 0.53658 0.50953 0.10698 0.0
C426 C 0.52427 0.53414 0.10806 0.0
C427 C 0.52952 0.50326 0.15179 0.0
C428 C 0.51493 0.54349 0.13087 0.0
C429 C 0.53901 0.49403 0.12893 0.0
C430 C 0.51752 0.52823 0.15304 0.0
C431 C 0.54534 0.49902 0.08275 0.0
O432 O 0.57772 0.5538 0.98541 0.0
O433 O 0.58078 0.51728 0.01398 0.0
C434 C 0.59511 0.53972 0.99653 0.0
O435 O 0.5067 0.45764 0.01264 0.0
O436 O 0.52794 0.56206 0.94803 0.0
O437 O 0.48637 0.50593 0.94122 0.0
O438 O 0.52572 0.47939 0.97477 0.0
C439 C 0.51488 0.45346 0.98978 0.0
O440 O 0.48243 0.51107 0.03735 0.0
O441 O 0.46265 0.49982 0.99511 0.0
O442 O 0.51978 0.57159 1.00337 0.0
O443 O 0.51742 0.47639 0.0674 0.0
O444 O 0.56986 0.52511 0.07112 0.0
O445 O 0.55322 0.56963 0.03787 0.0
C446 C 0.52124 0.53325 0.9076 0.0
C447 C 0.55285 0.53095 0.90821 0.0
C448 C 0.5175 0.5279 0.86174 0.0
C449 C 0.56669 0.52714 0.88571 0.0
C450 C 0.50377 0.53186 0.88426 0.0
C451 C 0.54903 0.5253 0.86218 0.0
C452 C 0.50588 0.53606 0.93118 0.0
C453 C 0.45679 0.50157 0.01909 0.0
H454 H 0.52171 0.546 0.09119 0.0
H455 H 0.53214 0.4913 0.16856 0.0
H456 H 0.50533 0.56241 0.13108 0.0
H457 H 0.5482 0.47477 0.12838 0.0
H458 H 0.56657 0.5317 0.9261 0.0
H459 H 0.50346 0.52693 0.84396 0.0
H460 H 0.59071 0.52473 0.88675 0.0
H461 H 0.47934 0.53357 0.88345 0.0
Eu462 Eu 0.15589 0.3243 0.31804 0.0
Eu463 Eu 0.17566 0.35472 0.37964 0.0
C464 C 0.15268 0.39298 0.33791 0.0
C465 C 0.15474 0.32488 0.24618 0.0
C466 C 0.1734 0.36255 0.24716 0.0
C467 C 0.15655 0.32228 0.20052 0.0
C468 C 0.1832 0.37995 0.22493 0.0
C469 C 0.14672 0.30494 0.22275 0.0
C470 C 0.17459 0.36005 0.20123 0.0
C471 C 0.14262 0.30613 0.26929 0.0
O472 O 0.12258 0.30386 0.37706 0.0
O473 O 0.1018 0.30015 0.33574 0.0
C474 C 0.09606 0.29172 0.35923 0.0
O475 O 0.15538 0.27963 0.33763 0.0
O476 O 0.16029 0.37297 0.41337 0.0
O477 O 0.20896 0.36929 0.41562 0.0
O478 O 0.18956 0.31053 0.37478 0.0
C479 C 0.17382 0.28156 0.35868 0.0
O480 O 0.21705 0.35965 0.32415 0.0
O481 O 0.22305 0.39476 0.3602 0.0
O482 O 0.14886 0.38289 0.36101 0.0
O483 O 0.16677 0.3032 0.28331 0.0
O484 O 0.123 0.31477 0.28277 0.0
O485 O 0.16496 0.37974 0.32103 0.0
C486 C 0.17397 0.35467 0.45161 0.0
C487 C 0.18683 0.33241 0.46003 0.0
C488 C 0.13666 0.34041 0.48724 0.0
C489 C 0.17466 0.31432 0.48178 0.0
C490 C 0.14898 0.35862 0.4656 0.0
C491 C 0.14922 0.31788 0.49566 0.0
C492 C 0.18573 0.37353 0.42827 0.0
C493 C 0.23589 0.38904 0.3396 0.0
H494 H 0.1799 0.37848 0.26509 0.0
H495 H 0.14998 0.30603 0.18275 0.0
H496 H 0.19667 0.40899 0.22628 0.0
H497 H 0.13249 0.27586 0.22159 0.0
H498 H 0.20621 0.32881 0.44981 0.0
H499 H 0.11673 0.34353 0.49709 0.0
H500 H 0.18548 0.29775 0.48782 0.0
H501 H 0.13859 0.3756 0.45964 0.0
Eu502 Eu 0.69442 0.8305 0.3206 0.0
Eu503 Eu 0.66424 0.81773 0.37701 0.0
C504 C 0.62616 0.75517 0.33214 0.0
C505 C 0.69689 0.83132 0.24976 0.0
C506 C 0.65941 0.80731 0.24638 0.0
C507 C 0.69723 0.83955 0.20499 0.0
C508 C 0.64094 0.79938 0.22243 0.0
C509 C 0.7157 0.84741 0.22899 0.0
C510 C 0.6596 0.81549 0.20145 0.0
C511 C 0.71594 0.84114 0.27512 0.0
O512 O 0.69971 0.79288 0.37409 0.0
O513 O 0.73727 0.8286 0.34571 0.0
C514 C 0.73067 0.80708 0.36377 0.0
O515 O 0.71868 0.88494 0.34227 0.0
O516 O 0.64306 0.78408 0.40822 0.0
O517 O 0.65197 0.83821 0.41113 0.0
O518 O 0.71986 0.86713 0.38166 0.0
C519 C 0.73252 0.89199 0.36579 0.0
O520 O 0.63998 0.82629 0.31592 0.0
O521 O 0.63706 0.84397 0.35666 0.0
O522 O 0.62051 0.77165 0.35129 0.0
O523 O 0.71148 0.86402 0.28917 0.0
O524 O 0.71321 0.81473 0.28752 0.0
O525 O 0.65662 0.77063 0.32117 0.0
C526 C 0.66402 0.81681 0.44858 0.0
C527 C 0.68675 0.85199 0.45983 0.0
C528 C 0.67866 0.79386 0.48543 0.0
C529 C 0.70533 0.858 0.48354 0.0
C530 C 0.65989 0.78782 0.46176 0.0
C531 C 0.70169 0.82903 0.49654 0.0
C532 C 0.64501 0.81012 0.42312 0.0
C533 C 0.6259 0.83822 0.33248 0.0
H534 H 0.64443 0.79485 0.26231 0.0
H535 H 0.71233 0.85269 0.1893 0.0
H536 H 0.6121 0.7803 0.22033 0.0
H537 H 0.74459 0.86635 0.23138 0.0
H538 H 0.69057 0.875 0.45027 0.0
H539 H 0.67498 0.77098 0.49513 0.0
H540 H 0.72317 0.88542 0.49147 0.0
H541 H 0.64232 0.76043 0.45366 0.0
Eu542 Eu 0.20177 0.84723 0.37158 0.0
Eu543 Eu 0.18509 0.86336 0.31339 0.0
C544 C 0.20883 0.92328 0.36008 0.0
C545 C 0.20125 0.84398 0.44204 0.0
C546 C 0.18811 0.86792 0.44295 0.0
C547 C 0.19271 0.83659 0.48663 0.0
C548 C 0.17772 0.87644 0.46557 0.0
C549 C 0.20323 0.82814 0.46393 0.0
C550 C 0.18011 0.86109 0.48775 0.0
C551 C 0.21136 0.83453 0.41799 0.0
O552 O 0.24576 0.88937 0.32089 0.0
O553 O 0.24748 0.85199 0.34921 0.0
C554 C 0.26243 0.87449 0.33188 0.0
O555 O 0.17018 0.7943 0.3482 0.0
O556 O 0.19742 0.89834 0.28279 0.0
O557 O 0.15467 0.84265 0.27636 0.0
O558 O 0.19188 0.81476 0.31072 0.0
C559 C 0.17866 0.78888 0.32577 0.0
O560 O 0.15073 0.84955 0.37269 0.0
O561 O 0.13089 0.83841 0.33042 0.0
O562 O 0.18936 0.90936 0.33829 0.0
O563 O 0.1842 0.81196 0.4021 0.0
O564 O 0.23604 0.86126 0.40694 0.0
O565 O 0.22173 0.90646 0.37309 0.0
C566 C 0.18983 0.86863 0.24248 0.0
C567 C 0.22142 0.8663 0.24304 0.0
C568 C 0.18527 0.86188 0.19658 0.0
C569 C 0.23486 0.86181 0.2205 0.0
C570 C 0.17195 0.86652 0.21913 0.0
C571 C 0.21681 0.8593 0.19697 0.0
C572 C 0.17491 0.87239 0.26609 0.0
C573 C 0.12514 0.84036 0.35443 0.0
H574 H 0.18587 0.88001 0.42613 0.0
H575 H 0.1952 0.82457 0.5034 0.0
H576 H 0.16767 0.89501 0.46568 0.0
H577 H 0.213 0.80935 0.4635 0.0
H578 H 0.23549 0.86761 0.26091 0.0
H579 H 0.17091 0.86043 0.17882 0.0
H580 H 0.25891 0.85945 0.22152 0.0
H581 H 0.14753 0.86826 0.21832 0.0
Eu582 Eu 0.82547 0.65781 0.65167 0.0
Eu583 Eu 0.8454 0.6898 0.71282 0.0
C584 C 0.82224 0.7272 0.67185 0.0
C585 C 0.81995 0.65706 0.57985 0.0
C586 C 0.83679 0.69464 0.58102 0.0
C587 C 0.82094 0.65513 0.53415 0.0
C588 C 0.8456 0.71236 0.55887 0.0
C589 C 0.81213 0.63748 0.55629 0.0
C590 C 0.83782 0.69284 0.5351 0.0
C591 C 0.81184 0.63819 0.60309 0.0
O592 O 0.78462 0.65558 0.70486 0.0
O593 O 0.78148 0.61619 0.67295 0.0
C594 C 0.76759 0.62384 0.69213 0.0
O595 O 0.84931 0.62715 0.66934 0.0
O596 O 0.83089 0.70969 0.74638 0.0
O597 O 0.87719 0.70204 0.74903 0.0
O598 O 0.84229 0.63616 0.71123 0.0
C599 C 0.84829 0.61887 0.69282 0.0
O600 O 0.87925 0.7089 0.65343 0.0
O601 O 0.89917 0.71893 0.69576 0.0
O602 O 0.84522 0.73324 0.69132 0.0
O603 O 0.83979 0.64153 0.6166 0.0
O604 O 0.78913 0.64126 0.61706 0.0
O605 O 0.8044 0.69576 0.65873 0.0
C606 C 0.84179 0.68858 0.7845 0.0
C607 C 0.85484 0.66667 0.79337 0.0
C608 C 0.8033 0.67363 0.81951 0.0
C609 C 0.84222 0.64843 0.81496 0.0
C610 C 0.81604 0.69199 0.79795 0.0
C611 C 0.81615 0.6515 0.82831 0.0
C612 C 0.85486 0.70795 0.76149 0.0
C613 C 0.90483 0.72564 0.67201 0.0
H614 H 0.84321 0.71027 0.59908 0.0
H615 H 0.81498 0.6392 0.5163 0.0
H616 H 0.85811 0.74132 0.56038 0.0
H617 H 0.79948 0.60849 0.55502 0.0
H618 H 0.87488 0.66353 0.78367 0.0
H619 H 0.78295 0.6764 0.82905 0.0
H620 H 0.85329 0.63222 0.82133 0.0
H621 H 0.80554 0.70875 0.79169 0.0
Eu622 Eu 0.36287 0.16985 0.65666 0.0
Eu623 Eu 0.33019 0.15208 0.71251 0.0
C624 C 0.29467 0.09186 0.6654 0.0
C625 C 0.36785 0.17334 0.58637 0.0
C626 C 0.33073 0.14794 0.58279 0.0
C627 C 0.36852 0.1801 0.54137 0.0
C628 C 0.31258 0.13872 0.55867 0.0
C629 C 0.38669 0.18932 0.56558 0.0
C630 C 0.33118 0.15485 0.53768 0.0
C631 C 0.38634 0.18417 0.61194 0.0
O632 O 0.36629 0.12808 0.70935 0.0
O633 O 0.40423 0.16489 0.68146 0.0
C634 C 0.3972 0.14245 0.69897 0.0
O635 O 0.38605 0.22245 0.6806 0.0
O636 O 0.30932 0.11774 0.74345 0.0
O637 O 0.31468 0.17047 0.74596 0.0
O638 O 0.38595 0.20101 0.7188 0.0
C639 C 0.39941 0.22732 0.70411 0.0
O640 O 0.30774 0.16396 0.65155 0.0
O641 O 0.30293 0.17846 0.69261 0.0
O642 O 0.28891 0.10509 0.68632 0.0
O643 O 0.37874 0.2048 0.62597 0.0
O644 O 0.38602 0.15861 0.62418 0.0
O645 O 0.32398 0.11006 0.65354 0.0
C646 C 0.32622 0.1499 0.78388 0.0
C647 C 0.3525 0.18492 0.79366 0.0
C648 C 0.33451 0.12752 0.82314 0.0
C649 C 0.3696 0.19113 0.81794 0.0
C650 C 0.31714 0.12134 0.79894 0.0
C651 C 0.36103 0.16246 0.83284 0.0
C652 C 0.3086 0.14265 0.75797 0.0
C653 C 0.29238 0.17384 0.66841 0.0
H654 H 0.31575 0.13542 0.5987 0.0
H655 H 0.38355 0.19321 0.52564 0.0
H656 H 0.28399 0.11872 0.55645 0.0
H657 H 0.41532 0.20918 0.5681 0.0
H658 H 0.36026 0.20753 0.7825 0.0
H659 H 0.32721 0.10496 0.8343 0.0
H660 H 0.39026 0.21826 0.8248 0.0
H661 H 0.29688 0.09416 0.79185 0.0
Eu662 Eu 0.86458 0.17662 0.70215 0.0
Eu663 Eu 0.84727 0.19331 0.64388 0.0
C664 C 0.87202 0.2529 0.69088 0.0
C665 C 0.86489 0.1744 0.77292 0.0
C666 C 0.85335 0.19962 0.77419 0.0
C667 C 0.85639 0.167 0.81756 0.0
C668 C 0.8438 0.20877 0.79701 0.0
C669 C 0.86612 0.15798 0.79469 0.0
C670 C 0.84535 0.19272 0.81904 0.0
C671 C 0.87414 0.16426 0.74869 0.0
O672 O 0.90807 0.21879 0.65078 0.0
O673 O 0.91071 0.18249 0.67985 0.0
C674 C 0.92516 0.20455 0.66217 0.0
O675 O 0.83584 0.12377 0.67827 0.0
O676 O 0.86008 0.22817 0.613 0.0
O677 O 0.8146 0.17365 0.60773 0.0
O678 O 0.8548 0.14531 0.64031 0.0
C679 C 0.84372 0.11939 0.65535 0.0
O680 O 0.81346 0.1787 0.70334 0.0
O681 O 0.79329 0.16756 0.66118 0.0
O682 O 0.85221 0.23922 0.66921 0.0
O683 O 0.84654 0.14193 0.73301 0.0
O684 O 0.89909 0.19044 0.73738 0.0
O685 O 0.885 0.23591 0.70359 0.0
C686 C 0.84751 0.19768 0.57191 0.0
C687 C 0.83688 0.16328 0.56057 0.0
C688 C 0.8804 0.22361 0.53531 0.0
C689 C 0.84783 0.15912 0.53688 0.0
C690 C 0.86926 0.22776 0.55895 0.0
C691 C 0.86975 0.18922 0.52394 0.0
C692 C 0.83568 0.20257 0.59686 0.0
C693 C 0.78772 0.16943 0.68522 0.0
H694 H 0.85165 0.21219 0.75749 0.0
H695 H 0.85822 0.15439 0.83419 0.0
H696 H 0.83495 0.22829 0.79736 0.0
H697 H 0.87465 0.13822 0.79402 0.0
H698 H 0.82014 0.13946 0.56997 0.0
H699 H 0.89698 0.24733 0.52577 0.0
H700 H 0.83953 0.13228 0.52885 0.0
H701 H 0.87762 0.25456 0.56711 0.0
C702 C 0.36454 0.86602 0.04641 0.0
C703 C 0.33997 0.8738 0.058 0.0
H704 H 0.41216 0.8854 0.02631 0.0
C705 C 0.34537 0.90871 0.05719 0.0
H706 H 0.36235 0.84002 0.04712 0.0
C707 C 0.3749 0.93513 0.04587 0.0
C708 C 0.39917 0.92708 0.03441 0.0
H709 H 0.3269 0.91584 0.06533 0.0
H710 H 0.37883 0.96195 0.04614 0.0
C711 C 0.39338 0.89214 0.03447 0.0
C712 C 0.1135 0.43166 0.06239 0.0
C713 C 0.14995 0.4594 0.06325 0.0
H714 H 0.05778 0.41459 0.05181 0.0
C715 C 0.15753 0.49154 0.05277 0.0
H716 H 0.10642 0.40633 0.06984 0.0
C717 C 0.12972 0.4957 0.04168 0.0
C718 C 0.09344 0.46826 0.04133 0.0
H719 H 0.18492 0.51409 0.05365 0.0
H720 H 0.13658 0.521 0.03421 0.0
C721 C 0.08557 0.43621 0.05183 0.0
C722 C 0.54409 0.67579 0.03191 0.0
C723 C 0.55123 0.68448 0.05822 0.0
H724 H 0.53463 0.63773 1.00075 0.0
C725 C 0.55556 0.66082 0.07326 0.0
H726 H 0.5412 0.69361 0.01967 0.0
C727 C 0.55268 0.62933 0.06233 0.0
C728 C 0.54473 0.62033 0.03615 0.0
H729 H 0.56022 0.66605 0.09361 0.0
H730 H 0.55562 0.6115 0.07455 0.0
C731 C 0.54055 0.64389 0.02102 0.0
C732 C 0.90154 0.34562 0.94978 0.0
C733 C 0.87593 0.31992 0.9643 0.0
H734 H 0.94831 0.39779 0.94933 0.0
C735 C 0.87941 0.32806 0.99064 0.0
H736 H 0.89946 0.34094 0.92943 0.0
C737 C 0.90703 0.36129 1.00198 0.0
C738 C 0.93226 0.38691 0.98735 0.0
H739 H 0.86071 0.30883 1.00256 0.0
H740 H 0.90863 0.36689 0.02224 0.0
C741 C 0.92951 0.37849 0.96119 0.0
C742 C 0.6659 0.51974 0.97388 0.0
C743 C 0.69005 0.55157 0.96327 0.0
H744 H 0.61804 0.49165 0.99322 0.0
C745 C 0.68277 0.58 0.96427 0.0
H746 H 0.66932 0.49654 0.97274 0.0
C747 C 0.65222 0.57652 0.9754 0.0
C748 C 0.62882 0.54493 0.98635 0.0
H749 H 0.70069 0.60504 0.95658 0.0
H750 H 0.64698 0.5986 0.97554 0.0
C751 C 0.63615 0.51672 0.9856 0.0
C752 C 0.4679 0.11266 0.95751 0.0
C753 C 0.47551 0.14364 0.97275 0.0
H754 H 0.4649 0.06184 0.95524 0.0
C755 C 0.4862 0.14626 0.99861 0.0
H756 H 0.46069 0.10999 0.9374 0.0
C757 C 0.48946 0.11864 1.00884 0.0
C758 C 0.48155 0.0877 0.99347 0.0
H759 H 0.49198 0.16957 0.01097 0.0
H760 H 0.49803 0.12146 0.02872 0.0
C761 C 0.47055 0.085 0.96776 0.0
C762 C 0.65406 0.15107 1.00911 0.0
C763 C 0.66352 0.15293 0.98406 0.0
H764 H 0.61734 0.11962 0.0357 0.0
C765 C 0.64475 0.12221 0.96699 0.0
H766 H 0.66806 0.17457 0.02256 0.0
C767 C 0.61532 0.09096 0.97435 0.0
C768 C 0.60445 0.08969 0.99904 0.0
H769 H 0.65128 0.12312 0.94753 0.0
H770 H 0.6001 0.06828 0.96037 0.0
C771 C 0.62505 0.11962 0.01662 0.0
C772 C 0.86894 0.50416 1.00599 0.0
C773 C 0.85983 0.50409 0.98028 0.0
H774 H 0.90734 0.50503 0.03378 0.0
C775 C 0.88455 0.50782 0.9627 0.0
H776 H 0.84995 0.50087 0.01979 0.0
C777 C 0.91714 0.50958 0.97057 0.0
C778 C 0.92562 0.50792 0.9962 0.0
H779 H 0.87775 0.50731 0.94274 0.0
H780 H 0.93506 0.51093 0.95644 0.0
C781 C 0.90171 0.50641 0.01393 0.0
C782 C 0.55057 0.39678 0.96102 0.0
C783 C 0.53373 0.36604 0.97427 0.0
H784 H 0.55704 0.44817 0.95507 0.0
C785 C 0.50823 0.36285 0.99111 0.0
H786 H 0.57014 0.3997 0.9478 0.0
C787 C 0.50096 0.39074 0.99552 0.0
C788 C 0.51854 0.42195 0.98277 0.0
H789 H 0.49499 0.33941 1.0016 0.0
H790 H 0.48222 0.38823 0.00932 0.0
C791 C 0.54279 0.42433 0.96504 0.0
C792 C 0.14549 0.65285 0.0398 0.0
C793 C 0.16914 0.65218 0.05871 0.0
H794 H 0.09373 0.62346 0.01839 0.0
C795 C 0.15678 0.62209 0.07266 0.0
H796 H 0.15453 0.6757 0.0287 0.0
C797 C 0.12196 0.59249 0.06706 0.0
C798 C 0.09902 0.59211 0.04706 0.0
H799 H 0.17455 0.62103 0.08738 0.0
H800 H 0.11382 0.56917 0.07754 0.0
C801 C 0.11082 0.62293 0.03386 0.0
C802 C 0.37024 0.50532 0.01778 0.0
C803 C 0.3616 0.49989 0.04293 0.0
H804 H 0.40675 0.5093 0.99025 0.0
C805 C 0.38162 0.49041 0.05915 0.0
H806 H 0.35532 0.51304 1.00502 0.0
C807 C 0.41145 0.48894 0.05088 0.0
C808 C 0.42149 0.49647 0.02613 0.0
H809 H 0.37574 0.48658 0.07869 0.0
H810 H 0.42762 0.48346 0.06424 0.0
C811 C 0.39968 0.50323 0.00935 0.0
C812 C 0.51131 0.87763 0.06263 0.0
C813 C 0.50124 0.85069 0.0429 0.0
H814 H 0.5234 0.93139 0.07301 0.0
C815 C 0.49928 0.85857 0.01786 0.0
H816 H 0.51281 0.87192 0.08209 0.0
C817 C 0.50595 0.89257 0.01258 0.0
C818 C 0.51394 0.91906 0.03233 0.0
H819 H 0.49153 0.83804 1.0024 0.0
H820 H 0.50287 0.89737 0.99309 0.0
C821 C 0.51729 0.91151 0.0574 0.0
C822 C 0.02046 0.24423 0.40128 0.0
C823 C 0.99328 0.21595 0.38489 0.0
H824 H 0.07351 0.29021 0.40588 0.0
C825 C 0.99881 0.21472 0.359 0.0
H826 H 0.01758 0.24592 0.42133 0.0
C827 C 0.03147 0.24036 0.35001 0.0
C828 C 0.05923 0.26738 0.36684 0.0
H829 H 0.97826 0.19343 0.34581 0.0
H830 H 0.03557 0.23806 0.33024 0.0
C831 C 0.05285 0.2695 0.39239 0.0
C832 C 0.82378 0.82474 0.38618 0.0
C833 C 0.81608 0.79267 0.39679 0.0
H834 H 0.80305 0.854 0.36712 0.0
C835 C 0.77959 0.76493 0.39585 0.0
H836 H 0.85117 0.84731 0.38714 0.0
C837 C 0.75175 0.76944 0.38503 0.0
C838 C 0.75981 0.80137 0.37431 0.0
H839 H 0.7724 0.73964 0.40339 0.0
H840 H 0.72393 0.74782 0.38487 0.0
C841 C 0.7961 0.8288 0.37479 0.0
C842 C 0.22767 0.99925 0.40845 0.0
C843 C 0.2227 0.02277 0.39369 0.0
H844 H 0.22745 0.94978 0.40944 0.0
C845 C 0.21432 0.01374 0.36745 0.0
H846 H 0.23328 0.00473 0.42876 0.0
C847 C 0.21017 0.98162 0.35639 0.0
C848 C 0.21487 0.95812 0.37127 0.0
H849 H 0.21082 0.03142 0.35542 0.0
H850 H 0.20326 0.97521 0.33621 0.0
C851 C 0.22408 0.9675 0.39736 0.0
C852 C 0.53242 0.6767 0.31175 0.0
C853 C 0.54007 0.65188 0.29939 0.0
H854 H 0.55352 0.72838 0.33201 0.0
C855 C 0.57664 0.66113 0.2989 0.0
H856 H 0.50488 0.6713 0.31211 0.0
C857 C 0.60463 0.69459 0.30962 0.0
C858 C 0.59674 0.71921 0.32172 0.0
H859 H 0.58383 0.64263 0.29013 0.0
H860 H 0.63246 0.70112 0.30854 0.0
C861 C 0.56038 0.70971 0.32304 0.0
C862 C 0.34978 0.91416 0.29933 0.0
C863 C 0.35692 0.88564 0.29822 0.0
H864 H 0.31436 0.93304 0.31083 0.0
C865 C 0.33302 0.85403 0.30919 0.0
H866 H 0.36756 0.9391 0.29148 0.0
C867 C 0.30345 0.85121 0.32113 0.0
C868 C 0.29614 0.87944 0.32181 0.0
H869 H 0.33643 0.83082 0.30808 0.0
H870 H 0.28542 0.82625 0.32892 0.0
C871 C 0.3195 0.9109 0.31071 0.0
C872 C 0.13065 0.44718 0.29485 0.0
C873 C 0.12949 0.47252 0.31178 0.0
H874 H 0.13848 0.40247 0.28985 0.0
C875 C 0.13419 0.4705 0.33793 0.0
H876 H 0.12786 0.44827 0.27463 0.0
C877 C 0.14063 0.44397 0.34685 0.0
C878 C 0.14296 0.4195 0.3297 0.0
H879 H 0.13336 0.48968 0.35143 0.0
H880 H 0.14484 0.44332 0.367 0.0
C881 C 0.13725 0.4211 0.30366 0.0
C882 C 0.31104 0.44795 0.29925 0.0
C883 C 0.32857 0.48056 0.31455 0.0
H884 H 0.26781 0.39304 0.29517 0.0
C885 C 0.31863 0.48139 0.33921 0.0
H886 H 0.31801 0.44681 0.28006 0.0
C887 C 0.29014 0.45085 0.34792 0.0
C888 C 0.27057 0.41876 0.33206 0.0
H889 H 0.33173 0.5063 0.35132 0.0
H890 H 0.28226 0.45307 0.36666 0.0
C891 C 0.28221 0.41726 0.30792 0.0
C892 C 0.54293 0.84857 0.33348 0.0
C893 C 0.52873 0.83843 0.30816 0.0
H894 H 0.58511 0.85681 0.36114 0.0
C895 C 0.5483 0.83167 0.29052 0.0
H896 H 0.52782 0.85328 0.34744 0.0
C897 C 0.58091 0.83348 0.29825 0.0
C898 C 0.59436 0.84171 0.32388 0.0
H899 H 0.53744 0.82324 0.27097 0.0
H900 H 0.59467 0.82681 0.28427 0.0
C901 C 0.57556 0.85032 0.34129 0.0
C902 C 0.21165 0.72761 0.30151 0.0
C903 C 0.19176 0.69729 0.31471 0.0
H904 H 0.22233 0.78012 0.29413 0.0
C905 C 0.16496 0.69586 0.3296 0.0
H906 H 0.23228 0.72916 0.28977 0.0
C907 C 0.1595 0.72512 0.33233 0.0
C908 C 0.18025 0.75597 0.31981 0.0
H909 H 0.14936 0.67277 0.33999 0.0
H910 H 0.13974 0.72399 0.34479 0.0
C911 C 0.2057 0.75657 0.30384 0.0
C912 C 0.82419 0.96026 0.39827 0.0
C913 C 0.83444 0.98946 0.38364 0.0
H914 H 0.78353 0.90679 0.40443 0.0
C915 C 0.80961 0.98769 0.36457 0.0
H916 H 0.8429 0.96109 0.41313 0.0
C917 C 0.77579 0.9564 0.35929 0.0
C918 C 0.766 0.92667 0.37335 0.0
H919 H 0.81703 0.00983 0.35297 0.0
H920 H 0.7577 0.95516 0.3438 0.0
C921 C 0.79016 0.92929 0.39334 0.0
C922 C 0.03805 0.84323 0.35346 0.0
C923 C 0.02919 0.837 0.37851 0.0
H924 H 0.075 0.84844 0.32593 0.0
C925 C 0.04949 0.82764 0.39456 0.0
H926 H 0.02295 0.85092 0.34085 0.0
C927 C 0.07967 0.82694 0.38623 0.0
C928 C 0.08983 0.83513 0.36157 0.0
H929 H 0.04348 0.82324 0.41403 0.0
H930 H 0.09594 0.82141 0.39946 0.0
C931 C 0.06786 0.8419 0.34496 0.0
C932 C 0.15005 0.18453 0.35549 0.0
C933 C 0.16342 0.18218 0.37945 0.0
H934 H 0.14355 0.21763 0.32999 0.0
C935 C 0.18357 0.21356 0.39588 0.0
H936 H 0.13487 0.16079 0.34236 0.0
C937 C 0.18841 0.24647 0.38889 0.0
C938 C 0.1735 0.24845 0.36527 0.0
H939 H 0.19416 0.21233 0.41447 0.0
H940 H 0.2027 0.26998 0.4023 0.0
C941 C 0.15516 0.21723 0.34843 0.0
C942 C 0.68011 0.57674 0.72384 0.0
C943 C 0.67466 0.54179 0.72454 0.0
H944 H 0.71392 0.63015 0.71317 0.0
C945 C 0.69946 0.53412 0.71322 0.0
H946 H 0.66147 0.58377 0.73179 0.0
C947 C 0.72853 0.56035 0.70157 0.0
C948 C 0.73433 0.59529 0.70161 0.0
H949 H 0.69726 0.50812 0.7139 0.0
H950 H 0.74745 0.5537 0.69355 0.0
C951 C 0.70993 0.6033 0.71286 0.0
C952 C 0.44502 0.09846 0.72997 0.0
C953 C 0.48166 0.12585 0.73103 0.0
H954 H 0.38957 0.08228 0.71915 0.0
C955 C 0.48984 0.1583 0.72081 0.0
H956 H 0.43747 0.07292 0.73724 0.0
C957 C 0.46248 0.16307 0.70969 0.0
C958 C 0.42603 0.13597 0.70908 0.0
H959 H 0.51738 0.18062 0.72188 0.0
H960 H 0.46981 0.18856 0.70235 0.0
C961 C 0.41751 0.10365 0.7194 0.0
C962 C 0.88942 0.32738 0.73999 0.0
C963 C 0.88637 0.35207 0.72533 0.0
H964 H 0.88771 0.27716 0.7406 0.0
C965 C 0.87979 0.34428 0.69891 0.0
H966 H 0.89354 0.33181 0.76039 0.0
C967 C 0.87544 0.31222 0.68758 0.0
C968 C 0.87829 0.28763 0.70236 0.0
H969 H 0.87786 0.36286 0.68695 0.0
H970 H 0.86988 0.30672 0.66726 0.0
C971 C 0.88579 0.29578 0.72863 0.0
C972 C 0.23532 0.01409 0.61688 0.0
C973 C 0.20996 0.98871 0.6317 0.0
H974 H 0.282 0.06621 0.61591 0.0
C975 C 0.21373 0.99729 0.65799 0.0
H976 H 0.23297 0.00903 0.59654 0.0
C977 C 0.24141 0.03067 0.669 0.0
C978 C 0.2664 0.05594 0.65407 0.0
H979 H 0.1952 0.9783 0.67011 0.0
H980 H 0.24328 0.03666 0.68923 0.0
C981 C 0.26338 0.04711 0.62796 0.0
C982 C 0.01342 0.24492 0.63054 0.0
C983 C 0.0208 0.21656 0.6297 0.0
H984 H 0.9774 0.26342 0.64143 0.0
C985 C 0.99658 0.18475 0.64033 0.0
H986 H 0.03138 0.26998 0.6229 0.0
C987 C 0.96658 0.18165 0.6518 0.0
C988 C 0.95911 0.20976 0.65232 0.0
H989 H 1.00011 0.16161 0.63937 0.0
H990 H 0.9484 0.15658 0.65941 0.0
C991 C 0.98268 0.24137 0.64144 0.0
C992 C 0.78307 0.77806 0.64027 0.0
C993 C 0.81381 0.81257 0.64044 0.0
H994 H 0.76174 0.72394 0.64993 0.0
C995 C 0.84675 0.81899 0.65271 0.0
H996 H 0.757 0.77213 0.63166 0.0
C997 C 0.84896 0.79163 0.66406 0.0
C998 C 0.81859 0.75699 0.66286 0.0
H999 H 0.8713 0.84479 0.65285 0.0
H1000 H 0.8749 0.79716 0.67272 0.0
C1001 C 0.78559 0.75047 0.65101 0.0
C1002 C 0.97916 0.79004 0.6339 0.0
C1003 C 0.99805 0.82025 0.6514 0.0
H1004 H 0.93462 0.73612 0.62678 0.0
C1005 C 0.98914 0.8175 0.67657 0.0
H1006 H 0.98534 0.79168 0.61434 0.0
C1007 C 0.96046 0.78566 0.68384 0.0
C1008 C 0.9397 0.75625 0.6659 0.0
H1009 H 1.00328 0.84061 0.69035 0.0
H1010 H 0.95309 0.78497 0.70307 0.0
C1011 C 0.95005 0.75839 0.64103 0.0
C1012 C 0.21586 0.16969 0.62648 0.0
C1013 C 0.19401 0.17189 0.64443 0.0
H1014 H 0.2644 0.1689 0.61996 0.0
C1015 C 0.20622 0.17823 0.67014 0.0
H1016 H 0.20655 0.16423 0.60658 0.0
C1017 C 0.23922 0.18083 0.67792 0.0
C1018 C 0.26035 0.17666 0.66009 0.0
H1019 H 0.18939 0.17944 0.68427 0.0
H1020 H 0.24724 0.18437 0.69796 0.0
C1021 C 0.24879 0.17211 0.63422 0.0
C1022 C 0.88 0.0629 0.62738 0.0
C1023 C 0.86311 0.03227 0.64072 0.0
H1024 H 0.8863 0.1141 0.62106 0.0
C1025 C 0.83697 0.0288 0.65706 0.0
H1026 H 0.90015 0.06604 0.6146 0.0
C1027 C 0.82933 0.05651 0.66106 0.0
C1028 C 0.84718 0.08776 0.64837 0.0
H1029 H 0.82371 0.00541 0.6676 0.0
H1030 H 0.81026 0.05394 0.67461 0.0
C1031 C 0.87184 0.09023 0.63096 0.0
C1032 C 0.4916 0.29011 0.73805 0.0
C1033 C 0.50415 0.32018 0.72409 0.0
H1034 H 0.44825 0.23747 0.74306 0.0
C1035 C 0.48062 0.32113 0.70523 0.0
H1036 H 0.5093 0.28888 0.75274 0.0
C1037 C 0.44577 0.29149 0.69939 0.0
C1038 C 0.43373 0.26072 0.71265 0.0
H1039 H 0.48983 0.34401 0.69414 0.0
H1040 H 0.42871 0.29221 0.68398 0.0
C1041 C 0.45661 0.2608 0.73256 0.0
C1042 C 0.7126 0.15649 0.72588 0.0
C1043 C 0.69277 0.16698 0.71037 0.0
H1044 H 0.75838 0.14906 0.73 0.0
C1045 C 0.70157 0.17383 0.68536 0.0
H1046 H 0.70662 0.15157 0.74531 0.0
C1047 C 0.73095 0.17207 0.67643 0.0
C1048 C 0.75254 0.16424 0.69257 0.0
H1049 H 0.68682 0.18237 0.67317 0.0
H1050 H 0.73815 0.17919 0.65749 0.0
C1051 C 0.74237 0.15537 0.71713 0.0
C1052 C 0.8498 0.54622 0.72878 0.0
C1053 C 0.8373 0.51812 0.7096 0.0
H1054 H 0.86312 0.60051 0.73848 0.0
C1055 C 0.83235 0.52457 0.68455 0.0
H1056 H 0.8536 0.54169 0.74824 0.0
C1057 C 0.83833 0.5582 0.67886 0.0
C1058 C 0.84864 0.58579 0.69822 0.0
H1059 H 0.82272 0.50317 0.66949 0.0
H1060 H 0.83288 0.56189 0.65949 0.0
C1061 C 0.85512 0.57973 0.72317 0.0
C1062 C 0.44707 0.96229 0.22722 0.0
C1063 C 0.44181 0.92755 0.22835 0.0
H1064 H 0.4637 0.00773 0.20567 0.0
C1065 C 0.44838 0.9115 0.20713 0.0
H1066 H 0.44255 0.97558 0.24329 0.0
C1067 C 0.46024 0.92979 0.18548 0.0
C1068 C 0.46606 0.96477 0.1844 0.0
H1069 H 0.44391 0.8845 0.20709 0.0
H1070 H 0.46444 0.91622 0.16943 0.0
C1071 C 0.45913 0.9807 0.20558 0.0
C1072 C 0.04805 0.49079 0.23794 0.0
C1073 C 0.08485 0.51731 0.24214 0.0
H1074 H 1.00118 0.46329 0.2114 0.0
C1075 C 0.10292 0.53624 0.22186 0.0
H1076 H 0.03344 0.47586 0.25326 0.0
C1077 C 0.08471 0.52878 0.19788 0.0
C1078 C 0.04783 0.50234 0.19356 0.0
H1079 H 0.13149 0.55628 0.22437 0.0
H1080 H 0.09984 0.54328 0.18259 0.0
C1081 C 0.02968 0.48349 0.21393 0.0
C1082 C 0.4811 0.52435 0.21746 0.0
C1083 C 0.49341 0.56078 0.22424 0.0
H1084 H 0.47913 0.48541 0.18966 0.0
C1085 C 0.51274 0.5861 0.20717 0.0
H1086 H 0.46618 0.50425 0.23024 0.0
C1087 C 0.52022 0.57543 0.1841 0.0
C1088 C 0.5086 0.53912 0.17745 0.0
H1089 H 0.52216 0.61433 0.21167 0.0
H1090 H 0.53575 0.5958 0.17165 0.0
C1091 C 0.48881 0.51364 0.19436 0.0
C1092 C 0.95122 0.48193 0.80598 0.0
C1093 C 0.93045 0.44487 0.7988 0.0
H1094 H 0.98658 0.52318 0.83489 0.0
C1095 C 0.92905 0.42072 0.81603 0.0
H1096 H 0.9528 0.50114 0.79307 0.0
C1097 C 0.94823 0.4332 0.83976 0.0
C1098 C 0.96938 0.4702 0.84693 0.0
H1099 H 0.91286 0.39198 0.8112 0.0
H1100 H 0.94686 0.41379 0.8524 0.0
C1101 C 0.97074 0.4945 0.82979 0.0
C1102 C 0.55138 0.48805 0.79646 0.0
C1103 C 0.58875 0.5055 0.79361 0.0
H1104 H 0.50963 0.48046 0.82024 0.0
C1105 C 0.61297 0.5306 0.81312 0.0
H1106 H 0.53202 0.46875 0.7817 0.0
C1107 C 0.60012 0.53742 0.83522 0.0
C1108 C 0.56276 0.51947 0.83824 0.0
H1109 H 0.64193 0.54425 0.81161 0.0
H1110 H 0.61948 0.55667 0.85 0.0
C1111 C 0.53854 0.49501 0.81846 0.0
C1112 C 0.55231 0.09375 0.82178 0.0
C1113 C 0.52774 0.07934 0.80004 0.0
H1114 H 0.56423 0.08769 0.8602 0.0
C1115 C 0.49569 0.04613 0.80084 0.0
H1116 H 0.57708 0.11942 0.82198 0.0
C1117 C 0.48811 0.02814 0.82284 0.0
C1118 C 0.51234 0.0428 0.84474 0.0
H1119 H 0.47627 0.03404 0.78442 0.0
H1120 H 0.4628 0.00302 0.82281 0.0
C1121 C 0.54468 0.07576 0.84384 0.0
C1122 C 0.11684 0.24424 0.54098 0.0
C1123 C 0.10932 0.25988 0.56197 0.0
H1124 H 0.13442 0.24962 0.50369 0.0
C1125 C 0.11491 0.29475 0.56095 0.0
H1126 H 0.11224 0.21719 0.54089 0.0
C1127 C 0.12798 0.31359 0.53962 0.0
C1128 C 0.13558 0.29797 0.5186 0.0
H1129 H 0.10977 0.30776 0.57686 0.0
H1130 H 0.13265 0.34066 0.5398 0.0
C1131 C 0.12968 0.26295 0.51961 0.0
C1132 C 0.74617 0.86923 0.56264 0.0
C1133 C 0.76453 0.85059 0.56781 0.0
H1134 H 0.71163 0.87675 0.53628 0.0
C1135 C 0.76105 0.82393 0.54964 0.0
H1136 H 0.74779 0.88951 0.57638 0.0
C1137 C 0.74015 0.8165 0.52672 0.0
C1138 C 0.7224 0.83565 0.52139 0.0
H1139 H 0.77528 0.80946 0.55282 0.0
H1140 H 0.73873 0.79643 0.51287 0.0
C1141 C 0.72543 0.86191 0.53968 0.0
C1142 C 0.17611 0.91946 0.54174 0.0
C1143 C 0.15717 0.89446 0.55908 0.0
H1144 H 0.19842 0.92864 0.50602 0.0
C1145 C 0.14438 0.85791 0.55247 0.0
H1146 H 0.18595 0.94779 0.54618 0.0
C1147 C 0.15156 0.84682 0.52925 0.0
C1148 C 0.17116 0.87206 0.51212 0.0
H1149 H 0.12973 0.8381 0.56549 0.0
H1150 H 0.14177 0.81854 0.52468 0.0
C1151 C 0.18299 0.90843 0.5186 0.0
C1152 C 0.6354 0.78941 0.13101 0.0
C1153 C 0.59983 0.78321 0.12815 0.0
H1154 H 0.68195 0.80399 0.15635 0.0
C1155 C 0.58512 0.79038 0.1492 0.0
H1156 H 0.64765 0.78453 0.11508 0.0
C1157 C 0.60493 0.8019 0.17282 0.0
C1158 C 0.63987 0.80648 0.17593 0.0
H1159 H 0.5577 0.78563 0.14768 0.0
H1160 H 0.59259 0.80662 0.18875 0.0
C1161 C 0.65518 0.80087 0.15463 0.0
C1162 C 0.27991 0.86363 0.14739 0.0
C1163 C 0.2554 0.83836 0.12807 0.0
H1164 H 0.28706 0.89014 0.18423 0.0
C1165 C 0.21812 0.82101 0.13126 0.0
H1166 H 0.30882 0.87722 0.14564 0.0
C1167 C 0.20567 0.82825 0.15338 0.0
C1168 C 0.23018 0.85292 0.17297 0.0
H1169 H 0.1985 0.80158 0.11667 0.0
H1170 H 0.17682 0.81379 0.15538 0.0
C1171 C 0.26746 0.87072 0.16963 0.0
C1172 C 0.16572 0.38135 0.13352 0.0
C1173 C 0.19776 0.41444 0.13238 0.0
H1174 H 0.13311 0.33872 0.15588 0.0
C1175 C 0.22282 0.42894 0.15387 0.0
H1176 H 0.14594 0.36915 0.1173 0.0
C1177 C 0.21562 0.4112 0.17605 0.0
C1178 C 0.18321 0.37843 0.17733 0.0
H1179 H 0.24762 0.45451 0.15381 0.0
H1180 H 0.23548 0.42325 0.19223 0.0
C1181 C 0.15854 0.36365 0.15564 0.0
C1182 C 0.78244 0.62868 0.89373 0.0
C1183 C 0.77729 0.59398 0.89488 0.0
H1184 H 0.7993 0.67424 0.87229 0.0
C1185 C 0.78459 0.57824 0.87385 0.0
H1186 H 0.77742 0.64176 0.90966 0.0
C1187 C 0.79691 0.59674 0.85234 0.0
C1188 C 0.80245 0.63162 0.85122 0.0
H1189 H 0.78025 0.55129 0.87383 0.0
H1190 H 0.80163 0.58341 0.83641 0.0
C1191 C 0.79493 0.64728 0.87223 0.0
C1192 C 0.40796 0.20501 0.89804 0.0
C1193 C 0.42282 0.18356 0.90438 0.0
H1194 H 0.37652 0.215 0.8705 0.0
C1195 C 0.41578 0.15425 0.88738 0.0
H1196 H 0.4124 0.22749 0.9108 0.0
C1197 C 0.39493 0.14691 0.86451 0.0
C1198 C 0.3809 0.16889 0.85793 0.0
H1199 H 0.4274 0.1376 0.89132 0.0
H1200 H 0.39085 0.12473 0.85157 0.0
C1201 C 0.38736 0.19784 0.875 0.0
C1202 C 0.80967 0.18982 0.88383 0.0
C1203 C 0.82343 0.22649 0.89082 0.0
H1204 H 0.80592 0.15027 0.85569 0.0
C1205 C 0.84319 0.25155 0.8737 0.0
H1206 H 0.79436 0.16991 0.89663 0.0
C1207 C 0.84979 0.24045 0.85045 0.0
C1208 C 0.83689 0.20392 0.84359 0.0
H1209 H 0.85378 0.27998 0.87837 0.0
H1210 H 0.86577 0.26068 0.83805 0.0
C1211 C 0.81656 0.17866 0.86051 0.0
C1212 C 0.25669 0.1279 0.48519 0.0
C1213 C 0.27174 0.12106 0.4642 0.0
H1214 H 0.26376 0.14436 0.52465 0.0
C1215 C 0.30745 0.12763 0.46724 0.0
H1216 H 0.22913 0.12276 0.48361 0.0
C1217 C 0.32714 0.1395 0.49092 0.0
C1218 C 0.31153 0.14502 0.51209 0.0
H1219 H 0.31995 0.12296 0.45138 0.0
H1220 H 0.35413 0.14316 0.4928 0.0
C1221 C 0.27636 0.13977 0.50882 0.0
C1222 C 0.92948 0.20173 0.47024 0.0
C1223 C 0.90561 0.17356 0.45217 0.0
H1224 H 0.93707 0.22851 0.50699 0.0
C1225 C 0.86941 0.15161 0.45754 0.0
H1226 H 0.9577 0.21879 0.46703 0.0
C1227 C 0.85768 0.15702 0.48059 0.0
C1228 C 0.88177 0.18465 0.49887 0.0
H1229 H 0.85013 0.13 0.44396 0.0
H1230 H 0.82967 0.13951 0.48412 0.0
C1231 C 0.91769 0.20724 0.49325 0.0
C1232 C 0.83074 0.7145 0.46727 0.0
C1233 C 0.86267 0.74783 0.46656 0.0
H1234 H 0.79764 0.67151 0.48923 0.0
C1235 C 0.88696 0.76249 0.48844 0.0
H1236 H 0.81155 0.70221 0.45074 0.0
C1237 C 0.87911 0.74463 0.51056 0.0
C1238 C 0.84682 0.71159 0.51138 0.0
H1239 H 0.91163 0.78824 0.4887 0.0
H1240 H 0.89842 0.75674 0.52703 0.0
C1241 C 0.82291 0.69668 0.48933 0.0
loop_
_geom_bond_atom_site_label_1
_geom_bond_atom_site_label_2
_geom_bond_distance
_geom_bond_site_symmetry_2
_ccdc_geom_bond_type
H0 C1 0.949 . S
C1 H0 0.949 . S
C1 C2 1.395 . S
C1 C3 1.391 . S
C2 C1 1.395 . S
C2 C5 1.390 . S
C3 C1 1.391 . S
C3 C7 1.387 . S
C3 C8 1.491 . S
H4 C5 0.950 . S
C5 C2 1.390 . S
C5 H4 0.950 . S
C5 C6 1.378 . S
C6 C5 1.378 . S
C6 C7 1.409 . S
C7 C3 1.387 . S
C7 C6 1.409 . S
C7 H9 0.951 . S
C8 C3 1.491 . S
C8 C10 1.382 . S
C8 C12 1.404 . S
H9 C7 0.951 . S
C10 C8 1.382 . S
C10 C11 1.390 . S
C10 H15 0.949 . S
C11 C10 1.390 . S
C11 C16 1.399 . S
C12 C8 1.404 . S
C12 H13 0.950 . S
C12 C14 1.375 . S
H13 C12 0.950 . S
C14 C12 1.375 . S
C14 C16 1.382 . S
C14 H18 0.950 . S
H15 C10 0.949 . S
C16 C11 1.399 . S
C16 C14 1.382 . S
C16 H17 0.952 . S
H17 C16 0.952 . S
H18 C14 0.950 . S
H19 C20 0.949 . S
C20 H19 0.949 . S
C20 C21 1.395 . S
C20 C22 1.391 . S
C21 C20 1.395 . S
C21 C24 1.390 . S
C22 C20 1.391 . S
C22 C26 1.387 . S
C22 C27 1.491 . S
H23 C24 0.950 . S
C24 C21 1.390 . S
C24 H23 0.950 . S
C24 C25 1.378 . S
C25 C24 1.378 . S
C25 C26 1.409 . S
C26 C22 1.387 . S
C26 C25 1.409 . S
C26 H28 0.951 . S
C27 C22 1.491 . S
C27 C29 1.382 . S
C27 C31 1.404 . S
H28 C26 0.951 . S
C29 C27 1.382 . S
C29 C30 1.390 . S
C29 H34 0.949 . S
C30 C29 1.390 . S
C30 C35 1.399 1_545 S
C31 C27 1.404 . S
C31 H32 0.950 . S
C31 C33 1.375 . S
H32 C31 0.950 . S
C33 C31 1.375 . S
C33 C35 1.382 1_545 S
C33 H37 0.950 . S
H34 C29 0.949 . S
C35 C30 1.399 1_565 S
C35 C33 1.382 1_565 S
C35 H36 0.952 . S
H36 C35 0.952 . S
H37 C33 0.950 . S
H38 C39 0.949 . S
C39 H38 0.949 . S
C39 C40 1.395 . S
C39 C41 1.391 . S
C40 C39 1.395 . S
C40 C43 1.390 . S
C41 C39 1.391 . S
C41 C45 1.387 . S
C41 C46 1.491 . S
H42 C43 0.950 . S
C43 C40 1.390 . S
C43 H42 0.950 . S
C43 C44 1.378 . S
C44 C43 1.378 . S
C44 C45 1.409 . S
C45 C41 1.387 . S
C45 C44 1.409 . S
C45 H47 0.951 . S
C46 C41 1.491 . S
C46 C48 1.382 . S
C46 C50 1.404 . S
H47 C45 0.951 . S
C48 C46 1.382 . S
C48 C49 1.390 1_655 S
C48 H53 0.949 . S
C49 C48 1.390 1_455 S
C49 C54 1.399 . S
C50 C46 1.404 . S
C50 H51 0.950 . S
C50 C52 1.375 1_655 S
H51 C50 0.950 . S
C52 C50 1.375 1_455 S
C52 C54 1.382 . S
C52 H56 0.950 . S
H53 C48 0.949 . S
C54 C49 1.399 . S
C54 C52 1.382 . S
C54 H55 0.952 . S
H55 C54 0.952 . S
H56 C52 0.950 . S
H57 C58 0.949 . S
C58 H57 0.949 . S
C58 C59 1.395 . S
C58 C60 1.391 . S
C59 C58 1.395 . S
C59 C62 1.390 . S
C60 C58 1.391 . S
C60 C64 1.387 . S
C60 C65 1.491 . S
H61 C62 0.950 . S
C62 C59 1.390 . S
C62 H61 0.950 . S
C62 C63 1.378 . S
C63 C62 1.378 . S
C63 C64 1.409 . S
C64 C60 1.387 . S
C64 C63 1.409 . S
C64 H66 0.951 . S
C65 C60 1.491 . S
C65 C67 1.382 . S
C65 C69 1.404 . S
H66 C64 0.951 . S
C67 C65 1.382 . S
C67 C68 1.390 . S
C67 H72 0.949 . S
C68 C67 1.390 . S
C68 C73 1.399 . S
C69 C65 1.404 . S
C69 H70 0.950 . S
C69 C71 1.375 . S
H70 C69 0.950 . S
C71 C69 1.375 . S
C71 C73 1.382 . S
C71 H75 0.950 . S
H72 C67 0.949 . S
C73 C68 1.399 . S
C73 C71 1.382 . S
C73 H74 0.952 . S
H74 C73 0.952 . S
H75 C71 0.950 . S
H76 C77 0.949 . S
C77 H76 0.949 . S
C77 C78 1.395 . S
C77 C79 1.391 . S
C78 C77 1.395 . S
C78 C81 1.390 . S
C79 C77 1.391 . S
C79 C83 1.387 . S
C79 C84 1.491 . S
H80 C81 0.950 . S
C81 C78 1.390 . S
C81 H80 0.950 . S
C81 C82 1.378 . S
C82 C81 1.378 . S
C82 C83 1.409 . S
C83 C79 1.387 . S
C83 C82 1.409 . S
C83 H85 0.951 . S
C84 C79 1.491 . S
C84 C86 1.382 . S
C84 C88 1.404 . S
H85 C83 0.951 . S
C86 C84 1.382 . S
C86 C87 1.390 . S
C86 H91 0.949 . S
C87 C86 1.390 . S
C87 C92 1.399 1_565 S
C88 C84 1.404 . S
C88 H89 0.950 . S
C88 C90 1.375 . S
H89 C88 0.950 . S
C90 C88 1.375 . S
C90 C92 1.382 1_565 S
C90 H94 0.950 . S
H91 C86 0.949 . S
C92 C87 1.399 1_545 S
C92 C90 1.382 1_545 S
C92 H93 0.952 . S
H93 C92 0.952 . S
H94 C90 0.950 . S
H95 C96 0.949 . S
C96 H95 0.949 . S
C96 C97 1.395 . S
C96 C98 1.391 . S
C97 C96 1.395 . S
C97 C100 1.390 . S
C98 C96 1.391 . S
C98 C102 1.387 . S
C98 C103 1.491 . S
H99 C100 0.950 . S
C100 C97 1.390 . S
C100 H99 0.950 . S
C100 C101 1.378 . S
C101 C100 1.378 . S
C101 C102 1.409 . S
C102 C98 1.387 . S
C102 C101 1.409 . S
C102 H104 0.951 . S
C103 C98 1.491 . S
C103 C105 1.382 . S
C103 C107 1.404 . S
H104 C102 0.951 . S
C105 C103 1.382 . S
C105 C106 1.390 . S
C105 H110 0.949 . S
C106 C105 1.390 . S
C106 C111 1.399 . S
C107 C103 1.404 . S
C107 H108 0.950 . S
C107 C109 1.375 . S
H108 C107 0.950 . S
C109 C107 1.375 . S
C109 C111 1.382 . S
C109 H113 0.950 . S
H110 C105 0.949 . S
C111 C106 1.399 . S
C111 C109 1.382 . S
C111 H112 0.952 1_455 S
H112 C111 0.952 1_655 S
H113 C109 0.950 . S
H114 C115 0.949 . S
C115 H114 0.949 . S
C115 C116 1.395 . S
C115 C117 1.391 . S
C116 C115 1.395 . S
C116 C119 1.390 . S
C117 C115 1.391 . S
C117 C121 1.387 . S
C117 C122 1.491 . S
H118 C119 0.950 . S
C119 C116 1.390 . S
C119 H118 0.950 . S
C119 C120 1.378 . S
C120 C119 1.378 . S
C120 C121 1.409 . S
C121 C117 1.387 . S
C121 C120 1.409 . S
C121 H123 0.951 . S
C122 C117 1.491 . S
C122 C124 1.382 . S
C122 C126 1.404 . S
H123 C121 0.951 . S
C124 C122 1.382 . S
C124 C125 1.390 . S
C124 H129 0.949 . S
C125 C124 1.390 . S
C125 C130 1.399 . S
C126 C122 1.404 . S
C126 H127 0.950 . S
C126 C128 1.375 . S
H127 C126 0.950 . S
C128 C126 1.375 . S
C128 C130 1.382 . S
C128 H132 0.950 . S
H129 C124 0.949 . S
C130 C125 1.399 . S
C130 C128 1.382 . S
C130 H131 0.952 . S
H131 C130 0.952 . S
H132 C128 0.950 . S
H133 C134 0.949 . S
C134 H133 0.949 . S
C134 C135 1.395 . S
C134 C136 1.391 . S
C135 C134 1.395 . S
C135 C138 1.390 . S
C136 C134 1.391 . S
C136 C140 1.387 . S
C136 C141 1.491 . S
H137 C138 0.950 . S
C138 C135 1.390 . S
C138 H137 0.950 . S
C138 C139 1.378 . S
C139 C138 1.378 . S
C139 C140 1.409 . S
C140 C136 1.387 . S
C140 C139 1.409 . S
C140 H142 0.951 . S
C141 C136 1.491 . S
C141 C143 1.382 . S
C141 C145 1.404 . S
H142 C140 0.951 . S
C143 C141 1.382 . S
C143 C144 1.390 . S
C143 H148 0.949 . S
C144 C143 1.390 . S
C144 C149 1.399 . S
C145 C141 1.404 . S
C145 H146 0.950 . S
C145 C147 1.375 . S
H146 C145 0.950 . S
C147 C145 1.375 . S
C147 C149 1.382 . S
C147 H151 0.950 . S
H148 C143 0.949 . S
C149 C144 1.399 . S
C149 C147 1.382 . S
C149 H150 0.952 . S
H150 C149 0.952 . S
H151 C147 0.950 . S
H152 C153 0.949 . S
C153 H152 0.949 . S
C153 C154 1.395 . S
C153 C155 1.391 . S
C154 C153 1.395 . S
C154 C157 1.390 . S
C155 C153 1.391 . S
C155 C159 1.387 . S
C155 C160 1.491 . S
H156 C157 0.950 . S
C157 C154 1.390 . S
C157 H156 0.950 . S
C157 C158 1.378 . S
C158 C157 1.378 . S
C158 C159 1.409 . S
C159 C155 1.387 . S
C159 C158 1.409 . S
C159 H161 0.951 . S
C160 C155 1.491 . S
C160 C162 1.382 . S
C160 C164 1.404 . S
H161 C159 0.951 . S
C162 C160 1.382 . S
C162 C163 1.390 . S
C162 H167 0.949 . S
C163 C162 1.390 . S
C163 C168 1.399 . S
C164 C160 1.404 . S
C164 H165 0.950 . S
C164 C166 1.375 . S
H165 C164 0.950 . S
C166 C164 1.375 . S
C166 C168 1.382 . S
C166 H170 0.950 . S
H167 C162 0.949 . S
C168 C163 1.399 . S
C168 C166 1.382 . S
C168 H169 0.952 . S
H169 C168 0.952 . S
H170 C166 0.950 . S
H171 C172 0.949 . S
C172 H171 0.949 . S
C172 C173 1.395 . S
C172 C174 1.391 . S
C173 C172 1.395 . S
C173 C176 1.390 . S
C174 C172 1.391 . S
C174 C178 1.387 . S
C174 C179 1.491 . S
H175 C176 0.950 . S
C176 C173 1.390 . S
C176 H175 0.950 . S
C176 C177 1.378 . S
C177 C176 1.378 . S
C177 C178 1.409 . S
C178 C174 1.387 . S
C178 C177 1.409 . S
C178 H180 0.951 . S
C179 C174 1.491 . S
C179 C181 1.382 . S
C179 C183 1.404 . S
H180 C178 0.951 . S
C181 C179 1.382 . S
C181 C182 1.390 . S
C181 H186 0.949 . S
C182 C181 1.390 . S
C182 C187 1.399 . S
C183 C179 1.404 . S
C183 H184 0.950 . S
C183 C185 1.375 . S
H184 C183 0.950 . S
C185 C183 1.375 . S
C185 C187 1.382 . S
C185 H189 0.950 . S
H186 C181 0.949 . S
C187 C182 1.399 . S
C187 C185 1.382 . S
C187 H188 0.952 . S
H188 C187 0.952 . S
H189 C185 0.950 . S
H190 C191 0.949 . S
C191 H190 0.949 . S
C191 C192 1.395 . S
C191 C193 1.391 . S
C192 C191 1.395 . S
C192 C195 1.390 . S
C193 C191 1.391 . S
C193 C197 1.387 . S
C193 C198 1.491 . S
H194 C195 0.950 . S
C195 C192 1.390 . S
C195 H194 0.950 . S
C195 C196 1.378 . S
C196 C195 1.378 . S
C196 C197 1.409 . S
C197 C193 1.387 . S
C197 C196 1.409 . S
C197 H199 0.951 1_556 S
C198 C193 1.491 . S
C198 C200 1.382 . S
C198 C202 1.404 1_556 S
H199 C197 0.951 1_554 S
C200 C198 1.382 . S
C200 C201 1.390 1_556 S
C200 H205 0.949 . S
C201 C200 1.390 1_554 S
C201 C206 1.399 . S
C202 C198 1.404 1_554 S
C202 H203 0.950 . S
C202 C204 1.375 . S
H203 C202 0.950 . S
C204 C202 1.375 . S
C204 C206 1.382 . S
C204 H208 0.950 . S
H205 C200 0.949 . S
C206 C201 1.399 . S
C206 C204 1.382 . S
C206 H207 0.952 . S
H207 C206 0.952 . S
H208 C204 0.950 . S
H209 C210 0.949 . S
C210 H209 0.949 . S
C210 C211 1.395 . S
C210 C212 1.391 . S
C211 C210 1.395 . S
C211 C214 1.390 . S
C212 C210 1.391 . S
C212 C216 1.387 . S
C212 C217 1.491 . S
H213 C214 0.950 . S
C214 C211 1.390 . S
C214 H213 0.950 . S
C214 C215 1.378 . S
C215 C214 1.378 . S
C215 C216 1.409 . S
C216 C212 1.387 . S
C216 C215 1.409 . S
C216 H218 0.951 . S
C217 C212 1.491 . S
C217 C219 1.382 . S
C217 C221 1.404 . S
H218 C216 0.951 . S
C219 C217 1.382 . S
C219 C220 1.390 . S
C219 H224 0.949 . S
C220 C219 1.390 . S
C220 C225 1.399 . S
C221 C217 1.404 . S
C221 H222 0.950 . S
C221 C223 1.367 1_556 S
H222 C221 0.950 . S
C223 C221 1.367 1_554 S
C223 C225 1.382 1_554 S
C223 H227 0.959 . S
H224 C219 0.949 . S
C225 C220 1.399 . S
C225 C223 1.382 1_556 S
C225 H226 0.952 1_556 S
H226 C225 0.952 1_554 S
H227 C223 0.959 . S
H228 C229 0.949 . S
C229 H228 0.949 . S
C229 C230 1.395 . S
C229 C231 1.391 . S
C230 C229 1.395 . S
C230 C233 1.390 . S
C231 C229 1.391 . S
C231 C235 1.387 . S
C231 C236 1.491 . S
H232 C233 0.950 . S
C233 C230 1.390 . S
C233 H232 0.950 . S
C233 C234 1.378 . S
C234 C233 1.378 . S
C234 C235 1.409 . S
C235 C231 1.387 . S
C235 C234 1.409 . S
C235 H237 0.912 1_554 S
C236 C231 1.491 . S
C236 C238 1.382 . S
C236 C240 1.404 1_554 S
H237 C235 0.912 1_556 S
C238 C236 1.382 . S
C238 C239 1.390 . S
C238 H243 0.949 . S
C239 C238 1.390 . S
C239 C244 1.399 1_554 S
C240 C236 1.404 1_556 S
C240 H241 0.950 . S
C240 C242 1.375 . S
H241 C240 0.950 . S
C242 C240 1.375 . S
C242 C244 1.382 . S
C242 H246 0.950 . S
H243 C238 0.949 . S
C244 C239 1.399 1_556 S
C244 C242 1.382 . S
C244 H245 0.952 . S
H245 C244 0.952 . S
H246 C242 0.950 . S
H247 C248 0.949 . S
C248 H247 0.949 . S
C248 C249 1.395 . S
C248 C250 1.391 . S
C249 C248 1.395 . S
C249 C252 1.390 . S
C250 C248 1.391 . S
C250 C254 1.387 . S
C250 C255 1.491 . S
H251 C252 0.950 . S
C252 C249 1.390 . S
C252 H251 0.950 . S
C252 C253 1.378 . S
C253 C252 1.378 . S
C253 C254 1.409 . S
C254 C250 1.387 . S
C254 C253 1.409 . S
C254 H256 0.951 . S
C255 C250 1.491 . S
C255 C257 1.382 . S
C255 C259 1.404 . S
H256 C254 0.951 . S
C257 C255 1.382 . S
C257 C258 1.390 . S
C257 H262 0.949 . S
C258 C257 1.390 . S
C258 C263 1.390 1_554 S
C259 C255 1.404 . S
C259 H260 0.950 . S
C259 C261 1.375 1_554 S
H260 C259 0.950 . S
C261 C259 1.375 1_556 S
C261 C263 1.385 . S
C261 H265 0.950 . S
H262 C257 0.949 . S
C263 C258 1.390 1_556 S
C263 C261 1.385 . S
C263 H264 0.958 . S
H264 C263 0.958 . S
H265 C261 0.950 . S
H266 C267 0.949 . S
C267 H266 0.949 . S
C267 C268 1.395 . S
C267 C269 1.391 . S
C268 C267 1.395 . S
C268 C271 1.390 . S
C269 C267 1.391 . S
C269 C273 1.387 . S
C269 C274 1.491 . S
H270 C271 0.950 . S
C271 C268 1.390 . S
C271 H270 0.950 . S
C271 C272 1.378 . S
C272 C271 1.378 . S
C272 C273 1.409 . S
C273 C269 1.387 . S
C273 C272 1.409 . S
C273 H275 0.951 . S
C274 C269 1.491 . S
C274 C276 1.382 . S
C274 C278 1.404 . S
H275 C273 0.951 . S
C276 C274 1.382 . S
C276 C277 1.390 . S
C276 H281 0.949 . S
C277 C276 1.390 . S
C277 C282 1.399 . S
C278 C274 1.404 . S
C278 H279 0.950 . S
C278 C280 1.375 . S
H279 C278 0.950 . S
C280 C278 1.375 . S
C280 C282 1.382 . S
C280 H284 0.950 . S
H281 C276 0.949 . S
C282 C277 1.399 . S
C282 C280 1.382 . S
C282 H283 0.952 . S
H283 C282 0.952 . S
H284 C280 0.950 . S
H285 C286 0.949 . S
C286 H285 0.949 . S
C286 C287 1.395 . S
C286 C288 1.391 . S
C287 C286 1.395 . S
C287 C290 1.390 . S
C288 C286 1.391 . S
C288 C292 1.387 . S
C288 C293 1.491 . S
H289 C290 0.950 . S
C290 C287 1.390 . S
C290 H289 0.950 . S
C290 C291 1.378 . S
C291 C290 1.378 . S
C291 C292 1.409 . S
C292 C288 1.387 . S
C292 C291 1.409 . S
C292 H294 0.951 . S
C293 C288 1.491 . S
C293 C295 1.382 . S
C293 C297 1.404 . S
H294 C292 0.951 . S
C295 C293 1.382 . S
C295 C296 1.390 . S
C295 H300 0.949 . S
C296 C295 1.390 . S
C296 C301 1.399 . S
C297 C293 1.404 . S
C297 H298 0.950 . S
C297 C299 1.375 . S
H298 C297 0.950 . S
C299 C297 1.375 . S
C299 C301 1.382 . S
C299 H303 0.950 . S
H300 C295 0.949 . S
C301 C296 1.399 . S
C301 C299 1.382 . S
C301 H302 0.952 . S
H302 C301 0.952 . S
H303 C299 0.950 . S
H304 C305 0.949 . S
C305 H304 0.949 . S
C305 C306 1.395 . S
C305 C307 1.391 . S
C306 C305 1.395 . S
C306 C309 1.390 . S
C307 C305 1.391 . S
C307 C311 1.387 . S
C307 C312 1.491 . S
H308 C309 0.950 . S
C309 C306 1.390 . S
C309 H308 0.950 . S
C309 C310 1.378 . S
C310 C309 1.378 . S
C310 C311 1.409 . S
C311 C307 1.387 . S
C311 C310 1.409 . S
C311 H313 0.951 . S
C312 C307 1.491 . S
C312 C314 1.382 . S
C312 C316 1.404 . S
H313 C311 0.951 . S
C314 C312 1.382 . S
C314 C315 1.390 . S
C314 H319 0.949 . S
C315 C314 1.390 . S
C315 C320 1.399 . S
C316 C312 1.404 . S
C316 H317 0.950 . S
C316 C318 1.375 . S
H317 C316 0.950 . S
C318 C316 1.375 . S
C318 C320 1.382 . S
C318 H322 0.950 . S
H319 C314 0.949 . S
C320 C315 1.399 . S
C320 C318 1.382 . S
C320 H321 0.952 . S
H321 C320 0.952 . S
H322 C318 0.950 . S
H323 C324 0.949 . S
C324 H323 0.949 . S
C324 C325 1.395 . S
C324 C326 1.391 . S
C325 C324 1.395 . S
C325 C328 1.390 . S
C326 C324 1.391 . S
C326 C330 1.387 . S
C326 C331 1.491 . S
H327 C328 0.950 . S
C328 C325 1.390 . S
C328 H327 0.950 . S
C328 C329 1.378 . S
C329 C328 1.378 . S
C329 C330 1.409 . S
C330 C326 1.387 . S
C330 C329 1.409 . S
C330 H332 0.951 . S
C331 C326 1.491 . S
C331 C333 1.382 . S
C331 C335 1.404 . S
H332 C330 0.951 . S
C333 C331 1.382 . S
C333 C334 1.390 . S
C333 H338 0.949 . S
C334 C333 1.390 . S
C334 C339 1.399 . S
C335 C331 1.404 . S
C335 H336 0.950 . S
C335 C337 1.375 . S
H336 C335 0.950 . S
C337 C335 1.375 . S
C337 C339 1.382 . S
C337 H341 0.950 . S
H338 C333 0.949 . S
C339 C334 1.399 . S
C339 C337 1.382 . S
C339 H340 0.952 . S
H340 C339 0.952 . S
H341 C337 0.950 . S
Eu342 C351 2.828 1_565 S
Eu342 O353 2.392 . S
Eu342 O355 2.418 . S
Eu342 O360 2.373 1_565 S
Eu342 O363 2.488 . S
Eu342 O364 2.471 1_565 S
Eu342 O365 2.349 1_565 S
Eu343 O352 2.373 1_545 S
Eu343 O356 2.488 . S
Eu343 O357 2.471 1_545 S
Eu343 O358 2.349 1_545 S
Eu343 O361 2.392 . S
Eu343 O362 2.418 . S
Eu343 C372 2.828 1_545 S
C344 O362 1.244 . S
C344 O365 1.265 1_554 S
C345 C346 1.379 . S
C345 C349 1.373 . S
C345 C351 1.505 . S
C346 C345 1.379 . S
C346 C348 1.369 . S
C346 H374 0.930 . S
C347 C349 1.383 . S
C347 C350 1.382 . S
C347 H375 0.930 . S
C348 C346 1.369 . S
C348 C350 1.392 . S
C348 H376 0.930 . S
C349 C345 1.373 . S
C349 C347 1.383 . S
C349 H377 0.931 1_545 S
C350 C347 1.382 . S
C350 C348 1.392 . S
C351 Eu342 2.828 1_545 S
C351 C345 1.505 . S
C351 O363 1.249 1_545 S
C351 O364 1.244 . S
O352 Eu343 2.373 1_565 S
O352 C354 1.258 . S
O353 Eu342 2.392 . S
O353 C354 1.242 1_556 S
C354 O352 1.258 . S
C354 O353 1.242 1_554 S
O355 Eu342 2.418 . S
O355 C359 1.278 . S
O356 Eu343 2.488 . S
O356 C372 1.249 1_545 S
O357 Eu343 2.471 1_565 S
O357 C372 1.244 . S
O358 Eu343 2.349 1_565 S
O358 C359 1.248 1_554 S
C359 O355 1.278 . S
C359 O358 1.248 1_556 S
O360 Eu342 2.373 1_545 S
O360 C373 1.258 . S
O361 Eu343 2.392 . S
O361 C373 1.242 1_554 S
O362 Eu343 2.418 . S
O362 C344 1.244 . S
O363 Eu342 2.488 . S
O363 C351 1.249 1_565 S
O364 Eu342 2.471 1_545 S
O364 C351 1.244 . S
O365 Eu342 2.349 1_545 S
O365 C344 1.265 1_556 S
C366 C367 1.379 . S
C366 C370 1.373 1_565 S
C366 C372 1.505 . S
C367 C366 1.379 . S
C367 C369 1.369 . S
C367 H378 0.930 . S
C368 C370 1.383 1_565 S
C368 C371 1.382 . S
C368 H379 0.930 1_565 S
C369 C367 1.369 . S
C369 C371 1.392 . S
C369 H380 0.930 . S
C370 C366 1.373 1_545 S
C370 C368 1.383 1_545 S
C370 H381 0.931 . S
C371 C368 1.382 . S
C371 C369 1.392 . S
C372 Eu343 2.828 1_565 S
C372 O356 1.249 1_565 S
C372 O357 1.244 . S
C372 C366 1.505 . S
C373 O360 1.258 . S
C373 O361 1.242 1_556 S
H374 C346 0.930 . S
H375 C347 0.930 . S
H376 C348 0.930 . S
H377 C349 0.931 1_565 S
H378 C367 0.930 . S
H379 C368 0.930 1_545 S
H380 C369 0.930 . S
H381 C370 0.931 . S
Eu382 C391 2.828 1_455 S
Eu382 O393 2.393 . S
Eu382 O395 2.418 . S
Eu382 O400 2.373 1_455 S
Eu382 O403 2.488 . S
Eu382 O404 2.471 1_455 S
Eu382 O405 2.349 1_455 S
Eu383 O392 2.373 1_655 S
Eu383 O396 2.488 . S
Eu383 O397 2.471 1_655 S
Eu383 O398 2.349 1_655 S
Eu383 O401 2.392 . S
Eu383 O402 2.418 . S
Eu383 C412 2.828 1_655 S
C384 O402 1.204 1_556 S
C384 O405 1.287 . S
C385 C386 1.379 . S
C385 C389 1.373 . S
C385 C391 1.505 . S
C386 C385 1.379 . S
C386 C388 1.369 . S
C386 H414 0.930 . S
C387 C389 1.383 . S
C387 C390 1.382 . S
C387 H415 0.930 . S
C388 C386 1.369 . S
C388 C390 1.392 . S
C388 H416 0.930 . S
C389 C385 1.373 . S
C389 C387 1.383 . S
C389 H417 0.931 1_655 S
C390 C387 1.382 . S
C390 C388 1.392 . S
C391 Eu382 2.828 1_655 S
C391 C385 1.505 . S
C391 O403 1.249 1_655 S
C391 O404 1.244 . S
O392 Eu383 2.373 1_455 S
O392 C394 1.258 . S
O393 Eu382 2.393 . S
O393 C394 1.240 1_556 S
C394 O392 1.258 . S
C394 O393 1.240 1_554 S
O395 Eu382 2.418 . S
O395 C399 1.244 1_556 S
O396 Eu383 2.488 . S
O396 C412 1.249 1_655 S
O397 Eu383 2.471 1_455 S
O397 C412 1.244 . S
O398 Eu383 2.349 1_455 S
O398 C399 1.265 . S
C399 O395 1.244 1_554 S
C399 O398 1.265 . S
O400 Eu382 2.373 1_655 S
O400 C413 1.258 . S
O401 Eu383 2.392 . S
O401 C413 1.242 1_554 S
O402 Eu383 2.418 . S
O402 C384 1.204 1_554 S
O403 Eu382 2.488 . S
O403 C391 1.249 1_455 S
O404 Eu382 2.471 1_655 S
O404 C391 1.244 . S
O405 Eu382 2.349 1_655 S
O405 C384 1.287 . S
C406 C407 1.379 . S
C406 C410 1.373 . S
C406 C412 1.505 . S
C407 C406 1.379 . S
C407 C409 1.369 . S
C407 H418 0.930 . S
C408 C410 1.383 . S
C408 C411 1.382 . S
C408 H419 0.930 . S
C409 C407 1.369 . S
C409 C411 1.392 . S
C409 H420 0.930 . S
C410 C406 1.373 . S
C410 C408 1.383 . S
C410 H421 0.931 1_455 S
C411 C408 1.382 . S
C411 C409 1.392 . S
C412 Eu383 2.828 1_455 S
C412 O396 1.249 1_455 S
C412 O397 1.244 . S
C412 C406 1.505 . S
C413 O400 1.258 . S
C413 O401 1.242 1_556 S
H414 C386 0.930 . S
H415 C387 0.930 . S
H416 C388 0.930 . S
H417 C389 0.931 1_455 S
H418 C407 0.930 . S
H419 C408 0.930 . S
H420 C409 0.930 . S
H421 C410 0.931 1_655 S
Eu422 C431 2.828 . S
Eu422 O433 2.392 . S
Eu422 O435 2.418 . S
Eu422 O440 2.373 . S
Eu422 O443 2.488 . S
Eu422 O444 2.471 . S
Eu422 O445 2.349 . S
Eu423 O432 2.373 . S
Eu423 O436 2.488 . S
Eu423 O437 2.471 . S
Eu423 O438 2.349 . S
Eu423 O441 2.392 1_556 S
Eu423 O442 2.418 . S
Eu423 C452 2.828 . S
C424 O442 1.244 1_554 S
C424 O445 1.265 . S
C425 C426 1.379 . S
C425 C429 1.373 . S
C425 C431 1.505 . S
C426 C425 1.379 . S
C426 C428 1.369 . S
C426 H454 0.930 . S
C427 C429 1.383 . S
C427 C430 1.382 . S
C427 H455 0.930 . S
C428 C426 1.369 . S
C428 C430 1.392 . S
C428 H456 0.930 . S
C429 C425 1.373 . S
C429 C427 1.383 . S
C429 H457 0.931 . S
C430 C427 1.382 . S
C430 C428 1.392 . S
C431 Eu422 2.828 . S
C431 C425 1.505 . S
C431 O443 1.249 . S
C431 O444 1.244 . S
O432 Eu423 2.373 . S
O432 C434 1.258 . S
O433 Eu422 2.392 . S
O433 C434 1.242 1_554 S
C434 O432 1.258 . S
C434 O433 1.242 1_556 S
O435 Eu422 2.418 . S
O435 C439 1.244 . S
O436 Eu423 2.488 . S
O436 C452 1.249 . S
O437 Eu423 2.471 . S
O437 C452 1.244 . S
O438 Eu423 2.349 . S
O438 C439 1.265 1_556 S
C439 O435 1.244 . S
C439 O438 1.265 1_554 S
O440 Eu422 2.373 . S
O440 C453 1.258 . S
O441 Eu423 2.392 1_554 S
O441 C453 1.242 . S
O442 Eu423 2.418 . S
O442 C424 1.244 1_556 S
O443 Eu422 2.488 . S
O443 C431 1.249 . S
O444 Eu422 2.471 . S
O444 C431 1.244 . S
O445 Eu422 2.349 . S
O445 C424 1.265 . S
C446 C447 1.379 . S
C446 C450 1.373 . S
C446 C452 1.505 . S
C447 C446 1.379 . S
C447 C449 1.369 . S
C447 H458 0.930 . S
C448 C450 1.383 . S
C448 C451 1.382 . S
C448 H459 0.930 . S
C449 C447 1.369 . S
C449 C451 1.392 . S
C449 H460 0.930 . S
C450 C446 1.373 . S
C450 C448 1.383 . S
C450 H461 0.931 . S
C451 C448 1.382 . S
C451 C449 1.392 . S
C452 Eu423 2.828 . S
C452 O436 1.249 . S
C452 O437 1.244 . S
C452 C446 1.505 . S
C453 O440 1.258 . S
C453 O441 1.242 . S
H454 C426 0.930 . S
H455 C427 0.930 . S
H456 C428 0.930 . S
H457 C429 0.931 . S
H458 C447 0.930 . S
H459 C448 0.930 . S
H460 C449 0.930 . S
H461 C450 0.931 . S
Eu462 C471 2.828 . S
Eu462 O473 2.392 . S
Eu462 O475 2.418 . S
Eu462 O480 2.373 . S
Eu462 O483 2.488 . S
Eu462 O484 2.471 . S
Eu462 O485 2.349 . S
Eu463 O472 2.373 . S
Eu463 O476 2.488 . S
Eu463 O477 2.471 . S
Eu463 O478 2.349 . S
Eu463 O481 2.392 . S
Eu463 O482 2.418 . S
Eu463 C492 2.828 . S
C464 O482 1.244 . S
C464 O485 1.265 . S
C465 C466 1.379 . S
C465 C469 1.373 . S
C465 C471 1.505 . S
C466 C465 1.379 . S
C466 C468 1.369 . S
C466 H494 0.930 . S
C467 C469 1.383 . S
C467 C470 1.382 . S
C467 H495 0.930 . S
C468 C466 1.369 . S
C468 C470 1.392 . S
C468 H496 0.930 . S
C469 C465 1.373 . S
C469 C467 1.383 . S
C469 H497 0.931 . S
C470 C467 1.382 . S
C470 C468 1.392 . S
C471 Eu462 2.828 . S
C471 C465 1.505 . S
C471 O483 1.249 . S
C471 O484 1.244 . S
O472 Eu463 2.373 . S
O472 C474 1.258 . S
O473 Eu462 2.392 . S
O473 C474 1.242 . S
C474 O472 1.258 . S
C474 O473 1.242 . S
O475 Eu462 2.418 . S
O475 C479 1.244 . S
O476 Eu463 2.488 . S
O476 C492 1.249 . S
O477 Eu463 2.471 . S
O477 C492 1.244 . S
O478 Eu463 2.349 . S
O478 C479 1.265 . S
C479 O475 1.244 . S
C479 O478 1.265 . S
O480 Eu462 2.373 . S
O480 C493 1.258 . S
O481 Eu463 2.392 . S
O481 C493 1.242 . S
O482 Eu463 2.418 . S
O482 C464 1.244 . S
O483 Eu462 2.488 . S
O483 C471 1.249 . S
O484 Eu462 2.471 . S
O484 C471 1.244 . S
O485 Eu462 2.349 . S
O485 C464 1.265 . S
C486 C487 1.379 . S
C486 C490 1.373 . S
C486 C492 1.505 . S
C487 C486 1.379 . S
C487 C489 1.369 . S
C487 H498 0.930 . S
C488 C490 1.383 . S
C488 C491 1.382 . S
C488 H499 0.930 . S
C489 C487 1.369 . S
C489 C491 1.392 . S
C489 H500 0.930 . S
C490 C486 1.373 . S
C490 C488 1.383 . S
C490 H501 0.931 . S
C491 C488 1.382 . S
C491 C489 1.392 . S
C492 Eu463 2.828 . S
C492 O476 1.249 . S
C492 O477 1.244 . S
C492 C486 1.505 . S
C493 O480 1.258 . S
C493 O481 1.242 . S
H494 C466 0.930 . S
H495 C467 0.930 . S
H496 C468 0.930 . S
H497 C469 0.931 . S
H498 C487 0.930 . S
H499 C488 0.930 . S
H500 C489 0.930 . S
H501 C490 0.931 . S
Eu502 C511 2.828 . S
Eu502 O513 2.392 . S
Eu502 O515 2.418 . S
Eu502 O520 2.373 . S
Eu502 O523 2.488 . S
Eu502 O524 2.471 . S
Eu502 O525 2.349 . S
Eu503 O512 2.373 . S
Eu503 O516 2.488 . S
Eu503 O517 2.471 . S
Eu503 O518 2.349 . S
Eu503 O521 2.392 . S
Eu503 O522 2.418 . S
Eu503 C532 2.828 . S
C504 O522 1.244 . S
C504 O525 1.265 . S
C505 C506 1.379 . S
C505 C509 1.373 . S
C505 C511 1.505 . S
C506 C505 1.379 . S
C506 C508 1.369 . S
C506 H534 0.930 . S
C507 C509 1.383 . S
C507 C510 1.382 . S
C507 H535 0.930 . S
C508 C506 1.369 . S
C508 C510 1.392 . S
C508 H536 0.930 . S
C509 C505 1.373 . S
C509 C507 1.383 . S
C509 H537 0.931 . S
C510 C507 1.382 . S
C510 C508 1.392 . S
C511 Eu502 2.828 . S
C511 C505 1.505 . S
C511 O523 1.249 . S
C511 O524 1.244 . S
O512 Eu503 2.373 . S
O512 C514 1.258 . S
O513 Eu502 2.392 . S
O513 C514 1.242 . S
C514 O512 1.258 . S
C514 O513 1.242 . S
O515 Eu502 2.418 . S
O515 C519 1.244 . S
O516 Eu503 2.488 . S
O516 C532 1.249 . S
O517 Eu503 2.471 . S
O517 C532 1.244 . S
O518 Eu503 2.349 . S
O518 C519 1.265 . S
C519 O515 1.244 . S
C519 O518 1.265 . S
O520 Eu502 2.373 . S
O520 C533 1.258 . S
O521 Eu503 2.392 . S
O521 C533 1.242 . S
O522 Eu503 2.418 . S
O522 C504 1.244 . S
O523 Eu502 2.488 . S
O523 C511 1.249 . S
O524 Eu502 2.471 . S
O524 C511 1.244 . S
O525 Eu502 2.349 . S
O525 C504 1.265 . S
C526 C527 1.379 . S
C526 C530 1.373 . S
C526 C532 1.505 . S
C527 C526 1.379 . S
C527 C529 1.369 . S
C527 H538 0.930 . S
C528 C530 1.383 . S
C528 C531 1.382 . S
C528 H539 0.930 . S
C529 C527 1.369 . S
C529 C531 1.392 . S
C529 H540 0.930 . S
C530 C526 1.373 . S
C530 C528 1.383 . S
C530 H541 0.931 . S
C531 C528 1.382 . S
C531 C529 1.392 . S
C532 Eu503 2.828 . S
C532 O516 1.249 . S
C532 O517 1.244 . S
C532 C526 1.505 . S
C533 O520 1.258 . S
C533 O521 1.242 . S
H534 C506 0.930 . S
H535 C507 0.930 . S
H536 C508 0.930 . S
H537 C509 0.931 . S
H538 C527 0.930 . S
H539 C528 0.930 . S
H540 C529 0.930 . S
H541 C530 0.931 . S
Eu542 C551 2.828 . S
Eu542 O553 2.392 . S
Eu542 O555 2.418 . S
Eu542 O560 2.373 . S
Eu542 O563 2.488 . S
Eu542 O564 2.471 . S
Eu542 O565 2.349 . S
Eu543 O552 2.373 . S
Eu543 O556 2.488 . S
Eu543 O557 2.471 . S
Eu543 O558 2.349 . S
Eu543 O561 2.392 . S
Eu543 O562 2.418 . S
Eu543 C572 2.828 . S
C544 O562 1.244 . S
C544 O565 1.265 . S
C545 C546 1.379 . S
C545 C549 1.373 . S
C545 C551 1.505 . S
C546 C545 1.379 . S
C546 C548 1.369 . S
C546 H574 0.930 . S
C547 C549 1.383 . S
C547 C550 1.382 . S
C547 H575 0.930 . S
C548 C546 1.369 . S
C548 C550 1.392 . S
C548 H576 0.930 . S
C549 C545 1.373 . S
C549 C547 1.383 . S
C549 H577 0.931 . S
C550 C547 1.382 . S
C550 C548 1.392 . S
C551 Eu542 2.828 . S
C551 C545 1.505 . S
C551 O563 1.249 . S
C551 O564 1.244 . S
O552 Eu543 2.373 . S
O552 C554 1.258 . S
O553 Eu542 2.392 . S
O553 C554 1.242 . S
C554 O552 1.258 . S
C554 O553 1.242 . S
O555 Eu542 2.418 . S
O555 C559 1.244 . S
O556 Eu543 2.488 . S
O556 C572 1.249 . S
O557 Eu543 2.471 . S
O557 C572 1.244 . S
O558 Eu543 2.349 . S
O558 C559 1.265 . S
C559 O555 1.244 . S
C559 O558 1.265 . S
O560 Eu542 2.373 . S
O560 C573 1.258 . S
O561 Eu543 2.392 . S
O561 C573 1.242 . S
O562 Eu543 2.418 . S
O562 C544 1.244 . S
O563 Eu542 2.488 . S
O563 C551 1.249 . S
O564 Eu542 2.471 . S
O564 C551 1.244 . S
O565 Eu542 2.349 . S
O565 C544 1.265 . S
C566 C567 1.379 . S
C566 C570 1.373 . S
C566 C572 1.505 . S
C567 C566 1.379 . S
C567 C569 1.369 . S
C567 H578 0.930 . S
C568 C570 1.383 . S
C568 C571 1.382 . S
C568 H579 0.930 . S
C569 C567 1.369 . S
C569 C571 1.392 . S
C569 H580 0.930 . S
C570 C566 1.373 . S
C570 C568 1.383 . S
C570 H581 0.931 . S
C571 C568 1.382 . S
C571 C569 1.392 . S
C572 Eu543 2.828 . S
C572 O556 1.249 . S
C572 O557 1.244 . S
C572 C566 1.505 . S
C573 O560 1.258 . S
C573 O561 1.242 . S
H574 C546 0.930 . S
H575 C547 0.930 . S
H576 C548 0.930 . S
H577 C549 0.931 . S
H578 C567 0.930 . S
H579 C568 0.930 . S
H580 C569 0.930 . S
H581 C570 0.931 . S
Eu582 C591 2.828 . S
Eu582 O593 2.392 . S
Eu582 O595 2.418 . S
Eu582 O600 2.373 . S
Eu582 O603 2.488 . S
Eu582 O604 2.471 . S
Eu582 O605 2.349 . S
Eu583 O592 2.373 . S
Eu583 O596 2.488 . S
Eu583 O597 2.471 . S
Eu583 O598 2.349 . S
Eu583 O601 2.392 . S
Eu583 O602 2.418 . S
Eu583 C612 2.828 . S
C584 O602 1.244 . S
C584 O605 1.265 . S
C585 C586 1.379 . S
C585 C589 1.373 . S
C585 C591 1.505 . S
C586 C585 1.379 . S
C586 C588 1.369 . S
C586 H614 0.930 . S
C587 C589 1.383 . S
C587 C590 1.382 . S
C587 H615 0.930 . S
C588 C586 1.369 . S
C588 C590 1.392 . S
C588 H616 0.930 . S
C589 C585 1.373 . S
C589 C587 1.383 . S
C589 H617 0.931 . S
C590 C587 1.382 . S
C590 C588 1.392 . S
C591 Eu582 2.828 . S
C591 C585 1.505 . S
C591 O603 1.249 . S
C591 O604 1.244 . S
O592 Eu583 2.373 . S
O592 C594 1.258 . S
O593 Eu582 2.392 . S
O593 C594 1.242 . S
C594 O592 1.258 . S
C594 O593 1.242 . S
O595 Eu582 2.418 . S
O595 C599 1.244 . S
O596 Eu583 2.488 . S
O596 C612 1.249 . S
O597 Eu583 2.471 . S
O597 C612 1.244 . S
O598 Eu583 2.349 . S
O598 C599 1.265 . S
C599 O595 1.244 . S
C599 O598 1.265 . S
O600 Eu582 2.373 . S
O600 C613 1.258 . S
O601 Eu583 2.392 . S
O601 C613 1.242 . S
O602 Eu583 2.418 . S
O602 C584 1.244 . S
O603 Eu582 2.488 . S
O603 C591 1.249 . S
O604 Eu582 2.471 . S
O604 C591 1.244 . S
O605 Eu582 2.349 . S
O605 C584 1.265 . S
C606 C607 1.379 . S
C606 C610 1.373 . S
C606 C612 1.505 . S
C607 C606 1.379 . S
C607 C609 1.369 . S
C607 H618 0.930 . S
C608 C610 1.383 . S
C608 C611 1.382 . S
C608 H619 0.930 . S
C609 C607 1.369 . S
C609 C611 1.392 . S
C609 H620 0.930 . S
C610 C606 1.373 . S
C610 C608 1.383 . S
C610 H621 0.931 . S
C611 C608 1.382 . S
C611 C609 1.392 . S
C612 Eu583 2.828 . S
C612 O596 1.249 . S
C612 O597 1.244 . S
C612 C606 1.505 . S
C613 O600 1.258 . S
C613 O601 1.242 . S
H614 C586 0.930 . S
H615 C587 0.930 . S
H616 C588 0.930 . S
H617 C589 0.931 . S
H618 C607 0.930 . S
H619 C608 0.930 . S
H620 C609 0.930 . S
H621 C610 0.931 . S
Eu622 C631 2.828 . S
Eu622 O633 2.392 . S
Eu622 O635 2.418 . S
Eu622 O640 2.373 . S
Eu622 O643 2.488 . S
Eu622 O644 2.471 . S
Eu622 O645 2.349 . S
Eu623 O632 2.373 . S
Eu623 O636 2.488 . S
Eu623 O637 2.471 . S
Eu623 O638 2.349 . S
Eu623 O641 2.392 . S
Eu623 O642 2.418 . S
Eu623 C652 2.828 . S
C624 O642 1.244 . S
C624 O645 1.265 . S
C625 C626 1.379 . S
C625 C629 1.373 . S
C625 C631 1.505 . S
C626 C625 1.379 . S
C626 C628 1.369 . S
C626 H654 0.930 . S
C627 C629 1.383 . S
C627 C630 1.382 . S
C627 H655 0.930 . S
C628 C626 1.369 . S
C628 C630 1.392 . S
C628 H656 0.930 . S
C629 C625 1.373 . S
C629 C627 1.383 . S
C629 H657 0.931 . S
C630 C627 1.382 . S
C630 C628 1.392 . S
C631 Eu622 2.828 . S
C631 C625 1.505 . S
C631 O643 1.249 . S
C631 O644 1.244 . S
O632 Eu623 2.373 . S
O632 C634 1.258 . S
O633 Eu622 2.392 . S
O633 C634 1.242 . S
C634 O632 1.258 . S
C634 O633 1.242 . S
O635 Eu622 2.418 . S
O635 C639 1.244 . S
O636 Eu623 2.488 . S
O636 C652 1.249 . S
O637 Eu623 2.471 . S
O637 C652 1.244 . S
O638 Eu623 2.349 . S
O638 C639 1.265 . S
C639 O635 1.244 . S
C639 O638 1.265 . S
O640 Eu622 2.373 . S
O640 C653 1.258 . S
O641 Eu623 2.392 . S
O641 C653 1.242 . S
O642 Eu623 2.418 . S
O642 C624 1.244 . S
O643 Eu622 2.488 . S
O643 C631 1.249 . S
O644 Eu622 2.471 . S
O644 C631 1.244 . S
O645 Eu622 2.349 . S
O645 C624 1.265 . S
C646 C647 1.379 . S
C646 C650 1.373 . S
C646 C652 1.505 . S
C647 C646 1.379 . S
C647 C649 1.369 . S
C647 H658 0.930 . S
C648 C650 1.383 . S
C648 C651 1.382 . S
C648 H659 0.930 . S
C649 C647 1.369 . S
C649 C651 1.392 . S
C649 H660 0.930 . S
C650 C646 1.373 . S
C650 C648 1.383 . S
C650 H661 0.931 . S
C651 C648 1.382 . S
C651 C649 1.392 . S
C652 Eu623 2.828 . S
C652 O636 1.249 . S
C652 O637 1.244 . S
C652 C646 1.505 . S
C653 O640 1.258 . S
C653 O641 1.242 . S
H654 C626 0.930 . S
H655 C627 0.930 . S
H656 C628 0.930 . S
H657 C629 0.931 . S
H658 C647 0.930 . S
H659 C648 0.930 . S
H660 C649 0.930 . S
H661 C650 0.931 . S
Eu662 C671 2.828 . S
Eu662 O673 2.392 . S
Eu662 O675 2.418 . S
Eu662 O680 2.373 . S
Eu662 O683 2.488 . S
Eu662 O684 2.471 . S
Eu662 O685 2.349 . S
Eu663 O672 2.373 . S
Eu663 O676 2.488 . S
Eu663 O677 2.471 . S
Eu663 O678 2.349 . S
Eu663 O681 2.392 . S
Eu663 O682 2.418 . S
Eu663 C692 2.828 . S
C664 O682 1.244 . S
C664 O685 1.265 . S
C665 C666 1.379 . S
C665 C669 1.373 . S
C665 C671 1.505 . S
C666 C665 1.379 . S
C666 C668 1.369 . S
C666 H694 0.930 . S
C667 C669 1.383 . S
C667 C670 1.382 . S
C667 H695 0.930 . S
C668 C666 1.369 . S
C668 C670 1.392 . S
C668 H696 0.930 . S
C669 C665 1.373 . S
C669 C667 1.383 . S
C669 H697 0.931 . S
C670 C667 1.382 . S
C670 C668 1.392 . S
C671 Eu662 2.828 . S
C671 C665 1.505 . S
C671 O683 1.249 . S
C671 O684 1.244 . S
O672 Eu663 2.373 . S
O672 C674 1.258 . S
O673 Eu662 2.392 . S
O673 C674 1.242 . S
C674 O672 1.258 . S
C674 O673 1.242 . S
O675 Eu662 2.418 . S
O675 C679 1.244 . S
O676 Eu663 2.488 . S
O676 C692 1.249 . S
O677 Eu663 2.471 . S
O677 C692 1.244 . S
O678 Eu663 2.349 . S
O678 C679 1.265 . S
C679 O675 1.244 . S
C679 O678 1.265 . S
O680 Eu662 2.373 . S
O680 C693 1.258 . S
O681 Eu663 2.392 . S
O681 C693 1.242 . S
O682 Eu663 2.418 . S
O682 C664 1.244 . S
O683 Eu662 2.488 . S
O683 C671 1.249 . S
O684 Eu662 2.471 . S
O684 C671 1.244 . S
O685 Eu662 2.349 . S
O685 C664 1.265 . S
C686 C687 1.379 . S
C686 C690 1.373 . S
C686 C692 1.505 . S
C687 C686 1.379 . S
C687 C689 1.369 . S
C687 H698 0.930 . S
C688 C690 1.383 . S
C688 C691 1.382 . S
C688 H699 0.930 . S
C689 C687 1.369 . S
C689 C691 1.392 . S
C689 H700 0.930 . S
C690 C686 1.373 . S
C690 C688 1.383 . S
C690 H701 0.931 . S
C691 C688 1.382 . S
C691 C689 1.392 . S
C692 Eu663 2.828 . S
C692 O676 1.249 . S
C692 O677 1.244 . S
C692 C686 1.505 . S
C693 O680 1.258 . S
C693 O681 1.242 . S
H694 C666 0.930 . S
H695 C667 0.930 . S
H696 C668 0.930 . S
H697 C669 0.931 . S
H698 C687 0.930 . S
H699 C688 0.930 . S
H700 C689 0.930 . S
H701 C690 0.931 . S
C702 C703 1.387 . S
C702 H706 0.950 . S
C702 C711 1.390 . S
C703 C702 1.387 . S
C703 C705 1.387 . S
H704 C711 0.950 . S
C705 C703 1.387 . S
C705 C707 1.390 . S
C705 H709 0.950 . S
H706 C702 0.950 . S
C707 C705 1.390 . S
C707 C708 1.387 . S
C707 H710 0.950 . S
C708 C707 1.387 . S
C708 C711 1.387 . S
H709 C705 0.950 . S
H710 C707 0.950 . S
C711 C702 1.390 . S
C711 H704 0.950 . S
C711 C708 1.387 . S
C712 C713 1.387 . S
C712 H716 0.950 . S
C712 C721 1.390 . S
C713 C712 1.387 . S
C713 C715 1.387 . S
H714 C721 0.950 . S
C715 C713 1.387 . S
C715 C717 1.390 . S
C715 H719 0.950 . S
H716 C712 0.950 . S
C717 C715 1.390 . S
C717 C718 1.387 . S
C717 H720 0.950 . S
C718 C717 1.387 . S
C718 C721 1.387 . S
H719 C715 0.950 . S
H720 C717 0.950 . S
C721 C712 1.390 . S
C721 H714 0.950 . S
C721 C718 1.387 . S
C722 C723 1.387 1_556 S
C722 H726 0.950 . S
C722 C731 1.390 . S
C723 C722 1.387 1_554 S
C723 C725 1.387 . S
H724 C731 0.950 . S
C725 C723 1.387 . S
C725 C727 1.390 . S
C725 H729 0.950 . S
H726 C722 0.950 . S
C727 C725 1.390 . S
C727 C728 1.387 . S
C727 H730 0.950 . S
C728 C727 1.387 . S
C728 C731 1.387 1_554 S
H729 C725 0.950 . S
H730 C727 0.950 . S
C731 C722 1.390 . S
C731 H724 0.950 . S
C731 C728 1.387 1_556 S
C732 C733 1.387 . S
C732 H736 0.950 . S
C732 C741 1.390 . S
C733 C732 1.387 . S
C733 C735 1.387 1_556 S
H734 C741 0.950 . S
C735 C733 1.387 1_554 S
C735 C737 1.390 . S
C735 H739 0.950 . S
H736 C732 0.950 . S
C737 C735 1.390 . S
C737 C738 1.387 1_554 S
C737 H740 0.950 . S
C738 C737 1.387 1_556 S
C738 C741 1.387 . S
H739 C735 0.950 . S
H740 C737 0.950 . S
C741 C732 1.390 . S
C741 H734 0.950 . S
C741 C738 1.387 . S
C742 C743 1.387 . S
C742 H746 0.950 . S
C742 C751 1.390 . S
C743 C742 1.387 . S
C743 C745 1.387 . S
H744 C751 0.950 . S
C745 C743 1.387 . S
C745 C747 1.390 . S
C745 H749 0.950 . S
H746 C742 0.950 . S
C747 C745 1.390 . S
C747 C748 1.387 . S
C747 H750 0.950 . S
C748 C747 1.387 . S
C748 C751 1.387 . S
H749 C745 0.950 . S
H750 C747 0.950 . S
C751 C742 1.390 . S
C751 H744 0.950 . S
C751 C748 1.387 . S
C752 C753 1.387 . S
C752 H756 0.950 . S
C752 C761 1.390 . S
C753 C752 1.387 . S
C753 C755 1.387 1_556 S
H754 C761 0.950 . S
C755 C753 1.387 1_554 S
C755 C757 1.390 . S
C755 H759 0.950 . S
H756 C752 0.950 . S
C757 C755 1.390 . S
C757 C758 1.387 1_554 S
C757 H760 0.950 . S
C758 C757 1.387 1_556 S
C758 C761 1.387 . S
H759 C755 0.950 . S
H760 C757 0.950 . S
C761 C752 1.390 . S
C761 H754 0.950 . S
C761 C758 1.387 . S
C762 C763 1.387 1_554 S
C762 H766 0.950 . S
C762 C771 1.390 . S
C763 C762 1.387 1_556 S
C763 C765 1.387 . S
H764 C771 0.950 . S
C765 C763 1.387 . S
C765 C767 1.390 . S
C765 H769 0.950 . S
H766 C762 0.950 . S
C767 C765 1.390 . S
C767 C768 1.387 . S
C767 H770 0.950 . S
C768 C767 1.387 . S
C768 C771 1.387 1_556 S
H769 C765 0.950 . S
H770 C767 0.950 . S
C771 C762 1.390 . S
C771 H764 0.950 . S
C771 C768 1.387 1_554 S
C772 C773 1.387 . S
C772 H776 0.950 1_556 S
C772 C781 1.390 . S
C773 C772 1.387 . S
C773 C775 1.387 . S
H774 C781 0.950 1_554 S
C775 C773 1.387 . S
C775 C777 1.390 . S
C775 H779 0.950 . S
H776 C772 0.950 1_554 S
C777 C775 1.390 . S
C777 C778 1.387 . S
C777 H780 0.950 . S
C778 C777 1.387 . S
C778 C781 1.387 . S
H779 C775 0.950 . S
H780 C777 0.950 . S
C781 C772 1.390 . S
C781 H774 0.950 1_556 S
C781 C778 1.387 . S
C782 C783 1.387 1_556 S
C782 H786 0.950 . S
C782 C791 1.390 . S
C783 C782 1.387 1_554 S
C783 C785 1.387 . S
H784 C791 0.950 . S
C785 C783 1.387 . S
C785 C787 1.390 . S
C785 H789 0.950 . S
H786 C782 0.950 . S
C787 C785 1.390 . S
C787 C788 1.387 . S
C787 H790 0.950 . S
C788 C787 1.387 . S
C788 C791 1.387 1_554 S
H789 C785 0.950 . S
H790 C787 0.950 . S
C791 C782 1.390 . S
C791 H784 0.950 . S
C791 C788 1.387 1_556 S
C792 C793 1.387 1_556 S
C792 H796 0.950 . S
C792 C801 1.390 . S
C793 C792 1.387 1_554 S
C793 C795 1.387 . S
H794 C801 0.950 . S
C795 C793 1.387 . S
C795 C797 1.390 . S
C795 H799 0.950 . S
H796 C792 0.950 . S
C797 C795 1.390 . S
C797 C798 1.387 . S
C797 H800 0.950 . S
C798 C797 1.387 . S
C798 C801 1.387 1_554 S
H799 C795 0.950 . S
H800 C797 0.950 . S
C801 C792 1.390 . S
C801 H794 0.950 . S
C801 C798 1.387 1_556 S
C802 C803 1.387 . S
C802 H806 0.950 . S
C802 C811 1.390 . S
C803 C802 1.387 . S
C803 C805 1.387 . S
H804 C811 0.950 . S
C805 C803 1.387 . S
C805 C807 1.390 . S
C805 H809 0.950 . S
H806 C802 0.950 . S
C807 C805 1.390 . S
C807 C808 1.387 . S
C807 H810 0.950 . S
C808 C807 1.387 . S
C808 C811 1.387 . S
H809 C805 0.950 . S
H810 C807 0.950 . S
C811 C802 1.390 . S
C811 H804 0.950 . S
C811 C808 1.387 . S
C812 C813 1.387 . S
C812 H816 0.950 . S
C812 C821 1.390 . S
C813 C812 1.387 . S
C813 C815 1.387 1_554 S
H814 C821 0.950 . S
C815 C813 1.387 1_556 S
C815 C817 1.390 . S
C815 H819 0.950 . S
H816 C812 0.950 . S
C817 C815 1.390 . S
C817 C818 1.387 1_556 S
C817 H820 0.950 . S
C818 C817 1.387 1_554 S
C818 C821 1.387 . S
H819 C815 0.950 . S
H820 C817 0.950 . S
C821 C812 1.390 . S
C821 H814 0.950 . S
C821 C818 1.387 . S
C822 C823 1.387 . S
C822 H826 0.950 . S
C822 C831 1.390 1_655 S
C823 C822 1.387 . S
C823 C825 1.387 . S
H824 C831 0.950 . S
C825 C823 1.387 . S
C825 C827 1.390 . S
C825 H829 0.950 . S
H826 C822 0.950 . S
C827 C825 1.390 . S
C827 C828 1.387 1_655 S
C827 H830 0.950 . S
C828 C827 1.387 1_455 S
C828 C831 1.387 . S
H829 C825 0.950 . S
H830 C827 0.950 . S
C831 C822 1.390 1_455 S
C831 H824 0.950 . S
C831 C828 1.387 . S
C832 C833 1.387 . S
C832 H836 0.950 . S
C832 C841 1.390 . S
C833 C832 1.387 . S
C833 C835 1.387 . S
H834 C841 0.950 . S
C835 C833 1.387 . S
C835 C837 1.390 . S
C835 H839 0.950 . S
H836 C832 0.950 . S
C837 C835 1.390 . S
C837 C838 1.387 . S
C837 H840 0.950 . S
C838 C837 1.387 . S
C838 C841 1.387 . S
H839 C835 0.950 . S
H840 C837 0.950 . S
C841 C832 1.390 . S
C841 H834 0.950 . S
C841 C838 1.387 . S
C842 C843 1.387 . S
C842 H846 0.950 . S
C842 C851 1.390 . S
C843 C842 1.387 . S
C843 C845 1.387 . S
H844 C851 0.950 1_565 S
C845 C843 1.387 . S
C845 C847 1.390 . S
C845 H849 0.950 . S
H846 C842 0.950 . S
C847 C845 1.390 . S
C847 C848 1.387 1_545 S
C847 H850 0.938 1_545 S
C848 C847 1.387 1_565 S
C848 C851 1.387 1_565 S
H849 C845 0.950 . S
H850 C847 0.938 1_565 S
C851 C842 1.390 . S
C851 H844 0.950 1_545 S
C851 C848 1.387 1_545 S
C852 C853 1.387 . S
C852 H856 0.950 . S
C852 C861 1.390 . S
C853 C852 1.387 . S
C853 C855 1.387 . S
H854 C861 0.950 . S
C855 C853 1.387 . S
C855 C857 1.390 . S
C855 H859 0.950 . S
H856 C852 0.950 . S
C857 C855 1.390 . S
C857 C858 1.387 . S
C857 H860 0.950 . S
C858 C857 1.387 . S
C858 C861 1.387 . S
H859 C855 0.950 . S
H860 C857 0.950 . S
C861 C852 1.390 . S
C861 H854 0.950 . S
C861 C858 1.387 . S
C862 C863 1.387 . S
C862 H866 0.950 . S
C862 C871 1.390 . S
C863 C862 1.387 . S
C863 C865 1.387 . S
H864 C871 0.950 . S
C865 C863 1.387 . S
C865 C867 1.390 . S
C865 H869 0.950 . S
H866 C862 0.950 . S
C867 C865 1.390 . S
C867 C868 1.387 . S
C867 H870 0.950 . S
C868 C867 1.387 . S
C868 C871 1.387 . S
H869 C865 0.950 . S
H870 C867 0.950 . S
C871 C862 1.390 . S
C871 H864 0.950 . S
C871 C868 1.387 . S
C872 C873 1.387 . S
C872 H876 0.950 . S
C872 C881 1.390 . S
C873 C872 1.387 . S
C873 C875 1.387 . S
H874 C881 0.950 . S
C875 C873 1.387 . S
C875 C877 1.390 . S
C875 H879 0.950 . S
H876 C872 0.950 . S
C877 C875 1.390 . S
C877 C878 1.387 . S
C877 H880 0.950 . S
C878 C877 1.387 . S
C878 C881 1.387 . S
H879 C875 0.950 . S
H880 C877 0.950 . S
C881 C872 1.390 . S
C881 H874 0.950 . S
C881 C878 1.387 . S
C882 C883 1.387 . S
C882 H886 0.950 . S
C882 C891 1.390 . S
C883 C882 1.387 . S
C883 C885 1.387 . S
H884 C891 0.950 . S
C885 C883 1.387 . S
C885 C887 1.390 . S
C885 H889 0.950 . S
H886 C882 0.950 . S
C887 C885 1.390 . S
C887 C888 1.387 . S
C887 H890 0.950 . S
C888 C887 1.387 . S
C888 C891 1.387 . S
H889 C885 0.950 . S
H890 C887 0.950 . S
C891 C882 1.390 . S
C891 H884 0.950 . S
C891 C888 1.387 . S
C892 C893 1.387 . S
C892 H896 0.950 . S
C892 C901 1.390 . S
C893 C892 1.387 . S
C893 C895 1.387 . S
H894 C901 0.950 . S
C895 C893 1.387 . S
C895 C897 1.390 . S
C895 H899 0.950 . S
H896 C892 0.950 . S
C897 C895 1.390 . S
C897 C898 1.387 . S
C897 H900 0.950 . S
C898 C897 1.387 . S
C898 C901 1.387 . S
H899 C895 0.950 . S
H900 C897 0.950 . S
C901 C892 1.390 . S
C901 H894 0.950 . S
C901 C898 1.387 . S
C902 C903 1.387 . S
C902 H906 0.950 . S
C902 C911 1.390 . S
C903 C902 1.387 . S
C903 C905 1.387 . S
H904 C911 0.950 . S
C905 C903 1.387 . S
C905 C907 1.390 . S
C905 H909 0.950 . S
H906 C902 0.950 . S
C907 C905 1.390 . S
C907 C908 1.387 . S
C907 H910 0.950 . S
C908 C907 1.387 . S
C908 C911 1.387 . S
H909 C905 0.950 . S
H910 C907 0.950 . S
C911 C902 1.390 . S
C911 H904 0.950 . S
C911 C908 1.387 . S
C912 C913 1.387 . S
C912 H916 0.950 . S
C912 C921 1.390 . S
C913 C912 1.387 . S
C913 C915 1.387 . S
H914 C921 0.950 . S
C915 C913 1.387 . S
C915 C917 1.390 . S
C915 H919 0.950 . S
H916 C912 0.950 . S
C917 C915 1.390 . S
C917 C918 1.387 . S
C917 H920 0.950 . S
C918 C917 1.387 . S
C918 C921 1.387 . S
H919 C915 0.950 . S
H920 C917 0.950 . S
C921 C912 1.390 . S
C921 H914 0.950 . S
C921 C918 1.387 . S
C922 C923 1.387 . S
C922 H926 0.950 . S
C922 C931 1.390 . S
C923 C922 1.387 . S
C923 C925 1.387 . S
H924 C931 0.950 . S
C925 C923 1.387 . S
C925 C927 1.390 . S
C925 H929 0.950 . S
H926 C922 0.950 . S
C927 C925 1.390 . S
C927 C928 1.387 . S
C927 H930 0.950 . S
C928 C927 1.387 . S
C928 C931 1.387 . S
H929 C925 0.950 . S
H930 C927 0.950 . S
C931 C922 1.390 . S
C931 H924 0.950 . S
C931 C928 1.387 . S
C932 C933 1.387 . S
C932 H936 0.950 . S
C932 C941 1.390 . S
C933 C932 1.387 . S
C933 C935 1.387 . S
H934 C941 0.950 . S
C935 C933 1.387 . S
C935 C937 1.390 . S
C935 H939 0.950 . S
H936 C932 0.950 . S
C937 C935 1.390 . S
C937 C938 1.387 . S
C937 H940 0.950 . S
C938 C937 1.387 . S
C938 C941 1.387 . S
H939 C935 0.950 . S
H940 C937 0.950 . S
C941 C932 1.390 . S
C941 H934 0.950 . S
C941 C938 1.387 . S
C942 C943 1.387 . S
C942 H946 0.950 . S
C942 C951 1.390 . S
C943 C942 1.387 . S
C943 C945 1.387 . S
H944 C951 0.950 . S
C945 C943 1.387 . S
C945 C947 1.390 . S
C945 H949 0.950 . S
H946 C942 0.950 . S
C947 C945 1.390 . S
C947 C948 1.387 . S
C947 H950 0.950 . S
C948 C947 1.387 . S
C948 C951 1.387 . S
H949 C945 0.950 . S
H950 C947 0.950 . S
C951 C942 1.390 . S
C951 H944 0.950 . S
C951 C948 1.387 . S
C952 C953 1.387 . S
C952 H956 0.950 . S
C952 C961 1.390 . S
C953 C952 1.387 . S
C953 C955 1.387 . S
H954 C961 0.950 . S
C955 C953 1.387 . S
C955 C957 1.390 . S
C955 H959 0.950 . S
H956 C952 0.950 . S
C957 C955 1.390 . S
C957 C958 1.387 . S
C957 H960 0.950 . S
C958 C957 1.387 . S
C958 C961 1.387 . S
H959 C955 0.950 . S
H960 C957 0.950 . S
C961 C952 1.390 . S
C961 H954 0.950 . S
C961 C958 1.387 . S
C962 C963 1.387 . S
C962 H966 0.950 . S
C962 C971 1.390 . S
C963 C962 1.387 . S
C963 C965 1.387 . S
H964 C971 0.950 . S
C965 C963 1.387 . S
C965 C967 1.390 . S
C965 H969 0.950 . S
H966 C962 0.950 . S
C967 C965 1.390 . S
C967 C968 1.387 . S
C967 H970 0.950 . S
C968 C967 1.387 . S
C968 C971 1.387 . S
H969 C965 0.950 . S
H970 C967 0.950 . S
C971 C962 1.390 . S
C971 H964 0.950 . S
C971 C968 1.387 . S
C972 C973 1.387 . S
C972 H976 0.950 . S
C972 C981 1.390 1_565 S
C973 C972 1.387 . S
C973 C975 1.387 . S
H974 C981 0.950 . S
C975 C973 1.387 . S
C975 C977 1.390 . S
C975 H979 0.950 . S
H976 C972 0.950 . S
C977 C975 1.390 . S
C977 C978 1.387 1_565 S
C977 H980 0.948 . S
C978 C977 1.387 1_545 S
C978 C981 1.387 . S
H979 C975 0.950 . S
H980 C977 0.948 . S
C981 C972 1.390 1_545 S
C981 H974 0.950 . S
C981 C978 1.387 . S
C982 C983 1.387 . S
C982 H986 0.950 . S
C982 C991 1.390 . S
C983 C982 1.387 . S
C983 C985 1.387 . S
H984 C991 0.950 . S
C985 C983 1.387 . S
C985 C987 1.390 1_455 S
C985 H989 0.939 . S
H986 C982 0.950 . S
C987 C985 1.390 1_655 S
C987 C988 1.387 . S
C987 H990 0.950 . S
C988 C987 1.387 . S
C988 C991 1.387 1_655 S
H989 C985 0.939 . S
H990 C987 0.950 . S
C991 C982 1.390 . S
C991 H984 0.950 . S
C991 C988 1.387 1_455 S
C992 C993 1.387 . S
C992 H996 0.950 . S
C992 C1001 1.390 . S
C993 C992 1.387 . S
C993 C995 1.387 . S
H994 C1001 0.950 . S
C995 C993 1.387 . S
C995 C997 1.390 . S
C995 H999 0.950 . S
H996 C992 0.950 . S
C997 C995 1.390 . S
C997 C998 1.387 . S
C997 H1000 0.950 . S
C998 C997 1.387 . S
C998 C1001 1.387 . S
H999 C995 0.950 . S
H1000 C997 0.950 . S
C1001 C992 1.390 . S
C1001 H994 0.950 . S
C1001 C998 1.387 . S
C1002 C1003 1.387 . S
C1002 H1006 0.950 . S
C1002 C1011 1.390 . S
C1003 C1002 1.387 . S
C1003 C1005 1.387 . S
H1004 C1011 0.950 . S
C1005 C1003 1.387 . S
C1005 C1007 1.390 . S
C1005 H1009 0.950 . S
H1006 C1002 0.950 . S
C1007 C1005 1.390 . S
C1007 C1008 1.387 . S
C1007 H1010 0.950 . S
C1008 C1007 1.387 . S
C1008 C1011 1.387 . S
H1009 C1005 0.950 . S
H1010 C1007 0.950 . S
C1011 C1002 1.390 . S
C1011 H1004 0.950 . S
C1011 C1008 1.387 . S
C1012 C1013 1.387 . S
C1012 H1016 0.950 . S
C1012 C1021 1.390 . S
C1013 C1012 1.387 . S
C1013 C1015 1.387 . S
H1014 C1021 0.950 . S
C1015 C1013 1.387 . S
C1015 C1017 1.390 . S
C1015 H1019 0.950 . S
H1016 C1012 0.950 . S
C1017 C1015 1.390 . S
C1017 C1018 1.387 . S
C1017 H1020 0.950 . S
C1018 C1017 1.387 . S
C1018 C1021 1.387 . S
H1019 C1015 0.950 . S
H1020 C1017 0.950 . S
C1021 C1012 1.390 . S
C1021 H1014 0.950 . S
C1021 C1018 1.387 . S
C1022 C1023 1.387 . S
C1022 H1026 0.950 . S
C1022 C1031 1.390 . S
C1023 C1022 1.387 . S
C1023 C1025 1.387 . S
H1024 C1031 0.950 . S
C1025 C1023 1.387 . S
C1025 C1027 1.390 . S
C1025 H1029 0.950 . S
H1026 C1022 0.950 . S
C1027 C1025 1.390 . S
C1027 C1028 1.387 . S
C1027 H1030 0.950 . S
C1028 C1027 1.387 . S
C1028 C1031 1.387 . S
H1029 C1025 0.950 . S
H1030 C1027 0.950 . S
C1031 C1022 1.390 . S
C1031 H1024 0.950 . S
C1031 C1028 1.387 . S
C1032 C1033 1.387 . S
C1032 H1036 0.950 . S
C1032 C1041 1.390 . S
C1033 C1032 1.387 . S
C1033 C1035 1.387 . S
H1034 C1041 0.950 . S
C1035 C1033 1.387 . S
C1035 C1037 1.390 . S
C1035 H1039 0.950 . S
H1036 C1032 0.950 . S
C1037 C1035 1.390 . S
C1037 C1038 1.387 . S
C1037 H1040 0.950 . S
C1038 C1037 1.387 . S
C1038 C1041 1.387 . S
H1039 C1035 0.950 . S
H1040 C1037 0.950 . S
C1041 C1032 1.390 . S
C1041 H1034 0.950 . S
C1041 C1038 1.387 . S
C1042 C1043 1.387 . S
C1042 H1046 0.950 . S
C1042 C1051 1.390 . S
C1043 C1042 1.387 . S
C1043 C1045 1.387 . S
H1044 C1051 0.950 . S
C1045 C1043 1.387 . S
C1045 C1047 1.390 . S
C1045 H1049 0.950 . S
H1046 C1042 0.950 . S
C1047 C1045 1.390 . S
C1047 C1048 1.387 . S
C1047 H1050 0.950 . S
C1048 C1047 1.387 . S
C1048 C1051 1.387 . S
H1049 C1045 0.950 . S
H1050 C1047 0.950 . S
C1051 C1042 1.390 . S
C1051 H1044 0.950 . S
C1051 C1048 1.387 . S
C1052 C1053 1.387 . S
C1052 H1056 0.950 . S
C1052 C1061 1.390 . S
C1053 C1052 1.387 . S
C1053 C1055 1.387 . S
H1054 C1061 0.950 . S
C1055 C1053 1.387 . S
C1055 C1057 1.390 . S
C1055 H1059 0.950 . S
H1056 C1052 0.950 . S
C1057 C1055 1.390 . S
C1057 C1058 1.387 . S
C1057 H1060 0.950 . S
C1058 C1057 1.387 . S
C1058 C1061 1.387 . S
H1059 C1055 0.950 . S
H1060 C1057 0.950 . S
C1061 C1052 1.390 . S
C1061 H1054 0.950 . S
C1061 C1058 1.387 . S
C1062 C1063 1.387 . S
C1062 H1066 0.950 . S
C1062 C1071 1.390 . S
C1063 C1062 1.387 . S
C1063 C1065 1.387 . S
H1064 C1071 0.950 . S
C1065 C1063 1.387 . S
C1065 C1067 1.390 . S
C1065 H1069 0.950 . S
H1066 C1062 0.950 . S
C1067 C1065 1.390 . S
C1067 C1068 1.387 . S
C1067 H1070 0.950 . S
C1068 C1067 1.387 . S
C1068 C1071 1.387 . S
H1069 C1065 0.950 . S
H1070 C1067 0.950 . S
C1071 C1062 1.390 . S
C1071 H1064 0.950 . S
C1071 C1068 1.387 . S
C1072 C1073 1.387 . S
C1072 H1076 0.950 . S
C1072 C1081 1.390 . S
C1073 C1072 1.387 . S
C1073 C1075 1.387 . S
H1074 C1081 0.950 . S
C1075 C1073 1.387 . S
C1075 C1077 1.390 . S
C1075 H1079 0.950 . S
H1076 C1072 0.950 . S
C1077 C1075 1.390 . S
C1077 C1078 1.387 . S
C1077 H1080 0.950 . S
C1078 C1077 1.387 . S
C1078 C1081 1.387 . S
H1079 C1075 0.950 . S
H1080 C1077 0.950 . S
C1081 C1072 1.390 . S
C1081 H1074 0.950 . S
C1081 C1078 1.387 . S
C1082 C1083 1.387 . S
C1082 H1086 0.950 . S
C1082 C1091 1.390 . S
C1083 C1082 1.387 . S
C1083 C1085 1.387 . S
H1084 C1091 0.950 . S
C1085 C1083 1.387 . S
C1085 C1087 1.390 . S
C1085 H1089 0.950 . S
H1086 C1082 0.950 . S
C1087 C1085 1.390 . S
C1087 C1088 1.387 . S
C1087 H1090 0.950 . S
C1088 C1087 1.387 . S
C1088 C1091 1.387 . S
H1089 C1085 0.950 . S
H1090 C1087 0.950 . S
C1091 C1082 1.390 . S
C1091 H1084 0.950 . S
C1091 C1088 1.387 . S
C1092 C1093 1.387 . S
C1092 H1096 0.950 . S
C1092 C1101 1.390 . S
C1093 C1092 1.387 . S
C1093 C1095 1.387 . S
H1094 C1101 0.950 . S
C1095 C1093 1.387 . S
C1095 C1097 1.390 . S
C1095 H1099 0.950 . S
H1096 C1092 0.950 . S
C1097 C1095 1.390 . S
C1097 C1098 1.387 . S
C1097 H1100 0.950 . S
C1098 C1097 1.387 . S
C1098 C1101 1.387 . S
H1099 C1095 0.950 . S
H1100 C1097 0.950 . S
C1101 C1092 1.390 . S
C1101 H1094 0.950 . S
C1101 C1098 1.387 . S
C1102 C1103 1.387 . S
C1102 H1106 0.950 . S
C1102 C1111 1.390 . S
C1103 C1102 1.387 . S
C1103 C1105 1.387 . S
H1104 C1111 0.950 . S
C1105 C1103 1.387 . S
C1105 C1107 1.390 . S
C1105 H1109 0.950 . S
H1106 C1102 0.950 . S
C1107 C1105 1.390 . S
C1107 C1108 1.387 . S
C1107 H1110 0.950 . S
C1108 C1107 1.387 . S
C1108 C1111 1.387 . S
H1109 C1105 0.950 . S
H1110 C1107 0.950 . S
C1111 C1102 1.390 . S
C1111 H1104 0.950 . S
C1111 C1108 1.387 . S
C1112 C1113 1.387 . S
C1112 H1116 0.950 . S
C1112 C1121 1.390 . S
C1113 C1112 1.387 . S
C1113 C1115 1.387 . S
H1114 C1121 0.950 . S
C1115 C1113 1.387 . S
C1115 C1117 1.390 . S
C1115 H1119 0.950 . S
H1116 C1112 0.950 . S
C1117 C1115 1.390 . S
C1117 C1118 1.387 . S
C1117 H1120 0.950 . S
C1118 C1117 1.387 . S
C1118 C1121 1.387 . S
H1119 C1115 0.950 . S
H1120 C1117 0.950 . S
C1121 C1112 1.390 . S
C1121 H1114 0.950 . S
C1121 C1118 1.387 . S
C1122 C1123 1.387 . S
C1122 H1126 0.950 . S
C1122 C1131 1.390 . S
C1123 C1122 1.387 . S
C1123 C1125 1.387 . S
H1124 C1131 0.950 . S
C1125 C1123 1.387 . S
C1125 C1127 1.390 . S
C1125 H1129 0.950 . S
H1126 C1122 0.950 . S
C1127 C1125 1.390 . S
C1127 C1128 1.387 . S
C1127 H1130 0.950 . S
C1128 C1127 1.387 . S
C1128 C1131 1.387 . S
H1129 C1125 0.950 . S
H1130 C1127 0.950 . S
C1131 C1122 1.390 . S
C1131 H1124 0.950 . S
C1131 C1128 1.387 . S
C1132 C1133 1.387 . S
C1132 H1136 0.950 . S
C1132 C1141 1.390 . S
C1133 C1132 1.387 . S
C1133 C1135 1.387 . S
H1134 C1141 0.950 . S
C1135 C1133 1.387 . S
C1135 C1137 1.390 . S
C1135 H1139 0.950 . S
H1136 C1132 0.950 . S
C1137 C1135 1.390 . S
C1137 C1138 1.387 . S
C1137 H1140 0.950 . S
C1138 C1137 1.387 . S
C1138 C1141 1.387 . S
H1139 C1135 0.950 . S
H1140 C1137 0.950 . S
C1141 C1132 1.390 . S
C1141 H1134 0.950 . S
C1141 C1138 1.387 . S
C1142 C1143 1.387 . S
C1142 H1146 0.950 . S
C1142 C1151 1.390 . S
C1143 C1142 1.387 . S
C1143 C1145 1.387 . S
H1144 C1151 0.950 . S
C1145 C1143 1.387 . S
C1145 C1147 1.390 . S
C1145 H1149 0.950 . S
H1146 C1142 0.950 . S
C1147 C1145 1.390 . S
C1147 C1148 1.387 . S
C1147 H1150 0.950 . S
C1148 C1147 1.387 . S
C1148 C1151 1.387 . S
H1149 C1145 0.950 . S
H1150 C1147 0.950 . S
C1151 C1142 1.390 . S
C1151 H1144 0.950 . S
C1151 C1148 1.387 . S
C1152 C1153 1.387 . S
C1152 H1156 0.950 . S
C1152 C1161 1.390 . S
C1153 C1152 1.387 . S
C1153 C1155 1.387 . S
H1154 C1161 0.950 . S
C1155 C1153 1.387 . S
C1155 C1157 1.390 . S
C1155 H1159 0.950 . S
H1156 C1152 0.950 . S
C1157 C1155 1.390 . S
C1157 C1158 1.387 . S
C1157 H1160 0.950 . S
C1158 C1157 1.387 . S
C1158 C1161 1.387 . S
H1159 C1155 0.950 . S
H1160 C1157 0.950 . S
C1161 C1152 1.390 . S
C1161 H1154 0.950 . S
C1161 C1158 1.387 . S
C1162 C1163 1.387 . S
C1162 H1166 0.950 . S
C1162 C1171 1.390 . S
C1163 C1162 1.387 . S
C1163 C1165 1.387 . S
H1164 C1171 0.950 . S
C1165 C1163 1.387 . S
C1165 C1167 1.390 . S
C1165 H1169 0.950 . S
H1166 C1162 0.950 . S
C1167 C1165 1.390 . S
C1167 C1168 1.387 . S
C1167 H1170 0.950 . S
C1168 C1167 1.387 . S
C1168 C1171 1.387 . S
H1169 C1165 0.950 . S
H1170 C1167 0.950 . S
C1171 C1162 1.390 . S
C1171 H1164 0.950 . S
C1171 C1168 1.387 . S
C1172 C1173 1.387 . S
C1172 H1176 0.950 . S
C1172 C1181 1.390 . S
C1173 C1172 1.387 . S
C1173 C1175 1.387 . S
H1174 C1181 0.950 . S
C1175 C1173 1.387 . S
C1175 C1177 1.390 . S
C1175 H1179 0.950 . S
H1176 C1172 0.950 . S
C1177 C1175 1.390 . S
C1177 C1178 1.387 . S
C1177 H1180 0.950 . S
C1178 C1177 1.387 . S
C1178 C1181 1.387 . S
H1179 C1175 0.950 . S
H1180 C1177 0.950 . S
C1181 C1172 1.390 . S
C1181 H1174 0.950 . S
C1181 C1178 1.387 . S
C1182 C1183 1.387 . S
C1182 H1186 0.950 . S
C1182 C1191 1.390 . S
C1183 C1182 1.387 . S
C1183 C1185 1.387 . S
H1184 C1191 0.950 . S
C1185 C1183 1.387 . S
C1185 C1187 1.390 . S
C1185 H1189 0.950 . S
H1186 C1182 0.950 . S
C1187 C1185 1.390 . S
C1187 C1188 1.387 . S
C1187 H1190 0.950 . S
C1188 C1187 1.387 . S
C1188 C1191 1.387 . S
H1189 C1185 0.950 . S
H1190 C1187 0.950 . S
C1191 C1182 1.390 . S
C1191 H1184 0.950 . S
C1191 C1188 1.387 . S
C1192 C1193 1.387 . S
C1192 H1196 0.950 . S
C1192 C1201 1.390 . S
C1193 C1192 1.387 . S
C1193 C1195 1.387 . S
H1194 C1201 0.950 . S
C1195 C1193 1.387 . S
C1195 C1197 1.390 . S
C1195 H1199 0.950 . S
H1196 C1192 0.950 . S
C1197 C1195 1.390 . S
C1197 C1198 1.387 . S
C1197 H1200 0.950 . S
C1198 C1197 1.387 . S
C1198 C1201 1.387 . S
H1199 C1195 0.950 . S
H1200 C1197 0.950 . S
C1201 C1192 1.390 . S
C1201 H1194 0.950 . S
C1201 C1198 1.387 . S
C1202 C1203 1.387 . S
C1202 H1206 0.950 . S
C1202 C1211 1.390 . S
C1203 C1202 1.387 . S
C1203 C1205 1.387 . S
H1204 C1211 0.950 . S
C1205 C1203 1.387 . S
C1205 C1207 1.390 . S
C1205 H1209 0.950 . S
H1206 C1202 0.950 . S
C1207 C1205 1.390 . S
C1207 C1208 1.387 . S
C1207 H1210 0.950 . S
C1208 C1207 1.387 . S
C1208 C1211 1.387 . S
H1209 C1205 0.950 . S
H1210 C1207 0.950 . S
C1211 C1202 1.390 . S
C1211 H1204 0.950 . S
C1211 C1208 1.387 . S
C1212 C1213 1.387 . S
C1212 H1216 0.950 . S
C1212 C1221 1.390 . S
C1213 C1212 1.387 . S
C1213 C1215 1.387 . S
H1214 C1221 0.950 . S
C1215 C1213 1.387 . S
C1215 C1217 1.390 . S
C1215 H1219 0.950 . S
H1216 C1212 0.950 . S
C1217 C1215 1.390 . S
C1217 C1218 1.387 . S
C1217 H1220 0.950 . S
C1218 C1217 1.387 . S
C1218 C1221 1.387 . S
H1219 C1215 0.950 . S
H1220 C1217 0.950 . S
C1221 C1212 1.390 . S
C1221 H1214 0.950 . S
C1221 C1218 1.387 . S
C1222 C1223 1.387 . S
C1222 H1226 0.950 . S
C1222 C1231 1.390 . S
C1223 C1222 1.387 . S
C1223 C1225 1.387 . S
H1224 C1231 0.950 . S
C1225 C1223 1.387 . S
C1225 C1227 1.390 . S
C1225 H1229 0.950 . S
H1226 C1222 0.950 . S
C1227 C1225 1.390 . S
C1227 C1228 1.387 . S
C1227 H1230 0.950 . S
C1228 C1227 1.387 . S
C1228 C1231 1.387 . S
H1229 C1225 0.950 . S
H1230 C1227 0.950 . S
C1231 C1222 1.390 . S
C1231 H1224 0.950 . S
C1231 C1228 1.387 . S
C1232 C1233 1.387 . S
C1232 H1236 0.950 . S
C1232 C1241 1.390 . S
C1233 C1232 1.387 . S
C1233 C1235 1.387 . S
H1234 C1241 0.950 . S
C1235 C1233 1.387 . S
C1235 C1237 1.390 . S
C1235 H1239 0.950 . S
H1236 C1232 0.950 . S
C1237 C1235 1.390 . S
C1237 C1238 1.387 . S
C1237 H1240 0.950 . S
C1238 C1237 1.387 . S
C1238 C1241 1.387 . S
H1239 C1235 0.950 . S
H1240 C1237 0.950 . S
C1241 C1232 1.390 . S
C1241 H1234 0.950 . S
C1241 C1238 1.387 . S
C703 C253 1.704 . S
C708 C354 1.717 . S
C713 C272 1.801 . S
C718 C394 1.789 . S
C723 C234 1.604 . S
C728 C424 1.586 . S
C733 C215 1.501 . S
C738 C384 1.476 . S
C748 C434 1.575 . S
C743 C177 1.591 . S
C753 C196 1.437 . S
C758 C344 1.428 1_556 S
C768 C373 1.696 . S
C763 C220 1.514 . S
C778 C413 1.633 . S
C773 C182 1.538 . S
C783 C201 1.609 . S
C788 C439 1.720 . S
C793 C258 1.453 . S
C798 C399 1.556 . S
C803 C277 1.331 . S
C808 C453 1.484 . S
C818 C359 1.565 1_554 S
C813 C239 1.411 . S
C828 C474 1.717 . S
C823 C25 1.705 . S
C833 C44 1.800 . S
C838 C514 1.789 . S
C843 C6 1.605 . S
C848 C544 1.584 . S
C853 C329 1.500 . S
C858 C504 1.465 . S
C863 C291 1.591 . S
C868 C554 1.575 . S
C873 C310 1.437 . S
C878 C464 1.428 . S
C883 C334 1.509 . S
C888 C493 1.695 . S
C893 C296 1.538 . S
C898 C533 1.632 . S
C908 C559 1.721 . S
C903 C315 1.610 . S
C913 C30 1.449 1_565 S
C918 C519 1.555 . S
C928 C573 1.484 . S
C923 C49 1.331 . S
C933 C11 1.417 . S
C938 C479 1.574 . S
C948 C594 1.717 . S
C943 C139 1.705 . S
C953 C158 1.801 . S
C958 C634 1.789 . S
C968 C664 1.584 . S
C963 C120 1.605 . S
C978 C624 1.464 . S
C973 C101 1.501 . S
C988 C674 1.575 . S
C983 C63 1.591 . S
C993 C82 1.437 . S
C998 C584 1.429 . S
C1003 C106 1.509 1_655 S
C1008 C613 1.694 . S
C1013 C68 1.534 . S
C1018 C653 1.633 . S
C1028 C679 1.719 . S
C1023 C87 1.610 1_545 S
C1033 C144 1.452 . S
C1038 C639 1.556 . S
C1043 C163 1.326 . S
C1048 C693 1.482 . S
C1053 C125 1.411 . S
C1058 C599 1.573 . S
C1063 C287 1.683 . S
C1068 C371 1.646 . S
C1078 C411 1.994 . S
C1073 C306 2.044 . S
C1083 C325 1.625 . S
C1088 C430 1.664 . S
C1093 C116 1.800 . S
C1098 C390 1.811 . S
C1103 C135 1.793 . S
C1108 C451 1.766 . S
C1118 C350 1.402 . S
C1113 C154 1.375 . S
C1123 C59 1.686 . S
C1128 C491 1.649 . S
C1133 C78 2.045 . S
C1138 C531 1.995 . S
C1143 C97 1.626 . S
C1148 C550 1.664 . S
C1153 C230 1.799 . S
C1158 C510 1.810 . S
C1168 C571 1.767 . S
C1163 C249 1.794 . S
C1173 C268 1.373 . S
C1178 C470 1.401 . S
C1183 C173 1.683 . S
C1188 C611 1.646 . S
C1193 C192 2.045 . S
C1198 C651 1.995 . S
C1208 C670 1.664 . S
C1203 C211 1.626 . S
C1213 C2 1.801 . S
C1218 C630 1.811 . S
C1223 C21 1.794 . S
C1228 C691 1.766 . S
C1233 C40 1.372 . S
C1238 C590 1.401 . S
