# Generated by pormake.
# Topology apo, (3,6)-cn, num edge types: 1
# Building blocks:
#     Node 0, Type 0, BuildingBlock: BETDAH_clean_linker_0, # of connection points: 3
#     Node 1, Type 0, BuildingBlock: BETDAH_clean_linker_0, # of connection points: 3
#     Node 2, Type 0, BuildingBlock: BETDAH_clean_linker_0, # of connection points: 3
#     Node 3, Type 0, BuildingBlock: BETDAH_clean_linker_0, # of connection points: 3
#     Node 4, Type 0, BuildingBlock: BETDAH_clean_linker_0, # of connection points: 3
#     Node 5, Type 0, BuildingBlock: BETDAH_clean_linker_0, # of connection points: 3
#     Node 6, Type 0, BuildingBlock: BETDAH_clean_linker_0, # of connection points: 3
#     Node 7, Type 0, BuildingBlock: BETDAH_clean_linker_0, # of connection points: 3
#     Node 8, Type 1, BuildingBlock: KUMBUR_clean_sbu_1, # of connection points: 6
#     Node 9, Type 1, BuildingBlock: KUMBUR_clean_sbu_1, # of connection points: 6
#     Node 10, Type 1, BuildingBlock: KUMBUR_clean_sbu_1, # of connection points: 6
#     Node 11, Type 1, BuildingBlock: KUMBUR_clean_sbu_1, # of connection points: 6
#     Edge 12, Type (0, 1), BuildingBlock: EZIPEK_clean_linker_0, # of connection points: 2
#     Edge 13, Type (0, 1), BuildingBlock: EZIPEK_clean_linker_0, # of connection points: 2
#     Edge 14, Type (0, 1), BuildingBlock: EZIPEK_clean_linker_0, # of connection points: 2
#     Edge 15, Type (0, 1), BuildingBlock: EZIPEK_clean_linker_0, # of connection points: 2
#     Edge 16, Type (0, 1), BuildingBlock: EZIPEK_clean_linker_0, # of connection points: 2
#     Edge 17, Type (0, 1), BuildingBlock: EZIPEK_clean_linker_0, # of connection points: 2
#     Edge 18, Type (0, 1), BuildingBlock: EZIPEK_clean_linker_0, # of connection points: 2
#     Edge 19, Type (0, 1), BuildingBlock: EZIPEK_clean_linker_0, # of connection points: 2
#     Edge 20, Type (0, 1), BuildingBlock: EZIPEK_clean_linker_0, # of connection points: 2
#     Edge 21, Type (0, 1), BuildingBlock: EZIPEK_clean_linker_0, # of connection points: 2
#     Edge 22, Type (0, 1), BuildingBlock: EZIPEK_clean_linker_0, # of connection points: 2
#     Edge 23, Type (0, 1), BuildingBlock: EZIPEK_clean_linker_0, # of connection points: 2
#     Edge 24, Type (0, 1), BuildingBlock: EZIPEK_clean_linker_0, # of connection points: 2
#     Edge 25, Type (0, 1), BuildingBlock: EZIPEK_clean_linker_0, # of connection points: 2
#     Edge 26, Type (0, 1), BuildingBlock: EZIPEK_clean_linker_0, # of connection points: 2
#     Edge 27, Type (0, 1), BuildingBlock: EZIPEK_clean_linker_0, # of connection points: 2
#     Edge 28, Type (0, 1), BuildingBlock: EZIPEK_clean_linker_0, # of connection points: 2
#     Edge 29, Type (0, 1), BuildingBlock: EZIPEK_clean_linker_0, # of connection points: 2
#     Edge 30, Type (0, 1), BuildingBlock: EZIPEK_clean_linker_0, # of connection points: 2
#     Edge 31, Type (0, 1), BuildingBlock: EZIPEK_clean_linker_0, # of connection points: 2
#     Edge 32, Type (0, 1), BuildingBlock: EZIPEK_clean_linker_0, # of connection points: 2
#     Edge 33, Type (0, 1), BuildingBlock: EZIPEK_clean_linker_0, # of connection points: 2
#     Edge 34, Type (0, 1), BuildingBlock: EZIPEK_clean_linker_0, # of connection points: 2
#     Edge 35, Type (0, 1), BuildingBlock: EZIPEK_clean_linker_0, # of connection points: 2
# Relax obj value: 0.036
# Max RMSD: 0.242
# Mean RMSD: 0.168
data_MOF--net-apo--node1-KUMBUR_clean_sbu_1--node2-BETDAH_clean_linker_0--edge1-EZIPEK_clean_linker_0
_symmetry_space_group_name_H-M    P1
_symmetry_Int_Tables_number       1
_symmetry_cell_setting            triclinic
loop_
_symmetry_equiv_pos_as_xyz
'x, y, z'
_cell_length_a     20.463943
_cell_length_b     30.209659
_cell_length_c     39.423556
_cell_angle_alpha  89.330702
_cell_angle_beta   90.073429
_cell_angle_gamma 90.468067
loop_
_atom_site_label
_atom_site_type_symbol
_atom_site_fract_x
_atom_site_fract_y
_atom_site_fract_z
_atom_type_partial_charge
H0 H 0.35772 0.46832 0.43568 0.0
H1 H 0.28787 0.37668 0.36027 0.0
H2 H 0.25806 0.34893 0.46639 0.0
C3 C 0.33201 0.43809 0.42912 0.0
C4 C 0.30774 0.41021 0.45492 0.0
C5 C 0.32483 0.42624 0.39484 0.0
C6 C 0.29253 0.38627 0.38655 0.0
C7 C 0.2682 0.35846 0.41267 0.0
C8 C 0.27617 0.37076 0.44641 0.0
N9 N 0.23764 0.31691 0.40702 0.0
C10 C 0.21714 0.29959 0.37633 0.0
H11 H 0.1357 0.0765 0.91867 0.0
H12 H 0.2749 0.14519 0.85454 0.0
H13 H 0.26279 0.17488 0.961 0.0
C14 C 0.17319 0.10174 0.91518 0.0
C15 C 0.19524 0.12529 0.94326 0.0
C16 C 0.202 0.10811 0.88314 0.0
C17 C 0.25146 0.1407 0.87896 0.0
C18 C 0.27249 0.16565 0.90709 0.0
C19 C 0.24487 0.15708 0.93911 0.0
N20 N 0.32516 0.1966 0.90535 0.0
C21 C 0.34357 0.22255 0.87744 0.0
H22 H 0.87924 0.08401 0.59971 0.0
H23 H 0.76734 0.12157 0.68705 0.0
H24 H 0.72476 0.17978 0.58989 0.0
C25 C 0.84171 0.10415 0.61105 0.0
C26 C 0.8037 0.13253 0.59049 0.0
C27 C 0.82884 0.10028 0.64607 0.0
C28 C 0.77868 0.12524 0.66029 0.0
C29 C 0.74243 0.1546 0.64039 0.0
C30 C 0.75496 0.1584 0.60552 0.0
N31 N 0.68867 0.1761 0.65524 0.0
C32 C 0.68493 0.22176 0.65784 0.0
H33 H 0.61649 0.44914 0.10342 0.0
H34 H 0.74138 0.38541 0.17718 0.0
H35 H 0.73437 0.33825 0.075 0.0
C36 C 0.6511 0.42344 0.10998 0.0
C37 C 0.67099 0.39326 0.08516 0.0
C38 C 0.6751 0.42 0.14347 0.0
C39 C 0.72135 0.38729 0.15176 0.0
C40 C 0.7434 0.35838 0.12666 0.0
C41 C 0.71741 0.36118 0.09397 0.0
N42 N 0.79521 0.32829 0.13218 0.0
C43 C 0.80854 0.3058 0.16228 0.0
H44 H 0.68757 0.55531 0.59894 0.0
H45 H 0.75689 0.64526 0.67582 0.0
H46 H 0.81046 0.66557 0.57133 0.0
C47 C 0.71551 0.58431 0.60628 0.0
C48 C 0.74684 0.60979 0.58103 0.0
C49 C 0.71839 0.5967 0.64073 0.0
C50 C 0.75477 0.63495 0.64961 0.0
C51 C 0.78984 0.65892 0.62464 0.0
C52 C 0.78481 0.64637 0.59061 0.0
N53 N 0.83173 0.69538 0.63208 0.0
C54 C 0.84083 0.71649 0.66302 0.0
H55 H 0.85114 0.96206 0.11052 0.0
H56 H 0.79742 0.82845 0.0884 0.0
H57 H 0.82375 0.8651 0.19101 0.0
C58 C 0.83531 0.92997 0.11994 0.0
C59 C 0.8293 0.92139 0.15543 0.0
C60 C 0.82201 0.89721 0.09569 0.0
C61 C 0.80664 0.85421 0.10676 0.0
C62 C 0.80563 0.8436 0.14129 0.0
C63 C 0.81865 0.87649 0.16527 0.0
N64 N 0.79968 0.79855 0.15136 0.0
C65 C 0.74598 0.78135 0.16889 0.0
H66 H 0.11281 0.94327 0.41598 0.0
H67 H 0.25592 0.88434 0.3505 0.0
H68 H 0.24827 0.8482 0.45611 0.0
C69 C 0.15149 0.91958 0.41199 0.0
C70 C 0.17583 0.8952 0.43971 0.0
C71 C 0.18067 0.9162 0.37975 0.0
C72 C 0.23186 0.886 0.37491 0.0
C73 C 0.25573 0.8611 0.40257 0.0
C74 C 0.22803 0.86629 0.43468 0.0
N75 N 0.31254 0.8348 0.40017 0.0
C76 C 0.32714 0.80708 0.37339 0.0
H77 H 0.36877 0.5676 0.93481 0.0
H78 H 0.22241 0.66815 0.94054 0.0
H79 H 0.31087 0.64012 0.84493 0.0
C80 C 0.34133 0.59372 0.92244 0.0
C81 C 0.34566 0.60005 0.88701 0.0
C82 C 0.30078 0.62045 0.94228 0.0
C83 C 0.25866 0.65063 0.92599 0.0
C84 C 0.26138 0.65647 0.89065 0.0
C85 C 0.30834 0.63396 0.87202 0.0
N86 N 0.20822 0.67517 0.87272 0.0
C87 C 0.19562 0.7201 0.87018 0.0
Tb88 Tb 0.07262 0.12163 0.22734 0.0
C89 C 0.82059 0.05416 0.30072 0.0
N90 N 0.84243 0.09569 0.2934 0.0
C91 C 0.73665 0.11527 0.27207 0.0
C92 C 0.75639 0.04085 0.29258 0.0
C93 C 0.80083 0.12683 0.2807 0.0
C94 C 0.71456 0.0719 0.2776 0.0
C95 C 0.8417 0.98216 0.32572 0.0
C96 C 0.86284 0.02532 0.31685 0.0
C97 C 0.77835 0.96815 0.31684 0.0
C98 C 0.73581 0.99741 0.30024 0.0
Tb99 Tb 0.94752 0.11164 0.30822 0.0
N100 N 0.92379 0.04013 0.3249 0.0
C101 C 0.88451 0.95465 0.34368 0.0
C102 C 0.96379 0.01435 0.34461 0.0
C103 C 0.9455 0.97105 0.35354 0.0
H104 H 0.8171 0.16064 0.27718 0.0
H105 H 0.97807 0.95062 0.36854 0.0
H106 H 0.18631 0.04265 0.23921 0.0
H107 H 0.09806 0.29586 0.19971 0.0
H108 H 0.00922 0.02716 0.35447 0.0
H109 H 0.87027 0.92122 0.35086 0.0
H110 H 0.04035 0.22349 0.20273 0.0
H111 H 0.70421 0.13986 0.26136 0.0
H112 H 0.76149 0.93497 0.32312 0.0
H113 H 0.6868 0.98638 0.29397 0.0
H114 H 0.3037 0.03994 0.25159 0.0
H115 H 0.66478 0.06303 0.27098 0.0
H116 H 0.21465 0.30098 0.21628 0.0
N117 N 0.18225 0.11337 0.23809 0.0
C118 C 0.21821 0.15147 0.2373 0.0
C119 C 0.2801 0.0716 0.2481 0.0
C120 C 0.28625 0.15123 0.24314 0.0
C121 C 0.21289 0.07345 0.24182 0.0
C122 C 0.31684 0.11067 0.24917 0.0
N123 N 0.12169 0.18952 0.22371 0.0
C124 C 0.09068 0.22593 0.21079 0.0
C125 C 0.22225 0.23099 0.22807 0.0
C126 C 0.18685 0.19085 0.23003 0.0
C127 C 0.18924 0.26943 0.21807 0.0
C128 C 0.12341 0.26671 0.20875 0.0
H129 H 0.36895 0.10908 0.25388 0.0
H130 H 0.37361 0.19189 0.24747 0.0
H131 H 0.31754 0.26176 0.23412 0.0
O132 O 0.0371 0.13318 0.17789 0.0
O133 O 0.07135 0.17409 0.26572 0.0
O134 O 0.04562 0.13961 0.31631 0.0
O135 O 0.12927 0.10184 0.1857 0.0
O136 O 0.97414 0.14937 0.22257 0.0
O137 O 0.9404 0.17147 0.27603 0.0
O138 O 0.93462 0.10593 0.36104 0.0
O139 O 0.9196 0.08245 0.25873 0.0
O140 O 0.01479 0.06045 0.23214 0.0
O141 O 0.90305 0.16405 0.33435 0.0
O142 O 0.04336 0.08093 0.31371 0.0
O143 O 0.08355 0.06259 0.26066 0.0
C144 C 0.07587 0.17083 0.29883 0.0
C145 C 0.07491 0.08668 0.13447 0.0
C146 C 0.08903 0.07289 0.07419 0.0
C147 C 0.05582 0.0323 0.07808 0.0
C148 C 0.04236 0.04589 0.13822 0.0
C149 C 0.03239 0.019 0.10999 0.0
C150 C 0.098 0.10007 0.10243 0.0
C151 C 0.94088 0.17549 0.24264 0.0
C152 C 0.08733 0.1156 0.16343 0.0
C153 C 0.32148 0.19137 0.24263 0.0
C154 C 0.28953 0.23118 0.23513 0.0
C155 C 0.95148 0.05686 0.2375 0.0
C156 C 0.84799 0.14456 0.38594 0.0
C157 C 0.80293 0.14197 0.44339 0.0
C158 C 0.73989 0.14626 0.42975 0.0
C159 C 0.78455 0.14905 0.37284 0.0
C160 C 0.85689 0.14095 0.42133 0.0
C161 C 0.73087 0.14977 0.39469 0.0
C162 C 0.07936 0.05623 0.29388 0.0
C163 C 0.90581 0.14373 0.3636 0.0
H164 H 0.0485 0.01093 0.05651 0.0
H165 H 0.02512 0.03484 0.16287 0.0
H166 H 0.00699 0.98761 0.11291 0.0
H167 H 0.12387 0.13137 0.09951 0.0
H168 H 0.69769 0.14691 0.4463 0.0
H169 H 0.77633 0.15217 0.34586 0.0
H170 H 0.90567 0.13743 0.43175 0.0
H171 H 0.68208 0.15315 0.3844 0.0
Tb172 Tb 0.45528 0.41158 0.73549 0.0
C173 C 0.76332 0.41493 0.79391 0.0
N174 N 0.7154 0.38419 0.78958 0.0
C175 C 0.79614 0.32806 0.78141 0.0
C176 C 0.82965 0.40407 0.78935 0.0
C177 C 0.73098 0.34066 0.78534 0.0
C178 C 0.84555 0.36017 0.78227 0.0
C179 C 0.79571 0.48706 0.81472 0.0
C180 C 0.74656 0.45565 0.80704 0.0
C181 C 0.86116 0.478 0.80694 0.0
C182 C 0.87817 0.43644 0.79447 0.0
Tb183 Tb 0.6119 0.40727 0.80017 0.0
N184 N 0.68317 0.46244 0.81572 0.0
C185 C 0.77821 0.5255 0.8318 0.0
C186 C 0.66697 0.49841 0.83478 0.0
C187 C 0.71382 0.53074 0.84245 0.0
H188 H 0.69319 0.31547 0.78468 0.0
H189 H 0.70027 0.55954 0.85684 0.0
H190 H 0.33549 0.47203 0.77049 0.0
H191 H 0.44801 0.24244 0.69243 0.0
H192 H 0.61822 0.50286 0.84418 0.0
H193 H 0.81452 0.55037 0.83816 0.0
H194 H 0.48985 0.31908 0.69547 0.0
H195 H 0.80811 0.29368 0.77749 0.0
H196 H 0.89939 0.50198 0.81222 0.0
H197 H 0.92926 0.42896 0.79048 0.0
H198 H 0.23411 0.45831 0.80212 0.0
H199 H 0.89596 0.35035 0.77909 0.0
H200 H 0.34956 0.22057 0.72523 0.0
N201 N 0.35573 0.4039 0.76265 0.0
C202 C 0.32988 0.36232 0.76371 0.0
C203 C 0.26116 0.4308 0.792 0.0
C204 C 0.27063 0.3529 0.7807 0.0
C205 C 0.31979 0.4384 0.77463 0.0
C206 C 0.23712 0.3877 0.7957 0.0
N207 N 0.41758 0.34022 0.72979 0.0
C208 C 0.44708 0.30995 0.70953 0.0
C209 C 0.33548 0.28609 0.74554 0.0
C210 C 0.36131 0.32948 0.74623 0.0
C211 C 0.36773 0.25431 0.72637 0.0
C212 C 0.4233 0.26649 0.70787 0.0
H213 H 0.19147 0.3819 0.80898 0.0
H214 H 0.20093 0.3014 0.79464 0.0
H215 H 0.25808 0.24273 0.76396 0.0
O216 O 0.44798 0.40663 0.68254 0.0
O217 O 0.48524 0.35453 0.76559 0.0
O218 O 0.51276 0.38736 0.81422 0.0
O219 O 0.38583 0.45054 0.70941 0.0
O220 O 0.54841 0.39592 0.71197 0.0
O221 O 0.61361 0.36466 0.75422 0.0
O222 O 0.64437 0.40644 0.8508 0.0
O223 O 0.62653 0.45085 0.75514 0.0
O224 O 0.52144 0.47056 0.73724 0.0
O225 O 0.61011 0.3465 0.82666 0.0
O226 O 0.5463 0.46218 0.81053 0.0
O227 O 0.44953 0.45643 0.77893 0.0
C228 C 0.48164 0.35586 0.7985 0.0
C229 C 0.34616 0.42087 0.65783 0.0
C230 C 0.30422 0.41317 0.60033 0.0
C231 C 0.24756 0.39278 0.6134 0.0
C232 C 0.2895 0.40026 0.67062 0.0
C233 C 0.24028 0.3865 0.6484 0.0
C234 C 0.35307 0.4276 0.62272 0.0
C235 C 0.59856 0.37203 0.72174 0.0
C236 C 0.40014 0.43423 0.68009 0.0
C237 C 0.24586 0.30937 0.78132 0.0
C238 C 0.27825 0.276 0.76376 0.0
C239 C 0.58612 0.47526 0.73632 0.0
C240 C 0.59455 0.35188 0.88666 0.0
C241 C 0.58539 0.35653 0.94858 0.0
C242 C 0.5438 0.31924 0.94839 0.0
C243 C 0.5532 0.3145 0.88741 0.0
C244 C 0.60866 0.37366 0.91735 0.0
C245 C 0.52695 0.29897 0.91796 0.0
C246 C 0.48582 0.47378 0.80335 0.0
C247 C 0.6294 0.36469 0.85498 0.0
H248 H 0.20937 0.38141 0.59648 0.0
H249 H 0.28344 0.39464 0.69759 0.0
H250 H 0.19664 0.37056 0.65831 0.0
H251 H 0.39706 0.44316 0.61271 0.0
H252 H 0.52527 0.30525 0.97194 0.0
H253 H 0.54259 0.29633 0.86456 0.0
H254 H 0.64106 0.40223 0.91728 0.0
H255 H 0.49526 0.27009 0.91818 0.0
Tb256 Tb 0.07612 0.9119 0.73217 0.0
C257 C 0.78879 0.90971 0.78446 0.0
N258 N 0.83281 0.9436 0.78658 0.0
C259 C 0.75116 0.9947 0.76716 0.0
C260 C 0.72469 0.91688 0.77259 0.0
C261 C 0.81396 0.98607 0.77946 0.0
C262 C 0.70656 0.9599 0.76331 0.0
C263 C 0.76284 0.83211 0.79474 0.0
C264 C 0.80735 0.86787 0.79554 0.0
C265 C 0.69945 0.83887 0.78211 0.0
C266 C 0.68044 0.88113 0.77105 0.0
Tb267 Tb 0.93428 0.92405 0.80602 0.0
N268 N 0.86955 0.86232 0.80693 0.0
C269 C 0.78329 0.79077 0.80695 0.0
C270 C 0.88893 0.82263 0.82022 0.0
C271 C 0.84635 0.78617 0.82009 0.0
H272 H 0.84686 0.01365 0.78348 0.0
H273 H 0.86224 0.75452 0.83009 0.0
H274 H 0.17392 0.82649 0.74614 0.0
H275 H 0.12625 0.07352 0.67896 0.0
H276 H 0.93732 0.81881 0.83065 0.0
H277 H 0.75053 0.76242 0.80679 0.0
H278 H 0.05695 1.00936 0.69546 0.0
H279 H 0.73699 0.02828 0.76097 0.0
H280 H 0.66454 0.81175 0.78114 0.0
H281 H 0.63107 0.88596 0.76183 0.0
H282 H 0.29282 0.8132 0.74956 0.0
H283 H 0.6578 0.96677 0.75401 0.0
H284 H 0.24577 0.07118 0.68874 0.0
N285 N 0.18471 0.89579 0.7371 0.0
C286 C 0.2269 0.9298 0.73093 0.0
C287 C 0.27493 0.84627 0.74465 0.0
C288 C 0.29505 0.9238 0.7326 0.0
C289 C 0.20766 0.85395 0.74282 0.0
C290 C 0.31882 0.88152 0.7402 0.0
N291 N 0.13586 0.97252 0.71607 0.0
C292 C 0.10887 1.00837 0.70017 0.0
C293 C 0.24325 1.00492 0.71033 0.0
C294 C 0.20157 0.96957 0.71974 0.0
C295 C 0.21546 0.04321 0.69632 0.0
C296 C 0.14804 0.04462 0.69068 0.0
H297 H 0.37087 0.87544 0.74154 0.0
H298 H 0.38959 0.95582 0.72645 0.0
H299 H 0.34412 0.02705 0.7071 0.0
O300 O 0.05237 0.92109 0.6802 0.0
O301 O 0.09585 0.96797 0.76576 0.0
O302 O 0.02479 0.96363 0.81266 0.0
O303 O 0.09898 0.86189 0.69761 0.0
O304 O 0.98033 0.94346 0.72564 0.0
O305 O 0.95165 0.98124 0.7729 0.0
O306 O 0.93367 0.90797 0.85797 0.0
O307 O 0.9179 0.88222 0.7606 0.0
O308 O 0.01905 0.85483 0.74936 0.0
O309 O 0.8851 0.96591 0.84017 0.0
O310 O 0.01486 0.88019 0.81997 0.0
O311 O 0.10022 0.87782 0.78038 0.0
C312 C 0.07764 0.97888 0.79671 0.0
C313 C 0.12945 0.88848 0.64306 0.0
C314 C 0.1549 0.89598 0.58258 0.0
C315 C 0.22159 0.89207 0.59022 0.0
C316 C 0.19664 0.88381 0.64968 0.0
C317 C 0.24222 0.88609 0.62355 0.0
C318 C 0.10865 0.8948 0.60917 0.0
C319 C 0.95842 0.97957 0.73985 0.0
C320 C 0.08139 0.88495 0.67118 0.0
C321 C 0.33705 0.9596 0.72498 0.0
C322 C 0.31117 1.00015 0.71391 0.0
C323 C 0.95563 0.85249 0.74647 0.0
C324 C 0.84425 0.93097 0.89052 0.0
C325 C 0.80733 0.91824 0.94902 0.0
C326 C 0.7452 0.90672 0.93656 0.0
C327 C 0.7815 0.91996 0.87886 0.0
C328 C 0.85679 0.93061 0.92575 0.0
C329 C 0.73239 0.90786 0.90177 0.0
C330 C 0.07449 0.86911 0.81068 0.0
C331 C 0.89785 0.94115 0.86648 0.0
H332 H 0.25778 0.89309 0.57016 0.0
H333 H 0.21444 0.87758 0.67492 0.0
H334 H 0.29374 0.88256 0.62913 0.0
H335 H 0.05707 0.89791 0.60343 0.0
H336 H 0.70644 0.89702 0.95388 0.0
H337 H 0.77033 0.92056 0.85212 0.0
H338 H 0.90504 0.9393 0.93505 0.0
H339 H 0.68421 0.89918 0.8925 0.0
Tb340 Tb 0.43486 0.60275 0.23089 0.0
C341 C 0.71602 0.65302 0.28953 0.0
N342 N 0.68509 0.61417 0.28293 0.0
C343 C 0.77939 0.58898 0.25286 0.0
C344 C 0.77905 0.66221 0.27679 0.0
C345 C 0.71692 0.58143 0.26617 0.0
C346 C 0.81028 0.6298 0.25777 0.0
C347 C 0.71563 0.72335 0.31819 0.0
C348 C 0.68449 0.68313 0.30969 0.0
C349 C 0.77757 0.73346 0.30471 0.0
C350 C 0.80919 0.70297 0.28398 0.0
Tb351 Tb 0.58213 0.60534 0.30451 0.0
N352 N 0.62437 0.67225 0.32196 0.0
C353 C 0.68413 0.7518 0.34047 0.0
C354 C 0.59547 0.69882 0.34547 0.0
C355 C 0.62422 0.73915 0.35453 0.0
H356 H 0.69457 0.5493 0.26314 0.0
H357 H 0.60042 0.76025 0.37267 0.0
H358 H 0.31822 0.67501 0.25484 0.0
H359 H 0.41172 0.4327 0.19319 0.0
H360 H 0.55054 0.68901 0.35789 0.0
H361 H 0.70636 0.783 0.34763 0.0
H362 H 0.46419 0.50665 0.19618 0.0
H363 H 0.80384 0.56319 0.23902 0.0
H364 H 0.80188 0.76443 0.31061 0.0
H365 H 0.8574 0.71085 0.27419 0.0
H366 H 0.2073 0.67077 0.27798 0.0
H367 H 0.85876 0.63553 0.24752 0.0
H368 H 0.30312 0.42006 0.21942 0.0
N369 N 0.32899 0.60481 0.25086 0.0
C370 C 0.29663 0.56526 0.25159 0.0
C371 C 0.23224 0.6407 0.27117 0.0
C372 C 0.23183 0.56161 0.26354 0.0
C373 C 0.29612 0.64274 0.25864 0.0
C374 C 0.20031 0.59989 0.27418 0.0
N375 N 0.38859 0.53416 0.22583 0.0
C376 C 0.4177 0.50095 0.20838 0.0
C377 C 0.29475 0.48754 0.2368 0.0
C378 C 0.32716 0.52878 0.23824 0.0
C379 C 0.32638 0.45231 0.22112 0.0
C380 C 0.38771 0.45928 0.20633 0.0
H381 H 0.1506 0.5985 0.28359 0.0
H382 H 0.15063 0.51663 0.27311 0.0
H383 H 0.2059 0.45166 0.24972 0.0
O384 O 0.44291 0.59147 0.17801 0.0
O385 O 0.44117 0.54787 0.26861 0.0
O386 O 0.48214 0.58371 0.31457 0.0
O387 O 0.379 0.64079 0.19686 0.0
O388 O 0.53251 0.57805 0.21969 0.0
O389 O 0.57487 0.54844 0.26961 0.0
O390 O 0.59154 0.60361 0.35765 0.0
O391 O 0.60088 0.63747 0.25534 0.0
O392 O 0.50118 0.66081 0.23312 0.0
O393 O 0.63208 0.55205 0.32797 0.0
O394 O 0.50012 0.6503 0.31326 0.0
O395 O 0.42625 0.65619 0.26777 0.0
C396 C 0.4532 0.54938 0.30135 0.0
C397 C 0.34513 0.60514 0.14691 0.0
C398 C 0.30037 0.59951 0.08941 0.0
C399 C 0.24045 0.5853 0.10322 0.0
C400 C 0.28462 0.59068 0.15989 0.0
C401 C 0.23294 0.58055 0.1382 0.0
C402 C 0.3531 0.60895 0.11144 0.0
C403 C 0.56628 0.54789 0.23628 0.0
C404 C 0.39776 0.61973 0.17018 0.0
C405 C 0.20007 0.52018 0.2636 0.0
C406 C 0.23149 0.48318 0.25025 0.0
C407 C 0.56512 0.66481 0.23708 0.0
C408 C 0.68734 0.57198 0.37924 0.0
C409 C 0.73769 0.58121 0.43527 0.0
C410 C 0.79928 0.58386 0.41969 0.0
C411 C 0.74956 0.57472 0.36434 0.0
C412 C 0.68176 0.57489 0.41486 0.0
C413 C 0.80507 0.58048 0.38451 0.0
C414 C 0.44936 0.66813 0.29762 0.0
C415 C 0.62756 0.56867 0.35817 0.0
H416 H 0.19929 0.57803 0.08683 0.0
H417 H 0.2765 0.58829 0.18683 0.0
H418 H 0.18647 0.56973 0.14859 0.0
H419 H 0.39933 0.62041 0.10105 0.0
H420 H 0.8429 0.58881 0.43482 0.0
H421 H 0.75539 0.57281 0.33713 0.0
H422 H 0.63395 0.57317 0.42664 0.0
H423 H 0.85279 0.58272 0.37279 0.0
C424 C 0.18579 0.99431 0.35894 0.0
C425 C 0.16536 0.9503 0.35335 0.0
C426 C 0.11069 0.97485 0.30102 0.0
C427 C 0.11789 0.01998 0.31107 0.0
N428 N 0.15927 0.07107 0.35363 0.0
N429 N 0.10459 0.89809 0.31996 0.0
C430 C 0.15499 0.02928 0.34102 0.0
C431 C 0.12727 0.94026 0.32443 0.0
N432 N 0.23527 1.00279 0.38134 0.0
N433 N 0.08856 0.96444 0.26941 0.0
H434 H 0.11685 0.87197 0.33624 0.0
H435 H 0.06985 0.88986 0.30169 0.0
H436 H 0.07617 0.98778 0.25105 0.0
H437 H 0.08853 0.93227 0.26017 0.0
H438 H 0.25673 0.03399 0.38391 0.0
H439 H 0.25983 0.97776 0.39447 0.0
H440 H 0.17827 0.07791 0.37756 0.0
H441 H 0.13955 0.09862 0.34188 0.0
C442 C 0.44537 0.55151 0.87651 0.0
C443 C 0.38482 0.56932 0.86524 0.0
C444 C 0.40558 0.53577 0.81043 0.0
C445 C 0.45526 0.50881 0.82446 0.0
N446 N 0.50669 0.48399 0.87712 0.0
N447 N 0.29783 0.56024 0.82348 0.0
C448 C 0.47123 0.51452 0.85936 0.0
C449 C 0.36182 0.55645 0.83266 0.0
N450 N 0.47971 0.57027 0.90235 0.0
N451 N 0.40054 0.54298 0.77634 0.0
H452 H 0.26129 0.56842 0.84065 0.0
H453 H 0.28068 0.549 0.80012 0.0
H454 H 0.43543 0.53186 0.75924 0.0
H455 H 0.36549 0.56418 0.76604 0.0
H456 H 0.52566 0.55882 0.90967 0.0
H457 H 0.46628 0.60024 0.91309 0.0
H458 H 0.51541 0.487 0.90308 0.0
H459 H 0.51959 0.4534 0.86738 0.0
C460 C 0.61608 0.55676 0.66119 0.0
C461 C 0.6821 0.56951 0.66696 0.0
C462 C 0.67442 0.53258 0.72235 0.0
C463 C 0.61574 0.51049 0.71301 0.0
N464 N 0.53963 0.4966 0.66702 0.0
N465 N 0.77847 0.5595 0.70208 0.0
C466 C 0.58846 0.52144 0.68069 0.0
C467 C 0.71281 0.55451 0.69726 0.0
N468 N 0.57913 0.57854 0.63757 0.0
N469 N 0.69077 0.53619 0.75555 0.0
H470 H 0.80975 0.57214 0.68345 0.0
H471 H 0.80225 0.54621 0.72326 0.0
H472 H 0.65674 0.52797 0.77414 0.0
H473 H 0.73128 0.55435 0.76374 0.0
H474 H 0.52934 0.57212 0.63442 0.0
H475 H 0.59628 0.60631 0.62425 0.0
H476 H 0.5219 0.50182 0.64249 0.0
H477 H 0.52424 0.4672 0.67808 0.0
C478 C 0.84209 1.0035 0.17007 0.0
C479 C 0.84175 0.95859 0.18089 0.0
C480 C 0.90213 0.98031 0.23195 0.0
C481 C 0.9135 0.02312 0.21791 0.0
N482 N 0.89766 0.07397 0.17091 0.0
N483 N 0.8234 0.92106 0.23432 0.0
C484 C 0.88371 0.03453 0.18641 0.0
C485 C 0.8587 0.95064 0.21536 0.0
N486 N 0.7969 0.01751 0.14693 0.0
N487 N 0.9332 0.96736 0.26093 0.0
H488 H 0.77899 0.90837 0.2255 0.0
H489 H 0.83124 0.91596 0.2602 0.0
H490 H 0.96473 0.98826 0.27407 0.0
H491 H 0.93103 0.93488 0.27017 0.0
H492 H 0.79037 0.05072 0.1404 0.0
H493 H 0.76052 0.99627 0.13788 0.0
H494 H 0.88299 0.08169 0.14622 0.0
H495 H 0.92886 0.09712 0.1816 0.0
C496 C 0.84777 0.02338 0.669 0.0
C497 C 0.8649 0.06893 0.66861 0.0
C498 C 0.93209 0.05791 0.71969 0.0
C499 C 0.92038 0.01154 0.71816 0.0
N500 N 0.84561 0.95441 0.70053 0.0
N501 N 0.93037 0.12884 0.69025 0.0
C502 C 0.87281 0.99524 0.69502 0.0
C503 C 0.90897 0.08596 0.69308 0.0
N504 N 0.8078 1.00679 0.64433 0.0
N505 N 0.96037 0.0758 0.74778 0.0
H506 H 0.91463 0.15027 0.67101 0.0
H507 H 0.96818 0.14187 0.70485 0.0
H508 H 0.97236 0.05715 0.76917 0.0
H509 H 0.96444 0.10972 0.75177 0.0
H510 H 0.80074 0.97306 0.6404 0.0
H511 H 0.78505 0.02659 0.62612 0.0
H512 H 0.80506 0.94235 0.6875 0.0
H513 H 0.85854 0.93451 0.72108 0.0
C514 C 0.67714 0.49539 0.16982 0.0
C515 C 0.65228 0.45147 0.16973 0.0
C516 C 0.58149 0.4685 0.21813 0.0
C517 C 0.60038 0.51387 0.21557 0.0
N518 N 0.66416 0.57122 0.18759 0.0
N519 N 0.57696 0.39648 0.19145 0.0
C520 C 0.64776 0.52746 0.19103 0.0
C521 C 0.60404 0.43792 0.19357 0.0
N522 N 0.73023 0.50608 0.15024 0.0
N523 N 0.54041 0.45476 0.24345 0.0
H524 H 0.59251 0.37304 0.17407 0.0
H525 H 0.536 0.3862 0.20514 0.0
H526 H 0.51648 0.47665 0.2592 0.0
H527 H 0.53176 0.42164 0.24966 0.0
H528 H 0.75555 0.53601 0.15186 0.0
H529 H 0.75272 0.48348 0.1343 0.0
H530 H 0.69102 0.58413 0.16732 0.0
H531 H 0.64844 0.5953 0.20428 0.0
C532 C 0.32074 0.49083 0.35413 0.0
C533 C 0.35584 0.4548 0.36819 0.0
C534 C 0.45424 0.47909 0.33715 0.0
C535 C 0.42003 0.51674 0.32461 0.0
N536 N 0.32617 0.56398 0.32875 0.0
N537 N 0.45717 0.41609 0.3761 0.0
C538 C 0.35462 0.52403 0.33505 0.0
C539 C 0.42288 0.44917 0.36033 0.0
N540 N 0.25472 0.49318 0.35883 0.0
N541 N 0.51707 0.47208 0.32719 0.0
H542 H 0.43529 0.39237 0.39193 0.0
H543 H 0.50774 0.41319 0.37511 0.0
H544 H 0.54366 0.49534 0.31333 0.0
H545 H 0.54213 0.44268 0.33134 0.0
H546 H 0.22527 0.51594 0.3461 0.0
H547 H 0.22856 0.46985 0.37318 0.0
H548 H 0.28169 0.57332 0.33916 0.0
H549 H 0.34989 0.58947 0.31559 0.0
C550 C 0.19221 0.03053 0.86261 0.0
C551 C 0.18364 0.07627 0.85592 0.0
C552 C 0.1226 0.0572 0.80445 0.0
C553 C 0.11874 0.01211 0.81543 0.0
N554 N 0.14568 0.95741 0.85848 0.0
N555 N 0.13586 0.13373 0.82123 0.0
C556 C 0.1527 0.99916 0.84542 0.0
C557 C 0.14836 0.08988 0.82673 0.0
N558 N 0.23828 0.01714 0.88557 0.0
N559 N 0.10145 0.06912 0.77294 0.0
H560 H 0.15373 0.15863 0.83689 0.0
H561 H 0.10376 0.14508 0.80259 0.0
H562 H 0.07997 0.04667 0.75659 0.0
H563 H 0.10974 0.10037 0.76223 0.0
H564 H 0.25085 0.98407 0.88931 0.0
H565 H 0.26889 0.03949 0.89804 0.0
H566 H 0.16373 0.94786 0.88217 0.0
H567 H 0.11692 0.93342 0.84714 0.0
C568 C 0.10778 0.13 0.98782 0.0
C569 C 0.16938 0.11365 0.97752 0.0
C570 C 0.18019 0.07315 0.03158 0.0
C571 C 0.11637 0.08663 0.04071 0.0
N572 N 0.01584 0.12349 0.02655 0.0
N573 N 0.26054 0.06489 0.98698 0.0
C574 C 0.07913 0.1139 0.01854 0.0
C575 C 0.20471 0.08399 0.99874 0.0
N576 N 0.07751 0.1617 0.96854 0.0
N577 N 0.2179 0.05076 0.05463 0.0
H578 H 0.28077 0.07249 0.96332 0.0
H579 H 0.28435 0.03911 0.99949 0.0
H580 H 0.201 0.04107 0.07856 0.0
H581 H 0.26737 0.04456 0.0511 0.0
H582 H 0.0359 0.17843 0.97619 0.0
H583 H 0.09692 0.17386 0.94578 0.0
H584 H 0.98358 0.13903 1.00991 0.0
H585 H 0.99384 0.11307 0.04916 0.0
C586 C 0.27207 0.44711 0.5086 0.0
C587 C 0.31718 0.41993 0.49146 0.0
C588 C 0.35809 0.39107 0.54574 0.0
C589 C 0.3129 0.41823 0.563 0.0
N590 N 0.23894 0.47989 0.56175 0.0
N591 N 0.4141 0.37546 0.49302 0.0
C592 C 0.27374 0.44884 0.54465 0.0
C593 C 0.36406 0.39517 0.50993 0.0
N594 N 0.22575 0.46962 0.49049 0.0
N595 N 0.39252 0.3596 0.56324 0.0
H596 H 0.41947 0.37803 0.46673 0.0
H597 H 0.45343 0.36036 0.50514 0.0
H598 H 0.38922 0.35512 0.58945 0.0
H599 H 0.42057 0.33557 0.55157 0.0
H600 H 0.18647 0.48562 0.5016 0.0
H601 H 0.22459 0.47029 0.46403 0.0
H602 H 0.21438 0.5058 0.54981 0.0
H603 H 0.23943 0.48209 0.58814 0.0
C604 C 0.69255 0.39552 0.02253 0.0
C605 C 0.64631 0.39479 0.04932 0.0
C606 C 0.55958 0.38561 1.00688 0.0
C607 C 0.60699 0.37522 0.98193 0.0
N608 N 0.72137 0.36263 0.96932 0.0
N609 N 0.53385 0.38338 0.06668 0.0
C610 C 0.67443 0.37867 0.99039 0.0
C611 C 0.57898 0.38891 0.04147 0.0
N612 N 0.75413 0.4117 0.02794 0.0
N613 N 0.49616 0.39247 0.99756 0.0
H614 H 0.54572 0.38339 0.09236 0.0
H615 H 0.48537 0.37456 0.06191 0.0
H616 H 0.48094 0.39175 0.97229 0.0
H617 H 0.46082 0.40363 1.01438 0.0
H618 H 0.7881 0.41595 1.00845 0.0
H619 H 0.76826 0.42537 0.05104 0.0
H620 H 0.7705 0.36101 0.97623 0.0
H621 H 0.71093 0.34624 0.94685 0.0
C622 C 0.78546 0.0972 0.53354 0.0
C623 C 0.81078 0.13297 0.55278 0.0
C624 C 0.83386 0.1745 0.50008 0.0
C625 C 0.8114 0.13783 0.48092 0.0
N626 N 0.78039 0.06081 0.47907 0.0
N627 N 0.87069 0.20182 0.55465 0.0
C628 C 0.7919 0.09804 0.49761 0.0
C629 C 0.8387 0.17044 0.53608 0.0
N630 N 0.75206 0.06351 0.54938 0.0
N631 N 0.84785 0.21379 0.48404 0.0
H632 H 0.87494 0.19981 0.58101 0.0
H633 H 0.89777 0.22767 0.54385 0.0
H634 H 0.84557 0.21793 0.45777 0.0
H635 H 0.85715 0.24314 0.49684 0.0
H636 H 0.7263 0.03912 0.5364 0.0
H637 H 0.74499 0.062 0.57554 0.0
H638 H 0.77264 0.02965 0.48997 0.0
H639 H 0.7848 0.06026 0.45271 0.0
C640 C 0.7788 0.93671 0.04324 0.0
C641 C 0.82458 0.90734 0.05836 0.0
C642 C 0.86223 0.88619 1.00159 0.0
C643 C 0.819 0.9174 0.98659 0.0
N644 N 0.74979 0.98078 0.99379 0.0
N645 N 0.92154 0.8634 0.05207 0.0
C646 C 0.78173 0.9454 1.00769 0.0
C647 C 0.87008 0.88505 0.03752 0.0
N648 N 0.73005 0.95441 0.06233 0.0
N649 N 0.8932 0.85598 0.98185 0.0
H650 H 0.92952 0.86272 0.07822 0.0
H651 H 0.95969 0.85013 0.03808 0.0
H652 H 0.88801 0.85496 0.95557 0.0
H653 H 0.91951 0.82948 0.99184 0.0
H654 H 0.69136 0.97216 0.05187 0.0
H655 H 0.72459 0.9479 0.08819 0.0
H656 H 0.72701 1.00478 1.00829 0.0
H657 H 0.75199 0.98864 0.96797 0.0
C658 C 0.76894 0.56205 0.52989 0.0
C659 C 0.73846 0.59954 0.54417 0.0
C660 C 0.70532 0.62464 0.48713 0.0
C661 C 0.73283 0.58597 0.47299 0.0
N662 N 0.77748 0.51314 0.4817 0.0
N663 N 0.66419 0.66056 0.53741 0.0
C664 C 0.7605 0.55318 0.49468 0.0
C665 C 0.70241 0.62896 0.52306 0.0
N666 N 0.80833 0.53596 0.54957 0.0
N667 N 0.68489 0.65832 0.46633 0.0
H668 H 0.66028 0.6644 0.56359 0.0
H669 H 0.63161 0.68 0.52358 0.0
H670 H 0.68663 0.65682 0.43994 0.0
H671 H 0.6714 0.68926 0.47521 0.0
H672 H 0.83773 0.51119 0.53981 0.0
H673 H 0.81577 0.54132 0.57538 0.0
H674 H 0.79182 0.48631 0.49669 0.0
H675 H 0.77119 0.50536 0.45618 0.0
C676 C 0.32109 0.6513 1.00076 0.0
C677 C 0.30114 0.61537 0.98009 0.0
C678 C 0.29516 0.56757 0.03076 0.0
C679 C 0.30602 0.60482 0.05174 0.0
N680 N 0.31694 0.68424 0.05638 0.0
N681 N 0.25606 0.54146 0.97655 0.0
C682 C 0.31576 0.64733 0.03668 0.0
C683 C 0.28455 0.57403 0.99542 0.0
N684 N 0.3473 0.68872 0.98627 0.0
N685 N 0.29657 0.52583 0.04448 0.0
H686 H 0.245 0.5455 0.95088 0.0
H687 H 0.23725 0.51229 0.98716 0.0
H688 H 0.30611 0.51975 0.07011 0.0
H689 H 0.29514 0.49733 0.02985 0.0
H690 H 0.36877 0.71394 1.00036 0.0
H691 H 0.35354 0.69268 0.96016 0.0
H692 H 0.31686 0.71628 0.04631 0.0
H693 H 0.31173 0.68311 0.08267 0.0
C694 C 0.16729 0.93957 0.49357 0.0
C695 C 0.15067 0.90108 0.47491 0.0
C696 C 0.11678 0.86307 0.52747 0.0
C697 C 0.13636 0.90078 0.54616 0.0
N698 N 0.15951 0.97877 0.5469 0.0
N699 N 0.09152 0.83208 0.47232 0.0
C700 C 0.15406 0.94049 0.52898 0.0
C701 C 0.11895 0.86485 0.49137 0.0
N702 N 0.20002 0.97388 0.47816 0.0
N703 N 0.10017 0.82477 0.5442 0.0
H704 H 0.09237 0.83292 0.44584 0.0
H705 H 0.06288 0.80657 0.48248 0.0
H706 H 0.0963 0.82268 0.57053 0.0
H707 H 0.09337 0.79458 0.53216 0.0
H708 H 0.22029 1.00034 0.49133 0.0
H709 H 0.21094 0.97466 0.45238 0.0
H710 H 0.16683 1.00974 0.53561 0.0
H711 H 0.15007 0.97984 0.5729 0.0
C712 C 0.21806 0.23133 0.34235 0.0
C713 C 0.18728 0.27144 0.35099 0.0
C714 C 0.08375 0.24476 0.32774 0.0
C715 C 0.11445 0.20513 0.31736 0.0
N716 N 0.2116 0.16093 0.31356 0.0
N717 N 0.09677 0.32101 0.34534 0.0
C718 C 0.18212 0.19865 0.32412 0.0
C719 C 0.12209 0.27968 0.34135 0.0
N720 N 0.28112 0.22425 0.35253 0.0
N721 N 0.01733 0.24793 0.32694 0.0
H722 H 0.12413 0.34716 0.35531 0.0
H723 H 0.05145 0.3304 0.33573 0.0
H724 H 0.98747 0.22231 0.31865 0.0
H725 H 0.99165 0.27402 0.33747 0.0
H726 H 0.30521 0.19422 0.35063 0.0
H727 H 0.30946 0.2487 0.36408 0.0
H728 H 0.26134 0.15474 0.31552 0.0
H729 H 0.18608 0.13592 0.30129 0.0
C730 C 0.40972 0.2438 0.82676 0.0
C731 C 0.37135 0.25636 0.85479 0.0
C732 C 0.39766 0.33457 0.84303 0.0
C733 C 0.44305 0.32163 0.81776 0.0
N734 N 0.50065 0.26258 0.78998 0.0
N735 N 0.33288 0.31318 0.89208 0.0
C736 C 0.45091 0.27586 0.81052 0.0
C737 C 0.36634 0.30162 0.86356 0.0
N738 N 0.40679 0.20119 0.8156 0.0
N739 N 0.38198 0.37819 0.8465 0.0
H740 H 0.30638 0.29044 0.90681 0.0
H741 H 0.33482 0.34477 0.90236 0.0
H742 H 0.4022 0.40341 0.8316 0.0
H743 H 0.34391 0.38904 0.86172 0.0
H744 H 0.42809 0.19107 0.79302 0.0
H745 H 0.37774 0.17695 0.82733 0.0
H746 H 0.51253 0.22951 0.78643 0.0
H747 H 0.53468 0.28439 0.77922 0.0
C748 C 0.71812 0.29139 0.68636 0.0
C749 C 0.67437 0.26814 0.6649 0.0
C750 C 0.6012 0.33145 0.66525 0.0
C751 C 0.63367 0.34663 0.69472 0.0
N752 N 0.74238 0.36192 0.71278 0.0
N753 N 0.57728 0.2682 0.63007 0.0
C754 C 0.69847 0.3328 0.69959 0.0
C755 C 0.61722 0.28911 0.65267 0.0
N756 N 0.77663 0.27322 0.69519 0.0
N757 N 0.56031 0.35874 0.64766 0.0
H758 H 0.58919 0.23794 0.61926 0.0
H759 H 0.53119 0.28 0.6235 0.0
H760 H 0.55755 0.39237 0.65295 0.0
H761 H 0.538 0.34992 0.62491 0.0
H762 H 0.80765 0.28703 0.71325 0.0
H763 H 0.79292 0.24352 0.68501 0.0
H764 H 0.79261 0.35658 0.71258 0.0
H765 H 0.72815 0.39353 0.72015 0.0
C766 C 0.8173 0.22851 0.18263 0.0
C767 C 0.83064 0.27401 0.18764 0.0
C768 C 0.91199 0.25567 0.23105 0.0
C769 C 0.89899 0.20981 0.22614 0.0
N770 N 0.82839 0.15324 0.20313 0.0
N771 N 0.87767 0.33172 0.22141 0.0
C772 C 0.84824 0.19646 0.2037 0.0
C773 C 0.87348 0.28782 0.21365 0.0
N774 N 0.77683 0.21581 0.15678 0.0
N775 N 0.96414 0.26854 0.25029 0.0
H776 H 0.85022 0.35574 0.20871 0.0
H777 H 0.90336 0.34376 0.24222 0.0
H778 H 0.99539 0.24598 0.26181 0.0
H779 H 0.98039 0.30116 0.25211 0.0
H780 H 0.77218 0.18327 0.14865 0.0
H781 H 0.75015 0.23832 0.14216 0.0
H782 H 0.78702 0.1421 0.1903 0.0
H783 H 0.85 0.12882 0.21803 0.0
C784 C 0.90264 0.7368 0.71571 0.0
C785 C 0.86108 0.74881 0.68833 0.0
C786 C 0.88851 0.82667 0.69663 0.0
C787 C 0.92523 0.81598 0.72611 0.0
N788 N 0.96447 0.76018 0.76527 0.0
N789 N 0.8017 0.80553 0.65835 0.0
C790 C 0.93144 0.77073 0.73619 0.0
C791 C 0.84939 0.79387 0.68097 0.0
N792 N 0.91586 0.6931 0.72146 0.0
N793 N 0.89654 0.86686 0.68117 0.0
H794 H 0.77204 0.7822 0.64632 0.0
H795 H 0.78744 0.83824 0.65439 0.0
H796 H 0.93134 0.88949 0.68935 0.0
H797 H 0.87574 0.87502 0.65779 0.0
H798 H 0.95123 0.68194 0.73845 0.0
H799 H 0.89302 0.66786 0.70787 0.0
H800 H 0.9648 0.72858 0.77604 0.0
H801 H 0.98869 0.78373 0.77988 0.0
C802 C 0.67309 0.76529 0.21827 0.0
C803 C 0.69219 0.75648 0.18447 0.0
C804 C 0.61592 0.69316 0.18264 0.0
C805 C 0.60094 0.69977 0.21737 0.0
N806 N 0.5986 0.74895 0.26476 0.0
N807 N 0.68316 0.71299 0.13383 0.0
C808 C 0.62472 0.73791 0.23418 0.0
C809 C 0.66316 0.72106 0.16629 0.0
N810 N 0.70342 0.79857 0.23564 0.0
N811 N 0.58355 0.66093 0.16514 0.0
H812 H 0.71524 0.73386 0.12056 0.0
H813 H 0.67058 0.68487 0.12026 0.0
H814 H 0.54857 0.64039 0.17634 0.0
H815 H 0.58726 0.65627 0.13914 0.0
H816 H 0.69781 0.80351 0.26155 0.0
H817 H 0.73738 0.82006 0.22437 0.0
H818 H 0.60787 0.77879 0.27684 0.0
H819 H 0.56306 0.72956 0.27681 0.0
C820 C 0.346 0.72792 0.36354 0.0
C821 C 0.34996 0.77206 0.35147 0.0
C822 C 0.4095 0.74738 0.30125 0.0
C823 C 0.41385 0.70395 0.31575 0.0
N824 N 0.3918 0.65471 0.36353 0.0
N825 N 0.38879 0.8255 0.31048 0.0
C826 C 0.38363 0.69473 0.34768 0.0
C827 C 0.38227 0.78227 0.32065 0.0
N828 N 0.30524 0.7175 0.38999 0.0
N829 N 0.43119 0.75558 0.26901 0.0
H830 H 0.36704 0.85149 0.32339 0.0
H831 H 0.41889 0.83591 0.29061 0.0
H832 H 0.4545 0.73215 0.25436 0.0
H833 H 0.42224 0.78494 0.25579 0.0
H834 H 0.29441 0.68512 0.39755 0.0
H835 H 0.27698 0.74106 0.40224 0.0
H836 H 0.37811 0.64843 0.38858 0.0
H837 H 0.41661 0.62852 0.35291 0.0
C838 C 0.10928 0.77666 0.87361 0.0
C839 C 0.17229 0.76434 0.86259 0.0
C840 C 0.18127 0.83367 0.83 0.0
C841 C 0.11355 0.84048 0.8349 0.0
N842 N 0.03651 0.83798 0.88098 0.0
N843 N 0.27187 0.78239 0.83272 0.0
C844 C 0.08332 0.81765 0.86242 0.0
C845 C 0.20997 0.79364 0.84199 0.0
N846 N 0.07362 0.74903 0.89425 0.0
N847 N 0.21905 0.86744 0.81746 0.0
H848 H 0.29493 0.75404 0.84206 0.0
H849 H 0.29893 0.80007 0.81468 0.0
H850 H 0.19961 0.89829 0.8112 0.0
H851 H 0.2699 0.86657 0.81702 0.0
H852 H 0.02447 0.75431 0.89966 0.0
H853 H 0.09225 0.71965 0.90437 0.0
H854 H 0.01481 0.82379 0.90244 0.0
H855 H 0.0299 0.87201 0.8789 0.0
loop_
_geom_bond_atom_site_label_1
_geom_bond_atom_site_label_2
_geom_bond_distance
_geom_bond_site_symmetry_2
_ccdc_geom_bond_type
H0 C3 0.929 . S
H1 C6 0.929 . S
H2 C8 0.930 . S
C3 H0 0.929 . S
C3 C4 1.398 . S
C3 C5 1.396 . S
C4 C3 1.398 . S
C4 C8 1.407 . S
C5 C3 1.396 . S
C5 C6 1.394 . S
C6 H1 0.929 . S
C6 C5 1.394 . S
C6 C7 1.382 . S
C7 C6 1.382 . S
C7 C8 1.392 . S
C7 N9 1.420 . S
C8 H2 0.930 . S
C8 C4 1.407 . S
C8 C7 1.392 . S
N9 C7 1.420 . S
N9 C10 1.244 . S
C10 N9 1.244 . S
H11 C14 0.929 . S
H12 C17 0.929 . S
H13 C19 0.930 . S
C14 H11 0.929 . S
C14 C15 1.398 . S
C14 C16 1.396 . S
C15 C14 1.398 . S
C15 C19 1.407 . S
C16 C14 1.396 . S
C16 C17 1.394 . S
C17 H12 0.929 . S
C17 C16 1.394 . S
C17 C18 1.382 . S
C18 C17 1.382 . S
C18 C19 1.392 . S
C18 N20 1.420 . S
C19 H13 0.930 . S
C19 C15 1.407 . S
C19 C18 1.392 . S
N20 C18 1.420 . S
N20 C21 1.244 . S
C21 N20 1.244 . S
H22 C25 0.929 . S
H23 C28 0.929 . S
H24 C30 0.930 . S
C25 H22 0.929 . S
C25 C26 1.398 . S
C25 C27 1.396 . S
C26 C25 1.398 . S
C26 C30 1.407 . S
C27 C25 1.396 . S
C27 C28 1.394 . S
C28 H23 0.929 . S
C28 C27 1.394 . S
C28 C29 1.382 . S
C29 C28 1.382 . S
C29 C30 1.392 . S
C29 N31 1.420 . S
C30 H24 0.930 . S
C30 C26 1.407 . S
C30 C29 1.392 . S
N31 C29 1.420 . S
N31 C32 1.244 . S
C32 N31 1.244 . S
H33 C36 0.929 . S
H34 C39 0.929 . S
H35 C41 0.930 . S
C36 H33 0.929 . S
C36 C37 1.398 . S
C36 C38 1.396 . S
C37 C36 1.398 . S
C37 C41 1.407 . S
C38 C36 1.396 . S
C38 C39 1.394 . S
C39 H34 0.929 . S
C39 C38 1.394 . S
C39 C40 1.382 . S
C40 C39 1.382 . S
C40 C41 1.392 . S
C40 N42 1.420 . S
C41 H35 0.930 . S
C41 C37 1.407 . S
C41 C40 1.392 . S
N42 C40 1.420 . S
N42 C43 1.244 . S
C43 N42 1.244 . S
H44 C47 0.929 . S
H45 C50 0.929 . S
H46 C52 0.930 . S
C47 H44 0.929 . S
C47 C48 1.398 . S
C47 C49 1.396 . S
C48 C47 1.398 . S
C48 C52 1.407 . S
C49 C47 1.396 . S
C49 C50 1.394 . S
C50 H45 0.929 . S
C50 C49 1.394 . S
C50 C51 1.382 . S
C51 C50 1.382 . S
C51 C52 1.392 . S
C51 N53 1.420 . S
C52 H46 0.930 . S
C52 C48 1.407 . S
C52 C51 1.392 . S
N53 C51 1.420 . S
N53 C54 1.244 . S
C54 N53 1.244 . S
H55 C58 0.929 . S
H56 C61 0.929 . S
H57 C63 0.930 . S
C58 H55 0.929 . S
C58 C59 1.398 . S
C58 C60 1.396 . S
C59 C58 1.398 . S
C59 C63 1.407 . S
C60 C58 1.396 . S
C60 C61 1.394 . S
C61 H56 0.929 . S
C61 C60 1.394 . S
C61 C62 1.382 . S
C62 C61 1.382 . S
C62 C63 1.392 . S
C62 N64 1.420 . S
C63 H57 0.930 . S
C63 C59 1.407 . S
C63 C62 1.392 . S
N64 C62 1.420 . S
N64 C65 1.244 . S
C65 N64 1.244 . S
H66 C69 0.929 . S
H67 C72 0.929 . S
H68 C74 0.930 . S
C69 H66 0.929 . S
C69 C70 1.398 . S
C69 C71 1.396 . S
C70 C69 1.398 . S
C70 C74 1.407 . S
C71 C69 1.396 . S
C71 C72 1.394 . S
C72 H67 0.929 . S
C72 C71 1.394 . S
C72 C73 1.382 . S
C73 C72 1.382 . S
C73 C74 1.392 . S
C73 N75 1.420 . S
C74 H68 0.930 . S
C74 C70 1.407 . S
C74 C73 1.392 . S
N75 C73 1.420 . S
N75 C76 1.244 . S
C76 N75 1.244 . S
H77 C80 0.929 . S
H78 C83 0.929 . S
H79 C85 0.930 . S
C80 H77 0.929 . S
C80 C81 1.398 . S
C80 C82 1.396 . S
C81 C80 1.398 . S
C81 C85 1.407 . S
C82 C80 1.396 . S
C82 C83 1.394 . S
C83 H78 0.929 . S
C83 C82 1.394 . S
C83 C84 1.382 . S
C84 C83 1.382 . S
C84 C85 1.392 . S
C84 N86 1.420 . S
C85 H79 0.930 . S
C85 C81 1.407 . S
C85 C84 1.392 . S
N86 C84 1.420 . S
N86 C87 1.244 . S
C87 N86 1.244 . S
Tb88 N117 2.617 . S
Tb88 N123 2.572 . S
Tb88 O132 2.465 . S
Tb88 O133 2.387 . S
Tb88 O135 2.428 . S
Tb88 O136 2.308 . S
Tb88 O140 2.349 . S
Tb88 O143 2.393 . S
Tb88 C152 2.802 . S
C89 N90 1.379 . S
C89 C92 1.416 . S
C89 C96 1.424 . S
N90 C89 1.379 . S
N90 C93 1.334 . S
N90 Tb99 2.617 . S
C91 C93 1.390 . S
C91 C94 1.339 . S
C91 H111 0.930 . S
C92 C89 1.416 . S
C92 C94 1.416 . S
C92 C98 1.448 . S
C93 N90 1.334 . S
C93 C91 1.390 . S
C93 H104 0.930 . S
C94 C91 1.339 . S
C94 C92 1.416 . S
C94 H115 0.930 . S
C95 C96 1.413 1_565 S
C95 C97 1.427 . S
C95 C101 1.416 . S
C96 C89 1.424 . S
C96 C95 1.413 1_545 S
C96 N100 1.361 . S
C97 C95 1.427 . S
C97 C98 1.328 1_565 S
C97 H112 0.929 . S
C98 C92 1.448 . S
C98 C97 1.328 1_545 S
C98 H113 0.930 . S
Tb99 N90 2.617 . S
Tb99 N100 2.572 . S
Tb99 O134 2.349 1_655 S
Tb99 O137 2.393 . S
Tb99 O138 2.465 . S
Tb99 O139 2.387 . S
Tb99 O141 2.428 . S
Tb99 O142 2.308 1_655 S
Tb99 C163 2.802 . S
N100 C96 1.361 . S
N100 Tb99 2.572 . S
N100 C102 1.340 1_545 S
C101 C95 1.416 . S
C101 C103 1.332 . S
C101 H109 0.931 . S
C102 N100 1.340 1_565 S
C102 C103 1.407 . S
C102 H108 0.930 . S
C103 C101 1.332 . S
C103 C102 1.407 . S
C103 H105 0.929 . S
H104 C93 0.930 . S
H105 C103 0.929 . S
H106 C121 0.930 . S
H107 C128 0.929 . S
H108 C102 0.930 . S
H109 C101 0.931 . S
H110 C124 0.930 . S
H111 C91 0.930 . S
H112 C97 0.929 . S
H113 C98 0.930 . S
H114 C119 0.930 . S
H115 C94 0.930 . S
H116 C127 0.931 . S
N117 Tb88 2.617 . S
N117 C118 1.379 . S
N117 C121 1.334 . S
C118 N117 1.379 . S
C118 C120 1.416 . S
C118 C126 1.424 . S
C119 H114 0.930 . S
C119 C121 1.390 . S
C119 C122 1.339 . S
C120 C118 1.416 . S
C120 C122 1.416 . S
C120 C153 1.448 . S
C121 H106 0.930 . S
C121 N117 1.334 . S
C121 C119 1.390 . S
C122 C119 1.339 . S
C122 C120 1.416 . S
C122 H129 0.930 . S
N123 Tb88 2.572 . S
N123 C124 1.340 . S
N123 C126 1.361 . S
C124 H110 0.930 . S
C124 N123 1.340 . S
C124 C128 1.407 . S
C125 C126 1.413 . S
C125 C127 1.416 . S
C125 C154 1.427 . S
C126 C118 1.424 . S
C126 N123 1.361 . S
C126 C125 1.413 . S
C127 H116 0.931 . S
C127 C125 1.416 . S
C127 C128 1.332 . S
C128 H107 0.929 . S
C128 C124 1.407 . S
C128 C127 1.332 . S
H129 C122 0.930 . S
H130 C153 0.930 . S
H131 C154 0.929 . S
O132 Tb88 2.465 . S
O132 C152 1.264 . S
O133 Tb88 2.387 . S
O133 C144 1.264 . S
O134 Tb99 2.349 1_455 S
O134 C144 1.243 . S
O135 Tb88 2.428 . S
O135 C152 1.256 . S
O136 Tb88 2.308 . S
O136 C151 1.266 1_455 S
O137 Tb99 2.393 . S
O137 C151 1.248 . S
O138 Tb99 2.465 . S
O138 C163 1.264 . S
O139 Tb99 2.387 . S
O139 C155 1.264 . S
O140 Tb88 2.349 . S
O140 C155 1.243 1_455 S
O141 Tb99 2.428 . S
O141 C163 1.256 . S
O142 Tb99 2.308 1_455 S
O142 C162 1.266 . S
O143 Tb88 2.393 . S
O143 C162 1.248 . S
C144 O133 1.264 . S
C144 O134 1.243 . S
C145 C148 1.399 . S
C145 C150 1.383 . S
C145 C152 1.496 . S
C146 C147 1.399 . S
C146 C150 1.389 . S
C147 C146 1.399 . S
C147 C149 1.380 . S
C147 H164 0.929 . S
C148 C145 1.399 . S
C148 C149 1.392 . S
C148 H165 0.929 . S
C149 C147 1.380 . S
C149 C148 1.392 . S
C149 H166 0.929 . S
C150 C145 1.383 . S
C150 C146 1.389 . S
C150 H167 0.931 . S
C151 O136 1.266 1_655 S
C151 O137 1.248 . S
C152 Tb88 2.802 . S
C152 O132 1.264 . S
C152 O135 1.256 . S
C152 C145 1.496 . S
C153 C120 1.448 . S
C153 H130 0.930 . S
C153 C154 1.328 . S
C154 C125 1.427 . S
C154 H131 0.929 . S
C154 C153 1.328 . S
C155 O139 1.264 . S
C155 O140 1.243 1_655 S
C156 C159 1.399 . S
C156 C160 1.383 . S
C156 C163 1.496 . S
C157 C158 1.399 . S
C157 C160 1.389 . S
C158 C157 1.399 . S
C158 C161 1.380 . S
C158 H168 0.929 . S
C159 C156 1.399 . S
C159 C161 1.392 . S
C159 H169 0.929 . S
C160 C156 1.383 . S
C160 C157 1.389 . S
C160 H170 0.931 . S
C161 C158 1.380 . S
C161 C159 1.392 . S
C161 H171 0.929 . S
C162 O142 1.266 . S
C162 O143 1.248 . S
C163 Tb99 2.802 . S
C163 O138 1.264 . S
C163 O141 1.256 . S
C163 C156 1.496 . S
H164 C147 0.929 . S
H165 C148 0.929 . S
H166 C149 0.929 . S
H167 C150 0.931 . S
H168 C158 0.929 . S
H169 C159 0.929 . S
H170 C160 0.931 . S
H171 C161 0.929 . S
Tb172 N201 2.617 . S
Tb172 N207 2.572 . S
Tb172 O216 2.465 . S
Tb172 O217 2.387 . S
Tb172 O219 2.428 . S
Tb172 O220 2.308 . S
Tb172 O224 2.349 . S
Tb172 O227 2.393 . S
Tb172 C236 2.802 . S
C173 N174 1.379 . S
C173 C176 1.416 . S
C173 C180 1.424 . S
N174 C173 1.379 . S
N174 C177 1.334 . S
N174 Tb183 2.617 . S
C175 C177 1.390 . S
C175 C178 1.339 . S
C175 H195 0.930 . S
C176 C173 1.416 . S
C176 C178 1.416 . S
C176 C182 1.448 . S
C177 N174 1.334 . S
C177 C175 1.390 . S
C177 H188 0.930 . S
C178 C175 1.339 . S
C178 C176 1.416 . S
C178 H199 0.930 . S
C179 C180 1.413 . S
C179 C181 1.427 . S
C179 C185 1.416 . S
C180 C173 1.424 . S
C180 C179 1.413 . S
C180 N184 1.361 . S
C181 C179 1.427 . S
C181 C182 1.328 . S
C181 H196 0.929 . S
C182 C176 1.448 . S
C182 C181 1.328 . S
C182 H197 0.930 . S
Tb183 N174 2.617 . S
Tb183 N184 2.572 . S
Tb183 O218 2.349 . S
Tb183 O221 2.393 . S
Tb183 O222 2.465 . S
Tb183 O223 2.387 . S
Tb183 O225 2.428 . S
Tb183 O226 2.308 . S
Tb183 C247 2.802 . S
N184 C180 1.361 . S
N184 Tb183 2.572 . S
N184 C186 1.340 . S
C185 C179 1.416 . S
C185 C187 1.332 . S
C185 H193 0.931 . S
C186 N184 1.340 . S
C186 C187 1.407 . S
C186 H192 0.930 . S
C187 C185 1.332 . S
C187 C186 1.407 . S
C187 H189 0.929 . S
H188 C177 0.930 . S
H189 C187 0.929 . S
H190 C205 0.930 . S
H191 C212 0.929 . S
H192 C186 0.930 . S
H193 C185 0.931 . S
H194 C208 0.930 . S
H195 C175 0.930 . S
H196 C181 0.929 . S
H197 C182 0.930 . S
H198 C203 0.930 . S
H199 C178 0.930 . S
H200 C211 0.931 . S
N201 Tb172 2.617 . S
N201 C202 1.379 . S
N201 C205 1.334 . S
C202 N201 1.379 . S
C202 C204 1.416 . S
C202 C210 1.424 . S
C203 H198 0.930 . S
C203 C205 1.390 . S
C203 C206 1.339 . S
C204 C202 1.416 . S
C204 C206 1.416 . S
C204 C237 1.448 . S
C205 H190 0.930 . S
C205 N201 1.334 . S
C205 C203 1.390 . S
C206 C203 1.339 . S
C206 C204 1.416 . S
C206 H213 0.930 . S
N207 Tb172 2.572 . S
N207 C208 1.340 . S
N207 C210 1.361 . S
C208 H194 0.930 . S
C208 N207 1.340 . S
C208 C212 1.407 . S
C209 C210 1.413 . S
C209 C211 1.416 . S
C209 C238 1.427 . S
C210 C202 1.424 . S
C210 N207 1.361 . S
C210 C209 1.413 . S
C211 H200 0.931 . S
C211 C209 1.416 . S
C211 C212 1.332 . S
C212 H191 0.929 . S
C212 C208 1.407 . S
C212 C211 1.332 . S
H213 C206 0.930 . S
H214 C237 0.930 . S
H215 C238 0.929 . S
O216 Tb172 2.465 . S
O216 C236 1.264 . S
O217 Tb172 2.387 . S
O217 C228 1.264 . S
O218 Tb183 2.349 . S
O218 C228 1.243 . S
O219 Tb172 2.428 . S
O219 C236 1.256 . S
O220 Tb172 2.308 . S
O220 C235 1.266 . S
O221 Tb183 2.393 . S
O221 C235 1.248 . S
O222 Tb183 2.465 . S
O222 C247 1.264 . S
O223 Tb183 2.387 . S
O223 C239 1.264 . S
O224 Tb172 2.349 . S
O224 C239 1.243 . S
O225 Tb183 2.428 . S
O225 C247 1.256 . S
O226 Tb183 2.308 . S
O226 C246 1.266 . S
O227 Tb172 2.393 . S
O227 C246 1.248 . S
C228 O217 1.264 . S
C228 O218 1.243 . S
C229 C232 1.399 . S
C229 C234 1.383 . S
C229 C236 1.496 . S
C230 C231 1.399 . S
C230 C234 1.389 . S
C231 C230 1.399 . S
C231 C233 1.380 . S
C231 H248 0.929 . S
C232 C229 1.399 . S
C232 C233 1.392 . S
C232 H249 0.929 . S
C233 C231 1.380 . S
C233 C232 1.392 . S
C233 H250 0.929 . S
C234 C229 1.383 . S
C234 C230 1.389 . S
C234 H251 0.931 . S
C235 O220 1.266 . S
C235 O221 1.248 . S
C236 Tb172 2.802 . S
C236 O216 1.264 . S
C236 O219 1.256 . S
C236 C229 1.496 . S
C237 C204 1.448 . S
C237 H214 0.930 . S
C237 C238 1.328 . S
C238 C209 1.427 . S
C238 H215 0.929 . S
C238 C237 1.328 . S
C239 O223 1.264 . S
C239 O224 1.243 . S
C240 C243 1.399 . S
C240 C244 1.383 . S
C240 C247 1.496 . S
C241 C242 1.399 . S
C241 C244 1.389 . S
C242 C241 1.399 . S
C242 C245 1.380 . S
C242 H252 0.929 . S
C243 C240 1.399 . S
C243 C245 1.392 . S
C243 H253 0.929 . S
C244 C240 1.383 . S
C244 C241 1.389 . S
C244 H254 0.931 . S
C245 C242 1.380 . S
C245 C243 1.392 . S
C245 H255 0.929 . S
C246 O226 1.266 . S
C246 O227 1.248 . S
C247 Tb183 2.802 . S
C247 O222 1.264 . S
C247 O225 1.256 . S
C247 C240 1.496 . S
H248 C231 0.929 . S
H249 C232 0.929 . S
H250 C233 0.929 . S
H251 C234 0.931 . S
H252 C242 0.929 . S
H253 C243 0.929 . S
H254 C244 0.931 . S
H255 C245 0.929 . S
Tb256 N285 2.617 . S
Tb256 N291 2.572 . S
Tb256 O300 2.465 . S
Tb256 O301 2.387 . S
Tb256 O303 2.428 . S
Tb256 O304 2.301 1_455 S
Tb256 O308 2.349 1_455 S
Tb256 O311 2.393 . S
Tb256 C320 2.802 . S
C257 N258 1.379 . S
C257 C260 1.416 . S
C257 C264 1.424 . S
N258 C257 1.379 . S
N258 C261 1.334 . S
N258 Tb267 2.617 . S
C259 C261 1.390 . S
C259 C262 1.339 . S
C259 H279 0.930 . S
C260 C257 1.416 . S
C260 C262 1.416 . S
C260 C266 1.448 . S
C261 N258 1.334 . S
C261 C259 1.390 . S
C261 H272 0.930 . S
C262 C259 1.339 . S
C262 C260 1.416 . S
C262 H283 0.930 . S
C263 C264 1.413 . S
C263 C265 1.427 . S
C263 C269 1.416 . S
C264 C257 1.424 . S
C264 C263 1.413 . S
C264 N268 1.361 . S
C265 C263 1.427 . S
C265 C266 1.328 . S
C265 H280 0.929 . S
C266 C260 1.448 . S
C266 C265 1.328 . S
C266 H281 0.930 . S
Tb267 N258 2.617 . S
Tb267 N268 2.572 . S
Tb267 O302 2.349 1_655 S
Tb267 O305 2.393 . S
Tb267 O306 2.465 . S
Tb267 O307 2.387 . S
Tb267 O309 2.428 . S
Tb267 O310 2.308 1_655 S
Tb267 C331 2.802 . S
N268 C264 1.361 . S
N268 Tb267 2.572 . S
N268 C270 1.340 . S
C269 C263 1.416 . S
C269 C271 1.332 . S
C269 H277 0.931 . S
C270 N268 1.340 . S
C270 C271 1.407 . S
C270 H276 0.930 . S
C271 C269 1.332 . S
C271 C270 1.407 . S
C271 H273 0.929 . S
H272 C261 0.930 . S
H273 C271 0.929 . S
H274 C289 0.930 . S
H275 C296 0.929 . S
H276 C270 0.930 . S
H277 C269 0.931 . S
H278 C292 0.930 . S
H279 C259 0.930 . S
H280 C265 0.929 . S
H281 C266 0.930 . S
H282 C287 0.930 . S
H283 C262 0.930 . S
H284 C295 0.931 . S
N285 Tb256 2.617 . S
N285 C286 1.379 . S
N285 C289 1.334 . S
C286 N285 1.379 . S
C286 C288 1.416 . S
C286 C294 1.424 . S
C287 H282 0.930 . S
C287 C289 1.390 . S
C287 C290 1.339 . S
C288 C286 1.416 . S
C288 C290 1.416 . S
C288 C321 1.448 . S
C289 H274 0.930 . S
C289 N285 1.334 . S
C289 C287 1.390 . S
C290 C287 1.339 . S
C290 C288 1.416 . S
C290 H297 0.930 . S
N291 Tb256 2.572 . S
N291 C292 1.340 1_565 S
N291 C294 1.361 . S
C292 H278 0.930 . S
C292 N291 1.340 1_545 S
C292 C296 1.407 . S
C293 C294 1.413 1_545 S
C293 C295 1.416 . S
C293 C322 1.427 . S
C294 C286 1.424 . S
C294 N291 1.361 . S
C294 C293 1.413 1_565 S
C295 H284 0.931 . S
C295 C293 1.416 . S
C295 C296 1.332 . S
C296 H275 0.929 . S
C296 C292 1.407 . S
C296 C295 1.332 . S
H297 C290 0.930 . S
H298 C321 0.930 . S
H299 C322 0.929 . S
O300 Tb256 2.465 . S
O300 C320 1.264 . S
O301 Tb256 2.387 . S
O301 C312 1.264 . S
O302 Tb267 2.349 1_455 S
O302 C312 1.243 . S
O303 Tb256 2.428 . S
O303 C320 1.256 . S
O304 Tb256 2.301 1_655 S
O304 C319 1.274 . S
O305 Tb267 2.393 . S
O305 C319 1.248 . S
O306 Tb267 2.465 . S
O306 C331 1.264 . S
O307 Tb267 2.387 . S
O307 C323 1.264 . S
O308 Tb256 2.349 1_655 S
O308 C323 1.243 . S
O309 Tb267 2.428 . S
O309 C331 1.256 . S
O310 Tb267 2.308 1_455 S
O310 C330 1.266 . S
O311 Tb256 2.393 . S
O311 C330 1.248 . S
C312 O301 1.264 . S
C312 O302 1.243 . S
C313 C316 1.399 . S
C313 C318 1.383 . S
C313 C320 1.496 . S
C314 C315 1.399 . S
C314 C318 1.389 . S
C315 C314 1.399 . S
C315 C317 1.380 . S
C315 H332 0.929 . S
C316 C313 1.399 . S
C316 C317 1.392 . S
C316 H333 0.929 . S
C317 C315 1.380 . S
C317 C316 1.392 . S
C317 H334 0.929 . S
C318 C313 1.383 . S
C318 C314 1.389 . S
C318 H335 0.931 . S
C319 O304 1.274 . S
C319 O305 1.248 . S
C320 Tb256 2.802 . S
C320 O300 1.264 . S
C320 O303 1.256 . S
C320 C313 1.496 . S
C321 C288 1.448 . S
C321 H298 0.930 . S
C321 C322 1.328 1_565 S
C322 C293 1.427 . S
C322 H299 0.929 . S
C322 C321 1.328 1_545 S
C323 O307 1.264 . S
C323 O308 1.243 . S
C324 C327 1.399 . S
C324 C328 1.383 . S
C324 C331 1.496 . S
C325 C326 1.399 . S
C325 C328 1.389 . S
C326 C325 1.399 . S
C326 C329 1.380 . S
C326 H336 0.929 . S
C327 C324 1.399 . S
C327 C329 1.392 . S
C327 H337 0.929 . S
C328 C324 1.383 . S
C328 C325 1.389 . S
C328 H338 0.931 . S
C329 C326 1.380 . S
C329 C327 1.392 . S
C329 H339 0.929 . S
C330 O310 1.266 . S
C330 O311 1.248 . S
C331 Tb267 2.802 . S
C331 O306 1.264 . S
C331 O309 1.256 . S
C331 C324 1.496 . S
H332 C315 0.929 . S
H333 C316 0.929 . S
H334 C317 0.929 . S
H335 C318 0.931 . S
H336 C326 0.929 . S
H337 C327 0.929 . S
H338 C328 0.931 . S
H339 C329 0.929 . S
Tb340 N369 2.617 . S
Tb340 N375 2.572 . S
Tb340 O384 2.465 . S
Tb340 O385 2.387 . S
Tb340 O387 2.428 . S
Tb340 O388 2.308 . S
Tb340 O392 2.349 . S
Tb340 O395 2.393 . S
Tb340 C404 2.802 . S
C341 N342 1.379 . S
C341 C344 1.416 . S
C341 C348 1.424 . S
N342 C341 1.379 . S
N342 C345 1.334 . S
N342 Tb351 2.617 . S
C343 C345 1.390 . S
C343 C346 1.339 . S
C343 H363 0.930 . S
C344 C341 1.416 . S
C344 C346 1.416 . S
C344 C350 1.448 . S
C345 N342 1.334 . S
C345 C343 1.390 . S
C345 H356 0.930 . S
C346 C343 1.339 . S
C346 C344 1.416 . S
C346 H367 0.930 . S
C347 C348 1.413 . S
C347 C349 1.427 . S
C347 C353 1.416 . S
C348 C341 1.424 . S
C348 C347 1.413 . S
C348 N352 1.361 . S
C349 C347 1.427 . S
C349 C350 1.328 . S
C349 H364 0.929 . S
C350 C344 1.448 . S
C350 C349 1.328 . S
C350 H365 0.930 . S
Tb351 N342 2.617 . S
Tb351 N352 2.572 . S
Tb351 O386 2.349 . S
Tb351 O389 2.393 . S
Tb351 O390 2.465 . S
Tb351 O391 2.387 . S
Tb351 O393 2.428 . S
Tb351 O394 2.308 . S
Tb351 C415 2.802 . S
N352 C348 1.361 . S
N352 Tb351 2.572 . S
N352 C354 1.340 . S
C353 C347 1.416 . S
C353 C355 1.332 . S
C353 H361 0.931 . S
C354 N352 1.340 . S
C354 C355 1.407 . S
C354 H360 0.930 . S
C355 C353 1.332 . S
C355 C354 1.407 . S
C355 H357 0.929 . S
H356 C345 0.930 . S
H357 C355 0.929 . S
H358 C373 0.930 . S
H359 C380 0.929 . S
H360 C354 0.930 . S
H361 C353 0.931 . S
H362 C376 0.930 . S
H363 C343 0.930 . S
H364 C349 0.929 . S
H365 C350 0.930 . S
H366 C371 0.930 . S
H367 C346 0.930 . S
H368 C379 0.931 . S
N369 Tb340 2.617 . S
N369 C370 1.379 . S
N369 C373 1.334 . S
C370 N369 1.379 . S
C370 C372 1.416 . S
C370 C378 1.424 . S
C371 H366 0.930 . S
C371 C373 1.390 . S
C371 C374 1.339 . S
C372 C370 1.416 . S
C372 C374 1.416 . S
C372 C405 1.448 . S
C373 H358 0.930 . S
C373 N369 1.334 . S
C373 C371 1.390 . S
C374 C371 1.339 . S
C374 C372 1.416 . S
C374 H381 0.930 . S
N375 Tb340 2.572 . S
N375 C376 1.340 . S
N375 C378 1.361 . S
C376 H362 0.930 . S
C376 N375 1.340 . S
C376 C380 1.407 . S
C377 C378 1.413 . S
C377 C379 1.416 . S
C377 C406 1.427 . S
C378 C370 1.424 . S
C378 N375 1.361 . S
C378 C377 1.413 . S
C379 H368 0.931 . S
C379 C377 1.416 . S
C379 C380 1.332 . S
C380 H359 0.929 . S
C380 C376 1.407 . S
C380 C379 1.332 . S
H381 C374 0.930 . S
H382 C405 0.930 . S
H383 C406 0.929 . S
O384 Tb340 2.465 . S
O384 C404 1.264 . S
O385 Tb340 2.387 . S
O385 C396 1.264 . S
O386 Tb351 2.349 . S
O386 C396 1.243 . S
O387 Tb340 2.428 . S
O387 C404 1.256 . S
O388 Tb340 2.308 . S
O388 C403 1.266 . S
O389 Tb351 2.393 . S
O389 C403 1.248 . S
O390 Tb351 2.465 . S
O390 C415 1.264 . S
O391 Tb351 2.387 . S
O391 C407 1.264 . S
O392 Tb340 2.349 . S
O392 C407 1.243 . S
O393 Tb351 2.428 . S
O393 C415 1.256 . S
O394 Tb351 2.308 . S
O394 C414 1.266 . S
O395 Tb340 2.393 . S
O395 C414 1.248 . S
C396 O385 1.264 . S
C396 O386 1.243 . S
C397 C400 1.399 . S
C397 C402 1.383 . S
C397 C404 1.496 . S
C398 C399 1.399 . S
C398 C402 1.389 . S
C399 C398 1.399 . S
C399 C401 1.380 . S
C399 H416 0.929 . S
C400 C397 1.399 . S
C400 C401 1.392 . S
C400 H417 0.929 . S
C401 C399 1.380 . S
C401 C400 1.392 . S
C401 H418 0.929 . S
C402 C397 1.383 . S
C402 C398 1.389 . S
C402 H419 0.931 . S
C403 O388 1.266 . S
C403 O389 1.248 . S
C404 Tb340 2.802 . S
C404 O384 1.264 . S
C404 O387 1.256 . S
C404 C397 1.496 . S
C405 C372 1.448 . S
C405 H382 0.930 . S
C405 C406 1.328 . S
C406 C377 1.427 . S
C406 H383 0.929 . S
C406 C405 1.328 . S
C407 O391 1.264 . S
C407 O392 1.243 . S
C408 C411 1.399 . S
C408 C412 1.383 . S
C408 C415 1.496 . S
C409 C410 1.399 . S
C409 C412 1.389 . S
C410 C409 1.399 . S
C410 C413 1.380 . S
C410 H420 0.929 . S
C411 C408 1.399 . S
C411 C413 1.392 . S
C411 H421 0.929 . S
C412 C408 1.383 . S
C412 C409 1.389 . S
C412 H422 0.931 . S
C413 C410 1.380 . S
C413 C411 1.392 . S
C413 H423 0.929 . S
C414 O394 1.266 . S
C414 O395 1.248 . S
C415 Tb351 2.802 . S
C415 O390 1.264 . S
C415 O393 1.256 . S
C415 C408 1.496 . S
H416 C399 0.929 . S
H417 C400 0.929 . S
H418 C401 0.929 . S
H419 C402 0.931 . S
H420 C410 0.929 . S
H421 C411 0.929 . S
H422 C412 0.931 . S
H423 C413 0.929 . S
C424 C425 1.363 . S
C424 C430 1.379 . S
C424 N432 1.356 . S
C425 C424 1.363 . S
C425 C431 1.363 . S
C426 C427 1.363 . S
C426 C431 1.379 . S
C426 N433 1.356 . S
C427 C426 1.363 . S
C427 C430 1.363 . S
N428 C430 1.356 1_545 S
N428 H440 0.984 . S
N428 H441 0.985 . S
N429 C431 1.356 . S
N429 H434 0.984 . S
N429 H435 0.985 . S
C430 C424 1.379 . S
C430 C427 1.363 . S
C430 N428 1.356 1_565 S
C431 C425 1.363 . S
C431 C426 1.379 . S
C431 N429 1.356 . S
N432 C424 1.356 . S
N432 H438 0.984 . S
N432 H439 0.984 . S
N433 C426 1.356 . S
N433 H436 0.984 1_565 S
N433 H437 0.985 . S
H434 N429 0.984 . S
H435 N429 0.985 . S
H436 N433 0.984 1_545 S
H437 N433 0.985 . S
H438 N432 0.984 . S
H439 N432 0.984 . S
H440 N428 0.984 . S
H441 N428 0.985 . S
C442 C443 1.363 . S
C442 C448 1.379 . S
C442 N450 1.356 . S
C443 C442 1.363 . S
C443 C449 1.363 . S
C444 C445 1.363 . S
C444 C449 1.379 . S
C444 N451 1.356 . S
C445 C444 1.363 . S
C445 C448 1.363 . S
N446 C448 1.356 . S
N446 H458 0.984 . S
N446 H459 0.985 . S
N447 C449 1.356 . S
N447 H452 0.984 . S
N447 H453 0.985 . S
C448 C442 1.379 . S
C448 C445 1.363 . S
C448 N446 1.356 . S
C449 C443 1.363 . S
C449 C444 1.379 . S
C449 N447 1.356 . S
N450 C442 1.356 . S
N450 H456 0.984 . S
N450 H457 0.984 . S
N451 C444 1.356 . S
N451 H454 0.984 . S
N451 H455 0.985 . S
H452 N447 0.984 . S
H453 N447 0.985 . S
H454 N451 0.984 . S
H455 N451 0.985 . S
H456 N450 0.984 . S
H457 N450 0.984 . S
H458 N446 0.984 . S
H459 N446 0.985 . S
C460 C461 1.363 . S
C460 C466 1.379 . S
C460 N468 1.356 . S
C461 C460 1.363 . S
C461 C467 1.363 . S
C462 C463 1.363 . S
C462 C467 1.379 . S
C462 N469 1.356 . S
C463 C462 1.363 . S
C463 C466 1.363 . S
N464 C466 1.356 . S
N464 H476 0.984 . S
N464 H477 0.985 . S
N465 C467 1.356 . S
N465 H470 0.984 . S
N465 H471 0.985 . S
C466 C460 1.379 . S
C466 C463 1.363 . S
C466 N464 1.356 . S
C467 C461 1.363 . S
C467 C462 1.379 . S
C467 N465 1.356 . S
N468 C460 1.356 . S
N468 H474 0.984 . S
N468 H475 0.984 . S
N469 C462 1.356 . S
N469 H472 0.984 . S
N469 H473 0.985 . S
H470 N465 0.984 . S
H471 N465 0.985 . S
H472 N469 0.984 . S
H473 N469 0.985 . S
H474 N468 0.984 . S
H475 N468 0.984 . S
H476 N464 0.984 . S
H477 N464 0.985 . S
C478 C479 1.363 . S
C478 C484 1.379 1_565 S
C478 N486 1.356 . S
C479 C478 1.363 . S
C479 C485 1.363 . S
C480 C481 1.363 1_565 S
C480 C485 1.379 . S
C480 N487 1.356 . S
C481 C480 1.363 1_545 S
C481 C484 1.363 . S
N482 C484 1.356 . S
N482 H494 0.984 . S
N482 H495 0.985 . S
N483 C485 1.356 . S
N483 H488 0.984 . S
N483 H489 0.985 . S
C484 C478 1.379 1_545 S
C484 C481 1.363 . S
C484 N482 1.356 . S
C485 C479 1.363 . S
C485 C480 1.379 . S
C485 N483 1.356 . S
N486 C478 1.356 . S
N486 H492 0.984 . S
N486 H493 0.984 . S
N487 C480 1.356 . S
N487 H490 0.984 . S
N487 H491 0.985 . S
H488 N483 0.984 . S
H489 N483 0.985 . S
H490 N487 0.984 . S
H491 N487 0.985 . S
H492 N486 0.984 . S
H493 N486 0.984 . S
H494 N482 0.984 . S
H495 N482 0.985 . S
C496 C497 1.363 . S
C496 C502 1.379 1_545 S
C496 N504 1.356 . S
C497 C496 1.363 . S
C497 C503 1.363 . S
C498 C499 1.361 1_545 S
C498 C503 1.379 . S
C498 N505 1.356 . S
C499 C498 1.361 1_565 S
C499 C502 1.364 . S
N500 C502 1.356 . S
N500 H512 0.984 . S
N500 H513 0.985 . S
N501 C503 1.356 . S
N501 H506 0.984 . S
N501 H507 0.985 . S
C502 C496 1.379 1_565 S
C502 C499 1.364 . S
C502 N500 1.356 . S
C503 C497 1.363 . S
C503 C498 1.379 . S
C503 N501 1.356 . S
N504 C496 1.356 . S
N504 H510 0.984 1_545 S
N504 H511 0.984 . S
N505 C498 1.356 . S
N505 H508 0.984 . S
N505 H509 0.985 . S
H506 N501 0.984 . S
H507 N501 0.985 . S
H508 N505 0.984 . S
H509 N505 0.985 . S
H510 N504 0.984 1_565 S
H511 N504 0.984 . S
H512 N500 0.984 . S
H513 N500 0.985 . S
C514 C515 1.363 . S
C514 C520 1.379 . S
C514 N522 1.356 . S
C515 C514 1.363 . S
C515 C521 1.363 . S
C516 C517 1.363 . S
C516 C521 1.379 . S
C516 N523 1.356 . S
C517 C516 1.363 . S
C517 C520 1.363 . S
N518 C520 1.356 . S
N518 H530 0.984 . S
N518 H531 0.985 . S
N519 C521 1.356 . S
N519 H524 0.984 . S
N519 H525 0.985 . S
C520 C514 1.379 . S
C520 C517 1.363 . S
C520 N518 1.356 . S
C521 C515 1.363 . S
C521 C516 1.379 . S
C521 N519 1.356 . S
N522 C514 1.356 . S
N522 H528 0.984 . S
N522 H529 0.984 . S
N523 C516 1.356 . S
N523 H526 0.984 . S
N523 H527 0.985 . S
H524 N519 0.984 . S
H525 N519 0.985 . S
H526 N523 0.984 . S
H527 N523 0.985 . S
H528 N522 0.984 . S
H529 N522 0.984 . S
H530 N518 0.984 . S
H531 N518 0.985 . S
C532 C533 1.363 . S
C532 C538 1.379 . S
C532 N540 1.356 . S
C533 C532 1.363 . S
C533 C539 1.363 . S
C534 C535 1.363 . S
C534 C539 1.379 . S
C534 N541 1.356 . S
C535 C534 1.363 . S
C535 C538 1.363 . S
N536 C538 1.356 . S
N536 H548 0.984 . S
N536 H549 0.985 . S
N537 C539 1.356 . S
N537 H542 0.984 . S
N537 H543 0.985 . S
C538 C532 1.379 . S
C538 C535 1.363 . S
C538 N536 1.356 . S
C539 C533 1.363 . S
C539 C534 1.379 . S
C539 N537 1.356 . S
N540 C532 1.356 . S
N540 H546 0.984 . S
N540 H547 0.984 . S
N541 C534 1.356 . S
N541 H544 0.984 . S
N541 H545 0.985 . S
H542 N537 0.984 . S
H543 N537 0.985 . S
H544 N541 0.984 . S
H545 N541 0.985 . S
H546 N540 0.984 . S
H547 N540 0.984 . S
H548 N536 0.984 . S
H549 N536 0.985 . S
C550 C551 1.363 . S
C550 C556 1.379 1_545 S
C550 N558 1.356 . S
C551 C550 1.363 . S
C551 C557 1.363 . S
C552 C553 1.363 1_545 S
C552 C557 1.379 . S
C552 N559 1.356 . S
C553 C552 1.363 1_565 S
C553 C556 1.363 . S
N554 C556 1.356 . S
N554 H566 0.984 . S
N554 H567 0.985 . S
N555 C557 1.356 . S
N555 H560 0.984 . S
N555 H561 0.985 . S
C556 C550 1.379 1_565 S
C556 C553 1.363 . S
C556 N554 1.356 . S
C557 C551 1.363 . S
C557 C552 1.379 . S
C557 N555 1.356 . S
N558 C550 1.356 . S
N558 H564 0.984 1_545 S
N558 H565 0.984 . S
N559 C552 1.356 . S
N559 H562 0.984 . S
N559 H563 0.985 . S
H560 N555 0.984 . S
H561 N555 0.985 . S
H562 N559 0.984 . S
H563 N559 0.985 . S
H564 N558 0.984 1_565 S
H565 N558 0.984 . S
H566 N554 0.984 . S
H567 N554 0.985 . S
C568 C569 1.363 . S
C568 C574 1.379 1_556 S
C568 N576 1.356 . S
C569 C568 1.363 . S
C569 C575 1.363 . S
C570 C571 1.363 . S
C570 C575 1.379 1_554 S
C570 N577 1.356 . S
C571 C570 1.363 . S
C571 C574 1.363 . S
N572 C574 1.356 . S
N572 H584 0.984 . S
N572 H585 0.985 . S
N573 C575 1.356 . S
N573 H578 0.984 . S
N573 H579 0.985 . S
C574 C568 1.379 1_554 S
C574 C571 1.363 . S
C574 N572 1.356 . S
C575 C569 1.363 . S
C575 C570 1.379 1_556 S
C575 N573 1.356 . S
N576 C568 1.356 . S
N576 H582 0.984 . S
N576 H583 0.984 . S
N577 C570 1.356 . S
N577 H580 0.984 . S
N577 H581 0.985 . S
H578 N573 0.984 . S
H579 N573 0.985 . S
H580 N577 0.984 . S
H581 N577 0.985 . S
H582 N576 0.984 . S
H583 N576 0.984 . S
H584 N572 0.984 . S
H585 N572 0.985 . S
C586 C587 1.363 . S
C586 C592 1.379 . S
C586 N594 1.356 . S
C587 C586 1.363 . S
C587 C593 1.363 . S
C588 C589 1.363 . S
C588 C593 1.379 . S
C588 N595 1.356 . S
C589 C588 1.363 . S
C589 C592 1.363 . S
N590 C592 1.356 . S
N590 H602 0.984 . S
N590 H603 0.985 . S
N591 C593 1.356 . S
N591 H596 0.984 . S
N591 H597 0.985 . S
C592 C586 1.379 . S
C592 C589 1.363 . S
C592 N590 1.356 . S
C593 C587 1.363 . S
C593 C588 1.379 . S
C593 N591 1.356 . S
N594 C586 1.356 . S
N594 H600 0.984 . S
N594 H601 0.984 . S
N595 C588 1.356 . S
N595 H598 0.984 . S
N595 H599 0.985 . S
H596 N591 0.984 . S
H597 N591 0.985 . S
H598 N595 0.984 . S
H599 N595 0.985 . S
H600 N594 0.984 . S
H601 N594 0.984 . S
H602 N590 0.984 . S
H603 N590 0.985 . S
C604 C605 1.363 . S
C604 C610 1.379 1_554 S
C604 N612 1.356 . S
C605 C604 1.363 . S
C605 C611 1.363 . S
C606 C607 1.363 . S
C606 C611 1.379 1_556 S
C606 N613 1.356 . S
C607 C606 1.363 . S
C607 C610 1.363 . S
N608 C610 1.356 . S
N608 H620 0.984 . S
N608 H621 0.985 . S
N609 C611 1.356 . S
N609 H614 0.984 . S
N609 H615 0.985 . S
C610 C604 1.379 1_556 S
C610 C607 1.363 . S
C610 N608 1.356 . S
C611 C605 1.363 . S
C611 C606 1.379 1_554 S
C611 N609 1.356 . S
N612 C604 1.356 . S
N612 H618 0.984 . S
N612 H619 0.984 . S
N613 C606 1.356 . S
N613 H616 0.984 . S
N613 H617 1.002 . S
H614 N609 0.984 . S
H615 N609 0.985 . S
H616 N613 0.984 . S
H617 N613 1.002 . S
H618 N612 0.984 . S
H619 N612 0.984 . S
H620 N608 0.984 . S
H621 N608 0.985 . S
C622 C623 1.363 . S
C622 C628 1.379 . S
C622 N630 1.356 . S
C623 C622 1.363 . S
C623 C629 1.363 . S
C624 C625 1.363 . S
C624 C629 1.379 . S
C624 N631 1.356 . S
C625 C624 1.363 . S
C625 C628 1.363 . S
N626 C628 1.356 . S
N626 H638 0.984 . S
N626 H639 0.985 . S
N627 C629 1.356 . S
N627 H632 0.984 . S
N627 H633 0.985 . S
C628 C622 1.379 . S
C628 C625 1.363 . S
C628 N626 1.356 . S
C629 C623 1.363 . S
C629 C624 1.379 . S
C629 N627 1.356 . S
N630 C622 1.356 . S
N630 H636 0.984 . S
N630 H637 0.984 . S
N631 C624 1.356 . S
N631 H634 0.984 . S
N631 H635 0.985 . S
H632 N627 0.984 . S
H633 N627 0.985 . S
H634 N631 0.984 . S
H635 N631 0.985 . S
H636 N630 0.984 . S
H637 N630 0.984 . S
H638 N626 0.984 . S
H639 N626 0.985 . S
C640 C641 1.363 . S
C640 C646 1.379 1_554 S
C640 N648 1.356 . S
C641 C640 1.363 . S
C641 C647 1.363 . S
C642 C643 1.363 . S
C642 C647 1.379 1_556 S
C642 N649 1.356 . S
C643 C642 1.363 . S
C643 C646 1.363 . S
N644 C646 1.356 . S
N644 H656 0.984 . S
N644 H657 0.985 . S
N645 C647 1.356 . S
N645 H650 0.984 . S
N645 H651 0.985 . S
C646 C640 1.379 1_556 S
C646 C643 1.363 . S
C646 N644 1.356 . S
C647 C641 1.363 . S
C647 C642 1.379 1_554 S
C647 N645 1.356 . S
N648 C640 1.356 . S
N648 H654 0.984 . S
N648 H655 0.984 . S
N649 C642 1.356 . S
N649 H652 0.984 . S
N649 H653 0.985 . S
H650 N645 0.984 . S
H651 N645 0.985 . S
H652 N649 0.984 . S
H653 N649 0.985 . S
H654 N648 0.984 . S
H655 N648 0.984 . S
H656 N644 0.984 . S
H657 N644 0.985 . S
C658 C659 1.363 . S
C658 C664 1.379 . S
C658 N666 1.356 . S
C659 C658 1.363 . S
C659 C665 1.363 . S
C660 C661 1.363 . S
C660 C665 1.379 . S
C660 N667 1.356 . S
C661 C660 1.363 . S
C661 C664 1.363 . S
N662 C664 1.356 . S
N662 H674 0.984 . S
N662 H675 0.985 . S
N663 C665 1.356 . S
N663 H668 0.984 . S
N663 H669 0.985 . S
C664 C658 1.379 . S
C664 C661 1.363 . S
C664 N662 1.356 . S
C665 C659 1.363 . S
C665 C660 1.379 . S
C665 N663 1.356 . S
N666 C658 1.356 . S
N666 H672 0.984 . S
N666 H673 0.984 . S
N667 C660 1.356 . S
N667 H670 0.984 . S
N667 H671 0.985 . S
H668 N663 0.984 . S
H669 N663 0.985 . S
H670 N667 0.984 . S
H671 N667 0.985 . S
H672 N666 0.984 . S
H673 N666 0.984 . S
H674 N662 0.984 . S
H675 N662 0.985 . S
C676 C677 1.363 . S
C676 C682 1.379 1_556 S
C676 N684 1.356 . S
C677 C676 1.363 . S
C677 C683 1.363 . S
C678 C679 1.363 . S
C678 C683 1.379 1_554 S
C678 N685 1.356 . S
C679 C678 1.363 . S
C679 C682 1.363 . S
N680 C682 1.356 . S
N680 H692 0.984 . S
N680 H693 0.985 . S
N681 C683 1.356 . S
N681 H686 0.984 . S
N681 H687 0.985 . S
C682 C676 1.379 1_554 S
C682 C679 1.363 . S
C682 N680 1.356 . S
C683 C677 1.363 . S
C683 C678 1.379 1_556 S
C683 N681 1.356 . S
N684 C676 1.356 . S
N684 H690 0.984 . S
N684 H691 0.984 . S
N685 C678 1.356 . S
N685 H688 0.984 . S
N685 H689 0.985 . S
H686 N681 0.984 . S
H687 N681 0.985 . S
H688 N685 0.984 . S
H689 N685 0.985 . S
H690 N684 0.984 . S
H691 N684 0.984 . S
H692 N680 0.984 . S
H693 N680 0.985 . S
C694 C695 1.363 . S
C694 C700 1.379 . S
C694 N702 1.356 . S
C695 C694 1.363 . S
C695 C701 1.363 . S
C696 C697 1.363 . S
C696 C701 1.379 . S
C696 N703 1.356 . S
C697 C696 1.363 . S
C697 C700 1.363 . S
N698 C700 1.356 . S
N698 H710 0.984 . S
N698 H711 0.985 . S
N699 C701 1.356 . S
N699 H704 0.984 . S
N699 H705 0.985 . S
C700 C694 1.379 . S
C700 C697 1.363 . S
C700 N698 1.356 . S
C701 C695 1.363 . S
C701 C696 1.379 . S
C701 N699 1.356 . S
N702 C694 1.356 . S
N702 H708 0.984 . S
N702 H709 0.984 . S
N703 C696 1.356 . S
N703 H706 0.984 . S
N703 H707 0.985 . S
H704 N699 0.984 . S
H705 N699 0.985 . S
H706 N703 0.984 . S
H707 N703 0.985 . S
H708 N702 0.984 . S
H709 N702 0.984 . S
H710 N698 0.984 . S
H711 N698 0.985 . S
C712 C713 1.363 . S
C712 C718 1.379 . S
C712 N720 1.356 . S
C713 C712 1.363 . S
C713 C719 1.363 . S
C714 C715 1.363 . S
C714 C719 1.379 . S
C714 N721 1.356 . S
C715 C714 1.363 . S
C715 C718 1.363 . S
N716 C718 1.356 . S
N716 H728 0.984 . S
N716 H729 0.985 . S
N717 C719 1.356 . S
N717 H722 0.984 . S
N717 H723 0.985 . S
C718 C712 1.379 . S
C718 C715 1.363 . S
C718 N716 1.356 . S
C719 C713 1.363 . S
C719 C714 1.379 . S
C719 N717 1.356 . S
N720 C712 1.356 . S
N720 H726 0.984 . S
N720 H727 0.984 . S
N721 C714 1.356 . S
N721 H724 0.984 . S
N721 H725 0.985 . S
H722 N717 0.984 . S
H723 N717 0.985 . S
H724 N721 0.984 . S
H725 N721 0.985 . S
H726 N720 0.984 . S
H727 N720 0.984 . S
H728 N716 0.984 . S
H729 N716 0.985 . S
C730 C731 1.363 . S
C730 C736 1.379 . S
C730 N738 1.356 . S
C731 C730 1.363 . S
C731 C737 1.363 . S
C732 C733 1.363 . S
C732 C737 1.379 . S
C732 N739 1.356 . S
C733 C732 1.363 . S
C733 C736 1.363 . S
N734 C736 1.356 . S
N734 H746 0.984 . S
N734 H747 0.985 . S
N735 C737 1.356 . S
N735 H740 0.984 . S
N735 H741 0.985 . S
C736 C730 1.379 . S
C736 C733 1.363 . S
C736 N734 1.356 . S
C737 C731 1.363 . S
C737 C732 1.379 . S
C737 N735 1.356 . S
N738 C730 1.356 . S
N738 H744 0.984 . S
N738 H745 0.984 . S
N739 C732 1.356 . S
N739 H742 0.984 . S
N739 H743 0.985 . S
H740 N735 0.984 . S
H741 N735 0.985 . S
H742 N739 0.984 . S
H743 N739 0.985 . S
H744 N738 0.984 . S
H745 N738 0.984 . S
H746 N734 0.984 . S
H747 N734 0.985 . S
C748 C749 1.363 . S
C748 C754 1.379 . S
C748 N756 1.356 . S
C749 C748 1.363 . S
C749 C755 1.363 . S
C750 C751 1.363 . S
C750 C755 1.379 . S
C750 N757 1.356 . S
C751 C750 1.363 . S
C751 C754 1.363 . S
N752 C754 1.356 . S
N752 H764 0.984 . S
N752 H765 0.985 . S
N753 C755 1.356 . S
N753 H758 0.984 . S
N753 H759 0.985 . S
C754 C748 1.379 . S
C754 C751 1.363 . S
C754 N752 1.356 . S
C755 C749 1.363 . S
C755 C750 1.379 . S
C755 N753 1.356 . S
N756 C748 1.356 . S
N756 H762 0.984 . S
N756 H763 0.984 . S
N757 C750 1.356 . S
N757 H760 0.984 . S
N757 H761 0.985 . S
H758 N753 0.984 . S
H759 N753 0.985 . S
H760 N757 0.984 . S
H761 N757 0.985 . S
H762 N756 0.984 . S
H763 N756 0.984 . S
H764 N752 0.984 . S
H765 N752 0.985 . S
C766 C767 1.363 . S
C766 C772 1.379 . S
C766 N774 1.356 . S
C767 C766 1.363 . S
C767 C773 1.363 . S
C768 C769 1.363 . S
C768 C773 1.379 . S
C768 N775 1.356 . S
C769 C768 1.363 . S
C769 C772 1.363 . S
N770 C772 1.356 . S
N770 H782 0.984 . S
N770 H783 0.985 . S
N771 C773 1.356 . S
N771 H776 0.984 . S
N771 H777 0.985 . S
C772 C766 1.379 . S
C772 C769 1.363 . S
C772 N770 1.356 . S
C773 C767 1.363 . S
C773 C768 1.379 . S
C773 N771 1.356 . S
N774 C766 1.356 . S
N774 H780 0.984 . S
N774 H781 0.984 . S
N775 C768 1.356 . S
N775 H778 0.984 . S
N775 H779 0.985 1_655 S
H776 N771 0.984 . S
H777 N771 0.985 . S
H778 N775 0.984 . S
H779 N775 0.985 1_455 S
H780 N774 0.984 . S
H781 N774 0.984 . S
H782 N770 0.984 . S
H783 N770 0.985 . S
C784 C785 1.363 . S
C784 C790 1.379 . S
C784 N792 1.356 . S
C785 C784 1.363 . S
C785 C791 1.363 . S
C786 C787 1.363 . S
C786 C791 1.379 . S
C786 N793 1.356 . S
C787 C786 1.363 . S
C787 C790 1.363 . S
N788 C790 1.356 . S
N788 H800 0.984 . S
N788 H801 0.985 . S
N789 C791 1.356 . S
N789 H794 0.984 . S
N789 H795 0.985 . S
C790 C784 1.379 . S
C790 C787 1.363 . S
C790 N788 1.356 . S
C791 C785 1.363 . S
C791 C786 1.379 . S
C791 N789 1.356 . S
N792 C784 1.356 . S
N792 H798 0.984 . S
N792 H799 0.984 . S
N793 C786 1.356 . S
N793 H796 0.984 . S
N793 H797 0.985 . S
H794 N789 0.984 . S
H795 N789 0.985 . S
H796 N793 0.984 . S
H797 N793 0.985 . S
H798 N792 0.984 . S
H799 N792 0.984 . S
H800 N788 0.984 . S
H801 N788 0.985 . S
C802 C803 1.363 . S
C802 C808 1.379 . S
C802 N810 1.356 . S
C803 C802 1.363 . S
C803 C809 1.363 . S
C804 C805 1.363 . S
C804 C809 1.379 . S
C804 N811 1.356 . S
C805 C804 1.363 . S
C805 C808 1.363 . S
N806 C808 1.356 . S
N806 H818 0.984 . S
N806 H819 0.985 . S
N807 C809 1.356 . S
N807 H812 0.984 . S
N807 H813 0.985 . S
C808 C802 1.379 . S
C808 C805 1.363 . S
C808 N806 1.356 . S
C809 C803 1.363 . S
C809 C804 1.379 . S
C809 N807 1.356 . S
N810 C802 1.356 . S
N810 H816 0.984 . S
N810 H817 0.984 . S
N811 C804 1.356 . S
N811 H814 0.984 . S
N811 H815 0.985 . S
H812 N807 0.984 . S
H813 N807 0.985 . S
H814 N811 0.984 . S
H815 N811 0.985 . S
H816 N810 0.984 . S
H817 N810 0.984 . S
H818 N806 0.984 . S
H819 N806 0.985 . S
C820 C821 1.363 . S
C820 C826 1.379 . S
C820 N828 1.356 . S
C821 C820 1.363 . S
C821 C827 1.363 . S
C822 C823 1.363 . S
C822 C827 1.379 . S
C822 N829 1.356 . S
C823 C822 1.363 . S
C823 C826 1.363 . S
N824 C826 1.356 . S
N824 H836 0.984 . S
N824 H837 0.985 . S
N825 C827 1.356 . S
N825 H830 0.984 . S
N825 H831 0.985 . S
C826 C820 1.379 . S
C826 C823 1.363 . S
C826 N824 1.356 . S
C827 C821 1.363 . S
C827 C822 1.379 . S
C827 N825 1.356 . S
N828 C820 1.356 . S
N828 H834 0.984 . S
N828 H835 0.984 . S
N829 C822 1.356 . S
N829 H832 0.984 . S
N829 H833 0.985 . S
H830 N825 0.984 . S
H831 N825 0.985 . S
H832 N829 0.984 . S
H833 N829 0.985 . S
H834 N828 0.984 . S
H835 N828 0.984 . S
H836 N824 0.984 . S
H837 N824 0.985 . S
C838 C839 1.363 . S
C838 C844 1.379 . S
C838 N846 1.356 . S
C839 C838 1.363 . S
C839 C845 1.363 . S
C840 C841 1.363 . S
C840 C845 1.379 . S
C840 N847 1.356 . S
C841 C840 1.363 . S
C841 C844 1.363 . S
N842 C844 1.342 1_655 S
N842 H854 0.997 . S
N842 H855 0.987 . S
N843 C845 1.356 . S
N843 H848 0.984 . S
N843 H849 0.985 . S
C844 C838 1.379 . S
C844 C841 1.363 . S
C844 N842 1.342 1_455 S
C845 C839 1.363 . S
C845 C840 1.379 . S
C845 N843 1.356 . S
N846 C838 1.356 . S
N846 H852 0.984 . S
N846 H853 0.984 . S
N847 C840 1.356 . S
N847 H850 0.984 . S
N847 H851 0.985 . S
H848 N843 0.984 . S
H849 N843 0.985 . S
H850 N847 0.984 . S
H851 N847 0.985 . S
H852 N846 0.984 . S
H853 N846 0.984 . S
H854 N842 0.997 . S
H855 N842 0.987 . S
C425 C71 1.657 . S
C427 C162 1.644 1_565 S
C445 C246 1.635 . S
C443 C81 1.635 . S
C463 C239 1.647 . S
C461 C49 1.653 . S
C479 C59 1.634 . S
C481 C155 1.630 . S
C499 C319 1.650 . S
C497 C27 1.657 . S
C517 C403 1.679 . S
C515 C38 1.689 . S
C533 C5 1.653 . S
C535 C396 1.650 . S
C551 C16 1.685 . S
C553 C312 1.687 . S
C571 C146 1.393 . S
C569 C15 1.554 . S
C589 C230 1.412 . S
C587 C4 1.572 . S
C607 C241 1.338 . S
C605 C37 1.555 . S
C625 C157 1.345 . S
C623 C26 1.572 . S
C643 C325 1.459 . S
C641 C60 1.601 . S
C659 C48 1.623 . S
C661 C409 1.461 . S
C679 C398 1.376 . S
C677 C82 1.601 . S
C695 C70 1.622 . S
C697 C314 1.386 . S
C715 C144 1.492 . S
C713 C10 1.481 . S
C733 C228 1.529 . S
C731 C21 1.519 . S
C749 C32 1.475 . S
C751 C235 1.456 . S
C769 C151 1.492 . S
C767 C43 1.513 . S
C787 C323 1.566 . S
C785 C54 1.548 . S
C803 C65 1.528 . S
C805 C407 1.530 . S
C821 C76 1.546 . S
C823 C414 1.539 . S
C839 C87 1.522 . S
C841 C330 1.505 . S
