# Generated by pormake.
# Topology pyr, (3,6)-cn, num edge types: 1
# Building blocks:
#     Node 0, Type 0, BuildingBlock: BETDAH_clean_linker_0, # of connection points: 3
#     Node 1, Type 0, BuildingBlock: BETDAH_clean_linker_0, # of connection points: 3
#     Node 2, Type 0, BuildingBlock: BETDAH_clean_linker_0, # of connection points: 3
#     Node 3, Type 0, BuildingBlock: BETDAH_clean_linker_0, # of connection points: 3
#     Node 4, Type 0, BuildingBlock: BETDAH_clean_linker_0, # of connection points: 3
#     Node 5, Type 0, BuildingBlock: BETDAH_clean_linker_0, # of connection points: 3
#     Node 6, Type 0, BuildingBlock: BETDAH_clean_linker_0, # of connection points: 3
#     Node 7, Type 0, BuildingBlock: BETDAH_clean_linker_0, # of connection points: 3
#     Node 8, Type 1, BuildingBlock: MIDCAF_clean_sbu_0, # of connection points: 6
#     Node 9, Type 1, BuildingBlock: MIDCAF_clean_sbu_0, # of connection points: 6
#     Node 10, Type 1, BuildingBlock: MIDCAF_clean_sbu_0, # of connection points: 6
#     Node 11, Type 1, BuildingBlock: MIDCAF_clean_sbu_0, # of connection points: 6
#     Edge 12, Type (0, 1), BuildingBlock: KIFKEQ_clean_linker_1, # of connection points: 2
#     Edge 13, Type (0, 1), BuildingBlock: KIFKEQ_clean_linker_1, # of connection points: 2
#     Edge 14, Type (0, 1), BuildingBlock: KIFKEQ_clean_linker_1, # of connection points: 2
#     Edge 15, Type (0, 1), BuildingBlock: KIFKEQ_clean_linker_1, # of connection points: 2
#     Edge 16, Type (0, 1), BuildingBlock: KIFKEQ_clean_linker_1, # of connection points: 2
#     Edge 17, Type (0, 1), BuildingBlock: KIFKEQ_clean_linker_1, # of connection points: 2
#     Edge 18, Type (0, 1), BuildingBlock: KIFKEQ_clean_linker_1, # of connection points: 2
#     Edge 19, Type (0, 1), BuildingBlock: KIFKEQ_clean_linker_1, # of connection points: 2
#     Edge 20, Type (0, 1), BuildingBlock: KIFKEQ_clean_linker_1, # of connection points: 2
#     Edge 21, Type (0, 1), BuildingBlock: KIFKEQ_clean_linker_1, # of connection points: 2
#     Edge 22, Type (0, 1), BuildingBlock: KIFKEQ_clean_linker_1, # of connection points: 2
#     Edge 23, Type (0, 1), BuildingBlock: KIFKEQ_clean_linker_1, # of connection points: 2
#     Edge 24, Type (0, 1), BuildingBlock: KIFKEQ_clean_linker_1, # of connection points: 2
#     Edge 25, Type (0, 1), BuildingBlock: KIFKEQ_clean_linker_1, # of connection points: 2
#     Edge 26, Type (0, 1), BuildingBlock: KIFKEQ_clean_linker_1, # of connection points: 2
#     Edge 27, Type (0, 1), BuildingBlock: KIFKEQ_clean_linker_1, # of connection points: 2
#     Edge 28, Type (0, 1), BuildingBlock: KIFKEQ_clean_linker_1, # of connection points: 2
#     Edge 29, Type (0, 1), BuildingBlock: KIFKEQ_clean_linker_1, # of connection points: 2
#     Edge 30, Type (0, 1), BuildingBlock: KIFKEQ_clean_linker_1, # of connection points: 2
#     Edge 31, Type (0, 1), BuildingBlock: KIFKEQ_clean_linker_1, # of connection points: 2
#     Edge 32, Type (0, 1), BuildingBlock: KIFKEQ_clean_linker_1, # of connection points: 2
#     Edge 33, Type (0, 1), BuildingBlock: KIFKEQ_clean_linker_1, # of connection points: 2
#     Edge 34, Type (0, 1), BuildingBlock: KIFKEQ_clean_linker_1, # of connection points: 2
#     Edge 35, Type (0, 1), BuildingBlock: KIFKEQ_clean_linker_1, # of connection points: 2
# Relax obj value: 0.085
# Max RMSD: 0.181
# Mean RMSD: 0.134
data_MOF--net-pry--node1-MIDCAF_clean_sbu_0--node2-BETDAH_clean_linker_0--edge1-KIFKEQ_clean_linker_1
_symmetry_space_group_name_H-M    P1
_symmetry_Int_Tables_number       1
_symmetry_cell_setting            triclinic
loop_
_symmetry_equiv_pos_as_xyz
'x, y, z'
_cell_length_a     34.763545
_cell_length_b     35.452207
_cell_length_c     36.863543
_cell_angle_alpha  90.779314
_cell_angle_beta   91.210449
_cell_angle_gamma 96.589602
loop_
_atom_site_label
_atom_site_type_symbol
_atom_site_fract_x
_atom_site_fract_y
_atom_site_fract_z
_atom_type_partial_charge
H0 H 0.27817 0.19062 0.28828 0.0
H1 H 0.26725 0.28339 0.2155 0.0
H2 H 0.19054 0.26503 0.3047 0.0
C3 C 0.26423 0.21517 0.28048 0.0
C4 C 0.23305 0.22538 0.30076 0.0
C5 C 0.27687 0.23568 0.24954 0.0
C6 C 0.25796 0.26729 0.23914 0.0
C7 C 0.22717 0.27805 0.25967 0.0
C8 C 0.21516 0.25706 0.29005 0.0
N9 N 0.20661 0.30933 0.25118 0.0
C10 C 0.21105 0.33354 0.22178 0.0
H11 H 0.38239 0.79347 0.81447 0.0
H12 H 0.28088 0.84665 0.84032 0.0
H13 H 0.27578 0.76602 0.75245 0.0
C14 C 0.35248 0.79757 0.80876 0.0
C15 C 0.33166 0.77634 0.78044 0.0
C16 C 0.33472 0.82336 0.83052 0.0
C17 C 0.29534 0.82711 0.82405 0.0
C18 C 0.27436 0.80672 0.79592 0.0
C19 C 0.29247 0.78159 0.7741 0.0
N20 N 0.23419 0.80958 0.7918 0.0
C21 C 0.21843 0.82728 0.76248 0.0
H22 H 0.78166 0.30012 0.89607 0.0
H23 H 0.79595 0.35515 0.79277 0.0
H24 H 0.72178 0.25032 0.80071 0.0
C25 C 0.77545 0.30074 0.86717 0.0
C26 C 0.74936 0.27179 0.85113 0.0
C27 C 0.79258 0.33109 0.84651 0.0
C28 C 0.78352 0.33187 0.80912 0.0
C29 C 0.75809 0.3026 0.79274 0.0
C30 C 0.74155 0.2726 0.81364 0.0
N31 N 0.74924 0.30255 0.75509 0.0
C32 C 0.72944 0.33031 0.73941 0.0
H33 H 0.74147 0.77507 0.38755 0.0
H34 H 0.81007 0.78386 0.29109 0.0
H35 H 0.70544 0.70677 0.29324 0.0
C36 C 0.74645 0.76664 0.35984 0.0
C37 C 0.72021 0.7385 0.34286 0.0
C38 C 0.77926 0.78329 0.34167 0.0
C39 C 0.78492 0.77173 0.30555 0.0
C40 C 0.75794 0.74451 0.28796 0.0
C41 C 0.72586 0.7281 0.30676 0.0
N42 N 0.76152 0.7334 0.25118 0.0
C43 C 0.79635 0.7339 0.23326 0.0
H44 H 0.97153 0.88055 0.8832 0.0
H45 H 0.90696 0.92516 0.96939 0.0
H46 H 0.93719 0.99306 0.87659 0.0
C47 C 0.95643 0.90302 0.89433 0.0
C48 C 0.95606 0.93702 0.87522 0.0
C49 C 0.93905 0.89838 0.92845 0.0
C50 C 0.92027 0.92816 0.94312 0.0
C51 C 0.91977 0.96231 0.92421 0.0
C52 C 0.93805 0.96661 0.89082 0.0
N53 N 0.90353 0.99397 0.93895 0.0
C54 C 0.86802 0.99199 0.95592 0.0
H55 H 0.68371 0.10738 0.37194 0.0
H56 H 0.7402 0.17189 0.46117 0.0
H57 H 0.64033 0.21036 0.40918 0.0
C58 C 0.68489 0.13131 0.39071 0.0
C59 C 0.65816 0.15826 0.38707 0.0
C60 C 0.71468 0.13627 0.41717 0.0
C61 C 0.71722 0.16787 0.44064 0.0
C62 C 0.69024 0.19417 0.43858 0.0
C63 C 0.66073 0.18956 0.41154 0.0
N64 N 0.69513 0.22534 0.46353 0.0
C65 C 0.66769 0.2495 0.47202 0.0
H66 H 0.37308 0.69069 0.11461 0.0
H67 H 0.41594 0.60172 0.17686 0.0
H68 H 0.48698 0.70792 0.16411 0.0
C69 C 0.39615 0.68013 0.13038 0.0
C70 C 0.43032 0.70406 0.13817 0.0
C71 C 0.39075 0.64312 0.14405 0.0
C72 C 0.41981 0.6302 0.16617 0.0
C73 C 0.45475 0.65363 0.1729 0.0
C74 C 0.45996 0.6901 0.15859 0.0
N75 N 0.48571 0.64074 0.19289 0.0
C76 C 0.48138 0.62688 0.22773 0.0
H77 H 0.16725 0.38294 0.61634 0.0
H78 H 0.11545 0.47154 0.67184 0.0
H79 H 0.04324 0.37709 0.6241 0.0
C80 C 0.14176 0.39488 0.62548 0.0
C81 C 0.10491 0.37486 0.61867 0.0
C82 C 0.14594 0.43023 0.64405 0.0
C83 C 0.11269 0.44487 0.65678 0.0
C84 C 0.07574 0.42538 0.64969 0.0
C85 C 0.07206 0.3913 0.62984 0.0
N86 N 0.04178 0.43919 0.66263 0.0
C87 C 0.04058 0.45565 0.6969 0.0
Zn88 Zn 0.97941 0.05606 0.57527 0.0
Zn89 Zn 0.06288 0.97631 0.49624 0.0
Zn90 Zn 0.02345 0.0189 0.53516 0.0
C91 C 0.08711 0.05137 0.47763 0.0
C92 C 0.9866 0.95622 0.47508 0.0
O93 O 0.027 0.99966 0.59293 0.0
O94 O 0.98753 0.03334 0.62263 0.0
C95 C 0.03588 0.10934 0.54483 0.0
O96 O 0.06642 0.05836 0.50508 0.0
O97 O 0.08881 0.01755 0.46728 0.0
O98 O 0.01929 0.94458 0.47131 0.0
O99 O 0.983 0.98453 0.49663 0.0
O100 O 0.00693 0.10666 0.56512 0.0
O101 O 0.04748 0.0794 0.53047 0.0
O102 O 0.96241 0.01245 0.51217 0.0
O103 O 0.92876 0.04304 0.55079 0.0
C104 C 0.93014 0.02408 0.52176 0.0
O105 O 0.05305 0.98118 0.57244 0.0
O106 O 0.09279 0.9552 0.53606 0.0
C107 C 0.01065 0.00846 0.62255 0.0
C108 C 0.0807 0.96031 0.5676 0.0
Zn109 Zn 0.4924 0.09754 0.02418 0.0
Zn110 Zn 0.55707 0.02336 0.11203 0.0
Zn111 Zn 0.52656 0.05867 0.06796 0.0
C112 C 0.60967 0.03183 0.05858 0.0
C113 C 0.49376 0.97678 0.09284 0.0
O114 O 0.49474 0.09928 0.10044 0.0
O115 O 0.45829 0.1214 0.05772 0.0
C116 C 0.5706 0.1168 0.01312 0.0
O117 O 0.58853 0.05873 0.05198 0.0
O118 O 0.59891 0.00725 0.08179 0.0
O119 O 0.51294 0.98481 0.12185 0.0
O120 O 0.49795 0.99937 0.06576 0.0
O121 O 0.53873 0.12992 0.00799 0.0
O122 O 0.57219 0.08719 0.03278 0.0
O123 O 0.48566 0.01755 0.03482 0.0
O124 O 0.47028 0.05527 0.99099 0.0
C125 C 0.46928 0.02228 1.00371 0.0
O126 O 0.52291 0.08645 0.12299 0.0
O127 O 0.57154 0.06224 0.14999 0.0
C128 C 0.4676 0.11946 0.09088 0.0
C129 C 0.54701 0.08576 0.15008 0.0
Zn130 Zn 0.55019 0.5871 0.60355 0.0
Zn131 Zn 0.44828 0.48809 0.53892 0.0
Zn132 Zn 0.49876 0.53902 0.56987 0.0
C133 C 0.50783 0.44818 0.55956 0.0
C134 C 0.47386 0.53916 0.48511 0.0
O135 O 0.46725 0.57186 0.61035 0.0
O136 O 0.51384 0.61517 0.63076 0.0
C137 C 0.5706 0.51571 0.61977 0.0
O138 O 0.52058 0.4818 0.57173 0.0
O139 O 0.47451 0.44219 0.54498 0.0
O140 O 0.45021 0.51002 0.48997 0.0
O141 O 0.49528 0.55418 0.51173 0.0
O142 O 0.58002 0.55016 0.6285 0.0
O143 O 0.54197 0.50645 0.59731 0.0
O144 O 0.52624 0.57788 0.52829 0.0
O145 O 0.57241 0.61251 0.5602 0.0
C146 C 0.55548 0.60385 0.53011 0.0
O147 O 0.44167 0.54163 0.59625 0.0
O148 O 0.40348 0.49522 0.56849 0.0
C149 C 0.47854 0.60195 0.62968 0.0
C150 C 0.40841 0.52163 0.59193 0.0
Zn151 Zn 0.08958 0.61994 1.00051 0.0
Zn152 Zn 0.9911 0.53009 0.07413 0.0
Zn153 Zn 0.03651 0.5738 0.03307 0.0
C154 C 0.06322 0.51114 0.09103 0.0
C155 C 0.96983 0.51316 1.0006 0.0
O156 O 0.01924 0.63278 0.03585 0.0
O157 O 0.065 0.66737 0.00596 0.0
C158 C 0.1301 0.5863 0.05215 0.0
O159 O 0.071 0.53976 0.07001 0.0
O160 O 0.02847 0.49863 0.09677 0.0
O161 O 0.95716 0.50916 0.03237 0.0
O162 O 1.00167 0.53439 0.99497 0.0
O163 O 0.1361 0.61284 0.02985 0.0
O164 O 0.09581 0.5687 0.05568 0.0
O165 O 0.03122 0.55573 0.97554 0.0
O166 O 0.0819 0.59112 0.95375 0.0
C167 C 0.05376 0.56547 0.94914 0.0
O168 O 1.0 0.61084 0.06348 0.0
O169 O 0.97447 0.57127 0.10467 0.0
C170 C 0.03338 0.6648 0.02246 0.0
C171 C 0.98014 0.60444 0.09239 0.0
H172 H 0.20399 0.24891 0.36529 0.0
H173 H 0.22489 0.14779 0.30556 0.0
H174 H 0.16858 0.20964 0.41034 0.0
H175 H 0.19172 0.10882 0.3515 0.0
H176 H 0.08741 0.05171 0.40502 0.0
H177 H 0.12494 0.09516 0.36562 0.0
H178 H 0.17 0.16246 0.45896 0.0
H179 H 0.13121 0.11844 0.49878 0.0
C180 C 0.20147 0.21833 0.36193 0.0
C181 C 0.21687 0.20164 0.33132 0.0
C182 C 0.1815 0.19583 0.38804 0.0
C183 C 0.17659 0.15607 0.38424 0.0
C184 C 0.19407 0.1394 0.35486 0.0
C185 C 0.21372 0.16182 0.3287 0.0
C186 C 0.10506 0.07598 0.4172 0.0
C187 C 0.10646 0.08169 0.45499 0.0
C188 C 0.12693 0.10073 0.3946 0.0
C189 C 0.15138 0.13181 0.40909 0.0
C190 C 0.15155 0.13871 0.4469 0.0
C191 C 0.12919 0.11377 0.46972 0.0
H192 H 0.31149 0.84307 0.89852 0.0
H193 H 0.40915 0.85839 0.82755 0.0
H194 H 0.34563 0.88813 0.94206 0.0
H195 H 0.44388 0.90206 0.87175 0.0
H196 H 0.46864 0.01697 0.9305 0.0
H197 H 0.43846 0.96591 0.89134 0.0
H198 H 0.39944 0.90243 0.98554 0.0
H199 H 0.42856 0.95503 0.02488 0.0
C200 C 0.34038 0.85577 0.8923 0.0
C201 C 0.35728 0.84735 0.85917 0.0
C202 C 0.36018 0.88129 0.91755 0.0
C203 C 0.39743 0.89913 0.91037 0.0
C204 C 0.41498 0.88941 0.87798 0.0
C205 C 0.39519 0.86394 0.85274 0.0
C206 C 0.45371 0.99208 0.94294 0.0
C207 C 0.45157 0.98974 0.98089 0.0
C208 C 0.43672 0.96252 0.92043 0.0
C209 C 0.41685 0.92966 0.93513 0.0
C210 C 0.41456 0.92727 0.97322 0.0
C211 C 0.43176 0.95705 0.99585 0.0
H212 H 0.65442 0.33803 0.75027 0.0
H213 H 0.75336 0.38089 0.68838 0.0
H214 H 0.61512 0.38156 0.71936 0.0
H215 H 0.71423 0.42404 0.65683 0.0
H216 H 0.64586 0.5262 0.64241 0.0
H217 H 0.68392 0.48062 0.6705 0.0
H218 H 0.58593 0.39413 0.66017 0.0
H219 H 0.54725 0.44049 0.63311 0.0
C220 C 0.66762 0.35689 0.72999 0.0
C221 C 0.70675 0.35666 0.72176 0.0
C222 C 0.64513 0.3815 0.71204 0.0
C223 C 0.6615 0.40631 0.68558 0.0
C224 C 0.70083 0.40569 0.67737 0.0
C225 C 0.72323 0.38103 0.69531 0.0
C226 C 0.63239 0.49742 0.64605 0.0
C227 C 0.59362 0.48683 0.63518 0.0
C228 C 0.65436 0.47118 0.66189 0.0
C229 C 0.6381 0.43363 0.66748 0.0
C230 C 0.59928 0.42291 0.65648 0.0
C231 C 0.57724 0.44928 0.64054 0.0
H232 H 0.87144 0.73573 0.25514 0.0
H233 H 0.79387 0.7172 0.16229 0.0
H234 H 0.92407 0.71491 0.21934 0.0
H235 H 0.84549 0.69526 0.12669 0.0
H236 H 0.94341 0.6621 0.06425 0.0
H237 H 0.90605 0.70528 0.09724 0.0
H238 H 0.93687 0.65415 0.19803 0.0
H239 H 0.97568 0.61308 0.165 0.0
C240 C 0.86602 0.72788 0.22682 0.0
C241 C 0.82897 0.72796 0.21123 0.0
C242 C 0.89594 0.7157 0.20636 0.0
C243 C 0.88905 0.70303 0.17011 0.0
C244 C 0.85221 0.70526 0.15424 0.0
C245 C 0.82249 0.71759 0.17465 0.0
C246 C 0.94371 0.66164 0.09347 0.0
C247 C 0.96294 0.63481 0.112 0.0
C248 C 0.92165 0.68575 0.11246 0.0
C249 C 0.91812 0.68313 0.15041 0.0
C250 C 0.93921 0.65754 0.16898 0.0
C251 C 0.96125 0.63368 0.15 0.0
H252 H 0.27955 0.22845 0.17566 0.0
H253 H 0.34555 0.21235 0.27356 0.0
H254 H 0.32852 0.20239 0.13985 0.0
H255 H 0.39523 0.18687 0.23768 0.0
H256 H 0.45215 0.10267 0.16245 0.0
H257 H 0.40848 0.13295 0.20208 0.0
H258 H 0.39182 0.21441 0.11867 0.0
H259 H 0.43402 0.18356 0.07919 0.0
C260 C 0.30492 0.22002 0.1895 0.0
C261 C 0.30856 0.2226 0.22749 0.0
C262 C 0.33317 0.20502 0.16895 0.0
C263 C 0.36617 0.19248 0.18572 0.0
C264 C 0.37008 0.19563 0.22375 0.0
C265 C 0.34163 0.21042 0.24434 0.0
C266 C 0.43959 0.12741 0.15296 0.0
C267 C 0.44627 0.14046 0.11758 0.0
C268 C 0.41448 0.14482 0.17562 0.0
C269 C 0.39582 0.17583 0.16342 0.0
C270 C 0.4045 0.18997 0.12874 0.0
C271 C 0.42907 0.17242 0.10613 0.0
H272 H 0.14755 0.80612 0.73302 0.0
H273 H 0.24496 0.89287 0.7305 0.0
H274 H 0.1131 0.84022 0.68755 0.0
H275 H 0.21056 0.92761 0.68554 0.0
H276 H 0.15697 0.95276 0.57483 0.0
H277 H 0.18994 0.92142 0.62268 0.0
H278 H 0.08164 0.8975 0.67792 0.0
H279 H 0.0484 0.92749 0.62864 0.0
C280 C 0.16151 0.83252 0.72255 0.0
C281 C 0.19891 0.84681 0.73466 0.0
C282 C 0.1417 0.85228 0.69686 0.0
C283 C 0.15898 0.88674 0.68283 0.0
C284 C 0.19653 0.90096 0.69535 0.0
C285 C 0.21627 0.88117 0.72106 0.0
C286 C 0.14023 0.94099 0.59731 0.0
C287 C 0.10019 0.94327 0.59842 0.0
C288 C 0.1592 0.92327 0.62493 0.0
C289 C 0.1386 0.90708 0.65437 0.0
C290 C 0.09844 0.90954 0.6556 0.0
C291 C 0.07944 0.92739 0.62782 0.0
H292 H 0.86161 0.36698 0.82242 0.0
H293 H 0.78284 0.36582 0.91155 0.0
H294 H 0.90563 0.41619 0.85416 0.0
H295 H 0.8271 0.41318 0.94369 0.0
H296 H 0.99241 0.46446 0.94896 0.0
H297 H 0.94968 0.42377 0.907 0.0
H298 H 0.85194 0.47817 0.94345 0.0
H299 H 0.89438 0.51734 0.98591 0.0
C300 C 0.85359 0.37736 0.84865 0.0
C301 C 0.81882 0.36225 0.86456 0.0
C302 C 0.87897 0.40527 0.86698 0.0
C303 C 0.86995 0.4188 0.90148 0.0
C304 C 0.83484 0.40403 0.91694 0.0
C305 C 0.80961 0.37635 0.89871 0.0
C306 C 0.96189 0.46802 0.94728 0.0
C307 C 0.94649 0.49378 0.97058 0.0
C308 C 0.9374 0.44485 0.92328 0.0
C309 C 0.89717 0.44715 0.92232 0.0
C310 C 0.88253 0.47484 0.94411 0.0
C311 C 0.90683 0.49753 0.96823 0.0
H312 H 0.70334 0.66233 0.35133 0.0
H313 H 0.66545 0.76983 0.38151 0.0
H314 H 0.65675 0.62977 0.39216 0.0
H315 H 0.61729 0.73736 0.42102 0.0
H316 H 0.58578 0.67717 0.52707 0.0
H317 H 0.61951 0.70934 0.47748 0.0
H318 H 0.59309 0.60873 0.40967 0.0
H319 H 0.56142 0.57565 0.46088 0.0
C320 C 0.68424 0.67883 0.36607 0.0
C321 C 0.68821 0.71858 0.36367 0.0
C322 C 0.65731 0.66018 0.38935 0.0
C323 C 0.63339 0.68087 0.41039 0.0
C324 C 0.63586 0.72051 0.40606 0.0
C325 C 0.66326 0.73918 0.3833 0.0
C326 C 0.58679 0.66205 0.50142 0.0
C327 C 0.57056 0.62406 0.49767 0.0
C328 C 0.60582 0.68066 0.47271 0.0
C329 C 0.60904 0.66186 0.43926 0.0
C330 C 0.59157 0.62408 0.4351 0.0
C331 C 0.57284 0.60525 0.46418 0.0
H332 H 0.18879 0.32783 0.15056 0.0
H333 H 0.21615 0.40724 0.23946 0.0
H334 H 0.16114 0.37739 0.11576 0.0
H335 H 0.18813 0.45647 0.20517 0.0
H336 H 0.06696 0.48953 0.16088 0.0
H337 H 0.11314 0.45134 0.18909 0.0
H338 H 0.17454 0.44941 0.08867 0.0
H339 H 0.12837 0.48873 0.06051 0.0
C340 C 0.19025 0.35629 0.16199 0.0
C341 C 0.20489 0.36404 0.1974 0.0
C342 C 0.17439 0.38459 0.14218 0.0
C343 C 0.17233 0.4207 0.15789 0.0
C344 C 0.18932 0.42891 0.19244 0.0
C345 C 0.20555 0.40085 0.21195 0.0
C346 C 0.09078 0.48161 0.14505 0.0
C347 C 0.09433 0.49228 0.10866 0.0
C348 C 0.11727 0.45986 0.16119 0.0
C349 C 0.14747 0.44746 0.14109 0.0
C350 C 0.15155 0.45866 0.10477 0.0
C351 C 0.12541 0.48132 0.08879 0.0
H352 H 0.67195 0.24937 0.84868 0.0
H353 H 0.77733 0.22991 0.90607 0.0
H354 H 0.63437 0.208 0.8906 0.0
H355 H 0.7392 0.1881 0.94817 0.0
H356 H 0.62701 0.08506 0.97611 0.0
H357 H 0.67626 0.11888 0.9374 0.0
H358 H 0.6371 0.22549 0.96869 0.0
H359 H 0.58928 0.19221 0.00796 0.0
C360 C 0.68718 0.23555 0.8697 0.0
C361 C 0.7276 0.24293 0.87409 0.0
C362 C 0.66565 0.21204 0.89374 0.0
C363 C 0.68405 0.19502 0.92241 0.0
C364 C 0.72455 0.20084 0.92605 0.0
C365 C 0.74619 0.22486 0.90217 0.0
C366 C 0.63026 0.11579 0.97588 0.0
C367 C 0.60488 0.13613 0.9954 0.0
C368 C 0.65803 0.13503 0.95354 0.0
C369 C 0.66011 0.17464 0.95015 0.0
C370 C 0.63591 0.19493 0.97092 0.0
C371 C 0.60865 0.1759 0.99335 0.0
H372 H 0.8032 0.78489 0.41325 0.0
H373 H 0.81999 0.84715 0.31366 0.0
H374 H 0.84914 0.83183 0.44462 0.0
H375 H 0.86732 0.89327 0.34507 0.0
H376 H 0.98694 0.92674 0.40703 0.0
H377 H 0.93417 0.88876 0.37403 0.0
H378 H 0.85818 0.90286 0.46314 0.0
H379 H 0.91132 0.94105 0.49631 0.0
C380 C 0.81621 0.80878 0.39805 0.0
C381 C 0.80761 0.81211 0.36078 0.0
C382 C 0.84262 0.83568 0.41613 0.0
C383 C 0.86162 0.8663 0.39735 0.0
C384 C 0.85316 0.86983 0.36018 0.0
C385 C 0.82628 0.84319 0.34215 0.0
C386 C 0.9588 0.92215 0.41937 0.0
C387 C 0.95313 0.93691 0.45416 0.0
C388 C 0.92856 0.90062 0.40038 0.0
C389 C 0.89211 0.89281 0.41603 0.0
C390 C 0.88608 0.90836 0.45051 0.0
C391 C 0.9163 0.93048 0.46933 0.0
H392 H 0.30083 0.70646 0.75214 0.0
H393 H 0.40641 0.78379 0.75671 0.0
H394 H 0.33221 0.66303 0.71361 0.0
H395 H 0.43823 0.73962 0.72048 0.0
H396 H 0.4777 0.67731 0.62606 0.0
H397 H 0.43962 0.71775 0.6605 0.0
H398 H 0.3803 0.61881 0.71093 0.0
H399 H 0.41813 0.57797 0.6748 0.0
C400 C 0.33069 0.71431 0.74499 0.0
C401 C 0.35089 0.74897 0.75756 0.0
C402 C 0.34887 0.68906 0.72324 0.0
C403 C 0.38776 0.69775 0.71348 0.0
C404 C 0.40802 0.7321 0.72662 0.0
C405 C 0.38986 0.75735 0.74804 0.0
C406 C 0.45617 0.66411 0.64419 0.0
C407 C 0.45095 0.6245 0.64785 0.0
C408 C 0.43454 0.68737 0.66429 0.0
C409 C 0.40744 0.67184 0.68938 0.0
C410 C 0.40086 0.63188 0.6919 0.0
C411 C 0.42238 0.60839 0.67117 0.0
H412 H 0.95407 0.88442 0.81963 0.0
H413 H 0.99845 1.00009 0.8481 0.0
H414 H 0.97746 0.89402 0.75819 0.0
H415 H 0.01996 0.01028 0.78633 0.0
H416 H 0.06664 0.02129 0.67568 0.0
H417 H 0.06206 0.99775 0.73794 0.0
H418 H 0.95575 0.92779 0.7077 0.0
H419 H 0.96123 0.9507 0.64588 0.0
C420 C 0.96926 0.91176 0.81298 0.0
C421 C 0.97382 0.94164 0.83878 0.0
C422 C 0.98238 0.91737 0.77759 0.0
C423 C 1.0003 0.95305 0.76703 0.0
C424 C 0.00664 0.98231 0.79339 0.0
C425 C 0.99367 0.97665 0.82878 0.0
C426 C 0.04324 0.99978 0.68229 0.0
C427 C 0.01452 0.98736 0.65619 0.0
C428 C 0.04027 0.98663 0.71795 0.0
C429 C 0.00825 0.96117 0.72808 0.0
C430 C 0.98104 0.94696 0.70101 0.0
C431 C 0.98409 0.96006 0.66553 0.0
H432 H 0.61249 0.09448 0.363 0.0
H433 H 0.63994 0.21356 0.34053 0.0
H434 H 0.5746 0.08586 0.30659 0.0
H435 H 0.60123 0.20516 0.28418 0.0
H436 H 0.5953 0.14922 0.16571 0.0
H437 H 0.61303 0.17351 0.22671 0.0
H438 H 0.51854 0.09885 0.26985 0.0
H439 H 0.50133 0.07438 0.2085 0.0
C440 C 0.60979 0.11899 0.34631 0.0
C441 C 0.62961 0.1546 0.35608 0.0
C442 C 0.58766 0.11417 0.31409 0.0
C443 C 0.5849 0.1448 0.29064 0.0
C444 C 0.60296 0.18091 0.30143 0.0
C445 C 0.62492 0.18578 0.33387 0.0
C446 C 0.57712 0.13955 0.18805 0.0
C447 C 0.54659 0.11046 0.18242 0.0
C448 C 0.58738 0.15327 0.22313 0.0
C449 C 0.5676 0.13772 0.25337 0.0
C450 C 0.53473 0.11108 0.24724 0.0
C451 C 0.5244 0.0975 0.21207 0.0
H452 H 0.44613 0.65818 0.28311 0.0
H453 H 0.51582 0.56941 0.25546 0.0
H454 H 0.44661 0.63883 0.3468 0.0
H455 H 0.51708 0.55028 0.31896 0.0
H456 H 0.46806 0.4978 0.42302 0.0
H457 H 0.47062 0.52021 0.36104 0.0
H458 H 0.49027 0.63618 0.40089 0.0
H459 H 0.48655 0.6134 0.46353 0.0
C460 C 0.46144 0.63447 0.29086 0.0
C461 C 0.48048 0.61478 0.26481 0.0
C462 C 0.46211 0.62367 0.32722 0.0
C463 C 0.48184 0.593 0.33791 0.0
C464 C 0.50119 0.57368 0.31153 0.0
C465 C 0.50051 0.58452 0.27527 0.0
C466 C 0.47301 0.5281 0.41856 0.0
C467 C 0.4775 0.5539 0.44799 0.0
C468 C 0.47479 0.54093 0.38305 0.0
C469 C 0.4809 0.57995 0.37602 0.0
C470 C 0.4853 0.60593 0.40548 0.0
C471 C 0.48355 0.59297 0.44125 0.0
H472 H 0.99292 0.50329 0.72466 0.0
H473 H 0.08676 0.43833 0.7516 0.0
H474 H 0.99318 0.52707 0.7876 0.0
H475 H 0.08676 0.46118 0.81449 0.0
H476 H 0.11093 0.55041 0.90492 0.0
H477 H 0.1054 0.52205 0.84449 0.0
H478 H 0.98065 0.5081 0.85167 0.0
H479 H 0.98643 0.53819 0.91233 0.0
C480 C 0.01343 0.49408 0.74425 0.0
C481 C 0.04013 0.46952 0.73371 0.0
C482 C 0.01336 0.5073 0.78022 0.0
C483 C 0.04008 0.4961 0.80599 0.0
C484 C 0.06619 0.47076 0.7952 0.0
C485 C 0.06622 0.45764 0.75934 0.0
C486 C 0.08229 0.54115 0.8937 0.0
C487 C 0.04907 0.54596 0.91347 0.0
C488 C 0.07912 0.52459 0.85916 0.0
C489 C 0.04262 0.5125 0.84337 0.0
C490 C 0.0092 0.51721 0.86313 0.0
C491 C 0.01244 0.53384 0.89798 0.0
H492 H 0.79895 0.95431 0.9354 0.0
H493 H 0.85326 0.04105 0.00878 0.0
H494 H 0.73513 0.96608 0.95692 0.0
H495 H 0.78965 0.05263 0.03102 0.0
H496 H 0.66725 0.08758 0.03979 0.0
H497 H 0.72972 0.07839 0.01303 0.0
H498 H 0.69682 0.95705 0.01044 0.0
H499 H 0.63461 0.96649 0.03582 0.0
C500 C 0.79709 0.9755 0.95656 0.0
C501 C 0.8307 0.9964 0.97094 0.0
C502 C 0.76064 0.98236 0.96886 0.0
C503 C 0.75716 0.01041 0.9957 0.0
C504 C 0.79114 0.03124 0.01001 0.0
C505 C 0.82756 0.02429 0.99769 0.0
C506 C 0.67319 0.05915 0.03256 0.0
C507 C 0.64591 0.02784 0.03929 0.0
C508 C 0.70911 0.05375 0.01777 0.0
C509 C 0.71838 0.01691 0.00957 0.0
C510 C 0.69061 0.98581 0.01585 0.0
C511 C 0.65498 0.99121 0.03061 0.0
H512 H 0.70322 0.06111 0.43432 0.0
H513 H 0.79222 0.15116 0.40886 0.0
H514 H 0.7532 0.02029 0.45095 0.0
H515 H 0.84202 0.1106 0.42485 0.0
H516 H 0.92797 0.03207 0.44818 0.0
H517 H 0.87259 0.04983 0.41261 0.0
H518 H 0.79965 0.02894 0.50522 0.0
H519 H 0.85485 0.01187 0.54062 0.0
C520 C 0.73346 0.07168 0.43128 0.0
C521 C 0.74403 0.10922 0.42051 0.0
C522 C 0.76201 0.04844 0.44084 0.0
C523 C 0.80157 0.06218 0.43916 0.0
C524 C 0.81188 0.09891 0.42597 0.0
C525 C 0.78343 0.12227 0.41705 0.0
C526 C 0.89972 0.02974 0.46035 0.0
C527 C 0.8957 0.02101 0.49722 0.0
C528 C 0.8681 0.04022 0.44012 0.0
C529 C 0.83189 0.04136 0.45629 0.0
C530 C 0.82705 0.02827 0.49189 0.0
C531 C 0.8587 0.01851 0.51222 0.0
H532 H 0.33733 0.60795 0.18983 0.0
H533 H 0.36226 0.62462 0.0767 0.0
H534 H 0.27177 0.57858 0.17301 0.0
H535 H 0.29746 0.5961 0.05981 0.0
H536 H 0.18461 0.54389 0.02903 0.0
H537 H 0.24894 0.54218 0.05659 0.0
H538 H 0.21564 0.60689 0.14867 0.0
H539 H 0.15089 0.60699 0.12148 0.0
C540 C 0.32906 0.60433 0.16139 0.0
C541 C 0.35449 0.61871 0.13449 0.0
C542 C 0.29157 0.5878 0.15176 0.0
C543 C 0.27924 0.58508 0.11508 0.0
C544 C 0.30595 0.59711 0.08827 0.0
C545 C 0.34305 0.6138 0.09789 0.0
C546 C 0.19075 0.55629 0.05586 0.0
C547 C 0.16325 0.57563 0.07326 0.0
C548 C 0.22756 0.55559 0.07154 0.0
C549 C 0.23775 0.57518 0.10443 0.0
C550 C 0.20879 0.59137 0.12342 0.0
C551 C 0.17174 0.59158 0.10788 0.0
H552 H 0.21444 0.40364 0.66297 0.0
H553 H 0.1657 0.50671 0.63609 0.0
H554 H 0.27919 0.43761 0.66156 0.0
H555 H 0.23059 0.54125 0.63625 0.0
H556 H 0.34632 0.55461 0.56989 0.0
H557 H 0.28156 0.54032 0.59341 0.0
H558 H 0.32895 0.48498 0.68516 0.0
H559 H 0.39389 0.49885 0.66069 0.0
C560 C 0.21753 0.43373 0.65735 0.0
C561 C 0.1849 0.45224 0.64894 0.0
C562 C 0.2547 0.45345 0.65714 0.0
C563 C 0.26025 0.49225 0.64861 0.0
C564 C 0.22743 0.51132 0.64254 0.0
C565 C 0.19019 0.49154 0.6427 0.0
C566 C 0.343 0.54119 0.59606 0.0
C567 C 0.37489 0.52806 0.61369 0.0
C568 C 0.30583 0.53279 0.60957 0.0
C569 C 0.29986 0.51074 0.64085 0.0
C570 C 0.33246 0.50137 0.66063 0.0
C571 C 0.36971 0.50981 0.64701 0.0
H572 H 0.92694 0.82506 0.90333 0.0
H573 H 0.96063 0.89197 0.99988 0.0
H574 H 0.94305 0.76818 0.93375 0.0
H575 H 0.97615 0.83471 0.0308 0.0
H576 H 0.05892 0.73802 0.04057 0.0
H577 H 0.02857 0.79429 0.02373 0.0
H578 H 0.92836 0.72239 0.98169 0.0
H579 H 0.95936 0.66618 0.99802 0.0
C580 C 0.93716 0.82746 0.93132 0.0
C581 C 0.94282 0.86308 0.94907 0.0
C582 C 0.94607 0.79477 0.94893 0.0
C583 C 0.96108 0.79682 0.98474 0.0
C584 C 0.96498 0.83218 1.00311 0.0
C585 C 0.95577 0.86492 0.98552 0.0
C586 C 0.02985 0.73439 0.02888 0.0
C587 C 0.01111 0.69783 0.02129 0.0
C588 C 0.01239 0.7666 0.01922 0.0
C589 C 0.97605 0.76294 1.00116 0.0
C590 C 0.95648 0.72626 0.99529 0.0
C591 C 0.97395 0.69406 1.00508 0.0
H592 H 0.41343 0.73313 0.07171 0.0
H593 H 0.45518 0.76574 0.1801 0.0
H594 H 0.41897 0.80036 0.0549 0.0
H595 H 0.46111 0.83217 0.16339 0.0
H596 H 0.44077 0.94766 0.1401 0.0
H597 H 0.41761 0.88058 0.14683 0.0
H598 H 0.47442 0.85415 0.04811 0.0
H599 H 0.49707 0.92174 0.04117 0.0
C600 C 0.42367 0.75466 0.09188 0.0
C601 C 0.43411 0.7443 0.12715 0.0
C602 C 0.4269 0.79297 0.08226 0.0
C603 C 0.43997 0.82145 0.10796 0.0
C604 C 0.45023 0.81091 0.14317 0.0
C605 C 0.44738 0.77284 0.15262 0.0
C606 C 0.44698 0.92763 0.11914 0.0
C607 C 0.47053 0.93958 0.09013 0.0
C608 C 0.43404 0.88928 0.12311 0.0
C609 C 0.44497 0.86214 0.09843 0.0
C610 C 0.46555 0.8745 0.06751 0.0
C611 C 0.4784 0.91308 0.06346 0.0
H612 H 0.14712 0.34695 0.56339 0.0
H613 H 0.05285 0.31441 0.63551 0.0
H614 H 0.13801 0.2829 0.53579 0.0
H615 H 0.04294 0.25196 0.60671 0.0
H616 H 0.11067 0.13682 0.56237 0.0
H617 H 0.13397 0.20429 0.57335 0.0
H618 H 0.02646 0.23541 0.52905 0.0
H619 H 1.00348 0.16848 0.51787 0.0
C620 C 0.1246 0.32635 0.57344 0.0
C621 C 0.10036 0.3362 0.60144 0.0
C622 C 0.11938 0.28986 0.55748 0.0
C623 C 0.08955 0.26296 0.56898 0.0
C624 C 0.0658 0.27254 0.59711 0.0
C625 C 0.07132 0.3085 0.61334 0.0
C626 C 0.09307 0.15827 0.55313 0.0
C627 C 0.05549 0.1477 0.539 0.0
C628 C 0.10627 0.19674 0.55957 0.0
C629 C 0.08183 0.22475 0.55209 0.0
C630 C 0.04581 0.21425 0.53482 0.0
C631 C 0.03276 0.17604 0.52834 0.0
H632 H 0.5934 0.25995 0.45456 0.0
H633 H 0.69101 0.30092 0.52396 0.0
H634 H 0.55564 0.30717 0.48143 0.0
H635 H 0.65343 0.34764 0.5515 0.0
H636 H 0.58696 0.45511 0.55538 0.0
H637 H 0.62632 0.40575 0.53668 0.0
H638 H 0.52517 0.3227 0.53742 0.0
H639 H 0.48594 0.37205 0.55577 0.0
C640 C 0.60659 0.27907 0.47566 0.0
C641 C 0.64491 0.2772 0.48721 0.0
C642 C 0.58502 0.30588 0.49131 0.0
C643 C 0.60146 0.3312 0.51882 0.0
C644 C 0.63997 0.32896 0.53022 0.0
C645 C 0.66143 0.30218 0.51456 0.0
C646 C 0.5734 0.4261 0.55263 0.0
C647 C 0.53333 0.41752 0.55705 0.0
C648 C 0.59591 0.39779 0.54169 0.0
C649 C 0.57875 0.36033 0.5348 0.0
C650 C 0.53915 0.35139 0.54155 0.0
C651 C 0.51673 0.37962 0.55247 0.0
loop_
_geom_bond_atom_site_label_1
_geom_bond_atom_site_label_2
_geom_bond_distance
_geom_bond_site_symmetry_2
_ccdc_geom_bond_type
H0 C3 0.929 . S
H1 C6 0.929 . S
H2 C8 0.930 . S
C3 H0 0.929 . S
C3 C4 1.398 . S
C3 C5 1.396 . S
C4 C3 1.398 . S
C4 C8 1.407 . S
C5 C3 1.396 . S
C5 C6 1.394 . S
C6 H1 0.929 . S
C6 C5 1.394 . S
C6 C7 1.382 . S
C7 C6 1.382 . S
C7 C8 1.392 . S
C7 N9 1.420 . S
C8 H2 0.930 . S
C8 C4 1.407 . S
C8 C7 1.392 . S
N9 C7 1.420 . S
N9 C10 1.244 . S
C10 N9 1.244 . S
H11 C14 0.929 . S
H12 C17 0.929 . S
H13 C19 0.930 . S
C14 H11 0.929 . S
C14 C15 1.398 . S
C14 C16 1.396 . S
C15 C14 1.398 . S
C15 C19 1.407 . S
C16 C14 1.396 . S
C16 C17 1.394 . S
C17 H12 0.929 . S
C17 C16 1.394 . S
C17 C18 1.382 . S
C18 C17 1.382 . S
C18 C19 1.392 . S
C18 N20 1.420 . S
C19 H13 0.930 . S
C19 C15 1.407 . S
C19 C18 1.392 . S
N20 C18 1.420 . S
N20 C21 1.244 . S
C21 N20 1.244 . S
H22 C25 0.929 . S
H23 C28 0.929 . S
H24 C30 0.930 . S
C25 H22 0.929 . S
C25 C26 1.398 . S
C25 C27 1.396 . S
C26 C25 1.398 . S
C26 C30 1.407 . S
C27 C25 1.396 . S
C27 C28 1.394 . S
C28 H23 0.929 . S
C28 C27 1.394 . S
C28 C29 1.382 . S
C29 C28 1.382 . S
C29 C30 1.392 . S
C29 N31 1.420 . S
C30 H24 0.930 . S
C30 C26 1.407 . S
C30 C29 1.392 . S
N31 C29 1.420 . S
N31 C32 1.244 . S
C32 N31 1.244 . S
H33 C36 0.929 . S
H34 C39 0.929 . S
H35 C41 0.930 . S
C36 H33 0.929 . S
C36 C37 1.398 . S
C36 C38 1.396 . S
C37 C36 1.398 . S
C37 C41 1.407 . S
C38 C36 1.396 . S
C38 C39 1.394 . S
C39 H34 0.929 . S
C39 C38 1.394 . S
C39 C40 1.382 . S
C40 C39 1.382 . S
C40 C41 1.392 . S
C40 N42 1.420 . S
C41 H35 0.930 . S
C41 C37 1.407 . S
C41 C40 1.392 . S
N42 C40 1.420 . S
N42 C43 1.244 . S
C43 N42 1.244 . S
H44 C47 0.929 . S
H45 C50 0.929 . S
H46 C52 0.930 1_545 S
C47 H44 0.929 . S
C47 C48 1.398 . S
C47 C49 1.396 . S
C48 C47 1.398 . S
C48 C52 1.407 . S
C49 C47 1.396 . S
C49 C50 1.394 . S
C50 H45 0.929 . S
C50 C49 1.394 . S
C50 C51 1.382 . S
C51 C50 1.382 . S
C51 C52 1.392 . S
C51 N53 1.420 1_565 S
C52 H46 0.930 1_565 S
C52 C48 1.407 . S
C52 C51 1.392 . S
N53 C51 1.420 1_545 S
N53 C54 1.244 1_545 S
C54 N53 1.244 1_565 S
H55 C58 0.929 . S
H56 C61 0.929 . S
H57 C63 0.930 . S
C58 H55 0.929 . S
C58 C59 1.398 . S
C58 C60 1.396 . S
C59 C58 1.398 . S
C59 C63 1.407 . S
C60 C58 1.396 . S
C60 C61 1.394 . S
C61 H56 0.929 . S
C61 C60 1.394 . S
C61 C62 1.382 . S
C62 C61 1.382 . S
C62 C63 1.392 . S
C62 N64 1.420 . S
C63 H57 0.930 . S
C63 C59 1.407 . S
C63 C62 1.392 . S
N64 C62 1.420 . S
N64 C65 1.244 . S
C65 N64 1.244 . S
H66 C69 0.929 . S
H67 C72 0.929 . S
H68 C74 0.930 . S
C69 H66 0.929 . S
C69 C70 1.398 . S
C69 C71 1.396 . S
C70 C69 1.398 . S
C70 C74 1.407 . S
C71 C69 1.396 . S
C71 C72 1.394 . S
C72 H67 0.929 . S
C72 C71 1.394 . S
C72 C73 1.382 . S
C73 C72 1.382 . S
C73 C74 1.392 . S
C73 N75 1.420 . S
C74 H68 0.930 . S
C74 C70 1.407 . S
C74 C73 1.392 . S
N75 C73 1.420 . S
N75 C76 1.244 . S
C76 N75 1.244 . S
H77 C80 0.929 . S
H78 C83 0.929 . S
H79 C85 0.930 . S
C80 H77 0.929 . S
C80 C81 1.398 . S
C80 C82 1.396 . S
C81 C80 1.398 . S
C81 C85 1.407 . S
C82 C80 1.396 . S
C82 C83 1.394 . S
C83 H78 0.929 . S
C83 C82 1.394 . S
C83 C84 1.382 . S
C84 C83 1.382 . S
C84 C85 1.392 . S
C84 N86 1.420 . S
C85 H79 0.930 . S
C85 C81 1.407 . S
C85 C84 1.392 . S
N86 C84 1.420 . S
N86 C87 1.244 . S
C87 N86 1.244 . S
Zn88 O94 1.920 . S
Zn88 O100 1.898 . S
Zn88 O103 1.905 . S
Zn89 O97 1.905 1_565 S
Zn89 O98 1.898 . S
Zn89 O106 1.920 . S
Zn90 O93 2.080 1_455 S
Zn90 O96 2.114 . S
Zn90 O99 2.120 1_445 S
Zn90 O101 2.120 . S
Zn90 O102 2.114 1_455 S
Zn90 O105 2.080 . S
C91 O96 1.166 . S
C91 O97 1.182 . S
C92 O98 1.167 1_655 S
C92 O99 1.299 . S
O93 Zn90 2.080 1_655 S
O93 C107 1.305 . S
O94 Zn88 1.920 . S
O94 C107 1.234 . S
C95 O100 1.167 1_455 S
C95 O101 1.299 . S
O96 Zn90 2.114 . S
O96 C91 1.166 . S
O97 Zn89 1.905 1_545 S
O97 C91 1.182 . S
O98 Zn89 1.898 . S
O98 C92 1.167 1_455 S
O99 Zn90 2.120 1_665 S
O99 C92 1.299 . S
O100 Zn88 1.898 . S
O100 C95 1.167 1_655 S
O101 Zn90 2.120 . S
O101 C95 1.299 . S
O102 Zn90 2.114 1_655 S
O102 C104 1.166 . S
O103 Zn88 1.905 . S
O103 C104 1.182 . S
C104 O102 1.166 . S
C104 O103 1.182 . S
O105 Zn90 2.080 . S
O105 C108 1.305 1_545 S
O106 Zn89 1.920 . S
O106 C108 1.234 . S
C107 O93 1.305 . S
C107 O94 1.234 . S
C108 O105 1.305 1_565 S
C108 O106 1.234 . S
Zn109 O115 1.920 . S
Zn109 O121 1.899 . S
Zn109 O124 1.905 1_554 S
Zn110 O118 1.905 . S
Zn110 O119 1.898 . S
Zn110 O127 1.920 . S
Zn111 O114 2.080 . S
Zn111 O117 2.119 . S
Zn111 O120 2.120 1_545 S
Zn111 O122 2.120 . S
Zn111 O123 2.114 . S
Zn111 O126 2.080 . S
C112 O117 1.165 1_565 S
C112 O118 1.183 . S
C113 O119 1.167 . S
C113 O120 1.299 . S
O114 Zn111 2.080 . S
O114 C128 1.305 . S
O115 Zn109 1.920 . S
O115 C128 1.234 . S
C116 O121 1.170 . S
C116 O122 1.299 . S
O117 Zn111 2.119 . S
O117 C112 1.165 1_545 S
O118 Zn110 1.905 . S
O118 C112 1.183 . S
O119 Zn110 1.898 . S
O119 C113 1.167 . S
O120 Zn111 2.120 1_565 S
O120 C113 1.299 . S
O121 Zn109 1.899 . S
O121 C116 1.170 . S
O122 Zn111 2.120 . S
O122 C116 1.299 . S
O123 Zn111 2.114 . S
O123 C125 1.167 1_544 S
O124 Zn109 1.905 1_556 S
O124 C125 1.179 1_545 S
C125 O123 1.167 1_566 S
C125 O124 1.179 1_565 S
O126 Zn111 2.080 . S
O126 C129 1.305 . S
O127 Zn110 1.920 . S
O127 C129 1.234 1_565 S
C128 O114 1.305 . S
C128 O115 1.234 . S
C129 O126 1.305 . S
C129 O127 1.234 1_545 S
Zn130 O136 1.920 . S
Zn130 O142 1.898 . S
Zn130 O145 1.905 . S
Zn131 O139 1.905 . S
Zn131 O140 1.898 . S
Zn131 O148 1.920 . S
Zn132 O135 2.080 . S
Zn132 O138 2.114 . S
Zn132 O141 2.120 . S
Zn132 O143 2.120 . S
Zn132 O144 2.114 . S
Zn132 O147 2.080 . S
C133 O138 1.166 . S
C133 O139 1.182 . S
C134 O140 1.167 . S
C134 O141 1.299 . S
O135 Zn132 2.080 . S
O135 C149 1.305 . S
O136 Zn130 1.920 . S
O136 C149 1.234 . S
C137 O142 1.167 . S
C137 O143 1.299 . S
O138 Zn132 2.114 . S
O138 C133 1.166 . S
O139 Zn131 1.905 . S
O139 C133 1.182 . S
O140 Zn131 1.898 . S
O140 C134 1.167 . S
O141 Zn132 2.120 . S
O141 C134 1.299 . S
O142 Zn130 1.898 . S
O142 C137 1.167 . S
O143 Zn132 2.120 . S
O143 C137 1.299 . S
O144 Zn132 2.114 . S
O144 C146 1.166 . S
O145 Zn130 1.905 . S
O145 C146 1.182 . S
C146 O144 1.166 . S
C146 O145 1.182 . S
O147 Zn132 2.080 . S
O147 C150 1.305 . S
O148 Zn131 1.920 . S
O148 C150 1.234 . S
C149 O135 1.305 . S
C149 O136 1.234 . S
C150 O147 1.305 . S
C150 O148 1.234 . S
Zn151 O157 1.920 . S
Zn151 O163 1.898 . S
Zn151 O166 1.905 . S
Zn152 O160 1.905 1_655 S
Zn152 O161 1.898 . S
Zn152 O169 1.920 . S
Zn153 O156 2.080 1_554 S
Zn153 O159 2.114 . S
Zn153 O162 2.120 1_454 S
Zn153 O164 2.120 . S
Zn153 O165 2.114 1_554 S
Zn153 O168 2.080 . S
C154 O159 1.166 . S
C154 O160 1.182 . S
C155 O161 1.167 1_556 S
C155 O162 1.299 . S
O156 Zn153 2.080 1_556 S
O156 C170 1.305 . S
O157 Zn151 1.920 . S
O157 C170 1.234 . S
C158 O163 1.167 1_554 S
C158 O164 1.299 . S
O159 Zn153 2.114 . S
O159 C154 1.166 . S
O160 Zn152 1.905 1_455 S
O160 C154 1.182 . S
O161 Zn152 1.898 . S
O161 C155 1.167 1_554 S
O162 Zn153 2.120 1_656 S
O162 C155 1.299 . S
O163 Zn151 1.898 . S
O163 C158 1.167 1_556 S
O164 Zn153 2.120 . S
O164 C158 1.299 . S
O165 Zn153 2.114 1_556 S
O165 C167 1.166 . S
O166 Zn151 1.905 . S
O166 C167 1.182 . S
C167 O165 1.166 . S
C167 O166 1.182 . S
O168 Zn153 2.080 . S
O168 C171 1.305 1_455 S
O169 Zn152 1.920 . S
O169 C171 1.234 . S
C170 O156 1.305 . S
C170 O157 1.234 . S
C171 O168 1.305 1_655 S
C171 O169 1.234 . S
H172 C180 0.950 . S
H173 C185 0.950 . S
H174 C182 0.950 . S
H175 C184 0.950 . S
H176 C186 0.950 . S
H177 C188 0.950 . S
H178 C190 0.950 . S
H179 C191 0.950 . S
C180 H172 0.950 . S
C180 C181 1.386 . S
C180 C182 1.391 . S
C181 C180 1.386 . S
C181 C185 1.393 . S
C182 H174 0.950 . S
C182 C180 1.391 . S
C182 C183 1.400 . S
C183 C182 1.400 . S
C183 C184 1.398 . S
C183 C189 1.491 . S
C184 H175 0.950 . S
C184 C183 1.398 . S
C184 C185 1.391 . S
C185 H173 0.950 . S
C185 C181 1.393 . S
C185 C184 1.391 . S
C186 H176 0.950 . S
C186 C187 1.386 . S
C186 C188 1.391 . S
C187 C186 1.386 . S
C187 C191 1.393 . S
C188 H177 0.950 . S
C188 C186 1.391 . S
C188 C189 1.400 . S
C189 C183 1.491 . S
C189 C188 1.400 . S
C189 C190 1.398 . S
C190 H178 0.950 . S
C190 C189 1.398 . S
C190 C191 1.391 . S
C191 H179 0.950 . S
C191 C187 1.393 . S
C191 C190 1.391 . S
H192 C200 0.950 . S
H193 C205 0.950 . S
H194 C202 0.950 . S
H195 C204 0.950 . S
H196 C206 0.950 . S
H197 C208 0.950 . S
H198 C210 0.950 . S
H199 C211 0.950 . S
C200 H192 0.950 . S
C200 C201 1.386 . S
C200 C202 1.391 . S
C201 C200 1.386 . S
C201 C205 1.393 . S
C202 H194 0.950 . S
C202 C200 1.391 . S
C202 C203 1.400 . S
C203 C202 1.400 . S
C203 C204 1.398 . S
C203 C209 1.491 . S
C204 H195 0.950 . S
C204 C203 1.398 . S
C204 C205 1.391 . S
C205 H193 0.950 . S
C205 C201 1.393 . S
C205 C204 1.391 . S
C206 H196 0.950 . S
C206 C207 1.386 . S
C206 C208 1.391 . S
C207 C206 1.386 . S
C207 C211 1.393 . S
C208 H197 0.950 . S
C208 C206 1.391 . S
C208 C209 1.400 . S
C209 C203 1.491 . S
C209 C208 1.400 . S
C209 C210 1.398 . S
C210 H198 0.950 . S
C210 C209 1.398 . S
C210 C211 1.391 . S
C211 H199 0.950 . S
C211 C207 1.393 . S
C211 C210 1.391 . S
H212 C220 0.950 . S
H213 C225 0.950 . S
H214 C222 0.950 . S
H215 C224 0.950 . S
H216 C226 0.950 . S
H217 C228 0.950 . S
H218 C230 0.950 . S
H219 C231 0.950 . S
C220 H212 0.950 . S
C220 C221 1.386 . S
C220 C222 1.391 . S
C221 C220 1.386 . S
C221 C225 1.393 . S
C222 H214 0.950 . S
C222 C220 1.391 . S
C222 C223 1.400 . S
C223 C222 1.400 . S
C223 C224 1.398 . S
C223 C229 1.491 . S
C224 H215 0.950 . S
C224 C223 1.398 . S
C224 C225 1.391 . S
C225 H213 0.950 . S
C225 C221 1.393 . S
C225 C224 1.391 . S
C226 H216 0.950 . S
C226 C227 1.386 . S
C226 C228 1.391 . S
C227 C226 1.386 . S
C227 C231 1.393 . S
C228 H217 0.950 . S
C228 C226 1.391 . S
C228 C229 1.400 . S
C229 C223 1.491 . S
C229 C228 1.400 . S
C229 C230 1.398 . S
C230 H218 0.950 . S
C230 C229 1.398 . S
C230 C231 1.391 . S
C231 H219 0.950 . S
C231 C227 1.393 . S
C231 C230 1.391 . S
H232 C240 0.950 . S
H233 C245 0.950 . S
H234 C242 0.950 . S
H235 C244 0.950 . S
H236 C246 0.950 . S
H237 C248 0.950 . S
H238 C250 0.950 . S
H239 C251 0.950 1_455 S
C240 H232 0.950 . S
C240 C241 1.386 . S
C240 C242 1.391 . S
C241 C240 1.386 . S
C241 C245 1.393 . S
C242 H234 0.950 . S
C242 C240 1.391 . S
C242 C243 1.400 . S
C243 C242 1.400 . S
C243 C244 1.398 . S
C243 C249 1.491 . S
C244 H235 0.950 . S
C244 C243 1.398 . S
C244 C245 1.391 . S
C245 H233 0.950 . S
C245 C241 1.393 . S
C245 C244 1.391 . S
C246 H236 0.950 . S
C246 C247 1.386 . S
C246 C248 1.391 . S
C247 C246 1.386 . S
C247 C251 1.393 . S
C248 H237 0.950 . S
C248 C246 1.391 . S
C248 C249 1.400 . S
C249 C243 1.491 . S
C249 C248 1.400 . S
C249 C250 1.398 . S
C250 H238 0.950 . S
C250 C249 1.398 . S
C250 C251 1.391 . S
C251 H239 0.950 1_655 S
C251 C247 1.393 . S
C251 C250 1.391 . S
H252 C260 0.950 . S
H253 C265 0.950 . S
H254 C262 0.950 . S
H255 C264 0.950 . S
H256 C266 0.950 . S
H257 C268 0.950 . S
H258 C270 0.950 . S
H259 C271 0.950 . S
C260 H252 0.950 . S
C260 C261 1.386 . S
C260 C262 1.391 . S
C261 C260 1.386 . S
C261 C265 1.393 . S
C262 H254 0.950 . S
C262 C260 1.391 . S
C262 C263 1.400 . S
C263 C262 1.400 . S
C263 C264 1.398 . S
C263 C269 1.491 . S
C264 H255 0.950 . S
C264 C263 1.398 . S
C264 C265 1.391 . S
C265 H253 0.950 . S
C265 C261 1.393 . S
C265 C264 1.391 . S
C266 H256 0.950 . S
C266 C267 1.386 . S
C266 C268 1.391 . S
C267 C266 1.386 . S
C267 C271 1.393 . S
C268 H257 0.950 . S
C268 C266 1.391 . S
C268 C269 1.400 . S
C269 C263 1.491 . S
C269 C268 1.400 . S
C269 C270 1.398 . S
C270 H258 0.950 . S
C270 C269 1.398 . S
C270 C271 1.391 . S
C271 H259 0.950 . S
C271 C267 1.393 . S
C271 C270 1.391 . S
H272 C280 0.950 . S
H273 C285 0.950 . S
H274 C282 0.950 . S
H275 C284 0.950 . S
H276 C286 0.950 . S
H277 C288 0.954 . S
H278 C290 0.950 . S
H279 C291 0.950 . S
C280 H272 0.950 . S
C280 C281 1.386 . S
C280 C282 1.391 . S
C281 C280 1.386 . S
C281 C285 1.393 . S
C282 H274 0.950 . S
C282 C280 1.391 . S
C282 C283 1.400 . S
C283 C282 1.400 . S
C283 C284 1.398 . S
C283 C289 1.491 . S
C284 H275 0.950 . S
C284 C283 1.398 . S
C284 C285 1.391 . S
C285 H273 0.950 . S
C285 C281 1.393 . S
C285 C284 1.391 . S
C286 H276 0.950 . S
C286 C287 1.386 1_545 S
C286 C288 1.391 1_545 S
C287 C286 1.386 1_565 S
C287 C291 1.393 . S
C288 H277 0.954 . S
C288 C286 1.391 1_565 S
C288 C289 1.400 . S
C289 C283 1.491 . S
C289 C288 1.400 . S
C289 C290 1.398 . S
C290 H278 0.950 . S
C290 C289 1.398 . S
C290 C291 1.391 . S
C291 H279 0.950 . S
C291 C287 1.393 . S
C291 C290 1.391 . S
H292 C300 0.950 . S
H293 C305 0.950 . S
H294 C302 0.950 . S
H295 C304 0.950 . S
H296 C306 0.950 1_554 S
H297 C308 0.950 . S
H298 C310 0.950 . S
H299 C311 0.950 . S
C300 H292 0.950 . S
C300 C301 1.386 . S
C300 C302 1.391 . S
C301 C300 1.386 . S
C301 C305 1.393 . S
C302 H294 0.950 . S
C302 C300 1.391 . S
C302 C303 1.400 . S
C303 C302 1.400 . S
C303 C304 1.398 . S
C303 C309 1.491 . S
C304 H295 0.950 . S
C304 C303 1.398 . S
C304 C305 1.391 . S
C305 H293 0.950 . S
C305 C301 1.393 . S
C305 C304 1.391 . S
C306 H296 0.950 1_556 S
C306 C307 1.386 . S
C306 C308 1.391 . S
C307 C306 1.386 . S
C307 C311 1.393 . S
C308 H297 0.950 . S
C308 C306 1.391 . S
C308 C309 1.400 . S
C309 C303 1.491 . S
C309 C308 1.400 . S
C309 C310 1.398 . S
C310 H298 0.950 . S
C310 C309 1.398 . S
C310 C311 1.391 . S
C311 H299 0.950 . S
C311 C307 1.393 . S
C311 C310 1.391 . S
H312 C320 0.950 . S
H313 C325 0.950 . S
H314 C322 0.950 . S
H315 C324 0.950 . S
H316 C326 0.950 . S
H317 C328 0.950 . S
H318 C330 0.950 . S
H319 C331 0.950 . S
C320 H312 0.950 . S
C320 C321 1.386 . S
C320 C322 1.391 . S
C321 C320 1.386 . S
C321 C325 1.393 . S
C322 H314 0.950 . S
C322 C320 1.391 . S
C322 C323 1.400 . S
C323 C322 1.400 . S
C323 C324 1.398 . S
C323 C329 1.491 . S
C324 H315 0.950 . S
C324 C323 1.398 . S
C324 C325 1.391 . S
C325 H313 0.950 . S
C325 C321 1.393 . S
C325 C324 1.391 . S
C326 H316 0.950 . S
C326 C327 1.386 . S
C326 C328 1.391 . S
C327 C326 1.386 . S
C327 C331 1.393 . S
C328 H317 0.950 . S
C328 C326 1.391 . S
C328 C329 1.400 . S
C329 C323 1.491 . S
C329 C328 1.400 . S
C329 C330 1.398 . S
C330 H318 0.950 . S
C330 C329 1.398 . S
C330 C331 1.391 . S
C331 H319 0.950 . S
C331 C327 1.393 . S
C331 C330 1.391 . S
H332 C340 0.950 . S
H333 C345 0.950 . S
H334 C342 0.950 . S
H335 C344 0.950 . S
H336 C346 0.950 . S
H337 C348 0.950 . S
H338 C350 0.950 . S
H339 C351 0.950 . S
C340 H332 0.950 . S
C340 C341 1.386 . S
C340 C342 1.391 . S
C341 C340 1.386 . S
C341 C345 1.393 . S
C342 H334 0.950 . S
C342 C340 1.391 . S
C342 C343 1.400 . S
C343 C342 1.400 . S
C343 C344 1.398 . S
C343 C349 1.491 . S
C344 H335 0.950 . S
C344 C343 1.398 . S
C344 C345 1.391 . S
C345 H333 0.950 . S
C345 C341 1.393 . S
C345 C344 1.391 . S
C346 H336 0.950 . S
C346 C347 1.386 . S
C346 C348 1.391 . S
C347 C346 1.386 . S
C347 C351 1.393 . S
C348 H337 0.950 . S
C348 C346 1.391 . S
C348 C349 1.400 . S
C349 C343 1.491 . S
C349 C348 1.400 . S
C349 C350 1.398 . S
C350 H338 0.950 . S
C350 C349 1.398 . S
C350 C351 1.391 . S
C351 H339 0.950 . S
C351 C347 1.393 . S
C351 C350 1.391 . S
H352 C360 0.950 . S
H353 C365 0.950 . S
H354 C362 0.950 . S
H355 C364 0.950 . S
H356 C366 0.950 . S
H357 C368 0.950 . S
H358 C370 0.950 . S
H359 C371 0.950 . S
C360 H352 0.950 . S
C360 C361 1.386 . S
C360 C362 1.391 . S
C361 C360 1.386 . S
C361 C365 1.393 . S
C362 H354 0.950 . S
C362 C360 1.391 . S
C362 C363 1.400 . S
C363 C362 1.400 . S
C363 C364 1.398 . S
C363 C369 1.491 . S
C364 H355 0.950 . S
C364 C363 1.398 . S
C364 C365 1.391 . S
C365 H353 0.950 . S
C365 C361 1.393 . S
C365 C364 1.391 . S
C366 H356 0.950 . S
C366 C367 1.386 1_556 S
C366 C368 1.391 . S
C367 C366 1.386 1_554 S
C367 C371 1.393 . S
C368 H357 0.950 . S
C368 C366 1.391 . S
C368 C369 1.400 . S
C369 C363 1.491 . S
C369 C368 1.400 . S
C369 C370 1.398 . S
C370 H358 0.950 . S
C370 C369 1.398 . S
C370 C371 1.391 1_556 S
C371 H359 0.950 . S
C371 C367 1.393 . S
C371 C370 1.391 1_554 S
H372 C380 0.950 . S
H373 C385 0.950 . S
H374 C382 0.950 . S
H375 C384 0.950 . S
H376 C386 0.950 . S
H377 C388 0.950 . S
H378 C390 0.950 . S
H379 C391 0.950 . S
C380 H372 0.950 . S
C380 C381 1.386 . S
C380 C382 1.391 . S
C381 C380 1.386 . S
C381 C385 1.393 . S
C382 H374 0.950 . S
C382 C380 1.391 . S
C382 C383 1.400 . S
C383 C382 1.400 . S
C383 C384 1.398 . S
C383 C389 1.491 . S
C384 H375 0.950 . S
C384 C383 1.398 . S
C384 C385 1.391 . S
C385 H373 0.950 . S
C385 C381 1.393 . S
C385 C384 1.391 . S
C386 H376 0.950 . S
C386 C387 1.386 . S
C386 C388 1.391 . S
C387 C386 1.386 . S
C387 C391 1.393 . S
C388 H377 0.950 . S
C388 C386 1.391 . S
C388 C389 1.400 . S
C389 C383 1.491 . S
C389 C388 1.400 . S
C389 C390 1.398 . S
C390 H378 0.950 . S
C390 C389 1.398 . S
C390 C391 1.391 . S
C391 H379 0.950 . S
C391 C387 1.393 . S
C391 C390 1.391 . S
H392 C400 0.950 . S
H393 C405 0.950 . S
H394 C402 0.950 . S
H395 C404 0.950 . S
H396 C406 0.950 . S
H397 C408 0.950 . S
H398 C410 0.950 . S
H399 C411 0.950 . S
C400 H392 0.950 . S
C400 C401 1.386 . S
C400 C402 1.391 . S
C401 C400 1.386 . S
C401 C405 1.393 . S
C402 H394 0.950 . S
C402 C400 1.391 . S
C402 C403 1.400 . S
C403 C402 1.400 . S
C403 C404 1.398 . S
C403 C409 1.491 . S
C404 H395 0.950 . S
C404 C403 1.398 . S
C404 C405 1.391 . S
C405 H393 0.950 . S
C405 C401 1.393 . S
C405 C404 1.391 . S
C406 H396 0.950 . S
C406 C407 1.386 . S
C406 C408 1.391 . S
C407 C406 1.386 . S
C407 C411 1.393 . S
C408 H397 0.950 . S
C408 C406 1.391 . S
C408 C409 1.400 . S
C409 C403 1.491 . S
C409 C408 1.400 . S
C409 C410 1.398 . S
C410 H398 0.950 . S
C410 C409 1.398 . S
C410 C411 1.391 . S
C411 H399 0.950 . S
C411 C407 1.393 . S
C411 C410 1.391 . S
H412 C420 0.950 . S
H413 C425 0.950 . S
H414 C422 0.950 . S
H415 C424 0.950 . S
H416 C426 0.950 . S
H417 C428 0.950 . S
H418 C430 0.950 . S
H419 C431 0.953 . S
C420 H412 0.950 . S
C420 C421 1.386 . S
C420 C422 1.391 . S
C421 C420 1.386 . S
C421 C425 1.393 1_565 S
C422 H414 0.950 . S
C422 C420 1.391 . S
C422 C423 1.400 . S
C423 C422 1.400 . S
C423 C424 1.398 1_565 S
C423 C429 1.491 1_565 S
C424 H415 0.950 . S
C424 C423 1.398 1_545 S
C424 C425 1.391 . S
C425 H413 0.950 . S
C425 C421 1.393 1_545 S
C425 C424 1.391 . S
C426 H416 0.950 . S
C426 C427 1.386 . S
C426 C428 1.391 . S
C427 C426 1.386 . S
C427 C431 1.393 1_545 S
C428 H417 0.950 . S
C428 C426 1.391 . S
C428 C429 1.400 . S
C429 C423 1.491 1_545 S
C429 C428 1.400 . S
C429 C430 1.398 1_545 S
C430 H418 0.950 . S
C430 C429 1.398 1_565 S
C430 C431 1.391 . S
C431 H419 0.953 . S
C431 C427 1.393 1_565 S
C431 C430 1.391 . S
H432 C440 0.950 . S
H433 C445 0.950 . S
H434 C442 0.950 . S
H435 C444 0.950 . S
H436 C446 0.950 . S
H437 C448 0.950 . S
H438 C450 0.950 . S
H439 C451 0.950 1_565 S
C440 H432 0.950 . S
C440 C441 1.386 . S
C440 C442 1.391 . S
C441 C440 1.386 . S
C441 C445 1.393 . S
C442 H434 0.950 . S
C442 C440 1.391 . S
C442 C443 1.400 . S
C443 C442 1.400 . S
C443 C444 1.398 . S
C443 C449 1.491 . S
C444 H435 0.950 . S
C444 C443 1.398 . S
C444 C445 1.391 . S
C445 H433 0.950 . S
C445 C441 1.393 . S
C445 C444 1.391 . S
C446 H436 0.950 . S
C446 C447 1.386 . S
C446 C448 1.391 . S
C447 C446 1.386 . S
C447 C451 1.393 . S
C448 H437 0.950 . S
C448 C446 1.391 . S
C448 C449 1.400 . S
C449 C443 1.491 . S
C449 C448 1.400 . S
C449 C450 1.398 . S
C450 H438 0.950 . S
C450 C449 1.398 . S
C450 C451 1.391 . S
C451 H439 0.950 1_545 S
C451 C447 1.393 . S
C451 C450 1.391 . S
H452 C460 0.950 . S
H453 C465 0.950 . S
H454 C462 0.950 . S
H455 C464 0.950 . S
H456 C466 0.950 . S
H457 C468 0.950 . S
H458 C470 0.950 . S
H459 C471 0.950 . S
C460 H452 0.950 . S
C460 C461 1.386 . S
C460 C462 1.391 . S
C461 C460 1.386 . S
C461 C465 1.393 . S
C462 H454 0.950 . S
C462 C460 1.391 . S
C462 C463 1.400 . S
C463 C462 1.400 . S
C463 C464 1.398 . S
C463 C469 1.491 . S
C464 H455 0.950 . S
C464 C463 1.398 . S
C464 C465 1.391 . S
C465 H453 0.950 . S
C465 C461 1.393 . S
C465 C464 1.391 . S
C466 H456 0.950 . S
C466 C467 1.386 . S
C466 C468 1.391 . S
C467 C466 1.386 . S
C467 C471 1.393 . S
C468 H457 0.950 . S
C468 C466 1.391 . S
C468 C469 1.400 . S
C469 C463 1.491 . S
C469 C468 1.400 . S
C469 C470 1.398 . S
C470 H458 0.950 . S
C470 C469 1.398 . S
C470 C471 1.391 . S
C471 H459 0.950 . S
C471 C467 1.393 . S
C471 C470 1.391 . S
H472 C480 0.950 . S
H473 C485 0.950 . S
H474 C482 0.950 . S
H475 C484 0.950 . S
H476 C486 0.950 . S
H477 C488 0.950 . S
H478 C490 0.950 . S
H479 C491 0.950 . S
C480 H472 0.950 . S
C480 C481 1.386 . S
C480 C482 1.391 . S
C481 C480 1.386 . S
C481 C485 1.393 . S
C482 H474 0.950 . S
C482 C480 1.391 . S
C482 C483 1.400 . S
C483 C482 1.400 . S
C483 C484 1.398 . S
C483 C489 1.491 . S
C484 H475 0.950 . S
C484 C483 1.398 . S
C484 C485 1.391 . S
C485 H473 0.950 . S
C485 C481 1.393 . S
C485 C484 1.391 . S
C486 H476 0.950 . S
C486 C487 1.386 . S
C486 C488 1.391 . S
C487 C486 1.386 . S
C487 C491 1.393 . S
C488 H477 0.950 . S
C488 C486 1.391 . S
C488 C489 1.400 . S
C489 C483 1.491 . S
C489 C488 1.400 . S
C489 C490 1.398 . S
C490 H478 0.950 . S
C490 C489 1.398 . S
C490 C491 1.391 . S
C491 H479 0.950 . S
C491 C487 1.393 . S
C491 C490 1.391 . S
H492 C500 0.950 . S
H493 C505 0.950 . S
H494 C502 0.950 . S
H495 C504 0.950 . S
H496 C506 0.950 . S
H497 C508 0.950 . S
H498 C510 0.950 1_556 S
H499 C511 0.950 . S
C500 H492 0.950 . S
C500 C501 1.377 1_556 S
C500 C502 1.391 . S
C501 C500 1.377 1_554 S
C501 C505 1.409 1_565 S
C502 H494 0.950 . S
C502 C500 1.391 . S
C502 C503 1.415 1_556 S
C503 C502 1.415 1_554 S
C503 C504 1.388 1_565 S
C503 C509 1.487 1_565 S
C504 H495 0.950 . S
C504 C503 1.388 1_545 S
C504 C505 1.391 . S
C505 H493 0.950 . S
C505 C501 1.409 1_545 S
C505 C504 1.391 . S
C506 H496 0.950 . S
C506 C507 1.386 . S
C506 C508 1.391 . S
C507 C506 1.386 . S
C507 C511 1.393 1_545 S
C508 H497 0.950 . S
C508 C506 1.391 . S
C508 C509 1.400 . S
C509 C503 1.487 1_545 S
C509 C508 1.400 . S
C509 C510 1.398 1_545 S
C510 H498 0.950 1_554 S
C510 C509 1.398 1_565 S
C510 C511 1.391 . S
C511 H499 0.950 . S
C511 C507 1.393 1_565 S
C511 C510 1.391 . S
H512 C520 0.950 . S
H513 C525 0.950 . S
H514 C522 0.950 . S
H515 C524 0.950 . S
H516 C526 0.950 . S
H517 C528 0.950 . S
H518 C530 0.950 . S
H519 C531 0.950 . S
C520 H512 0.950 . S
C520 C521 1.386 . S
C520 C522 1.391 . S
C521 C520 1.386 . S
C521 C525 1.393 . S
C522 H514 0.950 . S
C522 C520 1.391 . S
C522 C523 1.400 . S
C523 C522 1.400 . S
C523 C524 1.398 . S
C523 C529 1.491 . S
C524 H515 0.950 . S
C524 C523 1.398 . S
C524 C525 1.391 . S
C525 H513 0.950 . S
C525 C521 1.393 . S
C525 C524 1.391 . S
C526 H516 0.950 . S
C526 C527 1.386 . S
C526 C528 1.391 . S
C527 C526 1.386 . S
C527 C531 1.393 . S
C528 H517 0.950 . S
C528 C526 1.391 . S
C528 C529 1.400 . S
C529 C523 1.491 . S
C529 C528 1.400 . S
C529 C530 1.398 . S
C530 H518 0.950 . S
C530 C529 1.398 . S
C530 C531 1.391 . S
C531 H519 0.950 . S
C531 C527 1.393 . S
C531 C530 1.391 . S
H532 C540 0.950 . S
H533 C545 0.950 . S
H534 C542 0.950 . S
H535 C544 0.950 . S
H536 C546 0.950 . S
H537 C548 0.950 . S
H538 C550 0.950 . S
H539 C551 0.950 . S
C540 H532 0.950 . S
C540 C541 1.386 . S
C540 C542 1.391 . S
C541 C540 1.386 . S
C541 C545 1.393 . S
C542 H534 0.950 . S
C542 C540 1.391 . S
C542 C543 1.400 . S
C543 C542 1.400 . S
C543 C544 1.398 . S
C543 C549 1.491 . S
C544 H535 0.950 . S
C544 C543 1.398 . S
C544 C545 1.391 . S
C545 H533 0.950 . S
C545 C541 1.393 . S
C545 C544 1.391 . S
C546 H536 0.950 . S
C546 C547 1.386 . S
C546 C548 1.391 . S
C547 C546 1.386 . S
C547 C551 1.393 . S
C548 H537 0.950 . S
C548 C546 1.391 . S
C548 C549 1.400 . S
C549 C543 1.491 . S
C549 C548 1.400 . S
C549 C550 1.398 . S
C550 H538 0.950 . S
C550 C549 1.398 . S
C550 C551 1.391 . S
C551 H539 0.950 . S
C551 C547 1.393 . S
C551 C550 1.391 . S
H552 C560 0.950 . S
H553 C565 0.950 . S
H554 C562 0.950 . S
H555 C564 0.950 . S
H556 C566 0.950 . S
H557 C568 0.950 . S
H558 C570 0.950 . S
H559 C571 0.950 . S
C560 H552 0.950 . S
C560 C561 1.386 . S
C560 C562 1.391 . S
C561 C560 1.386 . S
C561 C565 1.393 . S
C562 H554 0.950 . S
C562 C560 1.391 . S
C562 C563 1.400 . S
C563 C562 1.400 . S
C563 C564 1.398 . S
C563 C569 1.491 . S
C564 H555 0.950 . S
C564 C563 1.398 . S
C564 C565 1.391 . S
C565 H553 0.950 . S
C565 C561 1.393 . S
C565 C564 1.391 . S
C566 H556 0.950 . S
C566 C567 1.386 . S
C566 C568 1.391 . S
C567 C566 1.386 . S
C567 C571 1.393 . S
C568 H557 0.950 . S
C568 C566 1.391 . S
C568 C569 1.400 . S
C569 C563 1.491 . S
C569 C568 1.400 . S
C569 C570 1.398 . S
C570 H558 0.950 . S
C570 C569 1.398 . S
C570 C571 1.391 . S
C571 H559 0.950 . S
C571 C567 1.393 . S
C571 C570 1.391 . S
H572 C580 0.950 . S
H573 C585 0.950 1_554 S
H574 C582 0.950 . S
H575 C584 0.950 1_455 S
H576 C586 0.950 . S
H577 C588 0.950 . S
H578 C590 0.950 1_655 S
H579 C591 0.950 . S
C580 H572 0.950 . S
C580 C581 1.386 . S
C580 C582 1.391 . S
C581 C580 1.386 . S
C581 C585 1.393 . S
C582 H574 0.950 . S
C582 C580 1.391 . S
C582 C583 1.400 . S
C583 C582 1.400 . S
C583 C584 1.398 1_556 S
C583 C589 1.491 1_655 S
C584 H575 0.950 1_655 S
C584 C583 1.398 1_554 S
C584 C585 1.391 1_554 S
C585 H573 0.950 1_556 S
C585 C581 1.393 . S
C585 C584 1.391 1_556 S
C586 H576 0.950 . S
C586 C587 1.386 1_554 S
C586 C588 1.391 . S
C587 C586 1.386 1_556 S
C587 C591 1.393 . S
C588 H577 0.950 . S
C588 C586 1.391 . S
C588 C589 1.400 1_554 S
C589 C583 1.491 1_455 S
C589 C588 1.400 1_556 S
C589 C590 1.398 . S
C590 H578 0.950 1_455 S
C590 C589 1.398 . S
C590 C591 1.391 . S
C591 H579 0.950 . S
C591 C587 1.393 . S
C591 C590 1.391 . S
H592 C600 0.950 . S
H593 C605 0.950 . S
H594 C602 0.950 . S
H595 C604 0.950 . S
H596 C606 0.950 . S
H597 C608 0.950 . S
H598 C610 0.950 . S
H599 C611 0.950 . S
C600 H592 0.950 . S
C600 C601 1.386 . S
C600 C602 1.391 . S
C601 C600 1.386 . S
C601 C605 1.393 . S
C602 H594 0.950 . S
C602 C600 1.391 . S
C602 C603 1.400 . S
C603 C602 1.400 . S
C603 C604 1.398 . S
C603 C609 1.491 . S
C604 H595 0.950 . S
C604 C603 1.398 . S
C604 C605 1.391 . S
C605 H593 0.950 . S
C605 C601 1.393 . S
C605 C604 1.391 . S
C606 H596 0.950 . S
C606 C607 1.386 . S
C606 C608 1.391 . S
C607 C606 1.386 . S
C607 C611 1.393 . S
C608 H597 0.950 . S
C608 C606 1.391 . S
C608 C609 1.400 . S
C609 C603 1.491 . S
C609 C608 1.400 . S
C609 C610 1.398 . S
C610 H598 0.950 . S
C610 C609 1.398 . S
C610 C611 1.391 . S
C611 H599 0.950 . S
C611 C607 1.393 . S
C611 C610 1.391 . S
H612 C620 0.950 . S
H613 C625 0.950 . S
H614 C622 0.950 . S
H615 C624 0.950 . S
H616 C626 0.950 . S
H617 C628 0.950 . S
H618 C630 0.950 . S
H619 C631 0.950 . S
C620 H612 0.950 . S
C620 C621 1.386 . S
C620 C622 1.391 . S
C621 C620 1.386 . S
C621 C625 1.393 . S
C622 H614 0.950 . S
C622 C620 1.391 . S
C622 C623 1.400 . S
C623 C622 1.400 . S
C623 C624 1.398 . S
C623 C629 1.491 . S
C624 H615 0.950 . S
C624 C623 1.398 . S
C624 C625 1.391 . S
C625 H613 0.950 . S
C625 C621 1.393 . S
C625 C624 1.391 . S
C626 H616 0.950 . S
C626 C627 1.386 . S
C626 C628 1.391 . S
C627 C626 1.386 . S
C627 C631 1.393 . S
C628 H617 0.950 . S
C628 C626 1.391 . S
C628 C629 1.400 . S
C629 C623 1.491 . S
C629 C628 1.400 . S
C629 C630 1.398 . S
C630 H618 0.950 . S
C630 C629 1.398 . S
C630 C631 1.391 . S
C631 H619 0.950 . S
C631 C627 1.393 . S
C631 C630 1.391 . S
H632 C640 0.950 . S
H633 C645 0.950 . S
H634 C642 0.950 . S
H635 C644 0.950 . S
H636 C646 0.950 . S
H637 C648 0.950 . S
H638 C650 0.950 . S
H639 C651 0.950 . S
C640 H632 0.950 . S
C640 C641 1.386 . S
C640 C642 1.391 . S
C641 C640 1.386 . S
C641 C645 1.393 . S
C642 H634 0.950 . S
C642 C640 1.391 . S
C642 C643 1.400 . S
C643 C642 1.400 . S
C643 C644 1.398 . S
C643 C649 1.491 . S
C644 H635 0.950 . S
C644 C643 1.398 . S
C644 C645 1.391 . S
C645 H633 0.950 . S
C645 C641 1.393 . S
C645 C644 1.391 . S
C646 H636 0.950 . S
C646 C647 1.386 . S
C646 C648 1.391 . S
C647 C646 1.386 . S
C647 C651 1.393 . S
C648 H637 0.950 . S
C648 C646 1.391 . S
C648 C649 1.400 . S
C649 C643 1.491 . S
C649 C648 1.400 . S
C649 C650 1.398 . S
C650 H638 0.950 . S
C650 C649 1.398 . S
C650 C651 1.391 . S
C651 H639 0.950 . S
C651 C647 1.393 . S
C651 C650 1.391 . S
C181 C4 1.721 . S
C187 C91 1.590 . S
C201 C16 1.827 . S
C207 C125 1.675 . S
C227 C137 1.075 . S
C221 C32 1.118 . S
C241 C43 1.365 . S
C247 C171 1.274 . S
C267 C128 1.829 . S
C261 C5 1.982 . S
C287 C108 1.241 . S
C281 C21 1.325 . S
C307 C155 1.274 . S
C301 C27 1.396 . S
C327 C146 1.382 . S
C321 C37 1.428 . S
C341 C10 1.576 . S
C347 C154 1.485 . S
C367 C116 1.493 . S
C361 C26 1.606 . S
C381 C38 1.281 . S
C387 C92 1.203 . S
C401 C15 1.675 . S
C407 C149 1.572 . S
C427 C107 1.793 . S
C421 C48 1.897 . S
C441 C59 1.671 . S
C447 C129 1.551 . S
C461 C76 1.478 . S
C467 C134 1.399 . S
C481 C87 1.335 . S
C487 C167 1.268 . S
C501 C54 1.464 1_554 S
C507 C112 1.428 1_545 S
C527 C104 1.824 . S
C521 C60 1.963 . S
C547 C158 1.449 . S
C541 C71 1.471 . S
C567 C150 1.354 . S
C561 C82 1.451 . S
C581 C49 1.827 . S
C587 C170 1.734 . S
C607 C113 1.246 . S
C601 C70 1.343 . S
C627 C95 1.519 . S
C621 C81 1.655 . S
C641 C65 1.569 . S
C647 C133 1.468 . S
