# Generated by pormake.
# Topology tbo, (3,4)-cn, num edge types: 1
# Building blocks:
#     Node 0, Type 0, BuildingBlock: KAKCAD_clean_linker_0, # of connection points: 3
#     Node 1, Type 0, BuildingBlock: KAKCAD_clean_linker_0, # of connection points: 3
#     Node 2, Type 0, BuildingBlock: KAKCAD_clean_linker_0, # of connection points: 3
#     Node 3, Type 0, BuildingBlock: KAKCAD_clean_linker_0, # of connection points: 3
#     Node 4, Type 0, BuildingBlock: KAKCAD_clean_linker_0, # of connection points: 3
#     Node 5, Type 0, BuildingBlock: KAKCAD_clean_linker_0, # of connection points: 3
#     Node 6, Type 0, BuildingBlock: KAKCAD_clean_linker_0, # of connection points: 3
#     Node 7, Type 0, BuildingBlock: KAKCAD_clean_linker_0, # of connection points: 3
#     Node 8, Type 0, BuildingBlock: KAKCAD_clean_linker_0, # of connection points: 3
#     Node 9, Type 0, BuildingBlock: KAKCAD_clean_linker_0, # of connection points: 3
#     Node 10, Type 0, BuildingBlock: KAKCAD_clean_linker_0, # of connection points: 3
#     Node 11, Type 0, BuildingBlock: KAKCAD_clean_linker_0, # of connection points: 3
#     Node 12, Type 0, BuildingBlock: KAKCAD_clean_linker_0, # of connection points: 3
#     Node 13, Type 0, BuildingBlock: KAKCAD_clean_linker_0, # of connection points: 3
#     Node 14, Type 0, BuildingBlock: KAKCAD_clean_linker_0, # of connection points: 3
#     Node 15, Type 0, BuildingBlock: KAKCAD_clean_linker_0, # of connection points: 3
#     Node 16, Type 0, BuildingBlock: KAKCAD_clean_linker_0, # of connection points: 3
#     Node 17, Type 0, BuildingBlock: KAKCAD_clean_linker_0, # of connection points: 3
#     Node 18, Type 0, BuildingBlock: KAKCAD_clean_linker_0, # of connection points: 3
#     Node 19, Type 0, BuildingBlock: KAKCAD_clean_linker_0, # of connection points: 3
#     Node 20, Type 0, BuildingBlock: KAKCAD_clean_linker_0, # of connection points: 3
#     Node 21, Type 0, BuildingBlock: KAKCAD_clean_linker_0, # of connection points: 3
#     Node 22, Type 0, BuildingBlock: KAKCAD_clean_linker_0, # of connection points: 3
#     Node 23, Type 0, BuildingBlock: KAKCAD_clean_linker_0, # of connection points: 3
#     Node 24, Type 0, BuildingBlock: KAKCAD_clean_linker_0, # of connection points: 3
#     Node 25, Type 0, BuildingBlock: KAKCAD_clean_linker_0, # of connection points: 3
#     Node 26, Type 0, BuildingBlock: KAKCAD_clean_linker_0, # of connection points: 3
#     Node 27, Type 0, BuildingBlock: KAKCAD_clean_linker_0, # of connection points: 3
#     Node 28, Type 0, BuildingBlock: KAKCAD_clean_linker_0, # of connection points: 3
#     Node 29, Type 0, BuildingBlock: KAKCAD_clean_linker_0, # of connection points: 3
#     Node 30, Type 0, BuildingBlock: KAKCAD_clean_linker_0, # of connection points: 3
#     Node 31, Type 0, BuildingBlock: KAKCAD_clean_linker_0, # of connection points: 3
#     Node 32, Type 1, BuildingBlock: ESEHIV_clean_sbu_0, # of connection points: 4
#     Node 33, Type 1, BuildingBlock: ESEHIV_clean_sbu_0, # of connection points: 4
#     Node 34, Type 1, BuildingBlock: ESEHIV_clean_sbu_0, # of connection points: 4
#     Node 35, Type 1, BuildingBlock: ESEHIV_clean_sbu_0, # of connection points: 4
#     Node 36, Type 1, BuildingBlock: ESEHIV_clean_sbu_0, # of connection points: 4
#     Node 37, Type 1, BuildingBlock: ESEHIV_clean_sbu_0, # of connection points: 4
#     Node 38, Type 1, BuildingBlock: ESEHIV_clean_sbu_0, # of connection points: 4
#     Node 39, Type 1, BuildingBlock: ESEHIV_clean_sbu_0, # of connection points: 4
#     Node 40, Type 1, BuildingBlock: ESEHIV_clean_sbu_0, # of connection points: 4
#     Node 41, Type 1, BuildingBlock: ESEHIV_clean_sbu_0, # of connection points: 4
#     Node 42, Type 1, BuildingBlock: ESEHIV_clean_sbu_0, # of connection points: 4
#     Node 43, Type 1, BuildingBlock: ESEHIV_clean_sbu_0, # of connection points: 4
#     Node 44, Type 1, BuildingBlock: ESEHIV_clean_sbu_0, # of connection points: 4
#     Node 45, Type 1, BuildingBlock: ESEHIV_clean_sbu_0, # of connection points: 4
#     Node 46, Type 1, BuildingBlock: ESEHIV_clean_sbu_0, # of connection points: 4
#     Node 47, Type 1, BuildingBlock: ESEHIV_clean_sbu_0, # of connection points: 4
#     Node 48, Type 1, BuildingBlock: ESEHIV_clean_sbu_0, # of connection points: 4
#     Node 49, Type 1, BuildingBlock: ESEHIV_clean_sbu_0, # of connection points: 4
#     Node 50, Type 1, BuildingBlock: ESEHIV_clean_sbu_0, # of connection points: 4
#     Node 51, Type 1, BuildingBlock: ESEHIV_clean_sbu_0, # of connection points: 4
#     Node 52, Type 1, BuildingBlock: ESEHIV_clean_sbu_0, # of connection points: 4
#     Node 53, Type 1, BuildingBlock: ESEHIV_clean_sbu_0, # of connection points: 4
#     Node 54, Type 1, BuildingBlock: ESEHIV_clean_sbu_0, # of connection points: 4
#     Node 55, Type 1, BuildingBlock: ESEHIV_clean_sbu_0, # of connection points: 4
#     Edge 56, Type (0, 1), BuildingBlock: XIVTED_clean_linker_0, # of connection points: 2
#     Edge 57, Type (0, 1), BuildingBlock: XIVTED_clean_linker_0, # of connection points: 2
#     Edge 58, Type (0, 1), BuildingBlock: XIVTED_clean_linker_0, # of connection points: 2
#     Edge 59, Type (0, 1), BuildingBlock: XIVTED_clean_linker_0, # of connection points: 2
#     Edge 60, Type (0, 1), BuildingBlock: XIVTED_clean_linker_0, # of connection points: 2
#     Edge 61, Type (0, 1), BuildingBlock: XIVTED_clean_linker_0, # of connection points: 2
#     Edge 62, Type (0, 1), BuildingBlock: XIVTED_clean_linker_0, # of connection points: 2
#     Edge 63, Type (0, 1), BuildingBlock: XIVTED_clean_linker_0, # of connection points: 2
#     Edge 64, Type (0, 1), BuildingBlock: XIVTED_clean_linker_0, # of connection points: 2
#     Edge 65, Type (0, 1), BuildingBlock: XIVTED_clean_linker_0, # of connection points: 2
#     Edge 66, Type (0, 1), BuildingBlock: XIVTED_clean_linker_0, # of connection points: 2
#     Edge 67, Type (0, 1), BuildingBlock: XIVTED_clean_linker_0, # of connection points: 2
#     Edge 68, Type (0, 1), BuildingBlock: XIVTED_clean_linker_0, # of connection points: 2
#     Edge 69, Type (0, 1), BuildingBlock: XIVTED_clean_linker_0, # of connection points: 2
#     Edge 70, Type (0, 1), BuildingBlock: XIVTED_clean_linker_0, # of connection points: 2
#     Edge 71, Type (0, 1), BuildingBlock: XIVTED_clean_linker_0, # of connection points: 2
#     Edge 72, Type (0, 1), BuildingBlock: XIVTED_clean_linker_0, # of connection points: 2
#     Edge 73, Type (0, 1), BuildingBlock: XIVTED_clean_linker_0, # of connection points: 2
#     Edge 74, Type (0, 1), BuildingBlock: XIVTED_clean_linker_0, # of connection points: 2
#     Edge 75, Type (0, 1), BuildingBlock: XIVTED_clean_linker_0, # of connection points: 2
#     Edge 76, Type (0, 1), BuildingBlock: XIVTED_clean_linker_0, # of connection points: 2
#     Edge 77, Type (0, 1), BuildingBlock: XIVTED_clean_linker_0, # of connection points: 2
#     Edge 78, Type (0, 1), BuildingBlock: XIVTED_clean_linker_0, # of connection points: 2
#     Edge 79, Type (0, 1), BuildingBlock: XIVTED_clean_linker_0, # of connection points: 2
#     Edge 80, Type (0, 1), BuildingBlock: XIVTED_clean_linker_0, # of connection points: 2
#     Edge 81, Type (0, 1), BuildingBlock: XIVTED_clean_linker_0, # of connection points: 2
#     Edge 82, Type (0, 1), BuildingBlock: XIVTED_clean_linker_0, # of connection points: 2
#     Edge 83, Type (0, 1), BuildingBlock: XIVTED_clean_linker_0, # of connection points: 2
#     Edge 84, Type (0, 1), BuildingBlock: XIVTED_clean_linker_0, # of connection points: 2
#     Edge 85, Type (0, 1), BuildingBlock: XIVTED_clean_linker_0, # of connection points: 2
#     Edge 86, Type (0, 1), BuildingBlock: XIVTED_clean_linker_0, # of connection points: 2
#     Edge 87, Type (0, 1), BuildingBlock: XIVTED_clean_linker_0, # of connection points: 2
#     Edge 88, Type (0, 1), BuildingBlock: XIVTED_clean_linker_0, # of connection points: 2
#     Edge 89, Type (0, 1), BuildingBlock: XIVTED_clean_linker_0, # of connection points: 2
#     Edge 90, Type (0, 1), BuildingBlock: XIVTED_clean_linker_0, # of connection points: 2
#     Edge 91, Type (0, 1), BuildingBlock: XIVTED_clean_linker_0, # of connection points: 2
#     Edge 92, Type (0, 1), BuildingBlock: XIVTED_clean_linker_0, # of connection points: 2
#     Edge 93, Type (0, 1), BuildingBlock: XIVTED_clean_linker_0, # of connection points: 2
#     Edge 94, Type (0, 1), BuildingBlock: XIVTED_clean_linker_0, # of connection points: 2
#     Edge 95, Type (0, 1), BuildingBlock: XIVTED_clean_linker_0, # of connection points: 2
#     Edge 96, Type (0, 1), BuildingBlock: XIVTED_clean_linker_0, # of connection points: 2
#     Edge 97, Type (0, 1), BuildingBlock: XIVTED_clean_linker_0, # of connection points: 2
#     Edge 98, Type (0, 1), BuildingBlock: XIVTED_clean_linker_0, # of connection points: 2
#     Edge 99, Type (0, 1), BuildingBlock: XIVTED_clean_linker_0, # of connection points: 2
#     Edge 100, Type (0, 1), BuildingBlock: XIVTED_clean_linker_0, # of connection points: 2
#     Edge 101, Type (0, 1), BuildingBlock: XIVTED_clean_linker_0, # of connection points: 2
#     Edge 102, Type (0, 1), BuildingBlock: XIVTED_clean_linker_0, # of connection points: 2
#     Edge 103, Type (0, 1), BuildingBlock: XIVTED_clean_linker_0, # of connection points: 2
#     Edge 104, Type (0, 1), BuildingBlock: XIVTED_clean_linker_0, # of connection points: 2
#     Edge 105, Type (0, 1), BuildingBlock: XIVTED_clean_linker_0, # of connection points: 2
#     Edge 106, Type (0, 1), BuildingBlock: XIVTED_clean_linker_0, # of connection points: 2
#     Edge 107, Type (0, 1), BuildingBlock: XIVTED_clean_linker_0, # of connection points: 2
#     Edge 108, Type (0, 1), BuildingBlock: XIVTED_clean_linker_0, # of connection points: 2
#     Edge 109, Type (0, 1), BuildingBlock: XIVTED_clean_linker_0, # of connection points: 2
#     Edge 110, Type (0, 1), BuildingBlock: XIVTED_clean_linker_0, # of connection points: 2
#     Edge 111, Type (0, 1), BuildingBlock: XIVTED_clean_linker_0, # of connection points: 2
#     Edge 112, Type (0, 1), BuildingBlock: XIVTED_clean_linker_0, # of connection points: 2
#     Edge 113, Type (0, 1), BuildingBlock: XIVTED_clean_linker_0, # of connection points: 2
#     Edge 114, Type (0, 1), BuildingBlock: XIVTED_clean_linker_0, # of connection points: 2
#     Edge 115, Type (0, 1), BuildingBlock: XIVTED_clean_linker_0, # of connection points: 2
#     Edge 116, Type (0, 1), BuildingBlock: XIVTED_clean_linker_0, # of connection points: 2
#     Edge 117, Type (0, 1), BuildingBlock: XIVTED_clean_linker_0, # of connection points: 2
#     Edge 118, Type (0, 1), BuildingBlock: XIVTED_clean_linker_0, # of connection points: 2
#     Edge 119, Type (0, 1), BuildingBlock: XIVTED_clean_linker_0, # of connection points: 2
#     Edge 120, Type (0, 1), BuildingBlock: XIVTED_clean_linker_0, # of connection points: 2
#     Edge 121, Type (0, 1), BuildingBlock: XIVTED_clean_linker_0, # of connection points: 2
#     Edge 122, Type (0, 1), BuildingBlock: XIVTED_clean_linker_0, # of connection points: 2
#     Edge 123, Type (0, 1), BuildingBlock: XIVTED_clean_linker_0, # of connection points: 2
#     Edge 124, Type (0, 1), BuildingBlock: XIVTED_clean_linker_0, # of connection points: 2
#     Edge 125, Type (0, 1), BuildingBlock: XIVTED_clean_linker_0, # of connection points: 2
#     Edge 126, Type (0, 1), BuildingBlock: XIVTED_clean_linker_0, # of connection points: 2
#     Edge 127, Type (0, 1), BuildingBlock: XIVTED_clean_linker_0, # of connection points: 2
#     Edge 128, Type (0, 1), BuildingBlock: XIVTED_clean_linker_0, # of connection points: 2
#     Edge 129, Type (0, 1), BuildingBlock: XIVTED_clean_linker_0, # of connection points: 2
#     Edge 130, Type (0, 1), BuildingBlock: XIVTED_clean_linker_0, # of connection points: 2
#     Edge 131, Type (0, 1), BuildingBlock: XIVTED_clean_linker_0, # of connection points: 2
#     Edge 132, Type (0, 1), BuildingBlock: XIVTED_clean_linker_0, # of connection points: 2
#     Edge 133, Type (0, 1), BuildingBlock: XIVTED_clean_linker_0, # of connection points: 2
#     Edge 134, Type (0, 1), BuildingBlock: XIVTED_clean_linker_0, # of connection points: 2
#     Edge 135, Type (0, 1), BuildingBlock: XIVTED_clean_linker_0, # of connection points: 2
#     Edge 136, Type (0, 1), BuildingBlock: XIVTED_clean_linker_0, # of connection points: 2
#     Edge 137, Type (0, 1), BuildingBlock: XIVTED_clean_linker_0, # of connection points: 2
#     Edge 138, Type (0, 1), BuildingBlock: XIVTED_clean_linker_0, # of connection points: 2
#     Edge 139, Type (0, 1), BuildingBlock: XIVTED_clean_linker_0, # of connection points: 2
#     Edge 140, Type (0, 1), BuildingBlock: XIVTED_clean_linker_0, # of connection points: 2
#     Edge 141, Type (0, 1), BuildingBlock: XIVTED_clean_linker_0, # of connection points: 2
#     Edge 142, Type (0, 1), BuildingBlock: XIVTED_clean_linker_0, # of connection points: 2
#     Edge 143, Type (0, 1), BuildingBlock: XIVTED_clean_linker_0, # of connection points: 2
#     Edge 144, Type (0, 1), BuildingBlock: XIVTED_clean_linker_0, # of connection points: 2
#     Edge 145, Type (0, 1), BuildingBlock: XIVTED_clean_linker_0, # of connection points: 2
#     Edge 146, Type (0, 1), BuildingBlock: XIVTED_clean_linker_0, # of connection points: 2
#     Edge 147, Type (0, 1), BuildingBlock: XIVTED_clean_linker_0, # of connection points: 2
#     Edge 148, Type (0, 1), BuildingBlock: XIVTED_clean_linker_0, # of connection points: 2
#     Edge 149, Type (0, 1), BuildingBlock: XIVTED_clean_linker_0, # of connection points: 2
#     Edge 150, Type (0, 1), BuildingBlock: XIVTED_clean_linker_0, # of connection points: 2
#     Edge 151, Type (0, 1), BuildingBlock: XIVTED_clean_linker_0, # of connection points: 2
# Relax obj value: 0.002
# Max RMSD: 0.116
# Mean RMSD: 0.048
data_MOF--net-tbo--node1-ESEHIV_clean_sbu_0--node2-KAKCAD_clean_linker_0--edge1-XIVTED_clean_linker_0
_symmetry_space_group_name_H-M    P1
_symmetry_Int_Tables_number       1
_symmetry_cell_setting            triclinic
loop_
_symmetry_equiv_pos_as_xyz
'x, y, z'
_cell_length_a     91.624752
_cell_length_b     91.342429
_cell_length_c     91.29291
_cell_angle_alpha  90.388998
_cell_angle_beta   91.845339
_cell_angle_gamma 90.80328
loop_
_atom_site_label
_atom_site_type_symbol
_atom_site_fract_x
_atom_site_fract_y
_atom_site_fract_z
_atom_type_partial_charge
C0 C 0.2031 0.17983 0.14046 0.0
C1 C 0.20305 0.19524 0.1413 0.0
C2 C 0.1984 0.17134 0.15218 0.0
C3 C 0.19348 0.17805 0.16498 0.0
C4 C 0.19372 0.19343 0.16593 0.0
C5 C 0.19846 0.2019 0.15427 0.0
C6 C 0.1876 0.16917 0.17713 0.0
C7 C 0.19475 0.15649 0.1821 0.0
C8 C 0.18925 0.14833 0.1938 0.0
C9 C 0.17634 0.15292 0.2003 0.0
C10 C 0.16902 0.16549 0.19547 0.0
C11 C 0.17474 0.1735 0.18385 0.0
C12 C 0.15551 0.17033 0.20268 0.0
C13 C 0.14496 0.16007 0.20709 0.0
C14 C 0.15315 0.18527 0.20541 0.0
C15 C 0.14062 0.18982 0.21242 0.0
C16 C 0.13015 0.17955 0.21697 0.0
C17 C 0.19683 0.13503 0.1994 0.0
C18 C 0.20271 0.1247 0.18978 0.0
C19 C 0.19746 0.13216 0.21453 0.0
C20 C 0.20289 0.11894 0.21981 0.0
C21 C 0.20806 0.10833 0.21016 0.0
C22 C 0.20834 0.11148 0.19513 0.0
C23 C 0.13246 0.16461 0.21416 0.0
H24 H 0.20642 0.17432 0.1306 0.0
H25 H 0.19822 0.15953 0.15106 0.0
H26 H 0.19025 0.19894 0.17574 0.0
H27 H 0.19858 0.2137 0.15546 0.0
H28 H 0.20481 0.15324 0.17716 0.0
H29 H 0.16898 0.18301 0.17979 0.0
H30 H 0.17196 0.14668 0.20925 0.0
H31 H 0.14631 0.14849 0.20501 0.0
H32 H 0.16109 0.19349 0.20231 0.0
H33 H 0.13913 0.20143 0.21419 0.0
H34 H 0.20238 0.12653 0.17807 0.0
H35 H 0.19346 0.14001 0.22232 0.0
H36 H 0.12473 0.15636 0.21763 0.0
H37 H 0.21222 0.10343 0.18746 0.0
H38 H 0.20275 0.11686 0.23148 0.0
C39 C 0.89534 0.22544 0.19674 0.0
C40 C 0.90624 0.2157 0.20146 0.0
C41 C 0.88181 0.22018 0.19128 0.0
C42 C 0.87879 0.20504 0.19048 0.0
C43 C 0.88958 0.1953 0.19543 0.0
C44 C 0.90317 0.20057 0.2008 0.0
C45 C 0.86456 0.19949 0.18414 0.0
C46 C 0.85863 0.20572 0.17128 0.0
C47 C 0.84517 0.20079 0.16511 0.0
C48 C 0.83769 0.18931 0.17199 0.0
C49 C 0.84341 0.18281 0.18484 0.0
C50 C 0.8569 0.18799 0.19082 0.0
C51 C 0.83526 0.17061 0.19192 0.0
C52 C 0.81991 0.1707 0.19229 0.0
C53 C 0.84267 0.15861 0.19804 0.0
C54 C 0.83493 0.14693 0.20415 0.0
C55 C 0.81956 0.14688 0.20424 0.0
C56 C 0.83894 0.20766 0.15153 0.0
C57 C 0.84044 0.22281 0.14926 0.0
C58 C 0.83139 0.19916 0.14075 0.0
C59 C 0.82543 0.20565 0.12812 0.0
C60 C 0.82698 0.22081 0.12582 0.0
C61 C 0.83463 0.22928 0.13656 0.0
C62 C 0.81219 0.15899 0.19828 0.0
H63 H 0.89736 0.23715 0.197 0.0
H64 H 0.87367 0.22798 0.1877 0.0
H65 H 0.88764 0.18358 0.19487 0.0
H66 H 0.91125 0.19277 0.20451 0.0
H67 H 0.86473 0.21424 0.16585 0.0
H68 H 0.86129 0.18335 0.2009 0.0
H69 H 0.82733 0.18542 0.1673 0.0
H70 H 0.8138 0.17984 0.18793 0.0
H71 H 0.85446 0.15807 0.19787 0.0
H72 H 0.84105 0.13795 0.20883 0.0
H73 H 0.846 0.22977 0.15737 0.0
H74 H 0.83017 0.18743 0.14198 0.0
H75 H 0.80037 0.15934 0.19795 0.0
H76 H 0.83628 0.24093 0.13513 0.0
H77 H 0.81947 0.19876 0.12023 0.0
C78 C 0.81904 0.82445 0.12585 0.0
C79 C 0.81501 0.83271 0.11347 0.0
C80 C 0.82334 0.83137 0.13903 0.0
C81 C 0.82366 0.84674 0.14022 0.0
C82 C 0.8193 0.85502 0.12796 0.0
C83 C 0.81508 0.84808 0.11472 0.0
C84 C 0.82915 0.854 0.15403 0.0
C85 C 0.84174 0.84869 0.16133 0.0
C86 C 0.84714 0.85519 0.17443 0.0
C87 C 0.83968 0.86705 0.18034 0.0
C88 C 0.82707 0.87255 0.17329 0.0
C89 C 0.82196 0.86611 0.16 0.0
C90 C 0.81933 0.88491 0.18017 0.0
C91 C 0.81659 0.88457 0.19521 0.0
C92 C 0.81561 0.89748 0.17216 0.0
C93 C 0.80995 0.90975 0.17924 0.0
C94 C 0.80786 0.90963 0.19446 0.0
C95 C 0.86056 0.84962 0.18197 0.0
C96 C 0.86273 0.8345 0.18347 0.0
C97 C 0.87128 0.85939 0.18776 0.0
C98 C 0.88391 0.85417 0.19483 0.0
C99 C 0.88611 0.83904 0.19632 0.0
C100 C 0.87534 0.82927 0.19058 0.0
C101 C 0.81088 0.89673 0.20225 0.0
H102 H 0.81922 0.81261 0.12527 0.0
H103 H 0.82648 0.82466 0.14832 0.0
H104 H 0.8195 0.86687 0.12849 0.0
H105 H 0.81185 0.85478 0.10545 0.0
H106 H 0.8476 0.83969 0.15659 0.0
H107 H 0.81215 0.8702 0.1546 0.0
H108 H 0.8437 0.87202 0.19053 0.0
H109 H 0.81909 0.87493 0.20162 0.0
H110 H 0.81766 0.89805 0.16055 0.0
H111 H 0.80779 0.9195 0.17291 0.0
H112 H 0.85458 0.82669 0.17932 0.0
H113 H 0.87002 0.8711 0.18661 0.0
H114 H 0.80903 0.89607 0.21388 0.0
H115 H 0.87654 0.81755 0.19174 0.0
H116 H 0.89207 0.862 0.1989 0.0
C117 C 0.18136 0.81784 0.1213 0.0
C118 C 0.19667 0.81895 0.12243 0.0
C119 C 0.17284 0.82141 0.13322 0.0
C120 C 0.17944 0.82606 0.14662 0.0
C121 C 0.19479 0.82699 0.14778 0.0
C122 C 0.20329 0.82355 0.13581 0.0
C123 C 0.17035 0.83019 0.15924 0.0
C124 C 0.15743 0.82233 0.16215 0.0
C125 C 0.14871 0.82634 0.17388 0.0
C126 C 0.15296 0.83844 0.18269 0.0
C127 C 0.16585 0.84631 0.18004 0.0
C128 C 0.17449 0.84212 0.16836 0.0
C129 C 0.17028 0.85896 0.18947 0.0
C130 C 0.16068 0.87061 0.1915 0.0
C131 C 0.18413 0.85943 0.19652 0.0
C132 C 0.18825 0.87128 0.2056 0.0
C133 C 0.17872 0.883 0.20751 0.0
C134 C 0.13522 0.81785 0.17708 0.0
C135 C 0.12526 0.81359 0.16575 0.0
C136 C 0.13211 0.81412 0.19158 0.0
C137 C 0.11928 0.80648 0.1947 0.0
C138 C 0.10919 0.80242 0.18342 0.0
C139 C 0.11235 0.80602 0.16889 0.0
C140 C 0.16493 0.88261 0.20032 0.0
H141 H 0.17593 0.81451 0.11107 0.0
H142 H 0.16107 0.8208 0.13182 0.0
H143 H 0.20028 0.83026 0.15799 0.0
H144 H 0.21507 0.8243 0.13709 0.0
H145 H 0.15433 0.81284 0.15551 0.0
H146 H 0.18424 0.84848 0.16616 0.0
H147 H 0.14625 0.84175 0.19167 0.0
H148 H 0.14997 0.87049 0.18611 0.0
H149 H 0.19168 0.85054 0.19515 0.0
H150 H 0.19897 0.87138 0.21098 0.0
H151 H 0.12731 0.81637 0.15448 0.0
H152 H 0.13964 0.81711 0.20053 0.0
H153 H 0.15738 0.8915 0.20167 0.0
H154 H 0.10485 0.80296 0.15994 0.0
H155 H 0.11711 0.80403 0.20602 0.0
C156 C 0.12681 0.82631 0.83382 0.0
C157 C 0.12609 0.8252 0.81843 0.0
C158 C 0.13953 0.83131 0.84118 0.0
C159 C 0.15187 0.83545 0.83337 0.0
C160 C 0.15098 0.83502 0.81796 0.0
C161 C 0.13823 0.82992 0.81056 0.0
C162 C 0.16576 0.83956 0.84138 0.0
C163 C 0.1707 0.83114 0.85333 0.0
C164 C 0.18374 0.83477 0.86112 0.0
C165 C 0.19196 0.847 0.8567 0.0
C166 C 0.18719 0.85571 0.84483 0.0
C167 C 0.17406 0.85181 0.83721 0.0
C168 C 0.19578 0.86899 0.84059 0.0
C169 C 0.20311 0.87775 0.85132 0.0
C170 C 0.19669 0.8731 0.82581 0.0
C171 C 0.20462 0.88562 0.8219 0.0
C172 C 0.21203 0.89432 0.83263 0.0
C173 C 0.18862 0.8259 0.87401 0.0
C174 C 0.17846 0.82084 0.88411 0.0
C175 C 0.20343 0.82252 0.8764 0.0
C176 C 0.20797 0.81438 0.88863 0.0
C177 C 0.19781 0.80941 0.89879 0.0
C178 C 0.18299 0.8127 0.89632 0.0
C179 C 0.21119 0.89014 0.8474 0.0
H180 H 0.11756 0.82312 0.84023 0.0
H181 H 0.13976 0.83182 0.85305 0.0
H182 H 0.16033 0.83808 0.81164 0.0
H183 H 0.13811 0.82913 0.79872 0.0
H184 H 0.16451 0.8215 0.85639 0.0
H185 H 0.17 0.85855 0.82829 0.0
H186 H 0.20205 0.84979 0.86262 0.0
H187 H 0.20251 0.87515 0.86284 0.0
H188 H 0.19138 0.86659 0.81719 0.0
H189 H 0.20476 0.88853 0.81043 0.0
H190 H 0.16698 0.82336 0.88272 0.0
H191 H 0.21154 0.8261 0.86878 0.0
H192 H 0.21689 0.89635 0.85601 0.0
H193 H 0.17483 0.80894 0.90381 0.0
H194 H 0.21949 0.81221 0.89024 0.0
C195 C 0.20091 0.19608 0.91351 0.0
C196 C 0.21588 0.19958 0.9153 0.0
C197 C 0.1951 0.19099 0.90007 0.0
C198 C 0.20412 0.18901 0.88811 0.0
C199 C 0.21919 0.1918 0.89 0.0
C200 C 0.22502 0.19712 0.90344 0.0
C201 C 0.19758 0.1844 0.87367 0.0
C202 C 0.18526 0.1916 0.86791 0.0
C203 C 0.17837 0.18702 0.85462 0.0
C204 C 0.18414 0.17503 0.84705 0.0
C205 C 0.19664 0.16781 0.85254 0.0
C206 C 0.20331 0.17264 0.86586 0.0
C207 C 0.20264 0.15506 0.84457 0.0
C208 C 0.19333 0.14413 0.83835 0.0
C209 C 0.2178 0.1535 0.84351 0.0
C210 C 0.22355 0.14116 0.8368 0.0
C211 C 0.21428 0.13001 0.83098 0.0
C212 C 0.16521 0.19483 0.84875 0.0
C213 C 0.15495 0.20056 0.85833 0.0
C214 C 0.16289 0.19691 0.8336 0.0
C215 C 0.15077 0.20461 0.82822 0.0
C216 C 0.14069 0.21062 0.83783 0.0
C217 C 0.14298 0.20844 0.85298 0.0
C218 C 0.19909 0.13175 0.83161 0.0
H219 H 0.19358 0.1974 0.92247 0.0
H220 H 0.18349 0.18863 0.89902 0.0
H221 H 0.22639 0.19036 0.88093 0.0
H222 H 0.23657 0.19975 0.90437 0.0
H223 H 0.18121 0.20099 0.87375 0.0
H224 H 0.21266 0.16693 0.87044 0.0
H225 H 0.17891 0.17126 0.83688 0.0
H226 H 0.1816 0.14491 0.83909 0.0
H227 H 0.22528 0.16184 0.8479 0.0
H228 H 0.2353 0.14032 0.83623 0.0
H229 H 0.15614 0.19898 0.87005 0.0
H230 H 0.17058 0.19282 0.82585 0.0
H231 H 0.19166 0.12332 0.82734 0.0
H232 H 0.13566 0.21302 0.86081 0.0
H233 H 0.14931 0.20579 0.81647 0.0
C234 C 0.84961 0.12911 0.81983 0.0
C235 C 0.83425 0.1283 0.81958 0.0
C236 C 0.85697 0.14207 0.82405 0.0
C237 C 0.84912 0.15447 0.82815 0.0
C238 C 0.83378 0.15376 0.82756 0.0
C239 C 0.82644 0.14086 0.82331 0.0
C240 C 0.85677 0.16798 0.83359 0.0
C241 C 0.86881 0.17386 0.82633 0.0
C242 C 0.8756 0.18695 0.83132 0.0
C243 C 0.87035 0.19399 0.84383 0.0
C244 C 0.85845 0.18818 0.8513 0.0
C245 C 0.85179 0.17515 0.8461 0.0
C246 C 0.85289 0.19572 0.86448 0.0
C247 C 0.86259 0.20221 0.87496 0.0
C248 C 0.8378 0.19641 0.86673 0.0
C249 C 0.83255 0.20326 0.87919 0.0
C250 C 0.84224 0.20972 0.88969 0.0
C251 C 0.88814 0.19349 0.82357 0.0
C252 C 0.8997 0.18479 0.81892 0.0
C253 C 0.88895 0.2087 0.82148 0.0
C254 C 0.90135 0.21517 0.81568 0.0
C255 C 0.91325 0.2066 0.81175 0.0
C256 C 0.91215 0.1913 0.81304 0.0
C257 C 0.85733 0.20915 0.88738 0.0
H258 H 0.85596 0.11961 0.81713 0.0
H259 H 0.8688 0.14227 0.82451 0.0
H260 H 0.82743 0.16322 0.83038 0.0
H261 H 0.81462 0.14076 0.82289 0.0
H262 H 0.87258 0.1685 0.81655 0.0
H263 H 0.84283 0.17037 0.85199 0.0
H264 H 0.87553 0.20407 0.84774 0.0
H265 H 0.87429 0.20176 0.87367 0.0
H266 H 0.83 0.19171 0.8588 0.0
H267 H 0.82087 0.20331 0.88067 0.0
H268 H 0.8994 0.17304 0.82041 0.0
H269 H 0.88008 0.21567 0.82459 0.0
H270 H 0.86512 0.21416 0.89512 0.0
H271 H 0.92117 0.18443 0.81014 0.0
H272 H 0.90176 0.22696 0.81453 0.0
C273 C 0.81137 0.84562 0.86899 0.0
C274 C 0.81892 0.84154 0.88194 0.0
C275 C 0.81897 0.84932 0.85646 0.0
C276 C 0.83432 0.84906 0.85657 0.0
C277 C 0.84188 0.84495 0.86951 0.0
C278 C 0.83427 0.84123 0.88204 0.0
C279 C 0.8424 0.85317 0.84326 0.0
C280 C 0.8378 0.86501 0.83462 0.0
C281 C 0.84511 0.8689 0.82189 0.0
C282 C 0.8575 0.86099 0.81804 0.0
C283 C 0.86235 0.84904 0.82651 0.0
C284 C 0.85462 0.84521 0.83906 0.0
C285 C 0.87525 0.84036 0.82213 0.0
C286 C 0.87805 0.83784 0.80726 0.0
C287 C 0.8848 0.83432 0.83278 0.0
C288 C 0.89664 0.82587 0.82871 0.0
C289 C 0.89946 0.82338 0.81383 0.0
C290 C 0.83946 0.88097 0.81246 0.0
C291 C 0.82435 0.88239 0.80984 0.0
C292 C 0.84897 0.89115 0.80606 0.0
C293 C 0.84345 0.90255 0.7974 0.0
C294 C 0.8283 0.90401 0.79489 0.0
C295 C 0.81885 0.89375 0.80125 0.0
C296 C 0.89003 0.8296 0.80318 0.0
H297 H 0.79955 0.84574 0.86844 0.0
H298 H 0.81278 0.85219 0.84661 0.0
H299 H 0.8537 0.84483 0.87005 0.0
H300 H 0.84045 0.83833 0.89189 0.0
H301 H 0.82857 0.87139 0.83795 0.0
H302 H 0.85784 0.83573 0.84537 0.0
H303 H 0.86327 0.86408 0.80834 0.0
H304 H 0.87088 0.84208 0.79869 0.0
H305 H 0.8832 0.83616 0.84435 0.0
H306 H 0.90347 0.82115 0.83729 0.0
H307 H 0.8167 0.87465 0.8144 0.0
H308 H 0.86067 0.89045 0.80793 0.0
H309 H 0.89191 0.8282 0.79161 0.0
H310 H 0.80712 0.89463 0.79981 0.0
H311 H 0.85105 0.91018 0.79261 0.0
C312 C 0.21103 0.68696 0.61693 0.0
C313 C 0.21046 0.70213 0.61477 0.0
C314 C 0.20444 0.68057 0.62893 0.0
C315 C 0.19733 0.68922 0.63928 0.0
C316 C 0.19654 0.70442 0.63697 0.0
C317 C 0.20298 0.71079 0.62478 0.0
C318 C 0.19124 0.68234 0.6526 0.0
C319 C 0.1987 0.67077 0.65942 0.0
C320 C 0.19299 0.66347 0.67148 0.0
C321 C 0.17984 0.66833 0.6772 0.0
C322 C 0.17232 0.68019 0.67087 0.0
C323 C 0.17807 0.68706 0.65849 0.0
C324 C 0.15849 0.68533 0.67726 0.0
C325 C 0.14817 0.67523 0.68246 0.0
C326 C 0.15569 0.70037 0.67864 0.0
C327 C 0.14304 0.70518 0.68529 0.0
C328 C 0.13285 0.69508 0.69074 0.0
C329 C 0.2008 0.65069 0.67789 0.0
C330 C 0.20775 0.6407 0.66871 0.0
C331 C 0.20159 0.64842 0.69311 0.0
C332 C 0.20928 0.63658 0.69899 0.0
C333 C 0.21647 0.62676 0.6898 0.0
C334 C 0.21556 0.629 0.67457 0.0
C335 C 0.13555 0.68004 0.68913 0.0
H336 H 0.21647 0.67999 0.60923 0.0
H337 H 0.20493 0.6688 0.63009 0.0
H338 H 0.19129 0.71144 0.64474 0.0
H339 H 0.20242 0.72254 0.62339 0.0
H340 H 0.20919 0.66753 0.65541 0.0
H341 H 0.17209 0.69583 0.65322 0.0
H342 H 0.17543 0.66287 0.68661 0.0
H343 H 0.14984 0.66356 0.6814 0.0
H344 H 0.16344 0.70845 0.67487 0.0
H345 H 0.14125 0.71684 0.68614 0.0
H346 H 0.20717 0.64191 0.65691 0.0
H347 H 0.19649 0.65594 0.70054 0.0
H348 H 0.12805 0.67192 0.69329 0.0
H349 H 0.22109 0.62184 0.66712 0.0
H350 H 0.20953 0.63511 0.71075 0.0
C351 C 0.89881 0.73274 0.67474 0.0
C352 C 0.91132 0.72459 0.67835 0.0
C353 C 0.88562 0.72566 0.67065 0.0
C354 C 0.8846 0.71028 0.67026 0.0
C355 C 0.89711 0.70216 0.67389 0.0
C356 C 0.9103 0.70922 0.67784 0.0
C357 C 0.87056 0.70266 0.66616 0.0
C358 C 0.86206 0.70724 0.654 0.0
C359 C 0.84891 0.69991 0.64985 0.0
C360 C 0.84443 0.68773 0.65806 0.0
C361 C 0.85281 0.68293 0.67029 0.0
C362 C 0.86578 0.6906 0.67427 0.0
C363 C 0.84813 0.6699 0.6789 0.0
C364 C 0.83327 0.66698 0.68127 0.0
C365 C 0.85855 0.6603 0.68494 0.0
C366 C 0.85428 0.6483 0.69329 0.0
C367 C 0.83943 0.64534 0.69566 0.0
C368 C 0.84008 0.7049 0.6368 0.0
C369 C 0.83909 0.71992 0.63361 0.0
C370 C 0.83293 0.69479 0.62718 0.0
C371 C 0.82541 0.69955 0.61451 0.0
C372 C 0.82504 0.71451 0.61108 0.0
C373 C 0.83177 0.72464 0.62087 0.0
C374 C 0.82898 0.65483 0.68944 0.0
H375 H 0.89926 0.74459 0.67495 0.0
H376 H 0.87615 0.73222 0.668 0.0
H377 H 0.89672 0.6903 0.67357 0.0
H378 H 0.91968 0.70261 0.68071 0.0
H379 H 0.86596 0.71627 0.6475 0.0
H380 H 0.87211 0.68737 0.68391 0.0
H381 H 0.83443 0.68193 0.65488 0.0
H382 H 0.8249 0.67417 0.67697 0.0
H383 H 0.87008 0.66198 0.68318 0.0
H384 H 0.86272 0.64145 0.69803 0.0
H385 H 0.84409 0.72808 0.6409 0.0
H386 H 0.83355 0.68313 0.62915 0.0
H387 H 0.81743 0.65285 0.69077 0.0
H388 H 0.8315 0.73626 0.61859 0.0
H389 H 0.82041 0.69151 0.60708 0.0
C390 C 0.83134 0.3201 0.64665 0.0
C391 C 0.82918 0.32634 0.63274 0.0
C392 C 0.83636 0.3287 0.65856 0.0
C393 C 0.83905 0.34376 0.65686 0.0
C394 C 0.83658 0.35009 0.64303 0.0
C395 C 0.83183 0.34143 0.63104 0.0
C396 C 0.84496 0.3527 0.66937 0.0
C397 C 0.85755 0.34817 0.67715 0.0
C398 C 0.8635 0.35652 0.68891 0.0
C399 C 0.85651 0.36946 0.69298 0.0
C400 C 0.84369 0.37409 0.68552 0.0
C401 C 0.83812 0.3657 0.67355 0.0
C402 C 0.83614 0.38756 0.69044 0.0
C403 C 0.83542 0.39084 0.70548 0.0
C404 C 0.8299 0.3974 0.68029 0.0
C405 C 0.82357 0.41042 0.68507 0.0
C406 C 0.82348 0.41391 0.70008 0.0
C407 C 0.87704 0.35173 0.6969 0.0
C408 C 0.87902 0.3369 0.70039 0.0
C409 C 0.88815 0.36189 0.70095 0.0
C410 C 0.90099 0.35731 0.70817 0.0
C411 C 0.90304 0.34245 0.71152 0.0
C412 C 0.89184 0.33233 0.70761 0.0
C413 C 0.82925 0.40386 0.71022 0.0
H414 H 0.82945 0.30849 0.64824 0.0
H415 H 0.83815 0.32358 0.66912 0.0
H416 H 0.83865 0.36166 0.64143 0.0
H417 H 0.83017 0.34651 0.62045 0.0
H418 H 0.86296 0.33829 0.67373 0.0
H419 H 0.82821 0.36899 0.66774 0.0
H420 H 0.86106 0.37593 0.70206 0.0
H421 H 0.8397 0.38336 0.71365 0.0
H422 H 0.83031 0.39529 0.66862 0.0
H423 H 0.81927 0.41801 0.67701 0.0
H424 H 0.87059 0.32882 0.69765 0.0
H425 H 0.88707 0.37336 0.69826 0.0
H426 H 0.8291 0.40613 0.72187 0.0
H427 H 0.89291 0.32084 0.71025 0.0
H428 H 0.90945 0.36538 0.71083 0.0
C429 C 0.1954 0.33795 0.63434 0.0
C430 C 0.21067 0.33644 0.63519 0.0
C431 C 0.18768 0.34166 0.64679 0.0
C432 C 0.19507 0.344 0.66035 0.0
C433 C 0.21029 0.34222 0.66125 0.0
C434 C 0.21798 0.33848 0.64885 0.0
C435 C 0.18708 0.34874 0.67344 0.0
C436 C 0.17373 0.34213 0.67698 0.0
C437 C 0.16632 0.34655 0.68951 0.0
C438 C 0.17236 0.35792 0.69842 0.0
C439 C 0.18573 0.36456 0.69503 0.0
C440 C 0.19295 0.35993 0.68253 0.0
C441 C 0.19244 0.37638 0.70436 0.0
C442 C 0.18452 0.38887 0.70809 0.0
C443 C 0.20732 0.37577 0.70843 0.0
C444 C 0.21438 0.38773 0.71523 0.0
C445 C 0.20677 0.40066 0.71804 0.0
C446 C 0.15257 0.33892 0.69352 0.0
C447 C 0.14184 0.33515 0.68273 0.0
C448 C 0.15027 0.33494 0.70812 0.0
C449 C 0.13763 0.32726 0.71183 0.0
C450 C 0.12694 0.32339 0.70103 0.0
C451 C 0.12916 0.32751 0.68645 0.0
C452 C 0.19164 0.40094 0.71487 0.0
H453 H 0.18943 0.33661 0.62397 0.0
H454 H 0.17598 0.34308 0.64571 0.0
H455 H 0.21627 0.34369 0.6716 0.0
H456 H 0.22968 0.33708 0.64999 0.0
H457 H 0.16935 0.3332 0.67023 0.0
H458 H 0.2031 0.3653 0.6797 0.0
H459 H 0.16675 0.3615 0.70806 0.0
H460 H 0.17303 0.38961 0.70504 0.0
H461 H 0.21362 0.36617 0.70593 0.0
H462 H 0.22596 0.38704 0.71786 0.0
H463 H 0.14322 0.33815 0.6714 0.0
H464 H 0.15838 0.33754 0.71668 0.0
H465 H 0.18549 0.41075 0.71688 0.0
H466 H 0.12119 0.32463 0.67785 0.0
H467 H 0.13618 0.32444 0.7232 0.0
C468 C 0.1286 0.32012 0.347 0.0
C469 C 0.12649 0.31858 0.33173 0.0
C470 C 0.14153 0.32619 0.35303 0.0
C471 C 0.15271 0.33099 0.34396 0.0
C472 C 0.15039 0.33008 0.32867 0.0
C473 C 0.13743 0.32392 0.32261 0.0
C474 C 0.16692 0.33631 0.35052 0.0
C475 C 0.17356 0.32868 0.36225 0.0
C476 C 0.18705 0.33337 0.36847 0.0
C477 C 0.19384 0.34596 0.36292 0.0
C478 C 0.18734 0.35394 0.35137 0.0
C479 C 0.17391 0.34892 0.34512 0.0
C480 C 0.19464 0.36755 0.34605 0.0
C481 C 0.20192 0.37717 0.35603 0.0
C482 C 0.19475 0.37087 0.33103 0.0
C483 C 0.20219 0.38333 0.32612 0.0
C484 C 0.20975 0.39277 0.33609 0.0
C485 C 0.19411 0.32532 0.38088 0.0
C486 C 0.18602 0.32072 0.3929 0.0
C487 C 0.20922 0.32287 0.38111 0.0
C488 C 0.2162 0.31667 0.39334 0.0
C489 C 0.20827 0.31278 0.4057 0.0
C490 C 0.19303 0.31451 0.4052 0.0
C491 C 0.20943 0.38953 0.35112 0.0
H492 H 0.12028 0.31647 0.35436 0.0
H493 H 0.14284 0.32702 0.36484 0.0
H494 H 0.15883 0.33362 0.32138 0.0
H495 H 0.13623 0.32283 0.31081 0.0
H496 H 0.16841 0.31882 0.36631 0.0
H497 H 0.16865 0.35504 0.33636 0.0
H498 H 0.20425 0.3496 0.36771 0.0
H499 H 0.20187 0.37516 0.3677 0.0
H500 H 0.18934 0.36369 0.32301 0.0
H501 H 0.20197 0.38555 0.31448 0.0
H502 H 0.17437 0.3225 0.39307 0.0
H503 H 0.21572 0.32597 0.37189 0.0
H504 H 0.21524 0.39637 0.35916 0.0
H505 H 0.18662 0.3117 0.41457 0.0
H506 H 0.2279 0.31519 0.39323 0.0
C507 C 0.17978 0.69055 0.38155 0.0
C508 C 0.19453 0.69484 0.38311 0.0
C509 C 0.17476 0.68248 0.36933 0.0
C510 C 0.18434 0.67854 0.35828 0.0
C511 C 0.19925 0.68216 0.36016 0.0
C512 C 0.20431 0.69023 0.37248 0.0
C513 C 0.17838 0.67186 0.34439 0.0
C514 C 0.16571 0.67764 0.33784 0.0
C515 C 0.15931 0.67149 0.32503 0.0
C516 C 0.16613 0.6596 0.31833 0.0
C517 C 0.17904 0.65365 0.32457 0.0
C518 C 0.18505 0.65991 0.33767 0.0
C519 C 0.18606 0.64074 0.31767 0.0
C520 C 0.17758 0.62941 0.31095 0.0
C521 C 0.20136 0.63943 0.31809 0.0
C522 C 0.20794 0.62694 0.31251 0.0
C523 C 0.19944 0.6155 0.30616 0.0
C524 C 0.14547 0.67773 0.31896 0.0
C525 C 0.13468 0.68228 0.32853 0.0
C526 C 0.14329 0.68012 0.30386 0.0
C527 C 0.13091 0.68752 0.29858 0.0
C528 C 0.12049 0.69275 0.30829 0.0
C529 C 0.12247 0.6898 0.32331 0.0
C530 C 0.18421 0.61698 0.30517 0.0
H531 H 0.17204 0.6936 0.38972 0.0
H532 H 0.16326 0.67959 0.36837 0.0
H533 H 0.20687 0.67932 0.3518 0.0
H534 H 0.21574 0.69338 0.37336 0.0
H535 H 0.16088 0.68721 0.34271 0.0
H536 H 0.19466 0.65524 0.34292 0.0
H537 H 0.16133 0.65496 0.30832 0.0
H538 H 0.16578 0.62987 0.31055 0.0
H539 H 0.2083 0.64803 0.32282 0.0
H540 H 0.21973 0.62618 0.31325 0.0
H541 H 0.13584 0.68036 0.34021 0.0
H542 H 0.15139 0.67675 0.29618 0.0
H543 H 0.17738 0.60827 0.30046 0.0
H544 H 0.11488 0.69375 0.33123 0.0
H545 H 0.12964 0.6893 0.2869 0.0
C546 C 0.83579 0.62379 0.31753 0.0
C547 C 0.82051 0.62221 0.31753 0.0
C548 C 0.84266 0.6364 0.32326 0.0
C549 C 0.83443 0.64781 0.32905 0.0
C550 C 0.81918 0.64592 0.32972 0.0
C551 C 0.81229 0.6332 0.32405 0.0
C552 C 0.84173 0.66186 0.33365 0.0
C553 C 0.85296 0.66782 0.32524 0.0
C554 C 0.85991 0.6811 0.32928 0.0
C555 C 0.85553 0.68844 0.34193 0.0
C556 C 0.84436 0.68275 0.35051 0.0
C557 C 0.83747 0.66945 0.34625 0.0
C558 C 0.83992 0.69087 0.36381 0.0
C559 C 0.85051 0.69772 0.37313 0.0
C560 C 0.82509 0.69234 0.36698 0.0
C561 C 0.82096 0.70075 0.37899 0.0
C562 C 0.83155 0.70789 0.38808 0.0
C563 C 0.87181 0.68737 0.32041 0.0
C564 C 0.8829 0.67845 0.31508 0.0
C565 C 0.8725 0.7025 0.31779 0.0
C566 C 0.88432 0.70867 0.31066 0.0
C567 C 0.89574 0.69988 0.30592 0.0
C568 C 0.89474 0.68465 0.30788 0.0
C569 C 0.84637 0.70615 0.38509 0.0
H570 H 0.84242 0.61538 0.31278 0.0
H571 H 0.85444 0.6373 0.32292 0.0
H572 H 0.8125 0.65452 0.33405 0.0
H573 H 0.80049 0.63229 0.32412 0.0
H574 H 0.85605 0.66232 0.31528 0.0
H575 H 0.82903 0.66483 0.35295 0.0
H576 H 0.86085 0.6987 0.3451 0.0
H577 H 0.86203 0.69656 0.3712 0.0
H578 H 0.81666 0.68736 0.35993 0.0
H579 H 0.80944 0.70198 0.38093 0.0
H580 H 0.88272 0.66676 0.31698 0.0
H581 H 0.86397 0.70963 0.32143 0.0
H582 H 0.85481 0.71127 0.39204 0.0
H583 H 0.90341 0.6776 0.30442 0.0
H584 H 0.88462 0.72041 0.30904 0.0
C585 C 0.81384 0.33266 0.39529 0.0
C586 C 0.82245 0.32951 0.4079 0.0
C587 C 0.82034 0.33797 0.38262 0.0
C588 C 0.83555 0.3401 0.38233 0.0
C589 C 0.84402 0.33766 0.39514 0.0
C590 C 0.83755 0.33254 0.40778 0.0
C591 C 0.84284 0.34392 0.36855 0.0
C592 C 0.83837 0.35596 0.36013 0.0
C593 C 0.84577 0.35981 0.34738 0.0
C594 C 0.8576 0.35124 0.34309 0.0
C595 C 0.86214 0.33906 0.35131 0.0
C596 C 0.85461 0.33551 0.36401 0.0
C597 C 0.87478 0.33011 0.34676 0.0
C598 C 0.87732 0.32749 0.33186 0.0
C599 C 0.88444 0.32409 0.35732 0.0
C600 C 0.89619 0.31559 0.35312 0.0
C601 C 0.8988 0.31304 0.33822 0.0
C602 C 0.84137 0.37286 0.33862 0.0
C603 C 0.82656 0.37629 0.3363 0.0
C604 C 0.85199 0.3819 0.33231 0.0
C605 C 0.84793 0.39385 0.32371 0.0
C606 C 0.83312 0.39724 0.32127 0.0
C607 C 0.82249 0.38834 0.32777 0.0
C608 C 0.88921 0.31917 0.32765 0.0
H609 H 0.8022 0.33041 0.39496 0.0
H610 H 0.81357 0.33976 0.37287 0.0
H611 H 0.85573 0.33947 0.39529 0.0
H612 H 0.84447 0.33066 0.4174 0.0
H613 H 0.82947 0.3626 0.3638 0.0
H614 H 0.85771 0.32597 0.37032 0.0
H615 H 0.86334 0.35413 0.33332 0.0
H616 H 0.87004 0.33174 0.32338 0.0
H617 H 0.88304 0.32602 0.3689 0.0
H618 H 0.90315 0.31092 0.36163 0.0
H619 H 0.81806 0.36953 0.34087 0.0
H620 H 0.86351 0.37978 0.33405 0.0
H621 H 0.89092 0.31769 0.31606 0.0
H622 H 0.81099 0.3907 0.32635 0.0
H623 H 0.85644 0.4003 0.31877 0.0
C624 C 0.70102 0.19445 0.61439 0.0
C625 C 0.70063 0.20985 0.61427 0.0
C626 C 0.69764 0.18667 0.62703 0.0
C627 C 0.69371 0.19409 0.63982 0.0
C628 C 0.69326 0.20948 0.63967 0.0
C629 C 0.69671 0.21726 0.62707 0.0
C630 C 0.69015 0.18586 0.65331 0.0
C631 C 0.69878 0.17404 0.65799 0.0
C632 C 0.69575 0.16655 0.67098 0.0
C633 C 0.68384 0.17096 0.67922 0.0
C634 C 0.67498 0.18264 0.67469 0.0
C635 C 0.67823 0.18999 0.66167 0.0
C636 C 0.66247 0.18725 0.68367 0.0
C637 C 0.65397 0.17683 0.69098 0.0
C638 C 0.65908 0.20215 0.68523 0.0
C639 C 0.64757 0.20648 0.69391 0.0
C640 C 0.63921 0.19607 0.70142 0.0
C641 C 0.70511 0.1543 0.67619 0.0
C642 C 0.70993 0.14355 0.66642 0.0
C643 C 0.70899 0.15308 0.69115 0.0
C644 C 0.71719 0.14129 0.69627 0.0
C645 C 0.72184 0.13039 0.68657 0.0
C646 C 0.71818 0.13171 0.67155 0.0
C647 C 0.64258 0.18117 0.6998 0.0
H648 H 0.70416 0.1884 0.60478 0.0
H649 H 0.698 0.17483 0.62674 0.0
H650 H 0.69041 0.21554 0.64939 0.0
H651 H 0.69619 0.2291 0.62732 0.0
H652 H 0.70817 0.17098 0.65178 0.0
H653 H 0.67131 0.19879 0.65786 0.0
H654 H 0.68153 0.16529 0.68928 0.0
H655 H 0.65606 0.16524 0.68989 0.0
H656 H 0.66545 0.21053 0.67994 0.0
H657 H 0.6452 0.21804 0.69464 0.0
H658 H 0.70706 0.14412 0.65483 0.0
H659 H 0.70566 0.16125 0.69897 0.0
H660 H 0.63656 0.17281 0.70551 0.0
H661 H 0.72167 0.1236 0.66375 0.0
H662 H 0.71959 0.14057 0.70793 0.0
C663 C 0.40469 0.21545 0.69536 0.0
C664 C 0.41672 0.20649 0.6987 0.0
C665 C 0.39165 0.20937 0.68936 0.0
C666 C 0.39037 0.19421 0.68667 0.0
C667 C 0.4026 0.18542 0.68936 0.0
C668 C 0.4156 0.19148 0.69522 0.0
C669 C 0.37616 0.18734 0.68187 0.0
C670 C 0.36769 0.19316 0.67026 0.0
C671 C 0.35436 0.18643 0.66566 0.0
C672 C 0.34951 0.17385 0.67302 0.0
C673 C 0.35775 0.16798 0.6848 0.0
C674 C 0.37107 0.17482 0.68908 0.0
C675 C 0.35244 0.15484 0.69279 0.0
C676 C 0.3376 0.15315 0.696 0.0
C677 C 0.36224 0.14402 0.69758 0.0
C678 C 0.35738 0.13194 0.70551 0.0
C679 C 0.34256 0.1303 0.70883 0.0
C680 C 0.34543 0.19256 0.65326 0.0
C681 C 0.34364 0.20775 0.65195 0.0
C682 C 0.33847 0.18327 0.64274 0.0
C683 C 0.32986 0.18903 0.63127 0.0
C684 C 0.32795 0.20423 0.63005 0.0
C685 C 0.33502 0.21351 0.64051 0.0
C686 C 0.33272 0.14103 0.70389 0.0
H687 H 0.40513 0.22703 0.69796 0.0
H688 H 0.38239 0.21641 0.68742 0.0
H689 H 0.40203 0.17376 0.68712 0.0
H690 H 0.42474 0.1843 0.69726 0.0
H691 H 0.37169 0.2027 0.66455 0.0
H692 H 0.37735 0.17062 0.69835 0.0
H693 H 0.33925 0.16866 0.66962 0.0
H694 H 0.32975 0.16132 0.69263 0.0
H695 H 0.37372 0.14484 0.69517 0.0
H696 H 0.36532 0.12402 0.70925 0.0
H697 H 0.34873 0.21522 0.6599 0.0
H698 H 0.33975 0.17152 0.64331 0.0
H699 H 0.3212 0.14006 0.70604 0.0
H700 H 0.334 0.22528 0.6398 0.0
H701 H 0.32453 0.18156 0.62347 0.0
C702 C 0.31696 0.83397 0.63123 0.0
C703 C 0.31154 0.84309 0.61999 0.0
C704 C 0.32356 0.83998 0.644 0.0
C705 C 0.32488 0.85524 0.64585 0.0
C706 C 0.31977 0.86432 0.63446 0.0
C707 C 0.31316 0.85834 0.62174 0.0
C708 C 0.33101 0.86178 0.65977 0.0
C709 C 0.34334 0.85585 0.66702 0.0
C710 C 0.34914 0.86222 0.6801 0.0
C711 C 0.34238 0.87466 0.68588 0.0
C712 C 0.33008 0.88075 0.67877 0.0
C713 C 0.32444 0.87414 0.66582 0.0
C714 C 0.32309 0.89407 0.68469 0.0
C715 C 0.32088 0.89567 0.69978 0.0
C716 C 0.31837 0.90523 0.67519 0.0
C717 C 0.31154 0.91764 0.68061 0.0
C718 C 0.30925 0.91923 0.69569 0.0
C719 C 0.36235 0.85602 0.68765 0.0
C720 C 0.36414 0.84079 0.68873 0.0
C721 C 0.37326 0.86532 0.69392 0.0
C722 C 0.38554 0.85955 0.70119 0.0
C723 C 0.38729 0.84432 0.70235 0.0
C724 C 0.37646 0.83501 0.69597 0.0
C725 C 0.31402 0.90809 0.70521 0.0
H726 H 0.31609 0.82218 0.63018 0.0
H727 H 0.3273 0.83267 0.65258 0.0
H728 H 0.32081 0.87612 0.6354 0.0
H729 H 0.309 0.86573 0.61343 0.0
H730 H 0.34866 0.84652 0.66225 0.0
H731 H 0.31467 0.8785 0.66057 0.0
H732 H 0.34673 0.87966 0.69592 0.0
H733 H 0.32427 0.88723 0.70739 0.0
H734 H 0.32005 0.90443 0.66352 0.0
H735 H 0.3079 0.92592 0.67294 0.0
H736 H 0.35588 0.83329 0.68421 0.0
H737 H 0.37242 0.8771 0.69306 0.0
H738 H 0.3126 0.90904 0.71691 0.0
H739 H 0.37735 0.82324 0.69681 0.0
H740 H 0.39379 0.86705 0.70572 0.0
C741 C 0.68319 0.82797 0.61887 0.0
C742 C 0.69855 0.82876 0.61979 0.0
C743 C 0.67491 0.83149 0.63101 0.0
C744 C 0.68182 0.83596 0.64429 0.0
C745 C 0.69716 0.83637 0.64531 0.0
C746 C 0.70542 0.8328 0.63324 0.0
C747 C 0.67318 0.84093 0.65684 0.0
C748 C 0.66087 0.83295 0.66134 0.0
C749 C 0.65293 0.8377 0.67341 0.0
C750 C 0.65737 0.8507 0.68078 0.0
C751 C 0.66961 0.8588 0.67643 0.0
C752 C 0.67737 0.85384 0.6644 0.0
C753 C 0.67445 0.87233 0.68452 0.0
C754 C 0.66424 0.88237 0.68964 0.0
C755 C 0.6894 0.87531 0.68717 0.0
C756 C 0.69404 0.88802 0.69465 0.0
C757 C 0.68386 0.89806 0.6998 0.0
C758 C 0.64 0.82924 0.67847 0.0
C759 C 0.62978 0.82282 0.6684 0.0
C760 C 0.63739 0.82819 0.69353 0.0
C761 C 0.62452 0.82179 0.69837 0.0
C762 C 0.61403 0.81603 0.6883 0.0
C763 C 0.61693 0.81621 0.67329 0.0
C764 C 0.66889 0.89506 0.69721 0.0
H765 H 0.67752 0.82503 0.60866 0.0
H766 H 0.66311 0.83119 0.62986 0.0
H767 H 0.70281 0.83953 0.65548 0.0
H768 H 0.71721 0.83319 0.63447 0.0
H769 H 0.65776 0.82285 0.65571 0.0
H770 H 0.68658 0.86023 0.66068 0.0
H771 H 0.65131 0.85453 0.69001 0.0
H772 H 0.65265 0.88051 0.68766 0.0
H773 H 0.69758 0.86776 0.68357 0.0
H774 H 0.70566 0.89004 0.69622 0.0
H775 H 0.63139 0.82347 0.65673 0.0
H776 H 0.64519 0.83258 0.70164 0.0
H777 H 0.66072 0.90245 0.70113 0.0
H778 H 0.60895 0.81188 0.66533 0.0
H779 H 0.62259 0.82162 0.71002 0.0
C780 C 0.61689 0.82318 0.33215 0.0
C781 C 0.61501 0.82192 0.31684 0.0
C782 C 0.62918 0.83031 0.33842 0.0
C783 C 0.63989 0.83642 0.32954 0.0
C784 C 0.63783 0.83554 0.31421 0.0
C785 C 0.62553 0.82837 0.30793 0.0
C786 C 0.65326 0.84344 0.33628 0.0
C787 C 0.66057 0.83689 0.34827 0.0
C788 C 0.67318 0.8434 0.35483 0.0
C789 C 0.67852 0.85664 0.34907 0.0
C790 C 0.67142 0.86338 0.33702 0.0
C791 C 0.65875 0.85667 0.33077 0.0
C792 C 0.67714 0.87743 0.33098 0.0
C793 C 0.6832 0.88841 0.34032 0.0
C794 C 0.6765 0.88002 0.31579 0.0
C795 C 0.68161 0.89325 0.31011 0.0
C796 C 0.68766 0.90418 0.31945 0.0
C797 C 0.68072 0.83641 0.36769 0.0
C798 C 0.67267 0.82955 0.37868 0.0
C799 C 0.69605 0.83673 0.36922 0.0
C800 C 0.7031 0.83078 0.38158 0.0
C801 C 0.69503 0.82424 0.39269 0.0
C802 C 0.67974 0.82347 0.391 0.0
C803 C 0.68846 0.90158 0.33461 0.0
H804 H 0.60886 0.81862 0.33935 0.0
H805 H 0.63028 0.83106 0.35025 0.0
H806 H 0.64594 0.84004 0.30707 0.0
H807 H 0.6245 0.82747 0.29611 0.0
H808 H 0.65661 0.82648 0.35229 0.0
H809 H 0.65289 0.86193 0.3218 0.0
H810 H 0.68823 0.86175 0.35401 0.0
H811 H 0.68366 0.88696 0.35208 0.0
H812 H 0.67219 0.87174 0.30821 0.0
H813 H 0.68103 0.89484 0.29836 0.0
H814 H 0.66085 0.82923 0.378 0.0
H815 H 0.70266 0.84157 0.36085 0.0
H816 H 0.69292 0.90987 0.34211 0.0
H817 H 0.67323 0.81864 0.39944 0.0
H818 H 0.71491 0.83135 0.38246 0.0
C819 C 0.69435 0.18707 0.38991 0.0
C820 C 0.70967 0.18815 0.39121 0.0
C821 C 0.68747 0.18202 0.37688 0.0
C822 C 0.69573 0.17798 0.36482 0.0
C823 C 0.71105 0.17926 0.36608 0.0
C824 C 0.71792 0.18423 0.37911 0.0
C825 C 0.68849 0.17221 0.35105 0.0
C826 C 0.67546 0.17831 0.34545 0.0
C827 C 0.66865 0.17291 0.33242 0.0
C828 C 0.67514 0.16124 0.32493 0.0
C829 C 0.68824 0.15508 0.33028 0.0
C830 C 0.6947 0.16056 0.3434 0.0
C831 C 0.69538 0.14299 0.32223 0.0
C832 C 0.68718 0.13117 0.31616 0.0
C833 C 0.71063 0.14302 0.32094 0.0
C834 C 0.71755 0.13141 0.31411 0.0
C835 C 0.70943 0.11942 0.30829 0.0
C836 C 0.65489 0.1796 0.32653 0.0
C837 C 0.64389 0.184 0.33598 0.0
C838 C 0.65265 0.18168 0.31137 0.0
C839 C 0.63969 0.18774 0.30581 0.0
C840 C 0.62862 0.19195 0.31524 0.0
C841 C 0.63094 0.19013 0.33041 0.0
C842 C 0.69413 0.1195 0.3093 0.0
H843 H 0.68767 0.18985 0.39907 0.0
H844 H 0.67567 0.181 0.37638 0.0
H845 H 0.71777 0.17653 0.35693 0.0
H846 H 0.72973 0.18518 0.37965 0.0
H847 H 0.67084 0.18757 0.35104 0.0
H848 H 0.7045 0.15552 0.34786 0.0
H849 H 0.67004 0.15698 0.31489 0.0
H850 H 0.67542 0.13076 0.31702 0.0
H851 H 0.71728 0.15204 0.32531 0.0
H852 H 0.72935 0.13169 0.31373 0.0
H853 H 0.64515 0.18242 0.3477 0.0
H854 H 0.66097 0.17875 0.30377 0.0
H855 H 0.6875 0.11053 0.30483 0.0
H856 H 0.62258 0.19309 0.33797 0.0
H857 H 0.63838 0.18922 0.29408 0.0
C858 C 0.32635 0.11787 0.34101 0.0
C859 C 0.31105 0.11838 0.34169 0.0
C860 C 0.335 0.13008 0.34489 0.0
C861 C 0.3286 0.14313 0.34957 0.0
C862 C 0.31332 0.14359 0.35051 0.0
C863 C 0.30464 0.13135 0.3466 0.0
C864 C 0.33786 0.15625 0.35319 0.0
C865 C 0.34948 0.16009 0.34423 0.0
C866 C 0.35846 0.17234 0.34753 0.0
C867 C 0.3556 0.18087 0.35997 0.0
C868 C 0.34396 0.17731 0.36904 0.0
C869 C 0.33515 0.16495 0.36555 0.0
C870 C 0.34099 0.18657 0.38208 0.0
C871 C 0.35255 0.19237 0.39095 0.0
C872 C 0.32659 0.18993 0.38561 0.0
C873 C 0.32381 0.19895 0.3976 0.0
C874 C 0.33537 0.20491 0.40636 0.0
C875 C 0.37082 0.17623 0.33801 0.0
C876 C 0.37948 0.16525 0.33197 0.0
C877 C 0.37417 0.19096 0.335 0.0
C878 C 0.38602 0.19463 0.32643 0.0
C879 C 0.39474 0.18366 0.32054 0.0
C880 C 0.39126 0.16892 0.32327 0.0
C881 C 0.34977 0.20145 0.40292 0.0
H882 H 0.33168 0.10797 0.33757 0.0
H883 H 0.34676 0.12928 0.3443 0.0
H884 H 0.30804 0.15352 0.35394 0.0
H885 H 0.29289 0.13219 0.3471 0.0
H886 H 0.35132 0.15368 0.33445 0.0
H887 H 0.32639 0.16187 0.37266 0.0
H888 H 0.36245 0.19034 0.36261 0.0
H889 H 0.36377 0.18987 0.38869 0.0
H890 H 0.31743 0.18577 0.37895 0.0
H891 H 0.31257 0.20119 0.40004 0.0
H892 H 0.37736 0.1538 0.33421 0.0
H893 H 0.36757 0.19969 0.33919 0.0
H894 H 0.35895 0.20593 0.40932 0.0
H895 H 0.39788 0.16024 0.31901 0.0
H896 H 0.38831 0.20607 0.32433 0.0
C897 C 0.31621 0.81725 0.39285 0.0
C898 C 0.32606 0.81309 0.40417 0.0
C899 C 0.32124 0.82403 0.38022 0.0
C900 C 0.33624 0.82669 0.37859 0.0
C901 C 0.34605 0.82271 0.39 0.0
C902 C 0.34102 0.81602 0.40263 0.0
C903 C 0.34178 0.8331 0.36486 0.0
C904 C 0.33495 0.84512 0.35817 0.0
C905 C 0.34032 0.85121 0.34521 0.0
C906 C 0.35281 0.84512 0.33908 0.0
C907 C 0.35978 0.83306 0.34564 0.0
C908 C 0.35404 0.82709 0.35841 0.0
C909 C 0.37295 0.82644 0.33924 0.0
C910 C 0.37418 0.8249 0.32399 0.0
C911 C 0.38419 0.82101 0.34846 0.0
C912 C 0.39599 0.81371 0.34267 0.0
C913 C 0.3971 0.81185 0.32744 0.0
C914 C 0.3329 0.86396 0.33824 0.0
C915 C 0.31758 0.8648 0.33791 0.0
C916 C 0.34098 0.87555 0.33219 0.0
C917 C 0.33392 0.88784 0.32638 0.0
C918 C 0.31864 0.88886 0.32658 0.0
C919 C 0.31056 0.87709 0.3322 0.0
C920 C 0.38614 0.81776 0.31817 0.0
H921 H 0.30459 0.81532 0.39377 0.0
H922 H 0.31342 0.82689 0.3716 0.0
H923 H 0.35767 0.82475 0.38914 0.0
H924 H 0.34891 0.81288 0.41108 0.0
H925 H 0.32565 0.84996 0.36329 0.0
H926 H 0.35894 0.81746 0.36324 0.0
H927 H 0.35709 0.84976 0.32918 0.0
H928 H 0.36572 0.82886 0.31653 0.0
H929 H 0.3838 0.82225 0.36025 0.0
H930 H 0.40405 0.8092 0.35024 0.0
H931 H 0.31096 0.85596 0.34212 0.0
H932 H 0.3528 0.87536 0.33237 0.0
H933 H 0.38671 0.81682 0.30637 0.0
H934 H 0.29875 0.87743 0.33228 0.0
H935 H 0.34045 0.89677 0.32222 0.0
C936 C 0.69186 0.69992 0.11264 0.0
C937 C 0.69311 0.71511 0.11505 0.0
C938 C 0.68819 0.69056 0.12406 0.0
C939 C 0.68541 0.69623 0.13802 0.0
C940 C 0.68655 0.71143 0.1404 0.0
C941 C 0.69049 0.72076 0.12906 0.0
C942 C 0.68121 0.68637 0.15007 0.0
C943 C 0.68955 0.67399 0.1535 0.0
C944 C 0.68575 0.66475 0.16508 0.0
C945 C 0.67324 0.66791 0.17302 0.0
C946 C 0.66469 0.68018 0.16967 0.0
C947 C 0.66884 0.6894 0.15821 0.0
C948 C 0.65144 0.68334 0.17813 0.0
C949 C 0.64201 0.67193 0.18231 0.0
C950 C 0.64812 0.69778 0.18212 0.0
C951 C 0.6357 0.70074 0.19007 0.0
C952 C 0.62629 0.68932 0.1943 0.0
C953 C 0.69487 0.65189 0.16908 0.0
C954 C 0.70081 0.64297 0.15821 0.0
C955 C 0.69752 0.64832 0.18389 0.0
C956 C 0.70558 0.63598 0.18772 0.0
C957 C 0.71129 0.62692 0.17687 0.0
C958 C 0.70897 0.63065 0.16207 0.0
C959 C 0.62962 0.67488 0.19031 0.0
H960 H 0.69393 0.69528 0.10197 0.0
H961 H 0.68731 0.67889 0.12193 0.0
H962 H 0.68453 0.71607 0.15109 0.0
H963 H 0.6913 0.73243 0.1312 0.0
H964 H 0.69928 0.67184 0.14743 0.0
H965 H 0.66224 0.69877 0.15534 0.0
H966 H 0.67016 0.6608 0.18188 0.0
H967 H 0.64412 0.66069 0.17928 0.0
H968 H 0.6552 0.70682 0.17922 0.0
H969 H 0.63339 0.71201 0.19277 0.0
H970 H 0.69888 0.64531 0.14671 0.0
H971 H 0.69342 0.65512 0.19256 0.0
H972 H 0.62272 0.6658 0.19349 0.0
H973 H 0.71313 0.62381 0.15345 0.0
H974 H 0.70741 0.63358 0.19923 0.0
C975 C 0.39022 0.71555 0.1814 0.0
C976 C 0.40295 0.70777 0.18505 0.0
C977 C 0.37731 0.7081 0.17707 0.0
C978 C 0.37681 0.69271 0.17639 0.0
C979 C 0.38952 0.68495 0.18013 0.0
C980 C 0.40243 0.69238 0.18437 0.0
C981 C 0.36316 0.68476 0.17161 0.0
C982 C 0.3548 0.68966 0.15952 0.0
C983 C 0.34201 0.68214 0.15469 0.0
C984 C 0.33772 0.66936 0.16205 0.0
C985 C 0.34591 0.66427 0.1743 0.0
C986 C 0.35855 0.67217 0.179 0.0
C987 C 0.34133 0.65084 0.18237 0.0
C988 C 0.32649 0.64754 0.18442 0.0
C989 C 0.35185 0.6414 0.1885 0.0
C990 C 0.34772 0.6293 0.19677 0.0
C991 C 0.33289 0.62607 0.19899 0.0
C992 C 0.33339 0.68777 0.14184 0.0
C993 C 0.33129 0.70291 0.14031 0.0
C994 C 0.32793 0.67832 0.13065 0.0
C995 C 0.3212 0.68398 0.1179 0.0
C996 C 0.31987 0.69919 0.11611 0.0
C997 C 0.32466 0.70854 0.12762 0.0
C998 C 0.32233 0.63529 0.19253 0.0
H999 H 0.39027 0.7274 0.18172 0.0
H1000 H 0.36768 0.71441 0.17437 0.0
H1001 H 0.38954 0.6731 0.1796 0.0
H1002 H 0.41199 0.68605 0.18728 0.0
H1003 H 0.3585 0.69918 0.15359 0.0
H1004 H 0.36472 0.66872 0.18866 0.0
H1005 H 0.328 0.66342 0.15824 0.0
H1006 H 0.31804 0.65457 0.18001 0.0
H1007 H 0.36339 0.64336 0.18696 0.0
H1008 H 0.35624 0.62267 0.20167 0.0
H1009 H 0.33502 0.71048 0.14887 0.0
H1010 H 0.32941 0.66661 0.13145 0.0
H1011 H 0.31079 0.63308 0.19372 0.0
H1012 H 0.3235 0.72028 0.12671 0.0
H1013 H 0.31765 0.67651 0.1092 0.0
C1014 C 0.34064 0.31021 0.149 0.0
C1015 C 0.33825 0.31913 0.13665 0.0
C1016 C 0.34631 0.31622 0.16222 0.0
C1017 C 0.34954 0.33128 0.16338 0.0
C1018 C 0.34765 0.34007 0.15095 0.0
C1019 C 0.34222 0.33406 0.13774 0.0
C1020 C 0.35442 0.33805 0.17758 0.0
C1021 C 0.36632 0.33242 0.18569 0.0
C1022 C 0.37142 0.33932 0.19875 0.0
C1023 C 0.36421 0.35185 0.20374 0.0
C1024 C 0.35207 0.35752 0.19588 0.0
C1025 C 0.34733 0.3505 0.18279 0.0
C1026 C 0.34443 0.3708 0.20126 0.0
C1027 C 0.34267 0.37313 0.21635 0.0
C1028 C 0.3389 0.38131 0.19139 0.0
C1029 C 0.33201 0.39388 0.19647 0.0
C1030 C 0.33064 0.39634 0.21156 0.0
C1031 C 0.38453 0.33369 0.20694 0.0
C1032 C 0.38656 0.31856 0.20869 0.0
C1033 C 0.39527 0.3434 0.21284 0.0
C1034 C 0.40777 0.33812 0.22014 0.0
C1035 C 0.40988 0.32298 0.22176 0.0
C1036 C 0.39905 0.31328 0.21601 0.0
C1037 C 0.33594 0.38576 0.22143 0.0
H1038 H 0.33764 0.2987 0.14864 0.0
H1039 H 0.34767 0.3092 0.17167 0.0
H1040 H 0.35032 0.35166 0.15147 0.0
H1041 H 0.34098 0.34123 0.12839 0.0
H1042 H 0.37195 0.32299 0.1815 0.0
H1043 H 0.3379 0.35455 0.17668 0.0
H1044 H 0.36812 0.35724 0.21374 0.0
H1045 H 0.34644 0.36517 0.2243 0.0
H1046 H 0.34021 0.38005 0.1797 0.0
H1047 H 0.32819 0.40192 0.18862 0.0
H1048 H 0.37846 0.31077 0.20441 0.0
H1049 H 0.39416 0.35512 0.21158 0.0
H1050 H 0.33487 0.38726 0.23312 0.0
H1051 H 0.40036 0.30155 0.21689 0.0
H1052 H 0.41579 0.34593 0.22454 0.0
C1053 C 0.68107 0.33105 0.12185 0.0
C1054 C 0.69631 0.33039 0.12059 0.0
C1055 C 0.675 0.33686 0.13443 0.0
C1056 C 0.68399 0.34201 0.1462 0.0
C1057 C 0.69923 0.34159 0.14486 0.0
C1058 C 0.70531 0.3359 0.1322 0.0
C1059 C 0.67747 0.34733 0.15997 0.0
C1060 C 0.66509 0.34027 0.16541 0.0
C1061 C 0.65882 0.34502 0.17841 0.0
C1062 C 0.66526 0.35687 0.18626 0.0
C1063 C 0.67773 0.36408 0.18107 0.0
C1064 C 0.68365 0.35928 0.16784 0.0
C1065 C 0.68461 0.37669 0.18926 0.0
C1066 C 0.67606 0.38756 0.19566 0.0
C1067 C 0.6999 0.37825 0.19018 0.0
C1068 C 0.70645 0.39069 0.19662 0.0
C1069 C 0.69791 0.40185 0.20241 0.0
C1070 C 0.64562 0.33736 0.1837 0.0
C1071 C 0.6341 0.33354 0.17381 0.0
C1072 C 0.6447 0.33322 0.19844 0.0
C1073 C 0.63267 0.3251 0.20309 0.0
C1074 C 0.62128 0.32099 0.19311 0.0
C1075 C 0.62207 0.32548 0.17846 0.0
C1076 C 0.68266 0.40001 0.20223 0.0
H1077 H 0.67376 0.32678 0.11325 0.0
H1078 H 0.66322 0.33722 0.13496 0.0
H1079 H 0.7065 0.34534 0.15373 0.0
H1080 H 0.71708 0.3358 0.13155 0.0
H1081 H 0.66048 0.33075 0.15971 0.0
H1082 H 0.69293 0.36508 0.16348 0.0
H1083 H 0.66057 0.36046 0.19639 0.0
H1084 H 0.66425 0.38675 0.19509 0.0
H1085 H 0.70684 0.36993 0.18572 0.0
H1086 H 0.71825 0.39171 0.19684 0.0
H1087 H 0.6344 0.33678 0.16243 0.0
H1088 H 0.65349 0.33588 0.20627 0.0
H1089 H 0.67582 0.40848 0.20655 0.0
H1090 H 0.61336 0.32279 0.17055 0.0
H1091 H 0.63249 0.3217 0.21442 0.0
C1092 C 0.6313 0.33842 0.83099 0.0
C1093 C 0.62987 0.33779 0.8156 0.0
C1094 C 0.6443 0.34341 0.83791 0.0
C1095 C 0.65619 0.348 0.82963 0.0
C1096 C 0.65473 0.34749 0.81424 0.0
C1097 C 0.64176 0.34239 0.80731 0.0
C1098 C 0.67009 0.35315 0.83703 0.0
C1099 C 0.67592 0.34562 0.84924 0.0
C1100 C 0.68911 0.35028 0.85619 0.0
C1101 C 0.69639 0.36269 0.85091 0.0
C1102 C 0.69062 0.37062 0.83897 0.0
C1103 C 0.67752 0.36566 0.832 0.0
C1104 C 0.69823 0.3842 0.83406 0.0
C1105 C 0.70478 0.39394 0.8444 0.0
C1106 C 0.69922 0.38747 0.81909 0.0
C1107 C 0.70673 0.40004 0.81459 0.0
C1108 C 0.71349 0.40964 0.82495 0.0
C1109 C 0.69524 0.34244 0.86916 0.0
C1110 C 0.6864 0.33893 0.88096 0.0
C1111 C 0.71016 0.33907 0.87012 0.0
C1112 C 0.71617 0.33257 0.88271 0.0
C1113 C 0.70743 0.32944 0.8947 0.0
C1114 C 0.69245 0.33258 0.89364 0.0
C1115 C 0.71236 0.40643 0.83992 0.0
H1116 H 0.62244 0.33482 0.83772 0.0
H1117 H 0.645 0.34378 0.84977 0.0
H1118 H 0.66372 0.35083 0.80754 0.0
H1119 H 0.64099 0.34215 0.79545 0.0
H1120 H 0.6704 0.33591 0.85315 0.0
H1121 H 0.67283 0.37179 0.82293 0.0
H1122 H 0.70656 0.36627 0.85627 0.0
H1123 H 0.70405 0.39195 0.85604 0.0
H1124 H 0.69439 0.38019 0.81081 0.0
H1125 H 0.70718 0.40224 0.80298 0.0
H1126 H 0.67488 0.34148 0.88056 0.0
H1127 H 0.71722 0.34156 0.86115 0.0
H1128 H 0.71754 0.41342 0.84824 0.0
H1129 H 0.68541 0.33017 0.90265 0.0
H1130 H 0.72777 0.33037 0.88323 0.0
C1131 C 0.69118 0.69606 0.89537 0.0
C1132 C 0.70578 0.7011 0.89632 0.0
C1133 C 0.68529 0.69004 0.88235 0.0
C1134 C 0.69388 0.68867 0.86997 0.0
C1135 C 0.70871 0.69281 0.8711 0.0
C1136 C 0.7146 0.69902 0.88414 0.0
C1137 C 0.68699 0.68391 0.85573 0.0
C1138 C 0.67417 0.69069 0.85059 0.0
C1139 C 0.66728 0.68646 0.83722 0.0
C1140 C 0.67341 0.67516 0.82897 0.0
C1141 C 0.68628 0.6682 0.8339 0.0
C1142 C 0.69307 0.67277 0.84727 0.0
C1143 C 0.6926 0.65618 0.82507 0.0
C1144 C 0.68353 0.64543 0.8182 0.0
C1145 C 0.70776 0.65536 0.82343 0.0
C1146 C 0.71371 0.64413 0.8151 0.0
C1147 C 0.70465 0.63341 0.80818 0.0
C1148 C 0.65384 0.69408 0.83187 0.0
C1149 C 0.64312 0.69822 0.84173 0.0
C1150 C 0.65181 0.6977 0.81699 0.0
C1151 C 0.63952 0.70549 0.81216 0.0
C1152 C 0.629 0.7099 0.82211 0.0
C1153 C 0.6309 0.70606 0.83692 0.0
C1154 C 0.68948 0.63418 0.80988 0.0
H1155 H 0.68415 0.69708 0.90462 0.0
H1156 H 0.67389 0.68669 0.88186 0.0
H1157 H 0.71556 0.69189 0.8617 0.0
H1158 H 0.72585 0.70282 0.88442 0.0
H1159 H 0.66977 0.69959 0.85691 0.0
H1160 H 0.70284 0.6674 0.85134 0.0
H1161 H 0.66817 0.67179 0.81866 0.0
H1162 H 0.67181 0.64562 0.81937 0.0
H1163 H 0.71507 0.6635 0.82845 0.0
H1164 H 0.72546 0.64378 0.81424 0.0
H1165 H 0.64415 0.69538 0.85321 0.0
H1166 H 0.65992 0.69488 0.80911 0.0
H1167 H 0.68217 0.62618 0.80464 0.0
H1168 H 0.62287 0.70905 0.84483 0.0
H1169 H 0.63846 0.70839 0.8007 0.0
C1170 C 0.3383 0.62591 0.82199 0.0
C1171 C 0.32299 0.62474 0.82236 0.0
C1172 C 0.34546 0.63924 0.82515 0.0
C1173 C 0.33749 0.65169 0.82885 0.0
C1174 C 0.32217 0.65057 0.82903 0.0
C1175 C 0.315 0.63726 0.82578 0.0
C1176 C 0.34517 0.66562 0.83308 0.0
C1177 C 0.35709 0.67081 0.82513 0.0
C1178 C 0.36465 0.68375 0.82945 0.0
C1179 C 0.3603 0.69125 0.84207 0.0
C1180 C 0.34834 0.68633 0.84997 0.0
C1181 C 0.34077 0.67359 0.84537 0.0
C1182 C 0.3438 0.69453 0.8631 0.0
C1183 C 0.35402 0.69814 0.8744 0.0
C1184 C 0.32927 0.69894 0.86431 0.0
C1185 C 0.32506 0.70701 0.87651 0.0
C1186 C 0.33526 0.71055 0.88786 0.0
C1187 C 0.37706 0.68956 0.82093 0.0
C1188 C 0.38749 0.68017 0.81505 0.0
C1189 C 0.3789 0.70476 0.81916 0.0
C1190 C 0.39121 0.71046 0.81249 0.0
C1191 C 0.40192 0.70113 0.80722 0.0
C1192 C 0.39978 0.68591 0.8082 0.0
C1193 C 0.34975 0.70595 0.88674 0.0
H1194 H 0.34477 0.61652 0.8192 0.0
H1195 H 0.35728 0.6397 0.82503 0.0
H1196 H 0.31571 0.66 0.83171 0.0
H1197 H 0.30321 0.63672 0.82623 0.0
H1198 H 0.36026 0.66496 0.8154 0.0
H1199 H 0.33174 0.66961 0.8517 0.0
H1200 H 0.36619 0.70103 0.84578 0.0
H1201 H 0.36528 0.6948 0.87374 0.0
H1202 H 0.32121 0.69635 0.8557 0.0
H1203 H 0.3138 0.71034 0.87717 0.0
H1204 H 0.38646 0.66842 0.81626 0.0
H1205 H 0.37091 0.71232 0.82314 0.0
H1206 H 0.35783 0.7086 0.89531 0.0
H1207 H 0.40793 0.67849 0.80428 0.0
H1208 H 0.3925 0.72223 0.81169 0.0
C1209 C 0.32212 0.33535 0.89869 0.0
C1210 C 0.3294 0.33095 0.91169 0.0
C1211 C 0.32998 0.3393 0.88641 0.0
C1212 C 0.34532 0.33892 0.8868 0.0
C1213 C 0.35263 0.33452 0.89977 0.0
C1214 C 0.34477 0.33062 0.91208 0.0
C1215 C 0.35365 0.34314 0.8737 0.0
C1216 C 0.34956 0.35546 0.86546 0.0
C1217 C 0.35716 0.35949 0.85294 0.0
C1218 C 0.36896 0.35095 0.84868 0.0
C1219 C 0.37327 0.33861 0.85677 0.0
C1220 C 0.3656 0.33484 0.86933 0.0
C1221 C 0.38576 0.32972 0.85199 0.0
C1222 C 0.38724 0.32628 0.83709 0.0
C1223 C 0.39652 0.325 0.86215 0.0
C1224 C 0.4087 0.31738 0.85745 0.0
C1225 C 0.41036 0.31428 0.84248 0.0
C1226 C 0.35279 0.37259 0.8443 0.0
C1227 C 0.33797 0.37571 0.84162 0.0
C1228 C 0.36342 0.38202 0.83858 0.0
C1229 C 0.35933 0.39422 0.83032 0.0
C1230 C 0.3445 0.39733 0.8276 0.0
C1231 C 0.33387 0.38793 0.83339 0.0
C1232 C 0.39936 0.31864 0.8324 0.0
H1233 H 0.3103 0.33549 0.89788 0.0
H1234 H 0.32401 0.34243 0.87651 0.0
H1235 H 0.36444 0.3343 0.90049 0.0
H1236 H 0.35076 0.32752 0.92196 0.0
H1237 H 0.34065 0.36215 0.86903 0.0
H1238 H 0.36866 0.32517 0.87545 0.0
H1239 H 0.37483 0.35391 0.83899 0.0
H1240 H 0.379 0.3295 0.82901 0.0
H1241 H 0.39575 0.32759 0.8737 0.0
H1242 H 0.41702 0.31431 0.8655 0.0
H1243 H 0.32949 0.3686 0.84572 0.0
H1244 H 0.37494 0.38006 0.84058 0.0
H1245 H 0.4001 0.31616 0.82083 0.0
H1246 H 0.32235 0.39008 0.83169 0.0
H1247 H 0.36781 0.40111 0.82592 0.0
Cu1248 Cu 0.26329 0.26905 0.02792 0.0
N1249 N 0.26346 0.28551 0.01579 0.0
N1250 N 0.27125 0.29976 0.99768 0.0
C1251 C 0.27248 0.28675 1.00452 0.0
C1252 C 0.26091 0.30698 1.00495 0.0
C1253 C 0.25614 0.29818 0.01614 0.0
O1254 O 0.26188 0.25237 0.01438 0.0
C1255 C 0.28004 0.28275 0.04861 0.0
O1256 O 0.26885 0.29139 0.04644 0.0
H1257 H 0.27982 0.27817 1.00145 0.0
H1258 H 0.24822 0.30102 0.02416 0.0
N1259 N 0.24727 0.26771 0.04013 0.0
N1260 N 0.2336 0.25864 0.05793 0.0
C1261 C 0.24643 0.25799 0.05109 0.0
C1262 C 0.23452 0.27486 0.03999 0.0
C1263 C 0.22608 0.2693 0.05098 0.0
C1264 C 0.24978 0.25249 0.00704 0.0
O1265 O 0.24057 0.263 0.00971 0.0
H1266 H 0.25517 0.25059 0.05393 0.0
H1267 H 0.23138 0.28322 0.03224 0.0
O1268 O 0.28043 0.27089 0.04117 0.0
H1269 H 0.25731 0.31799 1.00264 0.0
H1270 H 0.2151 0.27261 0.05335 0.0
Cu1271 Cu 0.76939 0.26879 0.00599 0.0
N1272 N 0.75134 0.27215 0.01631 0.0
N1273 N 0.73569 0.28064 0.03244 0.0
C1274 C 0.74975 0.28031 0.02847 0.0
C1275 C 0.72816 0.27245 0.02233 0.0
C1276 C 0.73788 0.26718 0.01239 0.0
O1277 O 0.77842 0.25957 0.02438 0.0
C1278 C 0.75579 0.29059 0.9867 0.0
O1279 O 0.75715 0.29907 0.99836 0.0
H1280 H 0.75861 0.28616 0.03411 0.0
H1281 H 0.73532 0.26031 1.00293 0.0
N1282 N 0.78735 0.26536 0.99563 0.0
N1283 N 0.80263 0.25751 0.97884 0.0
C1284 C 0.78862 0.2579 0.98299 0.0
C1285 C 0.80094 0.26992 0.99962 0.0
C1286 C 0.81042 0.26503 0.98929 0.0
C1287 C 0.78506 0.26719 0.03431 0.0
O1288 O 0.78629 0.28143 0.03268 0.0
H1289 H 0.77949 0.25274 0.97706 0.0
H1290 H 0.80375 0.27638 0.00929 0.0
O1291 O 0.76026 0.27748 0.98738 0.0
H1292 H 0.71652 0.27028 0.02222 0.0
H1293 H 0.82208 0.26706 0.98935 0.0
Cu1294 Cu 0.75496 0.78194 1.00149 0.0
N1295 N 0.75697 0.79841 0.98965 0.0
N1296 N 0.765 0.81209 0.97127 0.0
C1297 C 0.76456 0.79864 0.97729 0.0
C1298 C 0.75718 0.82064 0.98016 0.0
C1299 C 0.75227 0.81216 0.99154 0.0
O1300 O 0.75227 0.76507 0.9883 0.0
C1301 C 0.78182 0.79035 0.01628 0.0
O1302 O 0.78397 0.79868 1.00487 0.0
H1303 H 0.7698 0.78908 0.97293 0.0
H1304 H 0.74601 0.81582 1.00068 0.0
N1305 N 0.73848 0.78278 0.01297 0.0
N1306 N 0.72379 0.77648 0.03101 0.0
C1307 C 0.73716 0.77519 0.02544 0.0
C1308 C 0.72551 0.78928 0.01061 0.0
C1309 C 0.71636 0.7853 0.02171 0.0
C1310 C 0.74116 0.76629 0.97963 0.0
O1311 O 0.7334 0.77823 0.98045 0.0
H1312 H 0.74567 0.76832 0.02999 0.0
H1313 H 0.72277 0.79608 1.0013 0.0
O1314 O 0.77119 0.78118 0.01588 0.0
H1315 H 0.75552 0.83227 0.97883 0.0
H1316 H 0.70511 0.7885 0.02277 0.0
Cu1317 Cu 0.26827 0.76538 1.00485 0.0
N1318 N 0.26394 0.78182 0.01613 0.0
N1319 N 0.25437 0.79453 0.03442 0.0
C1320 C 0.25815 0.78119 0.02948 0.0
C1321 C 0.25805 0.80395 0.02378 0.0
C1322 C 0.26385 0.79606 0.01245 0.0
O1323 O 0.27317 0.74973 0.01853 0.0
C1324 C 0.23975 0.76736 0.99144 0.0
O1325 O 0.23612 0.77384 1.00365 0.0
H1326 H 0.25628 0.77104 0.03521 0.0
H1327 H 0.26702 0.80031 1.00198 0.0
N1328 N 0.28434 0.76856 0.99314 0.0
N1329 N 0.29973 0.76404 0.97523 0.0
C1330 C 0.2893 0.75849 0.98377 0.0
C1331 C 0.29199 0.78091 0.99055 0.0
C1332 C 0.30146 0.77817 0.97941 0.0
C1333 C 0.28497 0.75226 0.02596 0.0
O1334 O 0.2923 0.76439 0.0234 0.0
H1335 H 0.28477 0.74751 0.9827 0.0
H1336 H 0.29052 0.79129 0.99601 0.0
O1337 O 0.25222 0.76144 0.99079 0.0
H1338 H 0.25595 0.81559 0.02381 0.0
H1339 H 0.30884 0.78599 0.97458 0.0
Cu1340 Cu 0.01563 0.24975 0.27624 0.0
N1341 N 0.02476 0.23178 0.27375 0.0
N1342 N 0.04144 0.21581 0.26664 0.0
C1343 C 0.03821 0.23005 0.26854 0.0
C1344 C 0.02953 0.20827 0.27088 0.0
C1345 C 0.01926 0.21816 0.27529 0.0
O1346 O 0.03093 0.26442 0.28066 0.0
C1347 C 1.00273 0.24592 0.24752 0.0
O1348 O 0.01363 0.23709 0.24523 0.0
H1349 H 0.04521 0.23913 0.26559 0.0
H1350 H 0.00841 0.21565 0.27898 0.0
N1351 N 1.00311 0.24925 0.29196 0.0
N1352 N 0.98442 0.25552 0.30569 0.0
C1353 C 0.99107 0.25743 0.29287 0.0
C1354 C 1.00406 0.24176 0.30461 0.0
C1355 C 0.99257 0.24571 0.31317 0.0
C1356 C 0.03907 0.26132 0.29178 0.0
O1357 O 0.03637 0.24911 0.29877 0.0
H1358 H 0.9875 0.26496 0.28442 0.0
H1359 H 0.01258 0.23412 0.30747 0.0
O1360 O 1.00282 0.25357 0.25924 0.0
H1361 H 0.02826 0.19647 0.27065 0.0
H1362 H 0.99036 0.24167 0.32401 0.0
Cu1363 Cu 0.75845 0.02149 0.25992 0.0
N1364 N 0.75609 0.03891 0.24947 0.0
N1365 N 0.76215 0.06034 0.23943 0.0
C1366 C 0.76699 0.04844 0.24668 0.0
C1367 C 0.74762 0.05816 0.23746 0.0
C1368 C 0.74393 0.04487 0.24355 0.0
O1369 O 0.77272 0.02518 0.27575 0.0
C1370 C 0.77408 0.99645 0.25222 0.0
O1371 O 0.77744 0.9966 0.26632 0.0
H1372 H 0.77823 0.0468 0.25024 0.0
H1373 H 0.73316 0.03991 0.24353 0.0
N1374 N 0.74118 0.01404 0.26763 0.0
N1375 N 0.72603 0.99784 0.27775 0.0
C1376 C 0.73965 1.00046 0.27309 0.0
C1377 C 0.72806 0.0203 0.26896 0.0
C1378 C 0.71868 0.01031 0.27514 0.0
C1379 C 0.77364 0.03631 0.28421 0.0
O1380 O 0.78485 0.03756 0.29349 0.0
H1381 H 0.74834 0.99256 0.27344 0.0
H1382 H 0.72551 0.0314 0.26595 0.0
O1383 O 0.766 0.0065 0.24697 0.0
H1384 H 0.74022 0.06551 0.2318 0.0
H1385 H 0.70741 0.01217 0.27776 0.0
Cu1386 Cu 1.00425 0.76584 0.252 0.0
N1387 N 0.99483 0.78377 0.25033 0.0
N1388 N 0.97749 0.79958 0.24366 0.0
C1389 C 0.98155 0.78544 0.2439 0.0
C1390 C 0.98862 0.8071 0.25039 0.0
C1391 C 0.99935 0.79729 0.25448 0.0
O1392 O 0.98944 0.7512 0.25665 0.0
C1393 C 0.01467 0.76981 0.22304 0.0
O1394 O 1.00407 0.77922 0.22129 0.0
H1395 H 0.97508 0.77639 0.23939 0.0
H1396 H 0.00977 0.79986 0.25984 0.0
N1397 N 0.01836 0.76597 0.26717 0.0
N1398 N 0.03779 0.75825 0.28013 0.0
C1399 C 0.02997 0.75713 0.26742 0.0
C1400 C 0.01892 0.77311 0.28014 0.0
C1401 C 0.03088 0.76825 0.28824 0.0
C1402 C 0.98273 0.75419 0.26829 0.0
O1403 O 0.98636 0.76627 0.27547 0.0
H1404 H 0.03225 0.74951 0.25868 0.0
H1405 H 0.01099 0.78096 0.28363 0.0
O1406 O 0.01522 0.76194 0.23451 0.0
H1407 H 0.98918 0.81886 0.25188 0.0
H1408 H 0.03414 0.77165 0.29926 0.0
Cu1409 Cu 0.24413 0.99658 0.28126 0.0
N1410 N 0.2448 0.00975 0.29713 0.0
N1411 N 0.25259 0.02937 0.31016 0.0
C1412 C 0.25285 0.02219 0.29719 0.0
C1413 C 0.24391 0.02112 0.31859 0.0
C1414 C 0.23916 0.00902 0.31055 0.0
O1415 O 0.24354 0.00894 0.26388 0.0
C1416 C 0.26021 0.9761 0.29548 0.0
O1417 O 0.24928 0.97833 0.30413 0.0
H1418 H 0.25894 0.02574 0.28787 0.0
H1419 H 0.2326 1.00008 0.31453 0.0
N1420 N 0.22748 0.98438 0.2803 0.0
N1421 N 0.21261 0.96648 0.27176 0.0
C1422 C 0.22464 0.97467 0.26938 0.0
C1423 C 0.21675 0.98235 0.28987 0.0
C1424 C 0.20761 0.97122 0.28466 0.0
C1425 C 0.23145 0.01558 0.26228 0.0
O1426 O 0.22119 0.01291 0.27167 0.0
H1427 H 0.23157 0.97332 0.2601 0.0
H1428 H 0.21566 0.98835 0.29998 0.0
O1429 O 0.26072 0.98346 0.28367 0.0
H1430 H 0.24162 0.02332 0.32994 0.0
H1431 H 0.19805 0.96693 0.28994 0.0
Cu1432 Cu 0.0175 0.76164 0.75303 0.0
N1433 N 0.02665 0.74385 0.74944 0.0
N1434 N 0.04329 0.72836 0.74125 0.0
C1435 C 0.04003 0.74247 0.74394 0.0
C1436 C 0.03148 0.72054 0.74532 0.0
C1437 C 0.02123 0.73014 0.75039 0.0
O1438 O 0.03272 0.77579 0.75927 0.0
C1439 C 1.00569 0.76015 0.72369 0.0
O1440 O 0.01688 0.75186 0.72098 0.0
H1441 H 0.04693 0.75175 0.74135 0.0
H1442 H 0.01047 0.72737 0.75412 0.0
N1443 N 1.00429 0.76008 0.76814 0.0
N1444 N 0.98515 0.76578 0.78152 0.0
C1445 C 0.99231 0.76836 0.76911 0.0
C1446 C 1.00465 0.75183 0.78031 0.0
C1447 C 0.99289 0.75542 0.78867 0.0
C1448 C 0.04026 0.77162 0.77042 0.0
O1449 O 0.03717 0.7588 0.77606 0.0
H1450 H 0.98918 0.77647 0.76105 0.0
H1451 H 0.01297 0.74393 0.78303 0.0
O1452 O 1.00531 0.76681 0.73598 0.0
H1453 H 0.03024 0.70876 0.74456 0.0
H1454 H 0.99022 0.7508 0.79915 0.0
Cu1455 Cu 0.27286 0.01798 0.77549 0.0
N1456 N 0.29109 0.02683 0.77274 0.0
N1457 N 0.30738 0.04307 0.76461 0.0
C1458 C 0.2932 0.04034 0.76731 0.0
C1459 C 0.31448 0.0308 0.76867 0.0
C1460 C 0.30438 0.02081 0.77369 0.0
O1461 O 0.2594 0.03335 0.78083 0.0
C1462 C 0.27316 0.00837 0.7457 0.0
O1463 O 0.28068 0.02041 0.74333 0.0
H1464 H 0.28435 0.04764 0.76453 0.0
H1465 H 0.30649 0.00973 0.77721 0.0
N1466 N 0.27366 1.00421 0.79054 0.0
N1467 N 0.26757 0.98433 0.80327 0.0
C1468 C 0.26512 0.9921 0.79094 0.0
C1469 C 0.28192 1.00404 0.803 0.0
C1470 C 0.27811 0.99183 0.81094 0.0
C1471 C 0.26347 0.0406 0.79226 0.0
O1472 O 0.27578 0.03704 0.79901 0.0
H1473 H 0.25702 0.98924 0.78247 0.0
H1474 H 0.29008 0.01225 0.80613 0.0
O1475 O 0.26738 0.00657 0.75806 0.0
H1476 H 0.32606 0.02902 0.76775 0.0
H1477 H 0.28278 0.98865 0.82146 0.0
Cu1478 Cu 0.02462 0.27647 0.76923 0.0
N1479 N 0.01418 0.29386 0.76759 0.0
N1480 N 0.99616 0.30885 0.76067 0.0
C1481 C 1.00077 0.29489 0.76126 0.0
C1482 C 0.00711 0.31693 0.76706 0.0
C1483 C 0.01824 0.30764 0.77128 0.0
O1484 O 0.01032 0.26079 0.77198 0.0
C1485 C 0.03546 0.28164 0.74068 0.0
O1486 O 0.0235 0.28911 0.73829 0.0
H1487 H 0.99463 0.2855 0.757 0.0
H1488 H 0.02867 0.31074 0.77635 0.0
N1489 N 0.03759 0.27669 0.78546 0.0
N1490 N 0.05625 0.26968 0.80001 0.0
C1491 C 0.04935 0.26807 0.78681 0.0
C1492 C 0.0371 0.28416 0.79819 0.0
C1493 C 0.04857 0.27977 0.80725 0.0
C1494 C 1.0029 0.26255 0.78341 0.0
O1495 O 0.00573 0.2741 0.79172 0.0
H1496 H 0.05248 0.26038 0.77844 0.0
H1497 H 0.02884 0.29201 0.80082 0.0
O1498 O 0.03693 0.27427 0.75241 0.0
H1499 H 0.0073 0.32873 0.76817 0.0
H1500 H 0.05104 0.28365 0.8183 0.0
Cu1501 Cu 0.76061 0.01588 0.75297 0.0
N1502 N 0.7643 0.02504 0.77106 0.0
N1503 N 0.7748 0.04055 0.78736 0.0
C1504 C 0.77489 0.03514 0.77358 0.0
C1505 C 0.76369 0.03345 0.79379 0.0
C1506 C 0.75724 0.02384 0.78369 0.0
O1507 O 0.76093 0.03097 0.7379 0.0
C1508 C 0.77382 0.99029 0.76048 0.0
O1509 O 0.76314 0.9907 0.76972 0.0
H1510 H 0.78215 0.03884 0.7652 0.0
H1511 H 0.74796 0.01666 0.78537 0.0
N1512 N 0.74224 0.00673 0.75186 0.0
N1513 N 0.7252 0.98974 0.74614 0.0
C1514 C 0.73944 0.99354 0.74569 0.0
C1515 C 0.72927 0.01157 0.75626 0.0
C1516 C 0.71869 1.00109 0.7527 0.0
C1517 C 0.75447 0.04281 0.74101 0.0
O1518 O 0.74814 0.04398 0.75366 0.0
H1519 H 0.74771 0.98693 0.74077 0.0
H1520 H 0.72762 0.02198 0.76164 0.0
O1521 O 0.77525 1.0007 0.7514 0.0
H1522 H 0.76039 0.0351 0.80495 0.0
H1523 H 0.70718 1.00169 0.75492 0.0
Cu1524 Cu 0.25275 0.76801 0.50317 0.0
N1525 N 0.25345 0.78624 0.51257 0.0
N1526 N 0.25982 0.80313 0.52952 0.0
C1527 C 0.25839 0.7887 0.52642 0.0
C1528 C 0.25544 0.81002 0.51712 0.0
C1529 C 0.2515 0.79955 0.50668 0.0
O1530 O 0.24814 0.75335 0.51759 0.0
C1531 C 0.28196 0.77316 0.49436 0.0
O1532 O 0.28343 0.78141 0.50617 0.0
H1533 H 0.26182 0.78008 0.53376 0.0
H1534 H 0.24812 0.80149 0.49541 0.0
N1535 N 0.23783 0.7669 0.48887 0.0
N1536 N 0.2253 0.75812 0.4692 0.0
C1537 C 0.2379 0.75774 0.47728 0.0
C1538 C 0.22478 0.77343 0.48819 0.0
C1539 C 0.21702 0.76806 0.47603 0.0
C1540 C 0.25644 0.74849 0.5278 0.0
O1541 O 0.27034 0.75226 0.52837 0.0
H1542 H 0.24704 0.75081 0.47502 0.0
H1543 H 0.22103 0.78122 0.49617 0.0
O1544 O 0.27052 0.76522 0.49249 0.0
H1545 H 0.25548 0.82175 0.51555 0.0
H1546 H 0.20597 0.77093 0.47281 0.0
Cu1547 Cu 0.76984 0.77871 0.50169 0.0
N1548 N 0.7857 0.77896 0.48927 0.0
N1549 N 0.7995 0.77054 0.47135 0.0
C1550 C 0.78697 0.76892 0.47858 0.0
C1551 C 0.80637 0.78224 0.47773 0.0
C1552 C 0.79784 0.7874 0.48882 0.0
O1553 O 0.75265 0.77998 0.4885 0.0
C1554 C 0.78464 0.76191 0.52092 0.0
O1555 O 0.79348 0.77302 0.51852 0.0
H1556 H 0.77875 0.76054 0.47623 0.0
H1557 H 0.80054 0.79637 0.49624 0.0
N1558 N 0.76899 0.79442 0.51488 0.0
N1559 N 0.76019 0.807 0.53368 0.0
C1560 C 0.75956 0.79442 0.52585 0.0
C1561 C 0.77597 0.80748 0.51575 0.0
C1562 C 0.77058 0.81526 0.52739 0.0
C1563 C 0.75258 0.79222 0.48182 0.0
O1564 O 0.76325 0.80161 0.48485 0.0
H1565 H 0.75237 0.78524 0.52798 0.0
H1566 H 0.78409 0.81127 0.50829 0.0
O1567 O 0.77222 0.7615 0.51417 0.0
H1568 H 0.81698 0.78652 0.47491 0.0
H1569 H 0.77379 0.82628 0.53068 0.0
Cu1570 Cu 0.7683 0.25817 0.51284 0.0
N1571 N 0.76639 0.24065 0.50218 0.0
N1572 N 0.75907 0.22539 0.48405 0.0
C1573 C 0.75971 0.23939 0.48888 0.0
C1574 C 0.76581 0.21754 0.4947 0.0
C1575 C 0.77027 0.22699 0.50592 0.0
O1576 O 0.77226 0.27363 0.49876 0.0
C1577 C 0.73958 0.25298 0.52324 0.0
O1578 O 0.73727 0.24533 0.51114 0.0
H1579 H 0.75522 0.24862 0.48298 0.0
H1580 H 0.77565 0.22408 0.51619 0.0
N1581 N 0.78401 0.25791 0.52641 0.0
N1582 N 0.79792 0.26508 0.54577 0.0
C1583 C 0.785 0.26648 0.53846 0.0
C1584 C 0.79671 0.25067 0.52615 0.0
C1585 C 0.80537 0.25517 0.53806 0.0
C1586 C 0.78375 0.27129 0.49163 0.0
O1587 O 0.79104 0.25928 0.49438 0.0
H1588 H 0.77658 0.27403 0.54149 0.0
H1589 H 0.79961 0.24294 0.51774 0.0
O1590 O 0.75126 0.26063 0.52482 0.0
H1591 H 0.76699 0.20577 0.49464 0.0
H1592 H 0.81631 0.25152 0.54079 0.0
Cu1593 Cu 0.27838 0.27367 0.52116 0.0
N1594 N 0.27702 0.2909 0.5322 0.0
N1595 N 0.26831 0.30606 0.54902 0.0
C1596 C 0.26648 0.29318 0.54182 0.0
C1597 C 0.28053 0.31214 0.54363 0.0
C1598 C 0.28588 0.30275 0.53322 0.0
O1599 O 0.27776 0.25743 0.53502 0.0
C1600 C 0.26458 0.28581 0.49782 0.0
O1601 O 0.27558 0.29479 0.50099 0.0
H1602 H 0.25795 0.28521 0.54387 0.0
H1603 H 0.29563 0.30434 0.52702 0.0
N1604 N 0.2959 0.27227 0.51139 0.0
N1605 N 0.31083 0.26485 0.49403 0.0
C1606 C 0.29688 0.26589 0.49815 0.0
C1607 C 0.30973 0.27542 0.51589 0.0
C1608 C 0.319 0.27081 0.50518 0.0
C1609 C 0.28595 0.25944 0.54647 0.0
O1610 O 0.29378 0.27155 0.54774 0.0
H1611 H 0.28753 0.26147 0.49196 0.0
H1612 H 0.31288 0.28032 0.52635 0.0
O1613 O 0.263 0.27453 0.50583 0.0
H1614 H 0.28532 0.32258 0.54699 0.0
H1615 H 0.3308 0.27158 0.50564 0.0
Cu1616 Cu 0.7775 0.52776 0.76228 0.0
N1617 N 0.79379 0.54041 0.76201 0.0
N1618 N 0.80764 0.55918 0.75481 0.0
C1619 C 0.7947 0.55207 0.75314 0.0
C1620 C 0.81524 0.55169 0.76514 0.0
C1621 C 0.8066 0.54016 0.76966 0.0
O1622 O 0.76044 0.54036 0.76098 0.0
C1623 C 0.79156 0.50609 0.74847 0.0
O1624 O 0.80003 0.50916 0.75999 0.0
H1625 H 0.78607 0.55515 0.74543 0.0
H1626 H 0.80948 0.53212 0.77786 0.0
N1627 N 0.77625 0.51714 0.77961 0.0
N1628 N 0.76891 0.49928 0.79442 0.0
C1629 C 0.76914 0.50421 0.78053 0.0
C1630 C 0.78076 0.52057 0.7934 0.0
C1631 C 0.7762 0.50956 0.80259 0.0
C1632 C 0.76108 0.55087 0.77027 0.0
O1633 O 0.77234 0.55186 0.77951 0.0
H1634 H 0.76379 0.49878 0.7712 0.0
H1635 H 0.78667 0.53048 0.79658 0.0
O1636 O 0.77979 0.51326 0.74666 0.0
H1637 H 0.82616 0.55445 0.76922 0.0
H1638 H 0.77804 0.5092 0.81435 0.0
Cu1639 Cu 0.27955 0.51321 0.76173 0.0
N1640 N 0.29721 0.50361 0.76484 0.0
N1641 N 0.31279 0.4866 0.77278 0.0
C1642 C 0.29865 0.49025 0.77076 0.0
C1643 C 0.32055 0.49815 0.7679 0.0
C1644 C 0.31089 0.50864 0.76297 0.0
O1645 O 0.26426 0.49832 0.75877 0.0
C1646 C 0.28423 0.52713 0.78957 0.0
O1647 O 0.2922 0.51572 0.79291 0.0
H1648 H 0.28948 0.48361 0.77409 0.0
H1649 H 0.31362 0.5193 0.75867 0.0
N1650 N 0.27999 0.52469 0.74496 0.0
N1651 N 0.27373 0.54252 0.7295 0.0
C1652 C 0.27173 0.53657 0.74277 0.0
C1653 C 0.28761 0.52309 0.7327 0.0
C1654 C 0.28367 0.53405 0.72307 0.0
C1655 C 0.2665 0.48965 0.74811 0.0
O1656 O 0.27832 0.49167 0.74057 0.0
H1657 H 0.26411 0.54055 0.75065 0.0
H1658 H 0.29534 0.51449 0.73085 0.0
O1659 O 0.27668 0.52705 0.77761 0.0
H1660 H 0.33235 0.49904 0.768 0.0
H1661 H 0.28782 0.5357 0.71222 0.0
Cu1662 Cu 0.27624 0.50836 0.27012 0.0
N1663 N 0.2758 0.49691 0.28708 0.0
N1664 N 0.26832 0.47882 0.30157 0.0
C1665 C 0.2675 0.4847 0.28806 0.0
C1666 C 0.27755 0.4877 0.30945 0.0
C1667 C 0.28222 0.49882 0.30045 0.0
O1668 O 0.27946 0.49427 0.25427 0.0
C1669 C 0.25776 0.52782 0.28131 0.0
O1670 O 0.26847 0.52697 0.29116 0.0
H1671 H 0.26063 0.48048 0.27909 0.0
H1672 H 0.2895 0.50782 0.30354 0.0
N1673 N 0.29155 0.52221 0.26998 0.0
N1674 N 0.30427 0.54153 0.26211 0.0
C1675 C 0.29163 0.5338 0.26094 0.0
C1676 C 0.30456 0.52269 0.27727 0.0
C1677 C 0.31249 0.53457 0.27235 0.0
C1678 C 0.29165 0.48784 0.25627 0.0
O1679 O 0.29982 0.49161 0.2678 0.0
H1680 H 0.28275 0.53621 0.25326 0.0
H1681 H 0.30821 0.51479 0.2853 0.0
O1682 O 0.2584 0.51997 0.26971 0.0
H1683 H 0.28067 0.48628 0.32088 0.0
H1684 H 0.32345 0.53778 0.27594 0.0
Cu1685 Cu 0.77384 0.51134 0.24542 0.0
N1686 N 0.79024 0.49954 0.24808 0.0
N1687 N 0.80384 0.48154 0.25747 0.0
C1688 C 0.79046 0.48749 0.25648 0.0
C1689 C 0.81241 0.49019 0.24932 0.0
C1690 C 0.80397 0.50127 0.24348 0.0
O1691 O 0.75697 0.49807 0.24408 0.0
C1692 C 0.78486 0.53535 0.25919 0.0
O1693 O 0.79384 0.53299 0.24853 0.0
H1694 H 0.78105 0.48348 0.26219 0.0
H1695 H 0.80768 0.5101 0.23665 0.0
N1696 N 0.77352 0.52193 0.22791 0.0
N1697 N 0.76585 0.53898 0.21207 0.0
C1698 C 0.76386 0.53258 0.22515 0.0
C1699 C 0.78203 0.5215 0.21617 0.0
C1700 C 0.77733 0.53206 0.20637 0.0
C1701 C 0.75748 0.48993 0.2327 0.0
O1702 O 0.76877 0.49132 0.22428 0.0
H1703 H 0.75574 0.53576 0.23285 0.0
H1704 H 0.79099 0.51409 0.21482 0.0
O1705 O 0.77439 0.52624 0.26092 0.0
H1706 H 0.82395 0.48867 0.24775 0.0
H1707 H 0.78194 0.53435 0.19585 0.0
Cu1708 Cu 0.5268 0.25923 0.7713 0.0
N1709 N 0.51711 0.26049 0.78896 0.0
N1710 N 0.49991 0.267 0.80448 0.0
C1711 C 0.50394 0.26655 0.79039 0.0
C1712 C 0.51097 0.26077 0.81221 0.0
C1713 C 0.52161 0.25681 0.8026 0.0
O1714 O 0.51181 0.25576 0.75585 0.0
C1715 C 0.5384 0.28807 0.77698 0.0
O1716 O 0.52681 0.28988 0.78485 0.0
H1717 H 0.49757 0.27078 0.78121 0.0
H1718 H 0.53202 0.25195 0.80539 0.0
N1719 N 0.53953 0.24344 0.77112 0.0
N1720 N 0.55778 0.22954 0.76368 0.0
C1721 C 0.55096 0.24247 0.76229 0.0
C1722 C 0.53914 0.23072 0.77848 0.0
C1723 C 0.55037 0.22207 0.77383 0.0
C1724 C 0.5042 0.24419 0.75788 0.0
O1725 O 0.50721 0.23634 0.76956 0.0
H1726 H 0.55391 0.25093 0.75464 0.0
H1727 H 0.53113 0.22784 0.78645 0.0
O1728 O 0.53937 0.27651 0.7692 0.0
H1729 H 0.5116 0.25966 0.82401 0.0
H1730 H 0.55287 0.21115 0.7776 0.0
Cu1731 Cu 0.50762 0.77515 0.76081 0.0
N1732 N 0.5217 0.77487 0.77619 0.0
N1733 N 0.5414 0.76733 0.78911 0.0
C1734 C 0.53354 0.76628 0.77634 0.0
C1735 C 0.53418 0.77708 0.79728 0.0
C1736 C 0.52206 0.78168 0.78932 0.0
O1737 O 0.51868 0.77627 0.74291 0.0
C1738 C 0.48894 0.75782 0.77538 0.0
O1739 O 0.49198 0.76859 0.78464 0.0
H1740 H 0.53617 0.75928 0.76722 0.0
H1741 H 0.51383 0.78904 0.7931 0.0
N1742 N 0.4953 0.79142 0.76134 0.0
N1743 N 0.47648 0.8058 0.7552 0.0
C1744 C 0.4829 0.79273 0.75314 0.0
C1745 C 0.49681 0.80408 0.7689 0.0
C1746 C 0.48523 0.81294 0.76515 0.0
C1747 C 0.52525 0.78856 0.74157 0.0
O1748 O 0.52359 0.79863 0.75169 0.0
H1749 H 0.47875 0.78421 0.74579 0.0
H1750 H 0.50591 0.80691 0.77625 0.0
O1751 O 0.49492 0.758 0.76296 0.0
H1752 H 0.53708 0.78031 0.80843 0.0
H1753 H 0.48367 0.82397 0.76914 0.0
Cu1754 Cu 0.5091 0.74855 0.25799 0.0
N1755 N 0.49677 0.747 0.27375 0.0
N1756 N 0.47861 0.7529 0.28829 0.0
C1757 C 0.48491 0.75528 0.27537 0.0
C1758 C 0.4868 0.74267 0.29509 0.0
C1759 C 0.49797 0.73894 0.28602 0.0
O1760 O 0.49612 0.75248 0.24122 0.0
C1761 C 0.53194 0.76055 0.27394 0.0
O1762 O 0.52981 0.74796 0.28047 0.0
H1763 H 0.48132 0.76335 0.26745 0.0
H1764 H 0.50653 0.73119 0.28835 0.0
N1765 N 0.51892 0.73111 0.25478 0.0
N1766 N 0.53636 0.71628 0.24717 0.0
C1767 C 0.53255 0.73024 0.24984 0.0
C1768 C 0.51388 0.71723 0.25535 0.0
C1769 C 0.52463 0.70803 0.25061 0.0
C1770 C 0.49695 0.74601 0.22888 0.0
O1771 O 0.50873 0.73861 0.22605 0.0
H1772 H 0.53926 0.73975 0.24758 0.0
H1773 H 0.50302 0.71408 0.25855 0.0
O1774 O 0.52372 0.76368 0.26291 0.0
H1775 H 0.48491 0.7383 0.30587 0.0
H1776 H 0.52381 0.69623 0.24959 0.0
Cu1777 Cu 0.51275 0.24536 0.25801 0.0
N1778 N 0.49971 0.22954 0.25692 0.0
N1779 N 0.48127 0.21516 0.26385 0.0
C1780 C 0.48953 0.2272 0.26693 0.0
C1781 C 0.48646 0.20974 0.25126 0.0
C1782 C 0.49788 0.21866 0.24701 0.0
O1783 O 0.50062 0.26195 0.26309 0.0
C1784 C 0.53557 0.229 0.26786 0.0
O1785 O 0.53116 0.22223 0.25573 0.0
H1786 H 0.48811 0.23446 0.27618 0.0
H1787 H 0.50436 0.21729 0.23741 0.0
N1788 N 0.52124 0.24908 0.24011 0.0
N1789 N 0.53716 0.25902 0.22492 0.0
C1790 C 0.53427 0.25581 0.23894 0.0
C1791 C 0.51568 0.24774 0.22634 0.0
C1792 C 0.52555 0.25382 0.2169 0.0
C1793 C 0.50147 0.27446 0.25707 0.0
O1794 O 0.51301 0.27777 0.24953 0.0
H1795 H 0.54121 0.25881 0.24832 0.0
H1796 H 0.50496 0.24329 0.22345 0.0
O1797 O 0.52866 0.24033 0.2718 0.0
H1798 H 0.48244 0.19999 0.24557 0.0
H1799 H 0.52394 0.25503 0.20518 0.0
H1800 H 0.22543 0.19051 0.12248 0.0
H1801 H 0.21242 0.26443 0.07737 0.0
H1802 H 0.19099 0.22082 0.13127 0.0
H1803 H 0.24386 0.23186 0.06586 0.0
H1804 H 0.20472 0.24887 0.09744 0.0
H1805 H 0.23264 0.20576 0.10197 0.0
C1806 C 0.21931 0.20031 0.12007 0.0
C1807 C 0.20759 0.20436 0.1287 0.0
C1808 C 0.21331 0.24514 0.09051 0.0
C1809 C 0.21593 0.22201 0.10526 0.0
C1810 C 0.21768 0.25401 0.07897 0.0
C1811 C 0.22887 0.24954 0.06985 0.0
C1812 C 0.22017 0.23168 0.093 0.0
C1813 C 0.23537 0.23595 0.07268 0.0
C1814 C 0.2235 0.20907 0.10838 0.0
C1815 C 0.20025 0.21735 0.12512 0.0
N1816 N 0.23094 0.22754 0.08398 0.0
N1817 N 0.20454 0.22569 0.11371 0.0
H1818 H 0.8147 0.24805 0.12301 0.0
H1819 H 0.78989 0.23799 0.0389 0.0
H1820 H 0.82463 0.2095 0.09773 0.0
H1821 H 0.79417 0.28026 0.06015 0.0
H1822 H 0.80004 0.22661 0.06114 0.0
H1823 H 0.80473 0.25934 0.10078 0.0
C1824 C 0.81491 0.24196 0.1128 0.0
C1825 C 0.82063 0.22777 0.11234 0.0
C1826 C 0.79878 0.23838 0.0609 0.0
C1827 C 0.80884 0.2406 0.08682 0.0
C1828 C 0.79294 0.24488 0.04824 0.0
C1829 C 0.7912 0.26011 0.04765 0.0
C1830 C 0.80271 0.24714 0.07314 0.0
C1831 C 0.79538 0.26849 0.06008 0.0
C1832 C 0.80911 0.24841 0.10011 0.0
C1833 C 0.82018 0.22035 0.09876 0.0
N1834 N 0.80087 0.26189 0.07234 0.0
N1835 N 0.81436 0.22683 0.08658 0.0
H1836 H 0.79828 0.80777 0.10874 0.0
H1837 H 0.80414 0.81016 0.02139 0.0
H1838 H 0.82275 0.84062 0.08578 0.0
H1839 H 0.77635 0.77959 0.0437 0.0
H1840 H 0.8133 0.8195 0.04509 0.0
H1841 H 0.79205 0.79574 0.0853 0.0
C1842 C 0.80242 0.81242 0.09879 0.0
C1843 C 0.81101 0.82529 0.09927 0.0
C1844 C 0.8053 0.81065 0.04482 0.0
C1845 C 0.80387 0.81154 0.07232 0.0
C1846 C 0.80011 0.80523 0.03126 0.0
C1847 C 0.78936 0.79412 0.03049 0.0
C1848 C 0.7997 0.80496 0.05779 0.0
C1849 C 0.78462 0.78817 0.04372 0.0
C1850 C 0.79881 0.80556 0.08539 0.0
C1851 C 0.81591 0.83087 0.08596 0.0
N1852 N 0.78972 0.79376 0.0568 0.0
N1853 N 0.81227 0.82398 0.07307 0.0
H1854 H 0.22024 0.83419 0.11227 0.0
H1855 H 0.23525 0.77673 0.04813 0.0
H1856 H 0.19363 0.79558 0.10355 0.0
H1857 H 0.2553 0.81973 0.05043 0.0
H1858 H 0.22159 0.78252 0.06987 0.0
H1859 H 0.23479 0.82817 0.09106 0.0
C1860 C 0.21751 0.82441 0.10594 0.0
C1861 C 0.20569 0.81538 0.10967 0.0
C1862 C 0.22899 0.7907 0.06564 0.0
C1863 C 0.22227 0.80845 0.08539 0.0
C1864 C 0.2369 0.78735 0.05328 0.0
C1865 C 0.2465 0.79775 0.04746 0.0
C1866 C 0.23073 0.80452 0.07235 0.0
C1867 C 0.24795 0.81144 0.05448 0.0
C1868 C 0.22577 0.82103 0.09379 0.0
C1869 C 0.20255 0.80293 0.10098 0.0
N1870 N 0.24018 0.81442 0.06659 0.0
N1871 N 0.21081 0.79981 0.08928 0.0
H1872 H 0.2189 0.78828 0.90115 0.0
H1873 H 0.21369 0.78156 0.98825 0.0
H1874 H 0.18793 0.81165 0.92682 0.0
H1875 H 0.24637 0.75996 0.9632 0.0
H1876 H 0.20217 0.79008 0.96545 0.0
H1877 H 0.22749 0.77577 0.92333 0.0
C1878 C 0.21389 0.7908 0.91143 0.0
C1879 C 0.20271 0.80114 0.91207 0.0
C1880 C 0.21176 0.78334 0.96491 0.0
C1881 C 0.21242 0.78668 0.93756 0.0
C1882 C 0.21832 0.77839 0.97796 0.0
C1883 C 0.23113 0.77013 0.9777 0.0
C1884 C 0.21805 0.78007 0.95146 0.0
C1885 C 0.23657 0.76635 0.96397 0.0
C1886 C 0.21875 0.78357 0.92409 0.0
C1887 C 0.19647 0.8037 0.92571 0.0
N1888 N 0.2301 0.77149 0.95143 0.0
N1889 N 0.20146 0.7966 0.93788 0.0
H1890 H 0.20236 0.21964 0.93232 0.0
H1891 H 0.26782 0.23541 0.99012 0.0
H1892 H 0.24257 0.19574 0.93002 0.0
H1893 H 0.22268 0.24588 0.99652 0.0
H1894 H 0.26016 0.22133 0.96787 0.0
H1895 H 0.21104 0.23054 0.95526 0.0
C1896 C 0.21297 0.2165 0.93671 0.0
C1897 C 0.22159 0.20649 0.92926 0.0
C1898 C 0.25198 0.2266 0.97431 0.0
C1899 C 0.23186 0.21937 0.95569 0.0
C1900 C 0.25633 0.23454 0.98701 0.0
C1901 C 0.24588 0.24196 0.99508 0.0
C1902 C 0.23715 0.22622 0.96974 0.0
C1903 C 0.23116 0.24055 0.99054 0.0
C1904 C 0.21799 0.22283 0.94985 0.0
C1905 C 0.23553 0.2034 0.93535 0.0
N1906 N 0.22729 0.233 0.97818 0.0
N1907 N 0.24026 0.20983 0.94823 0.0
H1908 H 0.85398 0.20955 0.9178 0.0
H1909 H 0.78845 0.25344 0.95255 0.0
H1910 H 0.81759 0.22631 0.89211 0.0
H1911 H 0.82942 0.24584 0.97565 0.0
H1912 H 0.79808 0.24177 0.93075 0.0
H1913 H 0.84445 0.22133 0.93952 0.0
C1914 C 0.84405 0.21578 0.91667 0.0
C1915 C 0.83661 0.21692 0.90303 0.0
C1916 C 0.80497 0.24268 0.94059 0.0
C1917 C 0.82548 0.23022 0.928 0.0
C1918 C 0.79944 0.24924 0.95306 0.0
C1919 C 0.80815 0.25062 0.96594 0.0
C1920 C 0.81927 0.23731 0.94103 0.0
C1921 C 0.8224 0.24516 0.96591 0.0
C1922 C 0.83857 0.22244 0.92912 0.0
C1923 C 0.82361 0.22491 0.90238 0.0
N1924 N 0.82749 0.2387 0.95367 0.0
N1925 N 0.81845 0.23122 0.91468 0.0
H1926 H 0.79471 0.85461 0.89298 0.0
H1927 H 0.7889 0.79921 0.96026 0.0
H1928 H 0.82461 0.8193 0.90129 0.0
H1929 H 0.7593 0.83498 0.95308 0.0
H1930 H 0.80191 0.80642 0.93857 0.0
H1931 H 0.78145 0.84761 0.91475 0.0
C1932 C 0.79846 0.84534 0.89933 0.0
C1933 C 0.81081 0.83753 0.89526 0.0
C1934 C 0.79257 0.81271 0.94171 0.0
C1935 C 0.79572 0.82953 0.9203 0.0
C1936 C 0.78504 0.80853 0.95408 0.0
C1937 C 0.77287 0.81643 0.9585 0.0
C1938 C 0.78795 0.8249 0.9336 0.0
C1939 C 0.76865 0.82862 0.95017 0.0
C1940 C 0.79092 0.8414 0.91182 0.0
C1941 C 0.81527 0.82576 0.90408 0.0
N1942 N 0.77615 0.83246 0.9381 0.0
N1943 N 0.80772 0.82212 0.91613 0.0
H1944 H 0.10204 0.16853 0.21425 0.0
H1945 H 0.06862 0.22797 0.26802 0.0
H1946 H 0.12799 0.20166 0.23736 0.0
H1947 H 0.04407 0.19067 0.25086 0.0
H1948 H 0.09032 0.21888 0.25625 0.0
H1949 H 0.08057 0.17674 0.22703 0.0
C1950 C 0.10328 0.17746 0.22208 0.0
C1951 C 0.11692 0.1844 0.22468 0.0
C1952 C 0.08021 0.21263 0.2551 0.0
C1953 C 0.09224 0.19401 0.23922 0.0
C1954 C 0.06779 0.21786 0.26176 0.0
C1955 C 0.05448 0.2101 0.26039 0.0
C1956 C 0.07933 0.19958 0.24688 0.0
C1957 C 0.05412 0.19694 0.25233 0.0
C1958 C 0.09098 0.18219 0.22932 0.0
C1959 C 0.11771 0.1961 0.23477 0.0
N1960 N 0.06633 0.19215 0.2458 0.0
N1961 N 0.10557 0.20054 0.24163 0.0
H1962 H 0.79399 0.14715 0.21938 0.0
H1963 H 0.79046 0.06053 0.23157 0.0
H1964 H 0.82599 0.11751 0.20284 0.0
H1965 H 0.75346 0.08853 0.23676 0.0
H1966 H 0.80477 0.08167 0.22357 0.0
H1967 H 0.78005 0.12617 0.22815 0.0
C1968 C 0.7981 0.13626 0.21751 0.0
C1969 C 0.81123 0.1342 0.21024 0.0
C1970 C 0.79352 0.0832 0.22645 0.0
C1971 C 0.79535 0.11005 0.22058 0.0
C1972 C 0.78537 0.07114 0.23111 0.0
C1973 C 0.77072 0.07275 0.2348 0.0
C1974 C 0.78704 0.09703 0.22564 0.0
C1975 C 0.76465 0.08676 0.23384 0.0
C1976 C 0.79014 0.12428 0.22261 0.0
C1977 C 0.81608 0.11976 0.20853 0.0
N1978 N 0.77284 0.09836 0.2294 0.0
N1979 N 0.80816 0.10828 0.21365 0.0
H1980 H 0.90094 0.85002 0.2208 0.0
H1981 H 0.9616 0.7878 0.2208 0.0
H1982 H 0.90228 0.81531 0.18855 0.0
H1983 H 0.9634 0.82457 0.25077 0.0
H1984 H 0.93932 0.79739 0.20954 0.0
H1985 H 0.92335 0.8407 0.23241 0.0
C1986 C 0.90597 0.84049 0.2161 0.0
C1987 C 0.89967 0.83345 0.20365 0.0
C1988 C 0.94456 0.80339 0.21858 0.0
C1989 C 0.92526 0.82263 0.21703 0.0
C1990 C 0.95726 0.79785 0.22511 0.0
C1991 C 0.96437 0.80533 0.23684 0.0
C1992 C 0.93881 0.81653 0.2238 0.0
C1993 C 0.95835 0.81849 0.24169 0.0
C1994 C 0.91873 0.83514 0.22279 0.0
C1995 C 0.90657 0.82099 0.19824 0.0
N1996 N 0.94589 0.82366 0.23518 0.0
N1997 N 0.91896 0.816 0.20495 0.0
H1998 H 0.17846 0.91204 0.20058 0.0
H1999 H 0.20095 0.94083 0.28082 0.0
H2000 H 0.18903 0.88257 0.23592 0.0
H2001 H 0.2113 0.96515 0.24215 0.0
H2002 H 0.19215 0.92036 0.26516 0.0
H2003 H 0.18623 0.93279 0.21637 0.0
C2004 C 0.18235 0.90998 0.21169 0.0
C2005 C 0.18316 0.89563 0.21698 0.0
C2006 C 0.19633 0.9302 0.26013 0.0
C2007 C 0.19186 0.91919 0.23508 0.0
C2008 C 0.20123 0.94188 0.26903 0.0
C2009 C 0.20686 0.95464 0.26273 0.0
C2010 C 0.19678 0.93143 0.24483 0.0
C2011 C 0.20714 0.95543 0.2474 0.0
C2012 C 0.18683 0.92177 0.22065 0.0
C2013 C 0.18835 0.89349 0.23143 0.0
N2014 N 0.20209 0.94402 0.23895 0.0
N2015 N 0.19242 0.90516 0.24003 0.0
H2016 H 0.11217 0.83296 0.79227 0.0
H2017 H 0.05473 0.76631 0.79611 0.0
H2018 H 0.11044 0.80133 0.82711 0.0
H2019 H 0.0535 0.79712 0.76046 0.0
H2020 H 0.07506 0.77978 0.80738 0.0
H2021 H 0.0909 0.82069 0.78017 0.0
C2022 C 0.10735 0.82346 0.79738 0.0
C2023 C 0.11307 0.81826 0.81083 0.0
C2024 C 0.07041 0.7837 0.7971 0.0
C2025 C 0.08876 0.80425 0.79707 0.0
C2026 C 0.05873 0.77596 0.7906 0.0
C2027 C 0.05237 0.78052 0.77724 0.0
C2028 C 0.07599 0.7962 0.79026 0.0
C2029 C 0.05806 0.79321 0.77077 0.0
C2030 C 0.09518 0.81652 0.79049 0.0
C2031 C 0.1063 0.80597 0.81695 0.0
N2032 N 0.06962 0.8006 0.77732 0.0
N2033 N 0.09459 0.79943 0.81004 0.0
H2034 H 0.20547 0.11425 0.80621 0.0
H2035 H 0.26874 0.05543 0.81775 0.0
H2036 H 0.23732 0.11454 0.84208 0.0
H2037 H 0.23922 0.05428 0.77993 0.0
H2038 H 0.25618 0.07652 0.82703 0.0
H2039 H 0.21647 0.09187 0.79666 0.0
C2040 C 0.21473 0.1096 0.8121 0.0
C2041 C 0.22056 0.11638 0.82491 0.0
C2042 C 0.25236 0.07172 0.8167 0.0
C2043 C 0.23317 0.09085 0.81404 0.0
C2044 C 0.25957 0.0596 0.81136 0.0
C2045 C 0.2551 0.05307 0.79797 0.0
C2046 C 0.24053 0.07753 0.80864 0.0
C2047 C 0.24304 0.05898 0.79029 0.0
C2048 C 0.22102 0.09687 0.80661 0.0
C2049 C 0.23261 0.1099 0.83203 0.0
N2050 N 0.23619 0.07094 0.79571 0.0
N2051 N 0.23847 0.09756 0.82651 0.0
H2052 H 0.92701 0.22975 0.8252 0.0
H2053 H 0.99009 0.2396 0.76731 0.0
H2054 H 0.93107 0.19983 0.78885 0.0
H2055 H 0.98804 0.26276 0.80857 0.0
H2056 H 0.96867 0.22479 0.77414 0.0
H2057 H 0.94932 0.24217 0.8183 0.0
C2058 C 0.93258 0.22584 0.81568 0.0
C2059 C 0.92708 0.21384 0.8075 0.0
C2060 C 0.97303 0.23307 0.78168 0.0
C2061 C 0.95291 0.228 0.79952 0.0
C2062 C 0.98524 0.24149 0.77781 0.0
C2063 C 0.9908 0.25253 0.78732 0.0
C2064 C 0.9664 0.23579 0.79511 0.0
C2065 C 0.9841 0.25451 0.80078 0.0
C2066 C 0.94542 0.23288 0.81178 0.0
C2067 C 0.93497 0.20906 0.79545 0.0
N2068 N 0.97228 0.24632 0.8042 0.0
N2069 N 0.94747 0.21623 0.79173 0.0
H2070 H 0.80479 0.90334 0.77549 0.0
H2071 H 0.80382 0.9898 0.76154 0.0
H2072 H 0.83782 0.93279 0.79405 0.0
H2073 H 0.76549 0.9619 0.76088 0.0
H2074 H 0.81895 0.96825 0.76708 0.0
H2075 H 0.79292 0.9241 0.7637 0.0
C2076 C 0.8096 0.91415 0.77707 0.0
C2077 C 0.82217 0.91631 0.78609 0.0
C2078 C 0.80725 0.96686 0.76544 0.0
C2079 C 0.80872 0.94015 0.7723 0.0
C2080 C 0.79867 0.97908 0.76216 0.0
C2081 C 0.78345 0.97752 0.76078 0.0
C2082 C 0.8005 0.95307 0.76705 0.0
C2083 C 0.77722 0.9635 0.76191 0.0
C2084 C 0.80285 0.92599 0.77024 0.0
C2085 C 0.82814 0.93057 0.78725 0.0
N2086 N 0.78575 0.95183 0.765 0.0
N2087 N 0.82128 0.94198 0.78056 0.0
H2088 H 0.19107 0.0906 0.22622 0.0
H2089 H 0.2516 0.03219 0.24722 0.0
H2090 H 0.23333 0.09262 0.20686 0.0
H2091 H 0.20534 0.02562 0.25248 0.0
H2092 H 0.2462 0.0541 0.23242 0.0
H2093 H 0.19706 0.06687 0.23655 0.0
C2094 C 0.20165 0.08599 0.22416 0.0
C2095 C 0.21176 0.0936 0.21578 0.0
C2096 C 0.23728 0.04769 0.23666 0.0
C2097 C 0.2188 0.0663 0.22763 0.0
C2098 C 0.24034 0.03517 0.24503 0.0
C2099 C 0.22891 0.02718 0.25125 0.0
C2100 C 0.22272 0.05217 0.23464 0.0
C2101 C 0.21453 0.03156 0.24813 0.0
C2102 C 0.20505 0.07238 0.22998 0.0
C2103 C 0.22526 0.08705 0.21328 0.0
N2104 N 0.21188 0.04378 0.24022 0.0
N2105 N 0.22848 0.0738 0.21934 0.0
H2106 H 0.21579 0.92032 0.84798 0.0
H2107 H 0.25746 0.96245 0.78534 0.0
H2108 H 0.22774 0.89909 0.80774 0.0
H2109 H 0.2606 0.97597 0.83067 0.0
H2110 H 0.24415 0.9403 0.79252 0.0
H2111 H 0.22993 0.94189 0.8411 0.0
C2112 C 0.22145 0.92007 0.83776 0.0
C2113 C 0.22052 0.9077 0.82849 0.0
C2114 C 0.2478 0.94809 0.8009 0.0
C2115 C 0.23648 0.93269 0.82038 0.0
C2116 C 0.25532 0.96075 0.7968 0.0
C2117 C 0.26013 0.97106 0.80743 0.0
C2118 C 0.24483 0.94582 0.81572 0.0
C2119 C 0.2572 0.96825 0.82216 0.0
C2120 C 0.22947 0.93248 0.83381 0.0
C2121 C 0.22785 0.90836 0.81518 0.0
N2122 N 0.24963 0.95596 0.82586 0.0
N2123 N 0.23544 0.92064 0.81151 0.0
H2124 H 0.11306 0.21235 0.84891 0.0
H2125 H 0.07921 0.26069 0.7845 0.0
H2126 H 0.13908 0.22876 0.81376 0.0
H2127 H 0.06165 0.26023 0.82773 0.0
H2128 H 0.09994 0.24628 0.79363 0.0
H2129 H 0.09279 0.22723 0.83997 0.0
C2130 C 0.11462 0.21911 0.83938 0.0
C2131 C 0.12798 0.21927 0.83218 0.0
C2132 C 0.09157 0.24939 0.80112 0.0
C2133 C 0.1045 0.23608 0.82166 0.0
C2134 C 0.07973 0.25753 0.79591 0.0
C2135 C 0.06873 0.26166 0.80539 0.0
C2136 C 0.09228 0.24508 0.81586 0.0
C2137 C 0.06998 0.25739 0.82011 0.0
C2138 C 0.10297 0.22756 0.83425 0.0
C2139 C 0.12902 0.22802 0.8196 0.0
N2140 N 0.08147 0.24922 0.82487 0.0
N2141 N 0.11744 0.23601 0.81473 0.0
H2142 H 0.84052 0.10839 0.79804 0.0
H2143 H 0.76896 0.05916 0.80979 0.0
H2144 H 0.80985 0.1166 0.83196 0.0
H2145 H 0.8018 0.0487 0.77868 0.0
H2146 H 0.7841 0.07983 0.81857 0.0
H2147 H 0.82679 0.08612 0.79119 0.0
C2148 C 0.83098 0.10546 0.80413 0.0
C2149 C 0.8263 0.11446 0.81554 0.0
C2150 C 0.78802 0.07296 0.80986 0.0
C2151 C 0.8104 0.08903 0.80764 0.0
C2152 C 0.7794 0.06109 0.80489 0.0
C2153 C 0.78402 0.0522 0.79337 0.0
C2154 C 0.80136 0.07601 0.80325 0.0
C2155 C 0.79763 0.05539 0.78737 0.0
C2156 C 0.82309 0.09277 0.80017 0.0
C2157 C 0.81372 0.11017 0.82291 0.0
N2158 N 0.80576 0.06705 0.79232 0.0
N2159 N 0.80619 0.09781 0.8188 0.0
H2160 H 0.92654 0.82094 0.82776 0.0
H2161 H 0.96228 0.77478 0.7646 0.0
H2162 H 0.9015 0.80504 0.78984 0.0
H2163 H 0.97891 0.77378 0.80927 0.0
H2164 H 0.94107 0.78838 0.77269 0.0
H2165 H 0.94699 0.80603 0.82035 0.0
C2166 C 0.92522 0.81427 0.81796 0.0
C2167 C 0.91213 0.81434 0.80946 0.0
C2168 C 0.94932 0.78511 0.78073 0.0
C2169 C 0.9358 0.79752 0.80073 0.0
C2170 C 0.96144 0.77743 0.77611 0.0
C2171 C 0.97233 0.77317 0.78629 0.0
C2172 C 0.94824 0.78883 0.7956 0.0
C2173 C 0.97068 0.77677 0.80111 0.0
C2174 C 0.93698 0.80581 0.81371 0.0
C2175 C 0.91138 0.80566 0.79665 0.0
N2176 N 0.95893 0.78453 0.80532 0.0
N2177 N 0.92305 0.7977 0.79264 0.0
H2178 H 0.8179 0.91976 0.22124 0.0
H2179 H 0.76676 0.99021 0.22326 0.0
H2180 H 0.7875 0.93024 0.18588 0.0
H2181 H 0.79334 0.9751 0.25986 0.0
H2182 H 0.77519 0.96952 0.20857 0.0
H2183 H 0.80997 0.94112 0.2347 0.0
C2184 C 0.80945 0.92649 0.21633 0.0
C2185 C 0.80323 0.92301 0.20245 0.0
C2186 C 0.77918 0.97079 0.21981 0.0
C2187 C 0.79421 0.94784 0.21783 0.0
C2188 C 0.7744 0.9826 0.22819 0.0
C2189 C 0.77932 0.9844 0.24284 0.0
C2190 C 0.789 0.96076 0.22611 0.0
C2191 C 0.7892 0.97418 0.24865 0.0
C2192 C 0.80498 0.93878 0.22401 0.0
C2193 C 0.79264 0.93248 0.19652 0.0
N2194 N 0.79368 0.96285 0.24029 0.0
N2195 N 0.78842 0.94443 0.20426 0.0
H2196 H 0.10485 0.7801 0.20284 0.0
H2197 H 0.01807 0.78629 0.19837 0.0
H2198 H 0.08167 0.80774 0.17211 0.0
H2199 H 0.04119 0.75655 0.22708 0.0
H2200 H 0.04097 0.79209 0.18657 0.0
H2201 H 0.08155 0.76953 0.21011 0.0
C2202 C 0.09485 0.7839 0.19757 0.0
C2203 C 0.09522 0.79493 0.18694 0.0
C2204 C 0.041 0.78413 0.19531 0.0
C2205 C 0.06845 0.78283 0.19519 0.0
C2206 C 0.0279 0.78076 0.20203 0.0
C2207 C 0.02769 0.77103 0.21387 0.0
C2208 C 0.05405 0.77783 0.20053 0.0
C2209 C 0.0408 0.76418 0.21806 0.0
C2210 C 0.08155 0.7778 0.20167 0.0
C2211 C 0.08193 0.79923 0.1803 0.0
N2212 N 0.05346 0.76786 0.21155 0.0
N2213 N 0.06909 0.79328 0.18464 0.0
H2214 H 0.93329 0.20501 0.19562 0.0
H2215 H 0.97652 0.25965 0.25101 0.0
H2216 H 0.91238 0.23923 0.21969 0.0
H2217 H 0.99755 0.22814 0.22357 0.0
H2218 H 0.95316 0.25351 0.23861 0.0
H2219 H 0.95701 0.21403 0.20509 0.0
C2220 C 0.93368 0.2144 0.20294 0.0
C2221 C 0.92078 0.2213 0.20693 0.0
C2222 C 0.96291 0.24806 0.23518 0.0
C2223 C 0.94801 0.23181 0.21775 0.0
C2224 C 0.9763 0.25163 0.24221 0.0
C2225 C 0.98906 0.24434 0.23842 0.0
C2226 C 0.96223 0.23706 0.22433 0.0
C2227 C 0.98802 0.23401 0.22694 0.0
C2228 C 0.94725 0.21963 0.20826 0.0
C2229 C 0.92202 0.23361 0.21624 0.0
N2230 N 0.97485 0.23058 0.22043 0.0
N2231 N 0.93536 0.2384 0.2214 0.0
H2232 H 0.23817 0.69754 0.60554 0.0
H2233 H 0.22745 0.74418 0.53261 0.0
H2234 H 0.19919 0.72179 0.59511 0.0
H2235 H 0.27024 0.73458 0.55099 0.0
H2236 H 0.21648 0.73278 0.55373 0.0
H2237 H 0.24969 0.70815 0.58408 0.0
C2238 C 0.23204 0.70508 0.59871 0.0
C2239 C 0.2177 0.70881 0.60208 0.0
C2240 C 0.22827 0.73313 0.55313 0.0
C2241 C 0.23075 0.72083 0.57751 0.0
C2242 C 0.23457 0.73956 0.54102 0.0
C2243 C 0.24983 0.74039 0.54001 0.0
C2244 C 0.23723 0.7273 0.56431 0.0
C2245 C 0.25844 0.73422 0.55132 0.0
C2246 C 0.23864 0.71116 0.58652 0.0
C2247 C 0.21029 0.71872 0.59295 0.0
N2248 N 0.25202 0.7279 0.563 0.0
N2249 N 0.21686 0.72431 0.58103 0.0
H2250 H 0.83788 0.73221 0.59142 0.0
H2251 H 0.76796 0.74522 0.53967 0.0
H2252 H 0.79784 0.70829 0.5984 0.0
H2253 H 0.8123 0.75435 0.52769 0.0
H2254 H 0.77748 0.73158 0.56116 0.0
H2255 H 0.8276 0.74119 0.56833 0.0
C2256 C 0.82687 0.72888 0.58807 0.0
C2257 C 0.81867 0.71959 0.59687 0.0
C2258 C 0.78506 0.73638 0.55363 0.0
C2259 C 0.80672 0.72984 0.5703 0.0
C2260 C 0.77964 0.74406 0.54135 0.0
C2261 C 0.78937 0.75106 0.532 0.0
C2262 C 0.80025 0.73586 0.55649 0.0
C2263 C 0.8044 0.74933 0.53473 0.0
C2264 C 0.82102 0.73392 0.57482 0.0
C2265 C 0.80451 0.71545 0.59189 0.0
N2266 N 0.80934 0.74209 0.54676 0.0
N2267 N 0.79888 0.72074 0.57897 0.0
H2268 H 0.80622 0.3069 0.63083 0.0
H2269 H 0.8253 0.2754 0.55211 0.0
H2270 H 0.84139 0.32462 0.60584 0.0
H2271 H 0.78178 0.2734 0.56861 0.0
H2272 H 0.83315 0.29027 0.57354 0.0
H2273 H 0.79871 0.29142 0.60975 0.0
C2274 C 0.81236 0.30749 0.6209 0.0
C2275 C 0.8244 0.31707 0.62002 0.0
C2276 C 0.82189 0.28654 0.57246 0.0
C2277 C 0.81601 0.29931 0.59601 0.0
C2278 C 0.81745 0.27798 0.56033 0.0
C2279 C 0.80287 0.27321 0.55861 0.0
C2280 C 0.81174 0.29011 0.58308 0.0
C2281 C 0.79308 0.27698 0.56948 0.0
C2282 C 0.80805 0.29871 0.60889 0.0
C2283 C 0.83197 0.31747 0.6069 0.0
N2284 N 0.7977 0.28514 0.5813 0.0
N2285 N 0.82771 0.30864 0.59543 0.0
H2286 H 0.23737 0.34733 0.62732 0.0
H2287 H 0.23987 0.29934 0.55379 0.0
H2288 H 0.20299 0.31735 0.61273 0.0
H2289 H 0.27639 0.32529 0.57085 0.0
H2290 H 0.22557 0.30729 0.57435 0.0
H2291 H 0.25119 0.34074 0.60588 0.0
C2292 C 0.23274 0.33931 0.61966 0.0
C2293 C 0.219 0.33282 0.62193 0.0
C2294 C 0.2367 0.31128 0.57359 0.0
C2295 C 0.23473 0.32537 0.59718 0.0
C2296 C 0.24493 0.30669 0.56186 0.0
C2297 C 0.25946 0.31152 0.56061 0.0
C2298 C 0.24299 0.32082 0.58421 0.0
C2299 C 0.26524 0.32133 0.57128 0.0
C2300 C 0.24061 0.33562 0.60736 0.0
C2301 C 0.21345 0.32274 0.61141 0.0
N2302 N 0.25702 0.3256 0.58266 0.0
N2303 N 0.22134 0.31931 0.59953 0.0
H2304 H 0.2333 0.32455 0.41784 0.0
H2305 H 0.24118 0.26958 0.48561 0.0
H2306 H 0.20106 0.29066 0.42494 0.0
H2307 H 0.26631 0.30942 0.48021 0.0
H2308 H 0.22674 0.27559 0.46318 0.0
H2309 H 0.24626 0.31742 0.44018 0.0
C2310 C 0.229 0.31548 0.42404 0.0
C2311 C 0.21613 0.30812 0.41939 0.0
C2312 C 0.23541 0.28298 0.46702 0.0
C2313 C 0.23091 0.29995 0.44538 0.0
C2314 C 0.24363 0.27956 0.47979 0.0
C2315 C 0.25503 0.28896 0.48481 0.0
C2316 C 0.23873 0.29581 0.45925 0.0
C2317 C 0.25772 0.30176 0.47683 0.0
C2318 C 0.23636 0.31147 0.43693 0.0
C2319 C 0.21093 0.29666 0.42815 0.0
N2320 N 0.24971 0.30472 0.46452 0.0
N2321 N 0.21838 0.29287 0.44072 0.0
H2322 H 0.18083 0.71897 0.39358 0.0
H2323 H 0.23799 0.73278 0.46034 0.0
H2324 H 0.21938 0.69305 0.40074 0.0
H2325 H 0.20342 0.76269 0.44882 0.0
H2326 H 0.23104 0.71783 0.43905 0.0
H2327 H 0.18851 0.73461 0.41428 0.0
C2328 C 0.1909 0.71652 0.39956 0.0
C2329 C 0.19942 0.70459 0.39548 0.0
C2330 C 0.225 0.72769 0.44116 0.0
C2331 C 0.20835 0.72259 0.4192 0.0
C2332 C 0.22901 0.73635 0.45333 0.0
C2333 C 0.22133 0.74916 0.4565 0.0
C2334 C 0.21314 0.73175 0.43205 0.0
C2335 C 0.2096 0.75289 0.44701 0.0
C2336 C 0.19532 0.72553 0.41133 0.0
C2337 C 0.2125 0.70215 0.40346 0.0
N2338 N 0.20586 0.74422 0.43526 0.0
N2339 N 0.21653 0.71102 0.41499 0.0
H2340 H 0.84286 0.73471 0.39659 0.0
H2341 H 0.79121 0.7424 0.46514 0.0
H2342 H 0.81029 0.7025 0.40792 0.0
H2343 H 0.81937 0.7774 0.45077 0.0
H2344 H 0.79908 0.72725 0.44497 0.0
H2345 H 0.83551 0.74998 0.41713 0.0
C2346 C 0.83421 0.73081 0.40345 0.0
C2347 C 0.82719 0.71728 0.40053 0.0
C2348 C 0.80353 0.73825 0.4462 0.0
C2349 C 0.81866 0.73478 0.42401 0.0
C2350 C 0.79897 0.74699 0.45771 0.0
C2351 C 0.80449 0.76133 0.45965 0.0
C2352 C 0.81378 0.74379 0.4365 0.0
C2353 C 0.81486 0.76642 0.44979 0.0
C2354 C 0.82997 0.73958 0.41512 0.0
C2355 C 0.81591 0.7129 0.40965 0.0
N2356 N 0.81914 0.75767 0.43864 0.0
N2357 N 0.81203 0.7216 0.42098 0.0
H2358 H 0.79571 0.33387 0.42059 0.0
H2359 H 0.81061 0.27154 0.48028 0.0
H2360 H 0.83456 0.30779 0.42441 0.0
H2361 H 0.76947 0.29394 0.47717 0.0
H2362 H 0.81963 0.2864 0.46065 0.0
H2363 H 0.78583 0.32075 0.44164 0.0
C2364 C 0.80217 0.32543 0.42583 0.0
C2365 C 0.81609 0.32207 0.42077 0.0
C2366 C 0.80862 0.28818 0.46418 0.0
C2367 C 0.80489 0.30713 0.44484 0.0
C2368 C 0.80343 0.27965 0.47546 0.0
C2369 C 0.78919 0.28139 0.48033 0.0
C2370 C 0.79955 0.29861 0.45749 0.0
C2371 C 0.78052 0.29223 0.47372 0.0
C2372 C 0.79654 0.31801 0.43787 0.0
C2373 C 0.82396 0.31107 0.42805 0.0
N2374 N 0.78581 0.3004 0.46253 0.0
N2375 N 0.81827 0.30407 0.43963 0.0
H2376 H 0.13047 0.71843 0.70965 0.0
H2377 H 0.04594 0.70346 0.72506 0.0
H2378 H 0.10499 0.68331 0.68924 0.0
H2379 H 0.07031 0.74106 0.7418 0.0
H2380 H 0.06776 0.69517 0.7129 0.0
H2381 H 0.10878 0.7264 0.72216 0.0
C2382 C 0.12031 0.71244 0.70769 0.0
C2383 C 0.11962 0.70017 0.69831 0.0
C2384 C 0.06834 0.70523 0.71925 0.0
C2385 C 0.09469 0.70914 0.71287 0.0
C2386 C 0.05589 0.70992 0.72629 0.0
C2387 C 0.05623 0.72301 0.73446 0.0
C2388 C 0.08129 0.71364 0.72042 0.0
C2389 C 0.06945 0.73102 0.73547 0.0
C2390 C 0.10792 0.71695 0.71494 0.0
C2391 C 0.10615 0.69271 0.69649 0.0
N2392 N 0.08142 0.72621 0.72855 0.0
N2393 N 0.09425 0.6973 0.70369 0.0
H2394 H 0.85229 0.61825 0.69783 0.0
H2395 H 0.79099 0.58194 0.74608 0.0
H2396 H 0.81617 0.64288 0.71403 0.0
H2397 H 0.83483 0.56549 0.74553 0.0
H2398 H 0.79881 0.60316 0.73186 0.0
H2399 H 0.84496 0.59762 0.71291 0.0
C2400 C 0.84289 0.61944 0.70461 0.0
C2401 C 0.83491 0.63249 0.70461 0.0
C2402 C 0.80673 0.59493 0.7349 0.0
C2403 C 0.82624 0.6086 0.72165 0.0
C2404 C 0.80226 0.58281 0.74293 0.0
C2405 C 0.81229 0.57196 0.74695 0.0
C2406 C 0.82128 0.59609 0.73061 0.0
C2407 C 0.8268 0.57367 0.74274 0.0
C2408 C 0.83868 0.60758 0.71316 0.0
C2409 C 0.82257 0.63305 0.71339 0.0
N2410 N 0.83085 0.58545 0.73467 0.0
N2411 N 0.81859 0.62128 0.72147 0.0
H2412 H 0.91841 0.31758 0.70589 0.0
H2413 H 0.98189 0.3341 0.76654 0.0
H2414 H 0.91932 0.35595 0.73378 0.0
H2415 H 0.97973 0.29551 0.73898 0.0
H2416 H 0.95923 0.34256 0.75463 0.0
H2417 H 0.94095 0.30946 0.718 0.0
C2418 C 0.92328 0.32427 0.71464 0.0
C2419 C 0.91686 0.33746 0.71884 0.0
C2420 C 0.96372 0.33223 0.75122 0.0
C2421 C 0.94292 0.32828 0.73269 0.0
C2422 C 0.9767 0.32742 0.75797 0.0
C2423 C 0.98276 0.31402 0.75384 0.0
C2424 C 0.95674 0.32361 0.74019 0.0
C2425 C 0.97542 0.30577 0.74275 0.0
C2426 C 0.93623 0.31966 0.7215 0.0
C2427 C 0.92392 0.34579 0.73006 0.0
N2428 N 0.96285 0.3107 0.73634 0.0
N2429 N 0.93654 0.34105 0.7366 0.0
H2430 H 0.23243 0.41083 0.70773 0.0
H2431 H 0.24121 0.48036 0.76145 0.0
H2432 H 0.19973 0.42127 0.73898 0.0
H2433 H 0.26921 0.47043 0.72566 0.0
H2434 H 0.22585 0.45889 0.75441 0.0
H2435 H 0.2462 0.43257 0.71531 0.0
C2436 C 0.2282 0.41766 0.71633 0.0
C2437 C 0.21499 0.41409 0.72286 0.0
C2438 C 0.23535 0.46151 0.74812 0.0
C2439 C 0.23071 0.43938 0.73153 0.0
C2440 C 0.2441 0.47374 0.75213 0.0
C2441 C 0.25656 0.47719 0.74418 0.0
C2442 C 0.23917 0.45274 0.73615 0.0
C2443 C 0.25979 0.46824 0.73219 0.0
C2444 C 0.23603 0.43019 0.72059 0.0
C2445 C 0.20988 0.42362 0.73367 0.0
N2446 N 0.25121 0.45648 0.72862 0.0
N2447 N 0.2178 0.43583 0.73774 0.0
H2448 H 0.11344 0.29397 0.34232 0.0
H2449 H 0.05027 0.28674 0.27958 0.0
H2450 H 0.10966 0.32482 0.30684 0.0
H2451 H 0.0564 0.25732 0.316 0.0
H2452 H 0.0715 0.30131 0.28893 0.0
H2453 H 0.09206 0.2809 0.33247 0.0
C2454 C 0.10802 0.29811 0.33251 0.0
C2455 C 0.11333 0.31065 0.32552 0.0
C2456 C 0.06813 0.29166 0.29483 0.0
C2457 C 0.08873 0.29542 0.31389 0.0
C2458 C 0.05602 0.28337 0.28951 0.0
C2459 C 0.05153 0.27076 0.29698 0.0
C2460 C 0.07572 0.28728 0.30769 0.0
C2461 C 0.0594 0.2669 0.3098 0.0
C2462 C 0.09582 0.29055 0.32679 0.0
C2463 C 0.106 0.31518 0.31257 0.0
N2464 N 0.07103 0.27508 0.31468 0.0
N2465 N 0.09405 0.30759 0.30717 0.0
H2466 H 0.1955 0.59995 0.28022 0.0
H2467 H 0.24861 0.53641 0.30767 0.0
H2468 H 0.21923 0.59955 0.32178 0.0
H2469 H 0.24038 0.5434 0.26148 0.0
H2470 H 0.23291 0.55675 0.3132 0.0
H2471 H 0.20768 0.57708 0.27331 0.0
C2472 C 0.20322 0.59503 0.28788 0.0
C2473 C 0.20646 0.6017 0.30156 0.0
C2474 C 0.2344 0.55383 0.30183 0.0
C2475 C 0.22014 0.57559 0.29385 0.0
C2476 C 0.24333 0.54215 0.29865 0.0
C2477 C 0.24596 0.53831 0.28408 0.0
C2478 C 0.22799 0.56192 0.29039 0.0
C2479 C 0.23863 0.54602 0.27286 0.0
C2480 C 0.21016 0.58205 0.28392 0.0
C2481 C 0.21654 0.59491 0.31107 0.0
N2482 N 0.23006 0.55763 0.27625 0.0
N2483 N 0.22294 0.58226 0.30706 0.0
H2484 H 0.9114 0.69149 0.28195 0.0
H2485 H 0.96969 0.75684 0.29435 0.0
H2486 H 0.91053 0.72393 0.31647 0.0
H2487 H 0.96856 0.73024 0.25504 0.0
H2488 H 0.94929 0.74286 0.30336 0.0
H2489 H 0.93336 0.70363 0.27259 0.0
C2490 C 0.91584 0.70112 0.28756 0.0
C2491 C 0.90904 0.7068 0.29992 0.0
C2492 C 0.95343 0.74 0.29275 0.0
C2493 C 0.93406 0.72063 0.28937 0.0
C2494 C 0.96516 0.74801 0.28757 0.0
C2495 C 0.97081 0.74482 0.27383 0.0
C2496 C 0.94714 0.72863 0.28418 0.0
C2497 C 0.96451 0.7331 0.26568 0.0
C2498 C 0.92831 0.70806 0.28219 0.0
C2499 C 0.91521 0.71932 0.30676 0.0
N2500 N 0.95292 0.72544 0.27095 0.0
N2501 N 0.92732 0.72576 0.30141 0.0
H2502 H 0.847 0.42405 0.31895 0.0
H2503 H 0.78719 0.45781 0.26381 0.0
H2504 H 0.80943 0.39946 0.30207 0.0
H2505 H 0.83017 0.47683 0.27102 0.0
H2506 H 0.79425 0.4372 0.27936 0.0
H2507 H 0.84017 0.44431 0.30297 0.0
C2508 C 0.83737 0.42283 0.31184 0.0
C2509 C 0.82884 0.4099 0.31188 0.0
C2510 C 0.80216 0.44585 0.2775 0.0
C2511 C 0.8208 0.43331 0.2937 0.0
C2512 C 0.79811 0.45765 0.26869 0.0
C2513 C 0.8081 0.46907 0.26613 0.0
C2514 C 0.81626 0.44553 0.28398 0.0
C2515 C 0.82218 0.46821 0.27259 0.0
C2516 C 0.83344 0.43447 0.30276 0.0
C2517 C 0.81626 0.40922 0.30263 0.0
N2518 N 0.82581 0.4567 0.28129 0.0
N2519 N 0.81263 0.42075 0.29396 0.0
H2520 H 0.23309 0.62606 0.71547 0.0
H2521 H 0.26537 0.54675 0.70111 0.0
H2522 H 0.21958 0.59907 0.67828 0.0
H2523 H 0.26495 0.56656 0.74409 0.0
H2524 H 0.25153 0.56749 0.69129 0.0
H2525 H 0.24738 0.60571 0.72513 0.0
C2526 C 0.233 0.61586 0.70936 0.0
C2527 C 0.22505 0.61436 0.69599 0.0
C2528 C 0.25449 0.56729 0.70287 0.0
C2529 C 0.24176 0.59112 0.70687 0.0
C2530 C 0.26247 0.55554 0.70844 0.0
C2531 C 0.26625 0.55494 0.72343 0.0
C2532 C 0.25046 0.57863 0.71233 0.0
C2533 C 0.2621 0.56654 0.7325 0.0
C2534 C 0.24126 0.60427 0.71486 0.0
C2535 C 0.2257 0.60091 0.68847 0.0
N2536 N 0.25447 0.57793 0.7268 0.0
N2537 N 0.23395 0.58985 0.69397 0.0
H2538 H 0.21331 0.41987 0.34932 0.0
H2539 H 0.26004 0.45481 0.2856 0.0
H2540 H 0.22554 0.3955 0.31101 0.0
H2541 H 0.25832 0.47389 0.32883 0.0
H2542 H 0.24564 0.43385 0.29387 0.0
H2543 H 0.228 0.44059 0.34118 0.0
C2544 C 0.21912 0.4188 0.33924 0.0
C2545 C 0.21818 0.40578 0.33091 0.0
C2546 C 0.24845 0.4426 0.30157 0.0
C2547 C 0.23486 0.42972 0.32138 0.0
C2548 C 0.25661 0.4546 0.29683 0.0
C2549 C 0.26037 0.46614 0.30653 0.0
C2550 C 0.24384 0.44218 0.31608 0.0
C2551 C 0.25578 0.46518 0.32103 0.0
C2552 C 0.22747 0.4307 0.33457 0.0
C2553 C 0.22571 0.4053 0.31774 0.0
N2554 N 0.24767 0.45347 0.32533 0.0
N2555 N 0.2337 0.41707 0.31339 0.0
H2556 H 0.11969 0.71277 0.28579 0.0
H2557 H 0.04381 0.74679 0.30689 0.0
H2558 H 0.09265 0.6938 0.31886 0.0
H2559 H 0.05965 0.74956 0.26304 0.0
H2560 H 0.06397 0.7304 0.31341 0.0
H2561 H 0.09963 0.72888 0.27871 0.0
C2562 C 0.10953 0.71182 0.29148 0.0
C2563 C 0.10799 0.70187 0.30304 0.0
C2564 C 0.06304 0.73463 0.30238 0.0
C2565 C 0.08517 0.72071 0.29525 0.0
C2566 C 0.05164 0.74407 0.29871 0.0
C2567 C 0.05011 0.74948 0.28442 0.0
C2568 C 0.0731 0.73084 0.29175 0.0
C2569 C 0.06044 0.7455 0.27414 0.0
C2570 C 0.09813 0.72113 0.28748 0.0
C2571 C 0.09458 0.70147 0.31014 0.0
N2572 N 0.07156 0.73647 0.27802 0.0
N2573 N 0.08377 0.71084 0.30623 0.0
H2574 H 0.79865 0.60346 0.32658 0.0
H2575 H 0.7964 0.56064 0.24982 0.0
H2576 H 0.82584 0.6129 0.29003 0.0
H2577 H 0.77797 0.54121 0.28812 0.0
H2578 H 0.8031 0.58228 0.26405 0.0
H2579 H 0.78753 0.5827 0.31252 0.0
C2580 C 0.80222 0.60118 0.31561 0.0
C2581 C 0.8133 0.60977 0.30949 0.0
C2582 C 0.79757 0.57336 0.26944 0.0
C2583 C 0.80059 0.58638 0.29343 0.0
C2584 C 0.7937 0.56096 0.26129 0.0
C2585 C 0.78685 0.549 0.26786 0.0
C2586 C 0.79472 0.5739 0.28443 0.0
C2587 C 0.78333 0.5502 0.28268 0.0
C2588 C 0.79593 0.58936 0.30765 0.0
C2589 C 0.81754 0.60642 0.29527 0.0
N2590 N 0.78748 0.56242 0.29058 0.0
N2591 N 0.81118 0.59505 0.28777 0.0
H2592 H 0.92611 0.31115 0.35169 0.0
H2593 H 0.96098 0.26351 0.28899 0.0
H2594 H 0.90062 0.29441 0.31443 0.0
H2595 H 0.97881 0.26463 0.33326 0.0
H2596 H 0.93981 0.27715 0.29708 0.0
H2597 H 0.94656 0.29633 0.34421 0.0
C2598 C 0.9247 0.3043 0.34202 0.0
C2599 C 0.91147 0.30409 0.33374 0.0
C2600 C 0.94832 0.27435 0.30504 0.0
C2601 C 0.93514 0.28735 0.32491 0.0
C2602 C 0.96041 0.26665 0.30042 0.0
C2603 C 0.97164 0.26296 0.31048 0.0
C2604 C 0.94757 0.27865 0.31978 0.0
C2605 C 0.97033 0.26716 0.32519 0.0
C2606 C 0.93646 0.29589 0.33772 0.0
C2607 C 0.9106 0.29521 0.32107 0.0
N2608 N 0.95857 0.27491 0.32939 0.0
N2609 N 0.92228 0.28728 0.31701 0.0
H2610 H 0.79791 0.42817 0.69259 0.0
H2611 H 0.81887 0.49625 0.74517 0.0
H2612 H 0.83741 0.43254 0.71933 0.0
H2613 H 0.77454 0.48875 0.72922 0.0
H2614 H 0.82646 0.47485 0.73176 0.0
H2615 H 0.78971 0.45182 0.70239 0.0
C2616 C 0.80487 0.43414 0.70044 0.0
C2617 C 0.8183 0.42834 0.70528 0.0
C2618 C 0.81506 0.47783 0.73109 0.0
C2619 C 0.80911 0.45529 0.71633 0.0
C2620 C 0.8107 0.49012 0.73874 0.0
C2621 C 0.796 0.49421 0.73849 0.0
C2622 C 0.80468 0.46935 0.72308 0.0
C2623 C 0.78598 0.48594 0.72974 0.0
C2624 C 0.80017 0.44757 0.70605 0.0
C2625 C 0.82689 0.43648 0.71547 0.0
N2626 N 0.79048 0.47376 0.72247 0.0
N2627 N 0.82216 0.44948 0.72061 0.0
H2628 H 0.12459 0.30039 0.72003 0.0
H2629 H 0.0373 0.29888 0.71631 0.0
H2630 H 0.09867 0.3276 0.69114 0.0
H2631 H 0.06333 0.27149 0.74497 0.0
H2632 H 0.05958 0.30733 0.70482 0.0
H2633 H 0.10229 0.28795 0.72751 0.0
C2634 C 0.1142 0.30376 0.71526 0.0
C2635 C 0.11351 0.31518 0.70504 0.0
C2636 C 0.0604 0.29933 0.7135 0.0
C2637 C 0.08788 0.30085 0.71348 0.0
C2638 C 0.04766 0.29444 0.72003 0.0
C2639 C 0.04842 0.28457 0.73175 0.0
C2640 C 0.07403 0.2944 0.71876 0.0
C2641 C 0.06218 0.27918 0.73604 0.0
C2642 C 0.10147 0.29657 0.71946 0.0
C2643 C 0.09976 0.31883 0.699 0.0
N2644 N 0.07444 0.28429 0.72967 0.0
N2645 N 0.08749 0.31179 0.7034 0.0
H2646 H 0.93894 0.71791 0.67004 0.0
H2647 H 0.97872 0.77198 0.72819 0.0
H2648 H 0.91573 0.74812 0.69701 0.0
H2649 H 1.00158 0.74446 0.69818 0.0
H2650 H 0.95569 0.76528 0.71541 0.0
H2651 H 0.96201 0.72895 0.67896 0.0
C2652 C 0.9387 0.72689 0.67783 0.0
C2653 C 0.92536 0.73199 0.68288 0.0
C2654 C 0.96577 0.76087 0.71149 0.0
C2655 C 0.95182 0.74477 0.69315 0.0
C2656 C 0.97896 0.76476 0.71874 0.0
C2657 C 0.99215 0.75867 0.71437 0.0
C2658 C 0.96573 0.75075 0.69982 0.0
C2659 C 0.99171 0.74935 0.70204 0.0
C2660 C 0.95188 0.73327 0.68285 0.0
C2661 C 0.92573 0.74386 0.69277 0.0
N2662 N 0.97873 0.74555 0.69534 0.0
N2663 N 0.93874 0.74975 0.69769 0.0
H2664 H 0.71723 0.23501 0.61248 0.0
H2665 H 0.71558 0.23488 0.52475 0.0
H2666 H 0.69292 0.20357 0.58557 0.0
H2667 H 0.74368 0.26332 0.55145 0.0
H2668 H 0.70431 0.22594 0.5469 0.0
H2669 H 0.72438 0.2478 0.59032 0.0
C2670 C 0.71326 0.23087 0.60192 0.0
C2671 C 0.70453 0.21812 0.60091 0.0
C2672 C 0.71282 0.23426 0.54791 0.0
C2673 C 0.71276 0.23269 0.57544 0.0
C2674 C 0.71922 0.23946 0.53524 0.0
C2675 C 0.73073 0.24977 0.5362 0.0
C2676 C 0.71795 0.23939 0.5617 0.0
C2677 C 0.73491 0.25531 0.55015 0.0
C2678 C 0.71741 0.23815 0.58926 0.0
C2679 C 0.69986 0.2132 0.58689 0.0
N2680 N 0.72864 0.24993 0.56234 0.0
N2681 N 0.70407 0.22046 0.57473 0.0
H2682 H 0.30887 0.22699 0.63153 0.0
H2683 H 0.29124 0.22988 0.54497 0.0
H2684 H 0.32573 0.19568 0.601 0.0
H2685 H 0.28424 0.26526 0.57527 0.0
H2686 H 0.29908 0.21441 0.56576 0.0
H2687 H 0.29526 0.23842 0.61139 0.0
C2688 C 0.30973 0.2225 0.62059 0.0
C2689 C 0.31869 0.21049 0.61796 0.0
C2690 C 0.29553 0.22547 0.56785 0.0
C2691 C 0.30291 0.22349 0.59476 0.0
C2692 C 0.29091 0.2342 0.55603 0.0
C2693 C 0.28709 0.2488 0.55849 0.0
C2694 C 0.29616 0.23142 0.58213 0.0
C2695 C 0.28712 0.25403 0.57296 0.0
C2696 C 0.30186 0.22899 0.60908 0.0
C2697 C 0.31898 0.20492 0.60356 0.0
N2698 N 0.29166 0.2454 0.58419 0.0
N2699 N 0.31132 0.21155 0.59247 0.0
H2700 H 0.29264 0.81943 0.61798 0.0
H2701 H 0.27502 0.82887 0.53206 0.0
H2702 H 0.31286 0.8525 0.59148 0.0
H2703 H 0.26005 0.79196 0.55701 0.0
H2704 H 0.28749 0.83869 0.55414 0.0
H2705 H 0.27966 0.80986 0.59608 0.0
C2706 C 0.29447 0.82462 0.60756 0.0
C2707 C 0.3039 0.83682 0.60664 0.0
C2708 C 0.28145 0.82846 0.55479 0.0
C2709 C 0.2888 0.82605 0.5815 0.0
C2710 C 0.27421 0.8229 0.5422 0.0
C2711 C 0.26648 0.80954 0.54265 0.0
C2712 C 0.28091 0.82065 0.56798 0.0
C2713 C 0.26602 0.8022 0.5561 0.0
C2714 C 0.28695 0.81921 0.59506 0.0
C2715 C 0.30556 0.84323 0.59282 0.0
N2716 N 0.27313 0.80784 0.56822 0.0
N2717 N 0.29808 0.83779 0.58083 0.0
H2718 H 0.69388 0.80753 0.59858 0.0
H2719 H 0.76616 0.82724 0.55521 0.0
H2720 H 0.72349 0.84293 0.6112 0.0
H2721 H 0.73363 0.79547 0.54014 0.0
H2722 H 0.75101 0.83294 0.57603 0.0
H2723 H 0.70866 0.80266 0.57735 0.0
C2724 C 0.70343 0.81434 0.59686 0.0
C2725 C 0.70743 0.82564 0.60676 0.0
C2726 C 0.74721 0.82472 0.56814 0.0
C2727 C 0.72455 0.82 0.58249 0.0
C2728 C 0.75584 0.8215 0.5562 0.0
C2729 C 0.75128 0.81077 0.54589 0.0
C2730 C 0.73391 0.81714 0.56982 0.0
C2731 C 0.7378 0.80361 0.54789 0.0
C2732 C 0.71192 0.81151 0.58476 0.0
C2733 C 0.72008 0.83394 0.60403 0.0
N2734 N 0.72965 0.8069 0.5596 0.0
N2735 N 0.72819 0.83095 0.59219 0.0
H2736 H 0.71625 0.8385 0.40894 0.0
H2737 H 0.73332 0.77417 0.46552 0.0
H2738 H 0.69085 0.79837 0.40763 0.0
H2739 H 0.74711 0.81926 0.47146 0.0
H2740 H 0.71806 0.78158 0.44409 0.0
H2741 H 0.72871 0.83032 0.43127 0.0
C2742 C 0.71335 0.8279 0.41333 0.0
C2743 C 0.70255 0.81908 0.40635 0.0
C2744 C 0.72435 0.78981 0.45023 0.0
C2745 C 0.71677 0.80959 0.43216 0.0
C2746 C 0.73299 0.7856 0.46247 0.0
C2747 C 0.74164 0.79607 0.4702 0.0
C2748 C 0.7245 0.80454 0.44575 0.0
C2749 C 0.74082 0.81073 0.46574 0.0
C2750 C 0.72039 0.82326 0.42618 0.0
C2751 C 0.69909 0.80553 0.41271 0.0
N2752 N 0.73257 0.81446 0.45382 0.0
N2753 N 0.70625 0.80112 0.42523 0.0
H2754 H 0.73422 0.17724 0.40503 0.0
H2755 H 0.73609 0.23746 0.46925 0.0
H2756 H 0.70195 0.21086 0.40908 0.0
H2757 H 0.76537 0.2009 0.46847 0.0
H2758 H 0.72409 0.22834 0.44671 0.0
H2759 H 0.74635 0.18617 0.4277 0.0
C2760 C 0.72971 0.18654 0.41065 0.0
C2761 C 0.71704 0.19332 0.40511 0.0
C2762 C 0.73314 0.22229 0.45145 0.0
C2763 C 0.73086 0.20355 0.43115 0.0
C2764 C 0.74009 0.22756 0.46429 0.0
C2765 C 0.75185 0.21999 0.47076 0.0
C2766 C 0.73798 0.20936 0.44491 0.0
C2767 C 0.7563 0.20704 0.46394 0.0
C2768 C 0.7366 0.19157 0.42364 0.0
C2769 C 0.71159 0.20519 0.413 0.0
N2770 N 0.74941 0.20216 0.45137 0.0
N2771 N 0.71855 0.20995 0.42557 0.0
H2772 H 0.31448 0.22607 0.40805 0.0
H2773 H 0.33603 0.24998 0.49067 0.0
H2774 H 0.34951 0.20639 0.43344 0.0
H2775 H 0.29664 0.26325 0.4676 0.0
H2776 H 0.3429 0.23616 0.46888 0.0
H2777 H 0.30931 0.24167 0.42899 0.0
C2778 C 0.32105 0.22496 0.41804 0.0
C2779 C 0.33239 0.21477 0.41897 0.0
C2780 C 0.33278 0.24216 0.46858 0.0
C2781 C 0.32666 0.23286 0.44299 0.0
C2782 C 0.32892 0.25013 0.48097 0.0
C2783 C 0.31568 0.25769 0.48098 0.0
C2784 C 0.3234 0.24184 0.45608 0.0
C2785 C 0.30682 0.25739 0.46815 0.0
C2786 C 0.31815 0.23396 0.42998 0.0
C2787 C 0.34075 0.21414 0.43213 0.0
N2788 N 0.31081 0.24958 0.45625 0.0
N2789 N 0.3377 0.22302 0.44363 0.0
H2790 H 0.30522 0.79135 0.40584 0.0
H2791 H 0.30623 0.791 0.49341 0.0
H2792 H 0.33494 0.81775 0.43286 0.0
H2793 H 0.2788 0.76227 0.46633 0.0
H2794 H 0.31838 0.79937 0.47149 0.0
H2795 H 0.2964 0.77955 0.42789 0.0
C2796 C 0.30986 0.7947 0.41642 0.0
C2797 C 0.32078 0.80564 0.41749 0.0
C2798 C 0.30983 0.7911 0.47036 0.0
C2799 C 0.31084 0.79204 0.44283 0.0
C2800 C 0.30293 0.78625 0.4829 0.0
C2801 C 0.29136 0.77602 0.48173 0.0
C2802 C 0.30508 0.78576 0.45651 0.0
C2803 C 0.2876 0.77023 0.46779 0.0
C2804 C 0.30492 0.78787 0.42901 0.0
C2805 C 0.32659 0.80931 0.43148 0.0
N2806 N 0.29431 0.77532 0.45572 0.0
N2807 N 0.32149 0.80261 0.44359 0.0
H2808 H 0.61293 0.18199 0.706 0.0
H2809 H 0.58018 0.24608 0.75399 0.0
H2810 H 0.6378 0.22083 0.71873 0.0
H2811 H 0.56311 0.20187 0.75447 0.0
H2812 H 0.60026 0.2378 0.73907 0.0
H2813 H 0.59349 0.18977 0.72187 0.0
C2814 C 0.61441 0.19209 0.71218 0.0
C2815 C 0.62714 0.20073 0.71095 0.0
C2816 C 0.59216 0.2299 0.74249 0.0
C2817 C 0.60465 0.20984 0.72893 0.0
C2818 C 0.58067 0.23463 0.75094 0.0
C2819 C 0.56997 0.22464 0.75545 0.0
C2820 C 0.59284 0.2151 0.73832 0.0
C2821 C 0.57121 0.20989 0.75132 0.0
C2822 C 0.60323 0.19655 0.72119 0.0
C2823 C 0.62814 0.21389 0.71904 0.0
N2824 N 0.58237 0.20558 0.74289 0.0
N2825 N 0.61705 0.21806 0.72761 0.0
H2826 H 0.32176 0.12966 0.72993 0.0
H2827 H 0.33121 0.04443 0.7476 0.0
H2828 H 0.35167 0.10172 0.70765 0.0
H2829 H 0.29693 0.07075 0.76489 0.0
H2830 H 0.34014 0.06578 0.73439 0.0
H2831 H 0.31352 0.10861 0.74395 0.0
C2832 C 0.32655 0.1191 0.72789 0.0
C2833 C 0.33743 0.11753 0.7175 0.0
C2834 C 0.33068 0.06689 0.7411 0.0
C2835 C 0.32817 0.09333 0.73379 0.0
C2836 C 0.32564 0.05472 0.74875 0.0
C2837 C 0.31326 0.05576 0.75737 0.0
C2838 C 0.32337 0.08027 0.74212 0.0
C2839 C 0.30639 0.06938 0.75824 0.0
C2840 C 0.32189 0.10708 0.73599 0.0
C2841 C 0.34341 0.10356 0.71564 0.0
N2842 N 0.31152 0.08107 0.75072 0.0
N2843 N 0.33871 0.09204 0.72368 0.0
H2844 H 0.40367 0.82064 0.69464 0.0
H2845 H 0.45893 0.82768 0.76433 0.0
H2846 H 0.40074 0.85407 0.728 0.0
H2847 H 0.46387 0.79636 0.72926 0.0
H2848 H 0.43719 0.83696 0.75159 0.0
H2849 H 0.42513 0.81094 0.70767 0.0
C2850 C 0.40747 0.8259 0.70475 0.0
C2851 C 0.40035 0.83822 0.7102 0.0
C2852 C 0.44303 0.82805 0.74669 0.0
C2853 C 0.42507 0.82721 0.72516 0.0
C2854 C 0.45553 0.82277 0.75394 0.0
C2855 C 0.46338 0.8112 0.74791 0.0
C2856 C 0.43824 0.82174 0.73327 0.0
C2857 C 0.45817 0.80516 0.73449 0.0
C2858 C 0.4198 0.8204 0.71215 0.0
C2859 C 0.40596 0.84468 0.72326 0.0
N2860 N 0.44597 0.8105 0.72764 0.0
N2861 N 0.41794 0.83909 0.73028 0.0
H2862 H 0.67237 0.92575 0.69818 0.0
H2863 H 0.7375 0.96302 0.74567 0.0
H2864 H 0.70692 0.90137 0.71958 0.0
H2865 H 0.69785 0.98574 0.73425 0.0
H2866 H 0.72675 0.94051 0.73526 0.0
H2867 H 0.68159 0.94798 0.71061 0.0
C2868 C 0.6818 0.925 0.70559 0.0
C2869 C 0.68891 0.91161 0.70773 0.0
C2870 C 0.72035 0.95039 0.73508 0.0
C2871 C 0.69966 0.93713 0.72179 0.0
C2872 C 0.72652 0.96326 0.74094 0.0
C2873 C 0.71859 0.97629 0.74072 0.0
C2874 C 0.70616 0.95052 0.72878 0.0
C2875 C 0.7043 0.97592 0.73469 0.0
C2876 C 0.68709 0.93773 0.71262 0.0
C2877 C 0.70123 0.91145 0.71731 0.0
N2878 N 0.69858 0.96326 0.72883 0.0
N2879 N 0.70624 0.924 0.72389 0.0
H2880 H 0.60371 0.79603 0.32646 0.0
H2881 H 0.54137 0.78724 0.2631 0.0
H2882 H 0.59787 0.82794 0.29219 0.0
H2883 H 0.54966 0.75634 0.29786 0.0
H2884 H 0.56152 0.80277 0.27326 0.0
H2885 H 0.58334 0.78183 0.31592 0.0
C2886 C 0.59805 0.80015 0.31677 0.0
C2887 C 0.60248 0.81329 0.3103 0.0
C2888 C 0.55886 0.79258 0.27862 0.0
C2889 C 0.5791 0.79683 0.2979 0.0
C2890 C 0.54738 0.78373 0.27284 0.0
C2891 C 0.54381 0.77045 0.27961 0.0
C2892 C 0.56675 0.78806 0.29124 0.0
C2893 C 0.55197 0.76644 0.2922 0.0
C2894 C 0.58644 0.79195 0.31066 0.0
C2895 C 0.5949 0.81783 0.2975 0.0
N2896 N 0.56299 0.77517 0.29755 0.0
N2897 N 0.58355 0.80962 0.29172 0.0
H2898 H 0.70294 0.09003 0.3108 0.0
H2899 H 0.77783 0.06478 0.27703 0.0
H2900 H 0.73343 0.11973 0.29094 0.0
H2901 H 0.74515 0.03444 0.2917 0.0
H2902 H 0.76075 0.08488 0.28011 0.0
H2903 H 0.71703 0.0694 0.302 0.0
C2904 C 0.71246 0.09224 0.30441 0.0
C2905 C 0.71706 0.10671 0.30178 0.0
C2906 C 0.75716 0.07381 0.28242 0.0
C2907 C 0.73343 0.08305 0.29184 0.0
C2908 C 0.7669 0.06237 0.28062 0.0
C2909 C 0.7627 0.04797 0.28381 0.0
C2910 C 0.74326 0.07089 0.2879 0.0
C2911 C 0.74857 0.04536 0.28868 0.0
C2912 C 0.72056 0.08043 0.29945 0.0
C2913 C 0.72962 0.10881 0.29355 0.0
N2914 N 0.73938 0.05673 0.29073 0.0
N2915 N 0.73741 0.09716 0.28901 0.0
H2916 H 0.40336 0.17167 0.29458 0.0
H2917 H 0.47629 0.22049 0.29259 0.0
H2918 H 0.41554 0.20461 0.32696 0.0
H2919 H 0.45882 0.19703 0.25455 0.0
H2920 H 0.45538 0.21244 0.30625 0.0
H2921 H 0.42488 0.17855 0.28068 0.0
C2922 C 0.41059 0.18031 0.29878 0.0
C2923 C 0.40764 0.18763 0.31191 0.0
C2924 C 0.4561 0.20906 0.29491 0.0
C2925 C 0.43222 0.19549 0.29614 0.0
C2926 C 0.46804 0.21372 0.28703 0.0
C2927 C 0.4693 0.20965 0.27225 0.0
C2928 C 0.44529 0.20012 0.28808 0.0
C2929 C 0.45838 0.20044 0.26589 0.0
C2930 C 0.4228 0.18427 0.29082 0.0
C2931 C 0.4173 0.19881 0.3168 0.0
N2932 N 0.44681 0.19601 0.27383 0.0
N2933 N 0.42916 0.20235 0.30895 0.0
H2934 H 0.29743 0.90328 0.34073 0.0
H2935 H 0.28097 0.96269 0.27851 0.0
H2936 H 0.32276 0.90542 0.30177 0.0
H2937 H 0.26376 0.96337 0.32197 0.0
H2938 H 0.29644 0.9419 0.2859 0.0
H2939 H 0.28463 0.92517 0.33303 0.0
C2940 C 0.30025 0.90834 0.33048 0.0
C2941 C 0.31109 0.90242 0.32183 0.0
C2942 C 0.28934 0.94674 0.29379 0.0
C2943 C 0.29647 0.92777 0.31289 0.0
C2944 C 0.28056 0.95861 0.2896 0.0
C2945 C 0.27093 0.96469 0.29958 0.0
C2946 C 0.28839 0.94099 0.30802 0.0
C2947 C 0.27083 0.95896 0.3138 0.0
C2948 C 0.293 0.92094 0.32612 0.0
C2949 C 0.31448 0.90966 0.30878 0.0
N2950 N 0.2793 0.94745 0.31752 0.0
N2951 N 0.30711 0.92192 0.30463 0.0
H2952 H 0.74309 0.12997 0.70844 0.0
H2953 H 0.74966 0.04263 0.71106 0.0
H2954 H 0.71939 0.10143 0.6779 0.0
H2955 H 0.75707 0.07143 0.74823 0.0
H2956 H 0.74424 0.06416 0.69571 0.0
H2957 H 0.75403 0.10857 0.71997 0.0
C2958 C 0.74021 0.11922 0.7041 0.0
C2959 C 0.73003 0.11754 0.69235 0.0
C2960 C 0.74729 0.06572 0.70718 0.0
C2961 C 0.74278 0.09292 0.7054 0.0
C2962 C 0.75048 0.05349 0.71588 0.0
C2963 C 0.75373 0.05533 0.7309 0.0
C2964 C 0.74767 0.07979 0.71358 0.0
C2965 C 0.75451 0.06958 0.7367 0.0
C2966 C 0.74653 0.107 0.71065 0.0
C2967 C 0.72715 0.10329 0.68693 0.0
N2968 N 0.75147 0.08123 0.72805 0.0
N2969 N 0.73337 0.09151 0.69359 0.0
H2970 H 0.67441 0.92142 0.29862 0.0
H2971 H 0.74126 0.97827 0.29418 0.0
H2972 H 0.71324 0.91896 0.32643 0.0
H2973 H 0.6983 0.98692 0.27586 0.0
H2974 H 0.73187 0.95549 0.30452 0.0
H2975 H 0.68365 0.94443 0.28858 0.0
C2976 C 0.68491 0.9257 0.30258 0.0
C2977 C 0.69307 0.91825 0.31338 0.0
C2978 C 0.72449 0.96239 0.29827 0.0
C2979 C 0.70372 0.94458 0.30193 0.0
C2980 C 0.72986 0.97535 0.29229 0.0
C2981 C 0.72056 0.98451 0.28412 0.0
C2982 C 0.70972 0.95844 0.29594 0.0
C2983 C 0.70583 0.98026 0.28219 0.0
C2984 C 0.69013 0.93888 0.29691 0.0
C2985 C 0.70653 0.9244 0.31822 0.0
N2986 N 0.70088 0.9675 0.28798 0.0
N2987 N 0.71147 0.93715 0.3124 0.0
H2988 H 0.61235 0.21493 0.3254 0.0
H2989 H 0.55038 0.2042 0.2622 0.0
H2990 H 0.61271 0.18207 0.29125 0.0
H2991 H 0.55072 0.24111 0.29201 0.0
H2992 H 0.57243 0.19536 0.27424 0.0
H2993 H 0.58923 0.22408 0.31482 0.0
C2994 C 0.60756 0.2096 0.31572 0.0
C2995 C 0.61456 0.19775 0.30915 0.0
C2996 C 0.56775 0.2054 0.27823 0.0
C2997 C 0.58815 0.20817 0.29702 0.0
C2998 C 0.55507 0.21049 0.27133 0.0
C2999 C 0.54865 0.22351 0.27602 0.0
C3000 C 0.57425 0.21331 0.28999 0.0
C3001 C 0.55529 0.23103 0.28801 0.0
C3002 C 0.59441 0.21488 0.30966 0.0
C3003 C 0.60789 0.19137 0.29657 0.0
N3004 N 0.56778 0.22585 0.29458 0.0
N3005 N 0.59512 0.19663 0.29097 0.0
H3006 H 0.28634 0.10746 0.35437 0.0
H3007 H 0.2772 0.0402 0.29798 0.0
H3008 H 0.31476 0.0999 0.31836 0.0
H3009 H 0.24684 0.04858 0.33215 0.0
H3010 H 0.29094 0.06211 0.30539 0.0
H3011 H 0.27162 0.08608 0.34652 0.0
C3012 C 0.28945 0.10137 0.34477 0.0
C3013 C 0.30187 0.10548 0.33706 0.0
C3014 C 0.28125 0.0592 0.31127 0.0
C3015 C 0.28513 0.08089 0.3281 0.0
C3016 C 0.2733 0.04669 0.30696 0.0
C3017 C 0.26074 0.04248 0.31439 0.0
C3018 C 0.2767 0.06764 0.32314 0.0
C3019 C 0.2565 0.05127 0.32618 0.0
C3020 C 0.28108 0.08911 0.34034 0.0
C3021 C 0.30545 0.09703 0.32481 0.0
N3022 N 0.26447 0.06342 0.33019 0.0
N3023 N 0.29715 0.08516 0.32074 0.0
H3024 H 0.42563 0.81055 0.33792 0.0
H3025 H 0.45464 0.76179 0.273 0.0
H3026 H 0.39684 0.79377 0.30311 0.0
H3027 H 0.4749 0.76184 0.31626 0.0
H3028 H 0.43456 0.77625 0.2824 0.0
H3029 H 0.44515 0.79551 0.32868 0.0
C3030 C 0.42333 0.80368 0.32839 0.0
C3031 C 0.40942 0.80342 0.32139 0.0
C3032 C 0.44337 0.77302 0.28984 0.0
C3033 C 0.43197 0.78643 0.31055 0.0
C3034 C 0.45481 0.76484 0.28448 0.0
C3035 C 0.46639 0.76063 0.29389 0.0
C3036 C 0.44367 0.77728 0.30465 0.0
C3037 C 0.4661 0.76476 0.3087 0.0
C3038 C 0.43454 0.79514 0.3231 0.0
C3039 C 0.40736 0.79457 0.3088 0.0
N3040 N 0.45498 0.773 0.31361 0.0
N3041 N 0.41852 0.78647 0.30377 0.0
H3042 H 0.31298 0.94779 0.6872 0.0
H3043 H 0.26272 0.98032 0.74924 0.0
H3044 H 0.28911 0.92103 0.71729 0.0
H3045 H 0.2876 0.00701 0.71989 0.0
H3046 H 0.2697 0.95855 0.73562 0.0
H3047 H 0.30159 0.96951 0.69722 0.0
C3048 C 0.30524 0.94644 0.69582 0.0
C3049 C 0.30207 0.93252 0.70145 0.0
C3050 C 0.27349 0.96918 0.73204 0.0
C3051 C 0.28906 0.95746 0.7131 0.0
C3052 C 0.26942 0.98166 0.73976 0.0
C3053 C 0.27471 0.99555 0.73582 0.0
C3054 C 0.28294 0.97057 0.7203 0.0
C3055 C 0.28334 0.99654 0.72342 0.0
C3056 C 0.29877 0.95889 0.70159 0.0
C3057 C 0.29208 0.93154 0.71278 0.0
N3058 N 0.28732 0.98422 0.71622 0.0
N3059 N 0.28599 0.94383 0.71826 0.0
H3060 H 0.5999 0.78934 0.68426 0.0
H3061 H 0.53214 0.81505 0.73073 0.0
H3062 H 0.59547 0.83188 0.70421 0.0
H3063 H 0.54218 0.7693 0.72607 0.0
H3064 H 0.55239 0.82129 0.7153 0.0
H3065 H 0.57637 0.78176 0.6946 0.0
C3066 C 0.5939 0.79708 0.6907 0.0
C3067 C 0.59962 0.8112 0.69354 0.0
C3068 C 0.55013 0.80986 0.7175 0.0
C3069 C 0.57286 0.80277 0.70506 0.0
C3070 C 0.53852 0.80627 0.72627 0.0
C3071 C 0.53561 0.79165 0.72985 0.0
C3072 C 0.55908 0.79877 0.71228 0.0
C3073 C 0.54411 0.78072 0.72358 0.0
C3074 C 0.58056 0.79276 0.69659 0.0
C3075 C 0.59151 0.82085 0.70191 0.0
N3076 N 0.55565 0.78451 0.71522 0.0
N3077 N 0.57857 0.81647 0.70734 0.0
H3078 H 0.43255 0.19344 0.72068 0.0
H3079 H 0.49072 0.25897 0.73469 0.0
H3080 H 0.43111 0.23315 0.69534 0.0
H3081 H 0.48974 0.21816 0.75822 0.0
H3082 H 0.46955 0.2502 0.71948 0.0
H3083 H 0.45411 0.20274 0.73388 0.0
C3084 C 0.43686 0.20409 0.71774 0.0
C3085 C 0.43002 0.21241 0.70671 0.0
C3086 C 0.47406 0.24321 0.72797 0.0
C3087 C 0.45485 0.22342 0.72218 0.0
C3088 C 0.48614 0.24819 0.73661 0.0
C3089 C 0.492 0.23933 0.74782 0.0
C3090 C 0.46789 0.22929 0.73058 0.0
C3091 C 0.48561 0.22546 0.74983 0.0
C3092 C 0.44918 0.20948 0.72541 0.0
C3093 C 0.43597 0.22636 0.70379 0.0
N3094 N 0.47398 0.22094 0.74136 0.0
N3095 N 0.44806 0.23143 0.71147 0.0
H3096 H 0.71417 0.73662 0.11569 0.0
H3097 H 0.69673 0.76485 0.03441 0.0
H3098 H 0.68138 0.71616 0.08711 0.0
H3099 H 0.73882 0.7708 0.05624 0.0
H3100 H 0.68859 0.75042 0.05533 0.0
H3101 H 0.72112 0.75264 0.09554 0.0
C3102 C 0.70839 0.73558 0.10519 0.0
C3103 C 0.69723 0.72503 0.10302 0.0
C3104 C 0.69958 0.75495 0.05555 0.0
C3105 C 0.70502 0.74336 0.08002 0.0
C3106 C 0.70417 0.76326 0.04369 0.0
C3107 C 0.71847 0.76895 0.04362 0.0
C3108 C 0.70928 0.75256 0.0675 0.0
C3109 C 0.72776 0.76646 0.05584 0.0
C3110 C 0.71239 0.74466 0.0937 0.0
C3111 C 0.69014 0.72406 0.08918 0.0
N3112 N 0.723 0.75849 0.06731 0.0
N3113 N 0.6941 0.73316 0.07821 0.0
H3114 H 0.29575 0.69097 0.09878 0.0
H3115 H 0.31161 0.75319 0.0397 0.0
H3116 H 0.33192 0.72172 0.10115 0.0
H3117 H 0.27066 0.72925 0.03945 0.0
H3118 H 0.32011 0.73916 0.06063 0.0
H3119 H 0.28719 0.70245 0.07576 0.0
C3120 C 0.30191 0.70007 0.09444 0.0
C3121 C 0.31448 0.70551 0.10199 0.0
C3122 C 0.30926 0.73688 0.05604 0.0
C3123 C 0.30485 0.71856 0.07573 0.0
C3124 C 0.30438 0.74491 0.04402 0.0
C3125 C 0.29032 0.74252 0.03785 0.0
C3126 C 0.30006 0.72631 0.06215 0.0
C3127 C 0.28157 0.73147 0.04388 0.0
C3128 C 0.29699 0.70664 0.08135 0.0
C3129 C 0.32203 0.71733 0.09588 0.0
N3130 N 0.28654 0.72382 0.0558 0.0
N3131 N 0.31711 0.72341 0.08318 0.0
H3132 H 0.31848 0.33298 0.11871 0.0
H3133 H 0.29903 0.26549 0.06519 0.0
H3134 H 0.3407 0.29181 0.12344 0.0
H3135 H 0.28642 0.31023 0.05779 0.0
H3136 H 0.31459 0.27391 0.08632 0.0
H3137 H 0.30645 0.32387 0.09646 0.0
C3138 C 0.32103 0.32206 0.11499 0.0
C3139 C 0.33086 0.31328 0.12296 0.0
C3140 C 0.30852 0.28184 0.07991 0.0
C3141 C 0.31663 0.30249 0.09732 0.0
C3142 C 0.29972 0.27705 0.06784 0.0
C3143 C 0.29129 0.28716 0.05985 0.0
C3144 C 0.30878 0.29677 0.08389 0.0
C3145 C 0.29253 0.302 0.06376 0.0
C3146 C 0.31403 0.31679 0.10224 0.0
C3147 C 0.33318 0.29898 0.11772 0.0
N3148 N 0.30097 0.3063 0.0755 0.0
N3149 N 0.32609 0.294 0.10523 0.0
H3150 H 0.72084 0.31347 0.11922 0.0
H3151 H 0.7089 0.29257 0.03465 0.0
H3152 H 0.68641 0.33163 0.09181 0.0
H3153 H 0.74949 0.28579 0.05871 0.0
H3154 H 0.69945 0.30518 0.05605 0.0
H3155 H 0.73072 0.30183 0.09763 0.0
C3156 C 0.71542 0.31516 0.10867 0.0
C3157 C 0.70273 0.3236 0.10742 0.0
C3158 C 0.71044 0.30097 0.05662 0.0
C3159 C 0.71386 0.30994 0.08264 0.0
C3160 C 0.71579 0.29369 0.04446 0.0
C3161 C 0.73 0.28814 0.04491 0.0
C3162 C 0.71929 0.30254 0.06941 0.0
C3163 C 0.73854 0.29005 0.05784 0.0
C3164 C 0.72104 0.30841 0.09635 0.0
C3165 C 0.69605 0.32506 0.09342 0.0
N3166 N 0.73303 0.29701 0.06961 0.0
N3167 N 0.70165 0.31824 0.08161 0.0
H3168 H 0.70292 0.33799 0.92299 0.0
H3169 H 0.75519 0.2779 0.95938 0.0
H3170 H 0.7271 0.30716 0.89764 0.0
H3171 H 0.74022 0.31575 0.98282 0.0
H3172 H 0.74318 0.28705 0.93699 0.0
H3173 H 0.71453 0.32843 0.94541 0.0
C3174 C 0.71059 0.32912 0.92215 0.0
C3175 C 0.71404 0.32336 0.90842 0.0
C3176 C 0.74255 0.29336 0.94703 0.0
C3177 C 0.72743 0.31241 0.93404 0.0
C3178 C 0.74937 0.28813 0.95983 0.0
C3179 C 0.74873 0.29608 0.97301 0.0
C3180 C 0.73488 0.30655 0.94742 0.0
C3181 C 0.74106 0.30928 0.97291 0.0
C3182 C 0.71729 0.32375 0.93494 0.0
C3183 C 0.72421 0.31201 0.90798 0.0
N3184 N 0.73439 0.31407 0.96034 0.0
N3185 N 0.73051 0.30688 0.9206 0.0
H3186 H 0.69095 0.72099 0.91232 0.0
H3187 H 0.75708 0.74344 0.96812 0.0
H3188 H 0.73316 0.70079 0.91029 0.0
H3189 H 0.71463 0.76335 0.96608 0.0
H3190 H 0.74879 0.72637 0.94834 0.0
H3191 H 0.69962 0.73517 0.9334 0.0
C3192 C 0.70202 0.71936 0.91641 0.0
C3193 C 0.71125 0.70951 0.90951 0.0
C3194 C 0.74133 0.73446 0.95233 0.0
C3195 C 0.72152 0.72621 0.93375 0.0
C3196 C 0.74603 0.74414 0.96363 0.0
C3197 C 0.73658 0.75492 0.96869 0.0
C3198 C 0.72708 0.73557 0.9462 0.0
C3199 C 0.72239 0.75536 0.96247 0.0
C3200 C 0.70705 0.72761 0.92845 0.0
C3201 C 0.72567 0.70831 0.91518 0.0
N3202 N 0.71814 0.74591 0.95161 0.0
N3203 N 0.73038 0.71657 0.92697 0.0
H3204 H 0.32029 0.73621 0.88837 0.0
H3205 H 0.30785 0.73575 0.97401 0.0
H3206 H 0.34002 0.70405 0.91681 0.0
H3207 H 0.30629 0.7755 0.9489 0.0
H3208 H 0.31742 0.72289 0.95276 0.0
H3209 H 0.31264 0.74983 0.91001 0.0
C3210 C 0.32298 0.73203 0.89918 0.0
C3211 C 0.33077 0.719 0.90084 0.0
C3212 C 0.31509 0.73445 0.95195 0.0
C3213 C 0.322 0.73441 0.92556 0.0
C3214 C 0.30959 0.74175 0.96402 0.0
C3215 C 0.30631 0.75668 0.96317 0.0
C3216 C 0.31703 0.74207 0.93883 0.0
C3217 C 0.30882 0.76402 0.95002 0.0
C3218 C 0.3187 0.73983 0.9115 0.0
C3219 C 0.33409 0.71409 0.91508 0.0
N3220 N 0.31388 0.7566 0.93829 0.0
N3221 N 0.32957 0.72173 0.9269 0.0
H3222 H 0.33515 0.30866 0.93098 0.0
H3223 H 0.26405 0.32112 0.97811 0.0
H3224 H 0.30442 0.34316 0.92214 0.0
H3225 H 0.29774 0.29018 0.9893 0.0
H3226 H 0.27831 0.32919 0.95737 0.0
H3227 H 0.32122 0.30154 0.95216 0.0
C3228 C 0.32554 0.31483 0.93354 0.0
C3229 C 0.32101 0.32656 0.92472 0.0
C3230 C 0.28256 0.32063 0.96439 0.0
C3231 C 0.3048 0.31828 0.94895 0.0
C3232 C 0.27444 0.31606 0.97629 0.0
C3233 C 0.2796 0.30486 0.98549 0.0
C3234 C 0.29594 0.31397 0.96163 0.0
C3235 C 0.29312 0.29863 0.98243 0.0
C3236 C 0.31752 0.31069 0.94562 0.0
C3237 C 0.30826 0.33392 0.92848 0.0
N3238 N 0.30077 0.30324 0.97078 0.0
N3239 N 0.3006 0.32965 0.94028 0.0
H3240 H 0.59903 0.67638 0.19154 0.0
H3241 H 0.56304 0.72936 0.24995 0.0
H3242 H 0.62326 0.70951 0.21643 0.0
H3243 H 0.5402 0.69249 0.22972 0.0
H3244 H 0.58518 0.72228 0.23767 0.0
H3245 H 0.57739 0.68203 0.20535 0.0
C3246 C 0.59986 0.68476 0.19998 0.0
C3247 C 0.61304 0.6925 0.20277 0.0
C3248 C 0.57536 0.71567 0.23596 0.0
C3249 C 0.58817 0.69916 0.21851 0.0
C3250 C 0.56269 0.71976 0.24292 0.0
C3251 C 0.54972 0.71156 0.2408 0.0
C3252 C 0.57507 0.70334 0.22668 0.0
C3253 C 0.54997 0.69907 0.23176 0.0
C3254 C 0.58746 0.68803 0.20782 0.0
C3255 C 0.61332 0.70342 0.21369 0.0
N3256 N 0.56241 0.6954 0.22495 0.0
N3257 N 0.60108 0.70644 0.22111 0.0
H3258 H 0.34634 0.59932 0.20191 0.0
H3259 H 0.28664 0.5632 0.25239 0.0
H3260 H 0.30947 0.62344 0.21716 0.0
H3261 H 0.33106 0.54832 0.25206 0.0
H3262 H 0.29348 0.58391 0.23695 0.0
H3263 H 0.33963 0.57907 0.21776 0.0
C3264 C 0.33689 0.60047 0.20862 0.0
C3265 C 0.32855 0.61329 0.20817 0.0
C3266 C 0.30174 0.57614 0.2403 0.0
C3267 C 0.3206 0.58981 0.22612 0.0
C3268 C 0.29783 0.5643 0.24905 0.0
C3269 C 0.30831 0.55405 0.25351 0.0
C3270 C 0.31617 0.57759 0.23575 0.0
C3271 C 0.32269 0.55605 0.24898 0.0
C3272 C 0.33304 0.58883 0.21762 0.0
C3273 C 0.31616 0.61379 0.21688 0.0
N3274 N 0.32618 0.56752 0.24024 0.0
N3275 N 0.31255 0.60223 0.22544 0.0
H3276 H 0.43803 0.33332 0.2195 0.0
H3277 H 0.4738 0.2685 0.26647 0.0
H3278 H 0.41287 0.29967 0.24056 0.0
H3279 H 0.49876 0.30107 0.24361 0.0
H3280 H 0.45145 0.28149 0.2597 0.0
H3281 H 0.4603 0.32326 0.23058 0.0
C3282 C 0.43714 0.32391 0.22659 0.0
C3283 C 0.42349 0.31732 0.22902 0.0
C3284 C 0.46183 0.28589 0.25631 0.0
C3285 C 0.4491 0.30559 0.24166 0.0
C3286 C 0.47464 0.27853 0.26026 0.0
C3287 C 0.48823 0.28361 0.25551 0.0
C3288 C 0.46257 0.29845 0.24753 0.0
C3289 C 0.48856 0.29666 0.24745 0.0
C3290 C 0.4499 0.31811 0.23286 0.0
C3291 C 0.42313 0.30499 0.23815 0.0
N3292 N 0.47594 0.30353 0.24361 0.0
N3293 N 0.43572 0.29951 0.24408 0.0
H3294 H 0.69376 0.41755 0.22791 0.0
H3295 H 0.7513 0.4795 0.20553 0.0
H3296 H 0.71798 0.41798 0.18819 0.0
H3297 H 0.73781 0.47527 0.25016 0.0
H3298 H 0.73524 0.45925 0.19835 0.0
H3299 H 0.70641 0.44048 0.23572 0.0
C3300 C 0.70168 0.4225 0.22084 0.0
C3301 C 0.70497 0.4158 0.20746 0.0
C3302 C 0.73569 0.46271 0.20973 0.0
C3303 C 0.71923 0.44191 0.21618 0.0
C3304 C 0.74486 0.47433 0.21385 0.0
C3305 C 0.74606 0.47895 0.22852 0.0
C3306 C 0.72762 0.45543 0.22033 0.0
C3307 C 0.73722 0.47199 0.23874 0.0
C3308 C 0.70889 0.43551 0.22531 0.0
C3309 C 0.71529 0.42262 0.19869 0.0
N3310 N 0.72844 0.4604 0.23449 0.0
N3311 N 0.722 0.43525 0.20319 0.0
H3312 H 0.60166 0.34349 0.82282 0.0
H3313 H 0.56578 0.28556 0.76572 0.0
H3314 H 0.6266 0.31933 0.79175 0.0
H3315 H 0.54094 0.31229 0.79478 0.0
H3316 H 0.58794 0.29907 0.77363 0.0
H3317 H 0.5792 0.33317 0.81161 0.0
C3318 C 0.60242 0.33601 0.81363 0.0
C3319 C 0.61608 0.3322 0.80831 0.0
C3320 C 0.57761 0.30209 0.77814 0.0
C3321 C 0.59031 0.32036 0.7953 0.0
C3322 C 0.56492 0.29442 0.77357 0.0
C3323 C 0.55144 0.2977 0.77966 0.0
C3324 C 0.57687 0.31308 0.78894 0.0
C3325 C 0.55106 0.30929 0.78983 0.0
C3326 C 0.58957 0.33018 0.80716 0.0
C3327 C 0.61633 0.32265 0.79618 0.0
N3328 N 0.56358 0.31644 0.79424 0.0
N3329 N 0.60367 0.31697 0.79017 0.0
H3330 H 0.72737 0.6353 0.7894 0.0
H3331 H 0.73171 0.54875 0.77514 0.0
H3332 H 0.69663 0.60419 0.80674 0.0
H3333 H 0.76641 0.57968 0.76715 0.0
H3334 H 0.71596 0.56926 0.78186 0.0
H3335 H 0.73915 0.61535 0.77666 0.0
C3336 C 0.72308 0.62427 0.79054 0.0
C3337 C 0.71111 0.62144 0.79939 0.0
C3338 C 0.72692 0.57155 0.77832 0.0
C3339 C 0.72451 0.59845 0.78459 0.0
C3340 C 0.73581 0.55989 0.77433 0.0
C3341 C 0.75028 0.56263 0.77052 0.0
C3342 C 0.73261 0.58596 0.77841 0.0
C3343 C 0.75526 0.57718 0.76997 0.0
C3344 C 0.72976 0.61288 0.78317 0.0
C3345 C 0.70581 0.60693 0.80005 0.0
N3346 N 0.74649 0.58828 0.77396 0.0
N3347 N 0.71262 0.59596 0.79288 0.0
H3348 H 0.41578 0.69551 0.78138 0.0
H3349 H 0.48147 0.75093 0.80286 0.0
H3350 H 0.41958 0.72106 0.82123 0.0
H3351 H 0.4718 0.73908 0.75771 0.0
H3352 H 0.46148 0.73532 0.81033 0.0
H3353 H 0.43846 0.70729 0.77303 0.0
C3354 C 0.42144 0.70351 0.78837 0.0
C3355 C 0.41577 0.70745 0.80195 0.0
C3356 C 0.46371 0.73602 0.79878 0.0
C3357 C 0.4416 0.72068 0.79264 0.0
C3358 C 0.47518 0.74493 0.79448 0.0
C3359 C 0.47818 0.74651 0.7796 0.0
C3360 C 0.455 0.72858 0.78816 0.0
C3361 C 0.4698 0.73822 0.7693 0.0
C3362 C 0.4343 0.71023 0.7836 0.0
C3363 C 0.42347 0.71786 0.81062 0.0
N3364 N 0.45842 0.72969 0.77376 0.0
N3365 N 0.43595 0.72406 0.80583 0.0
H3366 H 0.32185 0.39946 0.80729 0.0
H3367 H 0.33833 0.48351 0.78839 0.0
H3368 H 0.35718 0.42481 0.82767 0.0
H3369 H 0.29967 0.45981 0.77308 0.0
H3370 H 0.34663 0.46152 0.80115 0.0
H3371 H 0.31458 0.42097 0.79328 0.0
C3372 C 0.32805 0.40956 0.80889 0.0
C3373 C 0.34012 0.4103 0.81877 0.0
C3374 C 0.33635 0.46112 0.79497 0.0
C3375 C 0.33195 0.43498 0.80253 0.0
C3376 C 0.33165 0.47365 0.78759 0.0
C3377 C 0.31824 0.47353 0.7797 0.0
C3378 C 0.32761 0.44834 0.79439 0.0
C3379 C 0.30997 0.46047 0.7792 0.0
C3380 C 0.32393 0.42183 0.80081 0.0
C3381 C 0.3479 0.42364 0.82009 0.0
N3382 N 0.31478 0.44842 0.78644 0.0
N3383 N 0.34367 0.43544 0.8121 0.0
H3384 H 0.73666 0.61636 0.1657 0.0
H3385 H 0.73808 0.54641 0.21811 0.0
H3386 H 0.70418 0.60679 0.19758 0.0
H3387 H 0.77449 0.55892 0.19184 0.0
H3388 H 0.72472 0.56742 0.20892 0.0
H3389 H 0.74983 0.59433 0.17332 0.0
C3390 C 0.73226 0.60959 0.17423 0.0
C3391 C 0.71934 0.61348 0.18107 0.0
C3392 C 0.73563 0.56559 0.20514 0.0
C3393 C 0.73433 0.5883 0.18984 0.0
C3394 C 0.74333 0.55359 0.21045 0.0
C3395 C 0.75756 0.55093 0.20592 0.0
C3396 C 0.74211 0.57507 0.19512 0.0
C3397 C 0.76355 0.56048 0.19562 0.0
C3398 C 0.73981 0.59706 0.17862 0.0
C3399 C 0.7142 0.60436 0.19216 0.0
N3400 N 0.75582 0.57216 0.19062 0.0
N3401 N 0.72169 0.59223 0.19617 0.0
H3402 H 0.73096 0.41262 0.80113 0.0
H3403 H 0.75675 0.49477 0.82081 0.0
H3404 H 0.71522 0.43692 0.83802 0.0
H3405 H 0.76435 0.47387 0.7793 0.0
H3406 H 0.74343 0.47281 0.82845 0.0
H3407 H 0.74478 0.43428 0.79385 0.0
C3408 C 0.73029 0.42251 0.80766 0.0
C3409 C 0.72184 0.42286 0.82023 0.0
C3410 C 0.74803 0.47303 0.81767 0.0
C3411 C 0.73796 0.4477 0.81207 0.0
C3412 C 0.75573 0.48552 0.81335 0.0
C3413 C 0.76163 0.48619 0.79937 0.0
C3414 C 0.74633 0.46105 0.80799 0.0
C3415 C 0.75981 0.47392 0.79009 0.0
C3416 C 0.73829 0.43487 0.80353 0.0
C3417 C 0.72173 0.43599 0.82839 0.0
N3418 N 0.75235 0.46187 0.79457 0.0
N3419 N 0.72967 0.44784 0.82418 0.0
H3420 H 0.61722 0.73364 0.83568 0.0
H3421 H 0.5514 0.74219 0.77674 0.0
H3422 H 0.61162 0.70621 0.79719 0.0
H3423 H 0.56109 0.77358 0.81144 0.0
H3424 H 0.57289 0.7285 0.78443 0.0
H3425 H 0.59606 0.74779 0.82752 0.0
C3426 C 0.61149 0.73054 0.82554 0.0
C3427 C 0.6162 0.71867 0.81714 0.0
C3428 C 0.57032 0.73841 0.79034 0.0
C3429 C 0.59196 0.73493 0.80766 0.0
C3430 C 0.55804 0.74633 0.7859 0.0
C3431 C 0.55428 0.75917 0.79341 0.0
C3432 C 0.57896 0.74325 0.80245 0.0
C3433 C 0.56333 0.7637 0.80538 0.0
C3434 C 0.59946 0.73869 0.82084 0.0
C3435 C 0.60848 0.71533 0.80396 0.0
N3436 N 0.57519 0.75575 0.80953 0.0
N3437 N 0.59672 0.72337 0.79967 0.0
H3438 H 0.29781 0.61951 0.80588 0.0
H3439 H 0.30245 0.53241 0.81347 0.0
H3440 H 0.33088 0.59746 0.83182 0.0
H3441 H 0.27244 0.55401 0.78356 0.0
H3442 H 0.31035 0.55628 0.82323 0.0
H3443 H 0.2861 0.5958 0.80025 0.0
C3444 C 0.30254 0.6097 0.8105 0.0
C3445 C 0.31543 0.61048 0.81924 0.0
C3446 C 0.30191 0.55579 0.81465 0.0
C3447 C 0.3021 0.58328 0.81279 0.0
C3448 C 0.29732 0.54214 0.80912 0.0
C3449 C 0.28687 0.54117 0.79754 0.0
C3450 C 0.29605 0.56861 0.80857 0.0
C3451 C 0.2806 0.5542 0.79241 0.0
C3452 C 0.29588 0.59616 0.80724 0.0
C3453 C 0.32112 0.59737 0.82482 0.0
N3454 N 0.2854 0.56737 0.79784 0.0
N3455 N 0.31445 0.58433 0.82147 0.0
H3456 H 0.42553 0.2915 0.85515 0.0
H3457 H 0.48418 0.28888 0.792 0.0
H3458 H 0.42573 0.32045 0.81798 0.0
H3459 H 0.48617 0.26076 0.82978 0.0
H3460 H 0.46242 0.30009 0.80134 0.0
H3461 H 0.44751 0.27985 0.8462 0.0
C3462 C 0.43021 0.29545 0.84515 0.0
C3463 C 0.42369 0.30695 0.83728 0.0
C3464 C 0.46757 0.29146 0.80761 0.0
C3465 C 0.44879 0.29358 0.82693 0.0
C3466 C 0.47999 0.28495 0.80221 0.0
C3467 C 0.48702 0.27374 0.81004 0.0
C3468 C 0.46203 0.28678 0.82099 0.0
C3469 C 0.48119 0.26941 0.82342 0.0
C3470 C 0.44272 0.28875 0.84001 0.0
C3471 C 0.43017 0.31148 0.82429 0.0
N3472 N 0.46902 0.27591 0.82845 0.0
N3473 N 0.44231 0.30479 0.81955 0.0
H3474 H 0.34187 0.41393 0.23342 0.0
H3475 H 0.27583 0.4698 0.23657 0.0
H3476 H 0.30555 0.41049 0.20229 0.0
H3477 H 0.31922 0.4781 0.25482 0.0
H3478 H 0.28504 0.44765 0.22438 0.0
H3479 H 0.33209 0.43672 0.24263 0.0
C3480 C 0.33176 0.41794 0.22857 0.0
C3481 C 0.32449 0.41025 0.21712 0.0
C3482 C 0.2925 0.45447 0.23095 0.0
C3483 C 0.31317 0.43655 0.22758 0.0
C3484 C 0.28728 0.46712 0.23783 0.0
C3485 C 0.29672 0.47573 0.24688 0.0
C3486 C 0.30719 0.45048 0.23327 0.0
C3487 C 0.31145 0.47171 0.24817 0.0
C3488 C 0.32622 0.43105 0.23375 0.0
C3489 C 0.31152 0.41613 0.21111 0.0
N3490 N 0.31614 0.45939 0.2416 0.0
N3491 N 0.30619 0.42891 0.21648 0.0
H3492 H 0.60675 0.32278 0.21889 0.0
H3493 H 0.54939 0.25824 0.19819 0.0
H3494 H 0.60715 0.29843 0.17821 0.0
H3495 H 0.55243 0.28001 0.24029 0.0
H3496 H 0.56989 0.27341 0.19013 0.0
H3497 H 0.5863 0.30758 0.22655 0.0
C3498 C 0.6026 0.31419 0.21159 0.0
C3499 C 0.60872 0.3119 0.19788 0.0
C3500 C 0.56607 0.27481 0.20115 0.0
C3501 C 0.58512 0.29452 0.20652 0.0
C3502 C 0.55435 0.2662 0.20572 0.0
C3503 C 0.54925 0.26775 0.21997 0.0
C3504 C 0.57266 0.28512 0.21087 0.0
C3505 C 0.55614 0.2782 0.22931 0.0
C3506 C 0.59086 0.30555 0.21594 0.0
C3507 C 0.60267 0.30074 0.18878 0.0
N3508 N 0.56745 0.28647 0.2246 0.0
N3509 N 0.59122 0.29247 0.19326 0.0
H3510 H 0.40635 0.73155 0.20351 0.0
H3511 H 0.4937 0.7301 0.20339 0.0
H3512 H 0.43094 0.7019 0.17718 0.0
H3513 H 0.46942 0.75642 0.23332 0.0
H3514 H 0.47078 0.72262 0.19096 0.0
H3515 H 0.42923 0.74339 0.212 0.0
C3516 C 0.41654 0.72762 0.19939 0.0
C3517 C 0.41671 0.71561 0.1897 0.0
C3518 C 0.47047 0.73017 0.20014 0.0
C3519 C 0.44298 0.7291 0.19945 0.0
C3520 C 0.48358 0.73453 0.20721 0.0
C3521 C 0.48352 0.74379 0.21955 0.0
C3522 C 0.45716 0.73508 0.20543 0.0
C3523 C 0.47003 0.74919 0.22392 0.0
C3524 C 0.42962 0.73436 0.20429 0.0
C3525 C 0.43028 0.71094 0.18484 0.0
N3526 N 0.45739 0.74463 0.21698 0.0
N3527 N 0.44285 0.71764 0.18981 0.0
loop_
_geom_bond_atom_site_label_1
_geom_bond_atom_site_label_2
_geom_bond_distance
_geom_bond_site_symmetry_2
_ccdc_geom_bond_type
C0 C1 1.386 . S
C0 C2 1.397 . S
C0 H24 0.931 . S
C1 C0 1.386 . S
C1 C5 1.397 . S
C2 C0 1.397 . S
C2 C3 1.384 . S
C2 H25 0.930 . S
C3 C2 1.384 . S
C3 C4 1.377 . S
C3 C6 1.481 . S
C4 C3 1.377 . S
C4 C5 1.389 . S
C4 H26 0.929 . S
C5 C1 1.397 . S
C5 C4 1.389 . S
C5 H27 0.931 . S
C6 C3 1.481 . S
C6 C7 1.387 . S
C6 C11 1.390 . S
C7 C6 1.387 . S
C7 C8 1.401 . S
C7 H28 0.930 . S
C8 C7 1.401 . S
C8 C9 1.376 . S
C8 C17 1.511 . S
C9 C8 1.376 . S
C9 C10 1.392 . S
C9 H30 0.931 . S
C10 C9 1.392 . S
C10 C11 1.361 . S
C10 C12 1.500 . S
C11 C6 1.390 . S
C11 C10 1.361 . S
C11 H29 0.931 . S
C12 C10 1.500 . S
C12 C13 1.371 . S
C12 C14 1.365 . S
C13 C12 1.371 . S
C13 C23 1.386 . S
C13 H31 0.931 . S
C14 C12 1.365 . S
C14 C15 1.409 . S
C14 H32 0.929 . S
C15 C14 1.409 . S
C15 C16 1.380 . S
C15 H33 0.930 . S
C16 C15 1.380 . S
C16 C23 1.357 . S
C17 C8 1.511 . S
C17 C18 1.341 . S
C17 C19 1.371 . S
C18 C17 1.341 . S
C18 C22 1.394 . S
C18 H34 0.930 . S
C19 C17 1.371 . S
C19 C20 1.392 . S
C19 H35 0.931 . S
C20 C19 1.392 . S
C20 C21 1.331 . S
C20 H38 0.932 . S
C21 C20 1.331 . S
C21 C22 1.336 . S
C22 C18 1.394 . S
C22 C21 1.336 . S
C22 H37 0.929 . S
C23 C13 1.386 . S
C23 C16 1.357 . S
C23 H36 0.928 . S
H24 C0 0.931 . S
H25 C2 0.930 . S
H26 C4 0.929 . S
H27 C5 0.931 . S
H28 C7 0.930 . S
H29 C11 0.931 . S
H30 C9 0.931 . S
H31 C13 0.931 . S
H32 C14 0.929 . S
H33 C15 0.930 . S
H34 C18 0.930 . S
H35 C19 0.931 . S
H36 C23 0.928 . S
H37 C22 0.929 . S
H38 C20 0.932 . S
C39 C40 1.386 . S
C39 C41 1.397 . S
C39 H63 0.931 . S
C40 C39 1.386 . S
C40 C44 1.397 . S
C41 C39 1.397 . S
C41 C42 1.384 . S
C41 H64 0.930 . S
C42 C41 1.384 . S
C42 C43 1.377 . S
C42 C45 1.481 . S
C43 C42 1.377 . S
C43 C44 1.389 . S
C43 H65 0.929 . S
C44 C40 1.397 . S
C44 C43 1.389 . S
C44 H66 0.931 . S
C45 C42 1.481 . S
C45 C46 1.387 . S
C45 C50 1.390 . S
C46 C45 1.387 . S
C46 C47 1.401 . S
C46 H67 0.930 . S
C47 C46 1.401 . S
C47 C48 1.376 . S
C47 C56 1.511 . S
C48 C47 1.376 . S
C48 C49 1.392 . S
C48 H69 0.931 . S
C49 C48 1.392 . S
C49 C50 1.361 . S
C49 C51 1.500 . S
C50 C45 1.390 . S
C50 C49 1.361 . S
C50 H68 0.931 . S
C51 C49 1.500 . S
C51 C52 1.371 . S
C51 C53 1.365 . S
C52 C51 1.371 . S
C52 C62 1.386 . S
C52 H70 0.931 . S
C53 C51 1.365 . S
C53 C54 1.409 . S
C53 H71 0.929 . S
C54 C53 1.409 . S
C54 C55 1.380 . S
C54 H72 0.930 . S
C55 C54 1.380 . S
C55 C62 1.357 . S
C56 C47 1.511 . S
C56 C57 1.341 . S
C56 C58 1.371 . S
C57 C56 1.341 . S
C57 C61 1.394 . S
C57 H73 0.930 . S
C58 C56 1.371 . S
C58 C59 1.392 . S
C58 H74 0.931 . S
C59 C58 1.392 . S
C59 C60 1.331 . S
C59 H77 0.932 . S
C60 C59 1.331 . S
C60 C61 1.336 . S
C61 C57 1.394 . S
C61 C60 1.336 . S
C61 H76 0.929 . S
C62 C52 1.386 . S
C62 C55 1.357 . S
C62 H75 0.928 . S
H63 C39 0.931 . S
H64 C41 0.930 . S
H65 C43 0.929 . S
H66 C44 0.931 . S
H67 C46 0.930 . S
H68 C50 0.931 . S
H69 C48 0.931 . S
H70 C52 0.931 . S
H71 C53 0.929 . S
H72 C54 0.930 . S
H73 C57 0.930 . S
H74 C58 0.931 . S
H75 C62 0.928 . S
H76 C61 0.929 . S
H77 C59 0.932 . S
C78 C79 1.386 . S
C78 C80 1.397 . S
C78 H102 0.931 . S
C79 C78 1.386 . S
C79 C83 1.397 . S
C80 C78 1.397 . S
C80 C81 1.384 . S
C80 H103 0.930 . S
C81 C80 1.384 . S
C81 C82 1.377 . S
C81 C84 1.481 . S
C82 C81 1.377 . S
C82 C83 1.389 . S
C82 H104 0.929 . S
C83 C79 1.397 . S
C83 C82 1.389 . S
C83 H105 0.931 . S
C84 C81 1.481 . S
C84 C85 1.387 . S
C84 C89 1.390 . S
C85 C84 1.387 . S
C85 C86 1.401 . S
C85 H106 0.930 . S
C86 C85 1.401 . S
C86 C87 1.376 . S
C86 C95 1.511 . S
C87 C86 1.376 . S
C87 C88 1.392 . S
C87 H108 0.931 . S
C88 C87 1.392 . S
C88 C89 1.361 . S
C88 C90 1.500 . S
C89 C84 1.390 . S
C89 C88 1.361 . S
C89 H107 0.931 . S
C90 C88 1.500 . S
C90 C91 1.371 . S
C90 C92 1.365 . S
C91 C90 1.371 . S
C91 C101 1.386 . S
C91 H109 0.931 . S
C92 C90 1.365 . S
C92 C93 1.409 . S
C92 H110 0.929 . S
C93 C92 1.409 . S
C93 C94 1.380 . S
C93 H111 0.930 . S
C94 C93 1.380 . S
C94 C101 1.357 . S
C95 C86 1.511 . S
C95 C96 1.341 . S
C95 C97 1.371 . S
C96 C95 1.341 . S
C96 C100 1.394 . S
C96 H112 0.930 . S
C97 C95 1.371 . S
C97 C98 1.392 . S
C97 H113 0.931 . S
C98 C97 1.392 . S
C98 C99 1.331 . S
C98 H116 0.932 . S
C99 C98 1.331 . S
C99 C100 1.336 . S
C100 C96 1.394 . S
C100 C99 1.336 . S
C100 H115 0.929 . S
C101 C91 1.386 . S
C101 C94 1.357 . S
C101 H114 0.928 . S
H102 C78 0.931 . S
H103 C80 0.930 . S
H104 C82 0.929 . S
H105 C83 0.931 . S
H106 C85 0.930 . S
H107 C89 0.931 . S
H108 C87 0.931 . S
H109 C91 0.931 . S
H110 C92 0.929 . S
H111 C93 0.930 . S
H112 C96 0.930 . S
H113 C97 0.931 . S
H114 C101 0.928 . S
H115 C100 0.929 . S
H116 C98 0.932 . S
C117 C118 1.386 . S
C117 C119 1.397 . S
C117 H141 0.931 . S
C118 C117 1.386 . S
C118 C122 1.397 . S
C119 C117 1.397 . S
C119 C120 1.384 . S
C119 H142 0.930 . S
C120 C119 1.384 . S
C120 C121 1.377 . S
C120 C123 1.481 . S
C121 C120 1.377 . S
C121 C122 1.389 . S
C121 H143 0.929 . S
C122 C118 1.397 . S
C122 C121 1.389 . S
C122 H144 0.931 . S
C123 C120 1.481 . S
C123 C124 1.387 . S
C123 C128 1.390 . S
C124 C123 1.387 . S
C124 C125 1.401 . S
C124 H145 0.930 . S
C125 C124 1.401 . S
C125 C126 1.376 . S
C125 C134 1.511 . S
C126 C125 1.376 . S
C126 C127 1.392 . S
C126 H147 0.931 . S
C127 C126 1.392 . S
C127 C128 1.361 . S
C127 C129 1.500 . S
C128 C123 1.390 . S
C128 C127 1.361 . S
C128 H146 0.931 . S
C129 C127 1.500 . S
C129 C130 1.371 . S
C129 C131 1.365 . S
C130 C129 1.371 . S
C130 C140 1.386 . S
C130 H148 0.931 . S
C131 C129 1.365 . S
C131 C132 1.409 . S
C131 H149 0.929 . S
C132 C131 1.409 . S
C132 C133 1.380 . S
C132 H150 0.930 . S
C133 C132 1.380 . S
C133 C140 1.357 . S
C134 C125 1.511 . S
C134 C135 1.341 . S
C134 C136 1.371 . S
C135 C134 1.341 . S
C135 C139 1.394 . S
C135 H151 0.930 . S
C136 C134 1.371 . S
C136 C137 1.392 . S
C136 H152 0.931 . S
C137 C136 1.392 . S
C137 C138 1.331 . S
C137 H155 0.932 . S
C138 C137 1.331 . S
C138 C139 1.336 . S
C139 C135 1.394 . S
C139 C138 1.336 . S
C139 H154 0.929 . S
C140 C130 1.386 . S
C140 C133 1.357 . S
C140 H153 0.928 . S
H141 C117 0.931 . S
H142 C119 0.930 . S
H143 C121 0.929 . S
H144 C122 0.931 . S
H145 C124 0.930 . S
H146 C128 0.931 . S
H147 C126 0.931 . S
H148 C130 0.931 . S
H149 C131 0.929 . S
H150 C132 0.930 . S
H151 C135 0.930 . S
H152 C136 0.931 . S
H153 C140 0.928 . S
H154 C139 0.929 . S
H155 C137 0.932 . S
C156 C157 1.386 . S
C156 C158 1.397 . S
C156 H180 0.931 . S
C157 C156 1.386 . S
C157 C161 1.397 . S
C158 C156 1.397 . S
C158 C159 1.384 . S
C158 H181 0.930 . S
C159 C158 1.384 . S
C159 C160 1.377 . S
C159 C162 1.481 . S
C160 C159 1.377 . S
C160 C161 1.389 . S
C160 H182 0.929 . S
C161 C157 1.397 . S
C161 C160 1.389 . S
C161 H183 0.931 . S
C162 C159 1.481 . S
C162 C163 1.387 . S
C162 C167 1.390 . S
C163 C162 1.387 . S
C163 C164 1.401 . S
C163 H184 0.930 . S
C164 C163 1.401 . S
C164 C165 1.376 . S
C164 C173 1.511 . S
C165 C164 1.376 . S
C165 C166 1.392 . S
C165 H186 0.931 . S
C166 C165 1.392 . S
C166 C167 1.361 . S
C166 C168 1.500 . S
C167 C162 1.390 . S
C167 C166 1.361 . S
C167 H185 0.931 . S
C168 C166 1.500 . S
C168 C169 1.371 . S
C168 C170 1.365 . S
C169 C168 1.371 . S
C169 C179 1.386 . S
C169 H187 0.931 . S
C170 C168 1.365 . S
C170 C171 1.409 . S
C170 H188 0.929 . S
C171 C170 1.409 . S
C171 C172 1.380 . S
C171 H189 0.930 . S
C172 C171 1.380 . S
C172 C179 1.357 . S
C173 C164 1.511 . S
C173 C174 1.341 . S
C173 C175 1.371 . S
C174 C173 1.341 . S
C174 C178 1.394 . S
C174 H190 0.930 . S
C175 C173 1.371 . S
C175 C176 1.392 . S
C175 H191 0.931 . S
C176 C175 1.392 . S
C176 C177 1.331 . S
C176 H194 0.932 . S
C177 C176 1.331 . S
C177 C178 1.336 . S
C178 C174 1.394 . S
C178 C177 1.336 . S
C178 H193 0.929 . S
C179 C169 1.386 . S
C179 C172 1.357 . S
C179 H192 0.928 . S
H180 C156 0.931 . S
H181 C158 0.930 . S
H182 C160 0.929 . S
H183 C161 0.931 . S
H184 C163 0.930 . S
H185 C167 0.931 . S
H186 C165 0.931 . S
H187 C169 0.931 . S
H188 C170 0.929 . S
H189 C171 0.930 . S
H190 C174 0.930 . S
H191 C175 0.931 . S
H192 C179 0.928 . S
H193 C178 0.929 . S
H194 C176 0.932 . S
C195 C196 1.386 . S
C195 C197 1.397 . S
C195 H219 0.931 . S
C196 C195 1.386 . S
C196 C200 1.397 . S
C197 C195 1.397 . S
C197 C198 1.384 . S
C197 H220 0.930 . S
C198 C197 1.384 . S
C198 C199 1.377 . S
C198 C201 1.481 . S
C199 C198 1.377 . S
C199 C200 1.389 . S
C199 H221 0.929 . S
C200 C196 1.397 . S
C200 C199 1.389 . S
C200 H222 0.931 . S
C201 C198 1.481 . S
C201 C202 1.387 . S
C201 C206 1.390 . S
C202 C201 1.387 . S
C202 C203 1.401 . S
C202 H223 0.930 . S
C203 C202 1.401 . S
C203 C204 1.376 . S
C203 C212 1.511 . S
C204 C203 1.376 . S
C204 C205 1.392 . S
C204 H225 0.931 . S
C205 C204 1.392 . S
C205 C206 1.361 . S
C205 C207 1.500 . S
C206 C201 1.390 . S
C206 C205 1.361 . S
C206 H224 0.931 . S
C207 C205 1.500 . S
C207 C208 1.371 . S
C207 C209 1.365 . S
C208 C207 1.371 . S
C208 C218 1.386 . S
C208 H226 0.931 . S
C209 C207 1.365 . S
C209 C210 1.409 . S
C209 H227 0.929 . S
C210 C209 1.409 . S
C210 C211 1.380 . S
C210 H228 0.930 . S
C211 C210 1.380 . S
C211 C218 1.357 . S
C212 C203 1.511 . S
C212 C213 1.341 . S
C212 C214 1.371 . S
C213 C212 1.341 . S
C213 C217 1.394 . S
C213 H229 0.930 . S
C214 C212 1.371 . S
C214 C215 1.392 . S
C214 H230 0.931 . S
C215 C214 1.392 . S
C215 C216 1.331 . S
C215 H233 0.932 . S
C216 C215 1.331 . S
C216 C217 1.336 . S
C217 C213 1.394 . S
C217 C216 1.336 . S
C217 H232 0.929 . S
C218 C208 1.386 . S
C218 C211 1.357 . S
C218 H231 0.928 . S
H219 C195 0.931 . S
H220 C197 0.930 . S
H221 C199 0.929 . S
H222 C200 0.931 . S
H223 C202 0.930 . S
H224 C206 0.931 . S
H225 C204 0.931 . S
H226 C208 0.931 . S
H227 C209 0.929 . S
H228 C210 0.930 . S
H229 C213 0.930 . S
H230 C214 0.931 . S
H231 C218 0.928 . S
H232 C217 0.929 . S
H233 C215 0.932 . S
C234 C235 1.386 . S
C234 C236 1.397 . S
C234 H258 0.931 . S
C235 C234 1.386 . S
C235 C239 1.397 . S
C236 C234 1.397 . S
C236 C237 1.384 . S
C236 H259 0.930 . S
C237 C236 1.384 . S
C237 C238 1.377 . S
C237 C240 1.481 . S
C238 C237 1.377 . S
C238 C239 1.389 . S
C238 H260 0.929 . S
C239 C235 1.397 . S
C239 C238 1.389 . S
C239 H261 0.931 . S
C240 C237 1.481 . S
C240 C241 1.387 . S
C240 C245 1.390 . S
C241 C240 1.387 . S
C241 C242 1.401 . S
C241 H262 0.930 . S
C242 C241 1.401 . S
C242 C243 1.376 . S
C242 C251 1.511 . S
C243 C242 1.376 . S
C243 C244 1.392 . S
C243 H264 0.931 . S
C244 C243 1.392 . S
C244 C245 1.361 . S
C244 C246 1.500 . S
C245 C240 1.390 . S
C245 C244 1.361 . S
C245 H263 0.931 . S
C246 C244 1.500 . S
C246 C247 1.371 . S
C246 C248 1.365 . S
C247 C246 1.371 . S
C247 C257 1.386 . S
C247 H265 0.931 . S
C248 C246 1.365 . S
C248 C249 1.409 . S
C248 H266 0.929 . S
C249 C248 1.409 . S
C249 C250 1.380 . S
C249 H267 0.930 . S
C250 C249 1.380 . S
C250 C257 1.357 . S
C251 C242 1.511 . S
C251 C252 1.341 . S
C251 C253 1.371 . S
C252 C251 1.341 . S
C252 C256 1.394 . S
C252 H268 0.930 . S
C253 C251 1.371 . S
C253 C254 1.392 . S
C253 H269 0.931 . S
C254 C253 1.392 . S
C254 C255 1.331 . S
C254 H272 0.932 . S
C255 C254 1.331 . S
C255 C256 1.336 . S
C256 C252 1.394 . S
C256 C255 1.336 . S
C256 H271 0.929 . S
C257 C247 1.386 . S
C257 C250 1.357 . S
C257 H270 0.928 . S
H258 C234 0.931 . S
H259 C236 0.930 . S
H260 C238 0.929 . S
H261 C239 0.931 . S
H262 C241 0.930 . S
H263 C245 0.931 . S
H264 C243 0.931 . S
H265 C247 0.931 . S
H266 C248 0.929 . S
H267 C249 0.930 . S
H268 C252 0.930 . S
H269 C253 0.931 . S
H270 C257 0.928 . S
H271 C256 0.929 . S
H272 C254 0.932 . S
C273 C274 1.386 . S
C273 C275 1.397 . S
C273 H297 0.931 . S
C274 C273 1.386 . S
C274 C278 1.397 . S
C275 C273 1.397 . S
C275 C276 1.384 . S
C275 H298 0.930 . S
C276 C275 1.384 . S
C276 C277 1.377 . S
C276 C279 1.481 . S
C277 C276 1.377 . S
C277 C278 1.389 . S
C277 H299 0.929 . S
C278 C274 1.397 . S
C278 C277 1.389 . S
C278 H300 0.931 . S
C279 C276 1.481 . S
C279 C280 1.387 . S
C279 C284 1.390 . S
C280 C279 1.387 . S
C280 C281 1.401 . S
C280 H301 0.930 . S
C281 C280 1.401 . S
C281 C282 1.376 . S
C281 C290 1.511 . S
C282 C281 1.376 . S
C282 C283 1.392 . S
C282 H303 0.931 . S
C283 C282 1.392 . S
C283 C284 1.361 . S
C283 C285 1.500 . S
C284 C279 1.390 . S
C284 C283 1.361 . S
C284 H302 0.931 . S
C285 C283 1.500 . S
C285 C286 1.371 . S
C285 C287 1.365 . S
C286 C285 1.371 . S
C286 C296 1.386 . S
C286 H304 0.931 . S
C287 C285 1.365 . S
C287 C288 1.409 . S
C287 H305 0.929 . S
C288 C287 1.409 . S
C288 C289 1.380 . S
C288 H306 0.930 . S
C289 C288 1.380 . S
C289 C296 1.357 . S
C290 C281 1.511 . S
C290 C291 1.341 . S
C290 C292 1.371 . S
C291 C290 1.341 . S
C291 C295 1.394 . S
C291 H307 0.930 . S
C292 C290 1.371 . S
C292 C293 1.392 . S
C292 H308 0.931 . S
C293 C292 1.392 . S
C293 C294 1.331 . S
C293 H311 0.932 . S
C294 C293 1.331 . S
C294 C295 1.336 . S
C295 C291 1.394 . S
C295 C294 1.336 . S
C295 H310 0.929 . S
C296 C286 1.386 . S
C296 C289 1.357 . S
C296 H309 0.928 . S
H297 C273 0.931 . S
H298 C275 0.930 . S
H299 C277 0.929 . S
H300 C278 0.931 . S
H301 C280 0.930 . S
H302 C284 0.931 . S
H303 C282 0.931 . S
H304 C286 0.931 . S
H305 C287 0.929 . S
H306 C288 0.930 . S
H307 C291 0.930 . S
H308 C292 0.931 . S
H309 C296 0.928 . S
H310 C295 0.929 . S
H311 C293 0.932 . S
C312 C313 1.386 . S
C312 C314 1.397 . S
C312 H336 0.931 . S
C313 C312 1.386 . S
C313 C317 1.397 . S
C314 C312 1.397 . S
C314 C315 1.384 . S
C314 H337 0.930 . S
C315 C314 1.384 . S
C315 C316 1.377 . S
C315 C318 1.481 . S
C316 C315 1.377 . S
C316 C317 1.389 . S
C316 H338 0.929 . S
C317 C313 1.397 . S
C317 C316 1.389 . S
C317 H339 0.931 . S
C318 C315 1.481 . S
C318 C319 1.387 . S
C318 C323 1.390 . S
C319 C318 1.387 . S
C319 C320 1.401 . S
C319 H340 0.930 . S
C320 C319 1.401 . S
C320 C321 1.376 . S
C320 C329 1.511 . S
C321 C320 1.376 . S
C321 C322 1.392 . S
C321 H342 0.931 . S
C322 C321 1.392 . S
C322 C323 1.361 . S
C322 C324 1.500 . S
C323 C318 1.390 . S
C323 C322 1.361 . S
C323 H341 0.931 . S
C324 C322 1.500 . S
C324 C325 1.371 . S
C324 C326 1.365 . S
C325 C324 1.371 . S
C325 C335 1.386 . S
C325 H343 0.931 . S
C326 C324 1.365 . S
C326 C327 1.409 . S
C326 H344 0.929 . S
C327 C326 1.409 . S
C327 C328 1.380 . S
C327 H345 0.930 . S
C328 C327 1.380 . S
C328 C335 1.357 . S
C329 C320 1.511 . S
C329 C330 1.341 . S
C329 C331 1.371 . S
C330 C329 1.341 . S
C330 C334 1.394 . S
C330 H346 0.930 . S
C331 C329 1.371 . S
C331 C332 1.392 . S
C331 H347 0.931 . S
C332 C331 1.392 . S
C332 C333 1.331 . S
C332 H350 0.932 . S
C333 C332 1.331 . S
C333 C334 1.336 . S
C334 C330 1.394 . S
C334 C333 1.336 . S
C334 H349 0.929 . S
C335 C325 1.386 . S
C335 C328 1.357 . S
C335 H348 0.928 . S
H336 C312 0.931 . S
H337 C314 0.930 . S
H338 C316 0.929 . S
H339 C317 0.931 . S
H340 C319 0.930 . S
H341 C323 0.931 . S
H342 C321 0.931 . S
H343 C325 0.931 . S
H344 C326 0.929 . S
H345 C327 0.930 . S
H346 C330 0.930 . S
H347 C331 0.931 . S
H348 C335 0.928 . S
H349 C334 0.929 . S
H350 C332 0.932 . S
C351 C352 1.386 . S
C351 C353 1.397 . S
C351 H375 0.931 . S
C352 C351 1.386 . S
C352 C356 1.397 . S
C353 C351 1.397 . S
C353 C354 1.384 . S
C353 H376 0.930 . S
C354 C353 1.384 . S
C354 C355 1.377 . S
C354 C357 1.481 . S
C355 C354 1.377 . S
C355 C356 1.389 . S
C355 H377 0.929 . S
C356 C352 1.397 . S
C356 C355 1.389 . S
C356 H378 0.931 . S
C357 C354 1.481 . S
C357 C358 1.387 . S
C357 C362 1.390 . S
C358 C357 1.387 . S
C358 C359 1.401 . S
C358 H379 0.930 . S
C359 C358 1.401 . S
C359 C360 1.376 . S
C359 C368 1.511 . S
C360 C359 1.376 . S
C360 C361 1.392 . S
C360 H381 0.931 . S
C361 C360 1.392 . S
C361 C362 1.361 . S
C361 C363 1.500 . S
C362 C357 1.390 . S
C362 C361 1.361 . S
C362 H380 0.931 . S
C363 C361 1.500 . S
C363 C364 1.371 . S
C363 C365 1.365 . S
C364 C363 1.371 . S
C364 C374 1.386 . S
C364 H382 0.931 . S
C365 C363 1.365 . S
C365 C366 1.409 . S
C365 H383 0.929 . S
C366 C365 1.409 . S
C366 C367 1.380 . S
C366 H384 0.930 . S
C367 C366 1.380 . S
C367 C374 1.357 . S
C368 C359 1.511 . S
C368 C369 1.341 . S
C368 C370 1.371 . S
C369 C368 1.341 . S
C369 C373 1.394 . S
C369 H385 0.930 . S
C370 C368 1.371 . S
C370 C371 1.392 . S
C370 H386 0.931 . S
C371 C370 1.392 . S
C371 C372 1.331 . S
C371 H389 0.932 . S
C372 C371 1.331 . S
C372 C373 1.336 . S
C373 C369 1.394 . S
C373 C372 1.336 . S
C373 H388 0.929 . S
C374 C364 1.386 . S
C374 C367 1.357 . S
C374 H387 0.928 . S
H375 C351 0.931 . S
H376 C353 0.930 . S
H377 C355 0.929 . S
H378 C356 0.931 . S
H379 C358 0.930 . S
H380 C362 0.931 . S
H381 C360 0.931 . S
H382 C364 0.931 . S
H383 C365 0.929 . S
H384 C366 0.930 . S
H385 C369 0.930 . S
H386 C370 0.931 . S
H387 C374 0.928 . S
H388 C373 0.929 . S
H389 C371 0.932 . S
C390 C391 1.386 . S
C390 C392 1.397 . S
C390 H414 0.931 . S
C391 C390 1.386 . S
C391 C395 1.397 . S
C392 C390 1.397 . S
C392 C393 1.384 . S
C392 H415 0.930 . S
C393 C392 1.384 . S
C393 C394 1.377 . S
C393 C396 1.481 . S
C394 C393 1.377 . S
C394 C395 1.389 . S
C394 H416 0.929 . S
C395 C391 1.397 . S
C395 C394 1.389 . S
C395 H417 0.931 . S
C396 C393 1.481 . S
C396 C397 1.387 . S
C396 C401 1.390 . S
C397 C396 1.387 . S
C397 C398 1.401 . S
C397 H418 0.930 . S
C398 C397 1.401 . S
C398 C399 1.376 . S
C398 C407 1.511 . S
C399 C398 1.376 . S
C399 C400 1.392 . S
C399 H420 0.931 . S
C400 C399 1.392 . S
C400 C401 1.361 . S
C400 C402 1.500 . S
C401 C396 1.390 . S
C401 C400 1.361 . S
C401 H419 0.931 . S
C402 C400 1.500 . S
C402 C403 1.371 . S
C402 C404 1.365 . S
C403 C402 1.371 . S
C403 C413 1.386 . S
C403 H421 0.931 . S
C404 C402 1.365 . S
C404 C405 1.409 . S
C404 H422 0.929 . S
C405 C404 1.409 . S
C405 C406 1.380 . S
C405 H423 0.930 . S
C406 C405 1.380 . S
C406 C413 1.357 . S
C407 C398 1.511 . S
C407 C408 1.341 . S
C407 C409 1.371 . S
C408 C407 1.341 . S
C408 C412 1.394 . S
C408 H424 0.930 . S
C409 C407 1.371 . S
C409 C410 1.392 . S
C409 H425 0.931 . S
C410 C409 1.392 . S
C410 C411 1.331 . S
C410 H428 0.932 . S
C411 C410 1.331 . S
C411 C412 1.336 . S
C412 C408 1.394 . S
C412 C411 1.336 . S
C412 H427 0.929 . S
C413 C403 1.386 . S
C413 C406 1.357 . S
C413 H426 0.928 . S
H414 C390 0.931 . S
H415 C392 0.930 . S
H416 C394 0.929 . S
H417 C395 0.931 . S
H418 C397 0.930 . S
H419 C401 0.931 . S
H420 C399 0.931 . S
H421 C403 0.931 . S
H422 C404 0.929 . S
H423 C405 0.930 . S
H424 C408 0.930 . S
H425 C409 0.931 . S
H426 C413 0.928 . S
H427 C412 0.929 . S
H428 C410 0.932 . S
C429 C430 1.386 . S
C429 C431 1.397 . S
C429 H453 0.931 . S
C430 C429 1.386 . S
C430 C434 1.397 . S
C431 C429 1.397 . S
C431 C432 1.384 . S
C431 H454 0.930 . S
C432 C431 1.384 . S
C432 C433 1.377 . S
C432 C435 1.481 . S
C433 C432 1.377 . S
C433 C434 1.389 . S
C433 H455 0.929 . S
C434 C430 1.397 . S
C434 C433 1.389 . S
C434 H456 0.931 . S
C435 C432 1.481 . S
C435 C436 1.387 . S
C435 C440 1.390 . S
C436 C435 1.387 . S
C436 C437 1.401 . S
C436 H457 0.930 . S
C437 C436 1.401 . S
C437 C438 1.376 . S
C437 C446 1.511 . S
C438 C437 1.376 . S
C438 C439 1.392 . S
C438 H459 0.931 . S
C439 C438 1.392 . S
C439 C440 1.361 . S
C439 C441 1.500 . S
C440 C435 1.390 . S
C440 C439 1.361 . S
C440 H458 0.931 . S
C441 C439 1.500 . S
C441 C442 1.371 . S
C441 C443 1.365 . S
C442 C441 1.371 . S
C442 C452 1.386 . S
C442 H460 0.931 . S
C443 C441 1.365 . S
C443 C444 1.409 . S
C443 H461 0.929 . S
C444 C443 1.409 . S
C444 C445 1.380 . S
C444 H462 0.930 . S
C445 C444 1.380 . S
C445 C452 1.357 . S
C446 C437 1.511 . S
C446 C447 1.341 . S
C446 C448 1.371 . S
C447 C446 1.341 . S
C447 C451 1.394 . S
C447 H463 0.930 . S
C448 C446 1.371 . S
C448 C449 1.392 . S
C448 H464 0.931 . S
C449 C448 1.392 . S
C449 C450 1.331 . S
C449 H467 0.932 . S
C450 C449 1.331 . S
C450 C451 1.336 . S
C451 C447 1.394 . S
C451 C450 1.336 . S
C451 H466 0.929 . S
C452 C442 1.386 . S
C452 C445 1.357 . S
C452 H465 0.928 . S
H453 C429 0.931 . S
H454 C431 0.930 . S
H455 C433 0.929 . S
H456 C434 0.931 . S
H457 C436 0.930 . S
H458 C440 0.931 . S
H459 C438 0.931 . S
H460 C442 0.931 . S
H461 C443 0.929 . S
H462 C444 0.930 . S
H463 C447 0.930 . S
H464 C448 0.931 . S
H465 C452 0.928 . S
H466 C451 0.929 . S
H467 C449 0.932 . S
C468 C469 1.386 . S
C468 C470 1.397 . S
C468 H492 0.931 . S
C469 C468 1.386 . S
C469 C473 1.397 . S
C470 C468 1.397 . S
C470 C471 1.384 . S
C470 H493 0.930 . S
C471 C470 1.384 . S
C471 C472 1.377 . S
C471 C474 1.481 . S
C472 C471 1.377 . S
C472 C473 1.389 . S
C472 H494 0.929 . S
C473 C469 1.397 . S
C473 C472 1.389 . S
C473 H495 0.931 . S
C474 C471 1.481 . S
C474 C475 1.387 . S
C474 C479 1.390 . S
C475 C474 1.387 . S
C475 C476 1.401 . S
C475 H496 0.930 . S
C476 C475 1.401 . S
C476 C477 1.376 . S
C476 C485 1.511 . S
C477 C476 1.376 . S
C477 C478 1.392 . S
C477 H498 0.931 . S
C478 C477 1.392 . S
C478 C479 1.361 . S
C478 C480 1.500 . S
C479 C474 1.390 . S
C479 C478 1.361 . S
C479 H497 0.931 . S
C480 C478 1.500 . S
C480 C481 1.371 . S
C480 C482 1.365 . S
C481 C480 1.371 . S
C481 C491 1.386 . S
C481 H499 0.931 . S
C482 C480 1.365 . S
C482 C483 1.409 . S
C482 H500 0.929 . S
C483 C482 1.409 . S
C483 C484 1.380 . S
C483 H501 0.930 . S
C484 C483 1.380 . S
C484 C491 1.357 . S
C485 C476 1.511 . S
C485 C486 1.341 . S
C485 C487 1.371 . S
C486 C485 1.341 . S
C486 C490 1.394 . S
C486 H502 0.930 . S
C487 C485 1.371 . S
C487 C488 1.392 . S
C487 H503 0.931 . S
C488 C487 1.392 . S
C488 C489 1.331 . S
C488 H506 0.932 . S
C489 C488 1.331 . S
C489 C490 1.336 . S
C490 C486 1.394 . S
C490 C489 1.336 . S
C490 H505 0.929 . S
C491 C481 1.386 . S
C491 C484 1.357 . S
C491 H504 0.928 . S
H492 C468 0.931 . S
H493 C470 0.930 . S
H494 C472 0.929 . S
H495 C473 0.931 . S
H496 C475 0.930 . S
H497 C479 0.931 . S
H498 C477 0.931 . S
H499 C481 0.931 . S
H500 C482 0.929 . S
H501 C483 0.930 . S
H502 C486 0.930 . S
H503 C487 0.931 . S
H504 C491 0.928 . S
H505 C490 0.929 . S
H506 C488 0.932 . S
C507 C508 1.386 . S
C507 C509 1.397 . S
C507 H531 0.931 . S
C508 C507 1.386 . S
C508 C512 1.397 . S
C509 C507 1.397 . S
C509 C510 1.384 . S
C509 H532 0.930 . S
C510 C509 1.384 . S
C510 C511 1.377 . S
C510 C513 1.481 . S
C511 C510 1.377 . S
C511 C512 1.389 . S
C511 H533 0.929 . S
C512 C508 1.397 . S
C512 C511 1.389 . S
C512 H534 0.931 . S
C513 C510 1.481 . S
C513 C514 1.387 . S
C513 C518 1.390 . S
C514 C513 1.387 . S
C514 C515 1.401 . S
C514 H535 0.930 . S
C515 C514 1.401 . S
C515 C516 1.376 . S
C515 C524 1.511 . S
C516 C515 1.376 . S
C516 C517 1.392 . S
C516 H537 0.931 . S
C517 C516 1.392 . S
C517 C518 1.361 . S
C517 C519 1.500 . S
C518 C513 1.390 . S
C518 C517 1.361 . S
C518 H536 0.931 . S
C519 C517 1.500 . S
C519 C520 1.371 . S
C519 C521 1.365 . S
C520 C519 1.371 . S
C520 C530 1.386 . S
C520 H538 0.931 . S
C521 C519 1.365 . S
C521 C522 1.409 . S
C521 H539 0.929 . S
C522 C521 1.409 . S
C522 C523 1.380 . S
C522 H540 0.930 . S
C523 C522 1.380 . S
C523 C530 1.357 . S
C524 C515 1.511 . S
C524 C525 1.341 . S
C524 C526 1.371 . S
C525 C524 1.341 . S
C525 C529 1.394 . S
C525 H541 0.930 . S
C526 C524 1.371 . S
C526 C527 1.392 . S
C526 H542 0.931 . S
C527 C526 1.392 . S
C527 C528 1.331 . S
C527 H545 0.932 . S
C528 C527 1.331 . S
C528 C529 1.336 . S
C529 C525 1.394 . S
C529 C528 1.336 . S
C529 H544 0.929 . S
C530 C520 1.386 . S
C530 C523 1.357 . S
C530 H543 0.928 . S
H531 C507 0.931 . S
H532 C509 0.930 . S
H533 C511 0.929 . S
H534 C512 0.931 . S
H535 C514 0.930 . S
H536 C518 0.931 . S
H537 C516 0.931 . S
H538 C520 0.931 . S
H539 C521 0.929 . S
H540 C522 0.930 . S
H541 C525 0.930 . S
H542 C526 0.931 . S
H543 C530 0.928 . S
H544 C529 0.929 . S
H545 C527 0.932 . S
C546 C547 1.386 . S
C546 C548 1.397 . S
C546 H570 0.931 . S
C547 C546 1.386 . S
C547 C551 1.397 . S
C548 C546 1.397 . S
C548 C549 1.384 . S
C548 H571 0.930 . S
C549 C548 1.384 . S
C549 C550 1.377 . S
C549 C552 1.481 . S
C550 C549 1.377 . S
C550 C551 1.389 . S
C550 H572 0.929 . S
C551 C547 1.397 . S
C551 C550 1.389 . S
C551 H573 0.931 . S
C552 C549 1.481 . S
C552 C553 1.387 . S
C552 C557 1.390 . S
C553 C552 1.387 . S
C553 C554 1.401 . S
C553 H574 0.930 . S
C554 C553 1.401 . S
C554 C555 1.376 . S
C554 C563 1.511 . S
C555 C554 1.376 . S
C555 C556 1.392 . S
C555 H576 0.931 . S
C556 C555 1.392 . S
C556 C557 1.361 . S
C556 C558 1.500 . S
C557 C552 1.390 . S
C557 C556 1.361 . S
C557 H575 0.931 . S
C558 C556 1.500 . S
C558 C559 1.371 . S
C558 C560 1.365 . S
C559 C558 1.371 . S
C559 C569 1.386 . S
C559 H577 0.931 . S
C560 C558 1.365 . S
C560 C561 1.409 . S
C560 H578 0.929 . S
C561 C560 1.409 . S
C561 C562 1.380 . S
C561 H579 0.930 . S
C562 C561 1.380 . S
C562 C569 1.357 . S
C563 C554 1.511 . S
C563 C564 1.341 . S
C563 C565 1.371 . S
C564 C563 1.341 . S
C564 C568 1.394 . S
C564 H580 0.930 . S
C565 C563 1.371 . S
C565 C566 1.392 . S
C565 H581 0.931 . S
C566 C565 1.392 . S
C566 C567 1.331 . S
C566 H584 0.932 . S
C567 C566 1.331 . S
C567 C568 1.336 . S
C568 C564 1.394 . S
C568 C567 1.336 . S
C568 H583 0.929 . S
C569 C559 1.386 . S
C569 C562 1.357 . S
C569 H582 0.928 . S
H570 C546 0.931 . S
H571 C548 0.930 . S
H572 C550 0.929 . S
H573 C551 0.931 . S
H574 C553 0.930 . S
H575 C557 0.931 . S
H576 C555 0.931 . S
H577 C559 0.931 . S
H578 C560 0.929 . S
H579 C561 0.930 . S
H580 C564 0.930 . S
H581 C565 0.931 . S
H582 C569 0.928 . S
H583 C568 0.929 . S
H584 C566 0.932 . S
C585 C586 1.386 . S
C585 C587 1.397 . S
C585 H609 0.931 . S
C586 C585 1.386 . S
C586 C590 1.397 . S
C587 C585 1.397 . S
C587 C588 1.384 . S
C587 H610 0.930 . S
C588 C587 1.384 . S
C588 C589 1.377 . S
C588 C591 1.481 . S
C589 C588 1.377 . S
C589 C590 1.389 . S
C589 H611 0.929 . S
C590 C586 1.397 . S
C590 C589 1.389 . S
C590 H612 0.931 . S
C591 C588 1.481 . S
C591 C592 1.387 . S
C591 C596 1.390 . S
C592 C591 1.387 . S
C592 C593 1.401 . S
C592 H613 0.930 . S
C593 C592 1.401 . S
C593 C594 1.376 . S
C593 C602 1.511 . S
C594 C593 1.376 . S
C594 C595 1.392 . S
C594 H615 0.931 . S
C595 C594 1.392 . S
C595 C596 1.361 . S
C595 C597 1.500 . S
C596 C591 1.390 . S
C596 C595 1.361 . S
C596 H614 0.931 . S
C597 C595 1.500 . S
C597 C598 1.371 . S
C597 C599 1.365 . S
C598 C597 1.371 . S
C598 C608 1.386 . S
C598 H616 0.931 . S
C599 C597 1.365 . S
C599 C600 1.409 . S
C599 H617 0.929 . S
C600 C599 1.409 . S
C600 C601 1.380 . S
C600 H618 0.930 . S
C601 C600 1.380 . S
C601 C608 1.357 . S
C602 C593 1.511 . S
C602 C603 1.341 . S
C602 C604 1.371 . S
C603 C602 1.341 . S
C603 C607 1.394 . S
C603 H619 0.930 . S
C604 C602 1.371 . S
C604 C605 1.392 . S
C604 H620 0.931 . S
C605 C604 1.392 . S
C605 C606 1.331 . S
C605 H623 0.932 . S
C606 C605 1.331 . S
C606 C607 1.336 . S
C607 C603 1.394 . S
C607 C606 1.336 . S
C607 H622 0.929 . S
C608 C598 1.386 . S
C608 C601 1.357 . S
C608 H621 0.928 . S
H609 C585 0.931 . S
H610 C587 0.930 . S
H611 C589 0.929 . S
H612 C590 0.931 . S
H613 C592 0.930 . S
H614 C596 0.931 . S
H615 C594 0.931 . S
H616 C598 0.931 . S
H617 C599 0.929 . S
H618 C600 0.930 . S
H619 C603 0.930 . S
H620 C604 0.931 . S
H621 C608 0.928 . S
H622 C607 0.929 . S
H623 C605 0.932 . S
C624 C625 1.386 . S
C624 C626 1.397 . S
C624 H648 0.931 . S
C625 C624 1.386 . S
C625 C629 1.397 . S
C626 C624 1.397 . S
C626 C627 1.384 . S
C626 H649 0.930 . S
C627 C626 1.384 . S
C627 C628 1.377 . S
C627 C630 1.481 . S
C628 C627 1.377 . S
C628 C629 1.389 . S
C628 H650 0.929 . S
C629 C625 1.397 . S
C629 C628 1.389 . S
C629 H651 0.931 . S
C630 C627 1.481 . S
C630 C631 1.387 . S
C630 C635 1.390 . S
C631 C630 1.387 . S
C631 C632 1.401 . S
C631 H652 0.930 . S
C632 C631 1.401 . S
C632 C633 1.376 . S
C632 C641 1.511 . S
C633 C632 1.376 . S
C633 C634 1.392 . S
C633 H654 0.931 . S
C634 C633 1.392 . S
C634 C635 1.361 . S
C634 C636 1.500 . S
C635 C630 1.390 . S
C635 C634 1.361 . S
C635 H653 0.931 . S
C636 C634 1.500 . S
C636 C637 1.371 . S
C636 C638 1.365 . S
C637 C636 1.371 . S
C637 C647 1.386 . S
C637 H655 0.931 . S
C638 C636 1.365 . S
C638 C639 1.409 . S
C638 H656 0.929 . S
C639 C638 1.409 . S
C639 C640 1.380 . S
C639 H657 0.930 . S
C640 C639 1.380 . S
C640 C647 1.357 . S
C641 C632 1.511 . S
C641 C642 1.341 . S
C641 C643 1.371 . S
C642 C641 1.341 . S
C642 C646 1.394 . S
C642 H658 0.930 . S
C643 C641 1.371 . S
C643 C644 1.392 . S
C643 H659 0.931 . S
C644 C643 1.392 . S
C644 C645 1.331 . S
C644 H662 0.932 . S
C645 C644 1.331 . S
C645 C646 1.336 . S
C646 C642 1.394 . S
C646 C645 1.336 . S
C646 H661 0.929 . S
C647 C637 1.386 . S
C647 C640 1.357 . S
C647 H660 0.928 . S
H648 C624 0.931 . S
H649 C626 0.930 . S
H650 C628 0.929 . S
H651 C629 0.931 . S
H652 C631 0.930 . S
H653 C635 0.931 . S
H654 C633 0.931 . S
H655 C637 0.931 . S
H656 C638 0.929 . S
H657 C639 0.930 . S
H658 C642 0.930 . S
H659 C643 0.931 . S
H660 C647 0.928 . S
H661 C646 0.929 . S
H662 C644 0.932 . S
C663 C664 1.386 . S
C663 C665 1.397 . S
C663 H687 0.931 . S
C664 C663 1.386 . S
C664 C668 1.397 . S
C665 C663 1.397 . S
C665 C666 1.384 . S
C665 H688 0.930 . S
C666 C665 1.384 . S
C666 C667 1.377 . S
C666 C669 1.481 . S
C667 C666 1.377 . S
C667 C668 1.389 . S
C667 H689 0.929 . S
C668 C664 1.397 . S
C668 C667 1.389 . S
C668 H690 0.931 . S
C669 C666 1.481 . S
C669 C670 1.387 . S
C669 C674 1.390 . S
C670 C669 1.387 . S
C670 C671 1.401 . S
C670 H691 0.930 . S
C671 C670 1.401 . S
C671 C672 1.376 . S
C671 C680 1.511 . S
C672 C671 1.376 . S
C672 C673 1.392 . S
C672 H693 0.931 . S
C673 C672 1.392 . S
C673 C674 1.361 . S
C673 C675 1.500 . S
C674 C669 1.390 . S
C674 C673 1.361 . S
C674 H692 0.931 . S
C675 C673 1.500 . S
C675 C676 1.371 . S
C675 C677 1.365 . S
C676 C675 1.371 . S
C676 C686 1.386 . S
C676 H694 0.931 . S
C677 C675 1.365 . S
C677 C678 1.409 . S
C677 H695 0.929 . S
C678 C677 1.409 . S
C678 C679 1.380 . S
C678 H696 0.930 . S
C679 C678 1.380 . S
C679 C686 1.357 . S
C680 C671 1.511 . S
C680 C681 1.341 . S
C680 C682 1.371 . S
C681 C680 1.341 . S
C681 C685 1.394 . S
C681 H697 0.930 . S
C682 C680 1.371 . S
C682 C683 1.392 . S
C682 H698 0.931 . S
C683 C682 1.392 . S
C683 C684 1.331 . S
C683 H701 0.932 . S
C684 C683 1.331 . S
C684 C685 1.336 . S
C685 C681 1.394 . S
C685 C684 1.336 . S
C685 H700 0.929 . S
C686 C676 1.386 . S
C686 C679 1.357 . S
C686 H699 0.928 . S
H687 C663 0.931 . S
H688 C665 0.930 . S
H689 C667 0.929 . S
H690 C668 0.931 . S
H691 C670 0.930 . S
H692 C674 0.931 . S
H693 C672 0.931 . S
H694 C676 0.931 . S
H695 C677 0.929 . S
H696 C678 0.930 . S
H697 C681 0.930 . S
H698 C682 0.931 . S
H699 C686 0.928 . S
H700 C685 0.929 . S
H701 C683 0.932 . S
C702 C703 1.386 . S
C702 C704 1.397 . S
C702 H726 0.931 . S
C703 C702 1.386 . S
C703 C707 1.397 . S
C704 C702 1.397 . S
C704 C705 1.384 . S
C704 H727 0.930 . S
C705 C704 1.384 . S
C705 C706 1.377 . S
C705 C708 1.481 . S
C706 C705 1.377 . S
C706 C707 1.389 . S
C706 H728 0.929 . S
C707 C703 1.397 . S
C707 C706 1.389 . S
C707 H729 0.931 . S
C708 C705 1.481 . S
C708 C709 1.387 . S
C708 C713 1.390 . S
C709 C708 1.387 . S
C709 C710 1.401 . S
C709 H730 0.930 . S
C710 C709 1.401 . S
C710 C711 1.376 . S
C710 C719 1.511 . S
C711 C710 1.376 . S
C711 C712 1.392 . S
C711 H732 0.931 . S
C712 C711 1.392 . S
C712 C713 1.361 . S
C712 C714 1.500 . S
C713 C708 1.390 . S
C713 C712 1.361 . S
C713 H731 0.931 . S
C714 C712 1.500 . S
C714 C715 1.371 . S
C714 C716 1.365 . S
C715 C714 1.371 . S
C715 C725 1.386 . S
C715 H733 0.931 . S
C716 C714 1.365 . S
C716 C717 1.409 . S
C716 H734 0.929 . S
C717 C716 1.409 . S
C717 C718 1.380 . S
C717 H735 0.930 . S
C718 C717 1.380 . S
C718 C725 1.357 . S
C719 C710 1.511 . S
C719 C720 1.341 . S
C719 C721 1.371 . S
C720 C719 1.341 . S
C720 C724 1.394 . S
C720 H736 0.930 . S
C721 C719 1.371 . S
C721 C722 1.392 . S
C721 H737 0.931 . S
C722 C721 1.392 . S
C722 C723 1.331 . S
C722 H740 0.932 . S
C723 C722 1.331 . S
C723 C724 1.336 . S
C724 C720 1.394 . S
C724 C723 1.336 . S
C724 H739 0.929 . S
C725 C715 1.386 . S
C725 C718 1.357 . S
C725 H738 0.928 . S
H726 C702 0.931 . S
H727 C704 0.930 . S
H728 C706 0.929 . S
H729 C707 0.931 . S
H730 C709 0.930 . S
H731 C713 0.931 . S
H732 C711 0.931 . S
H733 C715 0.931 . S
H734 C716 0.929 . S
H735 C717 0.930 . S
H736 C720 0.930 . S
H737 C721 0.931 . S
H738 C725 0.928 . S
H739 C724 0.929 . S
H740 C722 0.932 . S
C741 C742 1.386 . S
C741 C743 1.397 . S
C741 H765 0.931 . S
C742 C741 1.386 . S
C742 C746 1.397 . S
C743 C741 1.397 . S
C743 C744 1.384 . S
C743 H766 0.930 . S
C744 C743 1.384 . S
C744 C745 1.377 . S
C744 C747 1.481 . S
C745 C744 1.377 . S
C745 C746 1.389 . S
C745 H767 0.929 . S
C746 C742 1.397 . S
C746 C745 1.389 . S
C746 H768 0.931 . S
C747 C744 1.481 . S
C747 C748 1.387 . S
C747 C752 1.390 . S
C748 C747 1.387 . S
C748 C749 1.401 . S
C748 H769 0.930 . S
C749 C748 1.401 . S
C749 C750 1.376 . S
C749 C758 1.511 . S
C750 C749 1.376 . S
C750 C751 1.392 . S
C750 H771 0.931 . S
C751 C750 1.392 . S
C751 C752 1.361 . S
C751 C753 1.500 . S
C752 C747 1.390 . S
C752 C751 1.361 . S
C752 H770 0.931 . S
C753 C751 1.500 . S
C753 C754 1.371 . S
C753 C755 1.365 . S
C754 C753 1.371 . S
C754 C764 1.386 . S
C754 H772 0.931 . S
C755 C753 1.365 . S
C755 C756 1.409 . S
C755 H773 0.929 . S
C756 C755 1.409 . S
C756 C757 1.380 . S
C756 H774 0.930 . S
C757 C756 1.380 . S
C757 C764 1.357 . S
C758 C749 1.511 . S
C758 C759 1.341 . S
C758 C760 1.371 . S
C759 C758 1.341 . S
C759 C763 1.394 . S
C759 H775 0.930 . S
C760 C758 1.371 . S
C760 C761 1.392 . S
C760 H776 0.931 . S
C761 C760 1.392 . S
C761 C762 1.331 . S
C761 H779 0.932 . S
C762 C761 1.331 . S
C762 C763 1.336 . S
C763 C759 1.394 . S
C763 C762 1.336 . S
C763 H778 0.929 . S
C764 C754 1.386 . S
C764 C757 1.357 . S
C764 H777 0.928 . S
H765 C741 0.931 . S
H766 C743 0.930 . S
H767 C745 0.929 . S
H768 C746 0.931 . S
H769 C748 0.930 . S
H770 C752 0.931 . S
H771 C750 0.931 . S
H772 C754 0.931 . S
H773 C755 0.929 . S
H774 C756 0.930 . S
H775 C759 0.930 . S
H776 C760 0.931 . S
H777 C764 0.928 . S
H778 C763 0.929 . S
H779 C761 0.932 . S
C780 C781 1.386 . S
C780 C782 1.397 . S
C780 H804 0.931 . S
C781 C780 1.386 . S
C781 C785 1.397 . S
C782 C780 1.397 . S
C782 C783 1.384 . S
C782 H805 0.930 . S
C783 C782 1.384 . S
C783 C784 1.377 . S
C783 C786 1.481 . S
C784 C783 1.377 . S
C784 C785 1.389 . S
C784 H806 0.929 . S
C785 C781 1.397 . S
C785 C784 1.389 . S
C785 H807 0.931 . S
C786 C783 1.481 . S
C786 C787 1.387 . S
C786 C791 1.390 . S
C787 C786 1.387 . S
C787 C788 1.401 . S
C787 H808 0.930 . S
C788 C787 1.401 . S
C788 C789 1.376 . S
C788 C797 1.511 . S
C789 C788 1.376 . S
C789 C790 1.392 . S
C789 H810 0.931 . S
C790 C789 1.392 . S
C790 C791 1.361 . S
C790 C792 1.500 . S
C791 C786 1.390 . S
C791 C790 1.361 . S
C791 H809 0.931 . S
C792 C790 1.500 . S
C792 C793 1.371 . S
C792 C794 1.365 . S
C793 C792 1.371 . S
C793 C803 1.386 . S
C793 H811 0.931 . S
C794 C792 1.365 . S
C794 C795 1.409 . S
C794 H812 0.929 . S
C795 C794 1.409 . S
C795 C796 1.380 . S
C795 H813 0.930 . S
C796 C795 1.380 . S
C796 C803 1.357 . S
C797 C788 1.511 . S
C797 C798 1.341 . S
C797 C799 1.371 . S
C798 C797 1.341 . S
C798 C802 1.394 . S
C798 H814 0.930 . S
C799 C797 1.371 . S
C799 C800 1.392 . S
C799 H815 0.931 . S
C800 C799 1.392 . S
C800 C801 1.331 . S
C800 H818 0.932 . S
C801 C800 1.331 . S
C801 C802 1.336 . S
C802 C798 1.394 . S
C802 C801 1.336 . S
C802 H817 0.929 . S
C803 C793 1.386 . S
C803 C796 1.357 . S
C803 H816 0.928 . S
H804 C780 0.931 . S
H805 C782 0.930 . S
H806 C784 0.929 . S
H807 C785 0.931 . S
H808 C787 0.930 . S
H809 C791 0.931 . S
H810 C789 0.931 . S
H811 C793 0.931 . S
H812 C794 0.929 . S
H813 C795 0.930 . S
H814 C798 0.930 . S
H815 C799 0.931 . S
H816 C803 0.928 . S
H817 C802 0.929 . S
H818 C800 0.932 . S
C819 C820 1.386 . S
C819 C821 1.397 . S
C819 H843 0.931 . S
C820 C819 1.386 . S
C820 C824 1.397 . S
C821 C819 1.397 . S
C821 C822 1.384 . S
C821 H844 0.930 . S
C822 C821 1.384 . S
C822 C823 1.377 . S
C822 C825 1.481 . S
C823 C822 1.377 . S
C823 C824 1.389 . S
C823 H845 0.929 . S
C824 C820 1.397 . S
C824 C823 1.389 . S
C824 H846 0.931 . S
C825 C822 1.481 . S
C825 C826 1.387 . S
C825 C830 1.390 . S
C826 C825 1.387 . S
C826 C827 1.401 . S
C826 H847 0.930 . S
C827 C826 1.401 . S
C827 C828 1.376 . S
C827 C836 1.511 . S
C828 C827 1.376 . S
C828 C829 1.392 . S
C828 H849 0.931 . S
C829 C828 1.392 . S
C829 C830 1.361 . S
C829 C831 1.500 . S
C830 C825 1.390 . S
C830 C829 1.361 . S
C830 H848 0.931 . S
C831 C829 1.500 . S
C831 C832 1.371 . S
C831 C833 1.365 . S
C832 C831 1.371 . S
C832 C842 1.386 . S
C832 H850 0.931 . S
C833 C831 1.365 . S
C833 C834 1.409 . S
C833 H851 0.929 . S
C834 C833 1.409 . S
C834 C835 1.380 . S
C834 H852 0.930 . S
C835 C834 1.380 . S
C835 C842 1.357 . S
C836 C827 1.511 . S
C836 C837 1.341 . S
C836 C838 1.371 . S
C837 C836 1.341 . S
C837 C841 1.394 . S
C837 H853 0.930 . S
C838 C836 1.371 . S
C838 C839 1.392 . S
C838 H854 0.931 . S
C839 C838 1.392 . S
C839 C840 1.331 . S
C839 H857 0.932 . S
C840 C839 1.331 . S
C840 C841 1.336 . S
C841 C837 1.394 . S
C841 C840 1.336 . S
C841 H856 0.929 . S
C842 C832 1.386 . S
C842 C835 1.357 . S
C842 H855 0.928 . S
H843 C819 0.931 . S
H844 C821 0.930 . S
H845 C823 0.929 . S
H846 C824 0.931 . S
H847 C826 0.930 . S
H848 C830 0.931 . S
H849 C828 0.931 . S
H850 C832 0.931 . S
H851 C833 0.929 . S
H852 C834 0.930 . S
H853 C837 0.930 . S
H854 C838 0.931 . S
H855 C842 0.928 . S
H856 C841 0.929 . S
H857 C839 0.932 . S
C858 C859 1.386 . S
C858 C860 1.397 . S
C858 H882 0.931 . S
C859 C858 1.386 . S
C859 C863 1.397 . S
C860 C858 1.397 . S
C860 C861 1.384 . S
C860 H883 0.930 . S
C861 C860 1.384 . S
C861 C862 1.377 . S
C861 C864 1.481 . S
C862 C861 1.377 . S
C862 C863 1.389 . S
C862 H884 0.929 . S
C863 C859 1.397 . S
C863 C862 1.389 . S
C863 H885 0.931 . S
C864 C861 1.481 . S
C864 C865 1.387 . S
C864 C869 1.390 . S
C865 C864 1.387 . S
C865 C866 1.401 . S
C865 H886 0.930 . S
C866 C865 1.401 . S
C866 C867 1.376 . S
C866 C875 1.511 . S
C867 C866 1.376 . S
C867 C868 1.392 . S
C867 H888 0.931 . S
C868 C867 1.392 . S
C868 C869 1.361 . S
C868 C870 1.500 . S
C869 C864 1.390 . S
C869 C868 1.361 . S
C869 H887 0.931 . S
C870 C868 1.500 . S
C870 C871 1.371 . S
C870 C872 1.365 . S
C871 C870 1.371 . S
C871 C881 1.386 . S
C871 H889 0.931 . S
C872 C870 1.365 . S
C872 C873 1.409 . S
C872 H890 0.929 . S
C873 C872 1.409 . S
C873 C874 1.380 . S
C873 H891 0.930 . S
C874 C873 1.380 . S
C874 C881 1.357 . S
C875 C866 1.511 . S
C875 C876 1.341 . S
C875 C877 1.371 . S
C876 C875 1.341 . S
C876 C880 1.394 . S
C876 H892 0.930 . S
C877 C875 1.371 . S
C877 C878 1.392 . S
C877 H893 0.931 . S
C878 C877 1.392 . S
C878 C879 1.331 . S
C878 H896 0.932 . S
C879 C878 1.331 . S
C879 C880 1.336 . S
C880 C876 1.394 . S
C880 C879 1.336 . S
C880 H895 0.929 . S
C881 C871 1.386 . S
C881 C874 1.357 . S
C881 H894 0.928 . S
H882 C858 0.931 . S
H883 C860 0.930 . S
H884 C862 0.929 . S
H885 C863 0.931 . S
H886 C865 0.930 . S
H887 C869 0.931 . S
H888 C867 0.931 . S
H889 C871 0.931 . S
H890 C872 0.929 . S
H891 C873 0.930 . S
H892 C876 0.930 . S
H893 C877 0.931 . S
H894 C881 0.928 . S
H895 C880 0.929 . S
H896 C878 0.932 . S
C897 C898 1.386 . S
C897 C899 1.397 . S
C897 H921 0.931 . S
C898 C897 1.386 . S
C898 C902 1.397 . S
C899 C897 1.397 . S
C899 C900 1.384 . S
C899 H922 0.930 . S
C900 C899 1.384 . S
C900 C901 1.377 . S
C900 C903 1.481 . S
C901 C900 1.377 . S
C901 C902 1.389 . S
C901 H923 0.929 . S
C902 C898 1.397 . S
C902 C901 1.389 . S
C902 H924 0.931 . S
C903 C900 1.481 . S
C903 C904 1.387 . S
C903 C908 1.390 . S
C904 C903 1.387 . S
C904 C905 1.401 . S
C904 H925 0.930 . S
C905 C904 1.401 . S
C905 C906 1.376 . S
C905 C914 1.511 . S
C906 C905 1.376 . S
C906 C907 1.392 . S
C906 H927 0.931 . S
C907 C906 1.392 . S
C907 C908 1.361 . S
C907 C909 1.500 . S
C908 C903 1.390 . S
C908 C907 1.361 . S
C908 H926 0.931 . S
C909 C907 1.500 . S
C909 C910 1.371 . S
C909 C911 1.365 . S
C910 C909 1.371 . S
C910 C920 1.386 . S
C910 H928 0.931 . S
C911 C909 1.365 . S
C911 C912 1.409 . S
C911 H929 0.929 . S
C912 C911 1.409 . S
C912 C913 1.380 . S
C912 H930 0.930 . S
C913 C912 1.380 . S
C913 C920 1.357 . S
C914 C905 1.511 . S
C914 C915 1.341 . S
C914 C916 1.371 . S
C915 C914 1.341 . S
C915 C919 1.394 . S
C915 H931 0.930 . S
C916 C914 1.371 . S
C916 C917 1.392 . S
C916 H932 0.931 . S
C917 C916 1.392 . S
C917 C918 1.331 . S
C917 H935 0.932 . S
C918 C917 1.331 . S
C918 C919 1.336 . S
C919 C915 1.394 . S
C919 C918 1.336 . S
C919 H934 0.929 . S
C920 C910 1.386 . S
C920 C913 1.357 . S
C920 H933 0.928 . S
H921 C897 0.931 . S
H922 C899 0.930 . S
H923 C901 0.929 . S
H924 C902 0.931 . S
H925 C904 0.930 . S
H926 C908 0.931 . S
H927 C906 0.931 . S
H928 C910 0.931 . S
H929 C911 0.929 . S
H930 C912 0.930 . S
H931 C915 0.930 . S
H932 C916 0.931 . S
H933 C920 0.928 . S
H934 C919 0.929 . S
H935 C917 0.932 . S
C936 C937 1.386 . S
C936 C938 1.397 . S
C936 H960 0.931 . S
C937 C936 1.386 . S
C937 C941 1.397 . S
C938 C936 1.397 . S
C938 C939 1.384 . S
C938 H961 0.930 . S
C939 C938 1.384 . S
C939 C940 1.377 . S
C939 C942 1.481 . S
C940 C939 1.377 . S
C940 C941 1.389 . S
C940 H962 0.929 . S
C941 C937 1.397 . S
C941 C940 1.389 . S
C941 H963 0.931 . S
C942 C939 1.481 . S
C942 C943 1.387 . S
C942 C947 1.390 . S
C943 C942 1.387 . S
C943 C944 1.401 . S
C943 H964 0.930 . S
C944 C943 1.401 . S
C944 C945 1.376 . S
C944 C953 1.511 . S
C945 C944 1.376 . S
C945 C946 1.392 . S
C945 H966 0.931 . S
C946 C945 1.392 . S
C946 C947 1.361 . S
C946 C948 1.500 . S
C947 C942 1.390 . S
C947 C946 1.361 . S
C947 H965 0.931 . S
C948 C946 1.500 . S
C948 C949 1.371 . S
C948 C950 1.365 . S
C949 C948 1.371 . S
C949 C959 1.386 . S
C949 H967 0.931 . S
C950 C948 1.365 . S
C950 C951 1.409 . S
C950 H968 0.929 . S
C951 C950 1.409 . S
C951 C952 1.380 . S
C951 H969 0.930 . S
C952 C951 1.380 . S
C952 C959 1.357 . S
C953 C944 1.511 . S
C953 C954 1.341 . S
C953 C955 1.371 . S
C954 C953 1.341 . S
C954 C958 1.394 . S
C954 H970 0.930 . S
C955 C953 1.371 . S
C955 C956 1.392 . S
C955 H971 0.931 . S
C956 C955 1.392 . S
C956 C957 1.331 . S
C956 H974 0.932 . S
C957 C956 1.331 . S
C957 C958 1.336 . S
C958 C954 1.394 . S
C958 C957 1.336 . S
C958 H973 0.929 . S
C959 C949 1.386 . S
C959 C952 1.357 . S
C959 H972 0.928 . S
H960 C936 0.931 . S
H961 C938 0.930 . S
H962 C940 0.929 . S
H963 C941 0.931 . S
H964 C943 0.930 . S
H965 C947 0.931 . S
H966 C945 0.931 . S
H967 C949 0.931 . S
H968 C950 0.929 . S
H969 C951 0.930 . S
H970 C954 0.930 . S
H971 C955 0.931 . S
H972 C959 0.928 . S
H973 C958 0.929 . S
H974 C956 0.932 . S
C975 C976 1.386 . S
C975 C977 1.397 . S
C975 H999 0.931 . S
C976 C975 1.386 . S
C976 C980 1.397 . S
C977 C975 1.397 . S
C977 C978 1.384 . S
C977 H1000 0.930 . S
C978 C977 1.384 . S
C978 C979 1.377 . S
C978 C981 1.481 . S
C979 C978 1.377 . S
C979 C980 1.389 . S
C979 H1001 0.929 . S
C980 C976 1.397 . S
C980 C979 1.389 . S
C980 H1002 0.931 . S
C981 C978 1.481 . S
C981 C982 1.387 . S
C981 C986 1.390 . S
C982 C981 1.387 . S
C982 C983 1.401 . S
C982 H1003 0.930 . S
C983 C982 1.401 . S
C983 C984 1.376 . S
C983 C992 1.511 . S
C984 C983 1.376 . S
C984 C985 1.392 . S
C984 H1005 0.931 . S
C985 C984 1.392 . S
C985 C986 1.361 . S
C985 C987 1.500 . S
C986 C981 1.390 . S
C986 C985 1.361 . S
C986 H1004 0.931 . S
C987 C985 1.500 . S
C987 C988 1.371 . S
C987 C989 1.365 . S
C988 C987 1.371 . S
C988 C998 1.386 . S
C988 H1006 0.931 . S
C989 C987 1.365 . S
C989 C990 1.409 . S
C989 H1007 0.929 . S
C990 C989 1.409 . S
C990 C991 1.380 . S
C990 H1008 0.930 . S
C991 C990 1.380 . S
C991 C998 1.357 . S
C992 C983 1.511 . S
C992 C993 1.341 . S
C992 C994 1.371 . S
C993 C992 1.341 . S
C993 C997 1.394 . S
C993 H1009 0.930 . S
C994 C992 1.371 . S
C994 C995 1.392 . S
C994 H1010 0.931 . S
C995 C994 1.392 . S
C995 C996 1.331 . S
C995 H1013 0.932 . S
C996 C995 1.331 . S
C996 C997 1.336 . S
C997 C993 1.394 . S
C997 C996 1.336 . S
C997 H1012 0.929 . S
C998 C988 1.386 . S
C998 C991 1.357 . S
C998 H1011 0.928 . S
H999 C975 0.931 . S
H1000 C977 0.930 . S
H1001 C979 0.929 . S
H1002 C980 0.931 . S
H1003 C982 0.930 . S
H1004 C986 0.931 . S
H1005 C984 0.931 . S
H1006 C988 0.931 . S
H1007 C989 0.929 . S
H1008 C990 0.930 . S
H1009 C993 0.930 . S
H1010 C994 0.931 . S
H1011 C998 0.928 . S
H1012 C997 0.929 . S
H1013 C995 0.932 . S
C1014 C1015 1.386 . S
C1014 C1016 1.397 . S
C1014 H1038 0.931 . S
C1015 C1014 1.386 . S
C1015 C1019 1.397 . S
C1016 C1014 1.397 . S
C1016 C1017 1.384 . S
C1016 H1039 0.930 . S
C1017 C1016 1.384 . S
C1017 C1018 1.377 . S
C1017 C1020 1.481 . S
C1018 C1017 1.377 . S
C1018 C1019 1.389 . S
C1018 H1040 0.929 . S
C1019 C1015 1.397 . S
C1019 C1018 1.389 . S
C1019 H1041 0.931 . S
C1020 C1017 1.481 . S
C1020 C1021 1.387 . S
C1020 C1025 1.390 . S
C1021 C1020 1.387 . S
C1021 C1022 1.401 . S
C1021 H1042 0.930 . S
C1022 C1021 1.401 . S
C1022 C1023 1.376 . S
C1022 C1031 1.511 . S
C1023 C1022 1.376 . S
C1023 C1024 1.392 . S
C1023 H1044 0.931 . S
C1024 C1023 1.392 . S
C1024 C1025 1.361 . S
C1024 C1026 1.500 . S
C1025 C1020 1.390 . S
C1025 C1024 1.361 . S
C1025 H1043 0.931 . S
C1026 C1024 1.500 . S
C1026 C1027 1.371 . S
C1026 C1028 1.365 . S
C1027 C1026 1.371 . S
C1027 C1037 1.386 . S
C1027 H1045 0.931 . S
C1028 C1026 1.365 . S
C1028 C1029 1.409 . S
C1028 H1046 0.929 . S
C1029 C1028 1.409 . S
C1029 C1030 1.380 . S
C1029 H1047 0.930 . S
C1030 C1029 1.380 . S
C1030 C1037 1.357 . S
C1031 C1022 1.511 . S
C1031 C1032 1.341 . S
C1031 C1033 1.371 . S
C1032 C1031 1.341 . S
C1032 C1036 1.394 . S
C1032 H1048 0.930 . S
C1033 C1031 1.371 . S
C1033 C1034 1.392 . S
C1033 H1049 0.931 . S
C1034 C1033 1.392 . S
C1034 C1035 1.331 . S
C1034 H1052 0.932 . S
C1035 C1034 1.331 . S
C1035 C1036 1.336 . S
C1036 C1032 1.394 . S
C1036 C1035 1.336 . S
C1036 H1051 0.929 . S
C1037 C1027 1.386 . S
C1037 C1030 1.357 . S
C1037 H1050 0.928 . S
H1038 C1014 0.931 . S
H1039 C1016 0.930 . S
H1040 C1018 0.929 . S
H1041 C1019 0.931 . S
H1042 C1021 0.930 . S
H1043 C1025 0.931 . S
H1044 C1023 0.931 . S
H1045 C1027 0.931 . S
H1046 C1028 0.929 . S
H1047 C1029 0.930 . S
H1048 C1032 0.930 . S
H1049 C1033 0.931 . S
H1050 C1037 0.928 . S
H1051 C1036 0.929 . S
H1052 C1034 0.932 . S
C1053 C1054 1.386 . S
C1053 C1055 1.397 . S
C1053 H1077 0.931 . S
C1054 C1053 1.386 . S
C1054 C1058 1.397 . S
C1055 C1053 1.397 . S
C1055 C1056 1.384 . S
C1055 H1078 0.930 . S
C1056 C1055 1.384 . S
C1056 C1057 1.377 . S
C1056 C1059 1.481 . S
C1057 C1056 1.377 . S
C1057 C1058 1.389 . S
C1057 H1079 0.929 . S
C1058 C1054 1.397 . S
C1058 C1057 1.389 . S
C1058 H1080 0.931 . S
C1059 C1056 1.481 . S
C1059 C1060 1.387 . S
C1059 C1064 1.390 . S
C1060 C1059 1.387 . S
C1060 C1061 1.401 . S
C1060 H1081 0.930 . S
C1061 C1060 1.401 . S
C1061 C1062 1.376 . S
C1061 C1070 1.511 . S
C1062 C1061 1.376 . S
C1062 C1063 1.392 . S
C1062 H1083 0.931 . S
C1063 C1062 1.392 . S
C1063 C1064 1.361 . S
C1063 C1065 1.500 . S
C1064 C1059 1.390 . S
C1064 C1063 1.361 . S
C1064 H1082 0.931 . S
C1065 C1063 1.500 . S
C1065 C1066 1.371 . S
C1065 C1067 1.365 . S
C1066 C1065 1.371 . S
C1066 C1076 1.386 . S
C1066 H1084 0.931 . S
C1067 C1065 1.365 . S
C1067 C1068 1.409 . S
C1067 H1085 0.929 . S
C1068 C1067 1.409 . S
C1068 C1069 1.380 . S
C1068 H1086 0.930 . S
C1069 C1068 1.380 . S
C1069 C1076 1.357 . S
C1070 C1061 1.511 . S
C1070 C1071 1.341 . S
C1070 C1072 1.371 . S
C1071 C1070 1.341 . S
C1071 C1075 1.394 . S
C1071 H1087 0.930 . S
C1072 C1070 1.371 . S
C1072 C1073 1.392 . S
C1072 H1088 0.931 . S
C1073 C1072 1.392 . S
C1073 C1074 1.331 . S
C1073 H1091 0.932 . S
C1074 C1073 1.331 . S
C1074 C1075 1.336 . S
C1075 C1071 1.394 . S
C1075 C1074 1.336 . S
C1075 H1090 0.929 . S
C1076 C1066 1.386 . S
C1076 C1069 1.357 . S
C1076 H1089 0.928 . S
H1077 C1053 0.931 . S
H1078 C1055 0.930 . S
H1079 C1057 0.929 . S
H1080 C1058 0.931 . S
H1081 C1060 0.930 . S
H1082 C1064 0.931 . S
H1083 C1062 0.931 . S
H1084 C1066 0.931 . S
H1085 C1067 0.929 . S
H1086 C1068 0.930 . S
H1087 C1071 0.930 . S
H1088 C1072 0.931 . S
H1089 C1076 0.928 . S
H1090 C1075 0.929 . S
H1091 C1073 0.932 . S
C1092 C1093 1.386 . S
C1092 C1094 1.397 . S
C1092 H1116 0.931 . S
C1093 C1092 1.386 . S
C1093 C1097 1.397 . S
C1094 C1092 1.397 . S
C1094 C1095 1.384 . S
C1094 H1117 0.930 . S
C1095 C1094 1.384 . S
C1095 C1096 1.377 . S
C1095 C1098 1.481 . S
C1096 C1095 1.377 . S
C1096 C1097 1.389 . S
C1096 H1118 0.929 . S
C1097 C1093 1.397 . S
C1097 C1096 1.389 . S
C1097 H1119 0.931 . S
C1098 C1095 1.481 . S
C1098 C1099 1.387 . S
C1098 C1103 1.390 . S
C1099 C1098 1.387 . S
C1099 C1100 1.401 . S
C1099 H1120 0.930 . S
C1100 C1099 1.401 . S
C1100 C1101 1.376 . S
C1100 C1109 1.511 . S
C1101 C1100 1.376 . S
C1101 C1102 1.392 . S
C1101 H1122 0.931 . S
C1102 C1101 1.392 . S
C1102 C1103 1.361 . S
C1102 C1104 1.500 . S
C1103 C1098 1.390 . S
C1103 C1102 1.361 . S
C1103 H1121 0.931 . S
C1104 C1102 1.500 . S
C1104 C1105 1.371 . S
C1104 C1106 1.365 . S
C1105 C1104 1.371 . S
C1105 C1115 1.386 . S
C1105 H1123 0.931 . S
C1106 C1104 1.365 . S
C1106 C1107 1.409 . S
C1106 H1124 0.929 . S
C1107 C1106 1.409 . S
C1107 C1108 1.380 . S
C1107 H1125 0.930 . S
C1108 C1107 1.380 . S
C1108 C1115 1.357 . S
C1109 C1100 1.511 . S
C1109 C1110 1.341 . S
C1109 C1111 1.371 . S
C1110 C1109 1.341 . S
C1110 C1114 1.394 . S
C1110 H1126 0.930 . S
C1111 C1109 1.371 . S
C1111 C1112 1.392 . S
C1111 H1127 0.931 . S
C1112 C1111 1.392 . S
C1112 C1113 1.331 . S
C1112 H1130 0.932 . S
C1113 C1112 1.331 . S
C1113 C1114 1.336 . S
C1114 C1110 1.394 . S
C1114 C1113 1.336 . S
C1114 H1129 0.929 . S
C1115 C1105 1.386 . S
C1115 C1108 1.357 . S
C1115 H1128 0.928 . S
H1116 C1092 0.931 . S
H1117 C1094 0.930 . S
H1118 C1096 0.929 . S
H1119 C1097 0.931 . S
H1120 C1099 0.930 . S
H1121 C1103 0.931 . S
H1122 C1101 0.931 . S
H1123 C1105 0.931 . S
H1124 C1106 0.929 . S
H1125 C1107 0.930 . S
H1126 C1110 0.930 . S
H1127 C1111 0.931 . S
H1128 C1115 0.928 . S
H1129 C1114 0.929 . S
H1130 C1112 0.932 . S
C1131 C1132 1.386 . S
C1131 C1133 1.397 . S
C1131 H1155 0.931 . S
C1132 C1131 1.386 . S
C1132 C1136 1.397 . S
C1133 C1131 1.397 . S
C1133 C1134 1.384 . S
C1133 H1156 0.930 . S
C1134 C1133 1.384 . S
C1134 C1135 1.377 . S
C1134 C1137 1.481 . S
C1135 C1134 1.377 . S
C1135 C1136 1.389 . S
C1135 H1157 0.929 . S
C1136 C1132 1.397 . S
C1136 C1135 1.389 . S
C1136 H1158 0.931 . S
C1137 C1134 1.481 . S
C1137 C1138 1.387 . S
C1137 C1142 1.390 . S
C1138 C1137 1.387 . S
C1138 C1139 1.401 . S
C1138 H1159 0.930 . S
C1139 C1138 1.401 . S
C1139 C1140 1.376 . S
C1139 C1148 1.511 . S
C1140 C1139 1.376 . S
C1140 C1141 1.392 . S
C1140 H1161 0.931 . S
C1141 C1140 1.392 . S
C1141 C1142 1.361 . S
C1141 C1143 1.500 . S
C1142 C1137 1.390 . S
C1142 C1141 1.361 . S
C1142 H1160 0.931 . S
C1143 C1141 1.500 . S
C1143 C1144 1.371 . S
C1143 C1145 1.365 . S
C1144 C1143 1.371 . S
C1144 C1154 1.386 . S
C1144 H1162 0.931 . S
C1145 C1143 1.365 . S
C1145 C1146 1.409 . S
C1145 H1163 0.929 . S
C1146 C1145 1.409 . S
C1146 C1147 1.380 . S
C1146 H1164 0.930 . S
C1147 C1146 1.380 . S
C1147 C1154 1.357 . S
C1148 C1139 1.511 . S
C1148 C1149 1.341 . S
C1148 C1150 1.371 . S
C1149 C1148 1.341 . S
C1149 C1153 1.394 . S
C1149 H1165 0.930 . S
C1150 C1148 1.371 . S
C1150 C1151 1.392 . S
C1150 H1166 0.931 . S
C1151 C1150 1.392 . S
C1151 C1152 1.331 . S
C1151 H1169 0.932 . S
C1152 C1151 1.331 . S
C1152 C1153 1.336 . S
C1153 C1149 1.394 . S
C1153 C1152 1.336 . S
C1153 H1168 0.929 . S
C1154 C1144 1.386 . S
C1154 C1147 1.357 . S
C1154 H1167 0.928 . S
H1155 C1131 0.931 . S
H1156 C1133 0.930 . S
H1157 C1135 0.929 . S
H1158 C1136 0.931 . S
H1159 C1138 0.930 . S
H1160 C1142 0.931 . S
H1161 C1140 0.931 . S
H1162 C1144 0.931 . S
H1163 C1145 0.929 . S
H1164 C1146 0.930 . S
H1165 C1149 0.930 . S
H1166 C1150 0.931 . S
H1167 C1154 0.928 . S
H1168 C1153 0.929 . S
H1169 C1151 0.932 . S
C1170 C1171 1.386 . S
C1170 C1172 1.397 . S
C1170 H1194 0.931 . S
C1171 C1170 1.386 . S
C1171 C1175 1.397 . S
C1172 C1170 1.397 . S
C1172 C1173 1.384 . S
C1172 H1195 0.930 . S
C1173 C1172 1.384 . S
C1173 C1174 1.377 . S
C1173 C1176 1.481 . S
C1174 C1173 1.377 . S
C1174 C1175 1.389 . S
C1174 H1196 0.929 . S
C1175 C1171 1.397 . S
C1175 C1174 1.389 . S
C1175 H1197 0.931 . S
C1176 C1173 1.481 . S
C1176 C1177 1.387 . S
C1176 C1181 1.390 . S
C1177 C1176 1.387 . S
C1177 C1178 1.401 . S
C1177 H1198 0.930 . S
C1178 C1177 1.401 . S
C1178 C1179 1.376 . S
C1178 C1187 1.511 . S
C1179 C1178 1.376 . S
C1179 C1180 1.392 . S
C1179 H1200 0.931 . S
C1180 C1179 1.392 . S
C1180 C1181 1.361 . S
C1180 C1182 1.500 . S
C1181 C1176 1.390 . S
C1181 C1180 1.361 . S
C1181 H1199 0.931 . S
C1182 C1180 1.500 . S
C1182 C1183 1.371 . S
C1182 C1184 1.365 . S
C1183 C1182 1.371 . S
C1183 C1193 1.386 . S
C1183 H1201 0.931 . S
C1184 C1182 1.365 . S
C1184 C1185 1.409 . S
C1184 H1202 0.929 . S
C1185 C1184 1.409 . S
C1185 C1186 1.380 . S
C1185 H1203 0.930 . S
C1186 C1185 1.380 . S
C1186 C1193 1.357 . S
C1187 C1178 1.511 . S
C1187 C1188 1.341 . S
C1187 C1189 1.371 . S
C1188 C1187 1.341 . S
C1188 C1192 1.394 . S
C1188 H1204 0.930 . S
C1189 C1187 1.371 . S
C1189 C1190 1.392 . S
C1189 H1205 0.931 . S
C1190 C1189 1.392 . S
C1190 C1191 1.331 . S
C1190 H1208 0.932 . S
C1191 C1190 1.331 . S
C1191 C1192 1.336 . S
C1192 C1188 1.394 . S
C1192 C1191 1.336 . S
C1192 H1207 0.929 . S
C1193 C1183 1.386 . S
C1193 C1186 1.357 . S
C1193 H1206 0.928 . S
H1194 C1170 0.931 . S
H1195 C1172 0.930 . S
H1196 C1174 0.929 . S
H1197 C1175 0.931 . S
H1198 C1177 0.930 . S
H1199 C1181 0.931 . S
H1200 C1179 0.931 . S
H1201 C1183 0.931 . S
H1202 C1184 0.929 . S
H1203 C1185 0.930 . S
H1204 C1188 0.930 . S
H1205 C1189 0.931 . S
H1206 C1193 0.928 . S
H1207 C1192 0.929 . S
H1208 C1190 0.932 . S
C1209 C1210 1.386 . S
C1209 C1211 1.397 . S
C1209 H1233 0.931 . S
C1210 C1209 1.386 . S
C1210 C1214 1.397 . S
C1211 C1209 1.397 . S
C1211 C1212 1.384 . S
C1211 H1234 0.930 . S
C1212 C1211 1.384 . S
C1212 C1213 1.377 . S
C1212 C1215 1.481 . S
C1213 C1212 1.377 . S
C1213 C1214 1.389 . S
C1213 H1235 0.929 . S
C1214 C1210 1.397 . S
C1214 C1213 1.389 . S
C1214 H1236 0.931 . S
C1215 C1212 1.481 . S
C1215 C1216 1.387 . S
C1215 C1220 1.390 . S
C1216 C1215 1.387 . S
C1216 C1217 1.401 . S
C1216 H1237 0.930 . S
C1217 C1216 1.401 . S
C1217 C1218 1.376 . S
C1217 C1226 1.511 . S
C1218 C1217 1.376 . S
C1218 C1219 1.392 . S
C1218 H1239 0.931 . S
C1219 C1218 1.392 . S
C1219 C1220 1.361 . S
C1219 C1221 1.500 . S
C1220 C1215 1.390 . S
C1220 C1219 1.361 . S
C1220 H1238 0.931 . S
C1221 C1219 1.500 . S
C1221 C1222 1.371 . S
C1221 C1223 1.365 . S
C1222 C1221 1.371 . S
C1222 C1232 1.386 . S
C1222 H1240 0.931 . S
C1223 C1221 1.365 . S
C1223 C1224 1.409 . S
C1223 H1241 0.929 . S
C1224 C1223 1.409 . S
C1224 C1225 1.380 . S
C1224 H1242 0.930 . S
C1225 C1224 1.380 . S
C1225 C1232 1.357 . S
C1226 C1217 1.511 . S
C1226 C1227 1.341 . S
C1226 C1228 1.371 . S
C1227 C1226 1.341 . S
C1227 C1231 1.394 . S
C1227 H1243 0.930 . S
C1228 C1226 1.371 . S
C1228 C1229 1.392 . S
C1228 H1244 0.931 . S
C1229 C1228 1.392 . S
C1229 C1230 1.331 . S
C1229 H1247 0.932 . S
C1230 C1229 1.331 . S
C1230 C1231 1.336 . S
C1231 C1227 1.394 . S
C1231 C1230 1.336 . S
C1231 H1246 0.929 . S
C1232 C1222 1.386 . S
C1232 C1225 1.357 . S
C1232 H1245 0.928 . S
H1233 C1209 0.931 . S
H1234 C1211 0.930 . S
H1235 C1213 0.929 . S
H1236 C1214 0.931 . S
H1237 C1216 0.930 . S
H1238 C1220 0.931 . S
H1239 C1218 0.931 . S
H1240 C1222 0.931 . S
H1241 C1223 0.929 . S
H1242 C1224 0.930 . S
H1243 C1227 0.930 . S
H1244 C1228 0.931 . S
H1245 C1232 0.928 . S
H1246 C1231 0.929 . S
H1247 C1229 0.932 . S
Cu1248 N1249 1.999 . S
Cu1248 O1254 1.974 1_554 S
Cu1248 N1259 1.985 . S
Cu1248 O1268 1.959 . S
N1249 Cu1248 1.999 . S
N1249 C1251 1.263 1_554 S
N1249 C1253 1.389 . S
N1250 C1251 1.358 . S
N1250 C1252 1.400 . S
C1251 N1249 1.263 1_556 S
C1251 N1250 1.358 . S
C1251 H1257 0.930 . S
C1252 N1250 1.400 . S
C1252 C1253 1.351 1_556 S
C1252 H1269 0.930 . S
C1253 N1249 1.389 . S
C1253 C1252 1.351 1_554 S
C1253 H1258 0.930 . S
O1254 Cu1248 1.974 1_556 S
O1254 C1264 1.282 . S
C1255 O1256 1.261 . S
C1255 O1268 1.251 . S
O1256 C1255 1.261 . S
H1257 C1251 0.930 . S
H1258 C1253 0.930 . S
N1259 Cu1248 1.985 . S
N1259 C1261 1.335 . S
N1259 C1262 1.390 . S
N1260 C1261 1.345 . S
N1260 C1263 1.336 . S
C1261 N1259 1.335 . S
C1261 N1260 1.345 . S
C1261 H1266 0.930 . S
C1262 N1259 1.390 . S
C1262 C1263 1.346 . S
C1262 H1267 0.930 . S
C1263 N1260 1.336 . S
C1263 C1262 1.346 . S
C1263 H1270 0.929 . S
C1264 O1254 1.282 . S
C1264 O1265 1.216 . S
O1265 C1264 1.216 . S
H1266 C1261 0.930 . S
H1267 C1262 0.930 . S
O1268 Cu1248 1.959 . S
O1268 C1255 1.251 . S
H1269 C1252 0.930 . S
H1270 C1263 0.929 . S
Cu1271 N1272 1.999 . S
Cu1271 O1277 1.974 . S
Cu1271 N1282 1.985 1_554 S
Cu1271 O1291 1.959 1_554 S
N1272 Cu1271 1.999 . S
N1272 C1274 1.263 . S
N1272 C1276 1.389 . S
N1273 C1274 1.358 . S
N1273 C1275 1.400 . S
C1274 N1272 1.263 . S
C1274 N1273 1.358 . S
C1274 H1280 0.930 . S
C1275 N1273 1.400 . S
C1275 C1276 1.351 . S
C1275 H1292 0.930 . S
C1276 N1272 1.389 . S
C1276 C1275 1.351 . S
C1276 H1281 0.930 . S
O1277 Cu1271 1.974 . S
O1277 C1287 1.282 . S
C1278 O1279 1.261 . S
C1278 O1291 1.251 . S
O1279 C1278 1.261 . S
H1280 C1274 0.930 . S
H1281 C1276 0.930 . S
N1282 Cu1271 1.985 1_556 S
N1282 C1284 1.335 . S
N1282 C1285 1.390 . S
N1283 C1284 1.345 . S
N1283 C1286 1.336 . S
C1284 N1282 1.335 . S
C1284 N1283 1.345 . S
C1284 H1289 0.930 . S
C1285 N1282 1.390 . S
C1285 C1286 1.346 . S
C1285 H1290 0.930 1_556 S
C1286 N1283 1.336 . S
C1286 C1285 1.346 . S
C1286 H1293 0.929 . S
C1287 O1277 1.282 . S
C1287 O1288 1.216 . S
O1288 C1287 1.216 . S
H1289 C1284 0.930 . S
H1290 C1285 0.930 1_554 S
O1291 Cu1271 1.959 1_556 S
O1291 C1278 1.251 . S
H1292 C1275 0.930 . S
H1293 C1286 0.929 . S
Cu1294 N1295 1.965 1_554 S
Cu1294 O1300 1.931 1_554 S
Cu1294 N1305 2.019 . S
Cu1294 O1314 2.001 . S
N1295 Cu1294 1.965 1_556 S
N1295 C1297 1.263 . S
N1295 C1299 1.389 . S
N1296 C1297 1.358 . S
N1296 C1298 1.400 . S
C1297 N1295 1.263 . S
C1297 N1296 1.358 . S
C1297 H1303 0.930 . S
C1298 N1296 1.400 . S
C1298 C1299 1.351 . S
C1298 H1315 0.930 . S
C1299 N1295 1.389 . S
C1299 C1298 1.351 . S
C1299 H1304 0.930 . S
O1300 Cu1294 1.931 1_556 S
O1300 C1310 1.282 . S
C1301 O1302 1.261 . S
C1301 O1314 1.251 . S
O1302 C1301 1.261 . S
H1303 C1297 0.930 . S
H1304 C1299 0.930 . S
N1305 Cu1294 2.019 . S
N1305 C1307 1.335 . S
N1305 C1308 1.390 . S
N1306 C1307 1.345 . S
N1306 C1309 1.336 . S
C1307 N1305 1.335 . S
C1307 N1306 1.345 . S
C1307 H1312 0.930 . S
C1308 N1305 1.390 . S
C1308 C1309 1.346 . S
C1308 H1313 0.964 . S
C1309 N1306 1.336 . S
C1309 C1308 1.346 . S
C1309 H1316 0.929 . S
C1310 O1300 1.282 . S
C1310 O1311 1.216 . S
O1311 C1310 1.216 . S
H1312 C1307 0.930 . S
H1313 C1308 0.964 . S
O1314 Cu1294 2.001 . S
O1314 C1301 1.251 . S
H1315 C1298 0.930 . S
H1316 C1309 0.929 . S
Cu1317 N1318 2.045 . S
Cu1317 O1323 2.028 . S
Cu1317 N1328 1.942 1_554 S
Cu1317 O1337 1.907 1_554 S
N1318 Cu1317 2.045 . S
N1318 C1320 1.263 . S
N1318 C1322 1.389 . S
N1319 C1320 1.358 . S
N1319 C1321 1.400 . S
C1320 N1318 1.263 . S
C1320 N1319 1.358 . S
C1320 H1326 0.930 . S
C1321 N1319 1.400 . S
C1321 C1322 1.351 . S
C1321 H1338 0.930 . S
C1322 N1318 1.389 . S
C1322 C1321 1.351 . S
C1322 H1327 0.930 . S
O1323 Cu1317 2.028 . S
O1323 C1333 1.282 . S
C1324 O1325 1.261 . S
C1324 O1337 1.251 . S
O1325 C1324 1.261 . S
H1326 C1320 0.930 . S
H1327 C1322 0.930 . S
N1328 Cu1317 1.942 1_556 S
N1328 C1330 1.335 . S
N1328 C1331 1.390 . S
N1329 C1330 1.345 . S
N1329 C1332 1.336 . S
C1330 N1328 1.335 . S
C1330 N1329 1.345 . S
C1330 H1335 0.930 . S
C1331 N1328 1.390 . S
C1331 C1332 1.346 . S
C1331 H1336 0.882 1_556 S
C1332 N1329 1.336 . S
C1332 C1331 1.346 . S
C1332 H1339 0.929 . S
C1333 O1323 1.282 . S
C1333 O1334 1.216 . S
O1334 C1333 1.216 . S
H1335 C1330 0.930 . S
H1336 C1331 0.882 1_554 S
O1337 Cu1317 1.907 1_556 S
O1337 C1324 1.251 . S
H1338 C1321 0.930 . S
H1339 C1332 0.929 . S
Cu1340 N1341 1.999 . S
Cu1340 O1346 1.974 . S
Cu1340 N1351 1.985 1_455 S
Cu1340 O1360 1.959 1_455 S
N1341 Cu1340 1.999 . S
N1341 C1343 1.263 . S
N1341 C1345 1.389 . S
N1342 C1343 1.358 . S
N1342 C1344 1.400 . S
C1343 N1341 1.263 . S
C1343 N1342 1.358 . S
C1343 H1349 0.930 . S
C1344 N1342 1.400 . S
C1344 C1345 1.351 . S
C1344 H1361 0.930 . S
C1345 N1341 1.389 . S
C1345 C1344 1.351 . S
C1345 H1350 0.930 . S
O1346 Cu1340 1.974 . S
O1346 C1356 1.282 . S
C1347 O1348 1.261 . S
C1347 O1360 1.251 . S
O1348 C1347 1.261 . S
H1349 C1343 0.930 . S
H1350 C1345 0.930 . S
N1351 Cu1340 1.985 1_655 S
N1351 C1353 1.335 . S
N1351 C1354 1.388 1_655 S
N1352 C1353 1.345 . S
N1352 C1355 1.336 . S
C1353 N1351 1.335 . S
C1353 N1352 1.345 . S
C1353 H1358 0.930 . S
C1354 N1351 1.388 1_455 S
C1354 C1355 1.336 1_455 S
C1354 H1359 0.941 . S
C1355 N1352 1.336 . S
C1355 C1354 1.336 1_655 S
C1355 H1362 0.929 . S
C1356 O1346 1.282 . S
C1356 O1357 1.216 . S
O1357 C1356 1.216 . S
H1358 C1353 0.930 . S
H1359 C1354 0.941 . S
O1360 Cu1340 1.959 1_655 S
O1360 C1347 1.251 . S
H1361 C1344 0.930 . S
H1362 C1355 0.929 . S
Cu1363 N1364 1.999 . S
Cu1363 O1369 1.974 . S
Cu1363 N1374 1.985 1_545 S
Cu1363 O1383 1.959 1_545 S
N1364 Cu1363 1.999 . S
N1364 C1366 1.263 . S
N1364 C1368 1.389 . S
N1365 C1366 1.358 . S
N1365 C1367 1.400 . S
C1366 N1364 1.263 . S
C1366 N1365 1.358 . S
C1366 H1372 0.930 . S
C1367 N1365 1.400 . S
C1367 C1368 1.351 . S
C1367 H1384 0.930 . S
C1368 N1364 1.389 . S
C1368 C1367 1.351 . S
C1368 H1373 0.930 . S
O1369 Cu1363 1.974 . S
O1369 C1379 1.282 . S
C1370 O1371 1.261 . S
C1370 O1383 1.251 . S
O1371 C1370 1.261 . S
H1372 C1366 0.930 . S
H1373 C1368 0.930 . S
N1374 Cu1363 1.985 1_565 S
N1374 C1376 1.335 . S
N1374 C1377 1.390 . S
N1375 C1376 1.345 . S
N1375 C1378 1.336 . S
C1376 N1374 1.335 . S
C1376 N1375 1.345 . S
C1376 H1381 0.930 . S
C1377 N1374 1.390 . S
C1377 C1378 1.346 . S
C1377 H1382 0.930 1_565 S
C1378 N1375 1.336 . S
C1378 C1377 1.346 . S
C1378 H1385 0.929 . S
C1379 O1369 1.282 . S
C1379 O1380 1.216 . S
O1380 C1379 1.216 . S
H1381 C1376 0.930 . S
H1382 C1377 0.930 1_545 S
O1383 Cu1363 1.959 1_565 S
O1383 C1370 1.251 . S
H1384 C1367 0.930 . S
H1385 C1378 0.929 . S
Cu1386 N1387 2.003 1_455 S
Cu1386 O1392 1.978 1_455 S
Cu1386 N1397 1.981 . S
Cu1386 O1406 1.955 . S
N1387 Cu1386 2.003 1_655 S
N1387 C1389 1.263 . S
N1387 C1391 1.389 . S
N1388 C1389 1.358 . S
N1388 C1390 1.400 . S
C1389 N1387 1.263 . S
C1389 N1388 1.358 . S
C1389 H1395 0.930 . S
C1390 N1388 1.400 . S
C1390 C1391 1.351 . S
C1390 H1407 0.930 . S
C1391 N1387 1.389 . S
C1391 C1390 1.351 . S
C1391 H1396 0.930 . S
O1392 Cu1386 1.978 1_655 S
O1392 C1402 1.282 . S
C1393 O1394 1.261 . S
C1393 O1406 1.251 . S
O1394 C1393 1.261 . S
H1395 C1389 0.930 . S
H1396 C1391 0.930 . S
N1397 Cu1386 1.981 . S
N1397 C1399 1.335 . S
N1397 C1400 1.390 . S
N1398 C1399 1.345 . S
N1398 C1401 1.336 . S
C1399 N1397 1.335 . S
C1399 N1398 1.345 . S
C1399 H1404 0.930 . S
C1400 N1397 1.390 . S
C1400 C1401 1.346 . S
C1400 H1405 0.930 . S
C1401 N1398 1.336 . S
C1401 C1400 1.346 . S
C1401 H1408 0.929 . S
C1402 O1392 1.282 . S
C1402 O1403 1.216 . S
O1403 C1402 1.216 . S
H1404 C1399 0.930 . S
H1405 C1400 0.930 . S
O1406 Cu1386 1.955 . S
O1406 C1393 1.251 . S
H1407 C1390 0.930 . S
H1408 C1401 0.929 . S
Cu1409 N1410 1.985 1_565 S
Cu1409 O1415 1.956 1_565 S
Cu1409 N1420 1.998 . S
Cu1409 O1429 1.976 . S
N1410 Cu1409 1.985 1_545 S
N1410 C1412 1.263 . S
N1410 C1414 1.389 . S
N1411 C1412 1.358 . S
N1411 C1413 1.400 . S
C1412 N1410 1.263 . S
C1412 N1411 1.358 . S
C1412 H1418 0.930 . S
C1413 N1411 1.400 . S
C1413 C1414 1.351 . S
C1413 H1430 0.930 . S
C1414 N1410 1.389 . S
C1414 C1413 1.351 . S
C1414 H1419 0.930 . S
O1415 Cu1409 1.956 1_545 S
O1415 C1425 1.282 . S
C1416 O1417 1.261 . S
C1416 O1429 1.251 . S
O1417 C1416 1.261 . S
H1418 C1412 0.930 . S
H1419 C1414 0.930 . S
N1420 Cu1409 1.998 . S
N1420 C1422 1.335 . S
N1420 C1423 1.390 . S
N1421 C1422 1.345 . S
N1421 C1424 1.336 . S
C1422 N1420 1.335 . S
C1422 N1421 1.345 . S
C1422 H1427 0.930 . S
C1423 N1420 1.390 . S
C1423 C1424 1.346 . S
C1423 H1428 0.930 . S
C1424 N1421 1.336 . S
C1424 C1423 1.346 . S
C1424 H1431 0.929 . S
C1425 O1415 1.282 . S
C1425 O1426 1.216 . S
O1426 C1425 1.216 . S
H1427 C1422 0.930 . S
H1428 C1423 0.930 . S
O1429 Cu1409 1.976 . S
O1429 C1416 1.251 . S
H1430 C1413 0.930 . S
H1431 C1424 0.929 . S
Cu1432 N1433 1.999 . S
Cu1432 O1438 1.974 . S
Cu1432 N1443 1.985 1_455 S
Cu1432 O1452 1.959 1_455 S
N1433 Cu1432 1.999 . S
N1433 C1435 1.263 . S
N1433 C1437 1.389 . S
N1434 C1435 1.358 . S
N1434 C1436 1.400 . S
C1435 N1433 1.263 . S
C1435 N1434 1.358 . S
C1435 H1441 0.930 . S
C1436 N1434 1.400 . S
C1436 C1437 1.351 . S
C1436 H1453 0.930 . S
C1437 N1433 1.389 . S
C1437 C1436 1.351 . S
C1437 H1442 0.930 . S
O1438 Cu1432 1.974 . S
O1438 C1448 1.282 . S
C1439 O1440 1.261 . S
C1439 O1452 1.251 . S
O1440 C1439 1.261 . S
H1441 C1435 0.930 . S
H1442 C1437 0.930 . S
N1443 Cu1432 1.985 1_655 S
N1443 C1445 1.335 . S
N1443 C1446 1.395 . S
N1444 C1445 1.345 . S
N1444 C1447 1.336 . S
C1445 N1443 1.335 . S
C1445 N1444 1.345 . S
C1445 H1450 0.930 . S
C1446 N1443 1.395 . S
C1446 C1447 1.369 . S
C1446 H1451 0.907 1_655 S
C1447 N1444 1.336 . S
C1447 C1446 1.369 . S
C1447 H1454 0.929 . S
C1448 O1438 1.282 . S
C1448 O1449 1.216 . S
O1449 C1448 1.216 . S
H1450 C1445 0.930 . S
H1451 C1446 0.907 1_455 S
O1452 Cu1432 1.959 1_655 S
O1452 C1439 1.251 . S
H1453 C1436 0.930 . S
H1454 C1447 0.929 . S
Cu1455 N1456 1.999 . S
Cu1455 O1461 1.974 . S
Cu1455 N1466 1.985 1_545 S
Cu1455 O1475 1.959 1_545 S
N1456 Cu1455 1.999 . S
N1456 C1458 1.263 . S
N1456 C1460 1.389 . S
N1457 C1458 1.358 . S
N1457 C1459 1.400 . S
C1458 N1456 1.263 . S
C1458 N1457 1.358 . S
C1458 H1464 0.930 . S
C1459 N1457 1.400 . S
C1459 C1460 1.351 . S
C1459 H1476 0.930 . S
C1460 N1456 1.389 . S
C1460 C1459 1.351 . S
C1460 H1465 0.930 . S
O1461 Cu1455 1.974 . S
O1461 C1471 1.282 . S
C1462 O1463 1.261 . S
C1462 O1475 1.251 . S
O1463 C1462 1.261 . S
H1464 C1458 0.930 . S
H1465 C1460 0.930 . S
N1466 Cu1455 1.985 1_565 S
N1466 C1468 1.335 . S
N1466 C1469 1.378 1_565 S
N1467 C1468 1.345 . S
N1467 C1470 1.336 . S
C1468 N1466 1.335 . S
C1468 N1467 1.345 . S
C1468 H1473 0.930 . S
C1469 N1466 1.378 1_545 S
C1469 C1470 1.283 1_545 S
C1469 H1474 0.997 . S
C1470 N1467 1.336 . S
C1470 C1469 1.283 1_565 S
C1470 H1477 0.929 . S
C1471 O1461 1.282 . S
C1471 O1472 1.216 . S
O1472 C1471 1.216 . S
H1473 C1468 0.930 . S
H1474 C1469 0.997 . S
O1475 Cu1455 1.959 1_565 S
O1475 C1462 1.251 . S
H1476 C1459 0.930 . S
H1477 C1470 0.929 . S
Cu1478 N1479 1.999 . S
Cu1478 O1484 1.974 . S
Cu1478 N1489 1.985 . S
Cu1478 O1498 1.959 . S
N1479 Cu1478 1.999 . S
N1479 C1481 1.263 1_455 S
N1479 C1483 1.389 . S
N1480 C1481 1.358 . S
N1480 C1482 1.400 . S
C1481 N1479 1.263 1_655 S
C1481 N1480 1.358 . S
C1481 H1487 0.930 . S
C1482 N1480 1.400 . S
C1482 C1483 1.351 1_655 S
C1482 H1499 0.930 . S
C1483 N1479 1.389 . S
C1483 C1482 1.351 1_455 S
C1483 H1488 0.930 . S
O1484 Cu1478 1.974 . S
O1484 C1494 1.282 1_455 S
C1485 O1486 1.261 . S
C1485 O1498 1.251 . S
O1486 C1485 1.261 . S
H1487 C1481 0.930 . S
H1488 C1483 0.930 . S
N1489 Cu1478 1.985 . S
N1489 C1491 1.335 . S
N1489 C1492 1.390 . S
N1490 C1491 1.345 . S
N1490 C1493 1.336 . S
C1491 N1489 1.335 . S
C1491 N1490 1.345 . S
C1491 H1496 0.930 . S
C1492 N1489 1.390 . S
C1492 C1493 1.346 . S
C1492 H1497 0.930 . S
C1493 N1490 1.336 . S
C1493 C1492 1.346 . S
C1493 H1500 0.929 . S
C1494 O1484 1.282 1_655 S
C1494 O1495 1.216 1_655 S
O1495 C1494 1.216 1_455 S
H1496 C1491 0.930 . S
H1497 C1492 0.930 . S
O1498 Cu1478 1.959 . S
O1498 C1485 1.251 . S
H1499 C1482 0.930 . S
H1500 C1493 0.929 . S
Cu1501 N1502 1.999 . S
Cu1501 O1507 1.974 . S
Cu1501 N1512 2.018 . S
Cu1501 O1521 1.959 1_545 S
N1502 Cu1501 1.999 . S
N1502 C1504 1.263 . S
N1502 C1506 1.389 . S
N1503 C1504 1.358 . S
N1503 C1505 1.400 . S
C1504 N1502 1.263 . S
C1504 N1503 1.358 . S
C1504 H1510 0.930 . S
C1505 N1503 1.400 . S
C1505 C1506 1.351 . S
C1505 H1522 0.930 . S
C1506 N1502 1.389 . S
C1506 C1505 1.351 . S
C1506 H1511 0.930 . S
O1507 Cu1501 1.974 . S
O1507 C1517 1.282 . S
C1508 O1509 1.244 1_565 S
C1508 O1521 1.251 . S
O1509 C1508 1.244 1_545 S
H1510 C1504 0.930 . S
H1511 C1506 0.930 . S
N1512 Cu1501 2.018 . S
N1512 C1514 1.283 1_545 S
N1512 C1515 1.403 . S
N1513 C1514 1.345 . S
N1513 C1516 1.336 . S
C1514 N1512 1.283 1_565 S
C1514 N1513 1.345 . S
C1514 H1519 0.930 . S
C1515 N1512 1.403 . S
C1515 C1516 1.346 1_545 S
C1515 H1520 0.930 . S
C1516 N1513 1.336 . S
C1516 C1515 1.346 1_565 S
C1516 H1523 0.929 . S
C1517 O1507 1.282 . S
C1517 O1518 1.216 . S
O1518 C1517 1.216 . S
H1519 C1514 0.930 . S
H1520 C1515 0.930 . S
O1521 Cu1501 1.959 1_565 S
O1521 C1508 1.251 . S
H1522 C1505 0.930 . S
H1523 C1516 0.929 . S
Cu1524 N1525 1.999 . S
Cu1524 O1530 1.974 . S
Cu1524 N1535 1.985 . S
Cu1524 O1544 1.959 . S
N1525 Cu1524 1.999 . S
N1525 C1527 1.263 . S
N1525 C1529 1.389 . S
N1526 C1527 1.358 . S
N1526 C1528 1.400 . S
C1527 N1525 1.263 . S
C1527 N1526 1.358 . S
C1527 H1533 0.930 . S
C1528 N1526 1.400 . S
C1528 C1529 1.351 . S
C1528 H1545 0.930 . S
C1529 N1525 1.389 . S
C1529 C1528 1.351 . S
C1529 H1534 0.930 . S
O1530 Cu1524 1.974 . S
O1530 C1540 1.282 . S
C1531 O1532 1.261 . S
C1531 O1544 1.251 . S
O1532 C1531 1.261 . S
H1533 C1527 0.930 . S
H1534 C1529 0.930 . S
N1535 Cu1524 1.985 . S
N1535 C1537 1.335 . S
N1535 C1538 1.390 . S
N1536 C1537 1.345 . S
N1536 C1539 1.336 . S
C1537 N1535 1.335 . S
C1537 N1536 1.345 . S
C1537 H1542 0.930 . S
C1538 N1535 1.390 . S
C1538 C1539 1.346 . S
C1538 H1543 0.930 . S
C1539 N1536 1.336 . S
C1539 C1538 1.346 . S
C1539 H1546 0.929 . S
C1540 O1530 1.282 . S
C1540 O1541 1.216 . S
O1541 C1540 1.216 . S
H1542 C1537 0.930 . S
H1543 C1538 0.930 . S
O1544 Cu1524 1.959 . S
O1544 C1531 1.251 . S
H1545 C1528 0.930 . S
H1546 C1539 0.929 . S
Cu1547 N1548 1.999 . S
Cu1547 O1553 1.974 . S
Cu1547 N1558 1.985 . S
Cu1547 O1567 1.959 . S
N1548 Cu1547 1.999 . S
N1548 C1550 1.263 . S
N1548 C1552 1.389 . S
N1549 C1550 1.358 . S
N1549 C1551 1.400 . S
C1550 N1548 1.263 . S
C1550 N1549 1.358 . S
C1550 H1556 0.930 . S
C1551 N1549 1.400 . S
C1551 C1552 1.351 . S
C1551 H1568 0.930 . S
C1552 N1548 1.389 . S
C1552 C1551 1.351 . S
C1552 H1557 0.930 . S
O1553 Cu1547 1.974 . S
O1553 C1563 1.282 . S
C1554 O1555 1.261 . S
C1554 O1567 1.251 . S
O1555 C1554 1.261 . S
H1556 C1550 0.930 . S
H1557 C1552 0.930 . S
N1558 Cu1547 1.985 . S
N1558 C1560 1.335 . S
N1558 C1561 1.390 . S
N1559 C1560 1.345 . S
N1559 C1562 1.336 . S
C1560 N1558 1.335 . S
C1560 N1559 1.345 . S
C1560 H1565 0.930 . S
C1561 N1558 1.390 . S
C1561 C1562 1.346 . S
C1561 H1566 0.930 . S
C1562 N1559 1.336 . S
C1562 C1561 1.346 . S
C1562 H1569 0.929 . S
C1563 O1553 1.282 . S
C1563 O1564 1.216 . S
O1564 C1563 1.216 . S
H1565 C1560 0.930 . S
H1566 C1561 0.930 . S
O1567 Cu1547 1.959 . S
O1567 C1554 1.251 . S
H1568 C1551 0.930 . S
H1569 C1562 0.929 . S
Cu1570 N1571 1.999 . S
Cu1570 O1576 1.974 . S
Cu1570 N1581 1.985 . S
Cu1570 O1590 1.959 . S
N1571 Cu1570 1.999 . S
N1571 C1573 1.263 . S
N1571 C1575 1.389 . S
N1572 C1573 1.358 . S
N1572 C1574 1.400 . S
C1573 N1571 1.263 . S
C1573 N1572 1.358 . S
C1573 H1579 0.930 . S
C1574 N1572 1.400 . S
C1574 C1575 1.351 . S
C1574 H1591 0.930 . S
C1575 N1571 1.389 . S
C1575 C1574 1.351 . S
C1575 H1580 0.930 . S
O1576 Cu1570 1.974 . S
O1576 C1586 1.282 . S
C1577 O1578 1.261 . S
C1577 O1590 1.251 . S
O1578 C1577 1.261 . S
H1579 C1573 0.930 . S
H1580 C1575 0.930 . S
N1581 Cu1570 1.985 . S
N1581 C1583 1.335 . S
N1581 C1584 1.390 . S
N1582 C1583 1.345 . S
N1582 C1585 1.336 . S
C1583 N1581 1.335 . S
C1583 N1582 1.345 . S
C1583 H1588 0.930 . S
C1584 N1581 1.390 . S
C1584 C1585 1.346 . S
C1584 H1589 0.930 . S
C1585 N1582 1.336 . S
C1585 C1584 1.346 . S
C1585 H1592 0.929 . S
C1586 O1576 1.282 . S
C1586 O1587 1.216 . S
O1587 C1586 1.216 . S
H1588 C1583 0.930 . S
H1589 C1584 0.930 . S
O1590 Cu1570 1.959 . S
O1590 C1577 1.251 . S
H1591 C1574 0.930 . S
H1592 C1585 0.929 . S
Cu1593 N1594 1.999 . S
Cu1593 O1599 1.974 . S
Cu1593 N1604 1.985 . S
Cu1593 O1613 1.959 . S
N1594 Cu1593 1.999 . S
N1594 C1596 1.263 . S
N1594 C1598 1.389 . S
N1595 C1596 1.358 . S
N1595 C1597 1.400 . S
C1596 N1594 1.263 . S
C1596 N1595 1.358 . S
C1596 H1602 0.930 . S
C1597 N1595 1.400 . S
C1597 C1598 1.351 . S
C1597 H1614 0.930 . S
C1598 N1594 1.389 . S
C1598 C1597 1.351 . S
C1598 H1603 0.930 . S
O1599 Cu1593 1.974 . S
O1599 C1609 1.282 . S
C1600 O1601 1.261 . S
C1600 O1613 1.251 . S
O1601 C1600 1.261 . S
H1602 C1596 0.930 . S
H1603 C1598 0.930 . S
N1604 Cu1593 1.985 . S
N1604 C1606 1.335 . S
N1604 C1607 1.390 . S
N1605 C1606 1.345 . S
N1605 C1608 1.336 . S
C1606 N1604 1.335 . S
C1606 N1605 1.345 . S
C1606 H1611 0.930 . S
C1607 N1604 1.390 . S
C1607 C1608 1.346 . S
C1607 H1612 0.930 . S
C1608 N1605 1.336 . S
C1608 C1607 1.346 . S
C1608 H1615 0.929 . S
C1609 O1599 1.282 . S
C1609 O1610 1.216 . S
O1610 C1609 1.216 . S
H1611 C1606 0.930 . S
H1612 C1607 0.930 . S
O1613 Cu1593 1.959 . S
O1613 C1600 1.251 . S
H1614 C1597 0.930 . S
H1615 C1608 0.929 . S
Cu1616 N1617 1.999 . S
Cu1616 O1622 1.974 . S
Cu1616 N1627 1.985 . S
Cu1616 O1636 1.959 . S
N1617 Cu1616 1.999 . S
N1617 C1619 1.263 . S
N1617 C1621 1.389 . S
N1618 C1619 1.358 . S
N1618 C1620 1.400 . S
C1619 N1617 1.263 . S
C1619 N1618 1.358 . S
C1619 H1625 0.930 . S
C1620 N1618 1.400 . S
C1620 C1621 1.351 . S
C1620 H1637 0.930 . S
C1621 N1617 1.389 . S
C1621 C1620 1.351 . S
C1621 H1626 0.930 . S
O1622 Cu1616 1.974 . S
O1622 C1632 1.282 . S
C1623 O1624 1.261 . S
C1623 O1636 1.251 . S
O1624 C1623 1.261 . S
H1625 C1619 0.930 . S
H1626 C1621 0.930 . S
N1627 Cu1616 1.985 . S
N1627 C1629 1.335 . S
N1627 C1630 1.390 . S
N1628 C1629 1.345 . S
N1628 C1631 1.336 . S
C1629 N1627 1.335 . S
C1629 N1628 1.345 . S
C1629 H1634 0.930 . S
C1630 N1627 1.390 . S
C1630 C1631 1.346 . S
C1630 H1635 0.930 . S
C1631 N1628 1.336 . S
C1631 C1630 1.346 . S
C1631 H1638 0.929 . S
C1632 O1622 1.282 . S
C1632 O1633 1.216 . S
O1633 C1632 1.216 . S
H1634 C1629 0.930 . S
H1635 C1630 0.930 . S
O1636 Cu1616 1.959 . S
O1636 C1623 1.251 . S
H1637 C1620 0.930 . S
H1638 C1631 0.929 . S
Cu1639 N1640 1.999 . S
Cu1639 O1645 1.974 . S
Cu1639 N1650 1.985 . S
Cu1639 O1659 1.959 . S
N1640 Cu1639 1.999 . S
N1640 C1642 1.263 . S
N1640 C1644 1.389 . S
N1641 C1642 1.358 . S
N1641 C1643 1.400 . S
C1642 N1640 1.263 . S
C1642 N1641 1.358 . S
C1642 H1648 0.930 . S
C1643 N1641 1.400 . S
C1643 C1644 1.351 . S
C1643 H1660 0.930 . S
C1644 N1640 1.389 . S
C1644 C1643 1.351 . S
C1644 H1649 0.930 . S
O1645 Cu1639 1.974 . S
O1645 C1655 1.282 . S
C1646 O1647 1.261 . S
C1646 O1659 1.251 . S
O1647 C1646 1.261 . S
H1648 C1642 0.930 . S
H1649 C1644 0.930 . S
N1650 Cu1639 1.985 . S
N1650 C1652 1.335 . S
N1650 C1653 1.390 . S
N1651 C1652 1.345 . S
N1651 C1654 1.336 . S
C1652 N1650 1.335 . S
C1652 N1651 1.345 . S
C1652 H1657 0.930 . S
C1653 N1650 1.390 . S
C1653 C1654 1.346 . S
C1653 H1658 0.930 . S
C1654 N1651 1.336 . S
C1654 C1653 1.346 . S
C1654 H1661 0.929 . S
C1655 O1645 1.282 . S
C1655 O1656 1.216 . S
O1656 C1655 1.216 . S
H1657 C1652 0.930 . S
H1658 C1653 0.930 . S
O1659 Cu1639 1.959 . S
O1659 C1646 1.251 . S
H1660 C1643 0.930 . S
H1661 C1654 0.929 . S
Cu1662 N1663 1.999 . S
Cu1662 O1668 1.974 . S
Cu1662 N1673 1.985 . S
Cu1662 O1682 1.959 . S
N1663 Cu1662 1.999 . S
N1663 C1665 1.263 . S
N1663 C1667 1.389 . S
N1664 C1665 1.358 . S
N1664 C1666 1.400 . S
C1665 N1663 1.263 . S
C1665 N1664 1.358 . S
C1665 H1671 0.930 . S
C1666 N1664 1.400 . S
C1666 C1667 1.351 . S
C1666 H1683 0.930 . S
C1667 N1663 1.389 . S
C1667 C1666 1.351 . S
C1667 H1672 0.930 . S
O1668 Cu1662 1.974 . S
O1668 C1678 1.282 . S
C1669 O1670 1.261 . S
C1669 O1682 1.251 . S
O1670 C1669 1.261 . S
H1671 C1665 0.930 . S
H1672 C1667 0.930 . S
N1673 Cu1662 1.985 . S
N1673 C1675 1.335 . S
N1673 C1676 1.390 . S
N1674 C1675 1.345 . S
N1674 C1677 1.336 . S
C1675 N1673 1.335 . S
C1675 N1674 1.345 . S
C1675 H1680 0.930 . S
C1676 N1673 1.390 . S
C1676 C1677 1.346 . S
C1676 H1681 0.930 . S
C1677 N1674 1.336 . S
C1677 C1676 1.346 . S
C1677 H1684 0.929 . S
C1678 O1668 1.282 . S
C1678 O1679 1.216 . S
O1679 C1678 1.216 . S
H1680 C1675 0.930 . S
H1681 C1676 0.930 . S
O1682 Cu1662 1.959 . S
O1682 C1669 1.251 . S
H1683 C1666 0.930 . S
H1684 C1677 0.929 . S
Cu1685 N1686 1.999 . S
Cu1685 O1691 1.974 . S
Cu1685 N1696 1.985 . S
Cu1685 O1705 1.959 . S
N1686 Cu1685 1.999 . S
N1686 C1688 1.263 . S
N1686 C1690 1.389 . S
N1687 C1688 1.358 . S
N1687 C1689 1.400 . S
C1688 N1686 1.263 . S
C1688 N1687 1.358 . S
C1688 H1694 0.930 . S
C1689 N1687 1.400 . S
C1689 C1690 1.351 . S
C1689 H1706 0.930 . S
C1690 N1686 1.389 . S
C1690 C1689 1.351 . S
C1690 H1695 0.930 . S
O1691 Cu1685 1.974 . S
O1691 C1701 1.282 . S
C1692 O1693 1.261 . S
C1692 O1705 1.251 . S
O1693 C1692 1.261 . S
H1694 C1688 0.930 . S
H1695 C1690 0.930 . S
N1696 Cu1685 1.985 . S
N1696 C1698 1.335 . S
N1696 C1699 1.390 . S
N1697 C1698 1.345 . S
N1697 C1700 1.336 . S
C1698 N1696 1.335 . S
C1698 N1697 1.345 . S
C1698 H1703 0.930 . S
C1699 N1696 1.390 . S
C1699 C1700 1.346 . S
C1699 H1704 0.930 . S
C1700 N1697 1.336 . S
C1700 C1699 1.346 . S
C1700 H1707 0.929 . S
C1701 O1691 1.282 . S
C1701 O1702 1.216 . S
O1702 C1701 1.216 . S
H1703 C1698 0.930 . S
H1704 C1699 0.930 . S
O1705 Cu1685 1.959 . S
O1705 C1692 1.251 . S
H1706 C1689 0.930 . S
H1707 C1700 0.929 . S
Cu1708 N1709 1.999 . S
Cu1708 O1714 1.974 . S
Cu1708 N1719 1.985 . S
Cu1708 O1728 1.959 . S
N1709 Cu1708 1.999 . S
N1709 C1711 1.263 . S
N1709 C1713 1.389 . S
N1710 C1711 1.358 . S
N1710 C1712 1.400 . S
C1711 N1709 1.263 . S
C1711 N1710 1.358 . S
C1711 H1717 0.930 . S
C1712 N1710 1.400 . S
C1712 C1713 1.351 . S
C1712 H1729 0.930 . S
C1713 N1709 1.389 . S
C1713 C1712 1.351 . S
C1713 H1718 0.930 . S
O1714 Cu1708 1.974 . S
O1714 C1724 1.282 . S
C1715 O1716 1.261 . S
C1715 O1728 1.251 . S
O1716 C1715 1.261 . S
H1717 C1711 0.930 . S
H1718 C1713 0.930 . S
N1719 Cu1708 1.985 . S
N1719 C1721 1.335 . S
N1719 C1722 1.390 . S
N1720 C1721 1.345 . S
N1720 C1723 1.336 . S
C1721 N1719 1.335 . S
C1721 N1720 1.345 . S
C1721 H1726 0.930 . S
C1722 N1719 1.390 . S
C1722 C1723 1.346 . S
C1722 H1727 0.930 . S
C1723 N1720 1.336 . S
C1723 C1722 1.346 . S
C1723 H1730 0.929 . S
C1724 O1714 1.282 . S
C1724 O1725 1.216 . S
O1725 C1724 1.216 . S
H1726 C1721 0.930 . S
H1727 C1722 0.930 . S
O1728 Cu1708 1.959 . S
O1728 C1715 1.251 . S
H1729 C1712 0.930 . S
H1730 C1723 0.929 . S
Cu1731 N1732 1.999 . S
Cu1731 O1737 1.974 . S
Cu1731 N1742 1.985 . S
Cu1731 O1751 1.959 . S
N1732 Cu1731 1.999 . S
N1732 C1734 1.263 . S
N1732 C1736 1.389 . S
N1733 C1734 1.358 . S
N1733 C1735 1.400 . S
C1734 N1732 1.263 . S
C1734 N1733 1.358 . S
C1734 H1740 0.930 . S
C1735 N1733 1.400 . S
C1735 C1736 1.351 . S
C1735 H1752 0.930 . S
C1736 N1732 1.389 . S
C1736 C1735 1.351 . S
C1736 H1741 0.930 . S
O1737 Cu1731 1.974 . S
O1737 C1747 1.282 . S
C1738 O1739 1.261 . S
C1738 O1751 1.251 . S
O1739 C1738 1.261 . S
H1740 C1734 0.930 . S
H1741 C1736 0.930 . S
N1742 Cu1731 1.985 . S
N1742 C1744 1.335 . S
N1742 C1745 1.390 . S
N1743 C1744 1.345 . S
N1743 C1746 1.336 . S
C1744 N1742 1.335 . S
C1744 N1743 1.345 . S
C1744 H1749 0.930 . S
C1745 N1742 1.390 . S
C1745 C1746 1.346 . S
C1745 H1750 0.930 . S
C1746 N1743 1.336 . S
C1746 C1745 1.346 . S
C1746 H1753 0.929 . S
C1747 O1737 1.282 . S
C1747 O1748 1.216 . S
O1748 C1747 1.216 . S
H1749 C1744 0.930 . S
H1750 C1745 0.930 . S
O1751 Cu1731 1.959 . S
O1751 C1738 1.251 . S
H1752 C1735 0.930 . S
H1753 C1746 0.929 . S
Cu1754 N1755 1.999 . S
Cu1754 O1760 1.974 . S
Cu1754 N1765 1.985 . S
Cu1754 O1774 1.959 . S
N1755 Cu1754 1.999 . S
N1755 C1757 1.263 . S
N1755 C1759 1.389 . S
N1756 C1757 1.358 . S
N1756 C1758 1.400 . S
C1757 N1755 1.263 . S
C1757 N1756 1.358 . S
C1757 H1763 0.930 . S
C1758 N1756 1.400 . S
C1758 C1759 1.351 . S
C1758 H1775 0.930 . S
C1759 N1755 1.389 . S
C1759 C1758 1.351 . S
C1759 H1764 0.930 . S
O1760 Cu1754 1.974 . S
O1760 C1770 1.282 . S
C1761 O1762 1.261 . S
C1761 O1774 1.251 . S
O1762 C1761 1.261 . S
H1763 C1757 0.930 . S
H1764 C1759 0.930 . S
N1765 Cu1754 1.985 . S
N1765 C1767 1.335 . S
N1765 C1768 1.390 . S
N1766 C1767 1.345 . S
N1766 C1769 1.336 . S
C1767 N1765 1.335 . S
C1767 N1766 1.345 . S
C1767 H1772 0.930 . S
C1768 N1765 1.390 . S
C1768 C1769 1.346 . S
C1768 H1773 0.930 . S
C1769 N1766 1.336 . S
C1769 C1768 1.346 . S
C1769 H1776 0.929 . S
C1770 O1760 1.282 . S
C1770 O1771 1.216 . S
O1771 C1770 1.216 . S
H1772 C1767 0.930 . S
H1773 C1768 0.930 . S
O1774 Cu1754 1.959 . S
O1774 C1761 1.251 . S
H1775 C1758 0.930 . S
H1776 C1769 0.929 . S
Cu1777 N1778 1.999 . S
Cu1777 O1783 1.974 . S
Cu1777 N1788 1.985 . S
Cu1777 O1797 1.959 . S
N1778 Cu1777 1.999 . S
N1778 C1780 1.263 . S
N1778 C1782 1.389 . S
N1779 C1780 1.358 . S
N1779 C1781 1.400 . S
C1780 N1778 1.263 . S
C1780 N1779 1.358 . S
C1780 H1786 0.930 . S
C1781 N1779 1.400 . S
C1781 C1782 1.351 . S
C1781 H1798 0.930 . S
C1782 N1778 1.389 . S
C1782 C1781 1.351 . S
C1782 H1787 0.930 . S
O1783 Cu1777 1.974 . S
O1783 C1793 1.282 . S
C1784 O1785 1.261 . S
C1784 O1797 1.251 . S
O1785 C1784 1.261 . S
H1786 C1780 0.930 . S
H1787 C1782 0.930 . S
N1788 Cu1777 1.985 . S
N1788 C1790 1.335 . S
N1788 C1791 1.390 . S
N1789 C1790 1.345 . S
N1789 C1792 1.336 . S
C1790 N1788 1.335 . S
C1790 N1789 1.345 . S
C1790 H1795 0.930 . S
C1791 N1788 1.390 . S
C1791 C1792 1.346 . S
C1791 H1796 0.930 . S
C1792 N1789 1.336 . S
C1792 C1791 1.346 . S
C1792 H1799 0.929 . S
C1793 O1783 1.282 . S
C1793 O1794 1.216 . S
O1794 C1793 1.216 . S
H1795 C1790 0.930 . S
H1796 C1791 0.930 . S
O1797 Cu1777 1.959 . S
O1797 C1784 1.251 . S
H1798 C1781 0.930 . S
H1799 C1792 0.929 . S
H1800 C1806 0.930 . S
H1801 C1810 0.930 . S
H1802 C1815 0.929 . S
H1803 C1813 0.929 . S
H1804 C1808 0.929 . S
H1805 C1814 0.929 . S
C1806 H1800 0.930 . S
C1806 C1807 1.367 . S
C1806 C1814 1.378 . S
C1807 C1806 1.367 . S
C1807 C1815 1.433 . S
C1808 H1804 0.929 . S
C1808 C1810 1.378 . S
C1808 C1812 1.350 . S
C1809 C1812 1.463 . S
C1809 C1814 1.350 . S
C1809 N1817 1.427 . S
C1810 H1801 0.930 . S
C1810 C1808 1.378 . S
C1810 C1811 1.367 . S
C1811 C1810 1.367 . S
C1811 C1813 1.433 . S
C1812 C1808 1.350 . S
C1812 C1809 1.463 . S
C1812 N1816 1.427 . S
C1813 H1803 0.929 . S
C1813 C1811 1.433 . S
C1813 N1816 1.384 . S
C1814 H1805 0.929 . S
C1814 C1806 1.378 . S
C1814 C1809 1.350 . S
C1815 H1802 0.929 . S
C1815 C1807 1.433 . S
C1815 N1817 1.384 . S
N1816 C1812 1.427 . S
N1816 C1813 1.384 . S
N1817 C1809 1.427 . S
N1817 C1815 1.384 . S
H1818 C1824 0.930 . S
H1819 C1828 0.930 . S
H1820 C1833 0.929 . S
H1821 C1831 0.929 . S
H1822 C1826 0.929 . S
H1823 C1832 0.929 . S
C1824 H1818 0.930 . S
C1824 C1825 1.367 . S
C1824 C1832 1.378 . S
C1825 C1824 1.367 . S
C1825 C1833 1.433 . S
C1826 H1822 0.929 . S
C1826 C1828 1.378 . S
C1826 C1830 1.350 . S
C1827 C1830 1.463 . S
C1827 C1832 1.350 . S
C1827 N1835 1.427 . S
C1828 H1819 0.930 . S
C1828 C1826 1.378 . S
C1828 C1829 1.367 . S
C1829 C1828 1.367 . S
C1829 C1831 1.433 . S
C1830 C1826 1.350 . S
C1830 C1827 1.463 . S
C1830 N1834 1.427 . S
C1831 H1821 0.929 . S
C1831 C1829 1.433 . S
C1831 N1834 1.384 . S
C1832 H1823 0.929 . S
C1832 C1824 1.378 . S
C1832 C1827 1.350 . S
C1833 H1820 0.929 . S
C1833 C1825 1.433 . S
C1833 N1835 1.384 . S
N1834 C1830 1.427 . S
N1834 C1831 1.384 . S
N1835 C1827 1.427 . S
N1835 C1833 1.384 . S
H1836 C1842 0.930 . S
H1837 C1846 0.930 . S
H1838 C1851 0.929 . S
H1839 C1849 0.929 . S
H1840 C1844 0.929 . S
H1841 C1850 0.929 . S
C1842 H1836 0.930 . S
C1842 C1843 1.367 . S
C1842 C1850 1.378 . S
C1843 C1842 1.367 . S
C1843 C1851 1.433 . S
C1844 H1840 0.929 . S
C1844 C1846 1.378 . S
C1844 C1848 1.350 . S
C1845 C1848 1.463 . S
C1845 C1850 1.350 . S
C1845 N1853 1.427 . S
C1846 H1837 0.930 . S
C1846 C1844 1.378 . S
C1846 C1847 1.367 . S
C1847 C1846 1.367 . S
C1847 C1849 1.433 . S
C1848 C1844 1.350 . S
C1848 C1845 1.463 . S
C1848 N1852 1.427 . S
C1849 H1839 0.929 . S
C1849 C1847 1.433 . S
C1849 N1852 1.384 . S
C1850 H1841 0.929 . S
C1850 C1842 1.378 . S
C1850 C1845 1.350 . S
C1851 H1838 0.929 . S
C1851 C1843 1.433 . S
C1851 N1853 1.384 . S
N1852 C1848 1.427 . S
N1852 C1849 1.384 . S
N1853 C1845 1.427 . S
N1853 C1851 1.384 . S
H1854 C1860 0.930 . S
H1855 C1864 0.930 . S
H1856 C1869 0.929 . S
H1857 C1867 0.929 . S
H1858 C1862 0.929 . S
H1859 C1868 0.929 . S
C1860 H1854 0.930 . S
C1860 C1861 1.367 . S
C1860 C1868 1.378 . S
C1861 C1860 1.367 . S
C1861 C1869 1.433 . S
C1862 H1858 0.929 . S
C1862 C1864 1.378 . S
C1862 C1866 1.350 . S
C1863 C1866 1.463 . S
C1863 C1868 1.350 . S
C1863 N1871 1.427 . S
C1864 H1855 0.930 . S
C1864 C1862 1.378 . S
C1864 C1865 1.367 . S
C1865 C1864 1.367 . S
C1865 C1867 1.433 . S
C1866 C1862 1.350 . S
C1866 C1863 1.463 . S
C1866 N1870 1.427 . S
C1867 H1857 0.929 . S
C1867 C1865 1.433 . S
C1867 N1870 1.384 . S
C1868 H1859 0.929 . S
C1868 C1860 1.378 . S
C1868 C1863 1.350 . S
C1869 H1856 0.929 . S
C1869 C1861 1.433 . S
C1869 N1871 1.384 . S
N1870 C1866 1.427 . S
N1870 C1867 1.384 . S
N1871 C1863 1.427 . S
N1871 C1869 1.384 . S
H1872 C1878 0.930 . S
H1873 C1882 0.930 . S
H1874 C1887 0.929 . S
H1875 C1885 0.929 . S
H1876 C1880 0.929 . S
H1877 C1886 0.929 . S
C1878 H1872 0.930 . S
C1878 C1879 1.367 . S
C1878 C1886 1.378 . S
C1879 C1878 1.367 . S
C1879 C1887 1.433 . S
C1880 H1876 0.929 . S
C1880 C1882 1.378 . S
C1880 C1884 1.350 . S
C1881 C1884 1.463 . S
C1881 C1886 1.350 . S
C1881 N1889 1.427 . S
C1882 H1873 0.930 . S
C1882 C1880 1.378 . S
C1882 C1883 1.367 . S
C1883 C1882 1.367 . S
C1883 C1885 1.433 . S
C1884 C1880 1.350 . S
C1884 C1881 1.463 . S
C1884 N1888 1.427 . S
C1885 H1875 0.929 . S
C1885 C1883 1.433 . S
C1885 N1888 1.384 . S
C1886 H1877 0.929 . S
C1886 C1878 1.378 . S
C1886 C1881 1.350 . S
C1887 H1874 0.929 . S
C1887 C1879 1.433 . S
C1887 N1889 1.384 . S
N1888 C1884 1.427 . S
N1888 C1885 1.384 . S
N1889 C1881 1.427 . S
N1889 C1887 1.384 . S
H1890 C1896 0.930 . S
H1891 C1900 0.930 . S
H1892 C1905 0.929 . S
H1893 C1903 0.929 . S
H1894 C1898 0.929 . S
H1895 C1904 0.929 . S
C1896 H1890 0.930 . S
C1896 C1897 1.367 . S
C1896 C1904 1.378 . S
C1897 C1896 1.367 . S
C1897 C1905 1.433 . S
C1898 H1894 0.929 . S
C1898 C1900 1.378 . S
C1898 C1902 1.350 . S
C1899 C1902 1.463 . S
C1899 C1904 1.350 . S
C1899 N1907 1.427 . S
C1900 H1891 0.930 . S
C1900 C1898 1.378 . S
C1900 C1901 1.367 . S
C1901 C1900 1.367 . S
C1901 C1903 1.433 . S
C1902 C1898 1.350 . S
C1902 C1899 1.463 . S
C1902 N1906 1.427 . S
C1903 H1893 0.929 . S
C1903 C1901 1.433 . S
C1903 N1906 1.384 . S
C1904 H1895 0.929 . S
C1904 C1896 1.378 . S
C1904 C1899 1.350 . S
C1905 H1892 0.929 . S
C1905 C1897 1.433 . S
C1905 N1907 1.384 . S
N1906 C1902 1.427 . S
N1906 C1903 1.384 . S
N1907 C1899 1.427 . S
N1907 C1905 1.384 . S
H1908 C1914 0.930 . S
H1909 C1918 0.930 . S
H1910 C1923 0.929 . S
H1911 C1921 0.929 . S
H1912 C1916 0.929 . S
H1913 C1922 0.929 . S
C1914 H1908 0.930 . S
C1914 C1915 1.367 . S
C1914 C1922 1.378 . S
C1915 C1914 1.367 . S
C1915 C1923 1.433 . S
C1916 H1912 0.929 . S
C1916 C1918 1.378 . S
C1916 C1920 1.350 . S
C1917 C1920 1.463 . S
C1917 C1922 1.350 . S
C1917 N1925 1.427 . S
C1918 H1909 0.930 . S
C1918 C1916 1.378 . S
C1918 C1919 1.367 . S
C1919 C1918 1.367 . S
C1919 C1921 1.433 . S
C1920 C1916 1.350 . S
C1920 C1917 1.463 . S
C1920 N1924 1.427 . S
C1921 H1911 0.929 . S
C1921 C1919 1.433 . S
C1921 N1924 1.384 . S
C1922 H1913 0.929 . S
C1922 C1914 1.378 . S
C1922 C1917 1.350 . S
C1923 H1910 0.929 . S
C1923 C1915 1.433 . S
C1923 N1925 1.384 . S
N1924 C1920 1.427 . S
N1924 C1921 1.384 . S
N1925 C1917 1.427 . S
N1925 C1923 1.384 . S
H1926 C1932 0.930 . S
H1927 C1936 0.930 . S
H1928 C1941 0.929 . S
H1929 C1939 0.929 . S
H1930 C1934 0.929 . S
H1931 C1940 0.929 . S
C1932 H1926 0.930 . S
C1932 C1933 1.367 . S
C1932 C1940 1.378 . S
C1933 C1932 1.367 . S
C1933 C1941 1.433 . S
C1934 H1930 0.929 . S
C1934 C1936 1.378 . S
C1934 C1938 1.350 . S
C1935 C1938 1.463 . S
C1935 C1940 1.350 . S
C1935 N1943 1.427 . S
C1936 H1927 0.930 . S
C1936 C1934 1.378 . S
C1936 C1937 1.367 . S
C1937 C1936 1.367 . S
C1937 C1939 1.433 . S
C1938 C1934 1.350 . S
C1938 C1935 1.463 . S
C1938 N1942 1.427 . S
C1939 H1929 0.929 . S
C1939 C1937 1.433 . S
C1939 N1942 1.384 . S
C1940 H1931 0.929 . S
C1940 C1932 1.378 . S
C1940 C1935 1.350 . S
C1941 H1928 0.929 . S
C1941 C1933 1.433 . S
C1941 N1943 1.384 . S
N1942 C1938 1.427 . S
N1942 C1939 1.384 . S
N1943 C1935 1.427 . S
N1943 C1941 1.384 . S
H1944 C1950 0.930 . S
H1945 C1954 0.930 . S
H1946 C1959 0.929 . S
H1947 C1957 0.929 . S
H1948 C1952 0.929 . S
H1949 C1958 0.929 . S
C1950 H1944 0.930 . S
C1950 C1951 1.367 . S
C1950 C1958 1.378 . S
C1951 C1950 1.367 . S
C1951 C1959 1.433 . S
C1952 H1948 0.929 . S
C1952 C1954 1.378 . S
C1952 C1956 1.350 . S
C1953 C1956 1.463 . S
C1953 C1958 1.350 . S
C1953 N1961 1.427 . S
C1954 H1945 0.930 . S
C1954 C1952 1.378 . S
C1954 C1955 1.367 . S
C1955 C1954 1.367 . S
C1955 C1957 1.433 . S
C1956 C1952 1.350 . S
C1956 C1953 1.463 . S
C1956 N1960 1.427 . S
C1957 H1947 0.929 . S
C1957 C1955 1.433 . S
C1957 N1960 1.384 . S
C1958 H1949 0.929 . S
C1958 C1950 1.378 . S
C1958 C1953 1.350 . S
C1959 H1946 0.929 . S
C1959 C1951 1.433 . S
C1959 N1961 1.384 . S
N1960 C1956 1.427 . S
N1960 C1957 1.384 . S
N1961 C1953 1.427 . S
N1961 C1959 1.384 . S
H1962 C1968 0.930 . S
H1963 C1972 0.930 . S
H1964 C1977 0.929 . S
H1965 C1975 0.929 . S
H1966 C1970 0.929 . S
H1967 C1976 0.929 . S
C1968 H1962 0.930 . S
C1968 C1969 1.367 . S
C1968 C1976 1.378 . S
C1969 C1968 1.367 . S
C1969 C1977 1.433 . S
C1970 H1966 0.929 . S
C1970 C1972 1.378 . S
C1970 C1974 1.350 . S
C1971 C1974 1.463 . S
C1971 C1976 1.350 . S
C1971 N1979 1.427 . S
C1972 H1963 0.930 . S
C1972 C1970 1.378 . S
C1972 C1973 1.367 . S
C1973 C1972 1.367 . S
C1973 C1975 1.433 . S
C1974 C1970 1.350 . S
C1974 C1971 1.463 . S
C1974 N1978 1.427 . S
C1975 H1965 0.929 . S
C1975 C1973 1.433 . S
C1975 N1978 1.384 . S
C1976 H1967 0.929 . S
C1976 C1968 1.378 . S
C1976 C1971 1.350 . S
C1977 H1964 0.929 . S
C1977 C1969 1.433 . S
C1977 N1979 1.384 . S
N1978 C1974 1.427 . S
N1978 C1975 1.384 . S
N1979 C1971 1.427 . S
N1979 C1977 1.384 . S
H1980 C1986 0.930 . S
H1981 C1990 0.930 . S
H1982 C1995 0.929 . S
H1983 C1993 0.929 . S
H1984 C1988 0.929 . S
H1985 C1994 0.929 . S
C1986 H1980 0.930 . S
C1986 C1987 1.367 . S
C1986 C1994 1.378 . S
C1987 C1986 1.367 . S
C1987 C1995 1.433 . S
C1988 H1984 0.929 . S
C1988 C1990 1.378 . S
C1988 C1992 1.350 . S
C1989 C1992 1.463 . S
C1989 C1994 1.350 . S
C1989 N1997 1.427 . S
C1990 H1981 0.930 . S
C1990 C1988 1.378 . S
C1990 C1991 1.367 . S
C1991 C1990 1.367 . S
C1991 C1993 1.433 . S
C1992 C1988 1.350 . S
C1992 C1989 1.463 . S
C1992 N1996 1.427 . S
C1993 H1983 0.929 . S
C1993 C1991 1.433 . S
C1993 N1996 1.384 . S
C1994 H1985 0.929 . S
C1994 C1986 1.378 . S
C1994 C1989 1.350 . S
C1995 H1982 0.929 . S
C1995 C1987 1.433 . S
C1995 N1997 1.384 . S
N1996 C1992 1.427 . S
N1996 C1993 1.384 . S
N1997 C1989 1.427 . S
N1997 C1995 1.384 . S
H1998 C2004 0.930 . S
H1999 C2008 0.930 . S
H2000 C2013 0.929 . S
H2001 C2011 0.929 . S
H2002 C2006 0.929 . S
H2003 C2012 0.929 . S
C2004 H1998 0.930 . S
C2004 C2005 1.367 . S
C2004 C2012 1.378 . S
C2005 C2004 1.367 . S
C2005 C2013 1.433 . S
C2006 H2002 0.929 . S
C2006 C2008 1.378 . S
C2006 C2010 1.350 . S
C2007 C2010 1.463 . S
C2007 C2012 1.350 . S
C2007 N2015 1.427 . S
C2008 H1999 0.930 . S
C2008 C2006 1.378 . S
C2008 C2009 1.367 . S
C2009 C2008 1.367 . S
C2009 C2011 1.433 . S
C2010 C2006 1.350 . S
C2010 C2007 1.463 . S
C2010 N2014 1.427 . S
C2011 H2001 0.929 . S
C2011 C2009 1.433 . S
C2011 N2014 1.384 . S
C2012 H2003 0.929 . S
C2012 C2004 1.378 . S
C2012 C2007 1.350 . S
C2013 H2000 0.929 . S
C2013 C2005 1.433 . S
C2013 N2015 1.384 . S
N2014 C2010 1.427 . S
N2014 C2011 1.384 . S
N2015 C2007 1.427 . S
N2015 C2013 1.384 . S
H2016 C2022 0.930 . S
H2017 C2026 0.930 . S
H2018 C2031 0.929 . S
H2019 C2029 0.929 . S
H2020 C2024 0.929 . S
H2021 C2030 0.929 . S
C2022 H2016 0.930 . S
C2022 C2023 1.367 . S
C2022 C2030 1.378 . S
C2023 C2022 1.367 . S
C2023 C2031 1.433 . S
C2024 H2020 0.929 . S
C2024 C2026 1.378 . S
C2024 C2028 1.350 . S
C2025 C2028 1.463 . S
C2025 C2030 1.350 . S
C2025 N2033 1.427 . S
C2026 H2017 0.930 . S
C2026 C2024 1.378 . S
C2026 C2027 1.367 . S
C2027 C2026 1.367 . S
C2027 C2029 1.433 . S
C2028 C2024 1.350 . S
C2028 C2025 1.463 . S
C2028 N2032 1.427 . S
C2029 H2019 0.929 . S
C2029 C2027 1.433 . S
C2029 N2032 1.384 . S
C2030 H2021 0.929 . S
C2030 C2022 1.378 . S
C2030 C2025 1.350 . S
C2031 H2018 0.929 . S
C2031 C2023 1.433 . S
C2031 N2033 1.384 . S
N2032 C2028 1.427 . S
N2032 C2029 1.384 . S
N2033 C2025 1.427 . S
N2033 C2031 1.384 . S
H2034 C2040 0.930 . S
H2035 C2044 0.930 . S
H2036 C2049 0.929 . S
H2037 C2047 0.929 . S
H2038 C2042 0.929 . S
H2039 C2048 0.929 . S
C2040 H2034 0.930 . S
C2040 C2041 1.367 . S
C2040 C2048 1.378 . S
C2041 C2040 1.367 . S
C2041 C2049 1.433 . S
C2042 H2038 0.929 . S
C2042 C2044 1.378 . S
C2042 C2046 1.350 . S
C2043 C2046 1.463 . S
C2043 C2048 1.350 . S
C2043 N2051 1.427 . S
C2044 H2035 0.930 . S
C2044 C2042 1.378 . S
C2044 C2045 1.367 . S
C2045 C2044 1.367 . S
C2045 C2047 1.433 . S
C2046 C2042 1.350 . S
C2046 C2043 1.463 . S
C2046 N2050 1.427 . S
C2047 H2037 0.929 . S
C2047 C2045 1.433 . S
C2047 N2050 1.384 . S
C2048 H2039 0.929 . S
C2048 C2040 1.378 . S
C2048 C2043 1.350 . S
C2049 H2036 0.929 . S
C2049 C2041 1.433 . S
C2049 N2051 1.384 . S
N2050 C2046 1.427 . S
N2050 C2047 1.384 . S
N2051 C2043 1.427 . S
N2051 C2049 1.384 . S
H2052 C2058 0.930 . S
H2053 C2062 0.930 . S
H2054 C2067 0.929 . S
H2055 C2065 0.929 . S
H2056 C2060 0.929 . S
H2057 C2066 0.929 . S
C2058 H2052 0.930 . S
C2058 C2059 1.367 . S
C2058 C2066 1.378 . S
C2059 C2058 1.367 . S
C2059 C2067 1.433 . S
C2060 H2056 0.929 . S
C2060 C2062 1.378 . S
C2060 C2064 1.350 . S
C2061 C2064 1.463 . S
C2061 C2066 1.350 . S
C2061 N2069 1.427 . S
C2062 H2053 0.930 . S
C2062 C2060 1.378 . S
C2062 C2063 1.367 . S
C2063 C2062 1.367 . S
C2063 C2065 1.433 . S
C2064 C2060 1.350 . S
C2064 C2061 1.463 . S
C2064 N2068 1.427 . S
C2065 H2055 0.929 . S
C2065 C2063 1.433 . S
C2065 N2068 1.384 . S
C2066 H2057 0.929 . S
C2066 C2058 1.378 . S
C2066 C2061 1.350 . S
C2067 H2054 0.929 . S
C2067 C2059 1.433 . S
C2067 N2069 1.384 . S
N2068 C2064 1.427 . S
N2068 C2065 1.384 . S
N2069 C2061 1.427 . S
N2069 C2067 1.384 . S
H2070 C2076 0.930 . S
H2071 C2080 0.930 . S
H2072 C2085 0.929 . S
H2073 C2083 0.929 . S
H2074 C2078 0.929 . S
H2075 C2084 0.929 . S
C2076 H2070 0.930 . S
C2076 C2077 1.367 . S
C2076 C2084 1.378 . S
C2077 C2076 1.367 . S
C2077 C2085 1.433 . S
C2078 H2074 0.929 . S
C2078 C2080 1.378 . S
C2078 C2082 1.350 . S
C2079 C2082 1.463 . S
C2079 C2084 1.350 . S
C2079 N2087 1.427 . S
C2080 H2071 0.930 . S
C2080 C2078 1.378 . S
C2080 C2081 1.367 . S
C2081 C2080 1.367 . S
C2081 C2083 1.433 . S
C2082 C2078 1.350 . S
C2082 C2079 1.463 . S
C2082 N2086 1.427 . S
C2083 H2073 0.929 . S
C2083 C2081 1.433 . S
C2083 N2086 1.384 . S
C2084 H2075 0.929 . S
C2084 C2076 1.378 . S
C2084 C2079 1.350 . S
C2085 H2072 0.929 . S
C2085 C2077 1.433 . S
C2085 N2087 1.384 . S
N2086 C2082 1.427 . S
N2086 C2083 1.384 . S
N2087 C2079 1.427 . S
N2087 C2085 1.384 . S
H2088 C2094 0.930 . S
H2089 C2098 0.930 . S
H2090 C2103 0.929 . S
H2091 C2101 0.929 . S
H2092 C2096 0.929 . S
H2093 C2102 0.929 . S
C2094 H2088 0.930 . S
C2094 C2095 1.367 . S
C2094 C2102 1.378 . S
C2095 C2094 1.367 . S
C2095 C2103 1.433 . S
C2096 H2092 0.929 . S
C2096 C2098 1.378 . S
C2096 C2100 1.350 . S
C2097 C2100 1.463 . S
C2097 C2102 1.350 . S
C2097 N2105 1.427 . S
C2098 H2089 0.930 . S
C2098 C2096 1.378 . S
C2098 C2099 1.367 . S
C2099 C2098 1.367 . S
C2099 C2101 1.433 . S
C2100 C2096 1.350 . S
C2100 C2097 1.463 . S
C2100 N2104 1.427 . S
C2101 H2091 0.929 . S
C2101 C2099 1.433 . S
C2101 N2104 1.384 . S
C2102 H2093 0.929 . S
C2102 C2094 1.378 . S
C2102 C2097 1.350 . S
C2103 H2090 0.929 . S
C2103 C2095 1.433 . S
C2103 N2105 1.384 . S
N2104 C2100 1.427 . S
N2104 C2101 1.384 . S
N2105 C2097 1.427 . S
N2105 C2103 1.384 . S
H2106 C2112 0.930 . S
H2107 C2116 0.930 . S
H2108 C2121 0.929 . S
H2109 C2119 0.929 . S
H2110 C2114 0.929 . S
H2111 C2120 0.929 . S
C2112 H2106 0.930 . S
C2112 C2113 1.367 . S
C2112 C2120 1.378 . S
C2113 C2112 1.367 . S
C2113 C2121 1.433 . S
C2114 H2110 0.929 . S
C2114 C2116 1.378 . S
C2114 C2118 1.350 . S
C2115 C2118 1.463 . S
C2115 C2120 1.350 . S
C2115 N2123 1.427 . S
C2116 H2107 0.930 . S
C2116 C2114 1.378 . S
C2116 C2117 1.367 . S
C2117 C2116 1.367 . S
C2117 C2119 1.433 . S
C2118 C2114 1.350 . S
C2118 C2115 1.463 . S
C2118 N2122 1.427 . S
C2119 H2109 0.929 . S
C2119 C2117 1.433 . S
C2119 N2122 1.384 . S
C2120 H2111 0.929 . S
C2120 C2112 1.378 . S
C2120 C2115 1.350 . S
C2121 H2108 0.929 . S
C2121 C2113 1.433 . S
C2121 N2123 1.384 . S
N2122 C2118 1.427 . S
N2122 C2119 1.384 . S
N2123 C2115 1.427 . S
N2123 C2121 1.384 . S
H2124 C2130 0.930 . S
H2125 C2134 0.930 . S
H2126 C2139 0.929 . S
H2127 C2137 0.929 . S
H2128 C2132 0.929 . S
H2129 C2138 0.929 . S
C2130 H2124 0.930 . S
C2130 C2131 1.367 . S
C2130 C2138 1.378 . S
C2131 C2130 1.367 . S
C2131 C2139 1.433 . S
C2132 H2128 0.929 . S
C2132 C2134 1.378 . S
C2132 C2136 1.350 . S
C2133 C2136 1.463 . S
C2133 C2138 1.350 . S
C2133 N2141 1.427 . S
C2134 H2125 0.930 . S
C2134 C2132 1.378 . S
C2134 C2135 1.367 . S
C2135 C2134 1.367 . S
C2135 C2137 1.433 . S
C2136 C2132 1.350 . S
C2136 C2133 1.463 . S
C2136 N2140 1.427 . S
C2137 H2127 0.929 . S
C2137 C2135 1.433 . S
C2137 N2140 1.384 . S
C2138 H2129 0.929 . S
C2138 C2130 1.378 . S
C2138 C2133 1.350 . S
C2139 H2126 0.929 . S
C2139 C2131 1.433 . S
C2139 N2141 1.384 . S
N2140 C2136 1.427 . S
N2140 C2137 1.384 . S
N2141 C2133 1.427 . S
N2141 C2139 1.384 . S
H2142 C2148 0.930 . S
H2143 C2152 0.930 . S
H2144 C2157 0.929 . S
H2145 C2155 0.929 . S
H2146 C2150 0.929 . S
H2147 C2156 0.929 . S
C2148 H2142 0.930 . S
C2148 C2149 1.367 . S
C2148 C2156 1.378 . S
C2149 C2148 1.367 . S
C2149 C2157 1.433 . S
C2150 H2146 0.929 . S
C2150 C2152 1.378 . S
C2150 C2154 1.350 . S
C2151 C2154 1.463 . S
C2151 C2156 1.350 . S
C2151 N2159 1.427 . S
C2152 H2143 0.930 . S
C2152 C2150 1.378 . S
C2152 C2153 1.367 . S
C2153 C2152 1.367 . S
C2153 C2155 1.433 . S
C2154 C2150 1.350 . S
C2154 C2151 1.463 . S
C2154 N2158 1.427 . S
C2155 H2145 0.929 . S
C2155 C2153 1.433 . S
C2155 N2158 1.384 . S
C2156 H2147 0.929 . S
C2156 C2148 1.378 . S
C2156 C2151 1.350 . S
C2157 H2144 0.929 . S
C2157 C2149 1.433 . S
C2157 N2159 1.384 . S
N2158 C2154 1.427 . S
N2158 C2155 1.384 . S
N2159 C2151 1.427 . S
N2159 C2157 1.384 . S
H2160 C2166 0.930 . S
H2161 C2170 0.930 . S
H2162 C2175 0.929 . S
H2163 C2173 0.929 . S
H2164 C2168 0.929 . S
H2165 C2174 0.929 . S
C2166 H2160 0.930 . S
C2166 C2167 1.367 . S
C2166 C2174 1.378 . S
C2167 C2166 1.367 . S
C2167 C2175 1.433 . S
C2168 H2164 0.929 . S
C2168 C2170 1.378 . S
C2168 C2172 1.350 . S
C2169 C2172 1.463 . S
C2169 C2174 1.350 . S
C2169 N2177 1.427 . S
C2170 H2161 0.930 . S
C2170 C2168 1.378 . S
C2170 C2171 1.367 . S
C2171 C2170 1.367 . S
C2171 C2173 1.433 . S
C2172 C2168 1.350 . S
C2172 C2169 1.463 . S
C2172 N2176 1.427 . S
C2173 H2163 0.929 . S
C2173 C2171 1.433 . S
C2173 N2176 1.384 . S
C2174 H2165 0.929 . S
C2174 C2166 1.378 . S
C2174 C2169 1.350 . S
C2175 H2162 0.929 . S
C2175 C2167 1.433 . S
C2175 N2177 1.384 . S
N2176 C2172 1.427 . S
N2176 C2173 1.384 . S
N2177 C2169 1.427 . S
N2177 C2175 1.384 . S
H2178 C2184 0.930 . S
H2179 C2188 0.930 . S
H2180 C2193 0.929 . S
H2181 C2191 0.929 . S
H2182 C2186 0.929 . S
H2183 C2192 0.929 . S
C2184 H2178 0.930 . S
C2184 C2185 1.367 . S
C2184 C2192 1.378 . S
C2185 C2184 1.367 . S
C2185 C2193 1.433 . S
C2186 H2182 0.929 . S
C2186 C2188 1.378 . S
C2186 C2190 1.350 . S
C2187 C2190 1.463 . S
C2187 C2192 1.350 . S
C2187 N2195 1.427 . S
C2188 H2179 0.930 . S
C2188 C2186 1.378 . S
C2188 C2189 1.367 . S
C2189 C2188 1.367 . S
C2189 C2191 1.433 . S
C2190 C2186 1.350 . S
C2190 C2187 1.463 . S
C2190 N2194 1.427 . S
C2191 H2181 0.929 . S
C2191 C2189 1.433 . S
C2191 N2194 1.384 . S
C2192 H2183 0.929 . S
C2192 C2184 1.378 . S
C2192 C2187 1.350 . S
C2193 H2180 0.929 . S
C2193 C2185 1.433 . S
C2193 N2195 1.384 . S
N2194 C2190 1.427 . S
N2194 C2191 1.384 . S
N2195 C2187 1.427 . S
N2195 C2193 1.384 . S
H2196 C2202 0.930 . S
H2197 C2206 0.930 . S
H2198 C2211 0.929 . S
H2199 C2209 0.929 . S
H2200 C2204 0.929 . S
H2201 C2210 0.929 . S
C2202 H2196 0.930 . S
C2202 C2203 1.367 . S
C2202 C2210 1.378 . S
C2203 C2202 1.367 . S
C2203 C2211 1.433 . S
C2204 H2200 0.929 . S
C2204 C2206 1.378 . S
C2204 C2208 1.350 . S
C2205 C2208 1.463 . S
C2205 C2210 1.350 . S
C2205 N2213 1.427 . S
C2206 H2197 0.930 . S
C2206 C2204 1.378 . S
C2206 C2207 1.367 . S
C2207 C2206 1.367 . S
C2207 C2209 1.433 . S
C2208 C2204 1.350 . S
C2208 C2205 1.463 . S
C2208 N2212 1.427 . S
C2209 H2199 0.929 . S
C2209 C2207 1.433 . S
C2209 N2212 1.384 . S
C2210 H2201 0.929 . S
C2210 C2202 1.378 . S
C2210 C2205 1.350 . S
C2211 H2198 0.929 . S
C2211 C2203 1.433 . S
C2211 N2213 1.384 . S
N2212 C2208 1.427 . S
N2212 C2209 1.384 . S
N2213 C2205 1.427 . S
N2213 C2211 1.384 . S
H2214 C2220 0.930 . S
H2215 C2224 0.930 . S
H2216 C2229 0.929 . S
H2217 C2227 0.929 . S
H2218 C2222 0.929 . S
H2219 C2228 0.929 . S
C2220 H2214 0.930 . S
C2220 C2221 1.367 . S
C2220 C2228 1.378 . S
C2221 C2220 1.367 . S
C2221 C2229 1.433 . S
C2222 H2218 0.929 . S
C2222 C2224 1.378 . S
C2222 C2226 1.350 . S
C2223 C2226 1.463 . S
C2223 C2228 1.350 . S
C2223 N2231 1.427 . S
C2224 H2215 0.930 . S
C2224 C2222 1.378 . S
C2224 C2225 1.367 . S
C2225 C2224 1.367 . S
C2225 C2227 1.433 . S
C2226 C2222 1.350 . S
C2226 C2223 1.463 . S
C2226 N2230 1.427 . S
C2227 H2217 0.929 . S
C2227 C2225 1.433 . S
C2227 N2230 1.384 . S
C2228 H2219 0.929 . S
C2228 C2220 1.378 . S
C2228 C2223 1.350 . S
C2229 H2216 0.929 . S
C2229 C2221 1.433 . S
C2229 N2231 1.384 . S
N2230 C2226 1.427 . S
N2230 C2227 1.384 . S
N2231 C2223 1.427 . S
N2231 C2229 1.384 . S
H2232 C2238 0.930 . S
H2233 C2242 0.930 . S
H2234 C2247 0.929 . S
H2235 C2245 0.929 . S
H2236 C2240 0.929 . S
H2237 C2246 0.929 . S
C2238 H2232 0.930 . S
C2238 C2239 1.367 . S
C2238 C2246 1.378 . S
C2239 C2238 1.367 . S
C2239 C2247 1.433 . S
C2240 H2236 0.929 . S
C2240 C2242 1.378 . S
C2240 C2244 1.350 . S
C2241 C2244 1.463 . S
C2241 C2246 1.350 . S
C2241 N2249 1.427 . S
C2242 H2233 0.930 . S
C2242 C2240 1.378 . S
C2242 C2243 1.367 . S
C2243 C2242 1.367 . S
C2243 C2245 1.433 . S
C2244 C2240 1.350 . S
C2244 C2241 1.463 . S
C2244 N2248 1.427 . S
C2245 H2235 0.929 . S
C2245 C2243 1.433 . S
C2245 N2248 1.384 . S
C2246 H2237 0.929 . S
C2246 C2238 1.378 . S
C2246 C2241 1.350 . S
C2247 H2234 0.929 . S
C2247 C2239 1.433 . S
C2247 N2249 1.384 . S
N2248 C2244 1.427 . S
N2248 C2245 1.384 . S
N2249 C2241 1.427 . S
N2249 C2247 1.384 . S
H2250 C2256 0.930 . S
H2251 C2260 0.930 . S
H2252 C2265 0.929 . S
H2253 C2263 0.929 . S
H2254 C2258 0.929 . S
H2255 C2264 0.929 . S
C2256 H2250 0.930 . S
C2256 C2257 1.367 . S
C2256 C2264 1.378 . S
C2257 C2256 1.367 . S
C2257 C2265 1.433 . S
C2258 H2254 0.929 . S
C2258 C2260 1.378 . S
C2258 C2262 1.350 . S
C2259 C2262 1.463 . S
C2259 C2264 1.350 . S
C2259 N2267 1.427 . S
C2260 H2251 0.930 . S
C2260 C2258 1.378 . S
C2260 C2261 1.367 . S
C2261 C2260 1.367 . S
C2261 C2263 1.433 . S
C2262 C2258 1.350 . S
C2262 C2259 1.463 . S
C2262 N2266 1.427 . S
C2263 H2253 0.929 . S
C2263 C2261 1.433 . S
C2263 N2266 1.384 . S
C2264 H2255 0.929 . S
C2264 C2256 1.378 . S
C2264 C2259 1.350 . S
C2265 H2252 0.929 . S
C2265 C2257 1.433 . S
C2265 N2267 1.384 . S
N2266 C2262 1.427 . S
N2266 C2263 1.384 . S
N2267 C2259 1.427 . S
N2267 C2265 1.384 . S
H2268 C2274 0.930 . S
H2269 C2278 0.930 . S
H2270 C2283 0.929 . S
H2271 C2281 0.929 . S
H2272 C2276 0.929 . S
H2273 C2282 0.929 . S
C2274 H2268 0.930 . S
C2274 C2275 1.367 . S
C2274 C2282 1.378 . S
C2275 C2274 1.367 . S
C2275 C2283 1.433 . S
C2276 H2272 0.929 . S
C2276 C2278 1.378 . S
C2276 C2280 1.350 . S
C2277 C2280 1.463 . S
C2277 C2282 1.350 . S
C2277 N2285 1.427 . S
C2278 H2269 0.930 . S
C2278 C2276 1.378 . S
C2278 C2279 1.367 . S
C2279 C2278 1.367 . S
C2279 C2281 1.433 . S
C2280 C2276 1.350 . S
C2280 C2277 1.463 . S
C2280 N2284 1.427 . S
C2281 H2271 0.929 . S
C2281 C2279 1.433 . S
C2281 N2284 1.384 . S
C2282 H2273 0.929 . S
C2282 C2274 1.378 . S
C2282 C2277 1.350 . S
C2283 H2270 0.929 . S
C2283 C2275 1.433 . S
C2283 N2285 1.384 . S
N2284 C2280 1.427 . S
N2284 C2281 1.384 . S
N2285 C2277 1.427 . S
N2285 C2283 1.384 . S
H2286 C2292 0.930 . S
H2287 C2296 0.930 . S
H2288 C2301 0.929 . S
H2289 C2299 0.929 . S
H2290 C2294 0.929 . S
H2291 C2300 0.929 . S
C2292 H2286 0.930 . S
C2292 C2293 1.367 . S
C2292 C2300 1.378 . S
C2293 C2292 1.367 . S
C2293 C2301 1.433 . S
C2294 H2290 0.929 . S
C2294 C2296 1.378 . S
C2294 C2298 1.350 . S
C2295 C2298 1.463 . S
C2295 C2300 1.350 . S
C2295 N2303 1.427 . S
C2296 H2287 0.930 . S
C2296 C2294 1.378 . S
C2296 C2297 1.367 . S
C2297 C2296 1.367 . S
C2297 C2299 1.433 . S
C2298 C2294 1.350 . S
C2298 C2295 1.463 . S
C2298 N2302 1.427 . S
C2299 H2289 0.929 . S
C2299 C2297 1.433 . S
C2299 N2302 1.384 . S
C2300 H2291 0.929 . S
C2300 C2292 1.378 . S
C2300 C2295 1.350 . S
C2301 H2288 0.929 . S
C2301 C2293 1.433 . S
C2301 N2303 1.384 . S
N2302 C2298 1.427 . S
N2302 C2299 1.384 . S
N2303 C2295 1.427 . S
N2303 C2301 1.384 . S
H2304 C2310 0.930 . S
H2305 C2314 0.930 . S
H2306 C2319 0.929 . S
H2307 C2317 0.929 . S
H2308 C2312 0.929 . S
H2309 C2318 0.929 . S
C2310 H2304 0.930 . S
C2310 C2311 1.367 . S
C2310 C2318 1.378 . S
C2311 C2310 1.367 . S
C2311 C2319 1.433 . S
C2312 H2308 0.929 . S
C2312 C2314 1.378 . S
C2312 C2316 1.350 . S
C2313 C2316 1.463 . S
C2313 C2318 1.350 . S
C2313 N2321 1.427 . S
C2314 H2305 0.930 . S
C2314 C2312 1.378 . S
C2314 C2315 1.367 . S
C2315 C2314 1.367 . S
C2315 C2317 1.433 . S
C2316 C2312 1.350 . S
C2316 C2313 1.463 . S
C2316 N2320 1.427 . S
C2317 H2307 0.929 . S
C2317 C2315 1.433 . S
C2317 N2320 1.384 . S
C2318 H2309 0.929 . S
C2318 C2310 1.378 . S
C2318 C2313 1.350 . S
C2319 H2306 0.929 . S
C2319 C2311 1.433 . S
C2319 N2321 1.384 . S
N2320 C2316 1.427 . S
N2320 C2317 1.384 . S
N2321 C2313 1.427 . S
N2321 C2319 1.384 . S
H2322 C2328 0.930 . S
H2323 C2332 0.930 . S
H2324 C2337 0.929 . S
H2325 C2335 0.929 . S
H2326 C2330 0.929 . S
H2327 C2336 0.929 . S
C2328 H2322 0.930 . S
C2328 C2329 1.367 . S
C2328 C2336 1.378 . S
C2329 C2328 1.367 . S
C2329 C2337 1.433 . S
C2330 H2326 0.929 . S
C2330 C2332 1.378 . S
C2330 C2334 1.350 . S
C2331 C2334 1.463 . S
C2331 C2336 1.350 . S
C2331 N2339 1.427 . S
C2332 H2323 0.930 . S
C2332 C2330 1.378 . S
C2332 C2333 1.367 . S
C2333 C2332 1.367 . S
C2333 C2335 1.433 . S
C2334 C2330 1.350 . S
C2334 C2331 1.463 . S
C2334 N2338 1.427 . S
C2335 H2325 0.929 . S
C2335 C2333 1.433 . S
C2335 N2338 1.384 . S
C2336 H2327 0.929 . S
C2336 C2328 1.378 . S
C2336 C2331 1.350 . S
C2337 H2324 0.929 . S
C2337 C2329 1.433 . S
C2337 N2339 1.384 . S
N2338 C2334 1.427 . S
N2338 C2335 1.384 . S
N2339 C2331 1.427 . S
N2339 C2337 1.384 . S
H2340 C2346 0.930 . S
H2341 C2350 0.930 . S
H2342 C2355 0.929 . S
H2343 C2353 0.929 . S
H2344 C2348 0.929 . S
H2345 C2354 0.929 . S
C2346 H2340 0.930 . S
C2346 C2347 1.367 . S
C2346 C2354 1.378 . S
C2347 C2346 1.367 . S
C2347 C2355 1.433 . S
C2348 H2344 0.929 . S
C2348 C2350 1.378 . S
C2348 C2352 1.350 . S
C2349 C2352 1.463 . S
C2349 C2354 1.350 . S
C2349 N2357 1.427 . S
C2350 H2341 0.930 . S
C2350 C2348 1.378 . S
C2350 C2351 1.367 . S
C2351 C2350 1.367 . S
C2351 C2353 1.433 . S
C2352 C2348 1.350 . S
C2352 C2349 1.463 . S
C2352 N2356 1.427 . S
C2353 H2343 0.929 . S
C2353 C2351 1.433 . S
C2353 N2356 1.384 . S
C2354 H2345 0.929 . S
C2354 C2346 1.378 . S
C2354 C2349 1.350 . S
C2355 H2342 0.929 . S
C2355 C2347 1.433 . S
C2355 N2357 1.384 . S
N2356 C2352 1.427 . S
N2356 C2353 1.384 . S
N2357 C2349 1.427 . S
N2357 C2355 1.384 . S
H2358 C2364 0.930 . S
H2359 C2368 0.930 . S
H2360 C2373 0.929 . S
H2361 C2371 0.929 . S
H2362 C2366 0.929 . S
H2363 C2372 0.929 . S
C2364 H2358 0.930 . S
C2364 C2365 1.367 . S
C2364 C2372 1.378 . S
C2365 C2364 1.367 . S
C2365 C2373 1.433 . S
C2366 H2362 0.929 . S
C2366 C2368 1.378 . S
C2366 C2370 1.350 . S
C2367 C2370 1.463 . S
C2367 C2372 1.350 . S
C2367 N2375 1.427 . S
C2368 H2359 0.930 . S
C2368 C2366 1.378 . S
C2368 C2369 1.367 . S
C2369 C2368 1.367 . S
C2369 C2371 1.433 . S
C2370 C2366 1.350 . S
C2370 C2367 1.463 . S
C2370 N2374 1.427 . S
C2371 H2361 0.929 . S
C2371 C2369 1.433 . S
C2371 N2374 1.384 . S
C2372 H2363 0.929 . S
C2372 C2364 1.378 . S
C2372 C2367 1.350 . S
C2373 H2360 0.929 . S
C2373 C2365 1.433 . S
C2373 N2375 1.384 . S
N2374 C2370 1.427 . S
N2374 C2371 1.384 . S
N2375 C2367 1.427 . S
N2375 C2373 1.384 . S
H2376 C2382 0.930 . S
H2377 C2386 0.930 . S
H2378 C2391 0.929 . S
H2379 C2389 0.929 . S
H2380 C2384 0.929 . S
H2381 C2390 0.929 . S
C2382 H2376 0.930 . S
C2382 C2383 1.367 . S
C2382 C2390 1.378 . S
C2383 C2382 1.367 . S
C2383 C2391 1.433 . S
C2384 H2380 0.929 . S
C2384 C2386 1.378 . S
C2384 C2388 1.350 . S
C2385 C2388 1.463 . S
C2385 C2390 1.350 . S
C2385 N2393 1.427 . S
C2386 H2377 0.930 . S
C2386 C2384 1.378 . S
C2386 C2387 1.367 . S
C2387 C2386 1.367 . S
C2387 C2389 1.433 . S
C2388 C2384 1.350 . S
C2388 C2385 1.463 . S
C2388 N2392 1.427 . S
C2389 H2379 0.929 . S
C2389 C2387 1.433 . S
C2389 N2392 1.384 . S
C2390 H2381 0.929 . S
C2390 C2382 1.378 . S
C2390 C2385 1.350 . S
C2391 H2378 0.929 . S
C2391 C2383 1.433 . S
C2391 N2393 1.384 . S
N2392 C2388 1.427 . S
N2392 C2389 1.384 . S
N2393 C2385 1.427 . S
N2393 C2391 1.384 . S
H2394 C2400 0.930 . S
H2395 C2404 0.930 . S
H2396 C2409 0.929 . S
H2397 C2407 0.929 . S
H2398 C2402 0.929 . S
H2399 C2408 0.929 . S
C2400 H2394 0.930 . S
C2400 C2401 1.367 . S
C2400 C2408 1.378 . S
C2401 C2400 1.367 . S
C2401 C2409 1.433 . S
C2402 H2398 0.929 . S
C2402 C2404 1.378 . S
C2402 C2406 1.350 . S
C2403 C2406 1.463 . S
C2403 C2408 1.350 . S
C2403 N2411 1.427 . S
C2404 H2395 0.930 . S
C2404 C2402 1.378 . S
C2404 C2405 1.367 . S
C2405 C2404 1.367 . S
C2405 C2407 1.433 . S
C2406 C2402 1.350 . S
C2406 C2403 1.463 . S
C2406 N2410 1.427 . S
C2407 H2397 0.929 . S
C2407 C2405 1.433 . S
C2407 N2410 1.384 . S
C2408 H2399 0.929 . S
C2408 C2400 1.378 . S
C2408 C2403 1.350 . S
C2409 H2396 0.929 . S
C2409 C2401 1.433 . S
C2409 N2411 1.384 . S
N2410 C2406 1.427 . S
N2410 C2407 1.384 . S
N2411 C2403 1.427 . S
N2411 C2409 1.384 . S
H2412 C2418 0.930 . S
H2413 C2422 0.930 . S
H2414 C2427 0.929 . S
H2415 C2425 0.929 . S
H2416 C2420 0.929 . S
H2417 C2426 0.929 . S
C2418 H2412 0.930 . S
C2418 C2419 1.367 . S
C2418 C2426 1.378 . S
C2419 C2418 1.367 . S
C2419 C2427 1.433 . S
C2420 H2416 0.929 . S
C2420 C2422 1.378 . S
C2420 C2424 1.350 . S
C2421 C2424 1.463 . S
C2421 C2426 1.350 . S
C2421 N2429 1.427 . S
C2422 H2413 0.930 . S
C2422 C2420 1.378 . S
C2422 C2423 1.367 . S
C2423 C2422 1.367 . S
C2423 C2425 1.433 . S
C2424 C2420 1.350 . S
C2424 C2421 1.463 . S
C2424 N2428 1.427 . S
C2425 H2415 0.929 . S
C2425 C2423 1.433 . S
C2425 N2428 1.384 . S
C2426 H2417 0.929 . S
C2426 C2418 1.378 . S
C2426 C2421 1.350 . S
C2427 H2414 0.929 . S
C2427 C2419 1.433 . S
C2427 N2429 1.384 . S
N2428 C2424 1.427 . S
N2428 C2425 1.384 . S
N2429 C2421 1.427 . S
N2429 C2427 1.384 . S
H2430 C2436 0.930 . S
H2431 C2440 0.930 . S
H2432 C2445 0.929 . S
H2433 C2443 0.929 . S
H2434 C2438 0.929 . S
H2435 C2444 0.929 . S
C2436 H2430 0.930 . S
C2436 C2437 1.367 . S
C2436 C2444 1.378 . S
C2437 C2436 1.367 . S
C2437 C2445 1.433 . S
C2438 H2434 0.929 . S
C2438 C2440 1.378 . S
C2438 C2442 1.350 . S
C2439 C2442 1.463 . S
C2439 C2444 1.350 . S
C2439 N2447 1.427 . S
C2440 H2431 0.930 . S
C2440 C2438 1.378 . S
C2440 C2441 1.367 . S
C2441 C2440 1.367 . S
C2441 C2443 1.433 . S
C2442 C2438 1.350 . S
C2442 C2439 1.463 . S
C2442 N2446 1.427 . S
C2443 H2433 0.929 . S
C2443 C2441 1.433 . S
C2443 N2446 1.384 . S
C2444 H2435 0.929 . S
C2444 C2436 1.378 . S
C2444 C2439 1.350 . S
C2445 H2432 0.929 . S
C2445 C2437 1.433 . S
C2445 N2447 1.384 . S
N2446 C2442 1.427 . S
N2446 C2443 1.384 . S
N2447 C2439 1.427 . S
N2447 C2445 1.384 . S
H2448 C2454 0.930 . S
H2449 C2458 0.930 . S
H2450 C2463 0.929 . S
H2451 C2461 0.929 . S
H2452 C2456 0.929 . S
H2453 C2462 0.929 . S
C2454 H2448 0.930 . S
C2454 C2455 1.367 . S
C2454 C2462 1.378 . S
C2455 C2454 1.367 . S
C2455 C2463 1.433 . S
C2456 H2452 0.929 . S
C2456 C2458 1.378 . S
C2456 C2460 1.350 . S
C2457 C2460 1.463 . S
C2457 C2462 1.350 . S
C2457 N2465 1.427 . S
C2458 H2449 0.930 . S
C2458 C2456 1.378 . S
C2458 C2459 1.367 . S
C2459 C2458 1.367 . S
C2459 C2461 1.433 . S
C2460 C2456 1.350 . S
C2460 C2457 1.463 . S
C2460 N2464 1.427 . S
C2461 H2451 0.929 . S
C2461 C2459 1.433 . S
C2461 N2464 1.384 . S
C2462 H2453 0.929 . S
C2462 C2454 1.378 . S
C2462 C2457 1.350 . S
C2463 H2450 0.929 . S
C2463 C2455 1.433 . S
C2463 N2465 1.384 . S
N2464 C2460 1.427 . S
N2464 C2461 1.384 . S
N2465 C2457 1.427 . S
N2465 C2463 1.384 . S
H2466 C2472 0.930 . S
H2467 C2476 0.930 . S
H2468 C2481 0.929 . S
H2469 C2479 0.929 . S
H2470 C2474 0.929 . S
H2471 C2480 0.929 . S
C2472 H2466 0.930 . S
C2472 C2473 1.367 . S
C2472 C2480 1.378 . S
C2473 C2472 1.367 . S
C2473 C2481 1.433 . S
C2474 H2470 0.929 . S
C2474 C2476 1.378 . S
C2474 C2478 1.350 . S
C2475 C2478 1.463 . S
C2475 C2480 1.350 . S
C2475 N2483 1.427 . S
C2476 H2467 0.930 . S
C2476 C2474 1.378 . S
C2476 C2477 1.367 . S
C2477 C2476 1.367 . S
C2477 C2479 1.433 . S
C2478 C2474 1.350 . S
C2478 C2475 1.463 . S
C2478 N2482 1.427 . S
C2479 H2469 0.929 . S
C2479 C2477 1.433 . S
C2479 N2482 1.384 . S
C2480 H2471 0.929 . S
C2480 C2472 1.378 . S
C2480 C2475 1.350 . S
C2481 H2468 0.929 . S
C2481 C2473 1.433 . S
C2481 N2483 1.384 . S
N2482 C2478 1.427 . S
N2482 C2479 1.384 . S
N2483 C2475 1.427 . S
N2483 C2481 1.384 . S
H2484 C2490 0.930 . S
H2485 C2494 0.930 . S
H2486 C2499 0.929 . S
H2487 C2497 0.929 . S
H2488 C2492 0.929 . S
H2489 C2498 0.929 . S
C2490 H2484 0.930 . S
C2490 C2491 1.367 . S
C2490 C2498 1.378 . S
C2491 C2490 1.367 . S
C2491 C2499 1.433 . S
C2492 H2488 0.929 . S
C2492 C2494 1.378 . S
C2492 C2496 1.350 . S
C2493 C2496 1.463 . S
C2493 C2498 1.350 . S
C2493 N2501 1.427 . S
C2494 H2485 0.930 . S
C2494 C2492 1.378 . S
C2494 C2495 1.367 . S
C2495 C2494 1.367 . S
C2495 C2497 1.433 . S
C2496 C2492 1.350 . S
C2496 C2493 1.463 . S
C2496 N2500 1.427 . S
C2497 H2487 0.929 . S
C2497 C2495 1.433 . S
C2497 N2500 1.384 . S
C2498 H2489 0.929 . S
C2498 C2490 1.378 . S
C2498 C2493 1.350 . S
C2499 H2486 0.929 . S
C2499 C2491 1.433 . S
C2499 N2501 1.384 . S
N2500 C2496 1.427 . S
N2500 C2497 1.384 . S
N2501 C2493 1.427 . S
N2501 C2499 1.384 . S
H2502 C2508 0.930 . S
H2503 C2512 0.930 . S
H2504 C2517 0.929 . S
H2505 C2515 0.929 . S
H2506 C2510 0.929 . S
H2507 C2516 0.929 . S
C2508 H2502 0.930 . S
C2508 C2509 1.367 . S
C2508 C2516 1.378 . S
C2509 C2508 1.367 . S
C2509 C2517 1.433 . S
C2510 H2506 0.929 . S
C2510 C2512 1.378 . S
C2510 C2514 1.350 . S
C2511 C2514 1.463 . S
C2511 C2516 1.350 . S
C2511 N2519 1.427 . S
C2512 H2503 0.930 . S
C2512 C2510 1.378 . S
C2512 C2513 1.367 . S
C2513 C2512 1.367 . S
C2513 C2515 1.433 . S
C2514 C2510 1.350 . S
C2514 C2511 1.463 . S
C2514 N2518 1.427 . S
C2515 H2505 0.929 . S
C2515 C2513 1.433 . S
C2515 N2518 1.384 . S
C2516 H2507 0.929 . S
C2516 C2508 1.378 . S
C2516 C2511 1.350 . S
C2517 H2504 0.929 . S
C2517 C2509 1.433 . S
C2517 N2519 1.384 . S
N2518 C2514 1.427 . S
N2518 C2515 1.384 . S
N2519 C2511 1.427 . S
N2519 C2517 1.384 . S
H2520 C2526 0.930 . S
H2521 C2530 0.930 . S
H2522 C2535 0.929 . S
H2523 C2533 0.929 . S
H2524 C2528 0.929 . S
H2525 C2534 0.929 . S
C2526 H2520 0.930 . S
C2526 C2527 1.367 . S
C2526 C2534 1.378 . S
C2527 C2526 1.367 . S
C2527 C2535 1.433 . S
C2528 H2524 0.929 . S
C2528 C2530 1.378 . S
C2528 C2532 1.350 . S
C2529 C2532 1.463 . S
C2529 C2534 1.350 . S
C2529 N2537 1.427 . S
C2530 H2521 0.930 . S
C2530 C2528 1.378 . S
C2530 C2531 1.367 . S
C2531 C2530 1.367 . S
C2531 C2533 1.433 . S
C2532 C2528 1.350 . S
C2532 C2529 1.463 . S
C2532 N2536 1.427 . S
C2533 H2523 0.929 . S
C2533 C2531 1.433 . S
C2533 N2536 1.384 . S
C2534 H2525 0.929 . S
C2534 C2526 1.378 . S
C2534 C2529 1.350 . S
C2535 H2522 0.929 . S
C2535 C2527 1.433 . S
C2535 N2537 1.384 . S
N2536 C2532 1.427 . S
N2536 C2533 1.384 . S
N2537 C2529 1.427 . S
N2537 C2535 1.384 . S
H2538 C2544 0.930 . S
H2539 C2548 0.930 . S
H2540 C2553 0.929 . S
H2541 C2551 0.929 . S
H2542 C2546 0.929 . S
H2543 C2552 0.929 . S
C2544 H2538 0.930 . S
C2544 C2545 1.367 . S
C2544 C2552 1.378 . S
C2545 C2544 1.367 . S
C2545 C2553 1.433 . S
C2546 H2542 0.929 . S
C2546 C2548 1.378 . S
C2546 C2550 1.350 . S
C2547 C2550 1.463 . S
C2547 C2552 1.350 . S
C2547 N2555 1.427 . S
C2548 H2539 0.930 . S
C2548 C2546 1.378 . S
C2548 C2549 1.367 . S
C2549 C2548 1.367 . S
C2549 C2551 1.433 . S
C2550 C2546 1.350 . S
C2550 C2547 1.463 . S
C2550 N2554 1.427 . S
C2551 H2541 0.929 . S
C2551 C2549 1.433 . S
C2551 N2554 1.384 . S
C2552 H2543 0.929 . S
C2552 C2544 1.378 . S
C2552 C2547 1.350 . S
C2553 H2540 0.929 . S
C2553 C2545 1.433 . S
C2553 N2555 1.384 . S
N2554 C2550 1.427 . S
N2554 C2551 1.384 . S
N2555 C2547 1.427 . S
N2555 C2553 1.384 . S
H2556 C2562 0.930 . S
H2557 C2566 0.930 . S
H2558 C2571 0.929 . S
H2559 C2569 0.929 . S
H2560 C2564 0.929 . S
H2561 C2570 0.929 . S
C2562 H2556 0.930 . S
C2562 C2563 1.367 . S
C2562 C2570 1.378 . S
C2563 C2562 1.367 . S
C2563 C2571 1.433 . S
C2564 H2560 0.929 . S
C2564 C2566 1.378 . S
C2564 C2568 1.350 . S
C2565 C2568 1.463 . S
C2565 C2570 1.350 . S
C2565 N2573 1.427 . S
C2566 H2557 0.930 . S
C2566 C2564 1.378 . S
C2566 C2567 1.367 . S
C2567 C2566 1.367 . S
C2567 C2569 1.433 . S
C2568 C2564 1.350 . S
C2568 C2565 1.463 . S
C2568 N2572 1.427 . S
C2569 H2559 0.929 . S
C2569 C2567 1.433 . S
C2569 N2572 1.384 . S
C2570 H2561 0.929 . S
C2570 C2562 1.378 . S
C2570 C2565 1.350 . S
C2571 H2558 0.929 . S
C2571 C2563 1.433 . S
C2571 N2573 1.384 . S
N2572 C2568 1.427 . S
N2572 C2569 1.384 . S
N2573 C2565 1.427 . S
N2573 C2571 1.384 . S
H2574 C2580 0.930 . S
H2575 C2584 0.930 . S
H2576 C2589 0.929 . S
H2577 C2587 0.929 . S
H2578 C2582 0.929 . S
H2579 C2588 0.929 . S
C2580 H2574 0.930 . S
C2580 C2581 1.367 . S
C2580 C2588 1.378 . S
C2581 C2580 1.367 . S
C2581 C2589 1.433 . S
C2582 H2578 0.929 . S
C2582 C2584 1.378 . S
C2582 C2586 1.350 . S
C2583 C2586 1.463 . S
C2583 C2588 1.350 . S
C2583 N2591 1.427 . S
C2584 H2575 0.930 . S
C2584 C2582 1.378 . S
C2584 C2585 1.367 . S
C2585 C2584 1.367 . S
C2585 C2587 1.433 . S
C2586 C2582 1.350 . S
C2586 C2583 1.463 . S
C2586 N2590 1.427 . S
C2587 H2577 0.929 . S
C2587 C2585 1.433 . S
C2587 N2590 1.384 . S
C2588 H2579 0.929 . S
C2588 C2580 1.378 . S
C2588 C2583 1.350 . S
C2589 H2576 0.929 . S
C2589 C2581 1.433 . S
C2589 N2591 1.384 . S
N2590 C2586 1.427 . S
N2590 C2587 1.384 . S
N2591 C2583 1.427 . S
N2591 C2589 1.384 . S
H2592 C2598 0.930 . S
H2593 C2602 0.930 . S
H2594 C2607 0.929 . S
H2595 C2605 0.929 . S
H2596 C2600 0.929 . S
H2597 C2606 0.929 . S
C2598 H2592 0.930 . S
C2598 C2599 1.367 . S
C2598 C2606 1.378 . S
C2599 C2598 1.367 . S
C2599 C2607 1.433 . S
C2600 H2596 0.929 . S
C2600 C2602 1.378 . S
C2600 C2604 1.350 . S
C2601 C2604 1.463 . S
C2601 C2606 1.350 . S
C2601 N2609 1.427 . S
C2602 H2593 0.930 . S
C2602 C2600 1.378 . S
C2602 C2603 1.367 . S
C2603 C2602 1.367 . S
C2603 C2605 1.433 . S
C2604 C2600 1.350 . S
C2604 C2601 1.463 . S
C2604 N2608 1.427 . S
C2605 H2595 0.929 . S
C2605 C2603 1.433 . S
C2605 N2608 1.384 . S
C2606 H2597 0.929 . S
C2606 C2598 1.378 . S
C2606 C2601 1.350 . S
C2607 H2594 0.929 . S
C2607 C2599 1.433 . S
C2607 N2609 1.384 . S
N2608 C2604 1.427 . S
N2608 C2605 1.384 . S
N2609 C2601 1.427 . S
N2609 C2607 1.384 . S
H2610 C2616 0.930 . S
H2611 C2620 0.930 . S
H2612 C2625 0.929 . S
H2613 C2623 0.929 . S
H2614 C2618 0.929 . S
H2615 C2624 0.929 . S
C2616 H2610 0.930 . S
C2616 C2617 1.367 . S
C2616 C2624 1.378 . S
C2617 C2616 1.367 . S
C2617 C2625 1.433 . S
C2618 H2614 0.929 . S
C2618 C2620 1.378 . S
C2618 C2622 1.350 . S
C2619 C2622 1.463 . S
C2619 C2624 1.350 . S
C2619 N2627 1.427 . S
C2620 H2611 0.930 . S
C2620 C2618 1.378 . S
C2620 C2621 1.367 . S
C2621 C2620 1.367 . S
C2621 C2623 1.433 . S
C2622 C2618 1.350 . S
C2622 C2619 1.463 . S
C2622 N2626 1.427 . S
C2623 H2613 0.929 . S
C2623 C2621 1.433 . S
C2623 N2626 1.384 . S
C2624 H2615 0.929 . S
C2624 C2616 1.378 . S
C2624 C2619 1.350 . S
C2625 H2612 0.929 . S
C2625 C2617 1.433 . S
C2625 N2627 1.384 . S
N2626 C2622 1.427 . S
N2626 C2623 1.384 . S
N2627 C2619 1.427 . S
N2627 C2625 1.384 . S
H2628 C2634 0.930 . S
H2629 C2638 0.930 . S
H2630 C2643 0.929 . S
H2631 C2641 0.929 . S
H2632 C2636 0.929 . S
H2633 C2642 0.929 . S
C2634 H2628 0.930 . S
C2634 C2635 1.367 . S
C2634 C2642 1.378 . S
C2635 C2634 1.367 . S
C2635 C2643 1.433 . S
C2636 H2632 0.929 . S
C2636 C2638 1.378 . S
C2636 C2640 1.350 . S
C2637 C2640 1.463 . S
C2637 C2642 1.350 . S
C2637 N2645 1.427 . S
C2638 H2629 0.930 . S
C2638 C2636 1.378 . S
C2638 C2639 1.367 . S
C2639 C2638 1.367 . S
C2639 C2641 1.433 . S
C2640 C2636 1.350 . S
C2640 C2637 1.463 . S
C2640 N2644 1.427 . S
C2641 H2631 0.929 . S
C2641 C2639 1.433 . S
C2641 N2644 1.384 . S
C2642 H2633 0.929 . S
C2642 C2634 1.378 . S
C2642 C2637 1.350 . S
C2643 H2630 0.929 . S
C2643 C2635 1.433 . S
C2643 N2645 1.384 . S
N2644 C2640 1.427 . S
N2644 C2641 1.384 . S
N2645 C2637 1.427 . S
N2645 C2643 1.384 . S
H2646 C2652 0.930 . S
H2647 C2656 0.930 . S
H2648 C2661 0.929 . S
H2649 C2659 0.929 . S
H2650 C2654 0.929 . S
H2651 C2660 0.929 . S
C2652 H2646 0.930 . S
C2652 C2653 1.367 . S
C2652 C2660 1.378 . S
C2653 C2652 1.367 . S
C2653 C2661 1.433 . S
C2654 H2650 0.929 . S
C2654 C2656 1.378 . S
C2654 C2658 1.350 . S
C2655 C2658 1.463 . S
C2655 C2660 1.350 . S
C2655 N2663 1.427 . S
C2656 H2647 0.930 . S
C2656 C2654 1.378 . S
C2656 C2657 1.367 . S
C2657 C2656 1.367 . S
C2657 C2659 1.433 . S
C2658 C2654 1.350 . S
C2658 C2655 1.463 . S
C2658 N2662 1.427 . S
C2659 H2649 0.929 . S
C2659 C2657 1.433 . S
C2659 N2662 1.384 . S
C2660 H2651 0.929 . S
C2660 C2652 1.378 . S
C2660 C2655 1.350 . S
C2661 H2648 0.929 . S
C2661 C2653 1.433 . S
C2661 N2663 1.384 . S
N2662 C2658 1.427 . S
N2662 C2659 1.384 . S
N2663 C2655 1.427 . S
N2663 C2661 1.384 . S
H2664 C2670 0.930 . S
H2665 C2674 0.930 . S
H2666 C2679 0.929 . S
H2667 C2677 0.929 . S
H2668 C2672 0.929 . S
H2669 C2678 0.929 . S
C2670 H2664 0.930 . S
C2670 C2671 1.367 . S
C2670 C2678 1.378 . S
C2671 C2670 1.367 . S
C2671 C2679 1.433 . S
C2672 H2668 0.929 . S
C2672 C2674 1.378 . S
C2672 C2676 1.350 . S
C2673 C2676 1.463 . S
C2673 C2678 1.350 . S
C2673 N2681 1.427 . S
C2674 H2665 0.930 . S
C2674 C2672 1.378 . S
C2674 C2675 1.367 . S
C2675 C2674 1.367 . S
C2675 C2677 1.433 . S
C2676 C2672 1.350 . S
C2676 C2673 1.463 . S
C2676 N2680 1.427 . S
C2677 H2667 0.929 . S
C2677 C2675 1.433 . S
C2677 N2680 1.384 . S
C2678 H2669 0.929 . S
C2678 C2670 1.378 . S
C2678 C2673 1.350 . S
C2679 H2666 0.929 . S
C2679 C2671 1.433 . S
C2679 N2681 1.384 . S
N2680 C2676 1.427 . S
N2680 C2677 1.384 . S
N2681 C2673 1.427 . S
N2681 C2679 1.384 . S
H2682 C2688 0.930 . S
H2683 C2692 0.930 . S
H2684 C2697 0.929 . S
H2685 C2695 0.929 . S
H2686 C2690 0.929 . S
H2687 C2696 0.929 . S
C2688 H2682 0.930 . S
C2688 C2689 1.367 . S
C2688 C2696 1.378 . S
C2689 C2688 1.367 . S
C2689 C2697 1.433 . S
C2690 H2686 0.929 . S
C2690 C2692 1.378 . S
C2690 C2694 1.350 . S
C2691 C2694 1.463 . S
C2691 C2696 1.350 . S
C2691 N2699 1.427 . S
C2692 H2683 0.930 . S
C2692 C2690 1.378 . S
C2692 C2693 1.367 . S
C2693 C2692 1.367 . S
C2693 C2695 1.433 . S
C2694 C2690 1.350 . S
C2694 C2691 1.463 . S
C2694 N2698 1.427 . S
C2695 H2685 0.929 . S
C2695 C2693 1.433 . S
C2695 N2698 1.384 . S
C2696 H2687 0.929 . S
C2696 C2688 1.378 . S
C2696 C2691 1.350 . S
C2697 H2684 0.929 . S
C2697 C2689 1.433 . S
C2697 N2699 1.384 . S
N2698 C2694 1.427 . S
N2698 C2695 1.384 . S
N2699 C2691 1.427 . S
N2699 C2697 1.384 . S
H2700 C2706 0.930 . S
H2701 C2710 0.930 . S
H2702 C2715 0.929 . S
H2703 C2713 0.929 . S
H2704 C2708 0.929 . S
H2705 C2714 0.929 . S
C2706 H2700 0.930 . S
C2706 C2707 1.367 . S
C2706 C2714 1.378 . S
C2707 C2706 1.367 . S
C2707 C2715 1.433 . S
C2708 H2704 0.929 . S
C2708 C2710 1.378 . S
C2708 C2712 1.350 . S
C2709 C2712 1.463 . S
C2709 C2714 1.350 . S
C2709 N2717 1.427 . S
C2710 H2701 0.930 . S
C2710 C2708 1.378 . S
C2710 C2711 1.367 . S
C2711 C2710 1.367 . S
C2711 C2713 1.433 . S
C2712 C2708 1.350 . S
C2712 C2709 1.463 . S
C2712 N2716 1.427 . S
C2713 H2703 0.929 . S
C2713 C2711 1.433 . S
C2713 N2716 1.384 . S
C2714 H2705 0.929 . S
C2714 C2706 1.378 . S
C2714 C2709 1.350 . S
C2715 H2702 0.929 . S
C2715 C2707 1.433 . S
C2715 N2717 1.384 . S
N2716 C2712 1.427 . S
N2716 C2713 1.384 . S
N2717 C2709 1.427 . S
N2717 C2715 1.384 . S
H2718 C2724 0.930 . S
H2719 C2728 0.930 . S
H2720 C2733 0.929 . S
H2721 C2731 0.929 . S
H2722 C2726 0.929 . S
H2723 C2732 0.929 . S
C2724 H2718 0.930 . S
C2724 C2725 1.367 . S
C2724 C2732 1.378 . S
C2725 C2724 1.367 . S
C2725 C2733 1.433 . S
C2726 H2722 0.929 . S
C2726 C2728 1.378 . S
C2726 C2730 1.350 . S
C2727 C2730 1.463 . S
C2727 C2732 1.350 . S
C2727 N2735 1.427 . S
C2728 H2719 0.930 . S
C2728 C2726 1.378 . S
C2728 C2729 1.367 . S
C2729 C2728 1.367 . S
C2729 C2731 1.433 . S
C2730 C2726 1.350 . S
C2730 C2727 1.463 . S
C2730 N2734 1.427 . S
C2731 H2721 0.929 . S
C2731 C2729 1.433 . S
C2731 N2734 1.384 . S
C2732 H2723 0.929 . S
C2732 C2724 1.378 . S
C2732 C2727 1.350 . S
C2733 H2720 0.929 . S
C2733 C2725 1.433 . S
C2733 N2735 1.384 . S
N2734 C2730 1.427 . S
N2734 C2731 1.384 . S
N2735 C2727 1.427 . S
N2735 C2733 1.384 . S
H2736 C2742 0.930 . S
H2737 C2746 0.930 . S
H2738 C2751 0.929 . S
H2739 C2749 0.929 . S
H2740 C2744 0.929 . S
H2741 C2750 0.929 . S
C2742 H2736 0.930 . S
C2742 C2743 1.367 . S
C2742 C2750 1.378 . S
C2743 C2742 1.367 . S
C2743 C2751 1.433 . S
C2744 H2740 0.929 . S
C2744 C2746 1.378 . S
C2744 C2748 1.350 . S
C2745 C2748 1.463 . S
C2745 C2750 1.350 . S
C2745 N2753 1.427 . S
C2746 H2737 0.930 . S
C2746 C2744 1.378 . S
C2746 C2747 1.367 . S
C2747 C2746 1.367 . S
C2747 C2749 1.433 . S
C2748 C2744 1.350 . S
C2748 C2745 1.463 . S
C2748 N2752 1.427 . S
C2749 H2739 0.929 . S
C2749 C2747 1.433 . S
C2749 N2752 1.384 . S
C2750 H2741 0.929 . S
C2750 C2742 1.378 . S
C2750 C2745 1.350 . S
C2751 H2738 0.929 . S
C2751 C2743 1.433 . S
C2751 N2753 1.384 . S
N2752 C2748 1.427 . S
N2752 C2749 1.384 . S
N2753 C2745 1.427 . S
N2753 C2751 1.384 . S
H2754 C2760 0.930 . S
H2755 C2764 0.930 . S
H2756 C2769 0.929 . S
H2757 C2767 0.929 . S
H2758 C2762 0.929 . S
H2759 C2768 0.929 . S
C2760 H2754 0.930 . S
C2760 C2761 1.367 . S
C2760 C2768 1.378 . S
C2761 C2760 1.367 . S
C2761 C2769 1.433 . S
C2762 H2758 0.929 . S
C2762 C2764 1.378 . S
C2762 C2766 1.350 . S
C2763 C2766 1.463 . S
C2763 C2768 1.350 . S
C2763 N2771 1.427 . S
C2764 H2755 0.930 . S
C2764 C2762 1.378 . S
C2764 C2765 1.367 . S
C2765 C2764 1.367 . S
C2765 C2767 1.433 . S
C2766 C2762 1.350 . S
C2766 C2763 1.463 . S
C2766 N2770 1.427 . S
C2767 H2757 0.929 . S
C2767 C2765 1.433 . S
C2767 N2770 1.384 . S
C2768 H2759 0.929 . S
C2768 C2760 1.378 . S
C2768 C2763 1.350 . S
C2769 H2756 0.929 . S
C2769 C2761 1.433 . S
C2769 N2771 1.384 . S
N2770 C2766 1.427 . S
N2770 C2767 1.384 . S
N2771 C2763 1.427 . S
N2771 C2769 1.384 . S
H2772 C2778 0.930 . S
H2773 C2782 0.930 . S
H2774 C2787 0.929 . S
H2775 C2785 0.929 . S
H2776 C2780 0.929 . S
H2777 C2786 0.929 . S
C2778 H2772 0.930 . S
C2778 C2779 1.367 . S
C2778 C2786 1.378 . S
C2779 C2778 1.367 . S
C2779 C2787 1.433 . S
C2780 H2776 0.929 . S
C2780 C2782 1.378 . S
C2780 C2784 1.350 . S
C2781 C2784 1.463 . S
C2781 C2786 1.350 . S
C2781 N2789 1.427 . S
C2782 H2773 0.930 . S
C2782 C2780 1.378 . S
C2782 C2783 1.367 . S
C2783 C2782 1.367 . S
C2783 C2785 1.433 . S
C2784 C2780 1.350 . S
C2784 C2781 1.463 . S
C2784 N2788 1.427 . S
C2785 H2775 0.929 . S
C2785 C2783 1.433 . S
C2785 N2788 1.384 . S
C2786 H2777 0.929 . S
C2786 C2778 1.378 . S
C2786 C2781 1.350 . S
C2787 H2774 0.929 . S
C2787 C2779 1.433 . S
C2787 N2789 1.384 . S
N2788 C2784 1.427 . S
N2788 C2785 1.384 . S
N2789 C2781 1.427 . S
N2789 C2787 1.384 . S
H2790 C2796 0.930 . S
H2791 C2800 0.930 . S
H2792 C2805 0.929 . S
H2793 C2803 0.929 . S
H2794 C2798 0.929 . S
H2795 C2804 0.929 . S
C2796 H2790 0.930 . S
C2796 C2797 1.367 . S
C2796 C2804 1.378 . S
C2797 C2796 1.367 . S
C2797 C2805 1.433 . S
C2798 H2794 0.929 . S
C2798 C2800 1.378 . S
C2798 C2802 1.350 . S
C2799 C2802 1.463 . S
C2799 C2804 1.350 . S
C2799 N2807 1.427 . S
C2800 H2791 0.930 . S
C2800 C2798 1.378 . S
C2800 C2801 1.367 . S
C2801 C2800 1.367 . S
C2801 C2803 1.433 . S
C2802 C2798 1.350 . S
C2802 C2799 1.463 . S
C2802 N2806 1.427 . S
C2803 H2793 0.929 . S
C2803 C2801 1.433 . S
C2803 N2806 1.384 . S
C2804 H2795 0.929 . S
C2804 C2796 1.378 . S
C2804 C2799 1.350 . S
C2805 H2792 0.929 . S
C2805 C2797 1.433 . S
C2805 N2807 1.384 . S
N2806 C2802 1.427 . S
N2806 C2803 1.384 . S
N2807 C2799 1.427 . S
N2807 C2805 1.384 . S
H2808 C2814 0.930 . S
H2809 C2818 0.930 . S
H2810 C2823 0.929 . S
H2811 C2821 0.929 . S
H2812 C2816 0.929 . S
H2813 C2822 0.929 . S
C2814 H2808 0.930 . S
C2814 C2815 1.367 . S
C2814 C2822 1.378 . S
C2815 C2814 1.367 . S
C2815 C2823 1.433 . S
C2816 H2812 0.929 . S
C2816 C2818 1.378 . S
C2816 C2820 1.350 . S
C2817 C2820 1.463 . S
C2817 C2822 1.350 . S
C2817 N2825 1.427 . S
C2818 H2809 0.930 . S
C2818 C2816 1.378 . S
C2818 C2819 1.367 . S
C2819 C2818 1.367 . S
C2819 C2821 1.433 . S
C2820 C2816 1.350 . S
C2820 C2817 1.463 . S
C2820 N2824 1.427 . S
C2821 H2811 0.929 . S
C2821 C2819 1.433 . S
C2821 N2824 1.384 . S
C2822 H2813 0.929 . S
C2822 C2814 1.378 . S
C2822 C2817 1.350 . S
C2823 H2810 0.929 . S
C2823 C2815 1.433 . S
C2823 N2825 1.384 . S
N2824 C2820 1.427 . S
N2824 C2821 1.384 . S
N2825 C2817 1.427 . S
N2825 C2823 1.384 . S
H2826 C2832 0.930 . S
H2827 C2836 0.930 . S
H2828 C2841 0.929 . S
H2829 C2839 0.929 . S
H2830 C2834 0.929 . S
H2831 C2840 0.929 . S
C2832 H2826 0.930 . S
C2832 C2833 1.367 . S
C2832 C2840 1.378 . S
C2833 C2832 1.367 . S
C2833 C2841 1.433 . S
C2834 H2830 0.929 . S
C2834 C2836 1.378 . S
C2834 C2838 1.350 . S
C2835 C2838 1.463 . S
C2835 C2840 1.350 . S
C2835 N2843 1.427 . S
C2836 H2827 0.930 . S
C2836 C2834 1.378 . S
C2836 C2837 1.367 . S
C2837 C2836 1.367 . S
C2837 C2839 1.433 . S
C2838 C2834 1.350 . S
C2838 C2835 1.463 . S
C2838 N2842 1.427 . S
C2839 H2829 0.929 . S
C2839 C2837 1.433 . S
C2839 N2842 1.384 . S
C2840 H2831 0.929 . S
C2840 C2832 1.378 . S
C2840 C2835 1.350 . S
C2841 H2828 0.929 . S
C2841 C2833 1.433 . S
C2841 N2843 1.384 . S
N2842 C2838 1.427 . S
N2842 C2839 1.384 . S
N2843 C2835 1.427 . S
N2843 C2841 1.384 . S
H2844 C2850 0.930 . S
H2845 C2854 0.930 . S
H2846 C2859 0.929 . S
H2847 C2857 0.929 . S
H2848 C2852 0.929 . S
H2849 C2858 0.929 . S
C2850 H2844 0.930 . S
C2850 C2851 1.367 . S
C2850 C2858 1.378 . S
C2851 C2850 1.367 . S
C2851 C2859 1.433 . S
C2852 H2848 0.929 . S
C2852 C2854 1.378 . S
C2852 C2856 1.350 . S
C2853 C2856 1.463 . S
C2853 C2858 1.350 . S
C2853 N2861 1.427 . S
C2854 H2845 0.930 . S
C2854 C2852 1.378 . S
C2854 C2855 1.367 . S
C2855 C2854 1.367 . S
C2855 C2857 1.433 . S
C2856 C2852 1.350 . S
C2856 C2853 1.463 . S
C2856 N2860 1.427 . S
C2857 H2847 0.929 . S
C2857 C2855 1.433 . S
C2857 N2860 1.384 . S
C2858 H2849 0.929 . S
C2858 C2850 1.378 . S
C2858 C2853 1.350 . S
C2859 H2846 0.929 . S
C2859 C2851 1.433 . S
C2859 N2861 1.384 . S
N2860 C2856 1.427 . S
N2860 C2857 1.384 . S
N2861 C2853 1.427 . S
N2861 C2859 1.384 . S
H2862 C2868 0.930 . S
H2863 C2872 0.930 . S
H2864 C2877 0.929 . S
H2865 C2875 0.929 . S
H2866 C2870 0.929 . S
H2867 C2876 0.929 . S
C2868 H2862 0.930 . S
C2868 C2869 1.367 . S
C2868 C2876 1.378 . S
C2869 C2868 1.367 . S
C2869 C2877 1.433 . S
C2870 H2866 0.929 . S
C2870 C2872 1.378 . S
C2870 C2874 1.350 . S
C2871 C2874 1.463 . S
C2871 C2876 1.350 . S
C2871 N2879 1.427 . S
C2872 H2863 0.930 . S
C2872 C2870 1.378 . S
C2872 C2873 1.367 . S
C2873 C2872 1.367 . S
C2873 C2875 1.433 . S
C2874 C2870 1.350 . S
C2874 C2871 1.463 . S
C2874 N2878 1.427 . S
C2875 H2865 0.929 . S
C2875 C2873 1.433 . S
C2875 N2878 1.384 . S
C2876 H2867 0.929 . S
C2876 C2868 1.378 . S
C2876 C2871 1.350 . S
C2877 H2864 0.929 . S
C2877 C2869 1.433 . S
C2877 N2879 1.384 . S
N2878 C2874 1.427 . S
N2878 C2875 1.384 . S
N2879 C2871 1.427 . S
N2879 C2877 1.384 . S
H2880 C2886 0.930 . S
H2881 C2890 0.930 . S
H2882 C2895 0.929 . S
H2883 C2893 0.929 . S
H2884 C2888 0.929 . S
H2885 C2894 0.929 . S
C2886 H2880 0.930 . S
C2886 C2887 1.367 . S
C2886 C2894 1.378 . S
C2887 C2886 1.367 . S
C2887 C2895 1.433 . S
C2888 H2884 0.929 . S
C2888 C2890 1.378 . S
C2888 C2892 1.350 . S
C2889 C2892 1.463 . S
C2889 C2894 1.350 . S
C2889 N2897 1.427 . S
C2890 H2881 0.930 . S
C2890 C2888 1.378 . S
C2890 C2891 1.367 . S
C2891 C2890 1.367 . S
C2891 C2893 1.433 . S
C2892 C2888 1.350 . S
C2892 C2889 1.463 . S
C2892 N2896 1.427 . S
C2893 H2883 0.929 . S
C2893 C2891 1.433 . S
C2893 N2896 1.384 . S
C2894 H2885 0.929 . S
C2894 C2886 1.378 . S
C2894 C2889 1.350 . S
C2895 H2882 0.929 . S
C2895 C2887 1.433 . S
C2895 N2897 1.384 . S
N2896 C2892 1.427 . S
N2896 C2893 1.384 . S
N2897 C2889 1.427 . S
N2897 C2895 1.384 . S
H2898 C2904 0.930 . S
H2899 C2908 0.930 . S
H2900 C2913 0.929 . S
H2901 C2911 0.929 . S
H2902 C2906 0.929 . S
H2903 C2912 0.929 . S
C2904 H2898 0.930 . S
C2904 C2905 1.367 . S
C2904 C2912 1.378 . S
C2905 C2904 1.367 . S
C2905 C2913 1.433 . S
C2906 H2902 0.929 . S
C2906 C2908 1.378 . S
C2906 C2910 1.350 . S
C2907 C2910 1.463 . S
C2907 C2912 1.350 . S
C2907 N2915 1.427 . S
C2908 H2899 0.930 . S
C2908 C2906 1.378 . S
C2908 C2909 1.367 . S
C2909 C2908 1.367 . S
C2909 C2911 1.433 . S
C2910 C2906 1.350 . S
C2910 C2907 1.463 . S
C2910 N2914 1.427 . S
C2911 H2901 0.929 . S
C2911 C2909 1.433 . S
C2911 N2914 1.384 . S
C2912 H2903 0.929 . S
C2912 C2904 1.378 . S
C2912 C2907 1.350 . S
C2913 H2900 0.929 . S
C2913 C2905 1.433 . S
C2913 N2915 1.384 . S
N2914 C2910 1.427 . S
N2914 C2911 1.384 . S
N2915 C2907 1.427 . S
N2915 C2913 1.384 . S
H2916 C2922 0.930 . S
H2917 C2926 0.930 . S
H2918 C2931 0.929 . S
H2919 C2929 0.929 . S
H2920 C2924 0.929 . S
H2921 C2930 0.929 . S
C2922 H2916 0.930 . S
C2922 C2923 1.367 . S
C2922 C2930 1.378 . S
C2923 C2922 1.367 . S
C2923 C2931 1.433 . S
C2924 H2920 0.929 . S
C2924 C2926 1.378 . S
C2924 C2928 1.350 . S
C2925 C2928 1.463 . S
C2925 C2930 1.350 . S
C2925 N2933 1.427 . S
C2926 H2917 0.930 . S
C2926 C2924 1.378 . S
C2926 C2927 1.367 . S
C2927 C2926 1.367 . S
C2927 C2929 1.433 . S
C2928 C2924 1.350 . S
C2928 C2925 1.463 . S
C2928 N2932 1.427 . S
C2929 H2919 0.929 . S
C2929 C2927 1.433 . S
C2929 N2932 1.384 . S
C2930 H2921 0.929 . S
C2930 C2922 1.378 . S
C2930 C2925 1.350 . S
C2931 H2918 0.929 . S
C2931 C2923 1.433 . S
C2931 N2933 1.384 . S
N2932 C2928 1.427 . S
N2932 C2929 1.384 . S
N2933 C2925 1.427 . S
N2933 C2931 1.384 . S
H2934 C2940 0.930 . S
H2935 C2944 0.930 . S
H2936 C2949 0.929 . S
H2937 C2947 0.929 . S
H2938 C2942 0.929 . S
H2939 C2948 0.929 . S
C2940 H2934 0.930 . S
C2940 C2941 1.367 . S
C2940 C2948 1.378 . S
C2941 C2940 1.367 . S
C2941 C2949 1.433 . S
C2942 H2938 0.929 . S
C2942 C2944 1.378 . S
C2942 C2946 1.350 . S
C2943 C2946 1.463 . S
C2943 C2948 1.350 . S
C2943 N2951 1.427 . S
C2944 H2935 0.930 . S
C2944 C2942 1.378 . S
C2944 C2945 1.367 . S
C2945 C2944 1.367 . S
C2945 C2947 1.433 . S
C2946 C2942 1.350 . S
C2946 C2943 1.463 . S
C2946 N2950 1.427 . S
C2947 H2937 0.929 . S
C2947 C2945 1.433 . S
C2947 N2950 1.384 . S
C2948 H2939 0.929 . S
C2948 C2940 1.378 . S
C2948 C2943 1.350 . S
C2949 H2936 0.929 . S
C2949 C2941 1.433 . S
C2949 N2951 1.384 . S
N2950 C2946 1.427 . S
N2950 C2947 1.384 . S
N2951 C2943 1.427 . S
N2951 C2949 1.384 . S
H2952 C2958 0.930 . S
H2953 C2962 0.930 . S
H2954 C2967 0.929 . S
H2955 C2965 0.929 . S
H2956 C2960 0.929 . S
H2957 C2966 0.929 . S
C2958 H2952 0.930 . S
C2958 C2959 1.367 . S
C2958 C2966 1.378 . S
C2959 C2958 1.367 . S
C2959 C2967 1.433 . S
C2960 H2956 0.929 . S
C2960 C2962 1.378 . S
C2960 C2964 1.350 . S
C2961 C2964 1.463 . S
C2961 C2966 1.350 . S
C2961 N2969 1.427 . S
C2962 H2953 0.930 . S
C2962 C2960 1.378 . S
C2962 C2963 1.367 . S
C2963 C2962 1.367 . S
C2963 C2965 1.433 . S
C2964 C2960 1.350 . S
C2964 C2961 1.463 . S
C2964 N2968 1.427 . S
C2965 H2955 0.929 . S
C2965 C2963 1.433 . S
C2965 N2968 1.384 . S
C2966 H2957 0.929 . S
C2966 C2958 1.378 . S
C2966 C2961 1.350 . S
C2967 H2954 0.929 . S
C2967 C2959 1.433 . S
C2967 N2969 1.384 . S
N2968 C2964 1.427 . S
N2968 C2965 1.384 . S
N2969 C2961 1.427 . S
N2969 C2967 1.384 . S
H2970 C2976 0.930 . S
H2971 C2980 0.930 . S
H2972 C2985 0.929 . S
H2973 C2983 0.929 . S
H2974 C2978 0.929 . S
H2975 C2984 0.929 . S
C2976 H2970 0.930 . S
C2976 C2977 1.367 . S
C2976 C2984 1.378 . S
C2977 C2976 1.367 . S
C2977 C2985 1.433 . S
C2978 H2974 0.929 . S
C2978 C2980 1.378 . S
C2978 C2982 1.350 . S
C2979 C2982 1.463 . S
C2979 C2984 1.350 . S
C2979 N2987 1.427 . S
C2980 H2971 0.930 . S
C2980 C2978 1.378 . S
C2980 C2981 1.367 . S
C2981 C2980 1.367 . S
C2981 C2983 1.433 . S
C2982 C2978 1.350 . S
C2982 C2979 1.463 . S
C2982 N2986 1.427 . S
C2983 H2973 0.929 . S
C2983 C2981 1.433 . S
C2983 N2986 1.384 . S
C2984 H2975 0.929 . S
C2984 C2976 1.378 . S
C2984 C2979 1.350 . S
C2985 H2972 0.929 . S
C2985 C2977 1.433 . S
C2985 N2987 1.384 . S
N2986 C2982 1.427 . S
N2986 C2983 1.384 . S
N2987 C2979 1.427 . S
N2987 C2985 1.384 . S
H2988 C2994 0.930 . S
H2989 C2998 0.930 . S
H2990 C3003 0.929 . S
H2991 C3001 0.929 . S
H2992 C2996 0.929 . S
H2993 C3002 0.929 . S
C2994 H2988 0.930 . S
C2994 C2995 1.367 . S
C2994 C3002 1.378 . S
C2995 C2994 1.367 . S
C2995 C3003 1.433 . S
C2996 H2992 0.929 . S
C2996 C2998 1.378 . S
C2996 C3000 1.350 . S
C2997 C3000 1.463 . S
C2997 C3002 1.350 . S
C2997 N3005 1.427 . S
C2998 H2989 0.930 . S
C2998 C2996 1.378 . S
C2998 C2999 1.367 . S
C2999 C2998 1.367 . S
C2999 C3001 1.433 . S
C3000 C2996 1.350 . S
C3000 C2997 1.463 . S
C3000 N3004 1.427 . S
C3001 H2991 0.929 . S
C3001 C2999 1.433 . S
C3001 N3004 1.384 . S
C3002 H2993 0.929 . S
C3002 C2994 1.378 . S
C3002 C2997 1.350 . S
C3003 H2990 0.929 . S
C3003 C2995 1.433 . S
C3003 N3005 1.384 . S
N3004 C3000 1.427 . S
N3004 C3001 1.384 . S
N3005 C2997 1.427 . S
N3005 C3003 1.384 . S
H3006 C3012 0.930 . S
H3007 C3016 0.930 . S
H3008 C3021 0.929 . S
H3009 C3019 0.929 . S
H3010 C3014 0.929 . S
H3011 C3020 0.929 . S
C3012 H3006 0.930 . S
C3012 C3013 1.367 . S
C3012 C3020 1.378 . S
C3013 C3012 1.367 . S
C3013 C3021 1.433 . S
C3014 H3010 0.929 . S
C3014 C3016 1.378 . S
C3014 C3018 1.350 . S
C3015 C3018 1.463 . S
C3015 C3020 1.350 . S
C3015 N3023 1.427 . S
C3016 H3007 0.930 . S
C3016 C3014 1.378 . S
C3016 C3017 1.367 . S
C3017 C3016 1.367 . S
C3017 C3019 1.433 . S
C3018 C3014 1.350 . S
C3018 C3015 1.463 . S
C3018 N3022 1.427 . S
C3019 H3009 0.929 . S
C3019 C3017 1.433 . S
C3019 N3022 1.384 . S
C3020 H3011 0.929 . S
C3020 C3012 1.378 . S
C3020 C3015 1.350 . S
C3021 H3008 0.929 . S
C3021 C3013 1.433 . S
C3021 N3023 1.384 . S
N3022 C3018 1.427 . S
N3022 C3019 1.384 . S
N3023 C3015 1.427 . S
N3023 C3021 1.384 . S
H3024 C3030 0.930 . S
H3025 C3034 0.930 . S
H3026 C3039 0.929 . S
H3027 C3037 0.929 . S
H3028 C3032 0.929 . S
H3029 C3038 0.929 . S
C3030 H3024 0.930 . S
C3030 C3031 1.367 . S
C3030 C3038 1.378 . S
C3031 C3030 1.367 . S
C3031 C3039 1.433 . S
C3032 H3028 0.929 . S
C3032 C3034 1.378 . S
C3032 C3036 1.350 . S
C3033 C3036 1.463 . S
C3033 C3038 1.350 . S
C3033 N3041 1.427 . S
C3034 H3025 0.930 . S
C3034 C3032 1.378 . S
C3034 C3035 1.367 . S
C3035 C3034 1.367 . S
C3035 C3037 1.433 . S
C3036 C3032 1.350 . S
C3036 C3033 1.463 . S
C3036 N3040 1.427 . S
C3037 H3027 0.929 . S
C3037 C3035 1.433 . S
C3037 N3040 1.384 . S
C3038 H3029 0.929 . S
C3038 C3030 1.378 . S
C3038 C3033 1.350 . S
C3039 H3026 0.929 . S
C3039 C3031 1.433 . S
C3039 N3041 1.384 . S
N3040 C3036 1.427 . S
N3040 C3037 1.384 . S
N3041 C3033 1.427 . S
N3041 C3039 1.384 . S
H3042 C3048 0.930 . S
H3043 C3052 0.930 . S
H3044 C3057 0.929 . S
H3045 C3055 0.929 . S
H3046 C3050 0.929 . S
H3047 C3056 0.929 . S
C3048 H3042 0.930 . S
C3048 C3049 1.367 . S
C3048 C3056 1.378 . S
C3049 C3048 1.367 . S
C3049 C3057 1.433 . S
C3050 H3046 0.929 . S
C3050 C3052 1.378 . S
C3050 C3054 1.350 . S
C3051 C3054 1.463 . S
C3051 C3056 1.350 . S
C3051 N3059 1.427 . S
C3052 H3043 0.930 . S
C3052 C3050 1.378 . S
C3052 C3053 1.367 . S
C3053 C3052 1.367 . S
C3053 C3055 1.433 . S
C3054 C3050 1.350 . S
C3054 C3051 1.463 . S
C3054 N3058 1.427 . S
C3055 H3045 0.929 . S
C3055 C3053 1.433 . S
C3055 N3058 1.384 . S
C3056 H3047 0.929 . S
C3056 C3048 1.378 . S
C3056 C3051 1.350 . S
C3057 H3044 0.929 . S
C3057 C3049 1.433 . S
C3057 N3059 1.384 . S
N3058 C3054 1.427 . S
N3058 C3055 1.384 . S
N3059 C3051 1.427 . S
N3059 C3057 1.384 . S
H3060 C3066 0.930 . S
H3061 C3070 0.930 . S
H3062 C3075 0.929 . S
H3063 C3073 0.929 . S
H3064 C3068 0.929 . S
H3065 C3074 0.929 . S
C3066 H3060 0.930 . S
C3066 C3067 1.367 . S
C3066 C3074 1.378 . S
C3067 C3066 1.367 . S
C3067 C3075 1.433 . S
C3068 H3064 0.929 . S
C3068 C3070 1.378 . S
C3068 C3072 1.350 . S
C3069 C3072 1.463 . S
C3069 C3074 1.350 . S
C3069 N3077 1.427 . S
C3070 H3061 0.930 . S
C3070 C3068 1.378 . S
C3070 C3071 1.367 . S
C3071 C3070 1.367 . S
C3071 C3073 1.433 . S
C3072 C3068 1.350 . S
C3072 C3069 1.463 . S
C3072 N3076 1.427 . S
C3073 H3063 0.929 . S
C3073 C3071 1.433 . S
C3073 N3076 1.384 . S
C3074 H3065 0.929 . S
C3074 C3066 1.378 . S
C3074 C3069 1.350 . S
C3075 H3062 0.929 . S
C3075 C3067 1.433 . S
C3075 N3077 1.384 . S
N3076 C3072 1.427 . S
N3076 C3073 1.384 . S
N3077 C3069 1.427 . S
N3077 C3075 1.384 . S
H3078 C3084 0.930 . S
H3079 C3088 0.930 . S
H3080 C3093 0.929 . S
H3081 C3091 0.929 . S
H3082 C3086 0.929 . S
H3083 C3092 0.929 . S
C3084 H3078 0.930 . S
C3084 C3085 1.367 . S
C3084 C3092 1.378 . S
C3085 C3084 1.367 . S
C3085 C3093 1.433 . S
C3086 H3082 0.929 . S
C3086 C3088 1.378 . S
C3086 C3090 1.350 . S
C3087 C3090 1.463 . S
C3087 C3092 1.350 . S
C3087 N3095 1.427 . S
C3088 H3079 0.930 . S
C3088 C3086 1.378 . S
C3088 C3089 1.367 . S
C3089 C3088 1.367 . S
C3089 C3091 1.433 . S
C3090 C3086 1.350 . S
C3090 C3087 1.463 . S
C3090 N3094 1.427 . S
C3091 H3081 0.929 . S
C3091 C3089 1.433 . S
C3091 N3094 1.384 . S
C3092 H3083 0.929 . S
C3092 C3084 1.378 . S
C3092 C3087 1.350 . S
C3093 H3080 0.929 . S
C3093 C3085 1.433 . S
C3093 N3095 1.384 . S
N3094 C3090 1.427 . S
N3094 C3091 1.384 . S
N3095 C3087 1.427 . S
N3095 C3093 1.384 . S
H3096 C3102 0.930 . S
H3097 C3106 0.930 . S
H3098 C3111 0.929 . S
H3099 C3109 0.929 . S
H3100 C3104 0.929 . S
H3101 C3110 0.929 . S
C3102 H3096 0.930 . S
C3102 C3103 1.367 . S
C3102 C3110 1.378 . S
C3103 C3102 1.367 . S
C3103 C3111 1.433 . S
C3104 H3100 0.929 . S
C3104 C3106 1.378 . S
C3104 C3108 1.350 . S
C3105 C3108 1.463 . S
C3105 C3110 1.350 . S
C3105 N3113 1.427 . S
C3106 H3097 0.930 . S
C3106 C3104 1.378 . S
C3106 C3107 1.367 . S
C3107 C3106 1.367 . S
C3107 C3109 1.433 . S
C3108 C3104 1.350 . S
C3108 C3105 1.463 . S
C3108 N3112 1.427 . S
C3109 H3099 0.929 . S
C3109 C3107 1.433 . S
C3109 N3112 1.384 . S
C3110 H3101 0.929 . S
C3110 C3102 1.378 . S
C3110 C3105 1.350 . S
C3111 H3098 0.929 . S
C3111 C3103 1.433 . S
C3111 N3113 1.384 . S
N3112 C3108 1.427 . S
N3112 C3109 1.384 . S
N3113 C3105 1.427 . S
N3113 C3111 1.384 . S
H3114 C3120 0.930 . S
H3115 C3124 0.930 . S
H3116 C3129 0.929 . S
H3117 C3127 0.929 . S
H3118 C3122 0.929 . S
H3119 C3128 0.929 . S
C3120 H3114 0.930 . S
C3120 C3121 1.367 . S
C3120 C3128 1.378 . S
C3121 C3120 1.367 . S
C3121 C3129 1.433 . S
C3122 H3118 0.929 . S
C3122 C3124 1.378 . S
C3122 C3126 1.350 . S
C3123 C3126 1.463 . S
C3123 C3128 1.350 . S
C3123 N3131 1.427 . S
C3124 H3115 0.930 . S
C3124 C3122 1.378 . S
C3124 C3125 1.367 . S
C3125 C3124 1.367 . S
C3125 C3127 1.433 . S
C3126 C3122 1.350 . S
C3126 C3123 1.463 . S
C3126 N3130 1.427 . S
C3127 H3117 0.929 . S
C3127 C3125 1.433 . S
C3127 N3130 1.384 . S
C3128 H3119 0.929 . S
C3128 C3120 1.378 . S
C3128 C3123 1.350 . S
C3129 H3116 0.929 . S
C3129 C3121 1.433 . S
C3129 N3131 1.384 . S
N3130 C3126 1.427 . S
N3130 C3127 1.384 . S
N3131 C3123 1.427 . S
N3131 C3129 1.384 . S
H3132 C3138 0.930 . S
H3133 C3142 0.930 . S
H3134 C3147 0.929 . S
H3135 C3145 0.929 . S
H3136 C3140 0.929 . S
H3137 C3146 0.929 . S
C3138 H3132 0.930 . S
C3138 C3139 1.367 . S
C3138 C3146 1.378 . S
C3139 C3138 1.367 . S
C3139 C3147 1.433 . S
C3140 H3136 0.929 . S
C3140 C3142 1.378 . S
C3140 C3144 1.350 . S
C3141 C3144 1.463 . S
C3141 C3146 1.350 . S
C3141 N3149 1.427 . S
C3142 H3133 0.930 . S
C3142 C3140 1.378 . S
C3142 C3143 1.367 . S
C3143 C3142 1.367 . S
C3143 C3145 1.433 . S
C3144 C3140 1.350 . S
C3144 C3141 1.463 . S
C3144 N3148 1.427 . S
C3145 H3135 0.929 . S
C3145 C3143 1.433 . S
C3145 N3148 1.384 . S
C3146 H3137 0.929 . S
C3146 C3138 1.378 . S
C3146 C3141 1.350 . S
C3147 H3134 0.929 . S
C3147 C3139 1.433 . S
C3147 N3149 1.384 . S
N3148 C3144 1.427 . S
N3148 C3145 1.384 . S
N3149 C3141 1.427 . S
N3149 C3147 1.384 . S
H3150 C3156 0.930 . S
H3151 C3160 0.930 . S
H3152 C3165 0.929 . S
H3153 C3163 0.929 . S
H3154 C3158 0.929 . S
H3155 C3164 0.929 . S
C3156 H3150 0.930 . S
C3156 C3157 1.367 . S
C3156 C3164 1.378 . S
C3157 C3156 1.367 . S
C3157 C3165 1.433 . S
C3158 H3154 0.929 . S
C3158 C3160 1.378 . S
C3158 C3162 1.350 . S
C3159 C3162 1.463 . S
C3159 C3164 1.350 . S
C3159 N3167 1.427 . S
C3160 H3151 0.930 . S
C3160 C3158 1.378 . S
C3160 C3161 1.367 . S
C3161 C3160 1.367 . S
C3161 C3163 1.433 . S
C3162 C3158 1.350 . S
C3162 C3159 1.463 . S
C3162 N3166 1.427 . S
C3163 H3153 0.929 . S
C3163 C3161 1.433 . S
C3163 N3166 1.384 . S
C3164 H3155 0.929 . S
C3164 C3156 1.378 . S
C3164 C3159 1.350 . S
C3165 H3152 0.929 . S
C3165 C3157 1.433 . S
C3165 N3167 1.384 . S
N3166 C3162 1.427 . S
N3166 C3163 1.384 . S
N3167 C3159 1.427 . S
N3167 C3165 1.384 . S
H3168 C3174 0.930 . S
H3169 C3178 0.930 . S
H3170 C3183 0.929 . S
H3171 C3181 0.929 . S
H3172 C3176 0.929 . S
H3173 C3182 0.929 . S
C3174 H3168 0.930 . S
C3174 C3175 1.367 . S
C3174 C3182 1.378 . S
C3175 C3174 1.367 . S
C3175 C3183 1.433 . S
C3176 H3172 0.929 . S
C3176 C3178 1.378 . S
C3176 C3180 1.350 . S
C3177 C3180 1.463 . S
C3177 C3182 1.350 . S
C3177 N3185 1.427 . S
C3178 H3169 0.930 . S
C3178 C3176 1.378 . S
C3178 C3179 1.367 . S
C3179 C3178 1.367 . S
C3179 C3181 1.433 . S
C3180 C3176 1.350 . S
C3180 C3177 1.463 . S
C3180 N3184 1.427 . S
C3181 H3171 0.929 . S
C3181 C3179 1.433 . S
C3181 N3184 1.384 . S
C3182 H3173 0.929 . S
C3182 C3174 1.378 . S
C3182 C3177 1.350 . S
C3183 H3170 0.929 . S
C3183 C3175 1.433 . S
C3183 N3185 1.384 . S
N3184 C3180 1.427 . S
N3184 C3181 1.384 . S
N3185 C3177 1.427 . S
N3185 C3183 1.384 . S
H3186 C3192 0.930 . S
H3187 C3196 0.930 . S
H3188 C3201 0.929 . S
H3189 C3199 0.929 . S
H3190 C3194 0.929 . S
H3191 C3200 0.929 . S
C3192 H3186 0.930 . S
C3192 C3193 1.367 . S
C3192 C3200 1.378 . S
C3193 C3192 1.367 . S
C3193 C3201 1.433 . S
C3194 H3190 0.929 . S
C3194 C3196 1.378 . S
C3194 C3198 1.350 . S
C3195 C3198 1.463 . S
C3195 C3200 1.350 . S
C3195 N3203 1.427 . S
C3196 H3187 0.930 . S
C3196 C3194 1.378 . S
C3196 C3197 1.367 . S
C3197 C3196 1.367 . S
C3197 C3199 1.433 . S
C3198 C3194 1.350 . S
C3198 C3195 1.463 . S
C3198 N3202 1.427 . S
C3199 H3189 0.929 . S
C3199 C3197 1.433 . S
C3199 N3202 1.384 . S
C3200 H3191 0.929 . S
C3200 C3192 1.378 . S
C3200 C3195 1.350 . S
C3201 H3188 0.929 . S
C3201 C3193 1.433 . S
C3201 N3203 1.384 . S
N3202 C3198 1.427 . S
N3202 C3199 1.384 . S
N3203 C3195 1.427 . S
N3203 C3201 1.384 . S
H3204 C3210 0.930 . S
H3205 C3214 0.930 . S
H3206 C3219 0.929 . S
H3207 C3217 0.929 . S
H3208 C3212 0.929 . S
H3209 C3218 0.929 . S
C3210 H3204 0.930 . S
C3210 C3211 1.367 . S
C3210 C3218 1.378 . S
C3211 C3210 1.367 . S
C3211 C3219 1.433 . S
C3212 H3208 0.929 . S
C3212 C3214 1.378 . S
C3212 C3216 1.350 . S
C3213 C3216 1.463 . S
C3213 C3218 1.350 . S
C3213 N3221 1.427 . S
C3214 H3205 0.930 . S
C3214 C3212 1.378 . S
C3214 C3215 1.367 . S
C3215 C3214 1.367 . S
C3215 C3217 1.433 . S
C3216 C3212 1.350 . S
C3216 C3213 1.463 . S
C3216 N3220 1.427 . S
C3217 H3207 0.929 . S
C3217 C3215 1.433 . S
C3217 N3220 1.384 . S
C3218 H3209 0.929 . S
C3218 C3210 1.378 . S
C3218 C3213 1.350 . S
C3219 H3206 0.929 . S
C3219 C3211 1.433 . S
C3219 N3221 1.384 . S
N3220 C3216 1.427 . S
N3220 C3217 1.384 . S
N3221 C3213 1.427 . S
N3221 C3219 1.384 . S
H3222 C3228 0.930 . S
H3223 C3232 0.930 . S
H3224 C3237 0.929 . S
H3225 C3235 0.929 . S
H3226 C3230 0.929 . S
H3227 C3236 0.929 . S
C3228 H3222 0.930 . S
C3228 C3229 1.367 . S
C3228 C3236 1.378 . S
C3229 C3228 1.367 . S
C3229 C3237 1.433 . S
C3230 H3226 0.929 . S
C3230 C3232 1.378 . S
C3230 C3234 1.350 . S
C3231 C3234 1.463 . S
C3231 C3236 1.350 . S
C3231 N3239 1.427 . S
C3232 H3223 0.930 . S
C3232 C3230 1.378 . S
C3232 C3233 1.367 . S
C3233 C3232 1.367 . S
C3233 C3235 1.433 . S
C3234 C3230 1.350 . S
C3234 C3231 1.463 . S
C3234 N3238 1.427 . S
C3235 H3225 0.929 . S
C3235 C3233 1.433 . S
C3235 N3238 1.384 . S
C3236 H3227 0.929 . S
C3236 C3228 1.378 . S
C3236 C3231 1.350 . S
C3237 H3224 0.929 . S
C3237 C3229 1.433 . S
C3237 N3239 1.384 . S
N3238 C3234 1.427 . S
N3238 C3235 1.384 . S
N3239 C3231 1.427 . S
N3239 C3237 1.384 . S
H3240 C3246 0.930 . S
H3241 C3250 0.930 . S
H3242 C3255 0.929 . S
H3243 C3253 0.929 . S
H3244 C3248 0.929 . S
H3245 C3254 0.929 . S
C3246 H3240 0.930 . S
C3246 C3247 1.367 . S
C3246 C3254 1.378 . S
C3247 C3246 1.367 . S
C3247 C3255 1.433 . S
C3248 H3244 0.929 . S
C3248 C3250 1.378 . S
C3248 C3252 1.350 . S
C3249 C3252 1.463 . S
C3249 C3254 1.350 . S
C3249 N3257 1.427 . S
C3250 H3241 0.930 . S
C3250 C3248 1.378 . S
C3250 C3251 1.367 . S
C3251 C3250 1.367 . S
C3251 C3253 1.433 . S
C3252 C3248 1.350 . S
C3252 C3249 1.463 . S
C3252 N3256 1.427 . S
C3253 H3243 0.929 . S
C3253 C3251 1.433 . S
C3253 N3256 1.384 . S
C3254 H3245 0.929 . S
C3254 C3246 1.378 . S
C3254 C3249 1.350 . S
C3255 H3242 0.929 . S
C3255 C3247 1.433 . S
C3255 N3257 1.384 . S
N3256 C3252 1.427 . S
N3256 C3253 1.384 . S
N3257 C3249 1.427 . S
N3257 C3255 1.384 . S
H3258 C3264 0.930 . S
H3259 C3268 0.930 . S
H3260 C3273 0.929 . S
H3261 C3271 0.929 . S
H3262 C3266 0.929 . S
H3263 C3272 0.929 . S
C3264 H3258 0.930 . S
C3264 C3265 1.367 . S
C3264 C3272 1.378 . S
C3265 C3264 1.367 . S
C3265 C3273 1.433 . S
C3266 H3262 0.929 . S
C3266 C3268 1.378 . S
C3266 C3270 1.350 . S
C3267 C3270 1.463 . S
C3267 C3272 1.350 . S
C3267 N3275 1.427 . S
C3268 H3259 0.930 . S
C3268 C3266 1.378 . S
C3268 C3269 1.367 . S
C3269 C3268 1.367 . S
C3269 C3271 1.433 . S
C3270 C3266 1.350 . S
C3270 C3267 1.463 . S
C3270 N3274 1.427 . S
C3271 H3261 0.929 . S
C3271 C3269 1.433 . S
C3271 N3274 1.384 . S
C3272 H3263 0.929 . S
C3272 C3264 1.378 . S
C3272 C3267 1.350 . S
C3273 H3260 0.929 . S
C3273 C3265 1.433 . S
C3273 N3275 1.384 . S
N3274 C3270 1.427 . S
N3274 C3271 1.384 . S
N3275 C3267 1.427 . S
N3275 C3273 1.384 . S
H3276 C3282 0.930 . S
H3277 C3286 0.930 . S
H3278 C3291 0.929 . S
H3279 C3289 0.929 . S
H3280 C3284 0.929 . S
H3281 C3290 0.929 . S
C3282 H3276 0.930 . S
C3282 C3283 1.367 . S
C3282 C3290 1.378 . S
C3283 C3282 1.367 . S
C3283 C3291 1.433 . S
C3284 H3280 0.929 . S
C3284 C3286 1.378 . S
C3284 C3288 1.350 . S
C3285 C3288 1.463 . S
C3285 C3290 1.350 . S
C3285 N3293 1.427 . S
C3286 H3277 0.930 . S
C3286 C3284 1.378 . S
C3286 C3287 1.367 . S
C3287 C3286 1.367 . S
C3287 C3289 1.433 . S
C3288 C3284 1.350 . S
C3288 C3285 1.463 . S
C3288 N3292 1.427 . S
C3289 H3279 0.929 . S
C3289 C3287 1.433 . S
C3289 N3292 1.384 . S
C3290 H3281 0.929 . S
C3290 C3282 1.378 . S
C3290 C3285 1.350 . S
C3291 H3278 0.929 . S
C3291 C3283 1.433 . S
C3291 N3293 1.384 . S
N3292 C3288 1.427 . S
N3292 C3289 1.384 . S
N3293 C3285 1.427 . S
N3293 C3291 1.384 . S
H3294 C3300 0.930 . S
H3295 C3304 0.930 . S
H3296 C3309 0.929 . S
H3297 C3307 0.929 . S
H3298 C3302 0.929 . S
H3299 C3308 0.929 . S
C3300 H3294 0.930 . S
C3300 C3301 1.367 . S
C3300 C3308 1.378 . S
C3301 C3300 1.367 . S
C3301 C3309 1.433 . S
C3302 H3298 0.929 . S
C3302 C3304 1.378 . S
C3302 C3306 1.350 . S
C3303 C3306 1.463 . S
C3303 C3308 1.350 . S
C3303 N3311 1.427 . S
C3304 H3295 0.930 . S
C3304 C3302 1.378 . S
C3304 C3305 1.367 . S
C3305 C3304 1.367 . S
C3305 C3307 1.433 . S
C3306 C3302 1.350 . S
C3306 C3303 1.463 . S
C3306 N3310 1.427 . S
C3307 H3297 0.929 . S
C3307 C3305 1.433 . S
C3307 N3310 1.384 . S
C3308 H3299 0.929 . S
C3308 C3300 1.378 . S
C3308 C3303 1.350 . S
C3309 H3296 0.929 . S
C3309 C3301 1.433 . S
C3309 N3311 1.384 . S
N3310 C3306 1.427 . S
N3310 C3307 1.384 . S
N3311 C3303 1.427 . S
N3311 C3309 1.384 . S
H3312 C3318 0.930 . S
H3313 C3322 0.930 . S
H3314 C3327 0.929 . S
H3315 C3325 0.929 . S
H3316 C3320 0.929 . S
H3317 C3326 0.929 . S
C3318 H3312 0.930 . S
C3318 C3319 1.367 . S
C3318 C3326 1.378 . S
C3319 C3318 1.367 . S
C3319 C3327 1.433 . S
C3320 H3316 0.929 . S
C3320 C3322 1.378 . S
C3320 C3324 1.350 . S
C3321 C3324 1.463 . S
C3321 C3326 1.350 . S
C3321 N3329 1.427 . S
C3322 H3313 0.930 . S
C3322 C3320 1.378 . S
C3322 C3323 1.367 . S
C3323 C3322 1.367 . S
C3323 C3325 1.433 . S
C3324 C3320 1.350 . S
C3324 C3321 1.463 . S
C3324 N3328 1.427 . S
C3325 H3315 0.929 . S
C3325 C3323 1.433 . S
C3325 N3328 1.384 . S
C3326 H3317 0.929 . S
C3326 C3318 1.378 . S
C3326 C3321 1.350 . S
C3327 H3314 0.929 . S
C3327 C3319 1.433 . S
C3327 N3329 1.384 . S
N3328 C3324 1.427 . S
N3328 C3325 1.384 . S
N3329 C3321 1.427 . S
N3329 C3327 1.384 . S
H3330 C3336 0.930 . S
H3331 C3340 0.930 . S
H3332 C3345 0.929 . S
H3333 C3343 0.929 . S
H3334 C3338 0.929 . S
H3335 C3344 0.929 . S
C3336 H3330 0.930 . S
C3336 C3337 1.367 . S
C3336 C3344 1.378 . S
C3337 C3336 1.367 . S
C3337 C3345 1.433 . S
C3338 H3334 0.929 . S
C3338 C3340 1.378 . S
C3338 C3342 1.350 . S
C3339 C3342 1.463 . S
C3339 C3344 1.350 . S
C3339 N3347 1.427 . S
C3340 H3331 0.930 . S
C3340 C3338 1.378 . S
C3340 C3341 1.367 . S
C3341 C3340 1.367 . S
C3341 C3343 1.433 . S
C3342 C3338 1.350 . S
C3342 C3339 1.463 . S
C3342 N3346 1.427 . S
C3343 H3333 0.929 . S
C3343 C3341 1.433 . S
C3343 N3346 1.384 . S
C3344 H3335 0.929 . S
C3344 C3336 1.378 . S
C3344 C3339 1.350 . S
C3345 H3332 0.929 . S
C3345 C3337 1.433 . S
C3345 N3347 1.384 . S
N3346 C3342 1.427 . S
N3346 C3343 1.384 . S
N3347 C3339 1.427 . S
N3347 C3345 1.384 . S
H3348 C3354 0.930 . S
H3349 C3358 0.930 . S
H3350 C3363 0.929 . S
H3351 C3361 0.929 . S
H3352 C3356 0.929 . S
H3353 C3362 0.929 . S
C3354 H3348 0.930 . S
C3354 C3355 1.367 . S
C3354 C3362 1.378 . S
C3355 C3354 1.367 . S
C3355 C3363 1.433 . S
C3356 H3352 0.929 . S
C3356 C3358 1.378 . S
C3356 C3360 1.350 . S
C3357 C3360 1.463 . S
C3357 C3362 1.350 . S
C3357 N3365 1.427 . S
C3358 H3349 0.930 . S
C3358 C3356 1.378 . S
C3358 C3359 1.367 . S
C3359 C3358 1.367 . S
C3359 C3361 1.433 . S
C3360 C3356 1.350 . S
C3360 C3357 1.463 . S
C3360 N3364 1.427 . S
C3361 H3351 0.929 . S
C3361 C3359 1.433 . S
C3361 N3364 1.384 . S
C3362 H3353 0.929 . S
C3362 C3354 1.378 . S
C3362 C3357 1.350 . S
C3363 H3350 0.929 . S
C3363 C3355 1.433 . S
C3363 N3365 1.384 . S
N3364 C3360 1.427 . S
N3364 C3361 1.384 . S
N3365 C3357 1.427 . S
N3365 C3363 1.384 . S
H3366 C3372 0.930 . S
H3367 C3376 0.930 . S
H3368 C3381 0.929 . S
H3369 C3379 0.929 . S
H3370 C3374 0.929 . S
H3371 C3380 0.929 . S
C3372 H3366 0.930 . S
C3372 C3373 1.367 . S
C3372 C3380 1.378 . S
C3373 C3372 1.367 . S
C3373 C3381 1.433 . S
C3374 H3370 0.929 . S
C3374 C3376 1.378 . S
C3374 C3378 1.350 . S
C3375 C3378 1.463 . S
C3375 C3380 1.350 . S
C3375 N3383 1.427 . S
C3376 H3367 0.930 . S
C3376 C3374 1.378 . S
C3376 C3377 1.367 . S
C3377 C3376 1.367 . S
C3377 C3379 1.433 . S
C3378 C3374 1.350 . S
C3378 C3375 1.463 . S
C3378 N3382 1.427 . S
C3379 H3369 0.929 . S
C3379 C3377 1.433 . S
C3379 N3382 1.384 . S
C3380 H3371 0.929 . S
C3380 C3372 1.378 . S
C3380 C3375 1.350 . S
C3381 H3368 0.929 . S
C3381 C3373 1.433 . S
C3381 N3383 1.384 . S
N3382 C3378 1.427 . S
N3382 C3379 1.384 . S
N3383 C3375 1.427 . S
N3383 C3381 1.384 . S
H3384 C3390 0.930 . S
H3385 C3394 0.930 . S
H3386 C3399 0.929 . S
H3387 C3397 0.929 . S
H3388 C3392 0.929 . S
H3389 C3398 0.929 . S
C3390 H3384 0.930 . S
C3390 C3391 1.367 . S
C3390 C3398 1.378 . S
C3391 C3390 1.367 . S
C3391 C3399 1.433 . S
C3392 H3388 0.929 . S
C3392 C3394 1.378 . S
C3392 C3396 1.350 . S
C3393 C3396 1.463 . S
C3393 C3398 1.350 . S
C3393 N3401 1.427 . S
C3394 H3385 0.930 . S
C3394 C3392 1.378 . S
C3394 C3395 1.367 . S
C3395 C3394 1.367 . S
C3395 C3397 1.433 . S
C3396 C3392 1.350 . S
C3396 C3393 1.463 . S
C3396 N3400 1.427 . S
C3397 H3387 0.929 . S
C3397 C3395 1.433 . S
C3397 N3400 1.384 . S
C3398 H3389 0.929 . S
C3398 C3390 1.378 . S
C3398 C3393 1.350 . S
C3399 H3386 0.929 . S
C3399 C3391 1.433 . S
C3399 N3401 1.384 . S
N3400 C3396 1.427 . S
N3400 C3397 1.384 . S
N3401 C3393 1.427 . S
N3401 C3399 1.384 . S
H3402 C3408 0.930 . S
H3403 C3412 0.930 . S
H3404 C3417 0.929 . S
H3405 C3415 0.929 . S
H3406 C3410 0.929 . S
H3407 C3416 0.929 . S
C3408 H3402 0.930 . S
C3408 C3409 1.367 . S
C3408 C3416 1.378 . S
C3409 C3408 1.367 . S
C3409 C3417 1.433 . S
C3410 H3406 0.929 . S
C3410 C3412 1.378 . S
C3410 C3414 1.350 . S
C3411 C3414 1.463 . S
C3411 C3416 1.350 . S
C3411 N3419 1.427 . S
C3412 H3403 0.930 . S
C3412 C3410 1.378 . S
C3412 C3413 1.367 . S
C3413 C3412 1.367 . S
C3413 C3415 1.433 . S
C3414 C3410 1.350 . S
C3414 C3411 1.463 . S
C3414 N3418 1.427 . S
C3415 H3405 0.929 . S
C3415 C3413 1.433 . S
C3415 N3418 1.384 . S
C3416 H3407 0.929 . S
C3416 C3408 1.378 . S
C3416 C3411 1.350 . S
C3417 H3404 0.929 . S
C3417 C3409 1.433 . S
C3417 N3419 1.384 . S
N3418 C3414 1.427 . S
N3418 C3415 1.384 . S
N3419 C3411 1.427 . S
N3419 C3417 1.384 . S
H3420 C3426 0.930 . S
H3421 C3430 0.930 . S
H3422 C3435 0.929 . S
H3423 C3433 0.929 . S
H3424 C3428 0.929 . S
H3425 C3434 0.929 . S
C3426 H3420 0.930 . S
C3426 C3427 1.367 . S
C3426 C3434 1.378 . S
C3427 C3426 1.367 . S
C3427 C3435 1.433 . S
C3428 H3424 0.929 . S
C3428 C3430 1.378 . S
C3428 C3432 1.350 . S
C3429 C3432 1.463 . S
C3429 C3434 1.350 . S
C3429 N3437 1.427 . S
C3430 H3421 0.930 . S
C3430 C3428 1.378 . S
C3430 C3431 1.367 . S
C3431 C3430 1.367 . S
C3431 C3433 1.433 . S
C3432 C3428 1.350 . S
C3432 C3429 1.463 . S
C3432 N3436 1.427 . S
C3433 H3423 0.929 . S
C3433 C3431 1.433 . S
C3433 N3436 1.384 . S
C3434 H3425 0.929 . S
C3434 C3426 1.378 . S
C3434 C3429 1.350 . S
C3435 H3422 0.929 . S
C3435 C3427 1.433 . S
C3435 N3437 1.384 . S
N3436 C3432 1.427 . S
N3436 C3433 1.384 . S
N3437 C3429 1.427 . S
N3437 C3435 1.384 . S
H3438 C3444 0.930 . S
H3439 C3448 0.930 . S
H3440 C3453 0.929 . S
H3441 C3451 0.929 . S
H3442 C3446 0.929 . S
H3443 C3452 0.929 . S
C3444 H3438 0.930 . S
C3444 C3445 1.367 . S
C3444 C3452 1.378 . S
C3445 C3444 1.367 . S
C3445 C3453 1.433 . S
C3446 H3442 0.929 . S
C3446 C3448 1.378 . S
C3446 C3450 1.350 . S
C3447 C3450 1.463 . S
C3447 C3452 1.350 . S
C3447 N3455 1.427 . S
C3448 H3439 0.930 . S
C3448 C3446 1.378 . S
C3448 C3449 1.367 . S
C3449 C3448 1.367 . S
C3449 C3451 1.433 . S
C3450 C3446 1.350 . S
C3450 C3447 1.463 . S
C3450 N3454 1.427 . S
C3451 H3441 0.929 . S
C3451 C3449 1.433 . S
C3451 N3454 1.384 . S
C3452 H3443 0.929 . S
C3452 C3444 1.378 . S
C3452 C3447 1.350 . S
C3453 H3440 0.929 . S
C3453 C3445 1.433 . S
C3453 N3455 1.384 . S
N3454 C3450 1.427 . S
N3454 C3451 1.384 . S
N3455 C3447 1.427 . S
N3455 C3453 1.384 . S
H3456 C3462 0.930 . S
H3457 C3466 0.930 . S
H3458 C3471 0.929 . S
H3459 C3469 0.929 . S
H3460 C3464 0.929 . S
H3461 C3470 0.929 . S
C3462 H3456 0.930 . S
C3462 C3463 1.367 . S
C3462 C3470 1.378 . S
C3463 C3462 1.367 . S
C3463 C3471 1.433 . S
C3464 H3460 0.929 . S
C3464 C3466 1.378 . S
C3464 C3468 1.350 . S
C3465 C3468 1.463 . S
C3465 C3470 1.350 . S
C3465 N3473 1.427 . S
C3466 H3457 0.930 . S
C3466 C3464 1.378 . S
C3466 C3467 1.367 . S
C3467 C3466 1.367 . S
C3467 C3469 1.433 . S
C3468 C3464 1.350 . S
C3468 C3465 1.463 . S
C3468 N3472 1.427 . S
C3469 H3459 0.929 . S
C3469 C3467 1.433 . S
C3469 N3472 1.384 . S
C3470 H3461 0.929 . S
C3470 C3462 1.378 . S
C3470 C3465 1.350 . S
C3471 H3458 0.929 . S
C3471 C3463 1.433 . S
C3471 N3473 1.384 . S
N3472 C3468 1.427 . S
N3472 C3469 1.384 . S
N3473 C3465 1.427 . S
N3473 C3471 1.384 . S
H3474 C3480 0.930 . S
H3475 C3484 0.930 . S
H3476 C3489 0.929 . S
H3477 C3487 0.929 . S
H3478 C3482 0.929 . S
H3479 C3488 0.929 . S
C3480 H3474 0.930 . S
C3480 C3481 1.367 . S
C3480 C3488 1.378 . S
C3481 C3480 1.367 . S
C3481 C3489 1.433 . S
C3482 H3478 0.929 . S
C3482 C3484 1.378 . S
C3482 C3486 1.350 . S
C3483 C3486 1.463 . S
C3483 C3488 1.350 . S
C3483 N3491 1.427 . S
C3484 H3475 0.930 . S
C3484 C3482 1.378 . S
C3484 C3485 1.367 . S
C3485 C3484 1.367 . S
C3485 C3487 1.433 . S
C3486 C3482 1.350 . S
C3486 C3483 1.463 . S
C3486 N3490 1.427 . S
C3487 H3477 0.929 . S
C3487 C3485 1.433 . S
C3487 N3490 1.384 . S
C3488 H3479 0.929 . S
C3488 C3480 1.378 . S
C3488 C3483 1.350 . S
C3489 H3476 0.929 . S
C3489 C3481 1.433 . S
C3489 N3491 1.384 . S
N3490 C3486 1.427 . S
N3490 C3487 1.384 . S
N3491 C3483 1.427 . S
N3491 C3489 1.384 . S
H3492 C3498 0.930 . S
H3493 C3502 0.930 . S
H3494 C3507 0.929 . S
H3495 C3505 0.929 . S
H3496 C3500 0.929 . S
H3497 C3506 0.929 . S
C3498 H3492 0.930 . S
C3498 C3499 1.367 . S
C3498 C3506 1.378 . S
C3499 C3498 1.367 . S
C3499 C3507 1.433 . S
C3500 H3496 0.929 . S
C3500 C3502 1.378 . S
C3500 C3504 1.350 . S
C3501 C3504 1.463 . S
C3501 C3506 1.350 . S
C3501 N3509 1.427 . S
C3502 H3493 0.930 . S
C3502 C3500 1.378 . S
C3502 C3503 1.367 . S
C3503 C3502 1.367 . S
C3503 C3505 1.433 . S
C3504 C3500 1.350 . S
C3504 C3501 1.463 . S
C3504 N3508 1.427 . S
C3505 H3495 0.929 . S
C3505 C3503 1.433 . S
C3505 N3508 1.384 . S
C3506 H3497 0.929 . S
C3506 C3498 1.378 . S
C3506 C3501 1.350 . S
C3507 H3494 0.929 . S
C3507 C3499 1.433 . S
C3507 N3509 1.384 . S
N3508 C3504 1.427 . S
N3508 C3505 1.384 . S
N3509 C3501 1.427 . S
N3509 C3507 1.384 . S
H3510 C3516 0.930 . S
H3511 C3520 0.930 . S
H3512 C3525 0.929 . S
H3513 C3523 0.929 . S
H3514 C3518 0.929 . S
H3515 C3524 0.929 . S
C3516 H3510 0.930 . S
C3516 C3517 1.367 . S
C3516 C3524 1.378 . S
C3517 C3516 1.367 . S
C3517 C3525 1.433 . S
C3518 H3514 0.929 . S
C3518 C3520 1.378 . S
C3518 C3522 1.350 . S
C3519 C3522 1.463 . S
C3519 C3524 1.350 . S
C3519 N3527 1.427 . S
C3520 H3511 0.930 . S
C3520 C3518 1.378 . S
C3520 C3521 1.367 . S
C3521 C3520 1.367 . S
C3521 C3523 1.433 . S
C3522 C3518 1.350 . S
C3522 C3519 1.463 . S
C3522 N3526 1.427 . S
C3523 H3513 0.929 . S
C3523 C3521 1.433 . S
C3523 N3526 1.384 . S
C3524 H3515 0.929 . S
C3524 C3516 1.378 . S
C3524 C3519 1.350 . S
C3525 H3512 0.929 . S
C3525 C3517 1.433 . S
C3525 N3527 1.384 . S
N3526 C3522 1.427 . S
N3526 C3523 1.384 . S
N3527 C3519 1.427 . S
N3527 C3525 1.384 . S
C1811 N1260 1.474 . S
C1807 C1 1.521 . S
C1829 C1287 1.594 . S
C1825 C60 1.596 . S
C1843 C79 1.510 . S
C1847 C1301 1.503 . S
C1865 N1319 1.430 . S
C1861 C118 1.468 . S
C1879 C177 1.581 . S
C1883 C1324 1.579 . S
C1897 C196 1.500 . S
C1901 C1264 1.501 . S
C1915 C250 1.411 . S
C1919 N1283 1.379 . S
C1937 N1296 1.473 . S
C1933 C274 1.519 . S
C1955 N1342 1.419 . S
C1951 C16 1.458 . S
C1969 C55 1.550 . S
C1973 N1365 1.519 . S
C1987 C99 1.559 . S
C1991 N1388 1.535 . S
C2009 N1421 1.403 . S
C2005 C133 1.447 . S
C2023 C157 1.565 . S
C2027 C1448 1.550 . S
C2045 C1471 1.555 . S
C2041 C211 1.562 . S
C2059 C255 1.452 . S
C2063 C1494 1.452 . S
C2081 C1508 1.445 . S
C2077 C294 1.444 . S
C2095 C21 1.448 . S
C2099 C1425 1.442 . S
C2113 C172 1.509 . S
C2117 N1467 1.477 . S
C2135 N1490 1.439 . S
C2131 C216 1.472 . S
C2149 C235 1.456 . S
C2153 N1503 1.424 . S
C2171 N1444 1.433 . S
C2167 C289 1.472 . S
C2189 C1370 1.660 . S
C2185 C94 1.663 . S
C2203 C138 1.473 . S
C2207 C1393 1.464 . S
C2225 C1347 1.609 . S
C2221 C40 1.612 . S
C2243 C1540 1.478 . S
C2239 C313 1.481 . S
C2257 C372 1.611 . S
C2261 C1554 1.612 . S
C2275 C391 1.504 . S
C2279 N1582 1.457 . S
C2297 N1595 1.417 . S
C2293 C430 1.457 . S
C2311 C489 1.591 . S
C2315 C1600 1.592 . S
C2329 C508 1.493 . S
C2333 N1536 1.444 . S
C2347 C562 1.500 . S
C2351 N1549 1.462 . S
C2365 C586 1.475 . S
C2369 C1586 1.465 . S
C2387 N1434 1.417 . S
C2383 C328 1.456 . S
C2401 C367 1.537 . S
C2405 N1618 1.497 . S
C2423 N1480 1.448 . S
C2419 C411 1.474 . S
C2437 C445 1.486 . S
C2441 C1655 1.486 . S
C2455 C469 1.597 . S
C2459 C1356 1.595 . S
C2477 C1669 1.587 . S
C2473 C523 1.589 . S
C2491 C567 1.503 . S
C2495 C1402 1.496 . S
C2513 N1687 1.409 . S
C2509 C606 1.440 . S
C2527 C333 1.474 . S
C2531 N1651 1.429 . S
C2549 N1664 1.500 . S
C2545 C484 1.541 . S
C2563 C528 1.473 . S
C2567 N1398 1.419 . S
C2585 C1692 1.415 . S
C2581 C547 1.417 . S
C2599 C601 1.450 . S
C2603 N1352 1.417 . S
C2617 C406 1.566 . S
C2621 C1623 1.564 . S
C2635 C450 1.514 . S
C2639 C1485 1.510 . S
C2653 C352 1.616 . S
C2657 C1439 1.616 . S
C2671 C625 1.546 . S
C2675 C1577 1.544 . S
C2693 C1609 1.546 . S
C2689 C684 1.552 . S
C2707 C703 1.470 . S
C2711 N1526 1.432 . S
C2725 C742 1.439 . S
C2729 N1559 1.397 . S
C2743 C801 1.595 . S
C2747 C1563 1.591 . S
C2761 C820 1.557 . S
C2765 N1572 1.522 . S
C2783 N1605 1.344 . S
C2779 C874 1.387 . S
C2797 C898 1.522 . S
C2801 C1531 1.521 . S
C2819 N1720 1.452 . S
C2815 C640 1.487 . S
C2833 C679 1.489 . S
C2837 N1457 1.447 . S
C2855 N1743 1.376 . S
C2851 C723 1.421 . S
C2869 C757 1.463 . S
C2873 N1513 1.430 . S
C2887 C781 1.572 . S
C2891 C1761 1.571 . S
C2905 C835 1.655 . S
C2909 C1379 1.651 . S
C2927 N1779 1.344 . S
C2923 C879 1.391 . S
C2941 C918 1.491 . S
C2945 C1416 1.497 . S
C2963 C1517 1.495 . S
C2959 C645 1.497 . S
C2981 N1375 1.500 . S
C2977 C796 1.551 . S
C2995 C840 1.570 . S
C2999 C1784 1.567 . S
C3013 C859 1.380 . S
C3017 N1411 1.329 . S
C3035 N1756 1.486 . S
C3031 C913 1.517 . S
C3053 C1462 1.563 . S
C3049 C718 1.564 . S
C3071 C1747 1.509 . S
C3067 C762 1.516 . S
C3089 C1724 1.577 . S
C3085 C664 1.580 . S
C3103 C937 1.434 . S
C3107 N1306 1.382 . S
C3121 C996 1.571 . S
C3125 C1333 1.561 . S
C3143 C1255 1.541 . S
C3139 C1015 1.544 . S
C3161 N1273 1.366 . S
C3157 C1054 1.402 . S
C3179 C1278 1.592 . S
C3175 C1113 1.592 . S
C3197 C1310 1.507 . S
C3193 C1132 1.510 . S
C3215 N1329 1.464 . S
C3211 C1186 1.509 . S
C3229 C1210 1.532 . S
C3233 N1250 1.500 . S
C3247 C952 1.398 . S
C3251 N1766 1.363 . S
C3269 N1674 1.482 . S
C3265 C991 1.513 . S
C3287 C1793 1.577 . S
C3283 C1035 1.581 . S
C3305 C1701 1.358 . S
C3301 C1069 1.367 . S
C3319 C1093 1.599 . S
C3323 C1715 1.597 . S
C3341 C1632 1.573 . S
C3337 C1147 1.581 . S
C3359 C1738 1.592 . S
C3355 C1191 1.594 . S
C3373 C1230 1.486 . S
C3377 N1641 1.444 . S
C3395 N1697 1.365 . S
C3391 C957 1.399 . S
C3413 N1628 1.472 . S
C3409 C1108 1.511 . S
C3431 N1733 1.390 . S
C3427 C1152 1.423 . S
C3445 C1171 1.487 . S
C3449 C1646 1.484 . S
C3463 C1225 1.460 . S
C3467 N1710 1.419 . S
C3481 C1030 1.663 . S
C3485 C1678 1.658 . S
C3499 C1074 1.399 . S
C3503 N1789 1.366 . S
C3521 C1770 1.552 . S
C3517 C976 1.558 . S
