# Generated by pormake.
# Topology cml, (3,6)-cn, num edge types: 1
# Building blocks:
#     Node 0, Type 0, BuildingBlock: QEWDON_clean_linker_0, # of connection points: 3
#     Node 1, Type 0, BuildingBlock: QEWDON_clean_linker_0, # of connection points: 3
#     Node 2, Type 0, BuildingBlock: QEWDON_clean_linker_0, # of connection points: 3
#     Node 3, Type 0, BuildingBlock: QEWDON_clean_linker_0, # of connection points: 3
#     Node 4, Type 0, BuildingBlock: QEWDON_clean_linker_0, # of connection points: 3
#     Node 5, Type 0, BuildingBlock: QEWDON_clean_linker_0, # of connection points: 3
#     Node 6, Type 0, BuildingBlock: QEWDON_clean_linker_0, # of connection points: 3
#     Node 7, Type 0, BuildingBlock: QEWDON_clean_linker_0, # of connection points: 3
#     Node 8, Type 1, BuildingBlock: IZENUY_clean_sbu_0, # of connection points: 6
#     Node 9, Type 1, BuildingBlock: IZENUY_clean_sbu_0, # of connection points: 6
#     Node 10, Type 1, BuildingBlock: IZENUY_clean_sbu_0, # of connection points: 6
#     Node 11, Type 1, BuildingBlock: IZENUY_clean_sbu_0, # of connection points: 6
#     Edge 12, Type (0, 1), BuildingBlock: AJUNOK_clean_linker_0, # of connection points: 2
#     Edge 13, Type (0, 1), BuildingBlock: AJUNOK_clean_linker_0, # of connection points: 2
#     Edge 14, Type (0, 1), BuildingBlock: AJUNOK_clean_linker_0, # of connection points: 2
#     Edge 15, Type (0, 1), BuildingBlock: AJUNOK_clean_linker_0, # of connection points: 2
#     Edge 16, Type (0, 1), BuildingBlock: AJUNOK_clean_linker_0, # of connection points: 2
#     Edge 17, Type (0, 1), BuildingBlock: AJUNOK_clean_linker_0, # of connection points: 2
#     Edge 18, Type (0, 1), BuildingBlock: AJUNOK_clean_linker_0, # of connection points: 2
#     Edge 19, Type (0, 1), BuildingBlock: AJUNOK_clean_linker_0, # of connection points: 2
#     Edge 20, Type (0, 1), BuildingBlock: AJUNOK_clean_linker_0, # of connection points: 2
#     Edge 21, Type (0, 1), BuildingBlock: AJUNOK_clean_linker_0, # of connection points: 2
#     Edge 22, Type (0, 1), BuildingBlock: AJUNOK_clean_linker_0, # of connection points: 2
#     Edge 23, Type (0, 1), BuildingBlock: AJUNOK_clean_linker_0, # of connection points: 2
#     Edge 24, Type (0, 1), BuildingBlock: AJUNOK_clean_linker_0, # of connection points: 2
#     Edge 25, Type (0, 1), BuildingBlock: AJUNOK_clean_linker_0, # of connection points: 2
#     Edge 26, Type (0, 1), BuildingBlock: AJUNOK_clean_linker_0, # of connection points: 2
#     Edge 27, Type (0, 1), BuildingBlock: AJUNOK_clean_linker_0, # of connection points: 2
#     Edge 28, Type (0, 1), BuildingBlock: AJUNOK_clean_linker_0, # of connection points: 2
#     Edge 29, Type (0, 1), BuildingBlock: AJUNOK_clean_linker_0, # of connection points: 2
#     Edge 30, Type (0, 1), BuildingBlock: AJUNOK_clean_linker_0, # of connection points: 2
#     Edge 31, Type (0, 1), BuildingBlock: AJUNOK_clean_linker_0, # of connection points: 2
#     Edge 32, Type (0, 1), BuildingBlock: AJUNOK_clean_linker_0, # of connection points: 2
#     Edge 33, Type (0, 1), BuildingBlock: AJUNOK_clean_linker_0, # of connection points: 2
#     Edge 34, Type (0, 1), BuildingBlock: AJUNOK_clean_linker_0, # of connection points: 2
#     Edge 35, Type (0, 1), BuildingBlock: AJUNOK_clean_linker_0, # of connection points: 2
# Relax obj value: 0.012
# Max RMSD: 0.123
# Mean RMSD: 0.092
data_MOF--net-cml--node1-IZENUY_clean_sbu_0--node2-QEWDON_clean_linker_0--edge1-AJUNOK_clean_linker_0
_symmetry_space_group_name_H-M    P1
_symmetry_Int_Tables_number       1
_symmetry_cell_setting            triclinic
loop_
_symmetry_equiv_pos_as_xyz
'x, y, z'
_cell_length_a     29.224504
_cell_length_b     31.311835
_cell_length_c     27.111723
_cell_angle_alpha  89.972533
_cell_angle_beta   89.936879
_cell_angle_gamma 90.316
loop_
_atom_site_label
_atom_site_type_symbol
_atom_site_fract_x
_atom_site_fract_y
_atom_site_fract_z
_atom_type_partial_charge
H0 H 0.28651 0.45545 0.97179 0.0
C1 C 0.30578 0.442 1.00215 0.0
C2 C 0.34974 0.45783 0.01289 0.0
C3 C 0.28572 0.41023 0.03197 0.0
H4 H 0.40678 0.45451 0.06288 0.0
C5 C 0.37338 0.44151 0.05376 0.0
C6 C 0.35396 0.40949 0.08369 0.0
C7 C 0.30996 0.394 0.07252 0.0
C8 C 0.23705 0.3987 0.02539 0.0
H9 H 0.29399 0.37031 0.09622 0.0
C10 C 0.22359 0.35951 1.00416 0.0
C11 C 0.17676 0.34903 1.00042 0.0
C12 C 0.20361 0.42715 0.04232 0.0
H13 H 0.21345 0.45734 0.05883 0.0
C14 C 0.15732 0.41663 0.03882 0.0
H15 H 0.24921 0.33744 0.9908 0.0
C16 C 0.14391 0.37775 0.01817 0.0
H17 H 0.10776 0.37025 0.01546 0.0
H18 H 0.13173 0.43866 0.05219 0.0
H19 H 0.74033 0.57986 0.46654 0.0
C20 C 0.72397 0.59222 0.49945 0.0
C21 C 0.67936 0.57901 0.51145 0.0
C22 C 0.7479 0.62074 0.53033 0.0
H23 H 0.62538 0.58238 0.56531 0.0
C24 C 0.65929 0.59366 0.55519 0.0
C25 C 0.68315 0.62108 0.58721 0.0
C26 C 0.72723 0.63532 0.57411 0.0
C27 C 0.79694 0.62928 0.52099 0.0
H28 H 0.74648 0.65538 0.59932 0.0
C29 C 0.81265 0.66872 0.50207 0.0
C30 C 0.8599 0.67553 0.49433 0.0
C31 C 0.8285 0.59695 0.53155 0.0
H32 H 0.81696 0.56645 0.54598 0.0
C33 C 0.87516 0.60377 0.52408 0.0
H34 H 0.78847 0.69381 0.49367 0.0
C35 C 0.89082 0.64281 0.50578 0.0
H36 H 0.92723 0.6474 0.50009 0.0
H37 H 0.89928 0.57871 0.53253 0.0
H38 H 0.70813 0.41704 0.93823 0.0
C39 C 0.70005 0.41566 0.97722 0.0
C40 C 0.67432 0.44844 0.99917 0.0
C41 C 0.71237 0.37926 1.00431 0.0
H42 H 0.64147 0.4692 0.06607 0.0
C43 C 0.66343 0.44535 0.04957 0.0
C44 C 0.67655 0.40974 0.07769 0.0
C45 C 0.701 0.37666 0.05457 0.0
C46 C 0.726 0.34029 0.9774 0.0
H47 H 0.7089 0.34779 0.07488 0.0
C48 C 0.77218 0.32908 0.96988 0.0
C49 C 0.78302 0.29258 0.94165 0.0
C50 C 0.69117 0.3146 0.95741 0.0
H51 H 0.65553 0.32282 0.96282 0.0
C52 C 0.70187 0.27842 0.92997 0.0
H53 H 0.79925 0.34892 0.98494 0.0
C54 C 0.74742 0.26754 0.92191 0.0
H55 H 0.75494 0.23926 0.90042 0.0
H56 H 0.67475 0.25884 0.91466 0.0
H57 H 0.32883 0.61807 0.43521 0.0
C58 C 0.33622 0.61983 0.47433 0.0
C59 C 0.359 0.58599 0.49775 0.0
C60 C 0.32536 0.65721 0.50027 0.0
H61 H 0.39111 0.56581 0.56542 0.0
C62 C 0.37032 0.59004 0.54799 0.0
C63 C 0.35895 0.62691 0.57483 0.0
C64 C 0.33616 0.66038 0.5506 0.0
C65 C 0.312 0.69577 0.47248 0.0
H66 H 0.32926 0.6899 0.57008 0.0
C67 C 0.26702 0.71177 0.47347 0.0
C68 C 0.2563 0.74917 0.44699 0.0
C69 C 0.34568 0.71704 0.4447 0.0
H70 H 0.38041 0.70511 0.44354 0.0
C71 C 0.33505 0.75401 0.4186 0.0
H72 H 0.24079 0.69544 0.49469 0.0
C73 C 0.29069 0.77008 0.41977 0.0
H74 H 0.28303 0.79875 0.39902 0.0
H75 H 0.36127 0.77027 0.39739 0.0
H76 H 0.78977 0.94545 0.97572 0.0
C77 C 0.80777 0.93467 1.00835 0.0
C78 C 0.84988 0.95355 0.02096 0.0
C79 C 0.78705 0.90456 0.03998 0.0
H80 H 0.90396 0.95618 0.07479 0.0
C81 C 0.87168 0.94129 0.06473 0.0
C82 C 0.8517 0.91107 0.09645 0.0
C83 C 0.80942 0.89256 0.08378 0.0
C84 C 0.73816 0.89368 0.03328 0.0
H85 H 0.79256 0.87102 0.10943 0.0
C86 C 0.72342 0.8588 1.00425 0.0
C87 C 0.67615 0.85103 0.9977 0.0
C88 C 0.70562 0.91997 0.05598 0.0
H89 H 0.7164 0.94686 0.07838 0.0
C90 C 0.65904 0.91214 0.04971 0.0
H91 H 0.74833 0.83842 0.98648 0.0
C92 C 0.64435 0.87807 0.02063 0.0
H93 H 0.60793 0.87258 0.01623 0.0
H94 H 0.63421 0.93267 0.06728 0.0
H95 H 0.23841 0.0958 0.46571 0.0
C96 C 0.22214 0.10448 0.50021 0.0
C97 C 0.17757 0.08984 0.51063 0.0
C98 C 0.24663 0.1286 0.53521 0.0
H99 H 0.12447 0.087 0.5659 0.0
C100 C 0.15805 0.09956 0.55666 0.0
C101 C 0.18216 0.12347 0.59206 0.0
C102 C 0.2264 0.13824 0.58091 0.0
C103 C 0.29597 0.13674 0.52786 0.0
H104 H 0.2461 0.15504 0.60875 0.0
C105 C 0.31222 0.1722 0.50086 0.0
C106 C 0.35968 0.1781 0.49384 0.0
C107 C 0.3272 0.10774 0.54807 0.0
H108 H 0.31519 0.08036 0.56896 0.0
C109 C 0.37407 0.11358 0.54119 0.0
H110 H 0.28822 0.19464 0.48507 0.0
C111 C 0.39026 0.14839 0.51414 0.0
H112 H 0.42685 0.15237 0.50936 0.0
H113 H 0.39794 0.09099 0.5568 0.0
H114 H 0.19402 0.90403 0.94589 0.0
C115 C 0.18964 0.90245 0.98554 0.0
C116 C 0.16778 0.936 1.01068 0.0
C117 C 0.20165 0.86468 1.01059 0.0
H118 H 0.14321 0.95718 0.08161 0.0
C119 C 0.16003 0.9317 0.06159 0.0
C120 C 0.16812 0.89304 0.08603 0.0
C121 C 0.19011 0.85987 0.06075 0.0
C122 C 0.21601 0.82697 0.98184 0.0
H123 H 0.19498 0.82934 0.07883 0.0
C124 C 0.26237 0.81892 0.9709 0.0
C125 C 0.27435 0.78322 0.94188 0.0
C126 C 0.18205 0.79911 0.96417 0.0
H127 H 0.14629 0.8049 0.97224 0.0
C128 C 0.19382 0.76384 0.93563 0.0
H129 H 0.28871 0.84047 0.98426 0.0
C130 C 0.23956 0.75598 0.9244 0.0
H131 H 0.24789 0.72823 0.90233 0.0
H132 H 0.16739 0.74255 0.92208 0.0
H133 H 0.81352 0.11527 0.45525 0.0
C134 C 0.82329 0.11682 0.49376 0.0
C135 C 0.84918 0.0837 0.51487 0.0
C136 C 0.81418 0.15416 0.52048 0.0
H137 H 0.88495 0.06312 0.58016 0.0
C138 C 0.86287 0.08726 0.56441 0.0
C139 C 0.85298 0.12401 0.59204 0.0
C140 C 0.82771 0.15697 0.56999 0.0
C141 C 0.80373 0.19385 0.4934 0.0
H142 H 0.82148 0.18629 0.59008 0.0
C143 C 0.75906 0.20449 0.47854 0.0
C144 C 0.75149 0.24232 0.45144 0.0
C145 C 0.84038 0.22106 0.48121 0.0
H146 H 0.87498 0.21323 0.49226 0.0
C147 C 0.83294 0.25825 0.45429 0.0
H148 H 0.73067 0.18353 0.48769 0.0
C149 C 0.78885 0.26882 0.43937 0.0
H150 H 0.78378 0.29812 0.41886 0.0
H151 H 0.86144 0.27896 0.44497 0.0
Fe152 Fe 0.01767 0.83995 0.33484 0.0
Fe153 Fe 0.01624 0.89169 0.4314 0.0
O154 O 0.01631 0.88978 0.36605 0.0
Fe155 Fe 1.01488 0.93808 0.33228 0.0
O156 O 0.96142 0.92309 0.30332 0.0
O157 O 0.98097 0.8576 0.28324 0.0
O158 O 0.96569 0.82156 0.36536 0.0
C159 C 0.96024 0.81925 0.41142 0.0
C160 C 0.07335 0.88623 0.27369 0.0
O161 O 0.98554 0.84088 0.43998 0.0
C162 C 0.07381 0.96137 0.4052 0.0
O163 O 0.055 0.81416 0.38098 0.0
O164 O 0.07118 0.86551 0.43374 0.0
O165 O 0.04757 0.91809 0.2796 0.0
O166 O 0.06972 0.85394 0.30119 0.0
C167 C 0.95436 0.95423 0.41201 0.0
O168 O 0.04737 0.94275 0.43544 0.0
O169 O 0.06854 0.95658 0.35932 0.0
C170 C 0.081 0.83039 0.41363 0.0
O171 O 0.96108 0.91864 0.4328 0.0
O172 O 0.98109 0.96692 0.37823 0.0
C173 C 0.95524 0.88986 0.27778 0.0
Fe174 Fe 1.01451 0.14703 0.92813 0.0
Fe175 Fe 0.01677 0.09293 0.83353 0.0
O176 O 0.01816 0.14355 0.86291 0.0
Fe177 Fe 0.02242 0.19066 0.8268 0.0
O178 O 0.05537 0.22101 0.87261 0.0
O179 O 0.06875 0.17543 0.93244 0.0
O180 O 0.04613 0.09736 0.939 0.0
C181 C 0.07193 0.0749 0.91188 0.0
C182 C 0.95794 0.2146 0.89546 0.0
O183 O 0.06826 0.0758 0.8655 0.0
C184 C 0.962 0.13842 0.77107 0.0
O185 O 0.95996 0.11889 0.92935 0.0
O186 O 0.97982 0.06698 0.87971 0.0
O187 O 0.96835 0.21013 0.85057 0.0
O188 O 0.98175 0.19712 0.92878 0.0
C189 C 0.08127 0.13987 0.77569 0.0
O190 O 0.96512 0.10655 0.79948 0.0
O191 O 0.99017 0.16908 0.77455 0.0
C192 C 0.95363 0.08171 0.91271 0.0
O193 O 0.05352 0.10911 0.78191 0.0
O194 O 0.07656 0.17418 0.79963 0.0
C195 C 0.07833 0.20958 0.90986 0.0
Fe196 Fe 0.51803 0.33754 0.31679 0.0
Fe197 Fe 0.5173 0.38324 0.41716 0.0
O198 O 0.51653 0.38544 0.35173 0.0
Fe199 Fe 0.51483 0.43547 0.32094 0.0
O200 O 0.48198 0.4156 0.26807 0.0
O201 O 0.46373 0.34934 0.28691 0.0
O202 O 0.48606 0.30538 0.36196 0.0
C203 C 0.46038 0.31542 0.39772 0.0
C204 C 0.5757 0.39349 0.26185 0.0
O205 O 0.4655 0.35083 0.4192 0.0
C206 C 0.5727 0.45293 0.40285 0.0
O207 O 0.57246 0.32267 0.34355 0.0
O208 O 0.55429 0.33594 0.42068 0.0
O209 O 0.56887 0.4252 0.28966 0.0
O210 O 0.55054 0.36056 0.26526 0.0
C211 C 0.45454 0.45026 0.39621 0.0
O212 O 0.56918 0.41581 0.42069 0.0
O213 O 0.54704 0.46476 0.36801 0.0
C214 C 0.58058 0.31913 0.38906 0.0
O215 O 0.48056 0.43005 0.42527 0.0
O216 O 0.46098 0.44957 0.3501 0.0
C217 C 0.4569 0.38294 0.2623 0.0
Fe218 Fe 0.51428 0.65244 0.91768 0.0
Fe219 Fe 0.51319 0.59878 0.82241 0.0
O220 O 0.51484 0.64914 0.85224 0.0
Fe221 Fe 0.5165 0.69659 0.81619 0.0
O222 O 0.54915 0.72823 0.86135 0.0
O223 O 0.56771 0.68239 0.91878 0.0
O224 O 0.5486 0.60405 0.92712 0.0
C225 C 0.57219 0.5812 0.8982 0.0
C226 C 0.4532 0.7175 0.88722 0.0
O227 O 0.56535 0.58161 0.85228 0.0
C228 C 0.45672 0.64309 0.76092 0.0
O229 O 0.46101 0.62246 0.92261 0.0
O230 O 0.47783 0.57221 0.86924 0.0
O231 O 0.46232 0.71378 0.84187 0.0
O232 O 0.47929 0.70133 0.91957 0.0
C233 C 0.57628 0.64705 0.7644 0.0
O234 O 0.46058 0.61189 0.79003 0.0
O235 O 0.48399 0.6745 0.7641 0.0
C236 C 0.45354 0.58604 0.90431 0.0
O237 O 0.5488 0.61599 0.77034 0.0
O238 O 0.57065 0.68173 0.78755 0.0
C239 C 0.57442 0.71746 0.89711 0.0
C240 C 0.13928 0.27733 1.00572 0.0
C241 C 0.16073 0.30899 0.97694 0.0
C242 C 0.11529 0.24337 0.98366 0.0
C243 C 0.111 0.24055 0.93202 0.0
H244 H 0.13936 0.27992 0.04557 0.0
H245 H 0.09765 0.22075 1.00732 0.0
S246 S 0.16445 0.31362 0.84052 0.0
N247 N 0.17928 0.33381 0.89453 0.0
N248 N 0.13355 0.27056 0.8528 0.0
C249 C 0.13432 0.27093 0.90292 0.0
C250 C 0.15933 0.30505 0.92545 0.0
C251 C 0.90921 0.74029 0.50316 0.0
C252 C 0.87838 0.71632 0.47452 0.0
C253 C 0.93373 0.7747 0.48294 0.0
C254 C 0.92912 0.78615 0.43287 0.0
H255 H 0.91557 0.73139 0.54116 0.0
H256 H 0.95799 0.79123 0.50643 0.0
S257 S 0.85003 0.73491 0.34314 0.0
N258 N 0.84224 0.70758 0.39464 0.0
N259 N 0.88858 0.77203 0.35605 0.0
C260 C 0.8968 0.76341 0.40435 0.0
C261 C 0.87139 0.72859 0.4253 0.0
C262 C 0.84541 0.27409 0.88259 0.0
C263 C 0.83095 0.2796 0.93163 0.0
C264 C 0.8874 0.25489 0.87147 0.0
C265 C 0.91659 0.23988 0.90896 0.0
H266 H 0.82328 0.28343 0.85245 0.0
H267 H 0.89608 0.25035 0.83298 0.0
S268 S 0.89518 0.24902 0.04379 0.0
N269 N 0.8496 0.27063 0.01812 0.0
N270 N 0.92859 0.23429 0.99773 0.0
C271 C 0.90324 0.24689 0.95839 0.0
C272 C 0.86047 0.26683 0.96959 0.0
C273 C 0.17416 0.74571 0.42117 0.0
C274 C 0.20949 0.76705 0.44634 0.0
C275 C 0.1321 0.76584 0.41211 0.0
C276 C 0.12377 0.80794 0.42825 0.0
H277 H 0.17986 0.71406 0.40633 0.0
H278 H 0.10644 0.74865 0.3911 0.0
S279 S 0.20497 0.87597 0.49932 0.0
N280 N 0.23311 0.83118 0.48963 0.0
N281 N 0.15435 0.86907 0.47347 0.0
C282 C 0.15841 0.8287 0.45562 0.0
C283 C 0.20119 0.80826 0.46438 0.0
C284 C 0.62998 0.82457 0.92662 0.0
C285 C 0.65838 0.81537 0.967 0.0
C286 C 0.60502 0.79233 0.90268 0.0
C287 C 0.60677 0.7495 0.91864 0.0
H288 H 0.62561 0.85734 0.91469 0.0
H289 H 0.58252 0.80158 0.87285 0.0
S290 S 0.67946 0.70838 0.0204 0.0
N291 N 0.68961 0.76034 0.01993 0.0
N292 N 0.6426 0.69941 0.97537 0.0
C293 C 0.63705 0.7396 0.95751 0.0
C294 C 0.66285 0.77258 0.98156 0.0
C295 C 0.40794 0.20663 0.42533 0.0
C296 C 0.37862 0.21463 0.46532 0.0
C297 C 0.43239 0.23974 0.40239 0.0
C298 C 0.42914 0.28231 0.41895 0.0
H299 H 0.41309 0.17421 0.41261 0.0
H300 H 0.45545 0.23141 0.37266 0.0
S301 S 0.35403 0.32032 0.52038 0.0
N302 N 0.34522 0.26818 0.51882 0.0
N303 N 0.39134 0.33075 0.47611 0.0
C304 C 0.39821 0.29097 0.45765 0.0
C305 C 0.37291 0.25708 0.48069 0.0
C306 C 0.33472 0.76675 0.87948 0.0
C307 C 0.32264 0.77328 0.9291 0.0
C308 C 0.37775 0.75072 0.86637 0.0
C309 C 0.41051 0.74001 0.90239 0.0
H310 H 0.31008 0.77285 0.85052 0.0
H311 H 0.38453 0.74509 0.82763 0.0
S312 S 0.39653 0.75399 0.03775 0.0
N313 N 0.34742 0.77021 0.01439 0.0
N314 N 0.42841 0.73989 0.99018 0.0
C315 C 0.39949 0.74821 0.95222 0.0
C316 C 0.35561 0.76492 0.96545 0.0
C317 C 0.697 0.26576 0.38609 0.0
C318 C 0.70506 0.25558 0.43583 0.0
C319 C 0.65598 0.28476 0.37118 0.0
C320 C 0.62149 0.29487 0.40553 0.0
H321 H 0.72325 0.26009 0.35865 0.0
H322 H 0.65211 0.29297 0.3326 0.0
S323 S 0.62504 0.27212 0.54007 0.0
N324 N 0.67471 0.25488 0.51915 0.0
N325 N 0.59742 0.29069 0.49153 0.0
C326 C 0.62851 0.28328 0.45526 0.0
C327 C 0.67027 0.26355 0.47028 0.0
C328 C 0.38768 0.52959 1.00642 0.0
C329 C 0.37094 0.49256 0.98301 0.0
C330 C 0.41209 0.56091 0.9801 0.0
C331 C 0.42139 0.5561 0.92944 0.0
H332 H 0.38268 0.53395 0.04569 0.0
H333 H 0.42553 0.58811 1.00019 0.0
S334 S 0.38208 0.46639 0.85024 0.0
N335 N 0.36287 0.45405 0.90579 0.0
N336 N 0.40908 0.51258 0.85623 0.0
C337 C 0.40321 0.51998 0.90521 0.0
C338 C 0.37788 0.48834 0.93198 0.0
C339 C 0.67035 0.5064 0.47312 0.0
C340 C 0.6539 0.54814 0.48015 0.0
C341 C 0.64406 0.47547 0.44806 0.0
C342 C 0.60097 0.48564 0.42828 0.0
H343 H 0.7031 0.49727 0.48843 0.0
H344 H 0.6575 0.44348 0.44411 0.0
S345 S 0.54277 0.59057 0.43702 0.0
N346 N 0.59201 0.59792 0.4657 0.0
N347 N 0.54307 0.54052 0.4179 0.0
C348 C 0.58464 0.52756 0.43446 0.0
C349 C 0.61098 0.55863 0.46058 0.0
C350 C 0.65189 0.52527 0.98757 0.0
C351 C 0.65354 0.48324 0.96902 0.0
C352 C 0.62684 0.55724 0.96354 0.0
C353 C 0.60311 0.5487 0.91951 0.0
H354 H 0.66908 0.53324 0.02175 0.0
H355 H 0.62535 0.58872 0.98004 0.0
S356 S 0.5958 0.4442 0.85545 0.0
N357 N 0.62827 0.43496 0.90402 0.0
N358 N 0.58307 0.49544 0.85794 0.0
C359 C 0.60578 0.50735 0.8995 0.0
C360 C 0.63055 0.47456 0.92442 0.0
C361 C 0.39806 0.55625 0.42264 0.0
C362 C 0.3766 0.54912 0.46856 0.0
C363 C 0.4205 0.52323 0.39756 0.0
C364 C 0.42299 0.48197 0.41778 0.0
H365 H 0.39968 0.58807 0.40703 0.0
H366 H 0.43846 0.53078 0.36365 0.0
S367 S 0.3674 0.44486 0.53319 0.0
N368 N 0.35467 0.4961 0.52998 0.0
N369 N 0.39874 0.43466 0.4839 0.0
C370 C 0.39984 0.47381 0.46227 0.0
C371 C 0.37624 0.50719 0.48738 0.0
C372 C 0.88645 0.98041 0.94313 0.0
C373 C 0.87014 0.98848 0.99091 0.0
C374 C 0.91158 1.01155 0.91716 0.0
C375 C 0.92095 0.05206 0.93782 0.0
H376 H 0.88151 0.94922 0.92663 0.0
H377 H 0.925 1.00323 0.88118 0.0
S378 S 0.88077 0.09005 0.06023 0.0
N379 N 0.86162 0.04044 0.05657 0.0
N380 N 0.90811 0.09923 1.00793 0.0
C381 C 0.9023 0.06116 0.98461 0.0
C382 C 0.87719 0.02928 0.01113 0.0
C383 C 0.17399 0.02363 0.45801 0.0
C384 C 0.15266 0.06077 0.4762 0.0
C385 C 0.1489 0.99223 0.43232 0.0
C386 C 0.10183 0.99715 0.42384 0.0
H387 H 0.20971 0.0177 0.46596 0.0
H388 H 0.1659 0.96314 0.42111 0.0
S389 S 0.03075 0.0899 0.45903 0.0
N390 N 0.08235 0.10191 0.47982 0.0
N391 N 0.03544 0.04266 0.43251 0.0
C392 C 0.08065 0.03484 0.43964 0.0
C393 C 0.10601 0.06676 0.46551 0.0
C394 C 0.1008 0.98418 0.99783 0.0
C395 C 0.14534 0.97197 0.98373 0.0
C396 C 0.07815 0.01782 0.97473 0.0
C397 C 0.09828 0.04024 0.93541 0.0
H398 H 0.08268 0.96728 0.02679 0.0
H399 H 0.04396 0.0257 0.98718 0.0
S400 S 0.21342 0.02124 0.88269 0.0
N401 N 0.20878 0.98565 0.92749 0.0
N402 N 0.16474 0.04786 0.88226 0.0
C403 C 0.14216 0.02804 0.9197 0.0
C404 C 0.16595 0.99414 0.94415 0.0
C405 C 0.87178 1.00705 0.50177 0.0
C406 C 0.86922 0.0492 0.48379 0.0
C407 C 0.89738 0.97574 0.47713 0.0
C408 C 0.9214 0.98533 0.4334 0.0
H409 H 0.85515 0.99856 0.53617 0.0
H410 H 0.89976 0.94431 0.4936 0.0
S411 S 0.92304 0.09021 0.36878 0.0
N412 N 0.89178 0.09836 0.4185 0.0
N413 N 0.93747 0.03942 0.37089 0.0
C414 C 0.91674 0.02674 0.41344 0.0
C415 C 0.89133 0.05868 0.43892 0.0
C416 C 0.35702 0.39671 0.17519 0.0
C417 C 0.37861 0.39512 0.12867 0.0
C418 C 0.38186 0.38999 0.21891 0.0
C419 C 0.42886 0.38108 0.21731 0.0
H420 H 0.32132 0.40553 0.17797 0.0
H421 H 0.36478 0.39384 0.25411 0.0
S422 S 0.50038 0.36887 0.10534 0.0
N423 N 0.44895 0.38024 0.08398 0.0
N424 N 0.49541 0.36815 0.16601 0.0
C425 C 0.45022 0.37718 0.17118 0.0
C426 C 0.42514 0.38399 0.12685 0.0
C427 C 0.64966 0.59578 0.66638 0.0
C428 C 0.66303 0.63024 0.63638 0.0
C429 C 0.62415 0.60214 0.70936 0.0
C430 C 0.61071 0.64329 0.72426 0.0
H431 H 0.65763 0.56334 0.65554 0.0
H432 H 0.61337 0.57426 0.73012 0.0
S433 S 0.64068 0.74468 0.66068 0.0
N434 N 0.66411 0.70726 0.62604 0.0
N435 N 0.61581 0.71951 0.70721 0.0
C436 C 0.62631 0.6784 0.69624 0.0
C437 C 0.65253 0.67179 0.65217 0.0
C438 C 0.63498 0.36628 0.14119 0.0
C439 C 0.65785 0.40435 0.12851 0.0
C440 C 0.61063 0.36257 0.18551 0.0
C441 C 0.60762 0.39688 0.21905 0.0
H442 H 0.63386 0.33976 0.11557 0.0
H443 H 0.59239 0.33294 0.19236 0.0
S444 S 0.66693 0.50154 0.20626 0.0
N445 N 0.68036 0.47545 0.15539 0.0
N446 N 0.63389 0.46887 0.23846 0.0
C447 C 0.63263 0.43432 0.20817 0.0
C448 C 0.65774 0.43798 0.16298 0.0
C449 C 0.4027 0.66963 0.63718 0.0
C450 C 0.37736 0.63268 0.62567 0.0
C451 C 0.42635 0.67334 0.68192 0.0
C452 C 0.42587 0.6402 0.71721 0.0
H453 H 0.40619 0.69514 0.6104 0.0
H454 H 0.44661 0.70193 0.68791 0.0
S455 S 0.35939 0.53905 0.70754 0.0
N456 N 0.34923 0.56406 0.65507 0.0
N457 N 0.39386 0.57075 0.73918 0.0
C458 C 0.39844 0.60403 0.70733 0.0
C459 C 0.3743 0.6003 0.66159 0.0
C460 C 0.88134 0.9376 0.17695 0.0
C461 C 0.87323 0.90303 0.1451 0.0
C462 C 0.90568 0.93237 0.22094 0.0
C463 C 0.92361 0.89238 0.23475 0.0
H464 H 0.86957 0.96925 0.16719 0.0
H465 H 0.91194 0.96049 0.24325 0.0
S466 S 0.90903 0.79108 0.16504 0.0
N467 N 0.88249 0.82707 0.13108 0.0
N468 N 0.92889 0.81693 0.2137 0.0
C469 C 0.91412 0.85711 0.20396 0.0
C470 C 0.88879 0.8625 0.1592 0.0
C471 C 0.14578 0.09293 0.66757 0.0
C472 C 0.16215 0.12899 0.64209 0.0
C473 C 0.12221 0.0969 0.71223 0.0
C474 C 0.11369 0.13718 0.73342 0.0
H475 H 0.1503 0.06129 0.65219 0.0
H476 H 0.10919 0.06805 0.72943 0.0
S477 S 0.15271 0.24154 0.68305 0.0
N478 N 0.17105 0.20615 0.64251 0.0
N479 N 0.12646 0.2139 0.72672 0.0
C480 C 0.13208 0.17348 0.70964 0.0
C481 C 0.15633 0.16932 0.66393 0.0
C482 C 0.16844 0.87775 0.17774 0.0
C483 C 0.14435 0.88542 0.13368 0.0
C484 C 0.14534 0.87621 0.22351 0.0
C485 C 0.09776 0.88268 0.22615 0.0
H486 H 0.20531 0.87454 0.17699 0.0
H487 H 0.16492 0.87169 0.25699 0.0
S488 S 0.0187 0.89781 0.12073 0.0
N489 N 0.06992 0.89463 0.09529 0.0
N490 N 0.02713 0.8928 0.18063 0.0
C491 C 0.07334 0.88814 0.18207 0.0
C492 C 0.09649 0.8892 0.13596 0.0
C493 C 0.87613 0.09774 0.67603 0.0
C494 C 0.87599 0.13051 0.64045 0.0
C495 C 0.90255 0.10112 0.71914 0.0
C496 C 0.93008 0.13736 0.72825 0.0
H497 H 0.85646 0.0688 0.66992 0.0
H498 H 0.90237 0.07455 0.74473 0.0
S499 S 0.94075 0.23271 0.64691 0.0
N500 N 0.90538 0.20051 0.61736 0.0
N501 N 0.95362 0.2077 0.69857 0.0
C502 C 0.92882 0.17106 0.69364 0.0
C503 C 0.9022 0.16743 0.64974 0.0
loop_
_geom_bond_atom_site_label_1
_geom_bond_atom_site_label_2
_geom_bond_distance
_geom_bond_site_symmetry_2
_ccdc_geom_bond_type
H0 C1 0.949 . S
C1 H0 0.949 . S
C1 C2 1.395 . S
C1 C3 1.391 1_556 S
C2 C1 1.395 . S
C2 C5 1.390 1_556 S
C3 C1 1.391 1_554 S
C3 C7 1.387 . S
C3 C8 1.491 . S
H4 C5 0.950 . S
C5 C2 1.390 1_554 S
C5 H4 0.950 . S
C5 C6 1.378 . S
C6 C5 1.378 . S
C6 C7 1.409 . S
C7 C3 1.387 . S
C7 C6 1.409 . S
C7 H9 0.951 . S
C8 C3 1.491 . S
C8 C10 1.382 1_554 S
C8 C12 1.404 . S
H9 C7 0.951 . S
C10 C8 1.382 1_556 S
C10 C11 1.390 . S
C10 H15 0.949 . S
C11 C10 1.390 . S
C11 C16 1.399 1_556 S
C12 C8 1.404 . S
C12 H13 0.950 . S
C12 C14 1.375 . S
H13 C12 0.950 . S
C14 C12 1.375 . S
C14 C16 1.382 . S
C14 H18 0.950 . S
H15 C10 0.949 . S
C16 C11 1.399 1_554 S
C16 C14 1.382 . S
C16 H17 0.952 . S
H17 C16 0.952 . S
H18 C14 0.950 . S
H19 C20 0.949 . S
C20 H19 0.949 . S
C20 C21 1.395 . S
C20 C22 1.391 . S
C21 C20 1.395 . S
C21 C24 1.390 . S
C22 C20 1.391 . S
C22 C26 1.387 . S
C22 C27 1.491 . S
H23 C24 0.950 . S
C24 C21 1.390 . S
C24 H23 0.950 . S
C24 C25 1.378 . S
C25 C24 1.378 . S
C25 C26 1.409 . S
C26 C22 1.387 . S
C26 C25 1.409 . S
C26 H28 0.951 . S
C27 C22 1.491 . S
C27 C29 1.382 . S
C27 C31 1.404 . S
H28 C26 0.951 . S
C29 C27 1.382 . S
C29 C30 1.390 . S
C29 H34 0.949 . S
C30 C29 1.390 . S
C30 C35 1.399 . S
C31 C27 1.404 . S
C31 H32 0.950 . S
C31 C33 1.375 . S
H32 C31 0.950 . S
C33 C31 1.375 . S
C33 C35 1.382 . S
C33 H37 0.950 . S
H34 C29 0.949 . S
C35 C30 1.399 . S
C35 C33 1.382 . S
C35 H36 0.952 . S
H36 C35 0.952 . S
H37 C33 0.950 . S
H38 C39 0.949 . S
C39 H38 0.949 . S
C39 C40 1.395 . S
C39 C41 1.391 1_556 S
C40 C39 1.395 . S
C40 C43 1.390 1_556 S
C41 C39 1.391 1_554 S
C41 C45 1.387 . S
C41 C46 1.491 . S
H42 C43 0.950 . S
C43 C40 1.390 1_554 S
C43 H42 0.950 . S
C43 C44 1.378 . S
C44 C43 1.378 . S
C44 C45 1.409 . S
C45 C41 1.387 . S
C45 C44 1.409 . S
C45 H47 0.951 . S
C46 C41 1.491 . S
C46 C48 1.382 1_554 S
C46 C50 1.404 . S
H47 C45 0.951 . S
C48 C46 1.382 1_556 S
C48 C49 1.390 . S
C48 H53 0.949 . S
C49 C48 1.390 . S
C49 C54 1.399 . S
C50 C46 1.404 . S
C50 H51 0.950 . S
C50 C52 1.375 . S
H51 C50 0.950 . S
C52 C50 1.375 . S
C52 C54 1.382 1_554 S
C52 H56 0.950 . S
H53 C48 0.949 . S
C54 C49 1.399 . S
C54 C52 1.382 1_556 S
C54 H55 0.952 . S
H55 C54 0.952 . S
H56 C52 0.950 . S
H57 C58 0.949 . S
C58 H57 0.949 . S
C58 C59 1.395 . S
C58 C60 1.391 . S
C59 C58 1.395 . S
C59 C62 1.390 . S
C60 C58 1.391 . S
C60 C64 1.387 . S
C60 C65 1.491 . S
H61 C62 0.950 . S
C62 C59 1.390 . S
C62 H61 0.950 . S
C62 C63 1.378 . S
C63 C62 1.378 . S
C63 C64 1.409 . S
C64 C60 1.387 . S
C64 C63 1.409 . S
C64 H66 0.951 . S
C65 C60 1.491 . S
C65 C67 1.382 . S
C65 C69 1.404 . S
H66 C64 0.951 . S
C67 C65 1.382 . S
C67 C68 1.390 . S
C67 H72 0.949 . S
C68 C67 1.390 . S
C68 C73 1.399 . S
C69 C65 1.404 . S
C69 H70 0.950 . S
C69 C71 1.375 . S
H70 C69 0.950 . S
C71 C69 1.375 . S
C71 C73 1.382 . S
C71 H75 0.950 . S
H72 C67 0.949 . S
C73 C68 1.399 . S
C73 C71 1.382 . S
C73 H74 0.952 . S
H74 C73 0.952 . S
H75 C71 0.950 . S
H76 C77 0.949 . S
C77 H76 0.949 . S
C77 C78 1.395 . S
C77 C79 1.391 1_556 S
C78 C77 1.395 . S
C78 C81 1.390 1_556 S
C79 C77 1.391 1_554 S
C79 C83 1.387 . S
C79 C84 1.491 . S
H80 C81 0.950 . S
C81 C78 1.390 1_554 S
C81 H80 0.950 . S
C81 C82 1.378 . S
C82 C81 1.378 . S
C82 C83 1.409 . S
C83 C79 1.387 . S
C83 C82 1.409 . S
C83 H85 0.951 . S
C84 C79 1.491 . S
C84 C86 1.382 1_554 S
C84 C88 1.404 . S
H85 C83 0.951 . S
C86 C84 1.382 1_556 S
C86 C87 1.390 . S
C86 H91 0.949 . S
C87 C86 1.390 . S
C87 C92 1.399 1_556 S
C88 C84 1.404 . S
C88 H89 0.950 . S
C88 C90 1.375 . S
H89 C88 0.950 . S
C90 C88 1.375 . S
C90 C92 1.382 . S
C90 H94 0.950 . S
H91 C86 0.949 . S
C92 C87 1.399 1_554 S
C92 C90 1.382 . S
C92 H93 0.952 . S
H93 C92 0.952 . S
H94 C90 0.950 . S
H95 C96 0.949 . S
C96 H95 0.949 . S
C96 C97 1.395 . S
C96 C98 1.391 . S
C97 C96 1.395 . S
C97 C100 1.390 . S
C98 C96 1.391 . S
C98 C102 1.387 . S
C98 C103 1.491 . S
H99 C100 0.950 . S
C100 C97 1.390 . S
C100 H99 0.950 . S
C100 C101 1.378 . S
C101 C100 1.378 . S
C101 C102 1.409 . S
C102 C98 1.387 . S
C102 C101 1.409 . S
C102 H104 0.951 . S
C103 C98 1.491 . S
C103 C105 1.382 . S
C103 C107 1.404 . S
H104 C102 0.951 . S
C105 C103 1.382 . S
C105 C106 1.390 . S
C105 H110 0.949 . S
C106 C105 1.390 . S
C106 C111 1.399 . S
C107 C103 1.404 . S
C107 H108 0.950 . S
C107 C109 1.375 . S
H108 C107 0.950 . S
C109 C107 1.375 . S
C109 C111 1.382 . S
C109 H113 0.950 . S
H110 C105 0.949 . S
C111 C106 1.399 . S
C111 C109 1.382 . S
C111 H112 0.952 . S
H112 C111 0.952 . S
H113 C109 0.950 . S
H114 C115 0.949 . S
C115 H114 0.949 . S
C115 C116 1.395 . S
C115 C117 1.391 1_556 S
C116 C115 1.395 . S
C116 C119 1.390 1_556 S
C117 C115 1.391 1_554 S
C117 C121 1.387 . S
C117 C122 1.491 . S
H118 C119 0.950 . S
C119 C116 1.390 1_554 S
C119 H118 0.950 . S
C119 C120 1.378 . S
C120 C119 1.378 . S
C120 C121 1.409 . S
C121 C117 1.387 . S
C121 C120 1.409 . S
C121 H123 0.951 . S
C122 C117 1.491 . S
C122 C124 1.382 1_554 S
C122 C126 1.404 . S
H123 C121 0.951 . S
C124 C122 1.382 1_556 S
C124 C125 1.390 . S
C124 H129 0.949 . S
C125 C124 1.390 . S
C125 C130 1.399 . S
C126 C122 1.404 . S
C126 H127 0.950 . S
C126 C128 1.375 . S
H127 C126 0.950 . S
C128 C126 1.375 . S
C128 C130 1.382 1_554 S
C128 H132 0.950 . S
H129 C124 0.949 . S
C130 C125 1.399 . S
C130 C128 1.382 1_556 S
C130 H131 0.952 . S
H131 C130 0.952 . S
H132 C128 0.950 . S
H133 C134 0.949 . S
C134 H133 0.949 . S
C134 C135 1.395 . S
C134 C136 1.391 . S
C135 C134 1.395 . S
C135 C138 1.390 . S
C136 C134 1.391 . S
C136 C140 1.387 . S
C136 C141 1.491 . S
H137 C138 0.950 . S
C138 C135 1.390 . S
C138 H137 0.950 . S
C138 C139 1.378 . S
C139 C138 1.378 . S
C139 C140 1.409 . S
C140 C136 1.387 . S
C140 C139 1.409 . S
C140 H142 0.951 . S
C141 C136 1.491 . S
C141 C143 1.382 . S
C141 C145 1.404 . S
H142 C140 0.951 . S
C143 C141 1.382 . S
C143 C144 1.390 . S
C143 H148 0.949 . S
C144 C143 1.390 . S
C144 C149 1.399 . S
C145 C141 1.404 . S
C145 H146 0.950 . S
C145 C147 1.375 . S
H146 C145 0.950 . S
C147 C145 1.375 . S
C147 C149 1.382 . S
C147 H151 0.950 . S
H148 C143 0.949 . S
C149 C144 1.399 . S
C149 C147 1.382 . S
C149 H150 0.952 . S
H150 C149 0.952 . S
H151 C147 0.950 . S
Fe152 O154 1.918 . S
Fe152 O157 1.997 1_455 S
Fe152 O158 2.002 1_455 S
Fe152 O163 1.976 . S
Fe152 O166 1.996 . S
Fe153 O154 1.918 . S
Fe153 O161 1.997 1_455 S
Fe153 O164 1.996 . S
Fe153 O168 1.976 . S
Fe153 O171 2.002 1_455 S
O154 Fe152 1.918 . S
O154 Fe153 1.918 . S
O154 Fe155 1.918 . S
Fe155 O154 1.918 . S
Fe155 O156 2.002 1_455 S
Fe155 O165 1.976 . S
Fe155 O169 1.996 . S
Fe155 O172 1.997 1_455 S
O156 Fe155 2.002 1_655 S
O156 C173 1.295 . S
O157 Fe152 1.997 1_655 S
O157 C173 1.235 . S
O158 Fe152 2.002 1_655 S
O158 C159 1.295 . S
C159 O158 1.295 . S
C159 O161 1.235 . S
C160 O165 1.287 . S
C160 O166 1.255 . S
O161 Fe153 1.997 1_655 S
O161 C159 1.235 . S
C162 O168 1.287 . S
C162 O169 1.255 . S
O163 Fe152 1.976 . S
O163 C170 1.287 . S
O164 Fe153 1.996 . S
O164 C170 1.255 . S
O165 Fe155 1.976 . S
O165 C160 1.287 . S
O166 Fe152 1.996 . S
O166 C160 1.255 . S
C167 O171 1.295 . S
C167 O172 1.235 . S
O168 Fe153 1.976 . S
O168 C162 1.287 . S
O169 Fe155 1.996 . S
O169 C162 1.255 . S
C170 O163 1.287 . S
C170 O164 1.255 . S
O171 Fe153 2.002 1_655 S
O171 C167 1.295 . S
O172 Fe155 1.997 1_655 S
O172 C167 1.235 . S
C173 O156 1.295 . S
C173 O157 1.235 . S
Fe174 O176 1.918 . S
Fe174 O179 1.997 1_655 S
Fe174 O180 2.002 1_655 S
Fe174 O185 1.976 . S
Fe174 O188 1.996 . S
Fe175 O176 1.918 . S
Fe175 O183 1.997 1_655 S
Fe175 O186 1.996 . S
Fe175 O190 1.976 . S
Fe175 O193 2.002 1_655 S
O176 Fe174 1.918 . S
O176 Fe175 1.918 . S
O176 Fe177 1.918 . S
Fe177 O176 1.918 . S
Fe177 O178 2.002 1_655 S
Fe177 O187 1.976 . S
Fe177 O191 1.996 . S
Fe177 O194 1.997 1_655 S
O178 Fe177 2.002 1_455 S
O178 C195 1.295 . S
O179 Fe174 1.997 1_455 S
O179 C195 1.235 . S
O180 Fe174 2.002 1_455 S
O180 C181 1.295 . S
C181 O180 1.295 . S
C181 O183 1.235 . S
C182 O187 1.287 . S
C182 O188 1.255 . S
O183 Fe175 1.997 1_455 S
O183 C181 1.235 . S
C184 O190 1.287 . S
C184 O191 1.255 . S
O185 Fe174 1.976 . S
O185 C192 1.287 . S
O186 Fe175 1.996 . S
O186 C192 1.255 . S
O187 Fe177 1.976 . S
O187 C182 1.287 . S
O188 Fe174 1.996 . S
O188 C182 1.255 . S
C189 O193 1.295 . S
C189 O194 1.235 . S
O190 Fe175 1.976 . S
O190 C184 1.287 . S
O191 Fe177 1.996 . S
O191 C184 1.255 . S
C192 O185 1.287 . S
C192 O186 1.255 . S
O193 Fe175 2.002 1_455 S
O193 C189 1.295 . S
O194 Fe177 1.997 1_455 S
O194 C189 1.235 . S
C195 O178 1.295 . S
C195 O179 1.235 . S
Fe196 O198 1.918 . S
Fe196 O201 1.997 . S
Fe196 O202 2.002 . S
Fe196 O207 1.976 . S
Fe196 O210 1.996 . S
Fe197 O198 1.918 . S
Fe197 O205 1.997 . S
Fe197 O208 1.996 . S
Fe197 O212 1.976 . S
Fe197 O215 2.002 . S
O198 Fe196 1.918 . S
O198 Fe197 1.918 . S
O198 Fe199 1.918 . S
Fe199 O198 1.918 . S
Fe199 O200 2.002 . S
Fe199 O209 1.976 . S
Fe199 O213 1.996 . S
Fe199 O216 1.997 . S
O200 Fe199 2.002 . S
O200 C217 1.295 . S
O201 Fe196 1.997 . S
O201 C217 1.235 . S
O202 Fe196 2.002 . S
O202 C203 1.295 . S
C203 O202 1.295 . S
C203 O205 1.235 . S
C204 O209 1.287 . S
C204 O210 1.255 . S
O205 Fe197 1.997 . S
O205 C203 1.235 . S
C206 O212 1.287 . S
C206 O213 1.255 . S
O207 Fe196 1.976 . S
O207 C214 1.287 . S
O208 Fe197 1.996 . S
O208 C214 1.255 . S
O209 Fe199 1.976 . S
O209 C204 1.287 . S
O210 Fe196 1.996 . S
O210 C204 1.255 . S
C211 O215 1.295 . S
C211 O216 1.235 . S
O212 Fe197 1.976 . S
O212 C206 1.287 . S
O213 Fe199 1.996 . S
O213 C206 1.255 . S
C214 O207 1.287 . S
C214 O208 1.255 . S
O215 Fe197 2.002 . S
O215 C211 1.295 . S
O216 Fe199 1.997 . S
O216 C211 1.235 . S
C217 O200 1.295 . S
C217 O201 1.235 . S
Fe218 O220 1.918 . S
Fe218 O223 1.997 . S
Fe218 O224 2.002 . S
Fe218 O229 1.976 . S
Fe218 O232 1.996 . S
Fe219 O220 1.918 . S
Fe219 O227 1.997 . S
Fe219 O230 1.996 . S
Fe219 O234 1.976 . S
Fe219 O237 2.002 . S
O220 Fe218 1.918 . S
O220 Fe219 1.918 . S
O220 Fe221 1.918 . S
Fe221 O220 1.918 . S
Fe221 O222 2.002 . S
Fe221 O231 1.976 . S
Fe221 O235 1.996 . S
Fe221 O238 1.997 . S
O222 Fe221 2.002 . S
O222 C239 1.295 . S
O223 Fe218 1.997 . S
O223 C239 1.235 . S
O224 Fe218 2.002 . S
O224 C225 1.295 . S
C225 O224 1.295 . S
C225 O227 1.235 . S
C226 O231 1.287 . S
C226 O232 1.255 . S
O227 Fe219 1.997 . S
O227 C225 1.235 . S
C228 O234 1.287 . S
C228 O235 1.255 . S
O229 Fe218 1.976 . S
O229 C236 1.287 . S
O230 Fe219 1.996 . S
O230 C236 1.255 . S
O231 Fe221 1.976 . S
O231 C226 1.287 . S
O232 Fe218 1.996 . S
O232 C226 1.255 . S
C233 O237 1.295 . S
C233 O238 1.235 . S
O234 Fe219 1.976 . S
O234 C228 1.287 . S
O235 Fe221 1.996 . S
O235 C228 1.255 . S
C236 O229 1.287 . S
C236 O230 1.255 . S
O237 Fe219 2.002 . S
O237 C233 1.295 . S
O238 Fe221 1.997 . S
O238 C233 1.235 . S
C239 O222 1.295 . S
C239 O223 1.235 . S
C240 C241 1.369 . S
C240 C242 1.419 . S
C240 H244 0.930 . S
C241 C240 1.369 . S
C241 C250 1.429 . S
C242 C240 1.419 . S
C242 C243 1.363 . S
C242 H245 0.929 . S
C243 C242 1.363 . S
C243 C249 1.428 . S
H244 C240 0.930 . S
H245 C242 0.929 . S
S246 N247 1.613 . S
S246 N248 1.610 . S
N247 S246 1.613 . S
N247 C250 1.350 . S
N248 S246 1.610 . S
N248 C249 1.351 . S
C249 C243 1.428 . S
C249 N248 1.351 . S
C249 C250 1.434 . S
C250 C241 1.429 . S
C250 N247 1.350 . S
C250 C249 1.434 . S
C251 C252 1.369 . S
C251 C253 1.419 . S
C251 H255 0.930 . S
C252 C251 1.369 . S
C252 C261 1.429 . S
C253 C251 1.419 . S
C253 C254 1.363 . S
C253 H256 0.929 . S
C254 C253 1.363 . S
C254 C260 1.428 . S
H255 C251 0.930 . S
H256 C253 0.929 . S
S257 N258 1.613 . S
S257 N259 1.610 . S
N258 S257 1.613 . S
N258 C261 1.350 . S
N259 S257 1.610 . S
N259 C260 1.351 . S
C260 C254 1.428 . S
C260 N259 1.351 . S
C260 C261 1.434 . S
C261 C252 1.429 . S
C261 N258 1.350 . S
C261 C260 1.434 . S
C262 C263 1.369 . S
C262 C264 1.419 . S
C262 H266 0.930 . S
C263 C262 1.369 . S
C263 C272 1.429 . S
C264 C262 1.419 . S
C264 C265 1.363 . S
C264 H267 0.929 . S
C265 C264 1.363 . S
C265 C271 1.428 . S
H266 C262 0.930 . S
H267 C264 0.929 . S
S268 N269 1.613 . S
S268 N270 1.610 . S
N269 S268 1.613 . S
N269 C272 1.350 . S
N270 S268 1.610 . S
N270 C271 1.351 . S
C271 C265 1.428 . S
C271 N270 1.351 . S
C271 C272 1.434 . S
C272 C263 1.429 . S
C272 N269 1.350 . S
C272 C271 1.434 . S
C273 C274 1.369 . S
C273 C275 1.419 . S
C273 H277 0.930 . S
C274 C273 1.369 . S
C274 C283 1.429 . S
C275 C273 1.419 . S
C275 C276 1.363 . S
C275 H278 0.929 . S
C276 C275 1.363 . S
C276 C282 1.428 . S
H277 C273 0.930 . S
H278 C275 0.929 . S
S279 N280 1.613 . S
S279 N281 1.610 . S
N280 S279 1.613 . S
N280 C283 1.350 . S
N281 S279 1.610 . S
N281 C282 1.351 . S
C282 C276 1.428 . S
C282 N281 1.351 . S
C282 C283 1.434 . S
C283 C274 1.429 . S
C283 N280 1.350 . S
C283 C282 1.434 . S
C284 C285 1.369 . S
C284 C286 1.419 . S
C284 H288 0.930 . S
C285 C284 1.369 . S
C285 C294 1.429 . S
C286 C284 1.419 . S
C286 C287 1.363 . S
C286 H289 0.929 . S
C287 C286 1.363 . S
C287 C293 1.428 . S
H288 C284 0.930 . S
H289 C286 0.929 . S
S290 N291 1.613 . S
S290 N292 1.610 1_554 S
N291 S290 1.613 . S
N291 C294 1.350 1_554 S
N292 S290 1.610 1_556 S
N292 C293 1.351 . S
C293 C287 1.428 . S
C293 N292 1.351 . S
C293 C294 1.434 . S
C294 C285 1.429 . S
C294 N291 1.350 1_556 S
C294 C293 1.434 . S
C295 C296 1.369 . S
C295 C297 1.419 . S
C295 H299 0.930 . S
C296 C295 1.369 . S
C296 C305 1.429 . S
C297 C295 1.419 . S
C297 C298 1.363 . S
C297 H300 0.929 . S
C298 C297 1.363 . S
C298 C304 1.428 . S
H299 C295 0.930 . S
H300 C297 0.929 . S
S301 N302 1.613 . S
S301 N303 1.610 . S
N302 S301 1.613 . S
N302 C305 1.350 . S
N303 S301 1.610 . S
N303 C304 1.351 . S
C304 C298 1.428 . S
C304 N303 1.351 . S
C304 C305 1.434 . S
C305 C296 1.429 . S
C305 N302 1.350 . S
C305 C304 1.434 . S
C306 C307 1.369 . S
C306 C308 1.419 . S
C306 H310 0.930 . S
C307 C306 1.369 . S
C307 C316 1.429 . S
C308 C306 1.419 . S
C308 C309 1.363 . S
C308 H311 0.929 . S
C309 C308 1.363 . S
C309 C315 1.428 . S
H310 C306 0.930 . S
H311 C308 0.929 . S
S312 N313 1.613 . S
S312 N314 1.610 . S
N313 S312 1.613 . S
N313 C316 1.350 . S
N314 S312 1.610 . S
N314 C315 1.351 . S
C315 C309 1.428 . S
C315 N314 1.351 . S
C315 C316 1.434 . S
C316 C307 1.429 . S
C316 N313 1.350 . S
C316 C315 1.434 . S
C317 C318 1.369 . S
C317 C319 1.419 . S
C317 H321 0.930 . S
C318 C317 1.369 . S
C318 C327 1.429 . S
C319 C317 1.419 . S
C319 C320 1.363 . S
C319 H322 0.929 . S
C320 C319 1.363 . S
C320 C326 1.428 . S
H321 C317 0.930 . S
H322 C319 0.929 . S
S323 N324 1.613 . S
S323 N325 1.610 . S
N324 S323 1.613 . S
N324 C327 1.350 . S
N325 S323 1.610 . S
N325 C326 1.351 . S
C326 C320 1.428 . S
C326 N325 1.351 . S
C326 C327 1.434 . S
C327 C318 1.429 . S
C327 N324 1.350 . S
C327 C326 1.434 . S
C328 C329 1.369 . S
C328 C330 1.419 . S
C328 H332 0.930 . S
C329 C328 1.369 . S
C329 C338 1.429 . S
C330 C328 1.419 . S
C330 C331 1.363 . S
C330 H333 0.929 . S
C331 C330 1.363 . S
C331 C337 1.428 . S
H332 C328 0.930 . S
H333 C330 0.929 . S
S334 N335 1.613 . S
S334 N336 1.610 . S
N335 S334 1.613 . S
N335 C338 1.350 . S
N336 S334 1.610 . S
N336 C337 1.351 . S
C337 C331 1.428 . S
C337 N336 1.351 . S
C337 C338 1.434 . S
C338 C329 1.429 . S
C338 N335 1.350 . S
C338 C337 1.434 . S
C339 C340 1.369 . S
C339 C341 1.419 . S
C339 H343 0.930 . S
C340 C339 1.369 . S
C340 C349 1.429 . S
C341 C339 1.419 . S
C341 C342 1.363 . S
C341 H344 0.929 . S
C342 C341 1.363 . S
C342 C348 1.428 . S
H343 C339 0.930 . S
H344 C341 0.929 . S
S345 N346 1.613 . S
S345 N347 1.610 . S
N346 S345 1.613 . S
N346 C349 1.350 . S
N347 S345 1.610 . S
N347 C348 1.351 . S
C348 C342 1.428 . S
C348 N347 1.351 . S
C348 C349 1.434 . S
C349 C340 1.429 . S
C349 N346 1.350 . S
C349 C348 1.434 . S
C350 C351 1.369 . S
C350 C352 1.419 . S
C350 H354 0.930 . S
C351 C350 1.369 . S
C351 C360 1.429 . S
C352 C350 1.419 . S
C352 C353 1.363 . S
C352 H355 0.929 . S
C353 C352 1.363 . S
C353 C359 1.428 . S
H354 C350 0.930 . S
H355 C352 0.929 . S
S356 N357 1.613 . S
S356 N358 1.610 . S
N357 S356 1.613 . S
N357 C360 1.350 . S
N358 S356 1.610 . S
N358 C359 1.351 . S
C359 C353 1.428 . S
C359 N358 1.351 . S
C359 C360 1.434 . S
C360 C351 1.429 . S
C360 N357 1.350 . S
C360 C359 1.434 . S
C361 C362 1.369 . S
C361 C363 1.419 . S
C361 H365 0.930 . S
C362 C361 1.369 . S
C362 C371 1.429 . S
C363 C361 1.419 . S
C363 C364 1.363 . S
C363 H366 0.929 . S
C364 C363 1.363 . S
C364 C370 1.428 . S
H365 C361 0.930 . S
H366 C363 0.929 . S
S367 N368 1.613 . S
S367 N369 1.610 . S
N368 S367 1.613 . S
N368 C371 1.350 . S
N369 S367 1.610 . S
N369 C370 1.351 . S
C370 C364 1.428 . S
C370 N369 1.351 . S
C370 C371 1.434 . S
C371 C362 1.429 . S
C371 N368 1.350 . S
C371 C370 1.434 . S
C372 C373 1.369 . S
C372 C374 1.419 . S
C372 H376 0.930 1_556 S
C373 C372 1.369 . S
C373 C382 1.429 . S
C374 C372 1.419 . S
C374 C375 1.363 1_565 S
C374 H377 0.929 . S
C375 C374 1.363 1_545 S
C375 C381 1.428 1_545 S
H376 C372 0.930 1_554 S
H377 C374 0.929 . S
S378 N379 1.613 1_545 S
S378 N380 1.610 . S
N379 S378 1.613 1_565 S
N379 C382 1.350 . S
N380 S378 1.610 . S
N380 C381 1.351 1_545 S
C381 C375 1.428 1_565 S
C381 N380 1.351 1_565 S
C381 C382 1.434 . S
C382 C373 1.429 . S
C382 N379 1.350 . S
C382 C381 1.434 . S
C383 C384 1.369 . S
C383 C385 1.419 . S
C383 H387 0.930 . S
C384 C383 1.369 . S
C384 C393 1.429 . S
C385 C383 1.419 . S
C385 C386 1.363 1_545 S
C385 H388 0.929 1_545 S
C386 C385 1.363 1_565 S
C386 C392 1.428 1_565 S
H387 C383 0.930 . S
H388 C385 0.929 1_565 S
S389 N390 1.613 . S
S389 N391 1.610 . S
N390 S389 1.613 . S
N390 C393 1.350 . S
N391 S389 1.610 . S
N391 C392 1.351 . S
C392 C386 1.428 1_545 S
C392 N391 1.351 . S
C392 C393 1.434 . S
C393 C384 1.429 . S
C393 N390 1.350 . S
C393 C392 1.434 . S
C394 C395 1.369 . S
C394 C396 1.419 . S
C394 H398 0.930 1_556 S
C395 C394 1.369 . S
C395 C404 1.429 . S
C396 C394 1.419 . S
C396 C397 1.363 1_565 S
C396 H399 0.929 . S
C397 C396 1.363 1_545 S
C397 C403 1.428 1_545 S
H398 C394 0.930 1_554 S
H399 C396 0.929 . S
S400 N401 1.613 . S
S400 N402 1.610 1_565 S
N401 S400 1.613 . S
N401 C404 1.350 . S
N402 S400 1.610 1_545 S
N402 C403 1.351 1_545 S
C403 C397 1.428 1_565 S
C403 N402 1.351 1_565 S
C403 C404 1.434 . S
C404 C395 1.429 . S
C404 N401 1.350 . S
C404 C403 1.434 . S
C405 C406 1.370 . S
C405 C407 1.418 1_545 S
C405 H409 0.929 1_545 S
C406 C405 1.370 . S
C406 C415 1.429 . S
C407 C405 1.418 1_565 S
C407 C408 1.363 . S
C407 H410 0.929 . S
C408 C407 1.363 . S
C408 C414 1.428 1_565 S
H409 C405 0.929 1_565 S
H410 C407 0.929 . S
S411 N412 1.613 . S
S411 N413 1.610 . S
N412 S411 1.613 . S
N412 C415 1.350 . S
N413 S411 1.610 . S
N413 C414 1.351 . S
C414 C408 1.428 1_545 S
C414 N413 1.351 . S
C414 C415 1.434 . S
C415 C406 1.429 . S
C415 N412 1.350 . S
C415 C414 1.434 . S
C416 C417 1.369 . S
C416 C418 1.419 . S
C416 H420 0.930 . S
C417 C416 1.369 . S
C417 C426 1.429 . S
C418 C416 1.419 . S
C418 C419 1.363 . S
C418 H421 0.929 . S
C419 C418 1.363 . S
C419 C425 1.428 . S
H420 C416 0.930 . S
H421 C418 0.929 . S
S422 N423 1.613 . S
S422 N424 1.610 . S
N423 S422 1.613 . S
N423 C426 1.350 . S
N424 S422 1.610 . S
N424 C425 1.351 . S
C425 C419 1.428 . S
C425 N424 1.351 . S
C425 C426 1.434 . S
C426 C417 1.429 . S
C426 N423 1.350 . S
C426 C425 1.434 . S
C427 C428 1.369 . S
C427 C429 1.419 . S
C427 H431 0.930 . S
C428 C427 1.369 . S
C428 C437 1.429 . S
C429 C427 1.419 . S
C429 C430 1.363 . S
C429 H432 0.929 . S
C430 C429 1.363 . S
C430 C436 1.428 . S
H431 C427 0.930 . S
H432 C429 0.929 . S
S433 N434 1.613 . S
S433 N435 1.610 . S
N434 S433 1.613 . S
N434 C437 1.350 . S
N435 S433 1.610 . S
N435 C436 1.351 . S
C436 C430 1.428 . S
C436 N435 1.351 . S
C436 C437 1.434 . S
C437 C428 1.429 . S
C437 N434 1.350 . S
C437 C436 1.434 . S
C438 C439 1.369 . S
C438 C440 1.419 . S
C438 H442 0.930 . S
C439 C438 1.369 . S
C439 C448 1.429 . S
C440 C438 1.419 . S
C440 C441 1.363 . S
C440 H443 0.929 . S
C441 C440 1.363 . S
C441 C447 1.428 . S
H442 C438 0.930 . S
H443 C440 0.929 . S
S444 N445 1.613 . S
S444 N446 1.610 . S
N445 S444 1.613 . S
N445 C448 1.350 . S
N446 S444 1.610 . S
N446 C447 1.351 . S
C447 C441 1.428 . S
C447 N446 1.351 . S
C447 C448 1.434 . S
C448 C439 1.429 . S
C448 N445 1.350 . S
C448 C447 1.434 . S
C449 C450 1.369 . S
C449 C451 1.419 . S
C449 H453 0.930 . S
C450 C449 1.369 . S
C450 C459 1.429 . S
C451 C449 1.419 . S
C451 C452 1.363 . S
C451 H454 0.929 . S
C452 C451 1.363 . S
C452 C458 1.428 . S
H453 C449 0.930 . S
H454 C451 0.929 . S
S455 N456 1.613 . S
S455 N457 1.610 . S
N456 S455 1.613 . S
N456 C459 1.350 . S
N457 S455 1.610 . S
N457 C458 1.351 . S
C458 C452 1.428 . S
C458 N457 1.351 . S
C458 C459 1.434 . S
C459 C450 1.429 . S
C459 N456 1.350 . S
C459 C458 1.434 . S
C460 C461 1.369 . S
C460 C462 1.419 . S
C460 H464 0.930 . S
C461 C460 1.369 . S
C461 C470 1.429 . S
C462 C460 1.419 . S
C462 C463 1.363 . S
C462 H465 0.929 . S
C463 C462 1.363 . S
C463 C469 1.428 . S
H464 C460 0.930 . S
H465 C462 0.929 . S
S466 N467 1.613 . S
S466 N468 1.610 . S
N467 S466 1.613 . S
N467 C470 1.350 . S
N468 S466 1.610 . S
N468 C469 1.351 . S
C469 C463 1.428 . S
C469 N468 1.351 . S
C469 C470 1.434 . S
C470 C461 1.429 . S
C470 N467 1.350 . S
C470 C469 1.434 . S
C471 C472 1.369 . S
C471 C473 1.419 . S
C471 H475 0.930 . S
C472 C471 1.369 . S
C472 C481 1.429 . S
C473 C471 1.419 . S
C473 C474 1.363 . S
C473 H476 0.929 . S
C474 C473 1.363 . S
C474 C480 1.428 . S
H475 C471 0.930 . S
H476 C473 0.929 . S
S477 N478 1.613 . S
S477 N479 1.610 . S
N478 S477 1.613 . S
N478 C481 1.350 . S
N479 S477 1.610 . S
N479 C480 1.351 . S
C480 C474 1.428 . S
C480 N479 1.351 . S
C480 C481 1.434 . S
C481 C472 1.429 . S
C481 N478 1.350 . S
C481 C480 1.434 . S
C482 C483 1.369 . S
C482 C484 1.419 . S
C482 H486 0.930 . S
C483 C482 1.369 . S
C483 C492 1.429 . S
C484 C482 1.419 . S
C484 C485 1.363 . S
C484 H487 0.929 . S
C485 C484 1.363 . S
C485 C491 1.428 . S
H486 C482 0.930 . S
H487 C484 0.929 . S
S488 N489 1.613 . S
S488 N490 1.610 . S
N489 S488 1.613 . S
N489 C492 1.350 . S
N490 S488 1.610 . S
N490 C491 1.351 . S
C491 C485 1.428 . S
C491 N490 1.351 . S
C491 C492 1.434 . S
C492 C483 1.429 . S
C492 N489 1.350 . S
C492 C491 1.434 . S
C493 C494 1.369 . S
C493 C495 1.419 . S
C493 H497 0.930 . S
C494 C493 1.369 . S
C494 C503 1.429 . S
C495 C493 1.419 . S
C495 C496 1.363 . S
C495 H498 0.929 . S
C496 C495 1.363 . S
C496 C502 1.428 . S
H497 C493 0.930 . S
H498 C495 0.929 . S
S499 N500 1.613 . S
S499 N501 1.610 . S
N500 S499 1.613 . S
N500 C503 1.350 . S
N501 S499 1.610 . S
N501 C502 1.351 . S
C502 C496 1.428 . S
C502 N501 1.351 . S
C502 C503 1.434 . S
C503 C494 1.429 . S
C503 N500 1.350 . S
C503 C502 1.434 . S
C241 C11 1.478 . S
C243 C195 1.548 . S
C254 C159 1.549 . S
C252 C30 1.482 . S
C265 C182 1.565 . S
C263 C49 1.372 . S
C276 C170 1.566 . S
C274 C68 1.369 . S
C287 C239 1.553 . S
C285 C87 1.477 . S
C298 C203 1.552 . S
C296 C106 1.474 . S
C307 C125 1.371 . S
C309 C226 1.565 . S
C320 C214 1.566 . S
C318 C144 1.365 . S
C329 C2 1.550 . S
C331 C236 1.602 . S
C342 C206 1.602 . S
C340 C21 1.549 . S
C351 C40 1.568 . S
C353 C225 1.617 . S
C362 C59 1.572 . S
C364 C211 1.617 . S
C375 C192 1.602 . S
C373 C78 1.556 . S
C384 C97 1.549 . S
C386 C162 1.602 . S
C397 C181 1.618 . S
C395 C116 1.574 . S
C408 C167 1.617 . S
C406 C135 1.570 . S
C419 C217 1.560 . S
C417 C6 1.562 . S
C430 C233 1.561 . S
C428 C25 1.562 . S
C439 C44 1.530 . S
C441 C204 1.544 . S
C452 C228 1.544 . S
C450 C63 1.530 . S
C463 C173 1.562 . S
C461 C82 1.563 . S
C472 C101 1.562 . S
C474 C189 1.561 . S
C483 C120 1.529 . S
C485 C160 1.543 . S
C494 C139 1.526 . S
C496 C184 1.543 . S
