# Generated by pormake.
# Topology anh, (6,3)-cn, num edge types: 1
# Building blocks:
#     Node 0, Type 0, BuildingBlock: CUKXOW_clean_sbu_0, # of connection points: 6
#     Node 1, Type 0, BuildingBlock: CUKXOW_clean_sbu_0, # of connection points: 6
#     Node 2, Type 0, BuildingBlock: CUKXOW_clean_sbu_0, # of connection points: 6
#     Node 3, Type 1, BuildingBlock: VETTIZ_charged_linker_0, # of connection points: 3
#     Node 4, Type 1, BuildingBlock: VETTIZ_charged_linker_0, # of connection points: 3
#     Node 5, Type 1, BuildingBlock: VETTIZ_charged_linker_0, # of connection points: 3
#     Node 6, Type 1, BuildingBlock: VETTIZ_charged_linker_0, # of connection points: 3
#     Node 7, Type 1, BuildingBlock: VETTIZ_charged_linker_0, # of connection points: 3
#     Node 8, Type 1, BuildingBlock: VETTIZ_charged_linker_0, # of connection points: 3
#     Edge 9, Type (0, 1), BuildingBlock: XUDNAN_clean_linker_2, # of connection points: 2
#     Edge 10, Type (0, 1), BuildingBlock: XUDNAN_clean_linker_2, # of connection points: 2
#     Edge 11, Type (0, 1), BuildingBlock: XUDNAN_clean_linker_2, # of connection points: 2
#     Edge 12, Type (0, 1), BuildingBlock: XUDNAN_clean_linker_2, # of connection points: 2
#     Edge 13, Type (0, 1), BuildingBlock: XUDNAN_clean_linker_2, # of connection points: 2
#     Edge 14, Type (0, 1), BuildingBlock: XUDNAN_clean_linker_2, # of connection points: 2
#     Edge 15, Type (0, 1), BuildingBlock: XUDNAN_clean_linker_2, # of connection points: 2
#     Edge 16, Type (0, 1), BuildingBlock: XUDNAN_clean_linker_2, # of connection points: 2
#     Edge 17, Type (0, 1), BuildingBlock: XUDNAN_clean_linker_2, # of connection points: 2
#     Edge 18, Type (0, 1), BuildingBlock: XUDNAN_clean_linker_2, # of connection points: 2
#     Edge 19, Type (0, 1), BuildingBlock: XUDNAN_clean_linker_2, # of connection points: 2
#     Edge 20, Type (0, 1), BuildingBlock: XUDNAN_clean_linker_2, # of connection points: 2
#     Edge 21, Type (0, 1), BuildingBlock: XUDNAN_clean_linker_2, # of connection points: 2
#     Edge 22, Type (0, 1), BuildingBlock: XUDNAN_clean_linker_2, # of connection points: 2
#     Edge 23, Type (0, 1), BuildingBlock: XUDNAN_clean_linker_2, # of connection points: 2
#     Edge 24, Type (0, 1), BuildingBlock: XUDNAN_clean_linker_2, # of connection points: 2
#     Edge 25, Type (0, 1), BuildingBlock: XUDNAN_clean_linker_2, # of connection points: 2
#     Edge 26, Type (0, 1), BuildingBlock: XUDNAN_clean_linker_2, # of connection points: 2
# Relax obj value: 0.137
# Max RMSD: 0.196
# Mean RMSD: 0.142
data_MOF--net-anh--node1-CUKXOW_clean_sbu_0--node2-VETTIZ_charged_linker_0--edge1-XUDNAN_clean_linker_2
_symmetry_space_group_name_H-M    P1
_symmetry_Int_Tables_number       1
_symmetry_cell_setting            triclinic
loop_
_symmetry_equiv_pos_as_xyz
'x, y, z'
_cell_length_a     34.295043
_cell_length_b     33.338739
_cell_length_c     65.525836
_cell_angle_alpha  95.276088
_cell_angle_beta   90.388103
_cell_angle_gamma 113.95117
loop_
_atom_site_label
_atom_site_type_symbol
_atom_site_fract_x
_atom_site_fract_y
_atom_site_fract_z
_atom_type_partial_charge
Tb0 Tb 0.07705 0.54555 0.15161 0.0
C1 C 0.04244 0.51213 0.1932 0.0
Tb2 Tb 1.01714 0.44698 0.15241 0.0
O3 O 1.02658 0.56662 0.1611 0.0
O4 O 1.01028 0.50508 0.14481 0.0
O5 O 0.07535 0.54034 0.18422 0.0
C6 C 0.94603 0.37306 0.14982 0.0
O7 O 1.01268 0.47616 0.18316 0.0
C8 C 0.09898 0.459 0.15727 0.0
C9 C 0.05675 0.47959 0.11071 0.0
O10 O 0.97592 0.38518 0.16421 0.0
O11 O 0.95613 0.40254 0.13694 0.0
O12 O 0.06649 0.42113 0.15721 0.0
O13 O 0.0832 0.4865 0.15471 0.0
O14 O 0.02849 0.44665 0.11977 0.0
O15 O 0.07991 0.51909 0.1204 0.0
C16 C 0.14453 0.62026 0.1481 0.0
O17 O 0.14271 0.59098 0.16026 0.0
O18 O 0.10799 0.60788 0.1381 0.0
C19 C 0.99493 0.52965 0.15459 0.0
Tb20 Tb 0.5117 0.99343 0.4924 0.0
C21 C 0.56046 0.03008 0.45384 0.0
Tb22 Tb 0.60468 0.0603 0.49894 0.0
O23 O 0.48923 0.04332 0.48482 0.0
O24 O 0.5441 0.06081 0.50381 0.0
O25 O 0.52921 0.99554 0.46054 0.0
C26 C 0.67791 0.13197 0.49977 0.0
O27 O 0.59121 0.06027 0.46628 0.0
C28 C 0.59195 0.97692 0.49708 0.0
C29 C 0.5552 0.02567 0.53781 0.0
O30 O 0.67462 0.09182 0.49962 0.0
O31 O 0.64008 0.1318 0.49954 0.0
O32 O 0.62307 0.00848 0.50785 0.0
O33 O 0.57209 0.9933 0.48672 0.0
O34 O 0.58848 0.05793 0.53093 0.0
O35 O 0.52349 0.9966 0.52546 0.0
C36 C 0.44256 0.91828 0.4935 0.0
O37 O 0.48093 0.92516 0.49961 0.0
O38 O 0.44301 0.95363 0.48648 0.0
C39 C 0.52251 0.07581 0.49368 0.0
Tb40 Tb 0.52245 0.51621 0.82435 0.0
C41 C 0.54363 0.50641 0.86947 0.0
Tb42 Tb 0.61228 0.52921 0.83559 0.0
O43 O 0.49546 0.44718 0.83027 0.0
O44 O 0.55819 0.47715 0.82052 0.0
O45 O 0.51801 0.51592 0.85738 0.0
C46 C 0.68717 0.52966 0.84653 0.0
O47 O 0.57991 0.50491 0.86336 0.0
C48 C 0.60054 0.60195 0.83351 0.0
C49 C 0.58978 0.53048 0.7895 0.0
O50 O 0.6705 0.55525 0.85504 0.0
O51 O 0.66071 0.50245 0.83228 0.0
O52 O 0.63537 0.59795 0.82861 0.0
O53 O 0.57566 0.56706 0.84041 0.0
O54 O 0.61702 0.52624 0.80262 0.0
O55 O 0.55225 0.52954 0.7949 0.0
C56 C 0.46145 0.54078 0.81337 0.0
O57 O 0.4574 0.50007 0.81196 0.0
O58 O 0.499 0.56655 0.8211 0.0
C59 C 0.53117 0.44288 0.82732 0.0
C60 C 0.65158 0.09819 0.17466 0.0
C61 C 0.6881 0.13231 0.18459 0.0
C62 C 0.69047 0.13971 0.20619 0.0
C63 C 0.62135 0.07956 0.20766 0.0
C64 C 0.61863 0.07231 0.1865 0.0
C65 C 0.5772 0.03502 0.17862 0.0
H66 H 0.38866 0.87389 0.19985 0.0
C67 C 0.58192 0.0476 0.21547 0.0
C68 C 0.5557 0.02143 0.19858 0.0
H69 H 0.43842 0.90489 0.14017 0.0
H70 H 0.50115 0.96578 0.15613 0.0
H71 H 0.4776 0.88655 0.22226 0.0
H72 H 0.41249 0.97229 0.21821 0.0
H73 H 0.43592 0.98332 0.24313 0.0
H74 H 0.39573 0.92898 0.23479 0.0
H75 H 0.42856 0.87806 0.23449 0.0
H76 H 0.47958 0.91342 0.24689 0.0
C77 C 0.58772 0.99816 0.16718 0.0
C78 C 0.55243 0.05374 0.16524 0.0
C79 C 0.56483 0.04843 0.29218 0.0
C80 C 0.53155 0.02421 0.30437 0.0
C81 C 0.49391 0.99111 0.29468 0.0
C82 C 0.48957 0.98254 0.27322 0.0
C83 C 0.52316 1.00737 0.2613 0.0
C84 C 0.55983 0.03981 0.27087 0.0
C85 C 0.59179 0.06392 0.25591 0.0
C86 C 0.56839 0.04039 0.23571 0.0
C87 C 0.52844 1.00716 0.23893 0.0
C88 C 0.63274 0.05604 0.25956 0.0
C89 C 0.59854 0.11311 0.25862 0.0
C90 C 0.41327 0.89357 0.19022 0.0
C91 C 0.40909 0.88438 0.16878 0.0
C92 C 0.44114 0.91144 0.15673 0.0
C93 C 0.47752 0.94655 0.16604 0.0
C94 C 0.48161 0.9547 0.18758 0.0
C95 C 0.44951 0.92861 0.19924 0.0
C96 C 0.45861 0.94222 0.22185 0.0
C97 C 0.50187 0.98046 0.22193 0.0
C98 C 0.51532 0.98761 0.20185 0.0
C99 C 0.46102 0.90314 0.23209 0.0
C100 C 0.42389 0.95726 0.23011 0.0
H101 H 0.66141 0.12101 0.23407 0.0
H102 H 0.64875 0.09163 0.1581 0.0
H103 H 0.55762 0.08779 0.17151 0.0
H104 H 0.51749 0.0347 0.16494 0.0
H105 H 0.56315 0.05519 0.14926 0.0
H106 H 0.61443 0.99449 0.17538 0.0
H107 H 0.59757 1.00588 0.15139 0.0
H108 H 0.56093 0.96534 0.16634 0.0
H109 H 0.59451 0.0736 0.29904 0.0
H110 H 0.46756 0.97223 0.30366 0.0
H111 H 0.46016 0.95705 0.26675 0.0
H112 H 0.6245 0.02175 0.26333 0.0
H113 H 0.65313 0.0789 0.27254 0.0
H114 H 0.65198 0.05933 0.24588 0.0
H115 H 0.56959 0.11683 0.26435 0.0
H116 H 0.60408 0.12827 0.244 0.0
H117 H 0.62551 0.13293 0.26979 0.0
H118 H 0.71762 0.16644 0.21425 0.0
C119 C 0.65749 0.11351 0.21773 0.0
C120 C 0.55658 0.6428 0.51606 0.0
C121 C 0.56048 0.68281 0.52714 0.0
C122 C 0.56297 0.6863 0.54875 0.0
C123 C 0.56144 0.61309 0.54806 0.0
C124 C 0.55709 0.60829 0.52688 0.0
C125 C 0.55397 0.56343 0.518 0.0
H126 H 0.55006 0.36359 0.53736 0.0
C127 C 0.56278 0.57272 0.55484 0.0
C128 C 0.55794 0.54288 0.53736 0.0
H129 H 0.53996 0.40456 0.47773 0.0
H130 H 0.54675 0.47643 0.49373 0.0
H131 H 0.62588 0.44659 0.55239 0.0
H132 H 0.49217 0.40537 0.56154 0.0
H133 H 0.51883 0.42896 0.5855 0.0
H134 H 0.52494 0.38184 0.57268 0.0
H135 H 0.60058 0.41265 0.57221 0.0
H136 H 0.62409 0.47219 0.57672 0.0
C137 C 0.59183 0.57017 0.50408 0.0
C138 C 0.5098 0.53832 0.50671 0.0
C139 C 0.59179 0.56689 0.63066 0.0
C140 C 0.59825 0.53505 0.64117 0.0
C141 C 0.59402 0.49495 0.63039 0.0
C142 C 0.58376 0.48658 0.60934 0.0
C143 C 0.57824 0.51891 0.59882 0.0
C144 C 0.58232 0.55828 0.60943 0.0
C145 C 0.5768 0.58917 0.59544 0.0
C146 C 0.56912 0.56183 0.5747 0.0
C147 C 0.56968 0.52079 0.57691 0.0
C148 C 0.6192 0.63115 0.59667 0.0
C149 C 0.53709 0.59763 0.60187 0.0
C150 C 0.54846 0.38767 0.52771 0.0
C151 C 0.54341 0.37819 0.50638 0.0
C152 C 0.54331 0.4111 0.49429 0.0
C153 C 0.54721 0.45263 0.5036 0.0
C154 C 0.55204 0.46139 0.52516 0.0
C155 C 0.55306 0.42899 0.53665 0.0
C156 C 0.56136 0.44378 0.55906 0.0
C157 C 0.56344 0.48998 0.55953 0.0
C158 C 0.55786 0.50066 0.53974 0.0
C159 C 0.60499 0.44364 0.5656 0.0
C160 C 0.52261 0.41343 0.57046 0.0
H161 H 0.56583 0.65718 0.57561 0.0
H162 H 0.55421 0.63886 0.49945 0.0
H163 H 0.48428 0.5416 0.51621 0.0
H164 H 0.50122 0.50262 0.50365 0.0
H165 H 0.50865 0.55174 0.49192 0.0
H166 H 0.62186 0.59609 0.51151 0.0
H167 H 0.58625 0.5807 0.48914 0.0
H168 H 0.59805 0.54024 0.50116 0.0
H169 H 0.595 0.59804 0.63869 0.0
H170 H 0.59834 0.46984 0.63835 0.0
H171 H 0.58067 0.4552 0.60213 0.0
H172 H 0.64716 0.62237 0.59756 0.0
H173 H 0.62126 0.65392 0.61052 0.0
H174 H 0.6239 0.64932 0.58301 0.0
H175 H 0.51358 0.56924 0.6091 0.0
H176 H 0.51901 0.60121 0.58862 0.0
H177 H 0.54616 0.62733 0.61312 0.0
H178 H 0.56455 0.71594 0.55772 0.0
C179 C 0.56348 0.65191 0.55919 0.0
C180 C 0.22877 0.66209 0.8521 0.0
C181 C 0.26208 0.65034 0.85723 0.0
C182 C 0.26897 0.64415 0.8777 0.0
C183 C 0.20521 0.65424 0.8869 0.0
C184 C 0.20112 0.66449 0.86724 0.0
C185 C 0.16264 0.67423 0.86417 0.0
H186 H 0.97062 0.65282 0.89468 0.0
C187 C 0.16771 0.65325 0.89802 0.0
C188 C 0.14344 0.66645 0.88498 0.0
H189 H 0.02824 0.69493 0.83762 0.0
H190 H 0.09599 0.7001 0.85121 0.0
H191 H 0.99717 0.58523 0.8967 0.0
H192 H 0.05876 0.71647 0.92684 0.0
H193 H 0.05922 0.68007 0.9446 0.0
H194 H 1.00885 0.67591 0.93394 0.0
H195 H 0.98131 0.6002 0.92121 0.0
H196 H 1.02185 0.57882 0.91877 0.0
C197 C 0.13342 0.64028 0.84677 0.0
C198 C 0.17802 0.72316 0.85988 0.0
C199 C 0.12943 0.57528 0.96296 0.0
C200 C 0.09245 0.56252 0.9743 0.0
C201 C 0.06058 0.57712 0.96968 0.0
C202 C 0.06479 0.60308 0.95359 0.0
C203 C 0.10075 0.61368 0.94163 0.0
C204 C 0.1327 0.60048 0.94653 0.0
C205 C 0.16797 0.61402 0.93165 0.0
C206 C 0.15128 0.6367 0.91682 0.0
C207 C 0.11182 0.63603 0.92278 0.0
C208 C 0.17028 0.57143 0.92128 0.0
C209 C 0.20985 0.64653 0.9434 0.0
C210 C 0.99829 0.66509 0.88542 0.0
C211 C 0.99431 0.67343 0.86507 0.0
C212 C 0.03072 0.68813 0.85331 0.0
C213 C 0.06981 0.69067 0.86119 0.0
C214 C 0.07188 0.67705 0.88072 0.0
C215 C 0.03698 0.66629 0.89279 0.0
C216 C 0.04355 0.64918 0.91236 0.0
C217 C 0.08815 0.65103 0.90997 0.0
C218 C 0.10431 0.66695 0.89136 0.0
C219 C 1.00926 0.60108 0.9125 0.0
C220 C 0.04229 0.68175 0.93051 0.0
H221 H 0.24643 0.63978 0.90785 0.0
H222 H 0.22337 0.66742 0.83646 0.0
H223 H 0.21033 0.74362 0.86713 0.0
H224 H 0.15741 0.73881 0.86657 0.0
H225 H 0.17983 0.72644 0.84316 0.0
H226 H 0.13312 0.60706 0.84796 0.0
H227 H 0.14487 0.65017 0.83143 0.0
H228 H 0.09966 0.63515 0.84731 0.0
H229 H 0.15449 0.56467 0.96642 0.0
H230 H 0.03228 0.56833 0.97857 0.0
H231 H 0.03925 0.61285 0.95076 0.0
H232 H 0.13785 0.54688 0.91577 0.0
H233 H 0.1834 0.5561 0.93228 0.0
H234 H 0.18991 0.57674 0.90777 0.0
H235 H 0.20324 0.66491 0.95702 0.0
H236 H 0.23008 0.67243 0.93398 0.0
H237 H 0.22861 0.62888 0.94891 0.0
H238 H 0.29481 0.63521 0.88186 0.0
C239 C 0.24069 0.64625 0.89264 0.0
C240 C 0.94542 0.42619 0.46692 0.0
C241 C 0.90814 0.39297 0.45724 0.0
C242 C 0.89788 0.39461 0.43657 0.0
C243 C 0.96235 0.46101 0.43528 0.0
C244 C 0.97176 0.46007 0.45574 0.0
C245 C 1.01201 0.49874 0.46376 0.0
H246 H 0.18048 0.68526 0.44507 0.0
C247 C 0.99648 0.49999 0.42797 0.0
C248 C 1.02543 0.52262 0.44467 0.0
H249 H 0.15204 0.62766 0.50254 0.0
H250 H 0.08802 0.56846 0.48654 0.0
H251 H 0.16151 0.59847 0.41832 0.0
H252 H 0.08467 0.67087 0.43235 0.0
H253 H 0.07457 0.65191 0.40614 0.0
H254 H 0.1281 0.68834 0.41546 0.0
H255 H 0.16743 0.6461 0.4058 0.0
H256 H 0.13055 0.59129 0.39581 0.0
C257 C 0.04459 0.48089 0.47077 0.0
C258 C 1.00019 0.52646 0.48089 0.0
C259 C 0.99832 0.52553 0.3524 0.0
C260 C 1.02661 0.55891 0.34138 0.0
C261 C 0.06165 0.59383 0.35199 0.0
C262 C 0.06859 0.5956 0.37312 0.0
C263 C 0.04035 0.56202 0.38393 0.0
C264 C 1.00574 0.52787 0.37366 0.0
C265 C 0.97901 0.49556 0.38793 0.0
C266 C 1.00401 0.51559 0.40829 0.0
C267 C 0.03984 0.55437 0.40574 0.0
C268 C 0.97915 0.44999 0.38092 0.0
C269 C 0.93399 0.49606 0.38795 0.0
C270 C 0.16008 0.66041 0.45436 0.0
C271 C 0.17091 0.66143 0.47515 0.0
C272 C 0.14423 0.62756 0.48648 0.0
C273 C 0.1071 0.59335 0.47717 0.0
C274 C 0.09683 0.59288 0.45628 0.0
C275 C 0.12331 0.62611 0.44532 0.0
C276 C 0.10873 0.61996 0.42319 0.0
C277 C 0.0686 0.57778 0.42263 0.0
C278 C 0.06162 0.56199 0.442 0.0
C279 C 0.14375 0.61392 0.40995 0.0
C280 C 0.09869 0.65983 0.41885 0.0
H281 H 0.91556 0.42756 0.40979 0.0
H282 H 0.95372 0.42594 0.48288 0.0
H283 H 0.96877 0.5271 0.47712 0.0
H284 H 1.02295 0.56144 0.48285 0.0
H285 H 0.99788 0.51245 0.4958 0.0
H286 H 0.0428 0.45211 0.46014 0.0
H287 H 0.03814 0.46991 0.48637 0.0
H288 H 0.07803 0.50517 0.47066 0.0
H289 H 0.97094 0.49846 0.34469 0.0
H290 H 0.08434 0.61954 0.34383 0.0
H291 H 0.09599 0.62297 0.38016 0.0
H292 H 1.0119 0.4536 0.37708 0.0
H293 H 0.9578 0.43417 0.36701 0.0
H294 H 0.96952 0.42706 0.39286 0.0
H295 H 0.93519 0.5285 0.38433 0.0
H296 H 0.91998 0.49155 0.40317 0.0
H297 H 0.91174 0.47039 0.37636 0.0
H298 H 0.86938 0.36915 0.42882 0.0
C299 C 0.92483 0.42837 0.42553 0.0
C300 C 0.59032 0.91979 0.81531 0.0
C301 C 0.59207 0.88164 0.80473 0.0
C302 C 0.5943 0.87913 0.78323 0.0
C303 C 0.59406 0.95148 0.783 0.0
C304 C 0.59178 0.95459 0.8041 0.0
C305 C 0.59139 0.99844 0.81239 0.0
H306 H 0.59591 0.19717 0.79037 0.0
C307 C 0.5955 0.99253 0.77569 0.0
C308 C 0.59456 0.02091 0.79278 0.0
H309 H 0.58319 0.1494 0.85011 0.0
H310 H 0.58846 0.08227 0.83518 0.0
H311 H 0.66904 0.1644 0.77477 0.0
H312 H 0.53232 0.11284 0.76836 0.0
H313 H 0.54841 0.09672 0.74488 0.0
H314 H 0.56607 0.15467 0.75332 0.0
H315 H 0.64121 0.18605 0.75875 0.0
H316 H 0.65502 0.14119 0.7492 0.0
C317 C 0.63089 0.02335 0.82716 0.0
C318 C 0.54849 0.98921 0.82254 0.0
C319 C 0.59084 1.00313 0.699 0.0
C320 C 0.59017 0.03619 0.68734 0.0
C321 C 0.59633 0.07765 0.6974 0.0
C322 C 0.60097 0.08533 0.71883 0.0
C323 C 0.59932 0.05114 0.73037 0.0
C324 C 0.59544 0.01131 0.72039 0.0
C325 C 0.59487 0.97905 0.73508 0.0
C326 C 0.5972 1.00548 0.75557 0.0
C327 C 0.59956 0.04743 0.75267 0.0
C328 C 0.63523 0.96941 0.73196 0.0
C329 C 0.55182 0.93795 0.73133 0.0
C330 C 0.59541 0.17299 0.80046 0.0
C331 C 0.58975 0.17911 0.8215 0.0
C332 C 0.58756 0.1456 0.83381 0.0
C333 C 0.59055 0.10663 0.82512 0.0
C334 C 0.59522 0.1008 0.80385 0.0
C335 C 0.59775 0.13406 0.79204 0.0
C336 C 0.60014 0.12222 0.76966 0.0
C337 C 0.59903 0.07647 0.76975 0.0
C338 C 0.59634 0.06358 0.78977 0.0
C339 C 0.64337 0.15519 0.76252 0.0
C340 C 0.55999 0.12178 0.7583 0.0
H341 H 0.59701 0.90912 0.7561 0.0
H342 H 0.5886 0.92271 0.83184 0.0
H343 H 0.52162 0.96338 0.81289 0.0
H344 H 0.54081 0.01836 0.82432 0.0
H345 H 0.54856 0.97733 0.83783 0.0
H346 H 0.65989 0.02175 0.82032 0.0
H347 H 0.62657 0.00853 0.84194 0.0
H348 H 0.63796 0.05873 0.83038 0.0
H349 H 0.58697 0.97119 0.69165 0.0
H350 H 0.59581 0.10361 0.68874 0.0
H351 H 0.60446 0.11722 0.72559 0.0
H352 H 0.66118 0.99681 0.72526 0.0
H353 H 0.62797 0.9389 0.72146 0.0
H354 H 0.6497 0.96654 0.74662 0.0
H355 H 0.52525 0.94793 0.72821 0.0
H356 H 0.54225 0.91892 0.74472 0.0
H357 H 0.5529 0.9156 0.7179 0.0
H358 H 0.59478 0.84997 0.77464 0.0
C359 C 0.59542 0.91361 0.77241 0.0
C360 C 0.65977 0.49491 0.14399 0.0
C361 C 0.69453 0.49266 0.13266 0.0
C362 C 0.69035 0.48925 0.1111 0.0
C363 C 0.62008 0.49059 0.11223 0.0
C364 C 0.62256 0.4935 0.13339 0.0
C365 C 0.5814 0.49436 0.14209 0.0
H366 H 0.38675 0.50338 0.11812 0.0
C367 C 0.57927 0.49166 0.10535 0.0
C368 C 0.55571 0.49428 0.12268 0.0
H369 H 0.42844 0.49094 0.17855 0.0
H370 H 0.49576 0.49275 0.16505 0.0
H371 H 0.47552 0.57438 0.10562 0.0
H372 H 0.40871 0.43392 0.0969 0.0
H373 H 0.43437 0.4472 0.07397 0.0
H374 H 0.39615 0.46945 0.08166 0.0
H375 H 0.43175 0.54664 0.08716 0.0
H376 H 0.48637 0.55964 0.08062 0.0
C377 C 0.59232 0.53666 0.15671 0.0
C378 C 0.55857 0.45228 0.15279 0.0
C379 C 0.54758 0.48372 0.02848 0.0
C380 C 0.51382 0.48664 0.01722 0.0
C381 C 0.48243 0.49579 0.02796 0.0
C382 C 0.48341 0.49999 0.04936 0.0
C383 C 0.51627 0.49529 0.06042 0.0
C384 C 0.54818 0.48839 0.05002 0.0
C385 C 0.58164 0.48674 0.0645 0.0
C386 C 0.56339 0.49187 0.08527 0.0
C387 C 0.525 0.49636 0.08264 0.0
C388 C 0.62439 0.5265 0.06154 0.0
C389 C 0.58295 0.44079 0.06016 0.0
C390 C 0.41035 0.50209 0.1288 0.0
C391 C 0.40169 0.49763 0.14951 0.0
C392 C 0.43366 0.49434 0.16241 0.0
C393 C 0.47276 0.49525 0.15459 0.0
C394 C 0.48006 0.4987 0.13352 0.0
C395 C 0.44853 0.50203 0.12128 0.0
C396 C 0.45839 0.50261 0.0992 0.0
C397 C 0.50079 0.4988 0.09974 0.0
C398 C 0.51494 0.49717 0.11984 0.0
C399 C 0.46299 0.54788 0.09262 0.0
C400 C 0.42266 0.46154 0.08715 0.0
H401 H 0.65379 0.48558 0.08462 0.0
H402 H 0.66142 0.49741 0.16059 0.0
H403 H 0.55475 0.42253 0.14235 0.0
H404 H 0.52632 0.44826 0.15721 0.0
H405 H 0.57732 0.45292 0.16681 0.0
H406 H 0.61117 0.56623 0.14884 0.0
H407 H 0.61151 0.53657 0.17043 0.0
H408 H 0.5632 0.54013 0.162 0.0
H409 H 0.57253 0.47718 0.02077 0.0
H410 H 0.4569 0.49985 0.01982 0.0
H411 H 0.45805 0.50626 0.05636 0.0
H412 H 0.61904 0.55344 0.05484 0.0
H413 H 0.645 0.51651 0.05111 0.0
H414 H 0.64248 0.54239 0.07625 0.0
H415 H 0.5502 0.41461 0.05673 0.0
H416 H 0.59546 0.43069 0.07343 0.0
H417 H 0.60226 0.43979 0.04673 0.0
H418 H 0.71608 0.48868 0.10176 0.0
C419 C 0.65389 0.4881 0.10101 0.0
H420 H 0.17444 0.51889 0.1416 0.0
H421 H 0.12681 0.41285 0.18075 0.0
H422 H 0.19939 0.41604 0.18556 0.0
H423 H 0.24575 0.48022 0.1158 0.0
H424 H 0.28748 0.53401 0.11366 0.0
H425 H 0.23279 0.52736 0.11503 0.0
H426 H 0.25373 0.58648 0.14632 0.0
H427 H 0.30856 0.59338 0.14503 0.0
H428 H 0.2812 0.57994 0.16848 0.0
H429 H 0.27692 0.4275 0.18496 0.0
H430 H 0.35168 0.44306 0.17704 0.0
H431 H 0.35114 0.54031 0.13743 0.0
C432 C 0.1796 0.49714 0.15156 0.0
C433 C 0.14469 0.46603 0.16111 0.0
C434 C 0.15281 0.43721 0.17344 0.0
C435 C 0.19412 0.4388 0.1763 0.0
C436 C 0.22771 0.46912 0.16652 0.0
C437 C 0.22101 0.4977 0.15429 0.0
C438 C 0.26239 0.52466 0.14434 0.0
C439 C 0.25675 0.51604 0.12081 0.0
C440 C 0.27735 0.57404 0.15146 0.0
C441 C 0.29293 0.50632 0.15266 0.0
C442 C 0.27232 0.47476 0.16566 0.0
C443 C 0.29343 0.45242 0.17488 0.0
C444 C 0.33628 0.46177 0.17041 0.0
C445 C 0.35812 0.49298 0.15661 0.0
C446 C 0.33583 0.51599 0.14796 0.0
H447 H 0.6868 0.20968 0.48615 0.0
H448 H 0.75874 0.14094 0.50918 0.0
H449 H 0.82632 0.20462 0.50413 0.0
H450 H 0.75327 0.2509 0.44615 0.0
H451 H 0.74823 0.30283 0.44756 0.0
H452 H 0.70583 0.25506 0.45585 0.0
H453 H 0.70995 0.29768 0.49146 0.0
H454 H 0.75238 0.34577 0.48329 0.0
H455 H 0.76021 0.32301 0.50609 0.0
H456 H 0.88569 0.27366 0.49463 0.0
H457 H 0.93255 0.34029 0.47889 0.0
H458 H 0.82153 0.36152 0.4601 0.0
C459 C 0.71682 0.20858 0.49057 0.0
C460 C 0.71789 0.17095 0.49832 0.0
C461 C 0.75755 0.16984 0.50338 0.0
C462 C 0.79596 0.20584 0.50064 0.0
C463 C 0.79394 0.24232 0.49264 0.0
C464 C 0.75538 0.24383 0.48756 0.0
C465 C 0.76192 0.28478 0.47727 0.0
C466 C 0.74109 0.27264 0.45542 0.0
C467 C 0.74512 0.31457 0.49031 0.0
C468 C 0.81016 0.30563 0.47697 0.0
C469 C 0.82807 0.28113 0.4863 0.0
C470 C 0.87207 0.29329 0.48743 0.0
C471 C 0.8984 0.33114 0.47852 0.0
C472 C 0.88051 0.3558 0.46834 0.0
C473 C 0.83591 0.34309 0.46779 0.0
H474 H 0.64563 0.67312 0.8133 0.0
H475 H 0.54144 0.62433 0.85412 0.0
H476 H 0.53087 0.69355 0.85358 0.0
H477 H 0.68825 0.78795 0.8348 0.0
H478 H 0.70158 0.80859 0.81015 0.0
H479 H 0.70168 0.75607 0.81454 0.0
H480 H 0.64846 0.7183 0.78327 0.0
H481 H 0.64843 0.77069 0.77871 0.0
H482 H 0.59877 0.72469 0.78211 0.0
H483 H 0.5299 0.76792 0.84691 0.0
H484 H 0.53772 0.83844 0.83401 0.0
H485 H 0.64379 0.83791 0.79856 0.0
C486 C 0.62074 0.67712 0.82223 0.0
C487 C 0.5941 0.64329 0.8336 0.0
C488 C 0.56184 0.64967 0.84507 0.0
C489 C 0.55576 0.68895 0.84494 0.0
C490 C 0.58241 0.72162 0.83338 0.0
C491 C 0.6143 0.716 0.82227 0.0
C492 C 0.63786 0.75523 0.81056 0.0
C493 C 0.68515 0.77832 0.81796 0.0
C494 C 0.63307 0.74139 0.78729 0.0
C495 C 0.61402 0.7837 0.81658 0.0
C496 C 0.58227 0.76407 0.82985 0.0
C497 C 0.55503 0.78376 0.83671 0.0
C498 C 0.55984 0.82395 0.82944 0.0
C499 C 0.59139 0.84372 0.81533 0.0
C500 C 0.61933 0.82362 0.80932 0.0
H501 H 0.9216 0.47178 0.13056 0.0
H502 H 0.96378 0.57305 0.18216 0.0
H503 H 0.89081 0.5697 0.1844 0.0
H504 H 0.85249 0.51117 0.10684 0.0
H505 H 0.81158 0.45755 0.09823 0.0
H506 H 0.86611 0.46444 0.10184 0.0
H507 H 0.84251 0.40361 0.12652 0.0
H508 H 0.78782 0.39649 0.12311 0.0
H509 H 0.81288 0.40848 0.14851 0.0
H510 H 0.81326 0.5594 0.17973 0.0
H511 H 0.73979 0.54478 0.16751 0.0
H512 H 0.746 0.44959 0.11924 0.0
C513 C 0.91523 0.49256 0.14257 0.0
C514 C 0.94884 0.5226 0.15628 0.0
C515 C 0.93893 0.54976 0.17148 0.0
C516 C 0.89734 0.54804 0.17292 0.0
C517 C 0.86513 0.51891 0.15904 0.0
C518 C 0.8735 0.49152 0.14415 0.0
C519 C 0.83343 0.46511 0.13042 0.0
C520 C 0.84139 0.47518 0.10801 0.0
C521 C 0.81825 0.41547 0.13226 0.0
C522 C 0.80183 0.48263 0.13961 0.0
C523 C 0.82061 0.51328 0.15627 0.0
C524 C 0.7982 0.53511 0.16678 0.0
C525 C 0.75609 0.52632 0.15981 0.0
C526 C 0.73636 0.49612 0.14232 0.0
C527 C 0.75972 0.4733 0.13253 0.0
H528 H 0.36091 0.89859 0.47972 0.0
H529 H 0.43894 0.8454 0.51049 0.0
H530 H 0.37535 0.77585 0.51278 0.0
H531 H 0.26378 0.84628 0.50784 0.0
H532 H 0.22895 0.83587 0.48544 0.0
H533 H 0.27978 0.88281 0.48791 0.0
H534 H 0.30052 0.85587 0.45293 0.0
H535 H 0.24974 0.80912 0.45032 0.0
H536 H 0.29843 0.80078 0.44896 0.0
H537 H 0.30412 0.71055 0.50971 0.0
H538 H 0.23213 0.65308 0.49935 0.0
H539 H 0.20098 0.74945 0.47084 0.0
C540 C 0.36442 0.87244 0.48713 0.0
C541 C 0.40456 0.8772 0.49502 0.0
C542 C 0.40826 0.84225 0.50441 0.0
C543 C 0.37234 0.80279 0.50588 0.0
C544 C 0.33308 0.799 0.49791 0.0
C545 C 0.32896 0.83284 0.48866 0.0
C546 C 0.28389 0.81939 0.48006 0.0
C547 C 0.26287 0.84778 0.49097 0.0
C548 C 0.28313 0.8214 0.45669 0.0
C549 C 0.26358 0.77235 0.48545 0.0
C550 C 0.29222 0.76135 0.49602 0.0
C551 C 0.28123 0.71891 0.50166 0.0
C552 C 0.24025 0.68656 0.49583 0.0
C553 C 0.21108 0.69688 0.48433 0.0
C554 C 0.22269 0.74063 0.47961 0.0
H555 H 0.59524 0.4184 0.81405 0.0
H556 H 0.48268 0.37831 0.85015 0.0
H557 H 0.49141 0.3105 0.85653 0.0
H558 H 0.57308 0.31343 0.78915 0.0
H559 H 0.62778 0.31963 0.78893 0.0
H560 H 0.61589 0.3675 0.78938 0.0
H561 H 0.66503 0.40222 0.82221 0.0
H562 H 0.677 0.35427 0.82187 0.0
H563 H 0.65589 0.37194 0.84439 0.0
H564 H 0.50856 0.24416 0.85662 0.0
H565 H 0.52983 0.18231 0.84836 0.0
H566 H 0.63145 0.26483 0.81227 0.0
C567 C 0.57297 0.39567 0.8236 0.0
C568 C 0.53837 0.40359 0.83169 0.0
C569 C 0.50937 0.37278 0.84379 0.0
C570 C 0.51423 0.33431 0.84761 0.0
C571 C 0.54831 0.32704 0.83923 0.0
C572 C 0.57716 0.35678 0.82742 0.0
C573 C 0.60877 0.33924 0.81878 0.0
C574 C 0.60619 0.33467 0.79517 0.0
C575 C 0.65438 0.36867 0.82733 0.0
C576 C 0.59233 0.29448 0.82703 0.0
C577 C 0.55794 0.28843 0.8391 0.0
C578 C 0.53584 0.24872 0.84742 0.0
C579 C 0.54835 0.2138 0.84277 0.0
C580 C 0.58237 0.21858 0.82972 0.0
C581 C 0.60529 0.26004 0.8223 0.0
H582 H 0.62916 0.93948 0.52151 0.0
H583 H 0.53387 0.9074 0.47187 0.0
H584 H 0.51757 0.82787 0.47242 0.0
H585 H 0.66815 0.85613 0.50478 0.0
H586 H 0.67598 0.84535 0.53061 0.0
H587 H 0.68062 0.89931 0.52562 0.0
H588 H 0.62358 0.89519 0.55208 0.0
H589 H 0.61884 0.84133 0.55719 0.0
H590 H 0.57213 0.84911 0.54933 0.0
H591 H 0.51036 0.75063 0.47975 0.0
H592 H 0.51157 0.68442 0.49377 0.0
H593 H 0.61366 0.76928 0.53752 0.0
C594 C 0.60509 0.91576 0.51063 0.0
C595 C 0.58258 0.92946 0.49673 0.0
C596 C 0.55124 0.89746 0.48277 0.0
C597 C 0.54194 0.85229 0.48292 0.0
C598 C 0.56464 0.83981 0.49696 0.0
C599 C 0.59566 0.8708 0.51052 0.0
C600 C 0.61482 0.84925 0.5245 0.0
C601 C 0.66273 0.86335 0.52117 0.0
C602 C 0.60684 0.85931 0.54711 0.0
C603 C 0.58947 0.80118 0.51694 0.0
C604 C 0.56077 0.79613 0.50099 0.0
C605 C 0.53297 0.75432 0.49214 0.0
C606 C 0.53404 0.71688 0.5001 0.0
C607 C 0.56252 0.72159 0.51681 0.0
C608 C 0.59114 0.76444 0.52489 0.0
H609 H 0.74602 0.59189 0.87319 0.0
H610 H 0.73156 0.49498 0.82149 0.0
H611 H 0.80991 0.52748 0.81816 0.0
H612 H 0.82663 0.6821 0.85345 0.0
H613 H 0.85563 0.70573 0.87771 0.0
H614 H 0.79883 0.67335 0.87699 0.0
H615 H 0.80893 0.62072 0.90132 0.0
H616 H 0.86553 0.65401 0.90275 0.0
H617 H 0.84558 0.59564 0.89493 0.0
H618 H 0.8891 0.57318 0.81953 0.0
H619 H 0.96476 0.61928 0.82964 0.0
H620 H 0.92619 0.68753 0.87969 0.0
C621 C 0.75945 0.57685 0.86148 0.0
C622 C 0.73311 0.54104 0.8476 0.0
C623 C 0.75153 0.5223 0.83236 0.0
C624 C 0.7958 0.54087 0.8302 0.0
C625 C 0.82073 0.57789 0.84344 0.0
C626 C 0.80332 0.595 0.85907 0.0
C627 C 0.83693 0.63456 0.87142 0.0
C628 C 0.82901 0.6764 0.86978 0.0
C629 C 0.8394 0.62568 0.89393 0.0
C630 C 0.87617 0.6369 0.86039 0.0
C631 C 0.86613 0.60436 0.84411 0.0
C632 C 0.89738 0.5989 0.83218 0.0
C633 C 0.94022 0.62567 0.83785 0.0
C634 C 0.95109 0.65708 0.85535 0.0
C635 C 0.9186 0.66404 0.86613 0.0
H636 H 0.22063 0.64851 0.16931 0.0
H637 H 0.15398 0.68303 0.12212 0.0
H638 H 0.21816 0.75218 0.11948 0.0
H639 H 0.27094 0.75475 0.19493 0.0
H640 H 0.31967 0.74944 0.20141 0.0
H641 H 0.27014 0.7012 0.19791 0.0
H642 H 0.30392 0.66575 0.17083 0.0
H643 H 0.35351 0.7141 0.17351 0.0
H644 H 0.32634 0.69356 0.14863 0.0
H645 H 0.2883 0.82002 0.12398 0.0
H646 H 0.35665 0.88186 0.1364 0.0
H647 H 0.37594 0.80144 0.18046 0.0
C648 C 0.21971 0.67041 0.15826 0.0
C649 C 0.18262 0.66073 0.1459 0.0
C650 C 0.18232 0.69012 0.13171 0.0
C651 C 0.2186 0.72925 0.13005 0.0
C652 C 0.25471 0.7381 0.14263 0.0
C653 C 0.25542 0.70944 0.15647 0.0
C654 C 0.29684 0.72772 0.16926 0.0
C655 C 0.2889 0.73364 0.19223 0.0
C656 C 0.32162 0.69855 0.1653 0.0
C657 C 0.31906 0.77161 0.16081 0.0
C658 C 0.29463 0.77693 0.14529 0.0
C659 C 0.30791 0.81601 0.13595 0.0
C660 C 0.34674 0.85084 0.14302 0.0
C661 C 0.3713 0.84627 0.15938 0.0
C662 C 0.35763 0.8058 0.16797 0.0
H663 H 0.47943 0.12204 0.51111 0.0
H664 H 0.58501 0.13442 0.47264 0.0
H665 H 0.59792 0.2118 0.46884 0.0
H666 H 0.44042 0.18946 0.48405 0.0
H667 H 0.42718 0.21423 0.50707 0.0
H668 H 0.42558 0.15941 0.50628 0.0
H669 H 0.47806 0.18348 0.5382 0.0
H670 H 0.47918 0.23807 0.53927 0.0
H671 H 0.52834 0.23064 0.53792 0.0
H672 H 0.59934 0.2888 0.46958 0.0
H673 H 0.59417 0.36054 0.47801 0.0
H674 H 0.48793 0.29767 0.51606 0.0
C675 C 0.50535 0.14127 0.50198 0.0
C676 C 0.53187 0.12275 0.49251 0.0
C677 C 0.56515 0.14844 0.48048 0.0
C678 C 0.57232 0.19226 0.47802 0.0
C679 C 0.54561 0.20974 0.48757 0.0
C680 C 0.51304 0.18513 0.49949 0.0
C681 C 0.4901 0.21219 0.50887 0.0
C682 C 0.44303 0.19264 0.5011 0.0
C683 C 0.49419 0.21634 0.53246 0.0
C684 C 0.5151 0.25597 0.5006 0.0
C685 C 0.54659 0.25382 0.48808 0.0
C686 C 0.57458 0.29076 0.47924 0.0
C687 C 0.5712 0.33126 0.48393 0.0
C688 C 0.54043 0.33442 0.49749 0.0
C689 C 0.51144 0.29598 0.50545 0.0
H690 H 0.46606 0.62184 0.82486 0.0
H691 H 0.38088 0.49368 0.79552 0.0
H692 H 0.32182 0.51846 0.79571 0.0
H693 H 0.39944 0.62635 0.86012 0.0
H694 H 0.41436 0.68508 0.86203 0.0
H695 H 0.4518 0.66313 0.85336 0.0
H696 H 0.45975 0.70153 0.82002 0.0
H697 H 0.42191 0.72356 0.82867 0.0
H698 H 0.41297 0.69137 0.80408 0.0
H699 H 0.27032 0.551 0.80536 0.0
H700 H 0.22956 0.58381 0.82676 0.0
H701 H 0.34762 0.68775 0.85266 0.0
C702 C 0.43537 0.59959 0.81771 0.0
C703 C 0.42778 0.55613 0.80997 0.0
C704 C 0.38712 0.52732 0.80131 0.0
C705 C 0.35364 0.54129 0.80123 0.0
C706 C 0.36165 0.58396 0.80993 0.0
C707 C 0.40167 0.61264 0.81807 0.0
C708 C 0.40049 0.65263 0.83047 0.0
C709 C 0.41747 0.65697 0.8528 0.0
C710 C 0.42523 0.69476 0.82018 0.0
C711 C 0.35306 0.64067 0.82925 0.0
C712 C 0.3314 0.60197 0.81658 0.0
C713 C 0.28693 0.58181 0.81488 0.0
C714 C 0.26408 0.60059 0.82706 0.0
C715 C 0.28587 0.63832 0.84105 0.0
C716 C 0.33066 0.65939 0.84168 0.0
H717 H 0.92381 0.30772 0.17503 0.0
H718 H 0.87775 0.34987 0.1228 0.0
H719 H 0.80772 0.2865 0.1233 0.0
H720 H 0.86526 0.18716 0.16045 0.0
H721 H 0.85526 0.17628 0.18678 0.0
H722 H 0.90294 0.22192 0.18069 0.0
H723 H 0.88287 0.27532 0.2053 0.0
H724 H 0.83522 0.23 0.21142 0.0
H725 H 0.83151 0.27727 0.20173 0.0
H726 H 0.74056 0.22382 0.13226 0.0
H727 H 0.68202 0.16737 0.14895 0.0
H728 H 0.77378 0.16416 0.19401 0.0
C729 C 0.89921 0.30305 0.16346 0.0
C730 C 0.90585 0.33342 0.14889 0.0
C731 C 0.87303 0.32672 0.13408 0.0
C732 C 0.83332 0.29079 0.13419 0.0
C733 C 0.82745 0.26167 0.14901 0.0
C734 C 0.85968 0.26721 0.16324 0.0
C735 C 0.84452 0.23319 0.17842 0.0
C736 C 0.86841 0.20283 0.17645 0.0
C737 C 0.84877 0.25528 0.20051 0.0
C738 C 0.79828 0.20868 0.17101 0.0
C739 C 0.78905 0.22517 0.1539 0.0
C740 C 0.74756 0.21 0.1454 0.0
C741 C 0.71454 0.1778 0.15493 0.0
C742 C 0.72333 0.16139 0.17279 0.0
C743 C 0.76597 0.17625 0.18046 0.0
H744 H 0.12337 0.52949 0.08903 0.0
H745 H 0.99967 0.41844 0.08197 0.0
H746 H 1.00179 0.41954 0.04433 0.0
H747 H 0.10399 0.58829 0.05481 0.0
H748 H 0.1564 0.61034 0.04463 0.0
H749 H 0.15019 0.59438 0.07024 0.0
H750 H 0.18762 0.54174 0.0614 0.0
H751 H 0.19445 0.55793 0.0357 0.0
H752 H 0.16785 0.50044 0.03968 0.0
H753 H 1.01005 0.44301 0.00897 0.0
H754 H 1.02565 0.48439 0.97843 0.0
H755 H 0.14465 0.57907 0.00831 0.0
C756 C 0.09731 0.50446 0.07955 0.0
C757 C 0.06131 0.47391 0.08838 0.0
C758 C 1.02774 0.44189 0.0755 0.0
C759 C 0.0287 0.44228 0.0541 0.0
C760 C 0.06382 0.47432 0.04593 0.0
C761 C 0.09791 0.50434 0.05826 0.0
C762 C 0.12942 0.53869 0.04608 0.0
C763 C 0.13529 0.58566 0.05444 0.0
C764 C 0.17238 0.53443 0.04569 0.0
C765 C 0.10646 0.52504 0.02518 0.0
C766 C 0.06903 0.48738 0.0253 0.0
C767 C 0.03985 0.47166 0.0085 0.0
C768 C 0.0488 0.49543 0.9913 0.0
C769 C 0.08658 0.53435 0.99108 0.0
C770 C 0.11621 0.54865 0.00798 0.0
H771 H 0.52143 0.96826 0.42095 0.0
H772 H 0.59913 0.10778 0.43737 0.0
H773 H 0.59656 0.12144 0.40126 0.0
H774 H 0.57204 0.96091 0.37354 0.0
H775 H 0.52347 0.9221 0.36006 0.0
H776 H 0.52982 0.92331 0.38744 0.0
H777 H 0.4598 0.93459 0.39195 0.0
H778 H 0.45345 0.93383 0.36458 0.0
H779 H 0.45437 0.98021 0.38136 0.0
H780 H 0.58428 0.12091 0.36398 0.0
H781 H 0.56968 0.10506 0.32664 0.0
H782 H 0.50455 0.96513 0.33349 0.0
C783 C 0.53783 1.00163 0.4169 0.0
C784 C 0.56035 0.03696 0.43196 0.0
C785 C 0.58182 0.08015 0.42609 0.0
C786 C 0.58034 0.08834 0.40563 0.0
C787 C 0.55768 0.05294 0.39119 0.0
C788 C 0.53732 0.01035 0.39643 0.0
C789 C 0.51703 0.97808 0.37762 0.0
C790 C 0.53678 0.9441 0.37448 0.0
C791 C 0.46827 0.95534 0.37897 0.0
C792 C 0.52926 0.00931 0.36107 0.0
C793 C 0.55219 0.05237 0.36933 0.0
C794 C 0.56679 0.08727 0.35725 0.0
C795 C 0.55856 0.07785 0.33603 0.0
C796 C 0.53655 0.03376 0.32704 0.0
C797 C 0.5212 0.99919 0.33984 0.0
H798 H 0.54576 0.54688 0.75853 0.0
H799 H 0.65999 0.52578 0.77165 0.0
H800 H 0.67831 0.53248 0.73546 0.0
H801 H 0.51825 0.48414 0.71066 0.0
H802 H 0.49948 0.52024 0.6989 0.0
H803 H 0.4973 0.51763 0.72619 0.0
H804 H 0.5413 0.60223 0.7322 0.0
H805 H 0.54379 0.60508 0.70487 0.0
H806 H 0.59233 0.62657 0.72084 0.0
H807 H 0.68083 0.53442 0.69759 0.0
H808 H 0.66708 0.53145 0.66026 0.0
H809 H 0.55269 0.55351 0.67178 0.0
C810 C 0.57485 0.54406 0.75387 0.0
C811 C 0.60139 0.53572 0.76794 0.0
C812 C 0.63914 0.5322 0.76117 0.0
C813 C 0.64993 0.53612 0.74066 0.0
C814 C 0.62291 0.54401 0.72717 0.0
C815 C 0.58624 0.54813 0.73349 0.0
C816 C 0.56155 0.55431 0.71569 0.0
C817 C 0.51649 0.51684 0.71269 0.0
C818 C 0.55965 0.59976 0.71857 0.0
C819 C 0.58941 0.55165 0.69826 0.0
C820 C 0.62485 0.54608 0.70527 0.0
C821 C 0.65364 0.53951 0.69193 0.0
C822 C 0.64558 0.53779 0.67083 0.0
C823 C 0.60918 0.54278 0.66337 0.0
C824 C 0.58125 0.55066 0.67724 0.0
H825 H 0.60784 0.08261 0.56945 0.0
H826 H 0.49841 0.95696 0.55638 0.0
H827 H 0.49661 0.94598 0.593 0.0
H828 H 0.65901 0.04912 0.60824 0.0
H829 H 0.67686 0.10086 0.62423 0.0
H830 H 0.6697 0.09956 0.59688 0.0
H831 H 0.61813 0.13839 0.60241 0.0
H832 H 0.62531 0.14003 0.62978 0.0
H833 H 0.57237 0.11468 0.6177 0.0
H834 H 0.5072 0.94718 0.63056 0.0
H835 H 0.52725 0.96281 0.66757 0.0
H836 H 0.62921 0.08785 0.65676 0.0
C837 C 0.58339 0.05289 0.57429 0.0
C838 C 0.55325 0.02072 0.56 0.0
C839 C 0.52174 0.98227 0.567 0.0
C840 C 0.5205 0.97558 0.58778 0.0
C841 C 0.55082 1.00769 0.60141 0.0
C842 C 0.58147 0.04575 0.59505 0.0
C843 C 0.61003 0.07514 0.613 0.0
C844 C 0.65666 0.08153 0.61043 0.0
C845 C 0.60621 0.1197 0.61589 0.0
C846 C 0.5906 0.04752 0.63039 0.0
C847 C 0.55665 0.00864 0.6233 0.0
C848 C 0.53373 0.9775 0.63634 0.0
C849 C 0.54555 0.98652 0.65729 0.0
C850 C 0.57987 0.02641 0.66498 0.0
C851 C 0.6027 0.0572 0.6513 0.0
H852 H 0.59609 0.52464 0.90378 0.0
H853 H 0.46288 0.46652 0.88237 0.0
H854 H 0.44138 0.44989 0.91762 0.0
H855 H 0.58843 0.45069 0.94273 0.0
H856 H 0.62491 0.49404 0.96077 0.0
H857 H 0.63018 0.49806 0.93361 0.0
H858 H 0.62507 0.5738 0.93807 0.0
H859 H 0.62002 0.57012 0.96523 0.0
H860 H 0.5799 0.57824 0.95036 0.0
H861 H 0.43442 0.44001 0.95482 0.0
H862 H 0.44132 0.44417 0.99242 0.0
H863 H 0.57897 0.5144 0.99031 0.0
C864 C 0.56245 0.50794 0.90653 0.0
C865 C 0.53104 0.49648 0.89045 0.0
C866 C 0.48731 0.47556 0.89458 0.0
C867 C 0.47487 0.46575 0.91447 0.0
C868 C 0.50658 0.4776 0.93004 0.0
C869 C 0.54944 0.49873 0.92638 0.0
C870 C 0.57683 0.51095 0.94612 0.0
C871 C 0.60686 0.48699 0.94578 0.0
C872 C 0.60192 0.56126 0.95018 0.0
C873 C 0.5426 0.49366 0.96146 0.0
C874 C 0.50242 0.47392 0.95177 0.0
C875 C 0.46567 0.4557 0.96262 0.0
C876 C 0.46995 0.45857 0.984 0.0
C877 C 0.51064 0.48028 -0.00558 0.0
C878 C 0.54746 0.49734 0.98287 0.0
H879 H 1.01695 0.45986 0.22491 0.0
H880 H 0.05403 0.59369 0.20935 0.0
H881 H 0.04492 0.61772 0.24504 0.0
H882 H 0.93932 0.46071 0.26369 0.0
H883 H 0.95573 0.43002 0.28053 0.0
H884 H 0.95975 0.42158 0.25319 0.0
H885 H 0.04031 0.43954 0.25845 0.0
H886 H 0.03644 0.44773 0.28576 0.0
H887 H 0.0749 0.49091 0.27267 0.0
H888 H 0.03581 0.62851 0.28209 0.0
H889 H 0.03422 0.62735 0.31961 0.0
H890 H 1.00731 0.48772 0.31234 0.0
C891 C 1.02246 0.494 0.22906 0.0
C892 C 0.03602 0.52502 0.21452 0.0
C893 C 0.04383 0.56961 0.2204 0.0
C894 C 0.03836 0.58345 0.24055 0.0
C895 C 1.02544 0.55234 0.25465 0.0
C896 C 1.01802 0.50865 0.24932 0.0
C897 C 1.00871 0.4832 0.26803 0.0
C898 C 0.96316 0.44672 0.26625 0.0
C899 C 0.04208 0.46425 0.27143 0.0
C900 C 1.01296 0.51969 0.28468 0.0
C901 C 1.02175 0.55902 0.27649 0.0
C902 C 0.02881 0.59792 0.28873 0.0
C903 C 0.02806 0.59698 0.31001 0.0
C904 C 1.02091 0.55754 0.31886 0.0
C905 C 1.01224 0.51818 0.30597 0.0
loop_
_geom_bond_atom_site_label_1
_geom_bond_atom_site_label_2
_geom_bond_distance
_geom_bond_site_symmetry_2
_ccdc_geom_bond_type
Tb0 O3 2.453 1_455 S
Tb0 O4 2.596 1_455 S
Tb0 O5 2.374 . S
Tb0 O13 2.343 . S
Tb0 O15 2.353 . S
Tb0 O17 2.427 . S
Tb0 O18 2.513 . S
C1 O5 1.251 . S
C1 O7 1.263 . S
Tb2 O4 2.343 1_455 S
Tb2 O7 2.353 . S
Tb2 O10 2.427 1_455 S
Tb2 O11 2.513 1_455 S
Tb2 O12 2.453 . S
Tb2 O13 2.596 . S
Tb2 O14 2.374 . S
O3 Tb0 2.453 1_655 S
O3 C19 1.245 . S
O4 Tb0 2.596 1_655 S
O4 Tb2 2.343 1_655 S
O4 C19 1.259 . S
O5 Tb0 2.374 . S
O5 C1 1.251 . S
C6 O10 1.275 . S
C6 O11 1.246 . S
O7 C1 1.263 . S
O7 Tb2 2.353 . S
C8 O12 1.245 . S
C8 O13 1.259 . S
C9 O14 1.250 . S
C9 O15 1.263 . S
O10 Tb2 2.427 1_655 S
O10 C6 1.275 . S
O11 Tb2 2.513 1_655 S
O11 C6 1.246 . S
O12 Tb2 2.453 . S
O12 C8 1.245 . S
O13 Tb0 2.343 . S
O13 Tb2 2.596 . S
O13 C8 1.259 . S
O14 Tb2 2.374 . S
O14 C9 1.250 . S
O15 Tb0 2.353 . S
O15 C9 1.263 . S
C16 O17 1.275 . S
C16 O18 1.246 . S
O17 Tb0 2.427 . S
O17 C16 1.275 . S
O18 Tb0 2.513 . S
O18 C16 1.246 . S
C19 O3 1.245 . S
C19 O4 1.259 . S
Tb20 O23 2.453 . S
Tb20 O24 2.596 . S
Tb20 O25 2.374 . S
Tb20 O33 2.343 1_545 S
Tb20 O35 2.353 . S
Tb20 O37 2.427 1_545 S
Tb20 O38 2.513 1_545 S
C21 O25 1.251 . S
C21 O27 1.263 . S
Tb22 O24 2.343 . S
Tb22 O27 2.353 . S
Tb22 O30 2.427 . S
Tb22 O31 2.513 . S
Tb22 O32 2.453 1_545 S
Tb22 O33 2.596 1_545 S
Tb22 O34 2.374 . S
O23 Tb20 2.453 . S
O23 C39 1.245 . S
O24 Tb20 2.596 . S
O24 Tb22 2.343 . S
O24 C39 1.259 . S
O25 Tb20 2.374 . S
O25 C21 1.251 . S
C26 O30 1.275 . S
C26 O31 1.246 . S
O27 C21 1.263 . S
O27 Tb22 2.353 . S
C28 O32 1.245 . S
C28 O33 1.259 . S
C29 O34 1.250 . S
C29 O35 1.263 . S
O30 Tb22 2.427 . S
O30 C26 1.275 . S
O31 Tb22 2.513 . S
O31 C26 1.246 . S
O32 Tb22 2.453 1_565 S
O32 C28 1.245 . S
O33 Tb20 2.343 1_565 S
O33 Tb22 2.596 1_565 S
O33 C28 1.259 . S
O34 Tb22 2.374 . S
O34 C29 1.250 . S
O35 Tb20 2.353 . S
O35 C29 1.263 . S
C36 O37 1.275 . S
C36 O38 1.246 . S
O37 Tb20 2.427 1_565 S
O37 C36 1.275 . S
O38 Tb20 2.513 1_565 S
O38 C36 1.246 . S
C39 O23 1.245 . S
C39 O24 1.259 . S
Tb40 O43 2.453 . S
Tb40 O44 2.596 . S
Tb40 O45 2.374 . S
Tb40 O53 2.343 . S
Tb40 O55 2.353 . S
Tb40 O57 2.427 . S
Tb40 O58 2.513 . S
C41 O45 1.251 . S
C41 O47 1.263 . S
Tb42 O44 2.343 . S
Tb42 O47 2.353 . S
Tb42 O50 2.427 . S
Tb42 O51 2.513 . S
Tb42 O52 2.453 . S
Tb42 O53 2.596 . S
Tb42 O54 2.374 . S
O43 Tb40 2.453 . S
O43 C59 1.245 . S
O44 Tb40 2.596 . S
O44 Tb42 2.343 . S
O44 C59 1.259 . S
O45 Tb40 2.374 . S
O45 C41 1.251 . S
C46 O50 1.275 . S
C46 O51 1.246 . S
O47 C41 1.263 . S
O47 Tb42 2.353 . S
C48 O52 1.245 . S
C48 O53 1.259 . S
C49 O54 1.250 . S
C49 O55 1.263 . S
O50 Tb42 2.427 . S
O50 C46 1.275 . S
O51 Tb42 2.513 . S
O51 C46 1.246 . S
O52 Tb42 2.453 . S
O52 C48 1.245 . S
O53 Tb40 2.343 . S
O53 Tb42 2.596 . S
O53 C48 1.259 . S
O54 Tb42 2.374 . S
O54 C49 1.250 . S
O55 Tb40 2.353 . S
O55 C49 1.263 . S
C56 O57 1.275 . S
C56 O58 1.246 . S
O57 Tb40 2.427 . S
O57 C56 1.275 . S
O58 Tb40 2.513 . S
O58 C56 1.246 . S
C59 O43 1.245 . S
C59 O44 1.259 . S
C60 C61 1.391 . S
C60 C64 1.391 . S
C60 H102 0.948 . S
C61 C60 1.391 . S
C61 C62 1.391 . S
C62 C61 1.391 . S
C62 H118 0.947 . S
C62 C119 1.392 . S
C63 C64 1.391 . S
C63 C67 1.397 . S
C63 C119 1.419 . S
C64 C60 1.391 . S
C64 C63 1.391 . S
C64 C65 1.399 . S
C65 C64 1.399 . S
C65 C68 1.396 . S
C65 C77 1.453 . S
C65 C78 1.684 . S
H66 C90 0.948 . S
C67 C63 1.397 . S
C67 C68 1.394 . S
C67 C86 1.723 . S
C68 C65 1.396 . S
C68 C67 1.394 . S
C68 C98 1.723 . S
H69 C92 0.947 . S
H70 C93 0.948 . S
H71 C99 0.982 . S
H72 C100 0.979 . S
H73 C100 0.980 . S
H74 C100 0.983 . S
H75 C99 0.979 . S
H76 C99 0.977 . S
C77 C65 1.453 . S
C77 H106 0.982 . S
C77 H107 0.979 . S
C77 H108 0.977 . S
C78 C65 1.684 . S
C78 H103 0.979 . S
C78 H104 0.980 . S
C78 H105 0.983 . S
C79 C80 1.391 . S
C79 C84 1.391 . S
C79 H109 0.948 . S
C80 C79 1.391 . S
C80 C81 1.391 . S
C81 C80 1.391 . S
C81 C82 1.392 . S
C81 H110 0.947 1_545 S
C82 C81 1.392 . S
C82 C83 1.419 . S
C82 H111 0.948 1_545 S
C83 C82 1.419 . S
C83 C84 1.391 . S
C83 C87 1.397 . S
C84 C79 1.391 . S
C84 C83 1.391 . S
C84 C85 1.399 . S
C85 C84 1.399 . S
C85 C86 1.396 . S
C85 C88 1.453 . S
C85 C89 1.684 . S
C86 C67 1.723 . S
C86 C85 1.396 . S
C86 C87 1.394 . S
C87 C83 1.397 . S
C87 C86 1.394 . S
C87 C97 1.723 1_545 S
C88 C85 1.453 . S
C88 H112 0.982 . S
C88 H113 0.979 . S
C88 H114 0.977 . S
C89 C85 1.684 . S
C89 H115 0.979 . S
C89 H116 0.980 . S
C89 H117 0.983 . S
C90 H66 0.948 . S
C90 C91 1.391 . S
C90 C95 1.391 . S
C91 C90 1.391 . S
C91 C92 1.391 . S
C92 H69 0.947 . S
C92 C91 1.391 . S
C92 C93 1.392 . S
C93 H70 0.948 . S
C93 C92 1.392 . S
C93 C94 1.419 . S
C94 C93 1.419 . S
C94 C95 1.391 . S
C94 C98 1.397 1_565 S
C95 C90 1.391 . S
C95 C94 1.391 . S
C95 C96 1.399 . S
C96 C95 1.399 . S
C96 C97 1.396 . S
C96 C99 1.453 . S
C96 C100 1.684 . S
C97 C87 1.723 1_565 S
C97 C96 1.396 . S
C97 C98 1.394 1_565 S
C98 C68 1.723 . S
C98 C94 1.397 1_545 S
C98 C97 1.394 1_545 S
C99 H71 0.982 . S
C99 H75 0.979 . S
C99 H76 0.977 . S
C99 C96 1.453 . S
C100 H72 0.979 . S
C100 H73 0.980 . S
C100 H74 0.983 . S
C100 C96 1.684 . S
H101 C119 0.948 . S
H102 C60 0.948 . S
H103 C78 0.979 . S
H104 C78 0.980 . S
H105 C78 0.983 . S
H106 C77 0.982 . S
H107 C77 0.979 . S
H108 C77 0.977 . S
H109 C79 0.948 . S
H110 C81 0.947 1_565 S
H111 C82 0.948 1_565 S
H112 C88 0.982 . S
H113 C88 0.979 . S
H114 C88 0.977 . S
H115 C89 0.979 . S
H116 C89 0.980 . S
H117 C89 0.983 . S
H118 C62 0.947 . S
C119 C62 1.392 . S
C119 C63 1.419 . S
C119 H101 0.948 . S
C120 C121 1.391 . S
C120 C124 1.391 . S
C120 H162 0.948 . S
C121 C120 1.391 . S
C121 C122 1.391 . S
C122 C121 1.391 . S
C122 H178 0.947 . S
C122 C179 1.392 . S
C123 C124 1.391 . S
C123 C127 1.397 . S
C123 C179 1.419 . S
C124 C120 1.391 . S
C124 C123 1.391 . S
C124 C125 1.399 . S
C125 C124 1.399 . S
C125 C128 1.396 . S
C125 C137 1.453 . S
C125 C138 1.684 . S
H126 C150 0.948 . S
C127 C123 1.397 . S
C127 C128 1.394 . S
C127 C146 1.723 . S
C128 C125 1.396 . S
C128 C127 1.394 . S
C128 C158 1.723 . S
H129 C152 0.947 . S
H130 C153 0.948 . S
H131 C159 0.982 . S
H132 C160 0.979 . S
H133 C160 0.980 . S
H134 C160 0.983 . S
H135 C159 0.979 . S
H136 C159 0.977 . S
C137 C125 1.453 . S
C137 H166 0.982 . S
C137 H167 0.979 . S
C137 H168 0.977 . S
C138 C125 1.684 . S
C138 H163 0.979 . S
C138 H164 0.980 . S
C138 H165 0.983 . S
C139 C140 1.391 . S
C139 C144 1.391 . S
C139 H169 0.948 . S
C140 C139 1.391 . S
C140 C141 1.391 . S
C141 C140 1.391 . S
C141 C142 1.392 . S
C141 H170 0.947 . S
C142 C141 1.392 . S
C142 C143 1.419 . S
C142 H171 0.948 . S
C143 C142 1.419 . S
C143 C144 1.391 . S
C143 C147 1.397 . S
C144 C139 1.391 . S
C144 C143 1.391 . S
C144 C145 1.399 . S
C145 C144 1.399 . S
C145 C146 1.396 . S
C145 C148 1.453 . S
C145 C149 1.684 . S
C146 C127 1.723 . S
C146 C145 1.396 . S
C146 C147 1.394 . S
C147 C143 1.397 . S
C147 C146 1.394 . S
C147 C157 1.723 . S
C148 C145 1.453 . S
C148 H172 0.982 . S
C148 H173 0.979 . S
C148 H174 0.977 . S
C149 C145 1.684 . S
C149 H175 0.979 . S
C149 H176 0.980 . S
C149 H177 0.983 . S
C150 H126 0.948 . S
C150 C151 1.391 . S
C150 C155 1.391 . S
C151 C150 1.391 . S
C151 C152 1.391 . S
C152 H129 0.947 . S
C152 C151 1.391 . S
C152 C153 1.392 . S
C153 H130 0.948 . S
C153 C152 1.392 . S
C153 C154 1.419 . S
C154 C153 1.419 . S
C154 C155 1.391 . S
C154 C158 1.397 . S
C155 C150 1.391 . S
C155 C154 1.391 . S
C155 C156 1.399 . S
C156 C155 1.399 . S
C156 C157 1.396 . S
C156 C159 1.453 . S
C156 C160 1.684 . S
C157 C147 1.723 . S
C157 C156 1.396 . S
C157 C158 1.394 . S
C158 C128 1.723 . S
C158 C154 1.397 . S
C158 C157 1.394 . S
C159 H131 0.982 . S
C159 H135 0.979 . S
C159 H136 0.977 . S
C159 C156 1.453 . S
C160 H132 0.979 . S
C160 H133 0.980 . S
C160 H134 0.983 . S
C160 C156 1.684 . S
H161 C179 0.948 . S
H162 C120 0.948 . S
H163 C138 0.979 . S
H164 C138 0.980 . S
H165 C138 0.983 . S
H166 C137 0.982 . S
H167 C137 0.979 . S
H168 C137 0.977 . S
H169 C139 0.948 . S
H170 C141 0.947 . S
H171 C142 0.948 . S
H172 C148 0.982 . S
H173 C148 0.979 . S
H174 C148 0.977 . S
H175 C149 0.979 . S
H176 C149 0.980 . S
H177 C149 0.983 . S
H178 C122 0.947 . S
C179 C122 1.392 . S
C179 C123 1.419 . S
C179 H161 0.948 . S
C180 C181 1.391 . S
C180 C184 1.391 . S
C180 H222 0.948 . S
C181 C180 1.391 . S
C181 C182 1.391 . S
C182 C181 1.391 . S
C182 H238 0.947 . S
C182 C239 1.392 . S
C183 C184 1.391 . S
C183 C187 1.397 . S
C183 C239 1.419 . S
C184 C180 1.391 . S
C184 C183 1.391 . S
C184 C185 1.399 . S
C185 C184 1.399 . S
C185 C188 1.396 . S
C185 C197 1.453 . S
C185 C198 1.684 . S
H186 C210 0.948 . S
C187 C183 1.397 . S
C187 C188 1.394 . S
C187 C206 1.723 . S
C188 C185 1.396 . S
C188 C187 1.394 . S
C188 C218 1.723 . S
H189 C212 0.947 . S
H190 C213 0.948 . S
H191 C219 0.982 . S
H192 C220 0.978 . S
H193 C220 0.980 . S
H194 C220 0.983 . S
H195 C219 0.979 . S
H196 C219 0.977 . S
C197 C185 1.453 . S
C197 H226 0.982 . S
C197 H227 0.979 . S
C197 H228 0.977 . S
C198 C185 1.684 . S
C198 H223 0.979 . S
C198 H224 0.980 . S
C198 H225 0.983 . S
C199 C200 1.391 . S
C199 C204 1.391 . S
C199 H229 0.948 . S
C200 C199 1.391 . S
C200 C201 1.391 . S
C201 C200 1.391 . S
C201 C202 1.392 . S
C201 H230 0.947 . S
C202 C201 1.392 . S
C202 C203 1.419 . S
C202 H231 0.948 . S
C203 C202 1.419 . S
C203 C204 1.391 . S
C203 C207 1.397 . S
C204 C199 1.391 . S
C204 C203 1.391 . S
C204 C205 1.399 . S
C205 C204 1.399 . S
C205 C206 1.396 . S
C205 C208 1.453 . S
C205 C209 1.684 . S
C206 C187 1.723 . S
C206 C205 1.396 . S
C206 C207 1.394 . S
C207 C203 1.397 . S
C207 C206 1.394 . S
C207 C217 1.723 . S
C208 C205 1.453 . S
C208 H232 0.982 . S
C208 H233 0.979 . S
C208 H234 0.977 . S
C209 C205 1.684 . S
C209 H235 0.979 . S
C209 H236 0.980 . S
C209 H237 0.983 . S
C210 H186 0.948 . S
C210 C211 1.391 . S
C210 C215 1.391 . S
C211 C210 1.391 . S
C211 C212 1.391 . S
C212 H189 0.947 . S
C212 C211 1.391 . S
C212 C213 1.392 1_655 S
C213 H190 0.948 . S
C213 C212 1.392 1_455 S
C213 C214 1.419 . S
C214 C213 1.419 . S
C214 C215 1.391 1_455 S
C214 C218 1.397 . S
C215 C210 1.391 . S
C215 C214 1.391 1_655 S
C215 C216 1.399 . S
C216 C215 1.399 . S
C216 C217 1.396 1_655 S
C216 C219 1.453 . S
C216 C220 1.684 . S
C217 C207 1.723 . S
C217 C216 1.396 1_455 S
C217 C218 1.394 . S
C218 C188 1.723 . S
C218 C214 1.397 . S
C218 C217 1.394 . S
C219 H191 0.982 . S
C219 H195 0.979 . S
C219 H196 0.977 . S
C219 C216 1.453 . S
C220 H192 0.978 . S
C220 H193 0.980 . S
C220 H194 0.983 . S
C220 C216 1.684 . S
H221 C239 0.948 . S
H222 C180 0.948 . S
H223 C198 0.979 . S
H224 C198 0.980 . S
H225 C198 0.983 . S
H226 C197 0.982 . S
H227 C197 0.979 . S
H228 C197 0.977 . S
H229 C199 0.948 . S
H230 C201 0.947 . S
H231 C202 0.948 . S
H232 C208 0.982 . S
H233 C208 0.979 . S
H234 C208 0.977 . S
H235 C209 0.979 . S
H236 C209 0.980 . S
H237 C209 0.983 . S
H238 C182 0.947 . S
C239 C182 1.392 . S
C239 C183 1.419 . S
C239 H221 0.948 . S
C240 C241 1.391 . S
C240 C244 1.391 . S
C240 H282 0.948 . S
C241 C240 1.391 . S
C241 C242 1.391 . S
C242 C241 1.391 . S
C242 H298 0.947 . S
C242 C299 1.392 . S
C243 C244 1.391 . S
C243 C247 1.397 . S
C243 C299 1.419 . S
C244 C240 1.391 . S
C244 C243 1.391 . S
C244 C245 1.399 . S
C245 C244 1.399 . S
C245 C248 1.396 . S
C245 C257 1.453 . S
C245 C258 1.684 . S
H246 C270 0.948 . S
C247 C243 1.397 . S
C247 C248 1.394 . S
C247 C266 1.723 . S
C248 C245 1.396 . S
C248 C247 1.394 . S
C248 C278 1.723 1_655 S
H249 C272 0.947 . S
H250 C273 0.948 . S
H251 C279 0.982 . S
H252 C280 0.979 . S
H253 C280 0.980 . S
H254 C280 0.983 . S
H255 C279 0.979 . S
H256 C279 0.977 . S
C257 C245 1.453 . S
C257 H286 0.982 1_655 S
C257 H287 0.979 . S
C257 H288 0.977 1_655 S
C258 C245 1.684 . S
C258 H283 0.979 . S
C258 H284 0.980 . S
C258 H285 0.983 . S
C259 C260 1.391 1_655 S
C259 C264 1.391 . S
C259 H289 0.948 . S
C260 C259 1.391 1_455 S
C260 C261 1.391 . S
C261 C260 1.391 . S
C261 C262 1.392 . S
C261 H290 0.947 . S
C262 C261 1.392 . S
C262 C263 1.419 . S
C262 H291 0.948 . S
C263 C262 1.419 . S
C263 C264 1.391 1_455 S
C263 C267 1.397 . S
C264 C259 1.391 . S
C264 C263 1.391 1_655 S
C264 C265 1.399 . S
C265 C264 1.399 . S
C265 C266 1.396 . S
C265 C268 1.453 . S
C265 C269 1.684 . S
C266 C247 1.723 . S
C266 C265 1.396 . S
C266 C267 1.394 1_655 S
C267 C263 1.397 . S
C267 C266 1.394 1_455 S
C267 C277 1.723 . S
C268 C265 1.453 . S
C268 H292 0.982 . S
C268 H293 0.979 . S
C268 H294 0.977 . S
C269 C265 1.684 . S
C269 H295 0.979 . S
C269 H296 0.980 . S
C269 H297 0.983 . S
C270 H246 0.948 . S
C270 C271 1.391 . S
C270 C275 1.391 . S
C271 C270 1.391 . S
C271 C272 1.391 . S
C272 H249 0.947 . S
C272 C271 1.391 . S
C272 C273 1.392 . S
C273 H250 0.948 . S
C273 C272 1.392 . S
C273 C274 1.419 . S
C274 C273 1.419 . S
C274 C275 1.391 . S
C274 C278 1.397 . S
C275 C270 1.391 . S
C275 C274 1.391 . S
C275 C276 1.399 . S
C276 C275 1.399 . S
C276 C277 1.396 . S
C276 C279 1.453 . S
C276 C280 1.684 . S
C277 C267 1.723 . S
C277 C276 1.396 . S
C277 C278 1.394 . S
C278 C248 1.723 1_455 S
C278 C274 1.397 . S
C278 C277 1.394 . S
C279 H251 0.982 . S
C279 H255 0.979 . S
C279 H256 0.977 . S
C279 C276 1.453 . S
C280 H252 0.979 . S
C280 H253 0.980 . S
C280 H254 0.983 . S
C280 C276 1.684 . S
H281 C299 0.948 . S
H282 C240 0.948 . S
H283 C258 0.979 . S
H284 C258 0.980 . S
H285 C258 0.983 . S
H286 C257 0.982 1_455 S
H287 C257 0.979 . S
H288 C257 0.977 1_455 S
H289 C259 0.948 . S
H290 C261 0.947 . S
H291 C262 0.948 . S
H292 C268 0.982 . S
H293 C268 0.979 . S
H294 C268 0.977 . S
H295 C269 0.979 . S
H296 C269 0.980 . S
H297 C269 0.983 . S
H298 C242 0.947 . S
C299 C242 1.392 . S
C299 C243 1.419 . S
C299 H281 0.948 . S
C300 C301 1.391 . S
C300 C304 1.391 . S
C300 H342 0.948 . S
C301 C300 1.391 . S
C301 C302 1.391 . S
C302 C301 1.391 . S
C302 H358 0.947 . S
C302 C359 1.392 . S
C303 C304 1.391 . S
C303 C307 1.397 . S
C303 C359 1.419 . S
C304 C300 1.391 . S
C304 C303 1.391 . S
C304 C305 1.399 . S
C305 C304 1.399 . S
C305 C308 1.396 1_565 S
C305 C317 1.453 1_565 S
C305 C318 1.684 . S
H306 C330 0.948 . S
C307 C303 1.397 . S
C307 C308 1.394 1_565 S
C307 C326 1.723 . S
C308 C305 1.396 1_545 S
C308 C307 1.394 1_545 S
C308 C338 1.723 . S
H309 C332 0.947 . S
H310 C333 0.948 . S
H311 C339 0.982 . S
H312 C340 0.979 . S
H313 C340 0.980 . S
H314 C340 0.983 . S
H315 C339 0.979 . S
H316 C339 0.977 . S
C317 C305 1.453 1_545 S
C317 H346 0.982 . S
C317 H347 0.979 . S
C317 H348 0.977 . S
C318 C305 1.684 . S
C318 H343 0.979 . S
C318 H344 0.980 1_565 S
C318 H345 0.983 . S
C319 C320 1.391 1_565 S
C319 C324 1.391 . S
C319 H349 0.948 . S
C320 C319 1.391 1_545 S
C320 C321 1.391 . S
C321 C320 1.391 . S
C321 C322 1.392 . S
C321 H350 0.947 . S
C322 C321 1.392 . S
C322 C323 1.419 . S
C322 H351 0.948 . S
C323 C322 1.419 . S
C323 C324 1.391 1_545 S
C323 C327 1.397 . S
C324 C319 1.391 . S
C324 C323 1.391 1_565 S
C324 C325 1.399 . S
C325 C324 1.399 . S
C325 C326 1.396 . S
C325 C328 1.453 . S
C325 C329 1.684 . S
C326 C307 1.723 . S
C326 C325 1.396 . S
C326 C327 1.394 1_565 S
C327 C323 1.397 . S
C327 C326 1.394 1_545 S
C327 C337 1.723 . S
C328 C325 1.453 . S
C328 H352 0.982 . S
C328 H353 0.979 . S
C328 H354 0.977 . S
C329 C325 1.684 . S
C329 H355 0.979 . S
C329 H356 0.980 . S
C329 H357 0.983 . S
C330 H306 0.948 . S
C330 C331 1.391 . S
C330 C335 1.391 . S
C331 C330 1.391 . S
C331 C332 1.391 . S
C332 H309 0.947 . S
C332 C331 1.391 . S
C332 C333 1.392 . S
C333 H310 0.948 . S
C333 C332 1.392 . S
C333 C334 1.419 . S
C334 C333 1.419 . S
C334 C335 1.391 . S
C334 C338 1.397 . S
C335 C330 1.391 . S
C335 C334 1.391 . S
C335 C336 1.399 . S
C336 C335 1.399 . S
C336 C337 1.396 . S
C336 C339 1.453 . S
C336 C340 1.684 . S
C337 C327 1.723 . S
C337 C336 1.396 . S
C337 C338 1.394 . S
C338 C308 1.723 . S
C338 C334 1.397 . S
C338 C337 1.394 . S
C339 H311 0.982 . S
C339 H315 0.979 . S
C339 H316 0.977 . S
C339 C336 1.453 . S
C340 H312 0.979 . S
C340 H313 0.980 . S
C340 H314 0.983 . S
C340 C336 1.684 . S
H341 C359 0.948 . S
H342 C300 0.948 . S
H343 C318 0.979 . S
H344 C318 0.980 1_545 S
H345 C318 0.983 . S
H346 C317 0.982 . S
H347 C317 0.979 . S
H348 C317 0.977 . S
H349 C319 0.948 . S
H350 C321 0.947 . S
H351 C322 0.948 . S
H352 C328 0.982 . S
H353 C328 0.979 . S
H354 C328 0.977 . S
H355 C329 0.979 . S
H356 C329 0.980 . S
H357 C329 0.983 . S
H358 C302 0.947 . S
C359 C302 1.392 . S
C359 C303 1.419 . S
C359 H341 0.948 . S
C360 C361 1.391 . S
C360 C364 1.391 . S
C360 H402 0.948 . S
C361 C360 1.391 . S
C361 C362 1.391 . S
C362 C361 1.391 . S
C362 H418 0.947 . S
C362 C419 1.392 . S
C363 C364 1.391 . S
C363 C367 1.397 . S
C363 C419 1.419 . S
C364 C360 1.391 . S
C364 C363 1.391 . S
C364 C365 1.399 . S
C365 C364 1.399 . S
C365 C368 1.396 . S
C365 C377 1.453 . S
C365 C378 1.684 . S
H366 C390 0.948 . S
C367 C363 1.397 . S
C367 C368 1.394 . S
C367 C386 1.723 . S
C368 C365 1.396 . S
C368 C367 1.394 . S
C368 C398 1.723 . S
H369 C392 0.947 . S
H370 C393 0.948 . S
H371 C399 0.982 . S
H372 C400 0.979 . S
H373 C400 0.980 . S
H374 C400 0.983 . S
H375 C399 0.979 . S
H376 C399 0.977 . S
C377 C365 1.453 . S
C377 H406 0.982 . S
C377 H407 0.979 . S
C377 H408 0.977 . S
C378 C365 1.684 . S
C378 H403 0.979 . S
C378 H404 0.980 . S
C378 H405 0.983 . S
C379 C380 1.391 . S
C379 C384 1.391 . S
C379 H409 0.948 . S
C380 C379 1.391 . S
C380 C381 1.391 . S
C381 C380 1.391 . S
C381 C382 1.392 . S
C381 H410 0.947 . S
C382 C381 1.392 . S
C382 C383 1.419 . S
C382 H411 0.948 . S
C383 C382 1.419 . S
C383 C384 1.391 . S
C383 C387 1.397 . S
C384 C379 1.391 . S
C384 C383 1.391 . S
C384 C385 1.399 . S
C385 C384 1.399 . S
C385 C386 1.396 . S
C385 C388 1.453 . S
C385 C389 1.684 . S
C386 C367 1.723 . S
C386 C385 1.396 . S
C386 C387 1.394 . S
C387 C383 1.397 . S
C387 C386 1.394 . S
C387 C397 1.723 . S
C388 C385 1.453 . S
C388 H412 0.982 . S
C388 H413 0.979 . S
C388 H414 0.977 . S
C389 C385 1.684 . S
C389 H415 0.979 . S
C389 H416 0.980 . S
C389 H417 0.983 . S
C390 H366 0.948 . S
C390 C391 1.391 . S
C390 C395 1.391 . S
C391 C390 1.391 . S
C391 C392 1.391 . S
C392 H369 0.947 . S
C392 C391 1.391 . S
C392 C393 1.392 . S
C393 H370 0.948 . S
C393 C392 1.392 . S
C393 C394 1.419 . S
C394 C393 1.419 . S
C394 C395 1.391 . S
C394 C398 1.397 . S
C395 C390 1.391 . S
C395 C394 1.391 . S
C395 C396 1.399 . S
C396 C395 1.399 . S
C396 C397 1.396 . S
C396 C399 1.453 . S
C396 C400 1.684 . S
C397 C387 1.723 . S
C397 C396 1.396 . S
C397 C398 1.394 . S
C398 C368 1.723 . S
C398 C394 1.397 . S
C398 C397 1.394 . S
C399 H371 0.982 . S
C399 H375 0.979 . S
C399 H376 0.977 . S
C399 C396 1.453 . S
C400 H372 0.979 . S
C400 H373 0.980 . S
C400 H374 0.983 . S
C400 C396 1.684 . S
H401 C419 0.948 . S
H402 C360 0.948 . S
H403 C378 0.979 . S
H404 C378 0.980 . S
H405 C378 0.983 . S
H406 C377 0.982 . S
H407 C377 0.979 . S
H408 C377 0.977 . S
H409 C379 0.948 . S
H410 C381 0.947 . S
H411 C382 0.948 . S
H412 C388 0.982 . S
H413 C388 0.979 . S
H414 C388 0.977 . S
H415 C389 0.979 . S
H416 C389 0.980 . S
H417 C389 0.983 . S
H418 C362 0.947 . S
C419 C362 1.392 . S
C419 C363 1.419 . S
C419 H401 0.948 . S
H420 C432 0.930 . S
H421 C434 0.930 . S
H422 C435 0.930 . S
H423 C439 0.959 . S
H424 C439 0.959 . S
H425 C439 0.961 . S
H426 C440 0.960 . S
H427 C440 0.961 . S
H428 C440 0.959 . S
H429 C443 0.929 . S
H430 C444 0.931 . S
H431 C446 0.930 . S
C432 H420 0.930 . S
C432 C433 1.399 . S
C432 C437 1.399 . S
C433 C432 1.399 . S
C433 C434 1.376 . S
C434 H421 0.930 . S
C434 C433 1.376 . S
C434 C435 1.388 . S
C435 H422 0.930 . S
C435 C434 1.388 . S
C435 C436 1.390 . S
C436 C435 1.390 . S
C436 C437 1.394 . S
C436 C442 1.465 . S
C437 C432 1.399 . S
C437 C436 1.394 . S
C437 C438 1.516 . S
C438 C437 1.516 . S
C438 C439 1.502 . S
C438 C440 1.561 . S
C438 C441 1.526 . S
C439 H423 0.959 . S
C439 H424 0.959 . S
C439 H425 0.961 . S
C439 C438 1.502 . S
C440 H426 0.960 . S
C440 H427 0.961 . S
C440 H428 0.959 . S
C440 C438 1.561 . S
C441 C438 1.526 . S
C441 C442 1.396 . S
C441 C446 1.390 . S
C442 C436 1.465 . S
C442 C441 1.396 . S
C442 C443 1.399 . S
C443 H429 0.929 . S
C443 C442 1.399 . S
C443 C444 1.385 . S
C444 H430 0.931 . S
C444 C443 1.385 . S
C444 C445 1.389 . S
C445 C444 1.389 . S
C445 C446 1.387 . S
C446 H431 0.930 . S
C446 C441 1.390 . S
C446 C445 1.387 . S
H447 C459 0.930 . S
H448 C461 0.930 . S
H449 C462 0.930 . S
H450 C466 0.959 . S
H451 C466 0.959 . S
H452 C466 0.961 . S
H453 C467 0.960 . S
H454 C467 0.961 . S
H455 C467 0.959 . S
H456 C470 0.929 . S
H457 C471 0.931 . S
H458 C473 0.930 . S
C459 H447 0.930 . S
C459 C460 1.399 . S
C459 C464 1.399 . S
C460 C459 1.399 . S
C460 C461 1.376 . S
C461 H448 0.930 . S
C461 C460 1.376 . S
C461 C462 1.388 . S
C462 H449 0.930 . S
C462 C461 1.388 . S
C462 C463 1.390 . S
C463 C462 1.390 . S
C463 C464 1.394 . S
C463 C469 1.465 . S
C464 C459 1.399 . S
C464 C463 1.394 . S
C464 C465 1.516 . S
C465 C464 1.516 . S
C465 C466 1.502 . S
C465 C467 1.561 . S
C465 C468 1.526 . S
C466 H450 0.959 . S
C466 H451 0.959 . S
C466 H452 0.961 . S
C466 C465 1.502 . S
C467 H453 0.960 . S
C467 H454 0.961 . S
C467 H455 0.959 . S
C467 C465 1.561 . S
C468 C465 1.526 . S
C468 C469 1.396 . S
C468 C473 1.390 . S
C469 C463 1.465 . S
C469 C468 1.396 . S
C469 C470 1.399 . S
C470 H456 0.929 . S
C470 C469 1.399 . S
C470 C471 1.385 . S
C471 H457 0.931 . S
C471 C470 1.385 . S
C471 C472 1.389 . S
C472 C471 1.389 . S
C472 C473 1.387 . S
C473 H458 0.930 . S
C473 C468 1.390 . S
C473 C472 1.387 . S
H474 C486 0.930 . S
H475 C488 0.930 . S
H476 C489 0.930 . S
H477 C493 0.959 . S
H478 C493 0.959 . S
H479 C493 0.961 . S
H480 C494 0.960 . S
H481 C494 0.961 . S
H482 C494 0.959 . S
H483 C497 0.929 . S
H484 C498 0.931 . S
H485 C500 0.930 . S
C486 H474 0.930 . S
C486 C487 1.399 . S
C486 C491 1.399 . S
C487 C486 1.399 . S
C487 C488 1.376 . S
C488 H475 0.930 . S
C488 C487 1.376 . S
C488 C489 1.388 . S
C489 H476 0.930 . S
C489 C488 1.388 . S
C489 C490 1.390 . S
C490 C489 1.390 . S
C490 C491 1.394 . S
C490 C496 1.465 . S
C491 C486 1.399 . S
C491 C490 1.394 . S
C491 C492 1.516 . S
C492 C491 1.516 . S
C492 C493 1.502 . S
C492 C494 1.561 . S
C492 C495 1.526 . S
C493 H477 0.959 . S
C493 H478 0.959 . S
C493 H479 0.961 . S
C493 C492 1.502 . S
C494 H480 0.960 . S
C494 H481 0.961 . S
C494 H482 0.959 . S
C494 C492 1.561 . S
C495 C492 1.526 . S
C495 C496 1.396 . S
C495 C500 1.390 . S
C496 C490 1.465 . S
C496 C495 1.396 . S
C496 C497 1.399 . S
C497 H483 0.929 . S
C497 C496 1.399 . S
C497 C498 1.385 . S
C498 H484 0.931 . S
C498 C497 1.385 . S
C498 C499 1.389 . S
C499 C498 1.389 . S
C499 C500 1.387 . S
C500 H485 0.930 . S
C500 C495 1.390 . S
C500 C499 1.387 . S
H501 C513 0.930 . S
H502 C515 0.930 . S
H503 C516 0.930 . S
H504 C520 0.959 . S
H505 C520 0.959 . S
H506 C520 0.961 . S
H507 C521 0.960 . S
H508 C521 0.961 . S
H509 C521 0.959 . S
H510 C524 0.929 . S
H511 C525 0.931 . S
H512 C527 0.930 . S
C513 H501 0.930 . S
C513 C514 1.399 . S
C513 C518 1.399 . S
C514 C513 1.399 . S
C514 C515 1.376 . S
C515 H502 0.930 . S
C515 C514 1.376 . S
C515 C516 1.388 . S
C516 H503 0.930 . S
C516 C515 1.388 . S
C516 C517 1.390 . S
C517 C516 1.390 . S
C517 C518 1.394 . S
C517 C523 1.465 . S
C518 C513 1.399 . S
C518 C517 1.394 . S
C518 C519 1.516 . S
C519 C518 1.516 . S
C519 C520 1.502 . S
C519 C521 1.561 . S
C519 C522 1.526 . S
C520 H504 0.959 . S
C520 H505 0.959 . S
C520 H506 0.961 . S
C520 C519 1.502 . S
C521 H507 0.960 . S
C521 H508 0.961 . S
C521 H509 0.959 . S
C521 C519 1.561 . S
C522 C519 1.526 . S
C522 C523 1.396 . S
C522 C527 1.390 . S
C523 C517 1.465 . S
C523 C522 1.396 . S
C523 C524 1.399 . S
C524 H510 0.929 . S
C524 C523 1.399 . S
C524 C525 1.385 . S
C525 H511 0.931 . S
C525 C524 1.385 . S
C525 C526 1.389 . S
C526 C525 1.389 . S
C526 C527 1.387 . S
C527 H512 0.930 . S
C527 C522 1.390 . S
C527 C526 1.387 . S
H528 C540 0.930 . S
H529 C542 0.930 . S
H530 C543 0.930 . S
H531 C547 0.959 . S
H532 C547 0.959 . S
H533 C547 0.961 . S
H534 C548 0.960 . S
H535 C548 0.961 . S
H536 C548 0.959 . S
H537 C551 0.929 . S
H538 C552 0.931 . S
H539 C554 0.930 . S
C540 H528 0.930 . S
C540 C541 1.399 . S
C540 C545 1.399 . S
C541 C540 1.399 . S
C541 C542 1.376 . S
C542 H529 0.930 . S
C542 C541 1.376 . S
C542 C543 1.388 . S
C543 H530 0.930 . S
C543 C542 1.388 . S
C543 C544 1.390 . S
C544 C543 1.390 . S
C544 C545 1.394 . S
C544 C550 1.465 . S
C545 C540 1.399 . S
C545 C544 1.394 . S
C545 C546 1.516 . S
C546 C545 1.516 . S
C546 C547 1.502 . S
C546 C548 1.561 . S
C546 C549 1.526 . S
C547 H531 0.959 . S
C547 H532 0.959 . S
C547 H533 0.961 . S
C547 C546 1.502 . S
C548 H534 0.960 . S
C548 H535 0.961 . S
C548 H536 0.959 . S
C548 C546 1.561 . S
C549 C546 1.526 . S
C549 C550 1.396 . S
C549 C554 1.390 . S
C550 C544 1.465 . S
C550 C549 1.396 . S
C550 C551 1.399 . S
C551 H537 0.929 . S
C551 C550 1.399 . S
C551 C552 1.385 . S
C552 H538 0.931 . S
C552 C551 1.385 . S
C552 C553 1.389 . S
C553 C552 1.389 . S
C553 C554 1.387 . S
C554 H539 0.930 . S
C554 C549 1.390 . S
C554 C553 1.387 . S
H555 C567 0.930 . S
H556 C569 0.930 . S
H557 C570 0.930 . S
H558 C574 0.959 . S
H559 C574 0.959 . S
H560 C574 0.961 . S
H561 C575 0.960 . S
H562 C575 0.961 . S
H563 C575 0.959 . S
H564 C578 0.929 . S
H565 C579 0.931 . S
H566 C581 0.930 . S
C567 H555 0.930 . S
C567 C568 1.399 . S
C567 C572 1.399 . S
C568 C567 1.399 . S
C568 C569 1.376 . S
C569 H556 0.930 . S
C569 C568 1.376 . S
C569 C570 1.388 . S
C570 H557 0.930 . S
C570 C569 1.388 . S
C570 C571 1.390 . S
C571 C570 1.390 . S
C571 C572 1.394 . S
C571 C577 1.465 . S
C572 C567 1.399 . S
C572 C571 1.394 . S
C572 C573 1.516 . S
C573 C572 1.516 . S
C573 C574 1.502 . S
C573 C575 1.561 . S
C573 C576 1.526 . S
C574 H558 0.959 . S
C574 H559 0.959 . S
C574 H560 0.961 . S
C574 C573 1.502 . S
C575 H561 0.960 . S
C575 H562 0.961 . S
C575 H563 0.959 . S
C575 C573 1.561 . S
C576 C573 1.526 . S
C576 C577 1.396 . S
C576 C581 1.390 . S
C577 C571 1.465 . S
C577 C576 1.396 . S
C577 C578 1.399 . S
C578 H564 0.929 . S
C578 C577 1.399 . S
C578 C579 1.385 . S
C579 H565 0.931 . S
C579 C578 1.385 . S
C579 C580 1.389 . S
C580 C579 1.389 . S
C580 C581 1.387 . S
C581 H566 0.930 . S
C581 C576 1.390 . S
C581 C580 1.387 . S
H582 C594 0.930 . S
H583 C596 0.930 . S
H584 C597 0.930 . S
H585 C601 0.959 . S
H586 C601 0.959 . S
H587 C601 0.961 . S
H588 C602 0.960 . S
H589 C602 0.961 . S
H590 C602 0.959 . S
H591 C605 0.929 . S
H592 C606 0.931 . S
H593 C608 0.930 . S
C594 H582 0.930 . S
C594 C595 1.399 . S
C594 C599 1.399 . S
C595 C594 1.399 . S
C595 C596 1.376 . S
C596 H583 0.930 . S
C596 C595 1.376 . S
C596 C597 1.388 . S
C597 H584 0.930 . S
C597 C596 1.388 . S
C597 C598 1.390 . S
C598 C597 1.390 . S
C598 C599 1.394 . S
C598 C604 1.465 . S
C599 C594 1.399 . S
C599 C598 1.394 . S
C599 C600 1.516 . S
C600 C599 1.516 . S
C600 C601 1.502 . S
C600 C602 1.561 . S
C600 C603 1.526 . S
C601 H585 0.959 . S
C601 H586 0.959 . S
C601 H587 0.961 . S
C601 C600 1.502 . S
C602 H588 0.960 . S
C602 H589 0.961 . S
C602 H590 0.959 . S
C602 C600 1.561 . S
C603 C600 1.526 . S
C603 C604 1.396 . S
C603 C608 1.390 . S
C604 C598 1.465 . S
C604 C603 1.396 . S
C604 C605 1.399 . S
C605 H591 0.929 . S
C605 C604 1.399 . S
C605 C606 1.385 . S
C606 H592 0.931 . S
C606 C605 1.385 . S
C606 C607 1.389 . S
C607 C606 1.389 . S
C607 C608 1.387 . S
C608 H593 0.930 . S
C608 C603 1.390 . S
C608 C607 1.387 . S
H609 C621 0.930 . S
H610 C623 0.930 . S
H611 C624 0.930 . S
H612 C628 0.959 . S
H613 C628 0.959 . S
H614 C628 0.961 . S
H615 C629 0.960 . S
H616 C629 0.961 . S
H617 C629 0.959 . S
H618 C632 0.929 . S
H619 C633 0.931 . S
H620 C635 0.930 . S
C621 H609 0.930 . S
C621 C622 1.399 . S
C621 C626 1.399 . S
C622 C621 1.399 . S
C622 C623 1.376 . S
C623 H610 0.930 . S
C623 C622 1.376 . S
C623 C624 1.388 . S
C624 H611 0.930 . S
C624 C623 1.388 . S
C624 C625 1.390 . S
C625 C624 1.390 . S
C625 C626 1.394 . S
C625 C631 1.465 . S
C626 C621 1.399 . S
C626 C625 1.394 . S
C626 C627 1.516 . S
C627 C626 1.516 . S
C627 C628 1.502 . S
C627 C629 1.561 . S
C627 C630 1.526 . S
C628 H612 0.959 . S
C628 H613 0.959 . S
C628 H614 0.961 . S
C628 C627 1.502 . S
C629 H615 0.960 . S
C629 H616 0.961 . S
C629 H617 0.959 . S
C629 C627 1.561 . S
C630 C627 1.526 . S
C630 C631 1.396 . S
C630 C635 1.390 . S
C631 C625 1.465 . S
C631 C630 1.396 . S
C631 C632 1.399 . S
C632 H618 0.929 . S
C632 C631 1.399 . S
C632 C633 1.385 . S
C633 H619 0.931 . S
C633 C632 1.385 . S
C633 C634 1.389 . S
C634 C633 1.389 . S
C634 C635 1.387 . S
C635 H620 0.930 . S
C635 C630 1.390 . S
C635 C634 1.387 . S
H636 C648 0.930 . S
H637 C650 0.930 . S
H638 C651 0.930 . S
H639 C655 0.959 . S
H640 C655 0.959 . S
H641 C655 0.961 . S
H642 C656 0.960 . S
H643 C656 0.961 . S
H644 C656 0.959 . S
H645 C659 0.929 . S
H646 C660 0.931 . S
H647 C662 0.930 . S
C648 H636 0.930 . S
C648 C649 1.399 . S
C648 C653 1.399 . S
C649 C648 1.399 . S
C649 C650 1.376 . S
C650 H637 0.930 . S
C650 C649 1.376 . S
C650 C651 1.388 . S
C651 H638 0.930 . S
C651 C650 1.388 . S
C651 C652 1.390 . S
C652 C651 1.390 . S
C652 C653 1.394 . S
C652 C658 1.465 . S
C653 C648 1.399 . S
C653 C652 1.394 . S
C653 C654 1.516 . S
C654 C653 1.516 . S
C654 C655 1.502 . S
C654 C656 1.561 . S
C654 C657 1.526 . S
C655 H639 0.959 . S
C655 H640 0.959 . S
C655 H641 0.961 . S
C655 C654 1.502 . S
C656 H642 0.960 . S
C656 H643 0.961 . S
C656 H644 0.959 . S
C656 C654 1.561 . S
C657 C654 1.526 . S
C657 C658 1.396 . S
C657 C662 1.390 . S
C658 C652 1.465 . S
C658 C657 1.396 . S
C658 C659 1.399 . S
C659 H645 0.929 . S
C659 C658 1.399 . S
C659 C660 1.385 . S
C660 H646 0.931 . S
C660 C659 1.385 . S
C660 C661 1.389 . S
C661 C660 1.389 . S
C661 C662 1.387 . S
C662 H647 0.930 . S
C662 C657 1.390 . S
C662 C661 1.387 . S
H663 C675 0.930 . S
H664 C677 0.930 . S
H665 C678 0.930 . S
H666 C682 0.959 . S
H667 C682 0.959 . S
H668 C682 0.961 . S
H669 C683 0.960 . S
H670 C683 0.961 . S
H671 C683 0.959 . S
H672 C686 0.929 . S
H673 C687 0.931 . S
H674 C689 0.930 . S
C675 H663 0.930 . S
C675 C676 1.399 . S
C675 C680 1.399 . S
C676 C675 1.399 . S
C676 C677 1.376 . S
C677 H664 0.930 . S
C677 C676 1.376 . S
C677 C678 1.388 . S
C678 H665 0.930 . S
C678 C677 1.388 . S
C678 C679 1.390 . S
C679 C678 1.390 . S
C679 C680 1.394 . S
C679 C685 1.465 . S
C680 C675 1.399 . S
C680 C679 1.394 . S
C680 C681 1.516 . S
C681 C680 1.516 . S
C681 C682 1.502 . S
C681 C683 1.561 . S
C681 C684 1.526 . S
C682 H666 0.959 . S
C682 H667 0.959 . S
C682 H668 0.961 . S
C682 C681 1.502 . S
C683 H669 0.960 . S
C683 H670 0.961 . S
C683 H671 0.959 . S
C683 C681 1.561 . S
C684 C681 1.526 . S
C684 C685 1.396 . S
C684 C689 1.390 . S
C685 C679 1.465 . S
C685 C684 1.396 . S
C685 C686 1.399 . S
C686 H672 0.929 . S
C686 C685 1.399 . S
C686 C687 1.385 . S
C687 H673 0.931 . S
C687 C686 1.385 . S
C687 C688 1.389 . S
C688 C687 1.389 . S
C688 C689 1.387 . S
C689 H674 0.930 . S
C689 C684 1.390 . S
C689 C688 1.387 . S
H690 C702 0.930 . S
H691 C704 0.930 . S
H692 C705 0.930 . S
H693 C709 0.959 . S
H694 C709 0.959 . S
H695 C709 0.961 . S
H696 C710 0.960 . S
H697 C710 0.961 . S
H698 C710 0.959 . S
H699 C713 0.929 . S
H700 C714 0.931 . S
H701 C716 0.930 . S
C702 H690 0.930 . S
C702 C703 1.399 . S
C702 C707 1.399 . S
C703 C702 1.399 . S
C703 C704 1.376 . S
C704 H691 0.930 . S
C704 C703 1.376 . S
C704 C705 1.388 . S
C705 H692 0.930 . S
C705 C704 1.388 . S
C705 C706 1.390 . S
C706 C705 1.390 . S
C706 C707 1.394 . S
C706 C712 1.465 . S
C707 C702 1.399 . S
C707 C706 1.394 . S
C707 C708 1.516 . S
C708 C707 1.516 . S
C708 C709 1.502 . S
C708 C710 1.561 . S
C708 C711 1.526 . S
C709 H693 0.959 . S
C709 H694 0.959 . S
C709 H695 0.961 . S
C709 C708 1.502 . S
C710 H696 0.960 . S
C710 H697 0.961 . S
C710 H698 0.959 . S
C710 C708 1.561 . S
C711 C708 1.526 . S
C711 C712 1.396 . S
C711 C716 1.390 . S
C712 C706 1.465 . S
C712 C711 1.396 . S
C712 C713 1.399 . S
C713 H699 0.929 . S
C713 C712 1.399 . S
C713 C714 1.385 . S
C714 H700 0.931 . S
C714 C713 1.385 . S
C714 C715 1.389 . S
C715 C714 1.389 . S
C715 C716 1.387 . S
C716 H701 0.930 . S
C716 C711 1.390 . S
C716 C715 1.387 . S
H717 C729 0.930 . S
H718 C731 0.930 . S
H719 C732 0.930 . S
H720 C736 0.959 . S
H721 C736 0.959 . S
H722 C736 0.961 . S
H723 C737 0.960 . S
H724 C737 0.961 . S
H725 C737 0.959 . S
H726 C740 0.929 . S
H727 C741 0.931 . S
H728 C743 0.930 . S
C729 H717 0.930 . S
C729 C730 1.399 . S
C729 C734 1.399 . S
C730 C729 1.399 . S
C730 C731 1.376 . S
C731 H718 0.930 . S
C731 C730 1.376 . S
C731 C732 1.388 . S
C732 H719 0.930 . S
C732 C731 1.388 . S
C732 C733 1.390 . S
C733 C732 1.390 . S
C733 C734 1.394 . S
C733 C739 1.465 . S
C734 C729 1.399 . S
C734 C733 1.394 . S
C734 C735 1.516 . S
C735 C734 1.516 . S
C735 C736 1.502 . S
C735 C737 1.561 . S
C735 C738 1.526 . S
C736 H720 0.959 . S
C736 H721 0.959 . S
C736 H722 0.961 . S
C736 C735 1.502 . S
C737 H723 0.960 . S
C737 H724 0.961 . S
C737 H725 0.959 . S
C737 C735 1.561 . S
C738 C735 1.526 . S
C738 C739 1.396 . S
C738 C743 1.390 . S
C739 C733 1.465 . S
C739 C738 1.396 . S
C739 C740 1.399 . S
C740 H726 0.929 . S
C740 C739 1.399 . S
C740 C741 1.385 . S
C741 H727 0.931 . S
C741 C740 1.385 . S
C741 C742 1.389 . S
C742 C741 1.389 . S
C742 C743 1.387 . S
C743 H728 0.930 . S
C743 C738 1.390 . S
C743 C742 1.387 . S
H744 C756 0.930 . S
H745 C758 0.930 1_655 S
H746 C759 0.958 . S
H747 C763 0.959 . S
H748 C763 0.959 . S
H749 C763 0.961 . S
H750 C764 0.960 . S
H751 C764 0.961 . S
H752 C764 0.959 . S
H753 C767 0.929 1_655 S
H754 C768 0.931 1_656 S
H755 C770 0.930 . S
C756 H744 0.930 . S
C756 C757 1.399 . S
C756 C761 1.399 . S
C757 C756 1.399 . S
C757 C758 1.376 . S
C758 H745 0.930 1_455 S
C758 C757 1.376 . S
C758 C759 1.383 1_455 S
C759 H746 0.958 . S
C759 C758 1.383 1_655 S
C759 C760 1.368 1_655 S
C760 C759 1.368 1_455 S
C760 C761 1.394 . S
C760 C766 1.465 . S
C761 C756 1.399 . S
C761 C760 1.394 . S
C761 C762 1.516 . S
C762 C761 1.516 . S
C762 C763 1.502 . S
C762 C764 1.561 . S
C762 C765 1.526 . S
C763 H747 0.959 . S
C763 H748 0.959 . S
C763 H749 0.961 . S
C763 C762 1.502 . S
C764 H750 0.960 . S
C764 H751 0.961 . S
C764 H752 0.959 . S
C764 C762 1.561 . S
C765 C762 1.526 . S
C765 C766 1.396 . S
C765 C770 1.390 . S
C766 C760 1.465 . S
C766 C765 1.396 . S
C766 C767 1.399 . S
C767 H753 0.929 1_455 S
C767 C766 1.399 . S
C767 C768 1.385 . S
C768 H754 0.931 1_454 S
C768 C767 1.385 . S
C768 C769 1.389 1_554 S
C769 C768 1.389 1_556 S
C769 C770 1.387 1_556 S
C770 H755 0.930 . S
C770 C765 1.390 . S
C770 C769 1.387 1_554 S
H771 C783 0.930 1_565 S
H772 C785 0.930 . S
H773 C786 0.930 . S
H774 C790 0.959 1_545 S
H775 C790 0.959 . S
H776 C790 0.961 . S
H777 C791 0.960 . S
H778 C791 0.961 . S
H779 C791 0.959 . S
H780 C794 0.929 . S
H781 C795 0.931 . S
H782 C797 0.930 . S
C783 H771 0.930 1_545 S
C783 C784 1.399 . S
C783 C788 1.399 . S
C784 C783 1.399 . S
C784 C785 1.376 . S
C785 H772 0.930 . S
C785 C784 1.376 . S
C785 C786 1.388 . S
C786 H773 0.930 . S
C786 C785 1.388 . S
C786 C787 1.390 . S
C787 C786 1.390 . S
C787 C788 1.394 . S
C787 C793 1.465 . S
C788 C783 1.399 . S
C788 C787 1.394 . S
C788 C789 1.516 . S
C789 C788 1.516 . S
C789 C790 1.502 1_545 S
C789 C791 1.561 1_545 S
C789 C792 1.526 . S
C790 H774 0.959 1_565 S
C790 H775 0.959 . S
C790 H776 0.961 . S
C790 C789 1.502 1_565 S
C791 H777 0.960 . S
C791 H778 0.961 . S
C791 H779 0.959 . S
C791 C789 1.561 1_565 S
C792 C789 1.526 . S
C792 C793 1.396 . S
C792 C797 1.390 . S
C793 C787 1.465 . S
C793 C792 1.396 . S
C793 C794 1.399 . S
C794 H780 0.929 . S
C794 C793 1.399 . S
C794 C795 1.385 . S
C795 H781 0.931 . S
C795 C794 1.385 . S
C795 C796 1.389 . S
C796 C795 1.389 . S
C796 C797 1.387 . S
C797 H782 0.930 . S
C797 C792 1.390 . S
C797 C796 1.387 . S
H798 C810 0.930 . S
H799 C812 0.930 . S
H800 C813 0.930 . S
H801 C817 0.959 . S
H802 C817 0.959 . S
H803 C817 0.961 . S
H804 C818 0.960 . S
H805 C818 0.961 . S
H806 C818 0.959 . S
H807 C821 0.929 . S
H808 C822 0.931 . S
H809 C824 0.930 . S
C810 H798 0.930 . S
C810 C811 1.399 . S
C810 C815 1.399 . S
C811 C810 1.399 . S
C811 C812 1.376 . S
C812 H799 0.930 . S
C812 C811 1.376 . S
C812 C813 1.388 . S
C813 H800 0.930 . S
C813 C812 1.388 . S
C813 C814 1.390 . S
C814 C813 1.390 . S
C814 C815 1.394 . S
C814 C820 1.465 . S
C815 C810 1.399 . S
C815 C814 1.394 . S
C815 C816 1.516 . S
C816 C815 1.516 . S
C816 C817 1.502 . S
C816 C818 1.561 . S
C816 C819 1.526 . S
C817 H801 0.959 . S
C817 H802 0.959 . S
C817 H803 0.961 . S
C817 C816 1.502 . S
C818 H804 0.960 . S
C818 H805 0.961 . S
C818 H806 0.959 . S
C818 C816 1.561 . S
C819 C816 1.526 . S
C819 C820 1.396 . S
C819 C824 1.390 . S
C820 C814 1.465 . S
C820 C819 1.396 . S
C820 C821 1.399 . S
C821 H807 0.929 . S
C821 C820 1.399 . S
C821 C822 1.385 . S
C822 H808 0.931 . S
C822 C821 1.385 . S
C822 C823 1.389 . S
C823 C822 1.389 . S
C823 C824 1.387 . S
C824 H809 0.930 . S
C824 C819 1.390 . S
C824 C823 1.387 . S
H825 C837 0.930 . S
H826 C839 0.930 . S
H827 C840 0.930 . S
H828 C844 0.959 . S
H829 C844 0.959 . S
H830 C844 0.961 . S
H831 C845 0.960 . S
H832 C845 0.961 . S
H833 C845 0.959 . S
H834 C848 0.929 . S
H835 C849 0.931 . S
H836 C851 0.930 . S
C837 H825 0.930 . S
C837 C838 1.399 . S
C837 C842 1.399 . S
C838 C837 1.399 . S
C838 C839 1.376 1_545 S
C839 H826 0.930 . S
C839 C838 1.376 1_565 S
C839 C840 1.388 . S
C840 H827 0.930 . S
C840 C839 1.388 . S
C840 C841 1.382 1_565 S
C841 C840 1.382 1_545 S
C841 C842 1.408 . S
C841 C847 1.460 1_545 S
C842 C837 1.399 . S
C842 C841 1.408 . S
C842 C843 1.516 . S
C843 C842 1.516 . S
C843 C844 1.502 . S
C843 C845 1.561 . S
C843 C846 1.526 . S
C844 H828 0.959 . S
C844 H829 0.959 . S
C844 H830 0.961 . S
C844 C843 1.502 . S
C845 H831 0.960 . S
C845 H832 0.961 . S
C845 H833 0.959 . S
C845 C843 1.561 . S
C846 C843 1.526 . S
C846 C847 1.396 1_545 S
C846 C851 1.390 . S
C847 C841 1.460 1_565 S
C847 C846 1.396 1_565 S
C847 C848 1.399 . S
C848 H834 0.929 . S
C848 C847 1.399 . S
C848 C849 1.385 . S
C849 H835 0.931 . S
C849 C848 1.385 . S
C849 C850 1.389 1_565 S
C850 C849 1.389 1_545 S
C850 C851 1.387 . S
C851 H836 0.930 . S
C851 C846 1.390 . S
C851 C850 1.387 . S
H852 C864 0.930 . S
H853 C866 0.930 . S
H854 C867 0.930 . S
H855 C871 0.959 . S
H856 C871 0.959 . S
H857 C871 0.961 . S
H858 C872 0.960 . S
H859 C872 0.961 . S
H860 C872 0.959 . S
H861 C875 0.929 . S
H862 C876 0.931 . S
H863 C878 0.930 . S
C864 H852 0.930 . S
C864 C865 1.399 . S
C864 C869 1.399 . S
C865 C864 1.399 . S
C865 C866 1.376 . S
C866 H853 0.930 . S
C866 C865 1.376 . S
C866 C867 1.388 . S
C867 H854 0.930 . S
C867 C866 1.388 . S
C867 C868 1.390 . S
C868 C867 1.390 . S
C868 C869 1.394 . S
C868 C874 1.465 . S
C869 C864 1.399 . S
C869 C868 1.394 . S
C869 C870 1.516 . S
C870 C869 1.516 . S
C870 C871 1.502 . S
C870 C872 1.561 . S
C870 C873 1.526 . S
C871 H855 0.959 . S
C871 H856 0.959 . S
C871 H857 0.961 . S
C871 C870 1.502 . S
C872 H858 0.960 . S
C872 H859 0.961 . S
C872 H860 0.959 . S
C872 C870 1.561 . S
C873 C870 1.526 . S
C873 C874 1.396 . S
C873 C878 1.390 . S
C874 C868 1.465 . S
C874 C873 1.396 . S
C874 C875 1.399 . S
C875 H861 0.929 . S
C875 C874 1.399 . S
C875 C876 1.385 . S
C876 H862 0.931 . S
C876 C875 1.385 . S
C876 C877 1.405 . S
C877 C876 1.405 . S
C877 C878 1.408 . S
C878 H863 0.930 . S
C878 C873 1.390 . S
C878 C877 1.408 . S
H879 C891 0.930 . S
H880 C893 0.930 . S
H881 C894 0.930 . S
H882 C898 0.959 . S
H883 C898 0.959 . S
H884 C898 0.961 . S
H885 C899 0.960 . S
H886 C899 0.961 . S
H887 C899 0.959 1_455 S
H888 C902 0.929 . S
H889 C903 0.931 . S
H890 C905 0.930 . S
C891 H879 0.930 . S
C891 C892 1.399 1_655 S
C891 C896 1.399 . S
C892 C891 1.399 1_455 S
C892 C893 1.376 . S
C893 H880 0.930 . S
C893 C892 1.376 . S
C893 C894 1.388 . S
C894 H881 0.930 . S
C894 C893 1.388 . S
C894 C895 1.390 . S
C895 C894 1.390 . S
C895 C896 1.390 1_455 S
C895 C901 1.465 . S
C896 C891 1.399 . S
C896 C895 1.390 1_655 S
C896 C897 1.519 . S
C897 C896 1.519 . S
C897 C898 1.502 . S
C897 C899 1.561 . S
C897 C900 1.526 . S
C898 H882 0.959 . S
C898 H883 0.959 . S
C898 H884 0.961 . S
C898 C897 1.502 . S
C899 H885 0.960 . S
C899 H886 0.961 . S
C899 H887 0.959 1_655 S
C899 C897 1.561 . S
C900 C897 1.526 . S
C900 C901 1.396 1_655 S
C900 C905 1.390 . S
C901 C895 1.465 . S
C901 C900 1.396 1_455 S
C901 C902 1.399 . S
C902 H888 0.929 . S
C902 C901 1.399 . S
C902 C903 1.385 . S
C903 H889 0.931 . S
C903 C902 1.385 . S
C903 C904 1.389 . S
C904 C903 1.389 . S
C904 C905 1.387 1_455 S
C905 H890 0.930 . S
C905 C900 1.390 . S
C905 C904 1.387 1_655 S
C433 C8 1.998 . S
C445 C391 2.103 . S
C460 C26 1.315 . S
C472 C241 1.230 . S
C487 C48 1.513 . S
C499 C301 1.491 . S
C514 C19 1.793 . S
C526 C361 1.740 . S
C553 C271 1.574 . S
C541 C36 1.543 . S
C580 C331 1.795 . S
C568 C59 1.682 . S
C595 C28 1.534 . S
C607 C121 1.513 . S
C622 C46 1.274 . S
C634 C211 1.272 . S
C649 C16 1.563 . S
C661 C91 1.633 . S
C688 C151 1.783 . S
C676 C39 1.730 . S
C715 C181 1.029 . S
C703 C56 0.998 . S
C730 C6 1.400 . S
C742 C61 1.361 . S
C769 C200 1.395 . S
C757 C9 1.380 . S
C784 C21 1.512 . S
C796 C80 1.480 . S
C811 C49 1.459 . S
C823 C140 1.434 . S
C850 C320 1.438 . S
C838 C29 1.466 . S
C877 C380 1.511 1_556 S
C865 C41 1.545 . S
C892 C1 1.474 . S
C904 C260 1.451 . S
