# Generated by pormake.
# Topology apo, (3,6)-cn, num edge types: 1
# Building blocks:
#     Node 0, Type 0, BuildingBlock: BETDAH_clean_linker_0, # of connection points: 3
#     Node 1, Type 0, BuildingBlock: BETDAH_clean_linker_0, # of connection points: 3
#     Node 2, Type 0, BuildingBlock: BETDAH_clean_linker_0, # of connection points: 3
#     Node 3, Type 0, BuildingBlock: BETDAH_clean_linker_0, # of connection points: 3
#     Node 4, Type 0, BuildingBlock: BETDAH_clean_linker_0, # of connection points: 3
#     Node 5, Type 0, BuildingBlock: BETDAH_clean_linker_0, # of connection points: 3
#     Node 6, Type 0, BuildingBlock: BETDAH_clean_linker_0, # of connection points: 3
#     Node 7, Type 0, BuildingBlock: BETDAH_clean_linker_0, # of connection points: 3
#     Node 8, Type 1, BuildingBlock: MIDCAF_clean_sbu_0, # of connection points: 6
#     Node 9, Type 1, BuildingBlock: MIDCAF_clean_sbu_0, # of connection points: 6
#     Node 10, Type 1, BuildingBlock: MIDCAF_clean_sbu_0, # of connection points: 6
#     Node 11, Type 1, BuildingBlock: MIDCAF_clean_sbu_0, # of connection points: 6
#     Edge 12, Type (0, 1), BuildingBlock: UVAHIK_clean_linker_0, # of connection points: 2
#     Edge 13, Type (0, 1), BuildingBlock: UVAHIK_clean_linker_0, # of connection points: 2
#     Edge 14, Type (0, 1), BuildingBlock: UVAHIK_clean_linker_0, # of connection points: 2
#     Edge 15, Type (0, 1), BuildingBlock: UVAHIK_clean_linker_0, # of connection points: 2
#     Edge 16, Type (0, 1), BuildingBlock: UVAHIK_clean_linker_0, # of connection points: 2
#     Edge 17, Type (0, 1), BuildingBlock: UVAHIK_clean_linker_0, # of connection points: 2
#     Edge 18, Type (0, 1), BuildingBlock: UVAHIK_clean_linker_0, # of connection points: 2
#     Edge 19, Type (0, 1), BuildingBlock: UVAHIK_clean_linker_0, # of connection points: 2
#     Edge 20, Type (0, 1), BuildingBlock: UVAHIK_clean_linker_0, # of connection points: 2
#     Edge 21, Type (0, 1), BuildingBlock: UVAHIK_clean_linker_0, # of connection points: 2
#     Edge 22, Type (0, 1), BuildingBlock: UVAHIK_clean_linker_0, # of connection points: 2
#     Edge 23, Type (0, 1), BuildingBlock: UVAHIK_clean_linker_0, # of connection points: 2
#     Edge 24, Type (0, 1), BuildingBlock: UVAHIK_clean_linker_0, # of connection points: 2
#     Edge 25, Type (0, 1), BuildingBlock: UVAHIK_clean_linker_0, # of connection points: 2
#     Edge 26, Type (0, 1), BuildingBlock: UVAHIK_clean_linker_0, # of connection points: 2
#     Edge 27, Type (0, 1), BuildingBlock: UVAHIK_clean_linker_0, # of connection points: 2
#     Edge 28, Type (0, 1), BuildingBlock: UVAHIK_clean_linker_0, # of connection points: 2
#     Edge 29, Type (0, 1), BuildingBlock: UVAHIK_clean_linker_0, # of connection points: 2
#     Edge 30, Type (0, 1), BuildingBlock: UVAHIK_clean_linker_0, # of connection points: 2
#     Edge 31, Type (0, 1), BuildingBlock: UVAHIK_clean_linker_0, # of connection points: 2
#     Edge 32, Type (0, 1), BuildingBlock: UVAHIK_clean_linker_0, # of connection points: 2
#     Edge 33, Type (0, 1), BuildingBlock: UVAHIK_clean_linker_0, # of connection points: 2
#     Edge 34, Type (0, 1), BuildingBlock: UVAHIK_clean_linker_0, # of connection points: 2
#     Edge 35, Type (0, 1), BuildingBlock: UVAHIK_clean_linker_0, # of connection points: 2
# Relax obj value: 0.014
# Max RMSD: 0.063
# Mean RMSD: 0.056
data_MOF--net-apo--node1-MIDCAF_clean_sbu_0--node2-BETDAH_clean_linker_0--edge1-UVAHIK_clean_linker_0
_symmetry_space_group_name_H-M    P1
_symmetry_Int_Tables_number       1
_symmetry_cell_setting            triclinic
loop_
_symmetry_equiv_pos_as_xyz
'x, y, z'
_cell_length_a     46.776347
_cell_length_b     53.252069
_cell_length_c     44.993804
_cell_angle_alpha  89.505387
_cell_angle_beta   90.426053
_cell_angle_gamma 90.64943
loop_
_atom_site_label
_atom_site_type_symbol
_atom_site_fract_x
_atom_site_fract_y
_atom_site_fract_z
_atom_type_partial_charge
H0 H 0.3776 0.38877 0.43392 0.0
H1 H 0.30327 0.36256 0.38622 0.0
H2 H 0.31228 0.3465 0.47974 0.0
C3 C 0.35738 0.37861 0.43379 0.0
C4 C 0.34694 0.36809 0.46034 0.0
C5 C 0.34178 0.37681 0.4071 0.0
C6 C 0.31544 0.36379 0.40674 0.0
C7 C 0.30507 0.35238 0.43296 0.0
C8 C 0.32085 0.35472 0.45952 0.0
N9 N 0.27878 0.33872 0.4339 0.0
C10 C 0.26026 0.33442 0.41002 0.0
H11 H 0.17516 0.10685 0.91854 0.0
H12 H 0.23859 0.1301 0.85472 0.0
H13 H 0.25705 0.13467 0.9482 0.0
C14 C 0.19618 0.11454 0.91372 0.0
C15 C 0.21489 0.12046 0.93726 0.0
C16 C 0.20452 0.11772 0.88391 0.0
C17 C 0.23189 0.12774 0.87757 0.0
C18 C 0.25055 0.13435 0.90105 0.0
C19 C 0.24201 0.13037 0.93049 0.0
N20 N 0.27854 0.14421 0.89661 0.0
C21 C 0.29059 0.15269 0.87015 0.0
H22 H 0.83589 0.09991 0.56812 0.0
H23 H 0.77171 0.13177 0.62416 0.0
H24 H 0.76855 0.1436 0.52927 0.0
C25 C 0.81683 0.11108 0.5707 0.0
C26 C 0.8035 0.12118 0.54544 0.0
C27 C 0.8058 0.11508 0.5992 0.0
C28 C 0.78054 0.12896 0.60227 0.0
C29 C 0.76713 0.13941 0.57689 0.0
C30 C 0.77895 0.13565 0.54874 0.0
N31 N 0.74174 0.1537 0.57837 0.0
C32 C 0.7263 0.15868 0.6039 0.0
H33 H 0.68709 0.39081 0.10284 0.0
H34 H 0.71062 0.3662 0.19081 0.0
H35 H 0.75806 0.34099 0.11524 0.0
C36 C 0.70091 0.38016 0.11761 0.0
C37 C 0.72302 0.366 0.10551 0.0
C38 C 0.69612 0.3804 0.14832 0.0
C39 C 0.71423 0.36653 0.16704 0.0
C40 C 0.73691 0.35273 0.15549 0.0
C41 C 0.74123 0.35226 0.1245 0.0
N42 N 0.75363 0.33853 0.17585 0.0
C43 C 0.78188 0.33146 0.17198 0.0
H44 H 0.65018 0.6289 0.58166 0.0
H45 H 0.68482 0.66793 0.65766 0.0
H46 H 0.68634 0.70294 0.57124 0.0
C47 C 0.66111 0.64506 0.59108 0.0
C48 C 0.66797 0.66559 0.57256 0.0
C49 C 0.6668 0.64573 0.62187 0.0
C50 C 0.6803 0.66718 0.63403 0.0
C51 C 0.68745 0.68779 0.61561 0.0
C52 C 0.68087 0.68692 0.5852 0.0
N53 N 0.70025 0.71019 0.62668 0.0
C54 C 0.71561 0.7126 0.65314 0.0
H55 H 0.85046 0.89262 0.11179 0.0
H56 H 0.84426 0.81169 0.10984 0.0
H57 H 0.84181 0.85009 0.19293 0.0
C58 C 0.84793 0.87467 0.123 0.0
C59 C 0.84643 0.87412 0.15424 0.0
C60 C 0.84744 0.85231 0.10636 0.0
C61 C 0.84392 0.82929 0.12169 0.0
C62 C 0.84122 0.82864 0.1527 0.0
C63 C 0.84287 0.85093 0.16889 0.0
N64 N 0.83979 0.80531 0.1679 0.0
C65 C 0.81379 0.79407 0.1751 0.0
H66 H 0.16981 0.88531 0.42649 0.0
H67 H 0.19501 0.84361 0.34949 0.0
H68 H 0.17925 0.80509 0.43202 0.0
C69 C 0.17553 0.86767 0.41639 0.0
C70 C 0.17395 0.84535 0.43329 0.0
C71 C 0.18281 0.86722 0.38605 0.0
C72 C 0.18946 0.84417 0.37281 0.0
C73 C 0.1882 0.8218 0.38956 0.0
C74 C 0.18016 0.82253 0.41944 0.0
N75 N 0.19356 0.79801 0.37693 0.0
C76 C 0.21156 0.79386 0.35307 0.0
H77 H 0.36856 0.63322 0.90282 0.0
H78 H 0.3323 0.70647 0.88779 0.0
H79 H 0.35791 0.66188 0.81389 0.0
C80 C 0.361 0.64776 0.88781 0.0
C81 C 0.36385 0.64446 0.85701 0.0
C82 C 0.34997 0.67017 0.89939 0.0
C83 C 0.34089 0.6891 0.87945 0.0
C84 C 0.34391 0.686 0.84864 0.0
C85 C 0.35573 0.66397 0.83771 0.0
N86 N 0.33707 0.70539 0.82815 0.0
C87 C 0.31125 0.718 0.828 0.0
Zn88 Zn 0.05532 0.13059 0.30901 0.0
Zn89 Zn 0.01152 0.12447 0.20218 0.0
Zn90 Zn 0.03338 0.12766 0.25551 0.0
C91 C 0.06498 0.10298 0.19884 0.0
C92 C 0.97414 0.09812 0.2386 0.0
O93 O 1.00134 0.11188 0.28711 0.0
O94 O 0.02177 0.11772 0.33101 0.0
C95 C 0.05643 0.1792 0.2865 0.0
O96 O 0.06479 0.10859 0.22667 0.0
O97 O 0.04357 0.10767 0.18258 0.0
O98 O 0.97723 0.10419 0.21165 0.0
O99 O 0.99252 0.10558 0.25825 0.0
O100 O 0.06359 0.16691 0.30939 0.0
O101 O 0.044 0.16808 0.26445 0.0
O102 O 0.07265 0.10434 0.25655 0.0
O103 O 0.08758 0.10753 0.30311 0.0
C104 C 0.09023 0.09827 0.27756 0.0
O105 O 0.02486 0.16677 0.23986 0.0
O106 O 1.00608 0.16071 0.19524 0.0
C107 C 1.00057 0.1104 0.31573 0.0
C108 C 0.0132 0.17549 0.21586 0.0
Zn109 Zn 0.5759 0.37445 0.75658 0.0
Zn110 Zn 0.50874 0.36852 0.82876 0.0
Zn111 Zn 0.53642 0.37181 0.78447 0.0
C112 C 0.48747 0.40978 0.79291 0.0
C113 C 0.49742 0.32437 0.79659 0.0
O114 O 0.54489 0.33493 0.76496 0.0
O115 O 0.59054 0.34192 0.77329 0.0
C116 C 0.56396 0.42244 0.76705 0.0
O117 O 0.50758 0.40339 0.77509 0.0
O118 O 0.48396 0.3977 0.81701 0.0
O119 O 0.49299 0.33379 0.82181 0.0
O120 O 0.51372 0.33588 0.77797 0.0
O121 O 0.58624 0.40948 0.77098 0.0
O122 O 0.5395 0.41096 0.76575 0.0
O123 O 0.52053 0.39339 0.74624 0.0
O124 O 0.55008 0.37218 0.71871 0.0
C125 C 0.52696 0.38427 0.72067 0.0
O126 O 0.5695 0.37643 0.81777 0.0
O127 O 0.54187 0.37395 0.85693 0.0
C128 C 0.57045 0.32652 0.76759 0.0
C129 C 0.56655 0.37668 0.84594 0.0
Zn130 Zn 0.02237 0.88807 0.80668 0.0
Zn131 Zn 0.97484 0.87267 0.71257 0.0
Zn132 Zn 0.99838 0.88235 0.7616 0.0
C133 C 0.96975 0.92471 0.7215 0.0
C134 C 0.94352 0.84567 0.75384 0.0
O135 O 0.03892 0.86048 0.76169 0.0
O136 O 0.04198 0.85532 0.81018 0.0
C137 C 0.03159 0.93175 0.77673 0.0
O138 O 0.98633 0.91971 0.74372 0.0
O139 O 0.96079 0.90719 0.705 0.0
O140 O 0.94759 0.84665 0.7262 0.0
O141 O 0.95897 0.85925 0.7715 0.0
O142 O 0.04566 0.91762 0.79391 0.0
O143 O 0.00834 0.92337 0.76464 0.0
O144 O 0.96917 0.86946 0.79814 0.0
O145 O 0.98884 0.89369 0.83216 0.0
C146 C 0.96833 0.87971 0.82401 0.0
O147 O 0.03036 0.86358 0.73205 0.0
O148 O 0.00722 0.86126 0.68909 0.0
C149 C 0.05018 0.84948 0.78454 0.0
C150 C 0.0298 0.85826 0.70407 0.0
Zn151 Zn 0.5122 0.62572 0.18679 0.0
Zn152 Zn 0.47428 0.63627 0.28932 0.0
Zn153 Zn 0.49483 0.63174 0.23915 0.0
C154 C 0.53133 0.64722 0.29651 0.0
C155 C 0.46268 0.58738 0.27383 0.0
O156 O 0.46343 0.64923 0.20714 0.0
O157 O 0.47699 0.63308 0.16444 0.0
C158 C 0.55038 0.65932 0.21477 0.0
O159 O 0.52925 0.64818 0.26791 0.0
O160 O 0.51044 0.63969 0.31188 0.0
O161 O 0.45253 0.60389 0.29057 0.0
O162 O 0.48208 0.59353 0.25482 0.0
O163 O 0.54214 0.65242 0.18928 0.0
O164 O 0.53689 0.6515 0.23801 0.0
O165 O 0.50131 0.59076 0.23191 0.0
O166 O 0.52384 0.5903 0.18884 0.0
C167 C 0.5147 0.57881 0.21153 0.0
O168 O 0.45655 0.65665 0.23566 0.0
O169 O 0.45256 0.66731 0.2827 0.0
C170 C 0.45935 0.64558 0.17907 0.0
C171 C 0.44534 0.67041 0.25588 0.0
C172 C 0.19448 0.91292 0.37861 0.0
C173 C 0.18171 0.89073 0.36804 0.0
C174 C 0.19095 0.93563 0.36327 0.0
C175 C 0.16388 0.96436 0.29214 0.0
H176 H 0.15045 0.02101 0.34346 0.0
C177 C 0.10294 0.05563 0.25918 0.0
C178 C 0.11087 0.07769 0.27422 0.0
C179 C 0.11753 0.03317 0.26486 0.0
C180 C 0.15468 0.00557 0.32866 0.0
H181 H 0.1559 0.87473 0.33265 0.0
H182 H 0.14896 0.91446 0.30625 0.0
H183 H 0.16409 0.98117 0.36513 0.0
H184 H 0.14233 0.09442 0.30376 0.0
H185 H 0.16828 0.05569 0.31279 0.0
H186 H 0.15306 0.98896 0.25571 0.0
C187 C 0.16229 0.91434 0.32601 0.0
C188 C 0.16258 0.98259 0.34115 0.0
C189 C 0.16618 0.89154 0.34119 0.0
C190 C 0.1356 0.07762 0.2921 0.0
C191 C 0.15028 0.05536 0.2975 0.0
C192 C 0.1557 0.98745 0.27959 0.0
C193 C 0.17411 0.93682 0.3372 0.0
C194 C 0.16722 0.96159 0.32317 0.0
C195 C 0.14035 0.03259 0.28545 0.0
C196 C 0.15097 0.00832 0.29777 0.0
H197 H 0.2069 0.91277 0.39904 0.0
H198 H 0.20103 0.95237 0.3722 0.0
H199 H 0.16752 0.94869 0.27753 0.0
H200 H 0.08386 0.05513 0.2454 0.0
H201 H 0.10939 0.01597 0.25511 0.0
C202 C 0.36624 0.59738 0.85632 0.0
C203 C 0.37542 0.62074 0.84494 0.0
C204 C 0.37654 0.57505 0.84454 0.0
C205 C 0.43703 0.54907 0.80356 0.0
H206 H 0.38569 0.49205 0.79342 0.0
C207 C 0.47917 0.45206 0.76895 0.0
C208 C 0.47001 0.43251 0.78782 0.0
C209 C 0.46548 0.47537 0.76915 0.0
C210 C 0.40032 0.50779 0.79611 0.0
H211 H 0.403 0.63895 0.81254 0.0
H212 H 0.42093 0.59991 0.79192 0.0
H213 H 0.36659 0.53246 0.80822 0.0
H214 H 0.43761 0.42132 0.81972 0.0
H215 H 0.41384 0.46146 0.82004 0.0
H216 H 0.47089 0.52419 0.79243 0.0
C217 C 0.40574 0.5989 0.80995 0.0
C218 C 0.38938 0.53092 0.80468 0.0
C219 C 0.3953 0.62125 0.82162 0.0
C220 C 0.44548 0.43606 0.80509 0.0
C221 C 0.43167 0.45912 0.80513 0.0
C222 C 0.448 0.52588 0.79506 0.0
C223 C 0.39639 0.57553 0.8212 0.0
C224 C 0.40768 0.55167 0.80922 0.0
C225 C 0.44202 0.47934 0.78792 0.0
C226 C 0.42986 0.5048 0.79198 0.0
H227 H 0.35077 0.59635 0.8741 0.0
H228 H 0.36921 0.55738 0.85401 0.0
H229 H 0.45173 0.56464 0.80702 0.0
H230 H 0.49774 0.44979 0.75521 0.0
H231 H 0.47374 0.49046 0.75528 0.0
C232 C 0.66134 0.59947 0.63183 0.0
C233 C 0.65723 0.62432 0.64102 0.0
C234 C 0.64961 0.57931 0.64787 0.0
C235 C 0.61772 0.56086 0.72044 0.0
H236 H 0.58681 0.5057 0.67409 0.0
C237 C 0.58981 0.46346 0.77112 0.0
C238 C 0.5676 0.44912 0.75837 0.0
C239 C 0.59745 0.48691 0.75915 0.0
C240 C 0.59489 0.52106 0.68747 0.0
H241 H 0.63815 0.64742 0.67478 0.0
H242 H 0.61745 0.61218 0.70278 0.0
H243 H 0.60732 0.54208 0.6489 0.0
H244 H 0.53605 0.44804 0.72297 0.0
H245 H 0.54831 0.48949 0.70288 0.0
H246 H 0.60485 0.53988 0.75904 0.0
C247 C 0.63003 0.60826 0.6833 0.0
C248 C 0.60715 0.54182 0.67297 0.0
C249 C 0.64194 0.62848 0.66728 0.0
C250 C 0.55248 0.45908 0.73401 0.0
C251 C 0.56001 0.48262 0.72208 0.0
C252 C 0.60535 0.54008 0.73498 0.0
C253 C 0.63325 0.58342 0.67347 0.0
C254 C 0.61914 0.56185 0.68922 0.0
C255 C 0.58316 0.49653 0.73396 0.0
C256 C 0.59405 0.51974 0.7187 0.0
H257 H 0.67339 0.59562 0.61194 0.0
H258 H 0.65323 0.56045 0.64003 0.0
H259 H 0.62679 0.57587 0.73372 0.0
H260 H 0.60214 0.45602 0.78961 0.0
H261 H 0.6156 0.49681 0.76871 0.0
C262 C 0.83745 0.91995 0.16277 0.0
C263 C 0.85096 0.8976 0.17142 0.0
C264 C 0.84429 0.9426 0.17677 0.0
C265 C 0.88337 0.97101 0.24147 0.0
H266 H 0.89435 0.02625 0.18599 0.0
C267 C 0.95767 0.05762 0.26137 0.0
C268 C 0.95127 0.07981 0.24574 0.0
C269 C 0.93952 0.03655 0.25899 0.0
C270 C 0.89083 0.0113 0.20207 0.0
H271 H 0.88157 0.88138 0.20225 0.0
H272 H 0.89393 0.92092 0.22631 0.0
H273 H 0.87388 0.98715 0.16857 0.0
H274 H 0.91947 0.09861 0.21871 0.0
H275 H 0.88719 0.06248 0.2158 0.0
H276 H 0.90152 0.99524 0.27475 0.0
C277 C 0.87762 0.92095 0.20911 0.0
C278 C 0.87904 0.98873 0.19199 0.0
C279 C 0.87058 0.89824 0.19525 0.0
C280 C 0.92495 0.08161 0.23077 0.0
C281 C 0.90666 0.0608 0.22883 0.0
C282 C 0.8953 0.99371 0.2516 0.0
C283 C 0.86507 0.94354 0.19956 0.0
C284 C 0.87539 0.96816 0.21141 0.0
C285 C 0.9146 0.03755 0.24123 0.0
C286 C 0.8994 0.01409 0.23192 0.0
H287 H 0.82192 0.91997 0.14478 0.0
H288 H 0.83371 0.95951 0.16926 0.0
H289 H 0.88062 0.95564 0.25713 0.0
H290 H 0.97796 0.05574 0.2729 0.0
H291 H 0.9463 0.01899 0.26894 0.0
C292 C 0.80647 0.08623 0.64347 0.0
C293 C 0.8207 0.1036 0.62504 0.0
C294 C 0.82206 0.07089 0.663 0.0
C295 C 0.89461 0.05868 0.69519 0.0
H296 H 0.8749 0.98926 0.67869 0.0
C297 C 0.9537 0.96722 0.73851 0.0
C298 C 0.95915 0.95033 0.71543 0.0
C299 C 0.93784 0.98904 0.73285 0.0
C300 C 0.88053 0.00856 0.68374 0.0
H301 H 0.86182 0.12034 0.61446 0.0
H302 H 0.889 0.09373 0.64849 0.0
H303 H 0.84308 0.02241 0.6621 0.0
H304 H 0.95439 0.94396 0.6681 0.0
H305 H 0.92694 0.98169 0.65839 0.0
H306 H 0.93281 0.04441 0.71593 0.0
C307 C 0.86593 0.09181 0.64802 0.0
C308 C 0.86214 0.02756 0.67453 0.0
C309 C 0.85039 0.10697 0.62838 0.0
C310 C 0.95028 0.95648 0.68641 0.0
C311 C 0.93447 0.97802 0.68084 0.0
C312 C 0.91296 0.03951 0.70475 0.0
C313 C 0.85211 0.07282 0.66455 0.0
C314 C 0.86929 0.0529 0.67938 0.0
C315 C 0.92716 0.99401 0.70412 0.0
C316 C 0.90645 0.01435 0.69822 0.0
H317 H 0.78361 0.08324 0.64124 0.0
H318 H 0.81077 0.0566 0.67573 0.0
H319 H 0.90063 0.07804 0.69935 0.0
H320 H 0.95992 0.96274 0.76114 0.0
H321 H 0.93249 1.00116 0.75115 0.0
C322 C 0.67592 0.41001 0.1859 0.0
C323 C 0.67207 0.39507 0.16053 0.0
C324 C 0.65394 0.42546 0.19571 0.0
C325 C 0.59186 0.45877 0.1658 0.0
H326 H 0.57528 0.47238 0.24838 0.0
C327 C 0.51256 0.53517 0.19307 0.0
C328 C 0.52175 0.55215 0.21483 0.0
C329 C 0.52543 0.51173 0.19076 0.0
C330 C 0.5797 0.46883 0.22522 0.0
H331 H 0.64145 0.38333 0.12683 0.0
H332 H 0.60325 0.4103 0.14383 0.0
H333 H 0.60917 0.43944 0.23598 0.0
H334 H 0.55041 0.5579 0.25212 0.0
H335 H 0.57359 0.51723 0.24774 0.0
H336 H 0.56366 0.48862 0.15478 0.0
C337 C 0.62342 0.41047 0.1558 0.0
C338 C 0.59912 0.44997 0.21813 0.0
C339 C 0.64534 0.39506 0.14603 0.0
C340 C 0.5427 0.54482 0.23548 0.0
C341 C 0.55595 0.52151 0.2329 0.0
C342 C 0.57269 0.47764 0.17284 0.0
C343 C 0.62766 0.42628 0.18034 0.0
C344 C 0.60561 0.44491 0.18831 0.0
C345 C 0.54835 0.50514 0.20963 0.0
C346 C 0.56651 0.48314 0.20263 0.0
H347 H 0.6963 0.41053 0.19746 0.0
H348 H 0.65798 0.43757 0.21452 0.0
H349 H 0.59678 0.45573 0.14263 0.0
H350 H 0.49655 0.5406 0.17679 0.0
H351 H 0.51846 0.49936 0.17309 0.0
C352 C 0.33651 0.40935 0.36714 0.0
C353 C 0.35271 0.39029 0.38051 0.0
C354 C 0.34913 0.426 0.34674 0.0
C355 C 0.42088 0.45181 0.32991 0.0
H356 H 0.37905 0.48955 0.27012 0.0
C357 C 0.46917 0.54056 0.27374 0.0
C358 C 0.45132 0.56144 0.2761 0.0
C359 C 0.45835 0.51628 0.27908 0.0
C360 C 0.39107 0.47905 0.28662 0.0
H361 H 0.3939 0.37219 0.3813 0.0
H362 H 0.4157 0.40054 0.34483 0.0
H363 H 0.35738 0.45189 0.29215 0.0
H364 H 0.40805 0.57339 0.28464 0.0
H365 H 0.38916 0.53126 0.29369 0.0
H366 H 0.45424 0.47933 0.32486 0.0
C367 C 0.39356 0.4033 0.35073 0.0
C368 C 0.37862 0.45754 0.29937 0.0
C369 C 0.38104 0.38689 0.3714 0.0
C370 C 0.42231 0.5576 0.28272 0.0
C371 C 0.41142 0.53344 0.28763 0.0
C372 C 0.4334 0.47317 0.31697 0.0
C373 C 0.37816 0.42374 0.33908 0.0
C374 C 0.39298 0.44408 0.32189 0.0
C375 C 0.4294 0.51253 0.28647 0.0
C376 C 0.41828 0.48747 0.29589 0.0
H377 H 0.31471 0.4125 0.37404 0.0
H378 H 0.33659 0.44159 0.33853 0.0
H379 H 0.43253 0.44227 0.34746 0.0
H380 H 0.49168 0.54308 0.26925 0.0
H381 H 0.47272 0.5005 0.27808 0.0
C382 C 0.15577 0.11464 0.86064 0.0
C383 C 0.18492 0.10853 0.86012 0.0
C384 C 0.136 0.10183 0.8427 0.0
C385 C 0.12861 0.05497 0.78133 0.0
H386 H 0.06243 0.03293 0.82635 0.0
C387 C 0.07209 0.96019 0.76485 0.0
C388 C 0.04293 0.95732 0.77132 0.0
C389 C 0.08568 0.98354 0.76739 0.0
C390 C 0.08034 0.03931 0.81305 0.0
H391 H 0.21646 0.08532 0.8391 0.0
H392 H 0.18202 0.06265 0.80803 0.0
H393 H 0.09392 0.06518 0.84642 0.0
H394 H 1.00469 0.97676 0.78417 0.0
H395 H 0.02839 0.01797 0.78847 0.0
H396 H 0.11559 0.02804 0.74862 0.0
C397 C 0.17435 0.07759 0.82195 0.0
C398 C 0.09853 0.05788 0.82461 0.0
C399 C 0.19417 0.09058 0.83975 0.0
C400 C 0.02706 0.9786 0.77849 0.0
C401 C 0.04076 1.00207 0.78135 0.0
C402 C 0.11041 0.03632 0.76978 0.0
C403 C 0.14485 0.0824 0.824 0.0
C404 C 0.12339 0.06548 0.80934 0.0
C405 C 0.07048 0.00459 0.77688 0.0
C406 C 0.08651 0.02772 0.78593 0.0
H407 H 0.14809 0.12858 0.87596 0.0
H408 H 0.1136 0.1065 0.84438 0.0
H409 H 0.14722 0.06067 0.76866 0.0
H410 H 0.08483 0.94397 0.75957 0.0
H411 H 0.10857 0.98459 0.76408 0.0
C412 C 0.21504 0.13218 0.99151 0.0
C413 C 0.20649 0.11566 0.96879 0.0
C414 C 0.20712 0.12763 0.02102 0.0
C415 C 0.1758 0.07818 0.07138 0.0
H416 H 0.15274 0.13568 0.11728 0.0
C417 C 0.08859 0.07802 0.16 0.0
C418 C 0.09111 0.0945 0.18408 0.0
C419 C 0.11052 0.07633 0.13928 0.0
C420 C 0.15972 0.11943 0.10508 0.0
H421 H 0.1834 0.08092 0.95979 0.0
H422 H 0.16831 0.07379 0.01064 0.0
H423 H 0.17473 0.14222 0.06908 0.0
H424 H 0.11942 0.12038 0.20706 0.0
H425 H 0.15778 0.11782 0.17036 0.0
H426 H 0.15876 0.05546 0.10683 0.0
C427 C 0.18177 0.08998 1.0059 0.0
C428 C 0.17235 0.12316 0.07732 0.0
C429 C 0.18998 0.09436 0.97648 0.0
C430 C 0.11707 0.1074 0.18877 0.0
C431 C 0.13887 0.10611 0.16765 0.0
C432 C 0.16279 0.07446 0.09901 0.0
C433 C 0.19014 0.10659 0.02862 0.0
C434 C 0.1799 0.10259 0.0597 0.0
C435 C 0.13518 0.09147 0.14198 0.0
C436 C 0.15401 0.09505 0.11583 0.0
H437 H 0.22754 0.1489 0.9865 0.0
H438 H 0.21432 0.14071 0.03785 0.0
H439 H 0.18198 0.06186 0.05887 0.0
H440 H 0.0687 0.06795 0.1559 0.0
H441 H 0.10698 0.06495 0.11973 0.0
C442 C 0.36545 0.35228 0.50996 0.0
C443 C 0.36309 0.37177 0.48879 0.0
C444 C 0.38167 0.35566 0.53599 0.0
C445 C 0.44162 0.3935 0.56562 0.0
H446 H 0.41647 0.36858 0.64244 0.0
C447 C 0.51792 0.38093 0.66595 0.0
C448 C 0.5082 0.38762 0.69426 0.0
C449 C 0.4995 0.38142 0.64135 0.0
C450 C 0.42367 0.37585 0.62119 0.0
H451 H 0.3749 0.41056 0.47936 0.0
H452 H 0.40343 0.41622 0.5243 0.0
H453 H 0.38502 0.36424 0.59901 0.0
H454 H 0.4716 0.40066 0.71878 0.0
H455 H 0.43924 0.40134 0.67569 0.0
H456 H 0.48035 0.40488 0.58764 0.0
C457 C 0.39312 0.39819 0.52056 0.0
C458 C 0.40579 0.37312 0.59627 0.0
C459 C 0.3768 0.39489 0.49471 0.0
C460 C 0.47976 0.39546 0.69727 0.0
C461 C 0.46119 0.39566 0.67265 0.0
C462 C 0.45958 0.396 0.59044 0.0
C463 C 0.396 0.37857 0.5414 0.0
C464 C 0.4146 0.38184 0.56815 0.0
C465 C 0.47079 0.38837 0.64447 0.0
C466 C 0.45091 0.38709 0.61849 0.0
H467 H 0.3554 0.33417 0.50608 0.0
H468 H 0.38365 0.34009 0.55149 0.0
H469 H 0.44918 0.40024 0.54426 0.0
H470 H 0.53969 0.37477 0.66284 0.0
H471 H 0.50753 0.37551 0.62005 0.0
C472 C 0.73093 0.38677 0.05648 0.0
C473 C 0.72476 0.36481 0.07276 0.0
C474 C 0.72361 0.38852 0.02634 0.0
C475 C 0.69246 0.35315 0.96167 0.0
H476 H 0.65138 0.41521 0.94897 0.0
C477 C 0.61887 0.37141 0.85829 0.0
C478 C 0.59139 0.37922 0.86636 0.0
C479 C 0.64122 0.37128 0.87934 0.0
C480 C 0.66295 0.39786 0.95201 0.0
H481 H 0.70784 0.32696 0.07018 0.0
H482 H 0.69463 0.32995 0.01765 0.0
H483 H 0.68143 0.41039 0.99279 0.0
H484 H 0.56613 0.394 0.90231 0.0
H485 H 0.60486 0.39416 0.93851 0.0
H486 H 0.67234 0.34025 0.92145 0.0
C487 C 0.70565 0.34572 0.02778 0.0
C488 C 0.6805 0.39515 0.97703 0.0
C489 C 0.71328 0.34392 0.0579 0.0
C490 C 0.58703 0.38782 0.89539 0.0
C491 C 0.60931 0.38805 0.91613 0.0
C492 C 0.67487 0.35592 0.93648 0.0
C493 C 0.70943 0.36848 0.01201 0.0
C494 C 0.69488 0.37251 0.98271 0.0
C495 C 0.63656 0.37946 0.90857 0.0
C496 C 0.65919 0.37802 0.93194 0.0
H497 H 0.73953 0.4032 0.0676 0.0
H498 H 0.72745 0.40613 0.01477 0.0
H499 H 0.70344 0.33556 0.96515 0.0
H500 H 0.6228 0.36455 0.83612 0.0
H501 H 0.66204 0.36461 0.87287 0.0
C502 C 0.8246 0.13625 0.49746 0.0
C503 C 0.81539 0.11632 0.5157 0.0
C504 C 0.83865 0.13147 0.47078 0.0
C505 C 0.87999 0.08097 0.43505 0.0
H506 H 0.88209 0.12893 0.36981 0.0
C507 C 0.97728 0.09289 0.36091 0.0
C508 C 0.97459 0.10195 0.33164 0.0
C509 C 0.95328 0.0895 0.37869 0.0
C510 C 0.88137 0.11499 0.38746 0.0
H511 H 0.81187 0.07591 0.51981 0.0
H512 H 0.8351 0.06742 0.47266 0.0
H513 H 0.84703 0.13361 0.40901 0.0
H514 H 0.9444 0.11322 0.29745 0.0
H515 H 0.90206 0.10671 0.32844 0.0
H516 H 0.91404 0.06219 0.41337 0.0
C517 C 0.83262 0.08676 0.47926 0.0
C518 C 0.86154 0.11794 0.4103 0.0
C519 C 0.81912 0.09157 0.50619 0.0
C520 C 0.94711 0.10598 0.31983 0.0
C521 C 0.92291 0.10257 0.33773 0.0
C522 C 0.89948 0.07783 0.41206 0.0
C523 C 0.84332 0.10662 0.46153 0.0
C524 C 0.86126 0.10148 0.43496 0.0
C525 C 0.92582 0.09502 0.36769 0.0
C526 C 0.90123 0.09535 0.38857 0.0
H527 H 0.82206 0.1555 0.50449 0.0
H528 H 0.8469 0.1473 0.45813 0.0
H529 H 0.88075 0.06792 0.4536 0.0
H530 H 0.99817 0.08954 0.37063 0.0
H531 H 0.95656 0.08399 0.40167 0.0
C532 C 0.87043 0.87151 0.06081 0.0
C533 C 0.85238 0.853 0.07346 0.0
C534 C 0.87535 0.87228 0.03025 0.0
C535 C 0.88305 0.83519 0.96531 0.0
H536 H 0.87075 0.8976 0.92234 0.0
C537 C 0.93002 0.8523 0.84745 0.0
C538 C 0.94459 0.87545 0.84511 0.0
C539 C 0.91136 0.84764 0.87132 0.0
C540 C 0.87436 0.88 0.93393 0.0
H541 H 0.82555 0.8206 0.06305 0.0
H542 H 0.83555 0.82133 0.00968 0.0
H543 H 0.85336 0.89286 0.97307 0.0
H544 H 0.9497 0.91231 0.86464 0.0
H545 H 0.91787 0.90434 0.9057 0.0
H546 H 0.90598 0.82297 0.92706 0.0
C547 C 0.84535 0.83543 0.02379 0.0
C548 C 0.86425 0.87729 0.96293 0.0
C549 C 0.83983 0.83498 0.05442 0.0
C550 C 0.93888 0.89423 0.86588 0.0
C551 C 0.92032 0.88969 0.88939 0.0
C552 C 0.89365 0.83804 0.93636 0.0
C553 C 0.86298 0.85424 0.01146 0.0
C554 C 0.86927 0.85518 0.97921 0.0
C555 C 0.90678 0.86617 0.89297 0.0
C556 C 0.89036 0.86088 0.92073 0.0
H557 H 0.88136 0.88525 0.07451 0.0
H558 H 0.88943 0.88673 0.02132 0.0
H559 H 0.88723 0.81796 0.97749 0.0
H560 H 0.9342 0.83743 0.83186 0.0
H561 H 0.90112 0.82937 0.87326 0.0
C562 C 0.66643 0.64353 0.5233 0.0
C563 C 0.66093 0.66499 0.54021 0.0
C564 C 0.65908 0.64273 0.49309 0.0
C565 C 0.63682 0.68319 0.42862 0.0
H566 H 0.60336 0.62105 0.39971 0.0
C567 C 0.55797 0.67604 0.32973 0.0
C568 C 0.55767 0.65418 0.31257 0.0
C569 C 0.57761 0.67888 0.35309 0.0
C570 C 0.6132 0.63843 0.40714 0.0
H571 H 0.64335 0.70245 0.53858 0.0
H572 H 0.62995 0.70092 0.48621 0.0
H573 H 0.62306 0.62263 0.44975 0.0
H574 H 0.5783 0.61869 0.30515 0.0
H575 H 0.61301 0.62367 0.34583 0.0
H576 H 0.62561 0.69919 0.38623 0.0
C577 C 0.64062 0.68488 0.49597 0.0
C578 C 0.62452 0.63936 0.43597 0.0
C579 C 0.6482 0.68574 0.5261 0.0
C580 C 0.57857 0.63596 0.31773 0.0
C581 C 0.59812 0.63867 0.34127 0.0
C582 C 0.62528 0.6823 0.39981 0.0
C583 C 0.64577 0.6633 0.47904 0.0
C584 C 0.63605 0.66186 0.44735 0.0
C585 C 0.59701 0.65966 0.36005 0.0
C586 C 0.61291 0.66 0.38889 0.0
H587 H 0.67659 0.62736 0.53341 0.0
H588 H 0.66387 0.62594 0.48075 0.0
H589 H 0.64604 0.70073 0.43632 0.0
H590 H 0.54156 0.69003 0.32657 0.0
H591 H 0.57596 0.69517 0.3672 0.0
C592 C 0.34312 0.65428 0.95176 0.0
C593 C 0.34998 0.67415 0.93218 0.0
C594 C 0.3469 0.65688 0.98245 0.0
C595 C 0.39093 0.69287 0.03567 0.0
H596 H 0.34592 0.65586 0.0937 0.0
C597 C 0.4331 0.68075 0.15474 0.0
C598 C 0.43433 0.65531 0.1629 0.0
C599 C 0.41531 0.68842 0.13118 0.0
C600 C 0.35862 0.66645 0.07781 0.0
H601 H 0.36488 0.71283 0.92989 0.0
H602 H 0.37084 0.71756 0.98347 0.0
H603 H 0.32878 0.65935 0.04244 0.0
H604 H 0.4168 0.61826 0.1547 0.0
H605 H 0.38546 0.6315 0.11425 0.0
H606 H 0.42128 0.69916 0.07068 0.0
C607 C 0.36299 0.69978 0.97501 0.0
C608 C 0.34887 0.66836 0.04838 0.0
C609 C 0.35924 0.69716 0.94426 0.0
C610 C 0.41581 0.63806 0.14906 0.0
C611 C 0.39788 0.6457 0.12582 0.0
C612 C 0.40062 0.69103 0.0651 0.0
C613 C 0.35757 0.67946 0.99447 0.0
C614 C 0.36537 0.68089 0.02668 0.0
C615 C 0.39845 0.67073 0.11559 0.0
C616 C 0.38507 0.67709 0.08632 0.0
H617 H 0.33554 0.63641 0.94328 0.0
H618 H 0.34271 0.64072 0.99659 0.0
H619 H 0.40443 0.70244 0.01963 0.0
H620 H 0.44757 0.69428 0.16485 0.0
H621 H 0.41601 0.70789 0.12405 0.0
C622 C 0.14638 0.82696 0.47621 0.0
C623 C 0.16503 0.84562 0.46506 0.0
C624 C 0.13802 0.82696 0.50598 0.0
C625 C 0.13081 0.86863 0.57058 0.0
H626 H 0.11881 0.80564 0.61281 0.0
C627 C 0.07921 0.86721 0.68621 0.0
C628 C 0.05552 0.85085 0.68776 0.0
C629 C 0.09933 0.8647 0.66348 0.0
C630 C 0.12212 0.8234 0.60137 0.0
H631 H 0.1897 0.87884 0.47677 0.0
H632 H 0.17502 0.87891 0.52881 0.0
H633 H 0.14033 0.8056 0.56357 0.0
H634 H 0.03504 0.81831 0.66816 0.0
H635 H 0.07016 0.81356 0.62901 0.0
H636 H 0.11184 0.88636 0.60799 0.0
C637 C 0.16668 0.86436 0.51437 0.0
C638 C 0.13434 0.82338 0.57307 0.0
C639 C 0.17506 0.86435 0.48452 0.0
C640 C 0.05343 0.83087 0.66772 0.0
C641 C 0.07357 0.82822 0.64524 0.0
C642 C 0.11863 0.86865 0.59891 0.0
C643 C 0.14805 0.84564 0.5255 0.0
C644 C 0.13814 0.84594 0.55696 0.0
C645 C 0.09607 0.84576 0.64201 0.0
C646 C 0.11346 0.84598 0.61436 0.0
H647 H 0.13777 0.81252 0.46178 0.0
H648 H 0.12314 0.81259 0.51351 0.0
H649 H 0.13316 0.88634 0.55878 0.0
H650 H 0.08095 0.88307 0.70105 0.0
H651 H 0.11658 0.87836 0.66181 0.0
C652 C 0.24322 0.31226 0.3649 0.0
C653 C 0.23766 0.32741 0.38947 0.0
C654 C 0.22055 0.3023 0.34792 0.0
C655 C 0.14591 0.28271 0.35759 0.0
H656 H 0.14517 0.27434 0.2721 0.0
C657 C 0.05775 0.22268 0.30563 0.0
C658 C 0.06688 0.20533 0.28456 0.0
C659 C 0.07487 0.2435 0.31285 0.0
C660 C 0.14504 0.27638 0.29601 0.0
H661 H 0.20463 0.34485 0.41525 0.0
H662 H 0.16502 0.32762 0.38568 0.0
H663 H 0.18346 0.29893 0.29566 0.0
H664 H 0.10001 0.19686 0.2531 0.0
H665 H 0.13035 0.23263 0.26608 0.0
H666 H 0.10876 0.25926 0.3586 0.0
C667 C 0.18672 0.32328 0.37943 0.0
C668 C 0.16702 0.29054 0.30949 0.0
C669 C 0.20935 0.33329 0.39623 0.0
C670 C 0.09219 0.21032 0.26895 0.0
C671 C 0.1097 0.23084 0.27662 0.0
C672 C 0.12424 0.26838 0.34425 0.0
C673 C 0.19198 0.30714 0.35552 0.0
C674 C 0.16782 0.29368 0.3405 0.0
C675 C 0.10201 0.24695 0.29988 0.0
C676 C 0.12353 0.26473 0.31326 0.0
H677 H 0.26498 0.30731 0.35954 0.0
H678 H 0.22535 0.28978 0.32983 0.0
H679 H 0.14612 0.28432 0.38157 0.0
H680 H 0.03846 0.21904 0.31822 0.0
H681 H 0.06763 0.25592 0.33009 0.0
C682 C 0.33939 0.15887 0.8525 0.0
C683 C 0.31021 0.16358 0.84886 0.0
C684 C 0.35969 0.17273 0.8365 0.0
C685 C 0.36785 0.23455 0.79869 0.0
H686 H 0.44454 0.20992 0.78637 0.0
C687 C 0.46156 0.3008 0.76616 0.0
C688 C 0.48218 0.30091 0.78899 0.0
C689 C 0.44132 0.28121 0.7644 0.0
C690 C 0.42313 0.21698 0.78934 0.0
H691 H 0.27886 0.18562 0.82504 0.0
H692 H 0.31429 0.20938 0.79586 0.0
H693 H 0.40605 0.18037 0.7986 0.0
H694 H 0.49918 0.28021 0.82658 0.0
H695 H 0.46485 0.2454 0.82263 0.0
H696 H 0.38525 0.27121 0.7895 0.0
C697 C 0.32172 0.19533 0.81154 0.0
C698 C 0.40106 0.20012 0.79665 0.0
C699 C 0.30136 0.18155 0.82791 0.0
C700 C 0.4837 0.28031 0.80854 0.0
C701 C 0.46403 0.26045 0.8063 0.0
C702 C 0.38983 0.25132 0.79078 0.0
C703 C 0.35127 0.19162 0.81625 0.0
C704 C 0.37332 0.20876 0.80269 0.0
C705 C 0.44194 0.26119 0.78498 0.0
C706 C 0.41789 0.24282 0.78708 0.0
H707 H 0.34665 0.14534 0.86896 0.0
H708 H 0.38204 0.1695 0.84143 0.0
H709 H 0.34702 0.24214 0.80342 0.0
H710 H 0.45968 0.31676 0.75119 0.0
H711 H 0.42447 0.28222 0.7478 0.0
C712 C 0.67725 0.16483 0.62104 0.0
C713 C 0.70672 0.16656 0.62653 0.0
C714 C 0.65792 0.17578 0.64048 0.0
C715 C 0.65038 0.20352 0.71541 0.0
H716 H 0.59506 0.24641 0.67609 0.0
C717 C 0.60479 0.29122 0.76903 0.0
C718 C 0.57795 0.30039 0.7602 0.0
C719 C 0.61543 0.26924 0.75694 0.0
C720 C 0.60979 0.23409 0.68759 0.0
H721 H 0.73947 0.18021 0.65663 0.0
H722 H 0.70571 0.19941 0.69094 0.0
H723 H 0.62407 0.21848 0.64674 0.0
H724 H 0.54008 0.2925 0.73376 0.0
H725 H 0.5586 0.25367 0.71267 0.0
H726 H 0.63657 0.21963 0.75623 0.0
C727 C 0.69738 0.18938 0.67185 0.0
C728 C 0.62657 0.2181 0.67069 0.0
C729 C 0.71672 0.17849 0.65226 0.0
C730 C 0.56089 0.28594 0.74088 0.0
C731 C 0.57164 0.26384 0.72861 0.0
C732 C 0.63344 0.2194 0.73237 0.0
C733 C 0.66778 0.18867 0.66578 0.0
C734 C 0.6476 0.20313 0.6843 0.0
C735 C 0.59951 0.25576 0.73566 0.0
C736 C 0.61353 0.23546 0.71859 0.0
H737 H 0.66919 0.1558 0.60113 0.0
H738 H 0.63529 0.17467 0.63534 0.0
H739 H 0.66605 0.19191 0.7266 0.0
H740 H 0.61837 0.30183 0.7841 0.0
H741 H 0.637 0.26383 0.76282 0.0
C742 C 0.82364 0.32487 0.20405 0.0
C743 C 0.81101 0.32325 0.17579 0.0
C744 C 0.85064 0.31478 0.20946 0.0
C745 C 0.91628 0.29183 0.17384 0.0
H746 H 0.92071 0.2483 0.24321 0.0
C747 C 0.99623 0.21147 0.18515 0.0
C748 C 1.00338 0.2018 0.21338 0.0
C749 C 0.97849 0.23225 0.18222 0.0
C750 C 0.92031 0.26087 0.22417 0.0
H751 H 0.81645 0.31055 0.1307 0.0
H752 H 0.86408 0.29283 0.14001 0.0
H753 H 0.87789 0.27261 0.23413 0.0
H754 H 1.00026 0.20815 0.26072 0.0
H755 H 0.96992 0.24507 0.25568 0.0
H756 H 0.95862 0.27985 0.16368 0.0
C757 C 0.85322 0.30208 0.15798 0.0
C758 C 0.89556 0.27472 0.21885 0.0
C759 C 0.82602 0.3121 0.15263 0.0
C760 C 0.99509 0.2151 0.23866 0.0
C761 C 0.9773 0.23604 0.23573 0.0
C762 C 0.94122 0.27815 0.17933 0.0
C763 C 0.86558 0.30289 0.18664 0.0
C764 C 0.89299 0.28995 0.19331 0.0
C765 C 0.96753 0.24404 0.20748 0.0
C766 C 0.94332 0.26197 0.2042 0.0
H767 H 0.81229 0.3334 0.22222 0.0
H768 H 0.85966 0.31596 0.23165 0.0
H769 H 0.91511 0.3037 0.15421 0.0
H770 H 1.00247 0.20176 0.1652 0.0
H771 H 0.97156 0.23765 0.16009 0.0
C772 C 0.72597 0.73986 0.69594 0.0
C773 C 0.73411 0.7202 0.67742 0.0
C774 C 0.74585 0.75092 0.7154 0.0
C775 C 0.81913 0.74432 0.74818 0.0
H776 H 0.82077 0.81697 0.74198 0.0
C777 C 0.92171 0.80333 0.75562 0.0
C778 C 0.9208 0.8285 0.76443 0.0
C779 C 0.89705 0.78833 0.75589 0.0
C780 C 0.82036 0.79675 0.74473 0.0
H781 H 0.76874 0.69599 0.66505 0.0
H782 H 0.8036 0.71517 0.69899 0.0
H783 H 0.78052 0.79357 0.72138 0.0
H784 H 0.89399 0.85742 0.78232 0.0
H785 H 0.85055 0.83107 0.7832 0.0
H786 H 0.85962 0.74754 0.77051 0.0
C787 C 0.78185 0.72192 0.69902 0.0
C788 C 0.7972 0.78325 0.73279 0.0
C789 C 0.76194 0.71091 0.67954 0.0
C790 C 0.89528 0.83792 0.77584 0.0
C791 C 0.87038 0.82291 0.77592 0.0
C792 C 0.84229 0.75783 0.76021 0.0
C793 C 0.7743 0.74258 0.71658 0.0
C794 C 0.79669 0.75682 0.73351 0.0
C795 C 0.87072 0.79827 0.76465 0.0
C796 C 0.84367 0.7842 0.75777 0.0
H797 H 0.70461 0.74747 0.69437 0.0
H798 H 0.73918 0.76656 0.72882 0.0
H799 H 0.8192 0.72401 0.74964 0.0
H800 H 0.94108 0.79579 0.7463 0.0
H801 H 0.89825 0.76962 0.74678 0.0
C802 C 0.78367 0.75605 0.17304 0.0
C803 C 0.7877 0.78081 0.18248 0.0
C804 C 0.75844 0.74299 0.17985 0.0
C805 C 0.69523 0.7424 0.22928 0.0
H806 H 0.66109 0.70387 0.16523 0.0
C807 C 0.59483 0.6757 0.24078 0.0
C808 C 0.57563 0.67627 0.21661 0.0
C809 C 0.62063 0.68947 0.23962 0.0
C810 C 0.67025 0.71463 0.18336 0.0
H811 H 0.76935 0.8115 0.20674 0.0
H812 H 0.72479 0.78879 0.21847 0.0
H813 H 0.70632 0.72561 0.15732 0.0
H814 H 0.56736 0.69308 0.17336 0.0
H815 H 0.61166 0.71711 0.17156 0.0
H816 H 0.65851 0.7316 0.25507 0.0
C817 C 0.74116 0.77929 0.20609 0.0
C818 C 0.69639 0.72687 0.17892 0.0
C819 C 0.76648 0.79235 0.19921 0.0
C820 C 0.58192 0.6919 0.19215 0.0
C821 C 0.6074 0.70561 0.19104 0.0
C822 C 0.66897 0.72999 0.23379 0.0
C823 C 0.73674 0.75451 0.19623 0.0
C824 C 0.70918 0.74104 0.20171 0.0
C825 C 0.6275 0.70397 0.21426 0.0
C826 C 0.65603 0.71623 0.2107 0.0
H827 H 0.8 0.7468 0.16029 0.0
H828 H 0.75595 0.72384 0.17228 0.0
H829 H 0.70467 0.75298 0.24739 0.0
H830 H 0.59065 0.66369 0.25979 0.0
H831 H 0.63573 0.68785 0.25788 0.0
C832 C 0.23782 0.75912 0.33157 0.0
C833 C 0.23125 0.78468 0.33127 0.0
C834 C 0.25849 0.74981 0.31251 0.0
C835 C 0.32253 0.7703 0.27138 0.0
H836 H 0.32039 0.70061 0.24716 0.0
C837 C 0.42206 0.71074 0.26694 0.0
C838 C 0.42324 0.68926 0.24916 0.0
C839 C 0.39821 0.72614 0.26617 0.0
C840 C 0.32128 0.72028 0.253 0.0
H841 H 0.24012 0.82071 0.31064 0.0
H842 H 0.27625 0.80444 0.2766 0.0
H843 H 0.27727 0.71995 0.26557 0.0
H844 H 0.40117 0.66786 0.21518 0.0
H845 H 0.35927 0.69518 0.21332 0.0
H846 H 0.36658 0.77058 0.25891 0.0
C847 C 0.26571 0.79153 0.2918 0.0
C848 C 0.29658 0.7313 0.26407 0.0
C849 C 0.24499 0.80086 0.3111 0.0
C850 C 0.40094 0.68447 0.22887 0.0
C851 C 0.37681 0.69995 0.22814 0.0
C852 C 0.34715 0.75937 0.25998 0.0
C853 C 0.27302 0.76589 0.29256 0.0
C854 C 0.29724 0.75606 0.2748 0.0
C855 C 0.37473 0.72047 0.24762 0.0
C856 C 0.34723 0.73384 0.25206 0.0
H857 H 0.22752 0.74639 0.3472 0.0
H858 H 0.26386 0.73014 0.31436 0.0
H859 H 0.32397 0.78942 0.27929 0.0
H860 H 0.43901 0.71489 0.28276 0.0
H861 H 0.39745 0.74146 0.2818 0.0
C862 C 0.28269 0.74733 0.79818 0.0
C863 C 0.28483 0.73101 0.82263 0.0
C864 C 0.25673 0.75881 0.79127 0.0
C865 C 0.17874 0.75259 0.8037 0.0
H866 H 0.17776 0.82226 0.77792 0.0
C867 C 0.0777 0.81322 0.80433 0.0
C868 C 0.07386 0.8315 0.78199 0.0
C869 C 0.10237 0.79877 0.80534 0.0
C870 C 0.17768 0.80266 0.78455 0.0
H871 H 0.26216 0.71366 0.85926 0.0
H872 H 0.21661 0.7341 0.84766 0.0
H873 H 0.22323 0.80227 0.78906 0.0
H874 H 0.0925 0.8485 0.74277 0.0
H875 H 0.13575 0.82296 0.74419 0.0
H876 H 0.13309 0.7532 0.79977 0.0
C877 C 0.2348 0.73786 0.8335 0.0
C878 C 0.20377 0.7912 0.79105 0.0
C879 C 0.26085 0.72635 0.84035 0.0
C880 C 0.09467 0.83426 0.75986 0.0
C881 C 0.11959 0.81988 0.76098 0.0
C882 C 0.15265 0.76408 0.79726 0.0
C883 C 0.23238 0.75412 0.80873 0.0
C884 C 0.20462 0.7661 0.80103 0.0
C885 C 0.12399 0.80237 0.78417 0.0
C886 C 0.15177 0.78934 0.78794 0.0
H887 H 0.301 0.75089 0.78407 0.0
H888 H 0.2556 0.77091 0.77184 0.0
H889 H 0.17863 0.73309 0.81073 0.0
H890 H 0.06201 0.81071 0.82173 0.0
H891 H 0.10514 0.78567 0.82366 0.0
loop_
_geom_bond_atom_site_label_1
_geom_bond_atom_site_label_2
_geom_bond_distance
_geom_bond_site_symmetry_2
_ccdc_geom_bond_type
H0 C3 0.929 . S
H1 C6 0.929 . S
H2 C8 0.930 . S
C3 H0 0.929 . S
C3 C4 1.398 . S
C3 C5 1.396 . S
C4 C3 1.398 . S
C4 C8 1.407 . S
C5 C3 1.396 . S
C5 C6 1.394 . S
C6 H1 0.929 . S
C6 C5 1.394 . S
C6 C7 1.382 . S
C7 C6 1.382 . S
C7 C8 1.392 . S
C7 N9 1.420 . S
C8 H2 0.930 . S
C8 C4 1.407 . S
C8 C7 1.392 . S
N9 C7 1.420 . S
N9 C10 1.244 . S
C10 N9 1.244 . S
H11 C14 0.929 . S
H12 C17 0.929 . S
H13 C19 0.930 . S
C14 H11 0.929 . S
C14 C15 1.398 . S
C14 C16 1.396 . S
C15 C14 1.398 . S
C15 C19 1.407 . S
C16 C14 1.396 . S
C16 C17 1.394 . S
C17 H12 0.929 . S
C17 C16 1.394 . S
C17 C18 1.382 . S
C18 C17 1.382 . S
C18 C19 1.392 . S
C18 N20 1.420 . S
C19 H13 0.930 . S
C19 C15 1.407 . S
C19 C18 1.392 . S
N20 C18 1.420 . S
N20 C21 1.244 . S
C21 N20 1.244 . S
H22 C25 0.929 . S
H23 C28 0.929 . S
H24 C30 0.930 . S
C25 H22 0.929 . S
C25 C26 1.398 . S
C25 C27 1.396 . S
C26 C25 1.398 . S
C26 C30 1.407 . S
C27 C25 1.396 . S
C27 C28 1.394 . S
C28 H23 0.929 . S
C28 C27 1.394 . S
C28 C29 1.382 . S
C29 C28 1.382 . S
C29 C30 1.392 . S
C29 N31 1.420 . S
C30 H24 0.930 . S
C30 C26 1.407 . S
C30 C29 1.392 . S
N31 C29 1.420 . S
N31 C32 1.244 . S
C32 N31 1.244 . S
H33 C36 0.929 . S
H34 C39 0.929 . S
H35 C41 0.930 . S
C36 H33 0.929 . S
C36 C37 1.398 . S
C36 C38 1.396 . S
C37 C36 1.398 . S
C37 C41 1.407 . S
C38 C36 1.396 . S
C38 C39 1.394 . S
C39 H34 0.929 . S
C39 C38 1.394 . S
C39 C40 1.382 . S
C40 C39 1.382 . S
C40 C41 1.392 . S
C40 N42 1.420 . S
C41 H35 0.930 . S
C41 C37 1.407 . S
C41 C40 1.392 . S
N42 C40 1.420 . S
N42 C43 1.244 . S
C43 N42 1.244 . S
H44 C47 0.929 . S
H45 C50 0.929 . S
H46 C52 0.930 . S
C47 H44 0.929 . S
C47 C48 1.398 . S
C47 C49 1.396 . S
C48 C47 1.398 . S
C48 C52 1.407 . S
C49 C47 1.396 . S
C49 C50 1.394 . S
C50 H45 0.929 . S
C50 C49 1.394 . S
C50 C51 1.382 . S
C51 C50 1.382 . S
C51 C52 1.392 . S
C51 N53 1.420 . S
C52 H46 0.930 . S
C52 C48 1.407 . S
C52 C51 1.392 . S
N53 C51 1.420 . S
N53 C54 1.244 . S
C54 N53 1.244 . S
H55 C58 0.929 . S
H56 C61 0.929 . S
H57 C63 0.930 . S
C58 H55 0.929 . S
C58 C59 1.398 . S
C58 C60 1.396 . S
C59 C58 1.398 . S
C59 C63 1.407 . S
C60 C58 1.396 . S
C60 C61 1.394 . S
C61 H56 0.929 . S
C61 C60 1.394 . S
C61 C62 1.382 . S
C62 C61 1.382 . S
C62 C63 1.392 . S
C62 N64 1.420 . S
C63 H57 0.930 . S
C63 C59 1.407 . S
C63 C62 1.392 . S
N64 C62 1.420 . S
N64 C65 1.244 . S
C65 N64 1.244 . S
H66 C69 0.929 . S
H67 C72 0.929 . S
H68 C74 0.930 . S
C69 H66 0.929 . S
C69 C70 1.398 . S
C69 C71 1.396 . S
C70 C69 1.398 . S
C70 C74 1.407 . S
C71 C69 1.396 . S
C71 C72 1.394 . S
C72 H67 0.929 . S
C72 C71 1.394 . S
C72 C73 1.382 . S
C73 C72 1.382 . S
C73 C74 1.392 . S
C73 N75 1.420 . S
C74 H68 0.930 . S
C74 C70 1.407 . S
C74 C73 1.392 . S
N75 C73 1.420 . S
N75 C76 1.244 . S
C76 N75 1.244 . S
H77 C80 0.929 . S
H78 C83 0.929 . S
H79 C85 0.930 . S
C80 H77 0.929 . S
C80 C81 1.398 . S
C80 C82 1.396 . S
C81 C80 1.398 . S
C81 C85 1.407 . S
C82 C80 1.396 . S
C82 C83 1.394 . S
C83 H78 0.929 . S
C83 C82 1.394 . S
C83 C84 1.382 . S
C84 C83 1.382 . S
C84 C85 1.392 . S
C84 N86 1.420 . S
C85 H79 0.930 . S
C85 C81 1.407 . S
C85 C84 1.392 . S
N86 C84 1.420 . S
N86 C87 1.244 . S
C87 N86 1.244 . S
Zn88 O94 1.920 . S
Zn88 O100 1.898 . S
Zn88 O103 1.905 . S
Zn89 O97 1.905 1_655 S
Zn89 O98 1.898 . S
Zn89 O106 1.920 . S
Zn90 O93 2.080 1_455 S
Zn90 O96 2.114 . S
Zn90 O99 2.120 1_455 S
Zn90 O101 2.120 . S
Zn90 O102 2.114 . S
Zn90 O105 2.080 1_455 S
C91 O96 1.166 . S
C91 O97 1.182 . S
C92 O98 1.167 . S
C92 O99 1.299 . S
O93 Zn90 2.080 1_655 S
O93 C107 1.305 . S
O94 Zn88 1.920 . S
O94 C107 1.234 1_455 S
C95 O100 1.167 . S
C95 O101 1.299 . S
O96 Zn90 2.114 . S
O96 C91 1.166 . S
O97 Zn89 1.905 1_455 S
O97 C91 1.182 . S
O98 Zn89 1.898 . S
O98 C92 1.167 . S
O99 Zn90 2.120 1_655 S
O99 C92 1.299 . S
O100 Zn88 1.898 . S
O100 C95 1.167 . S
O101 Zn90 2.120 . S
O101 C95 1.299 . S
O102 Zn90 2.114 . S
O102 C104 1.166 . S
O103 Zn88 1.905 . S
O103 C104 1.182 . S
C104 O102 1.166 . S
C104 O103 1.182 . S
O105 Zn90 2.080 1_655 S
O105 C108 1.305 . S
O106 Zn89 1.920 . S
O106 C108 1.234 . S
C107 O93 1.305 . S
C107 O94 1.234 1_655 S
C108 O105 1.305 . S
C108 O106 1.234 . S
Zn109 O115 1.920 . S
Zn109 O121 1.898 . S
Zn109 O124 1.905 . S
Zn110 O118 1.905 . S
Zn110 O119 1.898 . S
Zn110 O127 1.920 . S
Zn111 O114 2.080 . S
Zn111 O117 2.114 . S
Zn111 O120 2.120 . S
Zn111 O122 2.120 . S
Zn111 O123 2.114 . S
Zn111 O126 2.080 . S
C112 O117 1.166 . S
C112 O118 1.182 . S
C113 O119 1.167 . S
C113 O120 1.299 . S
O114 Zn111 2.080 . S
O114 C128 1.305 . S
O115 Zn109 1.920 . S
O115 C128 1.234 . S
C116 O121 1.167 . S
C116 O122 1.299 . S
O117 Zn111 2.114 . S
O117 C112 1.166 . S
O118 Zn110 1.905 . S
O118 C112 1.182 . S
O119 Zn110 1.898 . S
O119 C113 1.167 . S
O120 Zn111 2.120 . S
O120 C113 1.299 . S
O121 Zn109 1.898 . S
O121 C116 1.167 . S
O122 Zn111 2.120 . S
O122 C116 1.299 . S
O123 Zn111 2.114 . S
O123 C125 1.166 . S
O124 Zn109 1.905 . S
O124 C125 1.182 . S
C125 O123 1.166 . S
C125 O124 1.182 . S
O126 Zn111 2.080 . S
O126 C129 1.305 . S
O127 Zn110 1.920 . S
O127 C129 1.234 . S
C128 O114 1.305 . S
C128 O115 1.234 . S
C129 O126 1.305 . S
C129 O127 1.234 . S
Zn130 O136 1.920 . S
Zn130 O142 1.898 . S
Zn130 O145 1.877 1_455 S
Zn131 O139 1.905 . S
Zn131 O140 1.898 . S
Zn131 O148 1.920 1_655 S
Zn132 O135 2.080 . S
Zn132 O138 2.114 1_455 S
Zn132 O141 2.120 1_455 S
Zn132 O143 2.120 . S
Zn132 O144 2.114 1_455 S
Zn132 O147 2.080 . S
C133 O138 1.166 . S
C133 O139 1.182 . S
C134 O140 1.167 . S
C134 O141 1.299 . S
O135 Zn132 2.080 . S
O135 C149 1.305 . S
O136 Zn130 1.920 . S
O136 C149 1.234 . S
C137 O142 1.167 . S
C137 O143 1.299 . S
O138 Zn132 2.114 1_655 S
O138 C133 1.166 . S
O139 Zn131 1.905 . S
O139 C133 1.182 . S
O140 Zn131 1.898 . S
O140 C134 1.167 . S
O141 Zn132 2.120 1_655 S
O141 C134 1.299 . S
O142 Zn130 1.898 . S
O142 C137 1.167 . S
O143 Zn132 2.120 . S
O143 C137 1.299 . S
O144 Zn132 2.114 1_655 S
O144 C146 1.166 . S
O145 Zn130 1.877 1_655 S
O145 C146 1.204 . S
C146 O144 1.166 . S
C146 O145 1.204 . S
O147 Zn132 2.080 . S
O147 C150 1.305 . S
O148 Zn131 1.920 1_455 S
O148 C150 1.234 . S
C149 O135 1.305 . S
C149 O136 1.234 . S
C150 O147 1.305 . S
C150 O148 1.234 . S
Zn151 O157 1.920 . S
Zn151 O163 1.898 . S
Zn151 O166 1.905 . S
Zn152 O160 1.905 . S
Zn152 O161 1.898 . S
Zn152 O169 1.920 . S
Zn153 O156 2.080 . S
Zn153 O159 2.114 . S
Zn153 O162 2.120 . S
Zn153 O164 2.120 . S
Zn153 O165 2.114 . S
Zn153 O168 2.080 . S
C154 O159 1.166 . S
C154 O160 1.182 . S
C155 O161 1.167 . S
C155 O162 1.299 . S
O156 Zn153 2.080 . S
O156 C170 1.305 . S
O157 Zn151 1.920 . S
O157 C170 1.234 . S
C158 O163 1.167 . S
C158 O164 1.299 . S
O159 Zn153 2.114 . S
O159 C154 1.166 . S
O160 Zn152 1.905 . S
O160 C154 1.182 . S
O161 Zn152 1.898 . S
O161 C155 1.167 . S
O162 Zn153 2.120 . S
O162 C155 1.299 . S
O163 Zn151 1.898 . S
O163 C158 1.167 . S
O164 Zn153 2.120 . S
O164 C158 1.299 . S
O165 Zn153 2.114 . S
O165 C167 1.166 . S
O166 Zn151 1.905 . S
O166 C167 1.182 . S
C167 O165 1.166 . S
C167 O166 1.182 . S
O168 Zn153 2.080 . S
O168 C171 1.305 . S
O169 Zn152 1.920 . S
O169 C171 1.234 . S
C170 O156 1.305 . S
C170 O157 1.234 . S
C171 O168 1.305 . S
C171 O169 1.234 . S
C172 C173 1.349 . S
C172 C174 1.327 . S
C172 H197 0.950 . S
C173 C172 1.349 . S
C173 C189 1.349 . S
C174 C172 1.327 . S
C174 C193 1.429 . S
C174 H198 0.950 . S
C175 C192 1.574 . S
C175 C194 1.368 . S
C175 H199 0.949 . S
H176 C180 0.949 . S
C177 C178 1.349 . S
C177 C179 1.327 . S
C177 H200 0.950 . S
C178 C177 1.349 . S
C178 C190 1.349 . S
C179 C177 1.327 . S
C179 C195 1.429 . S
C179 H201 0.950 1_545 S
C180 H176 0.949 . S
C180 C188 1.574 . S
C180 C196 1.368 . S
H181 C189 0.950 . S
H182 C187 0.950 . S
H183 C188 0.949 . S
H184 C190 0.950 . S
H185 C191 0.950 . S
H186 C192 0.949 . S
C187 H182 0.950 . S
C187 C189 1.327 . S
C187 C193 1.429 . S
C188 C180 1.574 . S
C188 H183 0.949 . S
C188 C194 1.368 . S
C189 C173 1.349 . S
C189 H181 0.950 . S
C189 C187 1.327 . S
C190 C178 1.349 . S
C190 H184 0.950 . S
C190 C191 1.327 . S
C191 H185 0.950 . S
C191 C190 1.327 . S
C191 C195 1.429 . S
C192 C175 1.574 . S
C192 H186 0.949 . S
C192 C196 1.368 . S
C193 C174 1.429 . S
C193 C187 1.429 . S
C193 C194 1.523 . S
C194 C175 1.368 . S
C194 C188 1.368 . S
C194 C193 1.523 . S
C195 C179 1.429 . S
C195 C191 1.429 . S
C195 C196 1.523 1_545 S
C196 C180 1.368 . S
C196 C192 1.368 . S
C196 C195 1.523 1_565 S
H197 C172 0.950 . S
H198 C174 0.950 . S
H199 C175 0.949 . S
H200 C177 0.950 . S
H201 C179 0.950 1_565 S
C202 C203 1.349 . S
C202 C204 1.327 . S
C202 H227 0.950 . S
C203 C202 1.349 . S
C203 C219 1.349 . S
C204 C202 1.327 . S
C204 C223 1.429 . S
C204 H228 0.950 . S
C205 C222 1.574 . S
C205 C224 1.368 . S
C205 H229 0.949 . S
H206 C210 0.949 . S
C207 C208 1.349 . S
C207 C209 1.327 . S
C207 H230 0.950 . S
C208 C207 1.349 . S
C208 C220 1.349 . S
C209 C207 1.327 . S
C209 C225 1.429 . S
C209 H231 0.950 . S
C210 H206 0.949 . S
C210 C218 1.574 . S
C210 C226 1.368 . S
H211 C219 0.950 . S
H212 C217 0.950 . S
H213 C218 0.949 . S
H214 C220 0.950 . S
H215 C221 0.950 . S
H216 C222 0.949 . S
C217 H212 0.950 . S
C217 C219 1.327 . S
C217 C223 1.429 . S
C218 C210 1.574 . S
C218 H213 0.949 . S
C218 C224 1.368 . S
C219 C203 1.349 . S
C219 H211 0.950 . S
C219 C217 1.327 . S
C220 C208 1.349 . S
C220 H214 0.950 . S
C220 C221 1.327 . S
C221 H215 0.950 . S
C221 C220 1.327 . S
C221 C225 1.429 . S
C222 C205 1.574 . S
C222 H216 0.949 . S
C222 C226 1.368 . S
C223 C204 1.429 . S
C223 C217 1.429 . S
C223 C224 1.523 . S
C224 C205 1.368 . S
C224 C218 1.368 . S
C224 C223 1.523 . S
C225 C209 1.429 . S
C225 C221 1.429 . S
C225 C226 1.523 . S
C226 C210 1.368 . S
C226 C222 1.368 . S
C226 C225 1.523 . S
H227 C202 0.950 . S
H228 C204 0.950 . S
H229 C205 0.949 . S
H230 C207 0.950 . S
H231 C209 0.950 . S
C232 C233 1.349 . S
C232 C234 1.327 . S
C232 H257 0.950 . S
C233 C232 1.349 . S
C233 C249 1.349 . S
C234 C232 1.327 . S
C234 C253 1.429 . S
C234 H258 0.950 . S
C235 C252 1.574 . S
C235 C254 1.368 . S
C235 H259 0.949 . S
H236 C240 0.949 . S
C237 C238 1.349 . S
C237 C239 1.327 . S
C237 H260 0.950 . S
C238 C237 1.349 . S
C238 C250 1.349 . S
C239 C237 1.327 . S
C239 C255 1.429 . S
C239 H261 0.950 . S
C240 H236 0.949 . S
C240 C248 1.574 . S
C240 C256 1.368 . S
H241 C249 0.950 . S
H242 C247 0.950 . S
H243 C248 0.949 . S
H244 C250 0.950 . S
H245 C251 0.950 . S
H246 C252 0.949 . S
C247 H242 0.950 . S
C247 C249 1.327 . S
C247 C253 1.429 . S
C248 C240 1.574 . S
C248 H243 0.949 . S
C248 C254 1.368 . S
C249 C233 1.349 . S
C249 H241 0.950 . S
C249 C247 1.327 . S
C250 C238 1.349 . S
C250 H244 0.950 . S
C250 C251 1.327 . S
C251 H245 0.950 . S
C251 C250 1.327 . S
C251 C255 1.429 . S
C252 C235 1.574 . S
C252 H246 0.949 . S
C252 C256 1.368 . S
C253 C234 1.429 . S
C253 C247 1.429 . S
C253 C254 1.523 . S
C254 C235 1.368 . S
C254 C248 1.368 . S
C254 C253 1.523 . S
C255 C239 1.429 . S
C255 C251 1.429 . S
C255 C256 1.523 . S
C256 C240 1.368 . S
C256 C252 1.368 . S
C256 C255 1.523 . S
H257 C232 0.950 . S
H258 C234 0.950 . S
H259 C235 0.949 . S
H260 C237 0.950 . S
H261 C239 0.950 . S
C262 C263 1.349 . S
C262 C264 1.327 . S
C262 H287 0.950 . S
C263 C262 1.349 . S
C263 C279 1.349 . S
C264 C262 1.327 . S
C264 C283 1.429 . S
C264 H288 0.950 . S
C265 C282 1.574 . S
C265 C284 1.368 . S
C265 H289 0.949 . S
H266 C270 0.949 1_545 S
C267 C268 1.349 . S
C267 C269 1.327 . S
C267 H290 0.950 . S
C268 C267 1.349 . S
C268 C280 1.349 . S
C269 C267 1.327 . S
C269 C285 1.429 . S
C269 H291 0.950 1_545 S
C270 H266 0.949 1_565 S
C270 C278 1.574 . S
C270 C286 1.368 . S
H271 C279 0.950 . S
H272 C277 0.950 . S
H273 C278 0.949 . S
H274 C280 0.950 . S
H275 C281 0.950 . S
H276 C282 0.949 . S
C277 H272 0.950 . S
C277 C279 1.327 . S
C277 C283 1.429 . S
C278 C270 1.574 . S
C278 H273 0.949 . S
C278 C284 1.368 . S
C279 C263 1.349 . S
C279 H271 0.950 . S
C279 C277 1.327 . S
C280 C268 1.349 . S
C280 H274 0.950 . S
C280 C281 1.327 . S
C281 H275 0.950 . S
C281 C280 1.327 . S
C281 C285 1.429 . S
C282 C265 1.574 . S
C282 H276 0.949 . S
C282 C286 1.368 . S
C283 C264 1.429 . S
C283 C277 1.429 . S
C283 C284 1.523 . S
C284 C265 1.368 . S
C284 C278 1.368 . S
C284 C283 1.523 . S
C285 C269 1.429 . S
C285 C281 1.429 . S
C285 C286 1.523 1_545 S
C286 C270 1.368 . S
C286 C282 1.368 . S
C286 C285 1.523 1_565 S
H287 C262 0.950 . S
H288 C264 0.950 . S
H289 C265 0.949 . S
H290 C267 0.950 . S
H291 C269 0.950 1_565 S
C292 C293 1.349 . S
C292 C294 1.327 . S
C292 H317 0.950 . S
C293 C292 1.349 . S
C293 C309 1.349 . S
C294 C292 1.327 . S
C294 C313 1.429 . S
C294 H318 0.950 . S
C295 C312 1.574 . S
C295 C314 1.368 . S
C295 H319 0.949 . S
H296 C300 0.949 . S
C297 C298 1.349 . S
C297 C299 1.327 . S
C297 H320 0.950 . S
C298 C297 1.349 . S
C298 C310 1.349 . S
C299 C297 1.327 . S
C299 C315 1.429 . S
C299 H321 0.950 . S
C300 H296 0.949 . S
C300 C308 1.574 . S
C300 C316 1.368 . S
H301 C309 0.950 . S
H302 C307 0.950 . S
H303 C308 0.949 . S
H304 C310 0.950 . S
H305 C311 0.950 . S
H306 C312 0.949 . S
C307 H302 0.950 . S
C307 C309 1.327 . S
C307 C313 1.429 . S
C308 C300 1.574 . S
C308 H303 0.949 . S
C308 C314 1.368 . S
C309 C293 1.349 . S
C309 H301 0.950 . S
C309 C307 1.327 . S
C310 C298 1.349 . S
C310 H304 0.950 . S
C310 C311 1.327 . S
C311 H305 0.950 . S
C311 C310 1.327 . S
C311 C315 1.429 . S
C312 C295 1.574 . S
C312 H306 0.949 . S
C312 C316 1.368 . S
C313 C294 1.429 . S
C313 C307 1.429 . S
C313 C314 1.523 . S
C314 C295 1.368 . S
C314 C308 1.368 . S
C314 C313 1.523 . S
C315 C299 1.429 . S
C315 C311 1.429 . S
C315 C316 1.523 1_565 S
C316 C300 1.368 . S
C316 C312 1.368 . S
C316 C315 1.523 1_545 S
H317 C292 0.950 . S
H318 C294 0.950 . S
H319 C295 0.949 . S
H320 C297 0.950 . S
H321 C299 0.950 . S
C322 C323 1.349 . S
C322 C324 1.327 . S
C322 H347 0.950 . S
C323 C322 1.349 . S
C323 C339 1.349 . S
C324 C322 1.327 . S
C324 C343 1.429 . S
C324 H348 0.950 . S
C325 C342 1.574 . S
C325 C344 1.368 . S
C325 H349 0.949 . S
H326 C330 0.949 . S
C327 C328 1.349 . S
C327 C329 1.327 . S
C327 H350 0.950 . S
C328 C327 1.349 . S
C328 C340 1.349 . S
C329 C327 1.327 . S
C329 C345 1.429 . S
C329 H351 0.950 . S
C330 H326 0.949 . S
C330 C338 1.574 . S
C330 C346 1.368 . S
H331 C339 0.950 . S
H332 C337 0.950 . S
H333 C338 0.949 . S
H334 C340 0.950 . S
H335 C341 0.950 . S
H336 C342 0.949 . S
C337 H332 0.950 . S
C337 C339 1.327 . S
C337 C343 1.429 . S
C338 C330 1.574 . S
C338 H333 0.949 . S
C338 C344 1.368 . S
C339 C323 1.349 . S
C339 H331 0.950 . S
C339 C337 1.327 . S
C340 C328 1.349 . S
C340 H334 0.950 . S
C340 C341 1.327 . S
C341 H335 0.950 . S
C341 C340 1.327 . S
C341 C345 1.429 . S
C342 C325 1.574 . S
C342 H336 0.949 . S
C342 C346 1.368 . S
C343 C324 1.429 . S
C343 C337 1.429 . S
C343 C344 1.523 . S
C344 C325 1.368 . S
C344 C338 1.368 . S
C344 C343 1.523 . S
C345 C329 1.429 . S
C345 C341 1.429 . S
C345 C346 1.523 . S
C346 C330 1.368 . S
C346 C342 1.368 . S
C346 C345 1.523 . S
H347 C322 0.950 . S
H348 C324 0.950 . S
H349 C325 0.949 . S
H350 C327 0.950 . S
H351 C329 0.950 . S
C352 C353 1.349 . S
C352 C354 1.327 . S
C352 H377 0.950 . S
C353 C352 1.349 . S
C353 C369 1.349 . S
C354 C352 1.327 . S
C354 C373 1.429 . S
C354 H378 0.950 . S
C355 C372 1.574 . S
C355 C374 1.368 . S
C355 H379 0.949 . S
H356 C360 0.949 . S
C357 C358 1.349 . S
C357 C359 1.327 . S
C357 H380 0.950 . S
C358 C357 1.349 . S
C358 C370 1.349 . S
C359 C357 1.327 . S
C359 C375 1.429 . S
C359 H381 0.950 . S
C360 H356 0.949 . S
C360 C368 1.574 . S
C360 C376 1.368 . S
H361 C369 0.950 . S
H362 C367 0.950 . S
H363 C368 0.949 . S
H364 C370 0.950 . S
H365 C371 0.950 . S
H366 C372 0.949 . S
C367 H362 0.950 . S
C367 C369 1.327 . S
C367 C373 1.429 . S
C368 C360 1.574 . S
C368 H363 0.949 . S
C368 C374 1.368 . S
C369 C353 1.349 . S
C369 H361 0.950 . S
C369 C367 1.327 . S
C370 C358 1.349 . S
C370 H364 0.950 . S
C370 C371 1.327 . S
C371 H365 0.950 . S
C371 C370 1.327 . S
C371 C375 1.429 . S
C372 C355 1.574 . S
C372 H366 0.949 . S
C372 C376 1.368 . S
C373 C354 1.429 . S
C373 C367 1.429 . S
C373 C374 1.523 . S
C374 C355 1.368 . S
C374 C368 1.368 . S
C374 C373 1.523 . S
C375 C359 1.429 . S
C375 C371 1.429 . S
C375 C376 1.523 . S
C376 C360 1.368 . S
C376 C372 1.368 . S
C376 C375 1.523 . S
H377 C352 0.950 . S
H378 C354 0.950 . S
H379 C355 0.949 . S
H380 C357 0.950 . S
H381 C359 0.950 . S
C382 C383 1.349 . S
C382 C384 1.327 . S
C382 H407 0.950 . S
C383 C382 1.349 . S
C383 C399 1.349 . S
C384 C382 1.327 . S
C384 C403 1.429 . S
C384 H408 0.950 . S
C385 C402 1.574 . S
C385 C404 1.368 . S
C385 H409 0.949 . S
H386 C390 0.949 . S
C387 C388 1.349 . S
C387 C389 1.327 . S
C387 H410 0.950 . S
C388 C387 1.349 . S
C388 C400 1.349 . S
C389 C387 1.327 . S
C389 C405 1.429 . S
C389 H411 0.950 . S
C390 H386 0.949 . S
C390 C398 1.574 . S
C390 C406 1.368 . S
H391 C399 0.950 . S
H392 C397 0.950 . S
H393 C398 0.949 . S
H394 C400 0.950 . S
H395 C401 0.950 . S
H396 C402 0.949 . S
C397 H392 0.950 . S
C397 C399 1.327 . S
C397 C403 1.429 . S
C398 C390 1.574 . S
C398 H393 0.949 . S
C398 C404 1.368 . S
C399 C383 1.349 . S
C399 H391 0.950 . S
C399 C397 1.327 . S
C400 C388 1.349 . S
C400 H394 0.950 . S
C400 C401 1.327 . S
C401 H395 0.950 . S
C401 C400 1.327 . S
C401 C405 1.429 . S
C402 C385 1.574 . S
C402 H396 0.949 . S
C402 C406 1.368 . S
C403 C384 1.429 . S
C403 C397 1.429 . S
C403 C404 1.523 . S
C404 C385 1.368 . S
C404 C398 1.368 . S
C404 C403 1.523 . S
C405 C389 1.429 . S
C405 C401 1.429 . S
C405 C406 1.523 1_565 S
C406 C390 1.368 . S
C406 C402 1.368 . S
C406 C405 1.523 1_545 S
H407 C382 0.950 . S
H408 C384 0.950 . S
H409 C385 0.949 . S
H410 C387 0.950 . S
H411 C389 0.950 . S
C412 C413 1.349 . S
C412 C414 1.327 . S
C412 H437 0.950 . S
C413 C412 1.349 . S
C413 C429 1.349 . S
C414 C412 1.327 . S
C414 C433 1.429 1_556 S
C414 H438 0.950 . S
C415 C432 1.574 . S
C415 C434 1.368 . S
C415 H439 0.949 . S
H416 C420 0.949 . S
C417 C418 1.349 . S
C417 C419 1.327 . S
C417 H440 0.950 . S
C418 C417 1.349 . S
C418 C430 1.349 . S
C419 C417 1.327 . S
C419 C435 1.429 . S
C419 H441 0.950 . S
C420 H416 0.949 . S
C420 C428 1.574 . S
C420 C436 1.368 . S
H421 C429 0.950 . S
H422 C427 0.951 . S
H423 C428 0.949 . S
H424 C430 0.950 . S
H425 C431 0.950 . S
H426 C432 0.949 . S
C427 H422 0.951 . S
C427 C429 1.325 1_554 S
C427 C433 1.429 . S
C428 C420 1.574 . S
C428 H423 0.949 . S
C428 C434 1.368 . S
C429 C413 1.349 . S
C429 H421 0.950 . S
C429 C427 1.325 1_556 S
C430 C418 1.349 . S
C430 H424 0.950 . S
C430 C431 1.327 . S
C431 H425 0.950 . S
C431 C430 1.327 . S
C431 C435 1.429 . S
C432 C415 1.574 . S
C432 H426 0.949 . S
C432 C436 1.368 . S
C433 C414 1.429 1_554 S
C433 C427 1.429 . S
C433 C434 1.523 . S
C434 C415 1.368 . S
C434 C428 1.368 . S
C434 C433 1.523 . S
C435 C419 1.429 . S
C435 C431 1.429 . S
C435 C436 1.523 . S
C436 C420 1.368 . S
C436 C432 1.368 . S
C436 C435 1.523 . S
H437 C412 0.950 . S
H438 C414 0.950 . S
H439 C415 0.949 . S
H440 C417 0.950 . S
H441 C419 0.950 . S
C442 C443 1.349 . S
C442 C444 1.327 . S
C442 H467 0.950 . S
C443 C442 1.349 . S
C443 C459 1.349 . S
C444 C442 1.327 . S
C444 C463 1.429 . S
C444 H468 0.950 . S
C445 C462 1.574 . S
C445 C464 1.368 . S
C445 H469 0.949 . S
H446 C450 0.949 . S
C447 C448 1.349 . S
C447 C449 1.327 . S
C447 H470 0.950 . S
C448 C447 1.349 . S
C448 C460 1.349 . S
C449 C447 1.327 . S
C449 C465 1.429 . S
C449 H471 0.950 . S
C450 H446 0.949 . S
C450 C458 1.574 . S
C450 C466 1.368 . S
H451 C459 0.950 . S
H452 C457 0.950 . S
H453 C458 0.949 . S
H454 C460 0.950 . S
H455 C461 0.950 . S
H456 C462 0.949 . S
C457 H452 0.950 . S
C457 C459 1.327 . S
C457 C463 1.429 . S
C458 C450 1.574 . S
C458 H453 0.949 . S
C458 C464 1.368 . S
C459 C443 1.349 . S
C459 H451 0.950 . S
C459 C457 1.327 . S
C460 C448 1.349 . S
C460 H454 0.950 . S
C460 C461 1.327 . S
C461 H455 0.950 . S
C461 C460 1.327 . S
C461 C465 1.429 . S
C462 C445 1.574 . S
C462 H456 0.949 . S
C462 C466 1.368 . S
C463 C444 1.429 . S
C463 C457 1.429 . S
C463 C464 1.523 . S
C464 C445 1.368 . S
C464 C458 1.368 . S
C464 C463 1.523 . S
C465 C449 1.429 . S
C465 C461 1.429 . S
C465 C466 1.523 . S
C466 C450 1.368 . S
C466 C462 1.368 . S
C466 C465 1.523 . S
H467 C442 0.950 . S
H468 C444 0.950 . S
H469 C445 0.949 . S
H470 C447 0.950 . S
H471 C449 0.950 . S
C472 C473 1.349 . S
C472 C474 1.327 . S
C472 H497 0.950 . S
C473 C472 1.349 . S
C473 C489 1.349 . S
C474 C472 1.327 . S
C474 C493 1.429 1_554 S
C474 H498 0.950 1_554 S
C475 C492 1.574 . S
C475 C494 1.368 . S
C475 H499 0.949 . S
H476 C480 0.949 . S
C477 C478 1.349 . S
C477 C479 1.327 . S
C477 H500 0.950 . S
C478 C477 1.349 . S
C478 C490 1.349 . S
C479 C477 1.327 . S
C479 C495 1.429 . S
C479 H501 0.950 . S
C480 H476 0.949 . S
C480 C488 1.574 . S
C480 C496 1.368 . S
H481 C489 0.950 . S
H482 C487 0.950 . S
H483 C488 0.949 . S
H484 C490 0.950 . S
H485 C491 0.950 . S
H486 C492 0.949 . S
C487 H482 0.950 . S
C487 C489 1.327 . S
C487 C493 1.429 1_554 S
C488 C480 1.574 . S
C488 H483 0.949 . S
C488 C494 1.368 . S
C489 C473 1.349 . S
C489 H481 0.950 . S
C489 C487 1.327 . S
C490 C478 1.349 . S
C490 H484 0.950 . S
C490 C491 1.327 . S
C491 H485 0.950 . S
C491 C490 1.327 . S
C491 C495 1.429 . S
C492 C475 1.574 . S
C492 H486 0.949 . S
C492 C496 1.368 . S
C493 C474 1.429 1_556 S
C493 C487 1.429 1_556 S
C493 C494 1.523 . S
C494 C475 1.368 . S
C494 C488 1.368 . S
C494 C493 1.523 . S
C495 C479 1.429 . S
C495 C491 1.429 . S
C495 C496 1.523 . S
C496 C480 1.368 . S
C496 C492 1.368 . S
C496 C495 1.523 . S
H497 C472 0.950 . S
H498 C474 0.950 1_556 S
H499 C475 0.949 . S
H500 C477 0.950 . S
H501 C479 0.950 . S
C502 C503 1.349 . S
C502 C504 1.327 . S
C502 H527 0.950 . S
C503 C502 1.349 . S
C503 C519 1.349 . S
C504 C502 1.327 . S
C504 C523 1.429 . S
C504 H528 0.950 . S
C505 C522 1.574 . S
C505 C524 1.368 . S
C505 H529 0.949 . S
H506 C510 0.949 . S
C507 C508 1.349 . S
C507 C509 1.327 . S
C507 H530 0.950 . S
C508 C507 1.349 . S
C508 C520 1.349 . S
C509 C507 1.327 . S
C509 C525 1.429 . S
C509 H531 0.950 . S
C510 H506 0.949 . S
C510 C518 1.574 . S
C510 C526 1.368 . S
H511 C519 0.950 . S
H512 C517 0.950 . S
H513 C518 0.949 . S
H514 C520 0.950 . S
H515 C521 0.950 . S
H516 C522 0.949 . S
C517 H512 0.950 . S
C517 C519 1.327 . S
C517 C523 1.429 . S
C518 C510 1.574 . S
C518 H513 0.949 . S
C518 C524 1.368 . S
C519 C503 1.349 . S
C519 H511 0.950 . S
C519 C517 1.327 . S
C520 C508 1.349 . S
C520 H514 0.950 . S
C520 C521 1.327 . S
C521 H515 0.950 . S
C521 C520 1.327 . S
C521 C525 1.429 . S
C522 C505 1.574 . S
C522 H516 0.949 . S
C522 C526 1.368 . S
C523 C504 1.429 . S
C523 C517 1.429 . S
C523 C524 1.523 . S
C524 C505 1.368 . S
C524 C518 1.368 . S
C524 C523 1.523 . S
C525 C509 1.429 . S
C525 C521 1.429 . S
C525 C526 1.523 . S
C526 C510 1.368 . S
C526 C522 1.368 . S
C526 C525 1.523 . S
H527 C502 0.950 . S
H528 C504 0.950 . S
H529 C505 0.949 . S
H530 C507 0.950 . S
H531 C509 0.950 . S
C532 C533 1.349 . S
C532 C534 1.327 . S
C532 H557 0.950 . S
C533 C532 1.349 . S
C533 C549 1.349 . S
C534 C532 1.327 . S
C534 C553 1.429 1_554 S
C534 H558 0.950 . S
C535 C552 1.574 . S
C535 C554 1.368 . S
C535 H559 0.949 . S
H536 C540 0.949 . S
C537 C538 1.349 . S
C537 C539 1.327 . S
C537 H560 0.950 . S
C538 C537 1.349 . S
C538 C550 1.349 . S
C539 C537 1.327 . S
C539 C555 1.429 . S
C539 H561 0.950 . S
C540 H536 0.949 . S
C540 C548 1.574 . S
C540 C556 1.368 . S
H541 C549 0.950 . S
H542 C547 0.950 1_556 S
H543 C548 0.949 . S
H544 C550 0.950 . S
H545 C551 0.950 . S
H546 C552 0.949 . S
C547 H542 0.950 1_554 S
C547 C549 1.327 . S
C547 C553 1.429 1_554 S
C548 C540 1.574 . S
C548 H543 0.949 . S
C548 C554 1.368 . S
C549 C533 1.349 . S
C549 H541 0.950 . S
C549 C547 1.327 . S
C550 C538 1.349 . S
C550 H544 0.950 . S
C550 C551 1.327 . S
C551 H545 0.950 . S
C551 C550 1.327 . S
C551 C555 1.429 . S
C552 C535 1.574 . S
C552 H546 0.949 . S
C552 C556 1.368 . S
C553 C534 1.429 1_556 S
C553 C547 1.429 1_556 S
C553 C554 1.523 . S
C554 C535 1.368 . S
C554 C548 1.368 . S
C554 C553 1.523 . S
C555 C539 1.429 . S
C555 C551 1.429 . S
C555 C556 1.523 . S
C556 C540 1.368 . S
C556 C552 1.368 . S
C556 C555 1.523 . S
H557 C532 0.950 . S
H558 C534 0.950 . S
H559 C535 0.949 . S
H560 C537 0.950 . S
H561 C539 0.950 . S
C562 C563 1.349 . S
C562 C564 1.327 . S
C562 H587 0.950 . S
C563 C562 1.349 . S
C563 C579 1.349 . S
C564 C562 1.327 . S
C564 C583 1.429 . S
C564 H588 0.950 . S
C565 C582 1.574 . S
C565 C584 1.368 . S
C565 H589 0.949 . S
H566 C570 0.949 . S
C567 C568 1.349 . S
C567 C569 1.327 . S
C567 H590 0.950 . S
C568 C567 1.349 . S
C568 C580 1.349 . S
C569 C567 1.327 . S
C569 C585 1.429 . S
C569 H591 0.950 . S
C570 H566 0.949 . S
C570 C578 1.574 . S
C570 C586 1.368 . S
H571 C579 0.950 . S
H572 C577 0.950 . S
H573 C578 0.949 . S
H574 C580 0.950 . S
H575 C581 0.950 . S
H576 C582 0.949 . S
C577 H572 0.950 . S
C577 C579 1.327 . S
C577 C583 1.429 . S
C578 C570 1.574 . S
C578 H573 0.949 . S
C578 C584 1.368 . S
C579 C563 1.349 . S
C579 H571 0.950 . S
C579 C577 1.327 . S
C580 C568 1.349 . S
C580 H574 0.950 . S
C580 C581 1.327 . S
C581 H575 0.950 . S
C581 C580 1.327 . S
C581 C585 1.429 . S
C582 C565 1.574 . S
C582 H576 0.949 . S
C582 C586 1.368 . S
C583 C564 1.429 . S
C583 C577 1.429 . S
C583 C584 1.523 . S
C584 C565 1.368 . S
C584 C578 1.368 . S
C584 C583 1.523 . S
C585 C569 1.429 . S
C585 C581 1.429 . S
C585 C586 1.523 . S
C586 C570 1.368 . S
C586 C582 1.368 . S
C586 C585 1.523 . S
H587 C562 0.950 . S
H588 C564 0.950 . S
H589 C565 0.949 . S
H590 C567 0.950 . S
H591 C569 0.950 . S
C592 C593 1.349 . S
C592 C594 1.327 . S
C592 H617 0.950 . S
C593 C592 1.349 . S
C593 C609 1.349 . S
C594 C592 1.327 . S
C594 C613 1.432 . S
C594 H618 0.950 1_556 S
C595 C612 1.574 . S
C595 C614 1.368 . S
C595 H619 0.949 . S
H596 C600 0.949 . S
C597 C598 1.349 . S
C597 C599 1.327 . S
C597 H620 0.950 . S
C598 C597 1.349 . S
C598 C610 1.349 . S
C599 C597 1.327 . S
C599 C615 1.429 . S
C599 H621 0.950 . S
C600 H596 0.949 . S
C600 C608 1.574 . S
C600 C616 1.368 . S
H601 C609 0.950 . S
H602 C607 0.950 . S
H603 C608 0.949 . S
H604 C610 0.950 . S
H605 C611 0.950 . S
H606 C612 0.949 . S
C607 H602 0.950 . S
C607 C609 1.327 . S
C607 C613 1.453 . S
C608 C600 1.574 . S
C608 H603 0.949 . S
C608 C614 1.368 . S
C609 C593 1.349 . S
C609 H601 0.950 . S
C609 C607 1.327 . S
C610 C598 1.349 . S
C610 H604 0.950 . S
C610 C611 1.327 . S
C611 H605 0.950 . S
C611 C610 1.327 . S
C611 C615 1.429 . S
C612 C595 1.574 . S
C612 H606 0.949 . S
C612 C616 1.368 . S
C613 C594 1.432 . S
C613 C607 1.453 . S
C613 C614 1.498 1_556 S
C614 C595 1.368 . S
C614 C608 1.368 . S
C614 C613 1.498 1_554 S
C615 C599 1.429 . S
C615 C611 1.429 . S
C615 C616 1.523 . S
C616 C600 1.368 . S
C616 C612 1.368 . S
C616 C615 1.523 . S
H617 C592 0.950 . S
H618 C594 0.950 1_554 S
H619 C595 0.949 . S
H620 C597 0.950 . S
H621 C599 0.950 . S
C622 C623 1.349 . S
C622 C624 1.327 . S
C622 H647 0.950 . S
C623 C622 1.349 . S
C623 C639 1.349 . S
C624 C622 1.327 . S
C624 C643 1.429 . S
C624 H648 0.950 . S
C625 C642 1.574 . S
C625 C644 1.368 . S
C625 H649 0.949 . S
H626 C630 0.949 . S
C627 C628 1.349 . S
C627 C629 1.327 . S
C627 H650 0.950 . S
C628 C627 1.349 . S
C628 C640 1.349 . S
C629 C627 1.327 . S
C629 C645 1.429 . S
C629 H651 0.950 . S
C630 H626 0.949 . S
C630 C638 1.574 . S
C630 C646 1.368 . S
H631 C639 0.950 . S
H632 C637 0.950 . S
H633 C638 0.949 . S
H634 C640 0.950 . S
H635 C641 0.950 . S
H636 C642 0.949 . S
C637 H632 0.950 . S
C637 C639 1.327 . S
C637 C643 1.429 . S
C638 C630 1.574 . S
C638 H633 0.949 . S
C638 C644 1.368 . S
C639 C623 1.349 . S
C639 H631 0.950 . S
C639 C637 1.327 . S
C640 C628 1.349 . S
C640 H634 0.950 . S
C640 C641 1.327 . S
C641 H635 0.950 . S
C641 C640 1.327 . S
C641 C645 1.429 . S
C642 C625 1.574 . S
C642 H636 0.949 . S
C642 C646 1.368 . S
C643 C624 1.429 . S
C643 C637 1.429 . S
C643 C644 1.523 . S
C644 C625 1.368 . S
C644 C638 1.368 . S
C644 C643 1.523 . S
C645 C629 1.429 . S
C645 C641 1.429 . S
C645 C646 1.523 . S
C646 C630 1.368 . S
C646 C642 1.368 . S
C646 C645 1.523 . S
H647 C622 0.950 . S
H648 C624 0.950 . S
H649 C625 0.949 . S
H650 C627 0.950 . S
H651 C629 0.950 . S
C652 C653 1.349 . S
C652 C654 1.327 . S
C652 H677 0.950 . S
C653 C652 1.349 . S
C653 C669 1.349 . S
C654 C652 1.327 . S
C654 C673 1.429 . S
C654 H678 0.950 . S
C655 C672 1.574 . S
C655 C674 1.368 . S
C655 H679 0.949 . S
H656 C660 0.949 . S
C657 C658 1.349 . S
C657 C659 1.327 . S
C657 H680 0.950 . S
C658 C657 1.349 . S
C658 C670 1.349 . S
C659 C657 1.327 . S
C659 C675 1.429 . S
C659 H681 0.950 . S
C660 H656 0.949 . S
C660 C668 1.574 . S
C660 C676 1.368 . S
H661 C669 0.950 . S
H662 C667 0.950 . S
H663 C668 0.949 . S
H664 C670 0.950 . S
H665 C671 0.950 . S
H666 C672 0.949 . S
C667 H662 0.950 . S
C667 C669 1.327 . S
C667 C673 1.429 . S
C668 C660 1.574 . S
C668 H663 0.949 . S
C668 C674 1.368 . S
C669 C653 1.349 . S
C669 H661 0.950 . S
C669 C667 1.327 . S
C670 C658 1.349 . S
C670 H664 0.950 . S
C670 C671 1.327 . S
C671 H665 0.950 . S
C671 C670 1.327 . S
C671 C675 1.429 . S
C672 C655 1.574 . S
C672 H666 0.949 . S
C672 C676 1.368 . S
C673 C654 1.429 . S
C673 C667 1.429 . S
C673 C674 1.523 . S
C674 C655 1.368 . S
C674 C668 1.368 . S
C674 C673 1.523 . S
C675 C659 1.429 . S
C675 C671 1.429 . S
C675 C676 1.523 . S
C676 C660 1.368 . S
C676 C672 1.368 . S
C676 C675 1.523 . S
H677 C652 0.950 . S
H678 C654 0.950 . S
H679 C655 0.949 . S
H680 C657 0.950 . S
H681 C659 0.950 . S
C682 C683 1.349 . S
C682 C684 1.327 . S
C682 H707 0.950 . S
C683 C682 1.349 . S
C683 C699 1.349 . S
C684 C682 1.327 . S
C684 C703 1.429 . S
C684 H708 0.950 . S
C685 C702 1.574 . S
C685 C704 1.368 . S
C685 H709 0.949 . S
H686 C690 0.949 . S
C687 C688 1.349 . S
C687 C689 1.327 . S
C687 H710 0.950 . S
C688 C687 1.349 . S
C688 C700 1.349 . S
C689 C687 1.327 . S
C689 C705 1.429 . S
C689 H711 0.950 . S
C690 H686 0.949 . S
C690 C698 1.574 . S
C690 C706 1.368 . S
H691 C699 0.950 . S
H692 C697 0.950 . S
H693 C698 0.949 . S
H694 C700 0.950 . S
H695 C701 0.950 . S
H696 C702 0.949 . S
C697 H692 0.950 . S
C697 C699 1.327 . S
C697 C703 1.429 . S
C698 C690 1.574 . S
C698 H693 0.949 . S
C698 C704 1.368 . S
C699 C683 1.349 . S
C699 H691 0.950 . S
C699 C697 1.327 . S
C700 C688 1.349 . S
C700 H694 0.950 . S
C700 C701 1.327 . S
C701 H695 0.950 . S
C701 C700 1.327 . S
C701 C705 1.429 . S
C702 C685 1.574 . S
C702 H696 0.949 . S
C702 C706 1.368 . S
C703 C684 1.429 . S
C703 C697 1.429 . S
C703 C704 1.523 . S
C704 C685 1.368 . S
C704 C698 1.368 . S
C704 C703 1.523 . S
C705 C689 1.429 . S
C705 C701 1.429 . S
C705 C706 1.523 . S
C706 C690 1.368 . S
C706 C702 1.368 . S
C706 C705 1.523 . S
H707 C682 0.950 . S
H708 C684 0.950 . S
H709 C685 0.949 . S
H710 C687 0.950 . S
H711 C689 0.950 . S
C712 C713 1.349 . S
C712 C714 1.327 . S
C712 H737 0.950 . S
C713 C712 1.349 . S
C713 C729 1.349 . S
C714 C712 1.327 . S
C714 C733 1.429 . S
C714 H738 0.950 . S
C715 C732 1.574 . S
C715 C734 1.368 . S
C715 H739 0.949 . S
H716 C720 0.949 . S
C717 C718 1.349 . S
C717 C719 1.327 . S
C717 H740 0.950 . S
C718 C717 1.349 . S
C718 C730 1.349 . S
C719 C717 1.327 . S
C719 C735 1.429 . S
C719 H741 0.950 . S
C720 H716 0.949 . S
C720 C728 1.574 . S
C720 C736 1.368 . S
H721 C729 0.950 . S
H722 C727 0.950 . S
H723 C728 0.949 . S
H724 C730 0.950 . S
H725 C731 0.950 . S
H726 C732 0.949 . S
C727 H722 0.950 . S
C727 C729 1.327 . S
C727 C733 1.429 . S
C728 C720 1.574 . S
C728 H723 0.949 . S
C728 C734 1.368 . S
C729 C713 1.349 . S
C729 H721 0.950 . S
C729 C727 1.327 . S
C730 C718 1.349 . S
C730 H724 0.950 . S
C730 C731 1.327 . S
C731 H725 0.950 . S
C731 C730 1.327 . S
C731 C735 1.429 . S
C732 C715 1.574 . S
C732 H726 0.949 . S
C732 C736 1.368 . S
C733 C714 1.429 . S
C733 C727 1.429 . S
C733 C734 1.523 . S
C734 C715 1.368 . S
C734 C728 1.368 . S
C734 C733 1.523 . S
C735 C719 1.429 . S
C735 C731 1.429 . S
C735 C736 1.523 . S
C736 C720 1.368 . S
C736 C732 1.368 . S
C736 C735 1.523 . S
H737 C712 0.950 . S
H738 C714 0.950 . S
H739 C715 0.949 . S
H740 C717 0.950 . S
H741 C719 0.950 . S
C742 C743 1.349 . S
C742 C744 1.327 . S
C742 H767 0.950 . S
C743 C742 1.349 . S
C743 C759 1.349 . S
C744 C742 1.327 . S
C744 C763 1.429 . S
C744 H768 0.950 . S
C745 C762 1.574 . S
C745 C764 1.368 . S
C745 H769 0.949 . S
H746 C750 0.949 . S
C747 C748 1.349 . S
C747 C749 1.327 . S
C747 H770 0.950 . S
C748 C747 1.349 . S
C748 C760 1.349 . S
C749 C747 1.327 . S
C749 C765 1.429 . S
C749 H771 0.950 . S
C750 H746 0.949 . S
C750 C758 1.574 . S
C750 C766 1.368 . S
H751 C759 0.950 . S
H752 C757 0.950 . S
H753 C758 0.949 . S
H754 C760 0.950 . S
H755 C761 0.950 . S
H756 C762 0.949 . S
C757 H752 0.950 . S
C757 C759 1.327 . S
C757 C763 1.429 . S
C758 C750 1.574 . S
C758 H753 0.949 . S
C758 C764 1.368 . S
C759 C743 1.349 . S
C759 H751 0.950 . S
C759 C757 1.327 . S
C760 C748 1.349 . S
C760 H754 0.950 . S
C760 C761 1.327 . S
C761 H755 0.950 . S
C761 C760 1.327 . S
C761 C765 1.429 . S
C762 C745 1.574 . S
C762 H756 0.949 . S
C762 C766 1.368 . S
C763 C744 1.429 . S
C763 C757 1.429 . S
C763 C764 1.523 . S
C764 C745 1.368 . S
C764 C758 1.368 . S
C764 C763 1.523 . S
C765 C749 1.429 . S
C765 C761 1.429 . S
C765 C766 1.523 . S
C766 C750 1.368 . S
C766 C762 1.368 . S
C766 C765 1.523 . S
H767 C742 0.950 . S
H768 C744 0.950 . S
H769 C745 0.949 . S
H770 C747 0.950 . S
H771 C749 0.950 . S
C772 C773 1.349 . S
C772 C774 1.327 . S
C772 H797 0.950 . S
C773 C772 1.349 . S
C773 C789 1.349 . S
C774 C772 1.327 . S
C774 C793 1.429 . S
C774 H798 0.950 . S
C775 C792 1.574 . S
C775 C794 1.368 . S
C775 H799 0.949 . S
H776 C780 0.949 . S
C777 C778 1.349 . S
C777 C779 1.327 . S
C777 H800 0.950 . S
C778 C777 1.349 . S
C778 C790 1.349 . S
C779 C777 1.327 . S
C779 C795 1.429 . S
C779 H801 0.950 . S
C780 H776 0.949 . S
C780 C788 1.574 . S
C780 C796 1.368 . S
H781 C789 0.950 . S
H782 C787 0.950 . S
H783 C788 0.949 . S
H784 C790 0.950 . S
H785 C791 0.950 . S
H786 C792 0.949 . S
C787 H782 0.950 . S
C787 C789 1.327 . S
C787 C793 1.429 . S
C788 C780 1.574 . S
C788 H783 0.949 . S
C788 C794 1.368 . S
C789 C773 1.349 . S
C789 H781 0.950 . S
C789 C787 1.327 . S
C790 C778 1.349 . S
C790 H784 0.950 . S
C790 C791 1.327 . S
C791 H785 0.950 . S
C791 C790 1.327 . S
C791 C795 1.429 . S
C792 C775 1.574 . S
C792 H786 0.949 . S
C792 C796 1.368 . S
C793 C774 1.429 . S
C793 C787 1.429 . S
C793 C794 1.523 . S
C794 C775 1.368 . S
C794 C788 1.368 . S
C794 C793 1.523 . S
C795 C779 1.429 . S
C795 C791 1.429 . S
C795 C796 1.523 . S
C796 C780 1.368 . S
C796 C792 1.368 . S
C796 C795 1.523 . S
H797 C772 0.950 . S
H798 C774 0.950 . S
H799 C775 0.949 . S
H800 C777 0.950 . S
H801 C779 0.950 . S
C802 C803 1.349 . S
C802 C804 1.327 . S
C802 H827 0.950 . S
C803 C802 1.349 . S
C803 C819 1.349 . S
C804 C802 1.327 . S
C804 C823 1.429 . S
C804 H828 0.950 . S
C805 C822 1.574 . S
C805 C824 1.368 . S
C805 H829 0.949 . S
H806 C810 0.949 . S
C807 C808 1.349 . S
C807 C809 1.327 . S
C807 H830 0.950 . S
C808 C807 1.349 . S
C808 C820 1.349 . S
C809 C807 1.327 . S
C809 C825 1.429 . S
C809 H831 0.950 . S
C810 H806 0.949 . S
C810 C818 1.574 . S
C810 C826 1.368 . S
H811 C819 0.950 . S
H812 C817 0.950 . S
H813 C818 0.949 . S
H814 C820 0.950 . S
H815 C821 0.950 . S
H816 C822 0.949 . S
C817 H812 0.950 . S
C817 C819 1.327 . S
C817 C823 1.429 . S
C818 C810 1.574 . S
C818 H813 0.949 . S
C818 C824 1.368 . S
C819 C803 1.349 . S
C819 H811 0.950 . S
C819 C817 1.327 . S
C820 C808 1.349 . S
C820 H814 0.950 . S
C820 C821 1.327 . S
C821 H815 0.950 . S
C821 C820 1.327 . S
C821 C825 1.429 . S
C822 C805 1.574 . S
C822 H816 0.949 . S
C822 C826 1.368 . S
C823 C804 1.429 . S
C823 C817 1.429 . S
C823 C824 1.523 . S
C824 C805 1.368 . S
C824 C818 1.368 . S
C824 C823 1.523 . S
C825 C809 1.429 . S
C825 C821 1.429 . S
C825 C826 1.523 . S
C826 C810 1.368 . S
C826 C822 1.368 . S
C826 C825 1.523 . S
H827 C802 0.950 . S
H828 C804 0.950 . S
H829 C805 0.949 . S
H830 C807 0.950 . S
H831 C809 0.950 . S
C832 C833 1.349 . S
C832 C834 1.327 . S
C832 H857 0.950 . S
C833 C832 1.349 . S
C833 C849 1.349 . S
C834 C832 1.327 . S
C834 C853 1.429 . S
C834 H858 0.950 . S
C835 C852 1.574 . S
C835 C854 1.368 . S
C835 H859 0.949 . S
H836 C840 0.949 . S
C837 C838 1.349 . S
C837 C839 1.327 . S
C837 H860 0.950 . S
C838 C837 1.349 . S
C838 C850 1.349 . S
C839 C837 1.327 . S
C839 C855 1.429 . S
C839 H861 0.950 . S
C840 H836 0.949 . S
C840 C848 1.574 . S
C840 C856 1.368 . S
H841 C849 0.950 . S
H842 C847 0.950 . S
H843 C848 0.949 . S
H844 C850 0.950 . S
H845 C851 0.950 . S
H846 C852 0.949 . S
C847 H842 0.950 . S
C847 C849 1.327 . S
C847 C853 1.429 . S
C848 C840 1.574 . S
C848 H843 0.949 . S
C848 C854 1.368 . S
C849 C833 1.349 . S
C849 H841 0.950 . S
C849 C847 1.327 . S
C850 C838 1.349 . S
C850 H844 0.950 . S
C850 C851 1.327 . S
C851 H845 0.950 . S
C851 C850 1.327 . S
C851 C855 1.429 . S
C852 C835 1.574 . S
C852 H846 0.949 . S
C852 C856 1.368 . S
C853 C834 1.429 . S
C853 C847 1.429 . S
C853 C854 1.523 . S
C854 C835 1.368 . S
C854 C848 1.368 . S
C854 C853 1.523 . S
C855 C839 1.429 . S
C855 C851 1.429 . S
C855 C856 1.523 . S
C856 C840 1.368 . S
C856 C852 1.368 . S
C856 C855 1.523 . S
H857 C832 0.950 . S
H858 C834 0.950 . S
H859 C835 0.949 . S
H860 C837 0.950 . S
H861 C839 0.950 . S
C862 C863 1.349 . S
C862 C864 1.327 . S
C862 H887 0.950 . S
C863 C862 1.349 . S
C863 C879 1.349 . S
C864 C862 1.327 . S
C864 C883 1.429 . S
C864 H888 0.950 . S
C865 C882 1.574 . S
C865 C884 1.368 . S
C865 H889 0.949 . S
H866 C870 0.949 . S
C867 C868 1.349 . S
C867 C869 1.327 . S
C867 H890 0.950 . S
C868 C867 1.349 . S
C868 C880 1.349 . S
C869 C867 1.327 . S
C869 C885 1.429 . S
C869 H891 0.950 . S
C870 H866 0.949 . S
C870 C878 1.574 . S
C870 C886 1.368 . S
H871 C879 0.950 . S
H872 C877 0.950 . S
H873 C878 0.949 . S
H874 C880 0.950 . S
H875 C881 0.950 . S
H876 C882 0.949 . S
C877 H872 0.950 . S
C877 C879 1.327 . S
C877 C883 1.429 . S
C878 C870 1.574 . S
C878 H873 0.949 . S
C878 C884 1.368 . S
C879 C863 1.349 . S
C879 H871 0.950 . S
C879 C877 1.327 . S
C880 C868 1.349 . S
C880 H874 0.950 . S
C880 C881 1.327 . S
C881 H875 0.950 . S
C881 C880 1.327 . S
C881 C885 1.429 . S
C882 C865 1.574 . S
C882 H876 0.949 . S
C882 C886 1.368 . S
C883 C864 1.429 . S
C883 C877 1.429 . S
C883 C884 1.523 . S
C884 C865 1.368 . S
C884 C878 1.368 . S
C884 C883 1.523 . S
C885 C869 1.429 . S
C885 C881 1.429 . S
C885 C886 1.523 . S
C886 C870 1.368 . S
C886 C882 1.368 . S
C886 C885 1.523 . S
H887 C862 0.950 . S
H888 C864 0.950 . S
H889 C865 0.949 . S
H890 C867 0.950 . S
H891 C869 0.950 . S
C173 C71 1.416 . S
C178 C104 1.354 . S
C208 C112 1.252 . S
C203 C81 1.337 . S
C238 C116 1.344 . S
C233 C49 1.414 . S
C263 C59 1.334 . S
C268 C92 1.242 . S
C298 C133 1.328 . S
C293 C27 1.394 . S
C328 C167 1.366 . S
C323 C38 1.430 . S
C353 C5 1.393 . S
C358 C155 1.318 . S
C383 C16 1.426 . S
C388 C137 1.353 . S
C418 C91 1.284 . S
C413 C15 1.411 . S
C448 C125 1.307 . S
C443 C4 1.438 . S
C478 C129 1.283 . S
C473 C37 1.413 . S
C508 C107 1.305 . S
C503 C26 1.438 . S
C538 C146 1.379 . S
C533 C60 1.490 . S
C563 C48 1.499 . S
C568 C154 1.369 . S
C598 C170 1.378 . S
C593 C82 1.492 . S
C623 C70 1.499 . S
C628 C150 1.365 . S
C658 C95 1.330 . S
C653 C10 1.484 . S
C688 C113 1.384 . S
C683 C21 1.548 . S
C713 C32 1.477 . S
C718 C128 1.329 . S
C748 C108 1.386 . S
C743 C43 1.543 . S
C778 C134 1.412 . S
C773 C54 1.587 . S
C803 C65 1.522 . S
C808 C158 1.359 . S
C833 C76 1.580 . S
C838 C171 1.412 . S
C863 C87 1.515 . S
C868 C149 1.359 . S
