# Generated by pormake.
# Topology apo, (3,6)-cn, num edge types: 1
# Building blocks:
#     Node 0, Type 0, BuildingBlock: PAMTOO_clean_linker_0, # of connection points: 3
#     Node 1, Type 0, BuildingBlock: PAMTOO_clean_linker_0, # of connection points: 3
#     Node 2, Type 0, BuildingBlock: PAMTOO_clean_linker_0, # of connection points: 3
#     Node 3, Type 0, BuildingBlock: PAMTOO_clean_linker_0, # of connection points: 3
#     Node 4, Type 0, BuildingBlock: PAMTOO_clean_linker_0, # of connection points: 3
#     Node 5, Type 0, BuildingBlock: PAMTOO_clean_linker_0, # of connection points: 3
#     Node 6, Type 0, BuildingBlock: PAMTOO_clean_linker_0, # of connection points: 3
#     Node 7, Type 0, BuildingBlock: PAMTOO_clean_linker_0, # of connection points: 3
#     Node 8, Type 1, BuildingBlock: KUMJIN_clean_sbu_1, # of connection points: 6
#     Node 9, Type 1, BuildingBlock: KUMJIN_clean_sbu_1, # of connection points: 6
#     Node 10, Type 1, BuildingBlock: KUMJIN_clean_sbu_1, # of connection points: 6
#     Node 11, Type 1, BuildingBlock: KUMJIN_clean_sbu_1, # of connection points: 6
#     Edge 12, Type (0, 1), BuildingBlock: KIFKEQ_clean_linker_1, # of connection points: 2
#     Edge 13, Type (0, 1), BuildingBlock: KIFKEQ_clean_linker_1, # of connection points: 2
#     Edge 14, Type (0, 1), BuildingBlock: KIFKEQ_clean_linker_1, # of connection points: 2
#     Edge 15, Type (0, 1), BuildingBlock: KIFKEQ_clean_linker_1, # of connection points: 2
#     Edge 16, Type (0, 1), BuildingBlock: KIFKEQ_clean_linker_1, # of connection points: 2
#     Edge 17, Type (0, 1), BuildingBlock: KIFKEQ_clean_linker_1, # of connection points: 2
#     Edge 18, Type (0, 1), BuildingBlock: KIFKEQ_clean_linker_1, # of connection points: 2
#     Edge 19, Type (0, 1), BuildingBlock: KIFKEQ_clean_linker_1, # of connection points: 2
#     Edge 20, Type (0, 1), BuildingBlock: KIFKEQ_clean_linker_1, # of connection points: 2
#     Edge 21, Type (0, 1), BuildingBlock: KIFKEQ_clean_linker_1, # of connection points: 2
#     Edge 22, Type (0, 1), BuildingBlock: KIFKEQ_clean_linker_1, # of connection points: 2
#     Edge 23, Type (0, 1), BuildingBlock: KIFKEQ_clean_linker_1, # of connection points: 2
#     Edge 24, Type (0, 1), BuildingBlock: KIFKEQ_clean_linker_1, # of connection points: 2
#     Edge 25, Type (0, 1), BuildingBlock: KIFKEQ_clean_linker_1, # of connection points: 2
#     Edge 26, Type (0, 1), BuildingBlock: KIFKEQ_clean_linker_1, # of connection points: 2
#     Edge 27, Type (0, 1), BuildingBlock: KIFKEQ_clean_linker_1, # of connection points: 2
#     Edge 28, Type (0, 1), BuildingBlock: KIFKEQ_clean_linker_1, # of connection points: 2
#     Edge 29, Type (0, 1), BuildingBlock: KIFKEQ_clean_linker_1, # of connection points: 2
#     Edge 30, Type (0, 1), BuildingBlock: KIFKEQ_clean_linker_1, # of connection points: 2
#     Edge 31, Type (0, 1), BuildingBlock: KIFKEQ_clean_linker_1, # of connection points: 2
#     Edge 32, Type (0, 1), BuildingBlock: KIFKEQ_clean_linker_1, # of connection points: 2
#     Edge 33, Type (0, 1), BuildingBlock: KIFKEQ_clean_linker_1, # of connection points: 2
#     Edge 34, Type (0, 1), BuildingBlock: KIFKEQ_clean_linker_1, # of connection points: 2
#     Edge 35, Type (0, 1), BuildingBlock: KIFKEQ_clean_linker_1, # of connection points: 2
# Relax obj value: 0.040
# Max RMSD: 0.223
# Mean RMSD: 0.161
data_MOF--net-apo--node1-KUMJIN_clean_sbu_1--node2-PAMTOO_clean_linker_0--edge1-KIFKEQ_clean_linker_1
_symmetry_space_group_name_H-M    P1
_symmetry_Int_Tables_number       1
_symmetry_cell_setting            triclinic
loop_
_symmetry_equiv_pos_as_xyz
'x, y, z'
_cell_length_a     27.817399
_cell_length_b     43.194328
_cell_length_c     51.776997
_cell_angle_alpha  89.925572
_cell_angle_beta   89.989619
_cell_angle_gamma 90.451181
loop_
_atom_site_label
_atom_site_type_symbol
_atom_site_fract_x
_atom_site_fract_y
_atom_site_fract_z
_atom_type_partial_charge
H0 H 0.36746 0.4277 0.43277 0.0
H1 H 0.29877 0.38415 0.36759 0.0
H2 H 0.28481 0.34378 0.44299 0.0
H3 H 0.3007 0.29959 0.4001 0.0
C4 C 0.28135 0.31183 0.38434 0.0
O5 O 0.26112 0.33848 0.3941 0.0
H6 H 0.30806 0.3179 0.36911 0.0
C7 C 0.34626 0.40889 0.42474 0.0
C8 C 0.3281 0.38567 0.44128 0.0
C9 C 0.3361 0.40875 0.39812 0.0
C10 C 0.30675 0.38499 0.38806 0.0
C11 C 0.2885 0.36158 0.4042 0.0
C12 C 0.29892 0.36206 0.43075 0.0
H13 H 0.16003 0.08483 0.93216 0.0
H14 H 0.22933 0.17334 0.94397 0.0
H15 H 0.22045 0.1349 0.8678 0.0
H16 H 0.31583 0.15904 0.88843 0.0
C17 C 0.30185 0.18203 0.89448 0.0
O18 O 0.25223 0.18136 0.8953 0.0
H19 H 0.31607 0.18691 0.91414 0.0
C20 C 0.17861 0.10503 0.92459 0.0
C21 C 0.18793 0.10696 0.89793 0.0
C22 C 0.19312 0.12881 0.94154 0.0
C23 C 0.21778 0.15469 0.93139 0.0
C24 C 0.22765 0.15673 0.90487 0.0
C25 C 0.21238 0.13308 0.88822 0.0
H26 H 0.86875 0.09268 0.59482 0.0
H27 H 0.79548 0.13118 0.66068 0.0
H28 H 0.78774 0.17685 0.5875 0.0
H29 H 0.79575 0.2192 0.62952 0.0
C30 C 0.78063 0.20496 0.64554 0.0
O31 O 0.76052 0.17819 0.63565 0.0
H32 H 0.8106 0.19913 0.65891 0.0
C33 C 0.84671 0.11051 0.60337 0.0
C34 C 0.83024 0.135 0.58782 0.0
C35 C 0.83437 0.10864 0.62975 0.0
C36 C 0.8047 0.13157 0.64035 0.0
C37 C 0.78786 0.15586 0.62503 0.0
C38 C 0.80028 0.15745 0.59888 0.0
H39 H 0.64147 0.41449 0.10573 0.0
H40 H 0.7324 0.33632 0.08893 0.0
H41 H 0.72403 0.37173 0.16593 0.0
H42 H 0.81954 0.35517 0.14372 0.0
C43 C 0.80926 0.33176 0.13647 0.0
O44 O 0.75985 0.32849 0.13662 0.0
H45 H 0.82277 0.32941 0.11637 0.0
C46 C 0.66646 0.39679 0.11175 0.0
C47 C 0.68093 0.39583 0.13772 0.0
C48 C 0.68514 0.37579 0.09354 0.0
C49 C 0.71683 0.35269 0.10229 0.0
C50 C 0.73023 0.35109 0.12835 0.0
C51 C 0.71278 0.37283 0.14591 0.0
H52 H 0.66623 0.58221 0.59645 0.0
H53 H 0.75349 0.66361 0.58504 0.0
H54 H 0.73742 0.62553 0.66116 0.0
H55 H 0.73186 0.69152 0.65883 0.0
C56 C 0.75773 0.69676 0.64298 0.0
O57 O 0.77728 0.66961 0.63386 0.0
H58 H 0.73756 0.70833 0.62715 0.0
C59 C 0.68862 0.60047 0.60444 0.0
C60 C 0.69885 0.60087 0.63104 0.0
C61 C 0.70773 0.62301 0.58771 0.0
C62 C 0.73862 0.64594 0.59765 0.0
C63 C 0.74917 0.64671 0.62414 0.0
C64 C 0.72954 0.6242 0.6407 0.0
H65 H 0.87698 0.92469 0.09568 0.0
H66 H 0.8086 0.87927 0.1602 0.0
H67 H 0.79717 0.84001 0.08419 0.0
H68 H 0.70793 0.83577 0.11496 0.0
C69 C 0.72359 0.83496 0.13472 0.0
O70 O 0.77304 0.83337 0.13301 0.0
H71 H 0.71302 0.85656 0.1449 0.0
C72 C 0.85546 0.90579 0.10341 0.0
C73 C 0.83883 0.8824 0.08679 0.0
C74 C 0.84456 0.90506 0.12988 0.0
C75 C 0.81724 0.88025 0.13981 0.0
C76 C 0.79979 0.85699 0.12331 0.0
C77 C 0.81044 0.85816 0.09681 0.0
H78 H 0.17067 0.92237 0.42968 0.0
H79 H 0.24117 0.83448 0.43869 0.0
H80 H 0.24094 0.87933 0.36495 0.0
H81 H 0.21779 0.81304 0.36569 0.0
C82 C 0.24492 0.80529 0.38008 0.0
O83 O 0.26835 0.83057 0.39058 0.0
H84 H 0.22554 0.79243 0.3956 0.0
C85 C 0.19139 0.90353 0.42168 0.0
C86 C 0.20402 0.90408 0.39533 0.0
C87 C 0.20465 0.87863 0.4377 0.0
C88 C 0.23127 0.85423 0.42698 0.0
C89 C 0.2439 0.85453 0.40081 0.0
C90 C 0.23057 0.8794 0.38512 0.0
H91 H 0.37646 0.59603 0.93242 0.0
H92 H 0.30159 0.6317 0.86568 0.0
H93 H 0.28939 0.67764 0.9383 0.0
H94 H 0.20042 0.67388 0.90714 0.0
C95 C 0.2164 0.67575 0.88748 0.0
O96 O 0.26564 0.67894 0.88959 0.0
H97 H 0.20741 0.65425 0.87664 0.0
C98 C 0.35296 0.61277 0.92347 0.0
C99 C 0.33351 0.63652 0.93878 0.0
C100 C 0.34191 0.61042 0.8969 0.0
C101 C 0.31173 0.6329 0.88583 0.0
C102 C 0.29323 0.65702 0.90074 0.0
C103 C 0.3039 0.65872 0.92708 0.0
Eu104 Eu 0.07266 0.12118 0.23571 0.0
C105 C 0.86455 0.1011 0.26879 0.0
N106 N 0.89149 0.12733 0.27132 0.0
C107 C 0.8277 0.15716 0.25281 0.0
C108 C 0.81889 0.10173 0.25695 0.0
C109 C 0.8723 0.15538 0.26516 0.0
C110 C 0.80129 0.13012 0.24818 0.0
C111 C 0.85243 0.04688 0.27961 0.0
C112 C 0.88098 0.07398 0.27992 0.0
C113 C 0.80811 0.047 0.26664 0.0
C114 C 0.79143 0.07435 0.25526 0.0
Eu115 Eu 0.96829 0.12127 0.29067 0.0
N116 N 0.92428 0.07444 0.29197 0.0
C117 C 0.86878 0.02075 0.29295 0.0
C118 C 0.93938 0.04966 0.30612 0.0
C119 C 0.91209 0.02232 0.30661 0.0
H120 H 0.8908 0.17656 0.27016 0.0
H121 H 0.92457 1.00246 0.31739 0.0
H122 H 0.16671 0.09025 0.26561 0.0
H123 H 0.05902 0.23423 0.18811 0.0
H124 H 0.97294 0.05096 0.3166 0.0
H125 H 0.84781 0.99951 0.29325 0.0
H126 H 0.03813 0.1795 0.1959 0.0
H127 H 0.81333 0.17944 0.24733 0.0
H128 H 0.78591 0.02629 0.26588 0.0
H129 H 0.75652 0.07434 0.24598 0.0
H130 H 0.24554 0.10696 0.28331 0.0
H131 H 0.76641 0.1316 0.23896 0.0
H132 H 0.13009 0.25751 0.20954 0.0
N133 N 0.14874 0.13514 0.25215 0.0
C134 C 0.16334 0.16487 0.24847 0.0
C135 C 0.22262 0.12351 0.2737 0.0
C136 C 0.20766 0.17551 0.25836 0.0
C137 C 0.17812 0.11412 0.26373 0.0
C138 C 0.2372 0.15444 0.27131 0.0
N139 N 0.09275 0.17284 0.22405 0.0
C140 C 0.06747 0.18981 0.20652 0.0
C141 C 0.14859 0.21531 0.22972 0.0
C142 C 0.13403 0.18445 0.2344 0.0
C143 C 0.12019 0.23369 0.21362 0.0
C144 C 0.07997 0.22067 0.20155 0.0
H145 H 0.27157 0.1617 0.27918 0.0
H146 H 0.25488 0.21534 0.26249 0.0
H147 H 0.20319 0.25021 0.23735 0.0
O148 O 0.10308 0.12226 0.19644 0.0
O149 O 0.08781 0.13858 0.27648 0.0
O150 O 0.01839 0.16295 0.28788 0.0
O151 O 0.10102 0.07897 0.21837 0.0
O152 O 1.00079 0.14344 0.22599 0.0
O153 O 0.9745 0.1638 0.26462 0.0
O154 O 0.98289 0.11715 0.33195 0.0
O155 O 0.97608 0.08013 0.26335 0.0
O156 O 0.99744 0.10484 0.22629 0.0
O157 O 0.91772 0.13905 0.3193 0.0
O158 O 0.03726 0.09651 0.30105 0.0
O159 O 0.07297 0.07953 0.26294 0.0
C160 C 0.06547 0.16118 0.28826 0.0
C161 C 0.13557 0.07637 0.17516 0.0
C162 C 0.15601 0.07231 0.12929 0.0
C163 C 0.17537 0.04287 0.13405 0.0
C164 C 0.1551 0.0469 0.17931 0.0
C165 C 0.17508 0.03039 0.15889 0.0
C166 C 0.13665 0.08922 0.15008 0.0
C167 C 0.97702 0.16442 0.23921 0.0
C168 C 0.1127 0.09284 0.19689 0.0
C169 C 0.22123 0.2066 0.25476 0.0
C170 C 0.19172 0.22647 0.2405 0.0
C171 C 0.97769 0.08114 0.23804 0.0
C172 C 0.95083 0.15542 0.35898 0.0
C173 C 0.94198 0.17116 0.40401 0.0
C174 C 0.96487 0.19945 0.39799 0.0
C175 C 0.97348 0.18372 0.35333 0.0
C176 C 0.93516 0.14922 0.38423 0.0
C177 C 0.98046 0.20562 0.37281 0.0
C178 C 0.06486 0.07727 0.28806 0.0
C179 C 0.94436 0.13173 0.33897 0.0
H180 H 0.191 0.02953 0.11851 0.0
H181 H 0.15486 0.03653 0.19838 0.0
H182 H 0.19012 0.00772 0.1623 0.0
H183 H 0.12112 0.11177 0.14658 0.0
H184 H 0.97023 0.21699 0.41266 0.0
H185 H 0.98577 0.18878 0.33393 0.0
H186 H 0.91839 0.12705 0.38852 0.0
H187 H 0.99796 0.22746 0.36837 0.0
Eu188 Eu 0.45719 0.3911 0.73606 0.0
C189 C 0.66472 0.41141 0.77099 0.0
N190 N 0.63826 0.38479 0.77161 0.0
C191 C 0.70306 0.35745 0.75153 0.0
C192 C 0.7107 0.41231 0.75951 0.0
C193 C 0.65815 0.35764 0.76366 0.0
C194 C 0.72909 0.38504 0.74898 0.0
C195 C 0.67513 0.46462 0.78516 0.0
C196 C 0.64734 0.43727 0.78364 0.0
C197 C 0.71996 0.46605 0.77274 0.0
C198 C 0.73765 0.43997 0.75987 0.0
Eu199 Eu 0.56147 0.38791 0.79153 0.0
N200 N 0.60353 0.43533 0.79513 0.0
C201 C 0.65729 0.48952 0.79948 0.0
C202 C 0.58673 0.45898 0.80998 0.0
C203 C 0.61311 0.48655 0.81217 0.0
H204 H 0.6402 0.3359 0.76728 0.0
H205 H 0.59938 0.50547 0.82362 0.0
H206 H 0.3684 0.42711 0.76656 0.0
H207 H 0.45922 0.27577 0.69175 0.0
H208 H 0.55275 0.45654 0.81992 0.0
H209 H 0.67761 0.51092 0.80117 0.0
H210 H 0.48806 0.32888 0.69931 0.0
H211 H 0.71803 0.3359 0.74469 0.0
H212 H 0.74165 0.48698 0.77341 0.0
H213 H 0.77285 0.44116 0.75094 0.0
H214 H 0.28702 0.4152 0.78344 0.0
H215 H 0.76424 0.38475 0.73997 0.0
H216 H 0.38254 0.25793 0.71107 0.0
N217 N 0.37954 0.38163 0.75238 0.0
C218 C 0.36053 0.35303 0.74815 0.0
C219 C 0.30744 0.39746 0.7737 0.0
C220 C 0.31443 0.34516 0.7575 0.0
C221 C 0.35346 0.40412 0.76424 0.0
C222 C 0.28798 0.36777 0.77052 0.0
N223 N 0.43141 0.34024 0.72523 0.0
C224 C 0.45598 0.32106 0.70907 0.0
C225 C 0.36882 0.30165 0.73 0.0
C226 C 0.3876 0.33156 0.73462 0.0
C227 C 0.3957 0.28112 0.71505 0.0
C228 C 0.4391 0.29105 0.7042 0.0
H229 H 0.25241 0.36264 0.77798 0.0
H230 H 0.26111 0.30853 0.7608 0.0
H231 H 0.30865 0.27044 0.7367 0.0
O232 O 0.42904 0.39025 0.69633 0.0
O233 O 0.44007 0.37142 0.77593 0.0
O234 O 0.50991 0.34731 0.78726 0.0
O235 O 0.43054 0.43356 0.71816 0.0
O236 O 0.52727 0.36701 0.72587 0.0
O237 O 0.55506 0.34648 0.76435 0.0
O238 O 0.55417 0.39208 0.8337 0.0
O239 O 0.55673 0.42941 0.76437 0.0
O240 O 0.53347 0.40579 0.72716 0.0
O241 O 0.60792 0.36223 0.81757 0.0
O242 O 0.49104 0.41107 0.80212 0.0
O243 O 0.46175 0.43209 0.76379 0.0
C244 C 0.4628 0.34861 0.78723 0.0
C245 C 0.3987 0.43631 0.67426 0.0
C246 C 0.37855 0.43958 0.62824 0.0
C247 C 0.3627 0.47004 0.63217 0.0
C248 C 0.38254 0.46678 0.67753 0.0
C249 C 0.36447 0.4834 0.65664 0.0
C250 C 0.39603 0.42258 0.64952 0.0
C251 C 0.55174 0.34617 0.73894 0.0
C252 C 0.41994 0.41974 0.69651 0.0
C253 C 0.29628 0.31511 0.75357 0.0
C254 C 0.32344 0.2934 0.7399 0.0
C255 C 0.5547 0.42878 0.73908 0.0
C256 C 0.62858 0.38837 0.85587 0.0
C257 C 0.65876 0.39855 0.89952 0.0
C258 C 0.70102 0.41112 0.88857 0.0
C259 C 0.67109 0.40113 0.84563 0.0
C260 C 0.62242 0.38726 0.88285 0.0
C261 C 0.70685 0.41256 0.86188 0.0
C262 C 0.4676 0.43251 0.78914 0.0
C263 C 0.59173 0.37521 0.83844 0.0
H264 H 0.34867 0.48352 0.61624 0.0
H265 H 0.38405 0.47788 0.69627 0.0
H266 H 0.35212 0.50687 0.65938 0.0
H267 H 0.40886 0.39921 0.64664 0.0
H268 H 0.7303 0.41926 0.90061 0.0
H269 H 0.6772 0.40174 0.82504 0.0
H270 H 0.5895 0.37756 0.89073 0.0
H271 H 0.73964 0.42209 0.85376 0.0
Eu272 Eu 0.0699 0.89153 0.73746 0.0
C273 C 0.8586 0.85893 0.7659 0.0
N274 N 0.87915 0.88739 0.76872 0.0
C275 C 0.80947 0.91135 0.75061 0.0
C276 C 0.81264 0.85561 0.75471 0.0
C277 C 0.85531 0.91348 0.76155 0.0
C278 C 0.7881 0.88229 0.74707 0.0
C279 C 0.86432 0.80311 0.7702 0.0
C280 C 0.8844 0.83295 0.77343 0.0
C281 C 0.8187 0.79973 0.75888 0.0
C282 C 0.79292 0.8259 0.75119 0.0
Eu283 Eu 0.95726 0.8888 0.7863 0.0
N284 N 0.9292 0.83684 0.78366 0.0
C285 C 0.89054 0.77752 0.77862 0.0
C286 C 0.95311 0.81214 0.79367 0.0
C287 C 0.93475 0.78211 0.79081 0.0
H288 H 0.87145 0.93599 0.76453 0.0
H289 H 0.95439 0.76256 0.79838 0.0
H290 H 0.15007 0.83821 0.75576 0.0
H291 H 0.08951 0.01748 0.72968 0.0
H292 H 0.9855 0.81533 0.80461 0.0
H293 H 0.8764 0.75422 0.77646 0.0
H294 H 0.04923 0.96716 0.72398 0.0
H295 H 0.79067 0.93211 0.7449 0.0
H296 H 0.80293 0.77696 0.75609 0.0
H297 H 0.75777 0.8229 0.74249 0.0
H298 H 0.23224 0.83641 0.77379 0.0
H299 H 0.7527 0.8807 0.73842 0.0
H300 H 0.17136 0.01999 0.74822 0.0
N301 N 0.14886 0.88725 0.7535 0.0
C302 C 0.17384 0.91422 0.75639 0.0
C303 C 0.21612 0.85845 0.76914 0.0
C304 C 0.22101 0.91428 0.76637 0.0
C305 C 0.16941 0.85953 0.75925 0.0
C306 C 0.24196 0.88594 0.77285 0.0
N307 N 0.1058 0.94127 0.7408 0.0
C308 C 0.08407 0.96782 0.73286 0.0
C309 C 0.17668 0.97031 0.75293 0.0
C310 C 0.15187 0.94196 0.74973 0.0
C311 C 0.15355 0.99775 0.74601 0.0
C312 C 0.10725 0.99645 0.73568 0.0
H313 H 0.27813 0.88503 0.78056 0.0
H314 H 0.28185 0.943 0.7774 0.0
H315 H 0.24304 0.992 0.76568 0.0
O316 O 0.06707 0.90236 0.69622 0.0
O317 O 0.07872 0.91344 0.77743 0.0
O318 O 0.00402 0.9317 0.78856 0.0
O319 O 0.12027 0.87051 0.71041 0.0
O320 O 1.00214 0.91749 0.72601 0.0
O321 O 0.96263 0.93338 0.76318 0.0
O322 O 0.95576 0.87852 0.8277 0.0
O323 O 0.94807 0.87217 0.74495 0.0
O324 O 0.02004 0.84965 0.73563 0.0
O325 O 0.90409 0.91007 0.81157 0.0
O326 O 0.028 0.86619 0.79827 0.0
O327 O 0.06057 0.84756 0.7605 0.0
C328 C 0.0511 0.93326 0.78955 0.0
C329 C 0.08991 0.86189 0.6685 0.0
C330 C 0.09371 0.84977 0.62242 0.0
C331 C 0.06782 0.82222 0.62728 0.0
C332 C 0.06432 0.83427 0.67285 0.0
C333 C 0.05326 0.81462 0.65232 0.0
C334 C 0.10459 0.86957 0.64329 0.0
C335 C 0.97213 0.9359 0.73827 0.0
C336 C 0.1008 0.88294 0.69007 0.0
C337 C 0.24565 0.94251 0.76968 0.0
C338 C 0.22355 0.97042 0.76299 0.0
C339 C 0.97328 0.85128 0.73278 0.0
C340 C 0.92924 0.91901 0.8545 0.0
C341 C 0.92535 0.929 0.90101 0.0
C342 C 0.9432 0.95914 0.89638 0.0
C343 C 0.94752 0.94898 0.85049 0.0
C344 C 0.91857 0.90903 0.87974 0.0
C345 C 0.95444 0.96889 0.87135 0.0
C346 C 0.05655 0.8471 0.78578 0.0
C347 C 0.92135 0.89791 0.83258 0.0
H348 H 0.05946 0.80625 0.61179 0.0
H349 H 0.0531 0.82785 0.69213 0.0
H350 H 0.03354 0.79332 0.65585 0.0
H351 H 0.12394 0.89109 0.63995 0.0
H352 H 0.94794 0.97546 0.91204 0.0
H353 H 0.95611 0.95703 0.83122 0.0
H354 H 0.90549 0.8856 0.88271 0.0
H355 H 0.96825 0.99207 0.8681 0.0
Eu356 Eu 0.47331 0.61771 0.23144 0.0
C357 C 0.67083 0.65166 0.2631 0.0
N358 N 0.64822 0.62385 0.26645 0.0
C359 C 0.71405 0.59816 0.24575 0.0
C360 C 0.71486 0.65383 0.24964 0.0
C361 C 0.6708 0.59713 0.25949 0.0
C362 C 0.73571 0.62668 0.24034 0.0
C363 C 0.67484 0.70682 0.27224 0.0
C364 C 0.65123 0.67792 0.27429 0.0
C365 C 0.71756 0.70923 0.25793 0.0
C366 C 0.73747 0.68282 0.24662 0.0
Eu367 Eu 0.57343 0.62567 0.28865 0.0
N368 N 0.609 0.67521 0.28728 0.0
C369 C 0.65481 0.73241 0.28476 0.0
C370 C 0.59025 0.69965 0.30044 0.0
C371 C 0.61263 0.72872 0.29917 0.0
H372 H 0.65643 0.57479 0.26489 0.0
H373 H 0.59727 0.74827 0.30919 0.0
H374 H 0.37235 0.63739 0.26199 0.0
H375 H 0.50903 0.51717 0.17053 0.0
H376 H 0.55749 0.69668 0.31145 0.0
H377 H 0.67189 0.75501 0.28364 0.0
H378 H 0.52276 0.56987 0.18759 0.0
H379 H 0.73109 0.57691 0.23975 0.0
H380 H 0.73587 0.73132 0.25582 0.0
H381 H 0.77101 0.68493 0.23609 0.0
H382 H 0.29362 0.61391 0.2733 0.0
H383 H 0.76948 0.62737 0.22992 0.0
H384 H 0.43642 0.48756 0.18354 0.0
N385 N 0.39734 0.59728 0.24267 0.0
C386 C 0.38655 0.56859 0.23364 0.0
C387 C 0.31956 0.60083 0.2623 0.0
C388 C 0.34217 0.55427 0.23955 0.0
C389 C 0.36408 0.61404 0.25594 0.0
C390 C 0.30875 0.57067 0.25432 0.0
N391 N 0.46137 0.56874 0.21203 0.0
C392 C 0.49203 0.55664 0.19419 0.0
C393 C 0.40964 0.52396 0.20828 0.0
C394 C 0.4199 0.55367 0.21823 0.0
C395 C 0.44285 0.5104 0.19151 0.0
C396 C 0.4839 0.52702 0.18414 0.0
H397 H 0.27426 0.56046 0.2593 0.0
H398 H 0.29876 0.51276 0.23493 0.0
H399 H 0.35783 0.48621 0.20754 0.0
O400 O 0.44576 0.62064 0.1917 0.0
O401 O 0.45472 0.59454 0.27007 0.0
O402 O 0.52694 0.58249 0.29026 0.0
O403 O 0.44669 0.6617 0.21645 0.0
O404 O 0.54834 0.59821 0.22683 0.0
O405 O 0.57172 0.58012 0.26647 0.0
O406 O 0.56385 0.63198 0.33027 0.0
O407 O 0.55635 0.66402 0.25977 0.0
O408 O 0.548 0.63594 0.22322 0.0
O409 O 0.62989 0.61295 0.31584 0.0
O410 O 0.50009 0.64426 0.29908 0.0
O411 O 0.46146 0.65654 0.26042 0.0
C412 C 0.48029 0.57881 0.28701 0.0
C413 C 0.41522 0.6686 0.17285 0.0
C414 C 0.39236 0.67511 0.12763 0.0
C415 C 0.37859 0.70562 0.1329 0.0
C416 C 0.40093 0.69918 0.17772 0.0
C417 C 0.3826 0.71749 0.15785 0.0
C418 C 0.41036 0.6565 0.14768 0.0
C419 C 0.566 0.57627 0.24146 0.0
C420 C 0.4363 0.64997 0.19392 0.0
C421 C 0.33247 0.52428 0.23039 0.0
C422 C 0.36616 0.50913 0.21484 0.0
C423 C 0.56308 0.66101 0.23485 0.0
C424 C 0.60383 0.59612 0.35677 0.0
C425 C 0.61546 0.58233 0.40213 0.0
C426 C 0.60292 0.55151 0.39609 0.0
C427 C 0.59141 0.56532 0.3512 0.0
C428 C 0.61564 0.60456 0.38218 0.0
C429 C 0.59082 0.54318 0.37084 0.0
C430 C 0.46746 0.65934 0.28564 0.0
C431 C 0.60483 0.61962 0.33625 0.0
H432 H 0.36462 0.72024 0.11766 0.0
H433 H 0.40409 0.70906 0.19687 0.0
H434 H 0.37176 0.74103 0.16178 0.0
H435 H 0.42138 0.63301 0.14354 0.0
H436 H 0.60309 0.53367 0.4108 0.0
H437 H 0.58224 0.55844 0.33169 0.0
H438 H 0.62448 0.62852 0.38636 0.0
H439 H 0.58126 0.51942 0.36644 0.0
H440 H 0.20502 0.96611 0.40606 0.0
H441 H 0.16735 0.90061 0.3463 0.0
H442 H 0.17517 0.00827 0.37929 0.0
H443 H 0.13734 0.94278 0.31952 0.0
H444 H 0.12265 0.03061 0.26993 0.0
H445 H 0.16029 0.98932 0.29498 0.0
H446 H 0.09733 0.02586 0.36472 0.0
H447 H 0.0607 0.06714 0.34008 0.0
C448 C 0.19025 0.9607 0.38723 0.0
C449 C 0.18827 0.92997 0.37841 0.0
C450 C 0.17315 0.98486 0.37187 0.0
C451 C 0.15354 0.97889 0.34732 0.0
C452 C 0.15271 0.94824 0.3382 0.0
C453 C 0.16988 0.92406 0.35357 0.0
C454 C 0.11705 0.0299 0.29063 0.0
C455 C 0.08862 0.05228 0.30293 0.0
C456 C 0.13843 1.00615 0.30496 0.0
C457 C 0.132 1.00435 0.33188 0.0
C458 C 0.10376 0.02682 0.34411 0.0
C459 C 0.08241 0.05044 0.32986 0.0
H460 H 0.36206 0.55056 0.91192 0.0
H461 H 0.36553 0.61074 0.84509 0.0
H462 H 0.39399 0.50894 0.88619 0.0
H463 H 0.39167 0.56802 0.81867 0.0
H464 H 0.48082 0.49384 0.7802 0.0
H465 H 0.45269 0.53688 0.80641 0.0
H466 H 0.37803 0.47197 0.85644 0.0
H467 H 0.41002 0.42922 0.83127 0.0
C468 C 0.36947 0.55508 0.89174 0.0
C469 C 0.36107 0.58442 0.88084 0.0
C470 C 0.3869 0.53075 0.8767 0.0
C471 C 0.39525 0.53462 0.85004 0.0
C472 C 0.38659 0.56392 0.83911 0.0
C473 C 0.37045 0.58849 0.85431 0.0
C474 C 0.45823 0.48904 0.79681 0.0
C475 C 0.44743 0.45844 0.80383 0.0
C476 C 0.44175 0.51369 0.81183 0.0
C477 C 0.41283 0.50829 0.83382 0.0
C478 C 0.40117 0.47737 0.84023 0.0
C479 C 0.41898 0.45275 0.82566 0.0
H480 H 0.73903 0.57266 0.67359 0.0
H481 H 0.60865 0.57491 0.6281 0.0
H482 H 0.70371 0.53189 0.70058 0.0
H483 H 0.57495 0.53321 0.65425 0.0
H484 H 0.56579 0.43212 0.68667 0.0
H485 H 0.60041 0.47466 0.66149 0.0
H486 H 0.62627 0.52613 0.73154 0.0
H487 H 0.58926 0.48442 0.75664 0.0
C488 C 0.70286 0.56472 0.6694 0.0
C489 C 0.67703 0.57697 0.64839 0.0
C490 C 0.68282 0.54126 0.68478 0.0
C491 C 0.63691 0.52926 0.67924 0.0
C492 C 0.61076 0.54174 0.65862 0.0
C493 C 0.63032 0.56552 0.64356 0.0
C494 C 0.57871 0.45251 0.69675 0.0
C495 C 0.5757 0.45456 0.7238 0.0
C496 C 0.59851 0.47682 0.68231 0.0
C497 C 0.61633 0.50348 0.69464 0.0
C498 C 0.61345 0.5056 0.72163 0.0
C499 C 0.59263 0.48158 0.73601 0.0
H500 H 0.89487 0.90057 0.17505 0.0
H501 H 0.83273 0.96692 0.12276 0.0
H502 H 0.92757 0.94275 0.20121 0.0
H503 H 0.86308 0.00921 0.14939 0.0
H504 H 0.96532 0.07848 0.18568 0.0
H505 H 0.93326 0.03578 0.16025 0.0
H506 H 0.91142 0.98254 0.23014 0.0
H507 H 0.94728 0.02429 0.25508 0.0
C508 C 0.88761 0.92425 0.16943 0.0
C509 C 0.86156 0.93053 0.14685 0.0
C510 C 0.90614 0.9485 0.18446 0.0
C511 C 0.89834 0.97962 0.17744 0.0
C512 C 0.87101 0.98569 0.15514 0.0
C513 C 0.85323 0.96147 0.13994 0.0
C514 C 0.95385 0.0576 0.1956 0.0
C515 C 0.95795 0.0551 0.22257 0.0
C516 C 0.9349 0.03314 0.18102 0.0
C517 C 0.91903 1.00561 0.19304 0.0
C518 C 0.92351 1.00313 0.22004 0.0
C519 C 0.94326 0.02739 0.23452 0.0
H520 H 0.92423 0.08319 0.62864 0.0
H521 H 0.78808 0.07683 0.66865 0.0
H522 H 0.95544 0.04149 0.65531 0.0
H523 H 0.82 0.03547 0.69577 0.0
H524 H 0.9187 0.98501 0.75579 0.0
H525 H 0.88386 0.02679 0.73004 0.0
H526 H 0.93945 0.98501 0.66059 0.0
H527 H 0.97378 0.94339 0.68598 0.0
C528 C 0.90076 0.07276 0.64295 0.0
C529 C 0.85345 0.08329 0.6463 0.0
C530 C 0.91877 0.04893 0.65832 0.0
C531 C 0.8901 0.03514 0.67757 0.0
C532 C 0.84306 0.04587 0.68125 0.0
C533 C 0.82485 0.06959 0.66571 0.0
C534 C 0.92303 0.98457 0.73501 0.0
C535 C 0.94908 0.96081 0.72301 0.0
C536 C 0.90307 0.00849 0.72028 0.0
C537 C 0.90924 0.00927 0.69333 0.0
C538 C 0.93473 0.98531 0.68136 0.0
C539 C 0.95426 0.96137 0.69598 0.0
H540 H 0.73707 0.43457 0.16616 0.0
H541 H 0.58886 0.41192 0.14963 0.0
H542 H 0.71106 0.47763 0.19355 0.0
H543 H 0.56285 0.45454 0.17764 0.0
H544 H 0.55038 0.51607 0.25425 0.0
H545 H 0.57868 0.47013 0.23079 0.0
H546 H 0.65625 0.52927 0.17773 0.0
H547 H 0.62666 0.57504 0.20058 0.0
C548 C 0.69896 0.43853 0.16878 0.0
C549 C 0.66488 0.42004 0.15589 0.0
C550 C 0.68418 0.46311 0.18432 0.0
C551 C 0.63508 0.46912 0.18767 0.0
C552 C 0.60091 0.45007 0.17544 0.0
C553 C 0.61572 0.4259 0.15942 0.0
C554 C 0.57393 0.51905 0.23775 0.0
C555 C 0.58657 0.54881 0.22911 0.0
C556 C 0.58977 0.49295 0.22431 0.0
C557 C 0.61959 0.49638 0.20259 0.0
C558 C 0.63347 0.52616 0.19453 0.0
C559 C 0.61659 0.55221 0.2075 0.0
H560 H 0.29159 0.4399 0.35857 0.0
H561 H 0.42695 0.4335 0.39898 0.0
H562 H 0.32463 0.48152 0.33175 0.0
H563 H 0.45994 0.47491 0.37224 0.0
H564 H 0.48882 0.57074 0.33871 0.0
H565 H 0.45318 0.52989 0.3654 0.0
H566 H 0.38323 0.49172 0.2979 0.0
H567 H 0.4198 0.5323 0.27147 0.0
C568 C 0.32852 0.44715 0.36158 0.0
C569 C 0.35648 0.43344 0.38106 0.0
C570 C 0.34747 0.47104 0.34621 0.0
C571 C 0.39488 0.48179 0.34994 0.0
C572 C 0.42298 0.46774 0.36918 0.0
C573 C 0.40405 0.44392 0.38451 0.0
C574 C 0.46572 0.5536 0.32967 0.0
C575 C 0.4562 0.55505 0.30309 0.0
C576 C 0.44537 0.53014 0.34491 0.0
C577 C 0.41516 0.50745 0.33385 0.0
C578 C 0.40545 0.50912 0.3072 0.0
C579 C 0.42595 0.5326 0.29201 0.0
H580 H 0.19703 0.04452 0.90499 0.0
H581 H 0.1425 0.11225 0.85128 0.0
H582 H 0.16637 1.0029 0.87751 0.0
H583 H 0.11247 0.07057 0.82355 0.0
H584 H 0.01137 0.98874 0.80202 0.0
H585 H 0.04739 0.03085 0.82685 0.0
H586 H 0.1785 0.97867 0.83419 0.0
H587 H 0.14198 0.93612 0.8098 0.0
C588 C 0.17862 0.0505 0.88726 0.0
C589 C 0.17189 0.08167 0.88038 0.0
C590 C 0.16149 0.02666 0.8714 0.0
C591 C 0.13687 0.03345 0.8484 0.0
C592 C 0.1309 0.06462 0.84128 0.0
C593 C 0.14843 0.08847 0.85704 0.0
C594 C 0.0478 0.98616 0.80905 0.0
C595 C 0.07369 0.95899 0.80413 0.0
C596 C 0.06863 0.01045 0.82301 0.0
C597 C 0.1158 0.00811 0.83249 0.0
C598 C 0.14192 0.98105 0.82735 0.0
C599 C 0.12112 0.95677 0.81325 0.0
H600 H 0.25279 0.14354 0.9821 0.0
H601 H 0.11098 0.10759 0.96503 0.0
H602 H 0.23919 0.13385 0.02805 0.0
H603 H 0.09771 0.09764 1.01083 0.0
H604 H 0.12624 0.04239 0.0859 0.0
H605 H 0.13181 0.05994 0.04129 0.0
H606 H 0.19012 0.14757 0.06705 0.0
H607 H 0.18487 0.12968 0.11202 0.0
C608 C 0.21842 0.13408 0.98815 0.0
C609 C 0.18325 0.12594 0.96978 0.0
C610 C 0.21062 0.12854 0.01451 0.0
C611 C 0.16756 0.11466 0.02308 0.0
C612 C 0.13163 0.10782 1.00482 0.0
C613 C 0.13932 0.11345 0.97855 0.0
C614 C 0.14001 0.06547 0.08207 0.0
C615 C 0.15543 0.08458 0.10244 0.0
C616 C 0.14283 0.07565 0.0565 0.0
C617 C 0.16147 0.10516 0.05057 0.0
C618 C 0.17594 0.12462 0.07098 0.0
C619 C 0.17259 0.11451 0.0967 0.0
H620 H 0.26752 0.37452 0.48233 0.0
H621 H 0.41431 0.39947 0.46414 0.0
H622 H 0.28414 0.38269 0.52824 0.0
H623 H 0.43073 0.40778 0.50985 0.0
H624 H 0.41412 0.4658 0.58446 0.0
H625 H 0.40497 0.44798 0.54013 0.0
H626 H 0.33085 0.36594 0.5673 0.0
H627 H 0.33994 0.38413 0.61203 0.0
C628 C 0.30354 0.38117 0.48814 0.0
C629 C 0.33933 0.38684 0.46947 0.0
C630 C 0.31309 0.38583 0.51447 0.0
C631 C 0.35861 0.39629 0.52271 0.0
C632 C 0.39501 0.40034 0.50414 0.0
C633 C 0.38554 0.39563 0.47791 0.0
C634 C 0.39627 0.44381 0.581 0.0
C635 C 0.37751 0.42645 0.60169 0.0
C636 C 0.3913 0.43346 0.55559 0.0
C637 C 0.36709 0.40553 0.55011 0.0
C638 C 0.34937 0.38767 0.57086 0.0
C639 C 0.3549 0.39792 0.59645 0.0
H640 H 0.66846 0.42927 0.06613 0.0
H641 H 0.67601 0.32995 0.05667 0.0
H642 H 0.65253 0.43505 0.02055 0.0
H643 H 0.66513 0.3361 1.01045 0.0
H644 H 0.61698 0.35214 0.92869 0.0
H645 H 0.61557 0.34734 0.97555 0.0
H646 H 0.69262 0.43436 0.98199 0.0
H647 H 0.69005 0.44039 0.93564 0.0
C648 C 0.66647 0.40853 0.05447 0.0
C649 C 0.67367 0.37907 0.06543 0.0
C650 C 0.65824 0.41195 0.02801 0.0
C651 C 0.6582 0.38614 1.01145 0.0
C652 C 0.66441 0.35659 0.02243 0.0
C653 C 0.67161 0.3531 0.04905 0.0
C654 C 0.6325 0.37063 0.94014 0.0
C655 C 0.65409 0.39651 0.92821 0.0
C656 C 0.63244 0.36762 0.9671 0.0
C657 C 0.65443 0.39026 0.98283 0.0
C658 C 0.67471 0.41653 0.97081 0.0
C659 C 0.67403 0.41976 0.944 0.0
H660 H 0.77618 0.15189 0.54586 0.0
H661 H 0.91977 0.12493 0.56771 0.0
H662 H 0.80319 0.15977 0.50149 0.0
H663 H 0.94632 0.13167 0.52318 0.0
H664 H 0.98881 0.18389 0.44934 0.0
H665 H 0.9612 0.17395 0.49327 0.0
H666 H 0.83098 0.13229 0.46338 0.0
H667 H 0.85783 0.14328 0.41942 0.0
C668 C 0.81345 0.14751 0.54118 0.0
C669 C 0.84582 0.13788 0.56039 0.0
C670 C 0.82883 0.15171 0.51568 0.0
C671 C 0.87699 0.14646 0.50877 0.0
C672 C 0.90914 0.13631 0.52789 0.0
C673 C 0.89375 0.13207 0.55337 0.0
C674 C 0.9541 0.17285 0.45213 0.0
C675 C 0.92549 0.1645 0.43083 0.0
C676 C 0.93852 0.1668 0.47733 0.0
C677 C 0.89389 0.15226 0.48188 0.0
C678 C 0.86534 0.14378 0.46058 0.0
C679 C 0.88097 0.14979 0.43537 0.0
H680 H 0.92826 0.88458 0.0659 0.0
H681 H 0.77812 0.88387 0.04537 0.0
H682 H 0.95014 0.8917 0.02071 0.0
H683 H 0.7994 0.8928 1.00014 0.0
H684 H 0.85165 0.89067 0.91741 0.0
H685 H 0.83233 0.8749 0.96137 0.0
H686 H 0.95114 0.9303 0.98974 0.0
H687 H 0.9727 0.94388 0.94588 0.0
C688 C 0.89997 0.88594 0.05157 0.0
C689 C 0.85157 0.88378 0.05902 0.0
C690 C 0.91238 0.89034 0.02567 0.0
C691 C 0.87662 0.89339 1.00659 0.0
C692 C 0.82807 0.89024 0.01408 0.0
C693 C 0.81573 0.88525 0.04001 0.0
C694 C 0.87429 0.89898 0.93297 0.0
C695 C 0.91373 0.91871 0.9279 0.0
C696 C 0.86272 0.89028 0.95832 0.0
C697 C 0.88996 0.90131 0.97935 0.0
C698 C 0.9296 0.92082 0.9742 0.0
C699 C 0.94153 0.92914 0.9489 0.0
H700 H 0.61778 0.61982 0.56753 0.0
H701 H 0.76725 0.62438 0.54558 0.0
H702 H 0.59486 0.61332 0.52246 0.0
H703 H 0.7447 0.61674 0.50033 0.0
H704 H 0.68553 0.62315 0.41841 0.0
H705 H 0.7067 0.63705 0.46261 0.0
H706 H 0.59774 0.57383 0.49113 0.0
H707 H 0.57471 0.56145 0.44713 0.0
C708 C 0.64572 0.61945 0.55295 0.0
C709 C 0.69429 0.62233 0.56001 0.0
C710 C 0.63267 0.61552 0.52713 0.0
C711 C 0.66792 0.61395 0.5077 0.0
C712 C 0.71652 0.61805 0.5147 0.0
C713 C 0.72954 0.62236 0.5406 0.0
C714 C 0.66554 0.6126 0.43411 0.0
C715 C 0.62837 0.59113 0.42911 0.0
C716 C 0.67814 0.62029 0.4595 0.0
C717 C 0.65399 0.60662 0.48055 0.0
C718 C 0.61672 0.58525 0.47549 0.0
C719 C 0.60395 0.57774 0.45017 0.0
H720 H 0.41984 0.62864 0.96355 0.0
H721 H 0.27014 0.64805 0.97787 0.0
H722 H 0.43648 0.63303 1.00979 0.0
H723 H 0.28694 0.6531 0.0239 0.0
H724 H 0.32411 0.63629 0.10803 0.0
H725 H 0.3112 0.623 0.06245 0.0
H726 H 0.43808 0.67578 0.04172 0.0
H727 H 0.45056 0.68892 0.08723 0.0
C728 C 0.39044 0.6336 0.97657 0.0
C729 C 0.34371 0.63816 0.967 0.0
C730 C 0.40003 0.63633 1.00304 0.0
C731 C 0.36304 0.64342 0.02054 0.0
C732 C 0.31615 0.64729 1.011 0.0
C733 C 0.30664 0.64477 0.98457 0.0
C734 C 0.34959 0.64445 0.09367 0.0
C735 C 0.38841 0.66342 0.10092 0.0
C736 C 0.34208 0.63711 0.06763 0.0
C737 C 0.3735 0.64846 0.04844 0.0
C738 C 0.41348 0.66642 0.056 0.0
C739 C 0.42063 0.67401 0.08198 0.0
H740 H 0.11749 0.89482 0.45813 0.0
H741 H 0.25682 0.85973 0.47975 0.0
H742 H 0.09134 0.89139 0.50294 0.0
H743 H 0.22994 0.85503 0.52443 0.0
H744 H 0.18036 0.8741 0.60663 0.0
H745 H 0.20733 0.88416 0.5625 0.0
H746 H 0.07046 0.85149 0.53349 0.0
H747 H 0.04294 0.84264 0.57752 0.0
C748 C 0.14271 0.88659 0.47246 0.0
C749 C 0.18928 0.87751 0.46527 0.0
C750 C 0.12749 0.88427 0.49814 0.0
C751 C 0.1584 0.87276 0.51733 0.0
C752 C 0.20529 0.86425 0.51024 0.0
C753 C 0.22053 0.86659 0.48454 0.0
C754 C 0.15578 0.86953 0.59085 0.0
C755 C 0.10954 0.85741 0.59564 0.0
C756 C 0.17144 0.87497 0.56552 0.0
C757 C 0.14119 0.86851 0.54439 0.0
C758 C 0.09461 0.85703 0.54926 0.0
C759 C 0.079 0.85159 0.57453 0.0
H760 H 0.25776 0.25208 0.39772 0.0
H761 H 0.22088 0.32425 0.34381 0.0
H762 H 0.20269 0.21649 0.37584 0.0
H763 H 0.16585 0.28851 0.32155 0.0
H764 H 0.04192 0.22075 0.30101 0.0
H765 H 0.09018 0.25804 0.32576 0.0
H766 H 0.2016 0.18971 0.33443 0.0
H767 H 0.15286 0.15245 0.3106 0.0
C768 C 0.23741 0.26041 0.38133 0.0
C769 C 0.24345 0.29095 0.37249 0.0
C770 C 0.20612 0.23996 0.36865 0.0
C771 C 0.18009 0.24953 0.34678 0.0
C772 C 0.18501 0.28044 0.33844 0.0
C773 C 0.21651 0.30089 0.35111 0.0
C774 C 0.07659 0.21371 0.30842 0.0
C775 C 0.0938 0.18374 0.30369 0.0
C776 C 0.10439 0.23513 0.3224 0.0
C777 C 0.1498 0.22691 0.33214 0.0
C778 C 0.1666 0.19678 0.32755 0.0
C779 C 0.13891 0.17549 0.31358 0.0
H780 H 0.34455 0.17499 0.84703 0.0
H781 H 0.29828 0.24486 0.90078 0.0
H782 H 0.37907 0.21513 0.81915 0.0
H783 H 0.33319 0.28521 0.87306 0.0
H784 H 0.37184 0.35184 0.80731 0.0
H785 H 0.32764 0.31141 0.83069 0.0
H786 H 0.44858 0.25012 0.82224 0.0
H787 H 0.49196 0.29011 0.79832 0.0
C788 C 0.34154 0.19901 0.85276 0.0
C789 C 0.31931 0.20689 0.87617 0.0
C790 C 0.36147 0.22198 0.83688 0.0
C791 C 0.35933 0.25337 0.84399 0.0
C792 C 0.33522 0.2613 0.86692 0.0
C793 C 0.31545 0.23827 0.88286 0.0
C794 C 0.38858 0.32954 0.8101 0.0
C795 C 0.43526 0.3241 0.80086 0.0
C796 C 0.36348 0.3065 0.82372 0.0
C797 C 0.38454 0.2775 0.82834 0.0
C798 C 0.431 0.27201 0.81875 0.0
C799 C 0.45609 0.29505 0.80525 0.0
H800 H 0.77371 0.21734 0.69739 0.0
H801 H 0.70275 0.23375 0.62466 0.0
H802 H 0.71478 0.24961 0.71935 0.0
H803 H 0.64268 0.26545 0.64662 0.0
H804 H 0.587 0.35144 0.69005 0.0
H805 H 0.63902 0.31545 0.66732 0.0
H806 H 0.63135 0.25246 0.73214 0.0
H807 H 0.57979 0.28883 0.75503 0.0
C808 C 0.74512 0.22767 0.68619 0.0
C809 C 0.74284 0.22337 0.65935 0.0
C810 C 0.71114 0.24595 0.69875 0.0
C811 C 0.674 0.26019 0.68474 0.0
C812 C 0.6712 0.25521 0.65793 0.0
C813 C 0.7053 0.23698 0.64537 0.0
C814 C 0.59596 0.32973 0.6993 0.0
C815 C 0.57973 0.32304 0.72439 0.0
C816 C 0.62568 0.30904 0.68625 0.0
C817 C 0.63962 0.28111 0.69795 0.0
C818 C 0.62199 0.274 0.72275 0.0
C819 C 0.5923 0.29473 0.73581 0.0
H820 H 0.7916 0.26929 0.13565 0.0
H821 H 0.87897 0.33847 0.17361 0.0
H822 H 0.82975 0.22884 0.16135 0.0
H823 H 0.9185 0.29812 0.1987 0.0
H824 H 0.94972 0.22142 0.25662 0.0
H825 H 0.9067 0.26142 0.23284 0.0
H826 H 0.90457 0.20282 0.16523 0.0
H827 H 0.94557 0.16247 0.18937 0.0
C828 C 0.81887 0.27577 0.14961 0.0
C829 C 0.8318 0.30699 0.15297 0.0
C830 C 0.84108 0.25263 0.16417 0.0
C831 C 0.87726 0.26016 0.18217 0.0
C832 C 0.89022 0.29148 0.1854 0.0
C833 C 0.86779 0.31461 0.17094 0.0
C834 C 0.93964 0.21704 0.23674 0.0
C835 C 0.95097 0.1888 0.22488 0.0
C836 C 0.91537 0.24006 0.22302 0.0
C837 C 0.90213 0.23543 0.19706 0.0
C838 C 0.91348 0.20708 0.18527 0.0
C839 C 0.93746 0.18404 0.19903 0.0
H840 H 0.81724 0.687 0.68429 0.0
H841 H 0.78461 0.75428 0.62535 0.0
H842 H 0.87402 0.72363 0.70416 0.0
H843 H 0.8414 0.79074 0.64491 0.0
H844 H 0.88784 0.85899 0.70859 0.0
H845 H 0.84037 0.82051 0.68544 0.0
H846 H 0.95161 0.75287 0.69778 0.0
H847 H 0.99899 0.79155 0.72162 0.0
C848 C 0.8229 0.70945 0.6754 0.0
C849 C 0.7965 0.71791 0.6534 0.0
C850 C 0.85544 0.73036 0.68667 0.0
C851 C 0.86194 0.76017 0.67621 0.0
C852 C 0.83671 0.76811 0.65364 0.0
C853 C 0.80439 0.74721 0.64235 0.0
C854 C 0.90235 0.83596 0.70625 0.0
C855 C 0.94713 0.82827 0.71689 0.0
C856 C 0.87529 0.81396 0.6928 0.0
C857 C 0.8923 0.78365 0.68963 0.0
C858 C 0.93745 0.77599 0.70001 0.0
C859 C 0.96476 0.79817 0.71341 0.0
H860 H 0.67771 0.78327 0.11565 0.0
H861 H 0.72591 0.82475 0.18686 0.0
H862 H 0.64081 0.74065 0.13983 0.0
H863 H 0.68998 0.78176 0.21124 0.0
H864 H 0.56748 0.72262 0.24595 0.0
H865 H 0.6099 0.76327 0.22219 0.0
H866 H 0.65715 0.69572 0.16638 0.0
H867 H 0.61443 0.6551 0.19025 0.0
C868 C 0.68073 0.78305 0.1365 0.0
C869 C 0.70397 0.80747 0.14947 0.0
C870 C 0.65987 0.75856 0.15038 0.0
C871 C 0.66202 0.75786 0.17753 0.0
C872 C 0.68681 0.78185 0.1904 0.0
C873 C 0.70764 0.80635 0.17649 0.0
C874 C 0.58721 0.71647 0.2287 0.0
C875 C 0.58787 0.68571 0.22002 0.0
C876 C 0.6117 0.73973 0.21511 0.0
C877 C 0.63716 0.73281 0.19238 0.0
C878 C 0.63751 0.70196 0.18364 0.0
C879 C 0.61303 0.67868 0.19728 0.0
H880 H 0.27934 0.74916 0.39637 0.0
H881 H 0.29094 0.81534 0.33422 0.0
H882 H 0.33422 0.71462 0.37373 0.0
H883 H 0.34689 0.78123 0.31166 0.0
H884 H 0.39696 0.6965 0.26579 0.0
H885 H 0.3454 0.73222 0.28897 0.0
H886 H 0.41692 0.70908 0.36041 0.0
H887 H 0.46779 0.67276 0.3374 0.0
C888 C 0.29398 0.75633 0.3779 0.0
C889 C 0.28054 0.78464 0.3668 0.0
C890 C 0.32565 0.73669 0.36499 0.0
C891 C 0.34479 0.74504 0.34078 0.0
C892 C 0.33216 0.77381 0.33004 0.0
C893 C 0.30043 0.79342 0.34296 0.0
C894 C 0.40174 0.69893 0.28645 0.0
C895 C 0.43644 0.68151 0.29969 0.0
C896 C 0.37235 0.71965 0.29972 0.0
C897 C 0.37696 0.72355 0.32658 0.0
C898 C 0.41193 0.70634 0.33979 0.0
C899 C 0.44129 0.68559 0.32653 0.0
H900 H 0.14287 0.71388 0.90229 0.0
H901 H 0.24251 0.69806 0.83996 0.0
H902 H 0.10613 0.7558 0.8778 0.0
H903 H 0.20687 0.74069 0.81558 0.0
H904 H 0.09369 0.79272 0.76801 0.0
H905 H 0.13424 0.75263 0.79275 0.0
H906 H 0.11913 0.8074 0.86203 0.0
H907 H 0.07775 0.84722 0.83729 0.0
C908 C 0.15731 0.71973 0.88346 0.0
C909 C 0.19579 0.70297 0.87308 0.0
C910 C 0.13646 0.74385 0.86945 0.0
C911 C 0.15354 0.75175 0.8447 0.0
C912 C 0.19238 0.73504 0.83444 0.0
C913 C 0.21311 0.71083 0.84844 0.0
C914 C 0.09941 0.79632 0.78848 0.0
C915 C 0.08266 0.8232 0.80067 0.0
C916 C 0.12283 0.77337 0.80267 0.0
C917 C 0.13007 0.77673 0.82943 0.0
C918 C 0.11361 0.8038 0.84154 0.0
C919 C 0.09004 0.8267 0.82735 0.0
loop_
_geom_bond_atom_site_label_1
_geom_bond_atom_site_label_2
_geom_bond_distance
_geom_bond_site_symmetry_2
_ccdc_geom_bond_type
H0 C7 0.929 . S
H1 C10 0.930 . S
H2 C12 0.929 . S
H3 C4 0.969 . S
C4 H3 0.969 . S
C4 O5 1.550 . S
C4 H6 0.973 . S
O5 C4 1.550 . S
O5 C11 1.412 . S
H6 C4 0.973 . S
C7 H0 0.929 . S
C7 C8 1.400 . S
C7 C9 1.364 . S
C8 C7 1.400 . S
C8 C12 1.377 . S
C9 C7 1.364 . S
C9 C10 1.374 . S
C10 H1 0.930 . S
C10 C9 1.374 . S
C10 C11 1.383 . S
C11 O5 1.412 . S
C11 C10 1.383 . S
C11 C12 1.394 . S
C12 H2 0.929 . S
C12 C8 1.377 . S
C12 C11 1.394 . S
H13 C20 0.929 . S
H14 C23 0.930 . S
H15 C25 0.929 . S
H16 C17 0.969 . S
C17 H16 0.969 . S
C17 O18 1.550 . S
C17 H19 0.973 . S
O18 C17 1.550 . S
O18 C24 1.412 . S
H19 C17 0.973 . S
C20 H13 0.929 . S
C20 C21 1.400 . S
C20 C22 1.364 . S
C21 C20 1.400 . S
C21 C25 1.377 . S
C22 C20 1.364 . S
C22 C23 1.374 . S
C23 H14 0.930 . S
C23 C22 1.374 . S
C23 C24 1.383 . S
C24 O18 1.412 . S
C24 C23 1.383 . S
C24 C25 1.394 . S
C25 H15 0.929 . S
C25 C21 1.377 . S
C25 C24 1.394 . S
H26 C33 0.929 . S
H27 C36 0.930 . S
H28 C38 0.929 . S
H29 C30 0.969 . S
C30 H29 0.969 . S
C30 O31 1.550 . S
C30 H32 0.973 . S
O31 C30 1.550 . S
O31 C37 1.412 . S
H32 C30 0.973 . S
C33 H26 0.929 . S
C33 C34 1.400 . S
C33 C35 1.364 . S
C34 C33 1.400 . S
C34 C38 1.377 . S
C35 C33 1.364 . S
C35 C36 1.374 . S
C36 H27 0.930 . S
C36 C35 1.374 . S
C36 C37 1.383 . S
C37 O31 1.412 . S
C37 C36 1.383 . S
C37 C38 1.394 . S
C38 H28 0.929 . S
C38 C34 1.377 . S
C38 C37 1.394 . S
H39 C46 0.929 . S
H40 C49 0.930 . S
H41 C51 0.929 . S
H42 C43 0.969 . S
C43 H42 0.969 . S
C43 O44 1.550 . S
C43 H45 0.973 . S
O44 C43 1.550 . S
O44 C50 1.412 . S
H45 C43 0.973 . S
C46 H39 0.929 . S
C46 C47 1.400 . S
C46 C48 1.364 . S
C47 C46 1.400 . S
C47 C51 1.377 . S
C48 C46 1.364 . S
C48 C49 1.374 . S
C49 H40 0.930 . S
C49 C48 1.374 . S
C49 C50 1.383 . S
C50 O44 1.412 . S
C50 C49 1.383 . S
C50 C51 1.394 . S
C51 H41 0.929 . S
C51 C47 1.377 . S
C51 C50 1.394 . S
H52 C59 0.929 . S
H53 C62 0.930 . S
H54 C64 0.929 . S
H55 C56 0.969 . S
C56 H55 0.969 . S
C56 O57 1.550 . S
C56 H58 0.973 . S
O57 C56 1.550 . S
O57 C63 1.412 . S
H58 C56 0.973 . S
C59 H52 0.929 . S
C59 C60 1.400 . S
C59 C61 1.364 . S
C60 C59 1.400 . S
C60 C64 1.377 . S
C61 C59 1.364 . S
C61 C62 1.374 . S
C62 H53 0.930 . S
C62 C61 1.374 . S
C62 C63 1.383 . S
C63 O57 1.412 . S
C63 C62 1.383 . S
C63 C64 1.394 . S
C64 H54 0.929 . S
C64 C60 1.377 . S
C64 C63 1.394 . S
H65 C72 0.929 . S
H66 C75 0.930 . S
H67 C77 0.929 . S
H68 C69 0.969 . S
C69 H68 0.969 . S
C69 O70 1.550 . S
C69 H71 0.973 . S
O70 C69 1.550 . S
O70 C76 1.412 . S
H71 C69 0.973 . S
C72 H65 0.929 . S
C72 C73 1.400 . S
C72 C74 1.364 . S
C73 C72 1.400 . S
C73 C77 1.377 . S
C74 C72 1.364 . S
C74 C75 1.374 . S
C75 H66 0.930 . S
C75 C74 1.374 . S
C75 C76 1.383 . S
C76 O70 1.412 . S
C76 C75 1.383 . S
C76 C77 1.394 . S
C77 H67 0.929 . S
C77 C73 1.377 . S
C77 C76 1.394 . S
H78 C85 0.929 . S
H79 C88 0.930 . S
H80 C90 0.929 . S
H81 C82 0.969 . S
C82 H81 0.969 . S
C82 O83 1.550 . S
C82 H84 0.973 . S
O83 C82 1.550 . S
O83 C89 1.412 . S
H84 C82 0.973 . S
C85 H78 0.929 . S
C85 C86 1.400 . S
C85 C87 1.364 . S
C86 C85 1.400 . S
C86 C90 1.377 . S
C87 C85 1.364 . S
C87 C88 1.374 . S
C88 H79 0.930 . S
C88 C87 1.374 . S
C88 C89 1.383 . S
C89 O83 1.412 . S
C89 C88 1.383 . S
C89 C90 1.394 . S
C90 H80 0.929 . S
C90 C86 1.377 . S
C90 C89 1.394 . S
H91 C98 0.929 . S
H92 C101 0.930 . S
H93 C103 0.929 . S
H94 C95 0.969 . S
C95 H94 0.969 . S
C95 O96 1.550 . S
C95 H97 0.973 . S
O96 C95 1.550 . S
O96 C102 1.412 . S
H97 C95 0.973 . S
C98 H91 0.929 . S
C98 C99 1.400 . S
C98 C100 1.364 . S
C99 C98 1.400 . S
C99 C103 1.377 . S
C100 C98 1.364 . S
C100 C101 1.374 . S
C101 H92 0.930 . S
C101 C100 1.374 . S
C101 C102 1.383 . S
C102 O96 1.412 . S
C102 C101 1.383 . S
C102 C103 1.394 . S
C103 H93 0.929 . S
C103 C99 1.377 . S
C103 C102 1.394 . S
Eu104 N133 2.600 . S
Eu104 N139 2.562 . S
Eu104 O148 2.462 . S
Eu104 O149 2.373 . S
Eu104 O151 2.432 . S
Eu104 O152 2.291 . S
Eu104 O156 2.335 . S
Eu104 O159 2.372 . S
Eu104 C168 2.787 . S
C105 N106 1.365 . S
C105 C108 1.405 . S
C105 C112 1.448 . S
N106 C105 1.365 . S
N106 C109 1.319 . S
N106 Eu115 2.600 . S
C107 C109 1.397 . S
C107 C110 1.367 . S
C107 H127 0.931 . S
C108 C105 1.405 . S
C108 C110 1.403 . S
C108 C114 1.439 . S
C109 N106 1.319 . S
C109 C107 1.397 . S
C109 H120 0.930 . S
C110 C107 1.367 . S
C110 C108 1.403 . S
C110 H131 0.929 . S
C111 C112 1.430 . S
C111 C113 1.387 . S
C111 C117 1.403 . S
C112 C105 1.448 . S
C112 C111 1.430 . S
C112 N116 1.351 . S
C113 C111 1.387 . S
C113 C114 1.374 . S
C113 H128 0.931 . S
C114 C108 1.439 . S
C114 C113 1.374 . S
C114 H129 0.931 . S
Eu115 N106 2.600 . S
Eu115 N116 2.562 . S
Eu115 O150 2.335 1_655 S
Eu115 O153 2.372 . S
Eu115 O154 2.462 . S
Eu115 O155 2.373 . S
Eu115 O157 2.432 . S
Eu115 O158 2.291 1_655 S
Eu115 C179 2.787 . S
N116 C112 1.351 . S
N116 Eu115 2.562 . S
N116 C118 1.325 . S
C117 C111 1.403 . S
C117 C119 1.366 . S
C117 H125 0.932 1_545 S
C118 N116 1.325 . S
C118 C119 1.416 . S
C118 H124 0.929 . S
C119 C117 1.366 . S
C119 C118 1.416 . S
C119 H121 0.930 1_545 S
H120 C109 0.930 . S
H121 C119 0.930 1_565 S
H122 C137 0.930 . S
H123 C144 0.930 . S
H124 C118 0.929 . S
H125 C117 0.932 1_565 S
H126 C140 0.929 . S
H127 C107 0.931 . S
H128 C113 0.931 . S
H129 C114 0.931 . S
H130 C135 0.931 . S
H131 C110 0.929 . S
H132 C143 0.930 . S
N133 Eu104 2.600 . S
N133 C134 1.365 . S
N133 C137 1.319 . S
C134 N133 1.365 . S
C134 C136 1.405 . S
C134 C142 1.448 . S
C135 H130 0.931 . S
C135 C137 1.397 . S
C135 C138 1.367 . S
C136 C134 1.405 . S
C136 C138 1.403 . S
C136 C169 1.439 . S
C137 H122 0.930 . S
C137 N133 1.319 . S
C137 C135 1.397 . S
C138 C135 1.367 . S
C138 C136 1.403 . S
C138 H145 0.929 . S
N139 Eu104 2.562 . S
N139 C140 1.325 . S
N139 C142 1.351 . S
C140 H126 0.929 . S
C140 N139 1.325 . S
C140 C144 1.416 . S
C141 C142 1.430 . S
C141 C143 1.404 . S
C141 C170 1.387 . S
C142 C134 1.448 . S
C142 N139 1.351 . S
C142 C141 1.430 . S
C143 H132 0.930 . S
C143 C141 1.404 . S
C143 C144 1.366 . S
C144 H123 0.930 . S
C144 C140 1.416 . S
C144 C143 1.366 . S
H145 C138 0.929 . S
H146 C169 0.931 . S
H147 C170 0.931 . S
O148 Eu104 2.462 . S
O148 C168 1.252 . S
O149 Eu104 2.373 . S
O149 C160 1.249 . S
O150 Eu115 2.335 1_455 S
O150 C160 1.264 . S
O151 Eu104 2.432 . S
O151 C168 1.268 . S
O152 Eu104 2.291 . S
O152 C167 1.255 1_455 S
O153 Eu115 2.372 . S
O153 C167 1.257 . S
O154 Eu115 2.462 . S
O154 C179 1.252 . S
O155 Eu115 2.373 . S
O155 C171 1.249 . S
O156 Eu104 2.335 . S
O156 C171 1.264 1_455 S
O157 Eu115 2.432 . S
O157 C179 1.268 . S
O158 Eu115 2.291 1_455 S
O158 C178 1.255 . S
O159 Eu104 2.372 . S
O159 C178 1.257 . S
C160 O149 1.249 . S
C160 O150 1.264 . S
C161 C164 1.382 . S
C161 C166 1.390 . S
C161 C168 1.506 . S
C162 C163 1.398 . S
C162 C166 1.392 . S
C163 C162 1.398 . S
C163 C165 1.372 . S
C163 H180 0.931 . S
C164 C161 1.382 . S
C164 C165 1.390 . S
C164 H181 0.931 . S
C165 C163 1.372 . S
C165 C164 1.390 . S
C165 H182 0.929 . S
C166 C161 1.390 . S
C166 C162 1.392 . S
C166 H183 0.930 . S
C167 O152 1.255 1_655 S
C167 O153 1.257 . S
C168 Eu104 2.787 . S
C168 O148 1.252 . S
C168 O151 1.268 . S
C168 C161 1.506 . S
C169 C136 1.439 . S
C169 H146 0.931 . S
C169 C170 1.374 . S
C170 C141 1.387 . S
C170 H147 0.931 . S
C170 C169 1.374 . S
C171 O155 1.249 . S
C171 O156 1.264 1_655 S
C172 C175 1.382 . S
C172 C176 1.390 . S
C172 C179 1.506 . S
C173 C174 1.398 . S
C173 C176 1.392 . S
C174 C173 1.398 . S
C174 C177 1.372 . S
C174 H184 0.931 . S
C175 C172 1.382 . S
C175 C177 1.390 . S
C175 H185 0.931 . S
C176 C172 1.390 . S
C176 C173 1.392 . S
C176 H186 0.930 . S
C177 C174 1.372 . S
C177 C175 1.390 . S
C177 H187 0.929 . S
C178 O158 1.255 . S
C178 O159 1.257 . S
C179 Eu115 2.787 . S
C179 O154 1.252 . S
C179 O157 1.268 . S
C179 C172 1.506 . S
H180 C163 0.931 . S
H181 C164 0.931 . S
H182 C165 0.929 . S
H183 C166 0.930 . S
H184 C174 0.931 . S
H185 C175 0.931 . S
H186 C176 0.930 . S
H187 C177 0.929 . S
Eu188 N217 2.600 . S
Eu188 N223 2.562 . S
Eu188 O232 2.462 . S
Eu188 O233 2.373 . S
Eu188 O235 2.432 . S
Eu188 O236 2.291 . S
Eu188 O240 2.335 . S
Eu188 O243 2.372 . S
Eu188 C252 2.787 . S
C189 N190 1.365 . S
C189 C192 1.405 . S
C189 C196 1.448 . S
N190 C189 1.365 . S
N190 C193 1.319 . S
N190 Eu199 2.600 . S
C191 C193 1.397 . S
C191 C194 1.367 . S
C191 H211 0.931 . S
C192 C189 1.405 . S
C192 C194 1.403 . S
C192 C198 1.439 . S
C193 N190 1.319 . S
C193 C191 1.397 . S
C193 H204 0.930 . S
C194 C191 1.367 . S
C194 C192 1.403 . S
C194 H215 0.929 . S
C195 C196 1.430 . S
C195 C197 1.387 . S
C195 C201 1.404 . S
C196 C189 1.448 . S
C196 C195 1.430 . S
C196 N200 1.351 . S
C197 C195 1.387 . S
C197 C198 1.374 . S
C197 H212 0.931 . S
C198 C192 1.439 . S
C198 C197 1.374 . S
C198 H213 0.931 . S
Eu199 N190 2.600 . S
Eu199 N200 2.562 . S
Eu199 O234 2.335 . S
Eu199 O237 2.372 . S
Eu199 O238 2.462 . S
Eu199 O239 2.373 . S
Eu199 O241 2.432 . S
Eu199 O242 2.291 . S
Eu199 C263 2.787 . S
N200 C196 1.351 . S
N200 Eu199 2.562 . S
N200 C202 1.325 . S
C201 C195 1.404 . S
C201 C203 1.366 . S
C201 H209 0.930 . S
C202 N200 1.325 . S
C202 C203 1.416 . S
C202 H208 0.929 . S
C203 C201 1.366 . S
C203 C202 1.416 . S
C203 H205 0.930 . S
H204 C193 0.930 . S
H205 C203 0.930 . S
H206 C221 0.930 . S
H207 C228 0.930 . S
H208 C202 0.929 . S
H209 C201 0.930 . S
H210 C224 0.929 . S
H211 C191 0.931 . S
H212 C197 0.931 . S
H213 C198 0.931 . S
H214 C219 0.931 . S
H215 C194 0.929 . S
H216 C227 0.930 . S
N217 Eu188 2.600 . S
N217 C218 1.365 . S
N217 C221 1.319 . S
C218 N217 1.365 . S
C218 C220 1.405 . S
C218 C226 1.448 . S
C219 H214 0.931 . S
C219 C221 1.397 . S
C219 C222 1.367 . S
C220 C218 1.405 . S
C220 C222 1.403 . S
C220 C253 1.439 . S
C221 H206 0.930 . S
C221 N217 1.319 . S
C221 C219 1.397 . S
C222 C219 1.367 . S
C222 C220 1.403 . S
C222 H229 0.929 . S
N223 Eu188 2.562 . S
N223 C224 1.325 . S
N223 C226 1.351 . S
C224 H210 0.929 . S
C224 N223 1.325 . S
C224 C228 1.416 . S
C225 C226 1.430 . S
C225 C227 1.404 . S
C225 C254 1.387 . S
C226 C218 1.448 . S
C226 N223 1.351 . S
C226 C225 1.430 . S
C227 H216 0.930 . S
C227 C225 1.404 . S
C227 C228 1.366 . S
C228 H207 0.930 . S
C228 C224 1.416 . S
C228 C227 1.366 . S
H229 C222 0.929 . S
H230 C253 0.931 . S
H231 C254 0.931 . S
O232 Eu188 2.462 . S
O232 C252 1.252 . S
O233 Eu188 2.373 . S
O233 C244 1.249 . S
O234 Eu199 2.335 . S
O234 C244 1.264 . S
O235 Eu188 2.432 . S
O235 C252 1.268 . S
O236 Eu188 2.291 . S
O236 C251 1.255 . S
O237 Eu199 2.372 . S
O237 C251 1.257 . S
O238 Eu199 2.462 . S
O238 C263 1.252 . S
O239 Eu199 2.373 . S
O239 C255 1.249 . S
O240 Eu188 2.335 . S
O240 C255 1.264 . S
O241 Eu199 2.432 . S
O241 C263 1.268 . S
O242 Eu199 2.291 . S
O242 C262 1.255 . S
O243 Eu188 2.372 . S
O243 C262 1.257 . S
C244 O233 1.249 . S
C244 O234 1.264 . S
C245 C248 1.382 . S
C245 C250 1.390 . S
C245 C252 1.506 . S
C246 C247 1.398 . S
C246 C250 1.392 . S
C247 C246 1.398 . S
C247 C249 1.372 . S
C247 H264 0.931 . S
C248 C245 1.382 . S
C248 C249 1.390 . S
C248 H265 0.931 . S
C249 C247 1.372 . S
C249 C248 1.390 . S
C249 H266 0.929 . S
C250 C245 1.390 . S
C250 C246 1.392 . S
C250 H267 0.930 . S
C251 O236 1.255 . S
C251 O237 1.257 . S
C252 Eu188 2.787 . S
C252 O232 1.252 . S
C252 O235 1.268 . S
C252 C245 1.506 . S
C253 C220 1.439 . S
C253 H230 0.931 . S
C253 C254 1.374 . S
C254 C225 1.387 . S
C254 H231 0.931 . S
C254 C253 1.374 . S
C255 O239 1.249 . S
C255 O240 1.264 . S
C256 C259 1.382 . S
C256 C260 1.390 . S
C256 C263 1.506 . S
C257 C258 1.398 . S
C257 C260 1.392 . S
C258 C257 1.398 . S
C258 C261 1.372 . S
C258 H268 0.931 . S
C259 C256 1.382 . S
C259 C261 1.390 . S
C259 H269 0.931 . S
C260 C256 1.390 . S
C260 C257 1.392 . S
C260 H270 0.930 . S
C261 C258 1.372 . S
C261 C259 1.390 . S
C261 H271 0.929 . S
C262 O242 1.255 . S
C262 O243 1.257 . S
C263 Eu199 2.787 . S
C263 O238 1.252 . S
C263 O241 1.268 . S
C263 C256 1.506 . S
H264 C247 0.931 . S
H265 C248 0.931 . S
H266 C249 0.929 . S
H267 C250 0.930 . S
H268 C258 0.931 . S
H269 C259 0.931 . S
H270 C260 0.930 . S
H271 C261 0.929 . S
Eu272 N301 2.600 . S
Eu272 N307 2.562 . S
Eu272 O316 2.462 . S
Eu272 O317 2.373 . S
Eu272 O319 2.432 . S
Eu272 O320 2.291 . S
Eu272 O324 2.335 . S
Eu272 O327 2.372 . S
Eu272 C336 2.787 . S
C273 N274 1.365 . S
C273 C276 1.405 . S
C273 C280 1.448 . S
N274 C273 1.365 . S
N274 C277 1.319 . S
N274 Eu283 2.600 . S
C275 C277 1.397 . S
C275 C278 1.367 . S
C275 H295 0.931 . S
C276 C273 1.405 . S
C276 C278 1.403 . S
C276 C282 1.439 . S
C277 N274 1.319 . S
C277 C275 1.397 . S
C277 H288 0.930 . S
C278 C275 1.367 . S
C278 C276 1.403 . S
C278 H299 0.929 . S
C279 C280 1.430 . S
C279 C281 1.387 . S
C279 C285 1.404 . S
C280 C273 1.448 . S
C280 C279 1.430 . S
C280 N284 1.351 . S
C281 C279 1.387 . S
C281 C282 1.374 . S
C281 H296 0.931 . S
C282 C276 1.439 . S
C282 C281 1.374 . S
C282 H297 0.931 . S
Eu283 N274 2.600 . S
Eu283 N284 2.562 . S
Eu283 O318 2.335 1_655 S
Eu283 O321 2.372 . S
Eu283 O322 2.462 . S
Eu283 O323 2.373 . S
Eu283 O325 2.432 . S
Eu283 O326 2.291 1_655 S
Eu283 C347 2.787 . S
N284 C280 1.351 . S
N284 Eu283 2.562 . S
N284 C286 1.325 . S
C285 C279 1.404 . S
C285 C287 1.366 . S
C285 H293 0.930 . S
C286 N284 1.325 . S
C286 C287 1.416 . S
C286 H292 0.929 . S
C287 C285 1.366 . S
C287 C286 1.416 . S
C287 H289 0.930 . S
H288 C277 0.930 . S
H289 C287 0.930 . S
H290 C305 0.930 . S
H291 C312 0.930 1_545 S
H292 C286 0.929 . S
H293 C285 0.930 . S
H294 C308 0.929 . S
H295 C275 0.931 . S
H296 C281 0.931 . S
H297 C282 0.931 . S
H298 C303 0.931 . S
H299 C278 0.929 . S
H300 C311 0.932 1_545 S
N301 Eu272 2.600 . S
N301 C302 1.365 . S
N301 C305 1.319 . S
C302 N301 1.365 . S
C302 C304 1.405 . S
C302 C310 1.448 . S
C303 H298 0.931 . S
C303 C305 1.397 . S
C303 C306 1.367 . S
C304 C302 1.405 . S
C304 C306 1.403 . S
C304 C337 1.439 . S
C305 H290 0.930 . S
C305 N301 1.319 . S
C305 C303 1.397 . S
C306 C303 1.367 . S
C306 C304 1.403 . S
C306 H313 0.929 . S
N307 Eu272 2.562 . S
N307 C308 1.325 . S
N307 C310 1.351 . S
C308 H294 0.929 . S
C308 N307 1.325 . S
C308 C312 1.416 . S
C309 C310 1.430 . S
C309 C311 1.403 . S
C309 C338 1.387 . S
C310 C302 1.448 . S
C310 N307 1.351 . S
C310 C309 1.430 . S
C311 H300 0.932 1_565 S
C311 C309 1.403 . S
C311 C312 1.366 . S
C312 H291 0.930 1_565 S
C312 C308 1.416 . S
C312 C311 1.366 . S
H313 C306 0.929 . S
H314 C337 0.931 . S
H315 C338 0.931 . S
O316 Eu272 2.462 . S
O316 C336 1.252 . S
O317 Eu272 2.373 . S
O317 C328 1.249 . S
O318 Eu283 2.335 1_455 S
O318 C328 1.264 . S
O319 Eu272 2.432 . S
O319 C336 1.268 . S
O320 Eu272 2.291 . S
O320 C335 1.255 1_455 S
O321 Eu283 2.372 . S
O321 C335 1.257 . S
O322 Eu283 2.462 . S
O322 C347 1.252 . S
O323 Eu283 2.373 . S
O323 C339 1.249 . S
O324 Eu272 2.335 . S
O324 C339 1.264 1_455 S
O325 Eu283 2.432 . S
O325 C347 1.268 . S
O326 Eu283 2.291 1_455 S
O326 C346 1.255 . S
O327 Eu272 2.372 . S
O327 C346 1.257 . S
C328 O317 1.249 . S
C328 O318 1.264 . S
C329 C332 1.382 . S
C329 C334 1.390 . S
C329 C336 1.506 . S
C330 C331 1.398 . S
C330 C334 1.392 . S
C331 C330 1.398 . S
C331 C333 1.372 . S
C331 H348 0.931 . S
C332 C329 1.382 . S
C332 C333 1.390 . S
C332 H349 0.931 . S
C333 C331 1.372 . S
C333 C332 1.390 . S
C333 H350 0.929 . S
C334 C329 1.390 . S
C334 C330 1.392 . S
C334 H351 0.930 . S
C335 O320 1.255 1_655 S
C335 O321 1.257 . S
C336 Eu272 2.787 . S
C336 O316 1.252 . S
C336 O319 1.268 . S
C336 C329 1.506 . S
C337 C304 1.439 . S
C337 H314 0.931 . S
C337 C338 1.374 . S
C338 C309 1.387 . S
C338 H315 0.931 . S
C338 C337 1.374 . S
C339 O323 1.249 . S
C339 O324 1.264 1_655 S
C340 C343 1.382 . S
C340 C344 1.390 . S
C340 C347 1.506 . S
C341 C342 1.398 . S
C341 C344 1.392 . S
C342 C341 1.398 . S
C342 C345 1.372 . S
C342 H352 0.931 . S
C343 C340 1.382 . S
C343 C345 1.390 . S
C343 H353 0.931 . S
C344 C340 1.390 . S
C344 C341 1.392 . S
C344 H354 0.930 . S
C345 C342 1.372 . S
C345 C343 1.390 . S
C345 H355 0.929 . S
C346 O326 1.255 . S
C346 O327 1.257 . S
C347 Eu283 2.787 . S
C347 O322 1.252 . S
C347 O325 1.268 . S
C347 C340 1.506 . S
H348 C331 0.931 . S
H349 C332 0.931 . S
H350 C333 0.929 . S
H351 C334 0.930 . S
H352 C342 0.931 . S
H353 C343 0.931 . S
H354 C344 0.930 . S
H355 C345 0.929 . S
Eu356 N385 2.600 . S
Eu356 N391 2.562 . S
Eu356 O400 2.462 . S
Eu356 O401 2.373 . S
Eu356 O403 2.432 . S
Eu356 O404 2.291 . S
Eu356 O408 2.335 . S
Eu356 O411 2.372 . S
Eu356 C420 2.787 . S
C357 N358 1.365 . S
C357 C360 1.405 . S
C357 C364 1.448 . S
N358 C357 1.365 . S
N358 C361 1.319 . S
N358 Eu367 2.600 . S
C359 C361 1.397 . S
C359 C362 1.367 . S
C359 H379 0.931 . S
C360 C357 1.405 . S
C360 C362 1.403 . S
C360 C366 1.439 . S
C361 N358 1.319 . S
C361 C359 1.397 . S
C361 H372 0.930 . S
C362 C359 1.367 . S
C362 C360 1.403 . S
C362 H383 0.929 . S
C363 C364 1.430 . S
C363 C365 1.387 . S
C363 C369 1.404 . S
C364 C357 1.448 . S
C364 C363 1.430 . S
C364 N368 1.351 . S
C365 C363 1.387 . S
C365 C366 1.374 . S
C365 H380 0.931 . S
C366 C360 1.439 . S
C366 C365 1.374 . S
C366 H381 0.931 . S
Eu367 N358 2.600 . S
Eu367 N368 2.562 . S
Eu367 O402 2.335 . S
Eu367 O405 2.372 . S
Eu367 O406 2.462 . S
Eu367 O407 2.373 . S
Eu367 O409 2.432 . S
Eu367 O410 2.291 . S
Eu367 C431 2.787 . S
N368 C364 1.351 . S
N368 Eu367 2.562 . S
N368 C370 1.325 . S
C369 C363 1.404 . S
C369 C371 1.366 . S
C369 H377 0.930 . S
C370 N368 1.325 . S
C370 C371 1.416 . S
C370 H376 0.929 . S
C371 C369 1.366 . S
C371 C370 1.416 . S
C371 H373 0.930 . S
H372 C361 0.930 . S
H373 C371 0.930 . S
H374 C389 0.930 . S
H375 C396 0.930 . S
H376 C370 0.929 . S
H377 C369 0.930 . S
H378 C392 0.929 . S
H379 C359 0.931 . S
H380 C365 0.931 . S
H381 C366 0.931 . S
H382 C387 0.931 . S
H383 C362 0.929 . S
H384 C395 0.930 . S
N385 Eu356 2.600 . S
N385 C386 1.365 . S
N385 C389 1.319 . S
C386 N385 1.365 . S
C386 C388 1.405 . S
C386 C394 1.448 . S
C387 H382 0.931 . S
C387 C389 1.397 . S
C387 C390 1.367 . S
C388 C386 1.405 . S
C388 C390 1.403 . S
C388 C421 1.439 . S
C389 H374 0.930 . S
C389 N385 1.319 . S
C389 C387 1.397 . S
C390 C387 1.367 . S
C390 C388 1.403 . S
C390 H397 0.929 . S
N391 Eu356 2.562 . S
N391 C392 1.325 . S
N391 C394 1.351 . S
C392 H378 0.929 . S
C392 N391 1.325 . S
C392 C396 1.416 . S
C393 C394 1.430 . S
C393 C395 1.404 . S
C393 C422 1.387 . S
C394 C386 1.448 . S
C394 N391 1.351 . S
C394 C393 1.430 . S
C395 H384 0.930 . S
C395 C393 1.404 . S
C395 C396 1.366 . S
C396 H375 0.930 . S
C396 C392 1.416 . S
C396 C395 1.366 . S
H397 C390 0.929 . S
H398 C421 0.931 . S
H399 C422 0.931 . S
O400 Eu356 2.462 . S
O400 C420 1.252 . S
O401 Eu356 2.373 . S
O401 C412 1.249 . S
O402 Eu367 2.335 . S
O402 C412 1.264 . S
O403 Eu356 2.432 . S
O403 C420 1.268 . S
O404 Eu356 2.291 . S
O404 C419 1.255 . S
O405 Eu367 2.372 . S
O405 C419 1.257 . S
O406 Eu367 2.462 . S
O406 C431 1.252 . S
O407 Eu367 2.373 . S
O407 C423 1.249 . S
O408 Eu356 2.335 . S
O408 C423 1.264 . S
O409 Eu367 2.432 . S
O409 C431 1.268 . S
O410 Eu367 2.291 . S
O410 C430 1.255 . S
O411 Eu356 2.372 . S
O411 C430 1.257 . S
C412 O401 1.249 . S
C412 O402 1.264 . S
C413 C416 1.382 . S
C413 C418 1.390 . S
C413 C420 1.506 . S
C414 C415 1.398 . S
C414 C418 1.392 . S
C415 C414 1.398 . S
C415 C417 1.372 . S
C415 H432 0.931 . S
C416 C413 1.382 . S
C416 C417 1.390 . S
C416 H433 0.931 . S
C417 C415 1.372 . S
C417 C416 1.390 . S
C417 H434 0.929 . S
C418 C413 1.390 . S
C418 C414 1.392 . S
C418 H435 0.930 . S
C419 O404 1.255 . S
C419 O405 1.257 . S
C420 Eu356 2.787 . S
C420 O400 1.252 . S
C420 O403 1.268 . S
C420 C413 1.506 . S
C421 C388 1.439 . S
C421 H398 0.931 . S
C421 C422 1.374 . S
C422 C393 1.387 . S
C422 H399 0.931 . S
C422 C421 1.374 . S
C423 O407 1.249 . S
C423 O408 1.264 . S
C424 C427 1.382 . S
C424 C428 1.390 . S
C424 C431 1.506 . S
C425 C426 1.398 . S
C425 C428 1.392 . S
C426 C425 1.398 . S
C426 C429 1.372 . S
C426 H436 0.931 . S
C427 C424 1.382 . S
C427 C429 1.390 . S
C427 H437 0.931 . S
C428 C424 1.390 . S
C428 C425 1.392 . S
C428 H438 0.930 . S
C429 C426 1.372 . S
C429 C427 1.390 . S
C429 H439 0.929 . S
C430 O410 1.255 . S
C430 O411 1.257 . S
C431 Eu367 2.787 . S
C431 O406 1.252 . S
C431 O409 1.268 . S
C431 C424 1.506 . S
H432 C415 0.931 . S
H433 C416 0.931 . S
H434 C417 0.929 . S
H435 C418 0.930 . S
H436 C426 0.931 . S
H437 C427 0.931 . S
H438 C428 0.930 . S
H439 C429 0.929 . S
H440 C448 0.950 . S
H441 C453 0.950 . S
H442 C450 0.956 . S
H443 C452 0.950 . S
H444 C454 0.950 1_565 S
H445 C456 0.950 . S
H446 C458 0.950 . S
H447 C459 0.950 . S
C448 H440 0.950 . S
C448 C449 1.386 . S
C448 C450 1.391 . S
C449 C448 1.386 . S
C449 C453 1.393 . S
C450 H442 0.956 . S
C450 C448 1.391 . S
C450 C451 1.400 . S
C451 C450 1.400 . S
C451 C452 1.398 . S
C451 C457 1.491 . S
C452 H443 0.950 . S
C452 C451 1.398 . S
C452 C453 1.391 . S
C453 H441 0.950 . S
C453 C449 1.393 . S
C453 C452 1.391 . S
C454 H444 0.950 1_545 S
C454 C455 1.386 . S
C454 C456 1.391 1_545 S
C455 C454 1.386 . S
C455 C459 1.393 . S
C456 H445 0.950 . S
C456 C454 1.391 1_565 S
C456 C457 1.400 . S
C457 C451 1.491 . S
C457 C456 1.400 . S
C457 C458 1.398 1_565 S
C458 H446 0.950 . S
C458 C457 1.398 1_545 S
C458 C459 1.391 . S
C459 H447 0.950 . S
C459 C455 1.393 . S
C459 C458 1.391 . S
H460 C468 0.950 . S
H461 C473 0.950 . S
H462 C470 0.950 . S
H463 C472 0.950 . S
H464 C474 0.950 . S
H465 C476 0.950 . S
H466 C478 0.950 . S
H467 C479 0.950 . S
C468 H460 0.950 . S
C468 C469 1.386 . S
C468 C470 1.391 . S
C469 C468 1.386 . S
C469 C473 1.393 . S
C470 H462 0.950 . S
C470 C468 1.391 . S
C470 C471 1.400 . S
C471 C470 1.400 . S
C471 C472 1.398 . S
C471 C477 1.491 . S
C472 H463 0.950 . S
C472 C471 1.398 . S
C472 C473 1.391 . S
C473 H461 0.950 . S
C473 C469 1.393 . S
C473 C472 1.391 . S
C474 H464 0.950 . S
C474 C475 1.386 . S
C474 C476 1.391 . S
C475 C474 1.386 . S
C475 C479 1.393 . S
C476 H465 0.950 . S
C476 C474 1.391 . S
C476 C477 1.400 . S
C477 C471 1.491 . S
C477 C476 1.400 . S
C477 C478 1.398 . S
C478 H466 0.950 . S
C478 C477 1.398 . S
C478 C479 1.391 . S
C479 H467 0.950 . S
C479 C475 1.393 . S
C479 C478 1.391 . S
H480 C488 0.950 . S
H481 C493 0.950 . S
H482 C490 0.950 . S
H483 C492 0.950 . S
H484 C494 0.950 . S
H485 C496 0.950 . S
H486 C498 0.950 . S
H487 C499 0.950 . S
C488 H480 0.950 . S
C488 C489 1.386 . S
C488 C490 1.391 . S
C489 C488 1.386 . S
C489 C493 1.393 . S
C490 H482 0.950 . S
C490 C488 1.391 . S
C490 C491 1.400 . S
C491 C490 1.400 . S
C491 C492 1.398 . S
C491 C497 1.491 . S
C492 H483 0.950 . S
C492 C491 1.398 . S
C492 C493 1.391 . S
C493 H481 0.950 . S
C493 C489 1.393 . S
C493 C492 1.391 . S
C494 H484 0.950 . S
C494 C495 1.386 . S
C494 C496 1.391 . S
C495 C494 1.386 . S
C495 C499 1.393 . S
C496 H485 0.950 . S
C496 C494 1.391 . S
C496 C497 1.400 . S
C497 C491 1.491 . S
C497 C496 1.400 . S
C497 C498 1.398 . S
C498 H486 0.950 . S
C498 C497 1.398 . S
C498 C499 1.391 . S
C499 H487 0.950 . S
C499 C495 1.393 . S
C499 C498 1.391 . S
H500 C508 0.950 . S
H501 C513 0.950 . S
H502 C510 0.950 . S
H503 C512 0.950 . S
H504 C514 0.950 . S
H505 C516 0.950 . S
H506 C518 0.950 . S
H507 C519 0.950 . S
C508 H500 0.950 . S
C508 C509 1.386 . S
C508 C510 1.391 . S
C509 C508 1.386 . S
C509 C513 1.393 . S
C510 H502 0.950 . S
C510 C508 1.391 . S
C510 C511 1.400 . S
C511 C510 1.400 . S
C511 C512 1.398 . S
C511 C517 1.491 . S
C512 H503 0.950 . S
C512 C511 1.398 . S
C512 C513 1.391 . S
C513 H501 0.950 . S
C513 C509 1.393 . S
C513 C512 1.391 . S
C514 H504 0.950 . S
C514 C515 1.386 . S
C514 C516 1.391 . S
C515 C514 1.386 . S
C515 C519 1.393 . S
C516 H505 0.950 . S
C516 C514 1.391 . S
C516 C517 1.400 1_545 S
C517 C511 1.491 . S
C517 C516 1.400 1_565 S
C517 C518 1.398 . S
C518 H506 0.950 . S
C518 C517 1.398 . S
C518 C519 1.391 1_565 S
C519 H507 0.950 . S
C519 C515 1.393 . S
C519 C518 1.391 1_545 S
H520 C528 0.950 . S
H521 C533 0.950 . S
H522 C530 0.950 . S
H523 C532 0.950 . S
H524 C534 0.950 . S
H525 C536 0.950 . S
H526 C538 0.950 . S
H527 C539 0.950 1_455 S
C528 H520 0.950 . S
C528 C529 1.386 . S
C528 C530 1.391 . S
C529 C528 1.386 . S
C529 C533 1.393 . S
C530 H522 0.950 . S
C530 C528 1.391 . S
C530 C531 1.400 . S
C531 C530 1.400 . S
C531 C532 1.398 . S
C531 C537 1.491 . S
C532 H523 0.950 . S
C532 C531 1.398 . S
C532 C533 1.391 . S
C533 H521 0.950 . S
C533 C529 1.393 . S
C533 C532 1.391 . S
C534 H524 0.950 . S
C534 C535 1.386 . S
C534 C536 1.391 . S
C535 C534 1.386 . S
C535 C539 1.393 . S
C536 H525 0.950 . S
C536 C534 1.391 . S
C536 C537 1.400 1_565 S
C537 C531 1.491 . S
C537 C536 1.400 1_545 S
C537 C538 1.398 . S
C538 H526 0.950 . S
C538 C537 1.398 . S
C538 C539 1.391 1_545 S
C539 H527 0.950 1_655 S
C539 C535 1.393 . S
C539 C538 1.391 1_565 S
H540 C548 0.950 . S
H541 C553 0.950 . S
H542 C550 0.950 . S
H543 C552 0.950 . S
H544 C554 0.950 . S
H545 C556 0.950 . S
H546 C558 0.950 . S
H547 C559 0.950 . S
C548 H540 0.950 . S
C548 C549 1.386 . S
C548 C550 1.391 . S
C549 C548 1.386 . S
C549 C553 1.393 . S
C550 H542 0.950 . S
C550 C548 1.391 . S
C550 C551 1.400 . S
C551 C550 1.400 . S
C551 C552 1.398 . S
C551 C557 1.491 . S
C552 H543 0.950 . S
C552 C551 1.398 . S
C552 C553 1.391 . S
C553 H541 0.950 . S
C553 C549 1.393 . S
C553 C552 1.391 . S
C554 H544 0.950 . S
C554 C555 1.386 . S
C554 C556 1.391 . S
C555 C554 1.386 . S
C555 C559 1.393 . S
C556 H545 0.950 . S
C556 C554 1.391 . S
C556 C557 1.400 . S
C557 C551 1.491 . S
C557 C556 1.400 . S
C557 C558 1.398 . S
C558 H546 0.950 . S
C558 C557 1.398 . S
C558 C559 1.391 . S
C559 H547 0.950 . S
C559 C555 1.393 . S
C559 C558 1.391 . S
H560 C568 0.950 . S
H561 C573 0.950 . S
H562 C570 0.950 . S
H563 C572 0.950 . S
H564 C574 0.950 . S
H565 C576 0.950 . S
H566 C578 0.950 . S
H567 C579 0.950 . S
C568 H560 0.950 . S
C568 C569 1.386 . S
C568 C570 1.391 . S
C569 C568 1.386 . S
C569 C573 1.393 . S
C570 H562 0.950 . S
C570 C568 1.391 . S
C570 C571 1.400 . S
C571 C570 1.400 . S
C571 C572 1.398 . S
C571 C577 1.491 . S
C572 H563 0.950 . S
C572 C571 1.398 . S
C572 C573 1.391 . S
C573 H561 0.950 . S
C573 C569 1.393 . S
C573 C572 1.391 . S
C574 H564 0.950 . S
C574 C575 1.386 . S
C574 C576 1.391 . S
C575 C574 1.386 . S
C575 C579 1.393 . S
C576 H565 0.950 . S
C576 C574 1.391 . S
C576 C577 1.400 . S
C577 C571 1.491 . S
C577 C576 1.400 . S
C577 C578 1.398 . S
C578 H566 0.950 . S
C578 C577 1.398 . S
C578 C579 1.391 . S
C579 H567 0.950 . S
C579 C575 1.393 . S
C579 C578 1.391 . S
H580 C588 0.950 . S
H581 C593 0.950 . S
H582 C590 0.950 . S
H583 C592 0.950 . S
H584 C594 0.950 . S
H585 C596 0.950 . S
H586 C598 0.950 . S
H587 C599 0.950 . S
C588 H580 0.950 . S
C588 C589 1.386 . S
C588 C590 1.391 . S
C589 C588 1.386 . S
C589 C593 1.393 . S
C590 H582 0.950 . S
C590 C588 1.391 . S
C590 C591 1.400 . S
C591 C590 1.400 . S
C591 C592 1.398 . S
C591 C597 1.491 . S
C592 H583 0.950 . S
C592 C591 1.398 . S
C592 C593 1.391 . S
C593 H581 0.950 . S
C593 C589 1.393 . S
C593 C592 1.391 . S
C594 H584 0.950 . S
C594 C595 1.386 . S
C594 C596 1.391 1_565 S
C595 C594 1.386 . S
C595 C599 1.393 . S
C596 H585 0.950 . S
C596 C594 1.391 1_545 S
C596 C597 1.400 . S
C597 C591 1.491 . S
C597 C596 1.400 . S
C597 C598 1.398 1_545 S
C598 H586 0.950 . S
C598 C597 1.398 1_565 S
C598 C599 1.391 . S
C599 H587 0.950 . S
C599 C595 1.393 . S
C599 C598 1.391 . S
H600 C608 0.950 . S
H601 C613 0.950 . S
H602 C610 0.930 1_554 S
H603 C612 0.950 . S
H604 C614 0.950 . S
H605 C616 0.950 . S
H606 C618 0.950 . S
H607 C619 0.950 . S
C608 H600 0.950 . S
C608 C609 1.386 . S
C608 C610 1.414 . S
C609 C608 1.386 . S
C609 C613 1.393 . S
C610 H602 0.930 1_556 S
C610 C608 1.414 . S
C610 C611 1.397 1_556 S
C611 C610 1.397 1_554 S
C611 C612 1.398 1_554 S
C611 C617 1.491 . S
C612 H603 0.950 . S
C612 C611 1.398 1_556 S
C612 C613 1.391 . S
C613 H601 0.950 . S
C613 C609 1.393 . S
C613 C612 1.391 . S
C614 H604 0.950 . S
C614 C615 1.386 . S
C614 C616 1.391 . S
C615 C614 1.386 . S
C615 C619 1.393 . S
C616 H605 0.950 . S
C616 C614 1.391 . S
C616 C617 1.400 . S
C617 C611 1.491 . S
C617 C616 1.400 . S
C617 C618 1.398 . S
C618 H606 0.950 . S
C618 C617 1.398 . S
C618 C619 1.391 . S
C619 H607 0.950 . S
C619 C615 1.393 . S
C619 C618 1.391 . S
H620 C628 0.950 . S
H621 C633 0.950 . S
H622 C630 0.950 . S
H623 C632 0.950 . S
H624 C634 0.950 . S
H625 C636 0.950 . S
H626 C638 0.950 . S
H627 C639 0.950 . S
C628 H620 0.950 . S
C628 C629 1.386 . S
C628 C630 1.391 . S
C629 C628 1.386 . S
C629 C633 1.393 . S
C630 H622 0.950 . S
C630 C628 1.391 . S
C630 C631 1.400 . S
C631 C630 1.400 . S
C631 C632 1.398 . S
C631 C637 1.491 . S
C632 H623 0.950 . S
C632 C631 1.398 . S
C632 C633 1.391 . S
C633 H621 0.950 . S
C633 C629 1.393 . S
C633 C632 1.391 . S
C634 H624 0.950 . S
C634 C635 1.386 . S
C634 C636 1.391 . S
C635 C634 1.386 . S
C635 C639 1.393 . S
C636 H625 0.950 . S
C636 C634 1.391 . S
C636 C637 1.400 . S
C637 C631 1.491 . S
C637 C636 1.400 . S
C637 C638 1.398 . S
C638 H626 0.950 . S
C638 C637 1.398 . S
C638 C639 1.391 . S
C639 H627 0.950 . S
C639 C635 1.393 . S
C639 C638 1.391 . S
H640 C648 0.950 . S
H641 C653 0.950 . S
H642 C650 0.950 . S
H643 C652 0.964 . S
H644 C654 0.950 . S
H645 C656 0.950 . S
H646 C658 0.950 . S
H647 C659 0.950 . S
C648 H640 0.950 . S
C648 C649 1.386 . S
C648 C650 1.391 . S
C649 C648 1.386 . S
C649 C653 1.393 . S
C650 H642 0.950 . S
C650 C648 1.391 . S
C650 C651 1.400 1_554 S
C651 C650 1.400 1_556 S
C651 C652 1.398 1_556 S
C651 C657 1.491 . S
C652 H643 0.964 . S
C652 C651 1.398 1_554 S
C652 C653 1.391 . S
C653 H641 0.950 . S
C653 C649 1.393 . S
C653 C652 1.391 . S
C654 H644 0.950 . S
C654 C655 1.386 . S
C654 C656 1.391 . S
C655 C654 1.386 . S
C655 C659 1.393 . S
C656 H645 0.950 . S
C656 C654 1.391 . S
C656 C657 1.400 . S
C657 C651 1.491 . S
C657 C656 1.400 . S
C657 C658 1.398 . S
C658 H646 0.950 . S
C658 C657 1.398 . S
C658 C659 1.391 . S
C659 H647 0.950 . S
C659 C655 1.393 . S
C659 C658 1.391 . S
H660 C668 0.950 . S
H661 C673 0.950 . S
H662 C670 0.950 . S
H663 C672 0.950 . S
H664 C674 0.950 . S
H665 C676 0.950 . S
H666 C678 0.950 . S
H667 C679 0.950 . S
C668 H660 0.950 . S
C668 C669 1.386 . S
C668 C670 1.391 . S
C669 C668 1.386 . S
C669 C673 1.393 . S
C670 H662 0.950 . S
C670 C668 1.391 . S
C670 C671 1.400 . S
C671 C670 1.400 . S
C671 C672 1.398 . S
C671 C677 1.491 . S
C672 H663 0.950 . S
C672 C671 1.398 . S
C672 C673 1.391 . S
C673 H661 0.950 . S
C673 C669 1.393 . S
C673 C672 1.391 . S
C674 H664 0.950 . S
C674 C675 1.386 . S
C674 C676 1.391 . S
C675 C674 1.386 . S
C675 C679 1.393 . S
C676 H665 0.950 . S
C676 C674 1.391 . S
C676 C677 1.400 . S
C677 C671 1.491 . S
C677 C676 1.400 . S
C677 C678 1.398 . S
C678 H666 0.950 . S
C678 C677 1.398 . S
C678 C679 1.391 . S
C679 H667 0.950 . S
C679 C675 1.393 . S
C679 C678 1.391 . S
H680 C688 0.950 . S
H681 C693 0.950 . S
H682 C690 0.950 . S
H683 C692 0.950 . S
H684 C694 0.950 . S
H685 C696 0.950 . S
H686 C698 0.950 . S
H687 C699 0.950 . S
C688 H680 0.950 . S
C688 C689 1.386 . S
C688 C690 1.391 . S
C689 C688 1.386 . S
C689 C693 1.393 . S
C690 H682 0.950 . S
C690 C688 1.391 . S
C690 C691 1.400 1_554 S
C691 C690 1.400 1_556 S
C691 C692 1.398 . S
C691 C697 1.491 . S
C692 H683 0.950 . S
C692 C691 1.398 . S
C692 C693 1.391 1_556 S
C693 H681 0.950 . S
C693 C689 1.393 . S
C693 C692 1.391 1_554 S
C694 H684 0.950 . S
C694 C695 1.386 . S
C694 C696 1.391 . S
C695 C694 1.386 . S
C695 C699 1.393 . S
C696 H685 0.950 . S
C696 C694 1.391 . S
C696 C697 1.400 . S
C697 C691 1.491 . S
C697 C696 1.400 . S
C697 C698 1.398 . S
C698 H686 0.950 . S
C698 C697 1.398 . S
C698 C699 1.391 . S
C699 H687 0.950 . S
C699 C695 1.393 . S
C699 C698 1.391 . S
H700 C708 0.950 . S
H701 C713 0.950 . S
H702 C710 0.950 . S
H703 C712 0.950 . S
H704 C714 0.950 . S
H705 C716 0.950 . S
H706 C718 0.950 . S
H707 C719 0.950 . S
C708 H700 0.950 . S
C708 C709 1.386 . S
C708 C710 1.391 . S
C709 C708 1.386 . S
C709 C713 1.393 . S
C710 H702 0.950 . S
C710 C708 1.391 . S
C710 C711 1.400 . S
C711 C710 1.400 . S
C711 C712 1.398 . S
C711 C717 1.491 . S
C712 H703 0.950 . S
C712 C711 1.398 . S
C712 C713 1.391 . S
C713 H701 0.950 . S
C713 C709 1.393 . S
C713 C712 1.391 . S
C714 H704 0.950 . S
C714 C715 1.386 . S
C714 C716 1.391 . S
C715 C714 1.386 . S
C715 C719 1.393 . S
C716 H705 0.950 . S
C716 C714 1.391 . S
C716 C717 1.400 . S
C717 C711 1.491 . S
C717 C716 1.400 . S
C717 C718 1.398 . S
C718 H706 0.950 . S
C718 C717 1.398 . S
C718 C719 1.391 . S
C719 H707 0.950 . S
C719 C715 1.393 . S
C719 C718 1.391 . S
H720 C728 0.950 . S
H721 C733 0.950 . S
H722 C730 0.950 . S
H723 C732 0.950 . S
H724 C734 0.950 . S
H725 C736 0.950 . S
H726 C738 0.950 . S
H727 C739 0.950 . S
C728 H720 0.950 . S
C728 C729 1.386 . S
C728 C730 1.391 . S
C729 C728 1.386 . S
C729 C733 1.393 . S
C730 H722 0.950 . S
C730 C728 1.391 . S
C730 C731 1.400 1_556 S
C731 C730 1.400 1_554 S
C731 C732 1.398 . S
C731 C737 1.491 . S
C732 H723 0.950 . S
C732 C731 1.398 . S
C732 C733 1.391 1_554 S
C733 H721 0.950 . S
C733 C729 1.393 . S
C733 C732 1.391 1_556 S
C734 H724 0.950 . S
C734 C735 1.386 . S
C734 C736 1.391 . S
C735 C734 1.386 . S
C735 C739 1.393 . S
C736 H725 0.950 . S
C736 C734 1.391 . S
C736 C737 1.400 . S
C737 C731 1.491 . S
C737 C736 1.400 . S
C737 C738 1.398 . S
C738 H726 0.950 . S
C738 C737 1.398 . S
C738 C739 1.391 . S
C739 H727 0.950 . S
C739 C735 1.393 . S
C739 C738 1.391 . S
H740 C748 0.950 . S
H741 C753 0.950 . S
H742 C750 0.950 . S
H743 C752 0.950 . S
H744 C754 0.950 . S
H745 C756 0.950 . S
H746 C758 0.950 . S
H747 C759 0.950 . S
C748 H740 0.950 . S
C748 C749 1.386 . S
C748 C750 1.391 . S
C749 C748 1.386 . S
C749 C753 1.393 . S
C750 H742 0.950 . S
C750 C748 1.391 . S
C750 C751 1.400 . S
C751 C750 1.400 . S
C751 C752 1.398 . S
C751 C757 1.491 . S
C752 H743 0.950 . S
C752 C751 1.398 . S
C752 C753 1.391 . S
C753 H741 0.950 . S
C753 C749 1.393 . S
C753 C752 1.391 . S
C754 H744 0.950 . S
C754 C755 1.386 . S
C754 C756 1.391 . S
C755 C754 1.386 . S
C755 C759 1.393 . S
C756 H745 0.950 . S
C756 C754 1.391 . S
C756 C757 1.400 . S
C757 C751 1.491 . S
C757 C756 1.400 . S
C757 C758 1.398 . S
C758 H746 0.950 . S
C758 C757 1.398 . S
C758 C759 1.391 . S
C759 H747 0.950 . S
C759 C755 1.393 . S
C759 C758 1.391 . S
H760 C768 0.950 . S
H761 C773 0.950 . S
H762 C770 0.950 . S
H763 C772 0.950 . S
H764 C774 0.950 . S
H765 C776 0.950 . S
H766 C778 0.950 . S
H767 C779 0.950 . S
C768 H760 0.950 . S
C768 C769 1.386 . S
C768 C770 1.391 . S
C769 C768 1.386 . S
C769 C773 1.393 . S
C770 H762 0.950 . S
C770 C768 1.391 . S
C770 C771 1.400 . S
C771 C770 1.400 . S
C771 C772 1.398 . S
C771 C777 1.491 . S
C772 H763 0.950 . S
C772 C771 1.398 . S
C772 C773 1.391 . S
C773 H761 0.950 . S
C773 C769 1.393 . S
C773 C772 1.391 . S
C774 H764 0.950 . S
C774 C775 1.386 . S
C774 C776 1.391 . S
C775 C774 1.386 . S
C775 C779 1.393 . S
C776 H765 0.950 . S
C776 C774 1.391 . S
C776 C777 1.400 . S
C777 C771 1.491 . S
C777 C776 1.400 . S
C777 C778 1.398 . S
C778 H766 0.950 . S
C778 C777 1.398 . S
C778 C779 1.391 . S
C779 H767 0.950 . S
C779 C775 1.393 . S
C779 C778 1.391 . S
H780 C788 0.950 . S
H781 C793 0.950 . S
H782 C790 0.950 . S
H783 C792 0.950 . S
H784 C794 0.950 . S
H785 C796 0.950 . S
H786 C798 0.950 . S
H787 C799 0.950 . S
C788 H780 0.950 . S
C788 C789 1.386 . S
C788 C790 1.391 . S
C789 C788 1.386 . S
C789 C793 1.393 . S
C790 H782 0.950 . S
C790 C788 1.391 . S
C790 C791 1.400 . S
C791 C790 1.400 . S
C791 C792 1.398 . S
C791 C797 1.491 . S
C792 H783 0.950 . S
C792 C791 1.398 . S
C792 C793 1.391 . S
C793 H781 0.950 . S
C793 C789 1.393 . S
C793 C792 1.391 . S
C794 H784 0.950 . S
C794 C795 1.386 . S
C794 C796 1.391 . S
C795 C794 1.386 . S
C795 C799 1.393 . S
C796 H785 0.950 . S
C796 C794 1.391 . S
C796 C797 1.400 . S
C797 C791 1.491 . S
C797 C796 1.400 . S
C797 C798 1.398 . S
C798 H786 0.950 . S
C798 C797 1.398 . S
C798 C799 1.391 . S
C799 H787 0.950 . S
C799 C795 1.393 . S
C799 C798 1.391 . S
H800 C808 0.950 . S
H801 C813 0.950 . S
H802 C810 0.950 . S
H803 C812 0.950 . S
H804 C814 0.950 . S
H805 C816 0.950 . S
H806 C818 0.950 . S
H807 C819 0.950 . S
C808 H800 0.950 . S
C808 C809 1.386 . S
C808 C810 1.391 . S
C809 C808 1.386 . S
C809 C813 1.393 . S
C810 H802 0.950 . S
C810 C808 1.391 . S
C810 C811 1.400 . S
C811 C810 1.400 . S
C811 C812 1.398 . S
C811 C817 1.491 . S
C812 H803 0.950 . S
C812 C811 1.398 . S
C812 C813 1.391 . S
C813 H801 0.950 . S
C813 C809 1.393 . S
C813 C812 1.391 . S
C814 H804 0.950 . S
C814 C815 1.386 . S
C814 C816 1.391 . S
C815 C814 1.386 . S
C815 C819 1.393 . S
C816 H805 0.950 . S
C816 C814 1.391 . S
C816 C817 1.400 . S
C817 C811 1.491 . S
C817 C816 1.400 . S
C817 C818 1.398 . S
C818 H806 0.950 . S
C818 C817 1.398 . S
C818 C819 1.391 . S
C819 H807 0.950 . S
C819 C815 1.393 . S
C819 C818 1.391 . S
H820 C828 0.950 . S
H821 C833 0.950 . S
H822 C830 0.950 . S
H823 C832 0.950 . S
H824 C834 0.950 1_455 S
H825 C836 0.950 . S
H826 C838 0.950 . S
H827 C839 0.950 . S
C828 H820 0.950 . S
C828 C829 1.386 . S
C828 C830 1.391 . S
C829 C828 1.386 . S
C829 C833 1.393 . S
C830 H822 0.950 . S
C830 C828 1.391 . S
C830 C831 1.400 . S
C831 C830 1.400 . S
C831 C832 1.398 . S
C831 C837 1.491 . S
C832 H823 0.950 . S
C832 C831 1.398 . S
C832 C833 1.391 . S
C833 H821 0.950 . S
C833 C829 1.393 . S
C833 C832 1.391 . S
C834 H824 0.950 1_655 S
C834 C835 1.386 . S
C834 C836 1.391 . S
C835 C834 1.386 . S
C835 C839 1.393 . S
C836 H825 0.950 . S
C836 C834 1.391 . S
C836 C837 1.400 . S
C837 C831 1.491 . S
C837 C836 1.400 . S
C837 C838 1.398 . S
C838 H826 0.950 . S
C838 C837 1.398 . S
C838 C839 1.391 . S
C839 H827 0.950 . S
C839 C835 1.393 . S
C839 C838 1.391 . S
H840 C848 0.950 . S
H841 C853 0.950 . S
H842 C850 0.950 . S
H843 C852 0.950 . S
H844 C854 0.950 . S
H845 C856 0.950 . S
H846 C858 0.950 . S
H847 C859 0.950 1_455 S
C848 H840 0.950 . S
C848 C849 1.386 . S
C848 C850 1.391 . S
C849 C848 1.386 . S
C849 C853 1.393 . S
C850 H842 0.950 . S
C850 C848 1.391 . S
C850 C851 1.400 . S
C851 C850 1.400 . S
C851 C852 1.398 . S
C851 C857 1.491 . S
C852 H843 0.950 . S
C852 C851 1.398 . S
C852 C853 1.391 . S
C853 H841 0.950 . S
C853 C849 1.393 . S
C853 C852 1.391 . S
C854 H844 0.950 . S
C854 C855 1.386 . S
C854 C856 1.391 . S
C855 C854 1.386 . S
C855 C859 1.393 . S
C856 H845 0.950 . S
C856 C854 1.391 . S
C856 C857 1.400 . S
C857 C851 1.491 . S
C857 C856 1.400 . S
C857 C858 1.398 . S
C858 H846 0.950 . S
C858 C857 1.398 . S
C858 C859 1.391 . S
C859 H847 0.950 1_655 S
C859 C855 1.393 . S
C859 C858 1.391 . S
H860 C868 0.950 . S
H861 C873 0.950 . S
H862 C870 0.950 . S
H863 C872 0.950 . S
H864 C874 0.950 . S
H865 C876 0.950 . S
H866 C878 0.950 . S
H867 C879 0.950 . S
C868 H860 0.950 . S
C868 C869 1.386 . S
C868 C870 1.391 . S
C869 C868 1.386 . S
C869 C873 1.393 . S
C870 H862 0.950 . S
C870 C868 1.391 . S
C870 C871 1.400 . S
C871 C870 1.400 . S
C871 C872 1.398 . S
C871 C877 1.491 . S
C872 H863 0.950 . S
C872 C871 1.398 . S
C872 C873 1.391 . S
C873 H861 0.950 . S
C873 C869 1.393 . S
C873 C872 1.391 . S
C874 H864 0.950 . S
C874 C875 1.386 . S
C874 C876 1.391 . S
C875 C874 1.386 . S
C875 C879 1.393 . S
C876 H865 0.950 . S
C876 C874 1.391 . S
C876 C877 1.400 . S
C877 C871 1.491 . S
C877 C876 1.400 . S
C877 C878 1.398 . S
C878 H866 0.950 . S
C878 C877 1.398 . S
C878 C879 1.391 . S
C879 H867 0.950 . S
C879 C875 1.393 . S
C879 C878 1.391 . S
H880 C888 0.950 . S
H881 C893 0.950 . S
H882 C890 0.950 . S
H883 C892 0.950 . S
H884 C894 0.950 . S
H885 C896 0.950 . S
H886 C898 0.950 . S
H887 C899 0.950 . S
C888 H880 0.950 . S
C888 C889 1.386 . S
C888 C890 1.391 . S
C889 C888 1.386 . S
C889 C893 1.393 . S
C890 H882 0.950 . S
C890 C888 1.391 . S
C890 C891 1.400 . S
C891 C890 1.400 . S
C891 C892 1.398 . S
C891 C897 1.491 . S
C892 H883 0.950 . S
C892 C891 1.398 . S
C892 C893 1.391 . S
C893 H881 0.950 . S
C893 C889 1.393 . S
C893 C892 1.391 . S
C894 H884 0.950 . S
C894 C895 1.386 . S
C894 C896 1.391 . S
C895 C894 1.386 . S
C895 C899 1.393 . S
C896 H885 0.950 . S
C896 C894 1.391 . S
C896 C897 1.400 . S
C897 C891 1.491 . S
C897 C896 1.400 . S
C897 C898 1.398 . S
C898 H886 0.950 . S
C898 C897 1.398 . S
C898 C899 1.391 . S
C899 H887 0.950 . S
C899 C895 1.393 . S
C899 C898 1.391 . S
H900 C908 0.950 . S
H901 C913 0.950 . S
H902 C910 0.950 . S
H903 C912 0.950 . S
H904 C914 0.950 . S
H905 C916 0.950 . S
H906 C918 0.950 . S
H907 C919 0.950 . S
C908 H900 0.950 . S
C908 C909 1.386 . S
C908 C910 1.391 . S
C909 C908 1.386 . S
C909 C913 1.393 . S
C910 H902 0.950 . S
C910 C908 1.391 . S
C910 C911 1.400 . S
C911 C910 1.400 . S
C911 C912 1.398 . S
C911 C917 1.491 . S
C912 H903 0.950 . S
C912 C911 1.398 . S
C912 C913 1.391 . S
C913 H901 0.950 . S
C913 C909 1.393 . S
C913 C912 1.391 . S
C914 H904 0.950 . S
C914 C915 1.386 . S
C914 C916 1.391 . S
C915 C914 1.386 . S
C915 C919 1.393 . S
C916 H905 0.950 . S
C916 C914 1.391 . S
C916 C917 1.400 . S
C917 C911 1.491 . S
C917 C916 1.400 . S
C917 C918 1.398 . S
C918 H906 0.950 . S
C918 C917 1.398 . S
C918 C919 1.391 . S
C919 H907 0.950 . S
C919 C915 1.393 . S
C919 C918 1.391 . S
C449 C86 1.631 . S
C455 C178 1.624 . S
C475 C262 1.690 . S
C469 C100 1.705 . S
C495 C255 1.618 . S
C489 C60 1.622 . S
C509 C74 1.690 . S
C515 C171 1.692 . S
C535 C335 1.689 . S
C529 C35 1.701 . S
C555 C419 1.612 . S
C549 C47 1.635 . S
C569 C9 1.694 . S
C575 C412 1.699 . S
C589 C21 1.630 . S
C595 C328 1.625 . S
C615 C162 1.417 . S
C609 C22 1.586 . S
C635 C246 1.414 . S
C629 C8 1.590 . S
C655 C257 1.412 . S
C649 C48 1.600 . S
C675 C173 1.393 . S
C669 C34 1.598 . S
C695 C341 1.421 . S
C689 C73 1.597 . S
C709 C61 1.588 . S
C715 C425 1.423 . S
C735 C414 1.412 . S
C729 C99 1.604 . S
C749 C87 1.599 . S
C755 C330 1.414 . S
C775 C160 1.606 . S
C769 C4 1.530 . S
C795 C244 1.502 . S
C789 C17 1.487 . S
C809 C30 1.526 . S
C815 C251 1.570 . S
C835 C167 1.463 . S
C829 C43 1.467 . S
C855 C339 1.501 . S
C849 C56 1.449 . S
C869 C69 1.554 . S
C875 C423 1.607 . S
C889 C82 1.446 . S
C895 C430 1.476 . S
C909 C95 1.551 . S
C915 C346 1.575 . S
