# Generated by pormake.
# Topology pyr, (3,6)-cn, num edge types: 1
# Building blocks:
#     Node 0, Type 0, BuildingBlock: KAKCAD_clean_linker_0, # of connection points: 3
#     Node 1, Type 0, BuildingBlock: KAKCAD_clean_linker_0, # of connection points: 3
#     Node 2, Type 0, BuildingBlock: KAKCAD_clean_linker_0, # of connection points: 3
#     Node 3, Type 0, BuildingBlock: KAKCAD_clean_linker_0, # of connection points: 3
#     Node 4, Type 0, BuildingBlock: KAKCAD_clean_linker_0, # of connection points: 3
#     Node 5, Type 0, BuildingBlock: KAKCAD_clean_linker_0, # of connection points: 3
#     Node 6, Type 0, BuildingBlock: KAKCAD_clean_linker_0, # of connection points: 3
#     Node 7, Type 0, BuildingBlock: KAKCAD_clean_linker_0, # of connection points: 3
#     Node 8, Type 1, BuildingBlock: BETGAK_clean_sbu_0, # of connection points: 6
#     Node 9, Type 1, BuildingBlock: BETGAK_clean_sbu_0, # of connection points: 6
#     Node 10, Type 1, BuildingBlock: BETGAK_clean_sbu_0, # of connection points: 6
#     Node 11, Type 1, BuildingBlock: BETGAK_clean_sbu_0, # of connection points: 6
#     Edge 12, Type (0, 1), None
#     Edge 13, Type (0, 1), None
#     Edge 14, Type (0, 1), None
#     Edge 15, Type (0, 1), None
#     Edge 16, Type (0, 1), None
#     Edge 17, Type (0, 1), None
#     Edge 18, Type (0, 1), None
#     Edge 19, Type (0, 1), None
#     Edge 20, Type (0, 1), None
#     Edge 21, Type (0, 1), None
#     Edge 22, Type (0, 1), None
#     Edge 23, Type (0, 1), None
#     Edge 24, Type (0, 1), None
#     Edge 25, Type (0, 1), None
#     Edge 26, Type (0, 1), None
#     Edge 27, Type (0, 1), None
#     Edge 28, Type (0, 1), None
#     Edge 29, Type (0, 1), None
#     Edge 30, Type (0, 1), None
#     Edge 31, Type (0, 1), None
#     Edge 32, Type (0, 1), None
#     Edge 33, Type (0, 1), None
#     Edge 34, Type (0, 1), None
#     Edge 35, Type (0, 1), None
# Relax obj value: 0.227
# Max RMSD: 0.157
# Mean RMSD: 0.076
data_MOF--net-pyr--node1-BETGAK_clean_sbu_0--node2-KAKCAD_clean_linker_0--edge1-none
_symmetry_space_group_name_H-M    P1
_symmetry_Int_Tables_number       1
_symmetry_cell_setting            triclinic
loop_
_symmetry_equiv_pos_as_xyz
'x, y, z'
_cell_length_a     26.042333
_cell_length_b     27.309248
_cell_length_c     24.46795
_cell_angle_alpha  89.899131
_cell_angle_beta   86.31044
_cell_angle_gamma 103.61083
loop_
_atom_site_label
_atom_site_type_symbol
_atom_site_fract_x
_atom_site_fract_y
_atom_site_fract_z
_atom_type_partial_charge
C0 C 0.34683 0.33517 0.48127 0.0
C1 C 0.34917 0.28492 0.48992 0.0
C2 C 0.38274 0.36518 0.4428 0.0
C3 C 0.41733 0.34313 0.40958 0.0
C4 C 0.43038 0.30026 0.43203 0.0
C5 C 0.39594 0.27096 0.47201 0.0
C6 C 0.41983 0.34987 0.348 0.0
C7 C 0.38319 0.37293 0.32431 0.0
C8 C 0.36528 0.35975 0.27221 0.0
C9 C 0.38852 0.3268 0.24069 0.0
C10 C 0.42879 0.30695 0.26115 0.0
C11 C 0.44583 0.32056 0.31352 0.0
C12 C 0.44652 0.26517 0.23265 0.0
C13 C 0.40885 0.2239 0.2142 0.0
C14 C 0.50031 0.26407 0.22764 0.0
C15 C 0.51613 0.22296 0.20368 0.0
C16 C 0.47838 0.18187 0.18482 0.0
C17 C 0.31698 0.37448 0.255 0.0
C18 C 0.27394 0.37299 0.2934 0.0
C19 C 0.31265 0.38889 0.20065 0.0
C20 C 0.26671 0.40229 0.18541 0.0
C21 C 0.22402 0.4015 0.22417 0.0
C22 C 0.22837 0.38661 0.27833 0.0
C23 C 0.42455 0.18273 0.19073 0.0
H24 H 0.31336 0.34902 0.49756 0.0
H25 H 0.37677 0.40202 0.43327 0.0
H26 H 0.46141 0.28432 0.41367 0.0
H27 H 0.4014 0.2339 0.48189 0.0
H28 H 0.36416 0.39785 0.34781 0.0
H29 H 0.47563 0.30359 0.3289 0.0
H30 H 0.3735 0.31454 0.20145 0.0
H31 H 0.36698 0.22304 0.21874 0.0
H32 H 0.53016 0.2952 0.24189 0.0
H33 H 0.55796 0.22369 0.19935 0.0
H34 H 0.27512 0.36078 0.33535 0.0
H35 H 0.34491 0.39023 0.17003 0.0
H36 H 0.39439 0.15192 0.17637 0.0
H37 H 0.19675 0.38599 0.3095 0.0
H38 H 0.2645 0.41281 0.1431 0.0
C39 C 0.16548 0.87486 0.96287 0.0
C40 C 0.22018 0.87772 0.96255 0.0
C41 C 0.13524 0.84727 0.92306 0.0
C42 C 0.15944 0.82257 0.88207 0.0
C43 C 0.21233 0.81978 0.8871 0.0
C44 C 0.2422 0.84687 0.92694 0.0
C45 C 0.13593 0.81104 0.8282 0.0
C46 C 0.11265 0.8465 0.80388 0.0
C47 C 0.112 0.85027 0.74657 0.0
C48 C 0.13276 0.8161 0.71393 0.0
C49 C 0.15432 0.77935 0.73781 0.0
C50 C 0.15159 0.7746 0.79507 0.0
C51 C 0.19356 0.75722 0.70592 0.0
C52 C 0.1995 0.70888 0.71937 0.0
C53 C 0.23354 0.78911 0.67218 0.0
C54 C 0.28099 0.77548 0.65806 0.0
C55 C 0.28936 0.72988 0.67761 0.0
C56 C 0.0999 0.8953 0.72032 0.0
C57 C 0.11428 0.9433 0.74413 0.0
C58 C 0.0796 0.89184 0.66818 0.0
C59 C 0.07783 0.93525 0.63897 0.0
C60 C 0.09446 0.98286 0.66203 0.0
C61 C 0.11074 0.9866 0.71549 0.0
C62 C 0.24719 0.69545 0.70564 0.0
H63 H 0.14706 0.89723 0.99098 0.0
H64 H 0.09423 0.84898 0.92152 0.0
H65 H 0.23315 0.80169 0.85659 0.0
H66 H 0.28414 0.84804 0.92535 0.0
H67 H 0.10001 0.87454 0.8291 0.0
H68 H 0.16979 0.74749 0.81376 0.0
H69 H 0.13707 0.82103 0.66981 0.0
H70 H 0.16912 0.68323 0.74464 0.0
H71 H 0.23072 0.82681 0.66139 0.0
H72 H 0.31279 0.80266 0.63628 0.0
H73 H 0.13117 0.94814 0.78357 0.0
H74 H 0.06692 0.85569 0.64898 0.0
H75 H 0.25234 0.65948 0.72007 0.0
H76 H 0.1238 1.02317 0.73377 0.0
H77 H 0.06428 0.93166 0.59788 0.0
C78 C 0.84398 0.54319 0.99069 0.0
C79 C 0.87282 0.51405 1.01874 0.0
C80 C 0.79746 0.52062 0.96329 0.0
C81 C 0.77739 0.4675 0.9618 0.0
C82 C 0.80731 0.43877 0.98921 0.0
C83 C 0.85306 0.46128 1.01711 0.0
C84 C 0.72611 0.4418 0.93317 0.0
C85 C 0.70563 0.46553 0.88957 0.0
C86 C 0.6591 0.44124 0.86252 0.0
C87 C 0.63263 0.39125 0.88163 0.0
C88 C 0.65078 0.36591 0.92539 0.0
C89 C 0.69712 0.39233 0.95 0.0
C90 C 0.62144 0.3124 0.94723 0.0
C91 C 0.56559 0.29728 0.95407 0.0
C92 C 0.64886 0.27622 0.96435 0.0
C93 C 0.62197 0.22797 0.98715 0.0
C94 C 0.56614 0.21362 0.99516 0.0
C95 C 0.63837 0.46779 0.81442 0.0
C96 C 0.63883 0.51999 0.81421 0.0
C97 C 0.61747 0.44152 0.76759 0.0
C98 C 0.59879 0.4658 0.72346 0.0
C99 C 0.5984 0.51773 0.72377 0.0
C100 C 0.61884 0.54397 0.77074 0.0
C101 C 0.53888 0.24966 0.97786 0.0
H102 H 0.85714 0.58387 0.99014 0.0
H103 H 0.77694 0.54533 0.94381 0.0
H104 H 0.79626 0.39808 0.98871 0.0
H105 H 0.87368 0.43673 1.03684 0.0
H106 H 0.72685 0.50274 0.87531 0.0
H107 H 0.70954 0.37421 0.9844 0.0
H108 H 0.59736 0.37193 0.86241 0.0
H109 H 0.54212 0.32303 0.94251 0.0
H110 H 0.6917 0.28512 0.96 0.0
H111 H 0.6452 0.20233 0.99954 0.0
H112 H 0.65384 0.54258 0.84859 0.0
H113 H 0.61613 0.40171 0.76444 0.0
H114 H 0.49607 0.24117 0.98299 0.0
H115 H 0.61976 0.5837 0.77397 0.0
H116 H 0.58365 0.44324 0.68909 0.0
C117 C 0.89994 0.62871 0.24032 0.0
C118 C 0.95321 0.63978 0.2192 0.0
C119 C 0.88172 0.6563 0.28371 0.0
C120 C 0.91583 0.69617 0.31064 0.0
C121 C 0.96938 0.708 0.28858 0.0
C122 C 0.98746 0.68081 0.24391 0.0
C123 C 0.89515 0.7229 0.36151 0.0
C124 C 0.84765 0.69775 0.39254 0.0
C125 C 0.82647 0.71907 0.4391 0.0
C126 C 0.85413 0.76703 0.45568 0.0
C127 C 0.90079 0.79576 0.42719 0.0
C128 C 0.92122 0.77243 0.38013 0.0
C129 C 0.92583 0.84938 0.44887 0.0
C130 C 0.89447 0.8768 0.48043 0.0
C131 C 0.98058 0.87336 0.44197 0.0
C132 C 1.00243 0.92056 0.46696 0.0
C133 C 0.97086 0.94567 0.50097 0.0
C134 C 0.77518 0.692 0.47149 0.0
C135 C 0.72985 0.6656 0.44571 0.0
C136 C 0.76997 0.69497 0.52919 0.0
C137 C 0.72162 0.67446 0.55942 0.0
C138 C 0.67588 0.64979 0.53367 0.0
C139 C 0.68108 0.64499 0.4762 0.0
C140 C 0.9164 0.92252 0.50667 0.0
H141 H 0.87156 0.59822 0.2229 0.0
H142 H 0.83988 0.64574 0.29558 0.0
H143 H 0.99811 0.73775 0.30652 0.0
H144 H 0.02889 0.69117 0.22974 0.0
H145 H 0.82731 0.6601 0.38208 0.0
H146 H 0.95662 0.79326 0.35742 0.0
H147 H 0.83841 0.78207 0.49211 0.0
H148 H 0.85197 0.86318 0.48558 0.0
H149 H 1.00714 0.85507 0.41847 0.0
H150 H 0.04466 0.9364 0.46133 0.0
H151 H 0.73146 0.66227 0.40158 0.0
H152 H 0.8035 0.71365 0.55146 0.0
H153 H 0.89009 0.94013 0.53155 0.0
H154 H 0.64714 0.6262 0.45457 0.0
H155 H 0.71996 0.67874 0.60346 0.0
C156 C 0.72855 0.79847 0.70728 0.0
C157 C 0.7398 0.85069 0.69761 0.0
C158 C 0.68395 0.77517 0.74089 0.0
C159 C 0.65319 0.80489 0.76848 0.0
C160 C 0.65742 0.85391 0.74736 0.0
C161 C 0.70057 0.87663 0.71202 0.0
C162 C 0.63509 0.79404 0.82772 0.0
C163 C 0.66539 0.77017 0.86003 0.0
C164 C 0.66956 0.78014 0.91591 0.0
C165 C 0.64039 0.81228 0.94068 0.0
C166 C 0.60656 0.83336 0.91017 0.0
C167 C 0.60168 0.8215 0.85466 0.0
C168 C 0.58856 0.8778 0.93138 0.0
C169 C 0.53525 0.88075 0.9327 0.0
C170 C 0.62683 0.91967 0.94701 0.0
C171 C 0.61228 0.96285 0.96567 0.0
C172 C 0.55881 0.96535 0.97013 0.0
C173 C 0.71355 0.76608 0.94336 0.0
C174 C 0.72109 0.71687 0.93957 0.0
C175 C 0.75325 0.80373 0.96482 0.0
C176 C 0.80067 0.79305 0.97933 0.0
C177 C 0.80943 0.74431 0.97316 0.0
C178 C 0.76825 0.70602 0.95463 0.0
C179 C 0.52033 0.92413 0.95253 0.0
H180 H 0.75732 0.77711 0.69465 0.0
H181 H 0.67909 0.73591 0.75219 0.0
H182 H 0.63333 0.87813 0.76441 0.0
H183 H 0.70742 0.91672 0.70371 0.0
H184 H 0.69238 0.7497 0.84085 0.0
H185 H 0.57748 0.83982 0.83114 0.0
H186 H 0.6465 0.82342 0.98272 0.0
H187 H 0.50519 0.84918 0.91969 0.0
H188 H 0.66838 0.91906 0.94466 0.0
H189 H 0.64322 0.99391 0.97821 0.0
H190 H 0.69119 0.68716 0.92298 0.0
H191 H 0.7491 0.84224 0.9671 0.0
H192 H 0.47881 0.92471 0.95579 0.0
H193 H 0.7728 0.66777 0.95058 0.0
H194 H 0.83143 0.82375 0.99279 0.0
C195 C 0.82597 0.19851 0.29233 0.0
C196 C 0.81535 0.22357 0.24609 0.0
C197 C 0.85768 0.22482 0.33096 0.0
C198 C 0.87955 0.27687 0.32413 0.0
C199 C 0.87083 0.3017 0.27651 0.0
C200 C 0.83911 0.27495 0.23727 0.0
C201 C 0.90378 0.30481 0.37119 0.0
C202 C 0.93569 0.28282 0.40243 0.0
C203 C 0.93952 0.29258 0.45852 0.0
C204 C 0.91611 0.33041 0.48116 0.0
C205 C 0.8863 0.35482 0.44913 0.0
C206 C 0.88155 0.34266 0.39376 0.0
C207 C 0.84826 0.3819 0.47488 0.0
C208 C 0.80914 0.35643 0.51398 0.0
C209 C 0.84304 0.42745 0.45179 0.0
C210 C 0.7977 0.44531 0.46462 0.0
C211 C 0.75648 0.41746 0.50005 0.0
C212 C 0.95574 0.25482 0.49393 0.0
C213 C 0.98942 0.22476 0.47241 0.0
C214 C 0.93013 0.24207 0.54619 0.0
C215 C 0.93639 0.19997 0.57479 0.0
C216 C 0.96691 0.16836 0.5514 0.0
C217 C 0.99321 0.18094 0.49988 0.0
C218 C 0.76345 0.37387 0.52616 0.0
H219 H 0.80812 0.15879 0.29954 0.0
H220 H 0.86239 0.20477 0.36785 0.0
H221 H 0.88689 0.34186 0.27074 0.0
H222 H 0.83109 0.29471 0.20155 0.0
H223 H 0.95036 0.25222 0.3843 0.0
H224 H 0.85417 0.35736 0.37057 0.0
H225 H 0.91752 0.3385 0.5244 0.0
H226 H 0.81179 0.32079 0.53171 0.0
H227 H 0.8724 0.4474 0.4211 0.0
H228 H 0.79329 0.47899 0.44382 0.0
H229 H 1.0113 0.23368 0.43315 0.0
H230 H 0.90285 0.26271 0.56437 0.0
H231 H 0.73248 0.35204 0.55407 0.0
H232 H 1.01605 0.15672 0.48043 0.0
H233 H 0.91563 0.19125 0.61471 0.0
C234 C 0.19098 0.63003 0.2099 0.0
C235 C 0.17851 0.64895 0.15963 0.0
C236 C 0.23778 0.65308 0.23655 0.0
C237 C 0.27547 0.69583 0.21388 0.0
C238 C 0.26336 0.71298 0.16221 0.0
C239 C 0.21609 0.69092 0.1366 0.0
C240 C 0.32591 0.72317 0.24314 0.0
C241 C 0.34811 0.70054 0.28633 0.0
C242 C 0.39404 0.72659 0.31346 0.0
C243 C 0.41873 0.77711 0.29388 0.0
C244 C 0.39923 0.80106 0.2497 0.0
C245 C 0.35211 0.77358 0.2274 0.0
C246 C 0.42641 0.85443 0.22506 0.0
C247 C 0.4542 0.89472 0.25621 0.0
C248 C 0.4231 0.86646 0.1689 0.0
C249 C 0.4449 0.91543 0.14572 0.0
C250 C 0.4718 0.95572 0.17696 0.0
C251 C 0.41612 0.70074 0.36153 0.0
C252 C 0.41579 0.64852 0.36242 0.0
C253 C 0.43758 0.72742 0.40797 0.0
C254 C 0.45668 0.7035 0.45228 0.0
C255 C 0.45689 0.65145 0.45274 0.0
C256 C 0.43607 0.6249 0.40607 0.0
C257 C 0.47617 0.94395 0.23282 0.0
H258 H 0.16368 0.59786 0.2297 0.0
H259 H 0.24356 0.63749 0.27569 0.0
H260 H 0.29054 0.74369 0.14017 0.0
H261 H 0.20934 0.70673 0.09782 0.0
H262 H 0.3293 0.6624 0.29957 0.0
H263 H 0.33474 0.79305 0.19791 0.0
H264 H 0.45421 0.79732 0.31209 0.0
H265 H 0.45828 0.88862 0.29928 0.0
H266 H 0.40384 0.83758 0.14183 0.0
H267 H 0.44094 0.92155 0.10261 0.0
H268 H 0.40053 0.62549 0.32845 0.0
H269 H 0.43898 0.76725 0.41074 0.0
H270 H 0.4967 0.9731 0.25891 0.0
H271 H 0.43501 0.58512 0.40322 0.0
H272 H 0.47223 0.72645 0.4862 0.0
C273 C 0.14868 0.23595 0.69219 0.0
C274 C 0.0948 0.21092 0.69938 0.0
C275 C 0.16889 0.28371 0.71499 0.0
C276 C 0.13618 0.31105 0.74452 0.0
C277 C 0.08209 0.28526 0.75316 0.0
C278 C 0.06199 0.2362 0.73146 0.0
C279 C 0.15938 0.36615 0.76274 0.0
C280 C 0.20463 0.39504 0.73227 0.0
C281 C 0.23275 0.44346 0.74743 0.0
C282 C 0.21073 0.46603 0.7929 0.0
C283 C 0.16334 0.44112 0.82463 0.0
C284 C 0.13873 0.39041 0.80865 0.0
C285 C 0.14112 0.46864 0.87399 0.0
C286 C 0.17328 0.51084 0.89933 0.0
C287 C 0.08763 0.45482 0.89629 0.0
C288 C 0.06779 0.48206 0.93981 0.0
C289 C 0.10007 0.52514 0.96311 0.0
C290 C 0.28529 0.46904 0.71504 0.0
C291 C 0.31656 0.43977 0.68675 0.0
C292 C 0.30523 0.5221 0.71093 0.0
C293 C 0.35301 0.54428 0.67932 0.0
C294 C 0.38241 0.51444 0.64978 0.0
C295 C 0.36318 0.46186 0.65434 0.0
C296 C 0.15328 0.53837 0.94167 0.0
H297 H 0.17587 0.21835 0.66862 0.0
H298 H 0.2111 0.29912 0.70876 0.0
H299 H 0.05468 0.30348 0.77538 0.0
H300 H 1.02012 0.21895 0.73802 0.0
H301 H 0.21782 0.37986 0.69467 0.0
H302 H 0.10419 0.36938 0.83251 0.0
H303 H 0.23096 0.50368 0.80317 0.0
H304 H 0.21491 0.52333 0.88711 0.0
H305 H 0.0602 0.42333 0.87947 0.0
H306 H 0.02652 0.46999 0.95421 0.0
H307 H 0.30549 0.39908 0.68955 0.0
H308 H 0.28352 0.54695 0.73111 0.0
H309 H 0.18023 0.5706 0.958 0.0
H310 H 0.38465 0.43739 0.63289 0.0
H311 H 0.3662 0.58496 0.67685 0.0
La312 La 0.07747 0.09346 0.55946 0.0
La313 La 0.99416 1.05718 0.64736 0.0
C314 C 0.14553 0.14566 0.49197 0.0
C315 C 0.19791 0.17994 0.4963 0.0
C316 C 0.24066 0.17097 0.46365 0.0
C317 C 0.29061 0.20314 0.46513 0.0
C318 C 0.29916 0.24544 0.49927 0.0
C319 C 0.25657 0.25337 0.53369 0.0
C320 C 0.20631 0.22075 0.53236 0.0
C321 C 0.09832 1.02814 0.62835 0.0
C322 C 0.07382 0.16142 0.66947 0.0
C323 C 0.93314 0.99738 0.7138 0.0
C324 C 0.88788 0.95563 0.70326 0.0
C325 C 0.8551 0.9594 0.66066 0.0
C326 C 0.80881 0.92227 0.65467 0.0
C327 C 0.79517 0.88042 0.69053 0.0
C328 C 0.83059 0.87458 0.72984 0.0
C329 C 0.8765 0.91208 0.73631 0.0
C330 C 0.97182 0.12398 0.58298 0.0
C331 C 0.9937 0.99323 0.53351 0.0
O332 O 0.14287 0.09841 0.50335 0.0
O333 O 0.10432 0.16035 0.51293 0.0
O334 O 0.11213 1.03046 0.57673 0.0
O335 O 0.07669 1.06363 0.64044 0.0
O336 O 0.09433 0.15647 0.61899 0.0
O337 O 0.0365 0.12374 0.69269 0.0
O338 O 0.9273 1.04253 0.70251 0.0
O339 O 0.97969 0.99124 0.69625 0.0
O340 O 0.95468 0.11669 0.63384 0.0
O341 O 0.99484 0.08985 0.56732 0.0
O342 O 0.97461 0.99659 0.58491 0.0
O343 O 0.03129 1.0311 0.51141 0.0
H344 H 0.23513 0.13962 0.43579 0.0
H345 H 0.32175 0.19629 0.43681 0.0
H346 H 0.26169 0.28557 0.56031 0.0
H347 H 0.17398 0.22817 0.55856 0.0
H348 H 0.86394 0.99221 0.63364 0.0
H349 H 0.78206 0.92774 0.62433 0.0
H350 H 0.82062 0.8431 0.75869 0.0
H351 H 0.90179 0.90812 0.7687 0.0
La352 La 0.56958 0.08374 0.09663 0.0
La353 La 0.47045 0.07255 1.05447 0.0
C354 C 0.66777 0.10322 0.10895 0.0
C355 C 0.70473 0.13453 0.14418 0.0
C356 C 0.68982 0.14148 0.19909 0.0
C357 C 0.72571 0.17178 0.2318 0.0
C358 C 0.7765 0.19593 0.20973 0.0
C359 C 0.79077 0.19039 0.15435 0.0
C360 C 0.755 0.15953 0.12173 0.0
C361 C 0.49652 1.00844 0.15103 0.0
C362 C 0.49501 0.14088 0.1541 0.0
C363 C 0.37596 1.04845 1.02847 0.0
C364 C 0.33507 1.00379 1.01666 0.0
C365 C 0.28714 1.01028 0.99881 0.0
C366 C 0.248 0.96866 0.98525 0.0
C367 C 0.25617 0.9197 0.9894 0.0
C368 C 0.30343 0.91326 1.01016 0.0
C369 C 0.34274 0.95511 1.02355 0.0
C370 C 0.53508 0.16358 1.02316 0.0
C371 C 0.54465 1.00793 1.00036 0.0
O372 O 0.63389 1.06451 0.13174 0.0
O373 O 0.64554 0.12818 1.07606 0.0
O374 O 0.53248 1.04247 0.17321 0.0
O375 O 0.50138 1.0189 0.0999 0.0
O376 O 0.5451 0.14481 0.13917 0.0
O377 O 0.45896 0.10404 0.13485 0.0
O378 O 0.41664 1.06133 0.99264 0.0
O379 O 0.38988 1.0517 1.07898 0.0
O380 O 0.48489 0.15407 1.03537 0.0
O381 O 0.54748 0.12108 1.0262 0.0
O382 O 0.496 1.01484 1.00377 0.0
O383 O 0.58065 1.03384 1.03096 0.0
H384 H 0.65072 0.12329 0.21672 0.0
H385 H 0.71407 0.17606 0.27453 0.0
H386 H 0.82991 0.20866 0.13691 0.0
H387 H 0.76659 0.15494 1.07906 0.0
H388 H 0.28056 1.04773 0.99387 0.0
H389 H 0.21271 0.97523 0.96841 0.0
H390 H 0.3108 0.87603 1.01409 0.0
H391 H 0.37946 0.94963 1.03804 0.0
La392 La 0.52539 0.54189 0.55689 0.0
La393 La 0.52945 0.62713 0.62071 0.0
C394 C 0.55597 0.47333 0.50479 0.0
C395 C 0.60677 0.45854 0.50547 0.0
C396 C 0.60908 0.40833 0.49742 0.0
C397 C 0.65763 0.39469 0.49753 0.0
C398 C 0.70462 0.43119 0.50528 0.0
C399 C 0.70197 0.48128 0.51435 0.0
C400 C 0.65343 0.49473 0.51498 0.0
C401 C 0.43133 0.53684 0.61248 0.0
C402 C 0.57568 0.54351 0.67684 0.0
C403 C 0.49898 0.69453 0.67472 0.0
C404 C 0.44808 0.70945 0.67564 0.0
C405 C 0.42902 0.72516 0.62768 0.0
C406 C 0.37727 0.73153 0.6279 0.0
C407 C 0.34362 0.72172 0.67586 0.0
C408 C 0.36318 0.70715 0.72396 0.0
C409 C 0.41493 0.70134 0.72389 0.0
C410 C 0.62364 0.63181 0.56748 0.0
C411 C 0.47964 0.62574 0.50005 0.0
O412 O 0.52578 0.46498 0.55011 0.0
O413 O 0.55892 0.5182 0.48446 0.0
O414 O 0.43822 0.51931 0.56396 0.0
O415 O 0.47733 0.55341 0.62912 0.0
O416 O 0.56966 0.52275 0.62762 0.0
O417 O 0.56072 0.58628 0.68501 0.0
O418 O 0.5301 0.704 0.62996 0.0
O419 O 0.49511 0.64901 0.6935 0.0
O420 O 0.61626 0.64766 0.61663 0.0
O421 O 0.57826 0.61576 0.54895 0.0
O422 O 0.48636 0.64698 0.54907 0.0
O423 O 0.49376 0.58244 0.49239 0.0
H424 H 0.57349 0.37985 0.49048 0.0
H425 H 0.65867 0.35587 0.48987 0.0
H426 H 0.73748 0.51005 0.52075 0.0
H427 H 0.65246 0.53361 0.52231 0.0
H428 H 0.45353 0.73141 0.58971 0.0
H429 H 0.36326 0.74323 0.59042 0.0
H430 H 0.33854 0.70062 0.76189 0.0
H431 H 0.4286 0.689 0.76128 0.0
La432 La 1.01802 0.53908 0.12216 0.0
La433 La 0.03193 0.62492 1.05838 0.0
C434 C 0.03489 0.45986 0.16398 0.0
C435 C 0.08316 0.4459 0.18034 0.0
C436 C 0.07932 0.4061 0.2177 0.0
C437 C 0.12488 0.3914 0.23163 0.0
C438 C 0.17531 0.41649 0.20865 0.0
C439 C 0.17881 0.45652 0.17128 0.0
C440 C 0.13326 0.47086 0.15707 0.0
C441 C 0.97152 0.60657 0.17413 0.0
C442 C 0.12659 0.62639 0.13227 0.0
C443 C 1.01235 0.70284 1.01684 0.0
C444 C 0.962 0.71509 1.00302 0.0
C445 C 0.9325 0.6908 0.96052 0.0
C446 C 0.88324 0.70027 0.95089 0.0
C447 C 0.86196 0.73404 0.9837 0.0
C448 C 0.8919 0.75865 1.02584 0.0
C449 C 0.94132 0.74949 1.03514 0.0
C450 C 0.07981 0.55828 1.00696 0.0
C451 C 0.9239 0.53741 1.04745 0.0
O452 O 1.01892 0.49441 0.19259 0.0
O453 O 0.0334 0.46765 0.11162 0.0
O454 O 0.95132 0.55833 0.17138 0.0
O455 O 1.01621 0.61533 0.14657 0.0
O456 O 0.09979 0.57932 0.14352 0.0
O457 O 0.10665 0.654 0.09856 0.0
O458 O 0.02888 0.66865 0.98799 0.0
O459 O 1.01725 0.6968 1.06898 0.0
O460 O 0.0989 0.60671 1.00901 0.0
O461 O 0.03477 0.54889 1.03405 0.0
O462 O 0.94901 0.58545 1.03914 0.0
O463 O 0.94527 0.50931 1.07908 0.0
H464 H 0.04101 0.38599 0.23563 0.0
H465 H 0.12044 0.35988 0.25986 0.0
H466 H 0.21683 0.47719 0.1533 0.0
H467 H 0.13726 0.50117 0.1274 0.0
H468 H 0.9471 0.664 0.93496 0.0
H469 H 0.86208 0.68131 0.91732 0.0
H470 H 0.87684 0.78444 1.05243 0.0
H471 H 0.963 0.76867 1.06833 0.0
loop_
_geom_bond_atom_site_label_1
_geom_bond_atom_site_label_2
_geom_bond_distance
_geom_bond_site_symmetry_2
_ccdc_geom_bond_type
C0 C1 1.386 . S
C0 C2 1.397 . S
C0 H24 0.931 . S
C1 C0 1.386 . S
C1 C5 1.397 . S
C2 C0 1.397 . S
C2 C3 1.384 . S
C2 H25 0.930 . S
C3 C2 1.384 . S
C3 C4 1.377 . S
C3 C6 1.481 . S
C4 C3 1.377 . S
C4 C5 1.389 . S
C4 H26 0.929 . S
C5 C1 1.397 . S
C5 C4 1.389 . S
C5 H27 0.931 . S
C6 C3 1.481 . S
C6 C7 1.387 . S
C6 C11 1.390 . S
C7 C6 1.387 . S
C7 C8 1.401 . S
C7 H28 0.930 . S
C8 C7 1.401 . S
C8 C9 1.376 . S
C8 C17 1.511 . S
C9 C8 1.376 . S
C9 C10 1.392 . S
C9 H30 0.931 . S
C10 C9 1.392 . S
C10 C11 1.361 . S
C10 C12 1.500 . S
C11 C6 1.390 . S
C11 C10 1.361 . S
C11 H29 0.931 . S
C12 C10 1.500 . S
C12 C13 1.371 . S
C12 C14 1.365 . S
C13 C12 1.371 . S
C13 C23 1.386 . S
C13 H31 0.931 . S
C14 C12 1.365 . S
C14 C15 1.409 . S
C14 H32 0.929 . S
C15 C14 1.409 . S
C15 C16 1.380 . S
C15 H33 0.930 . S
C16 C15 1.380 . S
C16 C23 1.357 . S
C17 C8 1.511 . S
C17 C18 1.341 . S
C17 C19 1.371 . S
C18 C17 1.341 . S
C18 C22 1.394 . S
C18 H34 0.930 . S
C19 C17 1.371 . S
C19 C20 1.392 . S
C19 H35 0.931 . S
C20 C19 1.392 . S
C20 C21 1.331 . S
C20 H38 0.932 . S
C21 C20 1.331 . S
C21 C22 1.336 . S
C22 C18 1.394 . S
C22 C21 1.336 . S
C22 H37 0.929 . S
C23 C13 1.386 . S
C23 C16 1.357 . S
C23 H36 0.928 . S
H24 C0 0.931 . S
H25 C2 0.930 . S
H26 C4 0.929 . S
H27 C5 0.931 . S
H28 C7 0.930 . S
H29 C11 0.931 . S
H30 C9 0.931 . S
H31 C13 0.931 . S
H32 C14 0.929 . S
H33 C15 0.930 . S
H34 C18 0.930 . S
H35 C19 0.931 . S
H36 C23 0.928 . S
H37 C22 0.929 . S
H38 C20 0.932 . S
C39 C40 1.386 . S
C39 C41 1.397 . S
C39 H63 0.931 . S
C40 C39 1.386 . S
C40 C44 1.397 . S
C41 C39 1.397 . S
C41 C42 1.384 . S
C41 H64 0.930 . S
C42 C41 1.384 . S
C42 C43 1.377 . S
C42 C45 1.481 . S
C43 C42 1.377 . S
C43 C44 1.389 . S
C43 H65 0.929 . S
C44 C40 1.397 . S
C44 C43 1.389 . S
C44 H66 0.931 . S
C45 C42 1.481 . S
C45 C46 1.387 . S
C45 C50 1.390 . S
C46 C45 1.387 . S
C46 C47 1.401 . S
C46 H67 0.930 . S
C47 C46 1.401 . S
C47 C48 1.376 . S
C47 C56 1.511 . S
C48 C47 1.376 . S
C48 C49 1.392 . S
C48 H69 0.931 . S
C49 C48 1.392 . S
C49 C50 1.361 . S
C49 C51 1.500 . S
C50 C45 1.390 . S
C50 C49 1.361 . S
C50 H68 0.931 . S
C51 C49 1.500 . S
C51 C52 1.371 . S
C51 C53 1.365 . S
C52 C51 1.371 . S
C52 C62 1.386 . S
C52 H70 0.931 . S
C53 C51 1.365 . S
C53 C54 1.409 . S
C53 H71 0.929 . S
C54 C53 1.409 . S
C54 C55 1.380 . S
C54 H72 0.930 . S
C55 C54 1.380 . S
C55 C62 1.357 . S
C56 C47 1.511 . S
C56 C57 1.341 . S
C56 C58 1.371 . S
C57 C56 1.341 . S
C57 C61 1.394 . S
C57 H73 0.930 . S
C58 C56 1.371 . S
C58 C59 1.392 . S
C58 H74 0.931 . S
C59 C58 1.392 . S
C59 C60 1.331 . S
C59 H77 0.932 . S
C60 C59 1.331 . S
C60 C61 1.336 . S
C61 C57 1.394 . S
C61 C60 1.336 . S
C61 H76 0.929 . S
C62 C52 1.386 . S
C62 C55 1.357 . S
C62 H75 0.928 . S
H63 C39 0.931 . S
H64 C41 0.930 . S
H65 C43 0.929 . S
H66 C44 0.931 . S
H67 C46 0.930 . S
H68 C50 0.931 . S
H69 C48 0.931 . S
H70 C52 0.931 . S
H71 C53 0.929 . S
H72 C54 0.930 . S
H73 C57 0.930 . S
H74 C58 0.931 . S
H75 C62 0.928 . S
H76 C61 0.929 . S
H77 C59 0.932 . S
C78 C79 1.386 . S
C78 C80 1.397 . S
C78 H102 0.931 . S
C79 C78 1.386 . S
C79 C83 1.397 . S
C80 C78 1.397 . S
C80 C81 1.384 . S
C80 H103 0.930 . S
C81 C80 1.384 . S
C81 C82 1.377 . S
C81 C84 1.481 . S
C82 C81 1.377 . S
C82 C83 1.389 . S
C82 H104 0.929 . S
C83 C79 1.397 . S
C83 C82 1.389 . S
C83 H105 0.931 . S
C84 C81 1.481 . S
C84 C85 1.387 . S
C84 C89 1.390 . S
C85 C84 1.387 . S
C85 C86 1.401 . S
C85 H106 0.930 . S
C86 C85 1.401 . S
C86 C87 1.376 . S
C86 C95 1.511 . S
C87 C86 1.376 . S
C87 C88 1.392 . S
C87 H108 0.931 . S
C88 C87 1.392 . S
C88 C89 1.361 . S
C88 C90 1.500 . S
C89 C84 1.390 . S
C89 C88 1.361 . S
C89 H107 0.931 . S
C90 C88 1.500 . S
C90 C91 1.371 . S
C90 C92 1.365 . S
C91 C90 1.371 . S
C91 C101 1.386 . S
C91 H109 0.931 . S
C92 C90 1.365 . S
C92 C93 1.409 . S
C92 H110 0.929 . S
C93 C92 1.409 . S
C93 C94 1.380 . S
C93 H111 0.930 . S
C94 C93 1.380 . S
C94 C101 1.357 . S
C95 C86 1.511 . S
C95 C96 1.341 . S
C95 C97 1.371 . S
C96 C95 1.341 . S
C96 C100 1.394 . S
C96 H112 0.930 . S
C97 C95 1.371 . S
C97 C98 1.392 . S
C97 H113 0.931 . S
C98 C97 1.392 . S
C98 C99 1.331 . S
C98 H116 0.932 . S
C99 C98 1.331 . S
C99 C100 1.336 . S
C100 C96 1.394 . S
C100 C99 1.336 . S
C100 H115 0.929 . S
C101 C91 1.386 . S
C101 C94 1.357 . S
C101 H114 0.928 . S
H102 C78 0.931 . S
H103 C80 0.930 . S
H104 C82 0.929 . S
H105 C83 0.931 . S
H106 C85 0.930 . S
H107 C89 0.931 . S
H108 C87 0.931 . S
H109 C91 0.931 . S
H110 C92 0.929 . S
H111 C93 0.930 . S
H112 C96 0.930 . S
H113 C97 0.931 . S
H114 C101 0.928 . S
H115 C100 0.929 . S
H116 C98 0.932 . S
C117 C118 1.386 . S
C117 C119 1.397 . S
C117 H141 0.931 . S
C118 C117 1.386 . S
C118 C122 1.397 . S
C119 C117 1.397 . S
C119 C120 1.384 . S
C119 H142 0.930 . S
C120 C119 1.384 . S
C120 C121 1.377 . S
C120 C123 1.481 . S
C121 C120 1.377 . S
C121 C122 1.389 . S
C121 H143 0.929 . S
C122 C118 1.397 . S
C122 C121 1.389 . S
C122 H144 0.931 . S
C123 C120 1.481 . S
C123 C124 1.387 . S
C123 C128 1.390 . S
C124 C123 1.387 . S
C124 C125 1.401 . S
C124 H145 0.930 . S
C125 C124 1.401 . S
C125 C126 1.376 . S
C125 C134 1.511 . S
C126 C125 1.376 . S
C126 C127 1.392 . S
C126 H147 0.931 . S
C127 C126 1.392 . S
C127 C128 1.361 . S
C127 C129 1.500 . S
C128 C123 1.390 . S
C128 C127 1.361 . S
C128 H146 0.931 . S
C129 C127 1.500 . S
C129 C130 1.371 . S
C129 C131 1.365 . S
C130 C129 1.371 . S
C130 C140 1.386 . S
C130 H148 0.931 . S
C131 C129 1.365 . S
C131 C132 1.409 . S
C131 H149 0.929 . S
C132 C131 1.409 . S
C132 C133 1.380 . S
C132 H150 0.945 . S
C133 C132 1.380 . S
C133 C140 1.357 . S
C134 C125 1.511 . S
C134 C135 1.341 . S
C134 C136 1.371 . S
C135 C134 1.341 . S
C135 C139 1.394 . S
C135 H151 0.930 . S
C136 C134 1.371 . S
C136 C137 1.392 . S
C136 H152 0.931 . S
C137 C136 1.392 . S
C137 C138 1.331 . S
C137 H155 0.932 . S
C138 C137 1.331 . S
C138 C139 1.336 . S
C139 C135 1.394 . S
C139 C138 1.336 . S
C139 H154 0.929 . S
C140 C130 1.386 . S
C140 C133 1.357 . S
C140 H153 0.928 . S
H141 C117 0.931 . S
H142 C119 0.930 . S
H143 C121 0.929 . S
H144 C122 0.931 . S
H145 C124 0.930 . S
H146 C128 0.931 . S
H147 C126 0.931 . S
H148 C130 0.931 . S
H149 C131 0.929 . S
H150 C132 0.945 . S
H151 C135 0.930 . S
H152 C136 0.931 . S
H153 C140 0.928 . S
H154 C139 0.929 . S
H155 C137 0.932 . S
C156 C157 1.386 . S
C156 C158 1.397 . S
C156 H180 0.931 . S
C157 C156 1.386 . S
C157 C161 1.397 . S
C158 C156 1.397 . S
C158 C159 1.384 . S
C158 H181 0.930 . S
C159 C158 1.384 . S
C159 C160 1.377 . S
C159 C162 1.481 . S
C160 C159 1.377 . S
C160 C161 1.389 . S
C160 H182 0.929 . S
C161 C157 1.397 . S
C161 C160 1.389 . S
C161 H183 0.931 . S
C162 C159 1.481 . S
C162 C163 1.387 . S
C162 C167 1.390 . S
C163 C162 1.387 . S
C163 C164 1.401 . S
C163 H184 0.930 . S
C164 C163 1.401 . S
C164 C165 1.376 . S
C164 C173 1.511 . S
C165 C164 1.376 . S
C165 C166 1.392 . S
C165 H186 0.931 . S
C166 C165 1.392 . S
C166 C167 1.361 . S
C166 C168 1.500 . S
C167 C162 1.390 . S
C167 C166 1.361 . S
C167 H185 0.931 . S
C168 C166 1.500 . S
C168 C169 1.371 . S
C168 C170 1.365 . S
C169 C168 1.371 . S
C169 C179 1.386 . S
C169 H187 0.931 . S
C170 C168 1.365 . S
C170 C171 1.409 . S
C170 H188 0.929 . S
C171 C170 1.409 . S
C171 C172 1.380 . S
C171 H189 0.930 . S
C172 C171 1.380 . S
C172 C179 1.357 . S
C173 C164 1.511 . S
C173 C174 1.341 . S
C173 C175 1.371 . S
C174 C173 1.341 . S
C174 C178 1.394 . S
C174 H190 0.930 . S
C175 C173 1.371 . S
C175 C176 1.392 . S
C175 H191 0.931 . S
C176 C175 1.392 . S
C176 C177 1.331 . S
C176 H194 0.932 . S
C177 C176 1.331 . S
C177 C178 1.336 . S
C178 C174 1.394 . S
C178 C177 1.336 . S
C178 H193 0.929 . S
C179 C169 1.386 . S
C179 C172 1.357 . S
C179 H192 0.928 . S
H180 C156 0.931 . S
H181 C158 0.930 . S
H182 C160 0.929 . S
H183 C161 0.931 . S
H184 C163 0.930 . S
H185 C167 0.931 . S
H186 C165 0.931 . S
H187 C169 0.931 . S
H188 C170 0.929 . S
H189 C171 0.930 . S
H190 C174 0.930 . S
H191 C175 0.931 . S
H192 C179 0.928 . S
H193 C178 0.929 . S
H194 C176 0.932 . S
C195 C196 1.386 . S
C195 C197 1.397 . S
C195 H219 0.931 . S
C196 C195 1.386 . S
C196 C200 1.397 . S
C197 C195 1.397 . S
C197 C198 1.384 . S
C197 H220 0.930 . S
C198 C197 1.384 . S
C198 C199 1.377 . S
C198 C201 1.481 . S
C199 C198 1.377 . S
C199 C200 1.389 . S
C199 H221 0.929 . S
C200 C196 1.397 . S
C200 C199 1.389 . S
C200 H222 0.931 . S
C201 C198 1.481 . S
C201 C202 1.387 . S
C201 C206 1.390 . S
C202 C201 1.387 . S
C202 C203 1.401 . S
C202 H223 0.930 . S
C203 C202 1.401 . S
C203 C204 1.376 . S
C203 C212 1.511 . S
C204 C203 1.376 . S
C204 C205 1.392 . S
C204 H225 0.931 . S
C205 C204 1.392 . S
C205 C206 1.361 . S
C205 C207 1.500 . S
C206 C201 1.390 . S
C206 C205 1.361 . S
C206 H224 0.931 . S
C207 C205 1.500 . S
C207 C208 1.371 . S
C207 C209 1.365 . S
C208 C207 1.371 . S
C208 C218 1.386 . S
C208 H226 0.931 . S
C209 C207 1.365 . S
C209 C210 1.409 . S
C209 H227 0.929 . S
C210 C209 1.409 . S
C210 C211 1.380 . S
C210 H228 0.930 . S
C211 C210 1.380 . S
C211 C218 1.357 . S
C212 C203 1.511 . S
C212 C213 1.341 . S
C212 C214 1.371 . S
C213 C212 1.341 . S
C213 C217 1.394 . S
C213 H229 0.930 . S
C214 C212 1.371 . S
C214 C215 1.392 . S
C214 H230 0.931 . S
C215 C214 1.392 . S
C215 C216 1.331 . S
C215 H233 0.932 . S
C216 C215 1.331 . S
C216 C217 1.336 . S
C217 C213 1.394 . S
C217 C216 1.336 . S
C217 H232 0.929 . S
C218 C208 1.386 . S
C218 C211 1.357 . S
C218 H231 0.928 . S
H219 C195 0.931 . S
H220 C197 0.930 . S
H221 C199 0.929 . S
H222 C200 0.931 . S
H223 C202 0.930 . S
H224 C206 0.931 . S
H225 C204 0.931 . S
H226 C208 0.931 . S
H227 C209 0.929 . S
H228 C210 0.930 . S
H229 C213 0.930 . S
H230 C214 0.931 . S
H231 C218 0.928 . S
H232 C217 0.929 . S
H233 C215 0.932 . S
C234 C235 1.386 . S
C234 C236 1.397 . S
C234 H258 0.931 . S
C235 C234 1.386 . S
C235 C239 1.397 . S
C236 C234 1.397 . S
C236 C237 1.384 . S
C236 H259 0.930 . S
C237 C236 1.384 . S
C237 C238 1.377 . S
C237 C240 1.481 . S
C238 C237 1.377 . S
C238 C239 1.389 . S
C238 H260 0.929 . S
C239 C235 1.397 . S
C239 C238 1.389 . S
C239 H261 0.931 . S
C240 C237 1.481 . S
C240 C241 1.387 . S
C240 C245 1.390 . S
C241 C240 1.387 . S
C241 C242 1.401 . S
C241 H262 0.930 . S
C242 C241 1.401 . S
C242 C243 1.376 . S
C242 C251 1.511 . S
C243 C242 1.376 . S
C243 C244 1.392 . S
C243 H264 0.931 . S
C244 C243 1.392 . S
C244 C245 1.361 . S
C244 C246 1.500 . S
C245 C240 1.390 . S
C245 C244 1.361 . S
C245 H263 0.931 . S
C246 C244 1.500 . S
C246 C247 1.371 . S
C246 C248 1.365 . S
C247 C246 1.371 . S
C247 C257 1.386 . S
C247 H265 0.931 . S
C248 C246 1.365 . S
C248 C249 1.409 . S
C248 H266 0.929 . S
C249 C248 1.409 . S
C249 C250 1.380 . S
C249 H267 0.930 . S
C250 C249 1.380 . S
C250 C257 1.357 . S
C251 C242 1.511 . S
C251 C252 1.341 . S
C251 C253 1.371 . S
C252 C251 1.341 . S
C252 C256 1.394 . S
C252 H268 0.930 . S
C253 C251 1.371 . S
C253 C254 1.392 . S
C253 H269 0.931 . S
C254 C253 1.392 . S
C254 C255 1.331 . S
C254 H272 0.932 . S
C255 C254 1.331 . S
C255 C256 1.336 . S
C256 C252 1.394 . S
C256 C255 1.336 . S
C256 H271 0.929 . S
C257 C247 1.386 . S
C257 C250 1.357 . S
C257 H270 0.928 . S
H258 C234 0.931 . S
H259 C236 0.930 . S
H260 C238 0.929 . S
H261 C239 0.931 . S
H262 C241 0.930 . S
H263 C245 0.931 . S
H264 C243 0.931 . S
H265 C247 0.931 . S
H266 C248 0.929 . S
H267 C249 0.930 . S
H268 C252 0.930 . S
H269 C253 0.931 . S
H270 C257 0.928 . S
H271 C256 0.929 . S
H272 C254 0.932 . S
C273 C274 1.386 . S
C273 C275 1.397 . S
C273 H297 0.931 . S
C274 C273 1.386 . S
C274 C278 1.397 . S
C275 C273 1.397 . S
C275 C276 1.384 . S
C275 H298 0.930 . S
C276 C275 1.384 . S
C276 C277 1.377 . S
C276 C279 1.481 . S
C277 C276 1.377 . S
C277 C278 1.389 . S
C277 H299 0.929 . S
C278 C274 1.397 . S
C278 C277 1.389 . S
C278 H300 0.931 . S
C279 C276 1.481 . S
C279 C280 1.387 . S
C279 C284 1.390 . S
C280 C279 1.387 . S
C280 C281 1.401 . S
C280 H301 0.930 . S
C281 C280 1.401 . S
C281 C282 1.376 . S
C281 C290 1.511 . S
C282 C281 1.376 . S
C282 C283 1.392 . S
C282 H303 0.931 . S
C283 C282 1.392 . S
C283 C284 1.361 . S
C283 C285 1.500 . S
C284 C279 1.390 . S
C284 C283 1.361 . S
C284 H302 0.931 . S
C285 C283 1.500 . S
C285 C286 1.371 . S
C285 C287 1.365 . S
C286 C285 1.371 . S
C286 C296 1.386 . S
C286 H304 0.931 . S
C287 C285 1.365 . S
C287 C288 1.409 . S
C287 H305 0.929 . S
C288 C287 1.409 . S
C288 C289 1.380 . S
C288 H306 0.930 . S
C289 C288 1.380 . S
C289 C296 1.357 . S
C290 C281 1.511 . S
C290 C291 1.341 . S
C290 C292 1.371 . S
C291 C290 1.341 . S
C291 C295 1.394 . S
C291 H307 0.930 . S
C292 C290 1.371 . S
C292 C293 1.392 . S
C292 H308 0.931 . S
C293 C292 1.392 . S
C293 C294 1.331 . S
C293 H311 0.932 . S
C294 C293 1.331 . S
C294 C295 1.336 . S
C295 C291 1.394 . S
C295 C294 1.336 . S
C295 H310 0.929 . S
C296 C286 1.386 . S
C296 C289 1.357 . S
C296 H309 0.928 . S
H297 C273 0.931 . S
H298 C275 0.930 . S
H299 C277 0.929 . S
H300 C278 0.931 . S
H301 C280 0.930 . S
H302 C284 0.931 . S
H303 C282 0.931 . S
H304 C286 0.931 . S
H305 C287 0.929 . S
H306 C288 0.930 . S
H307 C291 0.930 . S
H308 C292 0.931 . S
H309 C296 0.928 . S
H310 C295 0.929 . S
H311 C293 0.932 . S
La312 C314 2.928 . S
La312 O332 2.521 . S
La312 O333 2.628 . S
La312 O334 2.554 1_545 S
La312 O335 2.757 1_545 S
La312 O336 2.470 . S
La312 O341 2.482 1_455 S
La312 O343 2.503 1_445 S
La313 C323 2.933 . S
La313 O335 2.485 1_655 S
La313 O337 2.498 1_665 S
La313 O338 2.523 . S
La313 O339 2.634 . S
La313 O340 2.550 1_565 S
La313 O341 2.754 1_565 S
La313 O342 2.474 . S
C314 La312 2.928 . S
C314 C315 1.503 . S
C314 O332 1.261 . S
C314 O333 1.243 . S
C315 C314 1.503 . S
C315 C316 1.394 . S
C315 C320 1.373 . S
C316 C315 1.394 . S
C316 C317 1.380 . S
C316 H344 0.930 . S
C317 C316 1.380 . S
C317 C318 1.376 . S
C317 H345 0.930 . S
C318 C317 1.376 . S
C318 C319 1.370 . S
C319 C318 1.370 . S
C319 C320 1.396 . S
C319 H346 0.929 . S
C320 C315 1.373 . S
C320 C319 1.396 . S
C320 H347 0.929 . S
C321 O334 1.240 . S
C321 O335 1.289 . S
C322 O336 1.258 . S
C322 O337 1.256 . S
C323 La313 2.933 . S
C323 C324 1.503 . S
C323 O338 1.261 . S
C323 O339 1.243 . S
C324 C323 1.503 . S
C324 C325 1.394 . S
C324 C329 1.373 . S
C325 C324 1.394 . S
C325 C326 1.380 . S
C325 H348 0.930 . S
C326 C325 1.380 . S
C326 C327 1.376 . S
C326 H349 0.930 . S
C327 C326 1.376 . S
C327 C328 1.370 . S
C328 C327 1.370 . S
C328 C329 1.396 . S
C328 H350 0.929 . S
C329 C324 1.373 . S
C329 C328 1.396 . S
C329 H351 0.929 . S
C330 O340 1.240 . S
C330 O341 1.289 . S
C331 O342 1.258 . S
C331 O343 1.256 . S
O332 La312 2.521 . S
O332 C314 1.261 . S
O333 La312 2.628 . S
O333 C314 1.243 . S
O334 La312 2.554 1_565 S
O334 C321 1.240 . S
O335 La312 2.757 1_565 S
O335 La313 2.485 1_455 S
O335 C321 1.289 . S
O336 La312 2.470 . S
O336 C322 1.258 . S
O337 La313 2.498 1_445 S
O337 C322 1.256 . S
O338 La313 2.523 . S
O338 C323 1.261 . S
O339 La313 2.634 . S
O339 C323 1.243 . S
O340 La313 2.550 1_545 S
O340 C330 1.240 . S
O341 La312 2.482 1_655 S
O341 La313 2.754 1_545 S
O341 C330 1.289 . S
O342 La313 2.474 . S
O342 C331 1.258 . S
O343 La312 2.503 1_665 S
O343 C331 1.256 . S
H344 C316 0.930 . S
H345 C317 0.930 . S
H346 C319 0.929 . S
H347 C320 0.929 . S
H348 C325 0.930 . S
H349 C326 0.930 . S
H350 C328 0.929 . S
H351 C329 0.929 . S
La352 C354 2.928 . S
La352 O372 2.521 . S
La352 O373 2.628 . S
La352 O374 2.554 1_545 S
La352 O375 2.757 1_545 S
La352 O376 2.470 . S
La352 O381 2.482 1_554 S
La352 O383 2.503 1_544 S
La353 C363 2.928 1_545 S
La353 O375 2.482 1_546 S
La353 O377 2.503 1_556 S
La353 O378 2.521 1_545 S
La353 O379 2.628 1_545 S
La353 O380 2.554 . S
La353 O381 2.757 . S
La353 O382 2.470 1_545 S
C354 La352 2.928 . S
C354 C355 1.503 . S
C354 O372 1.261 . S
C354 O373 1.243 . S
C355 C354 1.503 . S
C355 C356 1.394 . S
C355 C360 1.373 . S
C356 C355 1.394 . S
C356 C357 1.380 . S
C356 H384 0.930 . S
C357 C356 1.380 . S
C357 C358 1.376 . S
C357 H385 0.930 . S
C358 C357 1.376 . S
C358 C359 1.370 . S
C359 C358 1.370 . S
C359 C360 1.396 . S
C359 H386 0.929 . S
C360 C355 1.373 . S
C360 C359 1.396 . S
C360 H387 0.929 . S
C361 O374 1.240 . S
C361 O375 1.289 . S
C362 O376 1.258 . S
C362 O377 1.256 . S
C363 La353 2.928 1_565 S
C363 C364 1.503 . S
C363 O378 1.261 . S
C363 O379 1.243 . S
C364 C363 1.503 . S
C364 C365 1.394 . S
C364 C369 1.373 . S
C365 C364 1.394 . S
C365 C366 1.380 . S
C365 H388 0.930 . S
C366 C365 1.380 . S
C366 C367 1.376 . S
C366 H389 0.930 . S
C367 C366 1.376 . S
C367 C368 1.370 . S
C368 C367 1.370 . S
C368 C369 1.396 . S
C368 H390 0.929 . S
C369 C364 1.373 . S
C369 C368 1.396 . S
C369 H391 0.929 . S
C370 O380 1.240 . S
C370 O381 1.289 . S
C371 O382 1.258 . S
C371 O383 1.256 . S
O372 La352 2.521 . S
O372 C354 1.261 . S
O373 La352 2.628 . S
O373 C354 1.243 . S
O374 La352 2.554 1_565 S
O374 C361 1.240 . S
O375 La352 2.757 1_565 S
O375 La353 2.482 1_564 S
O375 C361 1.289 . S
O376 La352 2.470 . S
O376 C362 1.258 . S
O377 La353 2.503 1_554 S
O377 C362 1.256 . S
O378 La353 2.521 1_565 S
O378 C363 1.261 . S
O379 La353 2.628 1_565 S
O379 C363 1.243 . S
O380 La353 2.554 . S
O380 C370 1.240 . S
O381 La352 2.482 1_556 S
O381 La353 2.757 . S
O381 C370 1.289 . S
O382 La353 2.470 1_565 S
O382 C371 1.258 . S
O383 La352 2.503 1_566 S
O383 C371 1.256 . S
H384 C356 0.930 . S
H385 C357 0.930 . S
H386 C359 0.929 . S
H387 C360 0.929 . S
H388 C365 0.930 . S
H389 C366 0.930 . S
H390 C368 0.929 . S
H391 C369 0.929 . S
La392 C394 2.928 . S
La392 O412 2.521 . S
La392 O413 2.628 . S
La392 O414 2.554 . S
La392 O415 2.757 . S
La392 O416 2.470 . S
La392 O421 2.482 . S
La392 O423 2.503 . S
La393 C403 2.928 . S
La393 O415 2.482 . S
La393 O417 2.503 . S
La393 O418 2.521 . S
La393 O419 2.628 . S
La393 O420 2.554 . S
La393 O421 2.757 . S
La393 O422 2.470 . S
C394 La392 2.928 . S
C394 C395 1.503 . S
C394 O412 1.261 . S
C394 O413 1.243 . S
C395 C394 1.503 . S
C395 C396 1.394 . S
C395 C400 1.373 . S
C396 C395 1.394 . S
C396 C397 1.380 . S
C396 H424 0.930 . S
C397 C396 1.380 . S
C397 C398 1.376 . S
C397 H425 0.930 . S
C398 C397 1.376 . S
C398 C399 1.370 . S
C399 C398 1.370 . S
C399 C400 1.396 . S
C399 H426 0.929 . S
C400 C395 1.373 . S
C400 C399 1.396 . S
C400 H427 0.929 . S
C401 O414 1.240 . S
C401 O415 1.289 . S
C402 O416 1.258 . S
C402 O417 1.256 . S
C403 La393 2.928 . S
C403 C404 1.503 . S
C403 O418 1.261 . S
C403 O419 1.243 . S
C404 C403 1.503 . S
C404 C405 1.394 . S
C404 C409 1.373 . S
C405 C404 1.394 . S
C405 C406 1.380 . S
C405 H428 0.930 . S
C406 C405 1.380 . S
C406 C407 1.376 . S
C406 H429 0.930 . S
C407 C406 1.376 . S
C407 C408 1.370 . S
C408 C407 1.370 . S
C408 C409 1.396 . S
C408 H430 0.929 . S
C409 C404 1.373 . S
C409 C408 1.396 . S
C409 H431 0.929 . S
C410 O420 1.240 . S
C410 O421 1.289 . S
C411 O422 1.258 . S
C411 O423 1.256 . S
O412 La392 2.521 . S
O412 C394 1.261 . S
O413 La392 2.628 . S
O413 C394 1.243 . S
O414 La392 2.554 . S
O414 C401 1.240 . S
O415 La392 2.757 . S
O415 La393 2.482 . S
O415 C401 1.289 . S
O416 La392 2.470 . S
O416 C402 1.258 . S
O417 La393 2.503 . S
O417 C402 1.256 . S
O418 La393 2.521 . S
O418 C403 1.261 . S
O419 La393 2.628 . S
O419 C403 1.243 . S
O420 La393 2.554 . S
O420 C410 1.240 . S
O421 La392 2.482 . S
O421 La393 2.757 . S
O421 C410 1.289 . S
O422 La393 2.470 . S
O422 C411 1.258 . S
O423 La392 2.503 . S
O423 C411 1.256 . S
H424 C396 0.930 . S
H425 C397 0.930 . S
H426 C399 0.929 . S
H427 C400 0.929 . S
H428 C405 0.930 . S
H429 C406 0.930 . S
H430 C408 0.929 . S
H431 C409 0.929 . S
La432 C434 2.928 . S
La432 O452 2.521 . S
La432 O453 2.628 . S
La432 O454 2.554 1_455 S
La432 O455 2.757 1_455 S
La432 O456 2.470 . S
La432 O461 2.482 1_554 S
La432 O463 2.503 1_454 S
La433 C443 2.928 . S
La433 O455 2.482 1_556 S
La433 O457 2.503 1_656 S
La433 O458 2.521 . S
La433 O459 2.628 . S
La433 O460 2.554 1_655 S
La433 O461 2.757 1_655 S
La433 O462 2.470 . S
C434 La432 2.928 . S
C434 C435 1.503 . S
C434 O452 1.261 . S
C434 O453 1.243 . S
C435 C434 1.503 . S
C435 C436 1.394 . S
C435 C440 1.373 . S
C436 C435 1.394 . S
C436 C437 1.380 . S
C436 H464 0.930 . S
C437 C436 1.380 . S
C437 C438 1.376 . S
C437 H465 0.930 . S
C438 C437 1.376 . S
C438 C439 1.370 . S
C439 C438 1.370 . S
C439 C440 1.396 . S
C439 H466 0.929 . S
C440 C435 1.373 . S
C440 C439 1.396 . S
C440 H467 0.929 . S
C441 O454 1.240 . S
C441 O455 1.289 . S
C442 O456 1.258 . S
C442 O457 1.256 . S
C443 La433 2.928 . S
C443 C444 1.503 . S
C443 O458 1.261 . S
C443 O459 1.243 . S
C444 C443 1.503 . S
C444 C445 1.394 . S
C444 C449 1.373 . S
C445 C444 1.394 . S
C445 C446 1.380 . S
C445 H468 0.930 . S
C446 C445 1.380 . S
C446 C447 1.376 . S
C446 H469 0.930 . S
C447 C446 1.376 . S
C447 C448 1.370 . S
C448 C447 1.370 . S
C448 C449 1.396 . S
C448 H470 0.929 . S
C449 C444 1.373 . S
C449 C448 1.396 . S
C449 H471 0.929 . S
C450 O460 1.240 . S
C450 O461 1.289 . S
C451 O462 1.258 . S
C451 O463 1.256 . S
O452 La432 2.521 . S
O452 C434 1.261 . S
O453 La432 2.628 . S
O453 C434 1.243 . S
O454 La432 2.554 1_655 S
O454 C441 1.240 . S
O455 La432 2.757 1_655 S
O455 La433 2.482 1_554 S
O455 C441 1.289 . S
O456 La432 2.470 . S
O456 C442 1.258 . S
O457 La433 2.503 1_454 S
O457 C442 1.256 . S
O458 La433 2.521 . S
O458 C443 1.261 . S
O459 La433 2.628 . S
O459 C443 1.243 . S
O460 La433 2.554 1_455 S
O460 C450 1.240 . S
O461 La432 2.482 1_556 S
O461 La433 2.757 1_455 S
O461 C450 1.289 . S
O462 La433 2.470 . S
O462 C451 1.258 . S
O463 La432 2.503 1_656 S
O463 C451 1.256 . S
H464 C436 0.930 . S
H465 C437 0.930 . S
H466 C439 0.929 . S
H467 C440 0.929 . S
H468 C445 0.930 . S
H469 C446 0.930 . S
H470 C448 0.929 . S
H471 C449 0.929 . S
C1 C318 2.165 . S
C40 C367 1.820 . S
C402 C99 3.662 . S
C118 C441 3.581 . S
C362 C16 4.539 . S
C321 C60 1.589 . S
C451 C79 2.510 . S
C410 C138 2.242 . S
C21 C438 2.996 . S
C370 C94 3.366 . S
C133 C331 3.327 . S
C55 C407 2.537 . S
C327 C157 2.193 . S
C196 C358 1.827 . S
C255 C411 3.661 . S
C289 C450 3.575 . S
C172 C371 4.518 . S
C330 C216 1.548 . S
C442 C235 2.514 . S
C401 C294 2.251 . S
C177 C447 3.027 . S
C361 C250 3.368 . S
C322 C274 3.327 . S
C211 C398 2.556 . S
