# Generated by pormake.
# Topology zzz, (3,6)-cn, num edge types: 1
# Building blocks:
#     Node 0, Type 0, BuildingBlock: QEWDON_clean_linker_0, # of connection points: 3
#     Node 1, Type 0, BuildingBlock: QEWDON_clean_linker_0, # of connection points: 3
#     Node 2, Type 0, BuildingBlock: QEWDON_clean_linker_0, # of connection points: 3
#     Node 3, Type 0, BuildingBlock: QEWDON_clean_linker_0, # of connection points: 3
#     Node 4, Type 0, BuildingBlock: QEWDON_clean_linker_0, # of connection points: 3
#     Node 5, Type 0, BuildingBlock: QEWDON_clean_linker_0, # of connection points: 3
#     Node 6, Type 0, BuildingBlock: QEWDON_clean_linker_0, # of connection points: 3
#     Node 7, Type 0, BuildingBlock: QEWDON_clean_linker_0, # of connection points: 3
#     Node 8, Type 1, BuildingBlock: GEDQOX_clean_sbu_0, # of connection points: 6
#     Node 9, Type 1, BuildingBlock: GEDQOX_clean_sbu_0, # of connection points: 6
#     Node 10, Type 1, BuildingBlock: GEDQOX_clean_sbu_0, # of connection points: 6
#     Node 11, Type 1, BuildingBlock: GEDQOX_clean_sbu_0, # of connection points: 6
#     Edge 12, Type (0, 1), None
#     Edge 13, Type (0, 1), None
#     Edge 14, Type (0, 1), None
#     Edge 15, Type (0, 1), None
#     Edge 16, Type (0, 1), None
#     Edge 17, Type (0, 1), None
#     Edge 18, Type (0, 1), None
#     Edge 19, Type (0, 1), None
#     Edge 20, Type (0, 1), None
#     Edge 21, Type (0, 1), None
#     Edge 22, Type (0, 1), None
#     Edge 23, Type (0, 1), None
#     Edge 24, Type (0, 1), None
#     Edge 25, Type (0, 1), None
#     Edge 26, Type (0, 1), None
#     Edge 27, Type (0, 1), None
#     Edge 28, Type (0, 1), None
#     Edge 29, Type (0, 1), None
#     Edge 30, Type (0, 1), None
#     Edge 31, Type (0, 1), None
#     Edge 32, Type (0, 1), None
#     Edge 33, Type (0, 1), None
#     Edge 34, Type (0, 1), None
#     Edge 35, Type (0, 1), None
# Relax obj value: 0.127
# Max RMSD: 0.252
# Mean RMSD: 0.124
data_MOF--net-zzz--node1-GEDQOX_clean_sbu_0--node2-QEWDON_clean_linker_0--edge1-none
_symmetry_space_group_name_H-M    P1
_symmetry_Int_Tables_number       1
_symmetry_cell_setting            triclinic
loop_
_symmetry_equiv_pos_as_xyz
'x, y, z'
_cell_length_a     27.752064
_cell_length_b     26.43455
_cell_length_c     10.180974
_cell_angle_alpha  71.660778
_cell_angle_beta   89.370055
_cell_angle_gamma 104.55634
loop_
_atom_site_label
_atom_site_type_symbol
_atom_site_fract_x
_atom_site_fract_y
_atom_site_fract_z
_atom_type_partial_charge
H0 H 0.86319 0.52391 0.01361 0.0
C1 C 0.85951 0.5242 0.11934 0.0
C2 C 0.89654 0.51006 0.20679 0.0
C3 C 0.821 0.54352 0.16338 0.0
H4 H 0.92099 0.50027 0.40914 0.0
C5 C 0.89135 0.50877 0.34391 0.0
C6 C 0.85641 0.53204 0.38643 0.0
C7 C 0.82077 0.54845 0.2974 0.0
C8 C 0.78638 0.56663 0.06312 0.0
H9 H 0.79598 0.56938 0.32823 0.0
C10 C 0.73691 0.56387 0.10802 0.0
C11 C 0.70567 0.58818 0.01321 0.0
C12 C 0.80356 0.59419 0.92141 0.0
H13 H 0.84154 0.59934 0.88249 0.0
C14 C 0.77249 0.61726 0.8275 0.0
H15 H 0.72275 0.54299 0.21632 0.0
C16 C 0.72397 0.61433 0.87266 0.0
H17 H 0.7009 0.6331 0.79745 0.0
H18 H 0.78638 0.63823 0.71909 0.0
H19 H 0.05202 0.8704 0.103 0.0
C20 C 0.05844 0.86406 0.21122 0.0
C21 C 0.0674 0.90921 0.26049 0.0
C22 C 0.05338 0.8098 0.30292 0.0
H23 H 0.08413 0.93632 0.43438 0.0
C24 C 0.07657 0.90103 0.39769 0.0
C25 C 0.06807 0.84789 0.4941 0.0
C26 C 0.05604 0.80157 0.44709 0.0
C27 C 0.03125 0.76339 0.24953 0.0
H28 H 0.04585 0.76009 0.52157 0.0
C29 C 0.05735 0.7261 0.22789 0.0
C30 C 0.03522 0.68839 0.15774 0.0
C31 C 0.98339 0.76129 0.20427 0.0
H32 H 0.96277 0.78911 0.21977 0.0
C33 C 0.96207 0.72501 0.13499 0.0
H34 H 0.09425 0.72717 0.26242 0.0
C35 C 0.98766 0.68949 0.11085 0.0
H36 H 0.96929 0.66197 0.05615 0.0
H37 H 0.9254 0.72449 0.09924 0.0
H38 H 0.74705 0.063 0.93352 0.0
C39 C 0.75255 0.06012 0.04037 0.0
C40 C 0.72382 0.08306 0.10813 0.0
C41 C 0.78993 0.03663 0.11018 0.0
H42 H 0.72706 0.11605 0.27335 0.0
C43 C 0.73908 0.08697 0.23674 0.0
C44 C 0.75706 0.04334 0.32685 0.0
C45 C 0.78758 1.0227 0.25722 0.0
C46 C 0.83214 0.02988 0.03078 0.0
H47 H 0.80709 0.99371 0.31703 0.0
C48 C 0.88074 0.03981 0.07515 0.0
C49 C 0.92275 0.04526 0.98792 0.0
C50 C 0.82617 1.02134 0.90159 0.0
H51 H 0.78954 1.01181 0.86553 0.0
C52 C 0.86778 1.02663 0.81498 0.0
H53 H 0.88646 0.04701 0.17358 0.0
C54 C 0.91585 0.04003 0.85605 0.0
H55 H 0.94753 0.04605 0.78476 0.0
H56 H 0.8628 1.02149 0.71418 0.0
H57 H 0.52387 0.85603 0.45917 0.0
C58 C 0.53259 0.82621 0.5497 0.0
C59 C 0.51611 0.77076 0.56085 0.0
C60 C 0.56331 0.84358 0.64536 0.0
H61 H 0.52109 0.68905 0.67084 0.0
C62 C 0.5313 0.73175 0.6672 0.0
C63 C 0.56349 0.74657 0.76043 0.0
C64 C 0.57963 0.80325 0.75151 0.0
C65 C 0.57958 0.90464 0.61773 0.0
H66 H 0.60465 0.81569 0.8233 0.0
C67 C 0.53633 0.94058 0.54635 0.0
C68 C 0.54702 1.00827 0.44222 0.0
C69 C 0.64308 0.93959 0.5985 0.0
H70 H 0.6702 0.91667 0.64122 0.0
C71 C 0.65362 0.0434 0.4593 0.0
H72 H 0.49881 0.91554 0.54785 0.0
C73 C 0.60024 0.05664 0.4158 0.0
H74 H 0.60254 0.0978 0.35355 0.0
H75 H 0.68307 0.08024 0.45139 0.0
H76 H 0.24459 0.61666 0.04213 0.0
C77 C 0.24824 0.61397 0.93927 0.0
C78 C 0.2062 0.61656 0.86448 0.0
C79 C 0.29155 0.60384 0.88706 0.0
H80 H 0.17249 0.6069 0.68379 0.0
C81 C 0.20634 0.6083 0.73678 0.0
C82 C 0.2442 0.58961 0.69178 0.0
C83 C 0.28737 0.5885 0.76436 0.0
C84 C 0.33802 0.60538 0.96729 0.0
H85 H 0.31604 0.57408 0.72652 0.0
C86 C 0.38073 0.59011 0.92934 0.0
C87 C 0.42213 0.59027 0.0107 0.0
C88 C 0.3407 0.62393 0.08427 0.0
H89 H 0.3126 0.64048 0.11591 0.0
C90 C 0.38089 0.62302 0.16477 0.0
H91 H 0.38255 0.57808 0.83782 0.0
C92 C 0.42084 0.60564 0.12954 0.0
H93 H 0.45205 0.60714 0.19141 0.0
H94 H 0.38148 0.63703 0.25407 0.0
H95 H 0.06563 0.27198 0.88977 0.0
C96 C 0.07209 0.28205 0.77816 0.0
C97 C 0.08409 0.24328 0.72316 0.0
C98 C 0.06272 0.331 0.68841 0.0
H99 H 0.10228 0.22654 0.54086 0.0
C100 C 0.09201 0.25627 0.58115 0.0
C101 C 0.0795 0.30177 0.49014 0.0
C102 C 0.06416 0.33904 0.54341 0.0
C103 C 0.03986 0.36592 0.7473 0.0
H104 H 0.0514 0.37239 0.47403 0.0
C105 C 0.06608 0.39975 0.82262 0.0
C106 C 0.04193 0.43173 0.87606 0.0
C107 C 0.98944 0.36387 0.7293 0.0
H108 H 0.96843 0.33827 0.67332 0.0
C109 C 0.96511 0.39342 0.78587 0.0
H110 H 0.10483 0.40138 0.83906 0.0
C111 C 0.99079 0.42659 0.85902 0.0
H112 H 0.97039 0.44865 0.9016 0.0
H113 H 0.92597 0.39066 0.77281 0.0
H114 H 0.37039 0.04253 0.04231 0.0
C115 C 0.37936 0.07037 0.93605 0.0
C116 C 0.4285 0.10104 0.89286 0.0
C117 C 0.34198 0.07734 0.84426 0.0
H118 H 0.47813 0.16618 0.73193 0.0
C119 C 0.43998 0.14143 0.76252 0.0
C120 C 0.40707 0.14061 0.66033 0.0
C121 C 0.35655 0.10981 0.70217 0.0
C122 C 0.28916 0.04902 0.90219 0.0
H123 H 0.3298 0.10905 0.6257 0.0
C124 C 0.25196 0.07801 0.88305 0.0
C125 C 0.20601 0.05472 0.96778 0.0
C126 C 0.27814 0.99506 0.99845 0.0
H127 H 0.30531 0.97114 0.01271 0.0
C128 C 0.23349 0.97264 0.08389 0.0
H129 H 0.25931 0.11899 0.80674 0.0
C130 C 0.19834 1.00269 0.07136 0.0
H131 H 0.1642 0.98371 0.1398 0.0
H132 H 0.22625 0.93194 0.16118 0.0
H133 H 0.50204 0.28471 0.61039 0.0
C134 C 0.50819 0.31605 0.50852 0.0
C135 C 0.48376 0.35759 0.49104 0.0
C136 C 0.55292 0.32796 0.42351 0.0
H137 H 0.45997 0.4186 0.33225 0.0
C138 C 0.48476 0.39174 0.35423 0.0
C139 C 0.52948 0.40856 0.26796 0.0
C140 C 0.5641 0.3761 0.30259 0.0
C141 C 0.59161 0.29947 0.48723 0.0
H142 H 0.60039 0.39046 0.24339 0.0
C143 C 0.57671 0.24369 0.57499 0.0
C144 C 0.60749 0.22133 0.67371 0.0
C145 C 0.64082 0.33047 0.48798 0.0
H146 H 0.65376 0.3736 0.42452 0.0
C147 C 0.67282 0.30735 0.57937 0.0
H148 H 0.53963 0.21895 0.57247 0.0
C149 C 0.65592 0.25368 0.67429 0.0
H150 H 0.68076 0.23741 0.74744 0.0
H151 H 0.7103 0.33201 0.58058 0.0
Nd152 Nd 0.06733 0.05489 0.86509 0.0
Nd153 Nd 0.06824 0.0924 0.1087 0.0
C154 C 0.04138 0.99094 0.71014 0.0
C155 C 0.04653 0.9358 0.7149 0.0
C156 C 1.00451 0.89566 0.70195 0.0
C157 C 1.01049 0.84941 0.67077 0.0
C158 C 0.05888 0.84607 0.63944 0.0
C159 C 0.09887 0.87739 0.68945 0.0
C160 C 0.09314 0.92356 0.72209 0.0
C161 C 0.16319 0.07946 0.93917 0.0
C162 C 0.06419 0.96468 0.17466 0.0
C163 C 0.08479 0.15237 0.27496 0.0
C164 C 0.07794 0.20702 0.27019 0.0
C165 C 0.11955 0.25357 0.24007 0.0
C166 C 0.11632 0.30009 0.27447 0.0
C167 C 0.0726 0.29829 0.34911 0.0
C168 C 0.02831 0.25921 0.34331 0.0
C169 C 0.03122 0.21234 0.31016 0.0
C170 C 0.97377 0.05847 0.03195 0.0
C171 C 0.08117 0.18572 0.80797 0.0
O172 O 1.01104 0.99119 0.80868 0.0
O173 O 0.08185 0.03253 0.67835 0.0
O174 O 0.15169 0.09356 0.8118 0.0
O175 O 0.12367 0.05743 0.0223 0.0
O176 O 0.0516 0.97264 0.04719 0.0
O177 O 0.07826 1.0068 0.22218 0.0
O178 O 0.11977 0.1528 0.18705 0.0
O179 O 0.04469 0.11116 0.2933 0.0
O180 O 0.98389 0.04821 0.1602 0.0
O181 O 1.01209 0.08783 0.95011 0.0
O182 O 0.09147 0.17569 0.9368 0.0
O183 O 0.06517 0.14493 0.75578 0.0
H184 H 0.96767 0.90258 0.70298 0.0
H185 H 0.9784 0.82411 0.6402 0.0
H186 H 0.13647 0.87416 0.67307 0.0
H187 H 0.12593 0.95217 0.73952 0.0
H188 H 0.15575 0.25192 0.20366 0.0
H189 H 0.15073 0.33108 0.27144 0.0
H190 H 0.9934 0.25809 0.3944 0.0
H191 H 0.9978 0.17838 0.32872 0.0
Nd192 Nd 0.56494 0.0529 0.93504 0.0
Nd193 Nd 0.57024 0.1281 0.09997 0.0
C194 C 0.56365 0.99458 0.75084 0.0
C195 C 0.60251 0.99355 0.64174 0.0
C196 C 0.66246 1.01025 0.69738 0.0
C197 C 0.71534 1.01266 0.60221 0.0
C198 C 0.71946 1.00182 0.4448 0.0
C199 C 0.6727 0.979 0.35882 0.0
C200 C 0.61361 0.97245 0.40429 0.0
C201 C 0.58845 0.16472 0.7757 0.0
C202 C 0.67362 0.09175 0.06355 0.0
C203 C 0.55643 0.20416 0.20207 0.0
C204 C 0.5159 0.1904 0.31527 0.0
C205 C 0.4836 0.22411 0.31381 0.0
C206 C 0.44346 0.20673 0.41913 0.0
C207 C 0.43292 0.15373 0.5202 0.0
C208 C 0.46287 0.11897 0.51254 0.0
C209 C 0.50513 0.13834 0.41824 0.0
C210 C 0.52798 1.02243 0.29354 0.0
C211 C 0.47007 0.09036 0.97425 0.0
O212 O 0.57198 0.9774 0.88278 0.0
O213 O 0.5513 0.04061 0.72707 0.0
O214 O 0.55408 0.12655 0.75309 0.0
O215 O 0.6071 0.14467 0.88605 0.0
O216 O 0.64765 0.06098 0.9928 0.0
O217 O 0.65301 0.12343 0.11279 0.0
O218 O 0.5406 0.20056 0.0843 0.0
O219 O 0.59343 0.18152 0.23396 0.0
O220 O 0.50853 0.06328 0.26522 0.0
O221 O 0.55956 0.0335 0.18536 0.0
O222 O 0.5049 0.13403 0.97292 0.0
O223 O 0.48221 0.04353 0.9955 0.0
H224 H 0.66703 1.02082 0.7916 0.0
H225 H 0.75047 0.02963 0.63735 0.0
H226 H 0.68079 0.97225 0.26238 0.0
H227 H 0.58731 0.95548 0.33979 0.0
H228 H 0.49048 0.26442 0.23494 0.0
H229 H 0.42228 0.23532 0.42519 0.0
H230 H 0.45722 0.0788 0.5918 0.0
H231 H 0.52995 0.11234 0.42874 0.0
Nd232 Nd 0.56326 0.59667 0.14428 0.0
Nd233 Nd 0.56144 0.57231 0.88824 0.0
C234 C 0.54782 0.63418 0.34452 0.0
C235 C 0.52267 0.67616 0.35038 0.0
C236 C 0.47787 0.6607 0.43608 0.0
C237 C 0.46286 0.70063 0.47655 0.0
C238 C 0.49617 0.75371 0.4431 0.0
C239 C 0.531 0.77194 0.32601 0.0
C240 C 0.54566 0.73265 0.28266 0.0
C241 C 0.65442 0.58745 0.05921 0.0
C242 C 0.57781 0.6993 0.8602 0.0
C243 C 0.56938 0.53378 0.68429 0.0
C244 C 0.54045 0.48224 0.66416 0.0
C245 C 0.56063 0.43686 0.69429 0.0
C246 C 0.53642 0.39002 0.66243 0.0
C247 C 0.49245 0.38852 0.59299 0.0
C248 C 0.46838 0.43033 0.58384 0.0
C249 C 0.49254 0.47722 0.61719 0.0
C250 C 0.46886 0.57945 0.96756 0.0
C251 C 0.5446 0.46799 0.18214 0.0
O252 O 0.51924 0.58807 0.33616 0.0
O253 O 0.59039 0.65178 0.26657 0.0
O254 O 0.63503 0.56758 0.18738 0.0
O255 O 0.62679 0.61273 0.98149 0.0
O256 O 0.55366 0.67708 0.98513 0.0
O257 O 0.59566 0.6671 0.80738 0.0
O258 O 0.59842 0.52796 0.78538 0.0
O259 O 0.54578 0.57149 0.67645 0.0
O260 O 0.48727 0.59511 0.83991 0.0
O261 O 0.49745 0.55701 0.04904 0.0
O262 O 0.55468 0.48422 0.04605 0.0
O263 O 0.54123 0.50348 0.24553 0.0
H264 H 0.45781 0.61752 0.48383 0.0
H265 H 0.43338 0.68663 0.56079 0.0
H266 H 0.55477 0.81398 0.29019 0.0
H267 H 0.57833 0.74623 0.20839 0.0
H268 H 0.59656 0.43856 0.73587 0.0
H269 H 0.55592 0.35824 0.67788 0.0
H270 H 0.43359 0.42974 0.53646 0.0
H271 H 0.47479 0.51058 0.59909 0.0
Nd272 Nd 0.0405 0.58201 0.91616 0.0
Nd273 Nd 0.06748 0.53752 0.17743 0.0
C274 C 1.00136 0.61296 0.67862 0.0
C275 C 0.95215 0.59584 0.63106 0.0
C276 C 0.93716 0.63253 0.51775 0.0
C277 C 0.89622 0.61302 0.45182 0.0
C278 C 0.87122 0.55631 0.49657 0.0
C279 C 0.88103 0.52195 0.62402 0.0
C280 C 0.92147 0.5418 0.69118 0.0
C281 C 0.06939 0.47146 0.94577 0.0
C282 C 0.94754 0.5168 0.14616 0.0
C283 C 0.10445 0.48793 0.40561 0.0
C284 C 0.15179 0.51028 0.45858 0.0
C285 C 0.16913 0.47801 0.57576 0.0
C286 C 0.2078 0.50299 0.64149 0.0
C287 C 0.22989 0.5605 0.58938 0.0
C288 C 0.21762 0.59076 0.45996 0.0
C289 C 0.17871 0.5659 0.39557 0.0
C290 C 0.05691 0.64496 0.13421 0.0
C291 C 0.15694 0.60873 0.9354 0.0
O292 O 1.00274 0.6379 0.7709 0.0
O293 O 0.02803 0.57716 0.70548 0.0
O294 O 0.04469 0.49352 0.01058 0.0
O295 O 0.04477 0.49432 0.00911 0.0
O296 O 0.96181 0.55425 0.02277 0.0
O297 O 0.98129 0.49845 0.22624 0.0
O298 O 0.10955 0.47827 0.28895 0.0
O299 O 0.06933 0.5129 0.40698 0.0
O300 O 0.09395 0.62803 0.1916 0.0
O301 O 0.02943 0.60683 0.10031 0.0
O302 O 0.1431 0.56688 0.05033 0.0
O303 O 0.12315 0.63062 0.86751 0.0
H304 H 0.95943 0.67499 0.47376 0.0
H305 H 0.8891 0.64041 0.35427 0.0
H306 H 0.86221 0.47812 0.66066 0.0
H307 H 0.93123 0.51373 0.78289 0.0
H308 H 0.15078 0.43437 0.62118 0.0
H309 H 0.21611 0.47865 0.74165 0.0
H310 H 0.23357 0.63514 0.41797 0.0
H311 H 0.16738 0.59121 0.30176 0.0
loop_
_geom_bond_atom_site_label_1
_geom_bond_atom_site_label_2
_geom_bond_distance
_geom_bond_site_symmetry_2
_ccdc_geom_bond_type
H0 C1 0.949 . S
C1 H0 0.949 . S
C1 C2 1.395 . S
C1 C3 1.391 1_556 S
C2 C1 1.395 . S
C2 C5 1.390 1_556 S
C3 C1 1.391 1_554 S
C3 C7 1.387 . S
C3 C8 1.491 . S
H4 C5 0.950 . S
C5 C2 1.390 1_554 S
C5 H4 0.950 . S
C5 C6 1.378 . S
C6 C5 1.378 . S
C6 C7 1.409 . S
C7 C3 1.387 . S
C7 C6 1.409 . S
C7 H9 0.951 . S
C8 C3 1.491 . S
C8 C10 1.382 1_554 S
C8 C12 1.404 . S
H9 C7 0.951 . S
C10 C8 1.382 1_556 S
C10 C11 1.390 . S
C10 H15 0.949 . S
C11 C10 1.390 . S
C11 C16 1.399 . S
C12 C8 1.404 . S
C12 H13 0.950 . S
C12 C14 1.375 . S
H13 C12 0.950 . S
C14 C12 1.375 . S
C14 C16 1.382 1_554 S
C14 H18 0.950 . S
H15 C10 0.949 . S
C16 C11 1.399 . S
C16 C14 1.382 1_556 S
C16 H17 0.952 . S
H17 C16 0.952 . S
H18 C14 0.950 . S
H19 C20 0.949 1_556 S
C20 H19 0.949 1_554 S
C20 C21 1.395 . S
C20 C22 1.391 . S
C21 C20 1.395 . S
C21 C24 1.390 . S
C22 C20 1.391 . S
C22 C26 1.387 . S
C22 C27 1.491 . S
H23 C24 0.950 . S
C24 C21 1.390 . S
C24 H23 0.950 . S
C24 C25 1.378 . S
C25 C24 1.378 . S
C25 C26 1.409 . S
C26 C22 1.387 . S
C26 C25 1.409 . S
C26 H28 0.951 . S
C27 C22 1.491 . S
C27 C29 1.382 . S
C27 C31 1.404 . S
H28 C26 0.951 . S
C29 C27 1.382 . S
C29 C30 1.390 . S
C29 H34 0.949 1_655 S
C30 C29 1.390 . S
C30 C35 1.399 . S
C31 C27 1.404 . S
C31 H32 0.950 . S
C31 C33 1.375 . S
H32 C31 0.950 . S
C33 C31 1.375 . S
C33 C35 1.382 . S
C33 H37 0.950 . S
H34 C29 0.949 1_455 S
C35 C30 1.399 . S
C35 C33 1.382 . S
C35 H36 0.952 . S
H36 C35 0.952 . S
H37 C33 0.950 . S
H38 C39 0.949 . S
C39 H38 0.949 . S
C39 C40 1.395 . S
C39 C41 1.391 1_556 S
C40 C39 1.395 . S
C40 C43 1.390 1_556 S
C41 C39 1.391 1_554 S
C41 C45 1.387 . S
C41 C46 1.491 . S
H42 C43 0.950 1_545 S
C43 C40 1.390 1_554 S
C43 H42 0.950 1_565 S
C43 C44 1.378 . S
C44 C43 1.378 . S
C44 C45 1.409 . S
C45 C41 1.387 . S
C45 C44 1.409 . S
C45 H47 0.951 . S
C46 C41 1.491 . S
C46 C48 1.382 1_554 S
C46 C50 1.404 . S
H47 C45 0.951 . S
C48 C46 1.382 1_556 S
C48 C49 1.390 . S
C48 H53 0.949 1_565 S
C49 C48 1.390 . S
C49 C54 1.399 1_556 S
C50 C46 1.404 . S
C50 H51 0.950 . S
C50 C52 1.375 . S
H51 C50 0.950 . S
C52 C50 1.375 . S
C52 C54 1.382 . S
C52 H56 0.950 . S
H53 C48 0.949 1_545 S
C54 C49 1.399 1_554 S
C54 C52 1.382 . S
C54 H55 0.952 . S
H55 C54 0.952 . S
H56 C52 0.950 . S
H57 C58 0.949 . S
C58 H57 0.949 . S
C58 C59 1.395 . S
C58 C60 1.391 . S
C59 C58 1.395 . S
C59 C62 1.390 . S
C60 C58 1.391 . S
C60 C64 1.387 . S
C60 C65 1.491 . S
H61 C62 0.950 . S
C62 C59 1.390 . S
C62 H61 0.950 . S
C62 C63 1.378 . S
C63 C62 1.378 . S
C63 C64 1.409 . S
C64 C60 1.387 . S
C64 C63 1.409 . S
C64 H66 0.951 . S
C65 C60 1.491 . S
C65 C67 1.382 . S
C65 C69 1.404 . S
H66 C64 0.951 . S
C67 C65 1.382 . S
C67 C68 1.390 . S
C67 H72 0.949 . S
C68 C67 1.390 . S
C68 C73 1.399 1_565 S
C69 C65 1.404 . S
C69 H70 0.950 . S
C69 C71 1.375 . S
H70 C69 0.950 . S
C71 C69 1.375 . S
C71 C73 1.382 1_565 S
C71 H75 0.950 . S
H72 C67 0.949 . S
C73 C68 1.399 1_545 S
C73 C71 1.382 1_545 S
C73 H74 0.952 . S
H74 C73 0.952 . S
H75 C71 0.950 . S
H76 C77 0.949 . S
C77 H76 0.949 . S
C77 C78 1.395 . S
C77 C79 1.391 1_554 S
C78 C77 1.395 . S
C78 C81 1.390 1_554 S
C79 C77 1.391 1_556 S
C79 C83 1.387 . S
C79 C84 1.491 . S
H80 C81 0.950 . S
C81 C78 1.390 1_556 S
C81 H80 0.950 . S
C81 C82 1.378 . S
C82 C81 1.378 . S
C82 C83 1.409 . S
C83 C79 1.387 . S
C83 C82 1.409 . S
C83 H85 0.951 . S
C84 C79 1.491 . S
C84 C86 1.382 1_556 S
C84 C88 1.404 . S
H85 C83 0.951 . S
C86 C84 1.382 1_554 S
C86 C87 1.390 . S
C86 H91 0.949 . S
C87 C86 1.390 . S
C87 C92 1.399 1_554 S
C88 C84 1.404 . S
C88 H89 0.950 . S
C88 C90 1.375 . S
H89 C88 0.950 . S
C90 C88 1.375 . S
C90 C92 1.382 . S
C90 H94 0.950 . S
H91 C86 0.949 . S
C92 C87 1.399 1_556 S
C92 C90 1.382 . S
C92 H93 0.952 . S
H93 C92 0.952 . S
H94 C90 0.950 . S
H95 C96 0.949 1_554 S
C96 H95 0.949 1_556 S
C96 C97 1.395 . S
C96 C98 1.391 . S
C97 C96 1.395 . S
C97 C100 1.390 . S
C98 C96 1.391 . S
C98 C102 1.387 . S
C98 C103 1.491 . S
H99 C100 0.950 . S
C100 C97 1.390 . S
C100 H99 0.950 . S
C100 C101 1.378 . S
C101 C100 1.378 . S
C101 C102 1.409 . S
C102 C98 1.387 . S
C102 C101 1.409 . S
C102 H104 0.951 . S
C103 C98 1.491 . S
C103 C105 1.382 . S
C103 C107 1.404 . S
H104 C102 0.951 . S
C105 C103 1.382 . S
C105 C106 1.390 . S
C105 H110 0.949 . S
C106 C105 1.390 . S
C106 C111 1.399 . S
C107 C103 1.404 . S
C107 H108 0.950 . S
C107 C109 1.375 . S
H108 C107 0.950 . S
C109 C107 1.375 . S
C109 C111 1.382 . S
C109 H113 0.950 1_455 S
H110 C105 0.949 . S
C111 C106 1.399 . S
C111 C109 1.382 . S
C111 H112 0.952 . S
H112 C111 0.952 . S
H113 C109 0.950 1_655 S
H114 C115 0.949 . S
C115 H114 0.949 . S
C115 C116 1.395 . S
C115 C117 1.391 1_554 S
C116 C115 1.395 . S
C116 C119 1.390 1_554 S
C117 C115 1.391 1_556 S
C117 C121 1.387 . S
C117 C122 1.491 . S
H118 C119 0.950 . S
C119 C116 1.390 1_556 S
C119 H118 0.950 . S
C119 C120 1.378 . S
C120 C119 1.378 . S
C120 C121 1.409 . S
C121 C117 1.387 . S
C121 C120 1.409 . S
C121 H123 0.951 . S
C122 C117 1.491 . S
C122 C124 1.382 1_556 S
C122 C126 1.404 . S
H123 C121 0.951 . S
C124 C122 1.382 1_554 S
C124 C125 1.390 . S
C124 H129 0.949 . S
C125 C124 1.390 . S
C125 C130 1.399 1_554 S
C126 C122 1.404 . S
C126 H127 0.950 . S
C126 C128 1.375 . S
H127 C126 0.950 . S
C128 C126 1.375 . S
C128 C130 1.382 . S
C128 H132 0.950 . S
H129 C124 0.949 . S
C130 C125 1.399 1_556 S
C130 C128 1.382 . S
C130 H131 0.952 1_556 S
H131 C130 0.952 1_554 S
H132 C128 0.950 . S
H133 C134 0.949 . S
C134 H133 0.949 . S
C134 C135 1.395 . S
C134 C136 1.391 . S
C135 C134 1.395 . S
C135 C138 1.390 . S
C136 C134 1.391 . S
C136 C140 1.387 . S
C136 C141 1.491 . S
H137 C138 0.950 . S
C138 C135 1.390 . S
C138 H137 0.950 . S
C138 C139 1.378 . S
C139 C138 1.378 . S
C139 C140 1.409 . S
C140 C136 1.387 . S
C140 C139 1.409 . S
C140 H142 0.951 . S
C141 C136 1.491 . S
C141 C143 1.382 . S
C141 C145 1.404 . S
H142 C140 0.951 . S
C143 C141 1.382 . S
C143 C144 1.390 . S
C143 H148 0.949 . S
C144 C143 1.390 . S
C144 C149 1.399 . S
C145 C141 1.404 . S
C145 H146 0.950 . S
C145 C147 1.375 . S
H146 C145 0.950 . S
C147 C145 1.375 . S
C147 C149 1.382 . S
C147 H151 0.950 . S
H148 C143 0.949 . S
C149 C144 1.399 . S
C149 C147 1.382 . S
C149 H150 0.952 . S
H150 C149 0.952 . S
H151 C147 0.950 . S
Nd152 C154 2.836 1_545 S
Nd152 O172 2.500 1_445 S
Nd152 O173 2.492 . S
Nd152 O174 2.487 . S
Nd152 O175 2.682 1_556 S
Nd152 O176 2.410 1_545 S
Nd152 O181 2.414 1_455 S
Nd152 O183 2.424 . S
Nd153 C163 2.836 . S
Nd153 O175 2.414 . S
Nd153 O177 2.424 1_545 S
Nd153 O178 2.500 . S
Nd153 O179 2.492 . S
Nd153 O180 2.487 1_455 S
Nd153 O181 2.682 1_454 S
Nd153 O182 2.410 . S
C154 Nd152 2.836 1_565 S
C154 C155 1.498 . S
C154 O172 1.258 1_455 S
C154 O173 1.239 1_565 S
C155 C154 1.498 . S
C155 C156 1.366 1_455 S
C155 C160 1.407 . S
C156 C155 1.366 1_655 S
C156 C157 1.392 . S
C156 H184 0.930 . S
C157 C156 1.392 . S
C157 C158 1.392 1_655 S
C157 H185 0.929 . S
C158 C157 1.392 1_455 S
C158 C159 1.358 . S
C159 C158 1.358 . S
C159 C160 1.384 . S
C159 H186 0.930 . S
C160 C155 1.407 . S
C160 C159 1.384 . S
C160 H187 0.929 . S
C161 O174 1.241 . S
C161 O175 1.273 1_556 S
C162 O176 1.251 1_554 S
C162 O177 1.268 . S
C163 Nd153 2.836 . S
C163 C164 1.498 . S
C163 O178 1.258 . S
C163 O179 1.239 . S
C164 C163 1.498 . S
C164 C165 1.366 . S
C164 C169 1.407 . S
C165 C164 1.366 . S
C165 C166 1.392 . S
C165 H188 0.930 . S
C166 C165 1.392 . S
C166 C167 1.398 . S
C166 H189 0.929 . S
C167 C166 1.398 . S
C167 C168 1.352 . S
C168 C167 1.352 . S
C168 C169 1.384 . S
C168 H190 0.930 . S
C169 C164 1.407 . S
C169 C168 1.384 . S
C169 H191 0.929 1_455 S
C170 O180 1.241 . S
C170 O181 1.273 1_554 S
C171 O182 1.251 1_556 S
C171 O183 1.268 . S
O172 Nd152 2.500 1_665 S
O172 C154 1.258 1_655 S
O173 Nd152 2.492 . S
O173 C154 1.239 1_545 S
O174 Nd152 2.487 . S
O174 C161 1.241 . S
O175 Nd152 2.682 1_554 S
O175 Nd153 2.414 . S
O175 C161 1.273 1_554 S
O176 Nd152 2.410 1_565 S
O176 C162 1.251 1_556 S
O177 Nd153 2.424 1_565 S
O177 C162 1.268 . S
O178 Nd153 2.500 . S
O178 C163 1.258 . S
O179 Nd153 2.492 . S
O179 C163 1.239 . S
O180 Nd153 2.487 1_655 S
O180 C170 1.241 . S
O181 Nd152 2.414 1_655 S
O181 Nd153 2.682 1_656 S
O181 C170 1.273 1_556 S
O182 Nd153 2.410 . S
O182 C171 1.251 1_554 S
O183 Nd152 2.424 . S
O183 C171 1.268 . S
H184 C156 0.930 . S
H185 C157 0.929 . S
H186 C159 0.930 . S
H187 C160 0.929 . S
H188 C165 0.930 . S
H189 C166 0.929 . S
H190 C168 0.930 . S
H191 C169 0.929 1_655 S
Nd192 C194 2.836 1_545 S
Nd192 O212 2.500 1_545 S
Nd192 O213 2.492 . S
Nd192 O214 2.487 . S
Nd192 O215 2.682 . S
Nd192 O216 2.410 . S
Nd192 O221 2.414 1_546 S
Nd192 O223 2.424 . S
Nd193 C203 2.836 . S
Nd193 O215 2.414 1_554 S
Nd193 O217 2.424 . S
Nd193 O218 2.500 . S
Nd193 O219 2.492 . S
Nd193 O220 2.487 1_545 S
Nd193 O221 2.682 1_545 S
Nd193 O222 2.410 . S
C194 Nd192 2.836 1_565 S
C194 C195 1.498 . S
C194 O212 1.258 . S
C194 O213 1.239 1_565 S
C195 C194 1.498 . S
C195 C196 1.366 . S
C195 C200 1.407 . S
C196 C195 1.366 . S
C196 C197 1.392 . S
C196 H224 0.930 . S
C197 C196 1.392 . S
C197 C198 1.398 . S
C197 H225 0.929 . S
C198 C197 1.398 . S
C198 C199 1.352 . S
C199 C198 1.352 . S
C199 C200 1.384 . S
C199 H226 0.930 . S
C200 C195 1.407 . S
C200 C199 1.384 . S
C200 H227 0.929 1_565 S
C201 O214 1.241 . S
C201 O215 1.273 . S
C202 O216 1.251 . S
C202 O217 1.268 1_556 S
C203 Nd193 2.836 . S
C203 C204 1.498 . S
C203 O218 1.258 . S
C203 O219 1.239 . S
C204 C203 1.498 . S
C204 C205 1.366 . S
C204 C209 1.407 . S
C205 C204 1.366 . S
C205 C206 1.392 . S
C205 H228 0.930 . S
C206 C205 1.392 . S
C206 C207 1.398 . S
C206 H229 0.929 . S
C207 C206 1.398 . S
C207 C208 1.352 . S
C208 C207 1.352 . S
C208 C209 1.384 . S
C208 H230 0.930 . S
C209 C204 1.407 . S
C209 C208 1.384 . S
C209 H231 0.929 . S
C210 O220 1.241 . S
C210 O221 1.273 . S
C211 O222 1.251 . S
C211 O223 1.268 1_554 S
O212 Nd192 2.500 1_565 S
O212 C194 1.258 . S
O213 Nd192 2.492 . S
O213 C194 1.239 1_545 S
O214 Nd192 2.487 . S
O214 C201 1.241 . S
O215 Nd192 2.682 . S
O215 Nd193 2.414 1_556 S
O215 C201 1.273 . S
O216 Nd192 2.410 . S
O216 C202 1.251 . S
O217 Nd193 2.424 . S
O217 C202 1.268 1_554 S
O218 Nd193 2.500 . S
O218 C203 1.258 . S
O219 Nd193 2.492 . S
O219 C203 1.239 . S
O220 Nd193 2.487 1_565 S
O220 C210 1.241 . S
O221 Nd192 2.414 1_564 S
O221 Nd193 2.682 1_565 S
O221 C210 1.273 . S
O222 Nd193 2.410 . S
O222 C211 1.251 . S
O223 Nd192 2.424 . S
O223 C211 1.268 1_556 S
H224 C196 0.930 . S
H225 C197 0.929 . S
H226 C199 0.930 . S
H227 C200 0.929 1_545 S
H228 C205 0.930 . S
H229 C206 0.929 . S
H230 C208 0.930 . S
H231 C209 0.929 . S
Nd232 C234 2.836 . S
Nd232 O252 2.500 . S
Nd232 O253 2.492 . S
Nd232 O254 2.487 . S
Nd232 O255 2.682 1_554 S
Nd232 O256 2.410 1_554 S
Nd232 O261 2.414 . S
Nd232 O263 2.424 . S
Nd233 C243 2.836 . S
Nd233 O255 2.414 . S
Nd233 O257 2.424 . S
Nd233 O258 2.500 . S
Nd233 O259 2.492 . S
Nd233 O260 2.487 . S
Nd233 O261 2.682 1_556 S
Nd233 O262 2.410 1_556 S
C234 Nd232 2.836 . S
C234 C235 1.498 . S
C234 O252 1.258 . S
C234 O253 1.239 . S
C235 C234 1.498 . S
C235 C236 1.366 . S
C235 C240 1.407 . S
C236 C235 1.366 . S
C236 C237 1.392 . S
C236 H264 0.930 . S
C237 C236 1.392 . S
C237 C238 1.398 . S
C237 H265 0.929 . S
C238 C237 1.398 . S
C238 C239 1.352 . S
C239 C238 1.352 . S
C239 C240 1.384 . S
C239 H266 0.930 . S
C240 C235 1.407 . S
C240 C239 1.384 . S
C240 H267 0.929 . S
C241 O254 1.241 . S
C241 O255 1.273 1_554 S
C242 O256 1.251 . S
C242 O257 1.268 . S
C243 Nd233 2.836 . S
C243 C244 1.498 . S
C243 O258 1.258 . S
C243 O259 1.239 . S
C244 C243 1.498 . S
C244 C245 1.366 . S
C244 C249 1.407 . S
C245 C244 1.366 . S
C245 C246 1.392 . S
C245 H268 0.930 . S
C246 C245 1.392 . S
C246 C247 1.398 . S
C246 H269 0.929 . S
C247 C246 1.398 . S
C247 C248 1.352 . S
C248 C247 1.352 . S
C248 C249 1.384 . S
C248 H270 0.930 . S
C249 C244 1.407 . S
C249 C248 1.384 . S
C249 H271 0.929 . S
C250 O260 1.241 . S
C250 O261 1.273 1_556 S
C251 O262 1.251 . S
C251 O263 1.268 . S
O252 Nd232 2.500 . S
O252 C234 1.258 . S
O253 Nd232 2.492 . S
O253 C234 1.239 . S
O254 Nd232 2.487 . S
O254 C241 1.241 . S
O255 Nd232 2.682 1_556 S
O255 Nd233 2.414 . S
O255 C241 1.273 1_556 S
O256 Nd232 2.410 1_556 S
O256 C242 1.251 . S
O257 Nd233 2.424 . S
O257 C242 1.268 . S
O258 Nd233 2.500 . S
O258 C243 1.258 . S
O259 Nd233 2.492 . S
O259 C243 1.239 . S
O260 Nd233 2.487 . S
O260 C250 1.241 . S
O261 Nd232 2.414 . S
O261 Nd233 2.682 1_554 S
O261 C250 1.273 1_554 S
O262 Nd233 2.410 1_554 S
O262 C251 1.251 . S
O263 Nd232 2.424 . S
O263 C251 1.268 . S
H264 C236 0.930 . S
H265 C237 0.929 . S
H266 C239 0.930 . S
H267 C240 0.929 . S
H268 C245 0.930 . S
H269 C246 0.929 . S
H270 C248 0.930 . S
H271 C249 0.929 . S
Nd272 C274 2.836 1_455 S
Nd272 O292 2.500 1_455 S
Nd272 O293 2.492 1_455 S
Nd272 O294 2.487 . S
Nd272 O295 2.682 1_556 S
Nd272 O296 2.410 1_455 S
Nd272 O301 2.414 . S
Nd272 O303 2.424 . S
Nd273 C283 2.836 . S
Nd273 O295 2.414 . S
Nd273 O297 2.424 1_455 S
Nd273 O298 2.500 . S
Nd273 O299 2.492 . S
Nd273 O300 2.487 . S
Nd273 O301 2.682 1_554 S
Nd273 O302 2.410 . S
C274 Nd272 2.836 1_655 S
C274 C275 1.498 . S
C274 O292 1.258 . S
C274 O293 1.239 . S
C275 C274 1.498 . S
C275 C276 1.366 . S
C275 C280 1.407 . S
C276 C275 1.366 . S
C276 C277 1.392 . S
C276 H304 0.930 . S
C277 C276 1.392 . S
C277 C278 1.398 . S
C277 H305 0.929 . S
C278 C277 1.398 . S
C278 C279 1.352 . S
C279 C278 1.352 . S
C279 C280 1.384 . S
C279 H306 0.930 . S
C280 C275 1.407 . S
C280 C279 1.384 . S
C280 H307 0.929 . S
C281 O294 1.241 . S
C281 O295 1.273 1_556 S
C282 O296 1.251 1_554 S
C282 O297 1.268 . S
C283 Nd273 2.836 . S
C283 C284 1.498 . S
C283 O298 1.258 . S
C283 O299 1.239 . S
C284 C283 1.498 . S
C284 C285 1.366 . S
C284 C289 1.407 . S
C285 C284 1.366 . S
C285 C286 1.392 . S
C285 H308 0.930 . S
C286 C285 1.392 . S
C286 C287 1.398 . S
C286 H309 0.929 . S
C287 C286 1.398 . S
C287 C288 1.352 . S
C288 C287 1.352 . S
C288 C289 1.384 . S
C288 H310 0.930 . S
C289 C284 1.407 . S
C289 C288 1.384 . S
C289 H311 0.929 . S
C290 O300 1.241 . S
C290 O301 1.273 1_554 S
C291 O302 1.251 1_556 S
C291 O303 1.268 . S
O292 Nd272 2.500 1_655 S
O292 C274 1.258 . S
O293 Nd272 2.492 1_655 S
O293 C274 1.239 . S
O294 Nd272 2.487 . S
O294 C281 1.241 . S
O295 Nd272 2.682 1_554 S
O295 Nd273 2.414 . S
O295 C281 1.273 1_554 S
O296 Nd272 2.410 1_655 S
O296 C282 1.251 1_556 S
O297 Nd273 2.424 1_655 S
O297 C282 1.268 . S
O298 Nd273 2.500 . S
O298 C283 1.258 . S
O299 Nd273 2.492 . S
O299 C283 1.239 . S
O300 Nd273 2.487 . S
O300 C290 1.241 . S
O301 Nd272 2.414 . S
O301 Nd273 2.682 1_556 S
O301 C290 1.273 1_556 S
O302 Nd273 2.410 . S
O302 C291 1.251 1_554 S
O303 Nd272 2.424 . S
O303 C291 1.268 . S
H304 C276 0.930 . S
H305 C277 0.929 . S
H306 C279 0.930 . S
H307 C280 0.929 . S
H308 C285 0.930 . S
H309 C286 0.929 . S
H310 C288 0.930 . S
H311 C289 0.929 . S
C125 C161 1.834 1_554 S
C201 C144 2.510 . S
C250 C87 1.669 1_556 S
C281 C106 2.113 . S
C170 C49 2.121 1_544 S
C68 C210 2.794 . S
C11 C241 1.715 1_556 S
C30 C290 2.486 1_655 S
C171 C97 1.523 . S
C211 C116 2.526 . S
C247 C135 1.630 . S
C78 C291 2.142 1_554 S
C21 C162 1.528 1_655 S
C202 C40 2.533 1_545 S
C238 C59 1.632 . S
C2 C282 2.147 1_556 S
C101 C167 1.743 . S
C120 C207 2.265 . S
C251 C139 2.549 . S
C287 C82 2.167 . S
C25 C158 1.747 1_655 S
C198 C44 2.242 . S
C242 C63 2.556 . S
C6 C278 2.142 . S
