# Generated by pormake.
# Topology rtl, (3,6)-cn, num edge types: 1
# Building blocks:
#     Node 0, Type 0, BuildingBlock: BETDAH_clean_linker_0, # of connection points: 3
#     Node 1, Type 0, BuildingBlock: BETDAH_clean_linker_0, # of connection points: 3
#     Node 2, Type 0, BuildingBlock: BETDAH_clean_linker_0, # of connection points: 3
#     Node 3, Type 0, BuildingBlock: BETDAH_clean_linker_0, # of connection points: 3
#     Node 4, Type 1, BuildingBlock: FUNLAD_clean_sbu_0, # of connection points: 6
#     Node 5, Type 1, BuildingBlock: FUNLAD_clean_sbu_0, # of connection points: 6
#     Edge 6, Type (0, 1), BuildingBlock: FUNLAD_clean_linker_1, # of connection points: 2
#     Edge 7, Type (0, 1), BuildingBlock: FUNLAD_clean_linker_1, # of connection points: 2
#     Edge 8, Type (0, 1), BuildingBlock: FUNLAD_clean_linker_1, # of connection points: 2
#     Edge 9, Type (0, 1), BuildingBlock: FUNLAD_clean_linker_1, # of connection points: 2
#     Edge 10, Type (0, 1), BuildingBlock: FUNLAD_clean_linker_1, # of connection points: 2
#     Edge 11, Type (0, 1), BuildingBlock: FUNLAD_clean_linker_1, # of connection points: 2
#     Edge 12, Type (0, 1), BuildingBlock: FUNLAD_clean_linker_1, # of connection points: 2
#     Edge 13, Type (0, 1), BuildingBlock: FUNLAD_clean_linker_1, # of connection points: 2
#     Edge 14, Type (0, 1), BuildingBlock: FUNLAD_clean_linker_1, # of connection points: 2
#     Edge 15, Type (0, 1), BuildingBlock: FUNLAD_clean_linker_1, # of connection points: 2
#     Edge 16, Type (0, 1), BuildingBlock: FUNLAD_clean_linker_1, # of connection points: 2
#     Edge 17, Type (0, 1), BuildingBlock: FUNLAD_clean_linker_1, # of connection points: 2
# Relax obj value: 0.003
# Max RMSD: 0.043
# Mean RMSD: 0.028
data_MOF--net-rtl--node1-FUNLAD_clean_sbu_0--node2-BETDAH_clean_linker_0--edge1-FUNLAD_clean_linker_1
_symmetry_space_group_name_H-M    P1
_symmetry_Int_Tables_number       1
_symmetry_cell_setting            triclinic
loop_
_symmetry_equiv_pos_as_xyz
'x, y, z'
_cell_length_a     41.693319
_cell_length_b     41.644177
_cell_length_c     21.849317
_cell_angle_alpha  91.198265
_cell_angle_beta   92.265756
_cell_angle_gamma 90.123632
loop_
_atom_site_label
_atom_site_type_symbol
_atom_site_fract_x
_atom_site_fract_y
_atom_site_fract_z
_atom_type_partial_charge
H0 H 0.13629 0.90578 0.01111 0.0
H1 H 0.18349 0.82059 0.07806 0.0
H2 H 0.18506 0.8437 0.8872 0.0
C3 C 0.1512 0.8849 0.0039 0.0
C4 C 0.15982 0.87737 0.94417 0.0
C5 C 0.15949 0.86463 0.05282 0.0
C6 C 0.17744 0.83667 0.04105 0.0
C7 C 0.18694 0.82937 0.98108 0.0
C8 C 0.1778 0.84962 0.93315 0.0
N9 N 0.2047 0.80147 0.96598 0.0
C10 C 0.22096 0.78166 0.00706 0.0
H11 H 0.65004 0.61914 0.52888 0.0
H12 H 0.71095 0.69449 0.46672 0.0
H13 H 0.69355 0.68641 0.65858 0.0
C14 C 0.66476 0.64029 0.53828 0.0
C15 C 0.66928 0.6512 0.59898 0.0
C16 C 0.67884 0.65628 0.48995 0.0
C17 C 0.69954 0.68241 0.50357 0.0
C18 C 0.70466 0.69337 0.56471 0.0
C19 C 0.68916 0.67794 0.61178 0.0
N20 N 0.7248 0.71998 0.58111 0.0
C21 C 0.74593 0.73481 0.54285 0.0
H22 H 0.8926 0.14182 0.99222 0.0
H23 H 0.83339 0.21356 0.07622 0.0
H24 H 0.85776 0.22148 0.8876 0.0
C25 C 0.87871 0.16369 0.98908 0.0
C26 C 0.87619 0.17962 0.93317 0.0
C27 C 0.86402 0.17611 0.04142 0.0
C28 C 0.84508 0.20396 0.0364 0.0
C29 C 0.84302 0.22043 0.98069 0.0
C30 C 0.85917 0.20849 0.93013 0.0
N31 N 0.82645 0.24994 0.97413 0.0
C32 C 0.79996 0.25938 0.00662 0.0
H33 H 0.38832 0.40377 0.54902 0.0
H34 H 0.33586 0.32003 0.602 0.0
H35 H 0.33723 0.34623 0.41271 0.0
C36 C 0.37242 0.38374 0.53773 0.0
C37 C 0.36397 0.37759 0.47608 0.0
C38 C 0.36243 0.36323 0.58384 0.0
C39 C 0.34323 0.33629 0.56711 0.0
C40 C 0.33395 0.33039 0.50507 0.0
C41 C 0.34453 0.35099 0.46018 0.0
N42 N 0.31471 0.30376 0.48489 0.0
C43 C 0.29861 0.28272 0.5216 0.0
C44 C 0.04545 0.98761 0.40025 0.0
N45 N 0.06377 0.07221 0.5055 0.0
C46 C 0.09526 0.06392 0.51232 0.0
C47 C 0.11907 0.08764 0.51896 0.0
C48 C 0.11033 0.12026 0.51843 0.0
C49 C 0.07769 0.12802 0.51148 0.0
C50 C 0.05471 0.10359 0.5055 0.0
Zn51 Zn 0.02886 0.03736 0.49405 0.0
C52 C 0.97922 0.0548 0.39772 0.0
N53 N 0.95511 0.96536 0.4704 0.0
C54 C 0.96285 0.93362 0.4694 0.0
C55 C 0.92392 0.97495 0.46903 0.0
C56 C 0.89914 0.95232 0.46866 0.0
C57 C 0.90633 0.91942 0.46923 0.0
C58 C 0.93877 0.91012 0.46884 0.0
Zn59 Zn 0.99049 0.9998 0.48044 0.0
O60 O 0.05571 0.01332 0.42669 0.0
C61 C 0.0398 0.98264 0.57691 0.0
O62 O 0.0182 0.97629 0.4132 0.0
H63 H 0.9182 1.00027 0.46998 0.0
H64 H 0.102 0.03886 0.51185 0.0
H65 H 0.9878 0.92648 0.47095 0.0
O66 O 0.05171 0.00951 0.56289 0.0
O67 O 0.01412 0.97263 0.54961 0.0
H68 H 0.02958 0.10974 0.50028 0.0
O69 O 0.9639 0.02376 0.54842 0.0
O70 O 1.00156 0.0605 0.56163 0.0
O71 O 0.96733 0.02788 0.41159 0.0
O72 O 0.00512 0.06455 0.42463 0.0
C73 C 0.9746 0.04904 0.57561 0.0
H74 H 0.14394 0.08035 0.52257 0.0
H75 H 0.06999 0.15284 0.5104 0.0
H76 H 0.87451 0.96052 0.46931 0.0
H77 H 0.94577 0.88516 0.47064 0.0
C78 C 0.47366 0.48668 0.95049 0.0
N79 N 0.56632 0.46979 0.02839 0.0
C80 C 0.55984 0.43782 0.03154 0.0
C81 C 0.58467 0.41529 0.02961 0.0
C82 C 0.6165 0.42582 0.02424 0.0
C83 C 0.62234 0.45887 0.02022 0.0
C84 C 0.59689 0.48054 0.02282 0.0
Zn85 Zn 0.53 0.50291 0.03357 0.0
C86 C 0.53745 0.55601 0.94609 0.0
N87 N 0.45493 0.57293 0.04672 0.0
C88 C 0.42387 0.56331 0.05075 0.0
C89 C 0.46272 0.60465 0.04555 0.0
C90 C 0.43883 0.62806 0.04762 0.0
C91 C 0.40659 0.61894 0.05164 0.0
C92 C 0.39919 0.58598 0.05326 0.0
Zn93 Zn 0.49087 0.53941 0.04079 0.0
O94 O 0.50123 0.47629 0.96748 0.0
C95 C 0.48363 0.48636 0.12826 0.0
O96 O 0.46347 0.51293 0.97306 0.0
H97 H 0.48752 0.61185 0.04239 0.0
H98 H 0.53535 0.42974 0.0355 0.0
H99 H 0.41813 0.53798 0.0512 0.0
O100 O 0.50936 0.47691 0.10448 0.0
O101 O 0.47033 0.51213 0.11025 0.0
H102 H 0.60162 0.50602 0.02053 0.0
O103 O 0.51891 0.56516 0.1084 0.0
O104 O 0.55795 0.53019 0.09972 0.0
O105 O 0.51225 0.56605 0.97106 0.0
O106 O 0.54996 0.52962 0.96273 0.0
C107 C 0.54697 0.55573 0.12387 0.0
H108 H 0.57876 0.39002 0.03115 0.0
H109 H 0.64648 0.46794 0.01555 0.0
H110 H 0.44552 0.65317 0.0458 0.0
H111 H 0.37469 0.57753 0.05463 0.0
H112 H 0.28983 0.23927 0.57323 0.0
C113 C 0.27869 0.258 0.54592 0.0
H114 H 0.23796 0.27366 0.49547 0.0
H115 H 0.17825 0.1392 0.43053 0.0
H116 H 0.19909 0.15419 0.33315 0.0
H117 H 0.23385 0.20184 0.32568 0.0
H118 H 0.24807 0.23466 0.41552 0.0
C119 C 0.24792 0.25552 0.52586 0.0
C120 C 0.22867 0.22565 0.53244 0.0
C121 C 0.22039 0.20677 0.47927 0.0
C122 C 0.20013 0.17944 0.48341 0.0
C123 C 0.19292 0.16063 0.4298 0.0
C124 C 0.2049 0.16884 0.37361 0.0
C125 C 0.22447 0.19564 0.36942 0.0
C126 C 0.23232 0.21438 0.42143 0.0
H127 H 0.12698 0.1697 0.50211 0.0
C128 C 0.13441 0.14673 0.52073 0.0
H129 H 0.17263 0.12233 0.56663 0.0
H130 H 0.23963 0.25653 0.64318 0.0
H131 H 0.21974 0.24063 0.74096 0.0
H132 H 0.18531 0.19272 0.74826 0.0
H133 H 0.17039 0.16045 0.65764 0.0
C134 C 0.16464 0.14401 0.544 0.0
C135 C 0.18781 0.17119 0.54059 0.0
C136 C 0.19702 0.18931 0.59411 0.0
C137 C 0.21727 0.21674 0.59001 0.0
C138 C 0.22493 0.23513 0.64383 0.0
C139 C 0.21354 0.22635 0.70022 0.0
C140 C 0.19412 0.19938 0.70433 0.0
C141 C 0.18577 0.18106 0.65201 0.0
H142 H 0.23607 0.75134 0.08413 0.0
C143 C 0.24093 0.75817 0.03771 0.0
H144 H 0.26759 0.75031 0.9591 0.0
H145 H 0.37072 0.68309 0.15155 0.0
H146 H 0.37718 0.73583 0.20008 0.0
H147 H 0.34139 0.78049 0.1706 0.0
H148 H 0.29863 0.77262 0.09319 0.0
C149 C 0.26424 0.74389 0.00646 0.0
C150 C 0.28363 0.71658 0.03046 0.0
C151 C 0.30877 0.72179 0.07522 0.0
C152 C 0.33013 0.69631 0.09075 0.0
C153 C 0.35451 0.70189 0.13669 0.0
C154 C 0.35835 0.73197 0.16513 0.0
C155 C 0.33815 0.7571 0.14864 0.0
C156 C 0.31364 0.75223 0.10418 0.0
H157 H 0.38798 0.66746 0.03176 0.0
C158 C 0.38152 0.64434 0.05011 0.0
H159 H 0.34407 0.618 0.08886 0.0
H160 H 0.23589 0.69763 0.948 0.0
H161 H 0.22932 0.64485 0.89993 0.0
H162 H 0.26726 0.60117 0.92455 0.0
H163 H 0.3119 0.60993 0.9975 0.0
C164 C 0.35155 0.6405 0.06969 0.0
C165 C 0.32687 0.666 0.0602 0.0
C166 C 0.30072 0.66034 0.0179 0.0
C167 C 0.27909 0.68564 0.00308 0.0
C168 C 0.2533 0.67939 0.96028 0.0
C169 C 0.24917 0.64918 0.9325 0.0
C170 C 0.27051 0.62458 0.94642 0.0
C171 C 0.29604 0.62995 0.98848 0.0
H172 H 0.78868 0.73985 0.48883 0.0
C173 C 0.77021 0.75279 0.51278 0.0
H174 H 0.75438 0.79689 0.54883 0.0
H175 H 0.88917 0.86271 0.58197 0.0
H176 H 0.8768 0.85219 0.6871 0.0
H177 H 0.8299 0.81917 0.71084 0.0
H178 H 0.79518 0.79639 0.62963 0.0
C179 C 0.77222 0.78472 0.52174 0.0
C180 C 0.80118 0.80348 0.50609 0.0
C181 C 0.82114 0.8169 0.55424 0.0
C182 C 0.84804 0.83618 0.54061 0.0
C183 C 0.86799 0.84854 0.58964 0.0
C184 C 0.8613 0.84251 0.65027 0.0
C185 C 0.83491 0.82391 0.66363 0.0
C186 C 0.81507 0.81109 0.61644 0.0
H187 H 0.85702 0.90548 0.4917 0.0
C188 C 0.87961 0.8961 0.47565 0.0
H189 H 0.903 0.85374 0.44545 0.0
H190 H 0.76756 0.78225 0.40277 0.0
H191 H 0.7807 0.79198 0.29759 0.0
H192 H 0.82795 0.8246 0.27415 0.0
H193 H 0.86229 0.84789 0.3559 0.0
C194 C 0.88179 0.86425 0.4648 0.0
C195 C 0.85477 0.84241 0.47885 0.0
C196 C 0.83542 0.82826 0.4307 0.0
C197 C 0.80841 0.80901 0.44426 0.0
C198 C 0.78876 0.79637 0.39518 0.0
C199 C 0.79594 0.80193 0.33455 0.0
C200 C 0.82253 0.82033 0.32135 0.0
C201 C 0.84205 0.83352 0.36866 0.0
H202 H 0.75441 0.25888 0.05368 0.0
C203 C 0.77095 0.2735 0.02896 0.0
H204 H 0.77964 0.31698 0.98529 0.0
H205 H 0.63827 0.35758 0.92686 0.0
H206 H 0.65391 0.33823 0.82696 0.0
H207 H 0.70487 0.30918 0.81516 0.0
H208 H 0.74039 0.29916 0.90319 0.0
C209 C 0.76331 0.30355 0.01289 0.0
C210 C 0.73108 0.31783 0.02212 0.0
C211 C 0.7106 0.32362 0.97012 0.0
C212 C 0.68138 0.34066 0.97678 0.0
C213 C 0.66112 0.34548 0.92421 0.0
C214 C 0.6697 0.3343 0.86662 0.0
C215 C 0.69837 0.31793 0.85998 0.0
C216 C 0.71862 0.31249 0.91093 0.0
H217 H 0.66559 0.41205 0.9995 0.0
C218 C 0.64399 0.40328 0.02006 0.0
H219 H 0.62401 0.36411 0.06616 0.0
H220 H 0.76429 0.31026 0.13155 0.0
H221 H 0.74777 0.3283 0.23171 0.0
H222 H 0.69672 0.35722 0.24329 0.0
H223 H 0.66192 0.36844 0.15462 0.0
C224 C 0.64409 0.37319 0.04148 0.0
C225 C 0.67284 0.3523 0.03534 0.0
C226 C 0.69245 0.34509 0.08775 0.0
C227 C 0.72175 0.32805 0.08113 0.0
C228 C 0.74154 0.32251 0.13398 0.0
C229 C 0.73239 0.33287 0.19176 0.0
C230 C 0.70365 0.34917 0.19828 0.0
C231 C 0.68389 0.35542 0.14703 0.0
H232 H 0.14019 0.85048 0.14181 0.0
C233 C 0.14642 0.8709 0.1144 0.0
H234 H 0.1462 0.9215 0.10829 0.0
H235 H 0.01827 0.94772 0.23686 0.0
H236 H 0.99903 0.94756 0.13064 0.0
H237 H 0.03351 0.92839 0.04831 0.0
H238 H 0.08741 0.90936 0.07176 0.0
C239 C 0.1395 0.90081 0.13441 0.0
C240 C 0.11757 0.90713 0.1853 0.0
C241 C 0.08579 0.91747 0.171 0.0
C242 C 0.06577 0.92816 0.21846 0.0
C243 C 0.03443 0.9391 0.20266 0.0
C244 C 0.02306 0.93915 0.14184 0.0
C245 C 0.04248 0.9284 0.0955 0.0
C246 C 0.07346 0.91766 0.10961 0.0
H247 H 0.08756 0.98322 0.34283 0.0
C248 C 0.0655 0.97136 0.355 0.0
H249 H 0.03534 0.93092 0.33915 0.0
H250 H 0.17652 0.8873 0.22841 0.0
H251 H 0.19503 0.88535 0.33513 0.0
H252 H 0.1597 0.90226 0.41781 0.0
H253 H 0.10575 0.92153 0.39431 0.0
C254 C 0.05763 0.94283 0.3287 0.0
C255 C 0.07757 0.9285 0.28016 0.0
C256 C 0.10869 0.91644 0.2948 0.0
C257 C 0.12884 0.90599 0.2472 0.0
C258 C 0.16016 0.89511 0.26288 0.0
C259 C 0.17106 0.89389 0.3239 0.0
C260 C 0.15118 0.90346 0.37046 0.0
C261 C 0.12033 0.91462 0.35636 0.0
H262 H 0.6471 0.60836 0.63793 0.0
C263 C 0.6533 0.63341 0.6475 0.0
H264 H 0.64901 0.67211 0.71112 0.0
H265 H 0.53901 0.56239 0.78001 0.0
H266 H 0.51312 0.57525 0.68238 0.0
H267 H 0.53784 0.61365 0.61372 0.0
H268 H 0.58895 0.63882 0.64174 0.0
C269 C 0.64383 0.64705 0.70008 0.0
C270 C 0.62643 0.62789 0.7452 0.0
C271 C 0.59564 0.61477 0.72956 0.0
C272 C 0.58053 0.59402 0.77064 0.0
C273 C 0.5509 0.57946 0.75191 0.0
C274 C 0.53586 0.58645 0.69574 0.0
C275 C 0.54983 0.60796 0.65697 0.0
C276 C 0.57934 0.62205 0.67345 0.0
H277 H 0.5408 0.59803 0.88678 0.0
C278 C 0.55225 0.57553 0.89922 0.0
H279 H 0.59191 0.54497 0.88656 0.0
H280 H 0.68465 0.65019 0.79041 0.0
H281 H 0.70922 0.63971 0.89046 0.0
H282 H 0.68185 0.60585 0.96375 0.0
H283 H 0.62988 0.58205 0.93729 0.0
C284 C 0.57956 0.56678 0.87283 0.0
C285 C 0.59537 0.58792 0.82879 0.0
C286 C 0.62561 0.60195 0.84526 0.0
C287 C 0.64118 0.62188 0.80336 0.0
C288 C 0.6716 0.63513 0.82066 0.0
C289 C 0.686 0.6293 0.87796 0.0
C290 C 0.67061 0.61021 0.91919 0.0
C291 C 0.64078 0.59664 0.90333 0.0
H292 H 0.84895 0.15924 0.13205 0.0
C293 C 0.86875 0.15999 0.10121 0.0
H294 H 0.91714 0.14796 0.08749 0.0
H295 H 0.91832 0.11948 0.38268 0.0
H296 H 0.90577 0.1759 0.3982 0.0
H297 H 0.89226 0.21027 0.3103 0.0
H298 H 0.89062 0.18835 0.20653 0.0
C299 C 0.89707 0.14648 0.11754 0.0
C300 C 0.9019 0.12585 0.17195 0.0
C301 C 0.90335 0.13931 0.23216 0.0
C302 C 0.91242 0.11979 0.2827 0.0
C303 C 0.91269 0.1335 0.34255 0.0
C304 C 0.90535 0.16579 0.35212 0.0
C305 C 0.89765 0.18512 0.30263 0.0
C306 C 0.89668 0.17219 0.24325 0.0
H307 H 0.97638 0.09613 0.3364 0.0
C308 C 0.96364 0.07484 0.35031 0.0
H309 H 0.92202 0.04618 0.33632 0.0
H310 H 0.8983 0.09177 0.06332 0.0
H311 H 0.91141 0.03557 0.04788 0.0
H312 H 0.92914 1.00232 0.13495 0.0
H313 H 0.9337 0.02502 0.23797 0.0
C314 C 0.93477 0.06772 0.32387 0.0
C315 C 0.92115 0.08723 0.27266 0.0
C316 C 0.91832 0.07346 0.21282 0.0
C317 C 0.9086 0.09276 0.1625 0.0
C318 C 0.90609 0.07839 0.10311 0.0
C319 C 0.91342 0.0461 0.0936 0.0
C320 C 0.92335 0.02738 0.14262 0.0
C321 C 0.92584 0.04074 0.20159 0.0
H322 H 0.37967 0.34745 0.67605 0.0
C323 C 0.37467 0.36835 0.6483 0.0
H324 H 0.37657 0.41902 0.64459 0.0
H325 H 0.40977 0.42316 0.93671 0.0
H326 H 0.35386 0.40858 0.94755 0.0
H327 H 0.31993 0.39158 0.8575 0.0
H328 H 0.34183 0.3887 0.75601 0.0
C329 C 0.38221 0.39785 0.67106 0.0
C330 C 0.4032 0.4031 0.72696 0.0
C331 C 0.39004 0.40479 0.78565 0.0
C332 C 0.40944 0.41532 0.83734 0.0
C333 C 0.39586 0.41621 0.89569 0.0
C334 C 0.36387 0.40771 0.90258 0.0
C335 C 0.34477 0.39809 0.85187 0.0
C336 C 0.35759 0.39659 0.79394 0.0
H337 H 0.43175 0.48081 0.88657 0.0
C338 C 0.45348 0.46913 0.90388 0.0
H339 H 0.48309 0.42822 0.89746 0.0
H340 H 0.43679 0.3989 0.62197 0.0
H341 H 0.49275 0.41278 0.61107 0.0
H342 H 0.52613 0.43217 0.7001 0.0
H343 H 0.50375 0.43776 0.80046 0.0
C344 C 0.46112 0.43993 0.8816 0.0
C345 C 0.44179 0.42474 0.82984 0.0
C346 C 0.45544 0.42114 0.77171 0.0
C347 C 0.43613 0.4103 0.72026 0.0
C348 C 0.45025 0.40739 0.66247 0.0
C349 C 0.48239 0.41517 0.65559 0.0
C350 C 0.50118 0.42604 0.70572 0.0
C351 C 0.48801 0.4291 0.76315 0.0
H352 H 0.69123 0.64718 0.39285 0.0
C353 C 0.67235 0.64519 0.42548 0.0
H354 H 0.62439 0.63126 0.4389 0.0
H355 H 0.60513 0.62479 0.14258 0.0
H356 H 0.61223 0.68274 0.14608 0.0
H357 H 0.63065 0.71077 0.24176 0.0
H358 H 0.64255 0.681 0.33431 0.0
C359 C 0.64375 0.63246 0.40719 0.0
C360 C 0.63782 0.61597 0.34687 0.0
C361 C 0.63075 0.63379 0.29355 0.0
C362 C 0.61918 0.61772 0.23889 0.0
C363 C 0.61297 0.63595 0.18579 0.0
C364 C 0.61715 0.66917 0.18709 0.0
C365 C 0.62759 0.68494 0.24095 0.0
C366 C 0.63433 0.66759 0.29374 0.0
H367 H 0.5539 0.59315 0.19596 0.0
C368 C 0.56593 0.57408 0.17107 0.0
H369 H 0.60904 0.54827 0.16137 0.0
H370 H 0.6534 0.57448 0.4387 0.0
H371 H 0.6471 0.51652 0.43491 0.0
H372 H 0.62557 0.48876 0.3412 0.0
H373 H 0.61033 0.5187 0.25075 0.0
C374 C 0.59689 0.56761 0.18517 0.0
C375 C 0.6139 0.58403 0.23835 0.0
C376 C 0.62311 0.56601 0.29047 0.0
C377 C 0.63512 0.58203 0.34474 0.0
C378 C 0.64374 0.56354 0.39653 0.0
C379 C 0.64036 0.53025 0.39492 0.0
C380 C 0.62828 0.51462 0.34214 0.0
C381 C 0.61965 0.53215 0.29045 0.0
H382 H 0.89995 0.18463 0.84496 0.0
C383 C 0.89222 0.16732 0.87799 0.0
H384 H 0.88837 0.11796 0.89769 0.0
H385 H 0.92051 0.11838 0.6008 0.0
H386 H 0.86895 0.14446 0.58539 0.0
H387 H 0.83686 0.16034 0.67349 0.0
H388 H 0.8564 0.15079 0.77744 0.0
C389 C 0.89648 0.13582 0.86623 0.0
C390 C 0.91431 0.12425 0.81242 0.0
C391 C 0.90186 0.12896 0.75186 0.0
C392 C 0.91966 0.11847 0.70098 0.0
C393 C 0.90747 0.12484 0.64104 0.0
C394 C 0.87797 0.13994 0.63154 0.0
C395 C 0.85996 0.14898 0.68114 0.0
C396 C 0.8716 0.14356 0.74067 0.0
H397 H 0.93288 0.05362 0.63408 0.0
C398 C 0.95597 0.06414 0.62427 0.0
H399 H 0.99067 0.09938 0.65056 0.0
H400 H 0.94483 0.1111 0.9225 0.0
H401 H 0.99507 0.08263 0.93759 0.0
H402 H 0.02478 0.06248 0.84929 0.0
H403 H 1.00455 0.07094 0.74532 0.0
C404 C 0.96707 0.08941 0.65801 0.0
C405 C 0.94911 0.10202 0.71077 0.0
C406 C 0.96128 0.09686 0.77125 0.0
C407 C 0.94389 0.10804 0.82213 0.0
C408 C 0.95678 0.10279 0.88208 0.0
C409 C 0.98566 0.08651 0.89146 0.0
C410 C 1.00241 0.07521 0.84175 0.0
C411 C 0.99051 0.08027 0.78227 0.0
H412 H 0.38132 0.42412 0.44319 0.0
C413 C 0.3764 0.39927 0.42951 0.0
H414 H 0.38105 0.36405 0.35922 0.0
H415 H 0.39019 0.46081 0.14234 0.0
H416 H 0.33872 0.43546 0.11811 0.0
H417 H 0.31434 0.39906 0.19095 0.0
H418 H 0.34145 0.38754 0.28826 0.0
C419 C 0.38495 0.38887 0.37385 0.0
C420 C 0.39983 0.41099 0.33035 0.0
C421 C 0.38346 0.4178 0.27403 0.0
C422 C 0.39727 0.43921 0.23249 0.0
C423 C 0.38065 0.44508 0.17601 0.0
C424 C 0.35109 0.43065 0.16144 0.0
C425 C 0.33738 0.41013 0.20242 0.0
C426 C 0.35324 0.4037 0.25811 0.0
H427 H 0.48124 0.44462 0.1882 0.0
C428 C 0.46932 0.46685 0.1756 0.0
H429 H 0.42933 0.4969 0.18912 0.0
H430 H 0.44008 0.39963 0.4302 0.0
H431 H 0.49027 0.42684 0.45659 0.0
H432 H 0.51153 0.46801 0.38932 0.0
H433 H 0.48303 0.48159 0.29458 0.0
C434 C 0.44213 0.47531 0.20267 0.0
C435 C 0.42731 0.45398 0.24757 0.0
C436 C 0.44342 0.44764 0.30445 0.0
C437 C 0.43019 0.42534 0.34498 0.0
C438 C 0.44806 0.41762 0.39922 0.0
C439 C 0.47711 0.43286 0.4147 0.0
C440 C 0.48914 0.45592 0.37671 0.0
C441 C 0.47263 0.46332 0.32219 0.0
H442 H 0.14533 0.92398 0.90542 0.0
C443 C 0.14871 0.89866 0.89425 0.0
H444 H 0.14121 0.86218 0.82629 0.0
H445 H 0.04347 0.98173 0.7424 0.0
H446 H 0.01608 0.97163 0.83596 0.0
H447 H 0.03676 0.93141 0.90879 0.0
H448 H 0.08527 0.90172 0.88918 0.0
C449 C 0.13891 0.88746 0.83848 0.0
C450 C 0.12435 0.9092 0.7919 0.0
C451 C 0.09486 0.925 0.80264 0.0
C452 C 0.0819 0.94679 0.75903 0.0
C453 C 0.05361 0.96387 0.77268 0.0
C454 C 0.03774 0.95844 0.82642 0.0
C455 C 0.04945 0.93592 0.86753 0.0
C456 C 0.07757 0.91924 0.85593 0.0
H457 H 0.04359 0.94059 0.63623 0.0
C458 C 0.05517 0.963 0.62495 0.0
H459 H 0.09507 0.99367 0.64323 0.0
H460 H 0.18104 0.88274 0.75704 0.0
H461 H 0.20716 0.89131 0.66143 0.0
H462 H 0.18324 0.92712 0.58363 0.0
H463 H 0.13319 0.95481 0.60116 0.0
C464 C 0.08253 0.97191 0.65518 0.0
C465 C 0.09736 0.95123 0.70315 0.0
C466 C 0.12656 0.93517 0.69207 0.0
C467 C 0.14011 0.91419 0.73656 0.0
C468 C 0.16948 0.89868 0.72456 0.0
C469 C 0.18476 0.90342 0.66989 0.0
C470 C 0.17131 0.9236 0.6261 0.0
C471 C 0.14257 0.93936 0.63679 0.0
loop_
_geom_bond_atom_site_label_1
_geom_bond_atom_site_label_2
_geom_bond_distance
_geom_bond_site_symmetry_2
_ccdc_geom_bond_type
H0 C3 0.929 . S
H1 C6 0.929 . S
H2 C8 0.930 . S
C3 H0 0.929 . S
C3 C4 1.398 1_554 S
C3 C5 1.396 . S
C4 C3 1.398 1_556 S
C4 C8 1.407 . S
C5 C3 1.396 . S
C5 C6 1.394 . S
C6 H1 0.929 . S
C6 C5 1.394 . S
C6 C7 1.382 . S
C7 C6 1.382 . S
C7 C8 1.392 1_554 S
C7 N9 1.420 1_554 S
C8 H2 0.930 . S
C8 C4 1.407 . S
C8 C7 1.392 1_556 S
N9 C7 1.420 1_556 S
N9 C10 1.244 1_556 S
C10 N9 1.244 1_554 S
H11 C14 0.929 . S
H12 C17 0.929 . S
H13 C19 0.930 . S
C14 H11 0.929 . S
C14 C15 1.398 . S
C14 C16 1.396 . S
C15 C14 1.398 . S
C15 C19 1.407 . S
C16 C14 1.396 . S
C16 C17 1.394 . S
C17 H12 0.929 . S
C17 C16 1.394 . S
C17 C18 1.382 . S
C18 C17 1.382 . S
C18 C19 1.392 . S
C18 N20 1.420 . S
C19 H13 0.930 . S
C19 C15 1.407 . S
C19 C18 1.392 . S
N20 C18 1.420 . S
N20 C21 1.244 . S
C21 N20 1.244 . S
H22 C25 0.929 . S
H23 C28 0.929 . S
H24 C30 0.930 . S
C25 H22 0.929 . S
C25 C26 1.398 1_554 S
C25 C27 1.396 . S
C26 C25 1.398 1_556 S
C26 C30 1.407 . S
C27 C25 1.396 . S
C27 C28 1.394 . S
C28 H23 0.929 . S
C28 C27 1.394 . S
C28 C29 1.382 1_554 S
C29 C28 1.382 1_556 S
C29 C30 1.392 . S
C29 N31 1.420 . S
C30 H24 0.930 . S
C30 C26 1.407 . S
C30 C29 1.392 . S
N31 C29 1.420 . S
N31 C32 1.244 1_556 S
C32 N31 1.244 1_554 S
H33 C36 0.929 . S
H34 C39 0.929 . S
H35 C41 0.930 . S
C36 H33 0.929 . S
C36 C37 1.398 . S
C36 C38 1.396 . S
C37 C36 1.398 . S
C37 C41 1.407 . S
C38 C36 1.396 . S
C38 C39 1.394 . S
C39 H34 0.929 . S
C39 C38 1.394 . S
C39 C40 1.382 . S
C40 C39 1.382 . S
C40 C41 1.392 . S
C40 N42 1.420 . S
C41 H35 0.930 . S
C41 C37 1.407 . S
C41 C40 1.392 . S
N42 C40 1.420 . S
N42 C43 1.244 . S
C43 N42 1.244 . S
C44 O60 1.251 1_565 S
C44 O62 1.254 . S
N45 C46 1.333 . S
N45 C50 1.307 . S
N45 Zn51 2.020 . S
C46 N45 1.333 . S
C46 C47 1.379 . S
C46 H64 0.952 . S
C47 C46 1.379 . S
C47 C48 1.390 . S
C47 H74 0.949 . S
C48 C47 1.390 . S
C48 C49 1.357 . S
C49 C48 1.357 . S
C49 C50 1.370 . S
C49 H75 0.950 . S
C50 N45 1.307 . S
C50 C49 1.370 . S
C50 H68 0.948 . S
Zn51 N45 2.020 . S
Zn51 O60 2.039 . S
Zn51 O66 2.034 . S
Zn51 O70 2.025 . S
Zn51 O72 2.024 . S
C52 O71 1.246 . S
C52 O72 1.249 1_655 S
N53 C54 1.307 . S
N53 C55 1.333 . S
N53 Zn59 2.020 . S
C54 N53 1.307 . S
C54 C58 1.370 . S
C54 H65 0.948 . S
C55 N53 1.333 . S
C55 C56 1.379 . S
C55 H63 0.952 . S
C56 C55 1.379 . S
C56 C57 1.390 . S
C56 H76 0.949 . S
C57 C56 1.390 . S
C57 C58 1.357 . S
C58 C54 1.370 . S
C58 C57 1.357 . S
C58 H77 0.950 . S
Zn59 N53 2.020 . S
Zn59 O62 2.025 1_655 S
Zn59 O67 2.024 1_655 S
Zn59 O69 2.039 1_565 S
Zn59 O71 2.034 1_565 S
O60 C44 1.251 1_545 S
O60 Zn51 2.039 . S
C61 O66 1.246 1_565 S
C61 O67 1.249 . S
O62 C44 1.254 . S
O62 Zn59 2.025 1_455 S
H63 C55 0.952 . S
H64 C46 0.952 . S
H65 C54 0.948 . S
O66 Zn51 2.034 . S
O66 C61 1.246 1_545 S
O67 Zn59 2.024 1_455 S
O67 C61 1.249 . S
H68 C50 0.948 . S
O69 Zn59 2.039 1_545 S
O69 C73 1.251 . S
O70 Zn51 2.025 . S
O70 C73 1.254 1_455 S
O71 C52 1.246 . S
O71 Zn59 2.034 1_545 S
O72 Zn51 2.024 . S
O72 C52 1.249 1_455 S
C73 O69 1.251 . S
C73 O70 1.254 1_655 S
H74 C47 0.949 . S
H75 C49 0.950 . S
H76 C56 0.949 . S
H77 C58 0.950 . S
C78 O94 1.251 . S
C78 O96 1.254 . S
N79 C80 1.333 . S
N79 C84 1.307 . S
N79 Zn85 2.020 . S
C80 N79 1.333 . S
C80 C81 1.379 . S
C80 H98 0.952 1_554 S
C81 C80 1.379 . S
C81 C82 1.390 . S
C81 H108 0.949 1_554 S
C82 C81 1.390 . S
C82 C83 1.357 . S
C83 C82 1.357 . S
C83 C84 1.370 . S
C83 H109 0.950 . S
C84 N79 1.307 . S
C84 C83 1.370 . S
C84 H102 0.948 . S
Zn85 N79 2.020 . S
Zn85 O94 2.039 1_554 S
Zn85 O100 2.034 . S
Zn85 O104 2.025 . S
Zn85 O106 2.024 1_554 S
C86 O105 1.246 . S
C86 O106 1.249 . S
N87 C88 1.307 . S
N87 C89 1.333 . S
N87 Zn93 2.020 . S
C88 N87 1.307 . S
C88 C92 1.370 . S
C88 H99 0.948 1_554 S
C89 N87 1.333 . S
C89 C90 1.379 . S
C89 H97 0.952 . S
C90 C89 1.379 . S
C90 C91 1.390 . S
C90 H110 0.949 . S
C91 C90 1.390 . S
C91 C92 1.357 . S
C92 C88 1.370 . S
C92 C91 1.357 . S
C92 H111 0.946 1_554 S
Zn93 N87 2.020 . S
Zn93 O96 2.025 1_554 S
Zn93 O101 2.024 . S
Zn93 O103 2.039 . S
Zn93 O105 2.034 1_554 S
O94 C78 1.251 . S
O94 Zn85 2.039 1_556 S
C95 O100 1.246 . S
C95 O101 1.249 . S
O96 C78 1.254 . S
O96 Zn93 2.025 1_556 S
H97 C89 0.952 . S
H98 C80 0.952 1_556 S
H99 C88 0.948 1_556 S
O100 Zn85 2.034 . S
O100 C95 1.246 . S
O101 Zn93 2.024 . S
O101 C95 1.249 . S
H102 C84 0.948 . S
O103 Zn93 2.039 . S
O103 C107 1.251 . S
O104 Zn85 2.025 . S
O104 C107 1.254 . S
O105 C86 1.246 . S
O105 Zn93 2.034 1_556 S
O106 Zn85 2.024 1_556 S
O106 C86 1.249 . S
C107 O103 1.251 . S
C107 O104 1.254 . S
H108 C81 0.949 1_556 S
H109 C83 0.950 . S
H110 C90 0.949 . S
H111 C92 0.946 1_556 S
H112 C113 0.951 . S
C113 H112 0.951 . S
C113 C119 1.265 . S
H114 C119 0.950 . S
H115 C123 0.949 . S
H116 C124 0.950 . S
H117 C125 0.951 . S
H118 C126 0.951 . S
C119 C113 1.265 . S
C119 H114 0.950 . S
C119 C120 1.478 . S
C120 C119 1.478 . S
C120 C121 1.397 . S
C120 C137 1.394 . S
C121 C120 1.397 . S
C121 C122 1.438 . S
C121 C126 1.429 . S
C122 C121 1.438 . S
C122 C123 1.428 . S
C122 C135 1.394 . S
C123 H115 0.949 . S
C123 C122 1.428 . S
C123 C124 1.345 . S
C124 H116 0.950 . S
C124 C123 1.345 . S
C124 C125 1.424 . S
C125 H117 0.951 . S
C125 C124 1.424 . S
C125 C126 1.347 . S
C126 H118 0.951 . S
C126 C121 1.429 . S
C126 C125 1.347 . S
H127 C128 0.951 . S
C128 H127 0.951 . S
C128 C134 1.265 . S
H129 C134 0.950 . S
H130 C138 0.949 . S
H131 C139 0.950 . S
H132 C140 0.951 . S
H133 C141 0.951 . S
C134 C128 1.265 . S
C134 H129 0.950 . S
C134 C135 1.478 . S
C135 C122 1.394 . S
C135 C134 1.478 . S
C135 C136 1.397 . S
C136 C135 1.397 . S
C136 C137 1.438 . S
C136 C141 1.429 . S
C137 C120 1.394 . S
C137 C136 1.438 . S
C137 C138 1.428 . S
C138 H130 0.949 . S
C138 C137 1.428 . S
C138 C139 1.345 . S
C139 H131 0.950 . S
C139 C138 1.345 . S
C139 C140 1.424 . S
C140 H132 0.951 . S
C140 C139 1.424 . S
C140 C141 1.347 . S
C141 H133 0.951 . S
C141 C136 1.429 . S
C141 C140 1.347 . S
H142 C143 0.951 . S
C143 H142 0.951 . S
C143 C149 1.265 . S
H144 C149 0.950 . S
H145 C153 0.949 . S
H146 C154 0.950 . S
H147 C155 0.951 . S
H148 C156 0.951 . S
C149 C143 1.265 . S
C149 H144 0.950 . S
C149 C150 1.478 . S
C150 C149 1.478 . S
C150 C151 1.397 . S
C150 C167 1.394 1_554 S
C151 C150 1.397 . S
C151 C152 1.438 . S
C151 C156 1.429 . S
C152 C151 1.438 . S
C152 C153 1.428 . S
C152 C165 1.394 . S
C153 H145 0.949 . S
C153 C152 1.428 . S
C153 C154 1.345 . S
C154 H146 0.950 . S
C154 C153 1.345 . S
C154 C155 1.424 . S
C155 H147 0.951 . S
C155 C154 1.424 . S
C155 C156 1.347 . S
C156 H148 0.951 . S
C156 C151 1.429 . S
C156 C155 1.347 . S
H157 C158 0.951 . S
C158 H157 0.951 . S
C158 C164 1.265 . S
H159 C164 0.950 . S
H160 C168 0.949 . S
H161 C169 0.950 . S
H162 C170 0.951 . S
H163 C171 0.951 . S
C164 C158 1.265 . S
C164 H159 0.950 . S
C164 C165 1.478 . S
C165 C152 1.394 . S
C165 C164 1.478 . S
C165 C166 1.397 1_554 S
C166 C165 1.397 1_556 S
C166 C167 1.438 . S
C166 C171 1.429 . S
C167 C150 1.394 1_556 S
C167 C166 1.438 . S
C167 C168 1.428 . S
C168 H160 0.949 . S
C168 C167 1.428 . S
C168 C169 1.345 . S
C169 H161 0.950 . S
C169 C168 1.345 . S
C169 C170 1.424 . S
C170 H162 0.951 . S
C170 C169 1.424 . S
C170 C171 1.347 . S
C171 H163 0.951 . S
C171 C166 1.429 . S
C171 C170 1.347 . S
H172 C173 0.951 . S
C173 H172 0.951 . S
C173 C179 1.265 . S
H174 C179 0.950 . S
H175 C183 0.949 . S
H176 C184 0.950 . S
H177 C185 0.951 . S
H178 C186 0.951 . S
C179 C173 1.265 . S
C179 H174 0.950 . S
C179 C180 1.478 . S
C180 C179 1.478 . S
C180 C181 1.397 . S
C180 C197 1.394 . S
C181 C180 1.397 . S
C181 C182 1.438 . S
C181 C186 1.429 . S
C182 C181 1.438 . S
C182 C183 1.428 . S
C182 C195 1.394 . S
C183 H175 0.949 . S
C183 C182 1.428 . S
C183 C184 1.345 . S
C184 H176 0.950 . S
C184 C183 1.345 . S
C184 C185 1.424 . S
C185 H177 0.951 . S
C185 C184 1.424 . S
C185 C186 1.347 . S
C186 H178 0.951 . S
C186 C181 1.429 . S
C186 C185 1.347 . S
H187 C188 0.951 . S
C188 H187 0.951 . S
C188 C194 1.265 . S
H189 C194 0.950 . S
H190 C198 0.949 . S
H191 C199 0.950 . S
H192 C200 0.951 . S
H193 C201 0.951 . S
C194 C188 1.265 . S
C194 H189 0.950 . S
C194 C195 1.478 . S
C195 C182 1.394 . S
C195 C194 1.478 . S
C195 C196 1.397 . S
C196 C195 1.397 . S
C196 C197 1.438 . S
C196 C201 1.429 . S
C197 C180 1.394 . S
C197 C196 1.438 . S
C197 C198 1.428 . S
C198 H190 0.949 . S
C198 C197 1.428 . S
C198 C199 1.345 . S
C199 H191 0.950 . S
C199 C198 1.345 . S
C199 C200 1.424 . S
C200 H192 0.951 . S
C200 C199 1.424 . S
C200 C201 1.347 . S
C201 H193 0.951 . S
C201 C196 1.429 . S
C201 C200 1.347 . S
H202 C203 0.951 . S
C203 H202 0.951 . S
C203 C209 1.265 . S
H204 C209 0.950 . S
H205 C213 0.949 . S
H206 C214 0.950 . S
H207 C215 0.951 . S
H208 C216 0.951 . S
C209 C203 1.265 . S
C209 H204 0.950 . S
C209 C210 1.478 . S
C210 C209 1.478 . S
C210 C211 1.397 1_554 S
C210 C227 1.394 . S
C211 C210 1.397 1_556 S
C211 C212 1.438 . S
C211 C216 1.429 . S
C212 C211 1.438 . S
C212 C213 1.428 . S
C212 C225 1.394 1_556 S
C213 H205 0.949 . S
C213 C212 1.428 . S
C213 C214 1.345 . S
C214 H206 0.950 . S
C214 C213 1.345 . S
C214 C215 1.424 . S
C215 H207 0.951 . S
C215 C214 1.424 . S
C215 C216 1.347 . S
C216 H208 0.951 . S
C216 C211 1.429 . S
C216 C215 1.347 . S
H217 C218 0.951 . S
C218 H217 0.951 . S
C218 C224 1.265 . S
H219 C224 0.950 . S
H220 C228 0.949 . S
H221 C229 0.950 . S
H222 C230 0.951 . S
H223 C231 0.951 . S
C224 C218 1.265 . S
C224 H219 0.950 . S
C224 C225 1.478 . S
C225 C212 1.394 1_554 S
C225 C224 1.478 . S
C225 C226 1.397 . S
C226 C225 1.397 . S
C226 C227 1.438 . S
C226 C231 1.429 . S
C227 C210 1.394 . S
C227 C226 1.438 . S
C227 C228 1.428 . S
C228 H220 0.949 . S
C228 C227 1.428 . S
C228 C229 1.345 . S
C229 H221 0.950 . S
C229 C228 1.345 . S
C229 C230 1.424 . S
C230 H222 0.951 . S
C230 C229 1.424 . S
C230 C231 1.347 . S
C231 H223 0.951 . S
C231 C226 1.429 . S
C231 C230 1.347 . S
H232 C233 0.951 . S
C233 H232 0.951 . S
C233 C239 1.265 . S
H234 C239 0.950 . S
H235 C243 0.949 . S
H236 C244 0.950 . S
H237 C245 0.951 1_545 S
H238 C246 0.951 . S
C239 C233 1.265 . S
C239 H234 0.950 . S
C239 C240 1.478 . S
C240 C239 1.478 . S
C240 C241 1.397 . S
C240 C257 1.394 . S
C241 C240 1.397 . S
C241 C242 1.438 . S
C241 C246 1.429 . S
C242 C241 1.438 . S
C242 C243 1.428 . S
C242 C255 1.394 . S
C243 H235 0.949 . S
C243 C242 1.428 . S
C243 C244 1.345 1_565 S
C244 H236 0.950 . S
C244 C243 1.345 1_545 S
C244 C245 1.424 1_545 S
C245 H237 0.951 1_565 S
C245 C244 1.424 1_565 S
C245 C246 1.347 . S
C246 H238 0.951 . S
C246 C241 1.429 . S
C246 C245 1.347 . S
H247 C248 0.951 . S
C248 H247 0.951 . S
C248 C254 1.265 . S
H249 C254 0.950 . S
H250 C258 0.949 . S
H251 C259 0.950 . S
H252 C260 0.951 . S
H253 C261 0.951 . S
C254 C248 1.265 . S
C254 H249 0.950 . S
C254 C255 1.478 . S
C255 C242 1.394 . S
C255 C254 1.478 . S
C255 C256 1.397 . S
C256 C255 1.397 . S
C256 C257 1.438 . S
C256 C261 1.429 . S
C257 C240 1.394 . S
C257 C256 1.438 . S
C257 C258 1.428 . S
C258 H250 0.949 . S
C258 C257 1.428 . S
C258 C259 1.345 . S
C259 H251 0.950 . S
C259 C258 1.345 . S
C259 C260 1.424 . S
C260 H252 0.951 . S
C260 C259 1.424 . S
C260 C261 1.347 . S
C261 H253 0.951 . S
C261 C256 1.429 . S
C261 C260 1.347 . S
H262 C263 0.951 . S
C263 H262 0.951 . S
C263 C269 1.265 . S
H264 C269 0.950 . S
H265 C273 0.949 . S
H266 C274 0.950 . S
H267 C275 0.951 . S
H268 C276 0.951 . S
C269 C263 1.265 . S
C269 H264 0.950 . S
C269 C270 1.478 . S
C270 C269 1.478 . S
C270 C271 1.397 . S
C270 C287 1.394 . S
C271 C270 1.397 . S
C271 C272 1.438 . S
C271 C276 1.429 . S
C272 C271 1.438 . S
C272 C273 1.428 . S
C272 C285 1.394 . S
C273 H265 0.949 . S
C273 C272 1.428 . S
C273 C274 1.345 . S
C274 H266 0.950 . S
C274 C273 1.345 . S
C274 C275 1.424 . S
C275 H267 0.951 . S
C275 C274 1.424 . S
C275 C276 1.347 . S
C276 H268 0.951 . S
C276 C271 1.429 . S
C276 C275 1.347 . S
H277 C278 0.951 . S
C278 H277 0.951 . S
C278 C284 1.265 . S
H279 C284 0.950 . S
H280 C288 0.949 . S
H281 C289 0.950 . S
H282 C290 0.951 . S
H283 C291 0.951 . S
C284 C278 1.265 . S
C284 H279 0.950 . S
C284 C285 1.478 . S
C285 C272 1.394 . S
C285 C284 1.478 . S
C285 C286 1.397 . S
C286 C285 1.397 . S
C286 C287 1.438 . S
C286 C291 1.429 . S
C287 C270 1.394 . S
C287 C286 1.438 . S
C287 C288 1.428 . S
C288 H280 0.949 . S
C288 C287 1.428 . S
C288 C289 1.345 . S
C289 H281 0.950 . S
C289 C288 1.345 . S
C289 C290 1.424 . S
C290 H282 0.951 . S
C290 C289 1.424 . S
C290 C291 1.347 . S
C291 H283 0.951 . S
C291 C286 1.429 . S
C291 C290 1.347 . S
H292 C293 0.951 . S
C293 H292 0.951 . S
C293 C299 1.265 . S
H294 C299 0.950 . S
H295 C303 0.949 . S
H296 C304 0.950 . S
H297 C305 0.951 . S
H298 C306 0.951 . S
C299 C293 1.265 . S
C299 H294 0.950 . S
C299 C300 1.478 . S
C300 C299 1.478 . S
C300 C301 1.397 . S
C300 C317 1.394 . S
C301 C300 1.397 . S
C301 C302 1.438 . S
C301 C306 1.429 . S
C302 C301 1.438 . S
C302 C303 1.428 . S
C302 C315 1.394 . S
C303 H295 0.949 . S
C303 C302 1.428 . S
C303 C304 1.345 . S
C304 H296 0.950 . S
C304 C303 1.345 . S
C304 C305 1.424 . S
C305 H297 0.951 . S
C305 C304 1.424 . S
C305 C306 1.347 . S
C306 H298 0.951 . S
C306 C301 1.429 . S
C306 C305 1.347 . S
H307 C308 0.951 . S
C308 H307 0.951 . S
C308 C314 1.265 . S
H309 C314 0.950 . S
H310 C318 0.949 . S
H311 C319 0.950 . S
H312 C320 0.951 1_565 S
H313 C321 0.951 . S
C314 C308 1.265 . S
C314 H309 0.950 . S
C314 C315 1.478 . S
C315 C302 1.394 . S
C315 C314 1.478 . S
C315 C316 1.397 . S
C316 C315 1.397 . S
C316 C317 1.438 . S
C316 C321 1.429 . S
C317 C300 1.394 . S
C317 C316 1.438 . S
C317 C318 1.428 . S
C318 H310 0.949 . S
C318 C317 1.428 . S
C318 C319 1.345 . S
C319 H311 0.950 . S
C319 C318 1.345 . S
C319 C320 1.424 . S
C320 H312 0.951 1_545 S
C320 C319 1.424 . S
C320 C321 1.347 . S
C321 H313 0.951 . S
C321 C316 1.429 . S
C321 C320 1.347 . S
H322 C323 0.951 . S
C323 H322 0.951 . S
C323 C329 1.265 . S
H324 C329 0.950 . S
H325 C333 0.949 . S
H326 C334 0.950 . S
H327 C335 0.951 . S
H328 C336 0.951 . S
C329 C323 1.265 . S
C329 H324 0.950 . S
C329 C330 1.478 . S
C330 C329 1.478 . S
C330 C331 1.397 . S
C330 C347 1.394 . S
C331 C330 1.397 . S
C331 C332 1.438 . S
C331 C336 1.429 . S
C332 C331 1.438 . S
C332 C333 1.428 . S
C332 C345 1.394 . S
C333 H325 0.949 . S
C333 C332 1.428 . S
C333 C334 1.345 . S
C334 H326 0.950 . S
C334 C333 1.345 . S
C334 C335 1.424 . S
C335 H327 0.951 . S
C335 C334 1.424 . S
C335 C336 1.347 . S
C336 H328 0.951 . S
C336 C331 1.429 . S
C336 C335 1.347 . S
H337 C338 0.951 . S
C338 H337 0.951 . S
C338 C344 1.265 . S
H339 C344 0.950 . S
H340 C348 0.949 . S
H341 C349 0.950 . S
H342 C350 0.951 . S
H343 C351 0.951 . S
C344 C338 1.265 . S
C344 H339 0.950 . S
C344 C345 1.478 . S
C345 C332 1.394 . S
C345 C344 1.478 . S
C345 C346 1.397 . S
C346 C345 1.397 . S
C346 C347 1.438 . S
C346 C351 1.429 . S
C347 C330 1.394 . S
C347 C346 1.438 . S
C347 C348 1.428 . S
C348 H340 0.949 . S
C348 C347 1.428 . S
C348 C349 1.345 . S
C349 H341 0.950 . S
C349 C348 1.345 . S
C349 C350 1.424 . S
C350 H342 0.951 . S
C350 C349 1.424 . S
C350 C351 1.347 . S
C351 H343 0.951 . S
C351 C346 1.429 . S
C351 C350 1.347 . S
H352 C353 0.951 . S
C353 H352 0.951 . S
C353 C359 1.265 . S
H354 C359 0.950 . S
H355 C363 0.949 . S
H356 C364 0.950 . S
H357 C365 0.951 . S
H358 C366 0.951 . S
C359 C353 1.265 . S
C359 H354 0.950 . S
C359 C360 1.478 . S
C360 C359 1.478 . S
C360 C361 1.397 . S
C360 C377 1.394 . S
C361 C360 1.397 . S
C361 C362 1.438 . S
C361 C366 1.429 . S
C362 C361 1.438 . S
C362 C363 1.428 . S
C362 C375 1.394 . S
C363 H355 0.949 . S
C363 C362 1.428 . S
C363 C364 1.345 . S
C364 H356 0.950 . S
C364 C363 1.345 . S
C364 C365 1.424 . S
C365 H357 0.951 . S
C365 C364 1.424 . S
C365 C366 1.347 . S
C366 H358 0.951 . S
C366 C361 1.429 . S
C366 C365 1.347 . S
H367 C368 0.951 . S
C368 H367 0.951 . S
C368 C374 1.265 . S
H369 C374 0.950 . S
H370 C378 0.949 . S
H371 C379 0.950 . S
H372 C380 0.951 . S
H373 C381 0.951 . S
C374 C368 1.265 . S
C374 H369 0.950 . S
C374 C375 1.478 . S
C375 C362 1.394 . S
C375 C374 1.478 . S
C375 C376 1.397 . S
C376 C375 1.397 . S
C376 C377 1.438 . S
C376 C381 1.429 . S
C377 C360 1.394 . S
C377 C376 1.438 . S
C377 C378 1.428 . S
C378 H370 0.949 . S
C378 C377 1.428 . S
C378 C379 1.345 . S
C379 H371 0.950 . S
C379 C378 1.345 . S
C379 C380 1.424 . S
C380 H372 0.951 . S
C380 C379 1.424 . S
C380 C381 1.347 . S
C381 H373 0.951 . S
C381 C376 1.429 . S
C381 C380 1.347 . S
H382 C383 0.951 . S
C383 H382 0.951 . S
C383 C389 1.265 . S
H384 C389 0.950 . S
H385 C393 0.949 . S
H386 C394 0.950 . S
H387 C395 0.951 . S
H388 C396 0.951 . S
C389 C383 1.265 . S
C389 H384 0.950 . S
C389 C390 1.478 . S
C390 C389 1.478 . S
C390 C391 1.397 . S
C390 C407 1.394 . S
C391 C390 1.397 . S
C391 C392 1.438 . S
C391 C396 1.429 . S
C392 C391 1.438 . S
C392 C393 1.428 . S
C392 C405 1.394 . S
C393 H385 0.949 . S
C393 C392 1.428 . S
C393 C394 1.345 . S
C394 H386 0.950 . S
C394 C393 1.345 . S
C394 C395 1.424 . S
C395 H387 0.951 . S
C395 C394 1.424 . S
C395 C396 1.347 . S
C396 H388 0.951 . S
C396 C391 1.429 . S
C396 C395 1.347 . S
H397 C398 0.951 . S
C398 H397 0.951 . S
C398 C404 1.265 . S
H399 C404 0.950 . S
H400 C408 0.949 . S
H401 C409 0.950 . S
H402 C410 0.976 . S
H403 C411 0.951 . S
C404 C398 1.265 . S
C404 H399 0.950 . S
C404 C405 1.478 . S
C405 C392 1.394 . S
C405 C404 1.478 . S
C405 C406 1.397 . S
C406 C405 1.397 . S
C406 C407 1.438 . S
C406 C411 1.429 . S
C407 C390 1.394 . S
C407 C406 1.438 . S
C407 C408 1.428 . S
C408 H400 0.949 . S
C408 C407 1.428 . S
C408 C409 1.345 . S
C409 H401 0.950 . S
C409 C408 1.345 . S
C409 C410 1.424 . S
C410 H402 0.976 . S
C410 C409 1.424 . S
C410 C411 1.347 . S
C411 H403 0.951 . S
C411 C406 1.429 . S
C411 C410 1.347 . S
H412 C413 0.951 . S
C413 H412 0.951 . S
C413 C419 1.265 . S
H414 C419 0.950 . S
H415 C423 0.949 . S
H416 C424 0.950 . S
H417 C425 0.951 . S
H418 C426 0.951 . S
C419 C413 1.265 . S
C419 H414 0.950 . S
C419 C420 1.478 . S
C420 C419 1.478 . S
C420 C421 1.397 . S
C420 C437 1.394 . S
C421 C420 1.397 . S
C421 C422 1.438 . S
C421 C426 1.429 . S
C422 C421 1.438 . S
C422 C423 1.428 . S
C422 C435 1.394 . S
C423 H415 0.949 . S
C423 C422 1.428 . S
C423 C424 1.345 . S
C424 H416 0.950 . S
C424 C423 1.345 . S
C424 C425 1.424 . S
C425 H417 0.951 . S
C425 C424 1.424 . S
C425 C426 1.347 . S
C426 H418 0.951 . S
C426 C421 1.429 . S
C426 C425 1.347 . S
H427 C428 0.951 . S
C428 H427 0.951 . S
C428 C434 1.265 . S
H429 C434 0.950 . S
H430 C438 0.949 . S
H431 C439 0.950 . S
H432 C440 0.951 . S
H433 C441 0.951 . S
C434 C428 1.265 . S
C434 H429 0.950 . S
C434 C435 1.478 . S
C435 C422 1.394 . S
C435 C434 1.478 . S
C435 C436 1.397 . S
C436 C435 1.397 . S
C436 C437 1.438 . S
C436 C441 1.429 . S
C437 C420 1.394 . S
C437 C436 1.438 . S
C437 C438 1.428 . S
C438 H430 0.949 . S
C438 C437 1.428 . S
C438 C439 1.345 . S
C439 H431 0.950 . S
C439 C438 1.345 . S
C439 C440 1.424 . S
C440 H432 0.951 . S
C440 C439 1.424 . S
C440 C441 1.347 . S
C441 H433 0.951 . S
C441 C436 1.429 . S
C441 C440 1.347 . S
H442 C443 0.951 . S
C443 H442 0.951 . S
C443 C449 1.265 . S
H444 C449 0.950 . S
H445 C453 0.949 . S
H446 C454 0.950 1_655 S
H447 C455 0.951 . S
H448 C456 0.951 . S
C449 C443 1.265 . S
C449 H444 0.950 . S
C449 C450 1.478 . S
C450 C449 1.478 . S
C450 C451 1.397 . S
C450 C467 1.394 . S
C451 C450 1.397 . S
C451 C452 1.438 . S
C451 C456 1.429 . S
C452 C451 1.438 . S
C452 C453 1.428 . S
C452 C465 1.394 . S
C453 H445 0.949 . S
C453 C452 1.428 . S
C453 C454 1.345 . S
C454 H446 0.950 1_455 S
C454 C453 1.345 . S
C454 C455 1.424 . S
C455 H447 0.951 . S
C455 C454 1.424 . S
C455 C456 1.347 . S
C456 H448 0.951 . S
C456 C451 1.429 . S
C456 C455 1.347 . S
H457 C458 0.951 . S
C458 H457 0.951 . S
C458 C464 1.265 . S
H459 C464 0.950 . S
H460 C468 0.949 . S
H461 C469 0.950 . S
H462 C470 0.951 . S
H463 C471 0.951 . S
C464 C458 1.265 . S
C464 H459 0.950 . S
C464 C465 1.478 . S
C465 C452 1.394 . S
C465 C464 1.478 . S
C465 C466 1.397 . S
C466 C465 1.397 . S
C466 C467 1.438 . S
C466 C471 1.429 . S
C467 C450 1.394 . S
C467 C466 1.438 . S
C467 C468 1.428 . S
C468 H460 0.949 . S
C468 C467 1.428 . S
C468 C469 1.345 . S
C469 H461 0.950 . S
C469 C468 1.345 . S
C469 C470 1.424 . S
C470 H462 0.951 . S
C470 C469 1.424 . S
C470 C471 1.347 . S
C471 H463 0.951 . S
C471 C466 1.429 . S
C471 C470 1.347 . S
C128 C48 1.491 . S
C113 C43 1.497 . S
C143 C10 1.499 . S
C158 C91 1.503 . S
C173 C21 1.489 . S
C188 C57 1.503 . S
C203 C32 1.495 . S
C218 C82 1.492 . S
C248 C44 1.546 . S
C233 C5 1.499 . S
C278 C86 1.534 . S
C263 C15 1.532 . S
C293 C27 1.546 . S
C308 C52 1.548 . S
C323 C38 1.496 . S
C338 C78 1.529 . S
C368 C107 1.468 . S
C353 C16 1.473 . S
C398 C73 1.449 . S
C383 C26 1.433 . S
C428 C95 1.459 . S
C413 C37 1.445 . S
C443 C4 1.447 . S
C458 C61 1.439 . S
