# Generated by pormake.
# Topology zzz, (3,6)-cn, num edge types: 1
# Building blocks:
#     Node 0, Type 0, BuildingBlock: BELTOD_clean_linker_0, # of connection points: 3
#     Node 1, Type 0, BuildingBlock: BELTOD_clean_linker_0, # of connection points: 3
#     Node 2, Type 0, BuildingBlock: BELTOD_clean_linker_0, # of connection points: 3
#     Node 3, Type 0, BuildingBlock: BELTOD_clean_linker_0, # of connection points: 3
#     Node 4, Type 0, BuildingBlock: BELTOD_clean_linker_0, # of connection points: 3
#     Node 5, Type 0, BuildingBlock: BELTOD_clean_linker_0, # of connection points: 3
#     Node 6, Type 0, BuildingBlock: BELTOD_clean_linker_0, # of connection points: 3
#     Node 7, Type 0, BuildingBlock: BELTOD_clean_linker_0, # of connection points: 3
#     Node 8, Type 1, BuildingBlock: GEDQOX_clean_sbu_0, # of connection points: 6
#     Node 9, Type 1, BuildingBlock: GEDQOX_clean_sbu_0, # of connection points: 6
#     Node 10, Type 1, BuildingBlock: GEDQOX_clean_sbu_0, # of connection points: 6
#     Node 11, Type 1, BuildingBlock: GEDQOX_clean_sbu_0, # of connection points: 6
#     Edge 12, Type (0, 1), BuildingBlock: ZUJKAS_clean_linker_0, # of connection points: 2
#     Edge 13, Type (0, 1), BuildingBlock: ZUJKAS_clean_linker_0, # of connection points: 2
#     Edge 14, Type (0, 1), BuildingBlock: ZUJKAS_clean_linker_0, # of connection points: 2
#     Edge 15, Type (0, 1), BuildingBlock: ZUJKAS_clean_linker_0, # of connection points: 2
#     Edge 16, Type (0, 1), BuildingBlock: ZUJKAS_clean_linker_0, # of connection points: 2
#     Edge 17, Type (0, 1), BuildingBlock: ZUJKAS_clean_linker_0, # of connection points: 2
#     Edge 18, Type (0, 1), BuildingBlock: ZUJKAS_clean_linker_0, # of connection points: 2
#     Edge 19, Type (0, 1), BuildingBlock: ZUJKAS_clean_linker_0, # of connection points: 2
#     Edge 20, Type (0, 1), BuildingBlock: ZUJKAS_clean_linker_0, # of connection points: 2
#     Edge 21, Type (0, 1), BuildingBlock: ZUJKAS_clean_linker_0, # of connection points: 2
#     Edge 22, Type (0, 1), BuildingBlock: ZUJKAS_clean_linker_0, # of connection points: 2
#     Edge 23, Type (0, 1), BuildingBlock: ZUJKAS_clean_linker_0, # of connection points: 2
#     Edge 24, Type (0, 1), BuildingBlock: ZUJKAS_clean_linker_0, # of connection points: 2
#     Edge 25, Type (0, 1), BuildingBlock: ZUJKAS_clean_linker_0, # of connection points: 2
#     Edge 26, Type (0, 1), BuildingBlock: ZUJKAS_clean_linker_0, # of connection points: 2
#     Edge 27, Type (0, 1), BuildingBlock: ZUJKAS_clean_linker_0, # of connection points: 2
#     Edge 28, Type (0, 1), BuildingBlock: ZUJKAS_clean_linker_0, # of connection points: 2
#     Edge 29, Type (0, 1), BuildingBlock: ZUJKAS_clean_linker_0, # of connection points: 2
#     Edge 30, Type (0, 1), BuildingBlock: ZUJKAS_clean_linker_0, # of connection points: 2
#     Edge 31, Type (0, 1), BuildingBlock: ZUJKAS_clean_linker_0, # of connection points: 2
#     Edge 32, Type (0, 1), BuildingBlock: ZUJKAS_clean_linker_0, # of connection points: 2
#     Edge 33, Type (0, 1), BuildingBlock: ZUJKAS_clean_linker_0, # of connection points: 2
#     Edge 34, Type (0, 1), BuildingBlock: ZUJKAS_clean_linker_0, # of connection points: 2
#     Edge 35, Type (0, 1), BuildingBlock: ZUJKAS_clean_linker_0, # of connection points: 2
# Relax obj value: 0.283
# Max RMSD: 0.251
# Mean RMSD: 0.192
data_MOF--net-zzz--node1-GEDQOX_clean_sbu_0--node2-BELTOD_clean_linker_0--edge1-ZUJKAS_clean_linker_0
_symmetry_space_group_name_H-M    P1
_symmetry_Int_Tables_number       1
_symmetry_cell_setting            triclinic
loop_
_symmetry_equiv_pos_as_xyz
'x, y, z'
_cell_length_a     73.559817
_cell_length_b     68.974061
_cell_length_c     25.01021
_cell_angle_alpha  83.496986
_cell_angle_beta   91.213554
_cell_angle_gamma 101.13908
loop_
_atom_site_label
_atom_site_type_symbol
_atom_site_fract_x
_atom_site_fract_y
_atom_site_fract_z
_atom_type_partial_charge
P0 P 0.74738 0.38566 0.13539 0.0
H1 H 0.74391 0.37862 0.25296 0.0
H2 H 0.76097 0.39518 0.32566 0.0
H3 H 0.79409 0.43718 0.20757 0.0
H4 H 0.77673 0.42104 0.13583 0.0
H5 H 0.71495 0.3707 0.07306 0.0
H6 H 0.68969 0.38591 0.03323 0.0
H7 H 0.7131 0.44049 0.09962 0.0
H8 H 0.73803 0.42505 0.14013 0.0
H9 H 0.77403 0.36098 0.11457 0.0
H10 H 0.75734 0.41436 0.04025 0.0
O11 O 0.73963 0.36183 0.1578 0.0
H12 H 0.79967 0.36611 0.05013 0.0
H13 H 0.78297 0.4196 0.97649 0.0
C14 C 0.7593 0.39832 0.189 0.0
C15 C 0.75481 0.39144 0.24287 0.0
C16 C 0.76461 0.40088 0.28436 0.0
C17 C 0.77898 0.41746 0.27251 0.0
C18 C 0.783 0.42461 0.2183 0.0
C19 C 0.77319 0.4152 0.17705 0.0
C20 C 0.72812 0.39659 0.11043 0.0
C21 C 0.71446 0.38585 0.07963 0.0
C22 C 0.70016 0.39464 0.05641 0.0
C23 C 0.69937 0.41443 0.06325 0.0
C24 C 0.71313 0.42513 0.09428 0.0
C25 C 0.72742 0.41631 0.11748 0.0
C26 C 0.76365 0.38713 0.08173 0.0
C27 C 0.77558 0.37349 0.08354 0.0
C28 C 0.79019 0.37641 0.0468 0.0
C29 C 0.79326 0.39326 0.00855 0.0
C30 C 0.78089 0.40652 0.00571 0.0
C31 C 0.76618 0.40345 0.04193 0.0
P32 P 0.99142 0.72565 0.27417 0.0
H33 H 0.99206 0.72824 0.38999 0.0
H34 H 0.97554 0.74631 0.44418 0.0
H35 H 0.93815 0.75482 0.31171 0.0
H36 H 0.95507 0.73689 0.25717 0.0
H37 H 0.01414 0.70395 0.22234 0.0
H38 H 0.0072 0.67572 0.17003 0.0
H39 H 0.94913 0.66835 0.20812 0.0
H40 H 0.95622 0.69705 0.2608 0.0
H41 H 0.01396 0.76556 0.26218 0.0
H42 H 0.97452 0.72922 0.16704 0.0
O43 O 0.0117 0.72633 0.3059 0.0
H44 H 0.01618 0.79333 0.19102 0.0
H45 H 0.97645 0.75693 0.09626 0.0
C46 C 0.97497 0.73146 0.31926 0.0
C47 C 0.97993 0.73337 0.37308 0.0
C48 C 0.97039 0.74373 0.40421 0.0
C49 C 0.9557 0.75238 0.38199 0.0
C50 C 0.94963 0.74869 0.32968 0.0
C51 C 0.95919 0.73827 0.2986 0.0
C52 C 0.98575 0.70237 0.24611 0.0
C53 C -5e-05 0.69603 0.22056 0.0
C54 C 0.99595 0.68003 0.19021 0.0
C55 C 0.97762 0.67003 0.18466 0.0
C56 C 0.96338 0.67584 0.21198 0.0
C57 C 0.96741 0.69213 0.24217 0.0
C58 C 0.99443 0.74522 0.21937 0.0
C59 C 0.006 0.76348 0.22565 0.0
C60 C 0.00711 0.77937 0.18519 0.0
C61 C 0.99651 0.7773 0.13797 0.0
C62 C 0.98503 0.75889 0.13171 0.0
C63 C 0.98392 0.74303 0.17223 0.0
P64 P 0.77006 0.06929 0.13938 0.0
H65 H 0.77909 0.04671 0.24052 0.0
H66 H 0.75957 0.02598 0.31202 0.0
H67 H 0.71071 0.03831 0.22646 0.0
H68 H 0.73 0.05861 0.15591 0.0
H69 H 0.80457 0.08962 0.08882 0.0
H70 H 0.83123 0.07812 0.05691 0.0
H71 H 0.80682 0.01781 0.11918 0.0
H72 H 0.7797 0.02946 0.14844 0.0
H73 H 0.75448 0.10136 0.07862 0.0
H74 H 0.75438 0.03921 0.07044 0.0
O75 O 0.77637 0.09196 0.15897 0.0
H76 H 0.73074 0.10061 0.00817 0.0
H77 H 0.73061 0.03837 1.00044 0.0
C78 C 0.75605 0.05362 0.19182 0.0
C79 C 0.76417 0.04467 0.23694 0.0
C80 C 0.75301 0.03295 0.27788 0.0
C81 C 0.73357 0.03018 0.27439 0.0
C82 C 0.72559 0.03961 0.22966 0.0
C83 C 0.7367 0.05131 0.18913 0.0
C84 C 0.79045 0.0605 0.12248 0.0
C85 C 0.8051 0.07396 0.09632 0.0
C86 C 0.82039 0.06733 0.07822 0.0
C87 C 0.82136 0.04702 0.08595 0.0
C88 C 0.80654 0.03353 0.11221 0.0
C89 C 0.79113 0.0402 0.12977 0.0
C90 C 0.75617 0.07033 0.07954 0.0
C91 C 0.74974 0.08771 0.06065 0.0
C92 C 0.73622 0.08729 0.02038 0.0
C93 C 0.72882 0.0694 0.99929 0.0
C94 C 0.73606 0.05232 0.01631 0.0
C95 C 0.74968 0.05281 0.05602 0.0
P96 P 0.53223 0.78146 0.40123 0.0
H97 H 0.52693 0.76643 0.51477 0.0
H98 H 0.53993 0.74128 0.57026 0.0
H99 H 0.58079 0.74284 0.4474 0.0
H100 H 0.56736 0.7679 0.39132 0.0
H101 H 0.5295 0.82271 0.4097 0.0
H102 H 0.53894 0.85283 0.3484 0.0
H103 H 0.57078 0.82178 0.25616 0.0
H104 H 0.56085 0.79145 0.31726 0.0
H105 H 0.5267 0.73807 0.40129 0.0
H106 H 0.51844 0.78853 0.29115 0.0
O107 O 0.51369 0.78541 0.43261 0.0
H108 H 0.51834 0.71641 0.33074 0.0
H109 H 0.51021 0.76681 0.22002 0.0
C110 C 0.54617 0.76912 0.44884 0.0
C111 C 0.53911 0.76196 0.50043 0.0
C112 C 0.54662 0.74751 0.53233 0.0
C113 C 0.56131 0.73982 0.5131 0.0
C114 C 0.56933 0.74824 0.46312 0.0
C115 C 0.56182 0.76279 0.43126 0.0
C116 C 0.54429 0.80476 0.36775 0.0
C117 C 0.53895 0.82249 0.37728 0.0
C118 C 0.54444 0.83979 0.34214 0.0
C119 C 0.5554 0.83966 0.29678 0.0
C120 C 0.56208 0.82228 0.29018 0.0
C121 C 0.5566 0.80498 0.32551 0.0
C122 C 0.52402 0.76511 0.35089 0.0
C123 C 0.52324 0.74458 0.36189 0.0
C124 C 0.51844 0.73215 0.32148 0.0
C125 C 0.51403 0.73999 0.26954 0.0
C126 C 0.51365 0.76037 0.25957 0.0
C127 C 0.5185 0.77281 0.3001 0.0
P128 P 0.25545 0.51781 0.50629 0.0
H129 H 0.25392 0.49531 0.41363 0.0
H130 H 0.24087 0.50027 0.32397 0.0
H131 H 0.23304 0.55856 0.35458 0.0
H132 H 0.24584 0.55324 0.44509 0.0
H133 H 0.27407 0.51725 0.60942 0.0
H134 H 0.30668 0.524 0.63467 0.0
H135 H 0.32154 0.54445 0.4687 0.0
H136 H 0.28878 0.5374 0.44368 0.0
H137 H 0.21588 0.5053 0.51466 0.0
H138 H 0.25771 0.54921 0.57968 0.0
O139 O 0.25196 0.49311 0.51947 0.0
H140 H 0.19207 0.51588 0.56396 0.0
H141 H 0.23399 0.55926 0.63187 0.0
C142 C 0.25045 0.52373 0.43628 0.0
C143 C 0.24974 0.50932 0.40071 0.0
C144 C 0.24237 0.51225 0.34918 0.0
C145 C 0.23564 0.52972 0.33228 0.0
C146 C 0.23777 0.54479 0.36673 0.0
C147 C 0.24517 0.54183 0.41832 0.0
C148 C 0.27899 0.52707 0.52488 0.0
C149 C 0.28431 0.52371 0.57871 0.0
C150 C 0.30299 0.52762 0.59309 0.0
C151 C 0.31674 0.53476 0.55369 0.0
C152 C 0.31129 0.53881 0.49992 0.0
C153 C 0.29254 0.53493 0.48562 0.0
C154 C 0.23857 0.52608 0.54461 0.0
C155 C 0.21996 0.51703 0.54036 0.0
C156 C 0.20636 0.52304 0.56891 0.0
C157 C 0.21112 0.53816 0.60293 0.0
C158 C 0.22983 0.54757 0.60613 0.0
C159 C 0.24345 0.54167 0.57681 0.0
P160 P 0.11009 0.29232 0.38795 0.0
H161 H 0.12835 0.29227 0.28493 0.0
H162 H 0.12064 0.27106 0.2127 0.0
H163 H 0.06726 0.24673 0.28639 0.0
H164 H 0.07481 0.26851 0.35707 0.0
H165 H 0.12426 0.32384 0.45313 0.0
H166 H 0.11101 0.35038 0.48356 0.0
H167 H 0.06292 0.33459 0.38372 0.0
H168 H 0.07631 0.30769 0.35388 0.0
H169 H 0.12594 0.25841 0.43249 0.0
H170 H 0.07762 0.28288 0.45918 0.0
O171 O 0.13321 0.29799 0.38754 0.0
H172 H 0.11388 0.22925 0.49561 0.0
H173 H 0.06526 0.25367 0.52091 0.0
C174 C 0.10227 0.28176 0.32686 0.0
C175 C 0.11477 0.28281 0.28466 0.0
C176 C 0.11041 0.27049 0.24363 0.0
C177 C 0.0935 0.2568 0.24431 0.0
C178 C 0.08039 0.25707 0.2843 0.0
C179 C 0.08473 0.26951 0.32504 0.0
C180 C 0.10145 0.31406 0.40047 0.0
C181 C 0.11108 0.3264 0.43666 0.0
C182 C 0.10347 0.34161 0.45404 0.0
C183 C 0.08592 0.3447 0.43595 0.0
C184 C 0.07642 0.33253 0.39865 0.0
C185 C 0.08413 0.31729 0.3811 0.0
C186 C 0.10287 0.27298 0.44189 0.0
C187 C 0.11293 0.2577 0.4528 0.0
C188 C 0.10591 0.24095 0.4884 0.0
C189 C 0.08855 0.23908 0.51311 0.0
C190 C 0.07879 0.25475 0.50327 0.0
C191 C 0.08587 0.27151 0.46784 0.0
P192 P 0.28731 0.04162 0.54713 0.0
H193 H 0.27524 0.04843 0.43391 0.0
H194 H 0.2916 0.05008 0.3483 0.0
H195 H 0.33916 0.03502 0.43584 0.0
H196 H 0.32303 0.03383 0.5203 0.0
H197 H 0.26284 0.06426 0.59116 0.0
H198 H 0.22943 0.05863 0.6023 0.0
H199 H 0.22348 0.00695 0.51579 0.0
H200 H 0.25727 0.01263 0.5053 0.0
H201 H 0.30229 0.04132 0.65647 0.0
H202 H 0.28557 0.9992 0.54144 0.0
O203 O 0.29672 0.0636 0.56732 0.0
H204 H 0.31515 0.01644 0.71421 0.0
H205 H 0.29809 0.97395 0.5997 0.0
C206 C 0.29778 0.04059 0.48337 0.0
C207 C 0.28907 0.0452 0.43444 0.0
C208 C 0.29844 0.04615 0.38561 0.0
C209 C 0.31673 0.0428 0.38532 0.0
C210 C 0.3252 0.03797 0.4346 0.0
C211 C 0.31589 0.03703 0.483 0.0
C212 C 0.26252 0.03901 0.54676 0.0
C213 C 0.25438 0.05194 0.57355 0.0
C214 C 0.23521 0.04872 0.57981 0.0
C215 C 0.22374 0.03238 0.55977 0.0
C216 C 0.23194 0.0196 0.532 0.0
C217 C 0.2512 0.0229 0.52562 0.0
C218 C 0.29334 0.02219 0.59428 0.0
C219 C 0.30103 0.02656 0.64419 0.0
C220 C 0.30822 0.01221 0.67746 0.0
C221 C 0.30778 0.99321 0.66137 0.0
C222 C 0.29886 0.98851 0.6129 0.0
C223 C 0.29164 0.00289 0.57969 0.0
P224 P 0.42393 0.21752 0.24552 0.0
H225 H 0.4227 0.22061 0.12752 0.0
H226 H 0.43682 0.24686 0.05849 0.0
H227 H 0.46788 0.2781 0.18218 0.0
H228 H 0.45473 0.25129 0.24957 0.0
H229 H 0.40703 0.17671 0.28316 0.0
H230 H 0.41956 0.14935 0.33063 0.0
H231 H 0.47492 0.18433 0.30986 0.0
H232 H 0.46223 0.21144 0.26061 0.0
H233 H 0.40678 0.25144 0.25715 0.0
H234 H 0.43891 0.21516 0.35623 0.0
O235 O 0.40254 0.21022 0.2224 0.0
H236 H 0.41036 0.27493 0.32478 0.0
H237 H 0.44294 0.23862 0.42255 0.0
C238 C 0.43733 0.23423 0.19377 0.0
C239 C 0.43291 0.23291 0.13939 0.0
C240 C 0.44086 0.24809 0.10002 0.0
C241 C 0.45323 0.26499 0.11451 0.0
C242 C 0.45855 0.26542 0.16889 0.0
C243 C 0.45085 0.25009 0.2079 0.0
C244 C 0.43372 0.19598 0.26765 0.0
C245 C 0.42191 0.17827 0.28729 0.0
C246 C 0.42909 0.16272 0.31516 0.0
C247 C 0.44824 0.16472 0.32482 0.0
C248 C 0.46014 0.18218 0.30276 0.0
C249 C 0.45291 0.1977 0.27444 0.0
C250 C 0.42258 0.23156 0.30137 0.0
C251 C 0.4142 0.24826 0.29398 0.0
C252 C 0.41641 0.26176 0.33241 0.0
C253 C 0.4271 0.25877 0.37884 0.0
C254 C 0.43446 0.24132 0.38761 0.0
C255 C 0.43225 0.22787 0.34922 0.0
Nd256 Nd 0.99699 1.00049 0.74817 0.0
Nd257 Nd 0.02259 0.0091 0.84081 0.0
C258 C 0.9699 0.98503 0.68514 0.0
C259 C 0.96439 0.96538 0.66586 0.0
C260 C 0.94898 0.9614 0.63213 0.0
C261 C 0.94402 0.94277 0.61301 0.0
C262 C 0.95435 0.92781 0.62771 0.0
C263 C 0.96972 0.9319 0.66186 0.0
C264 C 0.97473 0.95053 0.68051 0.0
C265 C 0.03377 0.00628 0.72175 0.0
C266 C 0.00958 0.96354 0.82731 0.0
C267 C 0.04897 0.02417 0.9062 0.0
C268 C 0.05408 0.04327 0.92933 0.0
C269 C 0.0559 0.06154 0.89673 0.0
C270 C 0.05948 0.07945 0.91974 0.0
C271 C 0.06133 0.07948 0.97583 0.0
C272 C 0.05984 0.06118 0.00822 0.0
C273 C 0.05626 0.04327 0.98517 0.0
C274 C 0.98562 0.00357 0.86593 0.0
C275 C 0.0111 0.04633 0.76053 0.0
O276 O 0.96785 0.98557 0.73675 0.0
O277 O 0.98574 0.99546 0.66692 0.0
O278 O 0.02137 0.01258 0.69042 0.0
O279 O 0.02654 0.99642 0.76412 0.0
O280 O 0.99658 0.96962 0.79617 0.0
O281 O 0.02364 0.97634 0.84382 0.0
O282 O 0.05137 0.02453 0.85435 0.0
O283 O 0.03338 0.01282 0.92333 0.0
O284 O 0.9977 0.99636 0.89658 0.0
O285 O 0.99321 0.01364 0.82436 0.0
O286 O 0.0232 0.03999 0.79457 0.0
O287 O 0.99741 0.03389 0.74068 0.0
H288 H 0.94085 0.97272 0.62037 0.0
H289 H 0.93205 0.94003 0.58701 0.0
H290 H 0.97816 0.92085 0.67321 0.0
H291 H 0.98683 0.95341 0.70591 0.0
H292 H 0.05427 0.06201 0.85351 0.0
H293 H 0.06035 0.09325 0.89366 0.0
H294 H 0.06146 0.06068 0.05147 0.0
H295 H 0.05495 0.02937 0.01108 0.0
Nd296 Nd 0.52081 0.98656 0.76292 0.0
Nd297 Nd 0.50587 0.01925 0.82472 0.0
C298 C 0.53472 0.95771 0.72887 0.0
C299 C 0.55225 0.9582 0.70102 0.0
C300 C 0.55394 0.94363 0.66765 0.0
C301 C 0.5704 0.94491 0.63908 0.0
C302 C 0.5854 0.96076 0.64366 0.0
C303 C 0.58363 0.97519 0.67763 0.0
C304 C 0.56723 0.97396 0.70583 0.0
C305 C 0.51352 0.01946 0.70023 0.0
C306 C 0.54932 0.02644 0.79047 0.0
C307 C 0.48809 0.04713 0.84713 0.0
C308 C 0.47325 0.04726 0.88537 0.0
C309 C 0.46547 0.06422 0.88621 0.0
C310 C 0.45108 0.06414 0.92205 0.0
C311 C 0.44429 0.04706 0.95765 0.0
C312 C 0.45213 0.03006 0.9563 0.0
C313 C 0.46645 0.03016 0.92044 0.0
C314 C 0.51885 0.99182 0.8973 0.0
C315 C 0.47796 0.97689 0.80956 0.0
O316 O 0.53638 0.96212 0.77861 0.0
O317 O 0.52258 0.96632 0.70103 0.0
O318 O 0.52674 0.01038 0.68996 0.0
O319 O 0.50417 0.01042 0.74034 0.0
O320 O 0.54732 0.00737 0.78416 0.0
O321 O 0.53523 0.0352 0.79842 0.0
O322 O 0.48328 0.03609 0.80799 0.0
O323 O 0.50415 0.04508 0.86834 0.0
O324 O 0.51228 0.00661 0.91185 0.0
O325 O 0.51817 0.99255 0.84697 0.0
O326 O 0.48068 0.99404 0.8302 0.0
O327 O 0.49063 0.97096 0.78175 0.0
H328 H 0.54249 0.93143 0.66322 0.0
H329 H 0.57138 0.93353 0.61337 0.0
H330 H 0.59475 0.98781 0.68129 0.0
H331 H 0.56616 0.98552 0.73083 0.0
H332 H 0.47052 0.07751 0.8592 0.0
H333 H 0.44546 0.07752 0.92245 0.0
H334 H 0.44704 0.01658 0.98257 0.0
H335 H 0.4722 0.01685 0.91991 0.0
Nd336 Nd 0.50992 0.50744 0.83945 0.0
Nd337 Nd 0.53087 0.49466 0.74983 0.0
C338 C 0.48922 0.52524 0.89539 0.0
C339 C 0.4904 0.54543 0.90989 0.0
C340 C 0.47486 0.55091 0.93073 0.0
C341 C 0.47606 0.56999 0.946 0.0
C342 C 0.49285 0.58386 0.94054 0.0
C343 C 0.50829 0.57838 0.91842 0.0
C344 C 0.50707 0.5593 0.90332 0.0
C345 C 0.54282 0.49691 0.87064 0.0
C346 C 0.53837 0.54128 0.75925 0.0
C347 C 0.54916 0.47525 0.69158 0.0
C348 C 0.54418 0.45496 0.67548 0.0
C349 C 0.538 0.43857 0.71383 0.0
C350 C 0.52985 0.42018 0.69748 0.0
C351 C 0.52771 0.41779 0.64252 0.0
C352 C 0.53495 0.43386 0.60428 0.0
C353 C 0.5431 0.45227 0.62066 0.0
C354 C 0.49746 0.50455 0.72031 0.0
C355 C 0.50334 0.4607 0.83233 0.0
O356 O 0.48648 0.5231 0.84437 0.0
O357 O 0.5017 0.51561 0.91714 0.0
O358 O 0.52823 0.49319 0.90117 0.0
O359 O 0.54017 0.50706 0.82695 0.0
O360 O 0.5239 0.53714 0.792 0.0
O361 O 0.54577 0.52711 0.7422 0.0
O362 O 0.55253 0.47676 0.74274 0.0
O363 O 0.53891 0.48764 0.67038 0.0
O364 O 0.51197 0.509 0.68948 0.0
O365 O 0.50063 0.4944 0.76335 0.0
O366 O 0.51726 0.46484 0.7977 0.0
O367 O 0.49602 0.47477 0.85005 0.0
H368 H 0.46188 0.54034 0.93593 0.0
H369 H 0.46399 0.57367 0.96352 0.0
H370 H 0.52134 0.5888 0.91308 0.0
H371 H 0.5192 0.55527 0.88712 0.0
H372 H 0.53867 0.44013 0.75647 0.0
H373 H 0.5247 0.40798 0.72789 0.0
H374 H 0.53341 0.43254 0.56161 0.0
H375 H 0.54769 0.46471 0.59039 0.0
Nd376 Nd 0.99599 0.51324 0.74655 0.0
Nd377 Nd 0.01282 0.4884 0.83247 0.0
C378 C 0.97256 0.53165 0.68915 0.0
C379 C 0.95532 0.5236 0.66191 0.0
C380 C 0.94246 0.53563 0.6455 0.0
C381 C 0.9259 0.52758 0.62067 0.0
C382 C 0.92195 0.50735 0.61221 0.0
C383 C 0.93495 0.4954 0.62896 0.0
C384 C 0.95144 0.50344 0.65357 0.0
C385 C 0.01424 0.48683 0.70711 0.0
C386 C 0.97126 0.47056 0.80339 0.0
C387 C 0.03614 0.4698 0.88988 0.0
C388 C 0.05413 0.47697 0.91455 0.0
C389 C 0.06576 0.46369 0.93208 0.0
C390 C 0.08292 0.47059 0.95541 0.0
C391 C 0.08867 0.49091 0.96155 0.0
C392 C 0.07701 0.50419 0.94318 0.0
C393 C 0.0599 0.49728 0.91986 0.0
C394 C 0.99446 0.51499 0.87116 0.0
C395 C 0.03768 0.53072 0.77525 0.0
O396 O 0.97205 0.52863 0.74174 0.0
O397 O 0.9877 0.52805 0.66919 0.0
O398 O 0.01445 0.50468 0.68412 0.0
O399 O 0.00389 0.48303 0.74806 0.0
O400 O 0.97149 0.48812 0.77584 0.0
O401 O 0.98636 0.46559 0.82537 0.0
O402 O 0.03591 0.47182 0.83725 0.0
O403 O 0.02184 0.47491 0.91067 0.0
O404 O 0.99396 0.49705 0.89403 0.0
O405 O 0.00504 0.51865 0.83074 0.0
O406 O 0.03736 0.51309 0.80227 0.0
O407 O 0.02265 0.53598 0.7536 0.0
H408 H 0.9452 0.55119 0.65204 0.0
H409 H 0.9161 0.53713 0.60867 0.0
H410 H 0.93253 0.47987 0.6223 0.0
H411 H 0.96123 0.49391 0.66601 0.0
H412 H 0.06154 0.44798 0.92804 0.0
H413 H 0.0915 0.45996 0.96967 0.0
H414 H 0.08113 0.51994 0.94669 0.0
H415 H 0.05114 0.50779 0.90615 0.0
H416 H 0.20045 0.05904 0.55504 0.0
H417 H 0.16799 0.05274 0.58299 0.0
H418 H 0.16865 0.9902 0.61722 0.0
H419 H 0.20125 0.99638 0.59009 0.0
H420 H 0.13631 0.99962 0.5602 0.0
H421 H 0.15189 0.03842 0.74342 0.0
H422 H 0.16114 0.0527 0.68207 0.0
H423 H 0.1695 0.03053 0.70655 0.0
C424 C 0.19371 0.04394 0.56854 0.0
C425 C 0.2035 0.02824 0.57082 0.0
C426 C 0.17517 0.04038 0.58448 0.0
C427 C 0.16607 0.02107 0.60306 0.0
C428 C 0.1755 0.00523 0.60324 0.0
H429 H 0.06134 0.99239 0.78015 0.0
H430 H 0.09353 0.99463 0.75204 0.0
C431 C 0.19408 0.00877 0.58739 0.0
C432 C 0.14681 0.01755 0.62324 0.0
H433 H 0.12013 0.02936 0.7202 0.0
C434 C 0.13275 0.00602 0.59532 0.0
C435 C 0.1423 0.02567 0.66957 0.0
C436 C 0.15699 0.03738 0.70255 0.0
C437 C 0.11416 0.00291 0.61158 0.0
C438 C 0.10956 0.01175 0.65656 0.0
C439 C 0.1237 0.02275 0.68546 0.0
C440 C 0.09011 0.01019 0.67344 0.0
C441 C 0.09959 0.99016 0.58062 0.0
C442 C 0.07768 0.01849 0.63891 0.0
C443 C 0.05938 0.01729 0.65489 0.0
C444 C 0.05322 0.0078 0.70574 0.0
C445 C 0.06573 0.99971 0.74062 0.0
C446 C 0.08408 1.00097 0.72464 0.0
H447 H 0.10574 0.98037 0.55683 0.0
H448 H 0.08895 0.98076 0.60815 0.0
H449 H 0.09259 0.9999 0.55224 0.0
H450 H 0.08217 0.02604 0.59971 0.0
H451 H 0.05006 0.02378 0.62734 0.0
H452 H 0.48042 0.15058 0.3149 0.0
H453 H 0.49249 0.12596 0.37717 0.0
H454 H 0.44474 0.1197 0.47924 0.0
H455 H 0.43276 0.14437 0.41814 0.0
H456 H 0.50059 0.12747 0.48943 0.0
H457 H 0.44649 0.06204 0.45407 0.0
H458 H 0.45035 0.08472 0.40857 0.0
H459 H 0.43755 0.08318 0.46985 0.0
C460 C 0.4725 0.14397 0.35063 0.0
C461 C 0.4555 0.14931 0.36112 0.0
C462 C 0.47939 0.12987 0.38604 0.0
C463 C 0.46935 0.12078 0.43232 0.0
C464 C 0.45249 0.12618 0.44311 0.0
H465 H 0.48178 0.03438 0.70256 0.0
H466 H 0.47208 0.05994 0.63832 0.0
C467 C 0.44564 0.14026 0.40793 0.0
C468 C 0.47664 0.10604 0.47041 0.0
H469 H 0.46634 0.05807 0.52909 0.0
C470 C 0.49322 0.11224 0.49783 0.0
C471 C 0.46693 0.08622 0.48137 0.0
C472 C 0.44943 0.07854 0.45162 0.0
C473 C 0.50008 0.09927 0.53714 0.0
C474 C 0.49026 0.0795 0.5485 0.0
C475 C 0.4738 0.07326 0.52054 0.0
C476 C 0.49677 0.06496 0.58917 0.0
C477 C 0.51748 0.10702 0.56727 0.0
C478 C 0.51387 0.05932 0.58293 0.0
C479 C 0.5195 0.04484 0.61987 0.0
C480 C 0.50806 0.03567 0.66349 0.0
C481 C 0.49101 0.04142 0.66989 0.0
C482 C 0.4854 0.05592 0.63299 0.0
H483 H 0.52051 0.12353 0.5641 0.0
H484 H 0.51634 0.1011 0.61049 0.0
H485 H 0.52939 0.10216 0.54991 0.0
H486 H 0.52269 0.06577 0.54883 0.0
H487 H 0.53266 0.04059 0.61377 0.0
H488 H 0.34351 0.52306 0.49785 0.0
H489 H 0.37503 0.52095 0.52712 0.0
H490 H 0.36631 0.54612 0.67238 0.0
H491 H 0.33482 0.5488 0.64277 0.0
H492 H 0.40234 0.56065 0.62251 0.0
H493 H 0.38299 0.47821 0.65195 0.0
H494 H 0.37793 0.48938 0.58626 0.0
H495 H 0.36599 0.49402 0.64403 0.0
C496 C 0.34841 0.52861 0.53542 0.0
C497 C 0.3366 0.53599 0.56816 0.0
C498 C 0.36637 0.52719 0.55232 0.0
C499 C 0.37283 0.53304 0.6023 0.0
C500 C 0.36149 0.54139 0.63384 0.0
H501 H 0.4652 0.49399 0.77739 0.0
H502 H 0.43505 0.5023 0.75168 0.0
C503 C 0.34349 0.54281 0.61699 0.0
C504 C 0.39103 0.52943 0.62284 0.0
H505 H 0.41481 0.49223 0.66062 0.0
C506 C 0.4051 0.54571 0.63102 0.0
C507 C 0.39442 0.5099 0.63478 0.0
C508 C 0.37951 0.49184 0.62934 0.0
C509 C 0.42269 0.54297 0.64954 0.0
C510 C 0.42628 0.52345 0.6595 0.0
C511 C 0.41205 0.50718 0.65257 0.0
C512 C 0.44475 0.51948 0.67639 0.0
C513 C 0.43722 0.56095 0.65881 0.0
C514 C 0.46015 0.5263 0.64243 0.0
C515 C 0.47734 0.52157 0.657 0.0
C516 C 0.47939 0.50984 0.70562 0.0
C517 C 0.464 0.50308 0.73971 0.0
C518 C 0.4468 0.50782 0.7251 0.0
H519 H 0.43094 0.57409 0.66333 0.0
H520 H 0.44554 0.5579 0.69529 0.0
H521 H 0.44674 0.56476 0.62375 0.0
H522 H 0.45878 0.53496 0.60415 0.0
H523 H 0.48898 0.52693 0.62994 0.0
H524 H 0.10248 0.38215 0.45708 0.0
H525 H 0.08914 0.40534 0.50399 0.0
H526 H 0.03653 0.36473 0.51345 0.0
H527 H 0.04982 0.34123 0.46731 0.0
H528 H 0.03472 0.40592 0.48195 0.0
H529 H 0.07619 0.39517 0.66733 0.0
H530 H 0.08946 0.40134 0.60616 0.0
H531 H 0.07327 0.37816 0.61658 0.0
C532 C 0.08807 0.37812 0.46918 0.0
C533 C 0.07727 0.35974 0.45884 0.0
C534 C 0.08048 0.39139 0.49598 0.0
C535 C 0.06196 0.38656 0.51301 0.0
C536 C 0.05089 0.36865 0.50085 0.0
H537 H 0.0119 0.44743 0.74299 0.0
H538 H 0.02274 0.42223 0.69656 0.0
C539 C 0.05849 0.35531 0.47413 0.0
C540 C 0.05426 0.40015 0.54415 0.0
H541 H 0.05931 0.42145 0.66176 0.0
C542 C 0.04001 0.40926 0.52136 0.0
C543 C 0.06102 0.40421 0.5959 0.0
C544 C 0.07571 0.39409 0.62331 0.0
C545 C 0.03272 0.42284 0.54832 0.0
C546 C 0.04002 0.42753 0.5991 0.0
C547 C 0.05387 0.41794 0.62262 0.0
C548 C 0.03378 0.44273 0.62777 0.0
C549 C 0.01723 0.43203 0.52235 0.0
C550 C 0.03679 0.46263 0.60501 0.0
C551 C 0.0307 0.47698 0.63141 0.0
C552 C 0.02149 0.4717 0.68111 0.0
C553 C 0.01887 0.45187 0.70457 0.0
C554 C 0.02504 0.43749 0.67814 0.0
H555 H 0.01005 0.42321 0.49088 0.0
H556 H 0.00689 0.43335 0.55278 0.0
H557 H 0.02304 0.44718 0.50296 0.0
H558 H 0.04386 0.46705 0.56673 0.0
H559 H 0.03304 0.49219 0.61258 0.0
H560 H 0.85784 0.06566 0.08459 0.0
H561 H 0.88404 0.05552 0.04523 0.0
H562 H 0.84837 1.00179 0.005 0.0
H563 H 0.82177 0.01248 0.04095 0.0
H564 H 0.90008 0.02482 0.07019 0.0
H565 H 0.8726 0.02213 0.86237 0.0
H566 H 0.86174 0.0326 0.9132 0.0
H567 H 0.85784 0.00609 0.91183 0.0
C568 C 0.85544 0.05183 0.06659 0.0
C569 C 0.83757 0.04005 0.06537 0.0
C570 C 0.87051 0.04595 0.04454 0.0
C571 C 0.86814 0.02808 0.02113 0.0
C572 C 0.85047 0.0159 0.02152 0.0
H573 H 0.96615 0.98073 0.94937 0.0
H574 H 0.93656 0.98451 0.98591 0.0
C575 C 0.83531 0.0219 0.04297 0.0
C576 C 0.8843 0.02227 0.99699 0.0
H577 H 0.90069 0.01062 0.8803 0.0
C578 C 0.90021 0.0217 0.02866 0.0
C579 C 0.88453 0.01845 0.94257 0.0
C580 C 0.86834 0.02003 0.90532 0.0
C581 C 0.9164 0.01767 0.00743 0.0
C582 C 0.9165 0.01333 0.95342 0.0
C583 C 0.90053 0.01372 0.92184 0.0
C584 C 0.93336 0.00949 0.92815 0.0
C585 C 0.93345 0.0189 0.04258 0.0
C586 C 0.94083 0.02147 0.88159 0.0
C587 C 0.95748 0.019 0.85992 0.0
C588 C 0.96703 0.00465 0.88479 0.0
C589 C 0.95917 0.99209 0.92992 0.0
C590 C 0.94235 0.99434 0.95105 0.0
H591 H 0.93258 0.02773 0.07662 0.0
H592 H 0.93478 0.0037 0.05983 0.0
H593 H 0.94617 0.02573 0.0191 0.0
H594 H 0.93407 0.03316 0.86296 0.0
H595 H 0.96322 0.02883 0.82493 0.0
H596 H 0.56235 0.87967 0.30724 0.0
H597 H 0.56026 0.90685 0.2367 0.0
H598 H 0.55117 0.86528 0.11804 0.0
H599 H 0.55299 0.83802 0.1881 0.0
H600 H 0.5751 0.9036 0.08374 0.0
H601 H 0.508 0.90983 0.17219 0.0
H602 H 0.52732 0.91159 0.21776 0.0
H603 H 0.51887 0.88866 0.18986 0.0
C604 C 0.56013 0.87634 0.26604 0.0
C605 C 0.55767 0.85662 0.25347 0.0
C606 C 0.55896 0.89188 0.22582 0.0
C607 C 0.55527 0.88798 0.17238 0.0
C608 C 0.55402 0.86857 0.15908 0.0
H609 H 0.52561 0.95553 0.87802 0.0
H610 H 0.53608 0.93059 0.94311 0.0
C611 C 0.55517 0.85302 0.19923 0.0
C612 C 0.55109 0.90374 0.1313 0.0
H613 H 0.5191 0.93289 0.09794 0.0
C614 C 0.56289 0.91007 0.08674 0.0
C615 C 0.53506 0.91198 0.13523 0.0
C616 C 0.52146 0.9051 0.18103 0.0
C617 C 0.55926 0.9248 0.04645 0.0
C618 C 0.54322 0.93305 0.05049 0.0
C619 C 0.53142 0.92661 0.095 0.0
C620 C 0.53833 0.94853 0.00953 0.0
C621 C 0.5728 0.93167 1.00059 0.0
C622 C 0.53587 0.96673 0.02531 0.0
C623 C 0.52979 0.98083 0.98836 0.0
C624 C 0.5261 0.97705 0.93482 0.0
C625 C 0.52875 0.95896 0.91871 0.0
C626 C 0.53476 0.94474 0.95587 0.0
H627 H 0.58656 0.92785 0.01064 0.0
H628 H 0.56739 0.92425 0.96481 0.0
H629 H 0.57464 0.94799 0.98967 0.0
H630 H 0.53843 0.96993 0.06653 0.0
H631 H 0.52783 0.99467 0.00188 0.0
H632 H 0.68484 0.41136 0.96209 0.0
H633 H 0.65978 0.4266 0.9208 0.0
H634 H 0.65498 0.45417 0.06489 0.0
H635 H 0.67988 0.43887 0.10668 0.0
H636 H 0.62356 0.42153 0.95708 0.0
H637 H 0.6583 0.50072 0.9457 0.0
H638 H 0.67084 0.48055 0.95703 0.0
H639 H 0.65892 0.48755 0.01169 0.0
C640 C 0.6784 0.42061 0.98509 0.0
C641 C 0.68437 0.42392 0.0377 0.0
C642 C 0.66418 0.4294 0.96129 0.0
C643 C 0.65575 0.44176 0.98946 0.0
C644 C 0.66162 0.44507 0.04196 0.0
H645 H 0.54881 0.47255 0.95941 0.0
H646 H 0.57674 0.45921 0.98294 0.0
C647 C 0.67583 0.43629 0.06581 0.0
C648 C 0.64016 0.45041 0.96509 0.0
H649 H 0.62541 0.4943 0.93321 0.0
C650 C 0.62403 0.43745 0.95132 0.0
C651 C 0.64091 0.47119 0.95685 0.0
C652 C 0.65824 0.48584 0.96807 0.0
C653 C 0.60832 0.44468 0.93168 0.0
C654 C 0.60873 0.46539 0.92636 0.0
C655 C 0.62511 0.47842 0.93788 0.0
C656 C 0.59196 0.47369 0.91163 0.0
C657 C 0.59138 0.4301 0.91713 0.0
C658 C 0.59146 0.48665 0.86434 0.0
C659 C 0.5755 0.49438 0.85085 0.0
C660 C 0.55993 0.48936 0.88478 0.0
C661 C 0.56061 0.47663 0.93245 0.0
C662 C 0.57649 0.4689 0.94579 0.0
H663 H 0.59491 0.41573 0.90922 0.0
H664 H 0.58141 0.42707 0.95114 0.0
H665 H 0.58441 0.43622 0.88104 0.0
H666 H 0.60334 0.49061 0.83768 0.0
H667 H 0.57533 0.5042 0.81391 0.0
H668 H 0.98843 0.67272 0.08085 0.0
H669 H 0.98627 0.64583 0.02395 0.0
H670 H 0.95656 0.60463 0.14972 0.0
H671 H 0.95844 0.63176 0.20671 0.0
H672 H 0.00251 0.61374 0.05318 0.0
H673 H 0.92741 0.58881 0.01485 0.0
H674 H 0.9367 0.6125 0.03868 0.0
H675 H 0.93364 0.59007 0.08441 0.0
C676 C 0.98114 0.65799 0.09597 0.0
C677 C 0.97372 0.65423 0.14824 0.0
C678 C 0.97989 0.64266 0.06344 0.0
C679 C 0.97121 0.62324 0.08246 0.0
C680 C 0.96303 0.61957 0.13384 0.0
H681 H 0.97532 0.51028 0.96536 0.0
H682 H 0.96809 0.5365 0.01509 0.0
C683 C 0.96416 0.63502 0.16642 0.0
C684 C 0.97269 0.60672 0.05065 0.0
H685 H 0.94774 0.56904 0.98639 0.0
C686 C 0.99052 0.60405 0.03835 0.0
C687 C 0.95704 0.59397 0.03179 0.0
C688 C 0.93759 0.59651 0.04264 0.0
C689 C 0.99315 0.58901 0.00778 0.0
C690 C 0.97753 0.57643 0.98828 0.0
C691 C 0.95967 0.57884 1.00113 0.0
C692 C 0.97973 0.56056 0.95513 0.0
C693 C 0.01266 0.5865 0.99729 0.0
C694 C 0.98814 0.56541 0.90426 0.0
C695 C 0.99232 0.5505 0.87586 0.0
C696 C 0.98813 0.5305 0.89794 0.0
C697 C 0.97883 0.52559 0.9476 0.0
C698 C 0.97463 0.54052 0.97595 0.0
H699 H 0.02283 0.59437 0.02481 0.0
H700 H 0.01361 0.57052 0.00195 0.0
H701 H 0.01663 0.59272 0.95536 0.0
H702 H 0.99197 0.5808 0.88727 0.0
H703 H -0.00065 0.55468 0.83745 0.0
H704 H 0.06849 0.23454 0.60661 0.0
H705 H 0.05305 0.20333 0.65697 0.0
H706 H 0.07373 0.17016 0.54359 0.0
H707 H 0.08887 0.20111 0.49258 0.0
H708 H 0.02589 0.17203 0.61654 0.0
H709 H 0.08954 0.14635 0.6933 0.0
H710 H 0.08944 0.17189 0.66769 0.0
H711 H 0.08966 0.15361 0.62199 0.0
C712 C 0.06973 0.22059 0.5924 0.0
C713 C 0.08004 0.22031 0.54579 0.0
C714 C 0.06094 0.20281 0.62125 0.0
C715 C 0.06244 0.18451 0.6042 0.0
C716 C 0.0727 0.18417 0.55785 0.0
H717 H 0.00141 0.06493 0.66467 0.0
H718 H 0.01165 0.10008 0.63096 0.0
C719 C 0.08143 0.20188 0.52894 0.0
C720 C 0.05306 0.16565 0.63406 0.0
H721 H 0.06149 0.12233 0.70027 0.0
C722 C 0.03361 0.1612 0.63542 0.0
C723 C 0.06322 0.15173 0.65908 0.0
C724 C 0.08412 0.15615 0.661 0.0
C725 C 0.02404 0.14279 0.6596 0.0
C726 C 0.03424 0.1285 0.68231 0.0
C727 C 0.05368 0.13327 0.68251 0.0
C728 C 0.02526 0.10825 0.70505 0.0
C729 C 0.00315 0.1388 0.66065 0.0
C730 C 0.02927 0.10128 0.75799 0.0
C731 C 0.02362 0.08127 0.77696 0.0
C732 C 0.01386 0.06784 0.74334 0.0
C733 C 0.00881 0.07502 0.69147 0.0
C734 C 0.0146 0.09509 0.67228 0.0
H735 H 0.9977 0.15284 0.65596 0.0
H736 H 0.99778 0.13023 0.6268 0.0
H737 H 0.99773 0.12992 0.69879 0.0
H738 H 0.03744 0.11118 0.78394 0.0
H739 H 0.02743 0.07619 0.81744 0.0
H740 H 0.33019 0.97152 0.61956 0.0
H741 H 0.35383 0.95606 0.6669 0.0
H742 H 0.33479 0.96926 0.81816 0.0
H743 H 0.31088 0.98478 0.77082 0.0
H744 H 0.3701 0.98707 0.79504 0.0
H745 H 0.36203 0.90773 0.76584 0.0
H746 H 0.35947 0.92274 0.70376 0.0
H747 H 0.34305 0.921 0.75734 0.0
C748 C 0.33044 0.97039 0.66311 0.0
C749 C 0.31878 0.9796 0.69137 0.0
C750 C 0.34397 0.96142 0.69024 0.0
C751 C 0.34602 0.96136 0.74615 0.0
C752 C 0.33339 0.96905 0.77501 0.0
H753 H 0.45488 0.96993 0.89575 0.0
H754 H 0.42112 0.95976 0.89323 0.0
C755 C 0.31984 0.97806 0.74787 0.0
C756 C 0.36349 0.95743 0.77176 0.0
H757 H 0.39362 0.92524 0.77926 0.0
C758 C 0.37506 0.97334 0.79308 0.0
C759 C 0.36999 0.9396 0.7685 0.0
C760 C 0.35788 0.92174 0.74807 0.0
C761 C 0.39341 0.97254 0.80748 0.0
C762 C 0.40024 0.95499 0.80209 0.0
C763 C 0.38835 0.93863 0.78353 0.0
C764 C 0.4202 0.95453 0.80942 0.0
C765 C 0.40565 0.99109 0.82434 0.0
C766 C 0.4309 0.95299 0.76478 0.0
C767 C 0.45022 0.95817 0.7667 0.0
C768 C 0.45897 0.96523 0.81302 0.0
C769 C 0.44837 0.96469 0.85942 0.0
C770 C 0.42912 0.95901 0.85791 0.0
H771 H 0.39926 0.00444 0.81528 0.0
H772 H 0.40805 0.98908 0.86839 0.0
H773 H 0.41928 0.99406 0.80372 0.0
H774 H 0.42429 0.94944 0.72704 0.0
H775 H 0.45812 0.95854 0.73038 0.0
H776 H 0.43003 0.25476 0.48908 0.0
H777 H 0.44376 0.28053 0.54573 0.0
H778 H 0.4504 0.32428 0.4065 0.0
H779 H 0.43702 0.29872 0.34966 0.0
H780 H 0.47978 0.30215 0.53113 0.0
H781 H 0.42935 0.35264 0.51922 0.0
H782 H 0.42339 0.32745 0.50194 0.0
H783 H 0.43552 0.34697 0.45448 0.0
C784 C 0.43419 0.26993 0.47067 0.0
C785 C 0.43244 0.27467 0.41481 0.0
C786 C 0.44196 0.28462 0.50311 0.0
C787 C 0.44793 0.30432 0.48037 0.0
C788 C 0.44551 0.30925 0.42507 0.0
H789 H 0.53515 0.39748 0.56008 0.0
H790 H 0.51535 0.36861 0.52666 0.0
C791 C 0.4378 0.29459 0.39261 0.0
C792 C 0.45844 0.31934 0.51295 0.0
H793 H 0.46016 0.36611 0.54753 0.0
C794 C 0.47537 0.31602 0.53544 0.0
C795 C 0.45259 0.33733 0.51884 0.0
C796 C 0.43413 0.34127 0.4978 0.0
C797 C 0.48701 0.33061 0.56165 0.0
C798 C 0.48164 0.34904 0.5648 0.0
C799 C 0.46433 0.35202 0.5445 0.0
C800 C 0.49407 0.36573 0.58708 0.0
C801 C 0.50502 0.32626 0.58528 0.0
C802 C 0.48858 0.37373 0.6318 0.0
C803 C 0.49981 0.39027 0.65079 0.0
C804 C 0.51667 0.39921 0.62504 0.0
C805 C 0.52223 0.39098 0.58061 0.0
C806 C 0.51101 0.37439 0.56178 0.0
H807 H 0.50473 0.31001 0.59265 0.0
H808 H 0.51644 0.33287 0.55661 0.0
H809 H 0.50815 0.33284 0.62373 0.0
H810 H 0.47548 0.36733 0.65158 0.0
H811 H 0.49498 0.39645 0.68455 0.0
H812 H 0.20768 0.57549 0.62581 0.0
H813 H 0.18228 0.58434 0.67385 0.0
H814 H 0.15549 0.52255 0.69608 0.0
H815 H 0.18121 0.51352 0.65225 0.0
H816 H 0.14796 0.5818 0.64814 0.0
H817 H 0.14844 0.53614 0.84184 0.0
H818 H 0.16762 0.54011 0.79547 0.0
H819 H 0.14809 0.51997 0.79062 0.0
C820 C 0.19662 0.56375 0.64232 0.0
C821 C 0.19647 0.54378 0.63483 0.0
C822 C 0.18205 0.56885 0.66945 0.0
C823 C 0.16709 0.55409 0.68963 0.0
C824 C 0.16709 0.53419 0.68258 0.0
H825 H 0.05417 0.54448 0.67956 0.0
H826 H 0.08718 0.55693 0.66495 0.0
C827 C 0.18169 0.52907 0.65633 0.0
C828 C 0.15057 0.55925 0.71353 0.0
H829 H 0.11746 0.54037 0.80831 0.0
C830 C 0.14149 0.57315 0.68406 0.0
C831 C 0.14238 0.54873 0.76163 0.0
C832 C 0.15233 0.53562 0.7994 0.0
C833 C 0.12362 0.57515 0.69824 0.0
C834 C 0.11428 0.56225 0.74143 0.0
C835 C 0.1242 0.54996 0.77418 0.0
C836 C 0.09385 0.55917 0.74932 0.0
C837 C 0.11493 0.59081 0.66597 0.0
C838 C 0.0863 0.55621 0.80151 0.0
C839 C 0.06749 0.54823 0.80987 0.0
C840 C 0.05581 0.5438 0.76608 0.0
C841 C 0.0629 0.54831 0.71372 0.0
C842 C 0.08182 0.5556 0.70542 0.0
H843 H 0.12553 0.60441 0.65472 0.0
H844 H 0.10925 0.58519 0.62797 0.0
H845 H 0.10365 0.59493 0.68848 0.0
H846 H 0.09516 0.55881 0.83615 0.0
H847 H 0.06226 0.54459 0.85068 0.0
H848 H 0.99598 0.81563 0.15405 0.0
H849 H 0.99626 0.84404 0.08616 0.0
H850 H 0.99731 0.80638 0.96029 0.0
H851 H 0.99756 0.77785 0.02827 0.0
H852 H 0.02297 0.84205 0.94539 0.0
H853 H 0.95335 0.8556 0.98872 0.0
H854 H 0.96725 0.85405 0.04831 0.0
H855 H 0.96074 0.83261 0.0122 0.0
C856 C 0.99642 0.8134 0.11196 0.0
C857 C 0.99678 0.79451 0.0965 0.0
C858 C 0.99632 0.82958 0.07321 0.0
C859 C 0.99644 0.8272 0.01828 0.0
C860 C 0.997 0.80844 0.00255 0.0
H861 H 0.98248 0.93266 0.80223 0.0
H862 H 0.97904 0.89757 0.83738 0.0
C863 C 0.99708 0.79219 0.04137 0.0
C864 C 0.99673 0.84461 0.97776 0.0
H865 H 0.97449 0.88317 0.94246 0.0
C866 C 0.01223 0.85088 0.94397 0.0
C867 C 0.98251 0.85584 0.97511 0.0
C868 C 0.96493 0.84907 0.00763 0.0
C869 C 0.01448 0.86888 0.91028 0.0
C870 C 0.00103 0.88098 0.9113 0.0
C871 C 0.98492 0.874 0.94224 0.0
C872 C 0.00414 0.90165 0.88488 0.0
C873 C 0.0314 0.87493 0.87477 0.0
C874 C 0.01942 0.91554 0.89982 0.0
C875 C 0.02145 0.93555 0.87983 0.0
C876 C 0.00812 0.94211 0.84491 0.0
C877 C 0.99301 0.9281 0.82905 0.0
C878 C 0.99101 0.90804 0.84903 0.0
H879 H 0.03656 0.86172 0.86434 0.0
H880 H 0.02847 0.88391 0.83699 0.0
H881 H 0.04263 0.884 0.89666 0.0
H882 H 0.02946 0.91104 0.92852 0.0
H883 H 0.03322 0.94594 0.89301 0.0
H884 H 0.72308 0.0928 0.9065 0.0
H885 H 0.69469 0.09002 0.85178 0.0
H886 H 0.66849 0.04047 0.96285 0.0
H887 H 0.69684 0.04272 0.01577 0.0
H888 H 0.66197 0.03266 0.86349 0.0
H889 H 0.6476 0.10775 0.88325 0.0
H890 H 0.66945 0.10756 0.85291 0.0
H891 H 0.66525 0.09776 0.92222 0.0
C892 C 0.71121 0.08132 0.91882 0.0
C893 C 0.71212 0.06787 0.96495 0.0
C894 C 0.69499 0.07983 0.8879 0.0
C895 C 0.67935 0.0652 0.90359 0.0
C896 C 0.68037 0.05183 0.94975 0.0
H897 H 0.56365 0.05148 0.86353 0.0
H898 H 0.59658 0.06363 0.88009 0.0
C899 C 0.69658 0.05308 0.97992 0.0
C900 C 0.66182 0.06328 0.87245 0.0
H901 H 0.626 0.08677 0.83449 0.0
C902 C 0.65416 0.04454 0.85673 0.0
C903 C 0.65165 0.0788 0.86384 0.0
C904 C 0.65878 0.09906 0.88178 0.0
C905 C 0.63619 0.04046 0.83571 0.0
C906 C 0.6259 0.05593 0.82743 0.0
C907 C 0.63394 0.07499 0.84053 0.0
C908 C 0.60612 0.05199 0.81107 0.0
C909 C 0.62809 0.01926 0.82626 0.0
C910 C 0.60048 0.04237 0.76524 0.0
C911 C 0.58174 0.03489 0.75683 0.0
C912 C 0.56833 0.03775 0.79273 0.0
C913 C 0.57378 0.04919 0.83526 0.0
C914 C 0.59259 0.05611 0.84467 0.0
H915 H 0.63602 0.00854 0.84757 0.0
H916 H 0.61347 0.01495 0.84002 0.0
H917 H 0.62854 0.01776 0.78263 0.0
H918 H 0.61061 0.03967 0.73761 0.0
H919 H 0.57775 0.02626 0.72339 0.0
H920 H 0.48679 0.73846 0.19252 0.0
H921 H 0.48121 0.71632 0.1211 0.0
H922 H 0.52793 0.69021 0.17645 0.0
H923 H 0.53378 0.7124 0.24698 0.0
H924 H 0.52545 0.70084 0.05973 0.0
H925 H 0.46066 0.65501 0.15279 0.0
H926 H 0.4625 0.68158 0.1425 0.0
H927 H 0.47721 0.67094 0.19072 0.0
C928 C 0.49593 0.72809 0.18912 0.0
C929 C 0.5106 0.72699 0.22566 0.0
C930 C 0.49267 0.71542 0.14858 0.0
C931 C 0.50408 0.70158 0.14399 0.0
C932 C 0.51896 0.70078 0.17956 0.0
H933 H 0.52138 0.60303 0.99778 0.0
H934 H 0.52327 0.63411 0.03708 0.0
C935 C 0.52217 0.71333 0.22009 0.0
C936 C 0.50042 0.68736 0.10332 0.0
H937 H 0.47223 0.64407 0.07739 0.0
C938 C 0.51367 0.68857 0.06297 0.0
C939 C 0.48498 0.67151 0.10758 0.0
C940 C 0.47051 0.66948 0.15079 0.0
C941 C 0.51225 0.67387 0.02788 0.0
C942 C 0.4974 0.65736 0.03426 0.0
C943 C 0.48362 0.65673 0.07272 0.0
C944 C 0.49689 0.63964 0.00555 0.0
C945 C 0.52683 0.67598 0.98497 0.0
C946 C 0.4813 0.63227 0.97536 0.0
C947 C 0.48014 0.6144 0.95293 0.0
C948 C 0.49453 0.60356 0.96063 0.0
C949 C 0.51024 0.6112 0.99018 0.0
C950 C 0.51136 0.629 0.01259 0.0
H951 H 0.53309 0.69185 0.97327 0.0
H952 H 0.53808 0.66831 1.00091 0.0
H953 H 0.52099 0.66926 0.9485 0.0
H954 H 0.46992 0.6402 0.96985 0.0
H955 H 0.46793 0.60898 0.92999 0.0
H956 H 0.81815 0.42787 0.99919 0.0
H957 H 0.84704 0.43605 0.94846 0.0
H958 H 0.83581 0.37802 0.89217 0.0
H959 H 0.80702 0.36947 0.94524 0.0
H960 H 0.87042 0.38662 0.92006 0.0
H961 H 0.85546 0.45196 0.79248 0.0
H962 H 0.85266 0.45544 0.86143 0.0
H963 H 0.83777 0.43522 0.83276 0.0
C964 C 0.82172 0.41696 0.97538 0.0
C965 C 0.81028 0.39816 0.97542 0.0
C966 C 0.83818 0.42168 0.94611 0.0
C967 C 0.84335 0.40789 0.91506 0.0
C968 C 0.83199 0.38898 0.9153 0.0
H969 H 0.9429 0.46457 0.73195 0.0
H970 H 0.91179 0.44484 0.74914 0.0
C971 C 0.8156 0.38411 0.9455 0.0
C972 C 0.86117 0.41309 0.88519 0.0
H973 H 0.88815 0.45166 0.80928 0.0
C974 C 0.8742 0.40065 0.89485 0.0
C975 C 0.86598 0.43103 0.85071 0.0
C976 C 0.8521 0.444 0.83328 0.0
C977 C 0.8923 0.40641 0.87433 0.0
C978 C 0.89773 0.42549 0.84537 0.0
C979 C 0.88426 0.4372 0.83239 0.0
C980 C 0.91739 0.43438 0.83177 0.0
C981 C 0.90534 0.39198 0.8843 0.0
C982 C 0.93114 0.43472 0.87181 0.0
C983 C 0.94908 0.44549 0.86138 0.0
C984 C 0.95339 0.45671 0.81139 0.0
C985 C 0.93985 0.45606 0.7709 0.0
C986 C 0.92208 0.4448 0.78077 0.0
H987 H 0.89766 0.3764 0.88512 0.0
H988 H 0.91629 0.39461 0.85301 0.0
H989 H 0.91197 0.39352 0.92425 0.0
H990 H 0.92784 0.42751 0.91208 0.0
H991 H 0.95923 0.44604 0.89348 0.0
H992 H 0.11875 0.23614 0.21213 0.0
H993 H 0.11325 0.20783 0.15989 0.0
H994 H 0.05556 0.21179 0.14441 0.0
H995 H 0.06108 0.24078 0.19487 0.0
H996 H 0.09036 0.17246 0.18983 0.0
H997 H 0.06888 0.20517 0.99112 0.0
H998 H 0.08015 0.22021 0.04135 0.0
H999 H 0.05583 0.20966 0.04679 0.0
C1000 C 0.10498 0.23144 0.1963 0.0
C1001 C 0.09038 0.2409 0.20755 0.0
C1002 C 0.10183 0.21508 0.16685 0.0
C1003 C 0.08404 0.20777 0.14784 0.0
C1004 C 0.06948 0.21738 0.15787 0.0
H1005 H 0.04538 0.08737 0.06683 0.0
H1006 H 0.05079 0.11849 0.10797 0.0
C1007 C 0.07263 0.23383 0.18725 0.0
C1008 C 0.08058 0.18926 0.12102 0.0
H1009 H 0.06473 0.16987 0.00517 0.0
C1010 C 0.08481 0.17192 0.14938 0.0
C1011 C 0.0735 0.18861 0.06808 0.0
C1012 C 0.06948 0.20694 0.03477 0.0
C1013 C 0.082 0.15391 0.1265 0.0
C1014 C 0.07442 0.15311 0.07417 0.0
C1015 C 0.07039 0.17049 0.04548 0.0
C1016 C 0.07077 0.13439 0.04841 0.0
C1017 C 0.08749 0.136 0.15826 0.0
C1018 C 0.07985 0.13313 1.00049 0.0
C1019 C 0.07678 0.11535 0.97683 0.0
C1020 C 0.06451 0.09849 1.00057 0.0
C1021 C 0.05521 0.09993 0.04812 0.0
C1022 C 0.05826 0.11772 0.07165 0.0
H1023 H 0.09741 0.14029 0.19095 0.0
H1024 H 0.07496 0.12623 0.17703 0.0
H1025 H 0.09388 0.12728 0.13178 0.0
H1026 H 0.08955 0.14584 0.98184 0.0
H1027 H 0.08427 0.11471 0.94044 0.0
H1028 H 0.30481 0.02928 0.28885 0.0
H1029 H 0.32336 0.03092 0.20737 0.0
H1030 H 0.37113 0.06211 0.28608 0.0
H1031 H 0.35267 0.06109 0.36656 0.0
H1032 H 0.3671 0.07811 0.18055 0.0
H1033 H 0.36228 0.99615 0.19612 0.0
H1034 H 0.34059 0.00456 0.19328 0.0
H1035 H 0.35553 0.00842 0.25039 0.0
C1036 C 0.31921 0.0367 0.28845 0.0
C1037 C 0.32734 0.04481 0.33441 0.0
C1038 C 0.32982 0.03746 0.2421 0.0
C1039 C 0.34871 0.04633 0.24106 0.0
C1040 C 0.35662 0.05508 0.28614 0.0
H1041 H 0.44202 0.03168 0.06344 0.0
H1042 H 0.41748 0.03167 0.12778 0.0
C1043 C 0.34608 0.05433 0.33227 0.0
C1044 C 0.36057 0.04615 0.19395 0.0
H1045 H 0.37992 0.01533 0.12457 0.0
C1046 C 0.36978 0.06439 0.16786 0.0
C1047 C 0.36419 0.02822 0.17804 0.0
C1048 C 0.35528 0.0082 0.20605 0.0
C1049 C 0.38281 0.06522 0.12701 0.0
C1050 C 0.38648 0.04729 0.11126 0.0
C1051 C 0.37699 0.02904 0.13656 0.0
C1052 C 0.40104 0.04711 0.07123 0.0
C1053 C 0.3931 0.08526 0.10273 0.0
C1054 C 0.39985 0.05563 0.01788 0.0
C1055 C 0.41389 0.05567 0.98094 0.0
C1056 C 0.42928 0.04702 0.99659 0.0
C1057 C 0.43027 0.03828 0.04991 0.0
C1058 C 0.41628 0.03831 0.08678 0.0
H1059 H 0.39161 0.0973 0.12734 0.0
H1060 H 0.40807 0.08516 0.09843 0.0
H1061 H 0.38746 0.08881 0.06207 0.0
H1062 H 0.38803 0.06216 0.00474 0.0
H1063 H 0.41258 0.06224 0.93995 0.0
H1064 H 0.48647 0.29176 0.10961 0.0
H1065 H 0.49393 0.32363 0.05415 0.0
H1066 H 0.4421 0.31006 0.9698 0.0
H1067 H 0.43372 0.27902 0.0282 0.0
H1068 H 0.49906 0.33607 0.95249 0.0
H1069 H 0.43703 0.36156 0.01838 0.0
H1070 H 0.44356 0.33892 0.04845 0.0
H1071 H 0.43119 0.33941 0.98551 0.0
C1072 C 0.4765 0.29558 0.07977 0.0
C1073 C 0.45926 0.28283 0.07459 0.0
C1074 C 0.48091 0.31378 0.04755 0.0
C1075 C 0.46834 0.31959 0.00881 0.0
C1076 C 0.45177 0.30627 1.00065 0.0
H1077 H 0.50291 0.42741 0.78223 0.0
H1078 H 0.49361 0.39269 0.82064 0.0
C1079 C 0.44715 0.28825 0.03359 0.0
C1080 C 0.47236 0.33981 0.97852 0.0
H1081 H 0.45512 0.38238 0.94971 0.0
C1082 C 0.48946 0.34621 0.95189 0.0
C1083 C 0.45997 0.3532 0.97843 0.0
C1084 C 0.44201 0.34802 0.00968 0.0
C1085 C 0.49458 0.3656 0.92572 0.0
C1086 C 0.48193 0.37878 0.92425 0.0
C1087 C 0.46475 0.37227 0.95031 0.0
C1088 C 0.4866 0.39975 0.89901 0.0
C1089 C 0.5138 0.37195 0.90202 0.0
C1090 C 0.48482 0.41533 0.92903 0.0
C1091 C 0.48961 0.43512 0.90657 0.0
C1092 C 0.49654 0.43976 0.85386 0.0
C1093 C 0.49791 0.42422 0.82328 0.0
C1094 C 0.49272 0.40438 0.84538 0.0
H1095 H 0.52336 0.36237 0.92014 0.0
H1096 H 0.51311 0.37066 0.85817 0.0
H1097 H 0.51977 0.38761 0.90804 0.0
H1098 H 0.48006 0.4122 0.97037 0.0
H1099 H 0.4885 0.4468 0.93116 0.0
H1100 H 0.2036 0.54408 0.31681 0.0
H1101 H 0.18266 0.54115 0.23994 0.0
H1102 H 0.22098 0.51471 0.15771 0.0
H1103 H 0.24225 0.51782 0.23439 0.0
H1104 H 0.18664 0.55377 0.12484 0.0
H1105 H 0.17279 0.47156 0.17654 0.0
H1106 H 0.18426 0.48839 0.22239 0.0
H1107 H 0.19662 0.48348 0.16583 0.0
C1108 C 0.20789 0.53817 0.28183 0.0
C1109 C 0.22456 0.53102 0.282 0.0
C1110 C 0.19583 0.53642 0.238 0.0
C1111 C 0.20016 0.52743 0.19362 0.0
C1112 C 0.21728 0.5214 0.19206 0.0
H1113 H 0.12238 0.48073 0.94821 0.0
H1114 H 0.15113 0.49119 0.99735 0.0
C1115 C 0.22938 0.52316 0.2359 0.0
C1116 C 0.18601 0.52287 0.15153 0.0
H1117 H 0.15597 0.4843 0.10483 0.0
C1118 C 0.18003 0.53859 0.11999 0.0
C1119 C 0.17744 0.50304 0.14541 0.0
C1120 C 0.18295 0.48559 0.17949 0.0
C1121 C 0.16551 0.53501 0.0828 0.0
C1122 C 0.15651 0.51519 0.07804 0.0
C1123 C 0.1629 0.49947 0.10846 0.0
C1124 C 0.13968 0.51036 0.04466 0.0
C1125 C 0.15996 0.55247 0.04902 0.0
C1126 C 0.12369 0.51761 0.05501 0.0
C1127 C 0.10728 0.51165 0.02711 0.0
C1128 C 0.10645 0.49811 0.98869 0.0
C1129 C 0.12254 0.49103 0.97793 0.0
C1130 C 0.13899 0.49708 0.00572 0.0
H1131 H 0.17163 0.56544 0.04429 0.0
H1132 H 0.1552 0.54858 0.00848 0.0
H1133 H 0.14844 0.55704 0.06924 0.0
H1134 H 0.12372 0.5274 0.08596 0.0
H1135 H 0.09506 0.51712 0.03699 0.0
H1136 H 0.94784 0.78798 0.33834 0.0
H1137 H 0.94218 0.81521 0.38603 0.0
H1138 H 0.94298 0.77868 0.53744 0.0
H1139 H 0.94845 0.75115 0.48996 0.0
H1140 H 0.9151 0.81971 0.46432 0.0
H1141 H 0.98677 0.82636 0.54573 0.0
H1142 H 0.97882 0.8119 0.49106 0.0
H1143 H 0.97203 0.80232 0.55898 0.0
C1144 C 0.94625 0.78545 0.38166 0.0
C1145 C 0.94876 0.76738 0.41034 0.0
C1146 C 0.94311 0.80112 0.40888 0.0
C1147 C 0.94249 0.79907 0.46525 0.0
C1148 C 0.94373 0.78066 0.4939 0.0
H1149 H 0.95341 0.89097 0.68247 0.0
H1150 H 0.94814 0.85894 0.64578 0.0
C1151 C 0.94687 0.76495 0.46672 0.0
C1152 C 0.94223 0.81672 0.4938 0.0
H1153 H 0.96921 0.84895 0.5704 0.0
C1154 C 0.92685 0.82607 0.48784 0.0
C1155 C 0.95764 0.825 0.52422 0.0
C1156 C 0.97484 0.81603 0.53022 0.0
C1157 C 0.92646 0.84349 0.51173 0.0
C1158 C 0.94203 0.85197 0.54133 0.0
C1159 C 0.95726 0.84241 0.54788 0.0
C1160 C 0.94326 0.87113 0.56432 0.0
C1161 C 0.90933 0.85253 0.50541 0.0
C1162 C 0.9422 0.88865 0.53082 0.0
C1163 C 0.94519 0.90698 0.55172 0.0
C1164 C 0.94956 0.90818 0.60642 0.0
C1165 C 0.95027 0.89056 0.64006 0.0
C1166 C 0.94717 0.87224 0.6192 0.0
H1167 H 0.89692 0.84132 0.49674 0.0
H1168 H 0.90663 0.85919 0.54216 0.0
H1169 H 0.91131 0.86444 0.47111 0.0
H1170 H 0.9397 0.88826 0.48809 0.0
H1171 H 0.94482 0.92031 0.5246 0.0
H1172 H 0.73808 0.02992 0.38356 0.0
H1173 H 0.716 0.01318 0.45393 0.0
H1174 H 0.67915 0.98757 0.33316 0.0
H1175 H 0.70135 0.00363 0.26306 0.0
H1176 H 0.68124 0.0206 0.46119 0.0
H1177 H 0.67673 0.94038 0.44628 0.0
H1178 H 0.6954 0.95914 0.41625 0.0
H1179 H 0.67342 0.954 0.38252 0.0
C1180 C 0.72552 0.02026 0.37218 0.0
C1181 C 0.72142 0.01819 0.31771 0.0
C1182 C 0.71287 0.01079 0.41239 0.0
C1183 C 0.69601 0.99894 0.3989 0.0
C1184 C 0.69222 0.99628 0.34473 0.0
H1185 H 0.58836 0.95519 0.53774 0.0
H1186 H 0.61641 0.96278 0.48228 0.0
C1187 C 0.70483 0.0057 0.3046 0.0
C1188 C 0.68149 0.99121 0.44036 0.0
H1189 H 0.65148 0.9493 0.4915 0.0
C1190 C 0.67495 0.00496 0.46851 0.0
C1191 C 0.6732 0.97082 0.44955 0.0
C1192 C 0.68017 0.95521 0.42242 0.0
C1193 C 0.65989 0.99903 0.50401 0.0
C1194 C 0.65132 0.97872 0.51222 0.0
C1195 C 0.65808 0.96486 0.48502 0.0
C1196 C 0.63482 0.97186 0.54729 0.0
C1197 C 0.65279 0.01467 0.53076 0.0
C1198 C 0.63601 0.97383 0.60251 0.0
C1199 C 0.62003 0.96948 0.63428 0.0
C1200 C 0.60258 0.96299 0.61144 0.0
C1201 C 0.60159 0.96003 0.55664 0.0
C1202 C 0.61759 0.96442 0.52486 0.0
H1203 H 0.65839 0.02993 0.51157 0.0
H1204 H 0.63742 0.01214 0.52935 0.0
H1205 H 0.65707 0.01382 0.57364 0.0
H1206 H 0.64924 0.97921 0.62075 0.0
H1207 H 0.6213 0.97155 0.67659 0.0
H1208 H 0.56852 0.70761 0.4688 0.0
H1209 H 0.57041 0.67497 0.51542 0.0
H1210 H 0.566 0.69694 0.66819 0.0
H1211 H 0.56455 0.7299 0.62206 0.0
H1212 H 0.5947 0.66294 0.62816 0.0
H1213 H 0.51745 0.64987 0.62595 0.0
H1214 H 0.53101 0.66624 0.57373 0.0
H1215 H 0.5305 0.67371 0.63988 0.0
C1216 C 0.56865 0.70579 0.51237 0.0
C1217 C 0.56626 0.7214 0.54166 0.0
C1218 C 0.56966 0.68706 0.5389 0.0
C1219 C 0.56829 0.68361 0.59508 0.0
C1220 C 0.56711 0.6994 0.62473 0.0
H1221 H 0.53101 0.57417 0.79917 0.0
H1222 H 0.54058 0.60883 0.76255 0.0
C1223 C 0.56616 0.71816 0.59827 0.0
C1224 C 0.56551 0.66304 0.62198 0.0
H1225 H 0.5313 0.62385 0.66493 0.0
C1226 C 0.58089 0.65433 0.63643 0.0
C1227 C 0.54746 0.65198 0.63257 0.0
C1228 C 0.53056 0.66077 0.61728 0.0
C1229 C 0.57862 0.63472 0.66185 0.0
C1230 C 0.56049 0.62355 0.67193 0.0
C1231 C 0.54518 0.6324 0.65735 0.0
C1232 C 0.55683 0.60265 0.69761 0.0
C1233 C 0.5956 0.62632 0.67858 0.0
C1234 C 0.563 0.58758 0.67384 0.0
C1235 C 0.55766 0.56763 0.69511 0.0
C1236 C 0.54582 0.56241 0.74003 0.0
C1237 C 0.54008 0.57761 0.76447 0.0
C1238 C 0.54556 0.59748 0.74357 0.0
H1239 H 0.60792 0.63829 0.68214 0.0
H1240 H 0.59336 0.6168 0.71765 0.0
H1241 H 0.59869 0.61707 0.64768 0.0
H1242 H 0.57135 0.59112 0.63763 0.0
H1243 H 0.56221 0.55628 0.67508 0.0
H1244 H 0.79178 0.39903 0.36454 0.0
H1245 H 0.81274 0.41428 0.43178 0.0
H1246 H 0.81381 0.47214 0.34455 0.0
H1247 H 0.79222 0.45714 0.27858 0.0
H1248 H 0.8476 0.43435 0.41203 0.0
H1249 H 0.80721 0.48361 0.49676 0.0
H1250 H 0.79669 0.46417 0.45691 0.0
H1251 H 0.80862 0.48773 0.42473 0.0
C1252 C 0.79606 0.41506 0.36044 0.0
C1253 C 0.79032 0.42685 0.31606 0.0
C1254 C 0.80815 0.42374 0.39873 0.0
C1255 C 0.81469 0.44438 0.39358 0.0
C1256 C 0.80866 0.45624 0.35005 0.0
H1257 H 0.90513 0.52403 0.52467 0.0
H1258 H 0.87802 0.50852 0.47556 0.0
C1259 C 0.79651 0.44759 0.3119 0.0
C1260 C 0.82907 0.45328 0.43085 0.0
H1261 H 0.83992 0.48991 0.51397 0.0
C1262 C 0.84581 0.44632 0.43486 0.0
C1263 C 0.82676 0.46897 0.46045 0.0
C1264 C 0.80878 0.47643 0.45997 0.0
C1265 C 0.8605 0.45496 0.4664 0.0
C1266 C 0.85831 0.47088 0.4951 0.0
C1267 C 0.84152 0.47773 0.49173 0.0
C1268 C 0.87356 0.48082 0.52781 0.0
C1269 C 0.87846 0.44741 0.4676 0.0
C1270 C 0.87966 0.47052 0.57419 0.0
C1271 C 0.89504 0.47936 0.60251 0.0
C1272 C 0.90462 0.49868 0.58492 0.0
C1273 C 0.898 0.50921 0.53954 0.0
C1274 C 0.88257 0.50036 0.51131 0.0
H1275 H 0.87909 0.43768 0.43545 0.0
H1276 H 0.89047 0.46 0.46294 0.0
H1277 H 0.87982 0.43866 0.50704 0.0
H1278 H 0.87269 0.45552 0.58796 0.0
H1279 H 0.89954 0.47099 0.63794 0.0
loop_
_geom_bond_atom_site_label_1
_geom_bond_atom_site_label_2
_geom_bond_distance
_geom_bond_site_symmetry_2
_ccdc_geom_bond_type
P0 O11 1.490 . S
P0 C14 1.812 . S
P0 C20 1.803 . S
P0 C26 1.819 . S
H1 C15 0.941 . S
H2 C16 0.939 . S
H3 C18 0.940 . S
H4 C19 0.940 . S
H5 C21 0.939 . S
H6 C22 0.942 1_556 S
H7 C24 0.940 . S
H8 C25 0.939 . S
H9 C27 0.941 . S
H10 C31 0.939 . S
O11 P0 1.490 . S
H12 C28 0.939 . S
H13 C30 0.940 . S
C14 P0 1.812 . S
C14 C15 1.389 . S
C14 C19 1.391 . S
C15 H1 0.941 . S
C15 C14 1.389 . S
C15 C16 1.397 . S
C16 H2 0.939 . S
C16 C15 1.397 . S
C16 C17 1.378 . S
C17 C16 1.378 . S
C17 C18 1.378 . S
C18 H3 0.940 . S
C18 C17 1.378 . S
C18 C19 1.396 . S
C19 H4 0.940 . S
C19 C14 1.391 . S
C19 C18 1.396 . S
C20 P0 1.803 . S
C20 C21 1.378 . S
C20 C25 1.400 . S
C21 H5 0.939 . S
C21 C20 1.378 . S
C21 C22 1.361 . S
C22 H6 0.942 1_554 S
C22 C21 1.361 . S
C22 C23 1.369 . S
C23 C22 1.369 . S
C23 C24 1.404 . S
C24 H7 0.940 . S
C24 C23 1.404 . S
C24 C25 1.389 . S
C25 H8 0.939 . S
C25 C20 1.400 . S
C25 C24 1.389 . S
C26 P0 1.819 . S
C26 C27 1.391 . S
C26 C31 1.391 1_554 S
C27 H9 0.941 . S
C27 C26 1.391 . S
C27 C28 1.396 1_554 S
C28 H12 0.939 . S
C28 C27 1.396 1_556 S
C28 C29 1.397 . S
C29 C28 1.397 . S
C29 C30 1.385 . S
C30 H13 0.940 . S
C30 C29 1.385 . S
C30 C31 1.388 . S
C31 H10 0.939 . S
C31 C26 1.391 1_556 S
C31 C30 1.388 . S
P32 O43 1.490 . S
P32 C46 1.812 . S
P32 C52 1.803 . S
P32 C58 1.819 . S
H33 C47 0.941 . S
H34 C48 0.939 . S
H35 C50 0.940 . S
H36 C51 0.940 . S
H37 C53 0.939 . S
H38 C54 0.942 1_556 S
H39 C56 0.940 . S
H40 C57 0.939 . S
H41 C59 0.941 . S
H42 C63 0.939 . S
O43 P32 1.490 . S
H44 C60 0.939 . S
H45 C62 0.940 . S
C46 P32 1.812 . S
C46 C47 1.389 . S
C46 C51 1.391 . S
C47 H33 0.941 . S
C47 C46 1.389 . S
C47 C48 1.397 . S
C48 H34 0.939 . S
C48 C47 1.397 . S
C48 C49 1.378 . S
C49 C48 1.378 . S
C49 C50 1.378 . S
C50 H35 0.940 . S
C50 C49 1.378 . S
C50 C51 1.396 . S
C51 H36 0.940 . S
C51 C46 1.391 . S
C51 C50 1.396 . S
C52 P32 1.803 . S
C52 C53 1.378 . S
C52 C57 1.400 . S
C53 H37 0.939 . S
C53 C52 1.378 . S
C53 C54 1.361 . S
C54 H38 0.942 1_554 S
C54 C53 1.361 . S
C54 C55 1.369 . S
C55 C54 1.369 . S
C55 C56 1.404 . S
C56 H39 0.940 . S
C56 C55 1.404 . S
C56 C57 1.389 . S
C57 H40 0.939 . S
C57 C52 1.400 . S
C57 C56 1.389 . S
C58 P32 1.819 . S
C58 C59 1.391 . S
C58 C63 1.391 1_554 S
C59 H41 0.941 . S
C59 C58 1.391 . S
C59 C60 1.396 1_554 S
C60 H44 0.939 . S
C60 C59 1.396 1_556 S
C60 C61 1.397 . S
C61 C60 1.397 . S
C61 C62 1.385 . S
C62 H45 0.940 . S
C62 C61 1.385 . S
C62 C63 1.388 . S
C63 H42 0.939 . S
C63 C58 1.391 1_556 S
C63 C62 1.388 . S
P64 O75 1.490 . S
P64 C78 1.812 1_556 S
P64 C84 1.803 . S
P64 C90 1.819 . S
H65 C79 0.941 . S
H66 C80 0.939 . S
H67 C82 0.940 . S
H68 C83 0.952 . S
H69 C85 0.939 . S
H70 C86 0.942 . S
H71 C88 0.940 1_554 S
H72 C89 0.953 . S
H73 C91 0.941 . S
H74 C95 0.923 1_565 S
O75 P64 1.490 . S
H76 C92 0.939 . S
H77 C94 0.940 . S
C78 P64 1.812 1_554 S
C78 C79 1.389 . S
C78 C83 1.377 1_545 S
C79 H65 0.941 . S
C79 C78 1.389 . S
C79 C80 1.397 . S
C80 H66 0.939 . S
C80 C79 1.397 . S
C80 C81 1.378 . S
C81 C80 1.378 . S
C81 C82 1.378 1_545 S
C82 H67 0.940 . S
C82 C81 1.378 1_565 S
C82 C83 1.399 . S
C83 H68 0.952 . S
C83 C78 1.377 1_565 S
C83 C82 1.399 . S
C84 P64 1.803 . S
C84 C85 1.378 . S
C84 C89 1.367 1_546 S
C85 H69 0.939 . S
C85 C84 1.378 . S
C85 C86 1.361 . S
C86 H70 0.942 . S
C86 C85 1.361 . S
C86 C87 1.369 . S
C87 C86 1.369 . S
C87 C88 1.404 1_545 S
C88 H71 0.940 1_556 S
C88 C87 1.404 1_565 S
C88 C89 1.409 1_556 S
C89 H72 0.953 . S
C89 C84 1.367 1_564 S
C89 C88 1.409 1_554 S
C90 P64 1.819 . S
C90 C91 1.391 . S
C90 C95 1.391 . S
C91 H73 0.941 . S
C91 C90 1.391 . S
C91 C92 1.396 . S
C92 H76 0.939 . S
C92 C91 1.396 . S
C92 C93 1.397 . S
C93 C92 1.397 . S
C93 C94 1.385 1_545 S
C94 H77 0.940 . S
C94 C93 1.385 1_565 S
C94 C95 1.388 1_565 S
C95 H74 0.923 1_545 S
C95 C90 1.391 . S
C95 C94 1.388 1_545 S
P96 O107 1.490 . S
P96 C110 1.812 . S
P96 C116 1.803 . S
P96 C122 1.819 . S
H97 C111 0.941 . S
H98 C112 0.939 . S
H99 C114 0.940 . S
H100 C115 0.940 . S
H101 C117 0.939 . S
H102 C118 0.942 . S
H103 C120 0.940 . S
H104 C121 0.939 . S
H105 C123 0.941 . S
H106 C127 0.939 . S
O107 P96 1.490 . S
H108 C124 0.939 . S
H109 C126 0.940 . S
C110 P96 1.812 . S
C110 C111 1.389 . S
C110 C115 1.391 . S
C111 H97 0.941 . S
C111 C110 1.389 . S
C111 C112 1.397 . S
C112 H98 0.939 . S
C112 C111 1.397 . S
C112 C113 1.378 . S
C113 C112 1.378 . S
C113 C114 1.378 . S
C114 H99 0.940 . S
C114 C113 1.378 . S
C114 C115 1.396 . S
C115 H100 0.940 . S
C115 C110 1.391 . S
C115 C114 1.396 . S
C116 P96 1.803 . S
C116 C117 1.378 . S
C116 C121 1.400 . S
C117 H101 0.939 . S
C117 C116 1.378 . S
C117 C118 1.361 . S
C118 H102 0.942 . S
C118 C117 1.361 . S
C118 C119 1.369 . S
C119 C118 1.369 . S
C119 C120 1.404 . S
C120 H103 0.940 . S
C120 C119 1.404 . S
C120 C121 1.389 . S
C121 H104 0.939 . S
C121 C116 1.400 . S
C121 C120 1.389 . S
C122 P96 1.819 . S
C122 C123 1.391 . S
C122 C127 1.391 . S
C123 H105 0.941 . S
C123 C122 1.391 . S
C123 C124 1.396 . S
C124 H108 0.939 . S
C124 C123 1.396 . S
C124 C125 1.397 . S
C125 C124 1.397 . S
C125 C126 1.385 . S
C126 H109 0.940 . S
C126 C125 1.385 . S
C126 C127 1.388 . S
C127 H106 0.939 . S
C127 C122 1.391 . S
C127 C126 1.388 . S
P128 O139 1.490 . S
P128 C142 1.812 . S
P128 C148 1.803 . S
P128 C154 1.819 . S
H129 C143 0.941 . S
H130 C144 0.939 . S
H131 C146 0.940 . S
H132 C147 0.940 . S
H133 C149 0.939 . S
H134 C150 0.942 . S
H135 C152 0.940 . S
H136 C153 0.939 . S
H137 C155 0.941 . S
H138 C159 0.939 . S
O139 P128 1.490 . S
H140 C156 0.939 . S
H141 C158 0.940 . S
C142 P128 1.812 . S
C142 C143 1.389 . S
C142 C147 1.391 . S
C143 H129 0.941 . S
C143 C142 1.389 . S
C143 C144 1.397 . S
C144 H130 0.939 . S
C144 C143 1.397 . S
C144 C145 1.378 . S
C145 C144 1.378 . S
C145 C146 1.378 . S
C146 H131 0.940 . S
C146 C145 1.378 . S
C146 C147 1.396 . S
C147 H132 0.940 . S
C147 C142 1.391 . S
C147 C146 1.396 . S
C148 P128 1.803 . S
C148 C149 1.378 . S
C148 C153 1.400 . S
C149 H133 0.939 . S
C149 C148 1.378 . S
C149 C150 1.361 . S
C150 H134 0.942 . S
C150 C149 1.361 . S
C150 C151 1.369 . S
C151 C150 1.369 . S
C151 C152 1.404 . S
C152 H135 0.940 . S
C152 C151 1.404 . S
C152 C153 1.389 . S
C153 H136 0.939 . S
C153 C148 1.400 . S
C153 C152 1.389 . S
C154 P128 1.819 . S
C154 C155 1.391 . S
C154 C159 1.391 . S
C155 H137 0.941 . S
C155 C154 1.391 . S
C155 C156 1.396 . S
C156 H140 0.939 . S
C156 C155 1.396 . S
C156 C157 1.397 . S
C157 C156 1.397 . S
C157 C158 1.385 . S
C158 H141 0.940 . S
C158 C157 1.385 . S
C158 C159 1.388 . S
C159 H138 0.939 . S
C159 C154 1.391 . S
C159 C158 1.388 . S
P160 O171 1.490 . S
P160 C174 1.812 . S
P160 C180 1.803 . S
P160 C186 1.819 . S
H161 C175 0.941 . S
H162 C176 0.939 . S
H163 C178 0.940 . S
H164 C179 0.940 . S
H165 C181 0.939 . S
H166 C182 0.942 . S
H167 C184 0.940 . S
H168 C185 0.939 . S
H169 C187 0.941 . S
H170 C191 0.939 . S
O171 P160 1.490 . S
H172 C188 0.939 . S
H173 C190 0.940 . S
C174 P160 1.812 . S
C174 C175 1.389 . S
C174 C179 1.391 . S
C175 H161 0.941 . S
C175 C174 1.389 . S
C175 C176 1.397 . S
C176 H162 0.939 . S
C176 C175 1.397 . S
C176 C177 1.378 . S
C177 C176 1.378 . S
C177 C178 1.378 . S
C178 H163 0.940 . S
C178 C177 1.378 . S
C178 C179 1.396 . S
C179 H164 0.940 . S
C179 C174 1.391 . S
C179 C178 1.396 . S
C180 P160 1.803 . S
C180 C181 1.378 . S
C180 C185 1.400 . S
C181 H165 0.939 . S
C181 C180 1.378 . S
C181 C182 1.361 . S
C182 H166 0.942 . S
C182 C181 1.361 . S
C182 C183 1.369 . S
C183 C182 1.369 . S
C183 C184 1.404 . S
C184 H167 0.940 . S
C184 C183 1.404 . S
C184 C185 1.389 . S
C185 H168 0.939 . S
C185 C180 1.400 . S
C185 C184 1.389 . S
C186 P160 1.819 . S
C186 C187 1.391 . S
C186 C191 1.391 . S
C187 H169 0.941 . S
C187 C186 1.391 . S
C187 C188 1.396 . S
C188 H172 0.939 . S
C188 C187 1.396 . S
C188 C189 1.397 . S
C189 C188 1.397 . S
C189 C190 1.385 . S
C190 H173 0.940 . S
C190 C189 1.385 . S
C190 C191 1.388 . S
C191 H170 0.939 . S
C191 C186 1.391 . S
C191 C190 1.388 . S
P192 O203 1.490 . S
P192 C206 1.812 . S
P192 C212 1.803 . S
P192 C218 1.819 . S
H193 C207 0.941 . S
H194 C208 0.939 . S
H195 C210 0.940 . S
H196 C211 0.942 . S
H197 C213 0.939 . S
H198 C214 0.942 . S
H199 C216 0.940 . S
H200 C217 0.955 . S
H201 C219 0.941 . S
H202 C223 0.937 1_565 S
O203 P192 1.490 . S
H204 C220 0.939 . S
H205 C222 0.940 . S
C206 P192 1.812 . S
C206 C207 1.389 . S
C206 C211 1.387 1_545 S
C207 H193 0.941 . S
C207 C206 1.389 . S
C207 C208 1.397 . S
C208 H194 0.939 . S
C208 C207 1.397 . S
C208 C209 1.378 . S
C209 C208 1.378 . S
C209 C210 1.378 1_545 S
C210 H195 0.940 . S
C210 C209 1.378 1_565 S
C210 C211 1.399 . S
C211 H196 0.942 . S
C211 C206 1.387 1_565 S
C211 C210 1.399 . S
C212 P192 1.803 . S
C212 C213 1.378 . S
C212 C217 1.381 1_545 S
C213 H197 0.939 . S
C213 C212 1.378 . S
C213 C214 1.361 . S
C214 H198 0.942 . S
C214 C213 1.361 . S
C214 C215 1.369 . S
C215 C214 1.369 . S
C215 C216 1.404 1_545 S
C216 H199 0.940 . S
C216 C215 1.404 1_565 S
C216 C217 1.392 . S
C217 H200 0.955 . S
C217 C212 1.381 1_565 S
C217 C216 1.392 . S
C218 P192 1.819 . S
C218 C219 1.391 . S
C218 C223 1.391 . S
C219 H201 0.941 . S
C219 C218 1.391 . S
C219 C220 1.396 . S
C220 H204 0.939 . S
C220 C219 1.396 . S
C220 C221 1.397 . S
C221 C220 1.397 . S
C221 C222 1.385 1_545 S
C222 H205 0.940 . S
C222 C221 1.385 1_565 S
C222 C223 1.388 1_565 S
C223 H202 0.937 1_545 S
C223 C218 1.391 . S
C223 C222 1.388 1_545 S
P224 O235 1.490 . S
P224 C238 1.812 . S
P224 C244 1.803 . S
P224 C250 1.819 . S
H225 C239 0.941 . S
H226 C240 0.939 . S
H227 C242 0.940 . S
H228 C243 0.940 . S
H229 C245 0.939 . S
H230 C246 0.942 . S
H231 C248 0.940 . S
H232 C249 0.939 . S
H233 C251 0.941 . S
H234 C255 0.939 . S
O235 P224 1.490 . S
H236 C252 0.939 . S
H237 C254 0.940 . S
C238 P224 1.812 . S
C238 C239 1.389 . S
C238 C243 1.391 . S
C239 H225 0.941 . S
C239 C238 1.389 . S
C239 C240 1.397 . S
C240 H226 0.939 . S
C240 C239 1.397 . S
C240 C241 1.378 . S
C241 C240 1.378 . S
C241 C242 1.378 . S
C242 H227 0.940 . S
C242 C241 1.378 . S
C242 C243 1.396 . S
C243 H228 0.940 . S
C243 C238 1.391 . S
C243 C242 1.396 . S
C244 P224 1.803 . S
C244 C245 1.378 . S
C244 C249 1.400 . S
C245 H229 0.939 . S
C245 C244 1.378 . S
C245 C246 1.361 . S
C246 H230 0.942 . S
C246 C245 1.361 . S
C246 C247 1.369 . S
C247 C246 1.369 . S
C247 C248 1.404 . S
C248 H231 0.940 . S
C248 C247 1.404 . S
C248 C249 1.389 . S
C249 H232 0.939 . S
C249 C244 1.400 . S
C249 C248 1.389 . S
C250 P224 1.819 . S
C250 C251 1.391 . S
C250 C255 1.391 . S
C251 H233 0.941 . S
C251 C250 1.391 . S
C251 C252 1.396 . S
C252 H236 0.939 . S
C252 C251 1.396 . S
C252 C253 1.397 . S
C253 C252 1.397 . S
C253 C254 1.385 . S
C254 H237 0.940 . S
C254 C253 1.385 . S
C254 C255 1.388 . S
C255 H234 0.939 . S
C255 C250 1.391 . S
C255 C254 1.388 . S
Nd256 C258 2.836 1_455 S
Nd256 O276 2.500 1_455 S
Nd256 O277 2.492 . S
Nd256 O278 2.487 . S
Nd256 O279 2.682 1_565 S
Nd256 O280 2.410 . S
Nd256 O285 2.430 1_455 S
Nd256 O287 2.424 1_565 S
Nd257 C267 2.836 . S
Nd257 O279 2.414 . S
Nd257 O281 2.424 1_545 S
Nd257 O282 2.500 . S
Nd257 O283 2.492 . S
Nd257 O284 2.487 1_455 S
Nd257 O285 2.678 1_445 S
Nd257 O286 2.410 . S
C258 Nd256 2.836 1_655 S
C258 C259 1.498 . S
C258 O276 1.258 . S
C258 O277 1.239 1_655 S
C259 C258 1.498 . S
C259 C260 1.366 . S
C259 C264 1.407 . S
C260 C259 1.366 . S
C260 C261 1.392 . S
C260 H288 0.930 . S
C261 C260 1.392 . S
C261 C262 1.398 . S
C261 H289 0.929 . S
C262 C261 1.398 . S
C262 C263 1.352 . S
C263 C262 1.352 . S
C263 C264 1.384 . S
C263 H290 0.930 . S
C264 C259 1.407 . S
C264 C263 1.384 . S
C264 H291 0.929 1_655 S
C265 O278 1.241 . S
C265 O279 1.273 1_565 S
C266 O280 1.251 . S
C266 O281 1.268 . S
C267 Nd257 2.836 . S
C267 C268 1.498 . S
C267 O282 1.258 . S
C267 O283 1.239 . S
C268 C267 1.498 . S
C268 C269 1.366 . S
C268 C273 1.403 1_556 S
C269 C268 1.366 . S
C269 C270 1.392 . S
C269 H292 0.930 . S
C270 C269 1.392 . S
C270 C271 1.398 1_556 S
C270 H293 0.929 . S
C271 C270 1.398 1_554 S
C271 C272 1.352 . S
C272 C271 1.352 . S
C272 C273 1.387 . S
C272 H294 0.930 . S
C273 C268 1.403 1_554 S
C273 C272 1.387 . S
C273 H295 0.930 . S
C274 O284 1.241 . S
C274 O285 1.250 1_545 S
C275 O286 1.251 . S
C275 O287 1.268 . S
O276 Nd256 2.500 1_655 S
O276 C258 1.258 . S
O277 Nd256 2.492 . S
O277 C258 1.239 1_455 S
O278 Nd256 2.487 . S
O278 C265 1.241 . S
O279 Nd256 2.682 1_545 S
O279 Nd257 2.414 . S
O279 C265 1.273 1_545 S
O280 Nd256 2.410 . S
O280 C266 1.251 . S
O281 Nd257 2.424 1_565 S
O281 C266 1.268 . S
O282 Nd257 2.500 . S
O282 C267 1.258 . S
O283 Nd257 2.492 . S
O283 C267 1.239 . S
O284 Nd257 2.487 1_655 S
O284 C274 1.241 . S
O285 Nd256 2.430 1_655 S
O285 Nd257 2.678 1_665 S
O285 C274 1.250 1_565 S
O286 Nd257 2.410 . S
O286 C275 1.251 . S
O287 Nd256 2.424 1_545 S
O287 C275 1.268 . S
H288 C260 0.930 . S
H289 C261 0.929 . S
H290 C263 0.930 . S
H291 C264 0.929 1_455 S
H292 C269 0.930 . S
H293 C270 0.929 . S
H294 C272 0.930 . S
H295 C273 0.930 . S
Nd296 C298 2.836 . S
Nd296 O316 2.500 . S
Nd296 O317 2.492 1_565 S
Nd296 O318 2.487 1_565 S
Nd296 O319 2.682 1_565 S
Nd296 O320 2.410 1_565 S
Nd296 O325 2.414 . S
Nd296 O327 2.424 . S
Nd297 C307 2.836 . S
Nd297 O319 2.414 . S
Nd297 O321 2.424 . S
Nd297 O322 2.500 . S
Nd297 O323 2.492 1_545 S
Nd297 O324 2.487 1_545 S
Nd297 O325 2.682 1_545 S
Nd297 O326 2.410 1_545 S
C298 Nd296 2.836 . S
C298 C299 1.498 . S
C298 O316 1.258 . S
C298 O317 1.230 1_565 S
C299 C298 1.498 . S
C299 C300 1.366 . S
C299 C304 1.407 . S
C300 C299 1.366 . S
C300 C301 1.392 . S
C300 H328 0.930 . S
C301 C300 1.392 . S
C301 C302 1.398 . S
C301 H329 0.929 . S
C302 C301 1.398 . S
C302 C303 1.352 . S
C303 C302 1.352 . S
C303 C304 1.384 . S
C303 H330 0.929 . S
C304 C299 1.407 . S
C304 C303 1.384 . S
C304 H331 0.929 1_565 S
C305 O318 1.241 . S
C305 O319 1.273 . S
C306 O320 1.251 . S
C306 O321 1.268 . S
C307 Nd297 2.836 . S
C307 C308 1.498 . S
C307 O322 1.258 . S
C307 O323 1.241 1_545 S
C308 C307 1.498 . S
C308 C309 1.366 . S
C308 C313 1.407 1_556 S
C309 C308 1.366 . S
C309 C310 1.392 . S
C309 H332 0.930 . S
C310 C309 1.392 . S
C310 C311 1.398 1_556 S
C310 H333 0.929 . S
C311 C310 1.398 1_554 S
C311 C312 1.352 . S
C312 C311 1.352 . S
C312 C313 1.384 . S
C312 H334 0.934 . S
C313 C308 1.407 1_554 S
C313 C312 1.384 . S
C313 H335 0.929 1_545 S
C314 O324 1.241 . S
C314 O325 1.273 . S
C315 O326 1.251 . S
C315 O327 1.268 . S
O316 Nd296 2.500 . S
O316 C298 1.258 . S
O317 Nd296 2.492 1_545 S
O317 C298 1.230 1_545 S
O318 Nd296 2.487 1_545 S
O318 C305 1.241 . S
O319 Nd296 2.682 1_545 S
O319 Nd297 2.414 . S
O319 C305 1.273 . S
O320 Nd296 2.410 1_545 S
O320 C306 1.251 . S
O321 Nd297 2.424 . S
O321 C306 1.268 . S
O322 Nd297 2.500 . S
O322 C307 1.258 . S
O323 Nd297 2.492 1_565 S
O323 C307 1.241 1_565 S
O324 Nd297 2.487 1_565 S
O324 C314 1.241 . S
O325 Nd296 2.414 . S
O325 Nd297 2.682 1_565 S
O325 C314 1.273 . S
O326 Nd297 2.410 1_565 S
O326 C315 1.251 . S
O327 Nd296 2.424 . S
O327 C315 1.268 . S
H328 C300 0.930 . S
H329 C301 0.929 . S
H330 C303 0.929 . S
H331 C304 0.929 1_545 S
H332 C309 0.930 . S
H333 C310 0.929 . S
H334 C312 0.934 . S
H335 C313 0.929 1_565 S
Nd336 C338 2.836 . S
Nd336 O356 2.500 . S
Nd336 O357 2.492 . S
Nd336 O358 2.487 . S
Nd336 O359 2.682 . S
Nd336 O360 2.410 . S
Nd336 O365 2.414 . S
Nd336 O367 2.424 . S
Nd337 C347 2.836 . S
Nd337 O359 2.414 . S
Nd337 O361 2.424 . S
Nd337 O362 2.500 . S
Nd337 O363 2.492 . S
Nd337 O364 2.487 . S
Nd337 O365 2.682 . S
Nd337 O366 2.410 . S
C338 Nd336 2.836 . S
C338 C339 1.498 . S
C338 O356 1.258 . S
C338 O357 1.239 . S
C339 C338 1.498 . S
C339 C340 1.366 . S
C339 C344 1.407 . S
C340 C339 1.366 . S
C340 C341 1.392 . S
C340 H368 0.930 . S
C341 C340 1.392 . S
C341 C342 1.398 . S
C341 H369 0.929 . S
C342 C341 1.398 . S
C342 C343 1.352 . S
C343 C342 1.352 . S
C343 C344 1.384 . S
C343 H370 0.930 . S
C344 C339 1.407 . S
C344 C343 1.384 . S
C344 H371 0.929 . S
C345 O358 1.241 . S
C345 O359 1.273 . S
C346 O360 1.251 . S
C346 O361 1.268 . S
C347 Nd337 2.836 . S
C347 C348 1.498 . S
C347 O362 1.258 . S
C347 O363 1.239 . S
C348 C347 1.498 . S
C348 C349 1.366 . S
C348 C353 1.407 . S
C349 C348 1.366 . S
C349 C350 1.392 . S
C349 H372 0.930 . S
C350 C349 1.392 . S
C350 C351 1.398 . S
C350 H373 0.929 . S
C351 C350 1.398 . S
C351 C352 1.352 . S
C352 C351 1.352 . S
C352 C353 1.384 . S
C352 H374 0.930 . S
C353 C348 1.407 . S
C353 C352 1.384 . S
C353 H375 0.929 . S
C354 O364 1.241 . S
C354 O365 1.273 . S
C355 O366 1.251 . S
C355 O367 1.268 . S
O356 Nd336 2.500 . S
O356 C338 1.258 . S
O357 Nd336 2.492 . S
O357 C338 1.239 . S
O358 Nd336 2.487 . S
O358 C345 1.241 . S
O359 Nd336 2.682 . S
O359 Nd337 2.414 . S
O359 C345 1.273 . S
O360 Nd336 2.410 . S
O360 C346 1.251 . S
O361 Nd337 2.424 . S
O361 C346 1.268 . S
O362 Nd337 2.500 . S
O362 C347 1.258 . S
O363 Nd337 2.492 . S
O363 C347 1.239 . S
O364 Nd337 2.487 . S
O364 C354 1.241 . S
O365 Nd336 2.414 . S
O365 Nd337 2.682 . S
O365 C354 1.273 . S
O366 Nd337 2.410 . S
O366 C355 1.251 . S
O367 Nd336 2.424 . S
O367 C355 1.268 . S
H368 C340 0.930 . S
H369 C341 0.929 . S
H370 C343 0.930 . S
H371 C344 0.929 . S
H372 C349 0.930 . S
H373 C350 0.929 . S
H374 C352 0.930 . S
H375 C353 0.929 . S
Nd376 C378 2.836 1_455 S
Nd376 O396 2.500 1_455 S
Nd376 O397 2.492 1_455 S
Nd376 O398 2.487 . S
Nd376 O399 2.682 . S
Nd376 O400 2.410 1_455 S
Nd376 O405 2.414 . S
Nd376 O407 2.424 . S
Nd377 C387 2.836 . S
Nd377 O399 2.414 . S
Nd377 O401 2.424 1_455 S
Nd377 O402 2.500 . S
Nd377 O403 2.492 . S
Nd377 O404 2.487 . S
Nd377 O405 2.682 . S
Nd377 O406 2.410 . S
C378 Nd376 2.836 1_655 S
C378 C379 1.498 . S
C378 O396 1.258 . S
C378 O397 1.239 . S
C379 C378 1.498 . S
C379 C380 1.366 . S
C379 C384 1.407 . S
C380 C379 1.366 . S
C380 C381 1.392 . S
C380 H408 0.930 . S
C381 C380 1.392 . S
C381 C382 1.398 . S
C381 H409 0.929 . S
C382 C381 1.398 . S
C382 C383 1.352 . S
C383 C382 1.352 . S
C383 C384 1.384 . S
C383 H410 0.930 . S
C384 C379 1.407 . S
C384 C383 1.384 . S
C384 H411 0.929 . S
C385 O398 1.241 . S
C385 O399 1.273 . S
C386 O400 1.251 . S
C386 O401 1.268 . S
C387 Nd377 2.836 . S
C387 C388 1.498 . S
C387 O402 1.258 . S
C387 O403 1.239 . S
C388 C387 1.498 . S
C388 C389 1.366 . S
C388 C393 1.407 1_556 S
C389 C388 1.366 . S
C389 C390 1.392 . S
C389 H412 0.930 . S
C390 C389 1.392 . S
C390 C391 1.398 1_556 S
C390 H413 0.929 . S
C391 C390 1.398 1_554 S
C391 C392 1.352 . S
C392 C391 1.352 . S
C392 C393 1.384 . S
C392 H414 0.930 . S
C393 C388 1.407 1_554 S
C393 C392 1.384 . S
C393 H415 0.929 . S
C394 O404 1.241 . S
C394 O405 1.273 . S
C395 O406 1.251 . S
C395 O407 1.268 . S
O396 Nd376 2.500 1_655 S
O396 C378 1.258 . S
O397 Nd376 2.492 1_655 S
O397 C378 1.239 . S
O398 Nd376 2.487 . S
O398 C385 1.241 . S
O399 Nd376 2.682 . S
O399 Nd377 2.414 . S
O399 C385 1.273 . S
O400 Nd376 2.410 1_655 S
O400 C386 1.251 . S
O401 Nd377 2.424 1_655 S
O401 C386 1.268 . S
O402 Nd377 2.500 . S
O402 C387 1.258 . S
O403 Nd377 2.492 . S
O403 C387 1.239 . S
O404 Nd377 2.487 . S
O404 C394 1.241 . S
O405 Nd376 2.414 . S
O405 Nd377 2.682 . S
O405 C394 1.273 . S
O406 Nd377 2.410 . S
O406 C395 1.251 . S
O407 Nd376 2.424 . S
O407 C395 1.268 . S
H408 C380 0.930 . S
H409 C381 0.929 . S
H410 C383 0.930 . S
H411 C384 0.929 . S
H412 C389 0.930 . S
H413 C390 0.929 . S
H414 C392 0.930 . S
H415 C393 0.929 . S
H416 C424 0.929 . S
H417 C426 0.930 . S
H418 C428 0.930 . S
H419 C431 0.929 . S
H420 C434 0.930 . S
H421 C436 0.960 . S
H422 C436 0.960 1_545 S
H423 C436 0.960 . S
C424 H416 0.929 . S
C424 C425 1.391 . S
C424 C426 1.384 . S
C425 C424 1.391 . S
C425 C431 1.379 1_545 S
C426 H417 0.930 . S
C426 C424 1.384 . S
C426 C427 1.386 . S
C427 C426 1.386 . S
C427 C428 1.382 1_545 S
C427 C432 1.494 . S
C428 H418 0.930 . S
C428 C427 1.382 1_565 S
C428 C431 1.386 . S
H429 C445 0.930 . S
H430 C446 0.931 . S
C431 H419 0.929 . S
C431 C425 1.379 1_565 S
C431 C428 1.386 . S
C432 C427 1.494 . S
C432 C434 1.395 . S
C432 C435 1.403 1_545 S
H433 C439 0.930 . S
C434 H420 0.930 . S
C434 C432 1.395 . S
C434 C437 1.403 . S
C435 C432 1.403 1_565 S
C435 C436 1.524 . S
C435 C439 1.400 . S
C436 H421 0.960 . S
C436 H422 0.960 1_565 S
C436 H423 0.960 . S
C436 C435 1.524 . S
C437 C434 1.403 . S
C437 C438 1.392 1_545 S
C437 C441 1.495 . S
C438 C437 1.392 1_565 S
C438 C439 1.391 . S
C438 C440 1.473 . S
C439 H433 0.930 . S
C439 C435 1.400 . S
C439 C438 1.391 . S
C440 C438 1.473 . S
C440 C442 1.381 1_565 S
C440 C446 1.383 . S
C441 C437 1.495 . S
C441 H447 0.959 . S
C441 H448 0.961 1_545 S
C441 H449 0.960 . S
C442 C440 1.381 1_545 S
C442 C443 1.394 . S
C442 H450 0.930 . S
C443 C442 1.394 . S
C443 C444 1.383 1_545 S
C443 H451 0.929 . S
C444 C443 1.383 1_565 S
C444 C445 1.377 . S
C445 H429 0.930 . S
C445 C444 1.377 . S
C445 C446 1.379 . S
C446 H430 0.931 . S
C446 C440 1.383 . S
C446 C445 1.379 . S
H447 C441 0.959 . S
H448 C441 0.961 1_565 S
H449 C441 0.960 . S
H450 C442 0.930 . S
H451 C443 0.929 . S
H452 C460 0.929 . S
H453 C462 0.930 . S
H454 C464 0.930 . S
H455 C467 0.929 . S
H456 C470 0.930 . S
H457 C472 0.960 . S
H458 C472 0.960 . S
H459 C472 0.960 . S
C460 H452 0.929 . S
C460 C461 1.377 . S
C460 C462 1.384 . S
C461 C460 1.377 . S
C461 C467 1.390 . S
C462 H453 0.930 . S
C462 C460 1.384 . S
C462 C463 1.372 . S
C463 C462 1.372 . S
C463 C464 1.400 . S
C463 C468 1.490 . S
C464 H454 0.930 . S
C464 C463 1.400 . S
C464 C467 1.386 . S
H465 C481 0.930 . S
H466 C482 0.931 . S
C467 H455 0.929 . S
C467 C461 1.390 . S
C467 C464 1.386 . S
C468 C463 1.490 . S
C468 C470 1.395 . S
C468 C471 1.403 . S
H469 C475 0.930 . S
C470 H456 0.930 . S
C470 C468 1.395 . S
C470 C473 1.403 . S
C471 C468 1.403 . S
C471 C472 1.524 . S
C471 C475 1.400 . S
C472 H457 0.960 . S
C472 H458 0.960 . S
C472 H459 0.960 . S
C472 C471 1.524 . S
C473 C470 1.403 . S
C473 C474 1.392 . S
C473 C477 1.495 . S
C474 C473 1.392 . S
C474 C475 1.385 . S
C474 C476 1.478 . S
C475 H469 0.930 . S
C475 C471 1.400 . S
C475 C474 1.385 . S
C476 C474 1.478 . S
C476 C478 1.381 . S
C476 C482 1.383 . S
C477 C473 1.495 . S
C477 H483 0.959 . S
C477 H484 0.961 . S
C477 H485 0.960 . S
C478 C476 1.381 . S
C478 C479 1.394 . S
C478 H486 0.930 . S
C479 C478 1.394 . S
C479 C480 1.383 . S
C479 H487 0.929 . S
C480 C479 1.383 . S
C480 C481 1.377 . S
C481 H465 0.930 . S
C481 C480 1.377 . S
C481 C482 1.379 . S
C482 H466 0.931 . S
C482 C476 1.383 . S
C482 C481 1.379 . S
H483 C477 0.959 . S
H484 C477 0.961 . S
H485 C477 0.960 . S
H486 C478 0.930 . S
H487 C479 0.929 . S
H488 C496 0.929 . S
H489 C498 0.930 . S
H490 C500 0.930 . S
H491 C503 0.929 . S
H492 C506 0.930 . S
H493 C508 0.960 . S
H494 C508 0.960 . S
H495 C508 0.960 . S
C496 H488 0.929 . S
C496 C497 1.377 . S
C496 C498 1.384 . S
C497 C496 1.377 . S
C497 C503 1.390 . S
C498 H489 0.930 . S
C498 C496 1.384 . S
C498 C499 1.372 . S
C499 C498 1.372 . S
C499 C500 1.400 . S
C499 C504 1.490 . S
C500 H490 0.930 . S
C500 C499 1.400 . S
C500 C503 1.386 . S
H501 C517 0.930 . S
H502 C518 0.931 . S
C503 H491 0.929 . S
C503 C497 1.390 . S
C503 C500 1.386 . S
C504 C499 1.490 . S
C504 C506 1.395 . S
C504 C507 1.403 . S
H505 C511 0.930 . S
C506 H492 0.930 . S
C506 C504 1.395 . S
C506 C509 1.403 . S
C507 C504 1.403 . S
C507 C508 1.524 . S
C507 C511 1.400 . S
C508 H493 0.960 . S
C508 H494 0.960 . S
C508 H495 0.960 . S
C508 C507 1.524 . S
C509 C506 1.403 . S
C509 C510 1.392 . S
C509 C513 1.495 . S
C510 C509 1.392 . S
C510 C511 1.385 . S
C510 C512 1.478 . S
C511 H505 0.930 . S
C511 C507 1.400 . S
C511 C510 1.385 . S
C512 C510 1.478 . S
C512 C514 1.381 . S
C512 C518 1.383 . S
C513 C509 1.495 . S
C513 H519 0.959 . S
C513 H520 0.961 . S
C513 H521 0.960 . S
C514 C512 1.381 . S
C514 C515 1.394 . S
C514 H522 0.930 . S
C515 C514 1.394 . S
C515 C516 1.383 . S
C515 H523 0.929 . S
C516 C515 1.383 . S
C516 C517 1.377 . S
C517 H501 0.930 . S
C517 C516 1.377 . S
C517 C518 1.379 . S
C518 H502 0.931 . S
C518 C512 1.383 . S
C518 C517 1.379 . S
H519 C513 0.959 . S
H520 C513 0.961 . S
H521 C513 0.960 . S
H522 C514 0.930 . S
H523 C515 0.929 . S
H524 C532 0.929 . S
H525 C534 0.930 . S
H526 C536 0.930 . S
H527 C539 0.929 . S
H528 C542 0.930 . S
H529 C544 0.960 . S
H530 C544 0.960 . S
H531 C544 0.960 . S
C532 H524 0.929 . S
C532 C533 1.377 . S
C532 C534 1.384 . S
C533 C532 1.377 . S
C533 C539 1.390 . S
C534 H525 0.930 . S
C534 C532 1.384 . S
C534 C535 1.372 . S
C535 C534 1.372 . S
C535 C536 1.400 . S
C535 C540 1.490 . S
C536 H526 0.930 . S
C536 C535 1.400 . S
C536 C539 1.386 . S
H537 C553 0.930 . S
H538 C554 0.931 . S
C539 H527 0.929 . S
C539 C533 1.390 . S
C539 C536 1.386 . S
C540 C535 1.490 . S
C540 C542 1.395 . S
C540 C543 1.403 . S
H541 C547 0.930 . S
C542 H528 0.930 . S
C542 C540 1.395 . S
C542 C545 1.403 . S
C543 C540 1.403 . S
C543 C544 1.524 . S
C543 C547 1.400 . S
C544 H529 0.960 . S
C544 H530 0.960 . S
C544 H531 0.960 . S
C544 C543 1.524 . S
C545 C542 1.403 . S
C545 C546 1.392 . S
C545 C549 1.495 . S
C546 C545 1.392 . S
C546 C547 1.385 . S
C546 C548 1.478 . S
C547 H541 0.930 . S
C547 C543 1.400 . S
C547 C546 1.385 . S
C548 C546 1.478 . S
C548 C550 1.381 . S
C548 C554 1.383 . S
C549 C545 1.495 . S
C549 H555 0.959 . S
C549 H556 0.961 . S
C549 H557 0.960 . S
C550 C548 1.381 . S
C550 C551 1.394 . S
C550 H558 0.930 . S
C551 C550 1.394 . S
C551 C552 1.383 . S
C551 H559 0.929 . S
C552 C551 1.383 . S
C552 C553 1.377 . S
C553 H537 0.930 . S
C553 C552 1.377 . S
C553 C554 1.379 . S
C554 H538 0.931 . S
C554 C548 1.383 . S
C554 C553 1.379 . S
H555 C549 0.959 . S
H556 C549 0.961 . S
H557 C549 0.960 . S
H558 C550 0.930 . S
H559 C551 0.929 . S
H560 C568 0.929 . S
H561 C570 0.930 . S
H562 C572 0.930 . S
H563 C575 0.929 . S
H564 C578 0.938 1_565 S
H565 C580 0.960 . S
H566 C580 0.960 . S
H567 C580 0.960 1_565 S
C568 H560 0.929 . S
C568 C569 1.391 . S
C568 C570 1.384 . S
C569 C568 1.391 . S
C569 C575 1.372 1_545 S
C570 H561 0.930 . S
C570 C568 1.384 . S
C570 C571 1.372 . S
C571 C570 1.372 . S
C571 C572 1.400 1_545 S
C571 C576 1.490 . S
C572 H562 0.930 . S
C572 C571 1.400 1_565 S
C572 C575 1.386 . S
H573 C589 0.930 . S
H574 C590 0.931 . S
C575 H563 0.929 . S
C575 C569 1.372 1_565 S
C575 C572 1.386 . S
C576 C571 1.490 . S
C576 C578 1.398 . S
C576 C579 1.403 . S
H577 C583 0.930 . S
C578 H564 0.938 1_545 S
C578 C576 1.398 . S
C578 C581 1.402 . S
C579 C576 1.403 . S
C579 C580 1.524 . S
C579 C583 1.400 . S
C580 H565 0.960 . S
C580 H566 0.960 . S
C580 H567 0.960 1_545 S
C580 C579 1.524 . S
C581 C578 1.402 . S
C581 C582 1.391 . S
C581 C585 1.492 1_545 S
C582 C581 1.391 . S
C582 C583 1.385 . S
C582 C584 1.478 . S
C583 H577 0.930 . S
C583 C579 1.400 . S
C583 C582 1.385 . S
C584 C582 1.478 . S
C584 C586 1.381 . S
C584 C590 1.383 1_545 S
C585 C581 1.492 1_565 S
C585 H591 0.959 1_556 S
C585 H592 0.961 . S
C585 H593 0.960 1_565 S
C586 C584 1.381 . S
C586 C587 1.394 . S
C586 H594 0.930 . S
C587 C586 1.394 . S
C587 C588 1.383 . S
C587 H595 0.929 . S
C588 C587 1.383 . S
C588 C589 1.377 1_545 S
C589 H573 0.930 . S
C589 C588 1.377 1_565 S
C589 C590 1.379 . S
C590 H574 0.931 . S
C590 C584 1.383 1_565 S
C590 C589 1.379 . S
H591 C585 0.959 1_554 S
H592 C585 0.961 . S
H593 C585 0.960 1_545 S
H594 C586 0.930 . S
H595 C587 0.929 . S
H596 C604 0.929 . S
H597 C606 0.930 . S
H598 C608 0.930 . S
H599 C611 0.929 . S
H600 C614 0.930 . S
H601 C616 0.960 . S
H602 C616 0.960 . S
H603 C616 0.960 . S
C604 H596 0.929 . S
C604 C605 1.377 . S
C604 C606 1.384 . S
C605 C604 1.377 . S
C605 C611 1.390 . S
C606 H597 0.930 . S
C606 C604 1.384 . S
C606 C607 1.372 . S
C607 C606 1.372 . S
C607 C608 1.400 . S
C607 C612 1.490 . S
C608 H598 0.930 . S
C608 C607 1.400 . S
C608 C611 1.386 . S
H609 C625 0.930 . S
H610 C626 0.931 . S
C611 H599 0.929 . S
C611 C605 1.390 . S
C611 C608 1.386 . S
C612 C607 1.490 . S
C612 C614 1.395 . S
C612 C615 1.403 . S
H613 C619 0.930 . S
C614 H600 0.930 . S
C614 C612 1.395 . S
C614 C617 1.403 . S
C615 C612 1.403 . S
C615 C616 1.524 . S
C615 C619 1.400 . S
C616 H601 0.960 . S
C616 H602 0.960 . S
C616 H603 0.960 . S
C616 C615 1.524 . S
C617 C614 1.403 . S
C617 C618 1.392 . S
C617 C621 1.495 1_554 S
C618 C617 1.392 . S
C618 C619 1.385 . S
C618 C620 1.478 1_554 S
C619 H613 0.930 . S
C619 C615 1.400 . S
C619 C618 1.385 . S
C620 C618 1.478 1_556 S
C620 C622 1.381 . S
C620 C626 1.383 . S
C621 C617 1.495 1_556 S
C621 H627 0.959 . S
C621 H628 0.961 . S
C621 H629 0.960 . S
C622 C620 1.381 . S
C622 C623 1.394 . S
C622 H630 0.930 . S
C623 C622 1.394 . S
C623 C624 1.383 . S
C623 H631 0.929 . S
C624 C623 1.383 . S
C624 C625 1.377 . S
C625 H609 0.930 . S
C625 C624 1.377 . S
C625 C626 1.379 . S
C626 H610 0.931 . S
C626 C620 1.383 . S
C626 C625 1.379 . S
H627 C621 0.959 . S
H628 C621 0.961 . S
H629 C621 0.960 . S
H630 C622 0.930 . S
H631 C623 0.929 . S
H632 C640 0.929 . S
H633 C642 0.930 . S
H634 C644 0.930 . S
H635 C647 0.929 . S
H636 C650 0.930 . S
H637 C652 0.960 . S
H638 C652 0.960 . S
H639 C652 0.960 . S
C640 H632 0.929 . S
C640 C641 1.377 . S
C640 C642 1.384 . S
C641 C640 1.377 . S
C641 C647 1.390 1_556 S
C642 H633 0.930 . S
C642 C640 1.384 . S
C642 C643 1.372 . S
C643 C642 1.372 . S
C643 C644 1.400 1_556 S
C643 C648 1.490 . S
C644 H634 0.930 . S
C644 C643 1.400 1_554 S
C644 C647 1.386 . S
H645 C661 0.930 . S
H646 C662 0.931 . S
C647 H635 0.929 . S
C647 C641 1.390 1_554 S
C647 C644 1.386 . S
C648 C643 1.490 . S
C648 C650 1.395 . S
C648 C651 1.403 . S
H649 C655 0.930 . S
C650 H636 0.930 . S
C650 C648 1.395 . S
C650 C653 1.403 . S
C651 C648 1.403 . S
C651 C652 1.524 . S
C651 C655 1.400 . S
C652 H637 0.960 . S
C652 H638 0.960 . S
C652 H639 0.960 . S
C652 C651 1.524 . S
C653 C650 1.403 . S
C653 C654 1.392 . S
C653 C657 1.495 . S
C654 C653 1.392 . S
C654 C655 1.385 . S
C654 C656 1.478 . S
C655 H649 0.930 . S
C655 C651 1.400 . S
C655 C654 1.385 . S
C656 C654 1.478 . S
C656 C658 1.381 . S
C656 C662 1.383 . S
C657 C653 1.495 . S
C657 H663 0.959 . S
C657 H664 0.961 . S
C657 H665 0.960 . S
C658 C656 1.381 . S
C658 C659 1.394 . S
C658 H666 0.930 . S
C659 C658 1.394 . S
C659 C660 1.383 . S
C659 H667 0.929 . S
C660 C659 1.383 . S
C660 C661 1.377 . S
C661 H645 0.930 . S
C661 C660 1.377 . S
C661 C662 1.379 . S
C662 H646 0.931 . S
C662 C656 1.383 . S
C662 C661 1.379 . S
H663 C657 0.959 . S
H664 C657 0.961 . S
H665 C657 0.960 . S
H666 C658 0.930 . S
H667 C659 0.929 . S
H668 C676 0.929 . S
H669 C678 0.930 . S
H670 C680 0.930 . S
H671 C683 0.929 . S
H672 C686 0.930 . S
H673 C688 0.960 . S
H674 C688 0.960 . S
H675 C688 0.960 . S
C676 H668 0.929 . S
C676 C677 1.377 . S
C676 C678 1.384 . S
C677 C676 1.377 . S
C677 C683 1.390 1_556 S
C678 H669 0.930 . S
C678 C676 1.384 . S
C678 C679 1.372 . S
C679 C678 1.372 . S
C679 C680 1.400 1_556 S
C679 C684 1.490 . S
C680 H670 0.930 . S
C680 C679 1.400 1_554 S
C680 C683 1.386 . S
H681 C697 0.930 . S
H682 C698 0.931 . S
C683 H671 0.929 . S
C683 C677 1.390 1_554 S
C683 C680 1.386 . S
C684 C679 1.490 . S
C684 C686 1.395 . S
C684 C687 1.403 . S
H685 C691 0.930 . S
C686 H672 0.930 . S
C686 C684 1.395 . S
C686 C689 1.403 . S
C687 C684 1.403 . S
C687 C688 1.524 . S
C687 C691 1.400 . S
C688 H673 0.960 . S
C688 H674 0.960 . S
C688 H675 0.960 . S
C688 C687 1.524 . S
C689 C686 1.403 . S
C689 C690 1.392 . S
C689 C693 1.495 . S
C690 C689 1.392 . S
C690 C691 1.385 . S
C690 C692 1.478 . S
C691 H685 0.930 . S
C691 C687 1.400 . S
C691 C690 1.385 . S
C692 C690 1.478 . S
C692 C694 1.381 . S
C692 C698 1.383 . S
C693 C689 1.495 . S
C693 H699 0.959 . S
C693 H700 0.961 . S
C693 H701 0.960 . S
C694 C692 1.381 . S
C694 C695 1.394 . S
C694 H702 0.930 . S
C695 C694 1.394 . S
C695 C696 1.383 . S
C695 H703 0.929 . S
C696 C695 1.383 . S
C696 C697 1.377 . S
C697 H681 0.930 . S
C697 C696 1.377 . S
C697 C698 1.379 . S
C698 H682 0.931 . S
C698 C692 1.383 . S
C698 C697 1.379 . S
H699 C693 0.959 . S
H700 C693 0.961 . S
H701 C693 0.960 . S
H702 C694 0.930 . S
H703 C695 0.929 . S
H704 C712 0.929 . S
H705 C714 0.930 . S
H706 C716 0.930 . S
H707 C719 0.929 . S
H708 C722 0.930 . S
H709 C724 0.960 . S
H710 C724 0.960 . S
H711 C724 0.960 . S
C712 H704 0.929 . S
C712 C713 1.377 . S
C712 C714 1.384 . S
C713 C712 1.377 . S
C713 C719 1.390 . S
C714 H705 0.930 . S
C714 C712 1.384 . S
C714 C715 1.372 . S
C715 C714 1.372 . S
C715 C716 1.400 . S
C715 C720 1.490 . S
C716 H706 0.930 . S
C716 C715 1.400 . S
C716 C719 1.386 . S
H717 C733 0.930 . S
H718 C734 0.931 . S
C719 H707 0.929 . S
C719 C713 1.390 . S
C719 C716 1.386 . S
C720 C715 1.490 . S
C720 C722 1.395 . S
C720 C723 1.403 . S
H721 C727 0.930 . S
C722 H708 0.930 . S
C722 C720 1.395 . S
C722 C725 1.403 . S
C723 C720 1.403 . S
C723 C724 1.524 . S
C723 C727 1.400 . S
C724 H709 0.960 . S
C724 H710 0.960 . S
C724 H711 0.960 . S
C724 C723 1.524 . S
C725 C722 1.403 . S
C725 C726 1.392 . S
C725 C729 1.495 . S
C726 C725 1.392 . S
C726 C727 1.385 . S
C726 C728 1.478 . S
C727 H721 0.930 . S
C727 C723 1.400 . S
C727 C726 1.385 . S
C728 C726 1.478 . S
C728 C730 1.381 . S
C728 C734 1.383 . S
C729 C725 1.495 . S
C729 H735 0.959 . S
C729 H736 0.961 . S
C729 H737 0.960 . S
C730 C728 1.381 . S
C730 C731 1.394 . S
C730 H738 0.930 . S
C731 C730 1.394 . S
C731 C732 1.383 . S
C731 H739 0.929 . S
C732 C731 1.383 . S
C732 C733 1.377 . S
C733 H717 0.930 . S
C733 C732 1.377 . S
C733 C734 1.379 . S
C734 H718 0.931 . S
C734 C728 1.383 . S
C734 C733 1.379 . S
H735 C729 0.959 . S
H736 C729 0.961 . S
H737 C729 0.960 . S
H738 C730 0.930 . S
H739 C731 0.929 . S
H740 C748 0.930 . S
H741 C750 0.930 . S
H742 C752 0.930 . S
H743 C755 0.920 1_545 S
H744 C758 0.930 . S
H745 C760 0.960 . S
H746 C760 0.960 . S
H747 C760 0.960 . S
C748 H740 0.930 . S
C748 C749 1.360 1_565 S
C748 C750 1.401 . S
C749 C748 1.360 1_545 S
C749 C755 1.390 1_545 S
C750 H741 0.930 . S
C750 C748 1.401 . S
C750 C751 1.372 . S
C751 C750 1.372 . S
C751 C752 1.400 . S
C751 C756 1.490 . S
C752 H742 0.930 . S
C752 C751 1.400 . S
C752 C755 1.393 . S
H753 C769 0.930 . S
H754 C770 0.931 . S
C755 H743 0.920 1_565 S
C755 C749 1.390 1_565 S
C755 C752 1.393 . S
C756 C751 1.490 . S
C756 C758 1.395 1_565 S
C756 C759 1.403 . S
H757 C763 0.930 . S
C758 H744 0.930 . S
C758 C756 1.395 1_545 S
C758 C761 1.403 . S
C759 C756 1.403 . S
C759 C760 1.524 . S
C759 C763 1.400 . S
C760 H745 0.960 . S
C760 H746 0.960 . S
C760 H747 0.960 . S
C760 C759 1.524 . S
C761 C758 1.403 . S
C761 C762 1.392 1_545 S
C761 C765 1.495 . S
C762 C761 1.392 1_565 S
C762 C763 1.385 . S
C762 C764 1.478 . S
C763 H757 0.930 . S
C763 C759 1.400 . S
C763 C762 1.385 . S
C764 C762 1.478 . S
C764 C766 1.381 . S
C764 C770 1.383 . S
C765 C761 1.495 . S
C765 H771 0.959 . S
C765 H772 0.961 . S
C765 H773 0.960 . S
C766 C764 1.381 . S
C766 C767 1.394 . S
C766 H774 0.930 . S
C767 C766 1.394 . S
C767 C768 1.383 . S
C767 H775 0.929 . S
C768 C767 1.383 . S
C768 C769 1.377 . S
C769 H753 0.930 . S
C769 C768 1.377 . S
C769 C770 1.379 . S
C770 H754 0.931 . S
C770 C764 1.383 . S
C770 C769 1.379 . S
H771 C765 0.959 . S
H772 C765 0.961 . S
H773 C765 0.960 . S
H774 C766 0.930 . S
H775 C767 0.929 . S
H776 C784 0.929 . S
H777 C786 0.930 . S
H778 C788 0.930 . S
H779 C791 0.929 . S
H780 C794 0.930 . S
H781 C796 0.960 . S
H782 C796 0.960 . S
H783 C796 0.960 . S
C784 H776 0.929 . S
C784 C785 1.377 . S
C784 C786 1.384 . S
C785 C784 1.377 . S
C785 C791 1.390 . S
C786 H777 0.930 . S
C786 C784 1.384 . S
C786 C787 1.372 . S
C787 C786 1.372 . S
C787 C788 1.400 . S
C787 C792 1.490 . S
C788 H778 0.930 . S
C788 C787 1.400 . S
C788 C791 1.386 . S
H789 C805 0.930 . S
H790 C806 0.931 . S
C791 H779 0.929 . S
C791 C785 1.390 . S
C791 C788 1.386 . S
C792 C787 1.490 . S
C792 C794 1.395 . S
C792 C795 1.403 . S
H793 C799 0.930 . S
C794 H780 0.930 . S
C794 C792 1.395 . S
C794 C797 1.403 . S
C795 C792 1.403 . S
C795 C796 1.524 . S
C795 C799 1.400 . S
C796 H781 0.960 . S
C796 H782 0.960 . S
C796 H783 0.960 . S
C796 C795 1.524 . S
C797 C794 1.403 . S
C797 C798 1.392 . S
C797 C801 1.495 . S
C798 C797 1.392 . S
C798 C799 1.385 . S
C798 C800 1.478 . S
C799 H793 0.930 . S
C799 C795 1.400 . S
C799 C798 1.385 . S
C800 C798 1.478 . S
C800 C802 1.381 . S
C800 C806 1.383 . S
C801 C797 1.495 . S
C801 H807 0.959 . S
C801 H808 0.961 . S
C801 H809 0.960 . S
C802 C800 1.381 . S
C802 C803 1.394 . S
C802 H810 0.930 . S
C803 C802 1.394 . S
C803 C804 1.383 . S
C803 H811 0.929 . S
C804 C803 1.383 . S
C804 C805 1.377 . S
C805 H789 0.930 . S
C805 C804 1.377 . S
C805 C806 1.379 . S
C806 H790 0.931 . S
C806 C800 1.383 . S
C806 C805 1.379 . S
H807 C801 0.959 . S
H808 C801 0.961 . S
H809 C801 0.960 . S
H810 C802 0.930 . S
H811 C803 0.929 . S
H812 C820 0.929 . S
H813 C822 0.930 . S
H814 C824 0.930 . S
H815 C827 0.929 . S
H816 C830 0.930 . S
H817 C832 0.960 . S
H818 C832 0.960 . S
H819 C832 0.960 . S
C820 H812 0.929 . S
C820 C821 1.377 . S
C820 C822 1.384 . S
C821 C820 1.377 . S
C821 C827 1.390 . S
C822 H813 0.930 . S
C822 C820 1.384 . S
C822 C823 1.372 . S
C823 C822 1.372 . S
C823 C824 1.400 . S
C823 C828 1.490 . S
C824 H814 0.930 . S
C824 C823 1.400 . S
C824 C827 1.386 . S
H825 C841 0.930 . S
H826 C842 0.931 . S
C827 H815 0.929 . S
C827 C821 1.390 . S
C827 C824 1.386 . S
C828 C823 1.490 . S
C828 C830 1.395 . S
C828 C831 1.403 . S
H829 C835 0.930 . S
C830 H816 0.930 . S
C830 C828 1.395 . S
C830 C833 1.403 . S
C831 C828 1.403 . S
C831 C832 1.524 . S
C831 C835 1.400 . S
C832 H817 0.960 . S
C832 H818 0.960 . S
C832 H819 0.960 . S
C832 C831 1.524 . S
C833 C830 1.403 . S
C833 C834 1.392 . S
C833 C837 1.495 . S
C834 C833 1.392 . S
C834 C835 1.385 . S
C834 C836 1.478 . S
C835 H829 0.930 . S
C835 C831 1.400 . S
C835 C834 1.385 . S
C836 C834 1.478 . S
C836 C838 1.381 . S
C836 C842 1.383 . S
C837 C833 1.495 . S
C837 H843 0.959 . S
C837 H844 0.961 . S
C837 H845 0.960 . S
C838 C836 1.381 . S
C838 C839 1.394 . S
C838 H846 0.930 . S
C839 C838 1.394 . S
C839 C840 1.383 . S
C839 H847 0.929 . S
C840 C839 1.383 . S
C840 C841 1.377 . S
C841 H825 0.930 . S
C841 C840 1.377 . S
C841 C842 1.379 . S
C842 H826 0.931 . S
C842 C836 1.383 . S
C842 C841 1.379 . S
H843 C837 0.959 . S
H844 C837 0.961 . S
H845 C837 0.960 . S
H846 C838 0.930 . S
H847 C839 0.929 . S
H848 C856 0.929 . S
H849 C858 0.930 . S
H850 C860 0.930 . S
H851 C863 0.929 . S
H852 C866 0.930 . S
H853 C868 0.960 . S
H854 C868 0.960 . S
H855 C868 0.960 . S
C856 H848 0.929 . S
C856 C857 1.377 . S
C856 C858 1.384 . S
C857 C856 1.377 . S
C857 C863 1.390 . S
C858 H849 0.930 . S
C858 C856 1.384 . S
C858 C859 1.372 . S
C859 C858 1.372 . S
C859 C860 1.400 . S
C859 C864 1.490 . S
C860 H850 0.930 . S
C860 C859 1.400 . S
C860 C863 1.386 . S
H861 C877 0.927 1_455 S
H862 C878 0.931 . S
C863 H851 0.929 . S
C863 C857 1.390 . S
C863 C860 1.386 . S
C864 C859 1.490 . S
C864 C866 1.395 . S
C864 C867 1.403 . S
H865 C871 0.930 . S
C866 H852 0.930 . S
C866 C864 1.395 . S
C866 C869 1.403 . S
C867 C864 1.403 . S
C867 C868 1.524 . S
C867 C871 1.400 . S
C868 H853 0.960 . S
C868 H854 0.960 . S
C868 H855 0.960 . S
C868 C867 1.524 . S
C869 C866 1.403 . S
C869 C870 1.392 . S
C869 C873 1.495 . S
C870 C869 1.392 . S
C870 C871 1.385 . S
C870 C872 1.478 . S
C871 H865 0.930 . S
C871 C867 1.400 . S
C871 C870 1.385 . S
C872 C870 1.478 . S
C872 C874 1.381 . S
C872 C878 1.383 . S
C873 C869 1.495 . S
C873 H879 0.959 1_556 S
C873 H880 0.961 . S
C873 H881 0.960 . S
C874 C872 1.381 . S
C874 C875 1.394 . S
C874 H882 0.930 . S
C875 C874 1.394 . S
C875 C876 1.383 . S
C875 H883 0.929 . S
C876 C875 1.383 . S
C876 C877 1.378 . S
C877 H861 0.927 1_655 S
C877 C876 1.378 . S
C877 C878 1.381 . S
C878 H862 0.931 . S
C878 C872 1.383 . S
C878 C877 1.381 . S
H879 C873 0.959 1_554 S
H880 C873 0.961 . S
H881 C873 0.960 . S
H882 C874 0.930 . S
H883 C875 0.929 . S
H884 C892 0.929 . S
H885 C894 0.930 . S
H886 C896 0.930 . S
H887 C899 0.929 . S
H888 C902 0.930 . S
H889 C904 0.960 . S
H890 C904 0.960 . S
H891 C904 0.960 1_565 S
C892 H884 0.929 . S
C892 C893 1.380 1_545 S
C892 C894 1.384 . S
C893 C892 1.380 1_565 S
C893 C899 1.388 . S
C894 H885 0.930 . S
C894 C892 1.384 . S
C894 C895 1.372 . S
C895 C894 1.372 . S
C895 C896 1.400 1_545 S
C895 C900 1.490 . S
C896 H886 0.930 . S
C896 C895 1.400 1_565 S
C896 C899 1.386 . S
H897 C913 0.930 . S
H898 C914 0.931 . S
C899 H887 0.929 . S
C899 C893 1.388 . S
C899 C896 1.386 . S
C900 C895 1.490 . S
C900 C902 1.395 . S
C900 C903 1.403 . S
H901 C907 0.930 . S
C902 H888 0.930 . S
C902 C900 1.395 . S
C902 C905 1.403 . S
C903 C900 1.403 . S
C903 C904 1.524 . S
C903 C907 1.400 . S
C904 H889 0.960 . S
C904 H890 0.960 . S
C904 H891 0.960 1_545 S
C904 C903 1.524 . S
C905 C902 1.403 . S
C905 C906 1.392 . S
C905 C909 1.495 . S
C906 C905 1.392 . S
C906 C907 1.385 . S
C906 C908 1.478 . S
C907 H901 0.930 . S
C907 C903 1.400 . S
C907 C906 1.385 . S
C908 C906 1.478 . S
C908 C910 1.381 . S
C908 C914 1.383 1_545 S
C909 C905 1.495 . S
C909 H915 0.959 . S
C909 H916 0.961 1_545 S
C909 H917 0.960 . S
C910 C908 1.381 . S
C910 C911 1.394 . S
C910 H918 0.930 . S
C911 C910 1.394 . S
C911 C912 1.383 . S
C911 H919 0.929 . S
C912 C911 1.383 . S
C912 C913 1.377 1_545 S
C913 H897 0.930 . S
C913 C912 1.377 1_565 S
C913 C914 1.379 . S
C914 H898 0.931 . S
C914 C908 1.383 1_565 S
C914 C913 1.379 . S
H915 C909 0.959 . S
H916 C909 0.961 1_565 S
H917 C909 0.960 . S
H918 C910 0.930 . S
H919 C911 0.929 . S
H920 C928 0.929 . S
H921 C930 0.930 . S
H922 C932 0.930 . S
H923 C935 0.929 . S
H924 C938 0.930 . S
H925 C940 0.960 . S
H926 C940 0.960 . S
H927 C940 0.960 . S
C928 H920 0.929 . S
C928 C929 1.377 . S
C928 C930 1.384 . S
C929 C928 1.377 . S
C929 C935 1.390 . S
C930 H921 0.930 . S
C930 C928 1.384 . S
C930 C931 1.372 . S
C931 C930 1.372 . S
C931 C932 1.400 . S
C931 C936 1.490 . S
C932 H922 0.930 . S
C932 C931 1.400 . S
C932 C935 1.386 . S
H933 C949 0.930 . S
H934 C950 0.931 . S
C935 H923 0.929 . S
C935 C929 1.390 . S
C935 C932 1.386 . S
C936 C931 1.490 . S
C936 C938 1.395 . S
C936 C939 1.403 . S
H937 C943 0.930 . S
C938 H924 0.930 . S
C938 C936 1.395 . S
C938 C941 1.403 . S
C939 C936 1.403 . S
C939 C940 1.524 . S
C939 C943 1.400 . S
C940 H925 0.960 . S
C940 H926 0.960 . S
C940 H927 0.960 . S
C940 C939 1.524 . S
C941 C938 1.403 . S
C941 C942 1.392 . S
C941 C945 1.495 1_554 S
C942 C941 1.392 . S
C942 C943 1.385 . S
C942 C944 1.478 . S
C943 H937 0.930 . S
C943 C939 1.400 . S
C943 C942 1.385 . S
C944 C942 1.478 . S
C944 C946 1.381 1_554 S
C944 C950 1.383 . S
C945 C941 1.495 1_556 S
C945 H951 0.959 . S
C945 H952 0.961 . S
C945 H953 0.960 . S
C946 C944 1.381 1_556 S
C946 C947 1.394 . S
C946 H954 0.930 . S
C947 C946 1.394 . S
C947 C948 1.383 . S
C947 H955 0.929 . S
C948 C947 1.383 . S
C948 C949 1.377 1_556 S
C949 H933 0.930 . S
C949 C948 1.377 1_554 S
C949 C950 1.379 . S
C950 H934 0.931 . S
C950 C944 1.383 . S
C950 C949 1.379 . S
H951 C945 0.959 . S
H952 C945 0.961 . S
H953 C945 0.960 . S
H954 C946 0.930 . S
H955 C947 0.929 . S
H956 C964 0.929 . S
H957 C966 0.930 . S
H958 C968 0.930 . S
H959 C971 0.929 . S
H960 C974 0.930 . S
H961 C976 0.960 . S
H962 C976 0.960 . S
H963 C976 0.960 . S
C964 H956 0.929 . S
C964 C965 1.377 . S
C964 C966 1.384 . S
C965 C964 1.377 . S
C965 C971 1.390 . S
C966 H957 0.930 . S
C966 C964 1.384 . S
C966 C967 1.372 . S
C967 C966 1.372 . S
C967 C968 1.400 . S
C967 C972 1.490 . S
C968 H958 0.930 . S
C968 C967 1.400 . S
C968 C971 1.386 . S
H969 C985 0.930 . S
H970 C986 0.931 . S
C971 H959 0.929 . S
C971 C965 1.390 . S
C971 C968 1.386 . S
C972 C967 1.490 . S
C972 C974 1.395 . S
C972 C975 1.403 . S
H973 C979 0.930 . S
C974 H960 0.930 . S
C974 C972 1.395 . S
C974 C977 1.403 . S
C975 C972 1.403 . S
C975 C976 1.524 . S
C975 C979 1.400 . S
C976 H961 0.960 . S
C976 H962 0.960 . S
C976 H963 0.960 . S
C976 C975 1.524 . S
C977 C974 1.403 . S
C977 C978 1.392 . S
C977 C981 1.495 . S
C978 C977 1.392 . S
C978 C979 1.385 . S
C978 C980 1.478 . S
C979 H973 0.930 . S
C979 C975 1.400 . S
C979 C978 1.385 . S
C980 C978 1.478 . S
C980 C982 1.381 . S
C980 C986 1.383 . S
C981 C977 1.495 . S
C981 H987 0.959 . S
C981 H988 0.961 . S
C981 H989 0.960 . S
C982 C980 1.381 . S
C982 C983 1.394 . S
C982 H990 0.930 . S
C983 C982 1.394 . S
C983 C984 1.383 . S
C983 H991 0.929 . S
C984 C983 1.383 . S
C984 C985 1.377 . S
C985 H969 0.930 . S
C985 C984 1.377 . S
C985 C986 1.379 . S
C986 H970 0.931 . S
C986 C980 1.383 . S
C986 C985 1.379 . S
H987 C981 0.959 . S
H988 C981 0.961 . S
H989 C981 0.960 . S
H990 C982 0.930 . S
H991 C983 0.929 . S
H992 C1000 0.929 . S
H993 C1002 0.930 . S
H994 C1004 0.930 . S
H995 C1007 0.929 . S
H996 C1010 0.930 . S
H997 C1012 0.960 . S
H998 C1012 0.960 . S
H999 C1012 0.960 . S
C1000 H992 0.929 . S
C1000 C1001 1.377 . S
C1000 C1002 1.384 . S
C1001 C1000 1.377 . S
C1001 C1007 1.390 . S
C1002 H993 0.930 . S
C1002 C1000 1.384 . S
C1002 C1003 1.372 . S
C1003 C1002 1.372 . S
C1003 C1004 1.400 . S
C1003 C1008 1.490 . S
C1004 H994 0.930 . S
C1004 C1003 1.400 . S
C1004 C1007 1.386 . S
H1005 C1021 0.930 . S
H1006 C1022 0.931 . S
C1007 H995 0.929 . S
C1007 C1001 1.390 . S
C1007 C1004 1.386 . S
C1008 C1003 1.490 . S
C1008 C1010 1.395 . S
C1008 C1011 1.403 . S
H1009 C1015 0.930 . S
C1010 H996 0.930 . S
C1010 C1008 1.395 . S
C1010 C1013 1.403 . S
C1011 C1008 1.403 . S
C1011 C1012 1.524 . S
C1011 C1015 1.400 . S
C1012 H997 0.960 . S
C1012 H998 0.960 . S
C1012 H999 0.960 . S
C1012 C1011 1.524 . S
C1013 C1010 1.403 . S
C1013 C1014 1.392 . S
C1013 C1017 1.495 . S
C1014 C1013 1.392 . S
C1014 C1015 1.385 . S
C1014 C1016 1.478 . S
C1015 H1009 0.930 . S
C1015 C1011 1.400 . S
C1015 C1014 1.385 . S
C1016 C1014 1.478 . S
C1016 C1018 1.381 . S
C1016 C1022 1.383 . S
C1017 C1013 1.495 . S
C1017 H1023 0.959 . S
C1017 H1024 0.961 . S
C1017 H1025 0.960 . S
C1018 C1016 1.381 . S
C1018 C1019 1.394 . S
C1018 H1026 0.930 . S
C1019 C1018 1.394 . S
C1019 C1020 1.383 . S
C1019 H1027 0.929 . S
C1020 C1019 1.383 . S
C1020 C1021 1.377 . S
C1021 H1005 0.930 . S
C1021 C1020 1.377 . S
C1021 C1022 1.379 . S
C1022 H1006 0.931 . S
C1022 C1016 1.383 . S
C1022 C1021 1.379 . S
H1023 C1017 0.959 . S
H1024 C1017 0.961 . S
H1025 C1017 0.960 . S
H1026 C1018 0.930 . S
H1027 C1019 0.929 . S
H1028 C1036 0.929 . S
H1029 C1038 0.930 . S
H1030 C1040 0.930 . S
H1031 C1043 0.929 . S
H1032 C1046 0.930 . S
H1033 C1048 0.960 . S
H1034 C1048 0.960 . S
H1035 C1048 0.960 1_545 S
C1036 H1028 0.929 . S
C1036 C1037 1.377 1_565 S
C1036 C1038 1.384 . S
C1037 C1036 1.377 1_545 S
C1037 C1043 1.390 . S
C1038 H1029 0.930 . S
C1038 C1036 1.384 . S
C1038 C1039 1.372 1_565 S
C1039 C1038 1.372 1_545 S
C1039 C1040 1.400 . S
C1039 C1044 1.490 . S
C1040 H1030 0.930 . S
C1040 C1039 1.400 . S
C1040 C1043 1.386 . S
H1041 C1057 0.930 . S
H1042 C1058 0.931 . S
C1043 H1031 0.929 . S
C1043 C1037 1.390 . S
C1043 C1040 1.386 . S
C1044 C1039 1.490 . S
C1044 C1046 1.395 . S
C1044 C1047 1.403 . S
H1045 C1051 0.930 . S
C1046 H1032 0.930 . S
C1046 C1044 1.395 . S
C1046 C1049 1.403 . S
C1047 C1044 1.403 . S
C1047 C1048 1.524 1_545 S
C1047 C1051 1.400 . S
C1048 H1033 0.960 . S
C1048 H1034 0.960 . S
C1048 H1035 0.960 1_565 S
C1048 C1047 1.524 1_565 S
C1049 C1046 1.403 . S
C1049 C1050 1.392 . S
C1049 C1053 1.495 . S
C1050 C1049 1.392 . S
C1050 C1051 1.385 . S
C1050 C1052 1.478 . S
C1051 H1045 0.930 . S
C1051 C1047 1.400 . S
C1051 C1050 1.385 . S
C1052 C1050 1.478 . S
C1052 C1054 1.381 . S
C1052 C1058 1.383 . S
C1053 C1049 1.495 . S
C1053 H1059 0.959 . S
C1053 H1060 0.961 . S
C1053 H1061 0.960 . S
C1054 C1052 1.381 . S
C1054 C1055 1.394 . S
C1054 H1062 0.930 1_545 S
C1055 C1054 1.394 . S
C1055 C1056 1.383 . S
C1055 H1063 0.929 1_545 S
C1056 C1055 1.383 . S
C1056 C1057 1.377 . S
C1057 H1041 0.930 . S
C1057 C1056 1.377 . S
C1057 C1058 1.379 . S
C1058 H1042 0.931 . S
C1058 C1052 1.383 . S
C1058 C1057 1.379 . S
H1059 C1053 0.959 . S
H1060 C1053 0.961 . S
H1061 C1053 0.960 . S
H1062 C1054 0.930 1_565 S
H1063 C1055 0.929 1_565 S
H1064 C1072 0.929 . S
H1065 C1074 0.930 . S
H1066 C1076 0.930 1_556 S
H1067 C1079 0.929 . S
H1068 C1082 0.930 . S
H1069 C1084 0.960 . S
H1070 C1084 0.960 . S
H1071 C1084 0.960 . S
C1072 H1064 0.929 . S
C1072 C1073 1.377 . S
C1072 C1074 1.384 . S
C1073 C1072 1.377 . S
C1073 C1079 1.390 . S
C1074 H1065 0.930 . S
C1074 C1072 1.384 . S
C1074 C1075 1.372 . S
C1075 C1074 1.372 . S
C1075 C1076 1.400 . S
C1075 C1080 1.490 . S
C1076 H1066 0.930 1_554 S
C1076 C1075 1.400 . S
C1076 C1079 1.386 . S
H1077 C1093 0.930 . S
H1078 C1094 0.931 . S
C1079 H1067 0.929 . S
C1079 C1073 1.390 . S
C1079 C1076 1.386 . S
C1080 C1075 1.490 . S
C1080 C1082 1.395 1_554 S
C1080 C1083 1.403 . S
H1081 C1087 0.930 . S
C1082 H1068 0.930 . S
C1082 C1080 1.395 1_556 S
C1082 C1085 1.403 . S
C1083 C1080 1.403 . S
C1083 C1084 1.524 . S
C1083 C1087 1.400 1_554 S
C1084 H1069 0.960 . S
C1084 H1070 0.960 . S
C1084 H1071 0.960 . S
C1084 C1083 1.524 . S
C1085 C1082 1.403 . S
C1085 C1086 1.392 . S
C1085 C1089 1.495 . S
C1086 C1085 1.392 . S
C1086 C1087 1.385 . S
C1086 C1088 1.478 . S
C1087 H1081 0.930 . S
C1087 C1083 1.400 1_556 S
C1087 C1086 1.385 . S
C1088 C1086 1.478 . S
C1088 C1090 1.381 . S
C1088 C1094 1.383 . S
C1089 C1085 1.495 . S
C1089 H1095 0.959 . S
C1089 H1096 0.961 . S
C1089 H1097 0.960 . S
C1090 C1088 1.381 . S
C1090 C1091 1.394 . S
C1090 H1098 0.930 . S
C1091 C1090 1.394 . S
C1091 C1092 1.383 . S
C1091 H1099 0.929 . S
C1092 C1091 1.383 . S
C1092 C1093 1.377 . S
C1093 H1077 0.930 . S
C1093 C1092 1.377 . S
C1093 C1094 1.379 . S
C1094 H1078 0.931 . S
C1094 C1088 1.383 . S
C1094 C1093 1.379 . S
H1095 C1089 0.959 . S
H1096 C1089 0.961 . S
H1097 C1089 0.960 . S
H1098 C1090 0.930 . S
H1099 C1091 0.929 . S
H1100 C1108 0.929 . S
H1101 C1110 0.930 . S
H1102 C1112 0.930 . S
H1103 C1115 0.929 . S
H1104 C1118 0.930 . S
H1105 C1120 0.960 . S
H1106 C1120 0.960 . S
H1107 C1120 0.960 . S
C1108 H1100 0.929 . S
C1108 C1109 1.377 . S
C1108 C1110 1.384 . S
C1109 C1108 1.377 . S
C1109 C1115 1.390 . S
C1110 H1101 0.930 . S
C1110 C1108 1.384 . S
C1110 C1111 1.372 . S
C1111 C1110 1.372 . S
C1111 C1112 1.400 . S
C1111 C1116 1.490 . S
C1112 H1102 0.930 . S
C1112 C1111 1.400 . S
C1112 C1115 1.386 . S
H1113 C1129 0.930 . S
H1114 C1130 0.931 . S
C1115 H1103 0.929 . S
C1115 C1109 1.390 . S
C1115 C1112 1.386 . S
C1116 C1111 1.490 . S
C1116 C1118 1.395 . S
C1116 C1119 1.403 . S
H1117 C1123 0.930 . S
C1118 H1104 0.930 . S
C1118 C1116 1.395 . S
C1118 C1121 1.403 . S
C1119 C1116 1.403 . S
C1119 C1120 1.524 . S
C1119 C1123 1.400 . S
C1120 H1105 0.960 . S
C1120 H1106 0.960 . S
C1120 H1107 0.960 . S
C1120 C1119 1.524 . S
C1121 C1118 1.403 . S
C1121 C1122 1.392 . S
C1121 C1125 1.495 . S
C1122 C1121 1.392 . S
C1122 C1123 1.385 . S
C1122 C1124 1.478 . S
C1123 H1117 0.930 . S
C1123 C1119 1.400 . S
C1123 C1122 1.385 . S
C1124 C1122 1.478 . S
C1124 C1126 1.381 . S
C1124 C1130 1.383 . S
C1125 C1121 1.495 . S
C1125 H1131 0.959 . S
C1125 H1132 0.961 . S
C1125 H1133 0.960 . S
C1126 C1124 1.381 . S
C1126 C1127 1.394 . S
C1126 H1134 0.930 . S
C1127 C1126 1.394 . S
C1127 C1128 1.383 . S
C1127 H1135 0.929 . S
C1128 C1127 1.383 . S
C1128 C1129 1.377 . S
C1129 H1113 0.930 . S
C1129 C1128 1.377 . S
C1129 C1130 1.379 . S
C1130 H1114 0.931 . S
C1130 C1124 1.383 . S
C1130 C1129 1.379 . S
H1131 C1125 0.959 . S
H1132 C1125 0.961 . S
H1133 C1125 0.960 . S
H1134 C1126 0.930 . S
H1135 C1127 0.929 . S
H1136 C1144 0.929 . S
H1137 C1146 0.930 . S
H1138 C1148 0.930 . S
H1139 C1151 0.929 . S
H1140 C1154 0.930 . S
H1141 C1156 0.960 . S
H1142 C1156 0.960 . S
H1143 C1156 0.960 . S
C1144 H1136 0.929 . S
C1144 C1145 1.377 . S
C1144 C1146 1.384 . S
C1145 C1144 1.377 . S
C1145 C1151 1.390 . S
C1146 H1137 0.930 . S
C1146 C1144 1.384 . S
C1146 C1147 1.372 . S
C1147 C1146 1.372 . S
C1147 C1148 1.400 . S
C1147 C1152 1.490 . S
C1148 H1138 0.930 . S
C1148 C1147 1.400 . S
C1148 C1151 1.386 . S
H1149 C1165 0.930 . S
H1150 C1166 0.931 . S
C1151 H1139 0.929 . S
C1151 C1145 1.390 . S
C1151 C1148 1.386 . S
C1152 C1147 1.490 . S
C1152 C1154 1.395 . S
C1152 C1155 1.403 . S
H1153 C1159 0.930 . S
C1154 H1140 0.930 . S
C1154 C1152 1.395 . S
C1154 C1157 1.403 . S
C1155 C1152 1.403 . S
C1155 C1156 1.524 . S
C1155 C1159 1.400 . S
C1156 H1141 0.960 . S
C1156 H1142 0.960 . S
C1156 H1143 0.960 . S
C1156 C1155 1.524 . S
C1157 C1154 1.403 . S
C1157 C1158 1.392 . S
C1157 C1161 1.495 . S
C1158 C1157 1.392 . S
C1158 C1159 1.385 . S
C1158 C1160 1.478 . S
C1159 H1153 0.930 . S
C1159 C1155 1.400 . S
C1159 C1158 1.385 . S
C1160 C1158 1.478 . S
C1160 C1162 1.381 . S
C1160 C1166 1.383 . S
C1161 C1157 1.495 . S
C1161 H1167 0.959 . S
C1161 H1168 0.961 . S
C1161 H1169 0.960 . S
C1162 C1160 1.381 . S
C1162 C1163 1.394 . S
C1162 H1170 0.930 . S
C1163 C1162 1.394 . S
C1163 C1164 1.383 . S
C1163 H1171 0.929 . S
C1164 C1163 1.383 . S
C1164 C1165 1.377 . S
C1165 H1149 0.930 . S
C1165 C1164 1.377 . S
C1165 C1166 1.379 . S
C1166 H1150 0.931 . S
C1166 C1160 1.383 . S
C1166 C1165 1.379 . S
H1167 C1161 0.959 . S
H1168 C1161 0.961 . S
H1169 C1161 0.960 . S
H1170 C1162 0.930 . S
H1171 C1163 0.929 . S
H1172 C1180 0.929 . S
H1173 C1182 0.930 . S
H1174 C1184 0.930 . S
H1175 C1187 0.929 . S
H1176 C1190 0.930 . S
H1177 C1192 0.960 . S
H1178 C1192 0.960 . S
H1179 C1192 0.960 . S
C1180 H1172 0.929 . S
C1180 C1181 1.377 1_545 S
C1180 C1182 1.384 . S
C1181 C1180 1.377 1_565 S
C1181 C1187 1.390 . S
C1182 H1173 0.930 . S
C1182 C1180 1.384 . S
C1182 C1183 1.372 1_545 S
C1183 C1182 1.372 1_565 S
C1183 C1184 1.400 . S
C1183 C1188 1.490 . S
C1184 H1174 0.930 . S
C1184 C1183 1.400 . S
C1184 C1187 1.386 . S
H1185 C1201 0.930 . S
H1186 C1202 0.931 . S
C1187 H1175 0.929 . S
C1187 C1181 1.390 . S
C1187 C1184 1.386 . S
C1188 C1183 1.490 . S
C1188 C1190 1.395 1_565 S
C1188 C1191 1.403 . S
H1189 C1195 0.930 . S
C1190 H1176 0.930 . S
C1190 C1188 1.395 1_545 S
C1190 C1193 1.403 . S
C1191 C1188 1.403 . S
C1191 C1192 1.524 . S
C1191 C1195 1.400 . S
C1192 H1177 0.960 . S
C1192 H1178 0.960 . S
C1192 H1179 0.960 . S
C1192 C1191 1.524 . S
C1193 C1190 1.403 . S
C1193 C1194 1.392 1_545 S
C1193 C1197 1.495 . S
C1194 C1193 1.392 1_565 S
C1194 C1195 1.385 . S
C1194 C1196 1.478 . S
C1195 H1189 0.930 . S
C1195 C1191 1.400 . S
C1195 C1194 1.385 . S
C1196 C1194 1.478 . S
C1196 C1198 1.381 1_565 S
C1196 C1202 1.383 . S
C1197 C1193 1.495 . S
C1197 H1203 0.959 . S
C1197 H1204 0.961 . S
C1197 H1205 0.960 . S
C1198 C1196 1.381 1_545 S
C1198 C1199 1.395 1_545 S
C1198 H1206 0.930 . S
C1199 C1198 1.395 1_565 S
C1199 C1200 1.392 . S
C1199 H1207 0.920 1_565 S
C1200 C1199 1.392 . S
C1200 C1201 1.377 . S
C1201 H1185 0.930 . S
C1201 C1200 1.377 . S
C1201 C1202 1.379 . S
C1202 H1186 0.931 . S
C1202 C1196 1.383 . S
C1202 C1201 1.379 . S
H1203 C1197 0.959 . S
H1204 C1197 0.961 . S
H1205 C1197 0.960 . S
H1206 C1198 0.930 . S
H1207 C1199 0.920 1_545 S
H1208 C1216 0.929 . S
H1209 C1218 0.930 . S
H1210 C1220 0.930 . S
H1211 C1223 0.929 . S
H1212 C1226 0.930 . S
H1213 C1228 0.960 . S
H1214 C1228 0.960 . S
H1215 C1228 0.960 . S
C1216 H1208 0.929 . S
C1216 C1217 1.377 . S
C1216 C1218 1.384 . S
C1217 C1216 1.377 . S
C1217 C1223 1.390 . S
C1218 H1209 0.930 . S
C1218 C1216 1.384 . S
C1218 C1219 1.372 . S
C1219 C1218 1.372 . S
C1219 C1220 1.400 . S
C1219 C1224 1.490 . S
C1220 H1210 0.930 . S
C1220 C1219 1.400 . S
C1220 C1223 1.386 . S
H1221 C1237 0.930 . S
H1222 C1238 0.931 . S
C1223 H1211 0.929 . S
C1223 C1217 1.390 . S
C1223 C1220 1.386 . S
C1224 C1219 1.490 . S
C1224 C1226 1.395 . S
C1224 C1227 1.403 . S
H1225 C1231 0.930 . S
C1226 H1212 0.930 . S
C1226 C1224 1.395 . S
C1226 C1229 1.403 . S
C1227 C1224 1.403 . S
C1227 C1228 1.524 . S
C1227 C1231 1.400 . S
C1228 H1213 0.960 . S
C1228 H1214 0.960 . S
C1228 H1215 0.960 . S
C1228 C1227 1.524 . S
C1229 C1226 1.403 . S
C1229 C1230 1.392 . S
C1229 C1233 1.495 . S
C1230 C1229 1.392 . S
C1230 C1231 1.385 . S
C1230 C1232 1.478 . S
C1231 H1225 0.930 . S
C1231 C1227 1.400 . S
C1231 C1230 1.385 . S
C1232 C1230 1.478 . S
C1232 C1234 1.381 . S
C1232 C1238 1.383 . S
C1233 C1229 1.495 . S
C1233 H1239 0.959 . S
C1233 H1240 0.961 . S
C1233 H1241 0.960 . S
C1234 C1232 1.381 . S
C1234 C1235 1.394 . S
C1234 H1242 0.930 . S
C1235 C1234 1.394 . S
C1235 C1236 1.383 . S
C1235 H1243 0.929 . S
C1236 C1235 1.383 . S
C1236 C1237 1.377 . S
C1237 H1221 0.930 . S
C1237 C1236 1.377 . S
C1237 C1238 1.379 . S
C1238 H1222 0.931 . S
C1238 C1232 1.383 . S
C1238 C1237 1.379 . S
H1239 C1233 0.959 . S
H1240 C1233 0.961 . S
H1241 C1233 0.960 . S
H1242 C1234 0.930 . S
H1243 C1235 0.929 . S
H1244 C1252 0.929 . S
H1245 C1254 0.930 . S
H1246 C1256 0.930 . S
H1247 C1259 0.929 . S
H1248 C1262 0.930 . S
H1249 C1264 0.960 . S
H1250 C1264 0.960 . S
H1251 C1264 0.960 . S
C1252 H1244 0.929 . S
C1252 C1253 1.377 . S
C1252 C1254 1.384 . S
C1253 C1252 1.377 . S
C1253 C1259 1.390 . S
C1254 H1245 0.930 . S
C1254 C1252 1.384 . S
C1254 C1255 1.372 . S
C1255 C1254 1.372 . S
C1255 C1256 1.400 . S
C1255 C1260 1.490 . S
C1256 H1246 0.930 . S
C1256 C1255 1.400 . S
C1256 C1259 1.386 . S
H1257 C1273 0.930 . S
H1258 C1274 0.931 . S
C1259 H1247 0.929 . S
C1259 C1253 1.390 . S
C1259 C1256 1.386 . S
C1260 C1255 1.490 . S
C1260 C1262 1.395 . S
C1260 C1263 1.403 . S
H1261 C1267 0.930 . S
C1262 H1248 0.930 . S
C1262 C1260 1.395 . S
C1262 C1265 1.403 . S
C1263 C1260 1.403 . S
C1263 C1264 1.524 . S
C1263 C1267 1.400 . S
C1264 H1249 0.960 . S
C1264 H1250 0.960 . S
C1264 H1251 0.960 . S
C1264 C1263 1.524 . S
C1265 C1262 1.403 . S
C1265 C1266 1.392 . S
C1265 C1269 1.495 . S
C1266 C1265 1.392 . S
C1266 C1267 1.385 . S
C1266 C1268 1.478 . S
C1267 H1261 0.930 . S
C1267 C1263 1.400 . S
C1267 C1266 1.385 . S
C1268 C1266 1.478 . S
C1268 C1270 1.381 . S
C1268 C1274 1.383 . S
C1269 C1265 1.495 . S
C1269 H1275 0.959 . S
C1269 H1276 0.961 . S
C1269 H1277 0.960 . S
C1270 C1268 1.381 . S
C1270 C1271 1.394 . S
C1270 H1278 0.930 . S
C1271 C1270 1.394 . S
C1271 C1272 1.383 . S
C1271 H1279 0.929 . S
C1272 C1271 1.383 . S
C1272 C1273 1.377 . S
C1273 H1257 0.930 . S
C1273 C1272 1.377 . S
C1273 C1274 1.379 . S
C1274 H1258 0.931 . S
C1274 C1268 1.383 . S
C1274 C1273 1.379 . S
H1275 C1269 0.959 . S
H1276 C1269 0.961 . S
H1277 C1269 0.960 . S
H1278 C1270 0.930 . S
H1279 C1271 0.929 . S
C425 C215 0.874 . S
C444 C265 0.814 . S
C480 C305 1.577 . S
C461 C247 1.690 . S
C516 C354 1.561 . S
C497 C151 1.483 . S
C552 C385 1.988 . S
C533 C183 2.110 . S
C588 C274 0.816 . S
C569 C87 0.876 . S
C605 C119 1.550 . S
C624 C314 1.610 . S
C641 C23 1.616 1_556 S
C660 C345 1.560 . S
C677 C55 1.925 1_556 S
C696 C394 2.011 1_655 S
C732 C275 0.931 . S
C713 C189 0.908 . S
C768 C315 0.396 . S
C749 C221 0.539 . S
C804 C351 0.467 . S
C785 C253 0.406 . S
C821 C157 0.998 . S
C840 C395 1.096 . S
C857 C61 0.847 . S
C876 C266 0.932 1_655 S
C912 C306 0.413 . S
C893 C93 0.545 1_565 S
C948 C342 0.429 . S
C929 C125 0.556 . S
C965 C29 1.067 . S
C984 C386 1.095 . S
C1001 C177 1.999 . S
C1020 C271 2.023 . S
C1037 C209 1.569 . S
C1056 C311 1.618 . S
C1092 C355 2.451 . S
C1073 C241 2.315 . S
C1128 C391 1.610 . S
C1109 C145 1.503 . S
C1145 C49 1.881 . S
C1164 C262 2.037 . S
C1200 C302 1.592 . S
C1181 C81 1.595 1_565 S
C1236 C346 2.445 . S
C1217 C113 2.186 . S
C1253 C17 1.627 . S
C1272 C382 1.614 . S
