# Generated by pormake.
# Topology zzz, (3,6)-cn, num edge types: 1
# Building blocks:
#     Node 0, Type 0, BuildingBlock: MIDCAF_clean_linker_0, # of connection points: 3
#     Node 1, Type 0, BuildingBlock: MIDCAF_clean_linker_0, # of connection points: 3
#     Node 2, Type 0, BuildingBlock: MIDCAF_clean_linker_0, # of connection points: 3
#     Node 3, Type 0, BuildingBlock: MIDCAF_clean_linker_0, # of connection points: 3
#     Node 4, Type 0, BuildingBlock: MIDCAF_clean_linker_0, # of connection points: 3
#     Node 5, Type 0, BuildingBlock: MIDCAF_clean_linker_0, # of connection points: 3
#     Node 6, Type 0, BuildingBlock: MIDCAF_clean_linker_0, # of connection points: 3
#     Node 7, Type 0, BuildingBlock: MIDCAF_clean_linker_0, # of connection points: 3
#     Node 8, Type 1, BuildingBlock: MIFKUJ_clean_sbu_0, # of connection points: 6
#     Node 9, Type 1, BuildingBlock: MIFKUJ_clean_sbu_0, # of connection points: 6
#     Node 10, Type 1, BuildingBlock: MIFKUJ_clean_sbu_0, # of connection points: 6
#     Node 11, Type 1, BuildingBlock: MIFKUJ_clean_sbu_0, # of connection points: 6
#     Edge 12, Type (0, 1), BuildingBlock: XIVTED_clean_linker_0, # of connection points: 2
#     Edge 13, Type (0, 1), BuildingBlock: XIVTED_clean_linker_0, # of connection points: 2
#     Edge 14, Type (0, 1), BuildingBlock: XIVTED_clean_linker_0, # of connection points: 2
#     Edge 15, Type (0, 1), BuildingBlock: XIVTED_clean_linker_0, # of connection points: 2
#     Edge 16, Type (0, 1), BuildingBlock: XIVTED_clean_linker_0, # of connection points: 2
#     Edge 17, Type (0, 1), BuildingBlock: XIVTED_clean_linker_0, # of connection points: 2
#     Edge 18, Type (0, 1), BuildingBlock: XIVTED_clean_linker_0, # of connection points: 2
#     Edge 19, Type (0, 1), BuildingBlock: XIVTED_clean_linker_0, # of connection points: 2
#     Edge 20, Type (0, 1), BuildingBlock: XIVTED_clean_linker_0, # of connection points: 2
#     Edge 21, Type (0, 1), BuildingBlock: XIVTED_clean_linker_0, # of connection points: 2
#     Edge 22, Type (0, 1), BuildingBlock: XIVTED_clean_linker_0, # of connection points: 2
#     Edge 23, Type (0, 1), BuildingBlock: XIVTED_clean_linker_0, # of connection points: 2
#     Edge 24, Type (0, 1), BuildingBlock: XIVTED_clean_linker_0, # of connection points: 2
#     Edge 25, Type (0, 1), BuildingBlock: XIVTED_clean_linker_0, # of connection points: 2
#     Edge 26, Type (0, 1), BuildingBlock: XIVTED_clean_linker_0, # of connection points: 2
#     Edge 27, Type (0, 1), BuildingBlock: XIVTED_clean_linker_0, # of connection points: 2
#     Edge 28, Type (0, 1), BuildingBlock: XIVTED_clean_linker_0, # of connection points: 2
#     Edge 29, Type (0, 1), BuildingBlock: XIVTED_clean_linker_0, # of connection points: 2
#     Edge 30, Type (0, 1), BuildingBlock: XIVTED_clean_linker_0, # of connection points: 2
#     Edge 31, Type (0, 1), BuildingBlock: XIVTED_clean_linker_0, # of connection points: 2
#     Edge 32, Type (0, 1), BuildingBlock: XIVTED_clean_linker_0, # of connection points: 2
#     Edge 33, Type (0, 1), BuildingBlock: XIVTED_clean_linker_0, # of connection points: 2
#     Edge 34, Type (0, 1), BuildingBlock: XIVTED_clean_linker_0, # of connection points: 2
#     Edge 35, Type (0, 1), BuildingBlock: XIVTED_clean_linker_0, # of connection points: 2
# Relax obj value: 0.313
# Max RMSD: 0.214
# Mean RMSD: 0.193
data_MOF--net-zzz--node1-MIFKUJ_clean_sbu_0--node2-MIDCAF_clean_linker_0--edge1-XIVTED_clean_linker_0
_symmetry_space_group_name_H-M    P1
_symmetry_Int_Tables_number       1
_symmetry_cell_setting            triclinic
loop_
_symmetry_equiv_pos_as_xyz
'x, y, z'
_cell_length_a     56.680951
_cell_length_b     58.02261
_cell_length_c     21.336821
_cell_angle_alpha  89.45563
_cell_angle_beta   89.988147
_cell_angle_gamma 91.2234
loop_
_atom_site_label
_atom_site_type_symbol
_atom_site_fract_x
_atom_site_fract_y
_atom_site_fract_z
_atom_type_partial_charge
C0 C 0.78929 0.6046 0.22866 0.0
C1 C 0.78515 0.58359 0.26053 0.0
C2 C 0.76419 0.571 0.24743 0.0
C3 C 0.74917 0.57794 0.19886 0.0
H4 H 0.67123 0.59675 0.06359 0.0
H5 H 0.6349 0.58352 0.00954 0.0
H6 H 0.6772 0.54777 0.87485 0.0
H7 H 0.71284 0.56074 0.92782 0.0
H8 H 0.75187 0.59038 0.87112 0.0
H9 H 0.78487 0.57727 0.81071 0.0
H10 H 0.83319 0.61022 0.94041 0.0
H11 H 0.79994 0.62247 0.00311 0.0
H12 H 0.77911 0.62684 0.1535 0.0
H13 H 0.80516 0.6148 0.2371 0.0
H14 H 0.76011 0.55502 0.27215 0.0
H15 H 0.73437 0.56681 0.18626 0.0
N16 N 0.72321 0.59198 0.08257 0.0
N17 N 0.73271 0.59795 0.97628 0.0
N18 N 0.76043 0.60715 0.05284 0.0
C19 C 0.71688 0.59125 0.02086 0.0
C20 C 0.75449 0.60592 0.99158 0.0
C21 C 0.74508 0.6004 0.09866 0.0
C22 C 0.69477 0.58004 -0.00077 0.0
C23 C 0.67256 0.58559 0.0234 0.0
C24 C 0.65188 0.57812 0.99242 0.0
C25 C 0.65337 0.56511 0.93718 0.0
C26 C 0.67556 0.55824 0.91635 0.0
C27 C 0.69596 0.56561 0.94689 0.0
C28 C 0.77329 0.60662 0.94351 0.0
C29 C 0.76947 0.59553 0.88595 0.0
C30 C 0.78853 0.58801 0.85091 0.0
C31 C 0.81174 0.59186 0.87217 0.0
C32 C 0.81549 0.60614 0.92429 0.0
C33 C 0.79641 0.61337 0.9599 0.0
C34 C 0.75489 0.59758 0.16255 0.0
C35 C 0.77431 0.61152 0.18042 0.0
C36 C 0.01962 0.78308 0.27197 0.0
C37 C -0.00297 0.78587 0.29767 0.0
C38 C 0.97839 0.77137 0.27724 0.0
C39 C 0.98194 0.75572 0.2286 0.0
H40 H 0.00744 0.67497 0.11287 0.0
H41 H 0.00125 0.63729 0.06327 0.0
H42 H 0.96238 0.66996 0.91386 0.0
H43 H 0.9687 0.7072 0.96307 0.0
H44 H 0.00895 0.7483 0.90304 0.0
H45 H 0.01412 0.77863 0.82424 0.0
H46 H 0.04328 0.82412 0.96471 0.0
H47 H 0.03844 0.79381 0.0435 0.0
H48 H 0.04022 0.76738 0.20079 0.0
H49 H 0.03434 0.79408 0.28594 0.0
H50 H 0.96084 0.773 0.29654 0.0
H51 H 0.96696 0.74601 0.21037 0.0
N52 N -0.00284 0.72376 0.12118 0.0
N53 N 0.00629 0.73122 0.01512 0.0
N54 N 0.01523 0.75895 0.09034 0.0
C55 C -0.00252 0.71681 0.06032 0.0
C56 C 0.01536 0.75226 0.02978 0.0
C57 C 0.00617 0.74498 0.13608 0.0
C58 C 0.98864 0.69387 0.04143 0.0
C59 C 0.99686 0.67383 0.07068 0.0
C60 C 0.99348 0.65236 0.04201 0.0
C61 C 0.98151 0.65067 0.98428 0.0
C62 C 0.9715 0.67056 0.95844 0.0
C63 C 0.9752 0.69194 0.98645 0.0
C64 C 0.02277 0.76879 0.97994 0.0
C65 C 0.01701 0.76455 0.91695 0.0
C66 C 0.01993 0.78193 0.87175 0.0
C67 C 0.02878 0.80382 0.88856 0.0
C68 C 0.03649 0.8074 0.95029 0.0
C69 C 0.03347 0.79007 0.99559 0.0
C70 C 0.00407 0.75465 0.1993 0.0
C71 C 0.02305 0.76775 0.2231 0.0
C72 C 0.70487 0.90135 0.26096 0.0
C73 C 0.70741 0.92227 0.29324 0.0
C74 C 0.72771 0.93615 0.28164 0.0
C75 C 0.74339 0.9307 0.2334 0.0
H76 H 0.82166 0.91273 0.09368 0.0
H77 H 0.85815 0.92459 0.03748 0.0
H78 H 0.81704 0.96568 0.91009 0.0
H79 H 0.78118 0.95413 0.9654 0.0
H80 H 0.74127 0.92097 0.9015 0.0
H81 H 0.70817 0.92742 0.83135 0.0
H82 H 0.66055 0.89718 0.96876 0.0
H83 H 0.69353 0.89037 0.03862 0.0
H84 H 0.71681 0.8807 0.18544 0.0
H85 H 0.68959 0.89014 0.26825 0.0
H86 H 0.73062 0.95206 0.30686 0.0
H87 H 0.75746 0.94288 0.22141 0.0
N88 N 0.77027 0.91918 0.11601 0.0
N89 N 0.7603 0.91573 0.00938 0.0
N90 N 0.73302 0.90449 0.08575 0.0
C91 C 0.77627 0.92145 0.05424 0.0
C92 C 0.73868 0.90719 0.02456 0.0
C93 C 0.74851 0.91031 0.13174 0.0
C94 C 0.79869 0.93234 0.03328 0.0
C95 C 0.82068 0.92488 0.05496 0.0
C96 C 0.84144 0.93155 0.02277 0.0
C97 C 0.84018 0.94564 0.96886 0.0
C98 C 0.81838 0.95449 0.95085 0.0
C99 C 0.7979 0.94793 0.98265 0.0
C100 C 0.71999 0.90561 0.97637 0.0
C101 C 0.72385 0.91512 0.91623 0.0
C102 C 0.70487 0.91901 0.87614 0.0
C103 C 0.68175 0.91329 0.8952 0.0
C104 C 0.67817 0.90181 0.95279 0.0
C105 C 0.69711 0.89799 0.99297 0.0
C106 C 0.739 0.91127 0.19616 0.0
C107 C 0.72054 0.89591 0.21316 0.0
C108 C 0.425 0.68669 0.94979 0.0
C109 C 0.4304 0.69129 0.88662 0.0
C110 C 0.43345 0.71432 0.86667 0.0
C111 C 0.43313 0.73223 0.90998 0.0
H112 H 0.41679 0.80989 0.98293 0.0
H113 H 0.4252 0.84696 0.9314 0.0
H114 H 0.49616 0.84672 0.00476 0.0
H115 H 0.4874 0.80979 0.05851 0.0
H116 H 0.49073 0.75883 0.18487 0.0
H117 H 0.5032 0.73541 0.27514 0.0
H118 H 0.4325 0.70649 0.2902 0.0
H119 H 0.42041 0.72948 0.20058 0.0
H120 H 0.42198 0.70024 0.04212 0.0
H121 H 0.42264 0.66912 0.96667 0.0
H122 H 0.43731 0.71839 0.81803 0.0
H123 H 0.43696 0.74962 0.89355 0.0
N124 N 0.43886 0.7676 0.00423 0.0
N125 N 0.45289 0.77651 0.10523 0.0
N126 N 0.44003 0.73884 0.08134 0.0
C127 C 0.44737 0.78329 0.04585 0.0
C128 C 0.44867 0.75427 0.12328 0.0
C129 C 0.43532 0.74525 0.02154 0.0
C130 C 0.45147 0.80717 0.02449 0.0
C131 C 0.43396 0.8181 0.98939 0.0
C132 C 0.43874 0.83927 0.96017 0.0
C133 C 0.46131 0.84955 0.9642 0.0
C134 C 0.47862 0.83906 0.00125 0.0
C135 C 0.4736 0.8181 0.03205 0.0
C136 C 0.45465 0.74584 0.18625 0.0
C137 C 0.47777 0.74809 0.2093 0.0
C138 C 0.48491 0.73458 0.26043 0.0
C139 C 0.46886 0.71904 0.28957 0.0
C140 C 0.44525 0.71846 0.26944 0.0
C141 C 0.43829 0.73156 0.21797 0.0
C142 C 0.42994 0.7274 0.97417 0.0
C143 C 0.42481 0.70455 0.99315 0.0
C144 C 0.19935 0.40118 0.93663 0.0
C145 C 0.20497 0.42201 0.90544 0.0
C146 C 0.22632 0.4336 0.92078 0.0
C147 C 0.24049 0.42564 0.97008 0.0
H148 H 0.30553 0.43487 0.09284 0.0
H149 H 0.34222 0.4489 0.14184 0.0
H150 H 0.33141 0.39991 0.29376 0.0
H151 H 0.29592 0.3856 0.24408 0.0
H152 H 0.24006 0.40154 0.30041 0.0
H153 H 0.20918 0.4133 0.3719 0.0
H154 H 0.15665 0.39722 0.23114 0.0
H155 H 0.18717 0.38474 0.16111 0.0
H156 H 0.20761 0.37806 0.01152 0.0
H157 H 0.18309 0.39178 0.9267 0.0
H158 H 0.23146 0.44946 0.89684 0.0
H159 H 0.25579 0.43585 0.98404 0.0
N160 N 0.26618 0.40626 0.08348 0.0
N161 N 0.25726 0.39775 0.1891 0.0
N162 N 0.22761 0.3955 0.11387 0.0
C163 C 0.27337 0.40364 0.14426 0.0
C164 C 0.23435 0.39375 0.17445 0.0
C165 C 0.2432 0.40155 0.0681 0.0
C166 C 0.29773 0.4093 0.1649 0.0
C167 C 0.3115 0.42672 0.13568 0.0
C168 C 0.33234 0.43492 0.16424 0.0
C169 C 0.33978 0.42574 0.22227 0.0
C170 C 0.32663 0.40732 0.24889 0.0
C171 C 0.30601 0.39919 0.22054 0.0
C172 C 0.21613 0.39301 0.22413 0.0
C173 C 0.22184 0.39969 0.28558 0.0
C174 C 0.20415 0.40665 0.32645 0.0
C175 C 0.18052 0.40701 0.3065 0.0
C176 C 0.17463 0.39735 0.24822 0.0
C177 C 0.19225 0.3903 0.2076 0.0
C178 C 0.23347 0.40603 0.00491 0.0
C179 C 0.21342 0.39331 0.98563 0.0
C180 C 0.03082 0.22716 0.8919 0.0
C181 C 0.01019 0.22282 0.85686 0.0
C182 C 0.99059 0.23689 0.86656 0.0
C183 C 0.99039 0.25236 0.91644 0.0
H184 H -0.00109 0.32776 0.05594 0.0
H185 H 0.00164 0.3652 0.1086 0.0
H186 H 0.02998 0.33185 0.27314 0.0
H187 H 0.0271 0.2948 0.22119 0.0
H188 H -0.00035 0.24437 0.25239 0.0
H189 H 0.99263 0.21077 0.31997 0.0
H190 H 0.97415 0.17012 0.15785 0.0
H191 H 0.98172 0.20332 0.09041 0.0
H192 H 0.0458 0.24377 0.9722 0.0
H193 H 0.04624 0.2167 0.88615 0.0
H194 H 0.97462 0.23444 0.83936 0.0
H195 H 0.97412 0.26085 0.92783 0.0
N196 N 0.01026 0.2817 0.04483 0.0
N197 N 0.00205 0.26755 0.14665 0.0
N198 N -0.00011 0.24269 0.0615 0.0
C199 C 0.00818 0.2854 0.10765 0.0
C200 C -0.00232 0.24617 0.12377 0.0
C201 C 0.00614 0.26018 0.02203 0.0
C202 C 0.01262 0.30841 0.13473 0.0
C203 C 0.00614 0.3286 0.10288 0.0
C204 C 0.00759 0.34995 0.13307 0.0
C205 C 0.01604 0.35144 0.19498 0.0
C206 C 0.02366 0.33134 0.22525 0.0
C207 C 0.02181 0.31008 0.19566 0.0
C208 C 0.99154 0.22651 0.16587 0.0
C209 C 0.99391 0.22831 0.23124 0.0
C210 C 0.98976 0.20906 0.27004 0.0
C211 C 0.98303 0.18768 0.24426 0.0
C212 C 0.97979 0.18618 0.17915 0.0
C213 C 0.98406 0.20531 0.14046 0.0
C214 C 0.00997 0.25434 0.95625 0.0
C215 C 0.03066 0.24281 0.94122 0.0
C216 C 0.27059 0.06389 0.92841 0.0
C217 C 0.28566 0.08093 0.90151 0.0
C218 C 0.28292 0.104 0.91966 0.0
C219 C 0.26751 0.10946 0.96821 0.0
H220 H 0.18831 0.05556 0.10187 0.0
H221 H 0.15274 0.04026 0.15523 0.0
H222 H 0.15198 0.10033 0.27256 0.0
H223 H 0.18785 0.11526 0.22098 0.0
H224 H 0.2503 0.08095 0.28373 0.0
H225 H 0.28278 0.06623 0.34509 0.0
H226 H 0.33239 0.1028 0.22432 0.0
H227 H 0.2998 0.1168 0.16123 0.0
H228 H 0.24487 0.05576 -0.00053 0.0
H229 H 0.27222 0.04591 0.91649 0.0
H230 H 0.29362 0.11773 0.89887 0.0
H231 H 0.26731 0.127 0.98512 0.0
N232 N 0.2218 0.09143 0.07667 0.0
N233 N 0.23111 0.09733 0.18289 0.0
N234 N 0.26065 0.10079 0.10698 0.0
C235 C 0.21483 0.0929 0.13764 0.0
C236 C 0.2541 0.10115 0.16796 0.0
C237 C 0.24472 0.09617 0.06122 0.0
C238 C 0.19066 0.08658 0.15736 0.0
C239 C 0.18005 0.0658 0.1376 0.0
C240 C 0.15988 0.05702 0.1682 0.0
C241 C 0.14982 0.06924 0.21762 0.0
C242 C 0.15943 0.09077 0.2342 0.0
C243 C 0.17985 0.09927 0.20474 0.0
C244 C 0.27253 0.09955 0.21663 0.0
C245 C 0.26808 0.08653 0.27143 0.0
C246 C 0.28678 0.07803 0.30672 0.0
C247 C 0.31023 0.08269 0.2883 0.0
C248 C 0.31452 0.09819 0.23832 0.0
C249 C 0.29585 0.10644 0.20257 0.0
C250 C 0.25395 0.09212 -0.00192 0.0
C251 C 0.25476 0.06949 0.97596 0.0
C252 C 0.57716 0.32084 0.22682 0.0
C253 C 0.56691 0.31677 0.28589 0.0
C254 C 0.56092 0.29402 0.30389 0.0
C255 C 0.56321 0.27598 0.26157 0.0
H256 H 0.58218 0.2002 0.20466 0.0
H257 H 0.57195 0.16259 0.24934 0.0
H258 H 0.51091 0.15793 0.12861 0.0
H259 H 0.52152 0.1958 0.0827 0.0
H260 H 0.52145 0.24465 0.96716 0.0
H261 H 0.51021 0.26711 0.874 0.0
H262 H 0.57454 0.30792 0.89062 0.0
H263 H 0.58548 0.28577 0.98273 0.0
H264 H 0.58574 0.30679 0.13756 0.0
H265 H 0.58188 0.3382 0.21164 0.0
H266 H 0.55321 0.2904 0.34948 0.0
H267 H 0.557 0.2589 0.27554 0.0
N268 N 0.56381 0.24046 0.16612 0.0
N269 N 0.5538 0.23225 0.06147 0.0
N270 N 0.56532 0.26979 0.09053 0.0
C271 C 0.5571 0.22502 0.12168 0.0
C272 C 0.55841 0.25467 0.04569 0.0
C273 C 0.56785 0.26292 0.15091 0.0
C274 C 0.55255 0.20087 0.14062 0.0
C275 C 0.56685 0.19094 0.18672 0.0
C276 C 0.56108 0.16934 0.21195 0.0
C277 C 0.54063 0.15738 0.19243 0.0
C278 C 0.52676 0.16686 0.14443 0.0
C279 C 0.53286 0.18839 0.11806 0.0
C280 C 0.55424 0.26364 0.98201 0.0
C281 C 0.53346 0.25792 0.94932 0.0
C282 C 0.52697 0.27086 0.89647 0.0
C283 C 0.54143 0.28935 0.87518 0.0
C284 C 0.56312 0.29366 0.90522 0.0
C285 C 0.56936 0.28105 0.95825 0.0
C286 C 0.57124 0.28044 0.20022 0.0
C287 C 0.57921 0.30285 0.18425 0.0
Zn288 Zn 0.00548 0.02324 0.62623 0.0
Zn289 Zn 0.98879 0.9796 0.55607 0.0
C290 C -0.0029 0.06096 0.70041 0.0
O291 O 0.97595 0.05185 0.69163 0.0
C292 C 0.99606 0.94304 0.47916 0.0
O293 O 0.01721 0.95117 0.49321 0.0
O294 O 0.98638 0.0391 0.55922 0.0
O295 O 0.03416 0.01056 0.58336 0.0
O296 O 0.0107 0.00055 0.50587 0.0
C297 C -0.00182 0.05572 0.53457 0.0
O298 O 0.02009 0.05959 0.55215 0.0
O299 O 0.01488 0.05028 0.68017 0.0
C300 C 0.99125 0.94514 0.64171 0.0
O301 O 0.96932 0.94549 0.6218 0.0
O302 O 0.00582 0.9604 0.62096 0.0
O303 O 0.96107 0.99285 0.60274 0.0
O304 O 0.98513 0.00224 0.6796 0.0
O305 O 0.97823 0.95435 0.49646 0.0
C306 C 0.03082 0.00745 0.5251 0.0
C307 C 0.96484 -0.00449 0.66114 0.0
Zn308 Zn 0.46657 0.01674 0.60196 0.0
Zn309 Zn 0.51938 0.98737 0.55589 0.0
C310 C 0.42727 0.02035 0.67919 0.0
O311 O 0.42766 -0.00181 0.66719 0.0
C312 C 0.55991 0.98293 0.48679 0.0
O313 O 0.56138 0.00366 0.51091 0.0
O314 O 0.4437 0.00152 0.54281 0.0
O315 O 0.48563 0.03999 0.55218 0.0
O316 O 0.51445 0.01852 0.51643 0.0
C317 C 0.44497 0.00315 0.48357 0.0
O318 O 0.46528 0.00883 0.45751 0.0
O319 O 0.44401 0.0333 0.65859 0.0
C320 C 0.54446 0.96844 0.64916 0.0
O321 O 0.53476 0.95132 0.61788 0.0
O322 O 0.54003 0.98901 0.63245 0.0
O323 O 0.49078 0.9681 0.58334 0.0
O324 O 0.4829 0.99358 0.65555 0.0
O325 O 0.5412 0.97083 0.49634 0.0
C326 C 0.50324 0.03724 0.51639 0.0
C327 C 0.48368 0.97274 0.63834 0.0
Zn328 Zn 0.49085 0.4768 0.61158 0.0
Zn329 Zn 0.49604 0.52686 0.55145 0.0
C330 C 0.50918 0.43855 0.66914 0.0
O331 O 0.52783 0.45068 0.65085 0.0
C332 C 0.4833 0.56554 0.48619 0.0
O333 O 0.46323 0.55623 0.50569 0.0
O334 O 0.50996 0.46644 0.53701 0.0
O335 O 0.45858 0.48488 0.57961 0.0
O336 O 0.47394 0.50588 0.50265 0.0
C337 C 0.49914 0.44976 0.51039 0.0
O338 O 0.47774 0.44414 0.52947 0.0
O339 O 0.48888 0.44713 0.66186 0.0
C340 C 0.49214 0.55881 0.64417 0.0
O341 O 0.51367 0.5616 0.62212 0.0
O342 O 0.47945 0.54214 0.62374 0.0
O343 O 0.52709 0.51555 0.5858 0.0
O344 O 0.50859 0.4994 0.66565 0.0
O345 O 0.50219 0.55452 0.49503 0.0
C346 C 0.45742 0.49288 0.52401 0.0
C347 C 0.5264 0.51039 0.64387 0.0
Zn348 Zn 0.03512 0.50276 0.58516 0.0
Zn349 Zn 0.95961 0.50703 0.56979 0.0
C350 C 0.07087 0.49344 0.66966 0.0
O351 O 0.07179 0.51597 0.66271 0.0
C352 C 0.92429 0.51609 0.48412 0.0
O353 O 0.92378 0.49354 0.49073 0.0
O354 O 0.05914 0.51414 0.5231 0.0
O355 O 0.00908 0.48566 0.53913 0.0
O356 O 0.97138 0.48082 0.51875 0.0
C357 C 0.05649 0.50971 0.46542 0.0
O358 O 0.03504 0.5062 0.44376 0.0
O359 O 0.05457 0.48213 0.64161 0.0
C360 C 0.93747 0.49745 0.68889 0.0
O361 O 0.95869 0.50064 0.71246 0.0
O362 O 0.93517 0.49569 0.63004 0.0
O363 O 0.98512 0.52416 0.61868 0.0
O364 O 0.02314 0.5285 0.63756 0.0
O365 O 0.94032 0.52761 0.51263 0.0
C366 C 0.99259 0.47499 0.51039 0.0
C367 C 0.00197 0.53425 0.64763 0.0
H368 H 0.10297 0.0792 0.2226 0.0
H369 H 0.07862 0.01307 0.54218 0.0
H370 H 0.15552 0.03569 0.30473 0.0
H371 H 0.02392 0.01937 0.40277 0.0
H372 H 0.10766 0.02697 0.46416 0.0
H373 H 0.07362 0.06298 0.29697 0.0
C374 C 0.10815 0.06604 0.2559 0.0
C375 C 0.13141 0.05843 0.25748 0.0
C376 C 0.08927 0.02521 0.45091 0.0
C377 C 0.09854 0.04052 0.34313 0.0
C378 C 0.07274 0.01739 0.4953 0.0
C379 C 0.04885 0.01509 0.4789 0.0
C380 C 0.08171 0.03134 0.39044 0.0
C381 C 0.04216 0.02087 0.41741 0.0
C382 C 0.09154 0.05686 0.29816 0.0
C383 C 0.13758 0.04168 0.30193 0.0
N384 N 0.05845 0.029 0.37559 0.0
N385 N 0.12128 0.03341 0.34359 0.0
H386 H 0.49706 0.14773 0.24192 0.0
H387 H 0.5418 0.03921 0.43929 0.0
H388 H 0.56676 0.12006 0.2249 0.0
H389 H 0.47748 0.07468 0.48052 0.0
H390 H 0.54921 0.06587 0.35227 0.0
H391 H 0.48698 0.11724 0.3181 0.0
C392 C 0.51004 0.1349 0.25314 0.0
C393 C 0.53284 0.13648 0.22762 0.0
C394 C 0.53352 0.06789 0.38048 0.0
C395 C 0.52165 0.10197 0.31546 0.0
C396 C 0.52932 0.05274 0.43049 0.0
C397 C 0.50908 0.05481 0.46779 0.0
C398 C 0.51731 0.08521 0.36723 0.0
C399 C 0.49346 0.07259 0.45358 0.0
C400 C 0.50439 0.11769 0.29716 0.0
C401 C 0.54908 0.11957 0.24418 0.0
N402 N 0.49788 0.08708 0.40431 0.0
N403 N 0.54324 0.10313 0.28745 0.0
H404 H 0.35302 0.47166 0.23039 0.0
H405 H 0.42954 0.4539 0.53607 0.0
H406 H 0.37201 0.40412 0.29802 0.0
H407 H 0.44351 0.51193 0.41245 0.0
H408 H 0.40252 0.4377 0.45779 0.0
H409 H 0.38189 0.48883 0.30254 0.0
C410 C 0.36345 0.46038 0.25944 0.0
C411 C 0.35972 0.43633 0.25842 0.0
C412 C 0.41148 0.45401 0.448 0.0
C413 C 0.3921 0.45604 0.34264 0.0
C414 C 0.42674 0.46337 0.49282 0.0
C415 C 0.43894 0.48423 0.4806 0.0
C416 C 0.40793 0.46584 0.3912 0.0
C417 C 0.43458 0.49572 0.42359 0.0
C418 C 0.37976 0.47025 0.30103 0.0
C419 C 0.37367 0.42274 0.29817 0.0
N420 N 0.41933 0.48643 0.38103 0.0
N421 N 0.38894 0.43278 0.33922 0.0
H422 H 0.97937 0.38111 0.20092 0.0
H423 H 0.03535 0.45606 0.47989 0.0
H424 H 0.04961 0.37078 0.27219 0.0
H425 H 0.96158 0.45483 0.42904 0.0
H426 H 0.04289 0.42865 0.39553 0.0
H427 H 0.97493 0.413 0.27359 0.0
C428 C 0.99405 0.38587 0.23096 0.0
C429 C 0.01482 0.37317 0.23087 0.0
C430 C 0.02507 0.43441 0.40307 0.0
C431 C 0.00971 0.40936 0.31518 0.0
C432 C 0.02075 0.44999 0.45128 0.0
C433 C -0.00223 0.45766 0.46193 0.0
C434 C 0.0063 0.42659 0.36517 0.0
C435 C 0.97956 0.44931 0.42306 0.0
C436 C 0.99143 0.40392 0.27297 0.0
C437 C 0.03317 0.37994 0.27143 0.0
N438 N 0.98422 0.4343 0.37657 0.0
N439 N 0.03014 0.39748 0.3123 0.0
H440 H 0.84275 0.93502 0.84613 0.0
H441 H 0.96705 -0.00034 0.7887 0.0
H442 H 0.88366 0.96533 0.99556 0.0
H443 H 0.92229 0.97332 0.64094 0.0
H444 H 0.93847 0.98514 0.86606 0.0
H445 H 0.87389 0.94584 0.77198 0.0
C446 C 0.85848 0.94384 0.86326 0.0
C447 C 0.86063 0.94953 0.92674 0.0
C448 C 0.93491 0.98254 0.81674 0.0
C449 C 0.89627 0.96229 0.84201 0.0
C450 C 0.95117 0.99089 0.77243 0.0
C451 C 0.94703 0.9878 0.70806 0.0
C452 C 0.91433 0.97096 0.79664 0.0
C453 C 0.92618 0.97625 0.68992 0.0
C454 C 0.87622 0.95007 0.82093 0.0
C455 C 0.88141 0.96069 0.94687 0.0
N456 N 0.91065 0.96825 0.73397 0.0
N457 N 0.8984 0.96694 0.90441 0.0
H458 H 0.43908 0.89079 0.95867 0.0
H459 H 0.49454 0.92673 0.63054 0.0
H460 H 0.49599 0.85331 0.87647 0.0
H461 H 0.46541 0.97685 0.75562 0.0
H462 H 0.49144 0.89775 0.71465 0.0
H463 H 0.44529 0.92146 0.88002 0.0
C464 C 0.4531 0.88926 0.92454 0.0
C465 C 0.46715 0.86968 0.92395 0.0
C466 C 0.48585 0.91515 0.72351 0.0
C467 C 0.47385 0.90409 0.83319 0.0
C468 C 0.48752 0.93166 0.67553 0.0
C469 C 0.48056 0.95434 0.68629 0.0
C470 C 0.47656 0.92125 0.78194 0.0
C471 C 0.47123 0.95964 0.74535 0.0
C472 C 0.4566 0.90665 0.87973 0.0
C473 C 0.48499 0.86831 0.87867 0.0
N474 N 0.46939 0.94319 0.79083 0.0
N475 N 0.48764 0.88516 0.83441 0.0
H476 H 0.6107 0.54514 0.97183 0.0
H477 H 0.56536 0.53743 0.6159 0.0
H478 H 0.64873 0.57312 0.81244 0.0
H479 H 0.52895 0.50428 0.77117 0.0
H480 H 0.5946 0.55298 0.68904 0.0
H481 H 0.57856 0.53291 0.90117 0.0
C482 C 0.61211 0.54894 0.92215 0.0
C483 C 0.63245 0.55986 0.89771 0.0
C484 C 0.58022 0.5423 0.70719 0.0
C485 C 0.59609 0.54592 0.81687 0.0
C486 C 0.56355 0.53334 0.66532 0.0
C487 C 0.54473 0.51941 0.68727 0.0
C488 C 0.57812 0.53731 0.77161 0.0
C489 C 0.54322 0.51486 0.75204 0.0
C490 C 0.5939 0.54185 0.88182 0.0
C491 C 0.63349 0.56438 0.833 0.0
N492 N 0.5597 0.52375 0.79189 0.0
N493 N 0.61567 0.5573 0.7949 0.0
H494 H 0.01942 0.62341 0.96518 0.0
H495 H 0.95913 0.55018 0.68933 0.0
H496 H 0.94625 0.63022 0.91387 0.0
H497 H 0.03416 0.55564 0.72344 0.0
H498 H 0.95256 0.57561 0.77877 0.0
H499 H 0.02326 0.59344 0.8869 0.0
C500 C 0.00398 0.61822 0.93851 0.0
C501 C 0.9825 0.62946 0.94594 0.0
C502 C 0.97043 0.57122 0.76641 0.0
C503 C 0.98695 0.59547 0.85467 0.0
C504 C 0.97421 0.55679 0.71523 0.0
C505 C -0.00275 0.55081 0.69849 0.0
C506 C 0.98982 0.5796 0.80113 0.0
C507 C 0.01608 0.5598 0.73416 0.0
C508 C 0.00626 0.60129 0.89312 0.0
C509 C 0.96321 0.6222 0.9091 0.0
N510 N 0.01194 0.57365 0.78361 0.0
N511 N 0.96593 0.60579 0.86466 0.0
H512 H -0.0028 0.14408 0.2177 0.0
H513 H 0.97573 0.09495 0.56218 0.0
H514 H 0.96384 0.18338 0.36258 0.0
H515 H -0.00115 0.05379 0.40799 0.0
H516 H 0.96752 0.12654 0.48861 0.0
H517 H 0.9949 0.11008 0.28501 0.0
C518 C 0.98904 0.14551 0.26336 0.0
C519 C 0.98067 0.16669 0.28438 0.0
C520 C 0.97383 0.11042 0.47056 0.0
C521 C 0.97838 0.1277 0.36252 0.0
C522 C 0.97828 0.09239 0.5124 0.0
C523 C 0.98758 0.07183 0.49043 0.0
C524 C 0.97918 0.10786 0.4067 0.0
C525 C 0.99137 0.06937 0.42618 0.0
C526 C 0.98783 0.12605 0.30197 0.0
C527 C 0.97081 0.16751 0.34471 0.0
N528 N 0.98737 0.08729 0.38649 0.0
N529 N 0.97008 0.14833 0.38185 0.0
H530 H 0.34795 0.06501 0.22662 0.0
H531 H 0.39979 0.00223 0.52935 0.0
H532 H 0.31667 0.06858 0.41085 0.0
H533 H 0.43974 0.01414 0.35918 0.0
H534 H 0.3656 0.01935 0.47946 0.0
H535 H 0.3788 0.04095 0.26944 0.0
C536 C 0.34771 0.06104 0.27632 0.0
C537 C 0.32981 0.06919 0.31536 0.0
C538 C 0.38175 0.01791 0.4528 0.0
C539 C 0.36477 0.04086 0.36415 0.0
C540 C 0.40126 0.00793 0.48097 0.0
C541 C 0.42287 0.00715 0.44875 0.0
C542 C 0.38379 0.02701 0.39187 0.0
C543 C 0.42356 0.01464 0.38607 0.0
C544 C 0.3652 0.04702 0.30049 0.0
C545 C 0.33005 0.06269 0.37892 0.0
N546 N 0.40438 0.02456 0.3599 0.0
N547 N 0.34729 0.04893 0.40136 0.0
H548 H 0.5237 0.32203 0.33749 0.0
H549 H 0.54696 0.4438 0.49456 0.0
H550 H 0.59154 0.35651 0.31769 0.0
H551 H 0.47869 0.41891 0.43215 0.0
H552 H 0.56529 0.41151 0.43991 0.0
H553 H 0.50854 0.35609 0.388 0.0
C554 C 0.53555 0.33665 0.34487 0.0
C555 C 0.55894 0.33642 0.32367 0.0
C556 C 0.54635 0.41344 0.4376 0.0
C557 C 0.54152 0.37575 0.38039 0.0
C558 C 0.53592 0.4319 0.46824 0.0
C559 C 0.51126 0.43389 0.46819 0.0
C560 C 0.53191 0.39693 0.40764 0.0
C561 C 0.49773 0.41788 0.43405 0.0
C562 C 0.52679 0.35622 0.37291 0.0
C563 C 0.57336 0.35608 0.3333 0.0
N564 N 0.5082 0.39996 0.40586 0.0
N565 N 0.56442 0.37503 0.36121 0.0
H566 H 0.13294 0.39805 0.32127 0.0
H567 H 0.10347 0.51439 0.49312 0.0
H568 H 0.18771 0.4481 0.3666 0.0
H569 H 0.05497 0.47987 0.36722 0.0
H570 H 0.13461 0.48872 0.45899 0.0
H571 H 0.10344 0.42531 0.35562 0.0
C572 C 0.13881 0.41463 0.33902 0.0
C573 C 0.16288 0.42085 0.34012 0.0
C574 C 0.11721 0.48705 0.43833 0.0
C575 C 0.12923 0.452 0.37961 0.0
C576 C 0.09951 0.50179 0.45727 0.0
C577 C 0.07654 0.49914 0.43333 0.0
C578 C 0.11173 0.46937 0.39605 0.0
C579 C 0.07237 0.4825 0.38712 0.0
C580 C 0.12196 0.43019 0.35829 0.0
C581 C 0.16942 0.4424 0.3652 0.0
N582 N 0.08971 0.46795 0.37081 0.0
N583 N 0.15267 0.45727 0.38366 0.0
H584 H 0.06084 0.8392 0.8636 0.0
H585 H 0.96247 0.91473 0.70266 0.0
H586 H 0.99081 0.81418 0.81719 0.0
H587 H 0.03626 0.93139 0.67254 0.0
H588 H 0.97337 0.8801 0.75888 0.0
H589 H 0.05326 0.87472 0.80343 0.0
C590 C 0.04404 0.84106 0.8401 0.0
C591 C 0.02643 0.82372 0.84524 0.0
C592 C 0.98724 0.89126 0.74 0.0
C593 C 0.01759 0.86417 0.77808 0.0
C594 C 0.98105 0.91116 0.70811 0.0
C595 C -0.0015 0.92585 0.68224 0.0
C596 C 0.01111 0.88593 0.74669 0.0
C597 C 0.02228 0.92045 0.69174 0.0
C598 C 0.03977 0.86125 0.80592 0.0
C599 C 0.005 0.82691 0.81389 0.0
N600 N 0.02796 0.90078 0.72323 0.0
N601 N 0.00112 0.84682 0.78232 0.0
H602 H 0.64059 0.88971 0.86926 0.0
H603 H 0.58228 -0.00468 0.68624 0.0
H604 H 0.67616 0.95545 0.8397 0.0
H605 H 0.54794 0.92909 0.71694 0.0
H606 H 0.61581 0.98239 0.74924 0.0
H607 H 0.60573 0.90471 0.81715 0.0
C608 C 0.64107 0.90728 0.85158 0.0
C609 C 0.6613 0.92132 0.8586 0.0
C610 C 0.6008 0.9708 0.74273 0.0
C611 C 0.62147 0.93869 0.7992 0.0
C612 C 0.58161 0.97827 0.70738 0.0
C613 C 0.56252 0.96314 0.69613 0.0
C614 C 0.60069 0.94814 0.76681 0.0
C615 C 0.56251 0.94116 0.72397 0.0
C616 C 0.62117 0.91587 0.82193 0.0
C617 C 0.66104 0.94391 0.83438 0.0
N618 N 0.58139 0.93426 0.75761 0.0
N619 N 0.64141 0.95192 0.80583 0.0
H620 H 0.40701 0.64954 0.87133 0.0
H621 H 0.51506 0.59696 0.68749 0.0
H622 H 0.46798 0.68903 0.80787 0.0
H623 H 0.44671 0.5626 0.68951 0.0
H624 H 0.4984 0.62923 0.74222 0.0
H625 H 0.42105 0.61631 0.81231 0.0
C626 C 0.42316 0.65129 0.84441 0.0
C627 C 0.43633 0.67209 0.84442 0.0
C628 C 0.48698 0.61466 0.73081 0.0
C629 C 0.45258 0.63424 0.77812 0.0
C630 C 0.49652 0.59609 0.69986 0.0
C631 C 0.48224 0.57703 0.68361 0.0
C632 C 0.46294 0.61425 0.74638 0.0
C633 C 0.45835 0.57696 0.70121 0.0
C634 C 0.43112 0.63238 0.81083 0.0
C635 C 0.45708 0.67348 0.80863 0.0
N636 N 0.44939 0.59535 0.73178 0.0
N637 N 0.46466 0.65477 0.77755 0.0
H638 H 0.84799 0.57249 0.93733 0.0
H639 H 0.89172 0.49878 0.64883 0.0
H640 H 0.81936 0.57844 0.75024 0.0
H641 H 0.93583 0.5133 0.80946 0.0
H642 H 0.86042 0.52096 0.6959 0.0
H643 H 0.87695 0.54576 0.89845 0.0
C644 C 0.84801 0.56858 0.88782 0.0
C645 C 0.83122 0.57798 0.84692 0.0
C646 C 0.87685 0.51902 0.72114 0.0
C647 C 0.8638 0.5465 0.80299 0.0
C648 C 0.89466 0.50615 0.69471 0.0
C649 C 0.91665 0.50456 0.72474 0.0
C650 C 0.88094 0.53012 0.77826 0.0
C651 C 0.91928 0.51427 0.78436 0.0
C652 C 0.86438 0.55302 0.86597 0.0
C653 C 0.83177 0.57152 0.78368 0.0
N654 N 0.9017 0.52692 0.80891 0.0
N655 N 0.84772 0.55608 0.76371 0.0
H656 H 0.04329 0.20112 0.78382 0.0
H657 H 0.96285 0.08666 0.75288 0.0
H658 H 0.97154 0.19395 0.85067 0.0
H659 H 0.03639 0.08971 0.70012 0.0
H660 H 0.96545 0.127 0.78257 0.0
H661 H 0.0405 0.16167 0.74395 0.0
C662 C 0.02687 0.19144 0.7894 0.0
C663 C 0.00766 0.201 0.82096 0.0
C664 C 0.98109 0.11889 0.7647 0.0
C665 C 0.00443 0.15583 0.77573 0.0
C666 C 0.97964 0.09578 0.74798 0.0
C667 C -0.00054 0.08474 0.7242 0.0
C668 C 0.00252 0.13123 0.75756 0.0
C669 C 0.02071 0.0975 0.71873 0.0
C670 C 0.02532 0.1689 0.76675 0.0
C671 C 0.98674 0.18765 0.826 0.0
N672 N 0.02168 0.12012 0.73516 0.0
N673 N 0.98579 0.16578 0.80416 0.0
H674 H 0.33014 0.10089 0.89506 0.0
H675 H 0.38549 -0.00171 0.70576 0.0
H676 H 0.28792 0.04542 0.81623 0.0
H677 H 0.42129 0.06435 0.72323 0.0
H678 H 0.35052 0.0143 0.7538 0.0
H679 H 0.36415 0.08745 0.83738 0.0
C680 C 0.32777 0.08615 0.86482 0.0
C681 C 0.30587 0.07432 0.86091 0.0
C682 C 0.36599 0.02533 0.74698 0.0
C683 C 0.34534 0.05835 0.79633 0.0
C684 C 0.38606 0.01617 0.71995 0.0
C685 C 0.40643 0.02999 0.7106 0.0
C686 C 0.36626 0.04844 0.76567 0.0
C687 C 0.406 0.05307 0.72964 0.0
C688 C 0.34738 0.07837 0.83231 0.0
C689 C 0.3044 0.05492 0.82196 0.0
N690 N 0.38626 0.06156 0.75665 0.0
N691 N 0.32389 0.04743 0.79179 0.0
H692 H 0.4978 0.30854 0.86729 0.0
H693 H 0.54881 0.41314 0.66326 0.0
H694 H 0.56605 0.3093 0.77769 0.0
H695 H 0.47616 0.40914 0.72394 0.0
H696 H 0.55408 0.3738 0.69938 0.0
H697 H 0.4876 0.34302 0.8071 0.0
C698 C 0.51039 0.31557 0.83364 0.0
C699 C 0.53296 0.30625 0.82816 0.0
C700 C 0.53692 0.38139 0.70462 0.0
C701 C 0.52165 0.346 0.76056 0.0
C702 C 0.53392 0.404 0.68443 0.0
C703 C 0.51207 0.41458 0.69141 0.0
C704 C 0.51801 0.36921 0.73284 0.0
C705 C 0.49336 0.40168 0.71823 0.0
C706 C 0.50464 0.3354 0.79976 0.0
C707 C 0.54864 0.3162 0.78428 0.0
N708 N 0.49682 0.3797 0.73863 0.0
N709 N 0.54283 0.33573 0.75294 0.0
H710 H 0.19402 0.46769 0.89563 0.0
H711 H 0.08043 0.44701 0.6776 0.0
H712 H 0.17451 0.40102 0.82115 0.0
H713 H 0.10495 0.51366 0.74173 0.0
H714 H 0.11406 0.42936 0.73097 0.0
H715 H 0.16161 0.48459 0.83773 0.0
C716 C 0.18324 0.45661 0.86619 0.0
C717 C 0.18716 0.43282 0.86348 0.0
C718 C 0.11201 0.44784 0.73333 0.0
C719 C 0.14927 0.45211 0.79807 0.0
C720 C 0.09274 0.4579 0.70321 0.0
C721 C 0.08985 0.48186 0.70507 0.0
C722 C 0.12842 0.46186 0.76565 0.0
C723 C 0.10644 0.49513 0.73873 0.0
C724 C 0.16447 0.46627 0.83363 0.0
C725 C 0.17205 0.41938 0.82547 0.0
N726 N 0.12494 0.48498 0.7675 0.0
N727 N 0.15372 0.42917 0.7946 0.0
H728 H 0.0245 0.80213 0.39395 0.0
H729 H 0.95601 0.92024 0.4357 0.0
H730 H 0.96018 0.81584 0.29332 0.0
H731 H 0.03052 0.91161 0.46811 0.0
H732 H 0.95317 0.87989 0.4008 0.0
H733 H 0.02205 0.83977 0.44337 0.0
C734 C 0.00966 0.81291 0.38296 0.0
C735 C 0.99275 0.80596 0.33862 0.0
C736 C 0.97007 0.88697 0.41566 0.0
C737 C 0.98989 0.84915 0.39487 0.0
C738 C 0.97173 0.90995 0.43526 0.0
C739 C 0.99357 0.91939 0.45433 0.0
C740 C 0.99029 0.87336 0.41644 0.0
C741 C 0.01334 0.90522 0.45334 0.0
C742 C 0.00831 0.83443 0.41101 0.0
C743 C 0.97362 0.82048 0.32724 0.0
N744 N 0.01119 0.88298 0.43504 0.0
N745 N 0.97285 0.84156 0.35459 0.0
H746 H 0.67595 0.89788 0.36948 0.0
H747 H 0.59669 0.00735 0.43631 0.0
H748 H 0.69206 0.96664 0.30032 0.0
H749 H 0.57128 0.93754 0.46727 0.0
H750 H 0.63326 0.99261 0.39427 0.0
H751 H 0.63946 0.91208 0.41531 0.0
C752 C 0.67199 0.91597 0.36428 0.0
C753 C 0.68725 0.93102 0.33061 0.0
C754 C 0.61969 0.98045 0.40988 0.0
C755 C 0.64547 0.94735 0.38329 0.0
C756 C 0.59874 0.98886 0.43381 0.0
C757 C 0.58086 0.97364 0.45519 0.0
C758 C 0.62304 0.95658 0.40773 0.0
C759 C 0.58454 0.94986 0.45078 0.0
C760 C 0.65111 0.92403 0.39042 0.0
C761 C 0.68124 0.95436 0.32652 0.0
N762 N 0.60532 0.94203 0.42788 0.0
N763 N 0.66085 0.96173 0.35223 0.0
H764 H 0.50782 0.69219 0.27994 0.0
H765 H 0.449 0.59697 0.49962 0.0
H766 H 0.44766 0.70408 0.39829 0.0
H767 H 0.519 0.58936 0.4239 0.0
H768 H 0.44954 0.63692 0.46499 0.0
H769 H 0.51464 0.65612 0.33684 0.0
C770 C 0.49647 0.68758 0.31914 0.0
C771 C 0.47689 0.70097 0.3338 0.0
C772 C 0.46488 0.62664 0.45609 0.0
C773 C 0.48421 0.65948 0.39773 0.0
C774 C 0.4645 0.60369 0.47531 0.0
C775 C 0.48387 0.5897 0.4638 0.0
C776 C 0.48465 0.63576 0.4241 0.0
C777 C 0.50362 0.59953 0.43317 0.0
C778 C 0.50025 0.66687 0.35121 0.0
C779 C 0.46266 0.69403 0.38463 0.0
N780 N 0.5034 0.62195 0.41363 0.0
N781 N 0.46636 0.67359 0.41402 0.0
H782 H 0.79818 0.53847 0.26808 0.0
H783 H 0.91315 0.56224 0.47895 0.0
H784 H 0.81626 0.60569 0.34132 0.0
H785 H 0.89095 0.49541 0.41082 0.0
H786 H 0.87855 0.57908 0.42789 0.0
H787 H 0.83203 0.52274 0.32213 0.0
C788 C 0.80897 0.54991 0.2965 0.0
C789 C 0.80414 0.57351 0.30012 0.0
C790 C 0.88135 0.56074 0.42408 0.0
C791 C 0.84373 0.55555 0.36108 0.0
C792 C 0.90116 0.55116 0.45286 0.0
C793 C 0.90496 0.52736 0.44933 0.0
C794 C 0.8653 0.54642 0.39151 0.0
C795 C 0.88876 0.51382 0.41516 0.0
C796 C 0.82857 0.54092 0.32683 0.0
C797 C 0.81935 0.58745 0.33652 0.0
N798 N 0.86971 0.5235 0.38784 0.0
N799 N 0.83849 0.5783 0.36533 0.0
loop_
_geom_bond_atom_site_label_1
_geom_bond_atom_site_label_2
_geom_bond_distance
_geom_bond_site_symmetry_2
_ccdc_geom_bond_type
C0 C1 1.384 . S
C0 H13 0.947 . S
C0 C35 1.382 . S
C1 C0 1.384 . S
C1 C2 1.378 . S
C2 C1 1.378 . S
C2 C3 1.378 . S
C2 H14 0.952 . S
C3 C2 1.378 . S
C3 H15 0.950 . S
C3 C34 1.383 . S
H4 C23 0.947 . S
H5 C24 0.946 . S
H6 C26 0.953 . S
H7 C27 0.945 . S
H8 C29 0.952 . S
H9 C30 0.949 . S
H10 C32 0.950 . S
H11 C33 0.948 . S
H12 C35 0.951 . S
H13 C0 0.947 . S
H14 C2 0.952 . S
H15 C3 0.950 . S
N16 C19 1.382 1_554 S
N16 C21 1.363 . S
N17 C19 1.371 . S
N17 C20 1.372 . S
N18 C20 1.361 1_554 S
N18 C21 1.377 . S
C19 N16 1.382 1_556 S
C19 N17 1.371 . S
C19 C22 1.480 . S
C20 N17 1.372 . S
C20 N18 1.361 1_556 S
C20 C28 1.457 . S
C21 N16 1.363 . S
C21 N18 1.377 . S
C21 C34 1.479 . S
C22 C19 1.480 . S
C22 C23 1.383 1_556 S
C22 C27 1.385 . S
C23 H4 0.947 . S
C23 C22 1.383 1_554 S
C23 C24 1.388 . S
C24 H5 0.946 . S
C24 C23 1.388 . S
C24 C25 1.384 1_554 S
C25 C24 1.384 1_556 S
C25 C26 1.377 . S
C26 H6 0.953 . S
C26 C25 1.377 . S
C26 C27 1.369 . S
C27 H7 0.945 . S
C27 C22 1.385 . S
C27 C26 1.369 . S
C28 C20 1.457 . S
C28 C29 1.372 . S
C28 C33 1.364 . S
C29 H8 0.952 . S
C29 C28 1.372 . S
C29 C30 1.389 . S
C30 H9 0.949 . S
C30 C29 1.389 . S
C30 C31 1.387 . S
C31 C30 1.387 . S
C31 C32 1.372 . S
C32 H10 0.950 . S
C32 C31 1.372 . S
C32 C33 1.379 . S
C33 H11 0.948 . S
C33 C28 1.364 . S
C33 C32 1.379 . S
C34 C3 1.383 . S
C34 C21 1.479 . S
C34 C35 1.398 . S
C35 C0 1.382 . S
C35 H12 0.951 . S
C35 C34 1.398 . S
C36 C37 1.383 1_655 S
C36 H49 0.948 . S
C36 C71 1.382 1_655 S
C37 C36 1.383 1_455 S
C37 C38 1.378 . S
C38 C37 1.378 . S
C38 C39 1.378 . S
C38 H50 0.952 . S
C39 C38 1.378 . S
C39 H51 0.950 . S
C39 C70 1.383 . S
H40 C59 0.947 . S
H41 C60 0.951 . S
H42 C62 0.953 . S
H43 C63 0.945 . S
H44 C65 0.949 1_655 S
H45 C66 0.956 . S
H46 C68 0.950 . S
H47 C69 0.948 . S
H48 C71 0.951 1_655 S
H49 C36 0.948 . S
H50 C38 0.952 . S
H51 C39 0.950 . S
N52 C55 1.382 . S
N52 C57 1.363 . S
N53 C55 1.371 1_556 S
N53 C56 1.372 . S
N54 C56 1.361 1_554 S
N54 C57 1.377 . S
C55 N52 1.382 . S
C55 N53 1.371 1_554 S
C55 C58 1.478 1_554 S
C56 N53 1.372 . S
C56 N54 1.361 1_556 S
C56 C64 1.457 . S
C57 N52 1.363 . S
C57 N54 1.377 . S
C57 C70 1.479 . S
C58 C55 1.478 1_556 S
C58 C59 1.377 1_556 S
C58 C63 1.392 . S
C59 H40 0.947 . S
C59 C58 1.377 1_554 S
C59 C60 1.386 1_455 S
C60 H41 0.951 . S
C60 C59 1.386 1_655 S
C60 C61 1.381 1_654 S
C61 C60 1.381 1_456 S
C61 C62 1.377 . S
C62 H42 0.953 . S
C62 C61 1.377 . S
C62 C63 1.369 . S
C63 H43 0.945 . S
C63 C58 1.392 . S
C63 C62 1.369 . S
C64 C56 1.457 . S
C64 C65 1.376 . S
C64 C69 1.364 . S
C65 H44 0.949 1_455 S
C65 C64 1.376 . S
C65 C66 1.385 1_455 S
C66 H45 0.956 . S
C66 C65 1.385 1_655 S
C66 C67 1.383 1_655 S
C67 C66 1.383 1_455 S
C67 C68 1.372 . S
C68 H46 0.950 . S
C68 C67 1.372 . S
C68 C69 1.379 . S
C69 H47 0.948 . S
C69 C64 1.364 . S
C69 C68 1.379 . S
C70 C39 1.383 . S
C70 C57 1.479 . S
C70 C71 1.398 . S
C71 C36 1.382 1_455 S
C71 H48 0.951 1_455 S
C71 C70 1.398 . S
C72 C73 1.384 . S
C72 H85 0.947 . S
C72 C107 1.382 . S
C73 C72 1.384 . S
C73 C74 1.378 . S
C74 C73 1.378 . S
C74 C75 1.378 . S
C74 H86 0.952 . S
C75 C74 1.378 . S
C75 H87 0.950 . S
C75 C106 1.383 . S
H76 C95 0.947 . S
H77 C96 0.946 . S
H78 C98 0.953 . S
H79 C99 0.945 . S
H80 C101 0.952 . S
H81 C102 0.949 . S
H82 C104 0.950 . S
H83 C105 0.948 . S
H84 C107 0.951 . S
H85 C72 0.947 . S
H86 C74 0.952 . S
H87 C75 0.950 . S
N88 C91 1.382 . S
N88 C93 1.363 . S
N89 C91 1.371 1_556 S
N89 C92 1.372 . S
N90 C92 1.361 1_554 S
N90 C93 1.377 . S
C91 N88 1.382 . S
C91 N89 1.371 1_554 S
C91 C94 1.480 1_554 S
C92 N89 1.372 . S
C92 N90 1.361 1_556 S
C92 C100 1.457 . S
C93 N88 1.363 . S
C93 N90 1.377 . S
C93 C106 1.479 . S
C94 C91 1.480 1_556 S
C94 C95 1.383 1_556 S
C94 C99 1.385 . S
C95 H76 0.947 . S
C95 C94 1.383 1_554 S
C95 C96 1.388 . S
C96 H77 0.946 . S
C96 C95 1.388 . S
C96 C97 1.384 1_554 S
C97 C96 1.384 1_556 S
C97 C98 1.377 . S
C98 H78 0.953 . S
C98 C97 1.377 . S
C98 C99 1.369 . S
C99 H79 0.945 . S
C99 C94 1.385 . S
C99 C98 1.369 . S
C100 C92 1.457 . S
C100 C101 1.372 . S
C100 C105 1.364 . S
C101 H80 0.952 . S
C101 C100 1.372 . S
C101 C102 1.389 . S
C102 H81 0.949 . S
C102 C101 1.389 . S
C102 C103 1.387 . S
C103 C102 1.387 . S
C103 C104 1.372 . S
C104 H82 0.950 . S
C104 C103 1.372 . S
C104 C105 1.379 . S
C105 H83 0.948 . S
C105 C100 1.364 . S
C105 C104 1.379 . S
C106 C75 1.383 . S
C106 C93 1.479 . S
C106 C107 1.398 . S
C107 C72 1.382 . S
C107 H84 0.951 . S
C107 C106 1.398 . S
C108 C109 1.384 . S
C108 H121 0.947 . S
C108 C143 1.382 . S
C109 C108 1.384 . S
C109 C110 1.378 . S
C110 C109 1.378 . S
C110 C111 1.378 . S
C110 H122 0.952 . S
C111 C110 1.378 . S
C111 H123 0.950 . S
C111 C142 1.383 . S
H112 C131 0.947 . S
H113 C132 0.946 . S
H114 C134 0.953 . S
H115 C135 0.945 . S
H116 C137 0.952 . S
H117 C138 0.949 . S
H118 C140 0.950 . S
H119 C141 0.948 . S
H120 C143 0.951 . S
H121 C108 0.947 . S
H122 C110 0.952 . S
H123 C111 0.950 . S
N124 C127 1.382 1_556 S
N124 C129 1.363 . S
N125 C127 1.371 . S
N125 C128 1.372 . S
N126 C128 1.361 . S
N126 C129 1.377 1_554 S
C127 N124 1.382 1_554 S
C127 N125 1.371 . S
C127 C130 1.480 . S
C128 N125 1.372 . S
C128 N126 1.361 . S
C128 C136 1.457 . S
C129 N124 1.363 . S
C129 N126 1.377 1_556 S
C129 C142 1.479 . S
C130 C127 1.480 . S
C130 C131 1.383 1_554 S
C130 C135 1.385 . S
C131 H112 0.947 . S
C131 C130 1.383 1_556 S
C131 C132 1.388 . S
C132 H113 0.946 . S
C132 C131 1.388 . S
C132 C133 1.384 . S
C133 C132 1.384 . S
C133 C134 1.377 1_556 S
C134 H114 0.953 . S
C134 C133 1.377 1_554 S
C134 C135 1.369 . S
C135 H115 0.945 . S
C135 C130 1.385 . S
C135 C134 1.369 . S
C136 C128 1.457 . S
C136 C137 1.372 . S
C136 C141 1.364 . S
C137 H116 0.952 . S
C137 C136 1.372 . S
C137 C138 1.389 . S
C138 H117 0.949 . S
C138 C137 1.389 . S
C138 C139 1.387 . S
C139 C138 1.387 . S
C139 C140 1.372 . S
C140 H118 0.950 . S
C140 C139 1.372 . S
C140 C141 1.379 . S
C141 H119 0.948 . S
C141 C136 1.364 . S
C141 C140 1.379 . S
C142 C111 1.383 . S
C142 C129 1.479 . S
C142 C143 1.398 . S
C143 C108 1.382 . S
C143 H120 0.951 . S
C143 C142 1.398 . S
C144 C145 1.384 . S
C144 H157 0.947 . S
C144 C179 1.382 1_556 S
C145 C144 1.384 . S
C145 C146 1.378 . S
C146 C145 1.378 . S
C146 C147 1.378 . S
C146 H158 0.952 . S
C147 C146 1.378 . S
C147 H159 0.950 1_556 S
C147 C178 1.383 1_556 S
H148 C167 0.947 . S
H149 C168 0.946 . S
H150 C170 0.953 . S
H151 C171 0.945 . S
H152 C173 0.952 . S
H153 C174 0.949 . S
H154 C176 0.950 . S
H155 C177 0.948 . S
H156 C179 0.951 . S
H157 C144 0.947 . S
H158 C146 0.952 . S
H159 C147 0.950 1_554 S
N160 C163 1.382 . S
N160 C165 1.363 . S
N161 C163 1.371 . S
N161 C164 1.372 . S
N162 C164 1.361 . S
N162 C165 1.377 . S
C163 N160 1.382 . S
C163 N161 1.371 . S
C163 C166 1.480 . S
C164 N161 1.372 . S
C164 N162 1.361 . S
C164 C172 1.457 . S
C165 N160 1.363 . S
C165 N162 1.377 . S
C165 C178 1.479 . S
C166 C163 1.480 . S
C166 C167 1.383 . S
C166 C171 1.385 . S
C167 H148 0.947 . S
C167 C166 1.383 . S
C167 C168 1.388 . S
C168 H149 0.946 . S
C168 C167 1.388 . S
C168 C169 1.384 . S
C169 C168 1.384 . S
C169 C170 1.377 . S
C170 H150 0.953 . S
C170 C169 1.377 . S
C170 C171 1.369 . S
C171 H151 0.945 . S
C171 C166 1.385 . S
C171 C170 1.369 . S
C172 C164 1.457 . S
C172 C173 1.372 . S
C172 C177 1.364 . S
C173 H152 0.952 . S
C173 C172 1.372 . S
C173 C174 1.389 . S
C174 H153 0.949 . S
C174 C173 1.389 . S
C174 C175 1.387 . S
C175 C174 1.387 . S
C175 C176 1.372 . S
C176 H154 0.950 . S
C176 C175 1.372 . S
C176 C177 1.379 . S
C177 H155 0.948 . S
C177 C172 1.364 . S
C177 C176 1.379 . S
C178 C147 1.383 1_554 S
C178 C165 1.479 . S
C178 C179 1.398 . S
C179 C144 1.382 1_554 S
C179 H156 0.951 . S
C179 C178 1.398 . S
C180 C181 1.384 . S
C180 H193 0.948 1_455 S
C180 C215 1.382 1_556 S
C181 C180 1.384 . S
C181 C182 1.378 . S
C182 C181 1.378 . S
C182 C183 1.378 . S
C182 H194 0.952 . S
C183 C182 1.378 . S
C183 H195 0.950 . S
C183 C214 1.383 1_556 S
H184 C203 0.947 . S
H185 C204 0.949 . S
H186 C206 0.953 . S
H187 C207 0.945 . S
H188 C209 0.947 1_655 S
H189 C210 0.954 . S
H190 C212 0.950 . S
H191 C213 0.948 . S
H192 C215 0.950 1_655 S
H193 C180 0.948 1_655 S
H194 C182 0.952 . S
H195 C183 0.950 . S
N196 C199 1.382 . S
N196 C201 1.363 . S
N197 C199 1.371 . S
N197 C200 1.372 . S
N198 C200 1.361 . S
N198 C201 1.377 . S
C199 N196 1.382 . S
C199 N197 1.371 . S
C199 C202 1.480 . S
C200 N197 1.372 . S
C200 N198 1.361 . S
C200 C208 1.457 . S
C201 N196 1.363 . S
C201 N198 1.377 . S
C201 C214 1.479 . S
C202 C199 1.480 . S
C202 C203 1.383 . S
C202 C207 1.385 . S
C203 H184 0.947 . S
C203 C202 1.383 . S
C203 C204 1.386 1_455 S
C204 H185 0.949 . S
C204 C203 1.386 1_655 S
C204 C205 1.382 1_655 S
C205 C204 1.382 1_455 S
C205 C206 1.377 . S
C206 H186 0.953 . S
C206 C205 1.377 . S
C206 C207 1.369 . S
C207 H187 0.945 . S
C207 C202 1.385 . S
C207 C206 1.369 . S
C208 C200 1.457 . S
C208 C209 1.379 . S
C208 C213 1.364 . S
C209 H188 0.947 1_455 S
C209 C208 1.379 . S
C209 C210 1.388 1_455 S
C210 H189 0.954 . S
C210 C209 1.388 1_655 S
C210 C211 1.383 1_655 S
C211 C210 1.383 1_455 S
C211 C212 1.372 . S
C212 H190 0.950 . S
C212 C211 1.372 . S
C212 C213 1.379 . S
C213 H191 0.948 . S
C213 C208 1.364 . S
C213 C212 1.379 . S
C214 C183 1.383 1_554 S
C214 C201 1.479 . S
C214 C215 1.399 . S
C215 C180 1.382 1_554 S
C215 H192 0.950 1_455 S
C215 C214 1.399 . S
C216 C217 1.384 . S
C216 H229 0.947 . S
C216 C251 1.382 1_556 S
C217 C216 1.384 . S
C217 C218 1.378 . S
C218 C217 1.378 . S
C218 C219 1.378 . S
C218 H230 0.952 . S
C219 C218 1.378 . S
C219 H231 0.950 . S
C219 C250 1.383 1_556 S
H220 C239 0.947 . S
H221 C240 0.946 . S
H222 C242 0.953 . S
H223 C243 0.945 . S
H224 C245 0.952 . S
H225 C246 0.949 . S
H226 C248 0.950 . S
H227 C249 0.948 . S
H228 C251 0.951 . S
H229 C216 0.947 . S
H230 C218 0.952 . S
H231 C219 0.950 . S
N232 C235 1.382 . S
N232 C237 1.363 . S
N233 C235 1.371 . S
N233 C236 1.372 . S
N234 C236 1.361 . S
N234 C237 1.377 . S
C235 N232 1.382 . S
C235 N233 1.371 . S
C235 C238 1.480 . S
C236 N233 1.372 . S
C236 N234 1.361 . S
C236 C244 1.457 . S
C237 N232 1.363 . S
C237 N234 1.377 . S
C237 C250 1.479 . S
C238 C235 1.480 . S
C238 C239 1.383 . S
C238 C243 1.385 . S
C239 H220 0.947 . S
C239 C238 1.383 . S
C239 C240 1.388 . S
C240 H221 0.946 . S
C240 C239 1.388 . S
C240 C241 1.384 . S
C241 C240 1.384 . S
C241 C242 1.377 . S
C242 H222 0.953 . S
C242 C241 1.377 . S
C242 C243 1.369 . S
C243 H223 0.945 . S
C243 C238 1.385 . S
C243 C242 1.369 . S
C244 C236 1.457 . S
C244 C245 1.372 . S
C244 C249 1.364 . S
C245 H224 0.952 . S
C245 C244 1.372 . S
C245 C246 1.389 . S
C246 H225 0.949 . S
C246 C245 1.389 . S
C246 C247 1.387 . S
C247 C246 1.387 . S
C247 C248 1.372 . S
C248 H226 0.950 . S
C248 C247 1.372 . S
C248 C249 1.379 . S
C249 H227 0.948 . S
C249 C244 1.364 . S
C249 C248 1.379 . S
C250 C219 1.383 1_554 S
C250 C237 1.479 . S
C250 C251 1.398 . S
C251 C216 1.382 1_554 S
C251 H228 0.951 . S
C251 C250 1.398 . S
C252 C253 1.384 . S
C252 H265 0.947 . S
C252 C287 1.382 . S
C253 C252 1.384 . S
C253 C254 1.378 . S
C254 C253 1.378 . S
C254 C255 1.378 . S
C254 H266 0.952 . S
C255 C254 1.378 . S
C255 H267 0.950 . S
C255 C286 1.383 . S
H256 C275 0.947 . S
H257 C276 0.946 . S
H258 C278 0.953 . S
H259 C279 0.945 . S
H260 C281 0.952 . S
H261 C282 0.949 . S
H262 C284 0.950 . S
H263 C285 0.948 . S
H264 C287 0.951 . S
H265 C252 0.947 . S
H266 C254 0.952 . S
H267 C255 0.950 . S
N268 C271 1.382 . S
N268 C273 1.363 . S
N269 C271 1.371 . S
N269 C272 1.372 . S
N270 C272 1.361 . S
N270 C273 1.377 . S
C271 N268 1.382 . S
C271 N269 1.371 . S
C271 C274 1.480 . S
C272 N269 1.372 . S
C272 N270 1.361 . S
C272 C280 1.457 . S
C273 N268 1.363 . S
C273 N270 1.377 . S
C273 C286 1.479 . S
C274 C271 1.480 . S
C274 C275 1.383 . S
C274 C279 1.385 . S
C275 H256 0.947 . S
C275 C274 1.383 . S
C275 C276 1.388 . S
C276 H257 0.946 . S
C276 C275 1.388 . S
C276 C277 1.384 . S
C277 C276 1.384 . S
C277 C278 1.377 . S
C278 H258 0.953 . S
C278 C277 1.377 . S
C278 C279 1.369 . S
C279 H259 0.945 . S
C279 C274 1.385 . S
C279 C278 1.369 . S
C280 C272 1.457 . S
C280 C281 1.372 1_554 S
C280 C285 1.364 . S
C281 H260 0.952 . S
C281 C280 1.372 1_556 S
C281 C282 1.389 . S
C282 H261 0.949 . S
C282 C281 1.389 . S
C282 C283 1.387 . S
C283 C282 1.387 . S
C283 C284 1.372 . S
C284 H262 0.950 . S
C284 C283 1.372 . S
C284 C285 1.379 1_556 S
C285 H263 0.948 . S
C285 C280 1.364 . S
C285 C284 1.379 1_554 S
C286 C255 1.383 . S
C286 C273 1.479 . S
C286 C287 1.398 . S
C287 C252 1.382 . S
C287 H264 0.951 . S
C287 C286 1.398 . S
Zn288 O294 1.969 . S
Zn288 O295 1.965 1_655 S
Zn288 O299 2.024 1_655 S
Zn288 O304 1.969 . S
Zn289 O296 1.969 . S
Zn289 O302 1.969 . S
Zn289 O303 1.965 1_455 S
Zn289 O305 2.024 1_455 S
C290 O291 1.229 1_455 S
C290 O299 1.058 . S
O291 C290 1.229 1_655 S
C292 O293 1.229 1_655 S
C292 O305 1.058 . S
O293 C292 1.229 1_455 S
O294 Zn288 1.969 . S
O294 C297 1.267 . S
O295 Zn288 1.965 1_455 S
O295 C306 1.260 . S
O296 Zn289 1.969 . S
O296 C306 1.258 1_565 S
C297 O294 1.267 . S
C297 O298 1.228 1_655 S
O298 C297 1.228 1_455 S
O299 Zn288 2.024 1_455 S
O299 C290 1.058 . S
C300 O301 1.228 1_455 S
C300 O302 1.267 . S
O301 C300 1.228 1_655 S
O302 Zn289 1.969 . S
O302 C300 1.267 . S
O303 Zn289 1.965 1_655 S
O303 C307 1.260 1_565 S
O304 Zn288 1.969 . S
O304 C307 1.258 . S
O305 Zn289 2.024 1_655 S
O305 C292 1.058 . S
C306 O295 1.260 . S
C306 O296 1.258 1_545 S
C307 O303 1.260 1_545 S
C307 O304 1.258 . S
Zn308 O314 1.969 . S
Zn308 O315 1.965 . S
Zn308 O319 2.024 . S
Zn308 O324 1.969 1_545 S
Zn309 O316 1.969 1_565 S
Zn309 O322 1.969 1_565 S
Zn309 O323 1.965 . S
Zn309 O325 2.024 . S
C310 O311 1.229 . S
C310 O319 1.058 . S
O311 C310 1.229 . S
C312 O313 1.229 . S
C312 O325 1.058 . S
O313 C312 1.229 . S
O314 Zn308 1.969 . S
O314 C317 1.267 . S
O315 Zn308 1.965 . S
O315 C326 1.260 . S
O316 Zn309 1.969 1_545 S
O316 C326 1.258 . S
C317 O314 1.267 . S
C317 O318 1.228 . S
O318 C317 1.228 . S
O319 Zn308 2.024 . S
O319 C310 1.058 . S
C320 O321 1.228 . S
C320 O322 1.267 1_565 S
O321 C320 1.228 . S
O322 Zn309 1.969 1_545 S
O322 C320 1.267 1_545 S
O323 Zn309 1.965 . S
O323 C327 1.260 . S
O324 Zn308 1.969 1_565 S
O324 C327 1.258 . S
O325 Zn309 2.024 . S
O325 C312 1.058 . S
C326 O315 1.260 . S
C326 O316 1.258 . S
C327 O323 1.260 . S
C327 O324 1.258 . S
Zn328 O334 1.969 . S
Zn328 O335 1.965 . S
Zn328 O339 2.024 . S
Zn328 O344 1.969 . S
Zn329 O336 1.969 . S
Zn329 O342 1.969 . S
Zn329 O343 1.965 . S
Zn329 O345 2.024 . S
C330 O331 1.229 . S
C330 O339 1.058 . S
O331 C330 1.229 . S
C332 O333 1.229 . S
C332 O345 1.058 . S
O333 C332 1.229 . S
O334 Zn328 1.969 . S
O334 C337 1.267 . S
O335 Zn328 1.965 . S
O335 C346 1.260 . S
O336 Zn329 1.969 . S
O336 C346 1.258 . S
C337 O334 1.267 . S
C337 O338 1.228 . S
O338 C337 1.228 . S
O339 Zn328 2.024 . S
O339 C330 1.058 . S
C340 O341 1.228 . S
C340 O342 1.267 . S
O341 C340 1.228 . S
O342 Zn329 1.969 . S
O342 C340 1.267 . S
O343 Zn329 1.965 . S
O343 C347 1.260 . S
O344 Zn328 1.969 . S
O344 C347 1.258 . S
O345 Zn329 2.024 . S
O345 C332 1.058 . S
C346 O335 1.260 . S
C346 O336 1.258 . S
C347 O343 1.260 . S
C347 O344 1.258 . S
Zn348 O354 1.969 . S
Zn348 O355 1.965 . S
Zn348 O359 2.024 . S
Zn348 O364 1.969 . S
Zn349 O356 1.969 . S
Zn349 O362 1.969 . S
Zn349 O363 1.965 . S
Zn349 O365 2.024 . S
C350 O351 1.229 . S
C350 O359 1.058 . S
O351 C350 1.229 . S
C352 O353 1.229 . S
C352 O365 1.058 . S
O353 C352 1.229 . S
O354 Zn348 1.969 . S
O354 C357 1.267 . S
O355 Zn348 1.965 . S
O355 C366 1.260 1_455 S
O356 Zn349 1.969 . S
O356 C366 1.258 . S
C357 O354 1.267 . S
C357 O358 1.228 . S
O358 C357 1.228 . S
O359 Zn348 2.024 . S
O359 C350 1.058 . S
C360 O361 1.228 . S
C360 O362 1.267 . S
O361 C360 1.228 . S
O362 Zn349 1.969 . S
O362 C360 1.267 . S
O363 Zn349 1.965 . S
O363 C367 1.260 1_655 S
O364 Zn348 1.969 . S
O364 C367 1.258 . S
O365 Zn349 2.024 . S
O365 C352 1.058 . S
C366 O355 1.260 1_655 S
C366 O356 1.258 . S
C367 O363 1.260 1_455 S
C367 O364 1.258 . S
H368 C374 0.930 . S
H369 C378 0.908 1_565 S
H370 C383 0.929 . S
H371 C381 0.929 . S
H372 C376 0.929 . S
H373 C382 0.929 . S
C374 H368 0.930 . S
C374 C375 1.367 . S
C374 C382 1.378 . S
C375 C374 1.367 . S
C375 C383 1.433 . S
C376 H372 0.929 . S
C376 C378 1.378 . S
C376 C380 1.350 . S
C377 C380 1.463 . S
C377 C382 1.350 . S
C377 N385 1.427 . S
C378 H369 0.908 1_545 S
C378 C376 1.378 . S
C378 C379 1.367 . S
C379 C378 1.367 . S
C379 C381 1.433 . S
C380 C376 1.350 . S
C380 C377 1.463 . S
C380 N384 1.427 . S
C381 H371 0.929 . S
C381 C379 1.433 . S
C381 N384 1.384 . S
C382 H373 0.929 . S
C382 C374 1.378 . S
C382 C377 1.350 . S
C383 H370 0.929 . S
C383 C375 1.433 . S
C383 N385 1.384 . S
N384 C380 1.427 . S
N384 C381 1.384 . S
N385 C377 1.427 . S
N385 C383 1.384 . S
H386 C392 0.930 . S
H387 C396 0.930 . S
H388 C401 0.929 . S
H389 C399 0.929 . S
H390 C394 0.929 . S
H391 C400 0.929 . S
C392 H386 0.930 . S
C392 C393 1.367 . S
C392 C400 1.378 . S
C393 C392 1.367 . S
C393 C401 1.433 . S
C394 H390 0.929 . S
C394 C396 1.378 . S
C394 C398 1.350 . S
C395 C398 1.463 . S
C395 C400 1.350 . S
C395 N403 1.427 . S
C396 H387 0.930 . S
C396 C394 1.378 . S
C396 C397 1.367 . S
C397 C396 1.367 . S
C397 C399 1.433 . S
C398 C394 1.350 . S
C398 C395 1.463 . S
C398 N402 1.427 . S
C399 H389 0.929 . S
C399 C397 1.433 . S
C399 N402 1.384 . S
C400 H391 0.929 . S
C400 C392 1.378 . S
C400 C395 1.350 . S
C401 H388 0.929 . S
C401 C393 1.433 . S
C401 N403 1.384 . S
N402 C398 1.427 . S
N402 C399 1.384 . S
N403 C395 1.427 . S
N403 C401 1.384 . S
H404 C410 0.930 . S
H405 C414 0.930 . S
H406 C419 0.929 . S
H407 C417 0.929 . S
H408 C412 0.929 . S
H409 C418 0.929 . S
C410 H404 0.930 . S
C410 C411 1.367 . S
C410 C418 1.378 . S
C411 C410 1.367 . S
C411 C419 1.433 . S
C412 H408 0.929 . S
C412 C414 1.378 . S
C412 C416 1.350 . S
C413 C416 1.463 . S
C413 C418 1.350 . S
C413 N421 1.427 . S
C414 H405 0.930 . S
C414 C412 1.378 . S
C414 C415 1.367 . S
C415 C414 1.367 . S
C415 C417 1.433 . S
C416 C412 1.350 . S
C416 C413 1.463 . S
C416 N420 1.427 . S
C417 H407 0.929 . S
C417 C415 1.433 . S
C417 N420 1.384 . S
C418 H409 0.929 . S
C418 C410 1.378 . S
C418 C413 1.350 . S
C419 H406 0.929 . S
C419 C411 1.433 . S
C419 N421 1.384 . S
N420 C416 1.427 . S
N420 C417 1.384 . S
N421 C413 1.427 . S
N421 C419 1.384 . S
H422 C428 0.930 . S
H423 C432 0.930 . S
H424 C437 0.929 . S
H425 C435 0.929 . S
H426 C430 0.929 . S
H427 C436 0.929 . S
C428 H422 0.930 . S
C428 C429 1.403 . S
C428 C436 1.378 . S
C429 C428 1.403 . S
C429 C437 1.398 1_655 S
C430 H426 0.929 . S
C430 C432 1.378 . S
C430 C434 1.350 1_455 S
C431 C434 1.463 . S
C431 C436 1.350 . S
C431 N439 1.427 1_655 S
C432 H423 0.930 . S
C432 C430 1.378 . S
C432 C433 1.367 1_455 S
C433 C432 1.367 1_655 S
C433 C435 1.433 . S
C434 C430 1.350 1_655 S
C434 C431 1.463 . S
C434 N438 1.427 . S
C435 H425 0.929 . S
C435 C433 1.433 . S
C435 N438 1.384 . S
C436 H427 0.929 . S
C436 C428 1.378 . S
C436 C431 1.350 . S
C437 H424 0.929 . S
C437 C429 1.398 1_455 S
C437 N439 1.384 . S
N438 C434 1.427 . S
N438 C435 1.384 . S
N439 C431 1.427 1_455 S
N439 C437 1.384 . S
H440 C446 0.930 . S
H441 C450 0.930 1_545 S
H442 C455 0.929 . S
H443 C453 0.929 . S
H444 C448 0.929 . S
H445 C454 0.929 . S
C446 H440 0.930 . S
C446 C447 1.367 . S
C446 C454 1.378 . S
C447 C446 1.367 . S
C447 C455 1.433 . S
C448 H444 0.929 . S
C448 C450 1.378 . S
C448 C452 1.350 . S
C449 C452 1.463 . S
C449 C454 1.350 . S
C449 N457 1.427 . S
C450 H441 0.930 1_565 S
C450 C448 1.378 . S
C450 C451 1.367 . S
C451 C450 1.367 . S
C451 C453 1.433 . S
C452 C448 1.350 . S
C452 C449 1.463 . S
C452 N456 1.427 . S
C453 H443 0.929 . S
C453 C451 1.433 . S
C453 N456 1.384 . S
C454 H445 0.929 . S
C454 C446 1.378 . S
C454 C449 1.350 . S
C455 H442 0.929 . S
C455 C447 1.433 . S
C455 N457 1.384 . S
N456 C452 1.427 . S
N456 C453 1.384 . S
N457 C449 1.427 . S
N457 C455 1.384 . S
H458 C464 0.930 . S
H459 C468 0.930 . S
H460 C473 0.929 . S
H461 C471 0.929 . S
H462 C466 0.929 . S
H463 C472 0.929 . S
C464 H458 0.930 . S
C464 C465 1.367 . S
C464 C472 1.378 . S
C465 C464 1.367 . S
C465 C473 1.433 . S
C466 H462 0.929 . S
C466 C468 1.378 . S
C466 C470 1.350 . S
C467 C470 1.463 . S
C467 C472 1.350 . S
C467 N475 1.427 . S
C468 H459 0.930 . S
C468 C466 1.378 . S
C468 C469 1.367 . S
C469 C468 1.367 . S
C469 C471 1.433 . S
C470 C466 1.350 . S
C470 C467 1.463 . S
C470 N474 1.427 . S
C471 H461 0.929 . S
C471 C469 1.433 . S
C471 N474 1.384 . S
C472 H463 0.929 . S
C472 C464 1.378 . S
C472 C467 1.350 . S
C473 H460 0.929 . S
C473 C465 1.433 . S
C473 N475 1.384 . S
N474 C470 1.427 . S
N474 C471 1.384 . S
N475 C467 1.427 . S
N475 C473 1.384 . S
H476 C482 0.930 . S
H477 C486 0.930 . S
H478 C491 0.929 . S
H479 C489 0.929 . S
H480 C484 0.929 . S
H481 C490 0.929 . S
C482 H476 0.930 . S
C482 C483 1.367 . S
C482 C490 1.378 . S
C483 C482 1.367 . S
C483 C491 1.433 . S
C484 H480 0.929 . S
C484 C486 1.378 . S
C484 C488 1.350 . S
C485 C488 1.463 . S
C485 C490 1.350 . S
C485 N493 1.427 . S
C486 H477 0.930 . S
C486 C484 1.378 . S
C486 C487 1.367 . S
C487 C486 1.367 . S
C487 C489 1.433 . S
C488 C484 1.350 . S
C488 C485 1.463 . S
C488 N492 1.427 . S
C489 H479 0.929 . S
C489 C487 1.433 . S
C489 N492 1.384 . S
C490 H481 0.929 . S
C490 C482 1.378 . S
C490 C485 1.350 . S
C491 H478 0.929 . S
C491 C483 1.433 . S
C491 N493 1.384 . S
N492 C488 1.427 . S
N492 C489 1.384 . S
N493 C485 1.427 . S
N493 C491 1.384 . S
H494 C500 0.930 . S
H495 C504 0.930 . S
H496 C509 0.929 . S
H497 C507 0.929 . S
H498 C502 0.929 . S
H499 C508 0.929 . S
C500 H494 0.930 . S
C500 C501 1.379 . S
C500 C508 1.378 . S
C501 C500 1.379 . S
C501 C509 1.423 1_455 S
C502 H498 0.929 . S
C502 C504 1.378 . S
C502 C506 1.350 1_655 S
C503 C506 1.463 . S
C503 C508 1.350 . S
C503 N511 1.427 1_455 S
C504 H495 0.930 . S
C504 C502 1.378 . S
C504 C505 1.367 1_655 S
C505 C504 1.367 1_455 S
C505 C507 1.433 . S
C506 C502 1.350 1_455 S
C506 C503 1.463 . S
C506 N510 1.427 . S
C507 H497 0.929 . S
C507 C505 1.433 . S
C507 N510 1.384 . S
C508 H499 0.929 . S
C508 C500 1.378 . S
C508 C503 1.350 . S
C509 H496 0.929 . S
C509 C501 1.423 1_655 S
C509 N511 1.384 . S
N510 C506 1.427 . S
N510 C507 1.384 . S
N511 C503 1.427 1_655 S
N511 C509 1.384 . S
H512 C518 0.930 . S
H513 C522 0.930 . S
H514 C527 0.929 . S
H515 C525 0.929 1_455 S
H516 C520 0.929 . S
H517 C526 0.929 . S
C518 H512 0.930 . S
C518 C519 1.387 . S
C518 C526 1.378 . S
C519 C518 1.387 . S
C519 C527 1.409 1_455 S
C520 H516 0.929 . S
C520 C522 1.378 . S
C520 C524 1.350 . S
C521 C524 1.463 . S
C521 C526 1.350 1_655 S
C521 N529 1.427 . S
C522 H513 0.930 . S
C522 C520 1.378 . S
C522 C523 1.367 . S
C523 C522 1.367 . S
C523 C525 1.433 . S
C524 C520 1.350 . S
C524 C521 1.463 . S
C524 N528 1.427 1_655 S
C525 H515 0.929 1_655 S
C525 C523 1.433 . S
C525 N528 1.384 1_655 S
C526 H517 0.929 . S
C526 C518 1.378 . S
C526 C521 1.350 1_455 S
C527 H514 0.929 . S
C527 C519 1.409 1_655 S
C527 N529 1.384 . S
N528 C524 1.427 1_455 S
N528 C525 1.384 1_455 S
N529 C521 1.427 . S
N529 C527 1.384 . S
H530 C536 0.930 . S
H531 C540 0.930 . S
H532 C545 0.929 . S
H533 C543 0.912 1_565 S
H534 C538 0.929 . S
H535 C544 0.929 . S
C536 H530 0.930 . S
C536 C537 1.367 . S
C536 C544 1.378 . S
C537 C536 1.367 . S
C537 C545 1.433 . S
C538 H534 0.929 . S
C538 C540 1.378 . S
C538 C542 1.350 . S
C539 C542 1.463 . S
C539 C544 1.350 . S
C539 N547 1.427 . S
C540 H531 0.930 . S
C540 C538 1.378 . S
C540 C541 1.367 . S
C541 C540 1.367 . S
C541 C543 1.433 . S
C542 C538 1.350 . S
C542 C539 1.463 . S
C542 N546 1.427 . S
C543 H533 0.912 1_545 S
C543 C541 1.433 . S
C543 N546 1.384 . S
C544 H535 0.929 . S
C544 C536 1.378 . S
C544 C539 1.350 . S
C545 H532 0.929 . S
C545 C537 1.433 . S
C545 N547 1.384 . S
N546 C542 1.427 . S
N546 C543 1.384 . S
N547 C539 1.427 . S
N547 C545 1.384 . S
H548 C554 0.930 . S
H549 C558 0.930 . S
H550 C563 0.929 . S
H551 C561 0.929 . S
H552 C556 0.929 . S
H553 C562 0.929 . S
C554 H548 0.930 . S
C554 C555 1.367 . S
C554 C562 1.378 . S
C555 C554 1.367 . S
C555 C563 1.433 . S
C556 H552 0.929 . S
C556 C558 1.378 . S
C556 C560 1.350 . S
C557 C560 1.463 . S
C557 C562 1.350 . S
C557 N565 1.427 . S
C558 H549 0.930 . S
C558 C556 1.378 . S
C558 C559 1.367 . S
C559 C558 1.367 . S
C559 C561 1.433 . S
C560 C556 1.350 . S
C560 C557 1.463 . S
C560 N564 1.427 . S
C561 H551 0.929 . S
C561 C559 1.433 . S
C561 N564 1.384 . S
C562 H553 0.929 . S
C562 C554 1.378 . S
C562 C557 1.350 . S
C563 H550 0.929 . S
C563 C555 1.433 . S
C563 N565 1.384 . S
N564 C560 1.427 . S
N564 C561 1.384 . S
N565 C557 1.427 . S
N565 C563 1.384 . S
H566 C572 0.930 . S
H567 C576 0.930 . S
H568 C581 0.929 . S
H569 C579 0.929 . S
H570 C574 0.929 . S
H571 C580 0.929 . S
C572 H566 0.930 . S
C572 C573 1.367 . S
C572 C580 1.378 . S
C573 C572 1.367 . S
C573 C581 1.433 . S
C574 H570 0.929 . S
C574 C576 1.378 . S
C574 C578 1.350 . S
C575 C578 1.463 . S
C575 C580 1.350 . S
C575 N583 1.427 . S
C576 H567 0.930 . S
C576 C574 1.378 . S
C576 C577 1.367 . S
C577 C576 1.367 . S
C577 C579 1.433 . S
C578 C574 1.350 . S
C578 C575 1.463 . S
C578 N582 1.427 . S
C579 H569 0.929 . S
C579 C577 1.433 . S
C579 N582 1.384 . S
C580 H571 0.929 . S
C580 C572 1.378 . S
C580 C575 1.350 . S
C581 H568 0.929 . S
C581 C573 1.433 . S
C581 N583 1.384 . S
N582 C578 1.427 . S
N582 C579 1.384 . S
N583 C575 1.427 . S
N583 C581 1.384 . S
H584 C590 0.930 . S
H585 C594 0.930 . S
H586 C599 0.929 . S
H587 C597 0.929 . S
H588 C592 0.929 . S
H589 C598 0.929 . S
C590 H584 0.930 . S
C590 C591 1.370 1_455 S
C590 C598 1.378 . S
C591 C590 1.370 1_655 S
C591 C599 1.431 . S
C592 H588 0.929 . S
C592 C594 1.378 . S
C592 C596 1.350 1_655 S
C593 C596 1.463 . S
C593 C598 1.350 . S
C593 N601 1.427 1_455 S
C594 H585 0.930 . S
C594 C592 1.378 . S
C594 C595 1.367 1_655 S
C595 C594 1.367 1_455 S
C595 C597 1.433 . S
C596 C592 1.350 1_455 S
C596 C593 1.463 . S
C596 N600 1.427 . S
C597 H587 0.929 . S
C597 C595 1.433 . S
C597 N600 1.384 . S
C598 H589 0.929 . S
C598 C590 1.378 . S
C598 C593 1.350 . S
C599 H586 0.929 . S
C599 C591 1.431 . S
C599 N601 1.384 . S
N600 C596 1.427 . S
N600 C597 1.384 . S
N601 C593 1.427 1_655 S
N601 C599 1.384 . S
H602 C608 0.930 . S
H603 C612 0.930 . S
H604 C617 0.929 . S
H605 C615 0.929 . S
H606 C610 0.914 1_545 S
H607 C616 0.929 . S
C608 H602 0.930 . S
C608 C609 1.367 . S
C608 C616 1.378 . S
C609 C608 1.367 . S
C609 C617 1.433 . S
C610 H606 0.914 1_565 S
C610 C612 1.378 1_565 S
C610 C614 1.350 . S
C611 C614 1.463 . S
C611 C616 1.350 . S
C611 N619 1.427 . S
C612 H603 0.930 . S
C612 C610 1.378 1_545 S
C612 C613 1.367 1_545 S
C613 C612 1.367 1_565 S
C613 C615 1.433 . S
C614 C610 1.350 . S
C614 C611 1.463 . S
C614 N618 1.427 . S
C615 H605 0.929 . S
C615 C613 1.433 . S
C615 N618 1.384 . S
C616 H607 0.929 . S
C616 C608 1.378 . S
C616 C611 1.350 . S
C617 H604 0.929 . S
C617 C609 1.433 . S
C617 N619 1.384 . S
N618 C614 1.427 . S
N618 C615 1.384 . S
N619 C611 1.427 . S
N619 C617 1.384 . S
H620 C626 0.930 . S
H621 C630 0.930 . S
H622 C635 0.929 . S
H623 C633 0.929 . S
H624 C628 0.929 . S
H625 C634 0.929 . S
C626 H620 0.930 . S
C626 C627 1.367 . S
C626 C634 1.378 . S
C627 C626 1.367 . S
C627 C635 1.433 . S
C628 H624 0.929 . S
C628 C630 1.378 . S
C628 C632 1.350 . S
C629 C632 1.463 . S
C629 C634 1.350 . S
C629 N637 1.427 . S
C630 H621 0.930 . S
C630 C628 1.378 . S
C630 C631 1.367 . S
C631 C630 1.367 . S
C631 C633 1.433 . S
C632 C628 1.350 . S
C632 C629 1.463 . S
C632 N636 1.427 . S
C633 H623 0.929 . S
C633 C631 1.433 . S
C633 N636 1.384 . S
C634 H625 0.929 . S
C634 C626 1.378 . S
C634 C629 1.350 . S
C635 H622 0.929 . S
C635 C627 1.433 . S
C635 N637 1.384 . S
N636 C632 1.427 . S
N636 C633 1.384 . S
N637 C629 1.427 . S
N637 C635 1.384 . S
H638 C644 0.930 . S
H639 C648 0.930 . S
H640 C653 0.929 . S
H641 C651 0.929 . S
H642 C646 0.929 . S
H643 C652 0.929 . S
C644 H638 0.930 . S
C644 C645 1.367 . S
C644 C652 1.378 . S
C645 C644 1.367 . S
C645 C653 1.433 . S
C646 H642 0.929 . S
C646 C648 1.378 . S
C646 C650 1.350 . S
C647 C650 1.463 . S
C647 C652 1.350 . S
C647 N655 1.427 . S
C648 H639 0.930 . S
C648 C646 1.378 . S
C648 C649 1.367 . S
C649 C648 1.367 . S
C649 C651 1.433 . S
C650 C646 1.350 . S
C650 C647 1.463 . S
C650 N654 1.427 . S
C651 H641 0.929 . S
C651 C649 1.433 . S
C651 N654 1.384 . S
C652 H643 0.929 . S
C652 C644 1.378 . S
C652 C647 1.350 . S
C653 H640 0.929 . S
C653 C645 1.433 . S
C653 N655 1.384 . S
N654 C650 1.427 . S
N654 C651 1.384 . S
N655 C647 1.427 . S
N655 C653 1.384 . S
H656 C662 0.930 . S
H657 C666 0.942 . S
H658 C671 0.929 . S
H659 C669 0.929 . S
H660 C664 0.929 . S
H661 C670 0.929 . S
C662 H656 0.930 . S
C662 C663 1.367 . S
C662 C670 1.378 . S
C663 C662 1.367 . S
C663 C671 1.433 1_455 S
C664 H660 0.929 . S
C664 C666 1.381 . S
C664 C668 1.350 1_655 S
C665 C668 1.463 . S
C665 C670 1.350 . S
C665 N673 1.427 1_455 S
C666 H657 0.942 . S
C666 C664 1.381 . S
C666 C667 1.354 1_655 S
C667 C666 1.354 1_455 S
C667 C669 1.433 . S
C668 C664 1.350 1_455 S
C668 C665 1.463 . S
C668 N672 1.427 . S
C669 H659 0.929 . S
C669 C667 1.433 . S
C669 N672 1.384 . S
C670 H661 0.929 . S
C670 C662 1.378 . S
C670 C665 1.350 . S
C671 H658 0.929 . S
C671 C663 1.433 1_655 S
C671 N673 1.384 . S
N672 C668 1.427 . S
N672 C669 1.384 . S
N673 C665 1.427 1_655 S
N673 C671 1.384 . S
H674 C680 0.930 . S
H675 C684 0.930 . S
H676 C689 0.929 . S
H677 C687 0.929 . S
H678 C682 0.929 . S
H679 C688 0.929 . S
C680 H674 0.930 . S
C680 C681 1.367 . S
C680 C688 1.378 . S
C681 C680 1.367 . S
C681 C689 1.433 . S
C682 H678 0.929 . S
C682 C684 1.378 . S
C682 C686 1.350 . S
C683 C686 1.463 . S
C683 C688 1.350 . S
C683 N691 1.427 . S
C684 H675 0.930 . S
C684 C682 1.378 . S
C684 C685 1.367 . S
C685 C684 1.367 . S
C685 C687 1.433 . S
C686 C682 1.350 . S
C686 C683 1.463 . S
C686 N690 1.427 . S
C687 H677 0.929 . S
C687 C685 1.433 . S
C687 N690 1.384 . S
C688 H679 0.929 . S
C688 C680 1.378 . S
C688 C683 1.350 . S
C689 H676 0.929 . S
C689 C681 1.433 . S
C689 N691 1.384 . S
N690 C686 1.427 . S
N690 C687 1.384 . S
N691 C683 1.427 . S
N691 C689 1.384 . S
H692 C698 0.930 . S
H693 C702 0.930 . S
H694 C707 0.929 . S
H695 C705 0.929 . S
H696 C700 0.929 . S
H697 C706 0.929 . S
C698 H692 0.930 . S
C698 C699 1.367 . S
C698 C706 1.378 . S
C699 C698 1.367 . S
C699 C707 1.433 . S
C700 H696 0.929 . S
C700 C702 1.378 . S
C700 C704 1.350 . S
C701 C704 1.463 . S
C701 C706 1.350 . S
C701 N709 1.427 . S
C702 H693 0.930 . S
C702 C700 1.378 . S
C702 C703 1.367 . S
C703 C702 1.367 . S
C703 C705 1.433 . S
C704 C700 1.350 . S
C704 C701 1.463 . S
C704 N708 1.427 . S
C705 H695 0.929 . S
C705 C703 1.433 . S
C705 N708 1.384 . S
C706 H697 0.929 . S
C706 C698 1.378 . S
C706 C701 1.350 . S
C707 H694 0.929 . S
C707 C699 1.433 . S
C707 N709 1.384 . S
N708 C704 1.427 . S
N708 C705 1.384 . S
N709 C701 1.427 . S
N709 C707 1.384 . S
H710 C716 0.930 . S
H711 C720 0.930 . S
H712 C725 0.929 . S
H713 C723 0.929 . S
H714 C718 0.929 . S
H715 C724 0.929 . S
C716 H710 0.930 . S
C716 C717 1.367 . S
C716 C724 1.378 . S
C717 C716 1.367 . S
C717 C725 1.433 . S
C718 H714 0.929 . S
C718 C720 1.378 . S
C718 C722 1.350 . S
C719 C722 1.463 . S
C719 C724 1.350 . S
C719 N727 1.427 . S
C720 H711 0.930 . S
C720 C718 1.378 . S
C720 C721 1.367 . S
C721 C720 1.367 . S
C721 C723 1.433 . S
C722 C718 1.350 . S
C722 C719 1.463 . S
C722 N726 1.427 . S
C723 H713 0.929 . S
C723 C721 1.433 . S
C723 N726 1.384 . S
C724 H715 0.929 . S
C724 C716 1.378 . S
C724 C719 1.350 . S
C725 H712 0.929 . S
C725 C717 1.433 . S
C725 N727 1.384 . S
N726 C722 1.427 . S
N726 C723 1.384 . S
N727 C719 1.427 . S
N727 C725 1.384 . S
H728 C734 0.930 . S
H729 C738 0.930 . S
H730 C743 0.929 . S
H731 C741 0.929 . S
H732 C736 0.929 . S
H733 C742 0.929 . S
C734 H728 0.930 . S
C734 C735 1.342 1_455 S
C734 C742 1.378 . S
C735 C734 1.342 1_655 S
C735 C743 1.463 . S
C736 H732 0.929 . S
C736 C738 1.378 . S
C736 C740 1.350 . S
C737 C740 1.463 . S
C737 C742 1.350 1_655 S
C737 N745 1.427 . S
C738 H729 0.930 . S
C738 C736 1.378 . S
C738 C739 1.367 . S
C739 C738 1.367 . S
C739 C741 1.433 1_655 S
C740 C736 1.350 . S
C740 C737 1.463 . S
C740 N744 1.427 1_655 S
C741 H731 0.929 . S
C741 C739 1.433 1_455 S
C741 N744 1.384 . S
C742 H733 0.929 . S
C742 C734 1.378 . S
C742 C737 1.350 1_455 S
C743 H730 0.929 . S
C743 C735 1.463 . S
C743 N745 1.384 . S
N744 C740 1.427 1_455 S
N744 C741 1.384 . S
N745 C737 1.427 . S
N745 C743 1.384 . S
H746 C752 0.930 . S
H747 C756 0.930 1_545 S
H748 C761 0.929 . S
H749 C759 0.929 . S
H750 C754 0.929 . S
H751 C760 0.929 . S
C752 H746 0.930 . S
C752 C753 1.367 . S
C752 C760 1.378 . S
C753 C752 1.367 . S
C753 C761 1.433 . S
C754 H750 0.929 . S
C754 C756 1.378 . S
C754 C758 1.350 . S
C755 C758 1.463 . S
C755 C760 1.350 . S
C755 N763 1.427 . S
C756 H747 0.930 1_565 S
C756 C754 1.378 . S
C756 C757 1.367 . S
C757 C756 1.367 . S
C757 C759 1.433 . S
C758 C754 1.350 . S
C758 C755 1.463 . S
C758 N762 1.427 . S
C759 H749 0.929 . S
C759 C757 1.433 . S
C759 N762 1.384 . S
C760 H751 0.929 . S
C760 C752 1.378 . S
C760 C755 1.350 . S
C761 H748 0.929 . S
C761 C753 1.433 . S
C761 N763 1.384 . S
N762 C758 1.427 . S
N762 C759 1.384 . S
N763 C755 1.427 . S
N763 C761 1.384 . S
H764 C770 0.930 . S
H765 C774 0.930 . S
H766 C779 0.929 . S
H767 C777 0.929 . S
H768 C772 0.929 . S
H769 C778 0.929 . S
C770 H764 0.930 . S
C770 C771 1.367 . S
C770 C778 1.378 . S
C771 C770 1.367 . S
C771 C779 1.433 . S
C772 H768 0.929 . S
C772 C774 1.378 . S
C772 C776 1.350 . S
C773 C776 1.463 . S
C773 C778 1.350 . S
C773 N781 1.427 . S
C774 H765 0.930 . S
C774 C772 1.378 . S
C774 C775 1.367 . S
C775 C774 1.367 . S
C775 C777 1.433 . S
C776 C772 1.350 . S
C776 C773 1.463 . S
C776 N780 1.427 . S
C777 H767 0.929 . S
C777 C775 1.433 . S
C777 N780 1.384 . S
C778 H769 0.929 . S
C778 C770 1.378 . S
C778 C773 1.350 . S
C779 H766 0.929 . S
C779 C771 1.433 . S
C779 N781 1.384 . S
N780 C776 1.427 . S
N780 C777 1.384 . S
N781 C773 1.427 . S
N781 C779 1.384 . S
H782 C788 0.930 . S
H783 C792 0.930 . S
H784 C797 0.929 . S
H785 C795 0.929 . S
H786 C790 0.929 . S
H787 C796 0.929 . S
C788 H782 0.930 . S
C788 C789 1.367 . S
C788 C796 1.378 . S
C789 C788 1.367 . S
C789 C797 1.433 . S
C790 H786 0.929 . S
C790 C792 1.378 . S
C790 C794 1.350 . S
C791 C794 1.463 . S
C791 C796 1.350 . S
C791 N799 1.427 . S
C792 H783 0.930 . S
C792 C790 1.378 . S
C792 C793 1.367 . S
C793 C792 1.367 . S
C793 C795 1.433 . S
C794 C790 1.350 . S
C794 C791 1.463 . S
C794 N798 1.427 . S
C795 H785 0.929 . S
C795 C793 1.433 . S
C795 N798 1.384 . S
C796 H787 0.929 . S
C796 C788 1.378 . S
C796 C791 1.350 . S
C797 H784 0.929 . S
C797 C789 1.433 . S
C797 N799 1.384 . S
N798 C794 1.427 . S
N798 C795 1.384 . S
N799 C791 1.427 . S
N799 C797 1.384 . S
C375 C241 1.831 . S
C379 C306 1.865 . S
C397 C326 1.557 . S
C393 C277 1.602 . S
C415 C346 1.826 . S
C411 C169 1.782 . S
C433 C366 1.550 . S
C429 C205 1.535 1_655 S
C451 C307 1.860 1_565 S
C447 C97 1.768 . S
C465 C133 1.593 . S
C469 C327 1.576 . S
C483 C25 1.733 . S
C487 C347 1.833 . S
C501 C61 1.523 . S
C505 C367 1.539 . S
C523 C297 0.636 . S
C519 C211 0.593 . S
C541 C317 0.788 . S
C537 C247 0.809 . S
C559 C337 0.661 . S
C555 C253 0.636 . S
C573 C175 0.805 . S
C577 C357 0.793 . S
C591 C67 0.598 1_655 S
C595 C300 0.613 . S
C613 C320 0.824 . S
C609 C103 0.825 . S
C631 C340 0.646 . S
C627 C109 0.649 . S
C645 C31 0.777 . S
C649 C360 0.777 . S
C663 C181 2.059 . S
C667 C290 2.011 . S
C681 C217 2.096 . S
C685 C310 2.039 . S
C703 C330 1.930 . S
C699 C283 1.955 . S
C721 C350 2.138 . S
C717 C145 2.187 . S
C735 C37 2.060 1_655 S
C739 C292 2.016 . S
C757 C312 2.045 . S
C753 C73 2.075 . S
C775 C332 1.919 . S
C771 C139 1.907 . S
C789 C1 2.161 . S
C793 C352 2.149 . S
