# Generated by pormake.
# Topology pth, (4,4)-cn, num edge types: 1
# Building blocks:
#     Node 0, Type 0, BuildingBlock: UXUYUI_clean_sbu_0, # of connection points: 4
#     Node 1, Type 0, BuildingBlock: UXUYUI_clean_sbu_0, # of connection points: 4
#     Node 2, Type 0, BuildingBlock: UXUYUI_clean_sbu_0, # of connection points: 4
#     Node 3, Type 1, BuildingBlock: AZAVOO_clean_linker_0, # of connection points: 4
#     Node 4, Type 1, BuildingBlock: AZAVOO_clean_linker_0, # of connection points: 4
#     Node 5, Type 1, BuildingBlock: AZAVOO_clean_linker_0, # of connection points: 4
#     Edge 6, Type (0, 1), BuildingBlock: ZUJKAS_clean_linker_0, # of connection points: 2
#     Edge 7, Type (0, 1), BuildingBlock: ZUJKAS_clean_linker_0, # of connection points: 2
#     Edge 8, Type (0, 1), BuildingBlock: ZUJKAS_clean_linker_0, # of connection points: 2
#     Edge 9, Type (0, 1), BuildingBlock: ZUJKAS_clean_linker_0, # of connection points: 2
#     Edge 10, Type (0, 1), BuildingBlock: ZUJKAS_clean_linker_0, # of connection points: 2
#     Edge 11, Type (0, 1), BuildingBlock: ZUJKAS_clean_linker_0, # of connection points: 2
#     Edge 12, Type (0, 1), BuildingBlock: ZUJKAS_clean_linker_0, # of connection points: 2
#     Edge 13, Type (0, 1), BuildingBlock: ZUJKAS_clean_linker_0, # of connection points: 2
#     Edge 14, Type (0, 1), BuildingBlock: ZUJKAS_clean_linker_0, # of connection points: 2
#     Edge 15, Type (0, 1), BuildingBlock: ZUJKAS_clean_linker_0, # of connection points: 2
#     Edge 16, Type (0, 1), BuildingBlock: ZUJKAS_clean_linker_0, # of connection points: 2
#     Edge 17, Type (0, 1), BuildingBlock: ZUJKAS_clean_linker_0, # of connection points: 2
# Relax obj value: 0.169
# Max RMSD: 0.230
# Mean RMSD: 0.228
data_MOF--net-pth--node1-UXUYUI_clean_sbu_0--node2-AZAVOO_clean_linker_0--edge1-ZUJKAS_clean_linker_0
_symmetry_space_group_name_H-M    P1
_symmetry_Int_Tables_number       1
_symmetry_cell_setting            triclinic
loop_
_symmetry_equiv_pos_as_xyz
'x, y, z'
_cell_length_a     37.889838
_cell_length_b     37.880481
_cell_length_c     102.23361
_cell_angle_alpha  91.391134
_cell_angle_beta   89.168439
_cell_angle_gamma 119.98413
loop_
_atom_site_label
_atom_site_type_symbol
_atom_site_fract_x
_atom_site_fract_y
_atom_site_fract_z
_atom_type_partial_charge
Li0 Li 0.08201 0.06925 0.04286 0.0
Li1 Li 0.03257 0.06688 0.0588 0.0
Li2 Li 0.05134 0.01431 0.05788 0.0
Li3 Li 0.01007 0.01959 0.04085 0.0
C4 C 0.10737 0.07228 0.07262 0.0
N5 N 0.14596 0.0659 0.09443 0.0
C6 C 0.09479 0.07685 0.08516 0.0
C7 C 0.13971 0.06462 0.07119 0.0
C8 C 0.1147 0.07354 0.09606 0.0
C9 C 0.15876 0.06141 0.08233 0.0
C10 C 0.0323 0.11295 0.04053 0.0
C11 C 0.99114 0.14455 0.04393 0.0
N12 N 0.02511 0.18188 0.04295 0.0
C13 C 0.06679 0.15161 0.03952 0.0
C14 C 0.99413 0.10933 0.04271 0.0
C15 C 0.06252 0.18609 0.04078 0.0
C16 C 0.12201 0.10663 0.02008 0.0
N17 N 0.12877 0.10308 0.03285 0.0
C18 C 0.20069 0.14383 0.02981 0.0
C19 C 0.16703 0.12155 0.0379 0.0
C20 C 0.19459 0.14678 0.01645 0.0
C21 C 0.15464 0.12821 0.01163 0.0
H22 H 0.09113 0.092 0.01642 0.0
H23 H 0.17143 0.11861 0.04815 0.0
C24 C 0.98537 0.08141 0.07755 0.0
N25 N 0.02098 0.09858 0.07073 0.0
C26 C 0.97964 0.10313 0.08778 0.0
C27 C 0.04692 0.15999 0.08349 0.0
C28 C 0.05128 0.13725 0.07334 0.0
C29 C 0.01111 0.14257 0.09105 0.0
H30 H 0.96219 0.05028 0.07542 0.0
H31 H 0.07954 0.14973 0.06789 0.0
C32 C 0.08015 0.00954 0.02877 0.0
N33 N 0.12943 0.01312 0.00804 0.0
C34 C 0.06609 0.00478 0.01591 0.0
C35 C 0.11922 0.01593 0.03106 0.0
C36 C 0.09146 0.00668 0.00557 0.0
C37 C 0.1437 0.01775 0.02046 0.0
C38 C 0.95791 0.97526 0.05853 0.0
C39 C 0.95126 0.93569 0.05963 0.0
C40 C 0.92525 0.98121 0.05577 0.0
C41 C 0.91195 0.90262 0.05788 0.0
C42 C 0.88641 0.94734 0.05406 0.0
N43 N 0.88062 0.90908 0.05514 0.0
C44 C 0.04461 0.97535 0.08104 0.0
C45 C 0.08048 0.96053 0.06464 0.0
C46 C 0.05238 0.95344 0.09016 0.0
N47 N 0.05934 0.97911 0.06866 0.0
C48 C 0.08878 0.93801 0.07345 0.0
C49 C 0.07519 0.93489 0.08645 0.0
H50 H 0.02759 0.99027 0.08388 0.0
H51 H 0.09153 0.9638 0.05469 0.0
C52 C 0.95298 0.00832 0.02133 0.0
N53 N 0.96876 0.9896 0.0284 0.0
C54 C 0.92613 0.98737 0.01107 0.0
C55 C 0.93184 0.92816 0.01579 0.0
C56 C 0.9585 0.95022 0.02595 0.0
C57 C 0.91579 0.94694 0.00806 0.0
H58 H 0.96219 0.03987 0.02338 0.0
H59 H 0.97232 0.9365 0.03157 0.0
O60 O 0.0876 0.07437 0.06182 0.0
O61 O 0.03594 0.07884 0.03957 0.0
O62 O 0.05614 0.00876 0.03902 0.0
O63 O 0.9963 0.00801 0.05996 0.0
H64 H 0.06952 0.08225 0.08651 0.0
H65 H 0.1495 0.06039 0.06158 0.0
H66 H 0.10512 0.07679 0.10582 0.0
H67 H 0.18358 0.05514 0.08135 0.0
H68 H 0.96184 0.14222 0.0457 0.0
H69 H 0.0966 0.15499 0.03791 0.0
H70 H 0.96718 0.07965 0.04363 0.0
H71 H 0.08896 0.21621 0.04007 0.0
H72 H 0.23109 0.15788 0.03387 0.0
H73 H 0.14866 0.13054 0.00145 0.0
H74 H 0.95178 0.0885 0.09347 0.0
H75 H 0.07171 0.19047 0.08563 0.0
H76 H 0.03618 0.0003 0.0139 0.0
H77 H 0.13088 0.02029 0.04091 0.0
H78 H 0.08104 0.00327 0.99558 0.0
H79 H 0.17413 0.02305 0.0221 0.0
H80 H 0.97623 0.93052 0.06168 0.0
H81 H 0.92994 0.01164 0.05478 0.0
H82 H 0.90637 0.87181 0.05864 0.0
H83 H 0.8609 0.95148 0.05184 0.0
H84 H 0.04067 0.95106 0.10003 0.0
H85 H 0.10644 0.92408 0.07022 0.0
H86 H 0.91416 0.00286 0.00543 0.0
H87 H 0.92531 0.89732 0.01368 0.0
Li88 Li 0.02281 0.98086 0.37895 0.0
Li89 Li 0.0742 0.04012 0.39057 0.0
Li90 Li 0.00077 0.01172 0.39477 0.0
Li91 Li 0.03059 0.048 0.37442 0.0
C92 C 0.03583 0.95208 0.39999 0.0
N93 N 0.03833 0.88106 0.40302 0.0
C94 C 0.07326 0.95339 0.40081 0.0
C95 C -0.00034 0.91467 0.40084 0.0
C96 C 0.07388 0.91715 0.40232 0.0
C97 C 0.00157 0.8791 0.40232 0.0
C98 C 0.10378 0.05741 0.36451 0.0
C99 C 0.15637 0.12698 0.3611 0.0
N100 N 0.16912 0.11474 0.3503 0.0
C101 C 0.11739 0.04548 0.3534 0.0
C102 C 0.12338 0.09844 0.3684 0.0
C103 C 0.15049 0.07493 0.34634 0.0
C104 C 0.97585 0.90106 0.36786 0.0
N105 N 0.01392 0.93165 0.37091 0.0
C106 C 0.04339 0.89292 0.3625 0.0
C107 C 0.04742 0.92832 0.36836 0.0
C108 C 0.00449 0.86081 0.35912 0.0
C109 C 0.97037 0.86506 0.36195 0.0
H110 H 0.94981 0.90474 0.36992 0.0
H111 H 0.0773 0.95326 0.37093 0.0
C112 C 0.12909 0.0763 0.41129 0.0
N113 N 0.12649 0.06414 0.39856 0.0
C114 C 0.16538 0.09082 0.41814 0.0
C115 C 0.19568 0.07891 0.3988 0.0
C116 C 0.15881 0.06505 0.39225 0.0
C117 C 0.1991 0.0918 0.41194 0.0
H118 H 0.10249 0.07302 0.41632 0.0
H119 H 0.15563 0.05356 0.38231 0.0
C120 C 0.93972 0.98389 0.37865 0.0
N121 N 0.8599 0.96332 0.38368 0.0
C122 C 0.92518 0.00932 0.37468 0.0
C123 C 0.91352 0.94776 0.38506 0.0
C124 C 0.88475 -0.00157 0.37733 0.0
C125 C 0.87332 0.93797 0.38756 0.0
C126 C 0.05681 0.10239 0.40071 0.0
C127 C 0.04824 0.09681 0.4141 0.0
C128 C 0.07881 0.14195 0.39591 0.0
C129 C 0.06225 0.13083 0.42247 0.0
C130 C 0.09228 0.17519 0.4046 0.0
N131 N 0.08381 0.16899 0.41759 0.0
C132 C 0.95419 0.97713 0.41755 0.0
C133 C 0.94732 0.0304 0.40847 0.0
C134 C 0.92903 0.97436 0.42804 0.0
N135 N 0.96292 0.00498 0.40812 0.0
C136 C 0.92223 0.02887 0.41881 0.0
C137 C 0.91316 0.00087 0.42886 0.0
H138 H 0.96749 0.95771 0.4171 0.0
H139 H 0.95543 0.0527 0.40092 0.0
C140 C 0.03827 0.08022 0.34919 0.0
N141 N 0.02922 0.08323 0.36193 0.0
C142 C 0.03819 0.10696 0.34005 0.0
C143 C 0.01843 0.13855 0.35728 0.0
C144 C 0.01916 0.1114 0.36609 0.0
C145 C 0.02823 0.13664 0.34408 0.0
H146 H 0.0456 0.0571 0.34613 0.0
H147 H 0.01163 0.11268 0.37627 0.0
O148 O 0.03461 0.98715 0.3982 0.0
O149 O 0.07103 0.02896 0.37139 0.0
O150 O 0.97943 0.99443 0.37635 0.0
O151 O 0.0426 0.06945 0.39229 0.0
H152 H 0.10155 0.982 0.40017 0.0
H153 H 0.97042 0.913 0.40014 0.0
H154 H 0.10264 0.9177 0.40289 0.0
H155 H 0.97382 0.84991 0.40286 0.0
H156 H 0.17185 0.15885 0.36401 0.0
H157 H 0.10243 0.01379 0.35024 0.0
H158 H 0.1134 0.10805 0.37702 0.0
H159 H 0.16134 0.06616 0.33771 0.0
H160 H 0.07044 0.89073 0.36063 0.0
H161 H 0.93992 0.84127 0.35933 0.0
H162 H 0.16638 0.09923 0.42839 0.0
H163 H 0.22092 0.07874 0.39374 0.0
H164 H 0.94488 0.03723 0.36963 0.0
H165 H 0.92428 0.92781 0.38827 0.0
H166 H 0.87315 0.01793 0.37436 0.0
H167 H 0.85284 0.9103 0.39262 0.0
H168 H 0.03157 0.06654 0.41805 0.0
H169 H 0.0853 0.14706 0.38558 0.0
H170 H 0.05605 0.12688 0.43286 0.0
H171 H 0.10938 0.20593 0.40101 0.0
H172 H 0.92245 0.95201 0.43547 0.0
H173 H 0.91126 0.05035 0.41915 0.0
H174 H 0.04538 0.10415 0.32992 0.0
H175 H 0.01088 0.16117 0.36081 0.0
Li176 Li 0.0932 0.05489 0.70978 0.0
Li177 Li 0.08841 0.10614 0.72258 0.0
Li178 Li 0.03932 0.03182 0.72608 0.0
Li179 Li 0.03989 0.06861 0.70593 0.0
C180 C 0.13092 0.05898 0.73175 0.0
N181 N 0.19801 0.05038 0.73601 0.0
C182 C 0.17017 0.09255 0.73066 0.0
C183 C 0.12572 0.02111 0.73509 0.0
C184 C 0.20372 0.08755 0.73283 0.0
C185 C 0.16005 0.01738 0.73719 0.0
C186 C 0.09693 0.12291 0.69223 0.0
C187 C 0.08463 0.16998 0.68037 0.0
N188 N 0.08965 0.15404 0.6689 0.0
C189 C 0.10207 0.10707 0.68033 0.0
C190 C 0.08828 0.15472 0.69227 0.0
C191 C 0.09827 0.12323 0.66864 0.0
C192 C 0.13285 0.00817 0.70298 0.0
N193 N 0.13393 0.04454 0.70231 0.0
C194 C 0.19757 0.07371 0.69095 0.0
C195 C 0.16602 0.07729 0.69675 0.0
C196 C 0.19627 0.036 0.69086 0.0
C197 C 0.16366 0.00308 0.69718 0.0
H198 H 0.10814 0.98306 0.70799 0.0
H199 H 0.16718 0.10638 0.69686 0.0
C200 C 0.1206 0.15704 0.74482 0.0
N201 N 0.12067 0.15642 0.73153 0.0
C202 C 0.14747 0.19248 0.75172 0.0
C203 C 0.17403 0.22588 0.7311 0.0
C204 C 0.14643 0.18986 0.72461 0.0
C205 C 0.17512 0.22727 0.74483 0.0
H206 H 0.10059 0.12958 0.75005 0.0
H207 H 0.14661 0.18815 0.71405 0.0
C208 C 0.03482 0.98106 0.70161 0.0
N209 N 0.03502 0.91473 0.68979 0.0
C210 C 0.04663 0.9826 0.68851 0.0
C211 C 0.02307 0.94571 0.70868 0.0
C212 C 0.04658 0.94879 0.68272 0.0
C213 C 0.02335 0.9125 0.70252 0.0
C214 C 0.02349 0.1021 0.73353 0.0
C215 C 0.01133 0.08816 0.74624 0.0
C216 C 0.03192 0.1413 0.73039 0.0
C217 C 0.00819 0.11384 0.75565 0.0
C218 C 0.02849 0.16607 0.74008 0.0
N219 N 0.01681 0.15195 0.75241 0.0
C220 C 0.02059 0.99012 0.75005 0.0
C221 C 0.96646 0.96676 0.73481 0.0
C222 C 0.99482 0.96159 0.75912 0.0
N223 N 0.00595 0.99208 0.7382 0.0
C224 C 0.93974 0.93763 0.74353 0.0
C225 C 0.9538 0.93493 0.75589 0.0
H226 H 0.0521 0.01108 0.7525 0.0
H227 H 0.95575 0.96948 0.72534 0.0
C228 C -0.00082 0.05248 0.68152 0.0
N229 N 0.00396 0.0706 0.6935 0.0
C230 C 0.97249 0.05337 0.67245 0.0
C231 C 0.95583 0.09131 0.68827 0.0
C232 C 0.98292 0.08974 0.69701 0.0
C233 C 0.95025 0.07284 0.67581 0.0
H234 H 0.01599 0.03723 0.67899 0.0
H235 H 0.98699 0.10362 0.70662 0.0
O236 O 0.09777 0.06304 0.72934 0.0
O237 O 0.09953 0.10682 0.70379 0.0
O238 O 0.03419 0.01366 0.70743 0.0
O239 O 0.02725 0.07757 0.72422 0.0
H240 H 0.17465 0.12202 0.72802 0.0
H241 H 0.0955 0.99477 0.73585 0.0
H242 H 0.23429 0.11319 0.73194 0.0
H243 H 0.15653 0.9882 0.7397 0.0
H244 H 0.07768 0.19441 0.68025 0.0
H245 H 0.10847 0.08226 0.68008 0.0
H246 H 0.08392 0.16718 0.70137 0.0
H247 H 0.10198 0.11112 0.65935 0.0
H248 H 0.22274 0.10028 0.68658 0.0
H249 H 0.16145 0.97348 0.6974 0.0
H250 H 0.14789 0.19204 0.7623 0.0
H251 H 0.19487 0.25207 0.72545 0.0
H252 H 0.05654 0.00984 0.68294 0.0
H253 H 0.01409 0.94393 0.71882 0.0
H254 H 0.05593 0.94971 0.67263 0.0
H255 H 0.01441 0.88501 0.70789 0.0
H256 H 0.00449 0.05792 0.74886 0.0
H257 H 0.04158 0.15272 0.72064 0.0
H258 H -0.00105 0.10348 0.76554 0.0
H259 H 0.03523 0.19657 0.73781 0.0
H260 H 0.00684 0.96032 0.76854 0.0
H261 H 0.9082 0.91805 0.74073 0.0
H262 H 0.96871 0.03826 0.66302 0.0
H263 H 0.93959 0.10698 0.69121 0.0
H264 H 0.03626 0.51036 0.1336 0.0
H265 H 0.09506 0.79365 0.24845 0.0
H266 H 0.97914 0.45467 0.2038 0.0
H267 H 0.96953 0.39363 0.192 0.0
H268 H 0.09152 0.42318 0.20251 0.0
H269 H 0.1009 0.4846 0.21429 0.0
H270 H -5e-05 0.53407 0.18784 0.0
H271 H 0.00434 0.52353 0.16429 0.0
H272 H 0.12081 0.53097 0.16991 0.0
H273 H 0.11624 0.542 0.19342 0.0
H274 H 0.00449 0.60565 0.20496 0.0
H275 H 0.01433 0.65725 0.18915 0.0
H276 H 0.1365 0.68031 0.18143 0.0
H277 H 0.12673 0.62948 0.1976 0.0
H278 H 0.99075 0.59361 0.23533 0.0
H279 H 0.99253 0.65525 0.24401 0.0
H280 H 0.12093 0.72527 0.23466 0.0
H281 H 0.11883 0.66328 0.22617 0.0
H282 H 0.97793 0.50886 0.24754 0.0
H283 H 0.96157 0.52211 0.26964 0.0
H284 H 0.08317 0.62617 0.27323 0.0
H285 H 0.09993 0.6108 0.25151 0.0
H286 H 0.97983 0.44348 0.23292 0.0
H287 H 0.97584 0.39134 0.24759 0.0
H288 H 0.09981 0.4732 0.2599 0.0
H289 H 0.10367 0.5248 0.24507 0.0
O290 O 0.03524 0.51477 0.14293 0.0
O291 O 0.09487 0.51854 0.14636 0.0
O292 O 0.02753 0.73135 0.24979 0.0
O293 O 0.0935 0.7688 0.24508 0.0
C294 C 0.04783 0.51345 0.21524 0.0
C295 C 0.05483 0.54483 0.20661 0.0
C296 C 0.05819 0.58146 0.21156 0.0
C297 C 0.05359 0.58635 0.2251 0.0
C298 C 0.04728 0.55507 0.23376 0.0
C299 C 0.04527 0.519 0.22882 0.0
C300 C 0.04071 0.47391 0.20981 0.0
C301 C 0.00344 0.44745 0.20376 0.0
C302 C -0.00203 0.41256 0.1971 0.0
C303 C 0.02982 0.40374 0.19633 0.0
C304 C 0.06659 0.42946 0.2029 0.0
C305 C 0.07194 0.4643 0.20965 0.0
C306 C 0.05779 0.53884 0.1923 0.0
C307 C 0.02646 0.53362 0.18394 0.0
C308 C 0.02902 0.5275 0.17051 0.0
C309 C 0.06293 0.52637 0.16522 0.0
C310 C 0.09428 0.53165 0.17366 0.0
C311 C 0.09173 0.53788 0.18709 0.0
C312 C 0.06494 0.61401 0.20242 0.0
C313 C 0.03351 0.62223 0.19996 0.0
C314 C 0.03907 0.65139 0.19084 0.0
C315 C 0.07612 0.67265 0.18399 0.0
C316 C 0.10778 0.66472 0.18665 0.0
C317 C 0.10221 0.63561 0.1958 0.0
C318 C 0.05468 0.62399 0.23017 0.0
C319 C 0.01924 0.62228 0.23521 0.0
C320 C 0.02034 0.65754 0.24013 0.0
C321 C 0.05691 0.69522 0.24003 0.0
C322 C 0.09229 0.69679 0.23489 0.0
C323 C 0.09117 0.66147 0.23001 0.0
C324 C 0.04 0.55913 0.24788 0.0
C325 C 0.00143 0.53366 0.25329 0.0
C326 C 0.99199 0.5416 0.26587 0.0
C327 C 0.02077 0.57564 0.27317 0.0
C328 C 0.06029 0.59946 0.268 0.0
C329 C 0.06989 0.59102 0.25551 0.0
C330 C 0.0421 0.48772 0.23792 0.0
C331 C 0.00608 0.45 0.23878 0.0
C332 C 0.00379 0.42045 0.24721 0.0
C333 C 0.03759 0.4282 0.25485 0.0
C334 C 0.0735 0.4662 0.254 0.0
C335 C 0.07568 0.49574 0.24562 0.0
C336 C 0.06546 0.51968 0.15095 0.0
C337 C 0.05826 0.73276 0.24527 0.0
H338 H 0.56463 0.02249 0.46489 0.0
H339 H 0.34564 0.11502 0.57325 0.0
H340 H 0.56389 0.98233 0.53798 0.0
H341 H 0.61381 0.96791 0.52752 0.0
H342 H 0.70636 0.09463 0.53266 0.0
H343 H 0.65632 0.10815 0.54365 0.0
H344 H 0.50699 0.00105 0.51908 0.0
H345 H 0.52102 -0.00109 0.49572 0.0
H346 H 0.62932 0.11748 0.4996 0.0
H347 H 0.61465 0.11935 0.52293 0.0
H348 H 0.44224 0.01554 0.53225 0.0
H349 H 0.40583 0.02755 0.51484 0.0
H350 H 0.50857 0.14891 0.51013 0.0
H351 H 0.54441 0.13678 0.52764 0.0
H352 H 0.43794 0.00531 0.56444 0.0
H353 H 0.37852 0.00988 0.57172 0.0
H354 H 0.4398 0.13668 0.56096 0.0
H355 H 0.4992 0.13181 0.55387 0.0
H356 H 0.51205 0.99503 0.57921 0.0
H357 H 0.48529 0.98479 0.60147 0.0
H358 H 0.49836 0.10507 0.60164 0.0
H359 H 0.52862 0.11624 0.5799 0.0
H360 H 0.5791 0.99322 0.56559 0.0
H361 H 0.62952 0.99493 0.58071 0.0
H362 H 0.66778 0.12047 0.59081 0.0
H363 H 0.61825 0.11879 0.57537 0.0
O364 O 0.55959 0.02403 0.47413 0.0
O365 O 0.61505 0.08493 0.47666 0.0
O366 O 0.3386 0.04711 0.57585 0.0
O367 O 0.3687 0.11235 0.57042 0.0
C368 C 0.57488 0.05535 0.54613 0.0
C369 C 0.55128 0.06127 0.53685 0.0
C370 C 0.51906 0.06732 0.54102 0.0
C371 C 0.50907 0.06543 0.55443 0.0
C372 C 0.5332 0.06007 0.56378 0.0
C373 C 0.56688 0.05627 0.5596 0.0
C374 C 0.60665 0.04622 0.54151 0.0
C375 C 0.5952 0.00669 0.53709 0.0
C376 C 0.62367 -0.00135 0.53102 0.0
C377 C 0.66396 0.03024 0.52908 0.0
C378 C 0.67572 0.06953 0.5341 0.0
C379 C 0.64723 0.07741 0.54033 0.0
C380 C 0.55986 0.0603 0.52266 0.0
C381 C 0.53365 0.02656 0.51484 0.0
C382 C 0.54178 0.02541 0.50151 0.0
C383 C 0.57634 0.05801 0.49579 0.0
C384 C 0.60249 0.09185 0.50369 0.0
C385 C 0.59425 0.09297 0.51701 0.0
C386 C 0.49579 0.07536 0.53118 0.0
C387 C 0.45657 0.04483 0.52754 0.0
C388 C 0.43606 0.05163 0.51755 0.0
C389 C 0.45448 0.08912 0.51111 0.0
C390 C 0.49349 0.1199 0.515 0.0
C391 C 0.51401 0.113 0.52494 0.0
C392 C 0.47282 0.06821 0.55863 0.0
C393 C 0.43845 0.03404 0.56368 0.0
C394 C 0.40456 0.03673 0.56782 0.0
C395 C 0.40441 0.07368 0.56692 0.0
C396 C 0.43889 0.10779 0.56178 0.0
C397 C 0.4728 0.10507 0.55768 0.0
C398 C 0.52181 0.0562 0.57786 0.0
C399 C 0.51028 0.01962 0.58423 0.0
C400 C 0.49442 0.01362 0.59691 0.0
C401 C 0.48879 0.04372 0.60335 0.0
C402 C 0.50249 0.08122 0.59714 0.0
C403 C 0.51933 0.08755 0.5846 0.0
C404 C 0.59538 0.05601 0.56931 0.0
C405 C 0.5985 0.02106 0.57105 0.0
C406 C 0.62704 0.02202 0.57977 0.0
C407 C 0.65281 0.05794 0.58689 0.0
C408 C 0.64887 0.09258 0.5853 0.0
C409 C 0.62041 0.09159 0.57658 0.0
C410 C 0.58496 0.05663 0.48163 0.0
C411 C 0.36853 0.07674 0.57134 0.0
H412 H 0.58639 0.58817 0.96793 0.0
H413 H 0.36783 0.27908 0.85809 0.0
H414 H 0.57444 0.62798 0.89565 0.0
H415 H 0.6219 0.692 0.90672 0.0
H416 H 0.71952 0.6659 0.89976 0.0
H417 H 0.6718 0.6025 0.88822 0.0
H418 H 0.52332 0.55206 0.91445 0.0
H419 H 0.53941 0.56765 0.93772 0.0
H420 H 0.64973 0.56198 0.93176 0.0
H421 H 0.63301 0.54599 0.90854 0.0
H422 H 0.45762 0.47418 0.89942 0.0
H423 H 0.41914 0.42441 0.91624 0.0
H424 H 0.52277 0.40856 0.92292 0.0
H425 H 0.56059 0.45757 0.90575 0.0
H426 H 0.45094 0.47918 0.86952 0.0
H427 H 0.39324 0.41445 0.86198 0.0
H428 H 0.46115 0.35364 0.87016 0.0
H429 H 0.51886 0.41872 0.8775 0.0
H430 H 0.51584 0.56412 0.85643 0.0
H431 H 0.47921 0.54495 0.83565 0.0
H432 H 0.50757 0.44827 0.83025 0.0
H433 H 0.54546 0.4687 0.85082 0.0
H434 H 0.58895 0.63633 0.86835 0.0
H435 H 0.63519 0.68655 0.8526 0.0
H436 H 0.67596 0.60321 0.83982 0.0
H437 H 0.63002 0.55348 0.85562 0.0
O438 O 0.5805 0.58177 0.95872 0.0
O439 O 0.63693 0.57866 0.95513 0.0
O440 O 0.35678 0.3379 0.85683 0.0
O441 O 0.39016 0.30507 0.86105 0.0
C442 C 0.58943 0.56953 0.88648 0.0
C443 C 0.56739 0.53902 0.89571 0.0
C444 C 0.53537 0.50066 0.89155 0.0
C445 C 0.52454 0.4932 0.87821 0.0
C446 C 0.54698 0.52373 0.86894 0.0
C447 C 0.58017 0.56148 0.87305 0.0
C448 C 0.61983 0.61082 0.89119 0.0
C449 C 0.60631 0.63669 0.89625 0.0
C450 C 0.63338 0.673 0.90267 0.0
C451 C 0.67436 0.68375 0.9043 0.0
C452 C 0.68825 0.65868 0.89858 0.0
C453 C 0.66111 0.62244 0.89203 0.0
C454 C 0.577 0.5479 0.90985 0.0
C455 C 0.55083 0.55402 0.91822 0.0
C456 C 0.56016 0.56301 0.93149 0.0
C457 C 0.59589 0.56611 0.9366 0.0
C458 C 0.622 0.55985 0.92815 0.0
C459 C 0.61257 0.55077 0.91489 0.0
C460 C 0.51172 0.46923 0.90136 0.0
C461 C 0.47177 0.45958 0.90443 0.0
C462 C 0.45007 0.43151 0.91412 0.0
C463 C 0.46807 0.41281 0.92097 0.0
C464 C 0.508 0.42222 0.91774 0.0
C465 C 0.52967 0.45026 0.908 0.0
C466 C 0.48912 0.45363 0.87399 0.0
C467 C 0.45331 0.45185 0.86964 0.0
C468 C 0.42039 0.41484 0.86537 0.0
C469 C 0.42261 0.37885 0.86545 0.0
C470 C 0.45843 0.38075 0.86995 0.0
C471 C 0.4914 0.41784 0.87418 0.0
C472 C 0.5329 0.5175 0.85518 0.0
C473 C 0.51531 0.5397 0.85053 0.0
C474 C 0.49407 0.52845 0.83874 0.0
C475 C 0.48993 0.49469 0.83142 0.0
C476 C 0.51039 0.47457 0.83561 0.0
C477 C 0.53186 0.48601 0.84739 0.0
C478 C 0.60655 0.59152 0.86322 0.0
C479 C 0.60805 0.6291 0.86219 0.0
C480 C 0.63439 0.65765 0.85321 0.0
C481 C 0.65921 0.64878 0.84501 0.0
C482 C 0.6569 0.61072 0.8459 0.0
C483 C 0.63084 0.58238 0.85494 0.0
C484 C 0.60582 0.57587 0.95069 0.0
C485 C 0.38779 0.33948 0.86085 0.0
H486 H 0.06899 0.18365 0.10963 0.0
H487 H 0.06449 0.22022 0.12899 0.0
H488 H 0.94145 0.18658 0.11871 0.0
H489 H 0.94596 0.1503 0.09909 0.0
H490 H 0.99374 0.2708 0.12454 0.0
H491 H -0.0006 0.17328 0.16311 0.0
H492 H 0.03886 0.18805 0.15099 0.0
H493 H 0.98648 0.15602 0.14631 0.0
C494 C 0.04102 0.18417 0.11145 0.0
C495 C 0.0079 0.16437 0.10281 0.0
C496 C 0.03832 0.20458 0.1226 0.0
C497 C 0.00242 0.20545 0.12536 0.0
C498 C 0.96925 0.18579 0.11678 0.0
H499 H 0.96506 0.32604 0.19409 0.0
H500 H 0.95531 0.2743 0.17738 0.0
C501 C 0.97184 0.16512 0.10562 0.0
C502 C 0.00086 0.22929 0.13677 0.0
H503 H 0.01351 0.24017 0.16991 0.0
C504 C -0.00254 0.26381 0.13448 0.0
C505 C 0.00545 0.21983 0.14971 0.0
C506 C 0.00737 0.18205 0.15273 0.0
C507 C 0.00047 0.29027 0.14477 0.0
C508 C 0.00723 0.28196 0.15759 0.0
C509 C 0.00876 0.24651 0.16 0.0
C510 C 0.01448 0.31097 0.16847 0.0
C511 C -0.00272 0.32744 0.14186 0.0
C512 C 0.05139 0.34796 0.16912 0.0
C513 C 0.05709 0.37738 0.17862 0.0
C514 C 0.02585 0.37024 0.18759 0.0
C515 C 0.9895 0.33239 0.18724 0.0
C516 C 0.98393 0.30285 0.17776 0.0
H517 H 0.98476 0.32559 0.13194 0.0
H518 H 0.97761 0.33138 0.14922 0.0
H519 H 0.02804 0.35493 0.14242 0.0
H520 H 0.07529 0.35453 0.16202 0.0
H521 H 0.08518 0.40643 0.17855 0.0
H522 H 0.84594 0.01012 0.42927 0.0
H523 H 0.80853 0.01387 0.44846 0.0
H524 H 0.8869 0.99391 0.47364 0.0
H525 H 0.92539 0.99131 0.45457 0.0
H526 H 0.79575 0.94406 0.47801 0.0
H527 H 0.85995 0.11187 0.47648 0.0
H528 H 0.84138 0.08453 0.46118 0.0
H529 H 0.88474 0.08651 0.46879 0.0
C530 C 0.85545 0.00682 0.43889 0.0
C531 C 0.88879 0.00062 0.44039 0.0
C532 C 0.83397 0.00882 0.44981 0.0
C533 C 0.84534 0.00453 0.4624 0.0
C534 C 0.87783 0.99731 0.46396 0.0
H535 H 0.74612 0.0611 0.53263 0.0
H536 H 0.79337 0.0532 0.51784 0.0
C537 C 0.89955 0.99557 0.45305 0.0
C538 C 0.82332 0.00795 0.47391 0.0
H539 H 0.80348 0.0751 0.49064 0.0
C540 C 0.79769 0.97272 0.4809 0.0
C541 C 0.82652 0.04555 0.47769 0.0
C542 C 0.85486 0.08444 0.47074 0.0
C543 C 0.77358 0.97382 0.49127 0.0
C544 C 0.77522 0.01104 0.49461 0.0
C545 C 0.80229 0.04661 0.48801 0.0
C546 C 0.7467 0.01315 0.50414 0.0
C547 C 0.74606 0.93512 0.49843 0.0
C548 C 0.70504 0.99338 0.50124 0.0
C549 C 0.67818 -0.00176 0.50952 0.0
C550 C 0.69245 0.02292 0.5209 0.0
C551 C 0.73422 0.04215 0.5239 0.0
C552 C 0.76118 0.03748 0.51553 0.0
H553 H 0.75617 0.91231 0.49713 0.0
H554 H 0.74499 0.94145 0.50905 0.0
H555 H 0.71469 0.92152 0.4945 0.0
H556 H 0.69349 0.97528 0.49233 0.0
H557 H 0.64643 0.98381 0.50672 0.0
H558 H 0.94621 0.94765 0.78195 0.0
H559 H 0.89717 0.89897 0.79748 0.0
H560 H 0.84765 0.80683 0.76686 0.0
H561 H 0.89694 0.85505 0.75132 0.0
H562 H 0.80909 0.85659 0.79442 0.0
H563 H 0.87093 0.75139 0.7977 0.0
H564 H 0.90082 0.80274 0.79181 0.0
H565 H 0.86351 0.76322 0.7814 0.0
C566 C 0.92528 0.91683 0.77858 0.0
C567 C 0.92543 0.90509 0.76544 0.0
C568 C 0.89719 0.8892 0.78743 0.0
C569 C 0.86916 0.84933 0.78331 0.0
C570 C 0.86944 0.83737 0.77024 0.0
H571 H 0.67338 0.63637 0.81952 0.0
H572 H 0.72367 0.68622 0.80457 0.0
C573 C 0.89734 0.86501 0.76137 0.0
C574 C 0.83848 0.82061 0.79255 0.0
H575 H 0.80684 0.73037 0.8077 0.0
C576 C 0.80863 0.82908 0.79741 0.0
C577 C 0.83804 0.78477 0.79632 0.0
C578 C 0.87019 0.77497 0.79164 0.0
C579 C 0.77766 0.80207 0.80577 0.0
C580 C 0.77721 0.76618 0.80956 0.0
C581 C 0.80725 0.75789 0.80475 0.0
C582 C 0.74579 0.73667 0.8185 0.0
C583 C 0.74512 0.81166 0.81017 0.0
C584 C 0.74168 0.74856 0.83128 0.0
C585 C 0.71292 0.72019 0.83981 0.0
C586 C 0.68815 0.67934 0.83575 0.0
C587 C 0.69229 0.66757 0.82294 0.0
C588 C 0.72089 0.69599 0.81439 0.0
H589 H 0.7435 0.83389 0.80367 0.0
H590 H 0.71473 0.78361 0.81042 0.0
H591 H 0.75229 0.82527 0.82019 0.0
H592 H 0.76126 0.77959 0.83474 0.0
H593 H 0.71085 0.72995 0.8497 0.0
H594 H 0.10142 0.95871 0.11149 0.0
H595 H 0.11109 0.91922 0.12821 0.0
H596 H 0.07934 0.82102 0.10016 0.0
H597 H 0.06969 0.86042 0.08338 0.0
H598 H 0.05049 0.84562 0.13681 0.0
H599 H 0.18047 0.83124 0.11764 0.0
H600 H 0.16839 0.86849 0.1117 0.0
H601 H 0.1403 0.8164 0.10596 0.0
C602 C 0.09679 0.9288 0.10888 0.0
C603 C 0.08453 0.91246 0.09618 0.0
C604 C 0.10256 0.90643 0.1184 0.0
C605 C 0.09635 0.86743 0.11537 0.0
C606 C 0.08518 0.85145 0.10261 0.0
H607 H 0.02116 0.66452 0.16553 0.0
H608 H 0.0287 0.71403 0.14926 0.0
C609 C 0.07953 0.8739 0.09305 0.0
C610 C 0.09766 0.84199 0.12588 0.0
H611 H 0.14108 0.78603 0.13478 0.0
C612 C 0.0706 0.83294 0.13644 0.0
C613 C 0.1242 0.82585 0.12541 0.0
C614 C 0.15528 0.83627 0.11463 0.0
C615 C 0.0684 0.80705 0.14634 0.0
C616 C 0.09349 0.78931 0.14554 0.0
C617 C 0.1216 0.79943 0.13525 0.0
C618 C 0.08984 0.75915 0.15512 0.0
C619 C 0.03912 0.79872 0.15757 0.0
C620 C 0.12214 0.76791 0.16357 0.0
C621 C 0.11787 0.73976 0.17293 0.0
C622 C 0.08127 0.70236 0.17392 0.0
C623 C 0.04937 0.69342 0.1652 0.0
C624 C 0.05366 0.72156 0.15588 0.0
H625 H 0.02991 0.8223 0.15848 0.0
H626 H 0.01123 0.76877 0.15587 0.0
H627 H 0.0528 0.7975 0.16696 0.0
H628 H 0.15032 0.79681 0.16307 0.0
H629 H 0.14288 0.74758 0.17956 0.0
H630 H 0.23994 0.15645 0.42881 0.0
H631 H 0.29386 0.16746 0.44409 0.0
H632 H 0.29346 0.0607 0.42818 0.0
H633 H 0.24022 0.05005 0.41278 0.0
H634 H 0.28297 0.11467 0.46266 0.0
H635 H 0.41384 0.13789 0.43189 0.0
H636 H 0.37173 0.14178 0.42552 0.0
H637 H 0.36781 0.09268 0.42709 0.0
C638 C 0.25208 0.13592 0.42841 0.0
C639 C 0.23598 0.10241 0.41963 0.0
C640 C 0.28287 0.14226 0.4371 0.0
C641 C 0.29801 0.11518 0.43718 0.0
C642 C 0.28308 0.08264 0.42806 0.0
H643 H 0.41413 0.03697 0.49077 0.0
H644 H 0.37883 0.04766 0.47275 0.0
C645 C 0.25254 0.07649 0.41929 0.0
C646 C 0.32535 0.11773 0.44782 0.0
H647 H 0.41301 0.11647 0.454 0.0
C648 C 0.31178 0.11585 0.46078 0.0
C649 C 0.36283 0.11909 0.44533 0.0
C650 C 0.3801 0.12339 0.4317 0.0
C651 C 0.33383 0.11354 0.47128 0.0
C652 C 0.37049 0.11341 0.46875 0.0
C653 C 0.38472 0.11641 0.45585 0.0
C654 C 0.3933 0.10809 0.47935 0.0
C655 C 0.31699 0.1096 0.48498 0.0
C656 C 0.41326 0.13874 0.48892 0.0
C657 C 0.43326 0.13266 0.49925 0.0
C658 C 0.4335 0.09579 0.50015 0.0
C659 C 0.41388 0.0654 0.49043 0.0
C660 C 0.39406 0.07159 0.48009 0.0
H661 H 0.28519 0.10377 0.48504 0.0
H662 H 0.31772 0.08445 0.4901 0.0
H663 H 0.3362 0.13826 0.4906 0.0
H664 H 0.4131 0.1672 0.48844 0.0
H665 H 0.44799 0.15652 0.50663 0.0
H666 H 0.16639 0.26415 0.76699 0.0
H667 H 0.22061 0.319 0.78004 0.0
H668 H 0.31002 0.32574 0.75207 0.0
H669 H 0.25607 0.27131 0.73895 0.0
H670 H 0.28143 0.31276 0.79129 0.0
H671 H 0.3478 0.44533 0.7585 0.0
H672 H 0.29873 0.40064 0.75552 0.0
H673 H 0.34477 0.4005 0.75106 0.0
C674 C 0.19757 0.27778 0.76354 0.0
C675 C 0.20702 0.26351 0.75195 0.0
C676 C 0.22845 0.30916 0.77097 0.0
C677 C 0.26928 0.32681 0.76693 0.0
C678 C 0.27866 0.31336 0.75518 0.0
H679 H 0.49862 0.46396 0.80774 0.0
H680 H 0.44535 0.42632 0.79132 0.0
C681 C 0.24778 0.28215 0.74771 0.0
C682 C 0.30228 0.35596 0.7757 0.0
H683 H 0.38738 0.45041 0.77727 0.0
C684 C 0.30431 0.34301 0.78826 0.0
C685 C 0.33227 0.3953 0.77168 0.0
C686 C 0.33065 0.41146 0.7585 0.0
C687 C 0.33591 0.36803 0.79686 0.0
C688 C 0.36606 0.4071 0.7928 0.0
C689 C 0.36414 0.42029 0.78028 0.0
C690 C 0.39957 0.43443 0.80163 0.0
C691 C 0.3373 0.35232 0.81016 0.0
C692 C 0.39147 0.45213 0.81259 0.0
C693 C 0.42158 0.47338 0.82196 0.0
C694 C 0.46037 0.47733 0.8205 0.0
C695 C 0.46893 0.46113 0.80917 0.0
C696 C 0.43871 0.43989 0.79976 0.0
H697 H 0.31558 0.31912 0.81098 0.0
H698 H 0.3685 0.35825 0.81227 0.0
H699 H 0.32936 0.36862 0.81777 0.0
H700 H 0.36133 0.44809 0.81415 0.0
H701 H 0.41375 0.48489 0.83067 0.0
H702 H 0.9597 0.08529 0.64942 0.0
H703 H 0.91028 0.08424 0.63402 0.0
H704 H 0.82503 0.05986 0.66564 0.0
H705 H 0.87402 0.0605 0.68108 0.0
H706 H 0.83087 0.0199 0.62878 0.0
H707 H 0.83043 0.15841 0.64761 0.0
H708 H 0.86974 0.14689 0.65172 0.0
H709 H 0.82116 0.12151 0.65986 0.0
C710 C 0.93037 0.07958 0.65309 0.0
C711 C 0.92081 0.07314 0.66648 0.0
C712 C 0.9023 0.07916 0.64429 0.0
C713 C 0.86431 0.07253 0.64874 0.0
C714 C 0.85456 0.0659 0.66207 0.0
H715 H 0.64512 0.00013 0.60407 0.0
H716 H 0.69721 0.00335 0.61874 0.0
C717 C 0.88259 0.06632 0.67087 0.0
C718 C 0.83437 0.07137 0.63938 0.0
H719 H 0.77931 0.11717 0.6321 0.0
C720 C 0.81968 0.04124 0.62945 0.0
C721 C 0.82025 0.09955 0.64024 0.0
C722 C 0.83643 0.13368 0.65035 0.0
C723 C 0.79054 0.03804 0.62047 0.0
C724 C 0.77545 0.06539 0.62159 0.0
C725 C 0.79072 0.09601 0.63136 0.0
C726 C 0.74408 0.06306 0.61262 0.0
C727 C 0.77653 0.00579 0.60976 0.0
C728 C 0.75308 0.09586 0.60452 0.0
C729 C 0.72347 0.09411 0.59614 0.0
C730 C 0.68421 0.0596 0.59579 0.0
C731 C 0.67525 0.02685 0.60398 0.0
C732 C 0.70493 0.02863 0.61236 0.0
H733 H 0.79796 0.99402 0.60833 0.0
H734 H 0.7463 0.97981 0.61242 0.0
H735 H 0.77331 0.01792 0.60034 0.0
H736 H 0.78315 0.1227 0.60461 0.0
H737 H 0.73149 0.11961 0.58983 0.0
H738 H 0.8559 0.86695 0.00598 0.0
H739 H 0.8188 0.82979 0.98628 0.0
H740 H 0.88094 0.94024 0.96424 0.0
H741 H 0.91886 0.97762 0.98383 0.0
H742 H 0.793 0.89069 0.9601 0.0
H743 H 0.87479 0.80368 0.95485 0.0
H744 H 0.85387 0.80211 0.97086 0.0
H745 H 0.89382 0.84969 0.96476 0.0
C746 C 0.86178 0.88334 0.99694 0.0
C747 C 0.89054 0.92517 0.99645 0.0
C748 C 0.84055 0.8621 0.98572 0.0
C749 C 0.8477 0.88226 0.97382 0.0
C750 C 0.87521 0.92423 0.97336 0.0
H751 H 0.75541 0.74001 0.90083 0.0
H752 H 0.80043 0.79402 0.91627 0.0
C753 C 0.8966 0.94553 0.98457 0.0
C754 C 0.82674 0.85915 0.96184 0.0
H755 H 0.81491 0.78034 0.942 0.0
C756 C 0.79804 0.86686 0.95602 0.0
C757 C 0.83406 0.8287 0.95645 0.0
C758 C 0.86608 0.82069 0.96196 0.0
C759 C 0.77484 0.8433 0.94529 0.0
C760 C 0.78041 0.81115 0.94041 0.0
C761 C 0.8106 0.80489 0.94582 0.0
C762 C 0.75295 0.7814 0.93051 0.0
C763 C 0.74419 0.85257 0.9394 0.0
C764 C 0.71157 0.75645 0.93347 0.0
C765 C 0.68601 0.7255 0.92479 0.0
C766 C 0.70133 0.71881 0.91294 0.0
C767 C 0.74276 0.74427 0.9099 0.0
C768 C 0.76842 0.77523 0.91865 0.0
H769 H 0.7521 0.88463 0.94147 0.0
H770 H 0.74206 0.84714 0.92864 0.0
H771 H 0.71375 0.83234 0.94372 0.0
H772 H 0.6993 0.75999 0.94273 0.0
H773 H 0.65453 0.70582 0.92761 0.0
H774 H 0.05171 0.8575 0.33932 0.0
H775 H 0.04329 0.79737 0.32731 0.0
H776 H 0.93782 0.72064 0.35072 0.0
H777 H 0.94666 0.78088 0.36311 0.0
H778 H 0.99462 0.69093 0.34641 0.0
H779 H 0.95006 0.73366 0.30064 0.0
H780 H 0.99638 0.77416 0.30754 0.0
H781 H 0.94925 0.75586 0.3164 0.0
C782 C 0.02703 0.82784 0.34206 0.0
C783 C -0.0002 0.82394 0.35215 0.0
C784 C 0.02205 0.79357 0.33511 0.0
C785 C 0.98963 0.75478 0.33804 0.0
C786 C 0.96287 0.75046 0.34829 0.0
H787 H 0.94805 0.57234 0.27816 0.0
H788 H 0.93209 0.60558 0.29603 0.0
C789 C 0.9678 0.78485 0.35527 0.0
C790 C 0.98371 0.71915 0.33011 0.0
H791 H 0.97228 0.68478 0.29852 0.0
C792 C 0.98906 0.68904 0.33597 0.0
C793 C 0.97559 0.71642 0.31657 0.0
C794 C 0.96706 0.74652 0.30992 0.0
C795 C 0.98895 0.65747 0.32843 0.0
C796 C 0.98406 0.65665 0.31471 0.0
C797 C 0.97633 0.68549 0.30903 0.0
C798 C 0.99 0.6286 0.3058 0.0
C799 C 0.99453 0.62569 0.33521 0.0
C800 C 0.02731 0.62912 0.30561 0.0
C801 C 0.03628 0.60933 0.29551 0.0
C802 C 0.00842 0.58934 0.28526 0.0
C803 C 0.97012 0.58689 0.28593 0.0
C804 C 0.96099 0.6062 0.29612 0.0
H805 H 0.98299 0.62163 0.34544 0.0
H806 H 0.9786 0.59581 0.32995 0.0
H807 H 0.0275 0.63583 0.33562 0.0
H808 H 0.05054 0.64686 0.31281 0.0
H809 H 0.0658 0.6113 0.29541 0.0
H810 H 0.23205 0.06862 0.66753 0.0
H811 H 0.28368 0.06038 0.65568 0.0
H812 H 0.28307 0.98233 0.6858 0.0
H813 H 0.23239 0.99197 0.69815 0.0
H814 H 0.3613 0.0383 0.67735 0.0
H815 H 0.26096 0.95792 0.63525 0.0
H816 H 0.26295 0.00547 0.63878 0.0
H817 H 0.24167 0.96564 0.65066 0.0
C818 C 0.2432 0.05013 0.67177 0.0
C819 C 0.22803 0.03094 0.6838 0.0
C820 C 0.27235 0.04502 0.66488 0.0
C821 C 0.28652 0.02007 0.66973 0.0
C822 C 0.27215 0.00138 0.68184 0.0
H823 H 0.42403 0.97071 0.61088 0.0
H824 H 0.37874 0.95821 0.6294 0.0
C825 C 0.24301 0.00668 0.68882 0.0
C826 C 0.31641 0.01396 0.66201 0.0
H827 H 0.33303 0.98942 0.63118 0.0
C828 C 0.35504 0.02692 0.66732 0.0
C829 C 0.30782 -0.00188 0.64907 0.0
C830 C 0.26593 0.98057 0.64316 0.0
C831 C 0.3862 0.02695 0.65969 0.0
C832 C 0.37863 0.01466 0.64635 0.0
C833 C 0.33918 -0.00069 0.64135 0.0
C834 C 0.41132 0.02015 0.63704 0.0
C835 C 0.42686 0.04045 0.66599 0.0
C836 C 0.4458 0.0588 0.63541 0.0
C837 C 0.47268 0.06585 0.625 0.0
C838 C 0.46501 0.03467 0.61577 0.0
C839 C 0.43152 0.99547 0.61783 0.0
C840 C 0.4052 0.98827 0.62839 0.0
H841 H 0.42314 0.03329 0.67657 0.0
H842 H 0.44284 0.02571 0.66122 0.0
H843 H 0.44627 0.07399 0.66518 0.0
H844 H 0.45083 0.0842 0.64175 0.0
H845 H 0.49854 0.09621 0.62392 0.0
H846 H 0.20594 0.12296 0.99216 0.0
H847 H 0.25933 0.16355 0.97637 0.0
H848 H 0.31464 0.26258 0.00464 0.0
H849 H 0.26139 0.22201 0.02052 0.0
H850 H 0.27011 0.23528 0.96721 0.0
H851 H 0.41324 0.25919 0.98944 0.0
H852 H 0.3635 0.21994 0.99474 0.0
H853 H 0.38337 0.27184 0.00031 0.0
C854 C 0.22978 0.15322 0.99505 0.0
C855 C 0.22943 0.16953 0.00751 0.0
C856 C 0.26034 0.17623 0.98606 0.0
C857 C 0.29111 0.21587 0.98938 0.0
C858 C 0.29169 0.23171 0.00199 0.0
H859 H 0.42078 0.42045 0.93991 0.0
H860 H 0.37952 0.37095 0.95647 0.0
C861 C 0.26119 0.20859 0.01102 0.0
C862 C 0.31958 0.24222 0.97921 0.0
H863 H 0.42033 0.3032 0.97187 0.0
C864 C 0.30295 0.24974 0.96816 0.0
C865 C 0.36236 0.26082 0.98045 0.0
C866 C 0.38173 0.25228 0.99182 0.0
C867 C 0.32797 0.27642 0.95851 0.0
C868 C 0.37068 0.29646 0.96005 0.0
C869 C 0.38748 0.28799 0.97085 0.0
C870 C 0.39804 0.3273 0.95068 0.0
C871 C 0.30857 0.28327 0.94678 0.0
C872 C 0.42274 0.31933 0.94221 0.0
C873 C 0.44613 0.34742 0.93265 0.0
C874 C 0.44519 0.38388 0.93151 0.0
C875 C 0.42143 0.39224 0.94036 0.0
C876 C 0.39807 0.36417 0.94986 0.0
H877 H 0.27624 0.25895 0.94559 0.0
H878 H 0.30943 0.31287 0.94803 0.0
H879 H 0.32552 0.28451 0.93769 0.0
H880 H 0.42299 0.29093 0.94274 0.0
H881 H 0.46398 0.34006 0.92593 0.0
H882 H 0.0848 0.17801 0.32515 0.0
H883 H 0.08547 0.22706 0.30984 0.0
H884 H 0.97235 0.20942 0.32623 0.0
H885 H 0.97157 0.16053 0.34159 0.0
H886 H 0.02914 0.21672 0.29103 0.0
H887 H 0.0454 0.33282 0.32834 0.0
H888 H 0.05353 0.29107 0.33203 0.0
H889 H 0.00265 0.28299 0.33109 0.0
C890 C 0.05998 0.18445 0.32544 0.0
C891 C 0.02826 0.16565 0.33461 0.0
C892 C 0.06049 0.21256 0.31673 0.0
C893 C 0.02934 0.22237 0.31707 0.0
C894 C 0.99721 0.20303 0.32604 0.0
H895 H 0.97587 0.38012 0.27152 0.0
H896 H 0.97313 0.32873 0.28626 0.0
C897 C 0.99677 0.17509 0.33478 0.0
C898 C 0.03018 0.25239 0.3079 0.0
H899 H 0.03202 0.34326 0.30657 0.0
C900 C 0.02994 0.24448 0.29441 0.0
C901 C 0.03128 0.28857 0.31238 0.0
C902 C 0.03362 0.29966 0.32674 0.0
C903 C 0.03012 0.27153 0.28525 0.0
C904 C 0.03095 0.30752 0.28974 0.0
C905 C 0.03117 0.31546 0.30321 0.0
C906 C 0.03225 0.33771 0.28059 0.0
C907 C 0.02879 0.26119 0.27085 0.0
C908 C 0.06652 0.3598 0.27263 0.0
C909 C 0.06816 0.38907 0.26422 0.0
C910 C 0.03554 0.39674 0.26365 0.0
C911 C 0.00122 0.37449 0.27164 0.0
C912 C -0.0003 0.34535 0.2801 0.0
H913 H 0.01917 0.22855 0.26911 0.0
H914 H 0.00759 0.26819 0.26563 0.0
H915 H 0.05963 0.27989 0.26657 0.0
H916 H 0.09215 0.35465 0.27301 0.0
H917 H 0.09485 0.40554 0.2581 0.0
loop_
_geom_bond_atom_site_label_1
_geom_bond_atom_site_label_2
_geom_bond_distance
_geom_bond_site_symmetry_2
_ccdc_geom_bond_type
Li0 N17 1.990 . S
Li0 O60 1.956 . S
Li0 O61 1.970 . S
Li0 O62 1.961 . S
Li1 N25 1.990 . S
Li1 O60 1.970 . S
Li1 O61 1.956 . S
Li1 O63 1.961 . S
Li2 N47 1.990 1_545 S
Li2 O60 1.961 . S
Li2 O62 1.956 . S
Li2 O63 1.970 . S
Li3 N53 1.990 1_445 S
Li3 O61 1.961 . S
Li3 O62 1.970 . S
Li3 O63 1.956 . S
C4 C6 1.348 . S
C4 C7 1.356 . S
C4 O60 1.325 . S
N5 C8 1.314 . S
N5 C9 1.279 . S
C6 C4 1.348 . S
C6 C8 1.353 . S
C6 H64 0.929 . S
C7 C4 1.356 . S
C7 C9 1.358 . S
C7 H65 0.930 . S
C8 N5 1.314 . S
C8 C6 1.353 . S
C8 H66 0.930 . S
C9 N5 1.279 . S
C9 C7 1.358 . S
C9 H67 0.930 . S
C10 C13 1.348 . S
C10 C14 1.356 1_455 S
C10 O61 1.325 . S
C11 N12 1.279 1_655 S
C11 C14 1.358 . S
C11 H68 0.930 . S
N12 C11 1.279 1_455 S
N12 C15 1.314 . S
C13 C10 1.348 . S
C13 C15 1.353 . S
C13 H69 0.929 . S
C14 C10 1.356 1_655 S
C14 C11 1.358 . S
C14 H70 0.930 . S
C15 N12 1.314 . S
C15 C13 1.353 . S
C15 H71 0.930 . S
C16 N17 1.314 . S
C16 C21 1.353 . S
C16 H22 0.930 . S
N17 Li0 1.990 . S
N17 C16 1.314 . S
N17 C19 1.279 . S
C18 C19 1.358 . S
C18 C20 1.356 . S
C18 H72 0.930 . S
C19 N17 1.279 . S
C19 C18 1.358 . S
C19 H23 0.930 . S
C20 C18 1.356 . S
C20 C21 1.348 . S
C21 C16 1.353 . S
C21 C20 1.348 . S
C21 H73 0.929 . S
H22 C16 0.930 . S
H23 C19 0.930 . S
C24 N25 1.314 . S
C24 C26 1.353 . S
C24 H30 0.930 . S
N25 Li1 1.990 . S
N25 C24 1.314 . S
N25 C28 1.279 . S
C26 C24 1.353 . S
C26 C29 1.348 . S
C26 H74 0.929 . S
C27 C28 1.358 . S
C27 C29 1.356 . S
C27 H75 0.930 . S
C28 N25 1.279 . S
C28 C27 1.358 . S
C28 H31 0.930 . S
C29 C26 1.348 . S
C29 C27 1.356 . S
H30 C24 0.930 . S
H31 C28 0.930 . S
C32 C34 1.348 . S
C32 C35 1.356 . S
C32 O62 1.325 1_565 S
N33 C36 1.314 . S
N33 C37 1.279 . S
C34 C32 1.348 . S
C34 C36 1.353 . S
C34 H76 0.929 . S
C35 C32 1.356 . S
C35 C37 1.358 . S
C35 H77 0.930 1_565 S
C36 N33 1.314 . S
C36 C34 1.353 . S
C36 H78 0.930 . S
C37 N33 1.279 . S
C37 C35 1.358 . S
C37 H79 0.930 . S
C38 C39 1.348 . S
C38 C40 1.356 . S
C38 O63 1.325 1_665 S
C39 C38 1.348 . S
C39 C41 1.353 . S
C39 H80 0.929 . S
C40 C38 1.356 . S
C40 C42 1.358 . S
C40 H81 0.930 1_565 S
C41 C39 1.353 . S
C41 N43 1.314 . S
C41 H82 0.930 . S
C42 C40 1.358 . S
C42 N43 1.279 . S
C42 H83 0.930 . S
N43 C41 1.314 . S
N43 C42 1.279 . S
C44 C46 1.353 . S
C44 N47 1.314 . S
C44 H50 0.930 1_565 S
C45 N47 1.279 . S
C45 C48 1.358 . S
C45 H51 0.930 . S
C46 C44 1.353 . S
C46 C49 1.348 . S
C46 H84 0.929 . S
N47 Li2 1.990 1_565 S
N47 C44 1.314 . S
N47 C45 1.279 . S
C48 C45 1.358 . S
C48 C49 1.356 . S
C48 H85 0.930 . S
C49 C46 1.348 . S
C49 C48 1.356 . S
H50 C44 0.930 1_545 S
H51 C45 0.930 . S
C52 N53 1.314 . S
C52 C54 1.353 . S
C52 H58 0.930 1_565 S
N53 Li3 1.990 1_665 S
N53 C52 1.314 . S
N53 C56 1.279 . S
C54 C52 1.353 . S
C54 C57 1.348 . S
C54 H86 0.929 . S
C55 C56 1.358 . S
C55 C57 1.356 . S
C55 H87 0.930 . S
C56 N53 1.279 . S
C56 C55 1.358 . S
C56 H59 0.930 . S
C57 C54 1.348 . S
C57 C55 1.356 . S
H58 C52 0.930 1_545 S
H59 C56 0.930 . S
O60 Li0 1.956 . S
O60 Li1 1.970 . S
O60 Li2 1.961 . S
O60 C4 1.325 . S
O61 Li0 1.970 . S
O61 Li1 1.956 . S
O61 Li3 1.961 . S
O61 C10 1.325 . S
O62 Li0 1.961 . S
O62 Li2 1.956 . S
O62 Li3 1.970 . S
O62 C32 1.325 1_545 S
O63 Li1 1.961 . S
O63 Li2 1.970 . S
O63 Li3 1.956 . S
O63 C38 1.325 1_445 S
H64 C6 0.929 . S
H65 C7 0.930 . S
H66 C8 0.930 . S
H67 C9 0.930 . S
H68 C11 0.930 . S
H69 C13 0.929 . S
H70 C14 0.930 . S
H71 C15 0.930 . S
H72 C18 0.930 . S
H73 C21 0.929 . S
H74 C26 0.929 . S
H75 C27 0.930 . S
H76 C34 0.929 . S
H77 C35 0.930 1_545 S
H78 C36 0.930 . S
H79 C37 0.930 . S
H80 C39 0.929 . S
H81 C40 0.930 1_545 S
H82 C41 0.930 . S
H83 C42 0.930 . S
H84 C46 0.929 . S
H85 C48 0.930 . S
H86 C54 0.929 . S
H87 C55 0.930 . S
Li88 N105 1.990 . S
Li88 O148 1.956 . S
Li88 O149 1.970 1_565 S
Li88 O150 1.961 1_465 S
Li89 N113 1.990 . S
Li89 O148 1.970 1_545 S
Li89 O149 1.956 . S
Li89 O151 1.961 . S
Li90 N135 1.990 1_545 S
Li90 O148 1.961 1_645 S
Li90 O150 1.956 . S
Li90 O151 1.970 1_655 S
Li91 N141 1.990 . S
Li91 O149 1.961 . S
Li91 O150 1.970 1_455 S
Li91 O151 1.956 . S
C92 C94 1.348 . S
C92 C95 1.356 1_455 S
C92 O148 1.325 . S
N93 C96 1.314 1_655 S
N93 C97 1.279 . S
C94 C92 1.348 . S
C94 C96 1.353 . S
C94 H152 0.929 . S
C95 C92 1.356 1_655 S
C95 C97 1.358 . S
C95 H153 0.930 . S
C96 N93 1.314 1_455 S
C96 C94 1.353 . S
C96 H154 0.930 . S
C97 N93 1.279 . S
C97 C95 1.358 . S
C97 H155 0.930 . S
C98 C101 1.348 . S
C98 C102 1.356 . S
C98 O149 1.325 . S
C99 N100 1.279 . S
C99 C102 1.358 . S
C99 H156 0.930 . S
N100 C99 1.279 . S
N100 C103 1.314 . S
C101 C98 1.348 . S
C101 C103 1.353 . S
C101 H157 0.929 1_545 S
C102 C98 1.356 . S
C102 C99 1.358 . S
C102 H158 0.930 . S
C103 N100 1.314 . S
C103 C101 1.353 . S
C103 H159 0.930 1_545 S
C104 N105 1.314 . S
C104 C109 1.353 1_455 S
C104 H110 0.944 . S
N105 Li88 1.990 . S
N105 C104 1.314 . S
N105 C107 1.279 . S
C106 C107 1.358 . S
C106 C108 1.356 1_455 S
C106 H160 0.916 . S
C107 N105 1.279 . S
C107 C106 1.358 . S
C107 H111 0.930 . S
C108 C106 1.356 1_655 S
C108 C109 1.348 . S
C109 C104 1.353 1_655 S
C109 C108 1.348 . S
C109 H161 0.929 . S
H110 C104 0.944 . S
H111 C107 0.930 . S
C112 N113 1.314 . S
C112 C114 1.353 . S
C112 H118 0.930 . S
N113 Li89 1.990 . S
N113 C112 1.314 . S
N113 C116 1.279 . S
C114 C112 1.353 . S
C114 C117 1.348 . S
C114 H162 0.929 . S
C115 C116 1.358 . S
C115 C117 1.356 . S
C115 H163 0.930 . S
C116 N113 1.279 . S
C116 C115 1.358 . S
C116 H119 0.930 . S
C117 C114 1.348 . S
C117 C115 1.356 . S
H118 C112 0.930 . S
H119 C116 0.930 . S
C120 C122 1.348 1_565 S
C120 C123 1.356 . S
C120 O150 1.325 1_565 S
N121 C124 1.314 1_565 S
N121 C125 1.279 . S
C122 C120 1.348 1_545 S
C122 C124 1.353 . S
C122 H164 0.929 . S
C123 C120 1.356 . S
C123 C125 1.358 . S
C123 H165 0.930 . S
C124 N121 1.314 1_545 S
C124 C122 1.353 . S
C124 H166 0.930 . S
C125 N121 1.279 . S
C125 C123 1.358 . S
C125 H167 0.930 . S
C126 C127 1.348 . S
C126 C128 1.356 . S
C126 O151 1.325 . S
C127 C126 1.348 . S
C127 C129 1.353 . S
C127 H168 0.929 . S
C128 C126 1.356 . S
C128 C130 1.358 . S
C128 H169 0.930 . S
C129 C127 1.353 . S
C129 N131 1.314 . S
C129 H170 0.930 . S
C130 C128 1.358 . S
C130 N131 1.279 . S
C130 H171 0.930 . S
N131 C129 1.314 . S
N131 C130 1.279 . S
C132 C134 1.353 . S
C132 N135 1.314 . S
C132 H138 0.930 . S
C133 N135 1.279 . S
C133 C136 1.358 . S
C133 H139 0.930 . S
C134 C132 1.353 . S
C134 C137 1.348 . S
C134 H172 0.929 . S
N135 Li90 1.990 1_565 S
N135 C132 1.314 . S
N135 C133 1.279 . S
C136 C133 1.358 . S
C136 C137 1.356 . S
C136 H173 0.930 . S
C137 C134 1.348 . S
C137 C136 1.356 . S
H138 C132 0.930 . S
H139 C133 0.930 . S
C140 N141 1.314 . S
C140 C142 1.353 . S
C140 H146 0.930 . S
N141 Li91 1.990 . S
N141 C140 1.314 . S
N141 C144 1.279 . S
C142 C140 1.353 . S
C142 C145 1.348 . S
C142 H174 0.929 . S
C143 C144 1.358 . S
C143 C145 1.356 . S
C143 H175 0.930 . S
C144 N141 1.279 . S
C144 C143 1.358 . S
C144 H147 0.930 . S
C145 C142 1.348 . S
C145 C143 1.356 . S
H146 C140 0.930 . S
H147 C144 0.930 . S
O148 Li88 1.956 . S
O148 Li89 1.970 1_565 S
O148 Li90 1.961 1_465 S
O148 C92 1.325 . S
O149 Li88 1.970 1_545 S
O149 Li89 1.956 . S
O149 Li91 1.961 . S
O149 C98 1.325 . S
O150 Li88 1.961 1_645 S
O150 Li90 1.956 . S
O150 Li91 1.970 1_655 S
O150 C120 1.325 1_545 S
O151 Li89 1.961 . S
O151 Li90 1.970 1_455 S
O151 Li91 1.956 . S
O151 C126 1.325 . S
H152 C94 0.929 . S
H153 C95 0.930 . S
H154 C96 0.930 . S
H155 C97 0.930 . S
H156 C99 0.930 . S
H157 C101 0.929 1_565 S
H158 C102 0.930 . S
H159 C103 0.930 1_565 S
H160 C106 0.916 . S
H161 C109 0.929 . S
H162 C114 0.929 . S
H163 C115 0.930 . S
H164 C122 0.929 . S
H165 C123 0.930 . S
H166 C124 0.930 . S
H167 C125 0.930 . S
H168 C127 0.929 . S
H169 C128 0.930 . S
H170 C129 0.930 . S
H171 C130 0.930 . S
H172 C134 0.929 . S
H173 C136 0.930 . S
H174 C142 0.929 . S
H175 C143 0.930 . S
Li176 N193 1.990 . S
Li176 O236 1.956 . S
Li176 O237 1.970 . S
Li176 O238 1.961 . S
Li177 N201 1.990 . S
Li177 O236 1.970 . S
Li177 O237 1.956 . S
Li177 O239 1.961 . S
Li178 N223 1.990 1_545 S
Li178 O236 1.961 . S
Li178 O238 1.956 . S
Li178 O239 1.970 . S
Li179 N229 1.990 . S
Li179 O237 1.961 . S
Li179 O238 1.970 . S
Li179 O239 1.956 . S
C180 C182 1.348 . S
C180 C183 1.356 . S
C180 O236 1.325 . S
N181 C184 1.314 . S
N181 C185 1.279 . S
C182 C180 1.348 . S
C182 C184 1.353 . S
C182 H240 0.929 . S
C183 C180 1.356 . S
C183 C185 1.358 . S
C183 H241 0.930 1_545 S
C184 N181 1.314 . S
C184 C182 1.353 . S
C184 H242 0.930 . S
C185 N181 1.279 . S
C185 C183 1.358 . S
C185 H243 0.930 1_545 S
C186 C189 1.348 . S
C186 C190 1.356 . S
C186 O237 1.325 . S
C187 N188 1.279 . S
C187 C190 1.358 . S
C187 H244 0.930 . S
N188 C187 1.279 . S
N188 C191 1.314 . S
C189 C186 1.348 . S
C189 C191 1.353 . S
C189 H245 0.929 . S
C190 C186 1.356 . S
C190 C187 1.358 . S
C190 H246 0.930 . S
C191 N188 1.314 . S
C191 C189 1.353 . S
C191 H247 0.930 . S
C192 N193 1.314 . S
C192 C197 1.353 . S
C192 H198 0.930 . S
N193 Li176 1.990 . S
N193 C192 1.314 . S
N193 C195 1.279 . S
C194 C195 1.358 . S
C194 C196 1.356 . S
C194 H248 0.930 . S
C195 N193 1.279 . S
C195 C194 1.358 . S
C195 H199 0.930 . S
C196 C194 1.356 . S
C196 C197 1.348 . S
C197 C192 1.353 . S
C197 C196 1.348 . S
C197 H249 0.929 . S
H198 C192 0.930 . S
H199 C195 0.930 . S
C200 N201 1.314 . S
C200 C202 1.353 . S
C200 H206 0.930 . S
N201 Li177 1.990 . S
N201 C200 1.314 . S
N201 C204 1.279 . S
C202 C200 1.353 . S
C202 C205 1.348 . S
C202 H250 0.929 . S
C203 C204 1.358 . S
C203 C205 1.356 . S
C203 H251 0.930 . S
C204 N201 1.279 . S
C204 C203 1.358 . S
C204 H207 0.930 . S
C205 C202 1.348 . S
C205 C203 1.356 . S
H206 C200 0.930 . S
H207 C204 0.930 . S
C208 C210 1.348 . S
C208 C211 1.356 . S
C208 O238 1.325 1_565 S
N209 C212 1.314 . S
N209 C213 1.279 1_655 S
C210 C208 1.348 . S
C210 C212 1.353 1_455 S
C210 H252 0.929 1_465 S
C211 C208 1.356 . S
C211 C213 1.358 . S
C211 H253 0.930 . S
C212 N209 1.314 . S
C212 C210 1.353 1_655 S
C212 H254 0.930 . S
C213 N209 1.279 1_455 S
C213 C211 1.358 . S
C213 H255 0.930 . S
C214 C215 1.348 . S
C214 C216 1.356 . S
C214 O239 1.325 . S
C215 C214 1.348 . S
C215 C217 1.353 1_455 S
C215 H256 0.929 1_455 S
C216 C214 1.356 . S
C216 C218 1.358 . S
C216 H257 0.930 . S
C217 C215 1.353 1_655 S
C217 N219 1.314 . S
C217 H258 0.930 . S
C218 C216 1.358 . S
C218 N219 1.279 1_455 S
C218 H259 0.930 . S
N219 C217 1.314 . S
N219 C218 1.279 1_655 S
C220 C222 1.353 . S
C220 N223 1.314 . S
C220 H226 0.930 1_565 S
C221 N223 1.279 1_655 S
C221 C224 1.358 . S
C221 H227 0.930 . S
C222 C220 1.353 . S
C222 C225 1.348 1_455 S
C222 H260 0.929 . S
N223 Li178 1.990 1_565 S
N223 C220 1.314 . S
N223 C221 1.279 1_455 S
C224 C221 1.358 . S
C224 C225 1.356 . S
C224 H261 0.930 . S
C225 C222 1.348 1_655 S
C225 C224 1.356 . S
H226 C220 0.930 1_545 S
H227 C221 0.930 . S
C228 N229 1.314 . S
C228 C230 1.353 . S
C228 H234 0.930 . S
N229 Li179 1.990 . S
N229 C228 1.314 . S
N229 C232 1.279 1_455 S
C230 C228 1.353 . S
C230 C233 1.348 1_455 S
C230 H262 0.929 . S
C231 C232 1.358 . S
C231 C233 1.356 . S
C231 H263 0.930 . S
C232 N229 1.279 1_655 S
C232 C231 1.358 . S
C232 H235 0.930 . S
C233 C230 1.348 1_655 S
C233 C231 1.356 . S
H234 C228 0.930 . S
H235 C232 0.930 . S
O236 Li176 1.956 . S
O236 Li177 1.970 . S
O236 Li178 1.961 . S
O236 C180 1.325 . S
O237 Li176 1.970 . S
O237 Li177 1.956 . S
O237 Li179 1.961 . S
O237 C186 1.325 . S
O238 Li176 1.961 . S
O238 Li178 1.956 . S
O238 Li179 1.970 . S
O238 C208 1.325 1_545 S
O239 Li177 1.961 . S
O239 Li178 1.970 . S
O239 Li179 1.956 . S
O239 C214 1.325 . S
H240 C182 0.929 . S
H241 C183 0.930 1_565 S
H242 C184 0.930 . S
H243 C185 0.930 1_565 S
H244 C187 0.930 . S
H245 C189 0.929 . S
H246 C190 0.930 . S
H247 C191 0.930 . S
H248 C194 0.930 . S
H249 C197 0.929 . S
H250 C202 0.929 . S
H251 C203 0.930 . S
H252 C210 0.929 1_645 S
H253 C211 0.930 . S
H254 C212 0.930 . S
H255 C213 0.930 . S
H256 C215 0.929 1_655 S
H257 C216 0.930 . S
H258 C217 0.930 . S
H259 C218 0.930 . S
H260 C222 0.929 . S
H261 C224 0.930 . S
H262 C230 0.929 . S
H263 C231 0.930 . S
H264 O290 0.856 . S
H265 O293 0.854 . S
H266 C301 0.930 1_655 S
H267 C302 0.930 1_655 S
H268 C304 0.930 . S
H269 C305 0.930 . S
H270 C307 0.931 . S
H271 C308 0.930 . S
H272 C310 0.930 . S
H273 C311 0.929 . S
H274 C313 0.929 1_655 S
H275 C314 0.931 . S
H276 C316 0.930 . S
H277 C317 0.929 . S
H278 C319 0.931 1_655 S
H279 C320 0.930 1_655 S
H280 C322 0.930 . S
H281 C323 0.932 . S
H282 C325 0.930 1_655 S
H283 C326 0.949 . S
H284 C328 0.931 . S
H285 C329 0.930 . S
H286 C331 0.929 1_655 S
H287 C332 0.931 1_655 S
H288 C334 0.930 . S
H289 C335 0.929 . S
O290 H264 0.856 . S
O290 C336 1.300 . S
O291 C336 1.209 . S
O292 C337 1.199 . S
O293 H265 0.854 . S
O293 C337 1.297 . S
C294 C295 1.404 . S
C294 C299 1.397 . S
C294 C300 1.492 . S
C295 C294 1.404 . S
C295 C296 1.396 . S
C295 C306 1.492 . S
C296 C295 1.396 . S
C296 C297 1.397 . S
C296 C312 1.509 . S
C297 C296 1.397 . S
C297 C298 1.412 . S
C297 C318 1.485 . S
C298 C297 1.412 . S
C298 C299 1.388 . S
C298 C324 1.490 . S
C299 C294 1.397 . S
C299 C298 1.388 . S
C299 C330 1.519 . S
C300 C294 1.492 . S
C300 C301 1.363 . S
C300 C305 1.390 . S
C301 H266 0.930 1_455 S
C301 C300 1.363 . S
C301 C302 1.372 . S
C302 H267 0.930 1_455 S
C302 C301 1.372 . S
C302 C303 1.383 . S
C303 C302 1.383 . S
C303 C304 1.395 . S
C304 H268 0.930 . S
C304 C303 1.395 . S
C304 C305 1.362 . S
C305 H269 0.930 . S
C305 C300 1.390 . S
C305 C304 1.362 . S
C306 C295 1.492 . S
C306 C307 1.377 . S
C306 C311 1.397 . S
C307 H270 0.931 . S
C307 C306 1.377 . S
C307 C308 1.376 . S
C308 H271 0.930 . S
C308 C307 1.376 . S
C308 C309 1.376 . S
C309 C308 1.376 . S
C309 C310 1.378 . S
C309 C336 1.486 . S
C310 H272 0.930 . S
C310 C309 1.378 . S
C310 C311 1.376 . S
C311 H273 0.929 . S
C311 C306 1.397 . S
C311 C310 1.376 . S
C312 C296 1.509 . S
C312 C313 1.391 . S
C312 C317 1.386 . S
C313 H274 0.929 1_455 S
C313 C312 1.391 . S
C313 C314 1.375 . S
C314 H275 0.931 . S
C314 C313 1.375 . S
C314 C315 1.375 . S
C315 C314 1.375 . S
C315 C316 1.361 . S
C316 H276 0.930 . S
C316 C315 1.361 . S
C316 C317 1.399 . S
C317 H277 0.929 . S
C317 C312 1.386 . S
C317 C316 1.399 . S
C318 C297 1.485 . S
C318 C319 1.394 . S
C318 C323 1.360 . S
C319 H278 0.931 1_455 S
C319 C318 1.394 . S
C319 C320 1.372 . S
C320 H279 0.930 1_455 S
C320 C319 1.372 . S
C320 C321 1.397 . S
C321 C320 1.397 . S
C321 C322 1.390 . S
C321 C337 1.476 . S
C322 H280 0.930 . S
C322 C321 1.390 . S
C322 C323 1.366 . S
C323 H281 0.932 . S
C323 C318 1.360 . S
C323 C322 1.366 . S
C324 C298 1.490 . S
C324 C325 1.380 . S
C324 C329 1.386 . S
C325 H282 0.930 1_455 S
C325 C324 1.380 . S
C325 C326 1.374 1_455 S
C326 H283 0.949 . S
C326 C325 1.374 1_655 S
C326 C327 1.360 1_655 S
C327 C326 1.360 1_455 S
C327 C328 1.380 . S
C328 H284 0.931 . S
C328 C327 1.380 . S
C328 C329 1.387 . S
C329 H285 0.930 . S
C329 C324 1.386 . S
C329 C328 1.387 . S
C330 C299 1.519 . S
C330 C331 1.377 . S
C330 C335 1.361 . S
C331 H286 0.929 1_455 S
C331 C330 1.377 . S
C331 C332 1.386 . S
C332 H287 0.931 1_455 S
C332 C331 1.386 . S
C332 C333 1.363 . S
C333 C332 1.363 . S
C333 C334 1.385 . S
C334 H288 0.930 . S
C334 C333 1.385 . S
C334 C335 1.396 . S
C335 H289 0.929 . S
C335 C330 1.361 . S
C335 C334 1.396 . S
C336 O290 1.300 . S
C336 O291 1.209 . S
C336 C309 1.486 . S
C337 O292 1.199 . S
C337 O293 1.297 . S
C337 C321 1.476 . S
H338 O364 0.856 . S
H339 O367 0.854 . S
H340 C375 0.930 1_565 S
H341 C376 0.930 1_565 S
H342 C378 0.930 . S
H343 C379 0.930 . S
H344 C381 0.931 . S
H345 C382 0.930 . S
H346 C384 0.930 . S
H347 C385 0.929 . S
H348 C387 0.930 . S
H349 C388 0.931 . S
H350 C390 0.930 . S
H351 C391 0.929 . S
H352 C393 0.931 . S
H353 C394 0.930 . S
H354 C396 0.930 . S
H355 C397 0.932 . S
H356 C399 0.948 . S
H357 C400 0.929 1_565 S
H358 C402 0.931 . S
H359 C403 0.930 . S
H360 C405 0.929 . S
H361 C406 0.931 . S
H362 C408 0.930 . S
H363 C409 0.929 . S
O364 H338 0.856 . S
O364 C410 1.300 . S
O365 C410 1.209 . S
O366 C411 1.199 . S
O367 H339 0.854 . S
O367 C411 1.297 . S
C368 C369 1.404 . S
C368 C373 1.397 . S
C368 C374 1.492 . S
C369 C368 1.404 . S
C369 C370 1.396 . S
C369 C380 1.492 . S
C370 C369 1.396 . S
C370 C371 1.397 . S
C370 C386 1.509 . S
C371 C370 1.397 . S
C371 C372 1.412 . S
C371 C392 1.485 . S
C372 C371 1.412 . S
C372 C373 1.388 . S
C372 C398 1.490 . S
C373 C368 1.397 . S
C373 C372 1.388 . S
C373 C404 1.519 . S
C374 C368 1.492 . S
C374 C375 1.363 . S
C374 C379 1.390 . S
C375 H340 0.930 1_545 S
C375 C374 1.363 . S
C375 C376 1.372 . S
C376 H341 0.930 1_545 S
C376 C375 1.372 . S
C376 C377 1.383 . S
C377 C376 1.383 . S
C377 C378 1.395 . S
C378 H342 0.930 . S
C378 C377 1.395 . S
C378 C379 1.362 . S
C379 H343 0.930 . S
C379 C374 1.390 . S
C379 C378 1.362 . S
C380 C369 1.492 . S
C380 C381 1.377 . S
C380 C385 1.397 . S
C381 H344 0.931 . S
C381 C380 1.377 . S
C381 C382 1.376 . S
C382 H345 0.930 . S
C382 C381 1.376 . S
C382 C383 1.376 . S
C383 C382 1.376 . S
C383 C384 1.378 . S
C383 C410 1.486 . S
C384 H346 0.930 . S
C384 C383 1.378 . S
C384 C385 1.376 . S
C385 H347 0.929 . S
C385 C380 1.397 . S
C385 C384 1.376 . S
C386 C370 1.509 . S
C386 C387 1.391 . S
C386 C391 1.386 . S
C387 H348 0.930 . S
C387 C386 1.391 . S
C387 C388 1.375 . S
C388 H349 0.931 . S
C388 C387 1.375 . S
C388 C389 1.375 . S
C389 C388 1.375 . S
C389 C390 1.361 . S
C390 H350 0.930 . S
C390 C389 1.361 . S
C390 C391 1.399 . S
C391 H351 0.929 . S
C391 C386 1.386 . S
C391 C390 1.399 . S
C392 C371 1.485 . S
C392 C393 1.394 . S
C392 C397 1.360 . S
C393 H352 0.931 . S
C393 C392 1.394 . S
C393 C394 1.372 . S
C394 H353 0.930 . S
C394 C393 1.372 . S
C394 C395 1.397 . S
C395 C394 1.397 . S
C395 C396 1.390 . S
C395 C411 1.476 . S
C396 H354 0.930 . S
C396 C395 1.390 . S
C396 C397 1.366 . S
C397 H355 0.932 . S
C397 C392 1.360 . S
C397 C396 1.366 . S
C398 C372 1.490 . S
C398 C399 1.380 . S
C398 C403 1.386 . S
C399 H356 0.948 . S
C399 C398 1.380 . S
C399 C400 1.381 . S
C400 H357 0.929 1_545 S
C400 C399 1.381 . S
C400 C401 1.371 . S
C401 C400 1.371 . S
C401 C402 1.380 . S
C402 H358 0.931 . S
C402 C401 1.380 . S
C402 C403 1.387 . S
C403 H359 0.930 . S
C403 C398 1.386 . S
C403 C402 1.387 . S
C404 C373 1.519 . S
C404 C405 1.377 . S
C404 C409 1.361 . S
C405 H360 0.929 . S
C405 C404 1.377 . S
C405 C406 1.386 . S
C406 H361 0.931 . S
C406 C405 1.386 . S
C406 C407 1.363 . S
C407 C406 1.363 . S
C407 C408 1.385 . S
C408 H362 0.930 . S
C408 C407 1.385 . S
C408 C409 1.396 . S
C409 H363 0.929 . S
C409 C404 1.361 . S
C409 C408 1.396 . S
C410 O364 1.300 . S
C410 O365 1.209 . S
C410 C383 1.486 . S
C411 O366 1.199 . S
C411 O367 1.297 . S
C411 C395 1.476 . S
H412 O438 0.856 . S
H413 O441 0.854 . S
H414 C449 0.930 . S
H415 C450 0.930 . S
H416 C452 0.930 . S
H417 C453 0.930 . S
H418 C455 0.931 . S
H419 C456 0.930 . S
H420 C458 0.930 . S
H421 C459 0.929 . S
H422 C461 0.930 . S
H423 C462 0.931 . S
H424 C464 0.930 . S
H425 C465 0.929 . S
H426 C467 0.931 . S
H427 C468 0.930 . S
H428 C470 0.930 . S
H429 C471 0.932 . S
H430 C473 0.930 . S
H431 C474 0.929 . S
H432 C476 0.931 . S
H433 C477 0.930 . S
H434 C479 0.929 . S
H435 C480 0.931 . S
H436 C482 0.930 . S
H437 C483 0.929 . S
O438 H412 0.856 . S
O438 C484 1.300 . S
O439 C484 1.209 . S
O440 C485 1.199 . S
O441 H413 0.854 . S
O441 C485 1.297 . S
C442 C443 1.404 . S
C442 C447 1.397 . S
C442 C448 1.492 . S
C443 C442 1.404 . S
C443 C444 1.396 . S
C443 C454 1.492 . S
C444 C443 1.396 . S
C444 C445 1.397 . S
C444 C460 1.509 . S
C445 C444 1.397 . S
C445 C446 1.412 . S
C445 C466 1.485 . S
C446 C445 1.412 . S
C446 C447 1.388 . S
C446 C472 1.490 . S
C447 C442 1.397 . S
C447 C446 1.388 . S
C447 C478 1.519 . S
C448 C442 1.492 . S
C448 C449 1.363 . S
C448 C453 1.390 . S
C449 H414 0.930 . S
C449 C448 1.363 . S
C449 C450 1.372 . S
C450 H415 0.930 . S
C450 C449 1.372 . S
C450 C451 1.383 . S
C451 C450 1.383 . S
C451 C452 1.395 . S
C452 H416 0.930 . S
C452 C451 1.395 . S
C452 C453 1.362 . S
C453 H417 0.930 . S
C453 C448 1.390 . S
C453 C452 1.362 . S
C454 C443 1.492 . S
C454 C455 1.377 . S
C454 C459 1.397 . S
C455 H418 0.931 . S
C455 C454 1.377 . S
C455 C456 1.376 . S
C456 H419 0.930 . S
C456 C455 1.376 . S
C456 C457 1.376 . S
C457 C456 1.376 . S
C457 C458 1.378 . S
C457 C484 1.486 . S
C458 H420 0.930 . S
C458 C457 1.378 . S
C458 C459 1.376 . S
C459 H421 0.929 . S
C459 C454 1.397 . S
C459 C458 1.376 . S
C460 C444 1.509 . S
C460 C461 1.391 . S
C460 C465 1.386 . S
C461 H422 0.930 . S
C461 C460 1.391 . S
C461 C462 1.375 . S
C462 H423 0.931 . S
C462 C461 1.375 . S
C462 C463 1.375 . S
C463 C462 1.375 . S
C463 C464 1.361 . S
C464 H424 0.930 . S
C464 C463 1.361 . S
C464 C465 1.399 . S
C465 H425 0.929 . S
C465 C460 1.386 . S
C465 C464 1.399 . S
C466 C445 1.485 . S
C466 C467 1.394 . S
C466 C471 1.360 . S
C467 H426 0.931 . S
C467 C466 1.394 . S
C467 C468 1.372 . S
C468 H427 0.930 . S
C468 C467 1.372 . S
C468 C469 1.397 . S
C469 C468 1.397 . S
C469 C470 1.390 . S
C469 C485 1.476 . S
C470 H428 0.930 . S
C470 C469 1.390 . S
C470 C471 1.366 . S
C471 H429 0.932 . S
C471 C466 1.360 . S
C471 C470 1.366 . S
C472 C446 1.490 . S
C472 C473 1.380 . S
C472 C477 1.386 . S
C473 H430 0.930 . S
C473 C472 1.380 . S
C473 C474 1.381 . S
C474 H431 0.929 . S
C474 C473 1.381 . S
C474 C475 1.371 . S
C475 C474 1.371 . S
C475 C476 1.380 . S
C476 H432 0.931 . S
C476 C475 1.380 . S
C476 C477 1.387 . S
C477 H433 0.930 . S
C477 C472 1.386 . S
C477 C476 1.387 . S
C478 C447 1.519 . S
C478 C479 1.377 . S
C478 C483 1.361 . S
C479 H434 0.929 . S
C479 C478 1.377 . S
C479 C480 1.386 . S
C480 H435 0.931 . S
C480 C479 1.386 . S
C480 C481 1.363 . S
C481 C480 1.363 . S
C481 C482 1.385 . S
C482 H436 0.930 . S
C482 C481 1.385 . S
C482 C483 1.396 . S
C483 H437 0.929 . S
C483 C478 1.361 . S
C483 C482 1.396 . S
C484 O438 1.300 . S
C484 O439 1.209 . S
C484 C457 1.486 . S
C485 O440 1.199 . S
C485 O441 1.297 . S
C485 C469 1.476 . S
H486 C494 0.929 . S
H487 C496 0.930 . S
H488 C498 0.930 . S
H489 C501 0.929 . S
H490 C504 0.930 1_655 S
H491 C506 0.960 . S
H492 C506 0.960 . S
H493 C506 0.960 . S
C494 H486 0.929 . S
C494 C495 1.377 . S
C494 C496 1.384 . S
C495 C494 1.377 . S
C495 C501 1.390 1_455 S
C496 H487 0.930 . S
C496 C494 1.384 . S
C496 C497 1.372 . S
C497 C496 1.372 . S
C497 C498 1.400 1_455 S
C497 C502 1.490 . S
C498 H488 0.930 . S
C498 C497 1.400 1_655 S
C498 C501 1.386 . S
H499 C515 0.937 . S
H500 C516 0.931 . S
C501 H489 0.929 . S
C501 C495 1.390 1_655 S
C501 C498 1.386 . S
C502 C497 1.490 . S
C502 C504 1.395 . S
C502 C505 1.403 . S
H503 C509 0.930 . S
C504 H490 0.930 1_455 S
C504 C502 1.395 . S
C504 C507 1.403 . S
C505 C502 1.403 . S
C505 C506 1.524 . S
C505 C509 1.400 . S
C506 H491 0.960 . S
C506 H492 0.960 . S
C506 H493 0.960 . S
C506 C505 1.524 . S
C507 C504 1.403 . S
C507 C508 1.392 . S
C507 C511 1.495 1_455 S
C508 C507 1.392 . S
C508 C509 1.385 . S
C508 C510 1.478 . S
C509 H503 0.930 . S
C509 C505 1.400 . S
C509 C508 1.385 . S
C510 C508 1.478 . S
C510 C512 1.381 . S
C510 C516 1.383 1_455 S
C511 C507 1.495 1_655 S
C511 H517 0.959 . S
C511 H518 0.961 . S
C511 H519 0.960 1_655 S
C512 C510 1.381 . S
C512 C513 1.394 . S
C512 H520 0.930 . S
C513 C512 1.394 . S
C513 C514 1.383 . S
C513 H521 0.929 . S
C514 C513 1.383 . S
C514 C515 1.373 1_455 S
C515 H499 0.937 . S
C515 C514 1.373 1_655 S
C515 C516 1.375 . S
C516 H500 0.931 . S
C516 C510 1.383 1_655 S
C516 C515 1.375 . S
H517 C511 0.959 . S
H518 C511 0.961 . S
H519 C511 0.960 1_455 S
H520 C512 0.930 . S
H521 C513 0.929 . S
H522 C530 0.929 . S
H523 C532 0.930 . S
H524 C534 0.930 . S
H525 C537 0.929 1_545 S
H526 C540 0.930 . S
H527 C542 0.960 . S
H528 C542 0.960 . S
H529 C542 0.960 . S
C530 H522 0.929 . S
C530 C531 1.377 . S
C530 C532 1.384 . S
C531 C530 1.377 . S
C531 C537 1.390 . S
C532 H523 0.930 . S
C532 C530 1.384 . S
C532 C533 1.372 . S
C533 C532 1.372 . S
C533 C534 1.400 1_565 S
C533 C538 1.490 . S
C534 H524 0.930 . S
C534 C533 1.400 1_545 S
C534 C537 1.386 1_545 S
H535 C551 0.930 . S
H536 C552 0.931 . S
C537 H525 0.929 1_565 S
C537 C531 1.390 . S
C537 C534 1.386 1_565 S
C538 C533 1.490 . S
C538 C540 1.395 . S
C538 C541 1.403 1_565 S
H539 C545 0.930 . S
C540 H526 0.930 . S
C540 C538 1.395 . S
C540 C543 1.403 . S
C541 C538 1.403 1_545 S
C541 C542 1.524 . S
C541 C545 1.400 . S
C542 H527 0.960 . S
C542 H528 0.960 . S
C542 H529 0.960 . S
C542 C541 1.524 . S
C543 C540 1.403 . S
C543 C544 1.392 1_565 S
C543 C547 1.495 . S
C544 C543 1.392 1_545 S
C544 C545 1.385 . S
C544 C546 1.478 . S
C545 H539 0.930 . S
C545 C541 1.400 . S
C545 C544 1.385 . S
C546 C544 1.478 . S
C546 C548 1.381 . S
C546 C552 1.383 . S
C547 C543 1.495 . S
C547 H553 0.959 . S
C547 H554 0.961 . S
C547 H555 0.960 . S
C548 C546 1.381 . S
C548 C549 1.394 . S
C548 H556 0.930 1_545 S
C549 C548 1.394 . S
C549 C550 1.383 . S
C549 H557 0.929 . S
C550 C549 1.383 . S
C550 C551 1.377 . S
C551 H535 0.930 . S
C551 C550 1.377 . S
C551 C552 1.379 . S
C552 H536 0.931 . S
C552 C546 1.383 . S
C552 C551 1.379 . S
H553 C547 0.959 . S
H554 C547 0.961 . S
H555 C547 0.960 . S
H556 C548 0.930 1_565 S
H557 C549 0.929 . S
H558 C566 0.929 . S
H559 C568 0.930 . S
H560 C570 0.930 . S
H561 C573 0.929 . S
H562 C576 0.930 . S
H563 C578 0.960 . S
H564 C578 0.960 . S
H565 C578 0.960 . S
C566 H558 0.929 . S
C566 C567 1.377 . S
C566 C568 1.384 . S
C567 C566 1.377 . S
C567 C573 1.390 . S
C568 H559 0.930 . S
C568 C566 1.384 . S
C568 C569 1.372 . S
C569 C568 1.372 . S
C569 C570 1.400 . S
C569 C574 1.490 . S
C570 H560 0.930 . S
C570 C569 1.400 . S
C570 C573 1.386 . S
H571 C587 0.930 . S
H572 C588 0.931 . S
C573 H561 0.929 . S
C573 C567 1.390 . S
C573 C570 1.386 . S
C574 C569 1.490 . S
C574 C576 1.395 . S
C574 C577 1.403 . S
H575 C581 0.930 . S
C576 H562 0.930 . S
C576 C574 1.395 . S
C576 C579 1.403 . S
C577 C574 1.403 . S
C577 C578 1.524 . S
C577 C581 1.400 . S
C578 H563 0.960 . S
C578 H564 0.960 . S
C578 H565 0.960 . S
C578 C577 1.524 . S
C579 C576 1.403 . S
C579 C580 1.392 . S
C579 C583 1.495 . S
C580 C579 1.392 . S
C580 C581 1.385 . S
C580 C582 1.478 . S
C581 H575 0.930 . S
C581 C577 1.400 . S
C581 C580 1.385 . S
C582 C580 1.478 . S
C582 C584 1.381 . S
C582 C588 1.383 . S
C583 C579 1.495 . S
C583 H589 0.959 . S
C583 H590 0.961 . S
C583 H591 0.960 . S
C584 C582 1.381 . S
C584 C585 1.394 . S
C584 H592 0.930 . S
C585 C584 1.394 . S
C585 C586 1.383 . S
C585 H593 0.929 . S
C586 C585 1.383 . S
C586 C587 1.377 . S
C587 H571 0.930 . S
C587 C586 1.377 . S
C587 C588 1.379 . S
C588 H572 0.931 . S
C588 C582 1.383 . S
C588 C587 1.379 . S
H589 C583 0.959 . S
H590 C583 0.961 . S
H591 C583 0.960 . S
H592 C584 0.930 . S
H593 C585 0.929 . S
H594 C602 0.929 . S
H595 C604 0.930 . S
H596 C606 0.930 . S
H597 C609 0.929 . S
H598 C612 0.930 . S
H599 C614 0.960 . S
H600 C614 0.960 . S
H601 C614 0.960 . S
C602 H594 0.929 . S
C602 C603 1.377 . S
C602 C604 1.384 . S
C603 C602 1.377 . S
C603 C609 1.390 . S
C604 H595 0.930 . S
C604 C602 1.384 . S
C604 C605 1.372 . S
C605 C604 1.372 . S
C605 C606 1.400 . S
C605 C610 1.490 . S
C606 H596 0.930 . S
C606 C605 1.400 . S
C606 C609 1.386 . S
H607 C623 0.930 . S
H608 C624 0.931 . S
C609 H597 0.929 . S
C609 C603 1.390 . S
C609 C606 1.386 . S
C610 C605 1.490 . S
C610 C612 1.395 . S
C610 C613 1.403 . S
H611 C617 0.930 . S
C612 H598 0.930 . S
C612 C610 1.395 . S
C612 C615 1.403 . S
C613 C610 1.403 . S
C613 C614 1.524 . S
C613 C617 1.400 . S
C614 H599 0.960 . S
C614 H600 0.960 . S
C614 H601 0.960 . S
C614 C613 1.524 . S
C615 C612 1.403 . S
C615 C616 1.392 . S
C615 C619 1.495 . S
C616 C615 1.392 . S
C616 C617 1.385 . S
C616 C618 1.478 . S
C617 H611 0.930 . S
C617 C613 1.400 . S
C617 C616 1.385 . S
C618 C616 1.478 . S
C618 C620 1.381 . S
C618 C624 1.383 . S
C619 C615 1.495 . S
C619 H625 0.959 . S
C619 H626 0.961 . S
C619 H627 0.960 . S
C620 C618 1.381 . S
C620 C621 1.394 . S
C620 H628 0.930 . S
C621 C620 1.394 . S
C621 C622 1.383 . S
C621 H629 0.929 . S
C622 C621 1.383 . S
C622 C623 1.377 . S
C623 H607 0.930 . S
C623 C622 1.377 . S
C623 C624 1.379 . S
C624 H608 0.931 . S
C624 C618 1.383 . S
C624 C623 1.379 . S
H625 C619 0.959 . S
H626 C619 0.961 . S
H627 C619 0.960 . S
H628 C620 0.930 . S
H629 C621 0.929 . S
H630 C638 0.929 . S
H631 C640 0.930 . S
H632 C642 0.930 . S
H633 C645 0.929 . S
H634 C648 0.930 . S
H635 C650 0.960 . S
H636 C650 0.960 . S
H637 C650 0.960 . S
C638 H630 0.929 . S
C638 C639 1.377 . S
C638 C640 1.384 . S
C639 C638 1.377 . S
C639 C645 1.390 . S
C640 H631 0.930 . S
C640 C638 1.384 . S
C640 C641 1.372 . S
C641 C640 1.372 . S
C641 C642 1.400 . S
C641 C646 1.490 . S
C642 H632 0.930 . S
C642 C641 1.400 . S
C642 C645 1.386 . S
H643 C659 0.930 . S
H644 C660 0.931 . S
C645 H633 0.929 . S
C645 C639 1.390 . S
C645 C642 1.386 . S
C646 C641 1.490 . S
C646 C648 1.395 . S
C646 C649 1.403 . S
H647 C653 0.930 . S
C648 H634 0.930 . S
C648 C646 1.395 . S
C648 C651 1.403 . S
C649 C646 1.403 . S
C649 C650 1.524 . S
C649 C653 1.400 . S
C650 H635 0.960 . S
C650 H636 0.960 . S
C650 H637 0.960 . S
C650 C649 1.524 . S
C651 C648 1.403 . S
C651 C652 1.392 . S
C651 C655 1.495 . S
C652 C651 1.392 . S
C652 C653 1.385 . S
C652 C654 1.478 . S
C653 H647 0.930 . S
C653 C649 1.400 . S
C653 C652 1.385 . S
C654 C652 1.478 . S
C654 C656 1.381 . S
C654 C660 1.383 . S
C655 C651 1.495 . S
C655 H661 0.959 . S
C655 H662 0.961 . S
C655 H663 0.960 . S
C656 C654 1.381 . S
C656 C657 1.394 . S
C656 H664 0.930 . S
C657 C656 1.394 . S
C657 C658 1.383 . S
C657 H665 0.929 . S
C658 C657 1.383 . S
C658 C659 1.377 . S
C659 H643 0.930 . S
C659 C658 1.377 . S
C659 C660 1.379 . S
C660 H644 0.931 . S
C660 C654 1.383 . S
C660 C659 1.379 . S
H661 C655 0.959 . S
H662 C655 0.961 . S
H663 C655 0.960 . S
H664 C656 0.930 . S
H665 C657 0.929 . S
H666 C674 0.929 . S
H667 C676 0.930 . S
H668 C678 0.930 . S
H669 C681 0.929 . S
H670 C684 0.930 . S
H671 C686 0.960 . S
H672 C686 0.960 . S
H673 C686 0.960 . S
C674 H666 0.929 . S
C674 C675 1.377 . S
C674 C676 1.384 . S
C675 C674 1.377 . S
C675 C681 1.390 . S
C676 H667 0.930 . S
C676 C674 1.384 . S
C676 C677 1.372 . S
C677 C676 1.372 . S
C677 C678 1.400 . S
C677 C682 1.490 . S
C678 H668 0.930 . S
C678 C677 1.400 . S
C678 C681 1.386 . S
H679 C695 0.930 . S
H680 C696 0.931 . S
C681 H669 0.929 . S
C681 C675 1.390 . S
C681 C678 1.386 . S
C682 C677 1.490 . S
C682 C684 1.395 . S
C682 C685 1.403 . S
H683 C689 0.930 . S
C684 H670 0.930 . S
C684 C682 1.395 . S
C684 C687 1.403 . S
C685 C682 1.403 . S
C685 C686 1.524 . S
C685 C689 1.400 . S
C686 H671 0.960 . S
C686 H672 0.960 . S
C686 H673 0.960 . S
C686 C685 1.524 . S
C687 C684 1.403 . S
C687 C688 1.392 . S
C687 C691 1.495 . S
C688 C687 1.392 . S
C688 C689 1.385 . S
C688 C690 1.478 . S
C689 H683 0.930 . S
C689 C685 1.400 . S
C689 C688 1.385 . S
C690 C688 1.478 . S
C690 C692 1.381 . S
C690 C696 1.383 . S
C691 C687 1.495 . S
C691 H697 0.959 . S
C691 H698 0.961 . S
C691 H699 0.960 . S
C692 C690 1.381 . S
C692 C693 1.394 . S
C692 H700 0.930 . S
C693 C692 1.394 . S
C693 C694 1.383 . S
C693 H701 0.929 . S
C694 C693 1.383 . S
C694 C695 1.377 . S
C695 H679 0.930 . S
C695 C694 1.377 . S
C695 C696 1.379 . S
C696 H680 0.931 . S
C696 C690 1.383 . S
C696 C695 1.379 . S
H697 C691 0.959 . S
H698 C691 0.961 . S
H699 C691 0.960 . S
H700 C692 0.930 . S
H701 C693 0.929 . S
H702 C710 0.929 . S
H703 C712 0.930 . S
H704 C714 0.930 . S
H705 C717 0.929 . S
H706 C720 0.930 . S
H707 C722 0.960 . S
H708 C722 0.960 . S
H709 C722 0.960 . S
C710 H702 0.929 . S
C710 C711 1.377 . S
C710 C712 1.384 . S
C711 C710 1.377 . S
C711 C717 1.390 . S
C712 H703 0.930 . S
C712 C710 1.384 . S
C712 C713 1.372 . S
C713 C712 1.372 . S
C713 C714 1.400 . S
C713 C718 1.490 . S
C714 H704 0.930 . S
C714 C713 1.400 . S
C714 C717 1.386 . S
H715 C731 0.930 . S
H716 C732 0.931 . S
C717 H705 0.929 . S
C717 C711 1.390 . S
C717 C714 1.386 . S
C718 C713 1.490 . S
C718 C720 1.395 . S
C718 C721 1.403 . S
H719 C725 0.930 . S
C720 H706 0.930 . S
C720 C718 1.395 . S
C720 C723 1.403 . S
C721 C718 1.403 . S
C721 C722 1.524 . S
C721 C725 1.400 . S
C722 H707 0.960 . S
C722 H708 0.960 . S
C722 H709 0.960 . S
C722 C721 1.524 . S
C723 C720 1.403 . S
C723 C724 1.392 . S
C723 C727 1.495 . S
C724 C723 1.392 . S
C724 C725 1.385 . S
C724 C726 1.478 . S
C725 H719 0.930 . S
C725 C721 1.400 . S
C725 C724 1.385 . S
C726 C724 1.478 . S
C726 C728 1.381 . S
C726 C732 1.383 . S
C727 C723 1.495 . S
C727 H733 0.959 . S
C727 H734 0.961 . S
C727 H735 0.960 . S
C728 C726 1.381 . S
C728 C729 1.394 . S
C728 H736 0.930 . S
C729 C728 1.394 . S
C729 C730 1.383 . S
C729 H737 0.929 . S
C730 C729 1.383 . S
C730 C731 1.377 . S
C731 H715 0.930 . S
C731 C730 1.377 . S
C731 C732 1.379 . S
C732 H716 0.931 . S
C732 C726 1.383 . S
C732 C731 1.379 . S
H733 C727 0.959 . S
H734 C727 0.961 . S
H735 C727 0.960 . S
H736 C728 0.930 . S
H737 C729 0.929 . S
H738 C746 0.929 . S
H739 C748 0.930 . S
H740 C750 0.930 . S
H741 C753 0.929 . S
H742 C756 0.930 . S
H743 C758 0.960 . S
H744 C758 0.960 . S
H745 C758 0.960 . S
C746 H738 0.929 . S
C746 C747 1.377 . S
C746 C748 1.384 1_554 S
C747 C746 1.377 . S
C747 C753 1.390 1_554 S
C748 H739 0.930 . S
C748 C746 1.384 1_556 S
C748 C749 1.372 . S
C749 C748 1.372 . S
C749 C750 1.400 . S
C749 C754 1.490 . S
C750 H740 0.930 . S
C750 C749 1.400 . S
C750 C753 1.386 . S
H751 C767 0.930 . S
H752 C768 0.931 . S
C753 H741 0.929 . S
C753 C747 1.390 1_556 S
C753 C750 1.386 . S
C754 C749 1.490 . S
C754 C756 1.395 . S
C754 C757 1.403 . S
H755 C761 0.930 . S
C756 H742 0.930 . S
C756 C754 1.395 . S
C756 C759 1.403 . S
C757 C754 1.403 . S
C757 C758 1.524 . S
C757 C761 1.400 . S
C758 H743 0.960 . S
C758 H744 0.960 . S
C758 H745 0.960 . S
C758 C757 1.524 . S
C759 C756 1.403 . S
C759 C760 1.392 . S
C759 C763 1.495 . S
C760 C759 1.392 . S
C760 C761 1.385 . S
C760 C762 1.478 . S
C761 H755 0.930 . S
C761 C757 1.400 . S
C761 C760 1.385 . S
C762 C760 1.478 . S
C762 C764 1.381 . S
C762 C768 1.383 . S
C763 C759 1.495 . S
C763 H769 0.959 . S
C763 H770 0.961 . S
C763 H771 0.960 . S
C764 C762 1.381 . S
C764 C765 1.394 . S
C764 H772 0.930 . S
C765 C764 1.394 . S
C765 C766 1.383 . S
C765 H773 0.929 . S
C766 C765 1.383 . S
C766 C767 1.377 . S
C767 H751 0.930 . S
C767 C766 1.377 . S
C767 C768 1.379 . S
C768 H752 0.931 . S
C768 C762 1.383 . S
C768 C767 1.379 . S
H769 C763 0.959 . S
H770 C763 0.961 . S
H771 C763 0.960 . S
H772 C764 0.930 . S
H773 C765 0.929 . S
H774 C782 0.929 . S
H775 C784 0.930 . S
H776 C786 0.930 . S
H777 C789 0.929 . S
H778 C792 0.930 . S
H779 C794 0.960 . S
H780 C794 0.960 1_455 S
H781 C794 0.960 . S
C782 H774 0.929 . S
C782 C783 1.377 1_455 S
C782 C784 1.384 . S
C783 C782 1.377 1_655 S
C783 C789 1.390 . S
C784 H775 0.930 . S
C784 C782 1.384 . S
C784 C785 1.372 . S
C785 C784 1.372 . S
C785 C786 1.400 1_455 S
C785 C790 1.490 . S
C786 H776 0.930 . S
C786 C785 1.400 1_655 S
C786 C789 1.386 . S
H787 C803 0.930 . S
H788 C804 0.931 . S
C789 H777 0.929 . S
C789 C783 1.390 . S
C789 C786 1.386 . S
C790 C785 1.490 . S
C790 C792 1.395 . S
C790 C793 1.403 . S
H791 C797 0.930 . S
C792 H778 0.930 . S
C792 C790 1.395 . S
C792 C795 1.403 . S
C793 C790 1.403 . S
C793 C794 1.524 1_455 S
C793 C797 1.400 . S
C794 H779 0.960 . S
C794 H780 0.960 1_655 S
C794 H781 0.960 . S
C794 C793 1.524 1_655 S
C795 C792 1.403 . S
C795 C796 1.392 . S
C795 C799 1.495 . S
C796 C795 1.392 . S
C796 C797 1.385 . S
C796 C798 1.478 . S
C797 H791 0.930 . S
C797 C793 1.400 . S
C797 C796 1.385 . S
C798 C796 1.478 . S
C798 C800 1.381 . S
C798 C804 1.383 1_455 S
C799 C795 1.495 . S
C799 H805 0.959 . S
C799 H806 0.961 . S
C799 H807 0.960 . S
C800 C798 1.381 . S
C800 C801 1.394 . S
C800 H808 0.930 . S
C801 C800 1.394 . S
C801 C802 1.383 . S
C801 H809 0.929 . S
C802 C801 1.383 . S
C802 C803 1.377 1_455 S
C803 H787 0.930 . S
C803 C802 1.377 1_655 S
C803 C804 1.379 . S
C804 H788 0.931 . S
C804 C798 1.383 1_655 S
C804 C803 1.379 . S
H805 C799 0.959 . S
H806 C799 0.961 . S
H807 C799 0.960 . S
H808 C800 0.930 . S
H809 C801 0.929 . S
H810 C818 0.929 . S
H811 C820 0.930 . S
H812 C822 0.930 . S
H813 C825 0.929 . S
H814 C828 0.930 . S
H815 C830 0.960 . S
H816 C830 0.960 . S
H817 C830 0.960 1_565 S
C818 H810 0.929 . S
C818 C819 1.377 . S
C818 C820 1.384 . S
C819 C818 1.377 . S
C819 C825 1.390 1_545 S
C820 H811 0.930 . S
C820 C818 1.384 . S
C820 C821 1.372 . S
C821 C820 1.372 . S
C821 C822 1.400 1_545 S
C821 C826 1.490 . S
C822 H812 0.930 . S
C822 C821 1.400 1_565 S
C822 C825 1.386 . S
H823 C839 0.930 1_565 S
H824 C840 0.931 1_565 S
C825 H813 0.929 . S
C825 C819 1.390 1_565 S
C825 C822 1.386 . S
C826 C821 1.490 . S
C826 C828 1.395 . S
C826 C829 1.403 . S
H827 C833 0.930 . S
C828 H814 0.930 . S
C828 C826 1.395 . S
C828 C831 1.403 . S
C829 C826 1.403 . S
C829 C830 1.524 . S
C829 C833 1.400 . S
C830 H815 0.960 . S
C830 H816 0.960 . S
C830 H817 0.960 1_545 S
C830 C829 1.524 . S
C831 C828 1.403 . S
C831 C832 1.392 . S
C831 C835 1.495 . S
C832 C831 1.392 . S
C832 C833 1.385 . S
C832 C834 1.478 . S
C833 H827 0.930 . S
C833 C829 1.400 . S
C833 C832 1.385 . S
C834 C832 1.478 . S
C834 C836 1.381 . S
C834 C840 1.383 . S
C835 C831 1.495 . S
C835 H841 0.959 . S
C835 H842 0.961 . S
C835 H843 0.960 . S
C836 C834 1.381 . S
C836 C837 1.394 . S
C836 H844 0.930 . S
C837 C836 1.394 . S
C837 C838 1.383 . S
C837 H845 0.929 . S
C838 C837 1.383 . S
C838 C839 1.377 . S
C839 H823 0.930 1_545 S
C839 C838 1.377 . S
C839 C840 1.379 . S
C840 H824 0.931 1_545 S
C840 C834 1.383 . S
C840 C839 1.379 . S
H841 C835 0.959 . S
H842 C835 0.961 . S
H843 C835 0.960 . S
H844 C836 0.930 . S
H845 C837 0.929 . S
H846 C854 0.929 . S
H847 C856 0.930 . S
H848 C858 0.930 . S
H849 C861 0.929 . S
H850 C864 0.930 . S
H851 C866 0.963 . S
H852 C866 0.960 . S
H853 C866 0.960 . S
C854 H846 0.929 . S
C854 C855 1.377 . S
C854 C856 1.384 1_554 S
C855 C854 1.377 . S
C855 C861 1.390 . S
C856 H847 0.930 . S
C856 C854 1.384 1_556 S
C856 C857 1.372 . S
C857 C856 1.372 . S
C857 C858 1.400 1_556 S
C857 C862 1.490 . S
C858 H848 0.930 . S
C858 C857 1.400 1_554 S
C858 C861 1.386 . S
H859 C875 0.930 . S
H860 C876 0.931 . S
C861 H849 0.929 . S
C861 C855 1.390 . S
C861 C858 1.386 . S
C862 C857 1.490 . S
C862 C864 1.395 . S
C862 C865 1.403 . S
H863 C869 0.930 . S
C864 H850 0.930 . S
C864 C862 1.395 . S
C864 C867 1.403 . S
C865 C862 1.403 . S
C865 C866 1.524 1_556 S
C865 C869 1.400 . S
C866 H851 0.963 . S
C866 H852 0.960 . S
C866 H853 0.960 . S
C866 C865 1.524 1_554 S
C867 C864 1.403 . S
C867 C868 1.392 . S
C867 C871 1.495 . S
C868 C867 1.392 . S
C868 C869 1.385 . S
C868 C870 1.478 . S
C869 H863 0.930 . S
C869 C865 1.400 . S
C869 C868 1.385 . S
C870 C868 1.478 . S
C870 C872 1.381 . S
C870 C876 1.383 . S
C871 C867 1.495 . S
C871 H877 0.959 . S
C871 H878 0.961 . S
C871 H879 0.960 . S
C872 C870 1.381 . S
C872 C873 1.394 . S
C872 H880 0.930 . S
C873 C872 1.394 . S
C873 C874 1.383 . S
C873 H881 0.929 . S
C874 C873 1.383 . S
C874 C875 1.377 . S
C875 H859 0.930 . S
C875 C874 1.377 . S
C875 C876 1.379 . S
C876 H860 0.931 . S
C876 C870 1.383 . S
C876 C875 1.379 . S
H877 C871 0.959 . S
H878 C871 0.961 . S
H879 C871 0.960 . S
H880 C872 0.930 . S
H881 C873 0.929 . S
H882 C890 0.929 . S
H883 C892 0.930 . S
H884 C894 0.930 . S
H885 C897 0.929 . S
H886 C900 0.930 . S
H887 C902 0.960 . S
H888 C902 0.960 . S
H889 C902 0.960 . S
C890 H882 0.929 . S
C890 C891 1.377 . S
C890 C892 1.384 . S
C891 C890 1.377 . S
C891 C897 1.390 . S
C892 H883 0.930 . S
C892 C890 1.384 . S
C892 C893 1.372 . S
C893 C892 1.372 . S
C893 C894 1.400 . S
C893 C898 1.490 . S
C894 H884 0.930 . S
C894 C893 1.400 . S
C894 C897 1.386 . S
H895 C911 0.930 . S
H896 C912 0.931 . S
C897 H885 0.929 . S
C897 C891 1.390 . S
C897 C894 1.386 . S
C898 C893 1.490 . S
C898 C900 1.395 . S
C898 C901 1.403 . S
H899 C905 0.930 . S
C900 H886 0.930 . S
C900 C898 1.395 . S
C900 C903 1.403 . S
C901 C898 1.403 . S
C901 C902 1.524 . S
C901 C905 1.400 . S
C902 H887 0.960 . S
C902 H888 0.960 . S
C902 H889 0.960 . S
C902 C901 1.524 . S
C903 C900 1.403 . S
C903 C904 1.392 . S
C903 C907 1.495 . S
C904 C903 1.392 . S
C904 C905 1.385 . S
C904 C906 1.478 . S
C905 H899 0.930 . S
C905 C901 1.400 . S
C905 C904 1.385 . S
C906 C904 1.478 . S
C906 C908 1.381 . S
C906 C912 1.383 . S
C907 C903 1.495 . S
C907 H913 0.959 . S
C907 H914 0.961 . S
C907 H915 0.960 . S
C908 C906 1.381 . S
C908 C909 1.394 . S
C908 H916 0.930 . S
C909 C908 1.394 . S
C909 C910 1.383 . S
C909 H917 0.929 . S
C910 C909 1.383 . S
C910 C911 1.377 . S
C911 H895 0.930 . S
C911 C910 1.377 . S
C911 C912 1.379 . S
C912 H896 0.931 . S
C912 C906 1.383 . S
C912 C911 1.379 . S
H913 C907 0.959 . S
H914 C907 0.961 . S
H915 C907 0.960 . S
H916 C908 0.930 . S
H917 C909 0.929 . S
C514 C303 1.218 . S
C495 C29 1.288 . S
C531 C137 1.284 . S
C550 C377 1.251 . S
C567 C225 2.198 . S
C586 C481 2.210 . S
C603 C49 0.518 . S
C622 C315 0.491 . S
C658 C389 0.447 . S
C639 C117 0.464 . S
C675 C205 1.214 . S
C694 C475 1.125 . S
C730 C407 2.220 . S
C711 C233 2.207 . S
C747 C57 1.303 . S
C766 C451 1.270 . S
C802 C327 1.248 . S
C783 C108 1.257 . S
C838 C401 1.207 . S
C819 C196 1.220 . S
C874 C463 0.499 . S
C855 C20 0.526 . S
C891 C145 2.227 . S
C910 C333 2.236 . S
