# Generated by pormake.
# Topology sqc, (4,8)-cn, num edge types: 1
# Building blocks:
#     Node 0, Type 0, BuildingBlock: MUDLON_clean_linker_0, # of connection points: 4
#     Node 1, Type 0, BuildingBlock: MUDLON_clean_linker_0, # of connection points: 4
#     Node 2, Type 0, BuildingBlock: MUDLON_clean_linker_0, # of connection points: 4
#     Node 3, Type 0, BuildingBlock: MUDLON_clean_linker_0, # of connection points: 4
#     Node 4, Type 0, BuildingBlock: MUDLON_clean_linker_0, # of connection points: 4
#     Node 5, Type 0, BuildingBlock: MUDLON_clean_linker_0, # of connection points: 4
#     Node 6, Type 0, BuildingBlock: MUDLON_clean_linker_0, # of connection points: 4
#     Node 7, Type 0, BuildingBlock: MUDLON_clean_linker_0, # of connection points: 4
#     Node 8, Type 1, BuildingBlock: VETTIZ_charged_sbu_0, # of connection points: 8
#     Node 9, Type 1, BuildingBlock: VETTIZ_charged_sbu_0, # of connection points: 8
#     Node 10, Type 1, BuildingBlock: VETTIZ_charged_sbu_0, # of connection points: 8
#     Node 11, Type 1, BuildingBlock: VETTIZ_charged_sbu_0, # of connection points: 8
#     Edge 12, Type (0, 1), BuildingBlock: KIFKEQ_clean_linker_1, # of connection points: 2
#     Edge 13, Type (0, 1), BuildingBlock: KIFKEQ_clean_linker_1, # of connection points: 2
#     Edge 14, Type (0, 1), BuildingBlock: KIFKEQ_clean_linker_1, # of connection points: 2
#     Edge 15, Type (0, 1), BuildingBlock: KIFKEQ_clean_linker_1, # of connection points: 2
#     Edge 16, Type (0, 1), BuildingBlock: KIFKEQ_clean_linker_1, # of connection points: 2
#     Edge 17, Type (0, 1), BuildingBlock: KIFKEQ_clean_linker_1, # of connection points: 2
#     Edge 18, Type (0, 1), BuildingBlock: KIFKEQ_clean_linker_1, # of connection points: 2
#     Edge 19, Type (0, 1), BuildingBlock: KIFKEQ_clean_linker_1, # of connection points: 2
#     Edge 20, Type (0, 1), BuildingBlock: KIFKEQ_clean_linker_1, # of connection points: 2
#     Edge 21, Type (0, 1), BuildingBlock: KIFKEQ_clean_linker_1, # of connection points: 2
#     Edge 22, Type (0, 1), BuildingBlock: KIFKEQ_clean_linker_1, # of connection points: 2
#     Edge 23, Type (0, 1), BuildingBlock: KIFKEQ_clean_linker_1, # of connection points: 2
#     Edge 24, Type (0, 1), BuildingBlock: KIFKEQ_clean_linker_1, # of connection points: 2
#     Edge 25, Type (0, 1), BuildingBlock: KIFKEQ_clean_linker_1, # of connection points: 2
#     Edge 26, Type (0, 1), BuildingBlock: KIFKEQ_clean_linker_1, # of connection points: 2
#     Edge 27, Type (0, 1), BuildingBlock: KIFKEQ_clean_linker_1, # of connection points: 2
#     Edge 28, Type (0, 1), BuildingBlock: KIFKEQ_clean_linker_1, # of connection points: 2
#     Edge 29, Type (0, 1), BuildingBlock: KIFKEQ_clean_linker_1, # of connection points: 2
#     Edge 30, Type (0, 1), BuildingBlock: KIFKEQ_clean_linker_1, # of connection points: 2
#     Edge 31, Type (0, 1), BuildingBlock: KIFKEQ_clean_linker_1, # of connection points: 2
#     Edge 32, Type (0, 1), BuildingBlock: KIFKEQ_clean_linker_1, # of connection points: 2
#     Edge 33, Type (0, 1), BuildingBlock: KIFKEQ_clean_linker_1, # of connection points: 2
#     Edge 34, Type (0, 1), BuildingBlock: KIFKEQ_clean_linker_1, # of connection points: 2
#     Edge 35, Type (0, 1), BuildingBlock: KIFKEQ_clean_linker_1, # of connection points: 2
#     Edge 36, Type (0, 1), BuildingBlock: KIFKEQ_clean_linker_1, # of connection points: 2
#     Edge 37, Type (0, 1), BuildingBlock: KIFKEQ_clean_linker_1, # of connection points: 2
#     Edge 38, Type (0, 1), BuildingBlock: KIFKEQ_clean_linker_1, # of connection points: 2
#     Edge 39, Type (0, 1), BuildingBlock: KIFKEQ_clean_linker_1, # of connection points: 2
#     Edge 40, Type (0, 1), BuildingBlock: KIFKEQ_clean_linker_1, # of connection points: 2
#     Edge 41, Type (0, 1), BuildingBlock: KIFKEQ_clean_linker_1, # of connection points: 2
#     Edge 42, Type (0, 1), BuildingBlock: KIFKEQ_clean_linker_1, # of connection points: 2
#     Edge 43, Type (0, 1), BuildingBlock: KIFKEQ_clean_linker_1, # of connection points: 2
# Relax obj value: 0.164
# Max RMSD: 0.286
# Mean RMSD: 0.211
data_MOF--net-sqc--node1-VETTIZ_charged_sbu_0--node2-MUDLON_clean_linker_0--edge1-KIFKEQ_clean_linker_1
_symmetry_space_group_name_H-M    P1
_symmetry_Int_Tables_number       1
_symmetry_cell_setting            triclinic
loop_
_symmetry_equiv_pos_as_xyz
'x, y, z'
_cell_length_a     32.1306
_cell_length_b     32.416138
_cell_length_c     88.594695
_cell_angle_alpha  89.915118
_cell_angle_beta   90.181751
_cell_angle_gamma 89.830847
loop_
_atom_site_label
_atom_site_type_symbol
_atom_site_fract_x
_atom_site_fract_y
_atom_site_fract_z
_atom_type_partial_charge
H0 H 0.81465 0.99776 0.54254 0.0
N1 N 0.84258 0.04999 0.5204 0.0
H2 H 0.76841 0.01594 0.56336 0.0
H3 H 0.81716 0.12484 0.52826 0.0
H4 H 0.77088 0.14341 0.54912 0.0
H5 H 0.79229 0.07392 0.4983 0.0
H6 H 0.74844 0.03066 0.48228 0.0
H7 H 0.84352 0.9655 0.5196 0.0
H8 H 0.80041 0.92173 0.50343 0.0
H9 H 0.88759 1.0004 0.53968 0.0
H10 H 0.89825 0.08881 0.50357 0.0
H11 H 0.96315 0.99449 0.54098 0.0
H12 H 0.97411 0.08205 0.50436 0.0
H13 H 0.17431 1.00032 0.55377 0.0
H14 H 0.2235 0.03664 0.57007 0.0
H15 H 0.23489 0.13276 0.53648 0.0
H16 H 0.18603 0.0957 0.52017 0.0
H17 H 0.15105 0.05588 0.49769 0.0
H18 H 0.197 0.03957 0.47633 0.0
H19 H 0.25396 0.94218 0.50256 0.0
H20 H 0.20758 0.95803 0.52365 0.0
H21 H 0.09678 0.96075 0.52892 0.0
H22 H 0.02104 0.96755 0.52759 0.0
H23 H 0.0343 0.09817 0.51895 0.0
N24 N 0.15342 0.0193 0.52563 0.0
H25 H 0.10999 0.09053 0.51976 0.0
C26 C 0.8197 0.06017 0.53388 0.0
C27 C 0.80601 0.02973 0.54405 0.0
C28 C 0.7794 0.04015 0.55595 0.0
C29 C 0.76563 0.08105 0.5578 0.0
C30 C 0.78036 0.11151 0.54785 0.0
C31 C 0.80714 0.10111 0.53604 0.0
C32 C 0.82115 0.02306 0.51008 0.0
C33 C 0.7946 0.04068 0.49928 0.0
C34 C 0.7697 0.01585 0.49011 0.0
C35 C 0.77084 0.97263 0.49156 0.0
C36 C 0.79839 0.9549 0.50214 0.0
C37 C 0.82332 0.97988 0.51133 0.0
C38 C 0.88716 0.04544 0.52157 0.0
C39 C 0.90611 0.01855 0.532 0.0
C40 C 0.94954 0.01494 0.53264 0.0
C41 C 0.97499 0.0378 0.52277 0.0
C42 C 0.95574 0.06448 0.51231 0.0
C43 C 0.91238 0.06821 0.51176 0.0
C44 C 0.17635 0.04529 0.53586 0.0
C45 C 0.18668 0.02973 0.55012 0.0
C46 C 0.21485 0.05056 0.55939 0.0
C47 C 0.23338 0.08756 0.55454 0.0
C48 C 0.22162 0.10408 0.54046 0.0
C49 C 0.19329 0.08319 0.5312 0.0
C50 C 0.17573 0.00773 0.51221 0.0
C51 C 0.17281 0.03049 0.4987 0.0
C52 C 0.19915 0.02133 0.48656 0.0
C53 C 0.22929 0.99 0.48792 0.0
C54 C 0.23137 0.96684 0.50131 0.0
C55 C 0.20472 0.97554 0.51327 0.0
C56 C 0.109 0.02499 0.52454 0.0
C57 C 0.08319 0.99077 0.52669 0.0
C58 C 0.0399 0.99485 0.52605 0.0
C59 C 0.0213 0.0335 0.52328 0.0
C60 C 0.04739 0.06784 0.52097 0.0
C61 C 0.09081 0.06362 0.52153 0.0
H62 H 0.34542 0.55573 0.81113 0.0
N63 N 0.31932 0.60949 0.79052 0.0
H64 H 0.30405 0.51912 0.82992 0.0
H65 H 0.23495 0.61818 0.79528 0.0
H66 H 0.19408 0.5843 0.81456 0.0
H67 H 0.26365 0.56821 0.77258 0.0
H68 H 0.28086 0.52182 0.75172 0.0
H69 H 0.39354 0.59669 0.77842 0.0
H70 H 0.41105 0.55212 0.75715 0.0
H71 H 0.36519 0.66863 0.80277 0.0
H72 H 0.26143 0.64861 0.77286 0.0
H73 H 0.35621 0.74313 0.80026 0.0
H74 H 0.24956 0.72271 0.77124 0.0
H75 H 0.307 0.95151 0.80637 0.0
H76 H 0.27999 0.98874 0.82822 0.0
H77 H 0.15522 0.95122 0.81646 0.0
H78 H 0.18249 0.91447 0.79436 0.0
H79 H 0.22995 0.96533 0.76446 0.0
H80 H 0.26784 0.01531 0.7491 0.0
H81 H 0.38383 0.97258 0.76849 0.0
H82 H 0.3453 0.92291 0.78402 0.0
H83 H 0.30085 0.87054 0.80739 0.0
H84 H 0.31598 0.79729 0.80796 0.0
H85 H 0.26944 0.78578 0.76225 0.0
N86 N 0.26069 0.91288 0.78458 0.0
H87 H 0.25106 0.85883 0.76236 0.0
C88 C 0.29375 0.59008 0.80187 0.0
C89 C 0.31237 0.56207 0.81189 0.0
C90 C 0.28863 0.54146 0.82272 0.0
C91 C 0.24553 0.5488 0.82391 0.0
C92 C 0.22698 0.57728 0.81391 0.0
C93 C 0.25064 0.59727 0.80291 0.0
C94 C 0.32757 0.58533 0.77721 0.0
C95 C 0.29585 0.56487 0.76923 0.0
C96 C 0.30576 0.53854 0.75722 0.0
C97 C 0.34748 0.53259 0.75285 0.0
C98 C 0.37873 0.55491 0.76043 0.0
C99 C 0.36883 0.58074 0.7725 0.0
C100 C 0.31368 0.65319 0.78824 0.0
C101 C 0.3402 0.6805 0.79576 0.0
C102 C 0.33464 0.72312 0.79442 0.0
C103 C 0.30169 0.73947 0.78572 0.0
C104 C 0.27563 0.71174 0.7779 0.0
C105 C 0.28196 0.66912 0.77896 0.0
C106 C 0.24651 0.93078 0.79856 0.0
C107 C 0.27389 0.95104 0.8085 0.0
C108 C 0.25846 0.97223 0.82101 0.0
C109 C 0.21552 0.97306 0.82396 0.0
C110 C 0.18849 0.95085 0.81451 0.0
C111 C 0.20392 0.93005 0.80188 0.0
C112 C 0.28473 0.94029 0.77522 0.0
C113 C 0.26356 0.96663 0.76529 0.0
C114 C 0.2853 0.99506 0.75653 0.0
C115 C 0.32892 0.9978 0.75752 0.0
C116 C 0.35024 0.97145 0.76756 0.0
C117 C 0.32834 0.94284 0.77633 0.0
C118 C 0.27385 0.87022 0.78489 0.0
C119 C 0.29357 0.85237 0.79751 0.0
C120 C 0.30279 0.81018 0.79773 0.0
C121 C 0.29374 0.78497 0.78519 0.0
C122 C 0.27586 0.80355 0.77232 0.0
C123 C 0.26571 0.84551 0.77226 0.0
H124 H 0.71112 0.02389 0.03756 0.0
N125 N 0.66788 0.96253 0.02304 0.0
H126 H 0.75936 0.01489 0.05875 0.0
H127 H 0.68002 0.89474 0.03948 0.0
H128 H 0.72773 0.88566 0.06089 0.0
H129 H 0.72439 0.92668 0.00544 0.0
H130 H 0.76884 0.95951 0.98656 0.0
H131 H 0.6624 0.04273 0.01333 0.0
H132 H 0.70458 0.07514 0.99395 0.0
H133 H 0.63142 0.01782 0.04267 0.0
H134 H 0.60591 0.9338 0.00616 0.0
H135 H 0.55802 0.03571 0.04401 0.0
H136 H 0.53253 0.95349 0.00671 0.0
H137 H 0.35079 0.04211 0.06091 0.0
H138 H 0.30205 0.99944 0.0752 0.0
H139 H 0.2731 0.93113 0.03466 0.0
H140 H 0.32127 0.97452 0.02046 0.0
H141 H 0.35551 0.0219 1.00144 0.0
H142 H 0.30628 0.05562 0.984 0.0
H143 H 0.27407 0.1431 0.0188 0.0
H144 H 0.32316 0.10936 0.03605 0.0
H145 H 0.4306 0.08912 0.03522 0.0
H146 H 0.50419 0.07164 0.03257 0.0
H147 H 0.47005 0.94776 0.01942 0.0
N148 N 0.36522 0.04028 0.03142 0.0
H149 H 0.39686 0.96657 0.02113 0.0
C150 C 0.69203 0.95973 0.03683 0.0
C151 C 0.71425 0.99367 0.04264 0.0
C152 C 0.74202 0.98849 0.05472 0.0
C153 C 0.7476 0.94952 0.06142 0.0
C154 C 0.72396 0.91613 0.05603 0.0
C155 C 0.69665 0.92122 0.04383 0.0
C156 C 0.68993 0.98197 0.01075 0.0
C157 C 0.71976 0.95902 1.00282 0.0
C158 C 0.74499 0.97785 0.99198 0.0
C159 C 0.74066 0.02015 0.98876 0.0
C160 C 0.70956 0.04274 0.99634 0.0
C161 C 0.68486 0.02405 0.00733 0.0
C162 C 0.62433 0.97369 0.02444 0.0
C163 C 0.6101 1.00309 0.03492 0.0
C164 C 0.56784 0.01381 0.03551 0.0
C165 C 0.53879 0.99621 0.02545 0.0
C166 C 0.55341 0.9672 0.01488 0.0
C167 C 0.59551 0.95601 0.01447 0.0
C168 C 0.33996 0.01139 0.03971 0.0
C169 C 0.33434 0.01751 0.0552 0.0
C170 C 0.30645 0.99308 0.06331 0.0
C171 C 0.28351 0.96187 0.05606 0.0
C172 C 0.28979 0.95524 0.04055 0.0
C173 C 0.31772 0.97975 0.03244 0.0
C174 C 0.34296 0.06333 0.02004 0.0
C175 C 0.33858 0.04895 0.00515 0.0
C176 C 0.31044 0.06819 0.99522 0.0
C177 C 0.28597 0.10167 1.00012 0.0
C178 C 0.29206 0.11705 0.01477 0.0
C179 C 0.32032 0.09812 0.02458 0.0
C180 C 0.4081 0.02926 0.02856 0.0
C181 C 0.43915 0.05838 0.03157 0.0
C182 C 0.4813 0.04805 0.03024 0.0
C183 C 0.4936 0.00794 0.02602 0.0
C184 C 0.46219 0.97906 0.02257 0.0
C185 C 0.41998 0.9897 0.02368 0.0
H186 H 0.21689 0.45034 0.30694 0.0
N187 N 0.25821 0.4142 0.2836 0.0
H188 H 0.24776 0.49394 0.32652 0.0
H189 H 0.33853 0.4258 0.2888 0.0
H190 H 0.36973 0.47067 0.30773 0.0
H191 H 0.29357 0.45898 0.26229 0.0
H192 H 0.26142 0.51164 0.24653 0.0
H193 H 0.17482 0.43066 0.282 0.0
H194 H 0.14121 0.48188 0.26552 0.0
H195 H 0.20219 0.37854 0.30274 0.0
H196 H 0.28928 0.35331 0.26709 0.0
H197 H 0.1888 0.3047 0.30552 0.0
H198 H 0.27492 0.2795 0.26923 0.0
H199 H 0.18899 0.0891 0.32181 0.0
H200 H 0.2303 0.03963 0.33664 0.0
H201 H 0.31393 0.02463 0.29897 0.0
H202 H 0.27278 0.07367 0.28433 0.0
H203 H 0.23602 0.11131 0.26511 0.0
H204 H 0.21117 0.07487 0.24268 0.0
H205 H 0.10401 0.03261 0.26754 0.0
H206 H 0.12939 0.06887 0.29003 0.0
H207 H 0.14565 0.17207 0.29686 0.0
H208 H 0.15761 0.24623 0.29427 0.0
H209 H 0.28746 0.22211 0.285 0.0
N210 N 0.19977 0.11096 0.2931 0.0
H211 H 0.27469 0.14829 0.28697 0.0
C212 C 0.27567 0.43448 0.29656 0.0
C213 C 0.25037 0.45363 0.3074 0.0
C214 C 0.26807 0.47906 0.31845 0.0
C215 C 0.31132 0.48617 0.31872 0.0
C216 C 0.33648 0.46551 0.30813 0.0
C217 C 0.31878 0.43988 0.29724 0.0
C218 C 0.23658 0.44056 0.27309 0.0
C219 C 0.26019 0.46346 0.26285 0.0
C220 C 0.24154 0.49352 0.2538 0.0
C221 C 0.1984 0.50108 0.25455 0.0
C222 C 0.17452 0.47739 0.26469 0.0
C223 C 0.19352 0.44761 0.27398 0.0
C224 C 0.24704 0.37132 0.28476 0.0
C225 C 0.21813 0.35711 0.2954 0.0
C226 C 0.21034 0.31475 0.2969 0.0
C227 C 0.23101 0.28578 0.28768 0.0
C228 C 0.25909 0.30054 0.27678 0.0
C229 C 0.26704 0.34276 0.2754 0.0
C230 C 0.22741 0.08512 0.30195 0.0
C231 C 0.21657 0.0755 0.31686 0.0
C232 C 0.24021 0.04727 0.3253 0.0
C233 C 0.27517 0.02781 0.31893 0.0
C234 C 0.28676 0.03847 0.30413 0.0
C235 C 0.26328 0.06685 0.29574 0.0
C236 C 0.18459 0.09252 0.27932 0.0
C237 C 0.20713 0.09436 0.26575 0.0
C238 C 0.19292 0.07347 0.25292 0.0
C239 C 0.15567 0.0508 0.25335 0.0
C240 C 0.13259 0.05013 0.26681 0.0
C241 C 0.14707 0.07064 0.27966 0.0
C242 C 0.20912 0.1545 0.29227 0.0
C243 C 0.1767 0.18294 0.29434 0.0
C244 C 0.18371 0.22537 0.29293 0.0
C245 C 0.22356 0.24047 0.28943 0.0
C246 C 0.25619 0.2118 0.28747 0.0
C247 C 0.24904 0.16932 0.28877 0.0
H248 H 0.80922 0.07747 0.30379 0.0
N249 N 0.76155 0.1187 0.28308 0.0
H250 H 0.78415 0.04381 0.32675 0.0
H251 H 0.68592 0.12444 0.29493 0.0
H252 H 0.66045 0.09074 0.31789 0.0
H253 H 0.72266 0.0602 0.26791 0.0
H254 H 0.75292 1.00414 0.25339 0.0
H255 H 0.84504 0.10801 0.27716 0.0
H256 H 0.87582 0.05365 0.26168 0.0
H257 H 0.82334 0.15232 0.3005 0.0
H258 H 0.73391 0.17919 0.26549 0.0
H259 H 0.84067 0.22532 0.30226 0.0
H260 H 0.75238 0.25229 0.26661 0.0
H261 H 0.83727 0.42716 0.32273 0.0
H262 H 0.7926 0.46724 0.33976 0.0
H263 H 0.71326 0.49944 0.30209 0.0
H264 H 0.75757 0.45962 0.28527 0.0
H265 H 0.79125 0.42184 0.26528 0.0
H266 H 0.81505 0.46025 0.24321 0.0
H267 H 0.92269 0.50134 0.26827 0.0
H268 H 0.89844 0.46287 0.29042 0.0
H269 H 0.88443 0.35697 0.29449 0.0
H270 H 0.8721 0.28327 0.29056 0.0
H271 H 0.74147 0.30877 0.28307 0.0
N272 N 0.82955 0.41824 0.29299 0.0
H273 H 0.75448 0.38208 0.28634 0.0
C274 C 0.74912 0.10301 0.29759 0.0
C275 C 0.77689 0.08108 0.30693 0.0
C276 C 0.76253 0.06183 0.32002 0.0
C277 C 0.7203 0.06444 0.32404 0.0
C278 C 0.69321 0.08849 0.31515 0.0
C279 C 0.70757 0.10752 0.30202 0.0
C280 C 0.78126 0.08875 0.27338 0.0
C281 C 0.7561 0.05908 0.26646 0.0
C282 C 0.77361 0.02711 0.25808 0.0
C283 C 0.81701 0.02434 0.25611 0.0
C284 C 0.84236 0.05435 0.26303 0.0
C285 C 0.82472 0.08599 0.27172 0.0
C286 C 0.77686 0.16043 0.28295 0.0
C287 C 0.80791 0.17387 0.29301 0.0
C288 C 0.81799 0.21574 0.29392 0.0
C289 C 0.79757 0.24494 0.28471 0.0
C290 C 0.76804 0.23092 0.27414 0.0
C291 C 0.75775 0.18913 0.27334 0.0
C292 C 0.80143 0.44079 0.30269 0.0
C293 C 0.8101 0.44275 0.3182 0.0
C294 C 0.78444 0.46539 0.32791 0.0
C295 C 0.74958 0.48675 0.32224 0.0
C296 C 0.74026 0.48384 0.30676 0.0
C297 C 0.76573 0.46101 0.2971 0.0
C298 C 0.84303 0.43975 0.2796 0.0
C299 C 0.81992 0.43909 0.26607 0.0
C300 C 0.83354 0.46111 0.25345 0.0
C301 C 0.87073 0.48383 0.25401 0.0
C302 C 0.89414 0.4838 0.26744 0.0
C303 C 0.88026 0.4621 0.28011 0.0
C304 C 0.82051 0.37503 0.29091 0.0
C305 C 0.85319 0.34647 0.29199 0.0
C306 C 0.846 0.30438 0.28981 0.0
C307 C 0.80574 0.2899 0.28653 0.0
C308 C 0.773 0.31873 0.28535 0.0
C309 C 0.78031 0.36083 0.28741 0.0
H310 H 0.68528 0.98147 0.81512 0.0
N311 N 0.71157 0.93205 0.7932 0.0
H312 H 0.72736 0.02787 0.83083 0.0
H313 H 0.79638 0.93592 0.79371 0.0
H314 H 0.83866 0.98316 0.80904 0.0
H315 H 0.76368 0.96206 0.77134 0.0
H316 H 0.74379 0.00548 0.75006 0.0
H317 H 0.63479 0.94747 0.78337 0.0
H318 H 0.61411 0.98871 0.76145 0.0
H319 H 0.69034 0.88207 0.81558 0.0
H320 H 0.74582 0.88194 0.77138 0.0
H321 H 0.69526 0.80718 0.81658 0.0
H322 H 0.74804 0.80667 0.7717 0.0
H323 H 0.69212 0.57376 0.81821 0.0
H324 H 0.73458 0.52528 0.8326 0.0
H325 H 0.84459 0.57062 0.80997 0.0
H326 H 0.80108 0.61663 0.79489 0.0
H327 H 0.7574 0.5991 0.77043 0.0
H328 H 0.73186 0.55127 0.75111 0.0
H329 H 0.6133 0.54532 0.77395 0.0
H330 H 0.63905 0.5938 0.79293 0.0
H331 H 0.6631 0.67425 0.80839 0.0
H332 H 0.66354 0.74934 0.80737 0.0
H333 H 0.77621 0.74522 0.78075 0.0
N334 N 0.71611 0.62217 0.79576 0.0
H335 H 0.77319 0.66986 0.78092 0.0
C336 C 0.73766 0.95571 0.8032 0.0
C337 C 0.71882 0.98129 0.81395 0.0
C338 C 0.74283 0.00765 0.82289 0.0
C339 C 0.78619 0.00931 0.82105 0.0
C340 C 0.80523 0.98277 0.81056 0.0
C341 C 0.7812 0.95584 0.80181 0.0
C342 C 0.70062 0.95212 0.77916 0.0
C343 C 0.73099 0.96766 0.76928 0.0
C344 C 0.71944 0.99228 0.75695 0.0
C345 C 0.67725 1.00139 0.75408 0.0
C346 C 0.64694 0.98353 0.7635 0.0
C347 C 0.65859 0.95946 0.77594 0.0
C348 C 0.71706 0.88777 0.79339 0.0
C349 C 0.70337 0.86574 0.80603 0.0
C350 C 0.70577 0.82273 0.80647 0.0
C351 C 0.72119 0.80025 0.79407 0.0
C352 C 0.73612 0.82256 0.78152 0.0
C353 C 0.7345 0.86586 0.78124 0.0
C354 C 0.74331 0.59925 0.80566 0.0
C355 C 0.72551 0.57359 0.81657 0.0
C356 C 0.75005 0.54594 0.82484 0.0
C357 C 0.79337 0.54369 0.82255 0.0
C358 C 0.81136 0.57069 0.81192 0.0
C359 C 0.78653 0.59777 0.80342 0.0
C360 C 0.6999 0.60001 0.78302 0.0
C361 C 0.72563 0.58823 0.771 0.0
C362 C 0.71109 0.56051 0.7601 0.0
C363 C 0.67061 0.54402 0.76106 0.0
C364 C 0.64442 0.55759 0.77275 0.0
C365 C 0.65901 0.58528 0.7836 0.0
C366 C 0.71847 0.66649 0.79506 0.0
C367 C 0.68786 0.6897 0.80237 0.0
C368 C 0.68853 0.73277 0.80187 0.0
C369 C 0.72043 0.75396 0.79422 0.0
C370 C 0.75101 0.73037 0.78672 0.0
C371 C 0.74977 0.68707 0.787 0.0
H372 H 0.32445 0.53753 0.00812 0.0
N373 N 0.35721 0.50492 0.03416 0.0
H374 H 0.27905 0.50243 0.99035 0.0
H375 H 0.33992 0.42487 0.03339 0.0
H376 H 0.29591 0.38858 0.01516 0.0
H377 H 0.34714 0.48359 0.06289 0.0
H378 H 0.2967 0.51203 0.0809 0.0
H379 H 0.30894 0.57385 0.02986 0.0
H380 H 0.25751 0.60134 0.04756 0.0
H381 H 0.37934 0.574 0.01824 0.0
H382 H 0.42796 0.4705 0.04322 0.0
H383 H 0.4499 0.59473 0.01159 0.0
H384 H 0.49893 0.4923 0.03755 0.0
H385 H 0.65713 0.61042 0.97861 0.0
H386 H 0.70587 0.57764 0.96089 0.0
H387 H 0.74198 0.49088 0.99557 0.0
H388 H 0.69332 0.52291 0.01297 0.0
H389 H 0.66408 0.55535 0.03486 0.0
H390 H 0.71514 0.57648 0.05368 0.0
H391 H 0.73945 0.68732 0.02795 0.0
H392 H 0.68992 0.66437 0.00872 0.0
H393 H 0.58303 0.64262 0.01262 0.0
H394 H 0.51237 0.62329 0.01978 0.0
H395 H 0.54834 0.49467 0.01857 0.0
N396 N 0.64814 0.59375 0.00791 0.0
H397 H 0.61899 0.51442 0.01233 0.0
C398 C 0.33531 0.48385 0.02224 0.0
C399 C 0.31875 0.50503 0.00973 0.0
C400 C 0.2929 0.48468 0.99944 0.0
C401 C 0.28334 0.44263 1.00135 0.0
C402 C 0.30177 0.42114 0.01348 0.0
C403 C 0.32728 0.44165 0.02383 0.0
C404 C 0.33172 0.52628 0.04502 0.0
C405 C 0.32829 0.50988 0.05961 0.0
C406 C 0.29938 0.52601 0.06983 0.0
C407 C 0.27282 0.55851 0.06553 0.0
C408 C 0.27718 0.57586 0.05107 0.0
C409 C 0.30672 0.56023 0.04096 0.0
C410 C 0.39838 0.5202 0.03104 0.0
C411 C 0.40522 0.55581 0.02237 0.0
C412 C 0.44587 0.56792 0.01872 0.0
C413 C 0.48061 0.54509 0.02389 0.0
C414 C 0.47331 0.51019 0.03299 0.0
C415 C 0.43273 0.49785 0.03641 0.0
C416 C 0.67145 0.56947 0.99714 0.0
C417 C 0.67488 0.58373 0.98224 0.0
C418 C 0.7028 0.56513 0.97218 0.0
C419 C 0.7282 0.53221 0.97696 0.0
C420 C 0.72337 0.51673 0.99167 0.0
C421 C 0.69522 0.53495 1.00162 0.0
C422 C 0.67326 0.60834 0.02034 0.0
C423 C 0.6802 0.58431 0.03333 0.0
C424 C 0.70942 0.59662 0.04414 0.0
C425 C 0.7319 0.63359 0.04236 0.0
C426 C 0.72361 0.65824 0.02959 0.0
C427 C 0.69482 0.64556 0.01869 0.0
C428 C 0.60652 0.58029 0.01174 0.0
C429 C 0.57555 0.61026 0.01392 0.0
C430 C 0.53499 0.59904 0.01792 0.0
C431 C 0.52413 0.55727 0.01974 0.0
C432 C 0.55535 0.52719 0.01755 0.0
C433 C 0.59607 0.53851 0.01376 0.0
H434 H 0.21499 0.56872 0.55212 0.0
N435 N 0.168 0.53144 0.53162 0.0
H436 H 0.26429 0.53672 0.56973 0.0
H437 H 0.17529 0.44872 0.53721 0.0
H438 H 0.22386 0.41623 0.55497 0.0
H439 H 0.20173 0.47373 0.51253 0.0
H440 H 0.24797 0.48744 0.49124 0.0
H441 H 0.18923 0.60438 0.52043 0.0
H442 H 0.23693 0.61816 0.49942 0.0
H443 H 0.10651 0.56698 0.54685 0.0
H444 H 0.13021 0.47351 0.51341 0.0
H445 H 0.03169 0.55521 0.54432 0.0
H446 H 0.05608 0.46341 0.51005 0.0
H447 H 0.85401 0.50915 0.54436 0.0
H448 H 0.80385 0.48128 0.56234 0.0
H449 H 0.76202 0.3941 0.5287 0.0
H450 H 0.81144 0.42332 0.51067 0.0
H451 H 0.85 0.48946 0.48492 0.0
H452 H 0.80437 0.53638 0.47066 0.0
H453 H 0.77836 0.60371 0.51159 0.0
H454 H 0.82409 0.55724 0.52566 0.0
H455 H 0.90089 0.5586 0.52402 0.0
H456 H 0.97496 0.56727 0.52861 0.0
H457 H 0.99472 0.43754 0.51966 0.0
N458 N 0.86166 0.48736 0.51468 0.0
H459 H 0.92068 0.42994 0.5141 0.0
C460 C 0.19143 0.51122 0.54342 0.0
C461 C 0.21629 0.5354 0.55294 0.0
C462 C 0.24445 0.51703 0.56298 0.0
C463 C 0.24843 0.47386 0.56369 0.0
C464 C 0.22221 0.44958 0.55452 0.0
C465 C 0.19405 0.46806 0.54446 0.0
C466 C 0.19124 0.53825 0.51793 0.0
C467 C 0.20797 0.5054 0.50948 0.0
C468 C 0.23465 0.51319 0.49735 0.0
C469 C 0.24595 0.5538 0.49375 0.0
C470 C 0.22867 0.58656 0.50202 0.0
C471 C 0.20134 0.5788 0.51392 0.0
C472 C 0.12424 0.52172 0.53025 0.0
C473 C 0.09555 0.54402 0.53892 0.0
C474 C 0.05269 0.5375 0.53731 0.0
C475 C 0.03732 0.50863 0.52683 0.0
C476 C 0.06634 0.48558 0.51839 0.0
C477 C 0.10921 0.4917 0.52018 0.0
C478 C 0.83646 0.46816 0.52616 0.0
C479 C 0.83437 0.48375 0.54093 0.0
C480 C 0.80567 0.46764 0.55121 0.0
C481 C 0.77858 0.43552 0.54697 0.0
C482 C 0.78177 0.41926 0.5323 0.0
C483 C 0.81032 0.43553 0.52203 0.0
C484 C 0.84034 0.51947 0.50633 0.0
C485 C 0.83519 0.51495 0.49071 0.0
C486 C 0.80915 0.54175 0.48261 0.0
C487 C 0.78743 0.57342 0.49006 0.0
C488 C 0.79422 0.57921 0.50559 0.0
C489 C 0.82055 0.55268 0.51364 0.0
C490 C 0.90509 0.49358 0.51838 0.0
C491 C 0.92102 0.53203 0.52292 0.0
C492 C 0.96369 0.53684 0.52574 0.0
C493 C 0.99142 0.5032 0.52443 0.0
C494 C 0.9749 0.46451 0.52042 0.0
C495 C 0.93242 0.45993 0.51736 0.0
Fe496 Fe 0.0111 0.76705 0.1746 0.0
O497 O 0.04889 0.76179 0.15679 0.0
Fe498 Fe 0.91328 0.76116 0.15633 0.0
Fe499 Fe 0.10803 0.77171 0.15605 0.0
O500 O 0.97228 0.7727 0.15704 0.0
O501 O 0.97321 0.75726 0.1546 0.0
O502 O 0.04794 0.77737 0.15447 0.0
Fe503 Fe 0.00984 0.76855 0.13684 0.0
C504 C 0.07048 0.8423 0.17557 0.0
O505 O 0.05563 0.7518 0.19052 0.0
O506 O 0.10855 0.73422 0.17504 0.0
O507 O 0.96529 0.75066 0.12107 0.0
O508 O 0.91454 0.72671 0.13669 0.0
O509 O 0.92051 0.70904 0.16973 0.0
O510 O 0.9899 0.70596 0.17548 0.0
O511 O 0.10753 0.72055 0.14234 0.0
O512 O 0.0396 0.71029 0.13509 0.0
C513 C 0.95272 0.69076 0.17546 0.0
O514 O 0.97971 0.82687 0.13632 0.0
O515 O 0.91217 0.8132 0.14304 0.0
O516 O 0.03288 0.828 0.1755 0.0
O517 O 0.10221 0.82336 0.16982 0.0
C518 C 0.08904 0.73159 0.18763 0.0
C519 C 0.07861 0.69964 0.13575 0.0
C520 C 0.08873 0.80601 0.12364 0.0
O521 O 0.10735 0.80707 0.13655 0.0
O522 O 0.05307 0.78901 0.12118 0.0
C523 C 0.93043 0.73211 0.12351 0.0
O524 O 0.91231 0.79715 0.17558 0.0
O525 O 0.9672 0.78213 0.19071 0.0
C526 C 0.94031 0.83606 0.13691 0.0
C527 C 0.93247 0.80053 0.18805 0.0
Fe528 Fe 0.47244 0.7643 0.43673 0.0
O529 O 0.47711 0.76269 0.41463 0.0
Fe530 Fe 0.50223 0.8149 0.40401 0.0
Fe531 Fe 0.50906 0.71924 0.40357 0.0
O532 O 0.47652 0.76694 0.41459 0.0
O533 O 0.53363 0.77141 0.39285 0.0
O534 O 0.53419 0.76735 0.39288 0.0
Fe535 Fe 0.53965 0.77084 0.37091 0.0
C536 C 0.55427 0.71583 0.43323 0.0
O537 O 0.43616 0.71329 0.43264 0.0
O538 O 0.4771 0.67451 0.41648 0.0
O539 O 0.49236 0.81313 0.36719 0.0
O540 O 0.45485 0.81548 0.38827 0.0
O541 O 0.46453 0.85419 0.41725 0.0
O542 O 0.4284 0.80924 0.43265 0.0
O543 O 0.46193 0.71509 0.3879 0.0
O544 O 0.49855 0.72312 0.36679 0.0
C545 C 0.43351 0.84472 0.42608 0.0
O546 O 0.57657 0.82138 0.37554 0.0
O547 O 0.53479 0.85956 0.39156 0.0
O548 O 0.52099 0.72335 0.44054 0.0
O549 O 0.55668 0.72086 0.41903 0.0
C550 C 0.44609 0.67924 0.42583 0.0
C551 C 0.46733 0.70866 0.37389 0.0
C552 C 0.5775 0.68911 0.38112 0.0
O553 O 0.54729 0.68009 0.3904 0.0
O554 O 0.58297 0.72501 0.37487 0.0
C555 C 0.45938 0.8232 0.37428 0.0
O556 O 0.5499 0.81703 0.41945 0.0
O557 O 0.51358 0.81221 0.44064 0.0
C558 C 0.56647 0.85518 0.38254 0.0
C559 C 0.54659 0.82203 0.4336 0.0
Fe560 Fe 0.51345 0.26744 0.67326 0.0
O561 O 0.54641 0.29156 0.65639 0.0
Fe562 Fe 0.41915 0.24345 0.65667 0.0
Fe563 Fe 0.6075 0.28848 0.65619 0.0
O564 O 0.48004 0.24221 0.65671 0.0
O565 O 0.48004 0.2421 0.65517 0.0
O566 O 0.54626 0.29172 0.65482 0.0
Fe567 Fe 0.51249 0.26653 0.63811 0.0
C568 C 0.58155 0.32658 0.68597 0.0
O569 O 0.54976 0.21583 0.67365 0.0
O570 O 0.61226 0.24429 0.6733 0.0
O571 O 0.47171 0.23567 0.6231 0.0
O572 O 0.42496 0.20271 0.6389 0.0
O573 O 0.42784 0.20241 0.67407 0.0
O574 O 0.47527 0.23664 0.68905 0.0
O575 O 0.61281 0.24253 0.64045 0.0
O576 O 0.54995 0.2146 0.6374 0.0
C577 C 0.44847 0.20727 0.68654 0.0
O578 O 0.47392 0.31812 0.63708 0.0
O579 O 0.41247 0.28728 0.64021 0.0
O580 O 0.55268 0.29917 0.68854 0.0
O581 O 0.60111 0.33076 0.67326 0.0
C582 C 0.58807 0.21484 0.67696 0.0
C583 C 0.58936 0.2136 0.63586 0.0
C584 C 0.58339 0.32211 0.62503 0.0
O585 O 0.60205 0.32788 0.63792 0.0
O586 O 0.55275 0.29633 0.62268 0.0
C587 C 0.44223 0.20892 0.62581 0.0
O588 O 0.41437 0.28904 0.67318 0.0
O589 O 0.47654 0.31874 0.67337 0.0
C590 C 0.43467 0.31617 0.63483 0.0
C591 C 0.43811 0.31917 0.67657 0.0
Fe592 Fe 0.97151 0.27507 0.93983 0.0
O593 O 0.97768 0.27108 0.9178 0.0
Fe594 Fe 1.00881 0.31968 0.90702 0.0
Fe595 Fe 1.00567 0.22385 0.90744 0.0
O596 O 0.97818 0.27522 0.91786 0.0
O597 O 0.03709 0.27258 0.8967 0.0
O598 O 0.03665 0.2684 0.89666 0.0
Fe599 Fe 0.04414 0.26947 0.87474 0.0
C600 C 0.04901 0.21966 0.93766 0.0
O601 O 0.93104 0.22728 0.93584 0.0
O602 O 0.96824 0.18338 0.92032 0.0
O603 O 1.0007 0.31538 0.87004 0.0
O604 O 0.96291 0.32176 0.89096 0.0
O605 O 0.97307 0.36331 0.91922 0.0
O606 O 0.93186 0.32301 0.93467 0.0
O607 O 0.95954 0.22272 0.89117 0.0
O608 O 0.99942 0.2253 0.87069 0.0
C609 C 0.94035 0.35716 0.92765 0.0
O610 O 0.08505 0.31716 0.87903 0.0
O611 O 0.04563 0.3602 0.89413 0.0
O612 O 0.01618 0.2307 0.94464 0.0
O613 O 0.05214 0.22201 0.92339 0.0
C614 C 0.93718 0.192 0.92927 0.0
C615 C 0.96612 0.21438 0.87734 0.0
C616 C 0.07236 0.18547 0.8862 0.0
O617 O 0.04042 0.1804 0.89507 0.0
O618 O 0.08272 0.22 0.87972 0.0
C619 C 0.96853 0.32846 0.87698 0.0
O620 O 0.05527 0.31979 0.92304 0.0
O621 O 0.01615 0.31969 0.94366 0.0
C622 C 0.0769 0.35268 0.88517 0.0
C623 C 0.05076 0.32594 0.9371 0.0
H624 H 0.31347 0.98591 0.49014 0.0
H625 H 0.21258 0.97406 0.4582 0.0
H626 H 0.36243 0.96108 0.47121 0.0
H627 H 0.26174 0.949 0.43912 0.0
H628 H 0.35024 0.83483 0.42751 0.0
H629 H 0.29998 0.88096 0.43926 0.0
H630 H 0.39637 0.9719 0.44572 0.0
H631 H 0.44688 0.92541 0.43372 0.0
C632 C 0.30198 0.9787 0.47894 0.0
C633 C 0.25926 0.98135 0.47565 0.0
C634 C 0.33005 0.9649 0.46805 0.0
C635 C 0.31591 0.95299 0.45368 0.0
C636 C 0.27345 0.95786 0.45012 0.0
C637 C 0.24538 0.97224 0.46099 0.0
C638 C 0.36038 0.86519 0.43104 0.0
C639 C 0.40238 0.87654 0.42984 0.0
C640 C 0.33156 0.89173 0.43768 0.0
C641 C 0.34429 0.92994 0.44351 0.0
C642 C 0.38579 0.94251 0.44138 0.0
C643 C 0.41459 0.9161 0.43445 0.0
H644 H 0.39418 0.04853 0.76525 0.0
H645 H 0.31502 0.01452 0.72782 0.0
H646 H 0.43 0.09853 0.74905 0.0
H647 H 0.34945 0.06489 0.71195 0.0
H648 H 0.43906 0.12582 0.68209 0.0
H649 H 0.41625 0.07405 0.70005 0.0
H650 H 0.41666 0.16547 0.73549 0.0
H651 H 0.44099 0.21756 0.71733 0.0
C652 C 0.38458 0.05159 0.75357 0.0
C653 C 0.3517 0.0276 0.74782 0.0
C654 C 0.4048 0.08047 0.74436 0.0
C655 C 0.39278 0.08553 0.72919 0.0
C656 C 0.36002 0.06136 0.72351 0.0
C657 C 0.33988 0.03276 0.73267 0.0
C658 C 0.43477 0.13481 0.69376 0.0
C659 C 0.44097 0.17582 0.69829 0.0
C660 C 0.42155 0.10517 0.70405 0.0
C661 C 0.41356 0.11586 0.71911 0.0
C662 C 0.42245 0.15632 0.72394 0.0
C663 C 0.43628 0.18612 0.71358 0.0
H664 H 0.28936 0.12514 0.97034 0.0
H665 H 0.20581 0.11631 0.00822 0.0
H666 H 0.23334 0.155 0.95502 0.0
H667 H 0.14959 0.14445 0.99294 0.0
H668 H 0.06663 0.23239 0.96744 0.0
H669 H 0.12494 0.20542 0.98202 0.0
H670 H 0.16992 0.1414 0.94248 0.0
H671 H 0.11242 0.17004 0.92776 0.0
C672 C 0.25891 0.1293 0.97533 0.0
C673 C 0.25208 0.11885 0.99051 0.0
C674 C 0.22669 0.14624 0.96655 0.0
C675 C 0.18677 0.15256 0.97272 0.0
C676 C 0.18001 0.14121 0.98785 0.0
C677 C 0.21225 0.12484 0.99663 0.0
C678 C 0.08893 0.21249 0.96187 0.0
C679 C 0.08465 0.20309 0.94648 0.0
C680 C 0.12238 0.19681 0.97025 0.0
C681 C 0.15216 0.17074 0.96352 0.0
C682 C 0.14803 0.16171 0.94805 0.0
C683 C 0.11485 0.17792 0.93961 0.0
H684 H 0.20292 0.99998 0.23585 0.0
H685 H 0.07744 0.04543 0.24108 0.0
H686 H 0.1801 0.95525 0.21547 0.0
H687 H 0.05449 1.00159 0.22027 0.0
H688 H 0.02218 0.8772 0.19753 0.0
H689 H 0.04161 0.93178 0.21491 0.0
H690 H 0.15651 0.94959 0.19051 0.0
H691 H 0.13779 0.89364 0.17352 0.0
C692 C 0.17055 1.00103 0.2324 0.0
C693 C 0.14198 0.02616 0.2401 0.0
C694 C 0.15739 0.97546 0.22064 0.0
C695 C 0.11533 0.97464 0.21612 0.0
C696 C 0.08696 1.00077 0.22357 0.0
C697 C 0.1001 0.02603 0.23547 0.0
C698 C 0.05126 0.89326 0.19568 0.0
C699 C 0.07863 0.88067 0.1842 0.0
C700 C 0.06243 0.92477 0.20567 0.0
C701 C 0.10103 0.94489 0.20433 0.0
C702 C 0.12708 0.9341 0.1922 0.0
C703 C 0.11617 0.90222 0.18234 0.0
H704 H 0.23457 0.09753 0.58517 0.0
H705 H 0.30677 0.12238 0.54514 0.0
H706 H 0.29057 0.12461 0.60076 0.0
H707 H 0.36298 0.14991 0.56084 0.0
H708 H 0.42891 0.2371 0.59699 0.0
H709 H 0.38023 0.20791 0.57853 0.0
H710 H 0.36122 0.10286 0.60773 0.0
H711 H 0.40899 0.1322 0.62614 0.0
C712 C 0.26245 0.10867 0.57969 0.0
C713 C 0.26625 0.10743 0.56391 0.0
C714 C 0.29465 0.12411 0.58863 0.0
C715 C 0.33156 0.13877 0.58205 0.0
C716 C 0.33493 0.13888 0.56624 0.0
C717 C 0.30264 0.12327 0.55726 0.0
C718 C 0.41528 0.20717 0.59921 0.0
C719 C 0.42242 0.18707 0.61305 0.0
C720 C 0.38723 0.19057 0.58869 0.0
C721 C 0.36608 0.15359 0.59186 0.0
C722 C 0.37608 0.13198 0.60514 0.0
C723 C 0.40377 0.14858 0.61563 0.0
H724 H 0.15819 0.954 0.84574 0.0
H725 H 0.23408 0.0534 0.8289 0.0
H726 H 0.12711 1.00075 0.86422 0.0
H727 H 0.20212 0.10047 0.84667 0.0
H728 H 0.15615 0.17875 0.88317 0.0
H729 H 0.19452 0.12274 0.87123 0.0
H730 H 0.07955 0.05522 0.86552 0.0
H731 H 0.04202 0.11026 0.87839 0.0
C732 C 0.16825 0.98585 0.84605 0.0
C733 C 0.19864 1.00008 0.83596 0.0
C734 C 0.15035 0.01273 0.85657 0.0
C735 C 0.16197 0.0546 0.85703 0.0
C736 C 0.19296 0.06838 0.84703 0.0
C737 C 0.21124 0.04142 0.83673 0.0
C738 C 0.13943 0.15136 0.87969 0.0
C739 C 0.09624 0.14875 0.88162 0.0
C740 C 0.16125 0.11941 0.87269 0.0
C741 C 0.14013 0.08468 0.86702 0.0
C742 C 0.09712 0.08115 0.8698 0.0
C743 C 0.07547 0.11274 0.87716 0.0
H744 H 0.20558 0.9362 0.04724 0.0
H745 H 0.29244 0.93053 0.08451 0.0
H746 H 0.15591 0.89496 0.06171 0.0
H747 H 0.24254 0.89113 0.09908 0.0
H748 H 0.1681 0.78843 0.11707 0.0
H749 H 0.2134 0.82318 0.09924 0.0
H750 H 0.11002 0.89843 0.08418 0.0
H751 H 0.064 0.86209 0.10193 0.0
C752 C 0.21416 0.92604 0.05848 0.0
C753 C 0.2531 0.9366 0.0647 0.0
C754 C 0.18549 0.90282 0.06682 0.0
C755 C 0.1953 0.88946 0.08151 0.0
C756 C 0.23416 0.90024 0.0877 0.0
C757 C 0.26267 0.92333 0.07941 0.0
C758 C 0.1549 0.81196 0.10977 0.0
C759 C 0.11277 0.82297 0.11094 0.0
C760 C 0.18091 0.8321 0.09963 0.0
C761 C 0.16564 0.86435 0.09055 0.0
C762 C 0.12276 0.87375 0.09104 0.0
C763 C 0.0964 0.85303 0.10115 0.0
H764 H 0.29963 0.02861 0.34869 0.0
H765 H 0.30372 0.95375 0.30846 0.0
H766 H 0.34042 0.97656 0.36222 0.0
H767 H 0.34371 0.9015 0.32197 0.0
H768 H 0.45834 0.84454 0.34445 0.0
H769 H 0.41192 0.89217 0.33164 0.0
H770 H 0.34156 0.90778 0.37273 0.0
H771 H 0.38914 0.86066 0.38579 0.0
C772 C 0.30884 1.00083 0.34278 0.0
C773 C 0.29882 0.9956 0.32744 0.0
C774 C 0.3321 0.97086 0.35056 0.0
C775 C 0.3457 0.93479 0.3432 0.0
C776 C 0.33464 0.9292 0.32795 0.0
C777 C 0.31168 0.95921 0.32018 0.0
C778 C 0.43279 0.85772 0.35079 0.0
C779 C 0.42768 0.84866 0.36621 0.0
C780 C 0.40589 0.88501 0.34337 0.0
C781 C 0.37285 0.90401 0.3511 0.0
C782 C 0.36698 0.89418 0.36645 0.0
C783 C 0.39404 0.86681 0.37391 0.0
H784 H 0.76526 0.05587 0.58738 0.0
H785 H 0.69708 0.13065 0.55533 0.0
H786 H 0.71739 0.07723 0.60734 0.0
H787 H 0.64994 0.15265 0.57527 0.0
H788 H 0.66778 0.18346 0.63883 0.0
H789 H 0.70652 0.14325 0.62042 0.0
H790 H 0.59531 0.1308 0.59331 0.0
H791 H 0.5564 0.17157 0.61182 0.0
C792 C 0.7398 0.07649 0.58457 0.0
C793 C 0.73527 0.09196 0.56982 0.0
C794 C 0.7125 0.08886 0.596 0.0
C795 C 0.67984 0.11667 0.59291 0.0
C796 C 0.67442 0.13083 0.57802 0.0
C797 C 0.70184 0.11871 0.56664 0.0
C798 C 0.65132 0.17123 0.62913 0.0
C799 C 0.60916 0.18092 0.6267 0.0
C800 C 0.6735 0.14801 0.6186 0.0
C801 C 0.65415 0.13423 0.6053 0.0
C802 C 0.61121 0.14147 0.60336 0.0
C803 C 0.58881 0.1644 0.61403 0.0
H804 H 0.73657 0.98352 0.32913 0.0
H805 H 0.66508 0.08607 0.3463 0.0
H806 H 0.70249 0.9376 0.34668 0.0
H807 H 0.63143 0.04009 0.36444 0.0
H808 H 0.53933 0.93229 0.37523 0.0
H809 H 0.58071 0.9874 0.36402 0.0
H810 H 0.69243 0.91513 0.37135 0.0
H811 H 0.65046 0.85934 0.38162 0.0
C812 C 0.71442 0.99648 0.33702 0.0
C813 C 0.7035 0.03837 0.33634 0.0
C814 C 0.69485 0.97011 0.34718 0.0
C815 C 0.6641 0.985 0.35707 0.0
C816 C 0.65449 0.0274 0.35685 0.0
C817 C 0.67384 0.05378 0.34652 0.0
C818 C 0.57284 0.92879 0.3747 0.0
C819 C 0.59181 0.89159 0.37903 0.0
C820 C 0.59667 0.96038 0.36834 0.0
C821 C 0.63995 0.95545 0.36646 0.0
C822 C 0.65909 0.91951 0.37214 0.0
C823 C 0.63518 0.88767 0.37815 0.0
H824 H 0.73757 0.90753 0.08787 0.0
H825 H 0.82835 0.97667 0.06255 0.0
H826 H 0.78984 0.89237 0.10708 0.0
H827 H 0.88095 0.96173 0.08194 0.0
H828 H 0.96382 0.86092 0.10873 0.0
H829 H 0.91904 0.89802 0.09088 0.0
H830 H 0.83287 0.92516 0.12684 0.0
H831 H 0.87728 0.88773 0.14456 0.0
C832 C 0.76866 0.91979 0.08648 0.0
C833 C 0.77881 0.94319 0.07368 0.0
C834 C 0.79857 0.9115 0.09757 0.0
C835 C 0.83959 0.9261 0.09611 0.0
C836 C 0.84967 0.95006 0.0834 0.0
C837 C 0.8195 0.9588 0.07236 0.0
C838 C 0.93636 0.87654 0.11295 0.0
C839 C 0.92387 0.87117 0.12801 0.0
C840 C 0.91047 0.89754 0.10269 0.0
C841 C 0.87181 0.91354 0.10737 0.0
C842 C 0.86193 0.91228 0.12281 0.0
C843 C 0.88763 0.89129 0.133 0.0
H844 H 0.78615 0.02485 0.85144 0.0
H845 H 0.84169 0.06395 0.80956 0.0
H846 H 0.82781 0.07558 0.86515 0.0
H847 H 0.88169 0.11595 0.82297 0.0
H848 H 0.98238 0.17124 0.85176 0.0
H849 H 0.93851 0.12246 0.83876 0.0
H850 H 0.83979 0.14574 0.87073 0.0
H851 H 0.88516 0.19361 0.88434 0.0
C852 C 0.80709 0.04459 0.84518 0.0
C853 C 0.81117 0.04013 0.82948 0.0
C854 C 0.83074 0.07393 0.853 0.0
C855 C 0.85852 0.09993 0.84525 0.0
C856 C 0.86161 0.0959 0.82945 0.0
C857 C 0.83858 0.06615 0.82171 0.0
C858 C 0.95118 0.1664 0.856 0.0
C859 C 0.93722 0.18674 0.86906 0.0
C860 C 0.92577 0.13837 0.84845 0.0
C861 C 0.8852 0.1302 0.85352 0.0
C862 C 0.87097 0.15079 0.86655 0.0
C863 C 0.89682 0.17855 0.87429 0.0
H864 H 0.74809 0.98192 0.46189 0.0
H865 H 0.72735 0.90465 0.5009 0.0
H866 H 0.69541 0.94368 0.44796 0.0
H867 H 0.67605 0.86512 0.48674 0.0
H868 H 0.55007 0.84137 0.46367 0.0
H869 H 0.60644 0.87487 0.4773 0.0
H870 H 0.67928 0.87862 0.43641 0.0
H871 H 0.62245 0.84608 0.42265 0.0
C872 C 0.73254 0.95655 0.46746 0.0
C873 C 0.7418 0.9466 0.48257 0.0
C874 C 0.70263 0.93428 0.45941 0.0
C875 C 0.68127 0.90139 0.46624 0.0
C876 C 0.69144 0.89064 0.48119 0.0
C877 C 0.72131 0.91297 0.48926 0.0
C878 C 0.5781 0.84926 0.45757 0.0
C879 C 0.58151 0.84125 0.44202 0.0
C880 C 0.61062 0.86821 0.46543 0.0
C881 C 0.64747 0.87951 0.45797 0.0
C882 C 0.65114 0.87089 0.44247 0.0
C883 C 0.61857 0.85203 0.4346 0.0
H884 H 0.78342 0.98824 0.23093 0.0
H885 H 0.89196 0.98316 0.25987 0.0
H886 H 0.81057 0.93194 0.21619 0.0
H887 H 0.92127 0.9289 0.24403 0.0
H888 H 0.94554 0.80566 0.21893 0.0
H889 H 0.91826 0.85863 0.23609 0.0
H890 H 0.86026 0.92036 0.19813 0.0
H891 H 0.88508 0.86712 0.18149 0.0
C892 C 0.81315 0.9752 0.23421 0.0
C893 C 0.8352 0.99047 0.24674 0.0
C894 C 0.82923 0.94316 0.22551 0.0
C895 C 0.86856 0.92599 0.22871 0.0
C896 C 0.89078 0.94106 0.24125 0.0
C897 C 0.87422 0.97277 0.2502 0.0
C898 C 0.92653 0.8304 0.21438 0.0
C899 C 0.91664 0.83156 0.19892 0.0
C900 C 0.91118 0.86096 0.22416 0.0
C901 C 0.8863 0.89359 0.21859 0.0
C902 C 0.87785 0.89512 0.20303 0.0
C903 C 0.89234 0.86444 0.19341 0.0
H904 H 0.77536 0.9903 0.96237 0.0
H905 H 0.77287 0.09777 0.99125 0.0
H906 H 0.82291 0.0263 0.94522 0.0
H907 H 0.81838 0.13365 0.97386 0.0
H908 H 0.85468 0.20282 0.93284 0.0
H909 H 0.80641 0.15652 0.9454 0.0
H910 H 0.90146 0.06238 0.94749 0.0
H911 H 0.95051 0.10928 0.93482 0.0
C912 C 0.78489 0.02141 0.96511 0.0
C913 C 0.76962 0.04128 0.97814 0.0
C914 C 0.81199 0.04194 0.95525 0.0
C915 C 0.82375 0.08282 0.95815 0.0
C916 C 0.80911 0.10235 0.97123 0.0
C917 C 0.7827 0.08181 0.98114 0.0
C918 C 0.86509 0.1719 0.93564 0.0
C919 C 0.9065 0.15982 0.93309 0.0
C920 C 0.83746 0.14548 0.94284 0.0
C921 C 0.85052 0.1063 0.94764 0.0
C922 C 0.89076 0.09255 0.94389 0.0
C923 C 0.9187 0.11925 0.93662 0.0
H924 H 0.71342 0.01306 0.72612 0.0
H925 H 0.6136 0.05794 0.75439 0.0
H926 H 0.69403 0.06344 0.70673 0.0
H927 H 0.59358 0.10671 0.73482 0.0
H928 H 0.54144 0.15537 0.69061 0.0
H929 H 0.56415 0.10273 0.70835 0.0
H930 H 0.69129 0.14311 0.70352 0.0
H931 H 0.66859 0.19655 0.68563 0.0
C932 C 0.68746 0.03356 0.72826 0.0
C933 C 0.66497 0.03099 0.74187 0.0
C934 C 0.67634 0.06235 0.71711 0.0
C935 C 0.64215 0.08881 0.71922 0.0
C936 C 0.61968 0.08625 0.73276 0.0
C937 C 0.63106 0.05798 0.74396 0.0
C938 C 0.57437 0.15302 0.69316 0.0
C939 C 0.60318 0.18052 0.68671 0.0
C940 C 0.58729 0.12287 0.70342 0.0
C941 C 0.62942 0.11902 0.70742 0.0
C942 C 0.65861 0.14532 0.70059 0.0
C943 C 0.64558 0.17599 0.6904 0.0
H944 H 0.7206 0.50729 0.94753 0.0
H945 H 0.80951 0.51796 0.98392 0.0
H946 H 0.77341 0.47279 0.93205 0.0
H947 H 0.86207 0.48361 0.96855 0.0
H948 H 0.95657 0.43745 0.93527 0.0
H949 H 0.90574 0.48799 0.94471 0.0
H950 H 0.8062 0.4025 0.93526 0.0
H951 H 0.85673 0.35236 0.92608 0.0
C952 C 0.75158 0.50283 0.95211 0.0
C953 C 0.76083 0.51477 0.96698 0.0
C954 C 0.78175 0.48307 0.94328 0.0
C955 C 0.8219 0.47553 0.94908 0.0
C956 C 0.83162 0.48938 0.96369 0.0
C957 C 0.80138 0.50857 0.97256 0.0
C958 C 0.9237 0.43016 0.93482 0.0
C959 C 0.91044 0.39109 0.93005 0.0
C960 C 0.89468 0.45885 0.94031 0.0
C961 C 0.852 0.44908 0.94081 0.0
C962 C 0.83873 0.41113 0.93492 0.0
C963 C 0.86767 0.38234 0.92973 0.0
H964 H 0.94877 0.48908 0.24178 0.0
H965 H 0.82333 0.53501 0.23655 0.0
H966 H 0.97129 0.53228 0.22073 0.0
H967 H 0.84573 0.57901 0.21591 0.0
H968 H 1.00239 0.6565 0.19731 0.0
H969 H 0.98395 0.60219 0.21496 0.0
H970 H 0.86859 0.58264 0.19077 0.0
H971 H 0.88631 0.63829 0.1735 0.0
C972 C 0.92605 0.5085 0.23613 0.0
C973 C 0.88429 0.50867 0.24081 0.0
C974 C 0.93893 0.53334 0.22408 0.0
C975 C 0.9104 0.55925 0.21654 0.0
C976 C 0.86851 0.55887 0.22116 0.0
C977 C 0.85561 0.53376 0.23307 0.0
C978 C 0.97344 0.64009 0.19555 0.0
C979 C 0.94556 0.65217 0.18408 0.0
C980 C 0.96285 0.60875 0.2057 0.0
C981 C 0.92435 0.58837 0.20451 0.0
C982 C 0.89794 0.59843 0.19233 0.0
C983 C 0.90827 0.63012 0.18232 0.0
H984 H 0.70863 0.59095 0.49928 0.0
H985 H 0.79361 0.61107 0.4624 0.0
H986 H 0.65424 0.62754 0.48558 0.0
H987 H 0.73957 0.64923 0.44877 0.0
H988 H 0.61945 0.67162 0.42169 0.0
H989 H 0.67693 0.63986 0.43545 0.0
H990 H 0.6301 0.69156 0.47706 0.0
H991 H 0.57165 0.72167 0.46335 0.0
C992 C 0.7159 0.60398 0.48833 0.0
C993 C 0.75544 0.59823 0.48193 0.0
C994 C 0.6847 0.62514 0.48046 0.0
C995 C 0.6923 0.6416 0.46602 0.0
C996 C 0.73222 0.63645 0.45974 0.0
C997 C 0.76332 0.61477 0.46756 0.0
C998 C 0.62156 0.67634 0.43378 0.0
C999 C 0.59073 0.69881 0.44145 0.0
C1000 C 0.65474 0.65831 0.44168 0.0
C1001 C 0.65826 0.6628 0.45744 0.0
C1002 C 0.62803 0.6865 0.46501 0.0
C1003 C 0.59455 0.704 0.45713 0.0
H1004 H 0.71576 0.47848 0.75061 0.0
H1005 H 0.59352 0.53398 0.74796 0.0
H1006 H 0.69321 0.42372 0.73374 0.0
H1007 H 0.57086 0.47877 0.73108 0.0
H1008 H 0.53644 0.35145 0.71082 0.0
H1009 H 0.55694 0.40286 0.72976 0.0
H1010 H 0.67482 0.4184 0.70718 0.0
H1011 H 0.65491 0.36732 0.68862 0.0
C1012 C 0.68418 0.4793 0.74631 0.0
C1013 C 0.65664 0.51099 0.75052 0.0
C1014 C 0.67117 0.44772 0.73669 0.0
C1015 C 0.63025 0.44691 0.73102 0.0
C1016 C 0.60243 0.47821 0.7354 0.0
C1017 C 0.61549 0.50992 0.74502 0.0
C1018 C 0.56689 0.36554 0.71006 0.0
C1019 C 0.59399 0.35527 0.6982 0.0
C1020 C 0.57848 0.39521 0.72081 0.0
C1021 C 0.61757 0.41467 0.71999 0.0
C1022 C 0.64475 0.40369 0.70829 0.0
C1023 C 0.63313 0.37452 0.69755 0.0
H1024 H 0.80636 0.6737 0.0376 0.0
H1025 H 0.73013 0.62223 0.07304 0.0
H1026 H 0.8562 0.69757 0.05646 0.0
H1027 H 0.78124 0.64311 0.09161 0.0
H1028 H 0.84674 0.72887 0.12279 0.0
H1029 H 0.80165 0.7051 0.10284 0.0
H1030 H 0.9088 0.67929 0.07497 0.0
H1031 H 0.95463 0.70511 0.09515 0.0
C1032 C 0.80018 0.66733 0.04938 0.0
C1033 C 0.76374 0.64637 0.05374 0.0
C1034 C 0.82921 0.68047 0.06018 0.0
C1035 C 0.82267 0.67273 0.07561 0.0
C1036 C 0.78698 0.65052 0.07988 0.0
C1037 C 0.75781 0.6379 0.06915 0.0
C1038 C 0.86095 0.71792 0.11246 0.0
C1039 C 0.9044 0.71815 0.11067 0.0
C1040 C 0.83494 0.70402 0.10099 0.0
C1041 C 0.85145 0.68923 0.08738 0.0
C1042 C 0.89499 0.69043 0.08533 0.0
C1043 C 0.92128 0.70505 0.09687 0.0
H1044 H 0.7224 0.56463 0.31628 0.0
H1045 H 0.71996 0.47031 0.35074 0.0
H1046 H 0.68245 0.61035 0.33251 0.0
H1047 H 0.67996 0.51668 0.36718 0.0
H1048 H 0.56478 0.60497 0.38081 0.0
H1049 H 0.60762 0.55319 0.36784 0.0
H1050 H 0.69738 0.64723 0.35682 0.0
H1051 H 0.65518 0.69852 0.36963 0.0
C1052 C 0.71306 0.55354 0.3273 0.0
C1053 C 0.7243 0.51382 0.33221 0.0
C1054 C 0.69052 0.5799 0.33666 0.0
C1055 C 0.6784 0.56723 0.35118 0.0
C1056 C 0.68888 0.52723 0.35605 0.0
C1057 C 0.71196 0.50087 0.34669 0.0
C1058 C 0.59413 0.61431 0.37592 0.0
C1059 C 0.6062 0.65601 0.37604 0.0
C1060 C 0.61859 0.5847 0.36848 0.0
C1061 C 0.65537 0.59641 0.36104 0.0
C1062 C 0.66871 0.63748 0.36213 0.0
C1063 C 0.64451 0.66685 0.36952 0.0
H1064 H 0.698 0.41218 0.54085 0.0
H1065 H 0.78668 0.42272 0.57741 0.0
H1066 H 0.64558 0.38734 0.55859 0.0
H1067 H 0.73422 0.39865 0.59506 0.0
H1068 H 0.62454 0.39517 0.6255 0.0
H1069 H 0.66846 0.42394 0.60587 0.0
H1070 H 0.63059 0.32684 0.57552 0.0
H1071 H 0.586 0.29796 0.59529 0.0
C1072 C 0.70649 0.40892 0.55263 0.0
C1073 C 0.74666 0.41965 0.55769 0.0
C1074 C 0.67634 0.39481 0.56279 0.0
C1075 C 0.68556 0.39145 0.57825 0.0
C1076 C 0.72579 0.40175 0.58327 0.0
C1077 C 0.75592 0.4156 0.57313 0.0
C1078 C 0.62494 0.38028 0.61456 0.0
C1079 C 0.60213 0.34398 0.61202 0.0
C1080 C 0.65038 0.39664 0.60334 0.0
C1081 C 0.6538 0.37713 0.58926 0.0
C1082 C 0.62867 0.34253 0.58628 0.0
C1083 C 0.603 0.32609 0.59757 0.0
H1084 H 0.78221 0.51284 0.85127 0.0
H1085 H 0.86317 0.50231 0.81256 0.0
H1086 H 0.82054 0.45831 0.8638 0.0
H1087 H 0.90427 0.45087 0.82576 0.0
H1088 H 0.92119 0.38931 0.88939 0.0
H1089 H 0.88008 0.44134 0.87645 0.0
H1090 H 0.90806 0.3834 0.83366 0.0
H1091 H 0.95165 0.33295 0.84671 0.0
C1092 C 0.80828 0.49914 0.8454 0.0
C1093 C 0.81912 0.5122 0.83077 0.0
C1094 C 0.83092 0.46812 0.85275 0.0
C1095 C 0.86584 0.44977 0.8459 0.0
C1096 C 0.8772 0.46342 0.83138 0.0
C1097 C 0.85399 0.49382 0.82389 0.0
C1098 C 0.91823 0.38746 0.87722 0.0
C1099 C 0.93966 0.35697 0.86906 0.0
C1100 C 0.8944 0.41733 0.86974 0.0
C1101 C 0.8905 0.41704 0.8539 0.0
C1102 C 0.91096 0.38554 0.84581 0.0
C1103 C 0.93563 0.3562 0.85329 0.0
H1104 H 0.18978 0.56842 0.0598 0.0
H1105 H 0.28196 0.58206 0.09489 0.0
H1106 H 0.13573 0.59209 0.07707 0.0
H1107 H 0.2289 0.608 0.11196 0.0
H1108 H 0.12999 0.63673 0.14402 0.0
H1109 H 0.17258 0.59528 0.12708 0.0
H1110 H 0.1086 0.64946 0.0888 0.0
H1111 H 0.06434 0.68831 0.10592 0.0
C1112 C 0.19846 0.57693 0.0712 0.0
C1113 C 0.24006 0.57355 0.076 0.0
C1114 C 0.1675 0.59062 0.08114 0.0
C1115 C 0.17748 0.60204 0.09606 0.0
C1116 C 0.21936 0.59855 0.10076 0.0
C1117 C 0.25008 0.58409 0.09092 0.0
C1118 C 0.12393 0.63819 0.13199 0.0
C1119 C 0.09365 0.66535 0.12628 0.0
C1120 C 0.14895 0.61516 0.12221 0.0
C1121 C 0.14525 0.61978 0.10644 0.0
C1122 C 0.11257 0.64463 0.1008 0.0
C1123 C 0.08683 0.66686 0.11063 0.0
H1124 H 0.26773 0.52344 0.85255 0.0
H1125 H 0.16497 0.5215 0.82086 0.0
H1126 H 0.2276 0.48081 0.86993 0.0
H1127 H 0.12453 0.48091 0.83863 0.0
H1128 H 0.05243 0.43167 0.87906 0.0
H1129 H 0.09318 0.48484 0.86611 0.0
H1130 H 0.2007 0.40472 0.86684 0.0
H1131 H 0.15993 0.35144 0.87947 0.0
C1132 C 0.23664 0.51422 0.84927 0.0
C1133 C 0.21991 0.52582 0.83516 0.0
C1134 C 0.21357 0.49014 0.85932 0.0
C1135 C 0.17296 0.47782 0.85564 0.0
C1136 C 0.15556 0.49058 0.84185 0.0
C1137 C 0.17883 0.51399 0.83168 0.0
C1138 C 0.08505 0.42592 0.8768 0.0
C1139 C 0.10307 0.38748 0.88022 0.0
C1140 C 0.10821 0.45615 0.8693 0.0
C1141 C 0.14997 0.44872 0.86544 0.0
C1142 C 0.16866 0.41132 0.86977 0.0
C1143 C 0.14531 0.38083 0.87695 0.0
H1144 H 0.29836 0.40798 0.55701 0.0
H1145 H 0.27278 0.49592 0.59241 0.0
H1146 H 0.34934 0.3739 0.57318 0.0
H1147 H 0.32436 0.4618 0.60858 0.0
H1148 H 0.44293 0.40033 0.62985 0.0
H1149 H 0.40206 0.44242 0.61182 0.0
H1150 H 0.33972 0.33241 0.5963 0.0
H1151 H 0.37969 0.29128 0.61399 0.0
C1152 C 0.30346 0.41999 0.56826 0.0
C1153 C 0.28083 0.45428 0.57347 0.0
C1154 C 0.33297 0.40065 0.57749 0.0
C1155 C 0.34075 0.41504 0.59219 0.0
C1156 C 0.3194 0.45027 0.59725 0.0
C1157 C 0.2897 0.46966 0.588 0.0
C1158 C 0.42081 0.38541 0.62242 0.0
C1159 C 0.41422 0.34268 0.62339 0.0
C1160 C 0.39728 0.40938 0.6122 0.0
C1161 C 0.36772 0.39067 0.60261 0.0
C1162 C 0.36247 0.34779 0.60336 0.0
C1163 C 0.38522 0.32423 0.61361 0.0
H1164 H 0.38745 0.48302 0.33288 0.0
H1165 H 0.27807 0.56015 0.32812 0.0
H1166 H 0.42225 0.53816 0.34664 0.0
H1167 H 0.31257 0.61438 0.34259 0.0
H1168 H 0.39017 0.68062 0.38249 0.0
H1169 H 0.34906 0.62594 0.37045 0.0
H1170 H 0.44291 0.61311 0.33605 0.0
H1171 H 0.48346 0.66782 0.34771 0.0
C1172 C 0.37063 0.51149 0.33484 0.0
C1173 C 0.33008 0.51718 0.32913 0.0
C1174 C 0.39054 0.54293 0.34281 0.0
C1175 C 0.37014 0.58052 0.34552 0.0
C1176 C 0.32884 0.58555 0.34067 0.0
C1177 C 0.30908 0.55431 0.33245 0.0
C1178 C 0.40172 0.66647 0.37225 0.0
C1179 C 0.44006 0.67868 0.36605 0.0
C1180 C 0.37823 0.63525 0.3654 0.0
C1181 C 0.39316 0.61517 0.35245 0.0
C1182 C 0.43099 0.62786 0.34613 0.0
C1183 C 0.454 0.65946 0.35276 0.0
H1184 H 0.27128 0.45322 0.97078 0.0
H1185 H 0.22434 0.38572 0.00921 0.0
H1186 H 0.21616 0.42433 0.9551 0.0
H1187 H 0.17106 0.35502 0.99337 0.0
H1188 H 0.05047 0.34986 0.96666 0.0
H1189 H 0.10804 0.37605 0.98157 0.0
H1190 H 0.18981 0.36299 0.94323 0.0
H1191 H 0.13161 0.33781 0.92808 0.0
C1192 C 0.24947 0.432 0.97588 0.0
C1193 C 0.25227 0.42209 0.99133 0.0
C1194 C 0.21813 0.415 0.96683 0.0
C1195 C 0.18888 0.38753 0.97297 0.0
C1196 C 0.19253 0.37663 0.98829 0.0
C1197 C 0.22363 0.3938 0.99735 0.0
C1198 C 0.08067 0.35255 0.96136 0.0
C1199 C 0.08628 0.34181 0.94613 0.0
C1200 C 0.11388 0.3673 0.96998 0.0
C1201 C 0.15376 0.37146 0.96366 0.0
C1202 C 0.15945 0.36064 0.94843 0.0
C1203 C 0.12609 0.34603 0.93975 0.0
H1204 H 0.41487 0.48085 0.75233 0.0
H1205 H 0.30563 0.51443 0.72642 0.0
H1206 H 0.43479 0.43201 0.73289 0.0
H1207 H 0.32532 0.46429 0.70705 0.0
H1208 H 0.35785 0.33353 0.68613 0.0
H1209 H 0.33422 0.38649 0.70387 0.0
H1210 H 0.45899 0.43515 0.70623 0.0
H1211 H 0.48263 0.38277 0.68865 0.0
C1212 C 0.39526 0.47823 0.74242 0.0
C1213 C 0.35886 0.50215 0.74092 0.0
C1214 C 0.40666 0.45002 0.73129 0.0
C1215 C 0.38182 0.44455 0.71837 0.0
C1216 C 0.34497 0.46772 0.71692 0.0
C1217 C 0.33369 0.49637 0.72805 0.0
C1218 C 0.38011 0.35582 0.6903 0.0
C1219 C 0.4222 0.35358 0.68602 0.0
C1220 C 0.36653 0.38622 0.70042 0.0
C1221 C 0.39485 0.41469 0.70656 0.0
C1222 C 0.43654 0.41328 0.70187 0.0
C1223 C 0.45001 0.38328 0.69171 0.0
H1224 H 0.24573 0.53041 0.46404 0.0
H1225 H 0.31806 0.59561 0.49741 0.0
H1226 H 0.29755 0.54803 0.44468 0.0
H1227 H 0.36992 0.61243 0.4783 0.0
H1228 H 0.47023 0.61872 0.44494 0.0
H1229 H 0.42294 0.57719 0.46035 0.0
H1230 H 0.31881 0.62071 0.43379 0.0
H1231 H 0.36614 0.66259 0.41859 0.0
C1232 C 0.27298 0.548 0.46723 0.0
C1233 C 0.27787 0.56205 0.48213 0.0
C1234 C 0.30253 0.55799 0.45621 0.0
C1235 C 0.33792 0.5812 0.46004 0.0
C1236 C 0.34332 0.59393 0.47507 0.0
C1237 C 0.31347 0.58474 0.48597 0.0
C1238 C 0.43753 0.61762 0.44194 0.0
C1239 C 0.42171 0.64328 0.43052 0.0
C1240 C 0.41043 0.59432 0.45084 0.0
C1241 C 0.36721 0.59614 0.44835 0.0
C1242 C 0.35198 0.61849 0.43589 0.0
C1243 C 0.37902 0.64228 0.42715 0.0
H1244 H 0.22043 0.52403 0.22588 0.0
H1245 H 0.13262 0.55326 0.26119 0.0
H1246 H 0.19423 0.58065 0.21098 0.0
H1247 H 0.10325 0.60793 0.24545 0.0
H1248 H 0.08796 0.73044 0.21884 0.0
H1249 H 0.11253 0.67453 0.23538 0.0
H1250 H 0.14026 0.60068 0.19601 0.0
H1251 H 0.11879 0.65696 0.17986 0.0
C1252 C 0.19532 0.54238 0.2305 0.0
C1253 C 0.17915 0.53399 0.24491 0.0
C1254 C 0.17957 0.57465 0.22174 0.0
C1255 C 0.14613 0.59903 0.22684 0.0
C1256 C 0.12929 0.59029 0.24115 0.0
C1257 C 0.14572 0.55833 0.2501 0.0
C1258 C 0.09976 0.70228 0.21384 0.0
C1259 C 0.10256 0.69848 0.19809 0.0
C1260 C 0.11349 0.67003 0.22328 0.0
C1261 C 0.12929 0.63304 0.2171 0.0
C1262 C 0.13003 0.62901 0.2013 0.0
C1263 C 0.11747 0.66136 0.19197 0.0
loop_
_geom_bond_atom_site_label_1
_geom_bond_atom_site_label_2
_geom_bond_distance
_geom_bond_site_symmetry_2
_ccdc_geom_bond_type
H0 C27 0.929 . S
N1 C26 1.433 . S
N1 C32 1.435 1_545 S
N1 C38 1.423 1_545 S
H2 C28 0.930 . S
H3 C31 0.931 . S
H4 C30 0.929 . S
H5 C33 0.930 . S
H6 C34 0.932 1_545 S
H7 C37 0.929 . S
H8 C36 0.931 . S
H9 C39 0.929 . S
H10 C43 0.932 1_545 S
H11 C40 0.931 . S
H12 C42 0.929 . S
H13 C45 0.929 . S
H14 C46 0.930 . S
H15 C48 0.929 . S
H16 C49 0.931 . S
H17 C51 0.930 . S
H18 C52 0.932 1_545 S
H19 C54 0.931 . S
H20 C55 0.929 . S
H21 C57 0.929 . S
H22 C58 0.931 . S
H23 C60 0.929 . S
N24 C44 1.433 . S
N24 C50 1.435 1_545 S
N24 C56 1.423 1_545 S
H25 C61 0.932 1_545 S
C26 N1 1.433 . S
C26 C27 1.363 . S
C26 C31 1.370 . S
C27 H0 0.929 . S
C27 C26 1.363 . S
C27 C28 1.385 . S
C28 H2 0.930 . S
C28 C27 1.385 . S
C28 C29 1.357 . S
C29 C28 1.357 . S
C29 C30 1.406 . S
C30 H4 0.929 . S
C30 C29 1.406 . S
C30 C31 1.391 . S
C31 H3 0.931 . S
C31 C26 1.370 . S
C31 C30 1.391 . S
C32 N1 1.435 1_565 S
C32 C33 1.358 1_565 S
C32 C37 1.371 . S
C33 H5 0.930 . S
C33 C32 1.358 1_545 S
C33 C34 1.405 1_545 S
C34 H6 0.932 1_565 S
C34 C33 1.405 1_565 S
C34 C35 1.383 . S
C35 C34 1.383 . S
C35 C36 1.393 . S
C36 H8 0.931 . S
C36 C35 1.393 . S
C36 C37 1.382 . S
C37 H7 0.929 . S
C37 C32 1.371 . S
C37 C36 1.382 . S
C38 N1 1.423 1_565 S
C38 C39 1.362 . S
C38 C43 1.388 . S
C39 H9 0.929 . S
C39 C38 1.362 . S
C39 C40 1.376 . S
C40 H11 0.931 . S
C40 C39 1.376 . S
C40 C41 1.396 . S
C41 C40 1.396 . S
C41 C42 1.348 . S
C41 C59 1.472 1_655 S
C42 H12 0.929 . S
C42 C41 1.348 . S
C42 C43 1.443 . S
C43 H10 0.932 1_565 S
C43 C38 1.388 . S
C43 C42 1.443 . S
C44 N24 1.433 . S
C44 C45 1.363 . S
C44 C49 1.370 . S
C45 H13 0.929 . S
C45 C44 1.363 . S
C45 C46 1.385 . S
C46 H14 0.930 . S
C46 C45 1.385 . S
C46 C47 1.357 . S
C47 C46 1.357 . S
C47 C48 1.406 . S
C48 H15 0.929 . S
C48 C47 1.406 . S
C48 C49 1.391 . S
C49 H16 0.931 . S
C49 C44 1.370 . S
C49 C48 1.391 . S
C50 N24 1.435 1_565 S
C50 C51 1.358 1_565 S
C50 C55 1.371 . S
C51 H17 0.930 . S
C51 C50 1.358 1_545 S
C51 C52 1.405 1_545 S
C52 H18 0.932 1_565 S
C52 C51 1.405 1_565 S
C52 C53 1.383 . S
C53 C52 1.383 . S
C53 C54 1.393 . S
C54 H19 0.931 . S
C54 C53 1.393 . S
C54 C55 1.382 . S
C55 H20 0.929 . S
C55 C50 1.371 . S
C55 C54 1.382 . S
C56 N24 1.423 1_565 S
C56 C57 1.362 . S
C56 C61 1.388 . S
C57 H21 0.929 . S
C57 C56 1.362 . S
C57 C58 1.376 . S
C58 H22 0.931 . S
C58 C57 1.376 . S
C58 C59 1.396 . S
C59 C41 1.472 1_455 S
C59 C58 1.396 . S
C59 C60 1.348 . S
C60 H23 0.929 . S
C60 C59 1.348 . S
C60 C61 1.443 . S
C61 H25 0.932 1_565 S
C61 C56 1.388 . S
C61 C60 1.443 . S
H62 C89 0.929 . S
N63 C88 1.433 . S
N63 C94 1.435 . S
N63 C100 1.423 . S
H64 C90 0.930 . S
H65 C93 0.931 . S
H66 C92 0.929 . S
H67 C95 0.930 . S
H68 C96 0.932 . S
H69 C99 0.929 . S
H70 C98 0.931 . S
H71 C101 0.929 . S
H72 C105 0.932 . S
H73 C102 0.931 . S
H74 C104 0.929 . S
H75 C107 0.929 . S
H76 C108 0.930 1_545 S
H77 C110 0.929 . S
H78 C111 0.931 . S
H79 C113 0.930 . S
H80 C114 0.932 1_545 S
H81 C116 0.931 . S
H82 C117 0.929 . S
H83 C119 0.929 . S
H84 C120 0.931 . S
H85 C122 0.929 . S
N86 C106 1.433 . S
N86 C112 1.435 . S
N86 C118 1.423 . S
H87 C123 0.932 . S
C88 N63 1.433 . S
C88 C89 1.363 . S
C88 C93 1.370 . S
C89 H62 0.929 . S
C89 C88 1.363 . S
C89 C90 1.385 . S
C90 H64 0.930 . S
C90 C89 1.385 . S
C90 C91 1.357 . S
C91 C90 1.357 . S
C91 C92 1.406 . S
C92 H66 0.929 . S
C92 C91 1.406 . S
C92 C93 1.391 . S
C93 H65 0.931 . S
C93 C88 1.370 . S
C93 C92 1.391 . S
C94 N63 1.435 . S
C94 C95 1.358 . S
C94 C99 1.371 . S
C95 H67 0.930 . S
C95 C94 1.358 . S
C95 C96 1.405 . S
C96 H68 0.932 . S
C96 C95 1.405 . S
C96 C97 1.383 . S
C97 C96 1.383 . S
C97 C98 1.393 . S
C98 H70 0.931 . S
C98 C97 1.393 . S
C98 C99 1.382 . S
C99 H69 0.929 . S
C99 C94 1.371 . S
C99 C98 1.382 . S
C100 N63 1.423 . S
C100 C101 1.362 . S
C100 C105 1.388 . S
C101 H71 0.929 . S
C101 C100 1.362 . S
C101 C102 1.376 . S
C102 H73 0.931 . S
C102 C101 1.376 . S
C102 C103 1.396 . S
C103 C102 1.396 . S
C103 C104 1.348 . S
C103 C121 1.472 . S
C104 H74 0.929 . S
C104 C103 1.348 . S
C104 C105 1.443 . S
C105 H72 0.932 . S
C105 C100 1.388 . S
C105 C104 1.443 . S
C106 N86 1.433 . S
C106 C107 1.363 . S
C106 C111 1.370 . S
C107 H75 0.929 . S
C107 C106 1.363 . S
C107 C108 1.385 . S
C108 H76 0.930 1_565 S
C108 C107 1.385 . S
C108 C109 1.357 . S
C109 C108 1.357 . S
C109 C110 1.406 . S
C110 H77 0.929 . S
C110 C109 1.406 . S
C110 C111 1.391 . S
C111 H78 0.931 . S
C111 C106 1.370 . S
C111 C110 1.391 . S
C112 N86 1.435 . S
C112 C113 1.358 . S
C112 C117 1.371 . S
C113 H79 0.930 . S
C113 C112 1.358 . S
C113 C114 1.405 . S
C114 H80 0.932 1_565 S
C114 C113 1.405 . S
C114 C115 1.383 . S
C115 C114 1.383 . S
C115 C116 1.393 . S
C116 H81 0.931 . S
C116 C115 1.393 . S
C116 C117 1.382 . S
C117 H82 0.929 . S
C117 C112 1.371 . S
C117 C116 1.382 . S
C118 N86 1.423 . S
C118 C119 1.362 . S
C118 C123 1.388 . S
C119 H83 0.929 . S
C119 C118 1.362 . S
C119 C120 1.376 . S
C120 H84 0.931 . S
C120 C119 1.376 . S
C120 C121 1.396 . S
C121 C103 1.472 . S
C121 C120 1.396 . S
C121 C122 1.348 . S
C122 H85 0.929 . S
C122 C121 1.348 . S
C122 C123 1.443 . S
C123 H87 0.932 . S
C123 C118 1.388 . S
C123 C122 1.443 . S
H124 C151 0.929 . S
N125 C150 1.433 1_545 S
N125 C156 1.435 . S
N125 C162 1.423 . S
H126 C152 0.930 . S
H127 C155 0.931 . S
H128 C154 0.929 . S
H129 C157 0.930 1_565 S
H130 C158 0.919 1_556 S
H131 C161 0.929 . S
H132 C160 0.926 1_556 S
H133 C163 0.929 . S
H134 C167 0.932 . S
H135 C164 0.931 . S
H136 C166 0.929 . S
H137 C169 0.929 . S
H138 C170 0.930 . S
H139 C172 0.929 . S
H140 C173 0.931 . S
H141 C175 0.930 1_565 S
H142 C176 0.919 1_556 S
H143 C178 0.926 1_556 S
H144 C179 0.929 . S
H145 C181 0.929 . S
H146 C182 0.931 . S
H147 C184 0.929 . S
N148 C168 1.433 1_545 S
N148 C174 1.435 . S
N148 C180 1.423 . S
H149 C185 0.932 . S
C150 N125 1.433 1_565 S
C150 C151 1.364 1_565 S
C150 C155 1.370 . S
C151 H124 0.929 . S
C151 C150 1.364 1_545 S
C151 C152 1.385 1_545 S
C152 H126 0.930 . S
C152 C151 1.385 1_565 S
C152 C153 1.357 . S
C153 C152 1.357 . S
C153 C154 1.406 . S
C154 H128 0.929 . S
C154 C153 1.406 . S
C154 C155 1.391 . S
C155 H127 0.931 . S
C155 C150 1.370 . S
C155 C154 1.391 . S
C156 N125 1.435 . S
C156 C157 1.358 . S
C156 C161 1.371 . S
C157 H129 0.930 1_545 S
C157 C156 1.358 . S
C157 C158 1.405 . S
C158 H130 0.919 1_554 S
C158 C157 1.405 . S
C158 C159 1.383 1_554 S
C159 C158 1.383 1_556 S
C159 C160 1.393 1_556 S
C160 H132 0.926 1_554 S
C160 C159 1.393 1_554 S
C160 C161 1.382 . S
C161 H131 0.929 . S
C161 C156 1.371 . S
C161 C160 1.382 . S
C162 N125 1.423 . S
C162 C163 1.362 . S
C162 C167 1.388 . S
C163 H133 0.929 . S
C163 C162 1.362 . S
C163 C164 1.376 . S
C164 H135 0.931 . S
C164 C163 1.376 . S
C164 C165 1.396 . S
C165 C164 1.396 . S
C165 C166 1.348 . S
C165 C183 1.472 . S
C166 H136 0.929 . S
C166 C165 1.348 . S
C166 C167 1.443 . S
C167 H134 0.932 . S
C167 C162 1.388 . S
C167 C166 1.443 . S
C168 N148 1.433 1_565 S
C168 C169 1.364 1_565 S
C168 C173 1.370 . S
C169 H137 0.929 . S
C169 C168 1.364 1_545 S
C169 C170 1.385 1_545 S
C170 H138 0.930 . S
C170 C169 1.385 1_565 S
C170 C171 1.357 . S
C171 C170 1.357 . S
C171 C172 1.406 . S
C172 H139 0.929 . S
C172 C171 1.406 . S
C172 C173 1.391 . S
C173 H140 0.931 . S
C173 C168 1.370 . S
C173 C172 1.391 . S
C174 N148 1.435 . S
C174 C175 1.358 . S
C174 C179 1.371 . S
C175 H141 0.930 1_545 S
C175 C174 1.358 . S
C175 C176 1.405 . S
C176 H142 0.919 1_554 S
C176 C175 1.405 . S
C176 C177 1.383 1_554 S
C177 C176 1.383 1_556 S
C177 C178 1.393 1_556 S
C178 H143 0.926 1_554 S
C178 C177 1.393 1_554 S
C178 C179 1.382 . S
C179 H144 0.929 . S
C179 C174 1.371 . S
C179 C178 1.382 . S
C180 N148 1.423 . S
C180 C181 1.362 . S
C180 C185 1.388 . S
C181 H145 0.929 . S
C181 C180 1.362 . S
C181 C182 1.376 . S
C182 H146 0.931 . S
C182 C181 1.376 . S
C182 C183 1.396 . S
C183 C165 1.472 . S
C183 C182 1.396 . S
C183 C184 1.348 . S
C184 H147 0.929 . S
C184 C183 1.348 . S
C184 C185 1.443 . S
C185 H149 0.932 . S
C185 C180 1.388 . S
C185 C184 1.443 . S
H186 C213 0.929 . S
N187 C212 1.433 . S
N187 C218 1.435 . S
N187 C224 1.423 . S
H188 C214 0.930 . S
H189 C217 0.931 . S
H190 C216 0.929 . S
H191 C219 0.930 . S
H192 C220 0.932 . S
H193 C223 0.929 . S
H194 C222 0.931 . S
H195 C225 0.929 . S
H196 C229 0.932 . S
H197 C226 0.931 . S
H198 C228 0.929 . S
H199 C231 0.929 . S
H200 C232 0.930 . S
H201 C234 0.929 . S
H202 C235 0.931 . S
H203 C237 0.930 . S
H204 C238 0.932 . S
H205 C240 0.931 . S
H206 C241 0.929 . S
H207 C243 0.929 . S
H208 C244 0.931 . S
H209 C246 0.929 . S
N210 C230 1.433 . S
N210 C236 1.435 . S
N210 C242 1.423 . S
H211 C247 0.932 . S
C212 N187 1.433 . S
C212 C213 1.363 . S
C212 C217 1.370 . S
C213 H186 0.929 . S
C213 C212 1.363 . S
C213 C214 1.385 . S
C214 H188 0.930 . S
C214 C213 1.385 . S
C214 C215 1.357 . S
C215 C214 1.357 . S
C215 C216 1.406 . S
C216 H190 0.929 . S
C216 C215 1.406 . S
C216 C217 1.391 . S
C217 H189 0.931 . S
C217 C212 1.370 . S
C217 C216 1.391 . S
C218 N187 1.435 . S
C218 C219 1.358 . S
C218 C223 1.371 . S
C219 H191 0.930 . S
C219 C218 1.358 . S
C219 C220 1.405 . S
C220 H192 0.932 . S
C220 C219 1.405 . S
C220 C221 1.383 . S
C221 C220 1.383 . S
C221 C222 1.393 . S
C222 H194 0.931 . S
C222 C221 1.393 . S
C222 C223 1.382 . S
C223 H193 0.929 . S
C223 C218 1.371 . S
C223 C222 1.382 . S
C224 N187 1.423 . S
C224 C225 1.362 . S
C224 C229 1.388 . S
C225 H195 0.929 . S
C225 C224 1.362 . S
C225 C226 1.376 . S
C226 H197 0.931 . S
C226 C225 1.376 . S
C226 C227 1.396 . S
C227 C226 1.396 . S
C227 C228 1.348 . S
C227 C245 1.472 . S
C228 H198 0.929 . S
C228 C227 1.348 . S
C228 C229 1.443 . S
C229 H196 0.932 . S
C229 C224 1.388 . S
C229 C228 1.443 . S
C230 N210 1.433 . S
C230 C231 1.363 . S
C230 C235 1.370 . S
C231 H199 0.929 . S
C231 C230 1.363 . S
C231 C232 1.385 . S
C232 H200 0.930 . S
C232 C231 1.385 . S
C232 C233 1.357 . S
C233 C232 1.357 . S
C233 C234 1.406 . S
C234 H201 0.929 . S
C234 C233 1.406 . S
C234 C235 1.391 . S
C235 H202 0.931 . S
C235 C230 1.370 . S
C235 C234 1.391 . S
C236 N210 1.435 . S
C236 C237 1.358 . S
C236 C241 1.371 . S
C237 H203 0.930 . S
C237 C236 1.358 . S
C237 C238 1.405 . S
C238 H204 0.932 . S
C238 C237 1.405 . S
C238 C239 1.383 . S
C239 C238 1.383 . S
C239 C240 1.393 . S
C240 H205 0.931 . S
C240 C239 1.393 . S
C240 C241 1.382 . S
C241 H206 0.929 . S
C241 C236 1.371 . S
C241 C240 1.382 . S
C242 N210 1.423 . S
C242 C243 1.362 . S
C242 C247 1.388 . S
C243 H207 0.929 . S
C243 C242 1.362 . S
C243 C244 1.376 . S
C244 H208 0.931 . S
C244 C243 1.376 . S
C244 C245 1.396 . S
C245 C227 1.472 . S
C245 C244 1.396 . S
C245 C246 1.348 . S
C246 H209 0.929 . S
C246 C245 1.348 . S
C246 C247 1.443 . S
C247 H211 0.932 . S
C247 C242 1.388 . S
C247 C246 1.443 . S
H248 C275 0.929 . S
N249 C274 1.433 . S
N249 C280 1.435 . S
N249 C286 1.423 . S
H250 C276 0.930 . S
H251 C279 0.931 . S
H252 C278 0.929 . S
H253 C281 0.930 . S
H254 C282 0.932 . S
H255 C285 0.929 . S
H256 C284 0.931 . S
H257 C287 0.929 . S
H258 C291 0.932 . S
H259 C288 0.931 . S
H260 C290 0.929 . S
H261 C293 0.929 . S
H262 C294 0.930 . S
H263 C296 0.929 . S
H264 C297 0.931 . S
H265 C299 0.930 . S
H266 C300 0.932 . S
H267 C302 0.931 . S
H268 C303 0.929 . S
H269 C305 0.929 . S
H270 C306 0.931 . S
H271 C308 0.929 . S
N272 C292 1.433 . S
N272 C298 1.435 . S
N272 C304 1.423 . S
H273 C309 0.932 . S
C274 N249 1.433 . S
C274 C275 1.363 . S
C274 C279 1.370 . S
C275 H248 0.929 . S
C275 C274 1.363 . S
C275 C276 1.385 . S
C276 H250 0.930 . S
C276 C275 1.385 . S
C276 C277 1.357 . S
C277 C276 1.357 . S
C277 C278 1.406 . S
C278 H252 0.929 . S
C278 C277 1.406 . S
C278 C279 1.391 . S
C279 H251 0.931 . S
C279 C274 1.370 . S
C279 C278 1.391 . S
C280 N249 1.435 . S
C280 C281 1.358 . S
C280 C285 1.371 . S
C281 H253 0.930 . S
C281 C280 1.358 . S
C281 C282 1.405 . S
C282 H254 0.932 . S
C282 C281 1.405 . S
C282 C283 1.383 . S
C283 C282 1.383 . S
C283 C284 1.393 . S
C284 H256 0.931 . S
C284 C283 1.393 . S
C284 C285 1.382 . S
C285 H255 0.929 . S
C285 C280 1.371 . S
C285 C284 1.382 . S
C286 N249 1.423 . S
C286 C287 1.362 . S
C286 C291 1.388 . S
C287 H257 0.929 . S
C287 C286 1.362 . S
C287 C288 1.376 . S
C288 H259 0.931 . S
C288 C287 1.376 . S
C288 C289 1.396 . S
C289 C288 1.396 . S
C289 C290 1.348 . S
C289 C307 1.472 . S
C290 H260 0.929 . S
C290 C289 1.348 . S
C290 C291 1.443 . S
C291 H258 0.932 . S
C291 C286 1.388 . S
C291 C290 1.443 . S
C292 N272 1.433 . S
C292 C293 1.363 . S
C292 C297 1.370 . S
C293 H261 0.929 . S
C293 C292 1.363 . S
C293 C294 1.385 . S
C294 H262 0.930 . S
C294 C293 1.385 . S
C294 C295 1.357 . S
C295 C294 1.357 . S
C295 C296 1.406 . S
C296 H263 0.929 . S
C296 C295 1.406 . S
C296 C297 1.391 . S
C297 H264 0.931 . S
C297 C292 1.370 . S
C297 C296 1.391 . S
C298 N272 1.435 . S
C298 C299 1.358 . S
C298 C303 1.371 . S
C299 H265 0.930 . S
C299 C298 1.358 . S
C299 C300 1.405 . S
C300 H266 0.932 . S
C300 C299 1.405 . S
C300 C301 1.383 . S
C301 C300 1.383 . S
C301 C302 1.393 . S
C302 H267 0.931 . S
C302 C301 1.393 . S
C302 C303 1.382 . S
C303 H268 0.929 . S
C303 C298 1.371 . S
C303 C302 1.382 . S
C304 N272 1.423 . S
C304 C305 1.362 . S
C304 C309 1.388 . S
C305 H269 0.929 . S
C305 C304 1.362 . S
C305 C306 1.376 . S
C306 H270 0.931 . S
C306 C305 1.376 . S
C306 C307 1.396 . S
C307 C289 1.472 . S
C307 C306 1.396 . S
C307 C308 1.348 . S
C308 H271 0.929 . S
C308 C307 1.348 . S
C308 C309 1.443 . S
C309 H273 0.932 . S
C309 C304 1.388 . S
C309 C308 1.443 . S
H310 C337 0.929 . S
N311 C336 1.433 . S
N311 C342 1.435 . S
N311 C348 1.423 . S
H312 C338 0.930 1_545 S
H313 C341 0.931 . S
H314 C340 0.929 . S
H315 C343 0.930 . S
H316 C344 0.932 1_545 S
H317 C347 0.929 . S
H318 C346 0.931 . S
H319 C349 0.929 . S
H320 C353 0.932 . S
H321 C350 0.931 . S
H322 C352 0.929 . S
H323 C355 0.929 . S
H324 C356 0.930 . S
H325 C358 0.929 . S
H326 C359 0.931 . S
H327 C361 0.930 . S
H328 C362 0.932 . S
H329 C364 0.931 . S
H330 C365 0.929 . S
H331 C367 0.929 . S
H332 C368 0.931 . S
H333 C370 0.929 . S
N334 C354 1.433 . S
N334 C360 1.435 . S
N334 C366 1.423 . S
H335 C371 0.932 . S
C336 N311 1.433 . S
C336 C337 1.363 . S
C336 C341 1.370 . S
C337 H310 0.929 . S
C337 C336 1.363 . S
C337 C338 1.385 . S
C338 H312 0.930 1_565 S
C338 C337 1.385 . S
C338 C339 1.357 . S
C339 C338 1.357 . S
C339 C340 1.406 . S
C340 H314 0.929 . S
C340 C339 1.406 . S
C340 C341 1.391 . S
C341 H313 0.931 . S
C341 C336 1.370 . S
C341 C340 1.391 . S
C342 N311 1.435 . S
C342 C343 1.358 . S
C342 C347 1.371 . S
C343 H315 0.930 . S
C343 C342 1.358 . S
C343 C344 1.405 . S
C344 H316 0.932 1_565 S
C344 C343 1.405 . S
C344 C345 1.383 . S
C345 C344 1.383 . S
C345 C346 1.393 . S
C346 H318 0.931 . S
C346 C345 1.393 . S
C346 C347 1.382 . S
C347 H317 0.929 . S
C347 C342 1.371 . S
C347 C346 1.382 . S
C348 N311 1.423 . S
C348 C349 1.362 . S
C348 C353 1.388 . S
C349 H319 0.929 . S
C349 C348 1.362 . S
C349 C350 1.376 . S
C350 H321 0.931 . S
C350 C349 1.376 . S
C350 C351 1.396 . S
C351 C350 1.396 . S
C351 C352 1.348 . S
C351 C369 1.472 . S
C352 H322 0.929 . S
C352 C351 1.348 . S
C352 C353 1.443 . S
C353 H320 0.932 . S
C353 C348 1.388 . S
C353 C352 1.443 . S
C354 N334 1.433 . S
C354 C355 1.363 . S
C354 C359 1.370 . S
C355 H323 0.929 . S
C355 C354 1.363 . S
C355 C356 1.385 . S
C356 H324 0.930 . S
C356 C355 1.385 . S
C356 C357 1.357 . S
C357 C356 1.357 . S
C357 C358 1.406 . S
C358 H325 0.929 . S
C358 C357 1.406 . S
C358 C359 1.391 . S
C359 H326 0.931 . S
C359 C354 1.370 . S
C359 C358 1.391 . S
C360 N334 1.435 . S
C360 C361 1.358 . S
C360 C365 1.371 . S
C361 H327 0.930 . S
C361 C360 1.358 . S
C361 C362 1.405 . S
C362 H328 0.932 . S
C362 C361 1.405 . S
C362 C363 1.383 . S
C363 C362 1.383 . S
C363 C364 1.393 . S
C364 H329 0.931 . S
C364 C363 1.393 . S
C364 C365 1.382 . S
C365 H330 0.929 . S
C365 C360 1.371 . S
C365 C364 1.382 . S
C366 N334 1.423 . S
C366 C367 1.362 . S
C366 C371 1.388 . S
C367 H331 0.929 . S
C367 C366 1.362 . S
C367 C368 1.376 . S
C368 H332 0.931 . S
C368 C367 1.376 . S
C368 C369 1.396 . S
C369 C351 1.472 . S
C369 C368 1.396 . S
C369 C370 1.348 . S
C370 H333 0.929 . S
C370 C369 1.348 . S
C370 C371 1.443 . S
C371 H335 0.932 . S
C371 C366 1.388 . S
C371 C370 1.443 . S
H372 C399 0.929 . S
N373 C398 1.433 . S
N373 C404 1.435 . S
N373 C410 1.423 . S
H374 C400 0.930 . S
H375 C403 0.931 . S
H376 C402 0.929 . S
H377 C405 0.930 . S
H378 C406 0.932 . S
H379 C409 0.929 . S
H380 C408 0.931 . S
H381 C411 0.929 1_556 S
H382 C415 0.932 . S
H383 C412 0.931 1_556 S
H384 C414 0.929 . S
H385 C417 0.929 . S
H386 C418 0.930 . S
H387 C420 0.929 . S
H388 C421 0.931 . S
H389 C423 0.930 . S
H390 C424 0.932 . S
H391 C426 0.931 . S
H392 C427 0.929 . S
H393 C429 0.929 1_556 S
H394 C430 0.931 1_556 S
H395 C432 0.929 . S
N396 C416 1.433 . S
N396 C422 1.435 . S
N396 C428 1.423 . S
H397 C433 0.932 . S
C398 N373 1.433 . S
C398 C399 1.363 . S
C398 C403 1.370 . S
C399 H372 0.929 . S
C399 C398 1.363 . S
C399 C400 1.385 1_554 S
C400 H374 0.930 . S
C400 C399 1.385 1_556 S
C400 C401 1.357 . S
C401 C400 1.357 . S
C401 C402 1.406 . S
C402 H376 0.929 . S
C402 C401 1.406 . S
C402 C403 1.391 1_556 S
C403 H375 0.931 . S
C403 C398 1.370 . S
C403 C402 1.391 1_554 S
C404 N373 1.435 . S
C404 C405 1.358 . S
C404 C409 1.371 . S
C405 H377 0.930 . S
C405 C404 1.358 . S
C405 C406 1.405 . S
C406 H378 0.932 . S
C406 C405 1.405 . S
C406 C407 1.383 . S
C407 C406 1.383 . S
C407 C408 1.393 . S
C408 H380 0.931 . S
C408 C407 1.393 . S
C408 C409 1.382 . S
C409 H379 0.929 . S
C409 C404 1.371 . S
C409 C408 1.382 . S
C410 N373 1.423 . S
C410 C411 1.362 . S
C410 C415 1.388 . S
C411 H381 0.929 1_554 S
C411 C410 1.362 . S
C411 C412 1.376 . S
C412 H383 0.931 1_554 S
C412 C411 1.376 . S
C412 C413 1.396 . S
C413 C412 1.396 . S
C413 C414 1.348 . S
C413 C431 1.472 . S
C414 H384 0.929 . S
C414 C413 1.348 . S
C414 C415 1.443 . S
C415 H382 0.932 . S
C415 C410 1.388 . S
C415 C414 1.443 . S
C416 N396 1.433 . S
C416 C417 1.363 . S
C416 C421 1.370 . S
C417 H385 0.929 . S
C417 C416 1.363 . S
C417 C418 1.385 1_554 S
C418 H386 0.930 . S
C418 C417 1.385 1_556 S
C418 C419 1.357 . S
C419 C418 1.357 . S
C419 C420 1.406 . S
C420 H387 0.929 . S
C420 C419 1.406 . S
C420 C421 1.391 1_556 S
C421 H388 0.931 . S
C421 C416 1.370 . S
C421 C420 1.391 1_554 S
C422 N396 1.435 . S
C422 C423 1.358 . S
C422 C427 1.371 . S
C423 H389 0.930 . S
C423 C422 1.358 . S
C423 C424 1.405 . S
C424 H390 0.932 . S
C424 C423 1.405 . S
C424 C425 1.383 . S
C425 C424 1.383 . S
C425 C426 1.393 . S
C426 H391 0.931 . S
C426 C425 1.393 . S
C426 C427 1.382 . S
C427 H392 0.929 . S
C427 C422 1.371 . S
C427 C426 1.382 . S
C428 N396 1.423 . S
C428 C429 1.362 . S
C428 C433 1.388 . S
C429 H393 0.929 1_554 S
C429 C428 1.362 . S
C429 C430 1.376 . S
C430 H394 0.931 1_554 S
C430 C429 1.376 . S
C430 C431 1.396 . S
C431 C413 1.472 . S
C431 C430 1.396 . S
C431 C432 1.348 . S
C432 H395 0.929 . S
C432 C431 1.348 . S
C432 C433 1.443 . S
C433 H397 0.932 . S
C433 C428 1.388 . S
C433 C432 1.443 . S
H434 C461 0.929 . S
N435 C460 1.433 . S
N435 C466 1.435 . S
N435 C472 1.423 . S
H436 C462 0.930 . S
H437 C465 0.931 . S
H438 C464 0.929 . S
H439 C467 0.930 . S
H440 C468 0.932 . S
H441 C471 0.929 . S
H442 C470 0.931 . S
H443 C473 0.929 . S
H444 C477 0.932 . S
H445 C474 0.931 . S
H446 C476 0.929 . S
H447 C479 0.929 . S
H448 C480 0.930 . S
H449 C482 0.929 . S
H450 C483 0.931 . S
H451 C485 0.930 . S
H452 C486 0.932 . S
H453 C488 0.931 . S
H454 C489 0.929 . S
H455 C491 0.929 . S
H456 C492 0.931 . S
H457 C494 0.929 . S
N458 C478 1.433 . S
N458 C484 1.435 . S
N458 C490 1.423 . S
H459 C495 0.932 . S
C460 N435 1.433 . S
C460 C461 1.363 . S
C460 C465 1.370 . S
C461 H434 0.929 . S
C461 C460 1.363 . S
C461 C462 1.385 . S
C462 H436 0.930 . S
C462 C461 1.385 . S
C462 C463 1.357 . S
C463 C462 1.357 . S
C463 C464 1.406 . S
C464 H438 0.929 . S
C464 C463 1.406 . S
C464 C465 1.391 . S
C465 H437 0.931 . S
C465 C460 1.370 . S
C465 C464 1.391 . S
C466 N435 1.435 . S
C466 C467 1.358 . S
C466 C471 1.371 . S
C467 H439 0.930 . S
C467 C466 1.358 . S
C467 C468 1.405 . S
C468 H440 0.932 . S
C468 C467 1.405 . S
C468 C469 1.383 . S
C469 C468 1.383 . S
C469 C470 1.393 . S
C470 H442 0.931 . S
C470 C469 1.393 . S
C470 C471 1.382 . S
C471 H441 0.929 . S
C471 C466 1.371 . S
C471 C470 1.382 . S
C472 N435 1.423 . S
C472 C473 1.362 . S
C472 C477 1.388 . S
C473 H443 0.929 . S
C473 C472 1.362 . S
C473 C474 1.376 . S
C474 H445 0.931 . S
C474 C473 1.376 . S
C474 C475 1.396 . S
C475 C474 1.396 . S
C475 C476 1.348 . S
C475 C493 1.472 1_455 S
C476 H446 0.929 . S
C476 C475 1.348 . S
C476 C477 1.443 . S
C477 H444 0.932 . S
C477 C472 1.388 . S
C477 C476 1.443 . S
C478 N458 1.433 . S
C478 C479 1.363 . S
C478 C483 1.370 . S
C479 H447 0.929 . S
C479 C478 1.363 . S
C479 C480 1.385 . S
C480 H448 0.930 . S
C480 C479 1.385 . S
C480 C481 1.357 . S
C481 C480 1.357 . S
C481 C482 1.406 . S
C482 H449 0.929 . S
C482 C481 1.406 . S
C482 C483 1.391 . S
C483 H450 0.931 . S
C483 C478 1.370 . S
C483 C482 1.391 . S
C484 N458 1.435 . S
C484 C485 1.358 . S
C484 C489 1.371 . S
C485 H451 0.930 . S
C485 C484 1.358 . S
C485 C486 1.405 . S
C486 H452 0.932 . S
C486 C485 1.405 . S
C486 C487 1.383 . S
C487 C486 1.383 . S
C487 C488 1.393 . S
C488 H453 0.931 . S
C488 C487 1.393 . S
C488 C489 1.382 . S
C489 H454 0.929 . S
C489 C484 1.371 . S
C489 C488 1.382 . S
C490 N458 1.423 . S
C490 C491 1.362 . S
C490 C495 1.388 . S
C491 H455 0.929 . S
C491 C490 1.362 . S
C491 C492 1.376 . S
C492 H456 0.931 . S
C492 C491 1.376 . S
C492 C493 1.396 . S
C493 C475 1.472 1_655 S
C493 C492 1.396 . S
C493 C494 1.348 . S
C494 H457 0.929 . S
C494 C493 1.348 . S
C494 C495 1.443 . S
C495 H459 0.932 . S
C495 C490 1.388 . S
C495 C494 1.443 . S
Fe496 O497 1.886 . S
Fe496 O500 1.715 1_455 S
Fe496 O505 2.077 . S
Fe496 O510 1.935 1_455 S
Fe496 O516 2.077 . S
Fe496 O525 1.935 1_455 S
O497 Fe496 1.886 . S
O497 Fe499 1.715 . S
Fe498 O500 1.886 . S
Fe498 O501 1.715 . S
Fe498 O508 1.935 . S
Fe498 O509 2.077 . S
Fe498 O515 1.935 . S
Fe498 O524 2.077 . S
Fe499 O497 1.715 . S
Fe499 O502 1.886 . S
Fe499 O506 1.935 . S
Fe499 O511 2.077 . S
Fe499 O517 1.935 . S
Fe499 O521 2.077 . S
O500 Fe496 1.715 1_655 S
O500 Fe498 1.886 . S
O501 Fe498 1.715 . S
O501 Fe503 1.904 . S
O502 Fe499 1.886 . S
O502 Fe503 1.696 1_455 S
Fe503 O501 1.904 . S
Fe503 O502 1.696 1_655 S
Fe503 O507 2.094 . S
Fe503 O512 1.921 1_655 S
Fe503 O514 2.094 . S
Fe503 O522 1.921 1_655 S
C504 O516 1.381 . S
C504 O517 1.421 . S
O505 Fe496 2.077 . S
O505 C518 1.381 . S
O506 Fe499 1.935 . S
O506 C518 1.421 . S
O507 Fe503 2.094 . S
O507 C523 1.381 . S
O508 Fe498 1.935 . S
O508 C523 1.421 . S
O509 Fe498 2.077 . S
O509 C513 1.381 . S
O510 Fe496 1.935 1_655 S
O510 C513 1.421 . S
O511 Fe499 2.077 . S
O511 C519 1.381 . S
O512 Fe503 1.921 1_455 S
O512 C519 1.421 . S
C513 O509 1.381 . S
C513 O510 1.421 . S
O514 Fe503 2.094 . S
O514 C526 1.381 . S
O515 Fe498 1.935 . S
O515 C526 1.421 . S
O516 Fe496 2.077 . S
O516 C504 1.381 . S
O517 Fe499 1.935 . S
O517 C504 1.421 . S
C518 O505 1.381 . S
C518 O506 1.421 . S
C519 O511 1.381 . S
C519 O512 1.421 . S
C520 O521 1.381 . S
C520 O522 1.421 . S
O521 Fe499 2.077 . S
O521 C520 1.381 . S
O522 Fe503 1.921 1_455 S
O522 C520 1.421 . S
C523 O507 1.381 . S
C523 O508 1.421 . S
O524 Fe498 2.077 . S
O524 C527 1.381 . S
O525 Fe496 1.935 1_655 S
O525 C527 1.421 . S
C526 O514 1.381 . S
C526 O515 1.421 . S
C527 O524 1.381 . S
C527 O525 1.421 . S
Fe528 O529 1.886 . S
Fe528 O532 1.715 . S
Fe528 O537 2.077 . S
Fe528 O542 1.935 . S
Fe528 O548 2.077 . S
Fe528 O557 1.935 . S
O529 Fe528 1.886 . S
O529 Fe531 1.715 . S
Fe530 O532 1.886 . S
Fe530 O533 1.715 . S
Fe530 O540 1.935 . S
Fe530 O541 2.077 . S
Fe530 O547 1.935 . S
Fe530 O556 2.077 . S
Fe531 O529 1.715 . S
Fe531 O534 1.886 . S
Fe531 O538 1.935 . S
Fe531 O543 2.077 . S
Fe531 O549 1.935 . S
Fe531 O553 2.077 . S
O532 Fe528 1.715 . S
O532 Fe530 1.886 . S
O533 Fe530 1.715 . S
O533 Fe535 1.886 . S
O534 Fe531 1.886 . S
O534 Fe535 1.715 . S
Fe535 O533 1.886 . S
Fe535 O534 1.715 . S
Fe535 O539 2.077 . S
Fe535 O544 1.935 . S
Fe535 O546 2.077 . S
Fe535 O554 1.935 . S
C536 O548 1.381 . S
C536 O549 1.421 . S
O537 Fe528 2.077 . S
O537 C550 1.381 . S
O538 Fe531 1.935 . S
O538 C550 1.421 . S
O539 Fe535 2.077 . S
O539 C555 1.381 . S
O540 Fe530 1.935 . S
O540 C555 1.421 . S
O541 Fe530 2.077 . S
O541 C545 1.381 . S
O542 Fe528 1.935 . S
O542 C545 1.421 . S
O543 Fe531 2.077 . S
O543 C551 1.381 . S
O544 Fe535 1.935 . S
O544 C551 1.421 . S
C545 O541 1.381 . S
C545 O542 1.421 . S
O546 Fe535 2.077 . S
O546 C558 1.381 . S
O547 Fe530 1.935 . S
O547 C558 1.421 . S
O548 Fe528 2.077 . S
O548 C536 1.381 . S
O549 Fe531 1.935 . S
O549 C536 1.421 . S
C550 O537 1.381 . S
C550 O538 1.421 . S
C551 O543 1.381 . S
C551 O544 1.421 . S
C552 O553 1.381 . S
C552 O554 1.421 . S
O553 Fe531 2.077 . S
O553 C552 1.381 . S
O554 Fe535 1.935 . S
O554 C552 1.421 . S
C555 O539 1.381 . S
C555 O540 1.421 . S
O556 Fe530 2.077 . S
O556 C559 1.381 . S
O557 Fe528 1.935 . S
O557 C559 1.421 . S
C558 O546 1.381 . S
C558 O547 1.421 . S
C559 O556 1.381 . S
C559 O557 1.421 . S
Fe560 O561 1.886 . S
Fe560 O564 1.715 . S
Fe560 O569 2.077 . S
Fe560 O574 1.935 . S
Fe560 O580 2.077 . S
Fe560 O589 1.935 . S
O561 Fe560 1.886 . S
O561 Fe563 1.715 . S
Fe562 O564 1.886 . S
Fe562 O565 1.715 . S
Fe562 O572 1.935 . S
Fe562 O573 2.077 . S
Fe562 O579 1.935 . S
Fe562 O588 2.077 . S
Fe563 O561 1.715 . S
Fe563 O566 1.886 . S
Fe563 O570 1.935 . S
Fe563 O575 2.077 . S
Fe563 O581 1.935 . S
Fe563 O585 2.077 . S
O564 Fe560 1.715 . S
O564 Fe562 1.886 . S
O565 Fe562 1.715 . S
O565 Fe567 1.886 . S
O566 Fe563 1.886 . S
O566 Fe567 1.715 . S
Fe567 O565 1.886 . S
Fe567 O566 1.715 . S
Fe567 O571 2.077 . S
Fe567 O576 1.935 . S
Fe567 O578 2.077 . S
Fe567 O586 1.935 . S
C568 O580 1.381 . S
C568 O581 1.421 . S
O569 Fe560 2.077 . S
O569 C582 1.381 . S
O570 Fe563 1.935 . S
O570 C582 1.421 . S
O571 Fe567 2.077 . S
O571 C587 1.381 . S
O572 Fe562 1.935 . S
O572 C587 1.421 . S
O573 Fe562 2.077 . S
O573 C577 1.381 . S
O574 Fe560 1.935 . S
O574 C577 1.421 . S
O575 Fe563 2.077 . S
O575 C583 1.381 . S
O576 Fe567 1.935 . S
O576 C583 1.421 . S
C577 O573 1.381 . S
C577 O574 1.421 . S
O578 Fe567 2.077 . S
O578 C590 1.381 . S
O579 Fe562 1.935 . S
O579 C590 1.421 . S
O580 Fe560 2.077 . S
O580 C568 1.381 . S
O581 Fe563 1.935 . S
O581 C568 1.421 . S
C582 O569 1.381 . S
C582 O570 1.421 . S
C583 O575 1.381 . S
C583 O576 1.421 . S
C584 O585 1.381 . S
C584 O586 1.421 . S
O585 Fe563 2.077 . S
O585 C584 1.381 . S
O586 Fe567 1.935 . S
O586 C584 1.421 . S
C587 O571 1.381 . S
C587 O572 1.421 . S
O588 Fe562 2.077 . S
O588 C591 1.381 . S
O589 Fe560 1.935 . S
O589 C591 1.421 . S
C590 O578 1.381 . S
C590 O579 1.421 . S
C591 O588 1.381 . S
C591 O589 1.421 . S
Fe592 O593 1.886 . S
Fe592 O596 1.715 . S
Fe592 O601 2.077 1_455 S
Fe592 O606 1.935 1_455 S
Fe592 O612 2.077 . S
Fe592 O621 1.935 . S
O593 Fe592 1.886 . S
O593 Fe595 1.715 . S
Fe594 O596 1.886 . S
Fe594 O597 1.715 . S
Fe594 O604 1.935 1_455 S
Fe594 O605 2.077 1_455 S
Fe594 O611 1.935 . S
Fe594 O620 2.077 . S
Fe595 O593 1.715 . S
Fe595 O598 1.886 . S
Fe595 O602 1.935 1_455 S
Fe595 O607 2.077 1_455 S
Fe595 O613 1.935 . S
Fe595 O617 2.077 . S
O596 Fe592 1.715 . S
O596 Fe594 1.886 . S
O597 Fe594 1.715 . S
O597 Fe599 1.886 . S
O598 Fe595 1.886 . S
O598 Fe599 1.715 . S
Fe599 O597 1.886 . S
Fe599 O598 1.715 . S
Fe599 O603 2.077 1_455 S
Fe599 O608 1.935 1_455 S
Fe599 O610 2.077 . S
Fe599 O618 1.935 . S
C600 O612 1.381 . S
C600 O613 1.421 . S
O601 Fe592 2.077 1_655 S
O601 C614 1.381 . S
O602 Fe595 1.935 1_655 S
O602 C614 1.421 . S
O603 Fe599 2.077 1_655 S
O603 C619 1.381 . S
O604 Fe594 1.935 1_655 S
O604 C619 1.421 . S
O605 Fe594 2.077 1_655 S
O605 C609 1.381 . S
O606 Fe592 1.935 1_655 S
O606 C609 1.421 . S
O607 Fe595 2.077 1_655 S
O607 C615 1.381 . S
O608 Fe599 1.935 1_655 S
O608 C615 1.421 . S
C609 O605 1.381 . S
C609 O606 1.421 . S
O610 Fe599 2.077 . S
O610 C622 1.381 . S
O611 Fe594 1.935 . S
O611 C622 1.421 . S
O612 Fe592 2.077 . S
O612 C600 1.381 . S
O613 Fe595 1.935 . S
O613 C600 1.421 . S
C614 O601 1.381 . S
C614 O602 1.421 . S
C615 O607 1.381 . S
C615 O608 1.421 . S
C616 O617 1.381 . S
C616 O618 1.421 . S
O617 Fe595 2.077 . S
O617 C616 1.381 . S
O618 Fe599 1.935 . S
O618 C616 1.421 . S
C619 O603 1.381 . S
C619 O604 1.421 . S
O620 Fe594 2.077 . S
O620 C623 1.381 . S
O621 Fe592 1.935 . S
O621 C623 1.421 . S
C622 O610 1.381 . S
C622 O611 1.421 . S
C623 O620 1.381 . S
C623 O621 1.421 . S
H624 C632 0.950 . S
H625 C637 0.950 . S
H626 C634 0.950 . S
H627 C636 0.950 . S
H628 C638 0.950 . S
H629 C640 0.950 . S
H630 C642 0.950 . S
H631 C643 0.950 . S
C632 H624 0.950 . S
C632 C633 1.386 . S
C632 C634 1.391 . S
C633 C632 1.386 . S
C633 C637 1.393 . S
C634 H626 0.950 . S
C634 C632 1.391 . S
C634 C635 1.400 . S
C635 C634 1.400 . S
C635 C636 1.398 . S
C635 C641 1.491 . S
C636 H627 0.950 . S
C636 C635 1.398 . S
C636 C637 1.391 . S
C637 H625 0.950 . S
C637 C633 1.393 . S
C637 C636 1.391 . S
C638 H628 0.950 . S
C638 C639 1.386 . S
C638 C640 1.391 . S
C639 C638 1.386 . S
C639 C643 1.393 . S
C640 H629 0.950 . S
C640 C638 1.391 . S
C640 C641 1.400 . S
C641 C635 1.491 . S
C641 C640 1.400 . S
C641 C642 1.398 . S
C642 H630 0.950 . S
C642 C641 1.398 . S
C642 C643 1.391 . S
C643 H631 0.950 . S
C643 C639 1.393 . S
C643 C642 1.391 . S
H644 C652 0.950 . S
H645 C657 0.950 . S
H646 C654 0.950 . S
H647 C656 0.950 . S
H648 C658 0.950 . S
H649 C660 0.950 . S
H650 C662 0.950 . S
H651 C663 0.950 . S
C652 H644 0.950 . S
C652 C653 1.386 . S
C652 C654 1.391 . S
C653 C652 1.386 . S
C653 C657 1.393 . S
C654 H646 0.950 . S
C654 C652 1.391 . S
C654 C655 1.400 . S
C655 C654 1.400 . S
C655 C656 1.398 . S
C655 C661 1.491 . S
C656 H647 0.950 . S
C656 C655 1.398 . S
C656 C657 1.391 . S
C657 H645 0.950 . S
C657 C653 1.393 . S
C657 C656 1.391 . S
C658 H648 0.950 . S
C658 C659 1.386 . S
C658 C660 1.391 . S
C659 C658 1.386 . S
C659 C663 1.393 . S
C660 H649 0.950 . S
C660 C658 1.391 . S
C660 C661 1.400 . S
C661 C655 1.491 . S
C661 C660 1.400 . S
C661 C662 1.398 . S
C662 H650 0.950 . S
C662 C661 1.398 . S
C662 C663 1.391 . S
C663 H651 0.950 . S
C663 C659 1.393 . S
C663 C662 1.391 . S
H664 C672 0.950 . S
H665 C677 0.950 . S
H666 C674 0.950 . S
H667 C676 0.950 . S
H668 C678 0.950 . S
H669 C680 0.950 . S
H670 C682 0.950 . S
H671 C683 0.950 . S
C672 H664 0.950 . S
C672 C673 1.386 . S
C672 C674 1.391 . S
C673 C672 1.386 . S
C673 C677 1.393 . S
C674 H666 0.950 . S
C674 C672 1.391 . S
C674 C675 1.400 . S
C675 C674 1.400 . S
C675 C676 1.398 . S
C675 C681 1.491 . S
C676 H667 0.950 . S
C676 C675 1.398 . S
C676 C677 1.391 . S
C677 H665 0.950 . S
C677 C673 1.393 . S
C677 C676 1.391 . S
C678 H668 0.950 . S
C678 C679 1.386 . S
C678 C680 1.391 . S
C679 C678 1.386 . S
C679 C683 1.393 . S
C680 H669 0.950 . S
C680 C678 1.391 . S
C680 C681 1.400 . S
C681 C675 1.491 . S
C681 C680 1.400 . S
C681 C682 1.398 . S
C682 H670 0.950 . S
C682 C681 1.398 . S
C682 C683 1.391 . S
C683 H671 0.950 . S
C683 C679 1.393 . S
C683 C682 1.391 . S
H684 C692 0.950 . S
H685 C697 0.950 . S
H686 C694 0.950 . S
H687 C696 0.950 . S
H688 C698 0.950 . S
H689 C700 0.950 . S
H690 C702 0.950 . S
H691 C703 0.950 . S
C692 H684 0.950 . S
C692 C693 1.386 1_565 S
C692 C694 1.391 . S
C693 C692 1.386 1_545 S
C693 C697 1.393 . S
C694 H686 0.950 . S
C694 C692 1.391 . S
C694 C695 1.400 . S
C695 C694 1.400 . S
C695 C696 1.398 . S
C695 C701 1.491 . S
C696 H687 0.950 . S
C696 C695 1.398 . S
C696 C697 1.391 1_565 S
C697 H685 0.950 . S
C697 C693 1.393 . S
C697 C696 1.391 1_545 S
C698 H688 0.950 . S
C698 C699 1.386 . S
C698 C700 1.391 . S
C699 C698 1.386 . S
C699 C703 1.393 . S
C700 H689 0.950 . S
C700 C698 1.391 . S
C700 C701 1.400 . S
C701 C695 1.491 . S
C701 C700 1.400 . S
C701 C702 1.398 . S
C702 H690 0.950 . S
C702 C701 1.398 . S
C702 C703 1.391 . S
C703 H691 0.950 . S
C703 C699 1.393 . S
C703 C702 1.391 . S
H704 C712 0.950 . S
H705 C717 0.950 . S
H706 C714 0.950 . S
H707 C716 0.950 . S
H708 C718 0.950 . S
H709 C720 0.950 . S
H710 C722 0.950 . S
H711 C723 0.950 . S
C712 H704 0.950 . S
C712 C713 1.386 . S
C712 C714 1.391 . S
C713 C712 1.386 . S
C713 C717 1.393 . S
C714 H706 0.950 . S
C714 C712 1.391 . S
C714 C715 1.400 . S
C715 C714 1.400 . S
C715 C716 1.398 . S
C715 C721 1.491 . S
C716 H707 0.950 . S
C716 C715 1.398 . S
C716 C717 1.391 . S
C717 H705 0.950 . S
C717 C713 1.393 . S
C717 C716 1.391 . S
C718 H708 0.950 . S
C718 C719 1.386 . S
C718 C720 1.391 . S
C719 C718 1.386 . S
C719 C723 1.393 . S
C720 H709 0.950 . S
C720 C718 1.391 . S
C720 C721 1.400 . S
C721 C715 1.491 . S
C721 C720 1.400 . S
C721 C722 1.398 . S
C722 H710 0.950 . S
C722 C721 1.398 . S
C722 C723 1.391 . S
C723 H711 0.950 . S
C723 C719 1.393 . S
C723 C722 1.391 . S
H724 C732 0.950 . S
H725 C737 0.950 . S
H726 C734 0.950 . S
H727 C736 0.950 . S
H728 C738 0.950 . S
H729 C740 0.950 . S
H730 C742 0.950 . S
H731 C743 0.950 . S
C732 H724 0.950 . S
C732 C733 1.386 . S
C732 C734 1.391 1_565 S
C733 C732 1.386 . S
C733 C737 1.393 1_565 S
C734 H726 0.950 . S
C734 C732 1.391 1_545 S
C734 C735 1.400 . S
C735 C734 1.400 . S
C735 C736 1.398 . S
C735 C741 1.491 . S
C736 H727 0.950 . S
C736 C735 1.398 . S
C736 C737 1.391 . S
C737 H725 0.950 . S
C737 C733 1.393 1_545 S
C737 C736 1.391 . S
C738 H728 0.950 . S
C738 C739 1.386 . S
C738 C740 1.391 . S
C739 C738 1.386 . S
C739 C743 1.393 . S
C740 H729 0.950 . S
C740 C738 1.391 . S
C740 C741 1.400 . S
C741 C735 1.491 . S
C741 C740 1.400 . S
C741 C742 1.398 . S
C742 H730 0.950 . S
C742 C741 1.398 . S
C742 C743 1.391 . S
C743 H731 0.950 . S
C743 C739 1.393 . S
C743 C742 1.391 . S
H744 C752 0.950 . S
H745 C757 0.950 . S
H746 C754 0.950 . S
H747 C756 0.950 . S
H748 C758 0.950 . S
H749 C760 0.950 . S
H750 C762 0.950 . S
H751 C763 0.950 . S
C752 H744 0.950 . S
C752 C753 1.386 . S
C752 C754 1.391 . S
C753 C752 1.386 . S
C753 C757 1.393 . S
C754 H746 0.950 . S
C754 C752 1.391 . S
C754 C755 1.400 . S
C755 C754 1.400 . S
C755 C756 1.398 . S
C755 C761 1.491 . S
C756 H747 0.950 . S
C756 C755 1.398 . S
C756 C757 1.391 . S
C757 H745 0.950 . S
C757 C753 1.393 . S
C757 C756 1.391 . S
C758 H748 0.950 . S
C758 C759 1.386 . S
C758 C760 1.391 . S
C759 C758 1.386 . S
C759 C763 1.393 . S
C760 H749 0.950 . S
C760 C758 1.391 . S
C760 C761 1.400 . S
C761 C755 1.491 . S
C761 C760 1.400 . S
C761 C762 1.398 . S
C762 H750 0.950 . S
C762 C761 1.398 . S
C762 C763 1.391 . S
C763 H751 0.950 . S
C763 C759 1.393 . S
C763 C762 1.391 . S
H764 C772 0.950 . S
H765 C777 0.950 . S
H766 C774 0.950 . S
H767 C776 0.950 . S
H768 C778 0.950 . S
H769 C780 0.950 . S
H770 C782 0.950 . S
H771 C783 0.950 . S
C772 H764 0.950 . S
C772 C773 1.386 . S
C772 C774 1.391 1_545 S
C773 C772 1.386 . S
C773 C777 1.393 . S
C774 H766 0.950 . S
C774 C772 1.391 1_565 S
C774 C775 1.400 . S
C775 C774 1.400 . S
C775 C776 1.398 . S
C775 C781 1.491 . S
C776 H767 0.950 . S
C776 C775 1.398 . S
C776 C777 1.391 1_565 S
C777 H765 0.950 . S
C777 C773 1.393 . S
C777 C776 1.391 1_545 S
C778 H768 0.950 . S
C778 C779 1.386 . S
C778 C780 1.391 . S
C779 C778 1.386 . S
C779 C783 1.393 . S
C780 H769 0.950 . S
C780 C778 1.391 . S
C780 C781 1.400 . S
C781 C775 1.491 . S
C781 C780 1.400 . S
C781 C782 1.398 . S
C782 H770 0.950 . S
C782 C781 1.398 . S
C782 C783 1.391 . S
C783 H771 0.950 . S
C783 C779 1.393 . S
C783 C782 1.391 . S
H784 C792 0.950 . S
H785 C797 0.950 . S
H786 C794 0.950 . S
H787 C796 0.950 . S
H788 C798 0.950 . S
H789 C800 0.950 . S
H790 C802 0.950 . S
H791 C803 0.950 . S
C792 H784 0.950 . S
C792 C793 1.386 . S
C792 C794 1.391 . S
C793 C792 1.386 . S
C793 C797 1.393 . S
C794 H786 0.950 . S
C794 C792 1.391 . S
C794 C795 1.400 . S
C795 C794 1.400 . S
C795 C796 1.398 . S
C795 C801 1.491 . S
C796 H787 0.950 . S
C796 C795 1.398 . S
C796 C797 1.391 . S
C797 H785 0.950 . S
C797 C793 1.393 . S
C797 C796 1.391 . S
C798 H788 0.950 . S
C798 C799 1.386 . S
C798 C800 1.391 . S
C799 C798 1.386 . S
C799 C803 1.393 . S
C800 H789 0.950 . S
C800 C798 1.391 . S
C800 C801 1.400 . S
C801 C795 1.491 . S
C801 C800 1.400 . S
C801 C802 1.398 . S
C802 H790 0.950 . S
C802 C801 1.398 . S
C802 C803 1.391 . S
C803 H791 0.950 . S
C803 C799 1.393 . S
C803 C802 1.391 . S
H804 C812 0.950 . S
H805 C817 0.950 . S
H806 C814 0.950 . S
H807 C816 0.950 . S
H808 C818 0.950 . S
H809 C820 0.950 . S
H810 C822 0.950 . S
H811 C823 0.950 . S
C812 H804 0.950 . S
C812 C813 1.386 . S
C812 C814 1.391 1_545 S
C813 C812 1.386 . S
C813 C817 1.393 . S
C814 H806 0.950 . S
C814 C812 1.391 1_565 S
C814 C815 1.400 . S
C815 C814 1.400 . S
C815 C816 1.398 1_565 S
C815 C821 1.491 . S
C816 H807 0.950 . S
C816 C815 1.398 1_545 S
C816 C817 1.391 . S
C817 H805 0.950 . S
C817 C813 1.393 . S
C817 C816 1.391 . S
C818 H808 0.950 . S
C818 C819 1.386 . S
C818 C820 1.391 . S
C819 C818 1.386 . S
C819 C823 1.393 . S
C820 H809 0.950 . S
C820 C818 1.391 . S
C820 C821 1.400 . S
C821 C815 1.491 . S
C821 C820 1.400 . S
C821 C822 1.398 . S
C822 H810 0.950 . S
C822 C821 1.398 . S
C822 C823 1.391 . S
C823 H811 0.950 . S
C823 C819 1.393 . S
C823 C822 1.391 . S
H824 C832 0.950 . S
H825 C837 0.950 . S
H826 C834 0.950 . S
H827 C836 0.950 . S
H828 C838 0.950 . S
H829 C840 0.950 . S
H830 C842 0.950 . S
H831 C843 0.950 . S
C832 H824 0.950 . S
C832 C833 1.386 . S
C832 C834 1.391 . S
C833 C832 1.386 . S
C833 C837 1.393 . S
C834 H826 0.950 . S
C834 C832 1.391 . S
C834 C835 1.400 . S
C835 C834 1.400 . S
C835 C836 1.398 . S
C835 C841 1.491 . S
C836 H827 0.950 . S
C836 C835 1.398 . S
C836 C837 1.391 . S
C837 H825 0.950 . S
C837 C833 1.393 . S
C837 C836 1.391 . S
C838 H828 0.950 . S
C838 C839 1.386 . S
C838 C840 1.391 . S
C839 C838 1.386 . S
C839 C843 1.393 . S
C840 H829 0.950 . S
C840 C838 1.391 . S
C840 C841 1.400 . S
C841 C835 1.491 . S
C841 C840 1.400 . S
C841 C842 1.398 . S
C842 H830 0.950 . S
C842 C841 1.398 . S
C842 C843 1.391 . S
C843 H831 0.950 . S
C843 C839 1.393 . S
C843 C842 1.391 . S
H844 C852 0.950 . S
H845 C857 0.950 . S
H846 C854 0.950 . S
H847 C856 0.950 . S
H848 C858 0.950 . S
H849 C860 0.950 . S
H850 C862 0.950 . S
H851 C863 0.950 . S
C852 H844 0.950 . S
C852 C853 1.386 1_545 S
C852 C854 1.391 . S
C853 C852 1.386 1_565 S
C853 C857 1.393 . S
C854 H846 0.950 . S
C854 C852 1.391 . S
C854 C855 1.400 . S
C855 C854 1.400 . S
C855 C856 1.398 . S
C855 C861 1.491 . S
C856 H847 0.950 . S
C856 C855 1.398 . S
C856 C857 1.391 1_545 S
C857 H845 0.950 . S
C857 C853 1.393 . S
C857 C856 1.391 1_565 S
C858 H848 0.950 . S
C858 C859 1.386 . S
C858 C860 1.391 . S
C859 C858 1.386 . S
C859 C863 1.393 . S
C860 H849 0.950 . S
C860 C858 1.391 . S
C860 C861 1.400 . S
C861 C855 1.491 . S
C861 C860 1.400 . S
C861 C862 1.398 . S
C862 H850 0.950 . S
C862 C861 1.398 . S
C862 C863 1.391 . S
C863 H851 0.950 . S
C863 C859 1.393 . S
C863 C862 1.391 . S
H864 C872 0.950 . S
H865 C877 0.950 . S
H866 C874 0.950 . S
H867 C876 0.950 . S
H868 C878 0.950 . S
H869 C880 0.950 . S
H870 C882 0.950 . S
H871 C883 0.950 . S
C872 H864 0.950 . S
C872 C873 1.386 . S
C872 C874 1.391 . S
C873 C872 1.386 . S
C873 C877 1.393 . S
C874 H866 0.950 . S
C874 C872 1.391 . S
C874 C875 1.400 . S
C875 C874 1.400 . S
C875 C876 1.398 . S
C875 C881 1.491 . S
C876 H867 0.950 . S
C876 C875 1.398 . S
C876 C877 1.391 . S
C877 H865 0.950 . S
C877 C873 1.393 . S
C877 C876 1.391 . S
C878 H868 0.950 . S
C878 C879 1.386 . S
C878 C880 1.391 . S
C879 C878 1.386 . S
C879 C883 1.393 . S
C880 H869 0.950 . S
C880 C878 1.391 . S
C880 C881 1.400 . S
C881 C875 1.491 . S
C881 C880 1.400 . S
C881 C882 1.398 . S
C882 H870 0.950 . S
C882 C881 1.398 . S
C882 C883 1.391 . S
C883 H871 0.950 . S
C883 C879 1.393 . S
C883 C882 1.391 . S
H884 C892 0.950 . S
H885 C897 0.950 . S
H886 C894 0.950 . S
H887 C896 0.950 . S
H888 C898 0.950 . S
H889 C900 0.950 . S
H890 C902 0.950 . S
H891 C903 0.950 . S
C892 H884 0.950 . S
C892 C893 1.386 . S
C892 C894 1.391 1_545 S
C893 C892 1.386 . S
C893 C897 1.393 1_545 S
C894 H886 0.950 . S
C894 C892 1.391 1_565 S
C894 C895 1.400 . S
C895 C894 1.400 . S
C895 C896 1.398 . S
C895 C901 1.491 . S
C896 H887 0.950 . S
C896 C895 1.398 . S
C896 C897 1.391 . S
C897 H885 0.950 . S
C897 C893 1.393 1_565 S
C897 C896 1.391 . S
C898 H888 0.950 . S
C898 C899 1.386 . S
C898 C900 1.391 . S
C899 C898 1.386 . S
C899 C903 1.393 . S
C900 H889 0.950 . S
C900 C898 1.391 . S
C900 C901 1.400 . S
C901 C895 1.491 . S
C901 C900 1.400 . S
C901 C902 1.398 . S
C902 H890 0.950 . S
C902 C901 1.398 . S
C902 C903 1.391 . S
C903 H891 0.950 . S
C903 C899 1.393 . S
C903 C902 1.391 . S
H904 C912 0.950 . S
H905 C917 0.950 . S
H906 C914 0.950 . S
H907 C916 0.950 . S
H908 C918 0.950 . S
H909 C920 0.950 . S
H910 C922 0.950 . S
H911 C923 0.950 . S
C912 H904 0.950 . S
C912 C913 1.386 . S
C912 C914 1.391 . S
C913 C912 1.386 . S
C913 C917 1.393 . S
C914 H906 0.950 . S
C914 C912 1.391 . S
C914 C915 1.400 . S
C915 C914 1.400 . S
C915 C916 1.398 . S
C915 C921 1.491 . S
C916 H907 0.950 . S
C916 C915 1.398 . S
C916 C917 1.391 . S
C917 H905 0.950 . S
C917 C913 1.393 . S
C917 C916 1.391 . S
C918 H908 0.950 . S
C918 C919 1.386 . S
C918 C920 1.391 . S
C919 C918 1.386 . S
C919 C923 1.393 . S
C920 H909 0.950 . S
C920 C918 1.391 . S
C920 C921 1.400 . S
C921 C915 1.491 . S
C921 C920 1.400 . S
C921 C922 1.398 . S
C922 H910 0.950 . S
C922 C921 1.398 . S
C922 C923 1.391 . S
C923 H911 0.950 . S
C923 C919 1.393 . S
C923 C922 1.391 . S
H924 C932 0.950 . S
H925 C937 0.950 . S
H926 C934 0.950 . S
H927 C936 0.950 . S
H928 C938 0.950 . S
H929 C940 0.950 . S
H930 C942 0.950 . S
H931 C943 0.950 . S
C932 H924 0.950 . S
C932 C933 1.386 . S
C932 C934 1.391 . S
C933 C932 1.386 . S
C933 C937 1.393 . S
C934 H926 0.950 . S
C934 C932 1.391 . S
C934 C935 1.400 . S
C935 C934 1.400 . S
C935 C936 1.398 . S
C935 C941 1.491 . S
C936 H927 0.950 . S
C936 C935 1.398 . S
C936 C937 1.391 . S
C937 H925 0.950 . S
C937 C933 1.393 . S
C937 C936 1.391 . S
C938 H928 0.950 . S
C938 C939 1.386 . S
C938 C940 1.391 . S
C939 C938 1.386 . S
C939 C943 1.393 . S
C940 H929 0.950 . S
C940 C938 1.391 . S
C940 C941 1.400 . S
C941 C935 1.491 . S
C941 C940 1.400 . S
C941 C942 1.398 . S
C942 H930 0.950 . S
C942 C941 1.398 . S
C942 C943 1.391 . S
C943 H931 0.950 . S
C943 C939 1.393 . S
C943 C942 1.391 . S
H944 C952 0.950 . S
H945 C957 0.950 . S
H946 C954 0.950 . S
H947 C956 0.950 . S
H948 C958 0.950 . S
H949 C960 0.950 . S
H950 C962 0.950 . S
H951 C963 0.950 . S
C952 H944 0.950 . S
C952 C953 1.386 . S
C952 C954 1.391 . S
C953 C952 1.386 . S
C953 C957 1.393 . S
C954 H946 0.950 . S
C954 C952 1.391 . S
C954 C955 1.400 . S
C955 C954 1.400 . S
C955 C956 1.398 . S
C955 C961 1.491 . S
C956 H947 0.950 . S
C956 C955 1.398 . S
C956 C957 1.391 . S
C957 H945 0.950 . S
C957 C953 1.393 . S
C957 C956 1.391 . S
C958 H948 0.950 . S
C958 C959 1.386 . S
C958 C960 1.391 . S
C959 C958 1.386 . S
C959 C963 1.393 . S
C960 H949 0.950 . S
C960 C958 1.391 . S
C960 C961 1.400 . S
C961 C955 1.491 . S
C961 C960 1.400 . S
C961 C962 1.398 . S
C962 H950 0.950 . S
C962 C961 1.398 . S
C962 C963 1.391 . S
C963 H951 0.950 . S
C963 C959 1.393 . S
C963 C962 1.391 . S
H964 C972 0.950 . S
H965 C977 0.950 . S
H966 C974 0.950 . S
H967 C976 0.950 . S
H968 C978 0.950 . S
H969 C980 0.950 . S
H970 C982 0.950 . S
H971 C983 0.950 . S
C972 H964 0.950 . S
C972 C973 1.386 . S
C972 C974 1.391 . S
C973 C972 1.386 . S
C973 C977 1.393 . S
C974 H966 0.950 . S
C974 C972 1.391 . S
C974 C975 1.400 . S
C975 C974 1.400 . S
C975 C976 1.398 . S
C975 C981 1.491 . S
C976 H967 0.950 . S
C976 C975 1.398 . S
C976 C977 1.391 . S
C977 H965 0.950 . S
C977 C973 1.393 . S
C977 C976 1.391 . S
C978 H968 0.950 . S
C978 C979 1.386 . S
C978 C980 1.391 . S
C979 C978 1.386 . S
C979 C983 1.393 . S
C980 H969 0.950 . S
C980 C978 1.391 . S
C980 C981 1.400 . S
C981 C975 1.491 . S
C981 C980 1.400 . S
C981 C982 1.398 . S
C982 H970 0.950 . S
C982 C981 1.398 . S
C982 C983 1.391 . S
C983 H971 0.950 . S
C983 C979 1.393 . S
C983 C982 1.391 . S
H984 C992 0.950 . S
H985 C997 0.950 . S
H986 C994 0.950 . S
H987 C996 0.950 . S
H988 C998 0.950 . S
H989 C1000 0.950 . S
H990 C1002 0.950 . S
H991 C1003 0.950 . S
C992 H984 0.950 . S
C992 C993 1.386 . S
C992 C994 1.391 . S
C993 C992 1.386 . S
C993 C997 1.393 . S
C994 H986 0.950 . S
C994 C992 1.391 . S
C994 C995 1.400 . S
C995 C994 1.400 . S
C995 C996 1.398 . S
C995 C1001 1.491 . S
C996 H987 0.950 . S
C996 C995 1.398 . S
C996 C997 1.391 . S
C997 H985 0.950 . S
C997 C993 1.393 . S
C997 C996 1.391 . S
C998 H988 0.950 . S
C998 C999 1.386 . S
C998 C1000 1.391 . S
C999 C998 1.386 . S
C999 C1003 1.393 . S
C1000 H989 0.950 . S
C1000 C998 1.391 . S
C1000 C1001 1.400 . S
C1001 C995 1.491 . S
C1001 C1000 1.400 . S
C1001 C1002 1.398 . S
C1002 H990 0.950 . S
C1002 C1001 1.398 . S
C1002 C1003 1.391 . S
C1003 H991 0.950 . S
C1003 C999 1.393 . S
C1003 C1002 1.391 . S
H1004 C1012 0.950 . S
H1005 C1017 0.950 . S
H1006 C1014 0.950 . S
H1007 C1016 0.950 . S
H1008 C1018 0.950 . S
H1009 C1020 0.950 . S
H1010 C1022 0.950 . S
H1011 C1023 0.950 . S
C1012 H1004 0.950 . S
C1012 C1013 1.386 . S
C1012 C1014 1.391 . S
C1013 C1012 1.386 . S
C1013 C1017 1.393 . S
C1014 H1006 0.950 . S
C1014 C1012 1.391 . S
C1014 C1015 1.400 . S
C1015 C1014 1.400 . S
C1015 C1016 1.398 . S
C1015 C1021 1.491 . S
C1016 H1007 0.950 . S
C1016 C1015 1.398 . S
C1016 C1017 1.391 . S
C1017 H1005 0.950 . S
C1017 C1013 1.393 . S
C1017 C1016 1.391 . S
C1018 H1008 0.950 . S
C1018 C1019 1.386 . S
C1018 C1020 1.391 . S
C1019 C1018 1.386 . S
C1019 C1023 1.393 . S
C1020 H1009 0.950 . S
C1020 C1018 1.391 . S
C1020 C1021 1.400 . S
C1021 C1015 1.491 . S
C1021 C1020 1.400 . S
C1021 C1022 1.398 . S
C1022 H1010 0.950 . S
C1022 C1021 1.398 . S
C1022 C1023 1.391 . S
C1023 H1011 0.950 . S
C1023 C1019 1.393 . S
C1023 C1022 1.391 . S
H1024 C1032 0.950 . S
H1025 C1037 0.950 . S
H1026 C1034 0.950 . S
H1027 C1036 0.950 . S
H1028 C1038 0.950 . S
H1029 C1040 0.950 . S
H1030 C1042 0.950 . S
H1031 C1043 0.950 . S
C1032 H1024 0.950 . S
C1032 C1033 1.386 . S
C1032 C1034 1.391 . S
C1033 C1032 1.386 . S
C1033 C1037 1.393 . S
C1034 H1026 0.950 . S
C1034 C1032 1.391 . S
C1034 C1035 1.400 . S
C1035 C1034 1.400 . S
C1035 C1036 1.398 . S
C1035 C1041 1.491 . S
C1036 H1027 0.950 . S
C1036 C1035 1.398 . S
C1036 C1037 1.391 . S
C1037 H1025 0.950 . S
C1037 C1033 1.393 . S
C1037 C1036 1.391 . S
C1038 H1028 0.950 . S
C1038 C1039 1.386 . S
C1038 C1040 1.391 . S
C1039 C1038 1.386 . S
C1039 C1043 1.393 . S
C1040 H1029 0.950 . S
C1040 C1038 1.391 . S
C1040 C1041 1.400 . S
C1041 C1035 1.491 . S
C1041 C1040 1.400 . S
C1041 C1042 1.398 . S
C1042 H1030 0.950 . S
C1042 C1041 1.398 . S
C1042 C1043 1.391 . S
C1043 H1031 0.950 . S
C1043 C1039 1.393 . S
C1043 C1042 1.391 . S
H1044 C1052 0.950 . S
H1045 C1057 0.950 . S
H1046 C1054 0.950 . S
H1047 C1056 0.950 . S
H1048 C1058 0.950 . S
H1049 C1060 0.950 . S
H1050 C1062 0.950 . S
H1051 C1063 0.950 . S
C1052 H1044 0.950 . S
C1052 C1053 1.386 . S
C1052 C1054 1.391 . S
C1053 C1052 1.386 . S
C1053 C1057 1.393 . S
C1054 H1046 0.950 . S
C1054 C1052 1.391 . S
C1054 C1055 1.400 . S
C1055 C1054 1.400 . S
C1055 C1056 1.398 . S
C1055 C1061 1.491 . S
C1056 H1047 0.950 . S
C1056 C1055 1.398 . S
C1056 C1057 1.391 . S
C1057 H1045 0.950 . S
C1057 C1053 1.393 . S
C1057 C1056 1.391 . S
C1058 H1048 0.950 . S
C1058 C1059 1.386 . S
C1058 C1060 1.391 . S
C1059 C1058 1.386 . S
C1059 C1063 1.393 . S
C1060 H1049 0.950 . S
C1060 C1058 1.391 . S
C1060 C1061 1.400 . S
C1061 C1055 1.491 . S
C1061 C1060 1.400 . S
C1061 C1062 1.398 . S
C1062 H1050 0.950 . S
C1062 C1061 1.398 . S
C1062 C1063 1.391 . S
C1063 H1051 0.950 . S
C1063 C1059 1.393 . S
C1063 C1062 1.391 . S
H1064 C1072 0.950 . S
H1065 C1077 0.950 . S
H1066 C1074 0.950 . S
H1067 C1076 0.950 . S
H1068 C1078 0.950 . S
H1069 C1080 0.950 . S
H1070 C1082 0.950 . S
H1071 C1083 0.950 . S
C1072 H1064 0.950 . S
C1072 C1073 1.386 . S
C1072 C1074 1.391 . S
C1073 C1072 1.386 . S
C1073 C1077 1.393 . S
C1074 H1066 0.950 . S
C1074 C1072 1.391 . S
C1074 C1075 1.400 . S
C1075 C1074 1.400 . S
C1075 C1076 1.398 . S
C1075 C1081 1.491 . S
C1076 H1067 0.950 . S
C1076 C1075 1.398 . S
C1076 C1077 1.391 . S
C1077 H1065 0.950 . S
C1077 C1073 1.393 . S
C1077 C1076 1.391 . S
C1078 H1068 0.950 . S
C1078 C1079 1.386 . S
C1078 C1080 1.391 . S
C1079 C1078 1.386 . S
C1079 C1083 1.393 . S
C1080 H1069 0.950 . S
C1080 C1078 1.391 . S
C1080 C1081 1.400 . S
C1081 C1075 1.491 . S
C1081 C1080 1.400 . S
C1081 C1082 1.398 . S
C1082 H1070 0.950 . S
C1082 C1081 1.398 . S
C1082 C1083 1.391 . S
C1083 H1071 0.950 . S
C1083 C1079 1.393 . S
C1083 C1082 1.391 . S
H1084 C1092 0.950 . S
H1085 C1097 0.950 . S
H1086 C1094 0.950 . S
H1087 C1096 0.950 . S
H1088 C1098 0.950 . S
H1089 C1100 0.950 . S
H1090 C1102 0.950 . S
H1091 C1103 0.950 . S
C1092 H1084 0.950 . S
C1092 C1093 1.386 . S
C1092 C1094 1.391 . S
C1093 C1092 1.386 . S
C1093 C1097 1.393 . S
C1094 H1086 0.950 . S
C1094 C1092 1.391 . S
C1094 C1095 1.400 . S
C1095 C1094 1.400 . S
C1095 C1096 1.398 . S
C1095 C1101 1.491 . S
C1096 H1087 0.950 . S
C1096 C1095 1.398 . S
C1096 C1097 1.391 . S
C1097 H1085 0.950 . S
C1097 C1093 1.393 . S
C1097 C1096 1.391 . S
C1098 H1088 0.950 . S
C1098 C1099 1.386 . S
C1098 C1100 1.391 . S
C1099 C1098 1.386 . S
C1099 C1103 1.393 . S
C1100 H1089 0.950 . S
C1100 C1098 1.391 . S
C1100 C1101 1.400 . S
C1101 C1095 1.491 . S
C1101 C1100 1.400 . S
C1101 C1102 1.398 . S
C1102 H1090 0.950 . S
C1102 C1101 1.398 . S
C1102 C1103 1.391 . S
C1103 H1091 0.950 . S
C1103 C1099 1.393 . S
C1103 C1102 1.391 . S
H1104 C1112 0.950 . S
H1105 C1117 0.950 . S
H1106 C1114 0.950 . S
H1107 C1116 0.950 . S
H1108 C1118 0.950 . S
H1109 C1120 0.950 . S
H1110 C1122 0.950 . S
H1111 C1123 0.950 . S
C1112 H1104 0.950 . S
C1112 C1113 1.386 . S
C1112 C1114 1.391 . S
C1113 C1112 1.386 . S
C1113 C1117 1.393 . S
C1114 H1106 0.950 . S
C1114 C1112 1.391 . S
C1114 C1115 1.400 . S
C1115 C1114 1.400 . S
C1115 C1116 1.398 . S
C1115 C1121 1.491 . S
C1116 H1107 0.950 . S
C1116 C1115 1.398 . S
C1116 C1117 1.391 . S
C1117 H1105 0.950 . S
C1117 C1113 1.393 . S
C1117 C1116 1.391 . S
C1118 H1108 0.950 . S
C1118 C1119 1.386 . S
C1118 C1120 1.391 . S
C1119 C1118 1.386 . S
C1119 C1123 1.393 . S
C1120 H1109 0.950 . S
C1120 C1118 1.391 . S
C1120 C1121 1.400 . S
C1121 C1115 1.491 . S
C1121 C1120 1.400 . S
C1121 C1122 1.398 . S
C1122 H1110 0.950 . S
C1122 C1121 1.398 . S
C1122 C1123 1.391 . S
C1123 H1111 0.950 . S
C1123 C1119 1.393 . S
C1123 C1122 1.391 . S
H1124 C1132 0.950 . S
H1125 C1137 0.950 . S
H1126 C1134 0.950 . S
H1127 C1136 0.950 . S
H1128 C1138 0.950 . S
H1129 C1140 0.950 . S
H1130 C1142 0.950 . S
H1131 C1143 0.950 . S
C1132 H1124 0.950 . S
C1132 C1133 1.386 . S
C1132 C1134 1.391 . S
C1133 C1132 1.386 . S
C1133 C1137 1.393 . S
C1134 H1126 0.950 . S
C1134 C1132 1.391 . S
C1134 C1135 1.400 . S
C1135 C1134 1.400 . S
C1135 C1136 1.398 . S
C1135 C1141 1.491 . S
C1136 H1127 0.950 . S
C1136 C1135 1.398 . S
C1136 C1137 1.391 . S
C1137 H1125 0.950 . S
C1137 C1133 1.393 . S
C1137 C1136 1.391 . S
C1138 H1128 0.950 . S
C1138 C1139 1.386 . S
C1138 C1140 1.391 . S
C1139 C1138 1.386 . S
C1139 C1143 1.393 . S
C1140 H1129 0.950 . S
C1140 C1138 1.391 . S
C1140 C1141 1.400 . S
C1141 C1135 1.491 . S
C1141 C1140 1.400 . S
C1141 C1142 1.398 . S
C1142 H1130 0.950 . S
C1142 C1141 1.398 . S
C1142 C1143 1.391 . S
C1143 H1131 0.950 . S
C1143 C1139 1.393 . S
C1143 C1142 1.391 . S
H1144 C1152 0.950 . S
H1145 C1157 0.950 . S
H1146 C1154 0.950 . S
H1147 C1156 0.950 . S
H1148 C1158 0.950 . S
H1149 C1160 0.950 . S
H1150 C1162 0.950 . S
H1151 C1163 0.950 . S
C1152 H1144 0.950 . S
C1152 C1153 1.386 . S
C1152 C1154 1.391 . S
C1153 C1152 1.386 . S
C1153 C1157 1.393 . S
C1154 H1146 0.950 . S
C1154 C1152 1.391 . S
C1154 C1155 1.400 . S
C1155 C1154 1.400 . S
C1155 C1156 1.398 . S
C1155 C1161 1.491 . S
C1156 H1147 0.950 . S
C1156 C1155 1.398 . S
C1156 C1157 1.391 . S
C1157 H1145 0.950 . S
C1157 C1153 1.393 . S
C1157 C1156 1.391 . S
C1158 H1148 0.950 . S
C1158 C1159 1.386 . S
C1158 C1160 1.391 . S
C1159 C1158 1.386 . S
C1159 C1163 1.393 . S
C1160 H1149 0.950 . S
C1160 C1158 1.391 . S
C1160 C1161 1.400 . S
C1161 C1155 1.491 . S
C1161 C1160 1.400 . S
C1161 C1162 1.398 . S
C1162 H1150 0.950 . S
C1162 C1161 1.398 . S
C1162 C1163 1.391 . S
C1163 H1151 0.950 . S
C1163 C1159 1.393 . S
C1163 C1162 1.391 . S
H1164 C1172 0.950 . S
H1165 C1177 0.950 . S
H1166 C1174 0.950 . S
H1167 C1176 0.950 . S
H1168 C1178 0.950 . S
H1169 C1180 0.950 . S
H1170 C1182 0.950 . S
H1171 C1183 0.950 . S
C1172 H1164 0.950 . S
C1172 C1173 1.386 . S
C1172 C1174 1.391 . S
C1173 C1172 1.386 . S
C1173 C1177 1.393 . S
C1174 H1166 0.950 . S
C1174 C1172 1.391 . S
C1174 C1175 1.400 . S
C1175 C1174 1.400 . S
C1175 C1176 1.398 . S
C1175 C1181 1.491 . S
C1176 H1167 0.950 . S
C1176 C1175 1.398 . S
C1176 C1177 1.391 . S
C1177 H1165 0.950 . S
C1177 C1173 1.393 . S
C1177 C1176 1.391 . S
C1178 H1168 0.950 . S
C1178 C1179 1.386 . S
C1178 C1180 1.391 . S
C1179 C1178 1.386 . S
C1179 C1183 1.393 . S
C1180 H1169 0.950 . S
C1180 C1178 1.391 . S
C1180 C1181 1.400 . S
C1181 C1175 1.491 . S
C1181 C1180 1.400 . S
C1181 C1182 1.398 . S
C1182 H1170 0.950 . S
C1182 C1181 1.398 . S
C1182 C1183 1.391 . S
C1183 H1171 0.950 . S
C1183 C1179 1.393 . S
C1183 C1182 1.391 . S
H1184 C1192 0.950 . S
H1185 C1197 0.950 . S
H1186 C1194 0.950 . S
H1187 C1196 0.950 . S
H1188 C1198 0.950 . S
H1189 C1200 0.950 . S
H1190 C1202 0.950 . S
H1191 C1203 0.950 . S
C1192 H1184 0.950 . S
C1192 C1193 1.386 . S
C1192 C1194 1.391 . S
C1193 C1192 1.386 . S
C1193 C1197 1.393 . S
C1194 H1186 0.950 . S
C1194 C1192 1.391 . S
C1194 C1195 1.400 . S
C1195 C1194 1.400 . S
C1195 C1196 1.398 . S
C1195 C1201 1.491 . S
C1196 H1187 0.950 . S
C1196 C1195 1.398 . S
C1196 C1197 1.391 . S
C1197 H1185 0.950 . S
C1197 C1193 1.393 . S
C1197 C1196 1.391 . S
C1198 H1188 0.950 . S
C1198 C1199 1.386 . S
C1198 C1200 1.391 . S
C1199 C1198 1.386 . S
C1199 C1203 1.393 . S
C1200 H1189 0.950 . S
C1200 C1198 1.391 . S
C1200 C1201 1.400 . S
C1201 C1195 1.491 . S
C1201 C1200 1.400 . S
C1201 C1202 1.398 . S
C1202 H1190 0.950 . S
C1202 C1201 1.398 . S
C1202 C1203 1.391 . S
C1203 H1191 0.950 . S
C1203 C1199 1.393 . S
C1203 C1202 1.391 . S
H1204 C1212 0.950 . S
H1205 C1217 0.950 . S
H1206 C1214 0.950 . S
H1207 C1216 0.950 . S
H1208 C1218 0.950 . S
H1209 C1220 0.950 . S
H1210 C1222 0.950 . S
H1211 C1223 0.950 . S
C1212 H1204 0.950 . S
C1212 C1213 1.386 . S
C1212 C1214 1.391 . S
C1213 C1212 1.386 . S
C1213 C1217 1.393 . S
C1214 H1206 0.950 . S
C1214 C1212 1.391 . S
C1214 C1215 1.400 . S
C1215 C1214 1.400 . S
C1215 C1216 1.398 . S
C1215 C1221 1.491 . S
C1216 H1207 0.950 . S
C1216 C1215 1.398 . S
C1216 C1217 1.391 . S
C1217 H1205 0.950 . S
C1217 C1213 1.393 . S
C1217 C1216 1.391 . S
C1218 H1208 0.950 . S
C1218 C1219 1.386 . S
C1218 C1220 1.391 . S
C1219 C1218 1.386 . S
C1219 C1223 1.393 . S
C1220 H1209 0.950 . S
C1220 C1218 1.391 . S
C1220 C1221 1.400 . S
C1221 C1215 1.491 . S
C1221 C1220 1.400 . S
C1221 C1222 1.398 . S
C1222 H1210 0.950 . S
C1222 C1221 1.398 . S
C1222 C1223 1.391 . S
C1223 H1211 0.950 . S
C1223 C1219 1.393 . S
C1223 C1222 1.391 . S
H1224 C1232 0.950 . S
H1225 C1237 0.950 . S
H1226 C1234 0.950 . S
H1227 C1236 0.950 . S
H1228 C1238 0.950 . S
H1229 C1240 0.950 . S
H1230 C1242 0.950 . S
H1231 C1243 0.950 . S
C1232 H1224 0.950 . S
C1232 C1233 1.386 . S
C1232 C1234 1.391 . S
C1233 C1232 1.386 . S
C1233 C1237 1.393 . S
C1234 H1226 0.950 . S
C1234 C1232 1.391 . S
C1234 C1235 1.400 . S
C1235 C1234 1.400 . S
C1235 C1236 1.398 . S
C1235 C1241 1.491 . S
C1236 H1227 0.950 . S
C1236 C1235 1.398 . S
C1236 C1237 1.391 . S
C1237 H1225 0.950 . S
C1237 C1233 1.393 . S
C1237 C1236 1.391 . S
C1238 H1228 0.950 . S
C1238 C1239 1.386 . S
C1238 C1240 1.391 . S
C1239 C1238 1.386 . S
C1239 C1243 1.393 . S
C1240 H1229 0.950 . S
C1240 C1238 1.391 . S
C1240 C1241 1.400 . S
C1241 C1235 1.491 . S
C1241 C1240 1.400 . S
C1241 C1242 1.398 . S
C1242 H1230 0.950 . S
C1242 C1241 1.398 . S
C1242 C1243 1.391 . S
C1243 H1231 0.950 . S
C1243 C1239 1.393 . S
C1243 C1242 1.391 . S
H1244 C1252 0.950 . S
H1245 C1257 0.950 . S
H1246 C1254 0.950 . S
H1247 C1256 0.950 . S
H1248 C1258 0.950 . S
H1249 C1260 0.950 . S
H1250 C1262 0.950 . S
H1251 C1263 0.950 . S
C1252 H1244 0.950 . S
C1252 C1253 1.386 . S
C1252 C1254 1.391 . S
C1253 C1252 1.386 . S
C1253 C1257 1.393 . S
C1254 H1246 0.950 . S
C1254 C1252 1.391 . S
C1254 C1255 1.400 . S
C1255 C1254 1.400 . S
C1255 C1256 1.398 . S
C1255 C1261 1.491 . S
C1256 H1247 0.950 . S
C1256 C1255 1.398 . S
C1256 C1257 1.391 . S
C1257 H1245 0.950 . S
C1257 C1253 1.393 . S
C1257 C1256 1.391 . S
C1258 H1248 0.950 . S
C1258 C1259 1.386 . S
C1258 C1260 1.391 . S
C1259 C1258 1.386 . S
C1259 C1263 1.393 . S
C1260 H1249 0.950 . S
C1260 C1258 1.391 . S
C1260 C1261 1.400 . S
C1261 C1255 1.491 . S
C1261 C1260 1.400 . S
C1261 C1262 1.398 . S
C1262 H1250 0.950 . S
C1262 C1261 1.398 . S
C1262 C1263 1.391 . S
C1263 H1251 0.950 . S
C1263 C1259 1.393 . S
C1263 C1262 1.391 . S
C639 C545 1.423 . S
C633 C53 1.463 . S
C653 C115 1.474 1_545 S
C659 C577 1.432 . S
C673 C177 1.476 . S
C679 C600 1.464 . S
C699 C504 1.466 . S
C693 C239 1.478 . S
C719 C587 1.520 . S
C713 C47 1.576 . S
C739 C616 1.515 . S
C733 C109 1.568 . S
C759 C520 1.537 . S
C753 C171 1.584 . S
C779 C555 1.519 . S
C773 C233 1.574 . S
C793 C29 1.598 . S
C799 C583 1.547 . S
C813 C277 1.585 . S
C819 C558 1.519 . S
C833 C153 1.582 . S
C839 C526 1.522 . S
C859 C615 1.525 . S
C853 C339 1.581 . S
C879 C559 1.437 . S
C873 C35 1.463 . S
C893 C283 1.484 . S
C899 C527 1.448 . S
C913 C159 1.482 . S
C919 C614 1.451 . S
C939 C582 1.442 . S
C933 C345 1.474 1_545 S
C953 C419 1.561 . S
C959 C609 1.646 . S
C973 C301 1.479 . S
C979 C513 1.448 . S
C993 C487 1.465 . S
C999 C536 1.435 . S
C1013 C363 1.470 . S
C1019 C568 1.453 . S
C1039 C523 1.399 . S
C1033 C425 1.493 . S
C1053 C295 1.592 . S
C1059 C552 1.554 . S
C1073 C481 1.598 . S
C1079 C584 1.546 . S
C1099 C619 1.521 . S
C1093 C357 1.575 . S
C1113 C407 1.486 . S
C1119 C519 1.389 . S
C1133 C91 1.586 . S
C1139 C622 1.521 . S
C1153 C463 1.583 . S
C1159 C590 1.527 . S
C1179 C551 1.545 . S
C1173 C215 1.580 . S
C1199 C623 1.640 . S
C1193 C401 1.587 . S
C1219 C591 1.442 . S
C1213 C97 1.471 . S
C1239 C550 1.433 . S
C1233 C469 1.462 . S
C1259 C518 1.450 . S
C1253 C221 1.479 . S
