# Generated by pormake.
# Topology pth, (4,4)-cn, num edge types: 1
# Building blocks:
#     Node 0, Type 0, BuildingBlock: GALJAG_clean_sbu_0, # of connection points: 4
#     Node 1, Type 0, BuildingBlock: GALJAG_clean_sbu_0, # of connection points: 4
#     Node 2, Type 0, BuildingBlock: GALJAG_clean_sbu_0, # of connection points: 4
#     Node 3, Type 1, BuildingBlock: MUDLON_clean_linker_0, # of connection points: 4
#     Node 4, Type 1, BuildingBlock: MUDLON_clean_linker_0, # of connection points: 4
#     Node 5, Type 1, BuildingBlock: MUDLON_clean_linker_0, # of connection points: 4
#     Edge 6, Type (0, 1), BuildingBlock: KIFKEQ_clean_linker_1, # of connection points: 2
#     Edge 7, Type (0, 1), BuildingBlock: KIFKEQ_clean_linker_1, # of connection points: 2
#     Edge 8, Type (0, 1), BuildingBlock: KIFKEQ_clean_linker_1, # of connection points: 2
#     Edge 9, Type (0, 1), BuildingBlock: KIFKEQ_clean_linker_1, # of connection points: 2
#     Edge 10, Type (0, 1), BuildingBlock: KIFKEQ_clean_linker_1, # of connection points: 2
#     Edge 11, Type (0, 1), BuildingBlock: KIFKEQ_clean_linker_1, # of connection points: 2
#     Edge 12, Type (0, 1), BuildingBlock: KIFKEQ_clean_linker_1, # of connection points: 2
#     Edge 13, Type (0, 1), BuildingBlock: KIFKEQ_clean_linker_1, # of connection points: 2
#     Edge 14, Type (0, 1), BuildingBlock: KIFKEQ_clean_linker_1, # of connection points: 2
#     Edge 15, Type (0, 1), BuildingBlock: KIFKEQ_clean_linker_1, # of connection points: 2
#     Edge 16, Type (0, 1), BuildingBlock: KIFKEQ_clean_linker_1, # of connection points: 2
#     Edge 17, Type (0, 1), BuildingBlock: KIFKEQ_clean_linker_1, # of connection points: 2
# Relax obj value: 0.015
# Max RMSD: 0.066
# Mean RMSD: 0.062
data_MOF--net-pth--node1-GALJAG_clean_sbu_0--node2-MUDLON_clean_linker_0--edge1-KIFKEQ_clean_linker_1
_symmetry_space_group_name_H-M    P1
_symmetry_Int_Tables_number       1
_symmetry_cell_setting            triclinic
loop_
_symmetry_equiv_pos_as_xyz
'x, y, z'
_cell_length_a     34.712535
_cell_length_b     34.712379
_cell_length_c     67.324739
_cell_angle_alpha  90.0891
_cell_angle_beta   90.124569
_cell_angle_gamma 119.96893
loop_
_atom_site_label
_atom_site_type_symbol
_atom_site_fract_x
_atom_site_fract_y
_atom_site_fract_z
_atom_type_partial_charge
In0 In 0.99979 0.00119 0.04058 0.0
O1 O 0.96056 0.03251 0.05292 0.0
O2 O 0.02531 0.05468 0.06459 0.0
C3 C 0.93511 0.94244 0.0161 0.0
C4 C 0.0645 0.0615 0.01684 0.0
C5 C 0.00866 0.94387 0.06471 0.0
O6 O 0.92827 0.96534 0.02866 0.0
O7 O 0.9744 0.94946 0.01583 0.0
O8 O 0.03194 0.96011 0.04936 0.0
O9 O 0.98127 0.95691 0.06804 0.0
C10 C 0.99081 0.05816 0.0648 0.0
O11 O 0.07203 0.04065 0.0302 0.0
O12 O 0.02439 0.05172 0.01539 0.0
In13 In 0.99551 0.00247 0.37348 0.0
O14 O 0.02853 0.07426 0.36201 0.0
O15 O 0.96376 0.02791 0.35159 0.0
C16 C 0.05856 0.00461 0.39753 0.0
C17 C 0.9321 0.98995 0.39993 0.0
C18 C 0.99749 0.94638 0.34631 0.0
O19 O 0.06424 0.03859 0.38813 0.0
O20 O 0.02099 0.97028 0.39504 0.0
O21 O 0.96399 0.93542 0.3572 0.0
O22 O 0.02902 0.98559 0.34885 0.0
C23 C 0.9958 0.06728 0.35125 0.0
O24 O 0.92419 0.96433 0.38524 0.0
O25 O 0.97183 0.02114 0.40134 0.0
In26 In 0.99861 0.00948 0.70597 0.0
O27 O 0.96001 0.93802 0.71766 0.0
O28 O 0.94301 0.98486 0.72875 0.0
C29 C 0.05445 0.00122 0.68083 0.0
C30 C 0.94612 0.02421 0.68116 0.0
C31 C 0.05996 0.06764 0.73173 0.0
O32 O 0.02711 0.96944 0.69153 0.0
O33 O 0.05307 0.03669 0.68265 0.0
O34 O 0.03931 0.07882 0.71974 0.0
O35 O 0.04893 0.02712 0.731 0.0
C36 C 0.9353 0.94532 0.7289 0.0
O37 O 0.966 0.04936 0.69573 0.0
O38 O 0.95312 0.99212 0.67903 0.0
H39 H 0.97566 0.6567 0.21881 0.0
N40 N 0.05635 0.66756 0.20763 0.0
H41 H 0.96322 0.69974 0.24431 0.0
H42 H 0.11516 0.72388 0.23365 0.0
H43 H 0.10303 0.76758 0.259 0.0
H44 H 0.11865 0.74143 0.19066 0.0
H45 H 0.10958 0.78201 0.16322 0.0
H46 H 0.98232 0.63727 0.18404 0.0
H47 H 0.97325 0.67652 0.15592 0.0
H48 H 0.99996 0.60346 0.23478 0.0
H49 H 0.0747 0.62221 0.1808 0.0
H50 H 0.97492 0.52499 0.23386 0.0
H51 H 0.0486 0.54269 0.1798 0.0
H52 H 0.89001 0.26996 0.22708 0.0
H53 H 0.90089 0.23333 0.25575 0.0
H54 H 0.03894 0.33659 0.25872 0.0
H55 H 0.02794 0.37231 0.22982 0.0
H56 H 0.02554 0.33667 0.19733 0.0
H57 H 0.03168 0.29425 0.16999 0.0
H58 H 0.8979 0.25558 0.15136 0.0
H59 H 0.89179 0.29785 0.1792 0.0
H60 H 0.90315 0.37839 0.21608 0.0
H61 H 0.92678 0.45769 0.2155 0.0
H62 H 0.05833 0.48765 0.19752 0.0
N63 N 0.95111 0.34042 0.20777 0.0
H64 H 0.03418 0.40865 0.19768 0.0
C65 C 0.04645 0.68685 0.2245 0.0
C66 C 0.00343 0.68011 0.22781 0.0
C67 C 0.99634 0.70461 0.24238 0.0
C68 C 0.03222 0.73699 0.25351 0.0
C69 C 0.07488 0.74287 0.25054 0.0
C70 C 0.0818 0.71781 0.23623 0.0
C71 C 0.0514 0.68646 0.18937 0.0
C72 C 0.08711 0.72681 0.18286 0.0
C73 C 0.08181 0.74982 0.1671 0.0
C74 C 0.04056 0.73271 0.15733 0.0
C75 C 0.00524 0.69113 0.16331 0.0
C76 C 0.01047 0.66836 0.17926 0.0
C77 C 0.0384 0.61966 0.20733 0.0
C78 C 0.01037 0.59116 0.22237 0.0
C79 C 0.99588 0.54568 0.22192 0.0
C80 C 0.00934 0.52737 0.20667 0.0
C81 C 0.03771 0.55568 0.19184 0.0
C82 C 0.05228 0.60116 0.19228 0.0
C83 C 0.95787 0.32377 0.22629 0.0
C84 C 0.92236 0.28504 0.23418 0.0
C85 C 0.92868 0.2643 0.2506 0.0
C86 C 0.97087 0.28198 0.25952 0.0
C87 C 0.00617 0.32182 0.25205 0.0
C88 C 0.99979 0.34252 0.23558 0.0
C89 C 0.958 0.32046 0.19033 0.0
C90 C 0.99775 0.31983 0.18723 0.0
C91 C 0.00129 0.29555 0.17148 0.0
C92 C 0.9652 0.27132 0.15853 0.0
C93 C 0.92609 0.27338 0.16123 0.0
C94 C 0.92263 0.29776 0.17699 0.0
C95 C 0.9666 0.38742 0.20691 0.0
C96 C 0.937 0.40218 0.21194 0.0
C97 C 0.95067 0.44747 0.21171 0.0
C98 C 0.99449 0.47907 0.20648 0.0
C99 C 0.02417 0.46419 0.20135 0.0
C100 C 0.01041 0.41884 0.20155 0.0
H101 H 0.74349 0.11611 0.54668 0.0
N102 N 0.66185 0.05336 0.53694 0.0
H103 H 0.78836 0.11615 0.57466 0.0
H104 H 0.63069 0.9971 0.56934 0.0
H105 H 0.67443 0.99805 0.59762 0.0
H106 H 0.66263 0.97474 0.53714 0.0
H107 H 0.69623 0.94995 0.51207 0.0
H108 H 0.69209 0.08926 0.5015 0.0
H109 H 0.72598 0.06463 0.47627 0.0
H110 H 0.62766 0.10668 0.53602 0.0
H111 H 0.59055 0.96839 0.53867 0.0
H112 H 0.54919 0.08586 0.53592 0.0
H113 H 0.51249 0.94725 0.53983 0.0
H114 H 0.3403 0.03899 0.54957 0.0
H115 H 0.29779 0.04733 0.57619 0.0
H116 H 0.24722 0.91022 0.59289 0.0
H117 H 0.29107 0.90248 0.56631 0.0
H118 H 0.26671 0.90118 0.51925 0.0
H119 H 0.22937 0.91283 0.49103 0.0
H120 H 0.33328 0.05061 0.4885 0.0
H121 H 0.37026 0.03852 0.51689 0.0
H122 H 0.40747 0.03788 0.55521 0.0
H123 H 0.48531 0.05878 0.5553 0.0
H124 H 0.45379 0.94133 0.52081 0.0
N125 N 0.33803 0.9618 0.53851 0.0
H126 H 0.37516 0.91918 0.52192 0.0
C127 C 0.68375 0.05679 0.5557 0.0
C128 C 0.72801 0.09083 0.55801 0.0
C129 C 0.75357 0.09082 0.57407 0.0
C130 C 0.7352 0.05675 0.58832 0.0
C131 C 0.68996 0.02425 0.5867 0.0
C132 C 0.66459 0.02399 0.57051 0.0
C133 C 0.67519 0.03423 0.52122 0.0
C134 C 0.67553 0.99415 0.52375 0.0
C135 C 0.69498 0.98009 0.50945 0.0
C136 C 0.71406 0.00554 0.4923 0.0
C137 C 0.71125 0.04413 0.48926 0.0
C138 C 0.69207 0.05833 0.50364 0.0
C139 C 0.61512 0.03937 0.53749 0.0
C140 C 0.60251 0.07185 0.53683 0.0
C141 C 0.5576 0.05981 0.53693 0.0
C142 C 0.52417 0.01477 0.53794 0.0
C143 C 0.53704 0.9822 0.53869 0.0
C144 C 0.58193 0.9943 0.53824 0.0
C145 C 0.31899 0.96993 0.55596 0.0
C146 C 0.32092 0.01093 0.55916 0.0
C147 C 0.29617 0.01556 0.57432 0.0
C148 C 0.26862 0.97928 0.5865 0.0
C149 C 0.26834 0.93893 0.58387 0.0
C150 C 0.29331 0.93439 0.56871 0.0
C151 C 0.32099 0.9688 0.52016 0.0
C152 C 0.28181 0.9336 0.51231 0.0
C153 C 0.26067 0.94037 0.49617 0.0
C154 C 0.27832 0.98272 0.48755 0.0
C155 C 0.31864 0.01773 0.49495 0.0
C156 C 0.33992 0.01082 0.5111 0.0
C157 C 0.38494 0.97627 0.53877 0.0
C158 C 0.41687 0.01621 0.54783 0.0
C159 C 0.46187 0.02851 0.54767 0.0
C160 C 0.47619 0.00175 0.53812 0.0
C161 C 0.44417 0.96234 0.52874 0.0
C162 C 0.39917 0.94973 0.5292 0.0
H163 H 0.60323 0.70583 0.89952 0.0
N164 N 0.6176 0.66316 0.87022 0.0
H165 H 0.65402 0.74813 0.92674 0.0
H166 H 0.69522 0.66466 0.87974 0.0
H167 H 0.74536 0.70572 0.90695 0.0
H168 H 0.66132 0.632 0.84707 0.0
H169 H 0.70848 0.66998 0.81853 0.0
H170 H 0.62683 0.73486 0.85209 0.0
H171 H 0.67448 0.77357 0.82384 0.0
H172 H 0.53229 0.62627 0.8608 0.0
H173 H 0.63096 0.59387 0.88045 0.0
H174 H 0.47571 0.54739 0.86132 0.0
H175 H 0.57464 0.51554 0.88179 0.0
H176 H 0.31092 0.34026 0.88279 0.0
H177 H 0.25965 0.30079 0.90973 0.0
H178 H 0.34916 0.258 0.93177 0.0
H179 H 0.40099 0.29841 0.90473 0.0
H180 H 0.37203 0.26332 0.85782 0.0
H181 H 0.32202 0.2239 0.83015 0.0
H182 H 0.29879 0.33414 0.82188 0.0
H183 H 0.34785 0.37265 0.84992 0.0
H184 H 0.37707 0.4102 0.88474 0.0
H185 H 0.43381 0.48832 0.88391 0.0
H186 H 0.52854 0.45287 0.86136 0.0
N187 N 0.38767 0.33918 0.87429 0.0
H188 H 0.47162 0.37419 0.86301 0.0
C189 C 0.64523 0.68213 0.88758 0.0
C190 C 0.63387 0.70511 0.90133 0.0
C191 C 0.66287 0.72914 0.91686 0.0
C192 C 0.70394 0.73063 0.91887 0.0
C193 C 0.71433 0.70585 0.9056 0.0
C194 C 0.68537 0.68193 0.8901 0.0
C195 C 0.64041 0.68069 0.85169 0.0
C196 C 0.66327 0.66237 0.84184 0.0
C197 C 0.69055 0.68433 0.8256 0.0
C198 C 0.69547 0.72496 0.81893 0.0
C199 C 0.67104 0.74207 0.82835 0.0
C200 C 0.64386 0.72012 0.84453 0.0
C201 C 0.5857 0.61622 0.87072 0.0
C202 C 0.54162 0.60212 0.86535 0.0
C203 C 0.50933 0.55708 0.86581 0.0
C204 C 0.52047 0.52501 0.87175 0.0
C205 C 0.5649 0.53919 0.87695 0.0
C206 C 0.59724 0.58427 0.87635 0.0
C207 C 0.36003 0.32227 0.89171 0.0
C208 C 0.32016 0.3233 0.8936 0.0
C209 C 0.29058 0.30033 0.90895 0.0
C210 C 0.30008 0.27581 0.92272 0.0
C211 C 0.341 0.2768 0.92145 0.0
C212 C 0.37061 0.29978 0.90604 0.0
C213 C 0.36387 0.32083 0.85594 0.0
C214 C 0.35682 0.27928 0.84974 0.0
C215 C 0.32829 0.2569 0.83388 0.0
C216 C 0.30617 0.27576 0.82382 0.0
C217 C 0.31479 0.3184 0.82949 0.0
C218 C 0.34327 0.3407 0.84542 0.0
C219 C 0.42022 0.386 0.87413 0.0
C220 C 0.41 0.41891 0.87979 0.0
C221 C 0.44255 0.46389 0.87911 0.0
C222 C 0.48588 0.47706 0.87257 0.0
C223 C 0.49581 0.44402 0.86679 0.0
C224 C 0.46331 0.39907 0.86761 0.0
H225 H 0.05224 0.1175 0.09076 0.0
H226 H 0.91966 0.07112 0.0681 0.0
H227 H 0.04525 0.1702 0.11229 0.0
H228 H 0.91289 0.12442 0.08943 0.0
H229 H 0.90086 0.18714 0.1482 0.0
H230 H 0.90654 0.13671 0.12475 0.0
H231 H 0.04081 0.23818 0.11064 0.0
H232 H 0.03511 0.28874 0.1341 0.0
C233 C 0.02165 0.1187 0.09033 0.0
C234 C 0.98645 0.09012 0.07778 0.0
C235 C 0.01777 0.14913 0.10256 0.0
C236 C 0.97856 0.15162 0.10253 0.0
C237 C 0.94336 0.12303 0.08994 0.0
C238 C 0.94729 0.09263 0.07767 0.0
C239 C 0.93132 0.199 0.13984 0.0
C240 C 0.96758 0.24197 0.14306 0.0
C241 C 0.93459 0.17004 0.12641 0.0
C242 C 0.97421 0.18333 0.11591 0.0
C243 C 0.0101 0.22666 0.11877 0.0
C244 C 0.00681 0.25564 0.13218 0.0
H245 H 0.94445 0.03015 0.43587 0.0
H246 H 0.84175 0.94011 0.39553 0.0
H247 H 0.88793 0.02723 0.45824 0.0
H248 H 0.78491 0.93747 0.41797 0.0
H249 H 0.71306 0.00491 0.45156 0.0
H250 H 0.76327 0.99501 0.42935 0.0
H251 H 0.82539 0.97188 0.48003 0.0
H252 H 0.77569 0.98214 0.50218 0.0
C253 C 0.90974 0.00944 0.43187 0.0
C254 C 0.89746 0.98539 0.41397 0.0
C255 C 0.87739 0.00759 0.44472 0.0
C256 C 0.83206 0.98208 0.43983 0.0
C257 C 0.81966 0.95754 0.42203 0.0
C258 C 0.85211 0.95888 0.40927 0.0
C259 C 0.73715 0.99724 0.4579 0.0
C260 C 0.74052 0.9944 0.4786 0.0
C261 C 0.76561 0.99126 0.44521 0.0
C262 C 0.79832 0.9829 0.453 0.0
C263 C 0.80067 0.9786 0.47364 0.0
C264 C 0.77197 0.9841 0.4863 0.0
H265 H 0.87279 0.95215 0.75044 0.0
H266 H 0.9167 0.85962 0.73463 0.0
H267 H 0.81326 0.89499 0.77037 0.0
H268 H 0.85672 0.80209 0.75463 0.0
H269 H 0.7793 0.7376 0.81383 0.0
H270 H 0.83609 0.78781 0.79064 0.0
H271 H 0.74321 0.8231 0.7657 0.0
H272 H 0.68615 0.77245 0.78868 0.0
C273 C 0.86966 0.91953 0.7512 0.0
C274 C 0.89944 0.91037 0.74101 0.0
C275 C 0.83533 0.88668 0.7625 0.0
C276 C 0.83013 0.84396 0.76397 0.0
C277 C 0.86004 0.83478 0.75383 0.0
C278 C 0.89425 0.86763 0.74237 0.0
C279 C 0.77061 0.75523 0.80309 0.0
C280 C 0.72823 0.75125 0.80323 0.0
C281 C 0.80324 0.78411 0.78984 0.0
C282 C 0.79425 0.80976 0.77652 0.0
C283 C 0.75135 0.80437 0.77607 0.0
C284 C 0.71869 0.77537 0.78923 0.0
H285 H 0.05212 0.89842 0.05672 0.0
H286 H 0.9739 0.91639 0.10166 0.0
H287 H 0.05739 0.84398 0.07765 0.0
H288 H 0.98079 0.86362 0.12303 0.0
H289 H 0.96646 0.74009 0.15087 0.0
H290 H 0.95722 0.78789 0.12739 0.0
H291 H 0.09157 0.83736 0.10661 0.0
H292 H 0.09959 0.78703 0.12902 0.0
C293 C 0.03638 0.89097 0.07117 0.0
C294 C 0.01262 0.91161 0.07758 0.0
C295 C 0.03956 0.85991 0.08323 0.0
C296 C 0.0195 0.84923 0.10208 0.0
C297 C 0.99591 0.87021 0.10847 0.0
C298 C 0.99226 0.9008 0.09629 0.0
C299 C 0.9937 0.76028 0.14096 0.0
C300 C 0.03386 0.75965 0.14194 0.0
C301 C 0.98866 0.78839 0.1277 0.0
C302 C 0.02382 0.81705 0.11522 0.0
C303 C 0.06358 0.81559 0.11584 0.0
C304 C 0.06843 0.78708 0.12893 0.0
H305 H 0.1418 0.07396 0.4061 0.0
H306 H 0.05406 0.93394 0.41694 0.0
H307 H 0.19967 0.07168 0.42611 0.0
H308 H 0.11133 0.93179 0.43697 0.0
H309 H 0.23439 0.92981 0.45567 0.0
H310 H 0.18425 0.93761 0.43274 0.0
H311 H 0.21378 0.06093 0.46131 0.0
H312 H 0.26388 0.05309 0.4843 0.0
C313 C 0.13486 0.0428 0.4128 0.0
C314 C 0.09343 0.00414 0.40997 0.0
C315 C 0.16791 0.04151 0.42426 0.0
C316 C 0.16018 0.00147 0.43298 0.0
C317 C 0.11864 0.96296 0.43016 0.0
C318 C 0.08566 0.96429 0.41882 0.0
C319 C 0.23039 0.95872 0.45698 0.0
C320 C 0.25278 0.99059 0.47192 0.0
C321 C 0.20164 0.96317 0.44387 0.0
C322 C 0.19461 0.99959 0.44539 0.0
C323 C 0.2187 0.03264 0.45968 0.0
C324 C 0.24748 0.02817 0.47282 0.0
H325 H 0.08656 0.15543 0.7377 0.0
H326 H 0.11437 0.05221 0.75546 0.0
H327 H 0.1477 0.20874 0.75875 0.0
H328 H 0.17513 0.10528 0.77648 0.0
H329 H 0.3091 0.22123 0.79507 0.0
H330 H 0.24982 0.17245 0.7723 0.0
H331 H 0.16665 0.22222 0.79496 0.0
H332 H 0.22552 0.27047 0.81799 0.0
C333 C 0.10561 0.14413 0.74615 0.0
C334 C 0.0957 0.09968 0.74495 0.0
C335 C 0.14051 0.17459 0.75821 0.0
C336 C 0.16637 0.16124 0.76915 0.0
C337 C 0.15623 0.11671 0.76799 0.0
C338 C 0.1212 0.08624 0.75608 0.0
C339 C 0.27818 0.22179 0.79522 0.0
C340 C 0.27203 0.2496 0.80847 0.0
C341 C 0.24425 0.19385 0.78217 0.0
C342 C 0.20348 0.19326 0.78197 0.0
C343 C 0.19786 0.22222 0.79466 0.0
C344 C 0.2317 0.24999 0.80781 0.0
H345 H 0.91701 0.08391 0.68535 0.0
H346 H 0.90714 0.97941 0.64705 0.0
H347 H 0.86449 0.09221 0.66407 0.0
H348 H 0.85598 0.98856 0.62548 0.0
H349 H 0.73175 0.98091 0.60191 0.0
H350 H 0.78142 0.97418 0.6252 0.0
H351 H 0.85617 0.11711 0.63179 0.0
H352 H 0.8046 0.12375 0.60931 0.0
C353 C 0.9039 0.063 0.67229 0.0
C354 C 0.91599 0.03088 0.6679 0.0
C355 C 0.87396 0.06787 0.66005 0.0
C356 C 0.85569 0.04082 0.64313 0.0
C357 C 0.86857 0.00928 0.63862 0.0
C358 C 0.8982 0.00425 0.6509 0.0
C359 C 0.75807 0.01093 0.60865 0.0
C360 C 0.76402 0.05291 0.6037 0.0
C361 C 0.78711 0.00709 0.62178 0.0
C362 C 0.82323 0.04513 0.63019 0.0
C363 C 0.8286 0.08709 0.62567 0.0
C364 C 0.79929 0.09093 0.6126 0.0
H365 H 0.94184 0.88614 0.99005 0.0
H366 H 0.84954 0.92533 0.01192 0.0
H367 H 0.88507 0.8332 0.96751 0.0
H368 H 0.79282 0.873 0.98893 0.0
H369 H 0.68975 0.74394 0.95778 0.0
H370 H 0.74477 0.79399 0.98197 0.0
H371 H 0.84771 0.83478 0.93767 0.0
H372 H 0.79306 0.78483 0.91369 0.0
C373 C 0.90941 0.88353 0.98998 0.0
C374 C 0.90018 0.91001 0.00268 0.0
C375 C 0.87692 0.85333 0.97699 0.0
C376 C 0.83446 0.84904 0.97631 0.0
C377 C 0.82503 0.87515 0.98922 0.0
C378 C 0.85758 0.90532 0.0023 0.0
C379 C 0.72414 0.76369 0.95325 0.0
C380 C 0.73709 0.76012 0.93387 0.0
C381 C 0.75563 0.79242 0.96707 0.0
C382 C 0.8007 0.81824 0.96179 0.0
C383 C 0.81348 0.81471 0.94238 0.0
C384 C 0.78211 0.78601 0.92862 0.0
H385 H 0.93063 0.86686 0.33208 0.0
H386 H 0.07253 0.95572 0.32948 0.0
H387 H 0.93758 0.81591 0.30921 0.0
H388 H 0.08003 0.90422 0.30765 0.0
H389 H 0.078 0.82707 0.25376 0.0
H390 H 0.06749 0.8772 0.27539 0.0
H391 H 0.96231 0.76419 0.30603 0.0
H392 H 0.97168 0.71415 0.2835 0.0
C393 C 0.9633 0.87533 0.32668 0.0
C394 C 0.00098 0.91536 0.33241 0.0
C395 C 0.9674 0.84601 0.31371 0.0
C396 C 0.00939 0.85587 0.30645 0.0
C397 C 0.04701 0.89584 0.31246 0.0
C398 C 0.04279 0.92535 0.32511 0.0
C399 C 0.05277 0.81307 0.26519 0.0
C400 C 0.02591 0.76686 0.26712 0.0
C401 C 0.04679 0.84175 0.27767 0.0
C402 C 0.0143 0.82492 0.29268 0.0
C403 C 0.98725 0.77847 0.29452 0.0
C404 C 0.99276 0.74974 0.28174 0.0
H405 H 0.06427 0.92878 0.67429 0.0
H406 H 0.11639 0.0658 0.65713 0.0
H407 H 0.11671 0.92336 0.65188 0.0
H408 H 0.16919 0.06069 0.63508 0.0
H409 H 0.21923 0.01962 0.58098 0.0
H410 H 0.16805 0.02452 0.60403 0.0
H411 H 0.19669 0.95098 0.64762 0.0
H412 H 0.24824 0.94608 0.62444 0.0
C413 C 0.08701 0.95774 0.66578 0.0
C414 C 0.0861 0.99763 0.66738 0.0
C415 C 0.11723 0.95474 0.65305 0.0
C416 C 0.14706 0.99157 0.64166 0.0
C417 C 0.14624 0.03151 0.64342 0.0
C418 C 0.1161 0.0345 0.65612 0.0
C419 C 0.21517 0.00502 0.59558 0.0
C420 C 0.23816 0.9828 0.60093 0.0
C421 C 0.18572 0.00777 0.60879 0.0
C422 C 0.17843 0.98832 0.6277 0.0
C423 C 0.20123 0.96589 0.63307 0.0
C424 C 0.2308 0.96315 0.61982 0.0
H425 H 0.05698 0.11546 0.98969 0.0
H426 H 0.15149 0.0826 0.01483 0.0
H427 H 0.11454 0.16968 0.968 0.0
H428 H 0.20892 0.13592 0.99268 0.0
H429 H 0.31165 0.26413 0.96217 0.0
H430 H 0.25525 0.21412 0.98569 0.0
H431 H 0.15557 0.17069 0.9394 0.0
H432 H 0.21156 0.22089 0.91615 0.0
C433 C 0.09006 0.11973 0.99051 0.0
C434 C 0.0997 0.09468 0.00389 0.0
C435 C 0.12303 0.15065 0.97801 0.0
C436 C 0.16636 0.15704 0.97849 0.0
C437 C 0.17609 0.13228 0.99207 0.0
C438 C 0.14311 0.10149 0.00467 0.0
C439 C 0.27764 0.24389 0.95709 0.0
C440 C 0.26599 0.24671 0.93736 0.0
C441 C 0.24535 0.21515 0.97052 0.0
C442 C 0.20079 0.18845 0.96447 0.0
C443 C 0.18931 0.1914 0.94472 0.0
C444 C 0.22145 0.22021 0.93136 0.0
H445 H 0.06285 0.15274 0.3447 0.0
H446 H 0.92508 0.06049 0.33089 0.0
H447 H 0.05934 0.20963 0.3245 0.0
H448 H 0.92166 0.11688 0.31079 0.0
H449 H 0.9164 0.23773 0.29085 0.0
H450 H 0.92447 0.18928 0.31465 0.0
H451 H 0.05036 0.22134 0.28839 0.0
H452 H 0.04214 0.26935 0.26441 0.0
C453 C 0.03187 0.14469 0.3374 0.0
C454 C 0.99428 0.10218 0.33932 0.0
C455 C 0.02989 0.17715 0.32582 0.0
C456 C 0.99014 0.16778 0.31616 0.0
C457 C 0.95255 0.12537 0.31829 0.0
C458 C 0.95463 0.09293 0.32968 0.0
C459 C 0.94588 0.23458 0.29019 0.0
C460 C 0.9784 0.2571 0.27559 0.0
C461 C 0.95052 0.20688 0.30383 0.0
C462 C 0.98785 0.20119 0.30325 0.0
C463 C 0.02141 0.22535 0.28931 0.0
C464 C 0.0167 0.25293 0.27559 0.0
loop_
_geom_bond_atom_site_label_1
_geom_bond_atom_site_label_2
_geom_bond_distance
_geom_bond_site_symmetry_2
_ccdc_geom_bond_type
In0 O1 2.294 1_455 S
In0 O2 2.326 . S
In0 O6 2.266 1_445 S
In0 O7 2.326 1_445 S
In0 O8 2.266 1_545 S
In0 O9 2.326 1_445 S
In0 O11 2.294 . S
In0 O12 2.326 . S
O1 In0 2.294 1_655 S
O1 C10 1.240 1_655 S
O2 In0 2.326 . S
O2 C10 1.252 . S
C3 O6 1.252 . S
C3 O7 1.260 . S
C4 O11 1.240 . S
C4 O12 1.252 . S
C5 O8 1.234 1_655 S
C5 O9 1.289 . S
O6 In0 2.266 1_665 S
O6 C3 1.252 . S
O7 In0 2.326 1_665 S
O7 C3 1.260 . S
O8 In0 2.266 1_565 S
O8 C5 1.234 1_455 S
O9 In0 2.326 1_665 S
O9 C5 1.289 . S
C10 O1 1.240 1_455 S
C10 O2 1.252 . S
O11 In0 2.294 . S
O11 C4 1.240 . S
O12 In0 2.326 . S
O12 C4 1.252 . S
In13 O14 2.292 . S
In13 O15 2.309 1_455 S
In13 O19 2.287 . S
In13 O20 2.340 1_545 S
In13 O21 2.269 1_445 S
In13 O22 2.343 1_545 S
In13 O24 2.273 1_445 S
In13 O25 2.312 1_455 S
O14 In13 2.292 . S
O14 C23 1.240 1_455 S
O15 In13 2.309 1_655 S
O15 C23 1.252 . S
C16 O19 1.228 1_565 S
C16 O20 1.271 . S
C17 O24 1.240 1_545 S
C17 O25 1.252 . S
C18 O21 1.252 1_455 S
C18 O22 1.260 . S
O19 In13 2.287 . S
O19 C16 1.228 1_545 S
O20 In13 2.340 1_565 S
O20 C16 1.271 . S
O21 In13 2.269 1_665 S
O21 C18 1.252 1_655 S
O22 In13 2.343 1_565 S
O22 C18 1.260 . S
C23 O14 1.240 1_655 S
C23 O15 1.252 . S
O24 In13 2.273 1_665 S
O24 C17 1.240 1_565 S
O25 In13 2.312 1_655 S
O25 C17 1.252 . S
In26 O27 2.276 1_445 S
In26 O28 2.308 1_445 S
In26 O32 2.274 1_545 S
In26 O33 2.345 . S
In26 O34 2.285 . S
In26 O35 2.343 . S
In26 O37 2.286 1_455 S
In26 O38 2.307 1_445 S
O27 In26 2.276 1_665 S
O27 C36 1.240 . S
O28 In26 2.308 1_665 S
O28 C36 1.252 . S
C29 O32 1.252 1_545 S
C29 O33 1.260 . S
C30 O37 1.240 1_565 S
C30 O38 1.252 . S
C31 O34 1.252 . S
C31 O35 1.260 . S
O32 In26 2.274 1_565 S
O32 C29 1.252 1_565 S
O33 In26 2.345 . S
O33 C29 1.260 . S
O34 In26 2.285 . S
O34 C31 1.252 . S
O35 In26 2.343 . S
O35 C31 1.260 . S
C36 O27 1.240 . S
C36 O28 1.252 . S
O37 In26 2.286 1_655 S
O37 C30 1.240 1_545 S
O38 In26 2.307 1_665 S
O38 C30 1.252 . S
H39 C66 0.929 . S
N40 C65 1.433 . S
N40 C71 1.435 . S
N40 C77 1.423 . S
H41 C67 0.930 . S
H42 C70 0.931 . S
H43 C69 0.929 . S
H44 C72 0.930 . S
H45 C73 0.932 . S
H46 C76 0.929 . S
H47 C75 0.931 . S
H48 C78 0.929 . S
H49 C82 0.928 1_455 S
H50 C79 0.931 . S
H51 C81 0.929 1_455 S
H52 C84 0.929 . S
H53 C85 0.930 . S
H54 C87 0.929 . S
H55 C88 0.931 . S
H56 C90 0.930 . S
H57 C91 0.932 . S
H58 C93 0.931 . S
H59 C94 0.929 . S
H60 C96 0.929 . S
H61 C97 0.931 . S
H62 C99 0.929 1_455 S
N63 C83 1.433 . S
N63 C89 1.435 . S
N63 C95 1.423 . S
H64 C100 0.922 1_455 S
C65 N40 1.433 . S
C65 C66 1.363 . S
C65 C70 1.370 1_655 S
C66 H39 0.929 . S
C66 C65 1.363 . S
C66 C67 1.385 . S
C67 H41 0.930 . S
C67 C66 1.385 . S
C67 C68 1.357 . S
C68 C67 1.357 . S
C68 C69 1.406 1_655 S
C69 H43 0.929 . S
C69 C68 1.406 1_455 S
C69 C70 1.391 . S
C70 H42 0.931 . S
C70 C65 1.370 1_455 S
C70 C69 1.391 . S
C71 N40 1.435 . S
C71 C72 1.358 1_655 S
C71 C76 1.371 . S
C72 H44 0.930 . S
C72 C71 1.358 1_455 S
C72 C73 1.405 . S
C73 H45 0.932 . S
C73 C72 1.405 . S
C73 C74 1.389 . S
C74 C73 1.389 . S
C74 C75 1.390 1_455 S
C75 H47 0.931 . S
C75 C74 1.390 1_655 S
C75 C76 1.382 . S
C76 H46 0.929 . S
C76 C71 1.371 . S
C76 C75 1.382 . S
C77 N40 1.423 . S
C77 C78 1.362 . S
C77 C82 1.397 . S
C78 H48 0.929 . S
C78 C77 1.362 . S
C78 C79 1.376 . S
C79 H50 0.931 . S
C79 C78 1.376 . S
C79 C80 1.396 . S
C80 C79 1.396 . S
C80 C81 1.348 . S
C80 C98 1.472 . S
C81 H51 0.929 1_655 S
C81 C80 1.348 . S
C81 C82 1.438 . S
C82 H49 0.928 1_655 S
C82 C77 1.397 . S
C82 C81 1.438 . S
C83 N63 1.433 . S
C83 C84 1.363 . S
C83 C88 1.370 1_655 S
C84 H52 0.929 . S
C84 C83 1.363 . S
C84 C85 1.385 . S
C85 H53 0.930 . S
C85 C84 1.385 . S
C85 C86 1.357 . S
C86 C85 1.357 . S
C86 C87 1.406 1_655 S
C87 H54 0.929 . S
C87 C86 1.406 1_455 S
C87 C88 1.391 . S
C88 H55 0.931 . S
C88 C83 1.370 1_455 S
C88 C87 1.391 . S
C89 N63 1.435 . S
C89 C90 1.358 1_655 S
C89 C94 1.371 . S
C90 H56 0.930 . S
C90 C89 1.358 1_455 S
C90 C91 1.405 . S
C91 H57 0.932 . S
C91 C90 1.405 . S
C91 C92 1.391 . S
C92 C91 1.391 . S
C92 C93 1.379 1_455 S
C93 H58 0.931 . S
C93 C92 1.379 1_655 S
C93 C94 1.382 . S
C94 H59 0.929 . S
C94 C89 1.371 . S
C94 C93 1.382 . S
C95 N63 1.423 . S
C95 C96 1.362 . S
C95 C100 1.391 . S
C96 H60 0.929 . S
C96 C95 1.362 . S
C96 C97 1.376 . S
C97 H61 0.931 . S
C97 C96 1.376 . S
C97 C98 1.396 . S
C98 C80 1.472 . S
C98 C97 1.396 . S
C98 C99 1.348 . S
C99 H62 0.929 1_655 S
C99 C98 1.348 . S
C99 C100 1.450 . S
C100 H64 0.922 1_655 S
C100 C95 1.391 . S
C100 C99 1.450 . S
H101 C128 0.929 . S
N102 C127 1.433 . S
N102 C133 1.435 . S
N102 C139 1.423 . S
H103 C129 0.930 . S
H104 C132 0.931 . S
H105 C131 0.929 . S
H106 C134 0.930 . S
H107 C135 0.932 . S
H108 C138 0.929 . S
H109 C137 0.931 . S
H110 C140 0.929 . S
H111 C144 0.932 1_565 S
H112 C141 0.931 . S
H113 C143 0.929 1_565 S
H114 C146 0.929 . S
H115 C147 0.930 . S
H116 C149 0.929 . S
H117 C150 0.931 . S
H118 C152 0.930 . S
H119 C153 0.932 . S
H120 C155 0.931 . S
H121 C156 0.929 . S
H122 C158 0.929 . S
H123 C159 0.931 . S
H124 C161 0.929 1_565 S
N125 C145 1.433 . S
N125 C151 1.435 . S
N125 C157 1.423 . S
H126 C162 0.932 1_565 S
C127 N102 1.433 . S
C127 C128 1.363 . S
C127 C132 1.370 1_545 S
C128 H101 0.929 . S
C128 C127 1.363 . S
C128 C129 1.385 . S
C129 H103 0.930 . S
C129 C128 1.385 . S
C129 C130 1.357 . S
C130 C129 1.357 . S
C130 C131 1.406 1_545 S
C131 H105 0.929 . S
C131 C130 1.406 1_565 S
C131 C132 1.391 . S
C132 H104 0.931 . S
C132 C127 1.370 1_565 S
C132 C131 1.391 . S
C133 N102 1.435 . S
C133 C134 1.358 1_545 S
C133 C138 1.371 . S
C134 H106 0.930 . S
C134 C133 1.358 1_565 S
C134 C135 1.405 . S
C135 H107 0.932 . S
C135 C134 1.405 . S
C135 C136 1.383 1_565 S
C136 C135 1.383 1_545 S
C136 C137 1.393 . S
C137 H109 0.931 . S
C137 C136 1.393 . S
C137 C138 1.382 . S
C138 H108 0.929 . S
C138 C133 1.371 . S
C138 C137 1.382 . S
C139 N102 1.423 . S
C139 C140 1.362 . S
C139 C144 1.388 . S
C140 H110 0.929 . S
C140 C139 1.362 . S
C140 C141 1.376 . S
C141 H112 0.931 . S
C141 C140 1.376 . S
C141 C142 1.396 . S
C142 C141 1.396 . S
C142 C143 1.348 . S
C142 C160 1.472 . S
C143 H113 0.929 1_545 S
C143 C142 1.348 . S
C143 C144 1.443 . S
C144 H111 0.932 1_545 S
C144 C139 1.388 . S
C144 C143 1.443 . S
C145 N125 1.433 . S
C145 C146 1.363 . S
C145 C150 1.370 1_545 S
C146 H114 0.929 . S
C146 C145 1.363 . S
C146 C147 1.385 . S
C147 H115 0.930 . S
C147 C146 1.385 . S
C147 C148 1.357 . S
C148 C147 1.357 . S
C148 C149 1.406 1_545 S
C149 H116 0.929 . S
C149 C148 1.406 1_565 S
C149 C150 1.391 . S
C150 H117 0.931 . S
C150 C145 1.370 1_565 S
C150 C149 1.391 . S
C151 N125 1.435 . S
C151 C152 1.358 1_545 S
C151 C156 1.371 . S
C152 H118 0.930 . S
C152 C151 1.358 1_565 S
C152 C153 1.405 . S
C153 H119 0.932 . S
C153 C152 1.405 . S
C153 C154 1.383 1_565 S
C154 C153 1.383 1_545 S
C154 C155 1.393 . S
C155 H120 0.931 . S
C155 C154 1.393 . S
C155 C156 1.382 . S
C156 H121 0.929 . S
C156 C151 1.371 . S
C156 C155 1.382 . S
C157 N125 1.423 . S
C157 C158 1.362 . S
C157 C162 1.388 . S
C158 H122 0.929 . S
C158 C157 1.362 . S
C158 C159 1.376 . S
C159 H123 0.931 . S
C159 C158 1.376 . S
C159 C160 1.396 . S
C160 C142 1.472 . S
C160 C159 1.396 . S
C160 C161 1.348 . S
C161 H124 0.929 1_545 S
C161 C160 1.348 . S
C161 C162 1.443 . S
C162 H126 0.932 1_545 S
C162 C157 1.388 . S
C162 C161 1.443 . S
H163 C190 0.929 . S
N164 C189 1.433 . S
N164 C195 1.435 . S
N164 C201 1.423 . S
H165 C191 0.930 . S
H166 C194 0.931 . S
H167 C193 0.929 . S
H168 C196 0.930 . S
H169 C197 0.932 . S
H170 C200 0.929 . S
H171 C199 0.931 . S
H172 C202 0.929 . S
H173 C206 0.932 . S
H174 C203 0.931 . S
H175 C205 0.929 . S
H176 C208 0.929 . S
H177 C209 0.930 . S
H178 C211 0.929 . S
H179 C212 0.931 . S
H180 C214 0.930 . S
H181 C215 0.932 . S
H182 C217 0.931 . S
H183 C218 0.929 . S
H184 C220 0.929 . S
H185 C221 0.931 . S
H186 C223 0.929 . S
N187 C207 1.433 . S
N187 C213 1.435 . S
N187 C219 1.423 . S
H188 C224 0.932 . S
C189 N164 1.433 . S
C189 C190 1.363 . S
C189 C194 1.370 . S
C190 H163 0.929 . S
C190 C189 1.363 . S
C190 C191 1.385 . S
C191 H165 0.930 . S
C191 C190 1.385 . S
C191 C192 1.357 . S
C192 C191 1.357 . S
C192 C193 1.406 . S
C193 H167 0.929 . S
C193 C192 1.406 . S
C193 C194 1.391 . S
C194 H166 0.931 . S
C194 C189 1.370 . S
C194 C193 1.391 . S
C195 N164 1.435 . S
C195 C196 1.358 . S
C195 C200 1.371 . S
C196 H168 0.930 . S
C196 C195 1.358 . S
C196 C197 1.405 . S
C197 H169 0.932 . S
C197 C196 1.405 . S
C197 C198 1.383 . S
C198 C197 1.383 . S
C198 C199 1.393 . S
C199 H171 0.931 . S
C199 C198 1.393 . S
C199 C200 1.382 . S
C200 H170 0.929 . S
C200 C195 1.371 . S
C200 C199 1.382 . S
C201 N164 1.423 . S
C201 C202 1.362 . S
C201 C206 1.388 . S
C202 H172 0.929 . S
C202 C201 1.362 . S
C202 C203 1.376 . S
C203 H174 0.931 . S
C203 C202 1.376 . S
C203 C204 1.396 . S
C204 C203 1.396 . S
C204 C205 1.348 . S
C204 C222 1.472 . S
C205 H175 0.929 . S
C205 C204 1.348 . S
C205 C206 1.443 . S
C206 H173 0.932 . S
C206 C201 1.388 . S
C206 C205 1.443 . S
C207 N187 1.433 . S
C207 C208 1.363 . S
C207 C212 1.370 . S
C208 H176 0.929 . S
C208 C207 1.363 . S
C208 C209 1.385 . S
C209 H177 0.930 . S
C209 C208 1.385 . S
C209 C210 1.357 . S
C210 C209 1.357 . S
C210 C211 1.406 . S
C211 H178 0.929 . S
C211 C210 1.406 . S
C211 C212 1.391 . S
C212 H179 0.931 . S
C212 C207 1.370 . S
C212 C211 1.391 . S
C213 N187 1.435 . S
C213 C214 1.358 . S
C213 C218 1.371 . S
C214 H180 0.930 . S
C214 C213 1.358 . S
C214 C215 1.405 . S
C215 H181 0.932 . S
C215 C214 1.405 . S
C215 C216 1.383 . S
C216 C215 1.383 . S
C216 C217 1.393 . S
C217 H182 0.931 . S
C217 C216 1.393 . S
C217 C218 1.382 . S
C218 H183 0.929 . S
C218 C213 1.371 . S
C218 C217 1.382 . S
C219 N187 1.423 . S
C219 C220 1.362 . S
C219 C224 1.388 . S
C220 H184 0.929 . S
C220 C219 1.362 . S
C220 C221 1.376 . S
C221 H185 0.931 . S
C221 C220 1.376 . S
C221 C222 1.396 . S
C222 C204 1.472 . S
C222 C221 1.396 . S
C222 C223 1.348 . S
C223 H186 0.929 . S
C223 C222 1.348 . S
C223 C224 1.443 . S
C224 H188 0.932 . S
C224 C219 1.388 . S
C224 C223 1.443 . S
H225 C233 0.950 . S
H226 C238 0.950 . S
H227 C235 0.950 . S
H228 C237 0.950 . S
H229 C239 0.950 . S
H230 C241 0.950 . S
H231 C243 0.950 . S
H232 C244 0.950 . S
C233 H225 0.950 . S
C233 C234 1.386 . S
C233 C235 1.391 . S
C234 C233 1.386 . S
C234 C238 1.393 1_455 S
C235 H227 0.950 . S
C235 C233 1.391 . S
C235 C236 1.400 . S
C236 C235 1.400 . S
C236 C237 1.398 1_455 S
C236 C242 1.491 . S
C237 H228 0.950 . S
C237 C236 1.398 1_655 S
C237 C238 1.391 . S
C238 H226 0.950 . S
C238 C234 1.393 1_655 S
C238 C237 1.391 . S
C239 H229 0.950 . S
C239 C240 1.386 1_655 S
C239 C241 1.391 . S
C240 C239 1.386 1_455 S
C240 C244 1.393 . S
C241 H230 0.950 . S
C241 C239 1.391 . S
C241 C242 1.400 1_655 S
C242 C236 1.491 . S
C242 C241 1.400 1_455 S
C242 C243 1.398 . S
C243 H231 0.950 . S
C243 C242 1.398 . S
C243 C244 1.391 . S
C244 H232 0.950 . S
C244 C240 1.393 . S
C244 C243 1.391 . S
H245 C253 0.961 . S
H246 C258 0.950 . S
H247 C255 0.950 1_565 S
H248 C257 0.950 . S
H249 C259 0.950 . S
H250 C261 0.950 . S
H251 C263 0.950 . S
H252 C264 0.950 . S
C253 H245 0.961 . S
C253 C254 1.386 . S
C253 C255 1.391 . S
C254 C253 1.386 . S
C254 C258 1.393 . S
C255 H247 0.950 1_545 S
C255 C253 1.391 . S
C255 C256 1.400 . S
C256 C255 1.400 . S
C256 C257 1.398 . S
C256 C262 1.491 . S
C257 H248 0.950 . S
C257 C256 1.398 . S
C257 C258 1.391 . S
C258 H246 0.950 . S
C258 C254 1.393 . S
C258 C257 1.391 . S
C259 H249 0.950 . S
C259 C260 1.386 . S
C259 C261 1.391 . S
C260 C259 1.386 . S
C260 C264 1.393 1_545 S
C261 H250 0.950 . S
C261 C259 1.391 . S
C261 C262 1.400 . S
C262 C256 1.491 . S
C262 C261 1.400 . S
C262 C263 1.398 1_545 S
C263 H251 0.950 . S
C263 C262 1.398 1_565 S
C263 C264 1.391 . S
C264 H252 0.950 . S
C264 C260 1.393 1_565 S
C264 C263 1.391 . S
H265 C273 0.950 . S
H266 C278 0.950 . S
H267 C275 0.950 . S
H268 C277 0.950 . S
H269 C279 0.950 . S
H270 C281 0.950 . S
H271 C283 0.950 . S
H272 C284 0.950 . S
C273 H265 0.950 . S
C273 C274 1.386 . S
C273 C275 1.391 . S
C274 C273 1.386 . S
C274 C278 1.393 . S
C275 H267 0.950 . S
C275 C273 1.391 . S
C275 C276 1.400 . S
C276 C275 1.400 . S
C276 C277 1.398 . S
C276 C282 1.491 . S
C277 H268 0.950 . S
C277 C276 1.398 . S
C277 C278 1.391 . S
C278 H266 0.950 . S
C278 C274 1.393 . S
C278 C277 1.391 . S
C279 H269 0.950 . S
C279 C280 1.386 . S
C279 C281 1.391 . S
C280 C279 1.386 . S
C280 C284 1.393 . S
C281 H270 0.950 . S
C281 C279 1.391 . S
C281 C282 1.400 . S
C282 C276 1.491 . S
C282 C281 1.400 . S
C282 C283 1.398 . S
C283 H271 0.950 . S
C283 C282 1.398 . S
C283 C284 1.391 . S
C284 H272 0.950 . S
C284 C280 1.393 . S
C284 C283 1.391 . S
H285 C293 0.950 . S
H286 C298 0.950 . S
H287 C295 0.950 . S
H288 C297 0.950 . S
H289 C299 0.950 . S
H290 C301 0.950 . S
H291 C303 0.950 . S
H292 C304 0.950 . S
C293 H285 0.950 . S
C293 C294 1.374 1_455 S
C293 C295 1.391 . S
C294 C293 1.374 1_655 S
C294 C298 1.399 . S
C295 H287 0.950 . S
C295 C293 1.391 . S
C295 C296 1.413 . S
C296 C295 1.413 . S
C296 C297 1.376 1_455 S
C296 C302 1.500 . S
C297 H288 0.950 . S
C297 C296 1.376 1_655 S
C297 C298 1.391 . S
C298 H286 0.950 . S
C298 C294 1.399 . S
C298 C297 1.391 . S
C299 H289 0.950 . S
C299 C300 1.386 1_655 S
C299 C301 1.391 . S
C300 C299 1.386 1_455 S
C300 C304 1.393 . S
C301 H290 0.950 . S
C301 C299 1.391 . S
C301 C302 1.400 1_655 S
C302 C296 1.500 . S
C302 C301 1.400 1_455 S
C302 C303 1.398 . S
C303 H291 0.950 . S
C303 C302 1.398 . S
C303 C304 1.391 . S
C304 H292 0.950 . S
C304 C300 1.393 . S
C304 C303 1.391 . S
H305 C313 0.950 . S
H306 C318 0.950 . S
H307 C315 0.950 . S
H308 C317 0.950 . S
H309 C319 0.950 . S
H310 C321 0.950 . S
H311 C323 0.950 . S
H312 C324 0.950 . S
C313 H305 0.950 . S
C313 C314 1.386 1_545 S
C313 C315 1.391 . S
C314 C313 1.386 1_565 S
C314 C318 1.393 . S
C315 H307 0.950 . S
C315 C313 1.391 . S
C315 C316 1.398 . S
C316 C315 1.398 . S
C316 C317 1.400 1_545 S
C316 C322 1.491 . S
C317 H308 0.950 . S
C317 C316 1.400 1_565 S
C317 C318 1.391 . S
C318 H306 0.950 . S
C318 C314 1.393 . S
C318 C317 1.391 . S
C319 H309 0.950 . S
C319 C320 1.386 1_565 S
C319 C321 1.391 . S
C320 C319 1.386 1_545 S
C320 C324 1.393 . S
C321 H310 0.950 . S
C321 C319 1.391 . S
C321 C322 1.400 1_565 S
C322 C316 1.491 . S
C322 C321 1.400 1_545 S
C322 C323 1.398 . S
C323 H311 0.950 . S
C323 C322 1.398 . S
C323 C324 1.391 . S
C324 H312 0.950 . S
C324 C320 1.393 . S
C324 C323 1.391 . S
H325 C333 0.950 . S
H326 C338 0.950 . S
H327 C335 0.950 . S
H328 C337 0.950 . S
H329 C339 0.950 . S
H330 C341 0.950 . S
H331 C343 0.950 . S
H332 C344 0.950 . S
C333 H325 0.950 . S
C333 C334 1.386 . S
C333 C335 1.391 . S
C334 C333 1.386 . S
C334 C338 1.393 . S
C335 H327 0.950 . S
C335 C333 1.391 . S
C335 C336 1.400 . S
C336 C335 1.400 . S
C336 C337 1.398 . S
C336 C342 1.491 . S
C337 H328 0.950 . S
C337 C336 1.398 . S
C337 C338 1.391 . S
C338 H326 0.950 . S
C338 C334 1.393 . S
C338 C337 1.391 . S
C339 H329 0.950 . S
C339 C340 1.386 . S
C339 C341 1.391 . S
C340 C339 1.386 . S
C340 C344 1.393 . S
C341 H330 0.950 . S
C341 C339 1.391 . S
C341 C342 1.400 . S
C342 C336 1.491 . S
C342 C341 1.400 . S
C342 C343 1.398 . S
C343 H331 0.950 . S
C343 C342 1.398 . S
C343 C344 1.391 . S
C344 H332 0.950 . S
C344 C340 1.393 . S
C344 C343 1.391 . S
H345 C353 0.950 . S
H346 C358 0.950 . S
H347 C355 0.950 . S
H348 C357 0.950 . S
H349 C359 0.950 . S
H350 C361 0.950 . S
H351 C363 0.950 . S
H352 C364 0.950 . S
C353 H345 0.950 . S
C353 C354 1.386 1_545 S
C353 C355 1.391 . S
C354 C353 1.386 1_565 S
C354 C358 1.393 . S
C355 H347 0.950 . S
C355 C353 1.391 . S
C355 C356 1.394 1_545 S
C356 C355 1.394 1_565 S
C356 C357 1.411 . S
C356 C362 1.496 . S
C357 H348 0.950 . S
C357 C356 1.411 . S
C357 C358 1.391 . S
C358 H346 0.950 . S
C358 C354 1.393 . S
C358 C357 1.391 . S
C359 H349 0.950 . S
C359 C360 1.386 1_565 S
C359 C361 1.391 . S
C360 C359 1.386 1_545 S
C360 C364 1.393 . S
C361 H350 0.950 . S
C361 C359 1.391 . S
C361 C362 1.412 . S
C362 C356 1.496 . S
C362 C361 1.412 . S
C362 C363 1.375 1_565 S
C363 H351 0.950 . S
C363 C362 1.375 1_545 S
C363 C364 1.391 . S
C364 H352 0.950 . S
C364 C360 1.393 . S
C364 C363 1.391 . S
H365 C373 0.956 . S
H366 C378 0.940 1_554 S
H367 C375 0.950 . S
H368 C377 0.950 . S
H369 C379 0.950 . S
H370 C381 0.950 . S
H371 C383 0.950 . S
H372 C384 0.950 . S
C373 H365 0.956 . S
C373 C374 1.390 . S
C373 C375 1.381 1_554 S
C374 C373 1.390 . S
C374 C378 1.379 1_554 S
C375 H367 0.950 . S
C375 C373 1.381 1_556 S
C375 C376 1.400 . S
C376 C375 1.400 . S
C376 C377 1.398 . S
C376 C382 1.491 . S
C377 H368 0.950 . S
C377 C376 1.398 . S
C377 C378 1.417 . S
C378 H366 0.940 1_556 S
C378 C374 1.379 1_556 S
C378 C377 1.417 . S
C379 H369 0.950 . S
C379 C380 1.386 . S
C379 C381 1.391 . S
C380 C379 1.386 . S
C380 C384 1.393 . S
C381 H370 0.950 . S
C381 C379 1.391 . S
C381 C382 1.400 . S
C382 C376 1.491 . S
C382 C381 1.400 . S
C382 C383 1.398 . S
C383 H371 0.950 . S
C383 C382 1.398 . S
C383 C384 1.391 . S
C384 H372 0.950 . S
C384 C380 1.393 . S
C384 C383 1.391 . S
H385 C393 0.950 . S
H386 C398 0.950 . S
H387 C395 0.950 . S
H388 C397 0.950 . S
H389 C399 0.950 . S
H390 C401 0.950 . S
H391 C403 0.950 . S
H392 C404 0.950 . S
C393 H385 0.950 . S
C393 C394 1.386 1_655 S
C393 C395 1.391 . S
C394 C393 1.386 1_455 S
C394 C398 1.393 . S
C395 H387 0.950 . S
C395 C393 1.391 . S
C395 C396 1.400 1_655 S
C396 C395 1.400 1_455 S
C396 C397 1.398 . S
C396 C402 1.491 . S
C397 H388 0.950 . S
C397 C396 1.398 . S
C397 C398 1.391 . S
C398 H386 0.950 . S
C398 C394 1.393 . S
C398 C397 1.391 . S
C399 H389 0.950 . S
C399 C400 1.386 . S
C399 C401 1.391 . S
C400 C399 1.386 . S
C400 C404 1.393 1_455 S
C401 H390 0.950 . S
C401 C399 1.391 . S
C401 C402 1.400 . S
C402 C396 1.491 . S
C402 C401 1.400 . S
C402 C403 1.398 1_455 S
C403 H391 0.950 . S
C403 C402 1.398 1_655 S
C403 C404 1.391 . S
C404 H392 0.950 . S
C404 C400 1.393 1_655 S
C404 C403 1.391 . S
H405 C413 0.950 . S
H406 C418 0.950 . S
H407 C415 0.950 . S
H408 C417 0.950 . S
H409 C419 0.950 . S
H410 C421 0.950 . S
H411 C423 0.950 . S
H412 C424 0.950 . S
C413 H405 0.950 . S
C413 C414 1.386 1_565 S
C413 C415 1.391 . S
C414 C413 1.386 1_545 S
C414 C418 1.393 . S
C415 H407 0.950 . S
C415 C413 1.391 . S
C415 C416 1.400 1_565 S
C416 C415 1.400 1_545 S
C416 C417 1.398 . S
C416 C422 1.491 . S
C417 H408 0.950 . S
C417 C416 1.398 . S
C417 C418 1.391 . S
C418 H406 0.950 . S
C418 C414 1.393 . S
C418 C417 1.391 . S
C419 H409 0.950 . S
C419 C420 1.386 . S
C419 C421 1.391 . S
C420 C419 1.386 . S
C420 C424 1.393 1_545 S
C421 H410 0.950 . S
C421 C419 1.391 . S
C421 C422 1.400 . S
C422 C416 1.491 . S
C422 C421 1.400 . S
C422 C423 1.398 1_545 S
C423 H411 0.950 . S
C423 C422 1.398 1_565 S
C423 C424 1.391 . S
C424 H412 0.950 . S
C424 C420 1.393 1_565 S
C424 C423 1.391 . S
H425 C433 0.950 . S
H426 C438 0.950 . S
H427 C435 0.950 . S
H428 C437 0.950 . S
H429 C439 0.950 . S
H430 C441 0.950 . S
H431 C443 0.950 . S
H432 C444 0.950 . S
C433 H425 0.950 . S
C433 C434 1.386 1_556 S
C433 C435 1.391 . S
C434 C433 1.386 1_554 S
C434 C438 1.393 . S
C435 H427 0.950 . S
C435 C433 1.391 . S
C435 C436 1.400 . S
C436 C435 1.400 . S
C436 C437 1.398 1_556 S
C436 C442 1.491 . S
C437 H428 0.950 . S
C437 C436 1.398 1_554 S
C437 C438 1.391 . S
C438 H426 0.950 . S
C438 C434 1.393 . S
C438 C437 1.391 . S
C439 H429 0.950 . S
C439 C440 1.386 . S
C439 C441 1.391 . S
C440 C439 1.386 . S
C440 C444 1.393 . S
C441 H430 0.950 . S
C441 C439 1.391 . S
C441 C442 1.400 . S
C442 C436 1.491 . S
C442 C441 1.400 . S
C442 C443 1.398 . S
C443 H431 0.950 . S
C443 C442 1.398 . S
C443 C444 1.391 . S
C444 H432 0.950 . S
C444 C440 1.393 . S
C444 C443 1.391 . S
H445 C453 0.950 . S
H446 C458 0.950 . S
H447 C455 0.950 . S
H448 C457 0.950 . S
H449 C459 0.950 . S
H450 C461 0.950 . S
H451 C463 0.950 . S
H452 C464 0.950 . S
C453 H445 0.950 . S
C453 C454 1.386 1_455 S
C453 C455 1.391 . S
C454 C453 1.386 1_655 S
C454 C458 1.393 . S
C455 H447 0.950 . S
C455 C453 1.391 . S
C455 C456 1.400 1_455 S
C456 C455 1.400 1_655 S
C456 C457 1.398 . S
C456 C462 1.492 1_655 S
C457 H448 0.950 . S
C457 C456 1.398 . S
C457 C458 1.391 . S
C458 H446 0.950 . S
C458 C454 1.393 . S
C458 C457 1.391 . S
C459 H449 0.950 . S
C459 C460 1.386 1_655 S
C459 C461 1.391 . S
C460 C459 1.386 1_455 S
C460 C464 1.393 . S
C461 H450 0.950 . S
C461 C459 1.391 . S
C461 C462 1.396 1_655 S
C462 C456 1.492 1_455 S
C462 C461 1.396 1_455 S
C462 C463 1.400 . S
C463 H451 0.950 . S
C463 C462 1.400 . S
C463 C464 1.391 . S
C464 H452 0.950 . S
C464 C460 1.393 . S
C464 C463 1.391 . S
C240 C92 1.388 . S
C234 C10 1.404 . S
C254 C17 1.404 . S
C260 C136 1.392 . S
C274 C36 1.405 . S
C280 C198 1.384 . S
C294 C5 1.396 . S
C300 C74 1.393 . S
C320 C154 1.395 . S
C314 C16 1.417 . S
C334 C31 1.403 . S
C340 C216 1.393 . S
C360 C130 1.649 . S
C354 C30 1.754 . S
C374 C3 1.752 . S
C380 C192 1.619 . S
C400 C68 1.644 1_455 S
C394 C18 1.756 . S
C420 C148 1.639 . S
C414 C29 1.756 . S
C440 C210 1.626 . S
C434 C4 1.751 . S
C454 C23 1.755 . S
C460 C86 1.647 1_455 S
