# Generated by pormake.
# Topology pth, (4,4)-cn, num edge types: 1
# Building blocks:
#     Node 0, Type 0, BuildingBlock: AZAVOO_clean_sbu_0, # of connection points: 4
#     Node 1, Type 0, BuildingBlock: AZAVOO_clean_sbu_0, # of connection points: 4
#     Node 2, Type 0, BuildingBlock: AZAVOO_clean_sbu_0, # of connection points: 4
#     Node 3, Type 1, BuildingBlock: MUDLON_clean_linker_0, # of connection points: 4
#     Node 4, Type 1, BuildingBlock: MUDLON_clean_linker_0, # of connection points: 4
#     Node 5, Type 1, BuildingBlock: MUDLON_clean_linker_0, # of connection points: 4
#     Edge 6, Type (0, 1), BuildingBlock: TEMPAE_clean_linker_10, # of connection points: 2
#     Edge 7, Type (0, 1), BuildingBlock: TEMPAE_clean_linker_10, # of connection points: 2
#     Edge 8, Type (0, 1), BuildingBlock: TEMPAE_clean_linker_10, # of connection points: 2
#     Edge 9, Type (0, 1), BuildingBlock: TEMPAE_clean_linker_10, # of connection points: 2
#     Edge 10, Type (0, 1), BuildingBlock: TEMPAE_clean_linker_10, # of connection points: 2
#     Edge 11, Type (0, 1), BuildingBlock: TEMPAE_clean_linker_10, # of connection points: 2
#     Edge 12, Type (0, 1), BuildingBlock: TEMPAE_clean_linker_10, # of connection points: 2
#     Edge 13, Type (0, 1), BuildingBlock: TEMPAE_clean_linker_10, # of connection points: 2
#     Edge 14, Type (0, 1), BuildingBlock: TEMPAE_clean_linker_10, # of connection points: 2
#     Edge 15, Type (0, 1), BuildingBlock: TEMPAE_clean_linker_10, # of connection points: 2
#     Edge 16, Type (0, 1), BuildingBlock: TEMPAE_clean_linker_10, # of connection points: 2
#     Edge 17, Type (0, 1), BuildingBlock: TEMPAE_clean_linker_10, # of connection points: 2
# Relax obj value: 0.077
# Max RMSD: 0.215
# Mean RMSD: 0.136
data_MOF--net-pth--node1-AZAVOO_clean_sbu_0--node2-MUDLON_clean_linker_0--edge1-TEMPAE_clean_linker_10
_symmetry_space_group_name_H-M    P1
_symmetry_Int_Tables_number       1
_symmetry_cell_setting            triclinic
loop_
_symmetry_equiv_pos_as_xyz
'x, y, z'
_cell_length_a     33.625048
_cell_length_b     34.254433
_cell_length_c     67.47864
_cell_angle_alpha  90.709411
_cell_angle_beta   92.523162
_cell_angle_gamma 121.7593
loop_
_atom_site_label
_atom_site_type_symbol
_atom_site_fract_x
_atom_site_fract_y
_atom_site_fract_z
_atom_type_partial_charge
Mg0 Mg 0.07892 0.05097 0.02567 0.0
O1 O 0.01204 0.00476 0.00624 0.0
O2 O 0.99735 0.04915 0.98718 0.0
Mg3 Mg 0.0581 0.12362 0.99299 0.0
C4 C 0.98667 0.00975 0.99315 0.0
C5 C 0.07517 -0.00042 0.06376 0.0
O6 O 0.09677 0.04218 0.07094 0.0
O7 O 0.04179 0.07608 0.04472 0.0
O8 O 0.03547 0.12414 0.02459 0.0
O9 O 0.12155 0.04612 0.00258 0.0
O10 O 0.10424 0.09997 0.00417 0.0
C11 C 0.03047 0.10574 0.04139 0.0
C12 C 0.12403 0.08194 0.99511 0.0
O13 O 0.06158 0.99142 0.0455 0.0
Mg14 Mg 0.90666 0.96697 0.3519 0.0
O15 O 0.96793 0.98327 0.3737 0.0
O16 O 0.97488 0.03222 0.39781 0.0
Mg17 Mg 0.9204 0.05131 0.38999 0.0
C18 C 0.98786 0.00718 0.38972 0.0
C19 C 0.91363 0.88822 0.33202 0.0
O20 O 0.88139 0.86455 0.34459 0.0
O21 O 0.9523 0.03597 0.33798 0.0
O22 O 0.95808 0.08518 0.36176 0.0
O23 O 0.85538 0.91257 0.37156 0.0
O24 O 0.87673 0.98572 0.37314 0.0
C25 C 0.96715 0.07682 0.34457 0.0
C26 C 0.85325 0.94546 0.38002 0.0
O27 O 0.93053 0.93118 0.33123 0.0
Mg28 Mg 0.96279 0.9796 0.67818 0.0
O29 O 0.01839 0.03579 0.69957 0.0
O30 O 0.98354 0.04744 0.72433 0.0
Mg31 Mg 0.90455 0.99651 0.71888 0.0
C32 C 0.02037 0.05691 0.71563 0.0
C33 C 0.01946 0.96835 0.64664 0.0
O34 O 0.98718 0.92543 0.64962 0.0
O35 O 0.94271 0.02905 0.66637 0.0
O36 O 0.90368 0.03473 0.69108 0.0
O37 O 0.96608 0.9265 0.69537 0.0
O38 O 0.91772 0.95021 0.70109 0.0
C39 C 0.91889 0.04438 0.67366 0.0
C40 C 0.93432 0.92506 0.70607 0.0
O41 O 0.01835 0.00025 0.65587 0.0
H42 H 0.01266 0.6644 0.20717 0.0
N43 N 0.1067 0.70674 0.20193 0.0
H44 H 0.97614 0.68782 0.23126 0.0
H45 H 0.14945 0.76978 0.23135 0.0
H46 H 0.11334 0.79396 0.25538 0.0
H47 H 0.16993 0.78879 0.18959 0.0
H48 H 0.16049 0.82968 0.16211 0.0
H49 H 0.0333 0.67005 0.17387 0.0
H50 H 0.02337 0.71078 0.14635 0.0
H51 H 0.06747 0.6365 0.22834 0.0
H52 H 0.13263 0.67299 0.17205 0.0
H53 H 0.06369 0.56418 0.22611 0.0
H54 H 0.12837 0.60001 0.16999 0.0
H55 H 0.02136 0.34574 0.20907 0.0
H56 H 0.00405 0.29597 0.23683 0.0
H57 H 0.14888 0.37819 0.25899 0.0
H58 H 0.16629 0.42713 0.23043 0.0
H59 H 0.15983 0.38751 0.18365 0.0
H60 H 0.13707 0.33183 0.15593 0.0
H61 H 0.00445 0.32331 0.14791 0.0
H62 H 0.02729 0.3785 0.17588 0.0
H63 H 0.03168 0.42064 0.20804 0.0
H64 H 0.02669 0.48921 0.20699 0.0
H65 H 0.16848 0.56757 0.18829 0.0
N66 N 0.10832 0.41558 0.19972 0.0
H67 H 0.17309 0.49866 0.18932 0.0
C68 C 0.08394 0.7155 0.21751 0.0
C69 C 0.03482 0.69241 0.21775 0.0
C70 C 0.01401 0.70593 0.2315 0.0
C71 C 0.04184 0.74294 0.24516 0.0
C72 C 0.09088 0.76496 0.24524 0.0
C73 C 0.11162 0.75132 0.23153 0.0
C74 C 0.10241 0.72669 0.18385 0.0
C75 C 0.13831 0.77131 0.17993 0.0
C76 C 0.13283 0.79451 0.16422 0.0
C77 C 0.09105 0.7735 0.15214 0.0
C78 C 0.0557 0.72801 0.15557 0.0
C79 C 0.06135 0.7047 0.17126 0.0
C80 C 0.09817 0.66048 0.1998 0.0
C81 C 0.07941 0.62884 0.21507 0.0
C82 C 0.0774 0.58707 0.21391 0.0
C83 C 0.09531 0.57616 0.1978 0.0
C84 C 0.11419 0.6074 0.1826 0.0
C85 C 0.11601 0.64906 0.18368 0.0
C86 C 0.0954 0.39015 0.2176 0.0
C87 C 0.04934 0.35363 0.21999 0.0
C88 C 0.03941 0.3252 0.23602 0.0
C89 C 0.07515 0.33284 0.25011 0.0
C90 C 0.12071 0.37085 0.24822 0.0
C91 C 0.13065 0.39911 0.23207 0.0
C92 C 0.09562 0.3874 0.18176 0.0
C93 C 0.12623 0.37418 0.17566 0.0
C94 C 0.11312 0.34241 0.15983 0.0
C95 C 0.06889 0.32313 0.14974 0.0
C96 C 0.03853 0.33721 0.15554 0.0
C97 C 0.05177 0.36912 0.17141 0.0
C98 C 0.10316 0.45472 0.19891 0.0
C99 C 0.06171 0.45245 0.20372 0.0
C100 C 0.05888 0.49174 0.20313 0.0
C101 C 0.09717 0.53379 0.19755 0.0
C102 C 0.13815 0.5356 0.1924 0.0
C103 C 0.14101 0.49644 0.19311 0.0
H104 H 0.77195 0.17759 0.52873 0.0
N105 N 0.68162 0.11851 0.51924 0.0
H106 H 0.81579 0.18151 0.5593 0.0
H107 H 0.64266 0.08106 0.55503 0.0
H108 H 0.68594 0.08621 0.58546 0.0
H109 H 0.68867 0.04434 0.5285 0.0
H110 H 0.71403 0.00494 0.50704 0.0
H111 H 0.70136 0.13332 0.48133 0.0
H112 H 0.72422 0.09222 0.45926 0.0
H113 H 0.64374 0.16786 0.5101 0.0
H114 H 0.60782 0.0311 0.52425 0.0
H115 H 0.56041 0.14094 0.50535 0.0
H116 H 0.52514 0.00445 0.52065 0.0
H117 H 0.32904 0.07186 0.51661 0.0
H118 H 0.28741 0.08018 0.54349 0.0
H119 H 0.26567 0.9548 0.56788 0.0
H120 H 0.30789 0.94698 0.54096 0.0
H121 H 0.25358 0.92911 0.49697 0.0
H122 H 0.20077 0.92992 0.47156 0.0
H123 H 0.3117 0.06412 0.4549 0.0
H124 H 0.36299 0.06423 0.48165 0.0
H125 H 0.40826 0.0868 0.51998 0.0
H126 H 0.49176 0.11627 0.52199 0.0
H127 H 0.46401 0.98642 0.4974 0.0
N128 N 0.33766 0.99798 0.50928 0.0
H129 H 0.38002 0.95625 0.49674 0.0
C130 C 0.70404 0.12831 0.53907 0.0
C131 C 0.75287 0.15844 0.54124 0.0
C132 C 0.77789 0.16072 0.55877 0.0
C133 C 0.75439 0.13328 0.57465 0.0
C134 C 0.70516 0.10672 0.57325 0.0
C135 C 0.68021 0.10393 0.55566 0.0
C136 C 0.694 0.0926 0.50659 0.0
C137 C 0.6966 0.05526 0.51345 0.0
C138 C 0.71069 0.03234 0.50106 0.0
C139 C 0.72164 0.04559 0.48144 0.0
C140 C 0.71725 0.0818 0.47443 0.0
C141 C 0.70385 0.10514 0.48693 0.0
C142 C 0.63214 0.10182 0.51766 0.0
C143 C 0.61782 0.13219 0.51243 0.0
C144 C 0.57018 0.1167 0.5098 0.0
C145 C 0.53578 0.07038 0.51254 0.0
C146 C 0.55038 0.04007 0.51794 0.0
C147 C 0.59789 0.05542 0.52023 0.0
C148 C 0.32131 0.0085 0.52678 0.0
C149 C 0.31638 0.04678 0.528 0.0
C150 C 0.29232 0.05136 0.5433 0.0
C151 C 0.27287 0.01788 0.55765 0.0
C152 C 0.28057 0.98133 0.55712 0.0
C153 C 0.30456 0.97673 0.54178 0.0
C154 C 0.31211 0.99631 0.49123 0.0
C155 C 0.2667 0.95821 0.48751 0.0
C156 C 0.23658 0.95878 0.47282 0.0
C157 C 0.25154 0.99727 0.46106 0.0
C158 C 0.29838 0.03429 0.46391 0.0
C159 C 0.32818 0.03414 0.47903 0.0
C160 C 0.38762 0.01866 0.50863 0.0
C161 C 0.41992 0.0645 0.51509 0.0
C162 C 0.46802 0.08159 0.51603 0.0
C163 C 0.48489 0.05358 0.51016 0.0
C164 C 0.45243 0.00863 0.50264 0.0
C165 C 0.40441 0.99139 0.50203 0.0
H166 H 0.6971 0.69877 0.86405 0.0
N167 N 0.71736 0.63102 0.86595 0.0
H168 H 0.72351 0.76161 0.88885 0.0
H169 H 0.7473 0.63342 0.90326 0.0
H170 H 0.77208 0.69545 0.92846 0.0
H171 H 0.80753 0.66779 0.85978 0.0
H172 H 0.85028 0.71383 0.83188 0.0
H173 H 0.67881 0.64649 0.83244 0.0
H174 H 0.72095 0.69191 0.80476 0.0
H175 H 0.62896 0.61583 0.85993 0.0
H176 H 0.70712 0.5491 0.86574 0.0
H177 H 0.55705 0.54159 0.85208 0.0
H178 H 0.63528 0.47443 0.8592 0.0
H179 H 0.35397 0.32594 0.85159 0.0
H180 H 0.30251 0.2836 0.87778 0.0
H181 H 0.38767 0.2271 0.89309 0.0
H182 H 0.43923 0.26939 0.86639 0.0
H183 H 0.4102 0.24905 0.81704 0.0
H184 H 0.35043 0.21243 0.78975 0.0
H185 H 0.3232 0.3222 0.79444 0.0
H186 H 0.38513 0.35984 0.82091 0.0
H187 H 0.43038 0.39483 0.85739 0.0
H188 H 0.49971 0.47089 0.86425 0.0
H189 H 0.58217 0.42939 0.83311 0.0
N190 N 0.42819 0.32042 0.83994 0.0
H191 H 0.51303 0.35236 0.82752 0.0
C192 C 0.72124 0.66183 0.88171 0.0
C193 C 0.71245 0.69713 0.8782 0.0
C194 C 0.7274 0.73298 0.89237 0.0
C195 C 0.74997 0.7333 0.91043 0.0
C196 C 0.75447 0.69574 0.91467 0.0
C197 C 0.74043 0.66042 0.90034 0.0
C198 C 0.74 0.65321 0.84821 0.0
C199 C 0.78842 0.67233 0.84762 0.0
C200 C 0.81274 0.69881 0.83179 0.0
C201 C 0.78889 0.70639 0.81617 0.0
C202 C 0.74015 0.68609 0.81646 0.0
C203 C 0.71594 0.65998 0.83235 0.0
C204 C 0.67349 0.58784 0.86315 0.0
C205 C 0.63052 0.58508 0.85972 0.0
C206 C 0.58932 0.54247 0.85537 0.0
C207 C 0.59025 0.50182 0.8547 0.0
C208 C 0.63321 0.50491 0.85895 0.0
C209 C 0.6743 0.54747 0.86295 0.0
C210 C 0.40049 0.30051 0.85687 0.0
C211 C 0.36199 0.30476 0.86053 0.0
C212 C 0.33237 0.28038 0.8755 0.0
C213 C 0.34086 0.25173 0.88725 0.0
C214 C 0.38044 0.24904 0.88421 0.0
C215 C 0.40985 0.27312 0.86905 0.0
C216 C 0.40139 0.30648 0.8212 0.0
C217 C 0.39236 0.26588 0.81168 0.0
C218 C 0.35781 0.2448 0.79628 0.0
C219 C 0.331 0.26365 0.79032 0.0
C220 C 0.34303 0.30663 0.79868 0.0
C221 C 0.37828 0.32811 0.81392 0.0
C222 C 0.4668 0.36739 0.8423 0.0
C223 C 0.46329 0.40189 0.85209 0.0
C224 C 0.50312 0.44577 0.85586 0.0
C225 C 0.54697 0.45628 0.84958 0.0
C226 C 0.54948 0.42229 0.83878 0.0
C227 C 0.50992 0.37836 0.83534 0.0
C228 C 0.00211 0.15478 0.05455 0.0
C229 C 0.01838 0.12513 0.05818 0.0
C230 C 0.0016 0.18241 0.06992 0.0
C231 C 0.01799 0.18048 0.08933 0.0
C232 C 0.03011 0.14746 0.09344 0.0
C233 C 0.02995 0.11997 0.0778 0.0
C234 C 0.98747 0.21651 0.06499 0.0
C235 C 0.04745 0.14409 0.11398 0.0
C236 C 0.08642 0.29265 0.11971 0.0
C237 C 0.0544 0.28755 0.1336 0.0
C238 C 0.07468 0.25814 0.10518 0.0
C239 C 0.0296 0.21753 0.1044 0.0
C240 C 0.99661 0.21254 0.11805 0.0
C241 C 0.00945 0.24763 0.13254 0.0
C242 C 0.11085 0.26494 0.09082 0.0
C243 C 0.9482 0.16984 0.11758 0.0
H244 H 0.99233 0.15844 0.03948 0.0
H245 H 0.04228 0.09694 0.0808 0.0
H246 H 0.96517 0.21734 0.07642 0.0
H247 H 0.01932 0.25144 0.06481 0.0
H248 H 0.9682 0.20841 0.05024 0.0
H249 H 0.04855 0.11239 0.11539 0.0
H250 H 0.08337 0.17423 0.11728 0.0
H251 H 0.02487 0.14461 0.12534 0.0
H252 H 0.12092 0.32372 0.12026 0.0
H253 H 0.9847 0.24328 0.14337 0.0
H254 H 0.09705 0.26278 0.07534 0.0
H255 H 0.11851 0.23726 0.09223 0.0
H256 H 0.14419 0.29862 0.0934 0.0
H257 H 0.93092 0.16298 0.10247 0.0
H258 H 0.92561 0.17267 0.12831 0.0
H259 H 0.9508 0.13973 0.1212 0.0
C260 C 0.78194 0.93456 0.3938 0.0
C261 C 0.82533 0.93868 0.39709 0.0
C262 C 0.76105 0.94365 0.40924 0.0
C263 C 0.78444 0.95726 0.42833 0.0
C264 C 0.82616 0.95711 0.43209 0.0
C265 C 0.84653 0.94832 0.41628 0.0
C266 C 0.71676 0.94369 0.40451 0.0
C267 C 0.85167 0.97056 0.45232 0.0
C268 C 0.77381 0.0485 0.4554 0.0
C269 C 0.73864 0.02261 0.46844 0.0
C270 C 0.78938 0.02758 0.44254 0.0
C271 C 0.77006 0.97957 0.44298 0.0
C272 C 0.73573 0.95332 0.45655 0.0
C273 C 0.72007 0.97508 0.469 0.0
C274 C 0.82594 0.05688 0.42819 0.0
C275 C 0.71499 0.90223 0.45765 0.0
H276 H 0.76625 0.92794 0.37879 0.0
H277 H 0.88063 0.95232 0.41862 0.0
H278 H 0.69158 0.92689 0.41622 0.0
H279 H 0.72542 0.97971 0.40399 0.0
H280 H 0.69942 0.92589 0.38998 0.0
H281 H 0.87757 0.95982 0.45382 0.0
H282 H 0.87067 0.00845 0.45468 0.0
H283 H 0.82665 0.9551 0.46419 0.0
H284 H 0.78933 0.08537 0.45521 0.0
H285 H 0.69264 0.95464 0.47891 0.0
H286 H 0.81167 0.04461 0.4127 0.0
H287 H 0.85706 0.05386 0.43054 0.0
H288 H 0.83752 0.09375 0.42982 0.0
H289 H 0.69383 0.8845 0.44372 0.0
H290 H 0.69221 0.88761 0.47033 0.0
H291 H 0.74327 0.89469 0.45911 0.0
C292 C 0.93515 0.86727 0.72809 0.0
C293 C 0.91754 0.89532 0.7233 0.0
C294 C 0.91725 0.83653 0.74352 0.0
C295 C 0.88103 0.83398 0.75444 0.0
C296 C 0.86391 0.86299 0.74999 0.0
C297 C 0.88225 0.89319 0.73442 0.0
C298 C 0.93629 0.80604 0.74783 0.0
C299 C 0.82545 0.86141 0.76139 0.0
C300 C 0.79777 0.72519 0.78031 0.0
C301 C 0.81484 0.73748 0.80015 0.0
C302 C 0.81986 0.75582 0.76519 0.0
C303 C 0.85976 0.7999 0.77008 0.0
C304 C 0.87789 0.81206 0.79003 0.0
C305 C 0.85525 0.78061 0.80483 0.0
C306 C 0.79979 0.74145 0.74405 0.0
C307 C 0.92022 0.85883 0.79582 0.0
H308 H 0.96239 0.86866 0.71955 0.0
H309 H 0.86826 0.91453 0.73077 0.0
H310 H 0.94862 0.81036 0.76368 0.0
H311 H 0.90804 0.76948 0.74509 0.0
H312 H 0.96576 0.81355 0.73851 0.0
H313 H 0.81754 0.88769 0.75668 0.0
H314 H 0.79298 0.82697 0.75917 0.0
H315 H 0.83554 0.86694 0.77752 0.0
H316 H 0.76682 0.69166 0.77663 0.0
H317 H 0.86822 0.79043 0.8202 0.0
H318 H 0.82735 0.74586 0.73422 0.0
H319 H 0.78715 0.76373 0.73865 0.0
H320 H 0.77017 0.70511 0.74259 0.0
H321 H 0.94992 0.86593 0.78678 0.0
H322 H 0.93154 0.86193 0.81178 0.0
H323 H 0.91204 0.8857 0.79278 0.0
C324 C 0.08636 0.97179 0.09639 0.0
C325 C 0.07075 0.96243 0.0763 0.0
C326 C 0.0861 0.93809 0.10808 0.0
C327 C 0.06991 0.89394 0.09947 0.0
C328 C 0.05273 0.88377 0.07937 0.0
C329 C 0.05329 0.91813 0.06802 0.0
C330 C 0.10442 0.95016 0.12952 0.0
C331 C 0.03508 0.83705 0.06969 0.0
C332 C 0.1196 0.82915 0.1248 0.0
C333 C 0.08353 0.80034 0.13696 0.0
C334 C 0.1149 0.85858 0.11198 0.0
C335 C 0.07315 0.85931 0.11134 0.0
C336 C 0.03587 0.82901 0.12299 0.0
C337 C 0.04149 0.79984 0.13566 0.0
C338 C 0.1553 0.89008 0.09965 0.0
C339 C 0.99084 0.82881 0.12272 0.0
H340 H 0.09969 0.00582 0.10294 0.0
H341 H 0.04106 0.91054 0.05251 0.0
H342 H 0.0779 0.92514 0.13934 0.0
H343 H 0.13616 0.94812 0.13175 0.0
H344 H 0.11355 0.98526 0.13423 0.0
H345 H 0.02015 0.83374 0.0543 0.0
H346 H 0.06427 0.83085 0.06923 0.0
H347 H 0.00782 0.80975 0.07854 0.0
H348 H 0.15191 0.82921 0.12558 0.0
H349 H 0.01368 0.778 0.14517 0.0
H350 H 0.16958 0.92635 0.10454 0.0
H351 H 0.14309 0.88624 0.0838 0.0
H352 H 0.18408 0.88316 0.10088 0.0
H353 H 0.99789 0.86197 0.12917 0.0
H354 H 0.9638 0.8005 0.1313 0.0
H355 H 0.9765 0.82535 0.10723 0.0
C356 C 0.06161 0.00737 0.3871 0.0
C357 C 0.02795 0.00641 0.39896 0.0
C358 C 0.1005 0.00751 0.39567 0.0
C359 C 0.10469 0.00482 0.4165 0.0
C360 C 0.07024 0.00304 0.42849 0.0
C361 C 0.03271 0.00476 0.41959 0.0
C362 C 0.13738 0.01122 0.38248 0.0
C363 C 0.07268 0.9987 0.4507 0.0
C364 C 0.17862 0.96009 0.43814 0.0
C365 C 0.21707 9e-05 0.44733 0.0
C366 C 0.14209 0.96119 0.42783 0.0
C367 C 0.1449 0.00362 0.42586 0.0
C368 C 0.18502 0.04457 0.43382 0.0
C369 C 0.22016 0.04225 0.44475 0.0
C370 C 0.09947 0.9166 0.41988 0.0
C371 C 0.19007 0.09073 0.43143 0.0
H372 H 0.05806 0.0091 0.37114 0.0
H373 H 0.0064 0.00368 0.4287 0.0
H374 H 0.17209 0.04156 0.38738 0.0
H375 H 0.14017 0.9805 0.38372 0.0
H376 H 0.12961 0.01453 0.36663 0.0
H377 H 0.042 0.9957 0.45776 0.0
H378 H 0.0744 0.96799 0.4541 0.0
H379 H 0.10498 0.0291 0.45752 0.0
H380 H 0.17629 0.92747 0.43944 0.0
H381 H 0.24909 0.07344 0.45189 0.0
H382 H 0.09281 0.91834 0.40378 0.0
H383 H 0.06815 0.91078 0.42737 0.0
H384 H 0.10321 0.88662 0.42223 0.0
H385 H 0.18225 0.09488 0.41572 0.0
H386 H 0.22583 0.11966 0.43617 0.0
H387 H 0.16456 0.09301 0.44048 0.0
C388 C 0.10805 0.10033 0.71635 0.0
C389 C 0.06701 0.09242 0.72468 0.0
C390 C 0.15238 0.1314 0.72549 0.0
C391 C 0.15581 0.15528 0.74336 0.0
C392 C 0.11473 0.14894 0.75142 0.0
C393 C 0.07081 0.11751 0.74201 0.0
C394 C 0.19537 0.1371 0.71648 0.0
C395 C 0.11703 0.17402 0.77041 0.0
C396 C 0.2582 0.18884 0.78009 0.0
C397 C 0.28762 0.23606 0.77726 0.0
C398 C 0.2157 0.16222 0.76891 0.0
C399 C 0.20179 0.18331 0.75465 0.0
C400 C 0.23131 0.23084 0.75155 0.0
C401 C 0.27398 0.2567 0.76289 0.0
C402 C 0.18525 0.11159 0.77266 0.0
C403 C 0.21749 0.25442 0.73647 0.0
H404 H 0.10563 0.08135 0.70291 0.0
H405 H 0.0394 0.11199 0.74849 0.0
H406 H 0.22197 0.17404 0.71504 0.0
H407 H 0.2114 0.12282 0.7264 0.0
H408 H 0.18714 0.11935 0.70162 0.0
H409 H 0.08241 0.16852 0.77374 0.0
H410 H 0.12953 0.1619 0.783 0.0
H411 H 0.14245 0.21144 0.7695 0.0
H412 H 0.26774 0.17273 0.79149 0.0
H413 H 0.2966 0.29309 0.76054 0.0
H414 H 0.1776 0.09096 0.75865 0.0
H415 H 0.15123 0.10395 0.77802 0.0
H416 H 0.20191 0.1002 0.78383 0.0
H417 H 0.21093 0.23733 0.72158 0.0
H418 H 0.2448 0.2914 0.73553 0.0
H419 H 0.18435 0.25148 0.74041 0.0
C420 C 0.91521 0.07619 0.64086 0.0
C421 C 0.90448 0.07033 0.66089 0.0
C422 C 0.89533 0.09371 0.6278 0.0
C423 C 0.86408 0.10578 0.63495 0.0
C424 C 0.85598 0.10333 0.65542 0.0
C425 C 0.87624 0.08559 0.66815 0.0
C426 C 0.90508 0.09607 0.60608 0.0
C427 C 0.82323 0.11629 0.66364 0.0
C428 C 0.8231 0.16536 0.59977 0.0
C429 C 0.78098 0.12781 0.59143 0.0
C430 C 0.85023 0.1591 0.61435 0.0
C431 C 0.83485 0.11427 0.62063 0.0
C432 C 0.79185 0.07649 0.61261 0.0
C433 C 0.7656 0.08371 0.59811 0.0
C434 C 0.89581 0.20018 0.62266 0.0
C435 C 0.77417 0.02807 0.61888 0.0
H436 H 0.93737 0.06501 0.63511 0.0
H437 H 0.86815 0.0818 0.68364 0.0
H438 H 0.87334 0.06882 0.59746 0.0
H439 H 0.9134 0.12958 0.60031 0.0
H440 H 0.93458 0.09121 0.60335 0.0
H441 H 0.82624 0.1192 0.68013 0.0
H442 H 0.83037 0.14939 0.65783 0.0
H443 H 0.78655 0.08967 0.65883 0.0
H444 H 0.83506 0.19956 0.59475 0.0
H445 H 0.7337 0.05433 0.59146 0.0
H446 H 0.9255 0.19713 0.61825 0.0
H447 H 0.89689 0.20135 0.63912 0.0
H448 H 0.90112 0.23306 0.61732 0.0
H449 H 0.79915 0.01779 0.61487 0.0
H450 H 0.73914 0.00275 0.61176 0.0
H451 H 0.77184 0.02633 0.63522 0.0
C452 C 0.94617 0.92798 0.98102 0.0
C453 C 0.94552 0.9683 0.98351 0.0
C454 C 0.90986 0.88976 0.97006 0.0
C455 C 0.87124 0.89141 0.96192 0.0
C456 C 0.86915 0.93115 0.96533 0.0
C457 C 0.90678 0.9695 0.97581 0.0
C458 C 0.91406 0.84851 0.96635 0.0
C459 C 0.82784 0.9336 0.95746 0.0
C460 C 0.81143 0.81584 0.91547 0.0
C461 C 0.77563 0.77554 0.92331 0.0
C462 C 0.84181 0.85444 0.92782 0.0
C463 C 0.8354 0.85302 0.94846 0.0
C464 C 0.7974 0.81331 0.95627 0.0
C465 C 0.76839 0.77459 0.94362 0.0
C466 C 0.88252 0.8956 0.91893 0.0
C467 C 0.78855 0.81108 0.97808 0.0
H468 H 0.97622 0.92705 0.98684 0.0
H469 H 0.906 0.00052 0.9779 0.0
H470 H 0.88273 0.81696 0.97127 0.0
H471 H 0.91578 0.84358 0.95019 0.0
H472 H 0.94571 0.85222 0.97417 0.0
H473 H 0.82875 0.96439 0.96352 0.0
H474 H 0.82769 0.93486 0.94104 0.0
H475 H 0.79454 0.90239 0.9612 0.0
H476 H 0.81734 0.81621 0.89978 0.0
H477 H 0.74064 0.74329 0.94963 0.0
H478 H 0.91593 0.90013 0.92508 0.0
H479 H 0.88295 0.92732 0.92292 0.0
H480 H 0.88127 0.89199 0.90249 0.0
H481 H 0.81612 0.80892 0.98671 0.0
H482 H 0.7539 0.78078 0.98124 0.0
H483 H 0.79021 0.84271 0.98342 0.0
C484 C 0.91052 0.81753 0.31946 0.0
C485 C 0.93085 0.86531 0.31929 0.0
C486 C 0.92693 0.79545 0.3077 0.0
C487 C 0.96465 0.8218 0.29553 0.0
C488 C 0.9853 0.87001 0.29527 0.0
C489 C 0.96809 0.89118 0.30713 0.0
C490 C 0.90392 0.74394 0.30828 0.0
C491 C 0.0257 0.89927 0.28252 0.0
C492 C 0.0376 0.77437 0.27825 0.0
C493 C 0.02005 0.76029 0.25853 0.0
C494 C 0.01936 0.79375 0.29058 0.0
C495 C 0.9826 0.79905 0.28301 0.0
C496 C 0.96399 0.78394 0.26327 0.0
C497 C 0.98299 0.76483 0.25126 0.0
C498 C 0.04002 0.80937 0.31159 0.0
C499 C 0.92475 0.78898 0.25469 0.0
H500 H 0.8817 0.79727 0.3288 0.0
H501 H 0.98408 0.92811 0.30694 0.0
H502 H 0.88987 0.72802 0.29318 0.0
H503 H 0.93019 0.73524 0.31313 0.0
H504 H 0.87484 0.72841 0.31848 0.0
H505 H 0.03787 0.93631 0.28403 0.0
H506 H 0.05557 0.89517 0.28666 0.0
H507 H 0.01519 0.88779 0.26669 0.0
H508 H 0.06582 0.77042 0.28403 0.0
H509 H 0.9697 0.75468 0.23595 0.0
H510 H 0.0121 0.79254 0.32224 0.0
H511 H 0.05567 0.84699 0.31359 0.0
H512 H 0.06749 0.80152 0.31539 0.0
H513 H 0.89448 0.77245 0.26422 0.0
H514 H 0.91271 0.7735 0.23939 0.0
H515 H 0.93665 0.82593 0.25432 0.0
C516 C 0.0565 0.94415 0.62201 0.0
C517 C 0.05799 0.97915 0.63364 0.0
C518 C 0.09337 0.95341 0.61009 0.0
C519 C 0.13286 0.99872 0.6099 0.0
C520 C 0.13462 0.03425 0.62158 0.0
C521 C 0.09704 0.02408 0.63326 0.0
C522 C 0.09005 0.91467 0.59768 0.0
C523 C 0.17631 0.08289 0.62182 0.0
C524 C 0.24251 0.00785 0.59168 0.0
C525 C 0.24049 0.01822 0.57177 0.0
C526 C 0.20871 0.00323 0.60453 0.0
C527 C 0.17188 0.00871 0.59721 0.0
C528 C 0.17061 0.02073 0.57731 0.0
C529 C 0.20499 0.02541 0.56484 0.0
C530 C 0.21147 0.99091 0.62574 0.0
C531 C 0.13174 0.02655 0.56891 0.0
H532 H 0.02644 0.90938 0.6222 0.0
H533 H 0.09856 0.05127 0.64229 0.0
H534 H 0.09249 0.92293 0.58176 0.0
H535 H 0.1198 0.91047 0.60193 0.0
H536 H 0.05682 0.88144 0.59942 0.0
H537 H 0.17246 0.10648 0.63187 0.0
H538 H 0.20865 0.08359 0.62666 0.0
H539 H 0.18111 0.09608 0.60662 0.0
H540 H 0.27014 0.00264 0.5971 0.0
H541 H 0.20286 0.03275 0.54938 0.0
H542 H 0.18129 0.95593 0.62815 0.0
H543 H 0.20928 0.01502 0.63611 0.0
H544 H 0.24433 0.99164 0.62955 0.0
H545 H 0.09792 0.99313 0.56868 0.0
H546 H 0.13768 0.0391 0.55358 0.0
H547 H 0.1283 0.05109 0.57846 0.0
C548 C 0.16203 0.14715 0.97246 0.0
C549 C 0.15064 0.10293 0.97742 0.0
C550 C 0.19164 0.16989 0.95712 0.0
C551 C 0.20977 0.1476 0.94632 0.0
C552 C 0.1969 0.10224 0.95071 0.0
C553 C 0.16769 0.08052 0.96633 0.0
C554 C 0.20483 0.21839 0.95296 0.0
C555 C 0.21494 0.07714 0.93924 0.0
C556 C 0.25939 0.19752 0.89706 0.0
C557 C 0.30759 0.22381 0.90225 0.0
C558 C 0.22715 0.1716 0.91115 0.0
C559 C 0.24357 0.17255 0.93092 0.0
C560 C 0.29228 0.1987 0.93619 0.0
C561 C 0.32379 0.22379 0.92172 0.0
C562 C 0.17555 0.14359 0.90493 0.0
C563 C 0.31102 0.20098 0.9572 0.0
H564 H 0.14916 0.16477 0.98104 0.0
H565 H 0.15884 0.04626 0.97005 0.0
H566 H 0.24318 0.24216 0.95579 0.0
H567 H 0.19633 0.22076 0.93712 0.0
H568 H 0.18652 0.23029 0.9623 0.0
H569 H 0.1991 0.04095 0.9436 0.0
H570 H 0.20742 0.07732 0.92308 0.0
H571 H 0.25353 0.095 0.94183 0.0
H572 H 0.24694 0.19708 0.88191 0.0
H573 H 0.36105 0.24434 0.92573 0.0
H574 H 0.15665 0.15657 0.91313 0.0
H575 H 0.1606 0.10722 0.90874 0.0
H576 H 0.16877 0.14482 0.88875 0.0
H577 H 0.29679 0.21573 0.96739 0.0
H578 H 0.3499 0.22225 0.95876 0.0
H579 H 0.29938 0.16591 0.96206 0.0
C580 C 0.0178 0.161 0.33937 0.0
C581 C 0.99216 0.11572 0.33139 0.0
C582 C 0.03654 0.19854 0.32701 0.0
C583 C 0.02882 0.19057 0.30618 0.0
C584 C 0.00481 0.14499 0.298 0.0
C585 C 0.98707 0.10808 0.31072 0.0
C586 C 0.06284 0.24666 0.33626 0.0
C587 C 0.99563 0.13514 0.27585 0.0
C588 C 0.02262 0.27887 0.27512 0.0
C589 C 0.06527 0.29946 0.26588 0.0
C590 C 0.01071 0.24388 0.2885 0.0
C591 C 0.04253 0.22957 0.293 0.0
C592 C 0.08643 0.25143 0.28438 0.0
C593 C 0.09716 0.2859 0.27081 0.0
C594 C 0.96349 0.22135 0.29739 0.0
C595 C 0.1215 0.23751 0.28905 0.0
H596 H 0.02233 0.16716 0.35534 0.0
H597 H 0.96721 0.07321 0.30444 0.0
H598 H 0.09649 0.26818 0.32917 0.0
H599 H 0.04189 0.26278 0.33377 0.0
H600 H 0.07025 0.24708 0.3525 0.0
H601 H 0.97924 0.09803 0.27183 0.0
H602 H 0.97195 0.14641 0.27015 0.0
H603 H 0.02877 0.15481 0.26822 0.0
H604 H 0.99816 0.28971 0.27169 0.0
H605 H 0.12994 0.30113 0.26358 0.0
H606 H 0.96798 0.22406 0.31383 0.0
H607 H 0.94277 0.18422 0.29295 0.0
H608 H 0.9431 0.23701 0.2926 0.0
H609 H 0.12779 0.23792 0.30536 0.0
H610 H 0.15554 0.26047 0.28244 0.0
H611 H 0.10731 0.20185 0.28326 0.0
loop_
_geom_bond_atom_site_label_1
_geom_bond_atom_site_label_2
_geom_bond_distance
_geom_bond_site_symmetry_2
_ccdc_geom_bond_type
Mg0 O1 2.028 1_545 S
Mg0 O7 1.986 . S
Mg0 O9 2.114 . S
Mg0 O10 2.251 . S
Mg0 O13 2.010 1_545 S
O1 Mg0 2.028 1_565 S
O1 C4 1.250 1_455 S
O2 Mg3 2.028 1_656 S
O2 C4 1.248 1_546 S
Mg3 O2 2.028 1_454 S
Mg3 O8 2.032 . S
Mg3 O10 2.079 . S
C4 O1 1.250 1_655 S
C4 O2 1.248 1_564 S
C5 O6 1.264 . S
C5 O13 1.249 . S
O6 C5 1.264 . S
O7 Mg0 1.986 . S
O7 C11 1.246 . S
O8 Mg3 2.032 . S
O8 C11 1.259 . S
O9 Mg0 2.114 . S
O9 C12 1.252 . S
O10 Mg0 2.251 . S
O10 Mg3 2.079 . S
O10 C12 1.273 . S
C11 O7 1.246 . S
C11 O8 1.259 . S
C12 O9 1.252 . S
C12 O10 1.273 . S
O13 Mg0 2.010 1_565 S
O13 C5 1.249 . S
Mg14 O15 2.028 1_665 S
Mg14 O21 1.986 1_665 S
Mg14 O23 2.114 . S
Mg14 O24 2.251 1_565 S
Mg14 O27 2.010 . S
O15 Mg14 2.028 1_445 S
O15 C18 1.250 . S
O16 Mg17 2.028 . S
O16 C18 1.248 . S
Mg17 O16 2.028 . S
Mg17 O22 2.032 . S
Mg17 O24 2.079 1_455 S
C18 O15 1.250 . S
C18 O16 1.248 . S
C19 O20 1.264 . S
C19 O27 1.249 . S
O20 C19 1.264 . S
O21 Mg14 1.986 1_445 S
O21 C25 1.246 . S
O22 Mg17 2.032 . S
O22 C25 1.259 . S
O23 Mg14 2.114 . S
O23 C26 1.252 . S
O24 Mg14 2.251 1_545 S
O24 Mg17 2.079 1_655 S
O24 C26 1.273 1_545 S
C25 O21 1.246 . S
C25 O22 1.259 . S
C26 O23 1.252 . S
C26 O24 1.273 1_565 S
O27 Mg14 2.010 . S
O27 C19 1.249 . S
Mg28 O29 2.028 1_565 S
Mg28 O35 1.986 1_465 S
Mg28 O37 2.114 . S
Mg28 O38 2.251 1_455 S
Mg28 O41 2.010 . S
O29 Mg28 2.028 1_545 S
O29 C32 1.250 . S
O30 Mg31 2.028 1_455 S
O30 C32 1.248 . S
Mg31 O30 2.028 1_655 S
Mg31 O36 2.032 . S
Mg31 O38 2.079 1_545 S
C32 O29 1.250 . S
C32 O30 1.248 . S
C33 O34 1.264 . S
C33 O41 1.249 . S
O34 C33 1.264 . S
O35 Mg28 1.986 1_645 S
O35 C39 1.246 . S
O36 Mg31 2.032 . S
O36 C39 1.259 . S
O37 Mg28 2.114 . S
O37 C40 1.252 1_455 S
O38 Mg28 2.251 1_655 S
O38 Mg31 2.079 1_565 S
O38 C40 1.273 . S
C39 O35 1.246 . S
C39 O36 1.259 . S
C40 O37 1.252 1_655 S
C40 O38 1.273 . S
O41 Mg28 2.010 . S
O41 C33 1.249 . S
H42 C69 0.929 . S
N43 C68 1.433 . S
N43 C74 1.435 . S
N43 C80 1.423 1_455 S
H44 C70 0.930 . S
H45 C73 0.931 . S
H46 C72 0.929 . S
H47 C75 0.930 . S
H48 C76 0.932 . S
H49 C79 0.929 . S
H50 C78 0.931 . S
H51 C81 0.929 . S
H52 C85 0.932 . S
H53 C82 0.931 . S
H54 C84 0.929 . S
H55 C87 0.929 . S
H56 C88 0.930 . S
H57 C90 0.929 . S
H58 C91 0.931 . S
H59 C93 0.930 . S
H60 C94 0.932 . S
H61 C96 0.931 . S
H62 C97 0.929 . S
H63 C99 0.929 . S
H64 C100 0.931 . S
H65 C102 0.929 . S
N66 C86 1.433 . S
N66 C92 1.435 . S
N66 C98 1.423 1_455 S
H67 C103 0.932 . S
C68 N43 1.433 . S
C68 C69 1.363 1_455 S
C68 C73 1.370 . S
C69 H42 0.929 . S
C69 C68 1.363 1_655 S
C69 C70 1.385 . S
C70 H44 0.930 . S
C70 C69 1.385 . S
C70 C71 1.357 1_655 S
C71 C70 1.357 1_455 S
C71 C72 1.406 . S
C72 H46 0.929 . S
C72 C71 1.406 . S
C72 C73 1.391 . S
C73 H45 0.931 . S
C73 C68 1.370 . S
C73 C72 1.391 . S
C74 N43 1.435 . S
C74 C75 1.358 . S
C74 C79 1.371 1_455 S
C75 H47 0.930 . S
C75 C74 1.358 . S
C75 C76 1.405 . S
C76 H48 0.932 . S
C76 C75 1.405 . S
C76 C77 1.383 . S
C77 C76 1.383 . S
C77 C78 1.393 1_455 S
C78 H50 0.931 . S
C78 C77 1.393 1_655 S
C78 C79 1.382 . S
C79 H49 0.929 . S
C79 C74 1.371 1_655 S
C79 C78 1.382 . S
C80 N43 1.423 1_655 S
C80 C81 1.362 . S
C80 C85 1.388 1_655 S
C81 H51 0.929 . S
C81 C80 1.362 . S
C81 C82 1.376 . S
C82 H53 0.931 . S
C82 C81 1.376 . S
C82 C83 1.396 . S
C83 C82 1.396 . S
C83 C84 1.348 1_655 S
C83 C101 1.472 . S
C84 H54 0.929 . S
C84 C83 1.348 1_455 S
C84 C85 1.443 . S
C85 H52 0.932 . S
C85 C80 1.388 1_455 S
C85 C84 1.443 . S
C86 N66 1.433 . S
C86 C87 1.363 1_455 S
C86 C91 1.370 . S
C87 H55 0.929 . S
C87 C86 1.363 1_655 S
C87 C88 1.385 . S
C88 H56 0.930 . S
C88 C87 1.385 . S
C88 C89 1.357 1_655 S
C89 C88 1.357 1_455 S
C89 C90 1.406 . S
C90 H57 0.929 . S
C90 C89 1.406 . S
C90 C91 1.391 . S
C91 H58 0.931 . S
C91 C86 1.370 . S
C91 C90 1.391 . S
C92 N66 1.435 . S
C92 C93 1.358 . S
C92 C97 1.371 1_455 S
C93 H59 0.930 . S
C93 C92 1.358 . S
C93 C94 1.405 . S
C94 H60 0.932 . S
C94 C93 1.405 . S
C94 C95 1.383 . S
C95 C94 1.383 . S
C95 C96 1.393 1_455 S
C96 H61 0.931 . S
C96 C95 1.393 1_655 S
C96 C97 1.382 . S
C97 H62 0.929 . S
C97 C92 1.371 1_655 S
C97 C96 1.382 . S
C98 N66 1.423 1_655 S
C98 C99 1.362 . S
C98 C103 1.388 1_655 S
C99 H63 0.929 . S
C99 C98 1.362 . S
C99 C100 1.376 . S
C100 H64 0.931 . S
C100 C99 1.376 . S
C100 C101 1.396 . S
C101 C83 1.472 . S
C101 C100 1.396 . S
C101 C102 1.348 1_655 S
C102 H65 0.929 . S
C102 C101 1.348 1_455 S
C102 C103 1.443 . S
C103 H67 0.932 . S
C103 C98 1.388 1_455 S
C103 C102 1.443 . S
H104 C131 0.929 . S
N105 C130 1.433 . S
N105 C136 1.435 . S
N105 C142 1.423 . S
H106 C132 0.930 . S
H107 C135 0.931 . S
H108 C134 0.929 . S
H109 C137 0.941 . S
H110 C138 0.932 1_565 S
H111 C141 0.929 . S
H112 C140 0.931 . S
H113 C143 0.929 . S
H114 C147 0.932 . S
H115 C144 0.931 . S
H116 C146 0.929 . S
H117 C149 0.929 . S
H118 C150 0.930 . S
H119 C152 0.929 . S
H120 C153 0.931 . S
H121 C155 0.940 . S
H122 C156 0.932 1_565 S
H123 C158 0.931 . S
H124 C159 0.929 . S
H125 C161 0.929 . S
H126 C162 0.931 . S
H127 C164 0.929 . S
N128 C148 1.433 . S
N128 C154 1.435 . S
N128 C160 1.423 . S
H129 C165 0.932 . S
C130 N105 1.433 . S
C130 C131 1.363 . S
C130 C135 1.370 . S
C131 H104 0.929 . S
C131 C130 1.363 . S
C131 C132 1.385 . S
C132 H106 0.930 . S
C132 C131 1.385 . S
C132 C133 1.357 . S
C133 C132 1.357 . S
C133 C134 1.406 . S
C134 H108 0.929 . S
C134 C133 1.406 . S
C134 C135 1.391 . S
C135 H107 0.931 . S
C135 C130 1.370 . S
C135 C134 1.391 . S
C136 N105 1.435 . S
C136 C137 1.358 . S
C136 C141 1.371 . S
C137 H109 0.941 . S
C137 C136 1.358 . S
C137 C138 1.405 . S
C138 H110 0.932 1_545 S
C138 C137 1.405 . S
C138 C139 1.383 . S
C139 C138 1.383 . S
C139 C140 1.393 . S
C140 H112 0.931 . S
C140 C139 1.393 . S
C140 C141 1.382 . S
C141 H111 0.929 . S
C141 C136 1.371 . S
C141 C140 1.382 . S
C142 N105 1.423 . S
C142 C143 1.362 . S
C142 C147 1.388 . S
C143 H113 0.929 . S
C143 C142 1.362 . S
C143 C144 1.376 . S
C144 H115 0.931 . S
C144 C143 1.376 . S
C144 C145 1.396 . S
C145 C144 1.396 . S
C145 C146 1.348 . S
C145 C163 1.472 . S
C146 H116 0.929 . S
C146 C145 1.348 . S
C146 C147 1.443 . S
C147 H114 0.932 . S
C147 C142 1.388 . S
C147 C146 1.443 . S
C148 N128 1.433 . S
C148 C149 1.363 . S
C148 C153 1.370 . S
C149 H117 0.929 . S
C149 C148 1.363 . S
C149 C150 1.385 . S
C150 H118 0.930 . S
C150 C149 1.385 . S
C150 C151 1.357 . S
C151 C150 1.357 . S
C151 C152 1.406 . S
C152 H119 0.929 . S
C152 C151 1.406 . S
C152 C153 1.391 . S
C153 H120 0.931 . S
C153 C148 1.370 . S
C153 C152 1.391 . S
C154 N128 1.435 . S
C154 C155 1.358 . S
C154 C159 1.371 . S
C155 H121 0.940 . S
C155 C154 1.358 . S
C155 C156 1.405 . S
C156 H122 0.932 1_545 S
C156 C155 1.405 . S
C156 C157 1.383 . S
C157 C156 1.383 . S
C157 C158 1.393 . S
C158 H123 0.931 . S
C158 C157 1.393 . S
C158 C159 1.382 . S
C159 H124 0.929 . S
C159 C154 1.371 . S
C159 C158 1.382 . S
C160 N128 1.423 . S
C160 C161 1.362 . S
C160 C165 1.388 . S
C161 H125 0.929 . S
C161 C160 1.362 . S
C161 C162 1.376 . S
C162 H126 0.931 . S
C162 C161 1.376 . S
C162 C163 1.396 . S
C163 C145 1.472 . S
C163 C162 1.396 . S
C163 C164 1.348 . S
C164 H127 0.929 . S
C164 C163 1.348 . S
C164 C165 1.443 . S
C165 H129 0.932 . S
C165 C160 1.388 . S
C165 C164 1.443 . S
H166 C193 0.929 . S
N167 C192 1.433 . S
N167 C198 1.435 . S
N167 C204 1.423 . S
H168 C194 0.930 . S
H169 C197 0.931 . S
H170 C196 0.929 . S
H171 C199 0.930 . S
H172 C200 0.932 . S
H173 C203 0.929 . S
H174 C202 0.931 . S
H175 C205 0.929 . S
H176 C209 0.932 . S
H177 C206 0.931 . S
H178 C208 0.929 . S
H179 C211 0.929 . S
H180 C212 0.930 . S
H181 C214 0.929 . S
H182 C215 0.931 . S
H183 C217 0.930 . S
H184 C218 0.932 . S
H185 C220 0.931 . S
H186 C221 0.929 . S
H187 C223 0.929 . S
H188 C224 0.931 . S
H189 C226 0.929 . S
N190 C210 1.433 . S
N190 C216 1.435 . S
N190 C222 1.423 . S
H191 C227 0.932 . S
C192 N167 1.433 . S
C192 C193 1.363 . S
C192 C197 1.370 . S
C193 H166 0.929 . S
C193 C192 1.363 . S
C193 C194 1.385 . S
C194 H168 0.930 . S
C194 C193 1.385 . S
C194 C195 1.357 . S
C195 C194 1.357 . S
C195 C196 1.406 . S
C196 H170 0.929 . S
C196 C195 1.406 . S
C196 C197 1.391 . S
C197 H169 0.931 . S
C197 C192 1.370 . S
C197 C196 1.391 . S
C198 N167 1.435 . S
C198 C199 1.358 . S
C198 C203 1.371 . S
C199 H171 0.930 . S
C199 C198 1.358 . S
C199 C200 1.405 . S
C200 H172 0.932 . S
C200 C199 1.405 . S
C200 C201 1.383 . S
C201 C200 1.383 . S
C201 C202 1.393 . S
C202 H174 0.931 . S
C202 C201 1.393 . S
C202 C203 1.382 . S
C203 H173 0.929 . S
C203 C198 1.371 . S
C203 C202 1.382 . S
C204 N167 1.423 . S
C204 C205 1.362 . S
C204 C209 1.388 . S
C205 H175 0.929 . S
C205 C204 1.362 . S
C205 C206 1.376 . S
C206 H177 0.931 . S
C206 C205 1.376 . S
C206 C207 1.396 . S
C207 C206 1.396 . S
C207 C208 1.348 . S
C207 C225 1.472 . S
C208 H178 0.929 . S
C208 C207 1.348 . S
C208 C209 1.443 . S
C209 H176 0.932 . S
C209 C204 1.388 . S
C209 C208 1.443 . S
C210 N190 1.433 . S
C210 C211 1.363 . S
C210 C215 1.370 . S
C211 H179 0.929 . S
C211 C210 1.363 . S
C211 C212 1.385 . S
C212 H180 0.930 . S
C212 C211 1.385 . S
C212 C213 1.357 . S
C213 C212 1.357 . S
C213 C214 1.406 . S
C214 H181 0.929 . S
C214 C213 1.406 . S
C214 C215 1.391 . S
C215 H182 0.931 . S
C215 C210 1.370 . S
C215 C214 1.391 . S
C216 N190 1.435 . S
C216 C217 1.358 . S
C216 C221 1.371 . S
C217 H183 0.930 . S
C217 C216 1.358 . S
C217 C218 1.405 . S
C218 H184 0.932 . S
C218 C217 1.405 . S
C218 C219 1.383 . S
C219 C218 1.383 . S
C219 C220 1.393 . S
C220 H185 0.931 . S
C220 C219 1.393 . S
C220 C221 1.382 . S
C221 H186 0.929 . S
C221 C216 1.371 . S
C221 C220 1.382 . S
C222 N190 1.423 . S
C222 C223 1.362 . S
C222 C227 1.388 . S
C223 H187 0.929 . S
C223 C222 1.362 . S
C223 C224 1.376 . S
C224 H188 0.931 . S
C224 C223 1.376 . S
C224 C225 1.396 . S
C225 C207 1.472 . S
C225 C224 1.396 . S
C225 C226 1.348 . S
C226 H189 0.929 . S
C226 C225 1.348 . S
C226 C227 1.443 . S
C227 H191 0.932 . S
C227 C222 1.388 . S
C227 C226 1.443 . S
C228 C229 1.391 1_655 S
C228 C230 1.394 . S
C228 H244 0.931 . S
C229 C228 1.391 1_455 S
C229 C233 1.376 . S
C230 C228 1.394 . S
C230 C231 1.369 1_655 S
C230 C234 1.531 . S
C231 C230 1.369 1_455 S
C231 C232 1.410 . S
C231 C239 1.503 . S
C232 C231 1.410 . S
C232 C233 1.392 . S
C232 C235 1.511 . S
C233 C229 1.376 . S
C233 C232 1.392 . S
C233 H245 0.929 . S
C234 C230 1.531 . S
C234 H246 0.960 . S
C234 H247 0.962 . S
C234 H248 0.960 . S
C235 C232 1.511 . S
C235 H249 0.961 . S
C235 H250 0.961 . S
C235 H251 0.961 . S
C236 C237 1.370 . S
C236 C238 1.363 . S
C236 H252 0.931 . S
C237 C236 1.370 . S
C237 C241 1.408 1_455 S
C238 C236 1.363 . S
C238 C239 1.370 . S
C238 C242 1.524 . S
C239 C231 1.503 . S
C239 C238 1.370 . S
C239 C240 1.403 1_455 S
C240 C239 1.403 1_655 S
C240 C241 1.404 . S
C240 C243 1.539 . S
C241 C237 1.408 1_655 S
C241 C240 1.404 . S
C241 H253 0.930 . S
C242 C238 1.524 . S
C242 H254 0.956 . S
C242 H255 0.961 . S
C242 H256 0.961 . S
C243 C240 1.539 . S
C243 H257 0.958 . S
C243 H258 0.961 . S
C243 H259 0.960 . S
H244 C228 0.931 . S
H245 C233 0.929 . S
H246 C234 0.960 . S
H247 C234 0.962 . S
H248 C234 0.960 . S
H249 C235 0.961 . S
H250 C235 0.961 . S
H251 C235 0.961 . S
H252 C236 0.931 . S
H253 C241 0.930 . S
H254 C242 0.956 . S
H255 C242 0.961 . S
H256 C242 0.961 . S
H257 C243 0.958 . S
H258 C243 0.961 . S
H259 C243 0.960 . S
C260 C261 1.391 . S
C260 C262 1.394 . S
C260 H276 0.931 . S
C261 C260 1.391 . S
C261 C265 1.376 1_565 S
C262 C260 1.394 . S
C262 C263 1.373 . S
C262 C266 1.531 . S
C263 C262 1.373 . S
C263 C264 1.413 1_565 S
C263 C271 1.494 1_565 S
C264 C263 1.413 1_545 S
C264 C265 1.392 . S
C264 C267 1.511 . S
C265 C261 1.376 1_545 S
C265 C264 1.392 . S
C265 H277 0.929 . S
C266 C262 1.531 . S
C266 H278 0.960 . S
C266 H279 0.962 . S
C266 H280 0.960 . S
C267 C264 1.511 . S
C267 H281 0.961 . S
C267 H282 0.961 . S
C267 H283 0.961 . S
C268 C269 1.370 . S
C268 C270 1.363 . S
C268 H284 0.931 . S
C269 C268 1.370 . S
C269 C273 1.408 1_545 S
C270 C268 1.363 . S
C270 C271 1.370 . S
C270 C274 1.524 . S
C271 C263 1.494 1_545 S
C271 C270 1.370 . S
C271 C272 1.403 1_545 S
C272 C271 1.403 1_565 S
C272 C273 1.404 . S
C272 C275 1.539 . S
C273 C269 1.408 1_565 S
C273 C272 1.404 . S
C273 H285 0.930 . S
C274 C270 1.524 . S
C274 H286 0.956 . S
C274 H287 0.961 . S
C274 H288 0.961 . S
C275 C272 1.539 . S
C275 H289 0.958 . S
C275 H290 0.961 . S
C275 H291 0.960 . S
H276 C260 0.931 . S
H277 C265 0.929 . S
H278 C266 0.960 . S
H279 C266 0.962 . S
H280 C266 0.960 . S
H281 C267 0.961 . S
H282 C267 0.961 . S
H283 C267 0.961 . S
H284 C268 0.931 . S
H285 C273 0.930 . S
H286 C274 0.956 . S
H287 C274 0.961 . S
H288 C274 0.961 . S
H289 C275 0.958 . S
H290 C275 0.961 . S
H291 C275 0.960 . S
C292 C293 1.391 . S
C292 C294 1.394 . S
C292 H308 0.931 . S
C293 C292 1.391 . S
C293 C297 1.376 . S
C294 C292 1.394 . S
C294 C295 1.369 . S
C294 C298 1.531 . S
C295 C294 1.369 . S
C295 C296 1.410 . S
C295 C303 1.503 . S
C296 C295 1.410 . S
C296 C297 1.392 . S
C296 C299 1.511 . S
C297 C293 1.376 . S
C297 C296 1.392 . S
C297 H309 0.929 . S
C298 C294 1.531 . S
C298 H310 0.960 . S
C298 H311 0.962 . S
C298 H312 0.960 . S
C299 C296 1.511 . S
C299 H313 0.961 . S
C299 H314 0.961 . S
C299 H315 0.961 . S
C300 C301 1.370 . S
C300 C302 1.363 . S
C300 H316 0.931 . S
C301 C300 1.370 . S
C301 C305 1.408 . S
C302 C300 1.363 . S
C302 C303 1.370 . S
C302 C306 1.524 . S
C303 C295 1.503 . S
C303 C302 1.370 . S
C303 C304 1.403 . S
C304 C303 1.403 . S
C304 C305 1.404 . S
C304 C307 1.539 . S
C305 C301 1.408 . S
C305 C304 1.404 . S
C305 H317 0.930 . S
C306 C302 1.524 . S
C306 H318 0.956 . S
C306 H319 0.961 . S
C306 H320 0.961 . S
C307 C304 1.539 . S
C307 H321 0.958 . S
C307 H322 0.961 . S
C307 H323 0.960 . S
H308 C292 0.931 . S
H309 C297 0.929 . S
H310 C298 0.960 . S
H311 C298 0.962 . S
H312 C298 0.960 . S
H313 C299 0.961 . S
H314 C299 0.961 . S
H315 C299 0.961 . S
H316 C300 0.931 . S
H317 C305 0.930 . S
H318 C306 0.956 . S
H319 C306 0.961 . S
H320 C306 0.961 . S
H321 C307 0.958 . S
H322 C307 0.961 . S
H323 C307 0.960 . S
C324 C325 1.391 . S
C324 C326 1.394 . S
C324 H340 0.931 . S
C325 C324 1.391 . S
C325 C329 1.376 . S
C326 C324 1.394 . S
C326 C327 1.369 . S
C326 C330 1.531 . S
C327 C326 1.369 . S
C327 C328 1.410 . S
C327 C335 1.503 . S
C328 C327 1.410 . S
C328 C329 1.392 . S
C328 C331 1.511 1_455 S
C329 C325 1.376 . S
C329 C328 1.392 . S
C329 H341 0.929 . S
C330 C326 1.531 . S
C330 H342 0.960 . S
C330 H343 0.962 . S
C330 H344 0.960 . S
C331 C328 1.511 1_655 S
C331 H345 0.961 . S
C331 H346 0.961 1_655 S
C331 H347 0.961 . S
C332 C333 1.370 . S
C332 C334 1.363 . S
C332 H348 0.931 . S
C333 C332 1.370 . S
C333 C337 1.408 . S
C334 C332 1.363 . S
C334 C335 1.370 . S
C334 C338 1.524 . S
C335 C327 1.503 . S
C335 C334 1.370 . S
C335 C336 1.403 . S
C336 C335 1.403 . S
C336 C337 1.404 . S
C336 C339 1.539 1_455 S
C337 C333 1.408 . S
C337 C336 1.404 . S
C337 H349 0.930 1_455 S
C338 C334 1.524 . S
C338 H350 0.956 . S
C338 H351 0.961 . S
C338 H352 0.961 . S
C339 C336 1.539 1_655 S
C339 H353 0.958 . S
C339 H354 0.961 . S
C339 H355 0.960 . S
H340 C324 0.931 . S
H341 C329 0.929 . S
H342 C330 0.960 . S
H343 C330 0.962 . S
H344 C330 0.960 . S
H345 C331 0.961 . S
H346 C331 0.961 1_455 S
H347 C331 0.961 . S
H348 C332 0.931 . S
H349 C337 0.930 1_655 S
H350 C338 0.956 . S
H351 C338 0.961 . S
H352 C338 0.961 . S
H353 C339 0.958 . S
H354 C339 0.961 . S
H355 C339 0.960 . S
C356 C357 1.391 . S
C356 C358 1.394 . S
C356 H372 0.931 . S
C357 C356 1.391 . S
C357 C361 1.376 . S
C358 C356 1.394 . S
C358 C359 1.369 . S
C358 C362 1.531 . S
C359 C358 1.369 . S
C359 C360 1.410 . S
C359 C367 1.503 . S
C360 C359 1.410 . S
C360 C361 1.392 . S
C360 C363 1.511 . S
C361 C357 1.376 . S
C361 C360 1.392 . S
C361 H373 0.929 . S
C362 C358 1.531 . S
C362 H374 0.960 . S
C362 H375 0.962 1_545 S
C362 H376 0.960 . S
C363 C360 1.511 . S
C363 H377 0.961 . S
C363 H378 0.961 . S
C363 H379 0.961 . S
C364 C365 1.370 . S
C364 C366 1.363 . S
C364 H380 0.931 1_545 S
C365 C364 1.370 . S
C365 C369 1.408 . S
C366 C364 1.363 . S
C366 C367 1.370 . S
C366 C370 1.524 1_545 S
C367 C359 1.503 . S
C367 C366 1.370 . S
C367 C368 1.403 . S
C368 C367 1.403 . S
C368 C369 1.404 . S
C368 C371 1.539 . S
C369 C365 1.408 . S
C369 C368 1.404 . S
C369 H381 0.930 . S
C370 C366 1.524 1_565 S
C370 H382 0.956 . S
C370 H383 0.961 . S
C370 H384 0.961 . S
C371 C368 1.539 . S
C371 H385 0.958 . S
C371 H386 0.961 . S
C371 H387 0.960 . S
H372 C356 0.931 . S
H373 C361 0.929 . S
H374 C362 0.960 . S
H375 C362 0.962 1_565 S
H376 C362 0.960 . S
H377 C363 0.961 . S
H378 C363 0.961 . S
H379 C363 0.961 . S
H380 C364 0.931 1_565 S
H381 C369 0.930 . S
H382 C370 0.956 . S
H383 C370 0.961 . S
H384 C370 0.961 . S
H385 C371 0.958 . S
H386 C371 0.961 . S
H387 C371 0.960 . S
C388 C389 1.391 . S
C388 C390 1.394 . S
C388 H404 0.931 . S
C389 C388 1.391 . S
C389 C393 1.376 . S
C390 C388 1.394 . S
C390 C391 1.369 . S
C390 C394 1.531 . S
C391 C390 1.369 . S
C391 C392 1.410 . S
C391 C399 1.503 . S
C392 C391 1.410 . S
C392 C393 1.392 . S
C392 C395 1.511 . S
C393 C389 1.376 . S
C393 C392 1.392 . S
C393 H405 0.929 . S
C394 C390 1.531 . S
C394 H406 0.960 . S
C394 H407 0.962 . S
C394 H408 0.960 . S
C395 C392 1.511 . S
C395 H409 0.961 . S
C395 H410 0.961 . S
C395 H411 0.961 . S
C396 C397 1.370 . S
C396 C398 1.363 . S
C396 H412 0.931 . S
C397 C396 1.370 . S
C397 C401 1.408 . S
C398 C396 1.363 . S
C398 C399 1.370 . S
C398 C402 1.524 . S
C399 C391 1.503 . S
C399 C398 1.370 . S
C399 C400 1.403 . S
C400 C399 1.403 . S
C400 C401 1.404 . S
C400 C403 1.539 . S
C401 C397 1.408 . S
C401 C400 1.404 . S
C401 H413 0.930 . S
C402 C398 1.524 . S
C402 H414 0.956 . S
C402 H415 0.961 . S
C402 H416 0.961 . S
C403 C400 1.539 . S
C403 H417 0.958 . S
C403 H418 0.961 . S
C403 H419 0.960 . S
H404 C388 0.931 . S
H405 C393 0.929 . S
H406 C394 0.960 . S
H407 C394 0.962 . S
H408 C394 0.960 . S
H409 C395 0.961 . S
H410 C395 0.961 . S
H411 C395 0.961 . S
H412 C396 0.931 . S
H413 C401 0.930 . S
H414 C402 0.956 . S
H415 C402 0.961 . S
H416 C402 0.961 . S
H417 C403 0.958 . S
H418 C403 0.961 . S
H419 C403 0.960 . S
C420 C421 1.391 . S
C420 C422 1.394 . S
C420 H436 0.931 . S
C421 C420 1.391 . S
C421 C425 1.376 . S
C422 C420 1.394 . S
C422 C423 1.369 . S
C422 C426 1.531 . S
C423 C422 1.369 . S
C423 C424 1.410 . S
C423 C431 1.503 . S
C424 C423 1.410 . S
C424 C425 1.392 . S
C424 C427 1.511 1_545 S
C425 C421 1.376 . S
C425 C424 1.392 . S
C425 H437 0.929 . S
C426 C422 1.531 . S
C426 H438 0.960 . S
C426 H439 0.962 . S
C426 H440 0.960 . S
C427 C424 1.511 1_565 S
C427 H441 0.961 1_565 S
C427 H442 0.961 1_565 S
C427 H443 0.961 . S
C428 C429 1.370 . S
C428 C430 1.363 . S
C428 H444 0.931 . S
C429 C428 1.370 . S
C429 C433 1.408 1_545 S
C430 C428 1.363 . S
C430 C431 1.370 . S
C430 C434 1.524 . S
C431 C423 1.503 . S
C431 C430 1.370 . S
C431 C432 1.403 1_545 S
C432 C431 1.403 1_565 S
C432 C433 1.404 . S
C432 C435 1.539 . S
C433 C429 1.408 1_565 S
C433 C432 1.404 . S
C433 H445 0.930 . S
C434 C430 1.524 . S
C434 H446 0.956 . S
C434 H447 0.961 . S
C434 H448 0.961 . S
C435 C432 1.539 . S
C435 H449 0.958 . S
C435 H450 0.961 . S
C435 H451 0.960 . S
H436 C420 0.931 . S
H437 C425 0.929 . S
H438 C426 0.960 . S
H439 C426 0.962 . S
H440 C426 0.960 . S
H441 C427 0.961 1_545 S
H442 C427 0.961 1_545 S
H443 C427 0.961 . S
H444 C428 0.931 . S
H445 C433 0.930 . S
H446 C434 0.956 . S
H447 C434 0.961 . S
H448 C434 0.961 . S
H449 C435 0.958 . S
H450 C435 0.961 . S
H451 C435 0.960 . S
C452 C453 1.391 . S
C452 C454 1.394 . S
C452 H468 0.931 . S
C453 C452 1.391 . S
C453 C457 1.376 . S
C454 C452 1.394 . S
C454 C455 1.369 . S
C454 C458 1.531 . S
C455 C454 1.369 . S
C455 C456 1.410 . S
C455 C463 1.503 . S
C456 C455 1.410 . S
C456 C457 1.392 . S
C456 C459 1.511 . S
C457 C453 1.376 . S
C457 C456 1.392 . S
C457 H469 0.929 . S
C458 C454 1.531 . S
C458 H470 0.960 . S
C458 H471 0.962 . S
C458 H472 0.960 . S
C459 C456 1.511 . S
C459 H473 0.961 . S
C459 H474 0.961 . S
C459 H475 0.961 . S
C460 C461 1.370 . S
C460 C462 1.363 . S
C460 H476 0.931 . S
C461 C460 1.370 . S
C461 C465 1.408 . S
C462 C460 1.363 . S
C462 C463 1.370 . S
C462 C466 1.524 . S
C463 C455 1.503 . S
C463 C462 1.370 . S
C463 C464 1.403 . S
C464 C463 1.403 . S
C464 C465 1.404 . S
C464 C467 1.539 . S
C465 C461 1.408 . S
C465 C464 1.404 . S
C465 H477 0.930 . S
C466 C462 1.524 . S
C466 H478 0.956 . S
C466 H479 0.961 . S
C466 H480 0.961 . S
C467 C464 1.539 . S
C467 H481 0.970 . S
C467 H482 0.961 . S
C467 H483 0.971 . S
H468 C452 0.931 . S
H469 C457 0.929 . S
H470 C458 0.960 . S
H471 C458 0.962 . S
H472 C458 0.960 . S
H473 C459 0.961 . S
H474 C459 0.961 . S
H475 C459 0.961 . S
H476 C460 0.931 . S
H477 C465 0.930 . S
H478 C466 0.956 . S
H479 C466 0.961 . S
H480 C466 0.961 . S
H481 C467 0.970 . S
H482 C467 0.961 . S
H483 C467 0.971 . S
C484 C485 1.391 . S
C484 C486 1.394 . S
C484 H500 0.931 . S
C485 C484 1.391 . S
C485 C489 1.376 1_655 S
C486 C484 1.394 . S
C486 C487 1.369 . S
C486 C490 1.531 . S
C487 C486 1.369 . S
C487 C488 1.410 1_655 S
C487 C495 1.503 . S
C488 C487 1.410 1_455 S
C488 C489 1.392 . S
C488 C491 1.511 . S
C489 C485 1.376 1_455 S
C489 C488 1.392 . S
C489 H501 0.929 . S
C490 C486 1.531 . S
C490 H502 0.960 . S
C490 H503 0.962 . S
C490 H504 0.960 . S
C491 C488 1.511 . S
C491 H505 0.961 . S
C491 H506 0.961 . S
C491 H507 0.961 . S
C492 C493 1.370 . S
C492 C494 1.363 . S
C492 H508 0.931 . S
C493 C492 1.370 . S
C493 C497 1.408 1_455 S
C494 C492 1.363 . S
C494 C495 1.370 1_455 S
C494 C498 1.524 . S
C495 C487 1.503 . S
C495 C494 1.370 1_655 S
C495 C496 1.403 . S
C496 C495 1.403 . S
C496 C497 1.404 . S
C496 C499 1.539 . S
C497 C493 1.408 1_655 S
C497 C496 1.404 . S
C497 H509 0.930 . S
C498 C494 1.524 . S
C498 H510 0.956 . S
C498 H511 0.961 . S
C498 H512 0.961 . S
C499 C496 1.539 . S
C499 H513 0.958 . S
C499 H514 0.961 . S
C499 H515 0.960 . S
H500 C484 0.931 . S
H501 C489 0.929 . S
H502 C490 0.960 . S
H503 C490 0.962 . S
H504 C490 0.960 . S
H505 C491 0.961 . S
H506 C491 0.961 . S
H507 C491 0.961 . S
H508 C492 0.931 . S
H509 C497 0.930 . S
H510 C498 0.956 . S
H511 C498 0.961 . S
H512 C498 0.961 . S
H513 C499 0.958 . S
H514 C499 0.961 . S
H515 C499 0.960 . S
C516 C517 1.391 . S
C516 C518 1.394 . S
C516 H532 0.931 . S
C517 C516 1.391 . S
C517 C521 1.376 1_565 S
C518 C516 1.394 . S
C518 C519 1.369 1_565 S
C518 C522 1.531 . S
C519 C518 1.369 1_545 S
C519 C520 1.410 . S
C519 C527 1.503 . S
C520 C519 1.410 . S
C520 C521 1.392 . S
C520 C523 1.511 . S
C521 C517 1.376 1_545 S
C521 C520 1.392 . S
C521 H533 0.929 . S
C522 C518 1.531 . S
C522 H534 0.960 . S
C522 H535 0.962 . S
C522 H536 0.960 . S
C523 C520 1.511 . S
C523 H537 0.961 . S
C523 H538 0.961 . S
C523 H539 0.961 . S
C524 C525 1.370 . S
C524 C526 1.363 . S
C524 H540 0.931 . S
C525 C524 1.370 . S
C525 C529 1.408 . S
C526 C524 1.363 . S
C526 C527 1.370 . S
C526 C530 1.524 . S
C527 C519 1.503 . S
C527 C526 1.370 . S
C527 C528 1.403 . S
C528 C527 1.403 . S
C528 C529 1.404 . S
C528 C531 1.539 . S
C529 C525 1.408 . S
C529 C528 1.404 . S
C529 H541 0.930 . S
C530 C526 1.524 . S
C530 H542 0.956 1_545 S
C530 H543 0.961 . S
C530 H544 0.961 . S
C531 C528 1.539 . S
C531 H545 0.958 1_545 S
C531 H546 0.961 . S
C531 H547 0.960 . S
H532 C516 0.931 . S
H533 C521 0.929 . S
H534 C522 0.960 . S
H535 C522 0.962 . S
H536 C522 0.960 . S
H537 C523 0.961 . S
H538 C523 0.961 . S
H539 C523 0.961 . S
H540 C524 0.931 . S
H541 C529 0.930 . S
H542 C530 0.956 1_565 S
H543 C530 0.961 . S
H544 C530 0.961 . S
H545 C531 0.958 1_565 S
H546 C531 0.961 . S
H547 C531 0.960 . S
C548 C549 1.391 . S
C548 C550 1.394 . S
C548 H564 0.931 . S
C549 C548 1.391 . S
C549 C553 1.376 . S
C550 C548 1.394 . S
C550 C551 1.369 . S
C550 C554 1.531 . S
C551 C550 1.369 . S
C551 C552 1.410 . S
C551 C559 1.503 . S
C552 C551 1.410 . S
C552 C553 1.392 . S
C552 C555 1.511 . S
C553 C549 1.376 . S
C553 C552 1.392 . S
C553 H565 0.929 . S
C554 C550 1.531 . S
C554 H566 0.960 . S
C554 H567 0.962 . S
C554 H568 0.960 . S
C555 C552 1.511 . S
C555 H569 0.961 . S
C555 H570 0.961 . S
C555 H571 0.961 . S
C556 C557 1.370 . S
C556 C558 1.363 . S
C556 H572 0.931 . S
C557 C556 1.370 . S
C557 C561 1.408 . S
C558 C556 1.363 . S
C558 C559 1.370 . S
C558 C562 1.524 . S
C559 C551 1.503 . S
C559 C558 1.370 . S
C559 C560 1.403 . S
C560 C559 1.403 . S
C560 C561 1.404 . S
C560 C563 1.539 . S
C561 C557 1.408 . S
C561 C560 1.404 . S
C561 H573 0.930 . S
C562 C558 1.524 . S
C562 H574 0.956 . S
C562 H575 0.961 . S
C562 H576 0.961 . S
C563 C560 1.539 . S
C563 H577 0.958 . S
C563 H578 0.961 . S
C563 H579 0.960 . S
H564 C548 0.931 . S
H565 C553 0.929 . S
H566 C554 0.960 . S
H567 C554 0.962 . S
H568 C554 0.960 . S
H569 C555 0.961 . S
H570 C555 0.961 . S
H571 C555 0.961 . S
H572 C556 0.931 . S
H573 C561 0.930 . S
H574 C562 0.956 . S
H575 C562 0.961 . S
H576 C562 0.961 . S
H577 C563 0.958 . S
H578 C563 0.961 . S
H579 C563 0.960 . S
C580 C581 1.391 . S
C580 C582 1.394 . S
C580 H596 0.931 1_455 S
C581 C580 1.391 . S
C581 C585 1.376 . S
C582 C580 1.394 . S
C582 C583 1.369 . S
C582 C586 1.531 1_455 S
C583 C582 1.369 . S
C583 C584 1.410 . S
C583 C591 1.503 . S
C584 C583 1.410 . S
C584 C585 1.392 . S
C584 C587 1.511 . S
C585 C581 1.376 . S
C585 C584 1.392 . S
C585 H597 0.929 . S
C586 C582 1.531 1_655 S
C586 H598 0.960 . S
C586 H599 0.962 . S
C586 H600 0.960 . S
C587 C584 1.511 . S
C587 H601 0.961 . S
C587 H602 0.961 . S
C587 H603 0.961 . S
C588 C589 1.370 1_655 S
C588 C590 1.351 1_655 S
C588 H604 0.931 . S
C589 C588 1.370 1_455 S
C589 C593 1.408 . S
C590 C588 1.351 1_455 S
C590 C591 1.383 . S
C590 C594 1.524 1_455 S
C591 C583 1.503 . S
C591 C590 1.383 . S
C591 C592 1.403 . S
C592 C591 1.403 . S
C592 C593 1.404 . S
C592 C595 1.539 . S
C593 C589 1.408 . S
C593 C592 1.404 . S
C593 H605 0.930 . S
C594 C590 1.524 1_655 S
C594 H606 0.956 . S
C594 H607 0.961 . S
C594 H608 0.961 . S
C595 C592 1.539 . S
C595 H609 0.958 . S
C595 H610 0.961 . S
C595 H611 0.960 . S
H596 C580 0.931 1_655 S
H597 C585 0.929 . S
H598 C586 0.960 . S
H599 C586 0.962 . S
H600 C586 0.960 . S
H601 C587 0.961 . S
H602 C587 0.961 . S
H603 C587 0.961 . S
H604 C588 0.931 . S
H605 C593 0.930 . S
H606 C594 0.956 . S
H607 C594 0.961 . S
H608 C594 0.961 . S
H609 C595 0.958 . S
H610 C595 0.961 . S
H611 C595 0.960 . S
C237 C95 1.226 . S
C229 C11 1.252 . S
C261 C26 1.442 . S
C269 C139 1.428 . S
C293 C40 1.298 . S
C301 C201 1.324 . S
C325 C5 1.122 . S
C333 C77 1.243 . S
C365 C157 1.404 . S
C357 C18 1.387 . S
C389 C32 1.288 . S
C397 C219 1.293 . S
C429 C133 1.369 . S
C421 C39 1.427 . S
C453 C4 1.615 1_556 S
C461 C195 1.528 . S
C493 C71 1.474 . S
C485 C19 1.403 . S
C525 C151 1.399 . S
C517 C33 1.316 . S
C557 C213 1.562 . S
C549 C12 1.615 1_556 S
C581 C25 1.542 . S
C589 C89 1.505 . S
