# Generated by pormake.
# Topology tsx, (6,3)-cn, num edge types: 1
# Building blocks:
#     Node 0, Type 0, BuildingBlock: JUFBIX_clean_sbu_0, # of connection points: 6
#     Node 1, Type 0, BuildingBlock: JUFBIX_clean_sbu_0, # of connection points: 6
#     Node 2, Type 1, BuildingBlock: VETTIZ_charged_linker_0, # of connection points: 3
#     Node 3, Type 1, BuildingBlock: VETTIZ_charged_linker_0, # of connection points: 3
#     Node 4, Type 1, BuildingBlock: VETTIZ_charged_linker_0, # of connection points: 3
#     Node 5, Type 1, BuildingBlock: VETTIZ_charged_linker_0, # of connection points: 3
#     Edge 6, Type (0, 1), BuildingBlock: FUNLAD_clean_linker_1, # of connection points: 2
#     Edge 7, Type (0, 1), BuildingBlock: FUNLAD_clean_linker_1, # of connection points: 2
#     Edge 8, Type (0, 1), BuildingBlock: FUNLAD_clean_linker_1, # of connection points: 2
#     Edge 9, Type (0, 1), BuildingBlock: FUNLAD_clean_linker_1, # of connection points: 2
#     Edge 10, Type (0, 1), BuildingBlock: FUNLAD_clean_linker_1, # of connection points: 2
#     Edge 11, Type (0, 1), BuildingBlock: FUNLAD_clean_linker_1, # of connection points: 2
#     Edge 12, Type (0, 1), BuildingBlock: FUNLAD_clean_linker_1, # of connection points: 2
#     Edge 13, Type (0, 1), BuildingBlock: FUNLAD_clean_linker_1, # of connection points: 2
#     Edge 14, Type (0, 1), BuildingBlock: FUNLAD_clean_linker_1, # of connection points: 2
#     Edge 15, Type (0, 1), BuildingBlock: FUNLAD_clean_linker_1, # of connection points: 2
#     Edge 16, Type (0, 1), BuildingBlock: FUNLAD_clean_linker_1, # of connection points: 2
#     Edge 17, Type (0, 1), BuildingBlock: FUNLAD_clean_linker_1, # of connection points: 2
# Relax obj value: 0.164
# Max RMSD: 0.169
# Mean RMSD: 0.137
data_MOF--net-tsx--node1-JUFBIX_clean_sbu_0--node2-VETTIZ_charged_linker_0--edge1-FUNLAD_clean_linker_1
_symmetry_space_group_name_H-M    P1
_symmetry_Int_Tables_number       1
_symmetry_cell_setting            triclinic
loop_
_symmetry_equiv_pos_as_xyz
'x, y, z'
_cell_length_a     23.98135
_cell_length_b     28.638761
_cell_length_c     46.205306
_cell_angle_alpha  91.940698
_cell_angle_beta   89.804535
_cell_angle_gamma 97.91139
loop_
_atom_site_label
_atom_site_type_symbol
_atom_site_fract_x
_atom_site_fract_y
_atom_site_fract_z
_atom_type_partial_charge
Co0 Co 0.04329 0.0229 0.0048 0.0
C1 C 0.9921 0.04633 0.95465 0.0
Co2 Co 0.96998 0.0616 0.01251 0.0
C3 C 0.11049 0.94662 0.00855 0.0
C4 C 0.1476 0.99971 0.98019 0.0
N5 N 0.10344 0.98896 -0.00197 0.0
N6 N 0.15686 0.93029 -0.00216 0.0
C7 C 0.18049 0.96379 0.98 0.0
H8 H 0.08132 0.92744 0.02331 0.0
H9 H 0.15472 0.03113 0.9676 0.0
C10 C 0.0219 0.03841 0.06262 0.0
N11 N 0.90889 0.09416 0.01953 0.0
C12 C 0.89196 0.12969 0.00476 0.0
C13 C 0.86999 0.08529 0.04051 0.0
N14 N 0.84414 0.14326 0.01567 0.0
C15 C 0.83022 0.11534 0.03823 0.0
C16 C 0.94004 0.96485 0.00886 0.0
O17 O 0.05413 0.01991 0.0451 0.0
O18 O 0.98196 0.05834 0.05297 0.0
O19 O 0.92104 1.00382 0.01284 0.0
O20 O 0.99251 0.9649 0.00482 0.0
O21 O 0.95907 0.06414 0.97205 0.0
H22 H 0.86996 0.05806 0.05618 0.0
H23 H 0.91385 0.14493 0.98605 0.0
O24 O 0.03208 0.02651 0.96446 0.0
O25 O 0.09279 0.08179 0.00491 0.0
O26 O 0.01953 0.11934 0.0121 0.0
C27 C 0.07229 0.12037 0.00854 0.0
H28 H 0.21809 0.96236 0.96721 0.0
H29 H 0.79351 0.11567 0.05185 0.0
Co30 Co 0.59321 0.49074 0.49742 0.0
C31 C 0.55112 0.52273 0.44668 0.0
Co32 Co 0.53109 0.54097 0.50394 0.0
C33 C 0.64772 0.40593 0.50105 0.0
C34 C 0.68874 0.45596 0.47181 0.0
N35 N 0.64494 0.44889 0.49025 0.0
N36 N 0.69175 0.38618 0.4902 0.0
C37 C 0.71749 0.41764 0.47169 0.0
H38 H 0.61782 0.38928 0.51644 0.0
H39 H 0.69875 0.48686 0.45894 0.0
C40 C 0.57324 0.5087 0.55471 0.0
N41 N 0.48016 0.58347 0.51107 0.0
C42 C 0.43361 0.58929 0.49595 0.0
C43 C 0.4838 0.61714 0.53237 0.0
N44 N 0.40825 0.62528 0.50689 0.0
C45 C 0.43976 0.64289 0.52989 0.0
C46 C 0.48206 0.44808 0.5006 0.0
O47 O 0.60171 0.48536 0.5378 0.0
O48 O 0.5403 0.53505 0.54429 0.0
O49 O 0.47212 0.49033 0.50389 0.0
O50 O 0.53252 0.43969 0.49715 0.0
O51 O 0.52245 0.54588 0.46359 0.0
H52 H 0.51713 0.6233 0.54834 0.0
H53 H 0.41924 0.56824 0.47682 0.0
O54 O 0.58435 0.49662 0.45704 0.0
O55 O 0.65277 0.54259 0.49801 0.0
O56 O 0.59063 0.59162 0.50396 0.0
C57 C 0.64151 0.58455 0.50107 0.0
H58 H 0.75374 0.41316 0.45842 0.0
H59 H 0.43273 0.67292 0.54355 0.0
C60 C 0.08376 0.86813 0.45301 0.0
C61 C 0.1171 0.83636 0.44 0.0
C62 C 0.12758 0.83848 0.40996 0.0
C63 C 0.07767 0.90601 0.40712 0.0
C64 C 0.06394 0.90237 0.43609 0.0
C65 C 0.02839 0.93959 0.44594 0.0
H66 H 0.95436 0.15629 0.42165 0.0
C67 C 0.0589 0.94929 0.39663 0.0
C68 C 0.03076 0.97003 0.41938 0.0
H69 H 0.89776 0.0659 0.49193 0.0
H70 H 0.94832 1.0048 0.47112 0.0
H71 H 0.0801 0.13178 0.415 0.0
H72 H 0.9228 0.07543 0.37466 0.0
H73 H 0.9738 0.07825 0.34732 0.0
H74 H 0.96046 0.13179 0.36604 0.0
H75 H 0.04783 0.16254 0.38784 0.0
H76 H 0.09504 0.12045 0.3784 0.0
C77 C 0.05585 0.96672 0.47285 0.0
C78 C 0.96817 0.91444 0.45134 0.0
C79 C 0.1084 1.00058 0.29446 0.0
C80 C 0.10548 0.04285 0.2804 0.0
C81 C 0.08951 0.08179 0.29602 0.0
C82 C 0.07307 0.07783 0.32503 0.0
C83 C 0.07342 0.03461 0.33856 0.0
C84 C 0.09305 0.99754 0.32366 0.0
C85 C 0.09598 0.95612 0.34247 0.0
C86 C 0.0705 0.97316 0.37042 0.0
C87 C 0.05662 0.01873 0.36776 0.0
C88 C 0.15893 0.94971 0.34598 0.0
C89 C 0.05863 0.91262 0.32878 0.0
C90 C 0.95345 0.12358 0.43289 0.0
C91 C 0.92276 0.11628 0.45858 0.0
C92 C 0.92111 0.07259 0.47207 0.0
C93 C 0.95066 0.03726 0.46016 0.0
C94 C 0.98158 0.04542 0.4345 0.0
C95 C 0.98115 0.08765 0.42096 0.0
C96 C 1.00955 0.08835 0.39201 0.0
C97 C 0.02793 0.03982 0.39048 0.0
C98 C 1.01315 0.01508 0.41579 0.0
C99 C 0.06063 0.12797 0.39307 0.0
C100 C 0.96485 0.09405 0.36863 0.0
H101 H 0.11827 0.87312 0.37099 0.0
H102 H 0.07458 0.86697 0.47596 0.0
H103 H 0.93585 0.9381 0.44948 0.0
H104 H 0.96508 0.89828 0.47291 0.0
H105 H 0.95624 0.88568 0.4348 0.0
H106 H 0.1015 0.97783 0.46906 0.0
H107 H 0.05139 0.94433 0.49211 0.0
H108 H 0.03745 0.99906 0.47822 0.0
H109 H 0.12209 0.97061 0.28293 0.0
H110 H 0.08755 0.11469 0.28539 0.0
H111 H 0.05979 0.10833 0.33564 0.0
H112 H 0.17021 0.94493 0.36883 0.0
H113 H 0.18793 0.98128 0.33939 0.0
H114 H 0.1696 0.91927 0.33256 0.0
H115 H 1.01778 0.92242 0.32143 0.0
H116 H 0.0478 0.88415 0.34421 0.0
H117 H 0.07961 0.89813 0.30968 0.0
H118 H 0.15361 0.81528 0.39917 0.0
C119 C 0.10791 0.87291 0.39355 0.0
C120 C 0.13242 0.15033 0.54545 0.0
C121 C 0.17184 0.18527 0.55881 0.0
C122 C 0.17035 0.19213 0.5892 0.0
C123 C 0.09292 0.1288 0.59238 0.0
C124 C 0.09318 0.12274 0.56259 0.0
C125 C 0.04914 0.08311 0.55218 0.0
H126 H 0.86628 0.89058 0.58564 0.0
C127 C 0.05044 0.09218 0.60415 0.0
C128 C 0.02441 0.06518 0.58075 0.0
H129 H 0.90259 0.9451 0.5008 0.0
H130 H 0.96403 0.01225 0.52224 0.0
H131 H 0.99069 0.91533 0.61373 0.0
H132 H 0.84454 0.98675 0.61261 0.0
H133 H 0.87676 1.00226 0.64624 0.0
H134 H 0.85085 0.94114 0.63755 0.0
H135 H 0.92641 0.89553 0.63238 0.0
H136 H 0.98067 0.93736 0.64908 0.0
C137 C 0.0792 0.04586 0.53568 0.0
C138 C 1.00544 0.10422 0.53382 0.0
C139 C 0.03363 0.07568 0.7131 0.0
C140 C 1.00072 0.04329 0.73045 0.0
C141 C 0.96286 1.00693 0.71705 0.0
C142 C 0.95784 1.00314 0.68687 0.0
C143 C 0.99123 0.03571 0.66981 0.0
C144 C 0.02794 0.07146 0.68296 0.0
C145 C 0.06031 0.10258 0.66133 0.0
C146 C 0.03657 0.07974 0.63303 0.0
C147 C 0.99661 0.04042 0.6382 0.0
C148 C 0.12376 0.09852 0.66498 0.0
C149 C 0.0451 0.15317 0.66601 0.0
C150 C 0.88833 0.91643 0.57157 0.0
C151 C 0.88234 0.91159 0.54136 0.0
C152 C 0.9087 0.94755 0.52399 0.0
C153 C 0.94375 0.98638 0.53643 0.0
C154 C 0.95102 0.98978 0.56663 0.0
C155 C 0.92208 0.95583 0.58366 0.0
C156 C 0.93053 0.96704 0.6154 0.0
C157 C 0.97077 0.01267 0.61469 0.0
C158 C 0.98361 0.02547 0.58609 0.0
C159 C 0.9582 0.92677 0.6286 0.0
C160 C 0.87287 0.97442 0.62888 0.0
H161 H 0.13276 0.17091 0.62892 0.0
H162 H 0.1327 0.1442 0.52218 0.0
H163 H 0.96268 0.08445 0.53553 0.0
H164 H 1.01818 0.10578 0.5107 0.0
H165 H 1.00092 0.14074 0.54153 0.0
H166 H 0.11716 0.03911 0.54778 0.0
H167 H 0.09305 0.05816 0.51393 0.0
H168 H 0.05279 0.01137 0.53304 0.0
H169 H 0.06337 0.10371 0.72281 0.0
H170 H 0.93813 0.98048 0.72968 0.0
H171 H 0.92877 0.97446 0.67802 0.0
H172 H 0.1299 0.06288 0.67218 0.0
H173 H 0.14377 0.12471 0.6814 0.0
H174 H 0.14761 0.10257 0.64453 0.0
H175 H 0.99999 0.15219 0.67204 0.0
H176 H 0.05006 0.17393 0.64621 0.0
H177 H 0.07072 0.17264 0.68368 0.0
H178 H 0.20097 0.21765 0.60039 0.0
C179 C 0.13099 0.16435 0.60593 0.0
C180 C 0.5316 0.39894 0.95805 0.0
C181 C 0.56723 0.36839 0.9457 0.0
C182 C 0.57557 0.36811 0.91544 0.0
C183 C 0.51952 0.43162 0.91101 0.0
C184 C 0.50826 0.43033 0.9403 0.0
C185 C 0.47179 0.46716 0.94968 0.0
H186 H 0.37437 0.67186 0.91582 0.0
C187 C 0.49417 0.47098 0.89908 0.0
C188 C 0.46725 0.4932 0.92174 0.0
H189 H 0.355 0.6037 -0.00215 0.0
H190 H 0.39762 0.53722 0.97744 0.0
H191 H 0.49685 0.64885 0.89865 0.0
H192 H 0.32887 0.58188 0.88057 0.0
H193 H 0.36799 0.56769 0.8502 0.0
H194 H 0.36186 0.62874 0.85905 0.0
H195 H 0.44769 0.67276 0.87608 0.0
H196 H 0.49333 0.63298 0.86149 0.0
C197 C 0.50237 0.49865 0.97408 0.0
C198 C 0.41405 0.44113 0.95862 0.0
C199 C 0.51807 0.50366 0.79207 0.0
C200 C 0.50096 0.53857 0.77472 0.0
C201 C 0.47232 0.57358 0.7876 0.0
C202 C 0.4612 0.57425 0.81733 0.0
C203 C 0.47837 0.53916 0.83443 0.0
C204 C 0.50629 0.50469 0.82175 0.0
C205 C 0.52087 0.47007 0.84327 0.0
C206 C 0.49572 0.48882 0.8708 0.0
C207 C 0.4713 0.52931 0.86547 0.0
C208 C 0.58605 0.474 0.8449 0.0
C209 C 0.49065 0.42051 0.83393 0.0
C210 C 0.37988 0.64294 0.9296 0.0
C211 C 0.36235 0.64349 0.9585 0.0
C212 C 0.36845 0.60432 0.97546 0.0
C213 C 0.39372 0.56608 0.96371 0.0
C214 C 0.4131 0.5672 0.93487 0.0
C215 C 0.404 0.60466 0.91822 0.0
C216 C 0.42128 0.59867 0.88733 0.0
C217 C 0.44543 0.55269 0.88826 0.0
C218 C 0.44182 0.53435 0.91621 0.0
C219 C 0.46695 0.6405 0.88023 0.0
C220 C 0.36759 0.59429 0.86812 0.0
H221 H 0.56137 0.39802 0.87549 0.0
H222 H 0.5234 0.39929 0.98112 0.0
H223 H 0.3826 0.46525 0.96266 0.0
H224 H 0.41821 0.42061 0.97826 0.0
H225 H 0.39653 0.41578 0.94109 0.0
H226 H 0.5483 0.50603 0.96963 0.0
H227 H 0.49664 0.48095 -0.0049 0.0
H228 H 0.48795 0.53342 0.97621 0.0
H229 H 0.53889 0.47541 0.7829 0.0
H230 H 0.45861 0.60067 0.77459 0.0
H231 H 0.43972 0.60217 0.82579 0.0
H232 H 0.60663 0.50959 0.8389 0.0
H233 H 0.60226 0.44782 0.82996 0.0
H234 H 0.60149 0.46976 0.86706 0.0
H235 H 0.44791 0.42284 0.82527 0.0
H236 H 0.4835 0.39628 0.85208 0.0
H237 H 0.51455 0.40401 0.81667 0.0
H238 H 0.6001 0.34354 0.90484 0.0
C239 C 0.55233 0.39963 0.89819 0.0
C240 C 0.57844 0.68119 0.04738 0.0
C241 C 0.60113 0.7237 0.06186 0.0
C242 C 0.59034 0.73006 0.09156 0.0
C243 C 0.54429 0.64978 0.0932 0.0
C244 C 0.54829 0.64516 0.06346 0.0
C245 C 0.5177 0.59842 0.05223 0.0
H246 H 0.41724 0.37335 0.07796 0.0
C247 C 0.51793 0.60461 0.10431 0.0
C248 C 0.497 0.57564 0.08054 0.0
H249 H 0.34843 0.4543 0.0132 0.0
H250 H 0.3993 0.52661 0.03518 0.0
H251 H 0.5472 0.43627 0.09302 0.0
H252 H 0.37585 0.43683 0.12036 0.0
H253 H 0.41658 0.46119 0.14989 0.0
H254 H 0.42071 0.40112 0.13771 0.0
H255 H 0.50587 0.38977 0.11194 0.0
H256 H 0.54449 0.43945 0.13126 0.0
C257 C 0.55965 0.56996 0.03672 0.0
C258 C 0.46989 0.60755 0.03187 0.0
C259 C 0.56139 0.56716 0.20797 0.0
C260 C 0.55195 0.52549 0.22337 0.0
C261 C 0.52834 0.48322 0.20905 0.0
C262 C 0.513 0.48281 0.17986 0.0
C263 C 0.5208 0.52514 0.16493 0.0
C264 C 0.54509 0.56632 0.17888 0.0
C265 C 0.55014 0.60789 0.15954 0.0
C266 C 0.52319 0.58492 0.13183 0.0
C267 C 0.5068 0.53647 0.13519 0.0
C268 C 0.61369 0.62544 0.15594 0.0
C269 C 0.51619 0.64563 0.1729 0.0
C270 C 0.41647 0.4061 0.06696 0.0
C271 C 0.38227 0.4075 0.04256 0.0
C272 C 0.37727 0.45172 0.03084 0.0
C273 C 0.40848 0.49336 0.04252 0.0
C274 C 0.44532 0.49062 0.06573 0.0
C275 C 0.44491 0.44809 0.07903 0.0
C276 C 0.46664 0.45466 0.10958 0.0
C277 C 0.48263 0.50779 0.11168 0.0
C278 C 0.4739 0.52808 0.0852 0.0
C279 C 0.51871 0.42855 0.11183 0.0
C280 C 0.41787 0.43738 0.1306 0.0
H281 H 0.55589 0.69964 0.13002 0.0
H282 H 0.5839 0.6763 0.02425 0.0
H283 H 0.43159 0.61366 0.04425 0.0
H284 H 0.45968 0.57784 0.01612 0.0
H285 H 0.48249 0.6388 0.01852 0.0
H286 H 0.59661 0.56752 0.05079 0.0
H287 H 0.57491 0.58672 0.01629 0.0
H288 H 0.53941 0.53357 0.03139 0.0
H289 H 0.57953 0.60002 0.21862 0.0
H290 H 0.52203 0.45042 0.22039 0.0
H291 H 0.49563 0.44953 0.17012 0.0
H292 H 0.63592 0.59654 0.14697 0.0
H293 H 0.63313 0.63744 0.17718 0.0
H294 H 0.62262 0.65519 0.14147 0.0
H295 H 0.48392 0.63018 0.18851 0.0
H296 H 0.49198 0.66146 0.15633 0.0
H297 H 0.54419 0.67411 0.18469 0.0
H298 H 0.60601 0.76299 0.10289 0.0
C299 C 0.56199 0.69331 0.10731 0.0
H300 H 0.0876 0.1979 0.01252 0.0
C301 C 0.10841 0.16663 0.00969 0.0
H302 H 0.18669 0.1411 0.00549 0.0
H303 H 0.32399 0.33585 0.96961 0.0
H304 H 0.32822 0.2882 0.92536 0.0
H305 H 0.27314 0.20897 0.92029 0.0
H306 H 0.21372 0.17667 0.95945 0.0
C307 C 0.165 0.17172 0.00896 0.0
C308 C 0.19933 0.21938 0.01231 0.0
C309 C 0.23379 0.23782 -0.01083 0.0
C310 C 0.26541 0.2837 -0.008 0.0
C311 C 0.29933 0.3012 0.96857 0.0
C312 C 0.30203 0.27428 0.94306 0.0
C313 C 0.27101 0.22965 0.94021 0.0
C314 C 0.23712 0.2115 0.96288 0.0
H315 H 0.36695 0.33006 0.03594 0.0
C316 C 0.34958 0.36238 0.03184 0.0
H317 H 0.27612 0.38967 0.01912 0.0
H318 H 0.1453 0.19239 0.06281 0.0
H319 H 0.14134 0.24019 0.10678 0.0
H320 H 0.19161 0.32133 0.11047 0.0
H321 H 0.24685 0.35485 0.07026 0.0
C322 C 0.29683 0.35861 0.02144 0.0
C323 C 0.2624 0.31121 0.01787 0.0
C324 C 0.22838 0.29273 0.0411 0.0
C325 C 0.19779 0.24648 0.03858 0.0
C326 C 0.16726 0.22799 0.06292 0.0
C327 C 0.16509 0.25491 0.08847 0.0
C328 C 0.19351 0.30053 0.09058 0.0
C329 C 0.22503 0.31934 0.06731 0.0
H330 H 0.14837 0.86177 0.01811 0.0
C331 C 0.1736 0.88474 0.00334 0.0
H332 H 0.24463 0.89156 0.97583 0.0
H333 H 0.37545 0.73643 0.02272 0.0
H334 H 0.43084 0.80671 0.04383 0.0
H335 H 0.39638 0.88396 0.04289 0.0
H336 H 0.30636 0.8915 0.02088 0.0
C337 C 0.21778 0.86889 -0.01002 0.0
C338 C 0.23384 0.82096 -0.00548 0.0
C339 C 0.28631 0.81696 0.00766 0.0
C340 C 0.30639 0.77243 0.0081 0.0
C341 C 0.35885 0.76958 0.02139 0.0
C342 C 0.39084 0.80955 0.03371 0.0
C343 C 0.37142 0.85304 0.03319 0.0
C344 C 0.31979 0.85692 0.02039 0.0
H345 H 0.35323 0.71895 0.95836 0.0
C346 C 0.3398 0.68651 0.96961 0.0
H347 H 0.28203 0.6554 0.00045 0.0
H348 H 0.13079 0.81498 0.96786 0.0
H349 H 0.07458 0.74418 0.94862 0.0
H350 H 0.10831 0.66684 0.95093 0.0
H351 H 0.19894 0.65999 0.97235 0.0
C352 C 0.30002 0.6875 -0.00989 0.0
C353 C 0.27425 0.73181 -0.00475 0.0
C354 C 0.22007 0.73508 0.98396 0.0
C355 C 0.20011 0.77972 0.98319 0.0
C356 C 0.14748 0.78209 0.9699 0.0
C357 C 0.11482 0.74166 0.95856 0.0
C358 C 0.13386 0.69812 0.95981 0.0
C359 C 0.18595 0.69469 0.97217 0.0
H360 H 0.91926 0.88715 0.00504 0.0
C361 C 0.90184 0.91976 0.0094 0.0
H362 H 0.82906 0.95073 0.01977 0.0
H363 H 0.64063 0.78711 0.9841 0.0
H364 H 0.63073 0.84328 0.9468 0.0
H365 H 0.70218 0.91307 0.94115 0.0
H366 H 0.78377 0.92737 0.97279 0.0
C367 C 0.84695 0.91816 0.0161 0.0
C368 C 0.80779 0.87306 0.01755 0.0
C369 C 0.76072 0.86486 -0.00141 0.0
C370 C 0.71963 0.82447 0.00167 0.0
C371 C 0.6728 0.81741 0.9827 0.0
C372 C 0.66674 0.84925 0.96118 0.0
C373 C 0.70697 0.88856 0.958 0.0
C374 C 0.75351 0.89643 0.97639 0.0
H375 H 0.63626 0.79786 0.05526 0.0
C376 C 0.63761 0.76181 0.04733 0.0
H377 H 0.68541 0.71735 0.02328 0.0
H378 H 0.89044 0.87903 0.05925 0.0
H379 H 0.90126 0.82135 0.09507 0.0
H380 H 0.83295 0.749 0.09822 0.0
H381 H 0.75285 0.73436 0.06566 0.0
C382 C 0.67964 0.75331 0.02948 0.0
C383 C 0.72583 0.79211 0.0235 0.0
C384 C 0.77407 0.79903 0.04161 0.0
C385 C 0.81451 0.84002 0.03911 0.0
C386 C 0.85975 0.84768 0.05914 0.0
C387 C 0.86622 0.81498 0.08009 0.0
C388 C 0.8277 0.77431 0.08191 0.0
C389 C 0.78192 0.76636 0.06308 0.0
H390 H 0.82902 0.19507 0.98405 0.0
C391 C 0.81387 0.17864 0.00399 0.0
H392 H 0.75054 0.17515 0.03618 0.0
H393 H 0.72799 0.37834 0.97377 0.0
H394 H 0.82044 0.40581 -0.0061 0.0
H395 H 0.87368 0.35159 0.01918 0.0
H396 H 0.83502 0.26951 0.0243 0.0
C397 C 0.76729 0.19155 0.0166 0.0
C398 C 0.73412 0.2255 0.00301 0.0
C399 C 0.75695 0.27361 0.00062 0.0
C400 C 0.72588 0.30505 0.98637 0.0
C401 C 0.7499 0.35284 0.98416 0.0
C402 C 0.80282 0.36915 -0.00424 0.0
C403 C 0.83281 0.33861 0.00997 0.0
C404 C 0.81027 0.29145 0.01256 0.0
H405 H 0.57645 0.32795 0.98534 0.0
C406 C 0.59509 0.33695 0.96443 0.0
H407 H 0.6652 0.33217 0.9371 0.0
H408 H 0.67622 0.13643 0.00578 0.0
H409 H 0.58323 0.10926 0.98638 0.0
H410 H 0.53011 0.1633 0.9609 0.0
H411 H 0.56935 0.24484 0.95488 0.0
C412 C 0.64318 0.32034 0.95664 0.0
C413 C 0.67166 0.28864 0.97487 0.0
C414 C 0.64796 0.2409 0.97817 0.0
C415 C 0.67902 0.20948 -0.0075 0.0
C416 C 0.65456 0.16189 -0.00479 0.0
C417 C 0.60123 0.14574 0.98409 0.0
C418 C 0.57131 0.17617 0.96977 0.0
C419 C 0.59429 0.2231 0.96662 0.0
H420 H 0.73066 0.61708 0.50321 0.0
C421 C 0.68742 0.62451 0.50288 0.0
H422 H 0.63355 0.67686 0.50677 0.0
H423 H 0.79807 0.81357 0.58674 0.0
H424 H 0.73397 0.77692 0.62251 0.0
H425 H 0.66399 0.70828 0.60918 0.0
H426 H 0.6571 0.67627 0.55998 0.0
C427 C 0.67671 0.66923 0.5061 0.0
C428 C 0.72182 0.7085 0.51391 0.0
C429 C 0.7255 0.72661 0.54285 0.0
C430 C 0.76667 0.76553 0.55059 0.0
C431 C 0.76848 0.78347 0.57962 0.0
C432 C 0.73173 0.76288 0.60043 0.0
C433 C 0.69222 0.72432 0.59293 0.0
C434 C 0.68877 0.70634 0.56454 0.0
H435 H 0.81939 0.87527 0.51016 0.0
C436 C 0.84687 0.87005 0.52808 0.0
H437 H 0.87581 0.82146 0.5557 0.0
H438 H 0.7249 0.68287 0.45645 0.0
H439 H 0.79207 0.71686 0.42089 0.0
H440 H 0.867 0.78161 0.43482 0.0
H441 H 0.87478 0.81321 0.48421 0.0
C442 C 0.84737 0.82661 0.53818 0.0
C443 C 0.80453 0.78604 0.52939 0.0
C444 C 0.80182 0.7671 0.50056 0.0
C445 C 0.7598 0.72867 0.49273 0.0
C446 C 0.7567 0.71139 0.46364 0.0
C447 C 0.79493 0.73061 0.44303 0.0
C448 C 0.83703 0.76714 0.45085 0.0
C449 C 0.84078 0.78521 0.47927 0.0
H450 H 0.67587 0.31591 0.50828 0.0
C451 C 0.70564 0.33993 0.4962 0.0
H452 H 0.7855 0.34982 0.47617 0.0
H453 H 0.90183 0.19214 0.52854 0.0
H454 H 0.94277 0.25875 0.55913 0.0
H455 H 0.90406 0.33428 0.55924 0.0
H456 H 0.8241 0.34369 0.52883 0.0
C457 C 0.75393 0.32552 0.48681 0.0
C458 C 0.76871 0.27739 0.49139 0.0
C459 C 0.81499 0.27225 0.50947 0.0
C460 C 0.83757 0.22882 0.5093 0.0
C461 C 0.88382 0.2247 0.52753 0.0
C462 C 0.90745 0.26252 0.54528 0.0
C463 C 0.88564 0.30505 0.54535 0.0
C464 C 0.83993 0.31006 0.52772 0.0
H465 H 0.90918 0.19069 0.46325 0.0
C466 C 0.89329 0.15531 0.47007 0.0
H467 H 0.82536 0.11445 0.49082 0.0
H468 H 0.67721 0.27371 0.45544 0.0
H469 H 0.63443 0.2061 0.42663 0.0
H470 H 0.67257 0.13043 0.42722 0.0
H471 H 0.75411 0.12207 0.45656 0.0
C472 C 0.84521 0.14944 0.4854 0.0
C473 C 0.81419 0.19066 0.49085 0.0
C474 C 0.76495 0.19439 0.47468 0.0
C475 C 0.74247 0.23795 0.47468 0.0
C476 C 0.69543 0.2414 0.45682 0.0
C477 C 0.67053 0.20283 0.44004 0.0
C478 C 0.69203 0.16024 0.44035 0.0
C479 C 0.73885 0.15592 0.45729 0.0
H480 H 0.3934 0.42 0.50729 0.0
C481 C 0.4348 0.40984 0.50299 0.0
H482 H 0.48253 0.35319 0.49969 0.0
H483 H 0.31402 0.24017 0.58754 0.0
H484 H 0.40191 0.25099 0.61433 0.0
H485 H 0.48698 0.2973 0.59449 0.0
H486 H 0.48469 0.3331 0.54783 0.0
C487 C 0.44117 0.36402 0.50275 0.0
C488 C 0.39335 0.32878 0.51179 0.0
C489 C 0.39576 0.3076 0.53895 0.0
C490 C 0.34658 0.28138 0.55051 0.0
C491 C 0.34993 0.26101 0.57787 0.0
C492 C 0.40016 0.26681 0.59346 0.0
C493 C 0.44804 0.29288 0.5823 0.0
C494 C 0.44611 0.31323 0.55543 0.0
H495 H 0.23032 0.19428 0.52149 0.0
C496 C 0.2169 0.21144 0.54116 0.0
H497 H 0.22961 0.27275 0.56844 0.0
H498 H 0.37785 0.35681 0.45684 0.0
H499 H 0.29 0.34587 0.42975 0.0
H500 H 0.20326 0.30399 0.45081 0.0
H501 H 0.20391 0.27226 0.49881 0.0
C502 C 0.24286 0.25453 0.54918 0.0
C503 C 0.29515 0.27642 0.5349 0.0
C504 C 0.29356 0.29519 0.50696 0.0
C505 C 0.34306 0.32076 0.49521 0.0
C506 C 0.34092 0.33837 0.46705 0.0
C507 C 0.29092 0.3321 0.45125 0.0
C508 C 0.24212 0.30841 0.46308 0.0
C509 C 0.24312 0.29019 0.49063 0.0
H510 H 0.34337 0.62654 0.47404 0.0
C511 C 0.36068 0.64295 0.49423 0.0
H512 H 0.35403 0.69677 0.52612 0.0
H513 H 0.24272 0.78254 0.41162 0.0
H514 H 0.3355 0.78599 0.39045 0.0
H515 H 0.41103 0.75247 0.41521 0.0
H516 H 0.394 0.71498 0.4611 0.0
C517 C 0.33906 0.68055 0.50555 0.0
C518 C 0.29369 0.70134 0.4906 0.0
C519 C 0.30471 0.72392 0.46389 0.0
C520 C 0.26142 0.74412 0.4499 0.0
C521 C 0.27371 0.76637 0.42322 0.0
C522 C 0.32698 0.76883 0.41083 0.0
C523 C 0.36946 0.74991 0.42474 0.0
C524 C 0.35886 0.72801 0.45102 0.0
H525 H 0.15822 0.81817 0.48017 0.0
C526 C 0.14636 0.80546 0.45831 0.0
H527 H 0.15109 0.75146 0.42645 0.0
H528 H 0.25903 0.66205 0.54188 0.0
H529 H 0.16636 0.6597 0.5635 0.0
H530 H 0.09122 0.69435 0.5391 0.0
H531 H 0.10833 0.73181 0.49298 0.0
C532 C 0.16337 0.76514 0.44803 0.0
C533 C 0.20757 0.74293 0.46297 0.0
C534 C 0.19671 0.72079 0.48978 0.0
C535 C 0.23993 0.70027 0.50369 0.0
C536 C 0.22788 0.67833 0.53043 0.0
C537 C 0.17481 0.6766 0.54304 0.0
C538 C 0.13251 0.69616 0.52931 0.0
C539 C 0.143 0.71782 0.50292 0.0
H540 H 0.99664 0.04553 0.10815 0.0
C541 C 0.03056 0.03736 0.09399 0.0
H542 H 0.11345 0.0204 0.09143 0.0
H543 H 0.05223 0.1003 0.22545 0.0
H544 H 0.04212 0.17378 0.20308 0.0
H545 H 0.05726 0.18286 0.1506 0.0
H546 H 0.07998 0.11745 0.12013 0.0
C547 C 0.07936 0.02864 0.10543 0.0
C548 C 0.08681 0.02771 0.13734 0.0
C549 C 0.07905 0.06765 0.15514 0.0
C550 C 0.07578 0.0638 0.18568 0.0
C551 C 0.06009 0.10225 0.20248 0.0
C552 C 0.05334 0.1446 0.18983 0.0
C553 C 0.06147 0.14961 0.16028 0.0
C554 C 0.074 0.11166 0.14301 0.0
H555 H 0.14339 0.07581 0.24107 0.0
C556 C 0.11527 0.04597 0.24904 0.0
H557 H 0.0545 0.98755 0.23873 0.0
H558 H 0.10687 0.94556 0.10947 0.0
H559 H 0.12724 0.87465 0.13201 0.0
H560 H 0.13127 0.87051 0.18518 0.0
H561 H 0.11407 0.93705 0.21614 0.0
C562 C 0.08359 0.01657 0.23047 0.0
C563 C 0.08684 0.0216 0.19855 0.0
C564 C 0.09895 0.9829 0.18076 0.0
C565 C 0.09813 0.98571 0.15011 0.0
C566 C 0.1079 0.94576 0.13287 0.0
C567 C 0.11962 0.90474 0.14553 0.0
C568 C 0.1218 0.90238 0.17546 0.0
C569 C 0.11164 0.94084 0.19298 0.0
H570 H 0.9462 0.06254 0.91585 0.0
C571 C 0.98326 0.04843 0.92331 0.0
H572 H 0.05584 0.01829 0.91111 0.0
H573 H 0.96239 0.94222 0.78865 0.0
H574 H 0.96512 0.86942 0.81358 0.0
H575 H 0.9866 0.87063 0.8658 0.0
H576 H 1.00593 0.94462 0.89333 0.0
C577 C 0.01933 0.0335 0.90397 0.0
C578 C 1.00771 0.03332 0.87244 0.0
C579 C 0.99604 0.98967 0.85678 0.0
C580 C 0.98281 0.98895 0.82682 0.0
C581 C 0.97205 0.94487 0.81155 0.0
C582 C 0.97354 0.90277 0.82558 0.0
C583 C 0.98569 0.90345 0.85497 0.0
C584 C 0.99678 0.94624 0.87051 0.0
H585 H 0.04918 0.06439 0.77047 0.0
C586 C 1.00892 0.04693 0.76222 0.0
H587 H 0.92788 0.01365 0.77386 0.0
H588 H 0.03542 0.12327 0.89521 0.0
H589 H 0.02931 0.19596 0.87074 0.0
H590 H 0.9985 0.19444 0.81978 0.0
H591 H 0.97482 0.12023 0.79286 0.0
C592 C 0.96891 0.03059 0.78116 0.0
C593 C 0.98101 0.03186 0.81267 0.0
C594 C 0.99209 0.07553 0.8284 0.0
C595 C 1.00697 0.07632 0.85817 0.0
C596 C 0.02137 0.12049 0.87292 0.0
C597 C 1.01846 0.16254 0.85907 0.0
C598 C 1.00134 0.16169 0.83036 0.0
C599 C 0.98823 0.11882 0.8151 0.0
H600 H 0.61054 0.48589 0.59458 0.0
C601 C 0.57823 0.50497 0.5862 0.0
H602 H 0.51139 0.54362 0.59632 0.0
H603 H 0.53458 0.43022 0.71777 0.0
H604 H 0.5084 0.35809 0.68906 0.0
H605 H 0.49877 0.36004 0.63602 0.0
H606 H 0.51581 0.43385 0.61132 0.0
C607 C 0.54319 0.52381 0.6045 0.0
C608 C 0.54909 0.52175 0.63635 0.0
C609 C 0.53855 0.47803 0.65034 0.0
C610 C 0.54269 0.477 0.68098 0.0
C611 C 0.53175 0.43304 0.69454 0.0
C612 C 0.51663 0.39136 0.67834 0.0
C613 C 0.51135 0.39245 0.64846 0.0
C614 C 0.52179 0.43514 0.63452 0.0
H615 H 0.4823 0.55696 0.73018 0.0
C616 C 0.50994 0.5387 0.74304 0.0
H617 H 0.58029 0.50108 0.74139 0.0
H618 H 0.57201 0.61146 0.61622 0.0
H619 H 0.59633 0.68347 0.64531 0.0
H620 H 0.60649 0.68108 0.69826 0.0
H621 H 0.59022 0.60677 0.72266 0.0
C622 C 0.55111 0.51907 0.72953 0.0
C623 C 0.55564 0.51966 0.6975 0.0
C624 C 0.56787 0.56313 0.68346 0.0
C625 C 0.56372 0.56427 0.65286 0.0
C626 C 0.57454 0.6084 0.63944 0.0
C627 C 0.58901 0.65001 0.65582 0.0
C628 C 0.59443 0.64871 0.68567 0.0
C629 C 0.58443 0.60586 0.69943 0.0
H630 H 0.50844 0.53999 0.40715 0.0
C631 C 0.54467 0.52541 0.41526 0.0
H632 H 0.6182 0.49562 0.40472 0.0
H633 H 0.54078 0.41693 0.28067 0.0
H634 H 0.55237 0.34571 0.30551 0.0
H635 H 0.57213 0.34832 0.35793 0.0
H636 H 0.58117 0.42217 0.38572 0.0
C637 C 0.58211 0.51046 0.39668 0.0
C638 C 0.57262 0.50964 0.36492 0.0
C639 C 0.56665 0.4659 0.34915 0.0
C640 C 0.55388 0.46421 0.3191 0.0
C641 C 0.54942 0.42022 0.30366 0.0
C642 C 0.5561 0.37901 0.31764 0.0
C643 C 0.5673 0.38049 0.34713 0.0
C644 C 0.5725 0.42325 0.36282 0.0
H645 H 0.60342 0.55035 0.26186 0.0
C646 C 0.56629 0.52695 0.2544 0.0
H647 H 0.49417 0.481 0.26662 0.0
H648 H 0.59286 0.60046 0.38727 0.0
H649 H 0.57559 0.67111 0.3633 0.0
H650 H 0.54044 0.66668 0.31301 0.0
H651 H 0.52436 0.59194 0.28618 0.0
C652 C 0.53214 0.50359 0.27373 0.0
C653 C 0.54592 0.50607 0.30509 0.0
C654 C 0.55117 0.54976 0.32098 0.0
C655 C 0.56709 0.55183 0.35061 0.0
C656 C 0.5773 0.59645 0.36526 0.0
C657 C 0.56807 0.63738 0.35167 0.0
C658 C 0.5486 0.63492 0.32333 0.0
C659 C 0.54009 0.59175 0.30807 0.0
loop_
_geom_bond_atom_site_label_1
_geom_bond_atom_site_label_2
_geom_bond_distance
_geom_bond_site_symmetry_2
_ccdc_geom_bond_type
Co0 N5 2.057 . S
Co0 O17 2.021 . S
Co0 O20 2.062 1_455 S
Co0 O24 2.117 1_554 S
Co0 O25 2.020 1_565 S
C1 O21 1.259 1_455 S
C1 O24 1.258 1_545 S
Co2 N11 2.057 . S
Co2 O18 2.117 . S
Co2 O19 2.020 1_545 S
Co2 O21 2.021 1_554 S
Co2 O26 2.062 1_655 S
C3 N5 1.316 . S
C3 N6 1.347 . S
C3 H8 0.931 . S
C4 N5 1.375 1_556 S
C4 C7 1.350 . S
C4 H9 0.930 . S
N5 Co0 2.057 . S
N5 C3 1.316 . S
N5 C4 1.375 1_554 S
N6 C3 1.347 . S
N6 C7 1.373 1_554 S
C7 C4 1.350 . S
C7 N6 1.373 1_556 S
C7 H28 0.931 . S
H8 C3 0.931 . S
H9 C4 0.930 . S
C10 O17 1.259 1_545 S
C10 O18 1.258 1_455 S
N11 Co2 2.057 . S
N11 C12 1.316 . S
N11 C13 1.375 . S
C12 N11 1.316 . S
C12 N14 1.347 . S
C12 H23 0.931 1_554 S
C13 N11 1.375 . S
C13 C15 1.350 . S
C13 H22 0.930 . S
N14 C12 1.347 . S
N14 C15 1.373 . S
C15 C13 1.350 . S
C15 N14 1.373 . S
C15 H29 0.931 . S
C16 O19 1.256 . S
C16 O20 1.255 . S
O17 Co0 2.021 . S
O17 C10 1.259 1_565 S
O18 Co2 2.117 . S
O18 C10 1.258 1_655 S
O19 Co2 2.020 1_565 S
O19 C16 1.256 . S
O20 Co0 2.062 1_655 S
O20 C16 1.255 . S
O21 C1 1.259 1_655 S
O21 Co2 2.021 1_556 S
H22 C13 0.930 . S
H23 C12 0.931 1_556 S
O24 Co0 2.117 1_556 S
O24 C1 1.258 1_565 S
O25 Co0 2.020 1_545 S
O25 C27 1.256 . S
O26 Co2 2.062 1_455 S
O26 C27 1.255 . S
C27 O25 1.256 . S
C27 O26 1.255 . S
H28 C7 0.931 . S
H29 C15 0.931 . S
Co30 N35 2.057 . S
Co30 O47 2.021 . S
Co30 O50 2.062 . S
Co30 O54 2.117 . S
Co30 O55 2.020 . S
C31 O51 1.259 . S
C31 O54 1.258 . S
Co32 N41 2.057 . S
Co32 O48 2.117 . S
Co32 O49 2.020 . S
Co32 O51 2.021 . S
Co32 O56 2.062 . S
C33 N35 1.316 . S
C33 N36 1.347 . S
C33 H38 0.931 . S
C34 N35 1.375 . S
C34 C37 1.350 . S
C34 H39 0.930 . S
N35 Co30 2.057 . S
N35 C33 1.316 . S
N35 C34 1.375 . S
N36 C33 1.347 . S
N36 C37 1.373 . S
C37 C34 1.350 . S
C37 N36 1.373 . S
C37 H58 0.931 . S
H38 C33 0.931 . S
H39 C34 0.930 . S
C40 O47 1.259 . S
C40 O48 1.258 . S
N41 Co32 2.057 . S
N41 C42 1.316 . S
N41 C43 1.375 . S
C42 N41 1.316 . S
C42 N44 1.347 . S
C42 H53 0.931 . S
C43 N41 1.375 . S
C43 C45 1.350 . S
C43 H52 0.930 . S
N44 C42 1.347 . S
N44 C45 1.373 . S
C45 C43 1.350 . S
C45 N44 1.373 . S
C45 H59 0.931 . S
C46 O49 1.256 . S
C46 O50 1.255 . S
O47 Co30 2.021 . S
O47 C40 1.259 . S
O48 Co32 2.117 . S
O48 C40 1.258 . S
O49 Co32 2.020 . S
O49 C46 1.256 . S
O50 Co30 2.062 . S
O50 C46 1.255 . S
O51 C31 1.259 . S
O51 Co32 2.021 . S
H52 C43 0.930 . S
H53 C42 0.931 . S
O54 Co30 2.117 . S
O54 C31 1.258 . S
O55 Co30 2.020 . S
O55 C57 1.256 . S
O56 Co32 2.062 . S
O56 C57 1.255 . S
C57 O55 1.256 . S
C57 O56 1.255 . S
H58 C37 0.931 . S
H59 C45 0.931 . S
C60 C61 1.391 . S
C60 C64 1.391 . S
C60 H102 0.948 . S
C61 C60 1.391 . S
C61 C62 1.391 . S
C62 C61 1.391 . S
C62 H118 0.947 . S
C62 C119 1.392 . S
C63 C64 1.391 . S
C63 C67 1.397 . S
C63 C119 1.419 . S
C64 C60 1.391 . S
C64 C63 1.391 . S
C64 C65 1.399 . S
C65 C64 1.399 . S
C65 C68 1.396 . S
C65 C77 1.453 1_565 S
C65 C78 1.684 1_455 S
H66 C90 0.948 . S
C67 C63 1.397 . S
C67 C68 1.394 . S
C67 C86 1.723 . S
C68 C65 1.396 . S
C68 C67 1.394 . S
C68 C98 1.723 1_465 S
H69 C92 0.947 . S
H70 C93 0.948 . S
H71 C99 0.982 . S
H72 C100 0.979 . S
H73 C100 0.980 . S
H74 C100 0.983 . S
H75 C99 0.979 . S
H76 C99 0.977 . S
C77 C65 1.453 1_545 S
C77 H106 0.982 . S
C77 H107 0.979 1_545 S
C77 H108 0.977 . S
C78 C65 1.684 1_655 S
C78 H103 0.979 . S
C78 H104 0.980 . S
C78 H105 0.983 . S
C79 C80 1.391 1_465 S
C79 C84 1.391 . S
C79 H109 0.948 . S
C80 C79 1.391 1_645 S
C80 C81 1.391 . S
C81 C80 1.391 . S
C81 C82 1.392 . S
C81 H110 0.947 . S
C82 C81 1.392 . S
C82 C83 1.419 . S
C82 H111 0.948 . S
C83 C82 1.419 . S
C83 C84 1.391 1_645 S
C83 C87 1.397 . S
C84 C79 1.391 . S
C84 C83 1.391 1_465 S
C84 C85 1.399 . S
C85 C84 1.399 . S
C85 C86 1.396 . S
C85 C88 1.453 . S
C85 C89 1.684 . S
C86 C67 1.723 . S
C86 C85 1.396 . S
C86 C87 1.394 1_465 S
C87 C83 1.397 . S
C87 C86 1.394 1_645 S
C87 C97 1.723 . S
C88 C85 1.453 . S
C88 H112 0.982 . S
C88 H113 0.979 . S
C88 H114 0.977 . S
C89 C85 1.684 . S
C89 H115 0.982 . S
C89 H116 0.980 . S
C89 H117 0.983 . S
C90 H66 0.948 . S
C90 C91 1.391 . S
C90 C95 1.391 . S
C91 C90 1.391 . S
C91 C92 1.391 . S
C92 H69 0.947 . S
C92 C91 1.391 . S
C92 C93 1.392 . S
C93 H70 0.948 . S
C93 C92 1.392 . S
C93 C94 1.419 . S
C94 C93 1.419 . S
C94 C95 1.391 . S
C94 C98 1.397 . S
C95 C90 1.391 . S
C95 C94 1.391 . S
C95 C96 1.399 . S
C96 C95 1.399 . S
C96 C97 1.396 . S
C96 C99 1.453 . S
C96 C100 1.684 . S
C97 C87 1.723 . S
C97 C96 1.396 . S
C97 C98 1.394 . S
C98 C68 1.723 1_645 S
C98 C94 1.397 . S
C98 C97 1.394 . S
C99 H71 0.982 . S
C99 H75 0.979 . S
C99 H76 0.977 . S
C99 C96 1.453 . S
C100 H72 0.979 . S
C100 H73 0.980 . S
C100 H74 0.983 . S
C100 C96 1.684 . S
H101 C119 0.948 . S
H102 C60 0.948 . S
H103 C78 0.979 . S
H104 C78 0.980 . S
H105 C78 0.983 . S
H106 C77 0.982 . S
H107 C77 0.979 1_565 S
H108 C77 0.977 . S
H109 C79 0.948 . S
H110 C81 0.947 . S
H111 C82 0.948 . S
H112 C88 0.982 . S
H113 C88 0.979 . S
H114 C88 0.977 . S
H115 C89 0.982 . S
H116 C89 0.980 . S
H117 C89 0.983 . S
H118 C62 0.947 . S
C119 C62 1.392 . S
C119 C63 1.419 . S
C119 H101 0.948 . S
C120 C121 1.391 . S
C120 C124 1.391 . S
C120 H162 0.948 . S
C121 C120 1.391 . S
C121 C122 1.391 . S
C122 C121 1.391 . S
C122 H178 0.947 . S
C122 C179 1.392 . S
C123 C124 1.391 . S
C123 C127 1.397 . S
C123 C179 1.419 . S
C124 C120 1.391 . S
C124 C123 1.391 . S
C124 C125 1.399 . S
C125 C124 1.399 . S
C125 C128 1.396 . S
C125 C137 1.453 . S
C125 C138 1.684 1_455 S
H126 C150 0.948 . S
C127 C123 1.397 . S
C127 C128 1.394 . S
C127 C146 1.723 . S
C128 C125 1.396 . S
C128 C127 1.394 . S
C128 C158 1.723 1_445 S
H129 C152 0.947 . S
H130 C153 0.948 . S
H131 C159 0.982 . S
H132 C160 0.979 . S
H133 C160 0.980 . S
H134 C160 0.983 . S
H135 C159 0.979 . S
H136 C159 0.977 . S
C137 C125 1.453 . S
C137 H166 0.982 . S
C137 H167 0.979 . S
C137 H168 0.977 1_545 S
C138 C125 1.684 1_655 S
C138 H163 0.979 . S
C138 H164 0.980 . S
C138 H165 0.983 1_655 S
C139 C140 1.391 1_455 S
C139 C144 1.391 . S
C139 H169 0.948 . S
C140 C139 1.391 1_655 S
C140 C141 1.391 1_545 S
C141 C140 1.391 1_565 S
C141 C142 1.392 . S
C141 H170 0.947 . S
C142 C141 1.392 . S
C142 C143 1.419 1_565 S
C142 H171 0.948 . S
C143 C142 1.419 1_545 S
C143 C144 1.391 1_655 S
C143 C147 1.397 . S
C144 C139 1.391 . S
C144 C143 1.391 1_455 S
C144 C145 1.399 . S
C145 C144 1.399 . S
C145 C146 1.396 . S
C145 C148 1.453 . S
C145 C149 1.684 . S
C146 C127 1.723 . S
C146 C145 1.396 . S
C146 C147 1.394 1_455 S
C147 C143 1.397 . S
C147 C146 1.394 1_655 S
C147 C157 1.723 1_545 S
C148 C145 1.453 . S
C148 H172 0.982 . S
C148 H173 0.979 . S
C148 H174 0.977 . S
C149 C145 1.684 . S
C149 H175 0.979 . S
C149 H176 0.980 . S
C149 H177 0.983 . S
C150 H126 0.948 . S
C150 C151 1.391 . S
C150 C155 1.391 . S
C151 C150 1.391 . S
C151 C152 1.391 . S
C152 H129 0.947 . S
C152 C151 1.391 . S
C152 C153 1.392 . S
C153 H130 0.948 . S
C153 C152 1.392 . S
C153 C154 1.419 . S
C154 C153 1.419 . S
C154 C155 1.391 . S
C154 C158 1.397 . S
C155 C150 1.391 . S
C155 C154 1.391 . S
C155 C156 1.399 . S
C156 C155 1.399 . S
C156 C157 1.396 . S
C156 C159 1.453 . S
C156 C160 1.684 . S
C157 C147 1.723 1_565 S
C157 C156 1.396 . S
C157 C158 1.394 . S
C158 C128 1.723 1_665 S
C158 C154 1.397 . S
C158 C157 1.394 . S
C159 H131 0.982 . S
C159 H135 0.979 . S
C159 H136 0.977 . S
C159 C156 1.453 . S
C160 H132 0.979 . S
C160 H133 0.980 . S
C160 H134 0.983 . S
C160 C156 1.684 . S
H161 C179 0.948 . S
H162 C120 0.948 . S
H163 C138 0.979 . S
H164 C138 0.980 . S
H165 C138 0.983 1_455 S
H166 C137 0.982 . S
H167 C137 0.979 . S
H168 C137 0.977 1_565 S
H169 C139 0.948 . S
H170 C141 0.947 . S
H171 C142 0.948 . S
H172 C148 0.982 . S
H173 C148 0.979 . S
H174 C148 0.977 . S
H175 C149 0.979 . S
H176 C149 0.980 . S
H177 C149 0.983 . S
H178 C122 0.947 . S
C179 C122 1.392 . S
C179 C123 1.419 . S
C179 H161 0.948 . S
C180 C181 1.391 . S
C180 C184 1.391 . S
C180 H222 0.948 1_556 S
C181 C180 1.391 . S
C181 C182 1.391 . S
C182 C181 1.391 . S
C182 H238 0.947 . S
C182 C239 1.392 . S
C183 C184 1.391 . S
C183 C187 1.397 . S
C183 C239 1.419 . S
C184 C180 1.391 . S
C184 C183 1.391 . S
C184 C185 1.399 . S
C185 C184 1.399 . S
C185 C188 1.396 . S
C185 C197 1.453 1_556 S
C185 C198 1.684 1_556 S
H186 C210 0.948 . S
C187 C183 1.397 . S
C187 C188 1.394 . S
C187 C206 1.723 . S
C188 C185 1.396 . S
C188 C187 1.394 . S
C188 C218 1.723 . S
H189 C212 0.947 . S
H190 C213 0.948 1_554 S
H191 C219 0.982 . S
H192 C220 0.979 . S
H193 C220 0.980 . S
H194 C220 0.983 . S
H195 C219 0.979 . S
H196 C219 0.977 . S
C197 C185 1.453 1_554 S
C197 H226 0.982 1_554 S
C197 H227 0.979 . S
C197 H228 0.977 . S
C198 C185 1.684 1_554 S
C198 H223 0.979 . S
C198 H224 0.980 . S
C198 H225 0.983 . S
C199 C200 1.391 . S
C199 C204 1.391 . S
C199 H229 0.948 . S
C200 C199 1.391 . S
C200 C201 1.391 . S
C201 C200 1.391 . S
C201 C202 1.392 . S
C201 H230 0.947 . S
C202 C201 1.392 . S
C202 C203 1.419 . S
C202 H231 0.948 . S
C203 C202 1.419 . S
C203 C204 1.391 . S
C203 C207 1.397 . S
C204 C199 1.391 . S
C204 C203 1.391 . S
C204 C205 1.399 . S
C205 C204 1.399 . S
C205 C206 1.396 . S
C205 C208 1.453 . S
C205 C209 1.684 . S
C206 C187 1.723 . S
C206 C205 1.396 . S
C206 C207 1.394 . S
C207 C203 1.397 . S
C207 C206 1.394 . S
C207 C217 1.723 . S
C208 C205 1.453 . S
C208 H232 0.982 . S
C208 H233 0.979 . S
C208 H234 0.977 . S
C209 C205 1.684 . S
C209 H235 0.979 . S
C209 H236 0.980 . S
C209 H237 0.983 . S
C210 H186 0.948 . S
C210 C211 1.391 . S
C210 C215 1.391 . S
C211 C210 1.391 . S
C211 C212 1.391 1_556 S
C212 H189 0.947 . S
C212 C211 1.391 1_554 S
C212 C213 1.392 1_554 S
C213 H190 0.948 1_556 S
C213 C212 1.392 1_556 S
C213 C214 1.419 . S
C214 C213 1.419 . S
C214 C215 1.391 . S
C214 C218 1.397 . S
C215 C210 1.391 . S
C215 C214 1.391 . S
C215 C216 1.399 . S
C216 C215 1.399 . S
C216 C217 1.396 . S
C216 C219 1.453 . S
C216 C220 1.684 . S
C217 C207 1.723 . S
C217 C216 1.396 . S
C217 C218 1.394 . S
C218 C188 1.723 . S
C218 C214 1.397 . S
C218 C217 1.394 . S
C219 H191 0.982 . S
C219 H195 0.979 . S
C219 H196 0.977 . S
C219 C216 1.453 . S
C220 H192 0.979 . S
C220 H193 0.980 . S
C220 H194 0.983 . S
C220 C216 1.684 . S
H221 C239 0.948 . S
H222 C180 0.948 1_554 S
H223 C198 0.979 . S
H224 C198 0.980 . S
H225 C198 0.983 . S
H226 C197 0.982 1_556 S
H227 C197 0.979 . S
H228 C197 0.977 . S
H229 C199 0.948 . S
H230 C201 0.947 . S
H231 C202 0.948 . S
H232 C208 0.982 . S
H233 C208 0.979 . S
H234 C208 0.977 . S
H235 C209 0.979 . S
H236 C209 0.980 . S
H237 C209 0.983 . S
H238 C182 0.947 . S
C239 C182 1.392 . S
C239 C183 1.419 . S
C239 H221 0.948 . S
C240 C241 1.391 . S
C240 C244 1.391 . S
C240 H282 0.948 . S
C241 C240 1.391 . S
C241 C242 1.391 . S
C242 C241 1.391 . S
C242 H298 0.947 . S
C242 C299 1.392 . S
C243 C244 1.391 . S
C243 C247 1.397 . S
C243 C299 1.419 . S
C244 C240 1.391 . S
C244 C243 1.391 . S
C244 C245 1.399 . S
C245 C244 1.399 . S
C245 C248 1.396 . S
C245 C257 1.453 . S
C245 C258 1.684 . S
H246 C270 0.948 . S
C247 C243 1.397 . S
C247 C248 1.394 . S
C247 C266 1.723 . S
C248 C245 1.396 . S
C248 C247 1.394 . S
C248 C278 1.723 . S
H249 C272 0.947 1_556 S
H250 C273 0.948 . S
H251 C279 0.982 . S
H252 C280 0.979 . S
H253 C280 0.980 . S
H254 C280 0.983 . S
H255 C279 0.979 . S
H256 C279 0.977 . S
C257 C245 1.453 . S
C257 H286 0.982 . S
C257 H287 0.979 . S
C257 H288 0.977 . S
C258 C245 1.684 . S
C258 H283 0.979 . S
C258 H284 0.980 . S
C258 H285 0.983 1_554 S
C259 C260 1.391 . S
C259 C264 1.391 . S
C259 H289 0.948 . S
C260 C259 1.391 . S
C260 C261 1.391 . S
C261 C260 1.391 . S
C261 C262 1.392 . S
C261 H290 0.947 . S
C262 C261 1.392 . S
C262 C263 1.419 . S
C262 H291 0.948 . S
C263 C262 1.419 . S
C263 C264 1.391 . S
C263 C267 1.397 . S
C264 C259 1.391 . S
C264 C263 1.391 . S
C264 C265 1.399 . S
C265 C264 1.399 . S
C265 C266 1.396 . S
C265 C268 1.453 . S
C265 C269 1.684 . S
C266 C247 1.723 . S
C266 C265 1.396 . S
C266 C267 1.394 . S
C267 C263 1.397 . S
C267 C266 1.394 . S
C267 C277 1.723 . S
C268 C265 1.453 . S
C268 H292 0.982 . S
C268 H293 0.979 . S
C268 H294 0.977 . S
C269 C265 1.684 . S
C269 H295 0.979 . S
C269 H296 0.980 . S
C269 H297 0.983 . S
C270 H246 0.948 . S
C270 C271 1.391 . S
C270 C275 1.391 . S
C271 C270 1.391 . S
C271 C272 1.391 . S
C272 H249 0.947 1_554 S
C272 C271 1.391 . S
C272 C273 1.392 . S
C273 H250 0.948 . S
C273 C272 1.392 . S
C273 C274 1.419 . S
C274 C273 1.419 . S
C274 C275 1.391 . S
C274 C278 1.397 . S
C275 C270 1.391 . S
C275 C274 1.391 . S
C275 C276 1.399 . S
C276 C275 1.399 . S
C276 C277 1.396 . S
C276 C279 1.453 . S
C276 C280 1.684 . S
C277 C267 1.723 . S
C277 C276 1.396 . S
C277 C278 1.394 . S
C278 C248 1.723 . S
C278 C274 1.397 . S
C278 C277 1.394 . S
C279 H251 0.982 . S
C279 H255 0.979 . S
C279 H256 0.977 . S
C279 C276 1.453 . S
C280 H252 0.979 . S
C280 H253 0.980 . S
C280 H254 0.983 . S
C280 C276 1.684 . S
H281 C299 0.948 . S
H282 C240 0.948 . S
H283 C258 0.979 . S
H284 C258 0.980 . S
H285 C258 0.983 1_556 S
H286 C257 0.982 . S
H287 C257 0.979 . S
H288 C257 0.977 . S
H289 C259 0.948 . S
H290 C261 0.947 . S
H291 C262 0.948 . S
H292 C268 0.982 . S
H293 C268 0.979 . S
H294 C268 0.977 . S
H295 C269 0.979 . S
H296 C269 0.980 . S
H297 C269 0.983 . S
H298 C242 0.947 . S
C299 C242 1.392 . S
C299 C243 1.419 . S
C299 H281 0.948 . S
H300 C301 0.951 . S
C301 H300 0.951 . S
C301 C307 1.265 . S
H302 C307 0.950 . S
H303 C311 0.949 . S
H304 C312 0.950 . S
H305 C313 0.951 . S
H306 C314 0.951 . S
C307 C301 1.265 . S
C307 H302 0.950 . S
C307 C308 1.478 . S
C308 C307 1.478 . S
C308 C309 1.397 1_554 S
C308 C325 1.394 . S
C309 C308 1.397 1_556 S
C309 C310 1.438 1_556 S
C309 C314 1.429 . S
C310 C309 1.438 1_554 S
C310 C311 1.424 1_554 S
C310 C323 1.398 . S
C311 H303 0.949 . S
C311 C310 1.424 1_556 S
C311 C312 1.345 . S
C312 H304 0.950 . S
C312 C311 1.345 . S
C312 C313 1.424 . S
C313 H305 0.951 . S
C313 C312 1.424 . S
C313 C314 1.347 . S
C314 H306 0.951 . S
C314 C309 1.429 . S
C314 C313 1.347 . S
H315 C316 0.951 . S
C316 H315 0.951 . S
C316 C322 1.265 . S
H317 C322 0.950 . S
H318 C326 0.949 . S
H319 C327 0.950 . S
H320 C328 0.951 . S
H321 C329 0.951 . S
C322 C316 1.265 . S
C322 H317 0.950 . S
C322 C323 1.478 . S
C323 C310 1.398 . S
C323 C322 1.478 . S
C323 C324 1.397 . S
C324 C323 1.397 . S
C324 C325 1.438 . S
C324 C329 1.429 . S
C325 C308 1.394 . S
C325 C324 1.438 . S
C325 C326 1.428 . S
C326 H318 0.949 . S
C326 C325 1.428 . S
C326 C327 1.345 . S
C327 H319 0.950 . S
C327 C326 1.345 . S
C327 C328 1.424 . S
C328 H320 0.951 . S
C328 C327 1.424 . S
C328 C329 1.347 . S
C329 H321 0.951 . S
C329 C324 1.429 . S
C329 C328 1.347 . S
H330 C331 0.951 . S
C331 H330 0.951 . S
C331 C337 1.265 . S
H332 C337 0.950 1_556 S
H333 C341 0.949 . S
H334 C342 0.950 . S
H335 C343 0.951 . S
H336 C344 0.951 . S
C337 C331 1.265 . S
C337 H332 0.950 1_554 S
C337 C338 1.478 . S
C338 C337 1.478 . S
C338 C339 1.397 . S
C338 C355 1.392 1_554 S
C339 C338 1.397 . S
C339 C340 1.438 . S
C339 C344 1.429 . S
C340 C339 1.438 . S
C340 C341 1.428 . S
C340 C353 1.394 . S
C341 H333 0.949 . S
C341 C340 1.428 . S
C341 C342 1.345 . S
C342 H334 0.950 . S
C342 C341 1.345 . S
C342 C343 1.424 . S
C343 H335 0.951 . S
C343 C342 1.424 . S
C343 C344 1.347 . S
C344 H336 0.951 . S
C344 C339 1.429 . S
C344 C343 1.347 . S
H345 C346 0.951 . S
C346 H345 0.951 . S
C346 C352 1.265 1_556 S
H347 C352 0.950 . S
H348 C356 0.949 . S
H349 C357 0.950 . S
H350 C358 0.951 . S
H351 C359 0.951 . S
C352 C346 1.265 1_554 S
C352 H347 0.950 . S
C352 C353 1.478 . S
C353 C340 1.394 . S
C353 C352 1.478 . S
C353 C354 1.404 . S
C354 C353 1.404 . S
C354 C355 1.436 1_554 S
C354 C359 1.424 1_554 S
C355 C338 1.392 1_556 S
C355 C354 1.436 1_556 S
C355 C356 1.432 . S
C356 H348 0.949 . S
C356 C355 1.432 . S
C356 C357 1.345 . S
C357 H349 0.950 . S
C357 C356 1.345 . S
C357 C358 1.424 . S
C358 H350 0.951 . S
C358 C357 1.424 . S
C358 C359 1.347 . S
C359 H351 0.951 . S
C359 C354 1.424 1_556 S
C359 C358 1.347 . S
H360 C361 0.951 . S
C361 H360 0.951 . S
C361 C367 1.265 . S
H362 C367 0.950 . S
H363 C371 0.949 . S
H364 C372 0.950 . S
H365 C373 0.951 . S
H366 C374 0.951 . S
C367 C361 1.265 . S
C367 H362 0.950 . S
C367 C368 1.478 . S
C368 C367 1.478 . S
C368 C369 1.396 . S
C368 C385 1.394 . S
C369 C368 1.396 . S
C369 C370 1.438 . S
C369 C374 1.429 1_554 S
C370 C369 1.438 . S
C370 C371 1.428 1_554 S
C370 C383 1.394 . S
C371 H363 0.949 . S
C371 C370 1.428 1_556 S
C371 C372 1.345 . S
C372 H364 0.950 . S
C372 C371 1.345 . S
C372 C373 1.424 . S
C373 H365 0.951 . S
C373 C372 1.424 . S
C373 C374 1.347 . S
C374 H366 0.951 . S
C374 C369 1.429 1_556 S
C374 C373 1.347 . S
H375 C376 0.951 . S
C376 H375 0.951 . S
C376 C382 1.265 . S
H377 C382 0.950 . S
H378 C386 0.949 . S
H379 C387 0.950 . S
H380 C388 0.951 . S
H381 C389 0.951 . S
C382 C376 1.265 . S
C382 H377 0.950 . S
C382 C383 1.478 . S
C383 C370 1.394 . S
C383 C382 1.478 . S
C383 C384 1.397 . S
C384 C383 1.397 . S
C384 C385 1.438 . S
C384 C389 1.429 . S
C385 C368 1.394 . S
C385 C384 1.438 . S
C385 C386 1.428 . S
C386 H378 0.949 . S
C386 C385 1.428 . S
C386 C387 1.345 . S
C387 H379 0.950 . S
C387 C386 1.345 . S
C387 C388 1.424 . S
C388 H380 0.951 . S
C388 C387 1.424 . S
C388 C389 1.347 . S
C389 H381 0.951 . S
C389 C384 1.429 . S
C389 C388 1.347 . S
H390 C391 0.951 1_556 S
C391 H390 0.951 1_554 S
C391 C397 1.265 . S
H392 C397 0.950 . S
H393 C401 0.949 . S
H394 C402 0.950 . S
H395 C403 0.951 . S
H396 C404 0.951 . S
C397 C391 1.265 . S
C397 H392 0.950 . S
C397 C398 1.478 . S
C398 C397 1.478 . S
C398 C399 1.397 1_554 S
C398 C415 1.394 . S
C399 C398 1.397 1_556 S
C399 C400 1.438 . S
C399 C404 1.429 . S
C400 C399 1.438 . S
C400 C401 1.428 . S
C400 C413 1.394 . S
C401 H393 0.949 . S
C401 C400 1.428 . S
C401 C402 1.345 . S
C402 H394 0.950 . S
C402 C401 1.345 . S
C402 C403 1.424 . S
C403 H395 0.951 . S
C403 C402 1.424 . S
C403 C404 1.347 . S
C404 H396 0.951 . S
C404 C399 1.429 . S
C404 C403 1.347 . S
H405 C406 0.951 1_554 S
C406 H405 0.951 1_556 S
C406 C412 1.265 . S
H407 C412 0.950 . S
H408 C416 0.949 . S
H409 C417 0.950 . S
H410 C418 0.951 . S
H411 C419 0.951 . S
C412 C406 1.265 . S
C412 H407 0.950 . S
C412 C413 1.478 . S
C413 C400 1.394 . S
C413 C412 1.478 . S
C413 C414 1.397 1_556 S
C414 C413 1.397 1_554 S
C414 C415 1.438 . S
C414 C419 1.429 . S
C415 C398 1.394 . S
C415 C414 1.438 . S
C415 C416 1.428 . S
C416 H408 0.949 . S
C416 C415 1.428 . S
C416 C417 1.345 . S
C417 H409 0.950 . S
C417 C416 1.345 . S
C417 C418 1.424 . S
C418 H410 0.951 . S
C418 C417 1.424 . S
C418 C419 1.347 . S
C419 H411 0.951 . S
C419 C414 1.429 . S
C419 C418 1.347 . S
H420 C421 0.951 . S
C421 H420 0.951 . S
C421 C427 1.265 . S
H422 C427 0.950 . S
H423 C431 0.949 . S
H424 C432 0.950 . S
H425 C433 0.951 . S
H426 C434 0.951 . S
C427 C421 1.265 . S
C427 H422 0.950 . S
C427 C428 1.478 . S
C428 C427 1.478 . S
C428 C429 1.397 . S
C428 C445 1.394 . S
C429 C428 1.397 . S
C429 C430 1.438 . S
C429 C434 1.429 . S
C430 C429 1.438 . S
C430 C431 1.428 . S
C430 C443 1.394 . S
C431 H423 0.949 . S
C431 C430 1.428 . S
C431 C432 1.345 . S
C432 H424 0.950 . S
C432 C431 1.345 . S
C432 C433 1.424 . S
C433 H425 0.951 . S
C433 C432 1.424 . S
C433 C434 1.347 . S
C434 H426 0.951 . S
C434 C429 1.429 . S
C434 C433 1.347 . S
H435 C436 0.951 . S
C436 H435 0.951 . S
C436 C442 1.265 . S
H437 C442 0.950 . S
H438 C446 0.949 . S
H439 C447 0.950 . S
H440 C448 0.951 . S
H441 C449 0.951 . S
C442 C436 1.265 . S
C442 H437 0.950 . S
C442 C443 1.478 . S
C443 C430 1.394 . S
C443 C442 1.478 . S
C443 C444 1.397 . S
C444 C443 1.397 . S
C444 C445 1.438 . S
C444 C449 1.429 . S
C445 C428 1.394 . S
C445 C444 1.438 . S
C445 C446 1.428 . S
C446 H438 0.949 . S
C446 C445 1.428 . S
C446 C447 1.345 . S
C447 H439 0.950 . S
C447 C446 1.345 . S
C447 C448 1.424 . S
C448 H440 0.951 . S
C448 C447 1.424 . S
C448 C449 1.347 . S
C449 H441 0.951 . S
C449 C444 1.429 . S
C449 C448 1.347 . S
H450 C451 0.951 . S
C451 H450 0.951 . S
C451 C457 1.265 . S
H452 C457 0.950 . S
H453 C461 0.949 . S
H454 C462 0.950 . S
H455 C463 0.951 . S
H456 C464 0.951 . S
C457 C451 1.265 . S
C457 H452 0.950 . S
C457 C458 1.478 . S
C458 C457 1.478 . S
C458 C459 1.397 . S
C458 C475 1.394 . S
C459 C458 1.397 . S
C459 C460 1.438 . S
C459 C464 1.429 . S
C460 C459 1.438 . S
C460 C461 1.428 . S
C460 C473 1.394 . S
C461 H453 0.949 . S
C461 C460 1.428 . S
C461 C462 1.345 . S
C462 H454 0.950 . S
C462 C461 1.345 . S
C462 C463 1.424 . S
C463 H455 0.951 . S
C463 C462 1.424 . S
C463 C464 1.347 . S
C464 H456 0.951 . S
C464 C459 1.429 . S
C464 C463 1.347 . S
H465 C466 0.951 . S
C466 H465 0.951 . S
C466 C472 1.265 . S
H467 C472 0.950 . S
H468 C476 0.949 . S
H469 C477 0.950 . S
H470 C478 0.951 . S
H471 C479 0.951 . S
C472 C466 1.265 . S
C472 H467 0.950 . S
C472 C473 1.478 . S
C473 C460 1.394 . S
C473 C472 1.478 . S
C473 C474 1.397 . S
C474 C473 1.397 . S
C474 C475 1.438 . S
C474 C479 1.429 . S
C475 C458 1.394 . S
C475 C474 1.438 . S
C475 C476 1.428 . S
C476 H468 0.949 . S
C476 C475 1.428 . S
C476 C477 1.345 . S
C477 H469 0.950 . S
C477 C476 1.345 . S
C477 C478 1.424 . S
C478 H470 0.951 . S
C478 C477 1.424 . S
C478 C479 1.347 . S
C479 H471 0.951 . S
C479 C474 1.429 . S
C479 C478 1.347 . S
H480 C481 0.951 . S
C481 H480 0.951 . S
C481 C487 1.265 . S
H482 C487 0.950 . S
H483 C491 0.949 . S
H484 C492 0.950 . S
H485 C493 0.951 . S
H486 C494 0.951 . S
C487 C481 1.265 . S
C487 H482 0.950 . S
C487 C488 1.478 . S
C488 C487 1.478 . S
C488 C489 1.397 . S
C488 C505 1.394 . S
C489 C488 1.397 . S
C489 C490 1.438 . S
C489 C494 1.429 . S
C490 C489 1.438 . S
C490 C491 1.428 . S
C490 C503 1.394 . S
C491 H483 0.949 . S
C491 C490 1.428 . S
C491 C492 1.345 . S
C492 H484 0.950 . S
C492 C491 1.345 . S
C492 C493 1.424 . S
C493 H485 0.951 . S
C493 C492 1.424 . S
C493 C494 1.347 . S
C494 H486 0.951 . S
C494 C489 1.429 . S
C494 C493 1.347 . S
H495 C496 0.951 . S
C496 H495 0.951 . S
C496 C502 1.265 . S
H497 C502 0.950 . S
H498 C506 0.949 . S
H499 C507 0.950 . S
H500 C508 0.951 . S
H501 C509 0.951 . S
C502 C496 1.265 . S
C502 H497 0.950 . S
C502 C503 1.478 . S
C503 C490 1.394 . S
C503 C502 1.478 . S
C503 C504 1.397 . S
C504 C503 1.397 . S
C504 C505 1.438 . S
C504 C509 1.429 . S
C505 C488 1.394 . S
C505 C504 1.438 . S
C505 C506 1.428 . S
C506 H498 0.949 . S
C506 C505 1.428 . S
C506 C507 1.345 . S
C507 H499 0.950 . S
C507 C506 1.345 . S
C507 C508 1.424 . S
C508 H500 0.951 . S
C508 C507 1.424 . S
C508 C509 1.347 . S
C509 H501 0.951 . S
C509 C504 1.429 . S
C509 C508 1.347 . S
H510 C511 0.951 . S
C511 H510 0.951 . S
C511 C517 1.265 . S
H512 C517 0.950 . S
H513 C521 0.949 . S
H514 C522 0.950 . S
H515 C523 0.951 . S
H516 C524 0.951 . S
C517 C511 1.265 . S
C517 H512 0.950 . S
C517 C518 1.478 . S
C518 C517 1.478 . S
C518 C519 1.397 . S
C518 C535 1.394 . S
C519 C518 1.397 . S
C519 C520 1.438 . S
C519 C524 1.429 . S
C520 C519 1.438 . S
C520 C521 1.428 . S
C520 C533 1.394 . S
C521 H513 0.949 . S
C521 C520 1.428 . S
C521 C522 1.345 . S
C522 H514 0.950 . S
C522 C521 1.345 . S
C522 C523 1.424 . S
C523 H515 0.951 . S
C523 C522 1.424 . S
C523 C524 1.347 . S
C524 H516 0.951 . S
C524 C519 1.429 . S
C524 C523 1.347 . S
H525 C526 0.951 . S
C526 H525 0.951 . S
C526 C532 1.265 . S
H527 C532 0.950 . S
H528 C536 0.949 . S
H529 C537 0.950 . S
H530 C538 0.951 . S
H531 C539 0.951 . S
C532 C526 1.265 . S
C532 H527 0.950 . S
C532 C533 1.478 . S
C533 C520 1.394 . S
C533 C532 1.478 . S
C533 C534 1.397 . S
C534 C533 1.397 . S
C534 C535 1.438 . S
C534 C539 1.429 . S
C535 C518 1.394 . S
C535 C534 1.438 . S
C535 C536 1.428 . S
C536 H528 0.949 . S
C536 C535 1.428 . S
C536 C537 1.345 . S
C537 H529 0.950 . S
C537 C536 1.345 . S
C537 C538 1.424 . S
C538 H530 0.951 . S
C538 C537 1.424 . S
C538 C539 1.347 . S
C539 H531 0.951 . S
C539 C534 1.429 . S
C539 C538 1.347 . S
H540 C541 0.951 1_665 S
C541 H540 0.951 1_445 S
C541 C547 1.265 . S
H542 C547 0.950 . S
H543 C551 0.949 . S
H544 C552 0.950 . S
H545 C553 0.951 . S
H546 C554 0.951 . S
C547 C541 1.265 . S
C547 H542 0.950 . S
C547 C548 1.478 . S
C548 C547 1.478 . S
C548 C549 1.397 1_455 S
C548 C565 1.394 1_545 S
C549 C548 1.397 1_655 S
C549 C550 1.438 . S
C549 C554 1.429 . S
C550 C549 1.438 . S
C550 C551 1.428 . S
C550 C563 1.394 1_545 S
C551 H543 0.949 . S
C551 C550 1.428 . S
C551 C552 1.345 . S
C552 H544 0.950 . S
C552 C551 1.345 . S
C552 C553 1.424 . S
C553 H545 0.951 . S
C553 C552 1.424 . S
C553 C554 1.347 . S
C554 H546 0.951 . S
C554 C549 1.429 . S
C554 C553 1.347 . S
H555 C556 0.951 . S
C556 H555 0.951 . S
C556 C562 1.265 1_445 S
H557 C562 0.950 . S
H558 C566 0.949 . S
H559 C567 0.950 . S
H560 C568 0.951 . S
H561 C569 0.951 . S
C562 C556 1.265 1_665 S
C562 H557 0.950 . S
C562 C563 1.478 . S
C563 C550 1.394 1_565 S
C563 C562 1.478 . S
C563 C564 1.397 1_655 S
C564 C563 1.397 1_455 S
C564 C565 1.438 . S
C564 C569 1.429 . S
C565 C548 1.394 1_565 S
C565 C564 1.438 . S
C565 C566 1.428 . S
C566 H558 0.949 . S
C566 C565 1.428 . S
C566 C567 1.345 . S
C567 H559 0.950 . S
C567 C566 1.345 . S
C567 C568 1.424 . S
C568 H560 0.951 . S
C568 C567 1.424 . S
C568 C569 1.347 . S
C569 H561 0.951 . S
C569 C564 1.429 . S
C569 C568 1.347 . S
H570 C571 0.950 1_655 S
C571 H570 0.950 1_455 S
C571 C577 1.266 . S
H572 C577 0.950 . S
H573 C581 0.947 1_655 S
H574 C582 0.950 . S
H575 C583 0.951 . S
H576 C584 0.951 . S
C577 C571 1.266 . S
C577 H572 0.950 . S
C577 C578 1.478 . S
C578 C577 1.478 . S
C578 C579 1.397 1_545 S
C578 C595 1.394 . S
C579 C578 1.397 1_565 S
C579 C580 1.438 . S
C579 C584 1.429 . S
C580 C579 1.438 . S
C580 C581 1.427 . S
C580 C593 1.394 1_465 S
C581 H573 0.947 1_455 S
C581 C580 1.427 . S
C581 C582 1.347 . S
C582 H574 0.950 . S
C582 C581 1.347 . S
C582 C583 1.424 . S
C583 H575 0.951 . S
C583 C582 1.424 . S
C583 C584 1.347 . S
C584 H576 0.951 . S
C584 C579 1.429 . S
C584 C583 1.347 . S
H585 C586 0.951 . S
C586 H585 0.951 . S
C586 C592 1.265 1_455 S
H587 C592 0.950 . S
H588 C596 0.949 . S
H589 C597 0.950 . S
H590 C598 0.951 . S
H591 C599 0.951 . S
C592 C586 1.265 1_655 S
C592 H587 0.950 . S
C592 C593 1.478 . S
C593 C580 1.394 1_645 S
C593 C592 1.478 . S
C593 C594 1.397 . S
C594 C593 1.397 . S
C594 C595 1.438 1_655 S
C594 C599 1.429 . S
C595 C578 1.394 . S
C595 C594 1.438 1_455 S
C595 C596 1.428 . S
C596 H588 0.949 . S
C596 C595 1.428 . S
C596 C597 1.345 . S
C597 H589 0.950 . S
C597 C596 1.345 . S
C597 C598 1.424 1_455 S
C598 H590 0.951 . S
C598 C597 1.424 1_655 S
C598 C599 1.347 . S
C599 H591 0.951 . S
C599 C594 1.429 . S
C599 C598 1.347 . S
H600 C601 0.951 . S
C601 H600 0.951 . S
C601 C607 1.265 . S
H602 C607 0.950 . S
H603 C611 0.949 . S
H604 C612 0.950 . S
H605 C613 0.951 . S
H606 C614 0.951 . S
C607 C601 1.265 . S
C607 H602 0.950 . S
C607 C608 1.478 . S
C608 C607 1.478 . S
C608 C609 1.397 . S
C608 C625 1.394 . S
C609 C608 1.397 . S
C609 C610 1.438 . S
C609 C614 1.429 . S
C610 C609 1.438 . S
C610 C611 1.428 . S
C610 C623 1.394 . S
C611 H603 0.949 . S
C611 C610 1.428 . S
C611 C612 1.345 . S
C612 H604 0.950 . S
C612 C611 1.345 . S
C612 C613 1.424 . S
C613 H605 0.951 . S
C613 C612 1.424 . S
C613 C614 1.347 . S
C614 H606 0.951 . S
C614 C609 1.429 . S
C614 C613 1.347 . S
H615 C616 0.951 . S
C616 H615 0.951 . S
C616 C622 1.265 . S
H617 C622 0.950 . S
H618 C626 0.949 . S
H619 C627 0.950 . S
H620 C628 0.951 . S
H621 C629 0.951 . S
C622 C616 1.265 . S
C622 H617 0.950 . S
C622 C623 1.478 . S
C623 C610 1.394 . S
C623 C622 1.478 . S
C623 C624 1.397 . S
C624 C623 1.397 . S
C624 C625 1.438 . S
C624 C629 1.429 . S
C625 C608 1.394 . S
C625 C624 1.438 . S
C625 C626 1.428 . S
C626 H618 0.949 . S
C626 C625 1.428 . S
C626 C627 1.345 . S
C627 H619 0.950 . S
C627 C626 1.345 . S
C627 C628 1.424 . S
C628 H620 0.951 . S
C628 C627 1.424 . S
C628 C629 1.347 . S
C629 H621 0.951 . S
C629 C624 1.429 . S
C629 C628 1.347 . S
H630 C631 0.951 . S
C631 H630 0.951 . S
C631 C637 1.265 . S
H632 C637 0.950 . S
H633 C641 0.949 . S
H634 C642 0.950 . S
H635 C643 0.951 . S
H636 C644 0.951 . S
C637 C631 1.265 . S
C637 H632 0.950 . S
C637 C638 1.478 . S
C638 C637 1.478 . S
C638 C639 1.397 . S
C638 C655 1.394 . S
C639 C638 1.397 . S
C639 C640 1.438 . S
C639 C644 1.429 . S
C640 C639 1.438 . S
C640 C641 1.428 . S
C640 C653 1.394 . S
C641 H633 0.949 . S
C641 C640 1.428 . S
C641 C642 1.345 . S
C642 H634 0.950 . S
C642 C641 1.345 . S
C642 C643 1.424 . S
C643 H635 0.951 . S
C643 C642 1.424 . S
C643 C644 1.347 . S
C644 H636 0.951 . S
C644 C639 1.429 . S
C644 C643 1.347 . S
H645 C646 0.951 . S
C646 H645 0.951 . S
C646 C652 1.265 . S
H647 C652 0.950 . S
H648 C656 0.949 . S
H649 C657 0.950 . S
H650 C658 0.951 . S
H651 C659 0.951 . S
C652 C646 1.265 . S
C652 H647 0.950 . S
C652 C653 1.478 . S
C653 C640 1.394 . S
C653 C652 1.478 . S
C653 C654 1.397 . S
C654 C653 1.397 . S
C654 C655 1.438 . S
C654 C659 1.429 . S
C655 C638 1.394 . S
C655 C654 1.438 . S
C655 C656 1.428 . S
C656 H648 0.949 . S
C656 C655 1.428 . S
C656 C657 1.345 . S
C657 H649 0.950 . S
C657 C656 1.345 . S
C657 C658 1.424 . S
C658 H650 0.951 . S
C658 C657 1.424 . S
C658 C659 1.347 . S
C659 H651 0.951 . S
C659 C654 1.429 . S
C659 C658 1.347 . S
C316 C271 1.476 . S
C301 C27 1.468 . S
C331 N6 1.419 . S
C346 C211 1.414 . S
C361 C16 1.451 . S
C376 C241 1.332 . S
C391 N14 1.383 . S
C406 C181 1.370 . S
C421 C57 1.473 . S
C436 C151 1.446 . S
C451 N36 1.389 . S
C466 C91 1.429 . S
C496 C121 1.351 . S
C481 C46 1.448 . S
C526 C61 1.298 . S
C511 N44 1.350 . S
C541 C10 1.382 . S
C556 C80 1.368 1_455 S
C571 C1 1.506 . S
C586 C140 1.522 1_455 S
C616 C200 1.327 . S
C601 C40 1.366 . S
C631 C31 1.506 . S
C646 C260 1.527 . S
