# Generated by pormake.
# Topology eea, (3,6)-cn, num edge types: 1
# Building blocks:
#     Node 0, Type 0, BuildingBlock: CUQRIR_clean_linker_1, # of connection points: 3
#     Node 1, Type 0, BuildingBlock: CUQRIR_clean_linker_1, # of connection points: 3
#     Node 2, Type 0, BuildingBlock: CUQRIR_clean_linker_1, # of connection points: 3
#     Node 3, Type 0, BuildingBlock: CUQRIR_clean_linker_1, # of connection points: 3
#     Node 4, Type 0, BuildingBlock: CUQRIR_clean_linker_1, # of connection points: 3
#     Node 5, Type 0, BuildingBlock: CUQRIR_clean_linker_1, # of connection points: 3
#     Node 6, Type 0, BuildingBlock: CUQRIR_clean_linker_1, # of connection points: 3
#     Node 7, Type 0, BuildingBlock: CUQRIR_clean_linker_1, # of connection points: 3
#     Node 8, Type 0, BuildingBlock: CUQRIR_clean_linker_1, # of connection points: 3
#     Node 9, Type 0, BuildingBlock: CUQRIR_clean_linker_1, # of connection points: 3
#     Node 10, Type 0, BuildingBlock: CUQRIR_clean_linker_1, # of connection points: 3
#     Node 11, Type 0, BuildingBlock: CUQRIR_clean_linker_1, # of connection points: 3
#     Node 12, Type 0, BuildingBlock: CUQRIR_clean_linker_1, # of connection points: 3
#     Node 13, Type 0, BuildingBlock: CUQRIR_clean_linker_1, # of connection points: 3
#     Node 14, Type 0, BuildingBlock: CUQRIR_clean_linker_1, # of connection points: 3
#     Node 15, Type 0, BuildingBlock: CUQRIR_clean_linker_1, # of connection points: 3
#     Node 16, Type 0, BuildingBlock: CUQRIR_clean_linker_1, # of connection points: 3
#     Node 17, Type 0, BuildingBlock: CUQRIR_clean_linker_1, # of connection points: 3
#     Node 18, Type 1, BuildingBlock: CUWYAW_clean_sbu_0, # of connection points: 6
#     Node 19, Type 1, BuildingBlock: CUWYAW_clean_sbu_0, # of connection points: 6
#     Node 20, Type 1, BuildingBlock: CUWYAW_clean_sbu_0, # of connection points: 6
#     Node 21, Type 1, BuildingBlock: CUWYAW_clean_sbu_0, # of connection points: 6
#     Node 22, Type 1, BuildingBlock: CUWYAW_clean_sbu_0, # of connection points: 6
#     Node 23, Type 1, BuildingBlock: CUWYAW_clean_sbu_0, # of connection points: 6
#     Node 24, Type 1, BuildingBlock: CUWYAW_clean_sbu_0, # of connection points: 6
#     Node 25, Type 1, BuildingBlock: CUWYAW_clean_sbu_0, # of connection points: 6
#     Node 26, Type 1, BuildingBlock: CUWYAW_clean_sbu_0, # of connection points: 6
#     Edge 27, Type (0, 1), BuildingBlock: OJICUG_clean_linker_0, # of connection points: 2
#     Edge 28, Type (0, 1), BuildingBlock: OJICUG_clean_linker_0, # of connection points: 2
#     Edge 29, Type (0, 1), BuildingBlock: OJICUG_clean_linker_0, # of connection points: 2
#     Edge 30, Type (0, 1), BuildingBlock: OJICUG_clean_linker_0, # of connection points: 2
#     Edge 31, Type (0, 1), BuildingBlock: OJICUG_clean_linker_0, # of connection points: 2
#     Edge 32, Type (0, 1), BuildingBlock: OJICUG_clean_linker_0, # of connection points: 2
#     Edge 33, Type (0, 1), BuildingBlock: OJICUG_clean_linker_0, # of connection points: 2
#     Edge 34, Type (0, 1), BuildingBlock: OJICUG_clean_linker_0, # of connection points: 2
#     Edge 35, Type (0, 1), BuildingBlock: OJICUG_clean_linker_0, # of connection points: 2
#     Edge 36, Type (0, 1), BuildingBlock: OJICUG_clean_linker_0, # of connection points: 2
#     Edge 37, Type (0, 1), BuildingBlock: OJICUG_clean_linker_0, # of connection points: 2
#     Edge 38, Type (0, 1), BuildingBlock: OJICUG_clean_linker_0, # of connection points: 2
#     Edge 39, Type (0, 1), BuildingBlock: OJICUG_clean_linker_0, # of connection points: 2
#     Edge 40, Type (0, 1), BuildingBlock: OJICUG_clean_linker_0, # of connection points: 2
#     Edge 41, Type (0, 1), BuildingBlock: OJICUG_clean_linker_0, # of connection points: 2
#     Edge 42, Type (0, 1), BuildingBlock: OJICUG_clean_linker_0, # of connection points: 2
#     Edge 43, Type (0, 1), BuildingBlock: OJICUG_clean_linker_0, # of connection points: 2
#     Edge 44, Type (0, 1), BuildingBlock: OJICUG_clean_linker_0, # of connection points: 2
#     Edge 45, Type (0, 1), BuildingBlock: OJICUG_clean_linker_0, # of connection points: 2
#     Edge 46, Type (0, 1), BuildingBlock: OJICUG_clean_linker_0, # of connection points: 2
#     Edge 47, Type (0, 1), BuildingBlock: OJICUG_clean_linker_0, # of connection points: 2
#     Edge 48, Type (0, 1), BuildingBlock: OJICUG_clean_linker_0, # of connection points: 2
#     Edge 49, Type (0, 1), BuildingBlock: OJICUG_clean_linker_0, # of connection points: 2
#     Edge 50, Type (0, 1), BuildingBlock: OJICUG_clean_linker_0, # of connection points: 2
#     Edge 51, Type (0, 1), BuildingBlock: OJICUG_clean_linker_0, # of connection points: 2
#     Edge 52, Type (0, 1), BuildingBlock: OJICUG_clean_linker_0, # of connection points: 2
#     Edge 53, Type (0, 1), BuildingBlock: OJICUG_clean_linker_0, # of connection points: 2
#     Edge 54, Type (0, 1), BuildingBlock: OJICUG_clean_linker_0, # of connection points: 2
#     Edge 55, Type (0, 1), BuildingBlock: OJICUG_clean_linker_0, # of connection points: 2
#     Edge 56, Type (0, 1), BuildingBlock: OJICUG_clean_linker_0, # of connection points: 2
#     Edge 57, Type (0, 1), BuildingBlock: OJICUG_clean_linker_0, # of connection points: 2
#     Edge 58, Type (0, 1), BuildingBlock: OJICUG_clean_linker_0, # of connection points: 2
#     Edge 59, Type (0, 1), BuildingBlock: OJICUG_clean_linker_0, # of connection points: 2
#     Edge 60, Type (0, 1), BuildingBlock: OJICUG_clean_linker_0, # of connection points: 2
#     Edge 61, Type (0, 1), BuildingBlock: OJICUG_clean_linker_0, # of connection points: 2
#     Edge 62, Type (0, 1), BuildingBlock: OJICUG_clean_linker_0, # of connection points: 2
#     Edge 63, Type (0, 1), BuildingBlock: OJICUG_clean_linker_0, # of connection points: 2
#     Edge 64, Type (0, 1), BuildingBlock: OJICUG_clean_linker_0, # of connection points: 2
#     Edge 65, Type (0, 1), BuildingBlock: OJICUG_clean_linker_0, # of connection points: 2
#     Edge 66, Type (0, 1), BuildingBlock: OJICUG_clean_linker_0, # of connection points: 2
#     Edge 67, Type (0, 1), BuildingBlock: OJICUG_clean_linker_0, # of connection points: 2
#     Edge 68, Type (0, 1), BuildingBlock: OJICUG_clean_linker_0, # of connection points: 2
#     Edge 69, Type (0, 1), BuildingBlock: OJICUG_clean_linker_0, # of connection points: 2
#     Edge 70, Type (0, 1), BuildingBlock: OJICUG_clean_linker_0, # of connection points: 2
#     Edge 71, Type (0, 1), BuildingBlock: OJICUG_clean_linker_0, # of connection points: 2
#     Edge 72, Type (0, 1), BuildingBlock: OJICUG_clean_linker_0, # of connection points: 2
#     Edge 73, Type (0, 1), BuildingBlock: OJICUG_clean_linker_0, # of connection points: 2
#     Edge 74, Type (0, 1), BuildingBlock: OJICUG_clean_linker_0, # of connection points: 2
#     Edge 75, Type (0, 1), BuildingBlock: OJICUG_clean_linker_0, # of connection points: 2
#     Edge 76, Type (0, 1), BuildingBlock: OJICUG_clean_linker_0, # of connection points: 2
#     Edge 77, Type (0, 1), BuildingBlock: OJICUG_clean_linker_0, # of connection points: 2
#     Edge 78, Type (0, 1), BuildingBlock: OJICUG_clean_linker_0, # of connection points: 2
#     Edge 79, Type (0, 1), BuildingBlock: OJICUG_clean_linker_0, # of connection points: 2
#     Edge 80, Type (0, 1), BuildingBlock: OJICUG_clean_linker_0, # of connection points: 2
# Relax obj value: 0.108
# Max RMSD: 0.272
# Mean RMSD: 0.198
data_MOF--net-eea--node1-CUWYAW_clean_sbu_0--node2-CUQRIR_clean_linker_1--edge1-OJICUG_clean_linker_0
_symmetry_space_group_name_H-M    P1
_symmetry_Int_Tables_number       1
_symmetry_cell_setting            triclinic
loop_
_symmetry_equiv_pos_as_xyz
'x, y, z'
_cell_length_a     34.207796
_cell_length_b     34.596327
_cell_length_c     51.007023
_cell_angle_alpha  86.708639
_cell_angle_beta   92.998968
_cell_angle_gamma 118.74557
loop_
_atom_site_label
_atom_site_type_symbol
_atom_site_fract_x
_atom_site_fract_y
_atom_site_fract_z
_atom_type_partial_charge
C0 C 0.20526 0.10873 0.38935 0.0
N1 N 0.21955 0.14323 0.40549 0.0
N2 N 0.21115 0.07542 0.40092 0.0
C3 C 0.18152 0.10595 0.36324 0.0
C4 C 0.22907 0.09085 0.42495 0.0
N5 N 0.23386 0.1317 0.4278 0.0
C6 C 0.24392 0.067 0.44532 0.0
H7 H 0.1571 0.07125 0.35905 0.0
H8 H 0.20627 0.11935 0.34747 0.0
H9 H 0.16375 0.12567 0.36294 0.0
H10 H 0.25534 0.04619 0.43592 0.0
H11 H 0.21541 0.04548 0.45792 0.0
H12 H 0.27136 0.09043 0.45812 0.0
C13 C 0.91805 0.12227 0.40283 0.0
N14 N 0.93626 0.15444 0.42079 0.0
N15 N 0.88028 0.08726 0.41183 0.0
C16 C 0.93735 0.12419 0.37656 0.0
C17 C 0.87623 0.09904 0.436 0.0
N18 N 0.91005 0.13969 0.44159 0.0
C19 C 0.83991 0.0701 0.45465 0.0
H20 H 0.96076 0.15809 0.36963 0.0
H21 H 0.91026 0.10873 0.36149 0.0
H22 H 0.956 0.10531 0.3783 0.0
H23 H 0.82579 0.03474 0.45029 0.0
H24 H 0.81286 0.07917 0.45265 0.0
H25 H 0.85271 0.07498 0.4753 0.0
C26 C 0.87952 0.74639 0.39218 0.0
N27 N 0.90217 0.73413 0.41036 0.0
N28 N 0.84014 0.73885 0.40155 0.0
C29 C 0.89868 0.77149 0.36673 0.0
C30 C 0.83972 0.72174 0.42612 0.0
N31 N 0.87752 0.7192 0.43169 0.0
C32 C 0.80375 0.71066 0.44551 0.0
H33 H 0.93529 0.79288 0.36879 0.0
H34 H 0.88351 0.79245 0.36001 0.0
H35 H 0.89211 0.7475 0.35136 0.0
H36 H 0.77254 0.70667 0.43545 0.0
H37 H 0.81544 0.73754 0.45961 0.0
H38 H 0.79672 0.6798 0.45687 0.0
C39 C 0.13753 0.29142 0.66367 0.0
N40 N 0.17001 0.30075 0.64646 0.0
N41 N 0.10518 0.29913 0.65226 0.0
C42 C 0.13411 0.26847 0.69019 0.0
C43 C 0.11912 0.31321 0.62749 0.0
N44 N 0.15821 0.31383 0.62386 0.0
C45 C 0.09313 0.32383 0.60628 0.0
H46 H 0.09919 0.24961 0.69663 0.0
H47 H 0.15367 0.29366 0.70489 0.0
H48 H 0.1481 0.24547 0.68991 0.0
H49 H 0.11617 0.35163 0.59337 0.0
H50 H 0.06926 0.33241 0.61486 0.0
H51 H 0.07425 0.2947 0.59397 0.0
C52 C 0.80945 0.91301 0.66074 0.0
N53 N 0.79679 0.88234 0.64216 0.0
N54 N 0.80265 0.94709 0.652 0.0
C55 C 0.82746 0.90896 0.68772 0.0
C56 C 0.78521 0.936 0.6274 0.0
N57 N 0.78143 0.89664 0.62141 0.0
C58 C 0.77502 0.9652 0.6084 0.0
H59 H 0.81945 0.92672 0.70217 0.0
H60 H 0.86424 0.92355 0.68705 0.0
H61 H 0.81357 0.87382 0.69433 0.0
H62 H 0.7963 1.00053 0.61273 0.0
H63 H 0.73956 0.95672 0.61014 0.0
H64 H 0.78014 0.96017 0.58784 0.0
C65 C 0.11801 0.92762 0.65618 0.0
N66 N 0.09617 0.8943 0.6392 0.0
N67 N 0.15313 0.96246 0.64466 0.0
C68 C 0.1079 0.92458 0.68484 0.0
C69 C 0.15225 0.9491 0.6201 0.0
N70 N 0.1179 0.90787 0.61676 0.0
C71 C 0.1845 0.97664 0.59909 0.0
H72 H 0.08539 0.93871 0.68744 0.0
H73 H 0.13896 0.94368 0.69664 0.0
H74 H 0.09138 0.88977 0.69234 0.0
H75 H 0.21308 0.96979 0.60016 0.0
H76 H 0.19732 1.01234 0.60188 0.0
H77 H 0.16864 0.96841 0.57923 0.0
C78 C 0.87101 0.4424 0.72482 0.0
N79 N 0.88419 0.47562 0.74177 0.0
N80 N 0.88317 0.41203 0.73421 0.0
C81 C 0.84598 0.43931 0.69915 0.0
C82 C 0.90438 0.42827 0.75745 0.0
N83 N 0.90511 0.46684 0.76199 0.0
C84 C 0.92438 0.40646 0.77586 0.0
H85 H 0.82659 0.45729 0.69915 0.0
H86 H 0.82291 0.40436 0.69471 0.0
H87 H 0.87031 0.45418 0.6832 0.0
H88 H 0.93398 0.38548 0.76509 0.0
H89 H 0.89944 0.38554 0.79064 0.0
H90 H 0.95423 0.43133 0.7865 0.0
C91 C 0.57812 0.45923 0.73328 0.0
N92 N 0.59707 0.49098 0.75145 0.0
N93 N 0.54272 0.42268 0.74323 0.0
C94 C 0.59349 0.46468 0.70549 0.0
C95 C 0.54096 0.43309 0.76815 0.0
N96 N 0.57397 0.47431 0.77336 0.0
C97 C 0.50661 0.40289 0.78751 0.0
H98 H 0.58189 0.48549 0.69384 0.0
H99 H 0.5801 0.43294 0.69568 0.0
H100 H 0.63046 0.48152 0.70521 0.0
H101 H 0.5211 0.40747 0.80778 0.0
H102 H 0.4929 0.36781 0.78258 0.0
H103 H 0.47887 0.41098 0.78697 0.0
C104 C 0.54448 0.08554 0.72706 0.0
N105 N 0.56818 0.07342 0.74451 0.0
N106 N 0.50531 0.07701 0.73721 0.0
C107 C 0.56229 0.11128 0.7016 0.0
C108 C 0.506 0.05936 0.76143 0.0
N109 N 0.54435 0.05752 0.76609 0.0
C110 C 0.4706 0.04705 0.78142 0.0
H111 H 0.59899 0.13255 0.70303 0.0
H112 H 0.54687 0.13242 0.6959 0.0
H113 H 0.55467 0.08772 0.68581 0.0
H114 H 0.43877 0.04236 0.77191 0.0
H115 H 0.48215 0.07365 0.79571 0.0
H116 H 0.46472 0.01626 0.79247 0.0
C117 C 0.79711 0.61673 0.99281 0.0
N118 N 0.83031 0.62714 0.97589 0.0
N119 N 0.76441 0.62362 0.98113 0.0
C120 C 0.79352 0.59374 0.01933 0.0
C121 C 0.77876 0.63817 0.95647 0.0
N122 N 0.8185 0.63995 0.95317 0.0
C123 C 0.75308 0.64902 0.93516 0.0
H124 H 0.81038 0.57318 0.01977 0.0
H125 H 0.75829 0.57227 0.02467 0.0
H126 H 0.80989 0.61903 0.0344 0.0
H127 H 0.72851 0.65677 0.94361 0.0
H128 H 0.73507 0.62032 0.92243 0.0
H129 H 0.77624 0.67747 0.92269 0.0
C130 C 0.47989 0.24261 0.9913 0.0
N131 N 0.46739 0.2105 0.9736 0.0
N132 N 0.4808 0.27935 0.97984 0.0
C133 C 0.48932 0.23721 0.02009 0.0
C134 C 0.46875 0.26864 0.95448 0.0
N135 N 0.46102 0.22705 0.9505 0.0
C136 C 0.46335 0.29849 0.93366 0.0
H137 H 0.4572 0.2186 0.03024 0.0
H138 H 0.50874 0.26921 0.0296 0.0
H139 H 0.50775 0.21816 0.02283 0.0
H140 H 0.48294 0.33361 0.93888 0.0
H141 H 0.42759 0.28967 0.93172 0.0
H142 H 0.47398 0.29419 0.91436 0.0
C143 C 0.77686 0.26149 0.99041 0.0
N144 N 0.7575 0.22784 0.97345 0.0
N145 N 0.80952 0.29821 0.97858 0.0
C146 C 0.76447 0.25834 0.01866 0.0
C147 C 0.80897 0.28597 0.95378 0.0
N148 N 0.77721 0.24359 0.95052 0.0
C149 C 0.84066 0.315 0.93292 0.0
H150 H 0.72813 0.23657 0.02094 0.0
H151 H 0.77367 0.291 0.02629 0.0
H152 H 0.78264 0.24422 0.03088 0.0
H153 H 0.86834 0.30698 0.93225 0.0
H154 H 0.85484 0.35043 0.9371 0.0
H155 H 0.82364 0.30899 0.91331 0.0
C156 C 0.52835 0.76627 0.05792 0.0
N157 N 0.54226 0.79997 0.07458 0.0
N158 N 0.53363 0.73238 0.06913 0.0
C159 C 0.5061 0.76515 0.0315 0.0
C160 C 0.55084 0.74673 0.09346 0.0
N161 N 0.55569 0.78744 0.0968 0.0
C162 C 0.56574 0.7224 0.11345 0.0
H163 H 0.48837 0.78489 0.03132 0.0
H164 H 0.48193 0.73079 0.02643 0.0
H165 H 0.53181 0.77962 1.01627 0.0
H166 H 0.59277 0.74551 0.1266 0.0
H167 H 0.57773 0.70236 0.1037 0.0
H168 H 0.53709 0.70007 0.12574 0.0
C169 C 0.24345 0.78739 0.06744 0.0
N170 N 0.26306 0.81962 0.08526 0.0
N171 N 0.20731 0.75188 0.07756 0.0
C172 C 0.2591 0.79125 0.03984 0.0
C173 C 0.20568 0.76339 0.10223 0.0
N174 N 0.23961 0.80429 0.10713 0.0
C175 C 0.17067 0.73462 0.12162 0.0
H176 H 0.24823 0.81205 0.02756 0.0
H177 H 0.24524 0.75899 0.03059 0.0
H178 H 0.29606 0.80737 0.03975 0.0
H179 H 0.18526 0.73849 0.14186 0.0
H180 H 0.15492 0.69934 0.11671 0.0
H181 H 0.1445 0.74488 0.12122 0.0
C182 C 0.20637 0.41584 0.06206 0.0
N183 N 0.23007 0.40245 0.0787 0.0
N184 N 0.16768 0.40743 0.07286 0.0
C185 C 0.22364 0.44237 0.03679 0.0
C186 C 0.16861 0.38847 0.09662 0.0
N187 N 0.20664 0.38566 0.1004 0.0
C188 C 0.13373 0.37556 0.11703 0.0
H189 H 0.26056 0.46202 0.03751 0.0
H190 H 0.2097 0.46518 0.03252 0.0
H191 H 0.2136 0.41941 0.02041 0.0
H192 H 0.10198 0.37213 0.10811 0.0
H193 H 0.14616 0.40116 0.13202 0.0
H194 H 0.12722 0.34388 0.12715 0.0
C195 C 0.47137 0.95185 0.32804 0.0
N196 N 0.50485 0.96256 0.31128 0.0
N197 N 0.4392 0.95966 0.31644 0.0
C198 C 0.46702 0.92787 0.35428 0.0
C199 C 0.45419 0.97514 0.29198 0.0
N200 N 0.49382 0.9766 0.28873 0.0
C201 C 0.4292 0.98709 0.27078 0.0
H202 H 0.43161 0.90635 0.35924 0.0
H203 H 0.48308 0.95254 0.36971 0.0
H204 H 0.48373 0.90719 0.35454 0.0
H205 H 0.45281 0.01594 0.25874 0.0
H206 H 0.40458 0.9947 0.27929 0.0
H207 H 0.41134 0.95897 0.25761 0.0
C208 C 0.14773 0.57968 0.32443 0.0
N209 N 0.13704 0.54916 0.30596 0.0
N210 N 0.14285 0.61442 0.31464 0.0
C211 C 0.16206 0.57497 0.3523 0.0
C212 C 0.12869 0.6039 0.28945 0.0
N213 N 0.12532 0.5644 0.28407 0.0
C214 C 0.11961 0.63296 0.26976 0.0
H215 H 0.15253 0.59285 0.36582 0.0
H216 H 0.19887 0.58905 0.35337 0.0
H217 H 0.14694 0.53972 0.35887 0.0
H218 H 0.14023 0.66826 0.27435 0.0
H219 H 0.08392 0.6242 0.27045 0.0
H220 H 0.12637 0.62815 0.24951 0.0
C221 C 0.45716 0.59264 0.32312 0.0
N222 N 0.43359 0.55912 0.30651 0.0
N223 N 0.49144 0.62711 0.31078 0.0
C224 C 0.44967 0.59011 0.35215 0.0
C225 C 0.48834 0.61332 0.28608 0.0
N226 N 0.45343 0.57219 0.28344 0.0
C227 C 0.51908 0.64032 0.26431 0.0
H228 H 0.42796 0.60477 0.35579 0.0
H229 H 0.48179 0.60904 0.36306 0.0
H230 H 0.43335 0.55539 0.35981 0.0
H231 H 0.53219 0.67611 0.26693 0.0
H232 H 0.50188 0.63168 0.24481 0.0
H233 H 0.54761 0.63344 0.26462 0.0
C234 C 0.5711 0.05882 0.10106 0.0
Eu235 Eu 0.53065 0.03476 0.05537 0.0
C236 C 0.56297 0.04394 0.12882 0.0
C237 C 0.59855 0.06019 0.14727 0.0
C238 C 0.59128 0.04702 0.17383 0.0
C239 C 0.54819 0.01729 0.18244 0.0
C240 C 0.5127 1.00072 0.16369 0.0
C241 C 0.52005 1.01381 0.13714 0.0
C242 C 0.49026 0.0715 0.02291 0.0
C243 C 0.43071 0.9567 0.04898 0.0
C244 C 0.47003 0.98243 0.94986 0.0
Eu245 Eu 0.49733 0.99456 0.99883 0.0
C246 C 0.49197 0.99641 0.92402 0.0
C247 C 0.51158 0.97327 0.91343 0.0
C248 C 0.5309 0.98547 0.88873 0.0
C249 C 0.53106 0.02105 0.8739 0.0
C250 C 0.51196 0.04454 0.88466 0.0
C251 C 0.49262 0.03234 0.90937 0.0
C252 C 0.52557 0.94432 0.02926 0.0
C253 C 0.60017 0.07236 1.00618 0.0
O254 O 0.57721 0.03319 0.08576 0.0
O255 O 0.54571 0.07419 0.08997 0.0
O256 O 0.48588 0.06663 0.04828 0.0
O257 O 0.51695 0.05858 1.01639 0.0
O258 O 0.46598 0.97435 0.06511 0.0
O259 O 0.43366 0.96541 0.02306 0.0
O260 O 0.46901 1.01265 0.96376 0.0
O261 O 0.47823 0.95462 0.96436 0.0
O262 O 0.51305 0.93732 1.00482 0.0
O263 O 0.52412 0.97829 0.03528 0.0
O264 O 0.56834 0.04602 0.98974 0.0
O265 O 0.59371 0.07266 0.03163 0.0
H266 H 0.63198 0.08329 0.14114 0.0
H267 H 0.61944 0.06005 0.1876 0.0
H268 H 0.47893 0.97839 0.16957 0.0
H269 H 0.49216 1.0008 0.12316 0.0
H270 H 0.51163 0.9453 0.92408 0.0
H271 H 0.54541 0.96676 0.88116 0.0
H272 H 0.51051 0.07152 0.87361 0.0
H273 H 0.47753 0.05064 0.91681 0.0
C274 C 1.00168 0.54177 0.10272 0.0
Eu275 Eu 0.99789 0.53067 0.05203 0.0
C276 C 0.02351 0.53622 0.12777 0.0
C277 C 1.00049 0.49938 0.14484 0.0
C278 C 0.01853 0.49642 0.16978 0.0
C279 C 0.06007 0.53037 0.17852 0.0
C280 C 0.08369 0.56661 0.16108 0.0
C281 C 0.06566 0.56954 0.13613 0.0
C282 C 0.93628 0.46115 0.02483 0.0
C283 C 0.06162 0.48818 0.03811 0.0
C284 C 0.02297 0.5203 0.94445 0.0
Eu285 Eu 0.02137 0.52865 0.99495 0.0
C286 C 1.0001 0.52059 0.91888 0.0
C287 C 0.02102 0.55609 0.90066 0.0
C288 C 1.00312 0.55428 0.87513 0.0
C289 C 0.96396 0.51673 0.86707 0.0
C290 C 0.94212 0.48192 0.88567 0.0
C291 C 0.95997 0.48379 0.91121 0.0
C292 C 0.08235 0.59738 0.02319 0.0
C293 C 0.95513 0.56766 1.00757 0.0
O294 O 0.02642 0.57279 0.08573 0.0
O295 O 0.9716 0.50623 0.09128 0.0
O296 O 0.92613 0.48097 0.04204 0.0
O297 O 0.97804 0.47741 0.02375 0.0
O298 O 0.05039 0.50798 0.05541 0.0
O299 O 0.0494 0.48676 1.01312 0.0
O300 O 1.0022 0.487 0.96108 0.0
O301 O 0.04592 0.5578 0.9561 0.0
O302 O 0.09313 0.57729 1.00655 0.0
O303 O 0.04068 0.58151 0.0233 0.0
O304 O 0.9655 0.54619 0.99102 0.0
O305 O 0.96897 0.57168 0.03249 0.0
H306 H 0.96782 0.47324 0.13922 0.0
H307 H 0.99944 0.46777 0.18242 0.0
H308 H 0.11535 0.59386 0.16709 0.0
H309 H 0.08424 0.59872 0.12375 0.0
H310 H 0.05214 0.58479 0.90587 0.0
H311 H 0.0206 0.58193 0.86151 0.0
H312 H 0.91232 0.45214 0.88018 0.0
H313 H 0.9431 0.45561 0.9246 0.0
C314 C 0.46824 0.46849 0.95085 0.0
Eu315 Eu 0.479 0.49327 0.99942 0.0
C316 C 0.4929 0.48009 0.92567 0.0
C317 C 0.49756 0.51575 0.90887 0.0
C318 C 0.51844 0.52385 0.88454 0.0
C319 C 0.53524 0.49654 0.87626 0.0
C320 C 0.53099 0.46132 0.89336 0.0
C321 C 0.51014 0.45321 0.91754 0.0
C322 C 0.4991 0.57212 0.02058 0.0
C323 C 0.58573 0.5429 1.01703 0.0
C324 C 0.52411 0.50974 0.11165 0.0
Eu325 Eu 0.51294 0.4996 0.06107 0.0
C326 C 0.50081 0.51057 0.13526 0.0
C327 C 0.48941 0.4769 0.15484 0.0
C328 C 0.47215 0.47929 0.17862 0.0
C329 C 0.46608 0.51562 0.18359 0.0
C330 C 0.47584 0.54849 0.16354 0.0
C331 C 0.49305 0.54605 0.13968 0.0
C332 C 0.506 0.43171 0.03345 0.0
C333 C 0.4064 0.46007 0.04482 0.0
O334 O 0.4834 0.4523 0.97017 0.0
O335 O 0.4536 0.49447 0.95904 0.0
O336 O 0.48562 0.56321 0.99624 0.0
O337 O 0.50109 0.53941 0.03087 0.0
O338 O 0.55382 0.52116 0.99933 0.0
O339 O 0.57804 0.54445 0.04203 0.0
O340 O 0.53684 0.54288 0.09435 0.0
O341 O 0.50951 0.47157 0.1008 0.0
O342 O 0.53645 0.45068 0.05172 0.0
O343 O 0.47991 0.44795 0.03172 0.0
O344 O 0.43962 0.47907 0.06226 0.0
O345 O 0.41247 0.45732 0.01952 0.0
H346 H 0.48457 0.5371 0.91433 0.0
H347 H 0.52114 0.55144 0.87213 0.0
H348 H 0.54233 0.43876 0.88769 0.0
H349 H 0.50665 0.42507 0.92971 0.0
H350 H 0.49511 0.44921 0.15207 0.0
H351 H 0.46455 0.45309 0.1934 0.0
H352 H 0.47223 0.57728 0.16671 0.0
H353 H 0.50158 0.57269 0.1251 0.0
C354 C 0.23267 0.39248 0.43687 0.0
Eu355 Eu 0.20398 0.37442 0.38857 0.0
C356 C 0.22451 0.37391 0.46392 0.0
C357 C 0.26067 0.38668 0.48186 0.0
C358 C 0.25363 0.37283 0.50829 0.0
C359 C 0.21016 0.34601 0.51727 0.0
C360 C 0.17407 0.33205 0.49895 0.0
C361 C 0.1812 0.34576 0.4725 0.0
C362 C 0.17933 0.42271 0.35425 0.0
C363 C 0.10095 0.29459 0.38347 0.0
C364 C 0.13631 0.3288 0.28423 0.0
Eu365 Eu 0.16472 0.33421 0.33291 0.0
C366 C 0.15574 0.33574 0.25793 0.0
C367 C 0.17415 0.31011 0.24936 0.0
C368 C 0.19285 0.31842 0.22442 0.0
C369 C 0.19399 0.35282 0.20777 0.0
C370 C 0.17548 0.37821 0.21651 0.0
C371 C 0.15655 0.3697 0.24118 0.0
C372 C 0.20153 0.28749 0.35932 0.0
C373 C 0.27011 0.40945 0.34005 0.0
O374 O 0.2487 0.37546 0.42094 0.0
O375 O 0.20261 0.40168 0.42557 0.0
O376 O 0.21334 0.43964 0.37047 0.0
O377 O 0.15843 0.38128 0.35783 0.0
O378 O 0.13681 0.31587 0.39886 0.0
O379 O 0.10211 0.29993 0.35739 0.0
O380 O 0.15052 0.36438 0.29777 0.0
O381 O 0.13136 0.29431 0.29881 0.0
O382 O 0.18405 0.27907 0.33576 0.0
O383 O 0.19969 0.32065 0.36657 0.0
O384 O 0.23508 0.38903 0.32398 0.0
O385 O 0.2674 0.40441 0.3659 0.0
H386 H 0.29438 0.40826 0.47553 0.0
H387 H 0.28218 0.38364 0.52174 0.0
H388 H 0.14008 0.3119 0.50517 0.0
H389 H 0.1528 0.33539 0.45893 0.0
H390 H 0.17417 0.28374 0.26186 0.0
H391 H 0.20662 0.29815 0.21821 0.0
H392 H 0.17462 0.40418 0.20399 0.0
H393 H 0.1424 0.38979 0.24718 0.0
C394 C 0.68748 0.86903 0.43235 0.0
Eu395 Eu 0.67532 0.86411 0.38165 0.0
C396 C 0.69617 0.87313 0.46119 0.0
C397 C 0.66607 0.84104 0.47874 0.0
C398 C 0.67831 0.83927 0.50533 0.0
C399 C 0.72099 0.86956 0.51503 0.0
C400 C 0.75026 0.90281 0.4976 0.0
C401 C 0.73809 0.90447 0.47107 0.0
C402 C 0.61511 0.79412 0.35422 0.0
C403 C 0.74053 0.82469 0.36392 0.0
C404 C 0.69849 0.86465 0.27316 0.0
Eu405 Eu 0.6982 0.86763 0.32426 0.0
C406 C 0.67175 0.86065 0.2486 0.0
C407 C 0.68889 0.89417 0.22888 0.0
C408 C 0.66745 0.88859 0.20413 0.0
C409 C 0.62842 0.84916 0.19841 0.0
C410 C 0.61037 0.81633 0.21858 0.0
C411 C 0.63171 0.82199 0.24335 0.0
C412 C 0.75817 0.93556 0.35361 0.0
C413 C 0.63004 0.90207 0.34072 0.0
O414 O 0.71839 0.89385 0.41572 0.0
O415 O 0.64815 0.84429 0.42145 0.0
O416 O 0.6046 0.8111 0.37296 0.0
O417 O 0.65694 0.81285 0.35205 0.0
O418 O 0.72578 0.83938 0.38227 0.0
O419 O 0.73072 0.82751 0.33885 0.0
O420 O 0.68519 0.82995 0.28914 0.0
O421 O 0.71483 0.90152 0.28559 0.0
O422 O 0.76957 0.91748 0.336 0.0
O423 O 0.71639 0.91829 0.35408 0.0
O424 O 0.63874 0.87996 0.32367 0.0
O425 O 0.64676 0.90715 0.36508 0.0
H426 H 0.63383 0.81592 0.47169 0.0
H427 H 0.65483 0.81314 0.51805 0.0
H428 H 0.78289 0.92753 0.50438 0.0
H429 H 0.76226 0.92952 0.45811 0.0
H430 H 0.71979 0.92423 0.23233 0.0
H431 H 0.68204 0.91486 0.18928 0.0
H432 H 0.5808 0.78522 0.21494 0.0
H433 H 0.61763 0.79536 0.25803 0.0
C434 C 0.14168 0.80684 0.28552 0.0
Eu435 Eu 0.1534 0.83315 0.33378 0.0
C436 C 0.16519 0.81688 0.26004 0.0
C437 C 0.17274 0.85382 0.2436 0.0
C438 C 0.19266 0.86048 0.21905 0.0
C439 C 0.20567 0.83047 0.21028 0.0
C440 C 0.19846 0.79391 0.227 0.0
C441 C 0.17851 0.78722 0.25136 0.0
C442 C 0.17448 0.91268 0.35443 0.0
C443 C 0.26005 0.88095 0.35165 0.0
C444 C 0.19759 0.85042 0.44605 0.0
Eu445 Eu 0.18666 0.83951 0.39553 0.0
C446 C 0.17345 0.85048 0.46946 0.0
C447 C 0.16225 0.81679 0.489 0.0
C448 C 0.14392 0.81845 0.51255 0.0
C449 C 0.13655 0.85406 0.51732 0.0
C450 C 0.14621 0.88698 0.49731 0.0
C451 C 0.16448 0.88526 0.47369 0.0
C452 C 0.17704 0.76992 0.36847 0.0
C453 C 0.0804 0.79961 0.37916 0.0
O454 O 0.15755 0.7915 0.30493 0.0
O455 O 0.12745 0.83334 0.29344 0.0
O456 O 0.16091 0.90336 0.33012 0.0
O457 O 0.17599 0.87988 0.36503 0.0
O458 O 0.22809 0.85964 0.33387 0.0
O459 O 0.25228 0.88278 0.3766 0.0
O460 O 0.20936 0.88323 0.42859 0.0
O461 O 0.18437 0.81234 0.43539 0.0
O462 O 0.20775 0.78836 0.38669 0.0
O463 O 0.15242 0.78776 0.36647 0.0
O464 O 0.11332 0.81908 0.39671 0.0
O465 O 0.08689 0.79703 0.35391 0.0
H466 H 0.16283 0.87733 0.24953 0.0
H467 H 0.19771 0.88911 0.20688 0.0
H468 H 0.20683 0.76937 0.22091 0.0
H469 H 0.17268 0.75807 0.26327 0.0
H470 H 0.16886 0.78963 0.48639 0.0
H471 H 0.13644 0.79223 0.5273 0.0
H472 H 0.14163 0.91526 0.50034 0.0
H473 H 0.17283 0.91191 0.45913 0.0
C474 C 0.89498 0.7258 0.76621 0.0
Eu475 Eu 0.86702 0.70508 0.71778 0.0
C476 C 0.8865 0.70826 0.79351 0.0
C477 C 0.92231 0.72272 0.81181 0.0
C478 C 0.91517 0.70853 0.83819 0.0
C479 C 0.87193 0.67955 0.84683 0.0
C480 C 0.83619 0.66431 0.82822 0.0
C481 C 0.84343 0.67844 0.80179 0.0
C482 C 0.84368 0.75464 0.68331 0.0
C483 C 0.7625 0.63051 0.71457 0.0
C484 C 0.80874 0.64409 0.61777 0.0
Eu485 Eu 0.8294 0.66368 0.66715 0.0
C486 C 0.83003 0.65863 0.59172 0.0
C487 C 0.84662 0.63386 0.57991 0.0
C488 C 0.8643 0.64559 0.55472 0.0
C489 C 0.86564 0.68231 0.54054 0.0
C490 C 0.84965 0.70747 0.55259 0.0
C491 C 0.83208 0.6958 0.57779 0.0
C492 C 0.84884 0.61253 0.70181 0.0
C493 C 0.93412 0.74168 0.6712 0.0
O494 O 0.91109 0.70799 0.75103 0.0
O495 O 0.86512 0.73429 0.7541 0.0
O496 O 0.87898 0.7705 0.69853 0.0
O497 O 0.82094 0.71358 0.68764 0.0
O498 O 0.79935 0.64822 0.72943 0.0
O499 O 0.76432 0.63724 0.68868 0.0
O500 O 0.79894 0.6708 0.62964 0.0
O501 O 0.82426 0.62397 0.63414 0.0
O502 O 0.81331 0.59809 0.6868 0.0
O503 O 0.87382 0.65354 0.69756 0.0
O504 O 0.89828 0.72016 0.65599 0.0
O505 O 0.93183 0.73728 0.69691 0.0
H506 H 0.95586 0.74556 0.80573 0.0
H507 H 0.94351 0.72045 0.85185 0.0
H508 H 0.80234 0.64249 0.83417 0.0
H509 H 0.8153 0.66673 0.78796 0.0
H510 H 0.84531 0.60486 0.58999 0.0
H511 H 0.87651 0.62557 0.54626 0.0
H512 H 0.84912 0.73539 0.54218 0.0
H513 H 0.81927 0.71545 0.58609 0.0
C514 C 0.33923 0.20709 0.76879 0.0
Eu515 Eu 0.33569 0.19821 0.7178 0.0
C516 C 0.3596 0.19996 0.79405 0.0
C517 C 0.33365 0.16511 0.8117 0.0
C518 C 0.35046 0.16128 0.83689 0.0
C519 C 0.39373 0.19235 0.84531 0.0
C520 C 0.42016 0.22644 0.82729 0.0
C521 C 0.40336 0.23025 0.8021 0.0
C522 C 0.27535 0.12832 0.6901 0.0
C523 C 0.40154 0.15954 0.70203 0.0
C524 C 0.35895 0.19196 0.6091 0.0
Eu525 Eu 0.35843 0.19903 0.65993 0.0
C526 C 0.3355 0.19136 0.58355 0.0
C527 C 0.35647 0.22579 0.56467 0.0
C528 C 0.33804 0.22303 0.53917 0.0
C529 C 0.29819 0.18558 0.53176 0.0
C530 C 0.27644 0.15182 0.551 0.0
C531 C 0.29483 0.15463 0.5765 0.0
C532 C 0.41887 0.26765 0.68854 0.0
C533 C 0.29142 0.23575 0.6749 0.0
O534 O 0.36509 0.2383 0.75225 0.0
O535 O 0.30867 0.17247 0.75682 0.0
O536 O 0.26449 0.14664 0.70789 0.0
O537 O 0.31719 0.14632 0.68865 0.0
O538 O 0.38965 0.17786 0.71989 0.0
O539 O 0.38892 0.15854 0.6771 0.0
O540 O 0.3396 0.15822 0.62566 0.0
O541 O 0.38073 0.22945 0.6209 0.0
O542 O 0.42992 0.24907 0.67104 0.0
O543 O 0.37708 0.25056 0.68921 0.0
O544 O 0.30125 0.21479 0.65769 0.0
O545 O 0.30623 0.2394 0.69959 0.0
H546 H 0.2997 0.1414 0.80632 0.0
H547 H 0.32914 0.13428 0.84995 0.0
H548 H 0.45331 0.25155 0.833 0.0
H549 H 0.42427 0.25788 0.78927 0.0
H550 H 0.38801 0.25437 0.56938 0.0
H551 H 0.35555 0.24994 0.5251 0.0
H552 H 0.24614 0.12209 0.54608 0.0
H553 H 0.27788 0.12723 0.59038 0.0
C554 C 0.80968 0.14121 0.62012 0.0
Eu555 Eu 0.81999 0.16808 0.66819 0.0
C556 C 0.83363 0.15169 0.5947 0.0
C557 C 0.83723 0.1862 0.5772 0.0
C558 C 0.85711 0.19298 0.55262 0.0
C559 C 0.87395 0.16544 0.54476 0.0
C560 C 0.87083 0.13141 0.56256 0.0
C561 C 0.85096 0.12463 0.587 0.0
C562 C 0.84218 0.24837 0.68794 0.0
C563 C 0.92607 0.21612 0.68706 0.0
C564 C 0.8625 0.18611 0.78092 0.0
Eu565 Eu 0.85204 0.17545 0.73035 0.0
C566 C 0.83868 0.18661 0.80434 0.0
C567 C 0.82796 0.15338 0.82415 0.0
C568 C 0.80962 0.15532 0.84764 0.0
C569 C 0.80176 0.19074 0.85204 0.0
C570 C 0.81123 0.22331 0.83182 0.0
C571 C 0.82948 0.2213 0.80828 0.0
C572 C 0.84182 0.10508 0.70408 0.0
C573 C 0.74637 0.13703 0.71299 0.0
O574 O 0.82581 0.12662 0.63981 0.0
O575 O 0.79424 0.16694 0.62768 0.0
O576 O 0.82891 0.23877 0.66363 0.0
O577 O 0.84269 0.2154 0.699 0.0
O578 O 0.89459 0.19399 0.66921 0.0
O579 O 0.91779 0.21866 0.71178 0.0
O580 O 0.87484 0.21903 0.76349 0.0
O581 O 0.84861 0.14796 0.77022 0.0
O582 O 0.87262 0.12367 0.72222 0.0
O583 O 0.81769 0.12336 0.70161 0.0
O584 O 0.77908 0.15676 0.73064 0.0
O585 O 0.75315 0.13329 0.68796 0.0
H586 H 0.82413 0.20763 0.58229 0.0
H587 H 0.85899 0.21972 0.53969 0.0
H588 H 0.88225 0.10872 0.55728 0.0
H589 H 0.84825 0.0973 0.5997 0.0
H590 H 0.83483 0.12633 0.82175 0.0
H591 H 0.80232 0.12937 0.86255 0.0
H592 H 0.80634 0.25148 0.83456 0.0
H593 H 0.83752 0.24762 0.79352 0.0
C594 C 0.34337 0.86902 0.09401 0.0
C595 C 0.30332 0.86106 0.0808 0.0
H596 H 0.41495 0.90538 0.09433 0.0
C597 C 0.30541 0.88811 0.0586 0.0
H598 H 0.34288 0.8482 0.1108 0.0
C599 C 0.34654 0.91945 0.04838 0.0
C600 C 0.38675 0.92562 0.06064 0.0
H601 H 0.275 0.88271 0.04807 0.0
H602 H 0.34683 0.93817 0.03056 0.0
C603 C 0.38462 0.90127 0.08421 0.0
C604 C 0.11746 0.41661 0.0399 0.0
C605 C 0.1395 0.42611 0.06449 0.0
H606 H 0.0754 0.42904 1.01211 0.0
C607 C 0.13589 0.45595 0.08036 0.0
H608 H 0.12029 0.39383 0.02742 0.0
C609 C 0.1102 0.47582 0.07188 0.0
C610 C 0.08827 0.46668 0.04716 0.0
H611 H 0.15361 0.4644 0.09914 0.0
H612 H 0.10818 0.49889 0.08452 0.0
C613 C 0.09209 0.43686 0.03122 0.0
C614 C 0.53865 0.69283 0.03143 0.0
C615 C 0.5256 0.69195 0.05726 0.0
H616 H 0.53948 0.65549 0.99946 0.0
C617 C 0.50472 0.65103 0.0712 0.0
H618 H 0.5559 0.72378 0.02039 0.0
C619 C 0.49743 0.61216 0.05964 0.0
C620 C 0.50931 0.6132 0.03357 0.0
H621 H 0.49349 0.64897 0.09092 0.0
H622 H 0.48116 0.5811 0.07077 0.0
C623 C 0.52974 0.65382 0.01954 0.0
C624 C 0.887 0.35268 0.99035 0.0
C625 C 0.84115 0.3392 0.99017 0.0
H626 H 0.95312 0.40214 1.00111 0.0
C627 C 0.82688 0.36681 1.00065 0.0
H628 H 0.8987 0.33198 0.98222 0.0
C629 C 0.85781 0.40656 1.01187 0.0
C630 C 0.90367 0.41987 1.01225 0.0
H631 H 0.79179 0.35756 1.0001 0.0
H632 H 0.84587 0.42701 0.02011 0.0
C633 C 0.918 0.39276 1.0011 0.0
C634 C 0.71071 0.61765 1.01369 0.0
C635 C 0.71955 0.60565 0.98978 0.0
H636 H 0.661 0.6069 0.04138 0.0
C637 C 0.68453 0.57338 0.97509 0.0
H638 H 0.73763 0.64227 0.02534 0.0
C639 C 0.64119 0.55352 0.98396 0.0
C640 C 0.63199 0.56502 1.00799 0.0
H641 H 0.69094 0.5628 0.95699 0.0
H642 H 0.61504 0.52843 0.97214 0.0
C643 C 0.66714 0.59732 0.02283 0.0
C644 C 0.43552 0.14073 0.99987 0.0
C645 C 0.46342 0.16737 0.97957 0.0
H646 H 0.42279 0.09031 0.0299 0.0
C647 C 0.49555 0.15718 0.97083 0.0
H648 H 0.41058 0.14801 1.00699 0.0
C649 C 0.50222 0.12363 0.98372 0.0
C650 C 0.47742 0.10031 1.00591 0.0
H651 H 0.51793 0.17759 0.95554 0.0
H652 H 0.52901 0.11826 0.97754 0.0
C653 C 0.44283 0.10805 1.01314 0.0
C654 C 0.68183 0.16717 0.96298 0.0
C655 C 0.72089 0.18407 0.97887 0.0
H656 H 0.61303 0.11795 0.95899 0.0
C657 C 0.72149 0.16007 1.00198 0.0
H658 H 0.68027 0.18505 0.94519 0.0
C659 C 0.68273 0.12263 1.01038 0.0
C660 C 0.64288 0.10723 0.99531 0.0
H661 H 0.7515 0.17155 1.01421 0.0
H662 H 0.6836 0.10641 0.02904 0.0
C663 C 0.6433 0.12886 0.97099 0.0
C664 C 0.89535 0.63576 1.00285 0.0
C665 C 0.86724 0.61855 0.98068 0.0
H666 H 0.94479 0.63263 0.02912 0.0
C667 C 0.87055 0.587 0.96631 0.0
H668 H 0.89288 0.65991 1.01426 0.0
C669 C 0.90027 0.57153 0.97462 0.0
C670 C 0.92654 0.5868 0.99773 0.0
H671 H 0.84831 0.57235 0.94964 0.0
H672 H 0.90109 0.5461 0.96359 0.0
C673 C 0.92452 0.61979 1.01146 0.0
C674 C 0.52893 0.346 1.00483 0.0
C675 C 0.48789 0.31871 0.9923 0.0
H676 H 0.56672 0.40306 0.02794 0.0
C677 C 0.45353 0.32989 0.99237 0.0
H678 H 0.55607 0.3383 1.0046 0.0
C679 C 0.45968 0.36712 1.00532 0.0
C680 C 0.50031 0.39374 0.01856 0.0
H681 H 0.42167 0.30929 0.98277 0.0
H682 H 0.43235 0.37459 1.00542 0.0
C683 C 0.53497 0.38296 0.01806 0.0
C684 C 0.18967 0.68403 0.05459 0.0
C685 C 0.17581 0.71234 0.06457 0.0
H686 H 0.17097 0.62564 0.03324 0.0
C687 C 0.13072 0.70161 0.06182 0.0
H688 H 0.22411 0.69122 0.05707 0.0
C689 C 0.10016 0.66374 0.0488 0.0
C690 C 0.11432 0.63623 0.03798 0.0
H691 H 0.11935 0.72291 0.06949 0.0
H692 H 0.06564 0.65649 0.04674 0.0
C693 C 0.15931 0.64658 0.04111 0.0
C694 C 0.311 0.44016 0.08789 0.0
C695 C 0.27398 0.40914 0.07382 0.0
H696 H 0.38172 0.48077 0.08967 0.0
C697 C 0.28084 0.39271 0.05088 0.0
H698 H 0.30666 0.45458 0.10499 0.0
C699 C 0.32376 0.40889 0.04134 0.0
C700 C 0.36073 0.44133 0.05487 0.0
H701 H 0.2525 0.36929 0.0395 0.0
H702 H 0.32788 0.3966 0.0232 0.0
C703 C 0.35396 0.45579 0.07868 0.0
C704 C 0.52279 0.85954 0.08049 0.0
C705 C 0.54711 0.8432 0.06781 0.0
H706 H 0.49761 0.90612 0.07839 0.0
C707 C 0.57082 0.86621 0.04542 0.0
H708 H 0.50393 0.84207 0.09766 0.0
C709 C 0.56674 0.90195 0.03428 0.0
C710 C 0.53976 0.91634 0.04564 0.0
H711 H 0.59 0.85439 0.03545 0.0
H712 H 0.5826 0.9167 1.01581 0.0
C713 C 0.51929 0.89615 0.06951 0.0
C714 C 0.97671 0.2257 0.39644 0.0
C715 C 0.97617 0.19644 0.41696 0.0
H716 H 0.01619 0.27817 0.369 0.0
C717 C 0.01712 0.20312 0.42836 0.0
H718 H 0.9456 0.2208 0.38707 0.0
C719 C 0.05768 0.23647 0.4183 0.0
C720 C 0.05811 0.26295 0.39611 0.0
H721 H 0.01773 0.18061 0.44382 0.0
H722 H 0.08871 0.23967 0.42687 0.0
C723 C 0.0171 0.25793 0.38579 0.0
C724 C 0.81325 0.79182 0.40658 0.0
C725 C 0.81428 0.75941 0.39187 0.0
H726 H 0.78929 0.83801 0.4091 0.0
C727 C 0.79245 0.74953 0.36717 0.0
H728 H 0.8311 0.80074 0.42532 0.0
C729 C 0.7692 0.77157 0.35747 0.0
C730 C 0.76734 0.80332 0.37258 0.0
H731 H 0.79363 0.72495 0.3555 0.0
H732 H 0.75201 0.76319 0.33851 0.0
C733 C 0.78973 0.81332 0.39715 0.0
C734 C 0.18197 0.99394 0.40412 0.0
C735 C 0.20262 0.03435 0.38963 0.0
H736 H 0.15801 0.92385 0.40461 0.0
C737 C 0.21488 0.03408 0.36376 0.0
H738 H 0.17128 0.99271 0.42388 0.0
C739 C 0.20551 0.9945 0.3524 0.0
C740 C 0.18532 0.95438 0.36697 0.0
H741 H 0.23184 0.06459 0.35227 0.0
H742 H 0.21466 0.99534 0.33228 0.0
C743 C 0.17416 0.95447 0.39307 0.0
C744 C 0.56888 0.68688 0.31839 0.0
C745 C 0.5227 0.66936 0.32126 0.0
H746 H 0.63439 0.74046 0.32621 0.0
C747 C 0.50728 0.69376 0.33443 0.0
H748 H 0.58166 0.66853 0.30858 0.0
C749 C 0.53733 0.73448 0.34487 0.0
C750 C 0.58349 0.75193 0.34211 0.0
H751 H 0.47186 0.68136 0.33651 0.0
H752 H 0.52439 0.75232 0.35512 0.0
C753 C 0.59898 0.72794 0.32853 0.0
C754 C 0.35903 0.91091 0.30984 0.0
C755 C 0.39428 0.94216 0.32494 0.0
H756 H 0.28924 0.86725 0.30639 0.0
C757 C 0.38551 0.95361 0.34905 0.0
H758 H 0.36533 0.90075 0.29155 0.0
C759 C 0.34183 0.93378 0.35799 0.0
C760 C 0.30645 0.9025 0.34277 0.0
H761 H 0.41257 0.97744 0.361 0.0
H762 H 0.33581 0.94298 0.3767 0.0
C763 C 0.31556 0.89153 0.31853 0.0
C764 C 0.11116 0.47041 0.31778 0.0
C765 C 0.14519 0.51188 0.30917 0.0
H766 H 0.09512 0.40867 0.33851 0.0
C767 C 0.18954 0.52021 0.31187 0.0
H768 H 0.07678 0.46371 0.31656 0.0
C769 C 0.20011 0.48979 0.32515 0.0
C770 C 0.16654 0.44973 0.33561 0.0
H771 H 0.21633 0.55226 0.30596 0.0
H772 H 0.23484 0.4988 0.32848 0.0
C773 C 0.12173 0.43924 0.33061 0.0
C774 C 0.38204 0.47755 0.30685 0.0
C775 C 0.3909 0.5207 0.3119 0.0
H776 H 0.33611 0.40779 0.3115 0.0
C777 C 0.35849 0.52605 0.32468 0.0
H778 H 0.40645 0.47218 0.29735 0.0
C779 C 0.31994 0.48966 0.33388 0.0
C780 C 0.31126 0.44669 0.32934 0.0
H781 H 0.3637 0.55873 0.32831 0.0
H782 H 0.29701 0.49517 0.3449 0.0
C783 C 0.34211 0.44074 0.31522 0.0
C784 C 0.54416 0.92178 0.30116 0.0
C785 C 0.54127 0.95314 0.31594 0.0
H786 H 0.57446 0.88096 0.29746 0.0
C787 C 0.56944 0.9695 0.3382 0.0
H788 H 0.52178 0.90763 0.28448 0.0
C789 C 0.59866 0.95327 0.34627 0.0
C790 C 0.60055 0.92077 0.33196 0.0
H791 H 0.5672 0.99339 0.34997 0.0
H792 H 0.61922 0.96568 0.36388 0.0
C793 C 0.57381 0.90601 0.30895 0.0
C794 C 0.11944 0.66784 0.32772 0.0
C795 C 0.1518 0.65389 0.32779 0.0
H796 H 0.10216 0.71558 0.34041 0.0
C797 C 0.19291 0.67883 0.34101 0.0
H798 H 0.08736 0.64895 0.31792 0.0
C799 C 0.20126 0.71664 0.35419 0.0
C800 C 0.16885 0.73054 0.35412 0.0
H801 H 0.21861 0.66909 0.34104 0.0
H802 H 0.23313 0.73509 0.36434 0.0
C803 C 0.12792 0.70585 0.34065 0.0
C804 C 0.86466 0.02238 0.386 0.0
C805 C 0.84952 0.04817 0.39799 0.0
H806 H 0.84772 0.9668 0.36229 0.0
C807 C 0.80392 0.03584 0.3958 0.0
H808 H 0.8994 0.03053 0.38784 0.0
C809 C 0.77416 0.99878 0.38182 0.0
C810 C 0.78952 0.97372 0.36925 0.0
H811 H 0.79144 0.05536 0.40459 0.0
H812 H 0.73926 0.9903 0.38038 0.0
C813 C 0.83504 0.9858 0.37154 0.0
C814 C 0.95616 0.7247 0.38564 0.0
C815 C 0.94697 0.74202 0.40734 0.0
H816 H 0.0053 0.73028 0.35903 0.0
C817 C 0.98234 0.77598 0.42088 0.0
H818 H 0.92906 0.69901 0.37467 0.0
C819 C 0.02585 0.79393 0.412 0.0
C820 C 0.03458 0.77884 0.38907 0.0
H821 H 0.97597 0.79089 0.43703 0.0
H822 H 0.05232 0.82117 0.42237 0.0
C823 C 0.99948 0.74323 0.37638 0.0
C824 C 0.2016 0.20411 0.41113 0.0
C825 C 0.22397 0.18617 0.39794 0.0
H826 H 0.17776 0.25176 0.40941 0.0
C827 C 0.24506 0.20719 0.37441 0.0
H828 H 0.18465 0.18829 0.42913 0.0
C829 C 0.24017 0.24231 0.36288 0.0
C830 C 0.21541 0.25848 0.37503 0.0
H831 H 0.26287 0.19433 0.36401 0.0
H832 H 0.25403 0.25551 0.34375 0.0
C833 C 0.19765 0.24034 0.39982 0.0
C834 C 0.6772 0.54183 0.76014 0.0
C835 C 0.63664 0.53322 0.7473 0.0
H836 H 0.74877 0.57945 0.75997 0.0
C837 C 0.63776 0.56077 0.72558 0.0
H838 H 0.67749 0.5207 0.77656 0.0
C839 C 0.67843 0.59307 0.71532 0.0
C840 C 0.71917 0.59978 0.72707 0.0
H841 H 0.60699 0.55495 0.71534 0.0
H842 H 0.67798 0.61191 0.6977 0.0
C843 C 0.71801 0.57507 0.75031 0.0
C844 C 0.45544 0.08636 0.70406 0.0
C845 C 0.47814 0.09654 0.72844 0.0
H846 H 0.41329 0.09882 0.6763 0.0
C847 C 0.47639 0.12799 0.74375 0.0
H848 H 0.45705 0.06243 0.692 0.0
C849 C 0.45152 0.14852 0.73506 0.0
C850 C 0.42857 0.13842 0.71068 0.0
H851 H 0.49479 0.13701 0.76231 0.0
H852 H 0.4507 0.17263 0.74735 0.0
C853 C 0.43086 0.10733 0.69514 0.0
C854 C 0.88264 0.36999 0.69629 0.0
C855 C 0.87376 0.37096 0.72277 0.0
H856 H 0.87877 0.33021 0.66443 0.0
C857 C 0.85506 0.33111 0.73784 0.0
H858 H 0.89779 0.40017 0.68433 0.0
C859 C 0.84583 0.29135 0.72674 0.0
C860 C 0.85386 0.29045 0.70013 0.0
H861 H 0.84701 0.33064 0.75813 0.0
H862 H 0.83111 0.26113 0.73872 0.0
C863 C 0.87209 0.33005 0.68497 0.0
C864 C 0.16789 0.02879 0.66848 0.0
C865 C 0.18387 1.00431 0.65585 0.0
H866 H 0.18428 0.08721 0.68919 0.0
C867 C 0.23019 0.02139 0.65414 0.0
H868 H 0.13237 0.01667 0.66972 0.0
C869 C 0.25989 0.06211 0.66477 0.0
C870 C 0.24389 0.08631 0.6777 0.0
H871 H 0.24339 1.00295 0.64482 0.0
H872 H 0.29541 0.07426 0.66326 0.0
C873 C 0.19758 0.06925 0.67942 0.0
C874 C 0.02604 0.24659 0.64635 0.0
C875 C 0.06019 0.28032 0.66069 0.0
H876 H 0.95704 0.19988 0.64346 0.0
C877 C 0.05049 0.29298 0.68407 0.0
H878 H 0.03328 0.23559 0.62867 0.0
C879 C 0.00681 0.27195 0.693 0.0
C880 C 0.97249 0.23829 0.67845 0.0
H881 H 0.07682 0.31868 0.69544 0.0
H882 H 0.99989 0.28217 0.71108 0.0
C883 C 0.98258 0.22599 0.65501 0.0
C884 C 0.77238 0.80354 0.65271 0.0
C885 C 0.80549 0.84541 0.64402 0.0
H886 H 0.75834 0.7411 0.67174 0.0
C887 C 0.85 0.85411 0.64489 0.0
H888 H 0.73795 0.79655 0.65286 0.0
C889 C 0.86181 0.8234 0.65639 0.0
C890 C 0.82932 0.78279 0.66691 0.0
H891 H 0.8761 0.88646 0.63883 0.0
H892 H 0.89672 0.83247 0.65816 0.0
C893 C 0.78415 0.77215 0.6638 0.0
C894 C 0.04687 0.81238 0.63937 0.0
C895 C 0.05368 0.8551 0.64367 0.0
H896 H 1.00292 0.74222 0.64438 0.0
C897 C 0.01945 0.85926 0.65506 0.0
H898 H 0.07279 0.808 0.63097 0.0
C899 C 0.98102 0.82216 0.66374 0.0
C900 C 0.97432 0.7796 0.66002 0.0
H901 H 0.02327 0.89158 0.65823 0.0
H902 H 0.9569 0.82686 0.67403 0.0
C903 C 0.00716 0.7748 0.64726 0.0
C904 C 0.23508 0.30677 0.67224 0.0
C905 C 0.20549 0.28992 0.65065 0.0
H906 H 0.28516 0.30231 0.6972 0.0
C907 C 0.20612 0.25705 0.63615 0.0
H908 H 0.23459 0.33187 0.68375 0.0
C909 C 0.23507 0.24032 0.64361 0.0
C910 C 0.26311 0.25557 0.66605 0.0
H911 H 0.18254 0.24255 0.62001 0.0
H912 H 0.23406 0.2141 0.63247 0.0
C913 C 0.26346 0.28952 0.68004 0.0
C914 C 0.85497 1.01221 0.67716 0.0
C915 C 0.8127 0.98664 0.66533 0.0
H916 H 0.89737 0.06985 0.69894 0.0
C917 C 0.78044 1.00051 0.66627 0.0
H918 H 0.88063 1.00256 0.6763 0.0
C919 C 0.79028 0.03937 0.67854 0.0
C920 C 0.83239 0.06475 0.69056 0.0
H921 H 0.74749 0.9811 0.65758 0.0
H922 H 0.76467 0.04922 0.67893 0.0
C923 C 0.86462 0.05075 0.6899 0.0
C924 C 0.52627 0.35634 0.71886 0.0
C925 C 0.51164 0.38324 0.72991 0.0
H926 H 0.50843 0.29892 0.6967 0.0
C927 C 0.46605 0.37091 0.72814 0.0
H928 H 0.56111 0.36465 0.72056 0.0
C929 C 0.43576 0.33286 0.71515 0.0
C930 C 0.45062 0.30672 0.70332 0.0
H931 H 0.45402 0.39107 0.73662 0.0
H932 H 0.40085 0.32437 0.71392 0.0
C933 C 0.49615 0.31873 0.70538 0.0
C934 C 0.64858 0.11463 0.75456 0.0
C935 C 0.61287 0.08167 0.74067 0.0
H936 H 0.71881 0.15836 0.75651 0.0
C937 C 0.62151 0.06494 0.7185 0.0
H938 H 0.64263 0.12911 0.7711 0.0
C939 C 0.66483 0.08278 0.70936 0.0
C940 C 0.70041 0.11721 0.72258 0.0
H941 H 0.59412 0.04 0.70728 0.0
H942 H 0.67031 0.07012 0.69178 0.0
C943 C 0.69203 0.13198 0.74576 0.0
C944 C 0.91299 0.55485 0.73009 0.0
C945 C 0.87767 0.51382 0.73809 0.0
H946 H 0.93183 0.61937 0.71253 0.0
C947 C 0.83442 0.50859 0.73797 0.0
H948 H 0.94656 0.55936 0.72995 0.0
C949 C 0.82584 0.54215 0.72761 0.0
C950 C 0.86051 0.58204 0.71766 0.0
H951 H 0.80683 0.4772 0.74408 0.0
H952 H 0.79163 0.53606 0.72619 0.0
C953 C 0.90453 0.58898 0.72009 0.0
C954 C 0.49506 0.95177 0.24494 0.0
C955 C 0.51478 0.98397 0.2639 0.0
H956 H 0.49105 0.93644 0.20455 0.0
C957 C 0.54862 0.02603 0.25658 0.0
H958 H 0.46827 0.91937 0.25026 0.0
C959 C 0.56106 0.03642 0.23029 0.0
C960 C 0.53967 1.00481 0.21089 0.0
H961 H 0.56331 0.05151 0.2709 0.0
H962 H 0.58554 0.06992 0.22498 0.0
C963 C 0.50762 0.96189 0.21877 0.0
C964 C 0.13901 0.55482 0.23863 0.0
C965 C 0.10944 0.54314 0.25932 0.0
H966 H 0.1469 0.55944 0.19691 0.0
C967 C 0.06347 0.52196 0.25345 0.0
H968 H 0.17464 0.57227 0.24266 0.0
C969 C 0.04737 0.51533 0.22733 0.0
C970 C 0.07697 0.53006 0.20632 0.0
H971 H 0.04017 0.51396 0.26904 0.0
H972 H 0.0118 0.50165 0.22364 0.0
C973 C 0.12301 0.54829 0.21243 0.0
C974 C 0.46917 0.52413 0.25767 0.0
C975 C 0.44463 0.54633 0.26061 0.0
H976 H 0.49539 0.49723 0.23124 0.0
C977 C 0.42222 0.55332 0.23856 0.0
H978 H 0.48778 0.51968 0.27433 0.0
C979 C 0.42686 0.54102 0.21363 0.0
C980 C 0.4541 0.5215 0.21033 0.0
H981 H 0.40409 0.57144 0.24034 0.0
H982 H 0.41083 0.54866 0.19679 0.0
C983 C 0.4737 0.51163 0.23289 0.0
C984 C 0.88791 0.47803 0.80612 0.0
C985 C 0.91897 0.48928 0.78637 0.0
H986 H 0.87754 0.47863 0.84714 0.0
C987 C 0.96449 0.5146 0.79261 0.0
H988 H 0.85266 0.45796 0.80164 0.0
C989 C 0.97902 0.52585 0.81861 0.0
C990 C 0.94816 0.51186 0.83893 0.0
H991 H 0.98887 0.52279 0.77765 0.0
H992 H 0.01455 0.54283 0.82297 0.0
C993 C 0.9023 0.48929 0.83215 0.0
C994 C 0.59976 0.48867 0.81944 0.0
C995 C 0.57752 0.4961 0.79742 0.0
H996 H 0.60482 0.48376 0.86146 0.0
C997 C 0.54634 0.51047 0.80161 0.0
H998 H 0.62296 0.47634 0.81684 0.0
C999 C 0.5348 0.5136 0.82716 0.0
C1000 C 0.55409 0.50225 0.84933 0.0
H1001 H 0.52763 0.51497 0.78504 0.0
H1002 H 0.50811 0.52144 0.82938 0.0
C1003 C 0.58838 0.49186 0.84503 0.0
C1004 C 0.57459 0.08464 0.80957 0.0
C1005 C 0.55907 0.0503 0.79191 0.0
H1006 H 0.57862 0.10252 0.84949 0.0
C1007 C 0.54247 1.00686 0.80197 0.0
H1008 H 0.58618 0.11825 0.80222 0.0
C1009 C 0.53664 0.99746 0.82901 0.0
C1010 C 0.54744 0.03152 0.84648 0.0
H1011 H 0.52912 0.97986 0.78866 0.0
H1012 H 0.51983 0.96324 0.83583 0.0
C1013 C 0.56901 0.07541 0.83659 0.0
C1014 C 0.15515 0.2858 0.5804 0.0
C1015 C 0.17751 0.31859 0.59879 0.0
H1016 H 0.14885 0.26807 0.54035 0.0
C1017 C 0.21375 0.35871 0.59099 0.0
H1018 H 0.12677 0.2548 0.58622 0.0
C1019 C 0.22593 0.36693 0.56465 0.0
C1020 C 0.20195 0.33497 0.54578 0.0
H1021 H 0.23071 0.38454 0.60494 0.0
H1022 H 0.25236 0.39925 0.55886 0.0
C1023 C 0.16745 0.29371 0.55419 0.0
C1024 C 0.79391 0.88264 0.57677 0.0
C1025 C 0.7643 0.87592 0.59667 0.0
H1026 H 0.80352 0.88539 0.53538 0.0
C1027 C 0.71923 0.86148 0.58982 0.0
H1028 H 0.829 0.89482 0.58157 0.0
C1029 C 0.70462 0.85715 0.56344 0.0
C1030 C 0.73491 0.86734 0.54322 0.0
H1031 H 0.69615 0.85736 0.60484 0.0
H1032 H 0.67026 0.84888 0.55893 0.0
C1033 C 0.77939 0.87827 0.55032 0.0
C1034 C 0.13643 0.86143 0.59134 0.0
C1035 C 0.11083 0.88264 0.59385 0.0
H1036 H 0.16485 0.83599 0.5654 0.0
C1037 C 0.08888 0.88936 0.57147 0.0
H1038 H 0.15468 0.85722 0.60827 0.0
C1039 C 0.09495 0.87773 0.54668 0.0
C1040 C 0.12321 0.8592 0.54384 0.0
H1041 H 0.06993 0.90673 0.57294 0.0
H1042 H 0.07918 0.88511 0.5296 0.0
C1043 C 0.14242 0.84962 0.56669 0.0
C1044 C 0.54436 0.80088 0.14172 0.0
C1045 C 0.57237 0.81199 0.12033 0.0
H1046 H 0.53972 0.80496 0.18306 0.0
C1047 C 0.61826 0.83969 0.12405 0.0
H1048 H 0.50892 0.77893 0.13918 0.0
C1049 C 0.63627 0.85388 0.1492 0.0
C1050 C 0.60861 0.84054 0.17112 0.0
H1051 H 0.64038 0.84766 0.10783 0.0
H1052 H 0.67216 0.87285 0.15165 0.0
C1053 C 0.56219 0.81523 0.16683 0.0
C1054 C 0.21588 0.84362 0.13559 0.0
C1055 C 0.24484 0.8266 0.13122 0.0
H1056 H 0.18052 0.85798 0.16365 0.0
C1057 C 0.26616 0.81754 0.15311 0.0
H1058 H 0.19787 0.84946 0.11911 0.0
C1059 C 0.25587 0.82175 0.17877 0.0
C1060 C 0.22372 0.83497 0.18326 0.0
H1061 H 0.28756 0.80315 0.15037 0.0
H1062 H 0.27133 0.81224 0.19511 0.0
C1063 C 0.20555 0.84793 0.16123 0.0
C1064 C 0.20352 0.3345 0.13641 0.0
C1065 C 0.22205 0.37793 0.12592 0.0
H1066 H 0.17954 0.29216 0.17084 0.0
C1067 C 0.24033 0.41281 0.14326 0.0
H1068 H 0.18814 0.30712 0.12338 0.0
C1069 C 0.2353 0.40451 0.17034 0.0
C1070 C 0.21135 0.36104 0.18065 0.0
H1071 H 0.25332 0.44648 0.13569 0.0
H1072 H 0.24668 0.43224 0.18299 0.0
C1073 C 0.19811 0.32604 0.16359 0.0
C1074 C 0.81862 0.61455 0.90937 0.0
C1075 C 0.83913 0.64673 0.9283 0.0
H1076 H 0.81366 0.59913 0.86891 0.0
C1077 C 0.87365 0.68836 0.92095 0.0
H1078 H 0.79141 0.58244 0.91476 0.0
C1079 C 0.88588 0.69849 0.89464 0.0
C1080 C 0.86361 0.66702 0.87526 0.0
H1081 H 0.88902 0.7138 0.93527 0.0
H1082 H 0.91088 0.73175 0.8893 0.0
C1083 C 0.83091 0.62442 0.88315 0.0
C1084 C 0.47164 0.21208 0.90561 0.0
C1085 C 0.44295 0.20452 0.92627 0.0
H1086 H 0.47887 0.21357 0.86397 0.0
C1087 C 0.39719 0.18729 0.9204 0.0
H1088 H 0.50721 0.2265 0.90957 0.0
C1089 C 0.38083 0.18076 0.8943 0.0
C1090 C 0.40997 0.19157 0.87328 0.0
H1091 H 0.37468 0.18261 0.93589 0.0
H1092 H 0.34579 0.17039 0.89058 0.0
C1093 C 0.4554 0.20558 0.87945 0.0
C1094 C 0.75159 0.22584 0.90474 0.0
C1095 C 0.77238 0.21903 0.92764 0.0
H1096 H 0.74369 0.22148 0.86288 0.0
C1097 C 0.79804 0.19768 0.926 0.0
H1098 H 0.73238 0.24307 0.90562 0.0
C1099 C 0.80545 0.18609 0.90159 0.0
C1100 C 0.78736 0.1958 0.87826 0.0
H1101 H 0.81522 0.19322 0.94338 0.0
H1102 H 0.82794 0.17242 0.90091 0.0
C1103 C 0.75883 0.21421 0.8803 0.0
C1104 C 0.29497 0.18121 0.45704 0.0
C1105 C 0.24912 0.156 0.45155 0.0
H1106 H 0.34658 0.20998 0.48659 0.0
C1107 C 0.21928 0.14537 0.47195 0.0
H1108 H 0.31853 0.18863 0.44169 0.0
C1109 C 0.23501 0.15738 0.49773 0.0
C1110 C 0.28114 0.17987 0.50376 0.0
H1111 H 0.18382 0.12515 0.46816 0.0
H1112 H 0.211 0.14728 0.51311 0.0
C1113 C 0.31087 0.19311 0.48284 0.0
C1114 C 0.88226 0.17581 0.46984 0.0
C1115 C 0.91366 0.16172 0.46559 0.0
H1116 H 0.84473 0.18758 0.49768 0.0
C1117 C 0.93664 0.15523 0.48755 0.0
H1118 H 0.86297 0.17958 0.45334 0.0
C1119 C 0.92595 0.15928 0.51319 0.0
C1120 C 0.89167 0.16967 0.5176 0.0
H1121 H 0.96002 0.14313 0.48494 0.0
H1122 H 0.94307 0.15202 0.52959 0.0
C1123 C 0.87147 0.17985 0.49541 0.0
C1124 C 0.87304 0.66773 0.46786 0.0
C1125 C 0.89075 0.7113 0.45783 0.0
H1126 H 0.85048 0.62412 0.50174 0.0
C1127 C 0.90705 0.74559 0.47556 0.0
H1128 H 0.85894 0.64074 0.45452 0.0
C1129 C 0.90213 0.73638 0.50265 0.0
C1130 C 0.88018 0.6925 0.51263 0.0
H1131 H 0.91941 0.77934 0.46827 0.0
H1132 H 0.913 0.76363 0.5156 0.0
C1133 C 0.86777 0.65834 0.49497 0.0
loop_
_geom_bond_atom_site_label_1
_geom_bond_atom_site_label_2
_geom_bond_distance
_geom_bond_site_symmetry_2
_ccdc_geom_bond_type
C0 N1 1.317 . S
C0 N2 1.348 . S
C0 C3 1.485 . S
N1 C0 1.317 . S
N1 N5 1.370 . S
N2 C0 1.348 . S
N2 C4 1.346 . S
C3 C0 1.485 . S
C3 H7 0.960 . S
C3 H8 0.961 . S
C3 H9 0.960 . S
C4 N2 1.346 . S
C4 N5 1.307 . S
C4 C6 1.486 . S
N5 N1 1.370 . S
N5 C4 1.307 . S
C6 C4 1.486 . S
C6 H10 0.960 . S
C6 H11 0.960 . S
C6 H12 0.959 . S
H7 C3 0.960 . S
H8 C3 0.961 . S
H9 C3 0.960 . S
H10 C6 0.960 . S
H11 C6 0.960 . S
H12 C6 0.959 . S
C13 N14 1.317 . S
C13 N15 1.348 . S
C13 C16 1.485 . S
N14 C13 1.317 . S
N14 N18 1.370 . S
N15 C13 1.348 . S
N15 C17 1.346 . S
C16 C13 1.485 . S
C16 H20 0.960 . S
C16 H21 0.961 . S
C16 H22 0.960 . S
C17 N15 1.346 . S
C17 N18 1.307 . S
C17 C19 1.486 . S
N18 N14 1.370 . S
N18 C17 1.307 . S
C19 C17 1.486 . S
C19 H23 0.960 . S
C19 H24 0.960 . S
C19 H25 0.959 . S
H20 C16 0.960 . S
H21 C16 0.961 . S
H22 C16 0.960 . S
H23 C19 0.960 . S
H24 C19 0.960 . S
H25 C19 0.959 . S
C26 N27 1.317 . S
C26 N28 1.348 . S
C26 C29 1.485 . S
N27 C26 1.317 . S
N27 N31 1.370 . S
N28 C26 1.348 . S
N28 C30 1.346 . S
C29 C26 1.485 . S
C29 H33 0.960 . S
C29 H34 0.961 . S
C29 H35 0.960 . S
C30 N28 1.346 . S
C30 N31 1.307 . S
C30 C32 1.486 . S
N31 N27 1.370 . S
N31 C30 1.307 . S
C32 C30 1.486 . S
C32 H36 0.960 . S
C32 H37 0.960 . S
C32 H38 0.959 . S
H33 C29 0.960 . S
H34 C29 0.961 . S
H35 C29 0.960 . S
H36 C32 0.960 . S
H37 C32 0.960 . S
H38 C32 0.959 . S
C39 N40 1.317 . S
C39 N41 1.348 . S
C39 C42 1.485 . S
N40 C39 1.317 . S
N40 N44 1.370 . S
N41 C39 1.348 . S
N41 C43 1.346 . S
C42 C39 1.485 . S
C42 H46 0.960 . S
C42 H47 0.961 . S
C42 H48 0.960 . S
C43 N41 1.346 . S
C43 N44 1.307 . S
C43 C45 1.486 . S
N44 N40 1.370 . S
N44 C43 1.307 . S
C45 C43 1.486 . S
C45 H49 0.960 . S
C45 H50 0.960 1_455 S
C45 H51 0.959 . S
H46 C42 0.960 . S
H47 C42 0.961 . S
H48 C42 0.960 . S
H49 C45 0.960 . S
H50 C45 0.960 1_655 S
H51 C45 0.959 . S
C52 N53 1.317 . S
C52 N54 1.348 . S
C52 C55 1.485 . S
N53 C52 1.317 . S
N53 N57 1.370 . S
N54 C52 1.348 . S
N54 C56 1.346 . S
C55 C52 1.485 . S
C55 H59 0.960 . S
C55 H60 0.961 . S
C55 H61 0.960 . S
C56 N54 1.346 . S
C56 N57 1.307 . S
C56 C58 1.486 . S
N57 N53 1.370 . S
N57 C56 1.307 . S
C58 C56 1.486 . S
C58 H62 0.960 . S
C58 H63 0.960 . S
C58 H64 0.959 . S
H59 C55 0.960 . S
H60 C55 0.961 . S
H61 C55 0.960 . S
H62 C58 0.960 . S
H63 C58 0.960 . S
H64 C58 0.959 . S
C65 N66 1.317 . S
C65 N67 1.348 . S
C65 C68 1.485 . S
N66 C65 1.317 . S
N66 N70 1.370 . S
N67 C65 1.348 . S
N67 C69 1.346 . S
C68 C65 1.485 . S
C68 H72 0.960 . S
C68 H73 0.961 . S
C68 H74 0.960 . S
C69 N67 1.346 . S
C69 N70 1.307 . S
C69 C71 1.486 . S
N70 N66 1.370 . S
N70 C69 1.307 . S
C71 C69 1.486 . S
C71 H75 0.960 . S
C71 H76 0.960 . S
C71 H77 0.959 . S
H72 C68 0.960 . S
H73 C68 0.961 . S
H74 C68 0.960 . S
H75 C71 0.960 . S
H76 C71 0.960 . S
H77 C71 0.959 . S
C78 N79 1.317 . S
C78 N80 1.348 . S
C78 C81 1.485 . S
N79 C78 1.317 . S
N79 N83 1.370 . S
N80 C78 1.348 . S
N80 C82 1.346 . S
C81 C78 1.485 . S
C81 H85 0.960 . S
C81 H86 0.961 . S
C81 H87 0.960 . S
C82 N80 1.346 . S
C82 N83 1.307 . S
C82 C84 1.486 . S
N83 N79 1.370 . S
N83 C82 1.307 . S
C84 C82 1.486 . S
C84 H88 0.960 . S
C84 H89 0.960 . S
C84 H90 0.959 . S
H85 C81 0.960 . S
H86 C81 0.961 . S
H87 C81 0.960 . S
H88 C84 0.960 . S
H89 C84 0.960 . S
H90 C84 0.959 . S
C91 N92 1.317 . S
C91 N93 1.348 . S
C91 C94 1.485 . S
N92 C91 1.317 . S
N92 N96 1.370 . S
N93 C91 1.348 . S
N93 C95 1.346 . S
C94 C91 1.485 . S
C94 H98 0.960 . S
C94 H99 0.961 . S
C94 H100 0.960 . S
C95 N93 1.346 . S
C95 N96 1.307 . S
C95 C97 1.486 . S
N96 N92 1.370 . S
N96 C95 1.307 . S
C97 C95 1.486 . S
C97 H101 0.960 . S
C97 H102 0.960 . S
C97 H103 0.959 . S
H98 C94 0.960 . S
H99 C94 0.961 . S
H100 C94 0.960 . S
H101 C97 0.960 . S
H102 C97 0.960 . S
H103 C97 0.959 . S
C104 N105 1.317 . S
C104 N106 1.348 . S
C104 C107 1.485 . S
N105 C104 1.317 . S
N105 N109 1.370 . S
N106 C104 1.348 . S
N106 C108 1.346 . S
C107 C104 1.485 . S
C107 H111 0.960 . S
C107 H112 0.961 . S
C107 H113 0.960 . S
C108 N106 1.346 . S
C108 N109 1.307 . S
C108 C110 1.486 . S
N109 N105 1.370 . S
N109 C108 1.307 . S
C110 C108 1.486 . S
C110 H114 0.960 . S
C110 H115 0.960 . S
C110 H116 0.959 . S
H111 C107 0.960 . S
H112 C107 0.961 . S
H113 C107 0.960 . S
H114 C110 0.960 . S
H115 C110 0.960 . S
H116 C110 0.959 . S
C117 N118 1.317 . S
C117 N119 1.348 . S
C117 C120 1.485 . S
N118 C117 1.317 . S
N118 N122 1.370 . S
N119 C117 1.348 . S
N119 C121 1.346 . S
C120 C117 1.485 . S
C120 H124 0.960 . S
C120 H125 0.961 1_556 S
C120 H126 0.960 . S
C121 N119 1.346 . S
C121 N122 1.307 . S
C121 C123 1.486 . S
N122 N118 1.370 . S
N122 C121 1.307 . S
C123 C121 1.486 . S
C123 H127 0.960 . S
C123 H128 0.960 . S
C123 H129 0.959 . S
H124 C120 0.960 . S
H125 C120 0.961 1_554 S
H126 C120 0.960 . S
H127 C123 0.960 . S
H128 C123 0.960 . S
H129 C123 0.959 . S
C130 N131 1.317 . S
C130 N132 1.348 . S
C130 C133 1.485 1_556 S
N131 C130 1.317 . S
N131 N135 1.370 . S
N132 C130 1.348 . S
N132 C134 1.346 . S
C133 C130 1.485 1_554 S
C133 H137 0.960 . S
C133 H138 0.961 . S
C133 H139 0.960 . S
C134 N132 1.346 . S
C134 N135 1.307 . S
C134 C136 1.486 . S
N135 N131 1.370 . S
N135 C134 1.307 . S
C136 C134 1.486 . S
C136 H140 0.960 . S
C136 H141 0.960 . S
C136 H142 0.959 . S
H137 C133 0.960 . S
H138 C133 0.961 . S
H139 C133 0.960 . S
H140 C136 0.960 . S
H141 C136 0.960 . S
H142 C136 0.959 . S
C143 N144 1.317 . S
C143 N145 1.348 . S
C143 C146 1.485 1_556 S
N144 C143 1.317 . S
N144 N148 1.370 . S
N145 C143 1.348 . S
N145 C147 1.346 . S
C146 C143 1.485 1_554 S
C146 H150 0.960 . S
C146 H151 0.961 . S
C146 H152 0.960 . S
C147 N145 1.346 . S
C147 N148 1.307 . S
C147 C149 1.486 . S
N148 N144 1.370 . S
N148 C147 1.307 . S
C149 C147 1.486 . S
C149 H153 0.960 . S
C149 H154 0.960 . S
C149 H155 0.959 . S
H150 C146 0.960 . S
H151 C146 0.961 . S
H152 C146 0.960 . S
H153 C149 0.960 . S
H154 C149 0.960 . S
H155 C149 0.959 . S
C156 N157 1.317 . S
C156 N158 1.348 . S
C156 C159 1.485 1_554 S
N157 C156 1.317 . S
N157 N161 1.370 . S
N158 C156 1.348 . S
N158 C160 1.346 . S
C159 C156 1.485 1_556 S
C159 H163 0.960 . S
C159 H164 0.961 . S
C159 H165 0.960 . S
C160 N158 1.346 . S
C160 N161 1.307 . S
C160 C162 1.486 . S
N161 N157 1.370 . S
N161 C160 1.307 . S
C162 C160 1.486 . S
C162 H166 0.960 . S
C162 H167 0.960 . S
C162 H168 0.959 . S
H163 C159 0.960 . S
H164 C159 0.961 . S
H165 C159 0.960 . S
H166 C162 0.960 . S
H167 C162 0.960 . S
H168 C162 0.959 . S
C169 N170 1.317 . S
C169 N171 1.348 . S
C169 C172 1.485 . S
N170 C169 1.317 . S
N170 N174 1.370 . S
N171 C169 1.348 . S
N171 C173 1.346 . S
C172 C169 1.485 . S
C172 H176 0.960 1_554 S
C172 H177 0.961 . S
C172 H178 0.960 . S
C173 N171 1.346 . S
C173 N174 1.307 . S
C173 C175 1.486 . S
N174 N170 1.370 . S
N174 C173 1.307 . S
C175 C173 1.486 . S
C175 H179 0.960 . S
C175 H180 0.960 . S
C175 H181 0.959 . S
H176 C172 0.960 1_556 S
H177 C172 0.961 . S
H178 C172 0.960 . S
H179 C175 0.960 . S
H180 C175 0.960 . S
H181 C175 0.959 . S
C182 N183 1.317 . S
C182 N184 1.348 . S
C182 C185 1.485 . S
N183 C182 1.317 . S
N183 N187 1.370 . S
N184 C182 1.348 . S
N184 C186 1.346 . S
C185 C182 1.485 . S
C185 H189 0.960 . S
C185 H190 0.961 . S
C185 H191 0.960 . S
C186 N184 1.346 . S
C186 N187 1.307 . S
C186 C188 1.486 . S
N187 N183 1.370 . S
N187 C186 1.307 . S
C188 C186 1.486 . S
C188 H192 0.960 . S
C188 H193 0.960 . S
C188 H194 0.959 . S
H189 C185 0.960 . S
H190 C185 0.961 . S
H191 C185 0.960 . S
H192 C188 0.960 . S
H193 C188 0.960 . S
H194 C188 0.959 . S
C195 N196 1.317 . S
C195 N197 1.348 . S
C195 C198 1.485 . S
N196 C195 1.317 . S
N196 N200 1.370 . S
N197 C195 1.348 . S
N197 C199 1.346 . S
C198 C195 1.485 . S
C198 H202 0.960 . S
C198 H203 0.961 . S
C198 H204 0.960 . S
C199 N197 1.346 . S
C199 N200 1.307 . S
C199 C201 1.486 . S
N200 N196 1.370 . S
N200 C199 1.307 . S
C201 C199 1.486 . S
C201 H205 0.960 . S
C201 H206 0.960 . S
C201 H207 0.959 . S
H202 C198 0.960 . S
H203 C198 0.961 . S
H204 C198 0.960 . S
H205 C201 0.960 . S
H206 C201 0.960 . S
H207 C201 0.959 . S
C208 N209 1.317 . S
C208 N210 1.348 . S
C208 C211 1.485 . S
N209 C208 1.317 . S
N209 N213 1.370 . S
N210 C208 1.348 . S
N210 C212 1.346 . S
C211 C208 1.485 . S
C211 H215 0.960 . S
C211 H216 0.961 . S
C211 H217 0.960 . S
C212 N210 1.346 . S
C212 N213 1.307 . S
C212 C214 1.486 . S
N213 N209 1.370 . S
N213 C212 1.307 . S
C214 C212 1.486 . S
C214 H218 0.960 . S
C214 H219 0.960 . S
C214 H220 0.959 . S
H215 C211 0.960 . S
H216 C211 0.961 . S
H217 C211 0.960 . S
H218 C214 0.960 . S
H219 C214 0.960 . S
H220 C214 0.959 . S
C221 N222 1.317 . S
C221 N223 1.348 . S
C221 C224 1.485 . S
N222 C221 1.317 . S
N222 N226 1.370 . S
N223 C221 1.348 . S
N223 C225 1.346 . S
C224 C221 1.485 . S
C224 H228 0.960 . S
C224 H229 0.961 . S
C224 H230 0.960 . S
C225 N223 1.346 . S
C225 N226 1.307 . S
C225 C227 1.486 . S
N226 N222 1.370 . S
N226 C225 1.307 . S
C227 C225 1.486 . S
C227 H231 0.960 . S
C227 H232 0.960 . S
C227 H233 0.959 . S
H228 C224 0.960 . S
H229 C224 0.961 . S
H230 C224 0.960 . S
H231 C227 0.960 . S
H232 C227 0.960 . S
H233 C227 0.959 . S
C234 Eu235 2.835 1_565 S
C234 C236 1.500 . S
C234 O254 1.257 . S
C234 O255 1.260 1_565 S
Eu235 C234 2.835 1_545 S
Eu235 O254 2.473 1_545 S
Eu235 O255 2.480 . S
Eu235 O256 2.430 . S
Eu235 O257 2.650 1_554 S
Eu235 O258 2.394 1_545 S
Eu235 O263 2.355 1_545 S
Eu235 O265 2.374 . S
C236 C234 1.500 . S
C236 C237 1.377 . S
C236 C241 1.377 . S
C237 C236 1.377 . S
C237 C238 1.395 . S
C237 H266 0.931 1_565 S
C238 C237 1.395 . S
C238 C239 1.383 . S
C238 H267 0.931 . S
C239 C238 1.383 . S
C239 C240 1.394 . S
C240 C239 1.394 . S
C240 C241 1.378 . S
C240 H268 0.931 . S
C241 C236 1.377 . S
C241 C240 1.378 . S
C241 H269 0.931 . S
C242 O256 1.259 . S
C242 O257 1.259 1_554 S
C243 O258 1.251 . S
C243 O259 1.296 . S
C244 Eu245 2.835 1_545 S
C244 C246 1.500 . S
C244 O260 1.257 . S
C244 O261 1.260 1_545 S
Eu245 C244 2.835 1_565 S
Eu245 O257 2.369 1_565 S
Eu245 O259 2.346 1_556 S
Eu245 O260 2.473 1_565 S
Eu245 O261 2.480 . S
Eu245 O262 2.430 . S
Eu245 O263 2.670 1_556 S
Eu245 O264 2.394 1_565 S
C246 C244 1.500 . S
C246 C247 1.377 . S
C246 C251 1.377 . S
C247 C246 1.377 . S
C247 C248 1.395 . S
C247 H270 0.931 1_545 S
C248 C247 1.395 . S
C248 C249 1.383 . S
C248 H271 0.931 . S
C249 C248 1.383 . S
C249 C250 1.394 . S
C250 C249 1.394 . S
C250 C251 1.378 . S
C250 H272 0.931 . S
C251 C246 1.377 . S
C251 C250 1.378 . S
C251 H273 0.931 . S
C252 O262 1.259 1_554 S
C252 O263 1.270 . S
C253 O264 1.251 . S
C253 O265 1.251 1_556 S
O254 C234 1.257 . S
O254 Eu235 2.473 1_565 S
O255 C234 1.260 1_545 S
O255 Eu235 2.480 . S
O256 Eu235 2.430 . S
O256 C242 1.259 . S
O257 Eu235 2.650 1_556 S
O257 C242 1.259 1_556 S
O257 Eu245 2.369 1_545 S
O258 Eu235 2.394 1_565 S
O258 C243 1.251 . S
O259 C243 1.296 . S
O259 Eu245 2.346 1_554 S
O260 C244 1.257 . S
O260 Eu245 2.473 1_545 S
O261 C244 1.260 1_565 S
O261 Eu245 2.480 . S
O262 Eu245 2.430 . S
O262 C252 1.259 1_556 S
O263 Eu235 2.355 1_565 S
O263 Eu245 2.670 1_554 S
O263 C252 1.270 . S
O264 Eu245 2.394 1_545 S
O264 C253 1.251 . S
O265 Eu235 2.374 . S
O265 C253 1.251 1_554 S
H266 C237 0.931 1_545 S
H267 C238 0.931 . S
H268 C240 0.931 . S
H269 C241 0.931 . S
H270 C247 0.931 1_565 S
H271 C248 0.931 . S
H272 C250 0.931 . S
H273 C251 0.931 . S
C274 Eu275 2.835 1_455 S
C274 C276 1.500 . S
C274 O294 1.257 . S
C274 O295 1.260 1_455 S
Eu275 C274 2.835 1_655 S
Eu275 O294 2.473 1_655 S
Eu275 O295 2.480 . S
Eu275 O296 2.430 . S
Eu275 O297 2.670 1_554 S
Eu275 O298 2.394 1_655 S
Eu275 O303 2.355 1_655 S
Eu275 O305 2.374 . S
C276 C274 1.500 . S
C276 C277 1.377 . S
C276 C281 1.377 . S
C277 C276 1.377 . S
C277 C278 1.395 . S
C277 H306 0.931 1_455 S
C278 C277 1.395 . S
C278 C279 1.383 . S
C278 H307 0.931 1_455 S
C279 C278 1.383 . S
C279 C280 1.394 . S
C280 C279 1.394 . S
C280 C281 1.378 . S
C280 H308 0.931 . S
C281 C276 1.377 . S
C281 C280 1.378 . S
C281 H309 0.931 . S
C282 O296 1.259 . S
C282 O297 1.270 1_554 S
C283 O298 1.251 . S
C283 O299 1.251 . S
C284 Eu285 2.835 . S
C284 C286 1.500 1_455 S
C284 O300 1.257 1_455 S
C284 O301 1.260 . S
Eu285 C284 2.835 . S
Eu285 O297 2.355 1_455 S
Eu285 O299 2.374 1_556 S
Eu285 O300 2.473 1_455 S
Eu285 O301 2.480 . S
Eu285 O302 2.430 . S
Eu285 O303 2.670 1_556 S
Eu285 O304 2.394 1_455 S
C286 C284 1.500 1_655 S
C286 C287 1.377 1_655 S
C286 C291 1.377 . S
C287 C286 1.377 1_455 S
C287 C288 1.395 . S
C287 H310 0.931 . S
C288 C287 1.395 . S
C288 C289 1.383 1_455 S
C288 H311 0.931 . S
C289 C288 1.383 1_655 S
C289 C290 1.394 . S
C290 C289 1.394 . S
C290 C291 1.378 . S
C290 H312 0.931 . S
C291 C286 1.377 . S
C291 C290 1.378 . S
C291 H313 0.931 . S
C292 O302 1.259 1_554 S
C292 O303 1.270 . S
C293 O304 1.251 . S
C293 O305 1.251 1_556 S
O294 C274 1.257 . S
O294 Eu275 2.473 1_455 S
O295 C274 1.260 1_655 S
O295 Eu275 2.480 . S
O296 Eu275 2.430 . S
O296 C282 1.259 . S
O297 Eu275 2.670 1_556 S
O297 C282 1.270 1_556 S
O297 Eu285 2.355 1_655 S
O298 Eu275 2.394 1_455 S
O298 C283 1.251 . S
O299 C283 1.251 . S
O299 Eu285 2.374 1_554 S
O300 C284 1.257 1_655 S
O300 Eu285 2.473 1_655 S
O301 C284 1.260 . S
O301 Eu285 2.480 . S
O302 Eu285 2.430 . S
O302 C292 1.259 1_556 S
O303 Eu275 2.355 1_455 S
O303 Eu285 2.670 1_554 S
O303 C292 1.270 . S
O304 Eu285 2.394 1_655 S
O304 C293 1.251 . S
O305 Eu275 2.374 . S
O305 C293 1.251 1_554 S
H306 C277 0.931 1_655 S
H307 C278 0.931 1_655 S
H308 C280 0.931 . S
H309 C281 0.931 . S
H310 C287 0.931 . S
H311 C288 0.931 . S
H312 C290 0.931 . S
H313 C291 0.931 . S
C314 Eu315 2.835 . S
C314 C316 1.500 . S
C314 O334 1.257 . S
C314 O335 1.260 . S
Eu315 C314 2.835 . S
Eu315 O334 2.473 . S
Eu315 O335 2.480 . S
Eu315 O336 2.430 . S
Eu315 O337 2.670 1_556 S
Eu315 O338 2.394 . S
Eu315 O343 2.355 1_556 S
Eu315 O345 2.374 1_556 S
C316 C314 1.500 . S
C316 C317 1.377 . S
C316 C321 1.377 . S
C317 C316 1.377 . S
C317 C318 1.395 . S
C317 H346 0.931 . S
C318 C317 1.395 . S
C318 C319 1.383 . S
C318 H347 0.931 . S
C319 C318 1.383 . S
C319 C320 1.394 . S
C320 C319 1.394 . S
C320 C321 1.378 . S
C320 H348 0.931 . S
C321 C316 1.377 . S
C321 C320 1.378 . S
C321 H349 0.931 . S
C322 O336 1.259 1_554 S
C322 O337 1.270 . S
C323 O338 1.251 . S
C323 O339 1.251 1_556 S
C324 Eu325 2.835 . S
C324 C326 1.500 . S
C324 O340 1.257 . S
C324 O341 1.260 . S
Eu325 C324 2.835 . S
Eu325 O337 2.355 . S
Eu325 O339 2.374 . S
Eu325 O340 2.473 . S
Eu325 O341 2.480 . S
Eu325 O342 2.430 . S
Eu325 O343 2.670 . S
Eu325 O344 2.394 . S
C326 C324 1.500 . S
C326 C327 1.377 . S
C326 C331 1.377 . S
C327 C326 1.377 . S
C327 C328 1.395 . S
C327 H350 0.931 . S
C328 C327 1.395 . S
C328 C329 1.383 . S
C328 H351 0.931 . S
C329 C328 1.383 . S
C329 C330 1.394 . S
C330 C329 1.394 . S
C330 C331 1.378 . S
C330 H352 0.931 . S
C331 C326 1.377 . S
C331 C330 1.378 . S
C331 H353 0.931 . S
C332 O342 1.259 . S
C332 O343 1.270 . S
C333 O344 1.251 . S
C333 O345 1.251 . S
O334 C314 1.257 . S
O334 Eu315 2.473 . S
O335 C314 1.260 . S
O335 Eu315 2.480 . S
O336 Eu315 2.430 . S
O336 C322 1.259 1_556 S
O337 Eu315 2.670 1_554 S
O337 C322 1.270 . S
O337 Eu325 2.355 . S
O338 Eu315 2.394 . S
O338 C323 1.251 . S
O339 C323 1.251 1_554 S
O339 Eu325 2.374 . S
O340 C324 1.257 . S
O340 Eu325 2.473 . S
O341 C324 1.260 . S
O341 Eu325 2.480 . S
O342 Eu325 2.430 . S
O342 C332 1.259 . S
O343 Eu315 2.355 1_554 S
O343 Eu325 2.670 . S
O343 C332 1.270 . S
O344 Eu325 2.394 . S
O344 C333 1.251 . S
O345 Eu315 2.374 1_554 S
O345 C333 1.251 . S
H346 C317 0.931 . S
H347 C318 0.931 . S
H348 C320 0.931 . S
H349 C321 0.931 . S
H350 C327 0.931 . S
H351 C328 0.931 . S
H352 C330 0.931 . S
H353 C331 0.931 . S
C354 Eu355 2.835 . S
C354 C356 1.500 . S
C354 O374 1.257 . S
C354 O375 1.260 . S
Eu355 C354 2.835 . S
Eu355 O374 2.473 . S
Eu355 O375 2.480 . S
Eu355 O376 2.430 . S
Eu355 O377 2.670 . S
Eu355 O378 2.394 . S
Eu355 O383 2.355 . S
Eu355 O385 2.374 . S
C356 C354 1.500 . S
C356 C357 1.377 . S
C356 C361 1.377 . S
C357 C356 1.377 . S
C357 C358 1.395 . S
C357 H386 0.931 . S
C358 C357 1.395 . S
C358 C359 1.383 . S
C358 H387 0.931 . S
C359 C358 1.383 . S
C359 C360 1.394 . S
C360 C359 1.394 . S
C360 C361 1.378 . S
C360 H388 0.931 . S
C361 C356 1.377 . S
C361 C360 1.378 . S
C361 H389 0.931 . S
C362 O376 1.259 . S
C362 O377 1.270 . S
C363 O378 1.251 . S
C363 O379 1.251 . S
C364 Eu365 2.835 . S
C364 C366 1.500 . S
C364 O380 1.257 . S
C364 O381 1.260 . S
Eu365 C364 2.835 . S
Eu365 O377 2.355 . S
Eu365 O379 2.374 . S
Eu365 O380 2.473 . S
Eu365 O381 2.480 . S
Eu365 O382 2.430 . S
Eu365 O383 2.670 . S
Eu365 O384 2.394 . S
C366 C364 1.500 . S
C366 C367 1.377 . S
C366 C371 1.377 . S
C367 C366 1.377 . S
C367 C368 1.395 . S
C367 H390 0.931 . S
C368 C367 1.395 . S
C368 C369 1.383 . S
C368 H391 0.931 . S
C369 C368 1.383 . S
C369 C370 1.394 . S
C370 C369 1.394 . S
C370 C371 1.378 . S
C370 H392 0.931 . S
C371 C366 1.377 . S
C371 C370 1.378 . S
C371 H393 0.931 . S
C372 O382 1.259 . S
C372 O383 1.270 . S
C373 O384 1.251 . S
C373 O385 1.251 . S
O374 C354 1.257 . S
O374 Eu355 2.473 . S
O375 C354 1.260 . S
O375 Eu355 2.480 . S
O376 Eu355 2.430 . S
O376 C362 1.259 . S
O377 Eu355 2.670 . S
O377 C362 1.270 . S
O377 Eu365 2.355 . S
O378 Eu355 2.394 . S
O378 C363 1.251 . S
O379 C363 1.251 . S
O379 Eu365 2.374 . S
O380 C364 1.257 . S
O380 Eu365 2.473 . S
O381 C364 1.260 . S
O381 Eu365 2.480 . S
O382 Eu365 2.430 . S
O382 C372 1.259 . S
O383 Eu355 2.355 . S
O383 Eu365 2.670 . S
O383 C372 1.270 . S
O384 Eu365 2.394 . S
O384 C373 1.251 . S
O385 Eu355 2.374 . S
O385 C373 1.251 . S
H386 C357 0.931 . S
H387 C358 0.931 . S
H388 C360 0.931 . S
H389 C361 0.931 . S
H390 C367 0.931 . S
H391 C368 0.931 . S
H392 C370 0.931 . S
H393 C371 0.931 . S
C394 Eu395 2.835 . S
C394 C396 1.500 . S
C394 O414 1.257 . S
C394 O415 1.260 . S
Eu395 C394 2.835 . S
Eu395 O414 2.473 . S
Eu395 O415 2.480 . S
Eu395 O416 2.430 . S
Eu395 O417 2.670 . S
Eu395 O418 2.394 . S
Eu395 O423 2.355 . S
Eu395 O425 2.374 . S
C396 C394 1.500 . S
C396 C397 1.377 . S
C396 C401 1.377 . S
C397 C396 1.377 . S
C397 C398 1.395 . S
C397 H426 0.931 . S
C398 C397 1.395 . S
C398 C399 1.383 . S
C398 H427 0.931 . S
C399 C398 1.383 . S
C399 C400 1.394 . S
C400 C399 1.394 . S
C400 C401 1.378 . S
C400 H428 0.931 . S
C401 C396 1.377 . S
C401 C400 1.378 . S
C401 H429 0.931 . S
C402 O416 1.259 . S
C402 O417 1.270 . S
C403 O418 1.251 . S
C403 O419 1.251 . S
C404 Eu405 2.835 . S
C404 C406 1.500 . S
C404 O420 1.257 . S
C404 O421 1.260 . S
Eu405 C404 2.835 . S
Eu405 O417 2.355 . S
Eu405 O419 2.374 . S
Eu405 O420 2.473 . S
Eu405 O421 2.480 . S
Eu405 O422 2.430 . S
Eu405 O423 2.670 . S
Eu405 O424 2.394 . S
C406 C404 1.500 . S
C406 C407 1.377 . S
C406 C411 1.377 . S
C407 C406 1.377 . S
C407 C408 1.395 . S
C407 H430 0.931 . S
C408 C407 1.395 . S
C408 C409 1.383 . S
C408 H431 0.931 . S
C409 C408 1.383 . S
C409 C410 1.394 . S
C410 C409 1.394 . S
C410 C411 1.378 . S
C410 H432 0.931 . S
C411 C406 1.377 . S
C411 C410 1.378 . S
C411 H433 0.931 . S
C412 O422 1.259 . S
C412 O423 1.270 . S
C413 O424 1.251 . S
C413 O425 1.251 . S
O414 C394 1.257 . S
O414 Eu395 2.473 . S
O415 C394 1.260 . S
O415 Eu395 2.480 . S
O416 Eu395 2.430 . S
O416 C402 1.259 . S
O417 Eu395 2.670 . S
O417 C402 1.270 . S
O417 Eu405 2.355 . S
O418 Eu395 2.394 . S
O418 C403 1.251 . S
O419 C403 1.251 . S
O419 Eu405 2.374 . S
O420 C404 1.257 . S
O420 Eu405 2.473 . S
O421 C404 1.260 . S
O421 Eu405 2.480 . S
O422 Eu405 2.430 . S
O422 C412 1.259 . S
O423 Eu395 2.355 . S
O423 Eu405 2.670 . S
O423 C412 1.270 . S
O424 Eu405 2.394 . S
O424 C413 1.251 . S
O425 Eu395 2.374 . S
O425 C413 1.251 . S
H426 C397 0.931 . S
H427 C398 0.931 . S
H428 C400 0.931 . S
H429 C401 0.931 . S
H430 C407 0.931 . S
H431 C408 0.931 . S
H432 C410 0.931 . S
H433 C411 0.931 . S
C434 Eu435 2.835 . S
C434 C436 1.500 . S
C434 O454 1.257 . S
C434 O455 1.260 . S
Eu435 C434 2.835 . S
Eu435 O454 2.473 . S
Eu435 O455 2.480 . S
Eu435 O456 2.430 . S
Eu435 O457 2.670 . S
Eu435 O458 2.394 . S
Eu435 O463 2.355 . S
Eu435 O465 2.374 . S
C436 C434 1.500 . S
C436 C437 1.377 . S
C436 C441 1.377 . S
C437 C436 1.377 . S
C437 C438 1.395 . S
C437 H466 0.931 . S
C438 C437 1.395 . S
C438 C439 1.383 . S
C438 H467 0.931 . S
C439 C438 1.383 . S
C439 C440 1.394 . S
C440 C439 1.394 . S
C440 C441 1.378 . S
C440 H468 0.931 . S
C441 C436 1.377 . S
C441 C440 1.378 . S
C441 H469 0.931 . S
C442 O456 1.259 . S
C442 O457 1.270 . S
C443 O458 1.251 . S
C443 O459 1.251 . S
C444 Eu445 2.835 . S
C444 C446 1.500 . S
C444 O460 1.257 . S
C444 O461 1.260 . S
Eu445 C444 2.835 . S
Eu445 O457 2.355 . S
Eu445 O459 2.374 . S
Eu445 O460 2.473 . S
Eu445 O461 2.480 . S
Eu445 O462 2.430 . S
Eu445 O463 2.670 . S
Eu445 O464 2.394 . S
C446 C444 1.500 . S
C446 C447 1.377 . S
C446 C451 1.377 . S
C447 C446 1.377 . S
C447 C448 1.395 . S
C447 H470 0.931 . S
C448 C447 1.395 . S
C448 C449 1.383 . S
C448 H471 0.931 . S
C449 C448 1.383 . S
C449 C450 1.394 . S
C450 C449 1.394 . S
C450 C451 1.378 . S
C450 H472 0.931 . S
C451 C446 1.377 . S
C451 C450 1.378 . S
C451 H473 0.931 . S
C452 O462 1.259 . S
C452 O463 1.270 . S
C453 O464 1.251 . S
C453 O465 1.251 . S
O454 C434 1.257 . S
O454 Eu435 2.473 . S
O455 C434 1.260 . S
O455 Eu435 2.480 . S
O456 Eu435 2.430 . S
O456 C442 1.259 . S
O457 Eu435 2.670 . S
O457 C442 1.270 . S
O457 Eu445 2.355 . S
O458 Eu435 2.394 . S
O458 C443 1.251 . S
O459 C443 1.251 . S
O459 Eu445 2.374 . S
O460 C444 1.257 . S
O460 Eu445 2.473 . S
O461 C444 1.260 . S
O461 Eu445 2.480 . S
O462 Eu445 2.430 . S
O462 C452 1.259 . S
O463 Eu435 2.355 . S
O463 Eu445 2.670 . S
O463 C452 1.270 . S
O464 Eu445 2.394 . S
O464 C453 1.251 . S
O465 Eu435 2.374 . S
O465 C453 1.251 . S
H466 C437 0.931 . S
H467 C438 0.931 . S
H468 C440 0.931 . S
H469 C441 0.931 . S
H470 C447 0.931 . S
H471 C448 0.931 . S
H472 C450 0.931 . S
H473 C451 0.931 . S
C474 Eu475 2.835 . S
C474 C476 1.500 . S
C474 O494 1.257 . S
C474 O495 1.260 . S
Eu475 C474 2.835 . S
Eu475 O494 2.473 . S
Eu475 O495 2.480 . S
Eu475 O496 2.430 . S
Eu475 O497 2.670 . S
Eu475 O498 2.394 . S
Eu475 O503 2.355 . S
Eu475 O505 2.374 . S
C476 C474 1.500 . S
C476 C477 1.377 . S
C476 C481 1.377 . S
C477 C476 1.377 . S
C477 C478 1.395 . S
C477 H506 0.931 . S
C478 C477 1.395 . S
C478 C479 1.383 . S
C478 H507 0.931 . S
C479 C478 1.383 . S
C479 C480 1.394 . S
C480 C479 1.394 . S
C480 C481 1.378 . S
C480 H508 0.931 . S
C481 C476 1.377 . S
C481 C480 1.378 . S
C481 H509 0.931 . S
C482 O496 1.259 . S
C482 O497 1.270 . S
C483 O498 1.251 . S
C483 O499 1.251 . S
C484 Eu485 2.835 . S
C484 C486 1.500 . S
C484 O500 1.257 . S
C484 O501 1.260 . S
Eu485 C484 2.835 . S
Eu485 O497 2.355 . S
Eu485 O499 2.374 . S
Eu485 O500 2.473 . S
Eu485 O501 2.480 . S
Eu485 O502 2.430 . S
Eu485 O503 2.670 . S
Eu485 O504 2.394 . S
C486 C484 1.500 . S
C486 C487 1.377 . S
C486 C491 1.377 . S
C487 C486 1.377 . S
C487 C488 1.395 . S
C487 H510 0.931 . S
C488 C487 1.395 . S
C488 C489 1.383 . S
C488 H511 0.931 . S
C489 C488 1.383 . S
C489 C490 1.394 . S
C490 C489 1.394 . S
C490 C491 1.378 . S
C490 H512 0.931 . S
C491 C486 1.377 . S
C491 C490 1.378 . S
C491 H513 0.931 . S
C492 O502 1.259 . S
C492 O503 1.270 . S
C493 O504 1.251 . S
C493 O505 1.251 . S
O494 C474 1.257 . S
O494 Eu475 2.473 . S
O495 C474 1.260 . S
O495 Eu475 2.480 . S
O496 Eu475 2.430 . S
O496 C482 1.259 . S
O497 Eu475 2.670 . S
O497 C482 1.270 . S
O497 Eu485 2.355 . S
O498 Eu475 2.394 . S
O498 C483 1.251 . S
O499 C483 1.251 . S
O499 Eu485 2.374 . S
O500 C484 1.257 . S
O500 Eu485 2.473 . S
O501 C484 1.260 . S
O501 Eu485 2.480 . S
O502 Eu485 2.430 . S
O502 C492 1.259 . S
O503 Eu475 2.355 . S
O503 Eu485 2.670 . S
O503 C492 1.270 . S
O504 Eu485 2.394 . S
O504 C493 1.251 . S
O505 Eu475 2.374 . S
O505 C493 1.251 . S
H506 C477 0.931 . S
H507 C478 0.931 . S
H508 C480 0.931 . S
H509 C481 0.931 . S
H510 C487 0.931 . S
H511 C488 0.931 . S
H512 C490 0.931 . S
H513 C491 0.931 . S
C514 Eu515 2.835 . S
C514 C516 1.500 . S
C514 O534 1.257 . S
C514 O535 1.260 . S
Eu515 C514 2.835 . S
Eu515 O534 2.473 . S
Eu515 O535 2.480 . S
Eu515 O536 2.430 . S
Eu515 O537 2.670 . S
Eu515 O538 2.394 . S
Eu515 O543 2.355 . S
Eu515 O545 2.374 . S
C516 C514 1.500 . S
C516 C517 1.377 . S
C516 C521 1.377 . S
C517 C516 1.377 . S
C517 C518 1.395 . S
C517 H546 0.931 . S
C518 C517 1.395 . S
C518 C519 1.383 . S
C518 H547 0.931 . S
C519 C518 1.383 . S
C519 C520 1.394 . S
C520 C519 1.394 . S
C520 C521 1.378 . S
C520 H548 0.931 . S
C521 C516 1.377 . S
C521 C520 1.378 . S
C521 H549 0.931 . S
C522 O536 1.259 . S
C522 O537 1.270 . S
C523 O538 1.251 . S
C523 O539 1.251 . S
C524 Eu525 2.835 . S
C524 C526 1.500 . S
C524 O540 1.257 . S
C524 O541 1.260 . S
Eu525 C524 2.835 . S
Eu525 O537 2.355 . S
Eu525 O539 2.374 . S
Eu525 O540 2.473 . S
Eu525 O541 2.480 . S
Eu525 O542 2.430 . S
Eu525 O543 2.670 . S
Eu525 O544 2.394 . S
C526 C524 1.500 . S
C526 C527 1.377 . S
C526 C531 1.377 . S
C527 C526 1.377 . S
C527 C528 1.395 . S
C527 H550 0.931 . S
C528 C527 1.395 . S
C528 C529 1.383 . S
C528 H551 0.931 . S
C529 C528 1.383 . S
C529 C530 1.394 . S
C530 C529 1.394 . S
C530 C531 1.378 . S
C530 H552 0.931 . S
C531 C526 1.377 . S
C531 C530 1.378 . S
C531 H553 0.931 . S
C532 O542 1.259 . S
C532 O543 1.270 . S
C533 O544 1.251 . S
C533 O545 1.251 . S
O534 C514 1.257 . S
O534 Eu515 2.473 . S
O535 C514 1.260 . S
O535 Eu515 2.480 . S
O536 Eu515 2.430 . S
O536 C522 1.259 . S
O537 Eu515 2.670 . S
O537 C522 1.270 . S
O537 Eu525 2.355 . S
O538 Eu515 2.394 . S
O538 C523 1.251 . S
O539 C523 1.251 . S
O539 Eu525 2.374 . S
O540 C524 1.257 . S
O540 Eu525 2.473 . S
O541 C524 1.260 . S
O541 Eu525 2.480 . S
O542 Eu525 2.430 . S
O542 C532 1.259 . S
O543 Eu515 2.355 . S
O543 Eu525 2.670 . S
O543 C532 1.270 . S
O544 Eu525 2.394 . S
O544 C533 1.251 . S
O545 Eu515 2.374 . S
O545 C533 1.251 . S
H546 C517 0.931 . S
H547 C518 0.931 . S
H548 C520 0.931 . S
H549 C521 0.931 . S
H550 C527 0.931 . S
H551 C528 0.931 . S
H552 C530 0.931 . S
H553 C531 0.931 . S
C554 Eu555 2.835 . S
C554 C556 1.500 . S
C554 O574 1.257 . S
C554 O575 1.260 . S
Eu555 C554 2.835 . S
Eu555 O574 2.473 . S
Eu555 O575 2.480 . S
Eu555 O576 2.430 . S
Eu555 O577 2.670 . S
Eu555 O578 2.394 . S
Eu555 O583 2.355 . S
Eu555 O585 2.374 . S
C556 C554 1.500 . S
C556 C557 1.377 . S
C556 C561 1.377 . S
C557 C556 1.377 . S
C557 C558 1.395 . S
C557 H586 0.931 . S
C558 C557 1.395 . S
C558 C559 1.383 . S
C558 H587 0.931 . S
C559 C558 1.383 . S
C559 C560 1.394 . S
C560 C559 1.394 . S
C560 C561 1.378 . S
C560 H588 0.931 . S
C561 C556 1.377 . S
C561 C560 1.378 . S
C561 H589 0.931 . S
C562 O576 1.259 . S
C562 O577 1.270 . S
C563 O578 1.251 . S
C563 O579 1.251 . S
C564 Eu565 2.835 . S
C564 C566 1.500 . S
C564 O580 1.257 . S
C564 O581 1.260 . S
Eu565 C564 2.835 . S
Eu565 O577 2.355 . S
Eu565 O579 2.374 . S
Eu565 O580 2.473 . S
Eu565 O581 2.480 . S
Eu565 O582 2.430 . S
Eu565 O583 2.670 . S
Eu565 O584 2.394 . S
C566 C564 1.500 . S
C566 C567 1.377 . S
C566 C571 1.377 . S
C567 C566 1.377 . S
C567 C568 1.395 . S
C567 H590 0.931 . S
C568 C567 1.395 . S
C568 C569 1.383 . S
C568 H591 0.931 . S
C569 C568 1.383 . S
C569 C570 1.394 . S
C570 C569 1.394 . S
C570 C571 1.378 . S
C570 H592 0.931 . S
C571 C566 1.377 . S
C571 C570 1.378 . S
C571 H593 0.931 . S
C572 O582 1.259 . S
C572 O583 1.270 . S
C573 O584 1.251 . S
C573 O585 1.251 . S
O574 C554 1.257 . S
O574 Eu555 2.473 . S
O575 C554 1.260 . S
O575 Eu555 2.480 . S
O576 Eu555 2.430 . S
O576 C562 1.259 . S
O577 Eu555 2.670 . S
O577 C562 1.270 . S
O577 Eu565 2.355 . S
O578 Eu555 2.394 . S
O578 C563 1.251 . S
O579 C563 1.251 . S
O579 Eu565 2.374 . S
O580 C564 1.257 . S
O580 Eu565 2.473 . S
O581 C564 1.260 . S
O581 Eu565 2.480 . S
O582 Eu565 2.430 . S
O582 C572 1.259 . S
O583 Eu555 2.355 . S
O583 Eu565 2.670 . S
O583 C572 1.270 . S
O584 Eu565 2.394 . S
O584 C573 1.251 . S
O585 Eu555 2.374 . S
O585 C573 1.251 . S
H586 C557 0.931 . S
H587 C558 0.931 . S
H588 C560 0.931 . S
H589 C561 0.931 . S
H590 C567 0.931 . S
H591 C568 0.931 . S
H592 C570 0.931 . S
H593 C571 0.931 . S
C594 C595 1.387 . S
C594 H598 0.950 . S
C594 C603 1.390 . S
C595 C594 1.387 . S
C595 C597 1.387 . S
H596 C603 0.950 . S
C597 C595 1.387 . S
C597 C599 1.390 . S
C597 H601 0.950 . S
H598 C594 0.950 . S
C599 C597 1.390 . S
C599 C600 1.387 . S
C599 H602 0.952 . S
C600 C599 1.387 . S
C600 C603 1.387 . S
H601 C597 0.950 . S
H602 C599 0.952 . S
C603 C594 1.390 . S
C603 H596 0.950 . S
C603 C600 1.387 . S
C604 C605 1.387 . S
C604 H608 0.950 . S
C604 C613 1.390 . S
C605 C604 1.387 . S
C605 C607 1.387 . S
H606 C613 0.950 . S
C607 C605 1.387 . S
C607 C609 1.390 . S
C607 H611 0.950 . S
H608 C604 0.950 . S
C609 C607 1.390 . S
C609 C610 1.387 . S
C609 H612 0.950 . S
C610 C609 1.387 . S
C610 C613 1.387 . S
H611 C607 0.950 . S
H612 C609 0.950 . S
C613 C604 1.390 . S
C613 H606 0.950 . S
C613 C610 1.387 . S
C614 C615 1.387 . S
C614 H618 0.950 1_554 S
C614 C623 1.390 . S
C615 C614 1.387 . S
C615 C617 1.387 . S
H616 C623 0.950 1_556 S
C617 C615 1.387 . S
C617 C619 1.390 . S
C617 H621 0.950 . S
H618 C614 0.950 1_556 S
C619 C617 1.390 . S
C619 C620 1.387 . S
C619 H622 0.950 . S
C620 C619 1.387 . S
C620 C623 1.387 . S
H621 C617 0.950 . S
H622 C619 0.950 . S
C623 C614 1.390 . S
C623 H616 0.950 1_554 S
C623 C620 1.387 . S
C624 C625 1.387 . S
C624 H628 0.950 . S
C624 C633 1.390 . S
C625 C624 1.387 . S
C625 C627 1.387 . S
H626 C633 0.950 1_554 S
C627 C625 1.387 . S
C627 C629 1.390 . S
C627 H631 0.950 . S
H628 C624 0.950 . S
C629 C627 1.390 . S
C629 C630 1.387 . S
C629 H632 0.950 . S
C630 C629 1.387 . S
C630 C633 1.387 . S
H631 C627 0.950 . S
H632 C629 0.950 . S
C633 C624 1.390 . S
C633 H626 0.950 1_556 S
C633 C630 1.387 . S
C634 C635 1.387 . S
C634 H638 0.950 . S
C634 C643 1.390 . S
C635 C634 1.387 . S
C635 C637 1.387 . S
H636 C643 0.950 . S
C637 C635 1.387 . S
C637 C639 1.390 . S
C637 H641 0.950 . S
H638 C634 0.950 . S
C639 C637 1.390 . S
C639 C640 1.387 . S
C639 H642 0.950 . S
C640 C639 1.387 . S
C640 C643 1.387 . S
H641 C637 0.950 . S
H642 C639 0.950 . S
C643 C634 1.390 . S
C643 H636 0.950 . S
C643 C640 1.387 . S
C644 C645 1.387 1_554 S
C644 H648 0.950 . S
C644 C653 1.390 . S
C645 C644 1.387 1_556 S
C645 C647 1.387 . S
H646 C653 0.950 . S
C647 C645 1.387 . S
C647 C649 1.390 . S
C647 H651 0.950 . S
H648 C644 0.950 . S
C649 C647 1.390 . S
C649 C650 1.387 . S
C649 H652 0.950 . S
C650 C649 1.387 . S
C650 C653 1.387 1_556 S
H651 C647 0.950 . S
H652 C649 0.950 . S
C653 C644 1.390 . S
C653 H646 0.950 . S
C653 C650 1.387 1_554 S
C654 C655 1.387 . S
C654 H658 0.950 . S
C654 C663 1.390 . S
C655 C654 1.387 . S
C655 C657 1.387 1_556 S
H656 C663 0.950 . S
C657 C655 1.387 1_554 S
C657 C659 1.390 . S
C657 H661 0.950 . S
H658 C654 0.950 . S
C659 C657 1.390 . S
C659 C660 1.387 1_554 S
C659 H662 0.950 . S
C660 C659 1.387 1_556 S
C660 C663 1.387 . S
H661 C657 0.950 . S
H662 C659 0.950 . S
C663 C654 1.390 . S
C663 H656 0.950 . S
C663 C660 1.387 . S
C664 C665 1.387 . S
C664 H668 0.950 . S
C664 C673 1.390 . S
C665 C664 1.387 . S
C665 C667 1.387 . S
H666 C673 0.950 . S
C667 C665 1.387 . S
C667 C669 1.390 . S
C667 H671 0.950 . S
H668 C664 0.950 . S
C669 C667 1.390 . S
C669 C670 1.387 . S
C669 H672 0.950 . S
C670 C669 1.387 . S
C670 C673 1.387 . S
H671 C667 0.950 . S
H672 C669 0.950 . S
C673 C664 1.390 . S
C673 H666 0.950 . S
C673 C670 1.387 . S
C674 C675 1.387 . S
C674 H678 0.950 . S
C674 C683 1.390 . S
C675 C674 1.387 . S
C675 C677 1.387 1_556 S
H676 C683 0.950 . S
C677 C675 1.387 1_554 S
C677 C679 1.390 . S
C677 H681 0.950 . S
H678 C674 0.950 . S
C679 C677 1.390 . S
C679 C680 1.387 . S
C679 H682 0.950 . S
C680 C679 1.387 . S
C680 C683 1.387 1_554 S
H681 C677 0.950 . S
H682 C679 0.950 . S
C683 C674 1.390 . S
C683 H676 0.950 . S
C683 C680 1.387 1_556 S
C684 C685 1.387 . S
C684 H688 0.950 . S
C684 C693 1.390 . S
C685 C684 1.387 . S
C685 C687 1.387 . S
H686 C693 0.950 . S
C687 C685 1.387 . S
C687 C689 1.392 . S
C687 H691 0.950 1_554 S
H688 C684 0.950 . S
C689 C687 1.392 . S
C689 C690 1.390 . S
C689 H692 0.946 1_554 S
C690 C689 1.390 . S
C690 C693 1.387 . S
H691 C687 0.950 1_556 S
H692 C689 0.946 1_556 S
C693 C684 1.390 . S
C693 H686 0.950 . S
C693 C690 1.387 . S
C694 C695 1.387 . S
C694 H698 0.950 . S
C694 C703 1.390 . S
C695 C694 1.387 . S
C695 C697 1.387 . S
H696 C703 0.950 . S
C697 C695 1.387 . S
C697 C699 1.390 . S
C697 H701 0.950 . S
H698 C694 0.950 . S
C699 C697 1.390 . S
C699 C700 1.387 . S
C699 H702 0.950 . S
C700 C699 1.387 . S
C700 C703 1.387 . S
H701 C697 0.950 . S
H702 C699 0.950 . S
C703 C694 1.390 . S
C703 H696 0.950 . S
C703 C700 1.387 . S
C704 C705 1.387 . S
C704 H708 0.950 1_554 S
C704 C713 1.390 . S
C705 C704 1.387 . S
C705 C707 1.387 . S
H706 C713 0.950 1_556 S
C707 C705 1.387 . S
C707 C709 1.390 . S
C707 H711 0.950 . S
H708 C704 0.950 1_556 S
C709 C707 1.390 . S
C709 C710 1.387 . S
C709 H712 0.950 . S
C710 C709 1.387 . S
C710 C713 1.387 . S
H711 C707 0.950 . S
H712 C709 0.950 . S
C713 C704 1.390 . S
C713 H706 0.950 1_554 S
C713 C710 1.387 . S
C714 C715 1.387 . S
C714 H718 0.950 . S
C714 C723 1.390 1_655 S
C715 C714 1.387 . S
C715 C717 1.387 . S
H716 C723 0.950 . S
C717 C715 1.387 . S
C717 C719 1.390 1_655 S
C717 H721 0.950 . S
H718 C714 0.950 . S
C719 C717 1.390 1_455 S
C719 C720 1.387 . S
C719 H722 0.950 . S
C720 C719 1.387 . S
C720 C723 1.387 . S
H721 C717 0.950 . S
H722 C719 0.950 . S
C723 C714 1.390 1_455 S
C723 H716 0.950 . S
C723 C720 1.387 . S
C724 C725 1.387 . S
C724 H728 0.950 . S
C724 C733 1.390 . S
C725 C724 1.387 . S
C725 C727 1.387 . S
H726 C733 0.950 . S
C727 C725 1.387 . S
C727 C729 1.390 . S
C727 H731 0.950 . S
H728 C724 0.950 . S
C729 C727 1.390 . S
C729 C730 1.387 . S
C729 H732 0.950 . S
C730 C729 1.387 . S
C730 C733 1.387 . S
H731 C727 0.950 . S
H732 C729 0.950 . S
C733 C724 1.390 . S
C733 H726 0.950 . S
C733 C730 1.387 . S
C734 C735 1.387 . S
C734 H738 0.950 . S
C734 C743 1.390 1_545 S
C735 C734 1.387 . S
C735 C737 1.387 . S
H736 C743 0.950 . S
C737 C735 1.387 . S
C737 C739 1.390 1_545 S
C737 H741 0.950 . S
H738 C734 0.950 . S
C739 C737 1.390 1_565 S
C739 C740 1.387 . S
C739 H742 0.950 . S
C740 C739 1.387 . S
C740 C743 1.387 . S
H741 C737 0.950 . S
H742 C739 0.950 . S
C743 C734 1.390 1_565 S
C743 H736 0.950 . S
C743 C740 1.387 . S
C744 C745 1.387 . S
C744 H748 0.950 . S
C744 C753 1.390 . S
C745 C744 1.387 . S
C745 C747 1.387 . S
H746 C753 0.950 . S
C747 C745 1.387 . S
C747 C749 1.390 . S
C747 H751 0.950 . S
H748 C744 0.950 . S
C749 C747 1.390 . S
C749 C750 1.387 . S
C749 H752 0.950 . S
C750 C749 1.387 . S
C750 C753 1.387 . S
H751 C747 0.950 . S
H752 C749 0.950 . S
C753 C744 1.390 . S
C753 H746 0.950 . S
C753 C750 1.387 . S
C754 C755 1.387 . S
C754 H758 0.950 . S
C754 C763 1.390 . S
C755 C754 1.387 . S
C755 C757 1.387 . S
H756 C763 0.950 . S
C757 C755 1.387 . S
C757 C759 1.390 . S
C757 H761 0.950 . S
H758 C754 0.950 . S
C759 C757 1.390 . S
C759 C760 1.387 . S
C759 H762 0.950 . S
C760 C759 1.387 . S
C760 C763 1.387 . S
H761 C757 0.950 . S
H762 C759 0.950 . S
C763 C754 1.390 . S
C763 H756 0.950 . S
C763 C760 1.387 . S
C764 C765 1.387 . S
C764 H768 0.950 . S
C764 C773 1.390 . S
C765 C764 1.387 . S
C765 C767 1.387 . S
H766 C773 0.950 . S
C767 C765 1.387 . S
C767 C769 1.390 . S
C767 H771 0.950 . S
H768 C764 0.950 . S
C769 C767 1.390 . S
C769 C770 1.387 . S
C769 H772 0.950 . S
C770 C769 1.387 . S
C770 C773 1.387 . S
H771 C767 0.950 . S
H772 C769 0.950 . S
C773 C764 1.390 . S
C773 H766 0.950 . S
C773 C770 1.387 . S
C774 C775 1.387 . S
C774 H778 0.950 . S
C774 C783 1.390 . S
C775 C774 1.387 . S
C775 C777 1.387 . S
H776 C783 0.950 . S
C777 C775 1.387 . S
C777 C779 1.390 . S
C777 H781 0.950 . S
H778 C774 0.950 . S
C779 C777 1.390 . S
C779 C780 1.387 . S
C779 H782 0.950 . S
C780 C779 1.387 . S
C780 C783 1.387 . S
H781 C777 0.950 . S
H782 C779 0.950 . S
C783 C774 1.390 . S
C783 H776 0.950 . S
C783 C780 1.387 . S
C784 C785 1.387 . S
C784 H788 0.950 . S
C784 C793 1.390 . S
C785 C784 1.387 . S
C785 C787 1.387 . S
H786 C793 0.950 . S
C787 C785 1.387 . S
C787 C789 1.390 . S
C787 H791 0.950 . S
H788 C784 0.950 . S
C789 C787 1.390 . S
C789 C790 1.387 . S
C789 H792 0.950 . S
C790 C789 1.387 . S
C790 C793 1.387 . S
H791 C787 0.950 . S
H792 C789 0.950 . S
C793 C784 1.390 . S
C793 H786 0.950 . S
C793 C790 1.387 . S
C794 C795 1.387 . S
C794 H798 0.950 . S
C794 C803 1.390 . S
C795 C794 1.387 . S
C795 C797 1.387 . S
H796 C803 0.950 . S
C797 C795 1.387 . S
C797 C799 1.390 . S
C797 H801 0.950 . S
H798 C794 0.950 . S
C799 C797 1.390 . S
C799 C800 1.387 . S
C799 H802 0.950 . S
C800 C799 1.387 . S
C800 C803 1.387 . S
H801 C797 0.950 . S
H802 C799 0.950 . S
C803 C794 1.390 . S
C803 H796 0.950 . S
C803 C800 1.387 . S
C804 C805 1.387 . S
C804 H808 0.950 . S
C804 C813 1.390 1_545 S
C805 C804 1.387 . S
C805 C807 1.387 . S
H806 C813 0.950 . S
C807 C805 1.387 . S
C807 C809 1.390 1_545 S
C807 H811 0.950 . S
H808 C804 0.950 . S
C809 C807 1.390 1_565 S
C809 C810 1.387 . S
C809 H812 0.950 . S
C810 C809 1.387 . S
C810 C813 1.387 . S
H811 C807 0.950 . S
H812 C809 0.950 . S
C813 C804 1.390 1_565 S
C813 H806 0.950 . S
C813 C810 1.387 . S
C814 C815 1.387 . S
C814 H818 0.950 . S
C814 C823 1.390 1_655 S
C815 C814 1.387 . S
C815 C817 1.387 . S
H816 C823 0.950 . S
C817 C815 1.387 . S
C817 C819 1.390 1_655 S
C817 H821 0.950 . S
H818 C814 0.950 . S
C819 C817 1.390 1_455 S
C819 C820 1.387 . S
C819 H822 0.950 . S
C820 C819 1.387 . S
C820 C823 1.387 . S
H821 C817 0.950 . S
H822 C819 0.950 . S
C823 C814 1.390 1_455 S
C823 H816 0.950 . S
C823 C820 1.387 . S
C824 C825 1.387 . S
C824 H828 0.950 . S
C824 C833 1.390 . S
C825 C824 1.387 . S
C825 C827 1.387 . S
H826 C833 0.950 . S
C827 C825 1.387 . S
C827 C829 1.390 . S
C827 H831 0.950 . S
H828 C824 0.950 . S
C829 C827 1.390 . S
C829 C830 1.387 . S
C829 H832 0.950 . S
C830 C829 1.387 . S
C830 C833 1.387 . S
H831 C827 0.950 . S
H832 C829 0.950 . S
C833 C824 1.390 . S
C833 H826 0.950 . S
C833 C830 1.387 . S
C834 C835 1.387 . S
C834 H838 0.950 . S
C834 C843 1.390 . S
C835 C834 1.387 . S
C835 C837 1.387 . S
H836 C843 0.950 . S
C837 C835 1.387 . S
C837 C839 1.390 . S
C837 H841 0.950 . S
H838 C834 0.950 . S
C839 C837 1.390 . S
C839 C840 1.387 . S
C839 H842 0.950 . S
C840 C839 1.387 . S
C840 C843 1.387 . S
H841 C837 0.950 . S
H842 C839 0.950 . S
C843 C834 1.390 . S
C843 H836 0.950 . S
C843 C840 1.387 . S
C844 C845 1.387 . S
C844 H848 0.950 . S
C844 C853 1.390 . S
C845 C844 1.387 . S
C845 C847 1.387 . S
H846 C853 0.950 . S
C847 C845 1.387 . S
C847 C849 1.390 . S
C847 H851 0.950 . S
H848 C844 0.950 . S
C849 C847 1.390 . S
C849 C850 1.387 . S
C849 H852 0.950 . S
C850 C849 1.387 . S
C850 C853 1.387 . S
H851 C847 0.950 . S
H852 C849 0.950 . S
C853 C844 1.390 . S
C853 H846 0.950 . S
C853 C850 1.387 . S
C854 C855 1.387 . S
C854 H858 0.950 . S
C854 C863 1.390 . S
C855 C854 1.387 . S
C855 C857 1.387 . S
H856 C863 0.950 . S
C857 C855 1.387 . S
C857 C859 1.390 . S
C857 H861 0.950 . S
H858 C854 0.950 . S
C859 C857 1.390 . S
C859 C860 1.387 . S
C859 H862 0.950 . S
C860 C859 1.387 . S
C860 C863 1.387 . S
H861 C857 0.950 . S
H862 C859 0.950 . S
C863 C854 1.390 . S
C863 H856 0.950 . S
C863 C860 1.387 . S
C864 C865 1.387 . S
C864 H868 0.950 . S
C864 C873 1.390 1_565 S
C865 C864 1.387 . S
C865 C867 1.387 . S
H866 C873 0.950 . S
C867 C865 1.387 . S
C867 C869 1.390 1_565 S
C867 H871 0.950 . S
H868 C864 0.950 . S
C869 C867 1.390 1_545 S
C869 C870 1.387 . S
C869 H872 0.950 . S
C870 C869 1.387 . S
C870 C873 1.387 . S
H871 C867 0.950 . S
H872 C869 0.950 . S
C873 C864 1.390 1_545 S
C873 H866 0.950 . S
C873 C870 1.387 . S
C874 C875 1.387 1_655 S
C874 H878 0.950 . S
C874 C883 1.390 . S
C875 C874 1.387 1_455 S
C875 C877 1.387 . S
H876 C883 0.950 . S
C877 C875 1.387 . S
C877 C879 1.390 1_455 S
C877 H881 0.950 . S
H878 C874 0.950 . S
C879 C877 1.390 1_655 S
C879 C880 1.387 . S
C879 H882 0.950 . S
C880 C879 1.387 . S
C880 C883 1.387 . S
H881 C877 0.950 . S
H882 C879 0.950 . S
C883 C874 1.390 . S
C883 H876 0.950 . S
C883 C880 1.387 . S
C884 C885 1.387 . S
C884 H888 0.950 . S
C884 C893 1.390 . S
C885 C884 1.387 . S
C885 C887 1.387 . S
H886 C893 0.950 . S
C887 C885 1.387 . S
C887 C889 1.390 . S
C887 H891 0.950 . S
H888 C884 0.950 . S
C889 C887 1.390 . S
C889 C890 1.387 . S
C889 H892 0.950 . S
C890 C889 1.387 . S
C890 C893 1.387 . S
H891 C887 0.950 . S
H892 C889 0.950 . S
C893 C884 1.390 . S
C893 H886 0.950 . S
C893 C890 1.387 . S
C894 C895 1.387 . S
C894 H898 0.950 . S
C894 C903 1.390 . S
C895 C894 1.387 . S
C895 C897 1.387 . S
H896 C903 0.950 1_655 S
C897 C895 1.387 . S
C897 C899 1.390 . S
C897 H901 0.950 . S
H898 C894 0.950 . S
C899 C897 1.390 . S
C899 C900 1.387 1_455 S
C899 H902 0.950 . S
C900 C899 1.387 1_655 S
C900 C903 1.387 1_655 S
H901 C897 0.950 . S
H902 C899 0.950 . S
C903 C894 1.390 . S
C903 H896 0.950 1_455 S
C903 C900 1.387 1_455 S
C904 C905 1.387 . S
C904 H908 0.950 . S
C904 C913 1.390 . S
C905 C904 1.387 . S
C905 C907 1.387 . S
H906 C913 0.950 . S
C907 C905 1.387 . S
C907 C909 1.390 . S
C907 H911 0.950 . S
H908 C904 0.950 . S
C909 C907 1.390 . S
C909 C910 1.387 . S
C909 H912 0.950 . S
C910 C909 1.387 . S
C910 C913 1.387 . S
H911 C907 0.950 . S
H912 C909 0.950 . S
C913 C904 1.390 . S
C913 H906 0.950 . S
C913 C910 1.387 . S
C914 C915 1.387 . S
C914 H918 0.950 . S
C914 C923 1.390 1_565 S
C915 C914 1.387 . S
C915 C917 1.387 . S
H916 C923 0.950 . S
C917 C915 1.387 . S
C917 C919 1.390 1_565 S
C917 H921 0.950 . S
H918 C914 0.950 . S
C919 C917 1.390 1_545 S
C919 C920 1.387 . S
C919 H922 0.950 . S
C920 C919 1.387 . S
C920 C923 1.387 . S
H921 C917 0.950 . S
H922 C919 0.950 . S
C923 C914 1.390 1_545 S
C923 H916 0.950 . S
C923 C920 1.387 . S
C924 C925 1.387 . S
C924 H928 0.950 . S
C924 C933 1.390 . S
C925 C924 1.387 . S
C925 C927 1.387 . S
H926 C933 0.950 . S
C927 C925 1.387 . S
C927 C929 1.390 . S
C927 H931 0.950 . S
H928 C924 0.950 . S
C929 C927 1.390 . S
C929 C930 1.387 . S
C929 H932 0.950 . S
C930 C929 1.387 . S
C930 C933 1.387 . S
H931 C927 0.950 . S
H932 C929 0.950 . S
C933 C924 1.390 . S
C933 H926 0.950 . S
C933 C930 1.387 . S
C934 C935 1.387 . S
C934 H938 0.950 . S
C934 C943 1.390 . S
C935 C934 1.387 . S
C935 C937 1.387 . S
H936 C943 0.950 . S
C937 C935 1.387 . S
C937 C939 1.390 . S
C937 H941 0.950 . S
H938 C934 0.950 . S
C939 C937 1.390 . S
C939 C940 1.387 . S
C939 H942 0.950 . S
C940 C939 1.387 . S
C940 C943 1.387 . S
H941 C937 0.950 . S
H942 C939 0.950 . S
C943 C934 1.390 . S
C943 H936 0.950 . S
C943 C940 1.387 . S
C944 C945 1.387 . S
C944 H948 0.950 . S
C944 C953 1.390 . S
C945 C944 1.387 . S
C945 C947 1.387 . S
H946 C953 0.950 . S
C947 C945 1.387 . S
C947 C949 1.390 . S
C947 H951 0.950 . S
H948 C944 0.950 . S
C949 C947 1.390 . S
C949 C950 1.387 . S
C949 H952 0.950 . S
C950 C949 1.387 . S
C950 C953 1.387 . S
H951 C947 0.950 . S
H952 C949 0.950 . S
C953 C944 1.390 . S
C953 H946 0.950 . S
C953 C950 1.387 . S
C954 C955 1.387 . S
C954 H958 0.950 . S
C954 C963 1.390 . S
C955 C954 1.387 . S
C955 C957 1.387 . S
H956 C963 0.950 . S
C957 C955 1.387 . S
C957 C959 1.390 . S
C957 H961 0.950 . S
H958 C954 0.950 . S
C959 C957 1.390 . S
C959 C960 1.387 . S
C959 H962 0.950 . S
C960 C959 1.387 . S
C960 C963 1.387 . S
H961 C957 0.950 . S
H962 C959 0.950 . S
C963 C954 1.390 . S
C963 H956 0.950 . S
C963 C960 1.387 . S
C964 C965 1.387 . S
C964 H968 0.950 . S
C964 C973 1.390 . S
C965 C964 1.387 . S
C965 C967 1.387 . S
H966 C973 0.950 . S
C967 C965 1.387 . S
C967 C969 1.390 . S
C967 H971 0.936 1_455 S
H968 C964 0.950 . S
C969 C967 1.390 . S
C969 C970 1.387 . S
C969 H972 0.949 . S
C970 C969 1.387 . S
C970 C973 1.387 . S
H971 C967 0.936 1_655 S
H972 C969 0.949 . S
C973 C964 1.390 . S
C973 H966 0.950 . S
C973 C970 1.387 . S
C974 C975 1.387 . S
C974 H978 0.950 . S
C974 C983 1.390 . S
C975 C974 1.387 . S
C975 C977 1.387 . S
H976 C983 0.950 . S
C977 C975 1.387 . S
C977 C979 1.390 . S
C977 H981 0.950 . S
H978 C974 0.950 . S
C979 C977 1.390 . S
C979 C980 1.387 . S
C979 H982 0.950 . S
C980 C979 1.387 . S
C980 C983 1.387 . S
H981 C977 0.950 . S
H982 C979 0.950 . S
C983 C974 1.390 . S
C983 H976 0.950 . S
C983 C980 1.387 . S
C984 C985 1.387 . S
C984 H988 0.950 . S
C984 C993 1.390 . S
C985 C984 1.387 . S
C985 C987 1.387 . S
H986 C993 0.950 . S
C987 C985 1.387 . S
C987 C989 1.390 . S
C987 H991 0.950 1_655 S
H988 C984 0.950 . S
C989 C987 1.390 . S
C989 C990 1.387 . S
C989 H992 0.950 1_655 S
C990 C989 1.387 . S
C990 C993 1.387 . S
H991 C987 0.950 1_455 S
H992 C989 0.950 1_455 S
C993 C984 1.390 . S
C993 H986 0.950 . S
C993 C990 1.387 . S
C994 C995 1.387 . S
C994 H998 0.950 . S
C994 C1003 1.390 . S
C995 C994 1.387 . S
C995 C997 1.387 . S
H996 C1003 0.950 . S
C997 C995 1.387 . S
C997 C999 1.390 . S
C997 H1001 0.950 . S
H998 C994 0.950 . S
C999 C997 1.390 . S
C999 C1000 1.387 . S
C999 H1002 0.950 . S
C1000 C999 1.387 . S
C1000 C1003 1.387 . S
H1001 C997 0.950 . S
H1002 C999 0.950 . S
C1003 C994 1.390 . S
C1003 H996 0.950 . S
C1003 C1000 1.387 . S
C1004 C1005 1.387 . S
C1004 H1008 0.950 . S
C1004 C1013 1.390 . S
C1005 C1004 1.387 . S
C1005 C1007 1.387 . S
H1006 C1013 0.950 . S
C1007 C1005 1.387 . S
C1007 C1009 1.390 . S
C1007 H1011 0.950 . S
H1008 C1004 0.950 . S
C1009 C1007 1.390 . S
C1009 C1010 1.387 . S
C1009 H1012 0.950 . S
C1010 C1009 1.387 . S
C1010 C1013 1.387 . S
H1011 C1007 0.950 . S
H1012 C1009 0.950 . S
C1013 C1004 1.390 . S
C1013 H1006 0.950 . S
C1013 C1010 1.387 . S
C1014 C1015 1.387 . S
C1014 H1018 0.950 . S
C1014 C1023 1.390 . S
C1015 C1014 1.387 . S
C1015 C1017 1.387 . S
H1016 C1023 0.950 . S
C1017 C1015 1.387 . S
C1017 C1019 1.390 . S
C1017 H1021 0.950 . S
H1018 C1014 0.950 . S
C1019 C1017 1.390 . S
C1019 C1020 1.387 . S
C1019 H1022 0.950 . S
C1020 C1019 1.387 . S
C1020 C1023 1.387 . S
H1021 C1017 0.950 . S
H1022 C1019 0.950 . S
C1023 C1014 1.390 . S
C1023 H1016 0.950 . S
C1023 C1020 1.387 . S
C1024 C1025 1.387 . S
C1024 H1028 0.950 . S
C1024 C1033 1.390 . S
C1025 C1024 1.387 . S
C1025 C1027 1.387 . S
H1026 C1033 0.950 . S
C1027 C1025 1.387 . S
C1027 C1029 1.390 . S
C1027 H1031 0.950 . S
H1028 C1024 0.950 . S
C1029 C1027 1.390 . S
C1029 C1030 1.387 . S
C1029 H1032 0.950 . S
C1030 C1029 1.387 . S
C1030 C1033 1.387 . S
H1031 C1027 0.950 . S
H1032 C1029 0.950 . S
C1033 C1024 1.390 . S
C1033 H1026 0.950 . S
C1033 C1030 1.387 . S
C1034 C1035 1.387 . S
C1034 H1038 0.950 . S
C1034 C1043 1.390 . S
C1035 C1034 1.387 . S
C1035 C1037 1.387 . S
H1036 C1043 0.950 . S
C1037 C1035 1.387 . S
C1037 C1039 1.390 . S
C1037 H1041 0.950 . S
H1038 C1034 0.950 . S
C1039 C1037 1.390 . S
C1039 C1040 1.387 . S
C1039 H1042 0.950 . S
C1040 C1039 1.387 . S
C1040 C1043 1.387 . S
H1041 C1037 0.950 . S
H1042 C1039 0.950 . S
C1043 C1034 1.390 . S
C1043 H1036 0.950 . S
C1043 C1040 1.387 . S
C1044 C1045 1.387 . S
C1044 H1048 0.950 . S
C1044 C1053 1.390 . S
C1045 C1044 1.387 . S
C1045 C1047 1.387 . S
H1046 C1053 0.950 . S
C1047 C1045 1.387 . S
C1047 C1049 1.390 . S
C1047 H1051 0.950 . S
H1048 C1044 0.950 . S
C1049 C1047 1.390 . S
C1049 C1050 1.387 . S
C1049 H1052 0.950 . S
C1050 C1049 1.387 . S
C1050 C1053 1.387 . S
H1051 C1047 0.950 . S
H1052 C1049 0.950 . S
C1053 C1044 1.390 . S
C1053 H1046 0.950 . S
C1053 C1050 1.387 . S
C1054 C1055 1.387 . S
C1054 H1058 0.950 . S
C1054 C1063 1.390 . S
C1055 C1054 1.387 . S
C1055 C1057 1.387 . S
H1056 C1063 0.950 . S
C1057 C1055 1.387 . S
C1057 C1059 1.390 . S
C1057 H1061 0.950 . S
H1058 C1054 0.950 . S
C1059 C1057 1.390 . S
C1059 C1060 1.387 . S
C1059 H1062 0.950 . S
C1060 C1059 1.387 . S
C1060 C1063 1.387 . S
H1061 C1057 0.950 . S
H1062 C1059 0.950 . S
C1063 C1054 1.390 . S
C1063 H1056 0.950 . S
C1063 C1060 1.387 . S
C1064 C1065 1.387 . S
C1064 H1068 0.950 . S
C1064 C1073 1.390 . S
C1065 C1064 1.387 . S
C1065 C1067 1.387 . S
H1066 C1073 0.950 . S
C1067 C1065 1.387 . S
C1067 C1069 1.390 . S
C1067 H1071 0.950 . S
H1068 C1064 0.950 . S
C1069 C1067 1.390 . S
C1069 C1070 1.387 . S
C1069 H1072 0.950 . S
C1070 C1069 1.387 . S
C1070 C1073 1.387 . S
H1071 C1067 0.950 . S
H1072 C1069 0.950 . S
C1073 C1064 1.390 . S
C1073 H1066 0.950 . S
C1073 C1070 1.387 . S
C1074 C1075 1.387 . S
C1074 H1078 0.950 . S
C1074 C1083 1.390 . S
C1075 C1074 1.387 . S
C1075 C1077 1.387 . S
H1076 C1083 0.950 . S
C1077 C1075 1.387 . S
C1077 C1079 1.390 . S
C1077 H1081 0.950 . S
H1078 C1074 0.950 . S
C1079 C1077 1.390 . S
C1079 C1080 1.387 . S
C1079 H1082 0.950 . S
C1080 C1079 1.387 . S
C1080 C1083 1.387 . S
H1081 C1077 0.950 . S
H1082 C1079 0.950 . S
C1083 C1074 1.390 . S
C1083 H1076 0.950 . S
C1083 C1080 1.387 . S
C1084 C1085 1.387 . S
C1084 H1088 0.950 . S
C1084 C1093 1.390 . S
C1085 C1084 1.387 . S
C1085 C1087 1.387 . S
H1086 C1093 0.950 . S
C1087 C1085 1.387 . S
C1087 C1089 1.390 . S
C1087 H1091 0.950 . S
H1088 C1084 0.950 . S
C1089 C1087 1.390 . S
C1089 C1090 1.387 . S
C1089 H1092 0.950 . S
C1090 C1089 1.387 . S
C1090 C1093 1.387 . S
H1091 C1087 0.950 . S
H1092 C1089 0.950 . S
C1093 C1084 1.390 . S
C1093 H1086 0.950 . S
C1093 C1090 1.387 . S
C1094 C1095 1.387 . S
C1094 H1098 0.950 . S
C1094 C1103 1.390 . S
C1095 C1094 1.387 . S
C1095 C1097 1.387 . S
H1096 C1103 0.950 . S
C1097 C1095 1.387 . S
C1097 C1099 1.390 . S
C1097 H1101 0.950 . S
H1098 C1094 0.950 . S
C1099 C1097 1.390 . S
C1099 C1100 1.387 . S
C1099 H1102 0.950 . S
C1100 C1099 1.387 . S
C1100 C1103 1.387 . S
H1101 C1097 0.950 . S
H1102 C1099 0.950 . S
C1103 C1094 1.390 . S
C1103 H1096 0.950 . S
C1103 C1100 1.387 . S
C1104 C1105 1.387 . S
C1104 H1108 0.950 . S
C1104 C1113 1.390 . S
C1105 C1104 1.387 . S
C1105 C1107 1.387 . S
H1106 C1113 0.950 . S
C1107 C1105 1.387 . S
C1107 C1109 1.390 . S
C1107 H1111 0.950 . S
H1108 C1104 0.950 . S
C1109 C1107 1.390 . S
C1109 C1110 1.387 . S
C1109 H1112 0.950 . S
C1110 C1109 1.387 . S
C1110 C1113 1.387 . S
H1111 C1107 0.950 . S
H1112 C1109 0.950 . S
C1113 C1104 1.390 . S
C1113 H1106 0.950 . S
C1113 C1110 1.387 . S
C1114 C1115 1.387 . S
C1114 H1118 0.950 . S
C1114 C1123 1.390 . S
C1115 C1114 1.387 . S
C1115 C1117 1.387 . S
H1116 C1123 0.950 . S
C1117 C1115 1.387 . S
C1117 C1119 1.390 . S
C1117 H1121 0.950 . S
H1118 C1114 0.950 . S
C1119 C1117 1.390 . S
C1119 C1120 1.387 . S
C1119 H1122 0.950 . S
C1120 C1119 1.387 . S
C1120 C1123 1.387 . S
H1121 C1117 0.950 . S
H1122 C1119 0.950 . S
C1123 C1114 1.390 . S
C1123 H1116 0.950 . S
C1123 C1120 1.387 . S
C1124 C1125 1.387 . S
C1124 H1128 0.950 . S
C1124 C1133 1.390 . S
C1125 C1124 1.387 . S
C1125 C1127 1.387 . S
H1126 C1133 0.950 . S
C1127 C1125 1.387 . S
C1127 C1129 1.390 . S
C1127 H1131 0.950 . S
H1128 C1124 0.950 . S
C1129 C1127 1.390 . S
C1129 C1130 1.387 . S
C1129 H1132 0.950 . S
C1130 C1129 1.387 . S
C1130 C1133 1.387 . S
H1131 C1127 0.950 . S
H1132 C1129 0.950 . S
C1133 C1124 1.390 . S
C1133 H1126 0.950 . S
C1133 C1130 1.387 . S
C595 N170 1.967 . S
C600 C243 1.982 . S
C605 N184 1.222 . S
C610 C283 1.207 . S
C615 N158 1.652 . S
C620 C322 1.632 . S
C625 N145 1.561 . S
C630 C282 1.535 1_556 S
C640 C323 0.969 . S
C635 N119 0.977 . S
C645 N131 1.783 . S
C650 C242 1.832 1_556 S
C660 C253 1.707 . S
C655 N144 1.718 . S
C670 C293 1.623 . S
C665 N118 1.645 . S
C675 N132 1.554 . S
C680 C332 1.556 . S
C685 N171 1.489 . S
C690 C292 1.480 . S
C695 N183 1.370 . S
C700 C333 1.374 . S
C710 C252 1.472 . S
C705 N157 1.494 . S
C720 C363 1.982 . S
C715 N14 1.967 . S
C725 N28 1.221 . S
C730 C403 1.207 . S
C735 N2 1.652 . S
C740 C442 1.630 . S
C745 N223 1.560 . S
C750 C402 1.535 . S
C755 N197 0.977 . S
C760 C443 0.968 . S
C765 N209 1.784 . S
C770 C362 1.833 . S
C775 N222 1.718 . S
C780 C373 1.707 . S
C785 N196 1.644 . S
C790 C413 1.624 . S
C800 C452 1.555 . S
C795 N210 1.552 . S
C805 N15 1.491 . S
C810 C412 1.480 . S
C820 C453 1.372 . S
C815 N27 1.371 . S
C825 N1 1.494 . S
C830 C372 1.472 . S
C840 C483 1.982 . S
C835 N92 1.967 . S
C845 N106 1.222 . S
C850 C523 1.207 . S
C860 C562 1.631 . S
C855 N80 1.651 . S
C870 C522 1.533 . S
C865 N67 1.559 . S
C880 C563 0.968 . S
C875 N41 0.977 . S
C885 N53 1.785 . S
C890 C482 1.833 . S
C895 N66 1.718 . S
C900 C493 1.707 . S
C905 N40 1.645 . S
C910 C533 1.623 . S
C920 C572 1.555 . S
C915 N54 1.554 . S
C925 N93 1.490 . S
C930 C532 1.481 . S
C935 N105 1.370 . S
C940 C573 1.374 . S
C945 N79 1.494 . S
C950 C492 1.471 . S
C955 N200 1.179 . S
C960 C239 1.200 . S
C970 C279 1.893 . S
C965 N213 1.866 . S
C975 N226 1.604 . S
C980 C329 1.600 . S
C985 N83 1.798 . S
C990 C289 1.772 . S
C995 N96 1.721 . S
C1000 C319 1.762 . S
C1010 C249 1.342 . S
C1005 N109 1.376 . S
C1015 N44 1.179 . S
C1020 C359 1.200 . S
C1025 N57 1.867 . S
C1030 C399 1.894 . S
C1035 N70 1.604 . S
C1040 C449 1.600 . S
C1045 N161 1.799 . S
C1050 C409 1.773 . S
C1060 C439 1.762 . S
C1055 N174 1.722 . S
C1065 N187 1.376 . S
C1070 C369 1.345 . S
C1075 N122 1.179 . S
C1080 C479 1.200 . S
C1085 N135 1.867 . S
C1090 C519 1.894 . S
C1100 C569 1.598 . S
C1095 N148 1.605 . S
C1105 N5 1.799 . S
C1110 C529 1.774 . S
C1115 N18 1.722 . S
C1120 C559 1.762 . S
C1125 N31 1.376 . S
C1130 C489 1.345 . S
