# Generated by pormake.
# Topology dag, (6,3)-cn, num edge types: 1
# Building blocks:
#     Node 0, Type 0, BuildingBlock: MIDCAF_clean_sbu_0, # of connection points: 6
#     Node 1, Type 0, BuildingBlock: MIDCAF_clean_sbu_0, # of connection points: 6
#     Node 2, Type 0, BuildingBlock: MIDCAF_clean_sbu_0, # of connection points: 6
#     Node 3, Type 0, BuildingBlock: MIDCAF_clean_sbu_0, # of connection points: 6
#     Node 4, Type 1, BuildingBlock: VETTIZ_charged_linker_0, # of connection points: 3
#     Node 5, Type 1, BuildingBlock: VETTIZ_charged_linker_0, # of connection points: 3
#     Node 6, Type 1, BuildingBlock: VETTIZ_charged_linker_0, # of connection points: 3
#     Node 7, Type 1, BuildingBlock: VETTIZ_charged_linker_0, # of connection points: 3
#     Node 8, Type 1, BuildingBlock: VETTIZ_charged_linker_0, # of connection points: 3
#     Node 9, Type 1, BuildingBlock: VETTIZ_charged_linker_0, # of connection points: 3
#     Node 10, Type 1, BuildingBlock: VETTIZ_charged_linker_0, # of connection points: 3
#     Node 11, Type 1, BuildingBlock: VETTIZ_charged_linker_0, # of connection points: 3
#     Edge 12, Type (0, 1), BuildingBlock: OJICUG_clean_linker_0, # of connection points: 2
#     Edge 13, Type (0, 1), BuildingBlock: OJICUG_clean_linker_0, # of connection points: 2
#     Edge 14, Type (0, 1), BuildingBlock: OJICUG_clean_linker_0, # of connection points: 2
#     Edge 15, Type (0, 1), BuildingBlock: OJICUG_clean_linker_0, # of connection points: 2
#     Edge 16, Type (0, 1), BuildingBlock: OJICUG_clean_linker_0, # of connection points: 2
#     Edge 17, Type (0, 1), BuildingBlock: OJICUG_clean_linker_0, # of connection points: 2
#     Edge 18, Type (0, 1), BuildingBlock: OJICUG_clean_linker_0, # of connection points: 2
#     Edge 19, Type (0, 1), BuildingBlock: OJICUG_clean_linker_0, # of connection points: 2
#     Edge 20, Type (0, 1), BuildingBlock: OJICUG_clean_linker_0, # of connection points: 2
#     Edge 21, Type (0, 1), BuildingBlock: OJICUG_clean_linker_0, # of connection points: 2
#     Edge 22, Type (0, 1), BuildingBlock: OJICUG_clean_linker_0, # of connection points: 2
#     Edge 23, Type (0, 1), BuildingBlock: OJICUG_clean_linker_0, # of connection points: 2
#     Edge 24, Type (0, 1), BuildingBlock: OJICUG_clean_linker_0, # of connection points: 2
#     Edge 25, Type (0, 1), BuildingBlock: OJICUG_clean_linker_0, # of connection points: 2
#     Edge 26, Type (0, 1), BuildingBlock: OJICUG_clean_linker_0, # of connection points: 2
#     Edge 27, Type (0, 1), BuildingBlock: OJICUG_clean_linker_0, # of connection points: 2
#     Edge 28, Type (0, 1), BuildingBlock: OJICUG_clean_linker_0, # of connection points: 2
#     Edge 29, Type (0, 1), BuildingBlock: OJICUG_clean_linker_0, # of connection points: 2
#     Edge 30, Type (0, 1), BuildingBlock: OJICUG_clean_linker_0, # of connection points: 2
#     Edge 31, Type (0, 1), BuildingBlock: OJICUG_clean_linker_0, # of connection points: 2
#     Edge 32, Type (0, 1), BuildingBlock: OJICUG_clean_linker_0, # of connection points: 2
#     Edge 33, Type (0, 1), BuildingBlock: OJICUG_clean_linker_0, # of connection points: 2
#     Edge 34, Type (0, 1), BuildingBlock: OJICUG_clean_linker_0, # of connection points: 2
#     Edge 35, Type (0, 1), BuildingBlock: OJICUG_clean_linker_0, # of connection points: 2
# Relax obj value: 0.316
# Max RMSD: 0.190
# Mean RMSD: 0.180
data_MOF--net-dag--node1-MIDCAF_clean_sbu_0--node2-VETTIZ_charged_linker_0--edge1-OJICUG_clean_linker_0
_symmetry_space_group_name_H-M    P1
_symmetry_Int_Tables_number       1
_symmetry_cell_setting            triclinic
loop_
_symmetry_equiv_pos_as_xyz
'x, y, z'
_cell_length_a     38.132159
_cell_length_b     38.183388
_cell_length_c     29.532905
_cell_angle_alpha  90.171207
_cell_angle_beta   89.960714
_cell_angle_gamma 89.942914
loop_
_atom_site_label
_atom_site_type_symbol
_atom_site_fract_x
_atom_site_fract_y
_atom_site_fract_z
_atom_type_partial_charge
Zn0 Zn 0.16074 0.83096 0.0963 0.0
Zn1 Zn 0.13437 0.84491 0.94492 0.0
Zn2 Zn 0.15624 0.83185 0.01401 0.0
C3 C 0.14939 0.9063 0.96912 0.0
C4 C 0.11454 0.77834 0.96182 0.0
O5 O 0.18375 0.78187 0.01914 0.0
O6 O 0.18031 0.78223 0.09392 0.0
C7 C 0.20632 0.88421 0.06441 0.0
O8 O 0.17052 0.8851 0.98916 0.0
O9 O 0.12158 0.89468 0.95148 0.0
O10 O 0.10016 0.80608 0.94763 0.0
O11 O 0.14444 0.78022 0.98203 0.0
O12 O 0.19579 0.87072 0.1011 0.0
O13 O 0.1933 0.87356 0.02672 0.0
O14 O 0.10321 0.83422 0.0329 0.0
O15 O 0.10859 0.83734 0.10672 0.0
C16 C 0.08928 0.83634 0.07187 0.0
O17 O 0.18344 0.79402 0.97161 0.0
O18 O 0.18224 0.83327 0.91738 0.0
C19 C 0.1895 0.76723 0.05752 0.0
C20 C 0.19607 0.80614 0.93433 0.0
Zn21 Zn 0.64714 0.64502 0.43933 0.0
Zn22 Zn 0.66034 0.66243 0.58916 0.0
Zn23 Zn 0.65908 0.66111 0.50967 0.0
C24 C 0.64961 0.59304 0.56542 0.0
C25 C 0.61008 0.71273 0.56193 0.0
O26 O 0.70011 0.68908 0.4733 0.0
O27 O 0.66167 0.69369 0.41843 0.0
C28 C 0.71086 0.61919 0.45071 0.0
O29 O 0.65457 0.60694 0.52674 0.0
O30 O 0.64782 0.61238 0.60017 0.0
O31 O 0.6255 0.7013 0.5968 0.0
O32 O 0.61748 0.69932 0.52305 0.0
O33 O 0.68248 0.60825 0.43384 0.0
O34 O 0.7103 0.64637 0.47679 0.0
O35 O 0.6063 0.67931 0.48236 0.0
O36 O 0.59736 0.63498 0.43553 0.0
C37 C 0.58594 0.66201 0.45534 0.0
O38 O 0.71095 0.68599 0.52073 0.0
O39 O 0.7106 0.67518 0.59409 0.0
C40 C 0.68901 0.70506 0.4377 0.0
C41 C 0.7263 0.68667 0.55953 0.0
Zn42 Zn 0.85776 0.14647 0.92987 0.0
Zn43 Zn 0.82115 0.1477 0.13467 0.0
Zn44 Zn 0.83887 0.15565 0.0016 0.0
C45 C 0.89375 0.15009 0.09335 0.0
C46 C 0.78918 0.1122 0.04345 0.0
O47 O 0.81175 0.19835 0.96706 0.0
O48 O 0.80894 0.16229 0.90902 0.0
C49 C 0.88174 0.20988 0.94776 0.0
O50 O 0.88008 0.15266 0.05354 0.0
O51 O 0.87498 0.14744 0.12936 0.0
O52 O 0.80543 0.13119 0.07172 0.0
O53 O 0.79932 0.11519 0.00242 0.0
O54 O 0.89461 0.18275 0.92964 0.0
O55 O 0.85391 0.20716 0.972 0.0
O56 O 0.82594 0.10183 0.97061 0.0
O57 O 0.86893 0.09673 0.9213 0.0
C58 C 0.84381 0.08291 0.94257 0.0
O59 O 0.80975 0.20449 0.01574 0.0
O60 O 0.8132 0.17275 0.07524 0.0
C61 C 0.79686 0.18876 0.92979 0.0
C62 C 0.80337 0.20134 0.05791 0.0
Zn63 Zn 0.3419 0.33243 0.64251 0.0
Zn64 Zn 0.33296 0.33675 0.37547 0.0
Zn65 Zn 0.3306 0.32746 0.51054 0.0
C66 C 0.39824 0.32089 0.42926 0.0
C67 C 0.30463 0.38369 0.46166 0.0
O68 O 0.295 0.28637 0.53396 0.0
O69 O 0.32364 0.3086 0.58882 0.0
C70 C 0.39016 0.29996 0.55695 0.0
O71 O 0.38104 0.32156 0.46754 0.0
O72 O 0.38376 0.3255 0.39054 0.0
O73 O 0.31785 0.36093 0.43528 0.0
O74 O 0.3093 0.3786 0.50375 0.0
O75 O 0.37183 0.3123 0.58926 0.0
O76 O 0.38166 0.30764 0.51638 0.0
O77 O 0.32508 0.37855 0.55044 0.0
O78 O 0.33171 0.38282 0.62657 0.0
C79 C 0.32595 0.39668 0.58786 0.0
O80 O 0.29051 0.29063 0.48852 0.0
O81 O 0.31086 0.31941 0.43225 0.0
C82 C 0.29922 0.28869 0.57649 0.0
C83 C 0.29271 0.29397 0.44585 0.0
C84 C 0.2585 0.04382 0.10918 0.0
C85 C 0.24601 0.02536 0.07117 0.0
C86 C 0.22162 0.04207 0.04245 0.0
C87 C 0.21314 0.08742 0.09838 0.0
C88 C 0.24146 0.0747 0.12239 0.0
C89 C 0.24769 0.09508 0.16528 0.0
H90 H 0.19169 0.21745 0.31428 0.0
C91 C 0.19575 0.11443 0.12614 0.0
C92 C 0.2164 0.1198 0.16476 0.0
H93 H 0.29127 0.16341 0.3115 0.0
H94 H 0.27308 0.13069 0.24551 0.0
H95 H 0.18862 0.23404 0.21251 0.0
H96 H 0.14397 0.1484 0.28697 0.0
H97 H 0.11309 0.15993 0.24571 0.0
H98 H 0.12548 0.1916 0.28822 0.0
H99 H 0.15099 0.2391 0.2485 0.0
H100 H 0.14668 0.22651 0.18984 0.0
C101 C 0.28304 0.11487 0.16061 0.0
C102 C 0.2461 0.06947 0.20588 0.0
C103 C 0.06882 0.14656 0.09301 0.0
C104 C 0.04383 0.16539 0.11846 0.0
C105 C 0.0553 0.18597 0.15528 0.0
C106 C 0.09033 0.18538 0.16916 0.0
C107 C 0.11434 0.16389 0.14614 0.0
C108 C 0.10393 0.14606 0.1076 0.0
C109 C 0.13331 0.12408 0.08833 0.0
C110 C 0.16198 0.13006 0.12312 0.0
C111 C 0.15068 0.15341 0.15681 0.0
C112 C 0.14424 0.13914 0.04189 0.0
C113 C 0.12082 0.08549 0.08685 0.0
C114 C 0.2091 0.19788 0.29998 0.0
C115 C 0.24276 0.19265 0.31784 0.0
C116 C 0.2652 0.16767 0.29799 0.0
C117 C 0.25474 0.14903 0.25953 0.0
C118 C 0.22162 0.15566 0.2407 0.0
C119 C 0.19925 0.17943 0.26111 0.0
C120 C 0.16568 0.18403 0.23517 0.0
C121 C 0.17235 0.16028 0.1948 0.0
C122 C 0.20494 0.14347 0.19866 0.0
C123 C 0.16244 0.22293 0.22087 0.0
C124 C 0.13526 0.1706 0.26536 0.0
H125 H 0.1848 0.08328 0.03446 0.0
H126 H 0.27853 0.0326 0.13071 0.0
H127 H 0.22364 0.05112 0.20206 0.0
H128 H 0.24206 0.08277 0.23868 0.0
H129 H 0.27047 0.05362 0.20814 0.0
H130 H 0.29108 0.11778 0.12458 0.0
H131 H 0.30456 0.10084 0.17829 0.0
H132 H 0.28147 0.14204 0.17373 0.0
H133 H 0.06081 0.13072 0.06436 0.0
H134 H 0.03676 0.20153 0.17458 0.0
H135 H 0.09706 0.20069 0.1984 0.0
H136 H 0.13654 0.16711 0.03847 0.0
H137 H 0.13202 0.12421 0.01405 0.0
H138 H 0.17305 0.13893 0.03686 0.0
H139 H 0.108 0.07827 0.11935 0.0
H140 H 0.14216 0.06647 0.08202 0.0
H141 H 0.10148 0.08144 0.05923 0.0
H142 H 0.21257 0.02949 0.01182 0.0
C143 C 0.20505 0.07309 0.05594 0.0
C144 C 0.31167 0.56799 0.62539 0.0
C145 C 0.32948 0.54872 0.59171 0.0
C146 C 0.35459 0.56639 0.56491 0.0
C147 C 0.3477 0.61903 0.61039 0.0
C148 C 0.32187 0.60237 0.63503 0.0
C149 C 0.30988 0.62366 0.67502 0.0
H150 H 0.32758 0.76759 0.80624 0.0
C151 C 0.35519 0.65297 0.63283 0.0
C152 C 0.33336 0.65553 0.67098 0.0
H153 H 0.25182 0.68396 0.81893 0.0
H154 H 0.27756 0.65424 0.75502 0.0
H155 H 0.39459 0.71755 0.78157 0.0
H156 H 0.32044 0.77574 0.70174 0.0
H157 H 0.36185 0.78132 0.67662 0.0
H158 H 0.35464 0.7965 0.73375 0.0
H159 H 0.39634 0.76433 0.77669 0.0
H160 H 0.41806 0.736 0.73647 0.0
C161 C 0.3176 0.60241 0.71865 0.0
C162 C 0.27071 0.63304 0.66798 0.0
C163 C 0.45565 0.72854 0.57794 0.0
C164 C 0.47384 0.75668 0.59752 0.0
C165 C 0.45871 0.77414 0.63484 0.0
C166 C 0.42742 0.76186 0.65425 0.0
C167 C 0.41138 0.73155 0.63646 0.0
C168 C 0.42498 0.71605 0.59804 0.0
C169 C 0.40658 0.68243 0.58584 0.0
C170 C 0.38018 0.67972 0.624 0.0
C171 C 0.38286 0.70875 0.65317 0.0
C172 C 0.43358 0.65189 0.58609 0.0
C173 C 0.38804 0.68793 0.53996 0.0
C174 C 0.3168 0.74268 0.79549 0.0
C175 C 0.28765 0.72809 0.81758 0.0
C176 C 0.27456 0.69551 0.80285 0.0
C177 C 0.28924 0.67853 0.76529 0.0
C178 C 0.31736 0.69426 0.7423 0.0
C179 C 0.33092 0.7256 0.7578 0.0
C180 C 0.36006 0.73903 0.72838 0.0
C181 C 0.3611 0.71101 0.69195 0.0
C182 C 0.33635 0.68468 0.70057 0.0
C183 C 0.39412 0.7396 0.75702 0.0
C184 C 0.34904 0.77515 0.70918 0.0
H185 H 0.38318 0.61314 0.55281 0.0
H186 H 0.29137 0.55611 0.64582 0.0
H187 H 0.26481 0.63714 0.63148 0.0
H188 H 0.26317 0.65789 0.6846 0.0
H189 H 0.25337 0.61174 0.6803 0.0
H190 H 0.34223 0.58699 0.71499 0.0
H191 H 0.29608 0.5837 0.72606 0.0
H192 H 0.32204 0.61903 0.74872 0.0
H193 H 0.46726 0.71384 0.5507 0.0
H194 H 0.47223 0.7959 0.65068 0.0
H195 H 0.41793 0.77539 0.6837 0.0
H196 H 0.45796 0.65886 0.60469 0.0
H197 H 0.44133 0.64432 0.55117 0.0
H198 H 0.42359 0.62846 0.60391 0.0
H199 H 0.37042 0.71115 0.54158 0.0
H200 H 0.37159 0.66546 0.52987 0.0
H201 H 0.40756 0.69288 0.51289 0.0
H202 H 0.369 0.55272 0.53869 0.0
C203 C 0.36336 0.6015 0.57366 0.0
C204 C 0.75409 0.83154 0.30941 0.0
C205 C 0.76834 0.80202 0.33125 0.0
C206 C 0.8003 0.788 0.3154 0.0
C207 C 0.80069 0.82952 0.25368 0.0
C208 C 0.77029 0.84441 0.27034 0.0
C209 C 0.75645 0.87287 0.23994 0.0
H210 H 0.77774 0.96833 0.04966 0.0
C211 C 0.80862 0.84606 0.20988 0.0
C212 C 0.78244 0.87098 0.20105 0.0
H213 H 0.70483 0.98722 0.15894 0.0
H214 H 0.72205 0.93243 0.19397 0.0
H215 H 0.83473 0.95863 0.10325 0.0
H216 H 0.77105 0.87842 0.04473 0.0
H217 H 0.81515 0.86527 0.03875 0.0
H218 H 0.80078 0.90604 0.01414 0.0
H219 H 0.84536 0.94006 0.04924 0.0
H220 H 0.86303 0.92264 0.10092 0.0
C221 C 0.75878 0.90813 0.26591 0.0
C222 C 0.71892 0.86294 0.22459 0.0
C223 C 0.92329 0.81988 0.13086 0.0
C224 C 0.93896 0.83427 0.0921 0.0
C225 C 0.9183 0.85379 0.06176 0.0
C226 C 0.8833 0.86154 0.07206 0.0
C227 C 0.86908 0.84995 0.11331 0.0
C228 C 0.88848 0.82822 0.14098 0.0
C229 C 0.86917 0.81863 0.18357 0.0
C230 C 0.83607 0.84036 0.17834 0.0
C231 C 0.83626 0.85864 0.13728 0.0
C232 C 0.89136 0.83074 0.22471 0.0
C233 C 0.86149 0.77873 0.18234 0.0
C234 C 0.76417 0.95993 0.07995 0.0
C235 C 0.73967 0.98189 0.10132 0.0
C236 C 0.72374 0.97063 0.14183 0.0
C237 C 0.73419 0.93915 0.16238 0.0
C238 C 0.76142 0.91934 0.14272 0.0
C239 C 0.77538 0.92956 0.10163 0.0
C240 C 0.80704 0.90849 0.08832 0.0
C241 C 0.80988 0.88383 0.12817 0.0
C242 C 0.78309 0.89008 0.15986 0.0
C243 C 0.8392 0.93352 0.08492 0.0
C244 C 0.79839 0.88857 0.04398 0.0
H245 H 0.84019 0.78912 0.26567 0.0
H246 H 0.72979 0.84321 0.32101 0.0
H247 H 0.7175 0.8346 0.21593 0.0
H248 H 0.71054 0.87693 0.19379 0.0
H249 H 0.69954 0.86816 0.2519 0.0
H250 H 0.78103 0.90812 0.29028 0.0
H251 H 0.73443 0.91332 0.28547 0.0
H252 H 0.76409 0.93056 0.24339 0.0
H253 H 0.93846 0.80412 0.15418 0.0
H254 H 0.92978 0.86497 0.03151 0.0
H255 H 0.86932 0.87787 0.04876 0.0
H256 H 0.90233 0.85732 0.2187 0.0
H257 H 0.91368 0.81262 0.2307 0.0
H258 H 0.87611 0.83292 0.25633 0.0
H259 H 0.86166 0.76826 0.14713 0.0
H260 H 0.83501 0.77241 0.19541 0.0
H261 H 0.88136 0.7638 0.20186 0.0
H262 H 0.81171 0.76505 0.33106 0.0
C263 C 0.81651 0.8016 0.2768 0.0
C264 C 0.66949 0.25777 0.8072 0.0
C265 C 0.69936 0.27185 0.82837 0.0
C266 C 0.71273 0.30416 0.81313 0.0
C267 C 0.67022 0.30476 0.75229 0.0
C268 C 0.65602 0.27401 0.76865 0.0
C269 C 0.62843 0.25916 0.73773 0.0
H270 H 0.53656 0.27452 0.54412 0.0
C271 C 0.65389 0.31205 0.70814 0.0
C272 C 0.63027 0.28478 0.69869 0.0
H273 H 0.51557 0.20636 0.65727 0.0
H274 H 0.57064 0.22316 0.69165 0.0
H275 H 0.5415 0.33035 0.59372 0.0
H276 H 0.62809 0.27133 0.54293 0.0
H277 H 0.63827 0.31609 0.53617 0.0
H278 H 0.59922 0.29848 0.5102 0.0
H279 H 0.56294 0.34293 0.54243 0.0
H280 H 0.57552 0.36058 0.59684 0.0
C281 C 0.59266 0.26091 0.7627 0.0
C282 C 0.63961 0.22175 0.72317 0.0
C283 C 0.67127 0.42888 0.63031 0.0
C284 C 0.6558 0.44304 0.59099 0.0
C285 C 0.63898 0.42028 0.56033 0.0
C286 C 0.63521 0.38477 0.57031 0.0
C287 C 0.64739 0.37193 0.61177 0.0
C288 C 0.66647 0.39332 0.64022 0.0
C289 C 0.67757 0.37449 0.68271 0.0
C290 C 0.65863 0.33969 0.67672 0.0
C291 C 0.64116 0.33851 0.63503 0.0
C292 C 0.6637 0.39514 0.72421 0.0
C293 C 0.71801 0.37006 0.68193 0.0
C294 C 0.54469 0.26153 0.57497 0.0
C295 C 0.52164 0.23934 0.59818 0.0
C296 C 0.53284 0.22383 0.63898 0.0
C297 C 0.56444 0.23423 0.65927 0.0
C298 C 0.58445 0.26083 0.63889 0.0
C299 C 0.57481 0.27341 0.59685 0.0
C300 C 0.59441 0.30597 0.584 0.0
C301 C 0.61781 0.31069 0.62499 0.0
C302 C 0.61219 0.28405 0.65677 0.0
C303 C 0.56749 0.33654 0.57863 0.0
C304 C 0.61607 0.29785 0.54087 0.0
H305 H 0.71028 0.34453 0.76402 0.0
H306 H 0.6584 0.23317 0.81841 0.0
H307 H 0.66818 0.22088 0.71556 0.0
H308 H 0.62649 0.2127 0.69198 0.0
H309 H 0.63432 0.20252 0.75049 0.0
H310 H 0.59206 0.28259 0.78796 0.0
H311 H 0.58718 0.23619 0.78112 0.0
H312 H 0.57058 0.26663 0.7396 0.0
H313 H 0.6855 0.4454 0.65378 0.0
H314 H 0.62682 0.43016 0.52982 0.0
H315 H 0.62119 0.36897 0.54657 0.0
H316 H 0.63555 0.40188 0.71958 0.0
H317 H 0.6785 0.41994 0.72886 0.0
H318 H 0.6654 0.38022 0.75604 0.0
H319 H 0.72887 0.3727 0.64712 0.0
H320 H 0.72627 0.34363 0.69313 0.0
H321 H 0.7311 0.39004 0.70345 0.0
H322 H 0.7359 0.31546 0.82851 0.0
C323 C 0.69826 0.3207 0.77519 0.0
C324 C 0.75122 0.47256 0.36821 0.0
C325 C 0.74075 0.49074 0.4077 0.0
C326 C 0.71264 0.47719 0.43322 0.0
C327 C 0.70355 0.43082 0.37859 0.0
C328 C 0.73252 0.44239 0.35469 0.0
C329 C 0.73959 0.41952 0.31384 0.0
H330 H 0.69386 0.27757 0.18725 0.0
C331 C 0.68763 0.40113 0.35375 0.0
C332 C 0.70885 0.39398 0.31591 0.0
H333 H 0.78619 0.34201 0.1729 0.0
H334 H 0.76516 0.3806 0.23241 0.0
H335 H 0.69083 0.27601 0.29602 0.0
H336 H 0.64054 0.3414 0.197 0.0
H337 H 0.61128 0.33866 0.24276 0.0
H338 H 0.62303 0.29943 0.21187 0.0
H339 H 0.65904 0.26067 0.25571 0.0
H340 H 0.6457 0.2793 0.30889 0.0
C341 C 0.77524 0.40096 0.32121 0.0
C342 C 0.73817 0.44261 0.27093 0.0
C343 C 0.56932 0.35289 0.40513 0.0
C344 C 0.54537 0.32891 0.38582 0.0
C345 C 0.55575 0.31105 0.34589 0.0
C346 C 0.58855 0.31713 0.32567 0.0
C347 C 0.61153 0.34179 0.34481 0.0
C348 C 0.60167 0.35929 0.38376 0.0
C349 C 0.62862 0.38599 0.39792 0.0
C350 C 0.6559 0.38216 0.36065 0.0
C351 C 0.64606 0.35576 0.33007 0.0
C352 C 0.64335 0.37459 0.44435 0.0
C353 C 0.61092 0.42259 0.39779 0.0
C354 C 0.70952 0.30003 0.19695 0.0
C355 C 0.74195 0.30648 0.17586 0.0
C356 C 0.76115 0.33646 0.18865 0.0
C357 C 0.74911 0.35854 0.22361 0.0
C358 C 0.71749 0.35062 0.24599 0.0
C359 C 0.69786 0.32224 0.23167 0.0
C360 C 0.66449 0.31813 0.25835 0.0
C361 C 0.66833 0.34732 0.29297 0.0
C362 C 0.69942 0.36641 0.28565 0.0
C363 C 0.6647 0.28157 0.28089 0.0
C364 C 0.63307 0.32446 0.22604 0.0
H365 H 0.67215 0.43978 0.43934 0.0
H366 H 0.77277 0.4821 0.3478 0.0
H367 H 0.71583 0.46132 0.27295 0.0
H368 H 0.73386 0.42731 0.23968 0.0
H369 H 0.76263 0.45811 0.26711 0.0
H370 H 0.77919 0.39448 0.35757 0.0
H371 H 0.79739 0.41792 0.31053 0.0
H372 H 0.77711 0.37558 0.3034 0.0
H373 H 0.56303 0.36696 0.43594 0.0
H374 H 0.53813 0.29307 0.32904 0.0
H375 H 0.59452 0.30276 0.29537 0.0
H376 H 0.64626 0.34562 0.44606 0.0
H377 H 0.62519 0.38266 0.4717 0.0
H378 H 0.6698 0.38499 0.45138 0.0
H379 H 0.59072 0.42434 0.37071 0.0
H380 H 0.62934 0.44407 0.39026 0.0
H381 H 0.59773 0.4281 0.4306 0.0
H382 H 0.70356 0.49089 0.463 0.0
C383 C 0.69404 0.44764 0.419 0.0
C384 C 0.17805 0.24349 0.72729 0.0
C385 C 0.20652 0.22592 0.7071 0.0
C386 C 0.21562 0.19221 0.72206 0.0
C387 C 0.16922 0.19436 0.77803 0.0
C388 C 0.15949 0.22704 0.76233 0.0
C389 C 0.12765 0.24107 0.78673 0.0
H390 H 0.00614 0.21784 0.95199 0.0
C391 C 0.1455 0.18485 0.81547 0.0
C392 C 0.12088 0.21203 0.82078 0.0
H393 H 0.00878 0.30113 0.85349 0.0
H394 H 0.06331 0.27774 0.82278 0.0
H395 H 0.01556 0.16285 0.88742 0.0
H396 H 0.09458 0.21042 0.97127 0.0
H397 H 0.09686 0.16438 0.97529 0.0
H398 H 0.05736 0.1864 0.99191 0.0
H399 H 0.02339 0.14776 0.94393 0.0
H400 H 0.04715 0.13016 0.89598 0.0
C401 C 0.09742 0.24448 0.75204 0.0
C402 C 0.13769 0.27593 0.8101 0.0
C403 C 0.16484 0.07037 0.8997 0.0
C404 C 0.1453 0.0527 0.93304 0.0
C405 C 0.11531 0.06924 0.9512 0.0
C406 C 0.10469 0.10231 0.93602 0.0
C407 C 0.12429 0.11944 0.90245 0.0
C408 C 0.15364 0.10331 0.88459 0.0
C409 C 0.16925 0.12385 0.84613 0.0
C410 C 0.14479 0.15531 0.84456 0.0
C411 C 0.11892 0.15282 0.87807 0.0
C412 C 0.16693 0.10124 0.80241 0.0
C413 C 0.207 0.13442 0.85974 0.0
C414 C 0.01913 0.2321 0.9251 0.0
C415 C 0.0037 0.26203 0.90612 0.0
C416 C 0.02056 0.27842 0.86929 0.0
C417 C 0.05188 0.26449 0.85119 0.0
C418 C 0.06582 0.23331 0.8693 0.0
C419 C 0.04932 0.21789 0.90579 0.0
C420 C 0.0648 0.18312 0.91805 0.0
C421 C 0.09403 0.18017 0.8836 0.0
C422 C 0.09488 0.2097 0.85522 0.0
C423 C 0.0364 0.15437 0.91138 0.0
C424 C 0.07907 0.18598 0.96685 0.0
H425 H 0.2059 0.15096 0.76792 0.0
H426 H 0.17041 0.26933 0.7159 0.0
H427 H 0.16343 0.2734 0.82749 0.0
H428 H 0.1188 0.28393 0.83646 0.0
H429 H 0.1399 0.2974 0.78495 0.0
H430 H 0.09872 0.22322 0.72623 0.0
H431 H 0.09874 0.26988 0.73388 0.0
H432 H 0.07127 0.24171 0.7677 0.0
H433 H 0.18782 0.05841 0.88459 0.0
H434 H 0.09917 0.05606 0.97604 0.0
H435 H 0.08142 0.11311 0.95091 0.0
H436 H 0.1456 0.08145 0.80462 0.0
H437 H 0.1918 0.08687 0.79605 0.0
H438 H 0.16023 0.11692 0.77216 0.0
H439 H 0.20771 0.14361 0.89552 0.0
H440 H 0.21745 0.15632 0.83956 0.0
H441 H 0.22519 0.11179 0.85666 0.0
H442 H 0.2376 0.17844 0.70698 0.0
C443 C 0.19728 0.17642 0.75757 0.0
C444 C 0.26822 0.64695 0.17252 0.0
C445 C 0.27836 0.67714 0.14868 0.0
C446 C 0.30679 0.69703 0.1657 0.0
C447 C 0.31044 0.6597 0.2319 0.0
C448 C 0.28346 0.63962 0.21448 0.0
C449 C 0.27047 0.61283 0.24757 0.0
H450 H 0.28711 0.53325 0.44915 0.0
C451 C 0.31756 0.64753 0.27857 0.0
C452 C 0.29327 0.62085 0.28826 0.0
H453 H 0.2227 0.50234 0.3358 0.0
H454 H 0.23675 0.55637 0.29736 0.0
H455 H 0.34476 0.54318 0.40099 0.0
H456 H 0.2738 0.623 0.44392 0.0
H457 H 0.31648 0.63964 0.45166 0.0
H458 H 0.30376 0.59967 0.47975 0.0
H459 H 0.35225 0.56693 0.45234 0.0
H460 H 0.37094 0.5805 0.39902 0.0
C461 C 0.27819 0.57603 0.22755 0.0
C462 C 0.23115 0.62014 0.25741 0.0
C463 C 0.42727 0.68501 0.36487 0.0
C464 C 0.44128 0.67342 0.4066 0.0
C465 C 0.41977 0.65317 0.43523 0.0
C466 C 0.38588 0.64391 0.42261 0.0
C467 C 0.37355 0.65296 0.37959 0.0
C468 C 0.39345 0.67413 0.35183 0.0
C469 C 0.37514 0.68092 0.30725 0.0
C470 C 0.343 0.65733 0.31159 0.0
C471 C 0.34239 0.64137 0.35435 0.0
C472 C 0.39954 0.6692 0.26821 0.0
C473 C 0.36491 0.72013 0.3054 0.0
C474 C 0.27453 0.53897 0.4171 0.0
C475 C 0.25381 0.5137 0.39539 0.0
C476 C 0.23887 0.52153 0.353 0.0
C477 C 0.24759 0.55262 0.33051 0.0
C478 C 0.27216 0.57554 0.35023 0.0
C479 C 0.28438 0.56898 0.39342 0.0
C480 C 0.31392 0.59283 0.40669 0.0
C481 C 0.31734 0.61507 0.36438 0.0
C482 C 0.29284 0.60492 0.33156 0.0
C483 C 0.34716 0.56998 0.41554 0.0
C484 C 0.30167 0.61492 0.44787 0.0
H485 H 0.34367 0.70499 0.21878 0.0
H486 H 0.247 0.63056 0.16051 0.0
H487 H 0.2257 0.64878 0.25752 0.0
H488 H 0.22274 0.61105 0.29118 0.0
H489 H 0.2141 0.60794 0.2313 0.0
H490 H 0.30267 0.57615 0.20701 0.0
H491 H 0.25653 0.56715 0.20518 0.0
H492 H 0.28288 0.55603 0.25381 0.0
H493 H 0.44265 0.70112 0.34225 0.0
H494 H 0.42952 0.64273 0.46682 0.0
H495 H 0.37129 0.62843 0.44614 0.0
H496 H 0.40958 0.64229 0.27449 0.0
H497 H 0.42243 0.68702 0.26521 0.0
H498 H 0.38621 0.66847 0.23513 0.0
H499 H 0.35967 0.73075 0.33987 0.0
H500 H 0.34033 0.72462 0.28645 0.0
H501 H 0.38623 0.73606 0.2902 0.0
H502 H 0.31516 0.72072 0.14885 0.0
C503 C 0.32297 0.68831 0.20694 0.0
C504 C 0.82582 0.91923 0.86544 0.0
C505 C 0.83708 0.93472 0.90634 0.0
C506 C 0.85784 0.91471 0.93613 0.0
C507 C 0.8604 0.86721 0.88134 0.0
C508 C 0.83767 0.88554 0.85371 0.0
C509 C 0.8299 0.86596 0.81041 0.0
H510 H 0.86661 0.72962 0.67019 0.0
C511 C 0.8716 0.83514 0.85681 0.0
C512 C 0.85366 0.83413 0.81528 0.0
H513 H 0.78387 0.8067 0.65699 0.0
H514 H 0.80363 0.83539 0.72485 0.0
H515 H 0.92801 0.7842 0.71119 0.0
H516 H 0.85205 0.71433 0.77005 0.0
H517 H 0.89034 0.7112 0.80276 0.0
H518 H 0.89151 0.69848 0.74388 0.0
H519 H 0.93112 0.7374 0.70669 0.0
H520 H 0.94867 0.76066 0.75476 0.0
C521 C 0.84082 0.88926 0.76997 0.0
C522 C 0.79059 0.85568 0.81059 0.0
C523 C 0.97296 0.76325 0.9186 0.0
C524 C 0.99322 0.73558 0.90069 0.0
C525 C 0.98224 0.71971 0.8599 0.0
C526 C 0.95277 0.73228 0.8364 0.0
C527 C 0.93411 0.76128 0.85357 0.0
C528 C 0.9439 0.77573 0.89456 0.0
C529 C 0.92214 0.80727 0.90691 0.0
C530 C 0.8977 0.80957 0.86651 0.0
C531 C 0.90497 0.78275 0.83516 0.0
C532 C 0.94691 0.8394 0.90986 0.0
C533 C 0.902 0.79906 0.9512 0.0
C534 C 0.85273 0.75277 0.68154 0.0
C535 C 0.82346 0.76559 0.65754 0.0
C536 C 0.80682 0.79628 0.67379 0.0
C537 C 0.81792 0.81267 0.71391 0.0
C538 C 0.84584 0.79826 0.73865 0.0
C539 C 0.8629 0.76893 0.72217 0.0
C540 C 0.8905 0.7558 0.75436 0.0
C541 C 0.8865 0.78148 0.7934 0.0
C542 C 0.86079 0.80678 0.78366 0.0
C543 C 0.92657 0.75937 0.73073 0.0
C544 C 0.88099 0.7179 0.76847 0.0
H545 H 0.88639 0.86788 0.94732 0.0
H546 H 0.80929 0.93364 0.84222 0.0
H547 H 0.78068 0.85204 0.84571 0.0
H548 H 0.78572 0.83026 0.79368 0.0
H549 H 0.77422 0.8762 0.79441 0.0
H550 H 0.86676 0.90158 0.77649 0.0
H551 H 0.82146 0.91057 0.76443 0.0
H552 H 0.84385 0.87451 0.73806 0.0
H553 H 0.98096 0.77677 0.94916 0.0
H554 H 0.99722 0.69834 0.84534 0.0
H555 H 0.9463 0.71959 0.80503 0.0
H556 H 0.96733 0.83814 0.88296 0.0
H557 H 0.96053 0.84047 0.94298 0.0
H558 H 0.93345 0.86458 0.90438 0.0
H559 H 0.89512 0.77079 0.95313 0.0
H560 H 0.87658 0.81291 0.95348 0.0
H561 H 0.91802 0.80546 0.98145 0.0
H562 H 0.86698 0.92585 0.96775 0.0
C563 C 0.86948 0.8811 0.92392 0.0
C564 C 0.23586 0.93217 0.10722 0.0
C565 C 0.22811 0.91623 0.06556 0.0
H566 H 0.24833 0.97939 0.14173 0.0
C567 C 0.23659 0.93399 0.02537 0.0
H568 H 0.23052 0.9189 0.13885 0.0
C569 C 0.24736 0.96896 0.02691 0.0
C570 C 0.24977 0.98662 0.06865 0.0
H571 H 0.23217 0.92196 0.99264 0.0
H572 H 0.25071 0.98294 0.99535 0.0
C573 C 0.24657 0.96702 0.10878 0.0
C574 C 0.55733 0.74496 0.5322 0.0
C575 C 0.57985 0.73673 0.56822 0.0
H576 H 0.50488 0.7589 0.51319 0.0
C577 C 0.57006 0.74678 0.61235 0.0
H578 H 0.56477 0.73918 0.49762 0.0
C579 C 0.5362 0.75878 0.62119 0.0
C580 C 0.51152 0.76082 0.58606 0.0
H581 H 0.58728 0.7421 0.64086 0.0
H582 H 0.52832 0.76213 0.65618 0.0
C583 C 0.52318 0.75667 0.54109 0.0
C584 C 0.76115 0.07692 0.10448 0.0
C585 C 0.76622 0.0833 0.05813 0.0
H586 H 0.74734 0.0393 0.15478 0.0
C587 C 0.75271 0.05943 0.02637 0.0
H588 H 0.77056 0.09526 0.12974 0.0
C589 C 0.73896 0.02745 0.04076 0.0
C590 C 0.73855 0.01901 0.08707 0.0
H591 H 0.75545 0.06411 0.99038 0.0
H592 H 0.73198 0.00799 0.01557 0.0
C593 C 0.74733 0.045 0.11886 0.0
C594 C 0.43059 0.2724 0.61246 0.0
C595 C 0.42092 0.27799 0.56718 0.0
H596 H 0.46986 0.2542 0.65787 0.0
C597 C 0.44098 0.26265 0.53254 0.0
H598 H 0.41518 0.28308 0.64008 0.0
C599 C 0.47229 0.24537 0.54284 0.0
C600 C 0.48387 0.24319 0.58797 0.0
H601 H 0.43333 0.26527 0.49748 0.0
H602 H 0.48881 0.23624 0.51537 0.0
C603 C 0.46167 0.25506 0.62277 0.0
C604 C 0.7497 0.57248 0.47666 0.0
C605 C 0.74182 0.59696 0.44286 0.0
H606 H 0.75675 0.5181 0.4917 0.0
C607 C 0.74846 0.58766 0.39749 0.0
H608 H 0.74503 0.57888 0.51194 0.0
C609 C 0.75399 0.55254 0.3856 0.0
C610 C 0.75382 0.52658 0.41921 0.0
H611 H 0.74284 0.60617 0.3707 0.0
H612 H 0.75306 0.54541 0.3501 0.0
C613 C 0.75571 0.53738 0.46489 0.0
C614 C 0.90807 0.25277 0.89649 0.0
C615 C 0.90079 0.24287 0.94129 0.0
H616 H 0.94783 0.26837 0.84972 0.0
C617 C 0.92366 0.2536 0.97577 0.0
H618 H 0.8907 0.24476 0.86934 0.0
C619 C 0.9566 0.26723 0.96454 0.0
C620 C 0.9668 0.26977 0.91879 0.0
H621 H 0.91868 0.24615 0.01056 0.0
H622 H 0.9759 0.2703 0.99117 0.0
C623 C 0.94097 0.26631 0.88522 0.0
C624 C 0.28573 0.4213 0.39744 0.0
C625 C 0.28579 0.41449 0.4441 0.0
H626 H 0.27417 0.45805 0.34525 0.0
C627 C 0.26818 0.43756 0.47348 0.0
H628 H 0.29837 0.40357 0.37383 0.0
C629 C 0.25428 0.46893 0.45709 0.0
C630 C 0.25701 0.47712 0.41088 0.0
H631 H 0.26648 0.43215 0.50938 0.0
H632 H 0.24333 0.48769 0.4808 0.0
C633 C 0.27131 0.45227 0.38096 0.0
C634 C 0.0912 0.73546 0.90894 0.0
C635 C 0.09501 0.74584 0.9543 0.0
H636 H 0.05503 0.72447 0.8556 0.0
C637 C 0.06715 0.73969 0.98432 0.0
H638 H 0.11233 0.73998 0.88508 0.0
C639 C 0.03392 0.73119 0.96746 0.0
C640 C 0.02846 0.72827 0.92045 0.0
H641 H 0.06938 0.74745 0.01954 0.0
H642 H 0.01185 0.7312 0.99058 0.0
C643 C 0.05801 0.72703 0.89192 0.0
C644 C 0.82599 0.02225 0.96749 0.0
C645 C 0.83542 0.04572 0.93304 0.0
H646 H 0.81861 0.96832 0.98588 0.0
C647 C 0.84091 0.03267 0.88906 0.0
H648 H 0.82192 0.03154 0.00177 0.0
C649 C 0.83898 0.99683 0.88002 0.0
C650 C 0.83193 0.97292 0.91489 0.0
H651 H 0.84805 0.05017 0.86175 0.0
H652 H 0.84522 0.98774 0.84618 0.0
C653 C 0.82445 0.98609 0.95849 0.0
C654 C 0.45616 0.34969 0.43908 0.0
C655 C 0.43696 0.31937 0.42903 0.0
H656 H 0.50457 0.37713 0.43233 0.0
C657 C 0.45432 0.29083 0.40911 0.0
H658 H 0.44308 0.37241 0.45331 0.0
C659 C 0.49004 0.29298 0.39808 0.0
C660 C 0.50898 0.32433 0.40488 0.0
H661 H 0.43991 0.2673 0.40051 0.0
H662 H 0.50234 0.27035 0.38267 0.0
C663 C 0.49162 0.35229 0.42689 0.0
C664 C 0.15008 0.96729 0.99861 0.0
C665 C 0.15739 0.94353 0.96363 0.0
H666 H 0.14081 0.02092 0.01652 0.0
C667 C 0.16496 0.95605 0.92021 0.0
H668 H 0.14379 0.95795 0.03225 0.0
C669 C 0.16329 0.99183 0.91106 0.0
C670 C 0.15347 0.01575 0.94511 0.0
H671 H 0.17005 0.93793 0.89266 0.0
H672 H 0.16721 0.00033 0.87649 0.0
C673 C 0.14792 0.00317 0.98937 0.0
C674 C 0.52452 0.67717 0.47719 0.0
C675 C 0.55027 0.67361 0.44383 0.0
H676 H 0.46985 0.68081 0.49117 0.0
C677 C 0.54044 0.67481 0.39799 0.0
H678 H 0.53134 0.6754 0.51271 0.0
C679 C 0.50518 0.67749 0.38563 0.0
C680 C 0.4789 0.67874 0.41897 0.0
H681 H 0.55998 0.67166 0.37162 0.0
H682 H 0.49856 0.67592 0.35004 0.0
C683 C 0.48925 0.67997 0.46478 0.0
C684 C 0.33074 0.4546 0.54713 0.0
C685 C 0.32293 0.43546 0.58648 0.0
H686 H 0.33684 0.50508 0.5168 0.0
C687 C 0.31551 0.45392 0.62653 0.0
H688 H 0.33767 0.44132 0.51599 0.0
C689 C 0.31687 0.49038 0.6277 0.0
C690 C 0.32485 0.50982 0.58853 0.0
H691 H 0.30977 0.44015 0.65768 0.0
H692 H 0.31305 0.50299 0.66018 0.0
C693 C 0.33102 0.49133 0.5479 0.0
C694 C 0.02926 0.82785 0.03933 0.0
C695 C 0.05081 0.83581 0.07662 0.0
H696 H 0.97678 0.82008 0.01541 0.0
C697 C 0.03532 0.84203 0.119 0.0
H698 H 0.04045 0.82244 0.00632 0.0
C699 C -0.00096 0.84072 0.12397 0.0
C700 C 0.97746 0.833 0.08672 0.0
H701 H 0.05119 0.84821 0.14836 0.0
H702 H 0.98782 0.84656 0.15685 0.0
C703 C 0.99287 0.82644 0.0444 0.0
C704 C 0.64659 0.54013 0.61455 0.0
C705 C 0.64922 0.5546 0.57096 0.0
H706 H 0.64658 0.49394 0.65497 0.0
C707 C 0.65372 0.5321 0.53371 0.0
H708 H 0.64292 0.55667 0.64404 0.0
C709 C 0.6559 0.49589 0.54014 0.0
C710 C 0.65433 0.48151 0.58389 0.0
H711 H 0.65591 0.54242 0.49969 0.0
H712 H 0.65898 0.47913 0.5109 0.0
C713 C 0.64919 0.50409 0.62093 0.0
C714 C 0.95465 0.15763 0.06095 0.0
C715 C 0.93244 0.15233 0.09849 0.0
H716 H 0.0074 0.16598 0.03763 0.0
C717 C 0.94746 0.15055 0.14187 0.0
H718 H 0.94399 0.15918 0.02702 0.0
C719 C 0.98345 0.15471 0.1478 0.0
C720 C 0.00561 0.1607 0.11061 0.0
H721 H 0.93139 0.14628 0.17159 0.0
H722 H 0.994 0.15302 0.18178 0.0
C723 C 0.99096 0.16157 0.06695 0.0
C724 C 0.19623 0.709 0.09079 0.0
C725 C 0.20981 0.7348 0.06217 0.0
H726 H 0.20692 0.67104 0.14107 0.0
C727 C 0.24598 0.73539 0.05346 0.0
H728 H 0.16841 0.70833 0.0983 0.0
C729 C 0.26867 0.71375 0.07823 0.0
C730 C 0.25535 0.6914 0.11206 0.0
H731 H 0.25704 0.75534 0.0317 0.0
H732 H 0.29666 0.71666 0.07347 0.0
C733 C 0.21867 0.6876 0.11558 0.0
C734 C 0.7837 0.68774 0.59727 0.0
C735 C 0.76016 0.70409 0.56759 0.0
H736 H 0.82153 0.69403 0.64938 0.0
C737 C 0.76344 0.74018 0.55989 0.0
H738 H 0.78146 0.65993 0.60403 0.0
C739 C 0.78678 0.76019 0.58608 0.0
C740 C 0.80697 0.74436 0.6205 0.0
H741 H 0.74534 0.75347 0.53748 0.0
H742 H 0.787 0.78832 0.58166 0.0
C743 C 0.80673 0.70756 0.62353 0.0
C744 C 0.78636 0.26431 0.07325 0.0
C745 C 0.78673 0.22888 0.08613 0.0
H746 H 0.77225 0.31705 0.09197 0.0
C747 C 0.77166 0.21943 0.12775 0.0
H748 H 0.79783 0.27233 0.04136 0.0
C749 C 0.75681 0.24465 0.15611 0.0
C750 C 0.75691 0.28017 0.14396 0.0
H751 H 0.77129 0.19236 0.13857 0.0
H752 H 0.74583 0.23637 0.18819 0.0
C753 C 0.7719 0.28985 0.10223 0.0
C754 C 0.25567 0.24266 0.59791 0.0
C755 C 0.2745 0.27307 0.60904 0.0
H756 H 0.2194 0.20352 0.6209 0.0
C757 C 0.26937 0.28875 0.65164 0.0
H758 H 0.25907 0.2302 0.5652 0.0
C759 C 0.24614 0.27409 0.68281 0.0
C760 C 0.22817 0.24313 0.67225 0.0
H761 H 0.28312 0.31252 0.66084 0.0
H762 H 0.24294 0.28639 0.71567 0.0
C763 C 0.23302 0.22751 0.62958 0.0
C764 C 0.69223 0.75374 0.38263 0.0
C765 C 0.70866 0.73383 0.41641 0.0
H766 H 0.6981 0.79061 0.32941 0.0
C767 C 0.74405 0.74013 0.42659 0.0
H768 H 0.66481 0.74985 0.37444 0.0
C769 C 0.76329 0.76418 0.40089 0.0
C770 C 0.74731 0.78228 0.36486 0.0
H771 H 0.75725 0.72531 0.45276 0.0
H772 H 0.79093 0.76759 0.40805 0.0
C773 C 0.71129 0.77759 0.35714 0.0
C774 C 0.76223 0.24433 0.92139 0.0
C775 C 0.76858 0.20936 0.9089 0.0
H776 H 0.73469 0.29187 0.9058 0.0
C777 C 0.74907 0.19436 0.87362 0.0
H778 H 0.77681 0.25642 0.94873 0.0
C779 C 0.72521 0.21436 0.84937 0.0
C780 C 0.72015 0.24993 0.85982 0.0
H781 H 0.7531 0.16734 0.86358 0.0
H782 H 0.71223 0.20227 0.82071 0.0
C783 C 0.73827 0.26458 0.89679 0.0
C784 C 0.24996 0.24726 0.42439 0.0
C785 C 0.27991 0.26714 0.41445 0.0
H786 H 0.21417 0.20781 0.40067 0.0
C787 C 0.2983 0.26101 0.37407 0.0
H788 H 0.23558 0.2515 0.45558 0.0
C789 C 0.28668 0.23583 0.34359 0.0
C790 C 0.25621 0.21663 0.35268 0.0
H791 H 0.32191 0.27546 0.36611 0.0
H792 H 0.30101 0.23201 0.31226 0.0
C793 C 0.23784 0.2224 0.39325 0.0
C794 C 0.23118 0.752 0.9186 0.0
C795 C 0.22299 0.787 0.90857 0.0
H796 H 0.25864 0.70567 0.89759 0.0
C797 C 0.23903 0.80321 0.87137 0.0
H798 H 0.21927 0.73894 0.94726 0.0
C799 C 0.26135 0.78434 0.84321 0.0
C800 C 0.26816 0.74882 0.85162 0.0
H801 H 0.23345 0.83027 0.86306 0.0
H802 H 0.27185 0.79721 0.8135 0.0
C803 C 0.25352 0.73296 0.89015 0.0
loop_
_geom_bond_atom_site_label_1
_geom_bond_atom_site_label_2
_geom_bond_distance
_geom_bond_site_symmetry_2
_ccdc_geom_bond_type
Zn0 O6 1.920 . S
Zn0 O12 1.898 . S
Zn0 O15 1.905 . S
Zn1 O9 1.905 . S
Zn1 O10 1.898 . S
Zn1 O18 1.920 . S
Zn2 O5 2.080 . S
Zn2 O8 2.114 1_554 S
Zn2 O11 2.120 1_554 S
Zn2 O13 2.120 . S
Zn2 O14 2.114 . S
Zn2 O17 2.080 1_554 S
C3 O8 1.166 . S
C3 O9 1.182 . S
C4 O10 1.167 . S
C4 O11 1.299 . S
O5 Zn2 2.080 . S
O5 C19 1.305 . S
O6 Zn0 1.920 . S
O6 C19 1.234 . S
C7 O12 1.167 . S
C7 O13 1.299 . S
O8 Zn2 2.114 1_556 S
O8 C3 1.166 . S
O9 Zn1 1.905 . S
O9 C3 1.182 . S
O10 Zn1 1.898 . S
O10 C4 1.167 . S
O11 Zn2 2.120 1_556 S
O11 C4 1.299 . S
O12 Zn0 1.898 . S
O12 C7 1.167 . S
O13 Zn2 2.120 . S
O13 C7 1.299 . S
O14 Zn2 2.114 . S
O14 C16 1.166 . S
O15 Zn0 1.905 . S
O15 C16 1.182 . S
C16 O14 1.166 . S
C16 O15 1.182 . S
O17 Zn2 2.080 1_556 S
O17 C20 1.305 . S
O18 Zn1 1.920 . S
O18 C20 1.234 . S
C19 O5 1.305 . S
C19 O6 1.234 . S
C20 O17 1.305 . S
C20 O18 1.234 . S
Zn21 O27 1.920 . S
Zn21 O33 1.898 . S
Zn21 O36 1.905 . S
Zn22 O30 1.905 . S
Zn22 O31 1.898 . S
Zn22 O39 1.920 . S
Zn23 O26 2.080 . S
Zn23 O29 2.114 . S
Zn23 O32 2.120 . S
Zn23 O34 2.120 . S
Zn23 O35 2.114 . S
Zn23 O38 2.080 . S
C24 O29 1.166 . S
C24 O30 1.182 . S
C25 O31 1.167 . S
C25 O32 1.299 . S
O26 Zn23 2.080 . S
O26 C40 1.305 . S
O27 Zn21 1.920 . S
O27 C40 1.234 . S
C28 O33 1.167 . S
C28 O34 1.299 . S
O29 Zn23 2.114 . S
O29 C24 1.166 . S
O30 Zn22 1.905 . S
O30 C24 1.182 . S
O31 Zn22 1.898 . S
O31 C25 1.167 . S
O32 Zn23 2.120 . S
O32 C25 1.299 . S
O33 Zn21 1.898 . S
O33 C28 1.167 . S
O34 Zn23 2.120 . S
O34 C28 1.299 . S
O35 Zn23 2.114 . S
O35 C37 1.166 . S
O36 Zn21 1.905 . S
O36 C37 1.182 . S
C37 O35 1.166 . S
C37 O36 1.182 . S
O38 Zn23 2.080 . S
O38 C41 1.305 . S
O39 Zn22 1.920 . S
O39 C41 1.234 . S
C40 O26 1.305 . S
C40 O27 1.234 . S
C41 O38 1.305 . S
C41 O39 1.234 . S
Zn42 O48 1.920 . S
Zn42 O54 1.898 . S
Zn42 O57 1.905 . S
Zn43 O51 1.905 . S
Zn43 O52 1.898 . S
Zn43 O60 1.920 . S
Zn44 O47 2.080 1_554 S
Zn44 O50 2.114 . S
Zn44 O53 2.120 . S
Zn44 O55 2.120 1_554 S
Zn44 O56 2.114 1_554 S
Zn44 O59 2.080 . S
C45 O50 1.166 . S
C45 O51 1.182 . S
C46 O52 1.167 . S
C46 O53 1.299 . S
O47 Zn44 2.080 1_556 S
O47 C61 1.305 . S
O48 Zn42 1.920 . S
O48 C61 1.234 . S
C49 O54 1.167 . S
C49 O55 1.299 . S
O50 Zn44 2.114 . S
O50 C45 1.166 . S
O51 Zn43 1.905 . S
O51 C45 1.182 . S
O52 Zn43 1.898 . S
O52 C46 1.167 . S
O53 Zn44 2.120 . S
O53 C46 1.299 . S
O54 Zn42 1.898 . S
O54 C49 1.167 . S
O55 Zn44 2.120 1_556 S
O55 C49 1.299 . S
O56 Zn44 2.114 1_556 S
O56 C58 1.166 . S
O57 Zn42 1.905 . S
O57 C58 1.182 . S
C58 O56 1.166 . S
C58 O57 1.182 . S
O59 Zn44 2.080 . S
O59 C62 1.305 . S
O60 Zn43 1.920 . S
O60 C62 1.234 . S
C61 O47 1.305 . S
C61 O48 1.234 . S
C62 O59 1.305 . S
C62 O60 1.234 . S
Zn63 O69 1.920 . S
Zn63 O75 1.898 . S
Zn63 O78 1.905 . S
Zn64 O72 1.905 . S
Zn64 O73 1.898 . S
Zn64 O81 1.920 . S
Zn65 O68 2.080 . S
Zn65 O71 2.114 . S
Zn65 O74 2.120 . S
Zn65 O76 2.120 . S
Zn65 O77 2.114 . S
Zn65 O80 2.080 . S
C66 O71 1.166 . S
C66 O72 1.182 . S
C67 O73 1.167 . S
C67 O74 1.299 . S
O68 Zn65 2.080 . S
O68 C82 1.305 . S
O69 Zn63 1.920 . S
O69 C82 1.234 . S
C70 O75 1.167 . S
C70 O76 1.299 . S
O71 Zn65 2.114 . S
O71 C66 1.166 . S
O72 Zn64 1.905 . S
O72 C66 1.182 . S
O73 Zn64 1.898 . S
O73 C67 1.167 . S
O74 Zn65 2.120 . S
O74 C67 1.299 . S
O75 Zn63 1.898 . S
O75 C70 1.167 . S
O76 Zn65 2.120 . S
O76 C70 1.299 . S
O77 Zn65 2.114 . S
O77 C79 1.166 . S
O78 Zn63 1.905 . S
O78 C79 1.182 . S
C79 O77 1.166 . S
C79 O78 1.182 . S
O80 Zn65 2.080 . S
O80 C83 1.305 . S
O81 Zn64 1.920 . S
O81 C83 1.234 . S
C82 O68 1.305 . S
C82 O69 1.234 . S
C83 O80 1.305 . S
C83 O81 1.234 . S
C84 C85 1.391 1_545 S
C84 C88 1.391 . S
C84 H126 0.948 . S
C85 C84 1.391 1_565 S
C85 C86 1.391 1_565 S
C86 C85 1.391 1_545 S
C86 H142 0.947 1_545 S
C86 C143 1.392 . S
C87 C88 1.391 . S
C87 C91 1.397 . S
C87 C143 1.419 . S
C88 C84 1.391 . S
C88 C87 1.391 . S
C88 C89 1.399 . S
C89 C88 1.399 . S
C89 C92 1.396 . S
C89 C101 1.453 . S
C89 C102 1.684 . S
H90 C114 0.948 . S
C91 C87 1.397 . S
C91 C92 1.394 . S
C91 C110 1.723 . S
C92 C89 1.396 . S
C92 C91 1.394 . S
C92 C122 1.723 . S
H93 C116 0.947 . S
H94 C117 0.948 . S
H95 C123 0.982 . S
H96 C124 0.979 . S
H97 C124 0.980 . S
H98 C124 0.983 . S
H99 C123 0.979 . S
H100 C123 0.977 . S
C101 C89 1.453 . S
C101 H130 0.982 . S
C101 H131 0.979 . S
C101 H132 0.977 . S
C102 C89 1.684 . S
C102 H127 0.979 . S
C102 H128 0.980 . S
C102 H129 0.983 . S
C103 C104 1.391 . S
C103 C108 1.391 . S
C103 H133 0.948 . S
C104 C103 1.391 . S
C104 C105 1.391 . S
C105 C104 1.391 . S
C105 C106 1.392 . S
C105 H134 0.947 . S
C106 C105 1.392 . S
C106 C107 1.419 . S
C106 H135 0.948 . S
C107 C106 1.419 . S
C107 C108 1.391 . S
C107 C111 1.397 . S
C108 C103 1.391 . S
C108 C107 1.391 . S
C108 C109 1.399 . S
C109 C108 1.399 . S
C109 C110 1.396 . S
C109 C112 1.453 . S
C109 C113 1.684 . S
C110 C91 1.723 . S
C110 C109 1.396 . S
C110 C111 1.394 . S
C111 C107 1.397 . S
C111 C110 1.394 . S
C111 C121 1.723 . S
C112 C109 1.453 . S
C112 H136 0.982 . S
C112 H137 0.979 . S
C112 H138 0.977 . S
C113 C109 1.684 . S
C113 H139 0.979 . S
C113 H140 0.980 . S
C113 H141 0.983 . S
C114 H90 0.948 . S
C114 C115 1.391 . S
C114 C119 1.391 . S
C115 C114 1.391 . S
C115 C116 1.391 . S
C116 H93 0.947 . S
C116 C115 1.391 . S
C116 C117 1.392 . S
C117 H94 0.948 . S
C117 C116 1.392 . S
C117 C118 1.419 . S
C118 C117 1.419 . S
C118 C119 1.391 . S
C118 C122 1.397 . S
C119 C114 1.391 . S
C119 C118 1.391 . S
C119 C120 1.399 . S
C120 C119 1.399 . S
C120 C121 1.396 . S
C120 C123 1.453 . S
C120 C124 1.684 . S
C121 C111 1.723 . S
C121 C120 1.396 . S
C121 C122 1.394 . S
C122 C92 1.723 . S
C122 C118 1.397 . S
C122 C121 1.394 . S
C123 H95 0.982 . S
C123 H99 0.979 . S
C123 H100 0.977 . S
C123 C120 1.453 . S
C124 H96 0.979 . S
C124 H97 0.980 . S
C124 H98 0.983 . S
C124 C120 1.684 . S
H125 C143 0.948 . S
H126 C84 0.948 . S
H127 C102 0.979 . S
H128 C102 0.980 . S
H129 C102 0.983 . S
H130 C101 0.982 . S
H131 C101 0.979 . S
H132 C101 0.977 . S
H133 C103 0.948 . S
H134 C105 0.947 . S
H135 C106 0.948 . S
H136 C112 0.982 . S
H137 C112 0.979 . S
H138 C112 0.977 . S
H139 C113 0.979 . S
H140 C113 0.980 . S
H141 C113 0.983 . S
H142 C86 0.947 1_565 S
C143 C86 1.392 . S
C143 C87 1.419 . S
C143 H125 0.948 . S
C144 C145 1.391 . S
C144 C148 1.391 . S
C144 H186 0.948 . S
C145 C144 1.391 . S
C145 C146 1.391 . S
C146 C145 1.391 . S
C146 H202 0.947 . S
C146 C203 1.392 . S
C147 C148 1.391 . S
C147 C151 1.397 . S
C147 C203 1.419 . S
C148 C144 1.391 . S
C148 C147 1.391 . S
C148 C149 1.399 . S
C149 C148 1.399 . S
C149 C152 1.396 . S
C149 C161 1.453 . S
C149 C162 1.684 . S
H150 C174 0.948 . S
C151 C147 1.397 . S
C151 C152 1.394 . S
C151 C170 1.723 . S
C152 C149 1.396 . S
C152 C151 1.394 . S
C152 C182 1.723 . S
H153 C176 0.947 . S
H154 C177 0.948 . S
H155 C183 0.982 . S
H156 C184 0.979 . S
H157 C184 0.980 . S
H158 C184 0.983 . S
H159 C183 0.979 . S
H160 C183 0.977 . S
C161 C149 1.453 . S
C161 H190 0.982 . S
C161 H191 0.979 . S
C161 H192 0.977 . S
C162 C149 1.684 . S
C162 H187 0.979 . S
C162 H188 0.980 . S
C162 H189 0.983 . S
C163 C164 1.391 . S
C163 C168 1.391 . S
C163 H193 0.948 . S
C164 C163 1.391 . S
C164 C165 1.391 . S
C165 C164 1.391 . S
C165 C166 1.392 . S
C165 H194 0.947 . S
C166 C165 1.392 . S
C166 C167 1.419 . S
C166 H195 0.948 . S
C167 C166 1.419 . S
C167 C168 1.391 . S
C167 C171 1.397 . S
C168 C163 1.391 . S
C168 C167 1.391 . S
C168 C169 1.399 . S
C169 C168 1.399 . S
C169 C170 1.396 . S
C169 C172 1.453 . S
C169 C173 1.684 . S
C170 C151 1.723 . S
C170 C169 1.396 . S
C170 C171 1.394 . S
C171 C167 1.397 . S
C171 C170 1.394 . S
C171 C181 1.723 . S
C172 C169 1.453 . S
C172 H196 0.982 . S
C172 H197 0.979 . S
C172 H198 0.977 . S
C173 C169 1.684 . S
C173 H199 0.979 . S
C173 H200 0.980 . S
C173 H201 0.983 . S
C174 H150 0.948 . S
C174 C175 1.391 . S
C174 C179 1.391 . S
C175 C174 1.391 . S
C175 C176 1.391 . S
C176 H153 0.947 . S
C176 C175 1.391 . S
C176 C177 1.392 . S
C177 H154 0.948 . S
C177 C176 1.392 . S
C177 C178 1.419 . S
C178 C177 1.419 . S
C178 C179 1.391 . S
C178 C182 1.397 . S
C179 C174 1.391 . S
C179 C178 1.391 . S
C179 C180 1.399 . S
C180 C179 1.399 . S
C180 C181 1.396 . S
C180 C183 1.453 . S
C180 C184 1.684 . S
C181 C171 1.723 . S
C181 C180 1.396 . S
C181 C182 1.394 . S
C182 C152 1.723 . S
C182 C178 1.397 . S
C182 C181 1.394 . S
C183 H155 0.982 . S
C183 H159 0.979 . S
C183 H160 0.977 . S
C183 C180 1.453 . S
C184 H156 0.979 . S
C184 H157 0.980 . S
C184 H158 0.983 . S
C184 C180 1.684 . S
H185 C203 0.948 . S
H186 C144 0.948 . S
H187 C162 0.979 . S
H188 C162 0.980 . S
H189 C162 0.983 . S
H190 C161 0.982 . S
H191 C161 0.979 . S
H192 C161 0.977 . S
H193 C163 0.948 . S
H194 C165 0.947 . S
H195 C166 0.948 . S
H196 C172 0.982 . S
H197 C172 0.979 . S
H198 C172 0.977 . S
H199 C173 0.979 . S
H200 C173 0.980 . S
H201 C173 0.983 . S
H202 C146 0.947 . S
C203 C146 1.392 . S
C203 C147 1.419 . S
C203 H185 0.948 . S
C204 C205 1.391 . S
C204 C208 1.391 . S
C204 H246 0.948 . S
C205 C204 1.391 . S
C205 C206 1.391 . S
C206 C205 1.391 . S
C206 H262 0.947 . S
C206 C263 1.392 . S
C207 C208 1.391 . S
C207 C211 1.397 . S
C207 C263 1.419 . S
C208 C204 1.391 . S
C208 C207 1.391 . S
C208 C209 1.399 . S
C209 C208 1.399 . S
C209 C212 1.396 . S
C209 C221 1.453 . S
C209 C222 1.684 . S
H210 C234 0.938 1_545 S
C211 C207 1.397 . S
C211 C212 1.394 . S
C211 C230 1.723 . S
C212 C209 1.396 . S
C212 C211 1.394 . S
C212 C242 1.723 . S
H213 C236 0.947 . S
H214 C237 0.948 . S
H215 C243 0.982 . S
H216 C244 0.979 . S
H217 C244 0.980 . S
H218 C244 0.983 . S
H219 C243 0.979 . S
H220 C243 0.977 . S
C221 C209 1.453 . S
C221 H250 0.982 . S
C221 H251 0.979 . S
C221 H252 0.977 . S
C222 C209 1.684 . S
C222 H247 0.979 . S
C222 H248 0.980 . S
C222 H249 0.983 . S
C223 C224 1.391 . S
C223 C228 1.391 . S
C223 H253 0.948 . S
C224 C223 1.391 . S
C224 C225 1.391 . S
C225 C224 1.391 . S
C225 C226 1.392 . S
C225 H254 0.947 . S
C226 C225 1.392 . S
C226 C227 1.419 . S
C226 H255 0.948 . S
C227 C226 1.419 . S
C227 C228 1.391 . S
C227 C231 1.397 . S
C228 C223 1.391 . S
C228 C227 1.391 . S
C228 C229 1.399 . S
C229 C228 1.399 . S
C229 C230 1.396 . S
C229 C232 1.453 . S
C229 C233 1.684 . S
C230 C211 1.723 . S
C230 C229 1.396 . S
C230 C231 1.394 . S
C231 C227 1.397 . S
C231 C230 1.394 . S
C231 C241 1.723 . S
C232 C229 1.453 . S
C232 H256 0.982 . S
C232 H257 0.979 . S
C232 H258 0.977 . S
C233 C229 1.684 . S
C233 H259 0.979 . S
C233 H260 0.980 . S
C233 H261 0.983 . S
C234 H210 0.938 1_565 S
C234 C235 1.391 1_565 S
C234 C239 1.391 . S
C235 C234 1.391 1_545 S
C235 C236 1.391 1_545 S
C236 H213 0.947 . S
C236 C235 1.391 1_565 S
C236 C237 1.392 . S
C237 H214 0.948 . S
C237 C236 1.392 . S
C237 C238 1.419 . S
C238 C237 1.419 . S
C238 C239 1.391 . S
C238 C242 1.397 . S
C239 C234 1.391 . S
C239 C238 1.391 . S
C239 C240 1.399 . S
C240 C239 1.399 . S
C240 C241 1.396 . S
C240 C243 1.453 . S
C240 C244 1.684 . S
C241 C231 1.723 . S
C241 C240 1.396 . S
C241 C242 1.394 . S
C242 C212 1.723 . S
C242 C238 1.397 . S
C242 C241 1.394 . S
C243 H215 0.982 . S
C243 H219 0.979 . S
C243 H220 0.977 . S
C243 C240 1.453 . S
C244 H216 0.979 . S
C244 H217 0.980 . S
C244 H218 0.983 . S
C244 C240 1.684 . S
H245 C263 0.948 . S
H246 C204 0.948 . S
H247 C222 0.979 . S
H248 C222 0.980 . S
H249 C222 0.983 . S
H250 C221 0.982 . S
H251 C221 0.979 . S
H252 C221 0.977 . S
H253 C223 0.948 . S
H254 C225 0.947 . S
H255 C226 0.948 . S
H256 C232 0.982 . S
H257 C232 0.979 . S
H258 C232 0.977 . S
H259 C233 0.979 . S
H260 C233 0.980 . S
H261 C233 0.983 . S
H262 C206 0.947 . S
C263 C206 1.392 . S
C263 C207 1.419 . S
C263 H245 0.948 . S
C264 C265 1.391 . S
C264 C268 1.391 . S
C264 H306 0.948 . S
C265 C264 1.391 . S
C265 C266 1.391 . S
C266 C265 1.391 . S
C266 H322 0.947 . S
C266 C323 1.392 . S
C267 C268 1.391 . S
C267 C271 1.397 . S
C267 C323 1.419 . S
C268 C264 1.391 . S
C268 C267 1.391 . S
C268 C269 1.399 . S
C269 C268 1.399 . S
C269 C272 1.396 . S
C269 C281 1.453 . S
C269 C282 1.684 . S
H270 C294 0.948 . S
C271 C267 1.397 . S
C271 C272 1.394 . S
C271 C290 1.723 . S
C272 C269 1.396 . S
C272 C271 1.394 . S
C272 C302 1.723 . S
H273 C296 0.947 . S
H274 C297 0.948 . S
H275 C303 0.982 . S
H276 C304 0.979 . S
H277 C304 0.980 . S
H278 C304 0.983 . S
H279 C303 0.979 . S
H280 C303 0.977 . S
C281 C269 1.453 . S
C281 H310 0.982 . S
C281 H311 0.979 . S
C281 H312 0.977 . S
C282 C269 1.684 . S
C282 H307 0.979 . S
C282 H308 0.980 . S
C282 H309 0.983 . S
C283 C284 1.391 . S
C283 C288 1.391 . S
C283 H313 0.948 . S
C284 C283 1.391 . S
C284 C285 1.391 . S
C285 C284 1.391 . S
C285 C286 1.392 . S
C285 H314 0.947 . S
C286 C285 1.392 . S
C286 C287 1.419 . S
C286 H315 0.948 . S
C287 C286 1.419 . S
C287 C288 1.391 . S
C287 C291 1.397 . S
C288 C283 1.391 . S
C288 C287 1.391 . S
C288 C289 1.399 . S
C289 C288 1.399 . S
C289 C290 1.396 . S
C289 C292 1.453 . S
C289 C293 1.684 . S
C290 C271 1.723 . S
C290 C289 1.396 . S
C290 C291 1.394 . S
C291 C287 1.397 . S
C291 C290 1.394 . S
C291 C301 1.723 . S
C292 C289 1.453 . S
C292 H316 0.982 . S
C292 H317 0.979 . S
C292 H318 0.977 . S
C293 C289 1.684 . S
C293 H319 0.979 . S
C293 H320 0.980 . S
C293 H321 0.983 . S
C294 H270 0.948 . S
C294 C295 1.391 . S
C294 C299 1.391 . S
C295 C294 1.391 . S
C295 C296 1.391 . S
C296 H273 0.947 . S
C296 C295 1.391 . S
C296 C297 1.392 . S
C297 H274 0.948 . S
C297 C296 1.392 . S
C297 C298 1.419 . S
C298 C297 1.419 . S
C298 C299 1.391 . S
C298 C302 1.397 . S
C299 C294 1.391 . S
C299 C298 1.391 . S
C299 C300 1.399 . S
C300 C299 1.399 . S
C300 C301 1.396 . S
C300 C303 1.453 . S
C300 C304 1.684 . S
C301 C291 1.723 . S
C301 C300 1.396 . S
C301 C302 1.394 . S
C302 C272 1.723 . S
C302 C298 1.397 . S
C302 C301 1.394 . S
C303 H275 0.982 . S
C303 H279 0.979 . S
C303 H280 0.977 . S
C303 C300 1.453 . S
C304 H276 0.979 . S
C304 H277 0.980 . S
C304 H278 0.983 . S
C304 C300 1.684 . S
H305 C323 0.948 . S
H306 C264 0.948 . S
H307 C282 0.979 . S
H308 C282 0.980 . S
H309 C282 0.983 . S
H310 C281 0.982 . S
H311 C281 0.979 . S
H312 C281 0.977 . S
H313 C283 0.948 . S
H314 C285 0.947 . S
H315 C286 0.948 . S
H316 C292 0.982 . S
H317 C292 0.979 . S
H318 C292 0.977 . S
H319 C293 0.979 . S
H320 C293 0.980 . S
H321 C293 0.983 . S
H322 C266 0.947 . S
C323 C266 1.392 . S
C323 C267 1.419 . S
C323 H305 0.948 . S
C324 C325 1.391 . S
C324 C328 1.391 . S
C324 H366 0.948 . S
C325 C324 1.391 . S
C325 C326 1.391 . S
C326 C325 1.391 . S
C326 H382 0.947 . S
C326 C383 1.392 . S
C327 C328 1.391 . S
C327 C331 1.397 . S
C327 C383 1.419 . S
C328 C324 1.391 . S
C328 C327 1.391 . S
C328 C329 1.399 . S
C329 C328 1.399 . S
C329 C332 1.396 . S
C329 C341 1.453 . S
C329 C342 1.684 . S
H330 C354 0.948 . S
C331 C327 1.397 . S
C331 C332 1.394 . S
C331 C350 1.723 . S
C332 C329 1.396 . S
C332 C331 1.394 . S
C332 C362 1.723 . S
H333 C356 0.947 . S
H334 C357 0.948 . S
H335 C363 0.982 . S
H336 C364 0.979 . S
H337 C364 0.980 . S
H338 C364 0.983 . S
H339 C363 0.979 . S
H340 C363 0.977 . S
C341 C329 1.453 . S
C341 H370 0.982 . S
C341 H371 0.979 . S
C341 H372 0.977 . S
C342 C329 1.684 . S
C342 H367 0.979 . S
C342 H368 0.980 . S
C342 H369 0.983 . S
C343 C344 1.391 . S
C343 C348 1.391 . S
C343 H373 0.948 . S
C344 C343 1.391 . S
C344 C345 1.391 . S
C345 C344 1.391 . S
C345 C346 1.392 . S
C345 H374 0.947 . S
C346 C345 1.392 . S
C346 C347 1.419 . S
C346 H375 0.948 . S
C347 C346 1.419 . S
C347 C348 1.391 . S
C347 C351 1.397 . S
C348 C343 1.391 . S
C348 C347 1.391 . S
C348 C349 1.399 . S
C349 C348 1.399 . S
C349 C350 1.396 . S
C349 C352 1.453 . S
C349 C353 1.684 . S
C350 C331 1.723 . S
C350 C349 1.396 . S
C350 C351 1.394 . S
C351 C347 1.397 . S
C351 C350 1.394 . S
C351 C361 1.723 . S
C352 C349 1.453 . S
C352 H376 0.982 . S
C352 H377 0.979 . S
C352 H378 0.977 . S
C353 C349 1.684 . S
C353 H379 0.979 . S
C353 H380 0.980 . S
C353 H381 0.983 . S
C354 H330 0.948 . S
C354 C355 1.391 . S
C354 C359 1.391 . S
C355 C354 1.391 . S
C355 C356 1.391 . S
C356 H333 0.947 . S
C356 C355 1.391 . S
C356 C357 1.392 . S
C357 H334 0.948 . S
C357 C356 1.392 . S
C357 C358 1.419 . S
C358 C357 1.419 . S
C358 C359 1.391 . S
C358 C362 1.397 . S
C359 C354 1.391 . S
C359 C358 1.391 . S
C359 C360 1.399 . S
C360 C359 1.399 . S
C360 C361 1.396 . S
C360 C363 1.453 . S
C360 C364 1.684 . S
C361 C351 1.723 . S
C361 C360 1.396 . S
C361 C362 1.394 . S
C362 C332 1.723 . S
C362 C358 1.397 . S
C362 C361 1.394 . S
C363 H335 0.982 . S
C363 H339 0.979 . S
C363 H340 0.977 . S
C363 C360 1.453 . S
C364 H336 0.979 . S
C364 H337 0.980 . S
C364 H338 0.983 . S
C364 C360 1.684 . S
H365 C383 0.948 . S
H366 C324 0.948 . S
H367 C342 0.979 . S
H368 C342 0.980 . S
H369 C342 0.983 . S
H370 C341 0.982 . S
H371 C341 0.979 . S
H372 C341 0.977 . S
H373 C343 0.948 . S
H374 C345 0.947 . S
H375 C346 0.948 . S
H376 C352 0.982 . S
H377 C352 0.979 . S
H378 C352 0.977 . S
H379 C353 0.979 . S
H380 C353 0.980 . S
H381 C353 0.983 . S
H382 C326 0.947 . S
C383 C326 1.392 . S
C383 C327 1.419 . S
C383 H365 0.948 . S
C384 C385 1.391 . S
C384 C388 1.391 . S
C384 H426 0.948 . S
C385 C384 1.391 . S
C385 C386 1.391 . S
C386 C385 1.391 . S
C386 H442 0.947 . S
C386 C443 1.392 . S
C387 C388 1.391 . S
C387 C391 1.397 . S
C387 C443 1.419 . S
C388 C384 1.391 . S
C388 C387 1.391 . S
C388 C389 1.399 . S
C389 C388 1.399 . S
C389 C392 1.396 . S
C389 C401 1.453 . S
C389 C402 1.684 . S
H390 C414 0.938 1_655 S
C391 C387 1.397 . S
C391 C392 1.394 . S
C391 C410 1.723 . S
C392 C389 1.396 . S
C392 C391 1.394 . S
C392 C422 1.723 . S
H393 C416 0.947 . S
H394 C417 0.948 . S
H395 C423 0.982 . S
H396 C424 0.979 . S
H397 C424 0.980 . S
H398 C424 0.983 . S
H399 C423 0.979 . S
H400 C423 0.977 . S
C401 C389 1.453 . S
C401 H430 0.982 . S
C401 H431 0.979 . S
C401 H432 0.977 . S
C402 C389 1.684 . S
C402 H427 0.979 . S
C402 H428 0.980 . S
C402 H429 0.983 . S
C403 C404 1.391 . S
C403 C408 1.391 . S
C403 H433 0.948 . S
C404 C403 1.391 . S
C404 C405 1.391 . S
C405 C404 1.391 . S
C405 C406 1.392 . S
C405 H434 0.947 . S
C406 C405 1.392 . S
C406 C407 1.419 . S
C406 H435 0.948 . S
C407 C406 1.419 . S
C407 C408 1.391 . S
C407 C411 1.397 . S
C408 C403 1.391 . S
C408 C407 1.391 . S
C408 C409 1.399 . S
C409 C408 1.399 . S
C409 C410 1.396 . S
C409 C412 1.453 . S
C409 C413 1.684 . S
C410 C391 1.723 . S
C410 C409 1.396 . S
C410 C411 1.394 . S
C411 C407 1.397 . S
C411 C410 1.394 . S
C411 C421 1.723 . S
C412 C409 1.453 . S
C412 H436 0.982 . S
C412 H437 0.979 . S
C412 H438 0.977 . S
C413 C409 1.684 . S
C413 H439 0.979 . S
C413 H440 0.980 . S
C413 H441 0.983 . S
C414 H390 0.938 1_455 S
C414 C415 1.391 1_455 S
C414 C419 1.391 . S
C415 C414 1.391 1_655 S
C415 C416 1.391 1_655 S
C416 H393 0.947 . S
C416 C415 1.391 1_455 S
C416 C417 1.392 . S
C417 H394 0.948 . S
C417 C416 1.392 . S
C417 C418 1.419 . S
C418 C417 1.419 . S
C418 C419 1.391 . S
C418 C422 1.397 . S
C419 C414 1.391 . S
C419 C418 1.391 . S
C419 C420 1.399 . S
C420 C419 1.399 . S
C420 C421 1.396 . S
C420 C423 1.453 . S
C420 C424 1.684 . S
C421 C411 1.723 . S
C421 C420 1.396 . S
C421 C422 1.394 . S
C422 C392 1.723 . S
C422 C418 1.397 . S
C422 C421 1.394 . S
C423 H395 0.982 . S
C423 H399 0.979 . S
C423 H400 0.977 . S
C423 C420 1.453 . S
C424 H396 0.979 . S
C424 H397 0.980 . S
C424 H398 0.983 . S
C424 C420 1.684 . S
H425 C443 0.948 . S
H426 C384 0.948 . S
H427 C402 0.979 . S
H428 C402 0.980 . S
H429 C402 0.983 . S
H430 C401 0.982 . S
H431 C401 0.979 . S
H432 C401 0.977 . S
H433 C403 0.948 . S
H434 C405 0.947 . S
H435 C406 0.948 . S
H436 C412 0.982 . S
H437 C412 0.979 . S
H438 C412 0.977 . S
H439 C413 0.979 . S
H440 C413 0.980 . S
H441 C413 0.983 . S
H442 C386 0.947 . S
C443 C386 1.392 . S
C443 C387 1.419 . S
C443 H425 0.948 . S
C444 C445 1.391 . S
C444 C448 1.391 . S
C444 H486 0.948 . S
C445 C444 1.391 . S
C445 C446 1.391 . S
C446 C445 1.391 . S
C446 H502 0.947 . S
C446 C503 1.392 . S
C447 C448 1.391 . S
C447 C451 1.397 . S
C447 C503 1.419 . S
C448 C444 1.391 . S
C448 C447 1.391 . S
C448 C449 1.399 . S
C449 C448 1.399 . S
C449 C452 1.396 . S
C449 C461 1.453 . S
C449 C462 1.684 . S
H450 C474 0.948 . S
C451 C447 1.397 . S
C451 C452 1.394 . S
C451 C470 1.723 . S
C452 C449 1.396 . S
C452 C451 1.394 . S
C452 C482 1.723 . S
H453 C476 0.947 . S
H454 C477 0.948 . S
H455 C483 0.982 . S
H456 C484 0.979 . S
H457 C484 0.980 . S
H458 C484 0.983 . S
H459 C483 0.979 . S
H460 C483 0.977 . S
C461 C449 1.453 . S
C461 H490 0.982 . S
C461 H491 0.979 . S
C461 H492 0.977 . S
C462 C449 1.684 . S
C462 H487 0.979 . S
C462 H488 0.980 . S
C462 H489 0.983 . S
C463 C464 1.391 . S
C463 C468 1.391 . S
C463 H493 0.948 . S
C464 C463 1.391 . S
C464 C465 1.391 . S
C465 C464 1.391 . S
C465 C466 1.392 . S
C465 H494 0.947 . S
C466 C465 1.392 . S
C466 C467 1.419 . S
C466 H495 0.948 . S
C467 C466 1.419 . S
C467 C468 1.391 . S
C467 C471 1.397 . S
C468 C463 1.391 . S
C468 C467 1.391 . S
C468 C469 1.399 . S
C469 C468 1.399 . S
C469 C470 1.396 . S
C469 C472 1.453 . S
C469 C473 1.684 . S
C470 C451 1.723 . S
C470 C469 1.396 . S
C470 C471 1.394 . S
C471 C467 1.397 . S
C471 C470 1.394 . S
C471 C481 1.723 . S
C472 C469 1.453 . S
C472 H496 0.982 . S
C472 H497 0.979 . S
C472 H498 0.977 . S
C473 C469 1.684 . S
C473 H499 0.979 . S
C473 H500 0.980 . S
C473 H501 0.983 . S
C474 H450 0.948 . S
C474 C475 1.391 . S
C474 C479 1.391 . S
C475 C474 1.391 . S
C475 C476 1.391 . S
C476 H453 0.947 . S
C476 C475 1.391 . S
C476 C477 1.392 . S
C477 H454 0.948 . S
C477 C476 1.392 . S
C477 C478 1.419 . S
C478 C477 1.419 . S
C478 C479 1.391 . S
C478 C482 1.397 . S
C479 C474 1.391 . S
C479 C478 1.391 . S
C479 C480 1.399 . S
C480 C479 1.399 . S
C480 C481 1.396 . S
C480 C483 1.453 . S
C480 C484 1.684 . S
C481 C471 1.723 . S
C481 C480 1.396 . S
C481 C482 1.394 . S
C482 C452 1.723 . S
C482 C478 1.397 . S
C482 C481 1.394 . S
C483 H455 0.982 . S
C483 H459 0.979 . S
C483 H460 0.977 . S
C483 C480 1.453 . S
C484 H456 0.979 . S
C484 H457 0.980 . S
C484 H458 0.983 . S
C484 C480 1.684 . S
H485 C503 0.948 . S
H486 C444 0.948 . S
H487 C462 0.979 . S
H488 C462 0.980 . S
H489 C462 0.983 . S
H490 C461 0.982 . S
H491 C461 0.979 . S
H492 C461 0.977 . S
H493 C463 0.948 . S
H494 C465 0.947 . S
H495 C466 0.948 . S
H496 C472 0.982 . S
H497 C472 0.979 . S
H498 C472 0.977 . S
H499 C473 0.979 . S
H500 C473 0.980 . S
H501 C473 0.983 . S
H502 C446 0.947 . S
C503 C446 1.392 . S
C503 C447 1.419 . S
C503 H485 0.948 . S
C504 C505 1.391 . S
C504 C508 1.391 . S
C504 H546 0.948 . S
C505 C504 1.391 . S
C505 C506 1.391 . S
C506 C505 1.391 . S
C506 H562 0.947 . S
C506 C563 1.392 . S
C507 C508 1.391 . S
C507 C511 1.397 . S
C507 C563 1.419 . S
C508 C504 1.391 . S
C508 C507 1.391 . S
C508 C509 1.399 . S
C509 C508 1.399 . S
C509 C512 1.396 . S
C509 C521 1.453 . S
C509 C522 1.684 . S
H510 C534 0.948 . S
C511 C507 1.397 . S
C511 C512 1.394 . S
C511 C530 1.723 . S
C512 C509 1.396 . S
C512 C511 1.394 . S
C512 C542 1.723 . S
H513 C536 0.947 . S
H514 C537 0.948 . S
H515 C543 0.982 . S
H516 C544 0.979 . S
H517 C544 0.980 . S
H518 C544 0.983 . S
H519 C543 0.979 . S
H520 C543 0.977 . S
C521 C509 1.453 . S
C521 H550 0.982 . S
C521 H551 0.979 . S
C521 H552 0.977 . S
C522 C509 1.684 . S
C522 H547 0.979 . S
C522 H548 0.980 . S
C522 H549 0.983 . S
C523 C524 1.391 1_655 S
C523 C528 1.391 . S
C523 H553 0.938 1_655 S
C524 C523 1.391 1_455 S
C524 C525 1.391 1_455 S
C525 C524 1.391 1_655 S
C525 C526 1.392 . S
C525 H554 0.947 . S
C526 C525 1.392 . S
C526 C527 1.419 . S
C526 H555 0.948 . S
C527 C526 1.419 . S
C527 C528 1.391 . S
C527 C531 1.397 . S
C528 C523 1.391 . S
C528 C527 1.391 . S
C528 C529 1.399 . S
C529 C528 1.399 . S
C529 C530 1.396 . S
C529 C532 1.453 . S
C529 C533 1.684 . S
C530 C511 1.723 . S
C530 C529 1.396 . S
C530 C531 1.394 . S
C531 C527 1.397 . S
C531 C530 1.394 . S
C531 C541 1.723 . S
C532 C529 1.453 . S
C532 H556 0.982 . S
C532 H557 0.979 . S
C532 H558 0.977 . S
C533 C529 1.684 . S
C533 H559 0.979 . S
C533 H560 0.980 . S
C533 H561 0.983 . S
C534 H510 0.948 . S
C534 C535 1.391 . S
C534 C539 1.391 . S
C535 C534 1.391 . S
C535 C536 1.391 . S
C536 H513 0.947 . S
C536 C535 1.391 . S
C536 C537 1.392 . S
C537 H514 0.948 . S
C537 C536 1.392 . S
C537 C538 1.419 . S
C538 C537 1.419 . S
C538 C539 1.391 . S
C538 C542 1.397 . S
C539 C534 1.391 . S
C539 C538 1.391 . S
C539 C540 1.399 . S
C540 C539 1.399 . S
C540 C541 1.396 . S
C540 C543 1.453 . S
C540 C544 1.684 . S
C541 C531 1.723 . S
C541 C540 1.396 . S
C541 C542 1.394 . S
C542 C512 1.723 . S
C542 C538 1.397 . S
C542 C541 1.394 . S
C543 H515 0.982 . S
C543 H519 0.979 . S
C543 H520 0.977 . S
C543 C540 1.453 . S
C544 H516 0.979 . S
C544 H517 0.980 . S
C544 H518 0.983 . S
C544 C540 1.684 . S
H545 C563 0.948 . S
H546 C504 0.948 . S
H547 C522 0.979 . S
H548 C522 0.980 . S
H549 C522 0.983 . S
H550 C521 0.982 . S
H551 C521 0.979 . S
H552 C521 0.977 . S
H553 C523 0.938 1_455 S
H554 C525 0.947 . S
H555 C526 0.948 . S
H556 C532 0.982 . S
H557 C532 0.979 . S
H558 C532 0.977 . S
H559 C533 0.979 . S
H560 C533 0.980 . S
H561 C533 0.983 . S
H562 C506 0.947 . S
C563 C506 1.392 . S
C563 C507 1.419 . S
C563 H545 0.948 . S
C564 C565 1.387 . S
C564 H568 0.950 . S
C564 C573 1.390 . S
C565 C564 1.387 . S
C565 C567 1.387 . S
H566 C573 0.950 . S
C567 C565 1.387 . S
C567 C569 1.390 . S
C567 H571 0.950 . S
H568 C564 0.950 . S
C569 C567 1.390 . S
C569 C570 1.387 . S
C569 H572 0.950 . S
C570 C569 1.387 . S
C570 C573 1.387 . S
H571 C567 0.950 . S
H572 C569 0.950 . S
C573 C564 1.390 . S
C573 H566 0.950 . S
C573 C570 1.387 . S
C574 C575 1.387 . S
C574 H578 0.950 . S
C574 C583 1.390 . S
C575 C574 1.387 . S
C575 C577 1.387 . S
H576 C583 0.950 . S
C577 C575 1.387 . S
C577 C579 1.390 . S
C577 H581 0.950 . S
H578 C574 0.950 . S
C579 C577 1.390 . S
C579 C580 1.387 . S
C579 H582 0.950 . S
C580 C579 1.387 . S
C580 C583 1.387 . S
H581 C577 0.950 . S
H582 C579 0.950 . S
C583 C574 1.390 . S
C583 H576 0.950 . S
C583 C580 1.387 . S
C584 C585 1.387 . S
C584 H588 0.950 . S
C584 C593 1.390 . S
C585 C584 1.387 . S
C585 C587 1.387 . S
H586 C593 0.950 . S
C587 C585 1.387 . S
C587 C589 1.390 . S
C587 H591 0.950 . S
H588 C584 0.950 . S
C589 C587 1.390 . S
C589 C590 1.387 . S
C589 H592 0.950 . S
C590 C589 1.387 . S
C590 C593 1.387 . S
H591 C587 0.950 . S
H592 C589 0.950 . S
C593 C584 1.390 . S
C593 H586 0.950 . S
C593 C590 1.387 . S
C594 C595 1.387 . S
C594 H598 0.950 . S
C594 C603 1.390 . S
C595 C594 1.387 . S
C595 C597 1.387 . S
H596 C603 0.950 . S
C597 C595 1.387 . S
C597 C599 1.390 . S
C597 H601 0.950 . S
H598 C594 0.950 . S
C599 C597 1.390 . S
C599 C600 1.387 . S
C599 H602 0.950 . S
C600 C599 1.387 . S
C600 C603 1.387 . S
H601 C597 0.950 . S
H602 C599 0.950 . S
C603 C594 1.390 . S
C603 H596 0.950 . S
C603 C600 1.387 . S
C604 C605 1.387 . S
C604 H608 0.950 . S
C604 C613 1.390 . S
C605 C604 1.387 . S
C605 C607 1.387 . S
H606 C613 0.950 . S
C607 C605 1.387 . S
C607 C609 1.390 . S
C607 H611 0.950 . S
H608 C604 0.950 . S
C609 C607 1.390 . S
C609 C610 1.387 . S
C609 H612 0.950 . S
C610 C609 1.387 . S
C610 C613 1.387 . S
H611 C607 0.950 . S
H612 C609 0.950 . S
C613 C604 1.390 . S
C613 H606 0.950 . S
C613 C610 1.387 . S
C614 C615 1.387 . S
C614 H618 0.950 . S
C614 C623 1.390 . S
C615 C614 1.387 . S
C615 C617 1.387 . S
H616 C623 0.950 . S
C617 C615 1.387 . S
C617 C619 1.390 . S
C617 H621 0.950 . S
H618 C614 0.950 . S
C619 C617 1.390 . S
C619 C620 1.387 . S
C619 H622 0.950 . S
C620 C619 1.387 . S
C620 C623 1.387 . S
H621 C617 0.950 . S
H622 C619 0.950 . S
C623 C614 1.390 . S
C623 H616 0.950 . S
C623 C620 1.387 . S
C624 C625 1.387 . S
C624 H628 0.950 . S
C624 C633 1.390 . S
C625 C624 1.387 . S
C625 C627 1.387 . S
H626 C633 0.950 . S
C627 C625 1.387 . S
C627 C629 1.390 . S
C627 H631 0.950 . S
H628 C624 0.950 . S
C629 C627 1.390 . S
C629 C630 1.387 . S
C629 H632 0.950 . S
C630 C629 1.387 . S
C630 C633 1.387 . S
H631 C627 0.950 . S
H632 C629 0.950 . S
C633 C624 1.390 . S
C633 H626 0.950 . S
C633 C630 1.387 . S
C634 C635 1.387 . S
C634 H638 0.950 . S
C634 C643 1.390 . S
C635 C634 1.387 . S
C635 C637 1.387 . S
H636 C643 0.950 . S
C637 C635 1.387 . S
C637 C639 1.390 . S
C637 H641 0.950 . S
H638 C634 0.950 . S
C639 C637 1.390 . S
C639 C640 1.387 . S
C639 H642 0.950 1_455 S
C640 C639 1.387 . S
C640 C643 1.387 . S
H641 C637 0.950 . S
H642 C639 0.950 1_655 S
C643 C634 1.390 . S
C643 H636 0.950 . S
C643 C640 1.387 . S
C644 C645 1.387 . S
C644 H648 0.950 . S
C644 C653 1.390 1_545 S
C645 C644 1.387 . S
C645 C647 1.387 . S
H646 C653 0.950 . S
C647 C645 1.387 . S
C647 C649 1.390 . S
C647 H651 0.950 . S
H648 C644 0.950 . S
C649 C647 1.390 . S
C649 C650 1.387 1_545 S
C649 H652 0.950 . S
C650 C649 1.387 1_565 S
C650 C653 1.387 . S
H651 C647 0.950 . S
H652 C649 0.950 . S
C653 C644 1.390 1_565 S
C653 H646 0.950 . S
C653 C650 1.387 . S
C654 C655 1.387 . S
C654 H658 0.950 . S
C654 C663 1.390 . S
C655 C654 1.387 . S
C655 C657 1.387 . S
H656 C663 0.950 . S
C657 C655 1.387 . S
C657 C659 1.390 . S
C657 H661 0.950 . S
H658 C654 0.950 . S
C659 C657 1.390 . S
C659 C660 1.387 . S
C659 H662 0.950 . S
C660 C659 1.387 . S
C660 C663 1.387 . S
H661 C657 0.950 . S
H662 C659 0.950 . S
C663 C654 1.390 . S
C663 H656 0.950 . S
C663 C660 1.387 . S
C664 C665 1.387 . S
C664 H668 0.950 . S
C664 C673 1.390 1_565 S
C665 C664 1.387 . S
C665 C667 1.387 . S
H666 C673 0.950 . S
C667 C665 1.387 . S
C667 C669 1.390 . S
C667 H671 0.950 . S
H668 C664 0.950 . S
C669 C667 1.390 . S
C669 C670 1.387 1_565 S
C669 H672 0.950 . S
C670 C669 1.387 1_545 S
C670 C673 1.387 . S
H671 C667 0.950 . S
H672 C669 0.950 . S
C673 C664 1.390 1_545 S
C673 H666 0.950 . S
C673 C670 1.387 . S
C674 C675 1.387 . S
C674 H678 0.950 . S
C674 C683 1.390 . S
C675 C674 1.387 . S
C675 C677 1.387 . S
H676 C683 0.950 . S
C677 C675 1.387 . S
C677 C679 1.390 . S
C677 H681 0.950 . S
H678 C674 0.950 . S
C679 C677 1.390 . S
C679 C680 1.387 . S
C679 H682 0.950 . S
C680 C679 1.387 . S
C680 C683 1.387 . S
H681 C677 0.950 . S
H682 C679 0.950 . S
C683 C674 1.390 . S
C683 H676 0.950 . S
C683 C680 1.387 . S
C684 C685 1.387 . S
C684 H688 0.950 . S
C684 C693 1.390 . S
C685 C684 1.387 . S
C685 C687 1.387 . S
H686 C693 0.950 . S
C687 C685 1.387 . S
C687 C689 1.390 . S
C687 H691 0.950 . S
H688 C684 0.950 . S
C689 C687 1.390 . S
C689 C690 1.387 . S
C689 H692 0.950 . S
C690 C689 1.387 . S
C690 C693 1.387 . S
H691 C687 0.950 . S
H692 C689 0.950 . S
C693 C684 1.390 . S
C693 H686 0.950 . S
C693 C690 1.387 . S
C694 C695 1.387 . S
C694 H698 0.950 . S
C694 C703 1.372 1_455 S
C695 C694 1.387 . S
C695 C697 1.387 . S
H696 C703 0.961 . S
C697 C695 1.387 . S
C697 C699 1.390 . S
C697 H701 0.950 . S
H698 C694 0.950 . S
C699 C697 1.390 . S
C699 C700 1.387 1_455 S
C699 H702 0.960 . S
C700 C699 1.387 1_655 S
C700 C703 1.394 . S
H701 C697 0.950 . S
H702 C699 0.960 . S
C703 C694 1.372 1_655 S
C703 H696 0.961 . S
C703 C700 1.394 . S
C704 C705 1.387 . S
C704 H708 0.950 . S
C704 C713 1.390 . S
C705 C704 1.387 . S
C705 C707 1.387 . S
H706 C713 0.950 . S
C707 C705 1.387 . S
C707 C709 1.390 . S
C707 H711 0.950 . S
H708 C704 0.950 . S
C709 C707 1.390 . S
C709 C710 1.387 . S
C709 H712 0.950 . S
C710 C709 1.387 . S
C710 C713 1.387 . S
H711 C707 0.950 . S
H712 C709 0.950 . S
C713 C704 1.390 . S
C713 H706 0.950 . S
C713 C710 1.387 . S
C714 C715 1.387 . S
C714 H718 0.950 . S
C714 C723 1.390 1_655 S
C715 C714 1.387 . S
C715 C717 1.387 . S
H716 C723 0.950 . S
C717 C715 1.387 . S
C717 C719 1.390 . S
C717 H721 0.950 . S
H718 C714 0.950 . S
C719 C717 1.390 . S
C719 C720 1.387 1_655 S
C719 H722 0.950 . S
C720 C719 1.387 1_455 S
C720 C723 1.387 . S
H721 C717 0.950 . S
H722 C719 0.950 . S
C723 C714 1.390 1_455 S
C723 H716 0.950 . S
C723 C720 1.387 . S
C724 C725 1.387 . S
C724 H728 0.950 . S
C724 C733 1.390 . S
C725 C724 1.387 . S
C725 C727 1.387 . S
H726 C733 0.950 . S
C727 C725 1.387 . S
C727 C729 1.390 . S
C727 H731 0.950 . S
H728 C724 0.950 . S
C729 C727 1.390 . S
C729 C730 1.387 . S
C729 H732 0.950 . S
C730 C729 1.387 . S
C730 C733 1.387 . S
H731 C727 0.950 . S
H732 C729 0.950 . S
C733 C724 1.390 . S
C733 H726 0.950 . S
C733 C730 1.387 . S
C734 C735 1.387 . S
C734 H738 0.950 . S
C734 C743 1.390 . S
C735 C734 1.387 . S
C735 C737 1.387 . S
H736 C743 0.950 . S
C737 C735 1.387 . S
C737 C739 1.390 . S
C737 H741 0.950 . S
H738 C734 0.950 . S
C739 C737 1.390 . S
C739 C740 1.387 . S
C739 H742 0.950 . S
C740 C739 1.387 . S
C740 C743 1.387 . S
H741 C737 0.950 . S
H742 C739 0.950 . S
C743 C734 1.390 . S
C743 H736 0.950 . S
C743 C740 1.387 . S
C744 C745 1.387 . S
C744 H748 0.950 . S
C744 C753 1.390 . S
C745 C744 1.387 . S
C745 C747 1.387 . S
H746 C753 0.950 . S
C747 C745 1.387 . S
C747 C749 1.390 . S
C747 H751 0.950 . S
H748 C744 0.950 . S
C749 C747 1.390 . S
C749 C750 1.387 . S
C749 H752 0.950 . S
C750 C749 1.387 . S
C750 C753 1.387 . S
H751 C747 0.950 . S
H752 C749 0.950 . S
C753 C744 1.390 . S
C753 H746 0.950 . S
C753 C750 1.387 . S
C754 C755 1.387 . S
C754 H758 0.950 . S
C754 C763 1.390 . S
C755 C754 1.387 . S
C755 C757 1.387 . S
H756 C763 0.950 . S
C757 C755 1.387 . S
C757 C759 1.390 . S
C757 H761 0.950 . S
H758 C754 0.950 . S
C759 C757 1.390 . S
C759 C760 1.387 . S
C759 H762 0.950 . S
C760 C759 1.387 . S
C760 C763 1.387 . S
H761 C757 0.950 . S
H762 C759 0.950 . S
C763 C754 1.390 . S
C763 H756 0.950 . S
C763 C760 1.387 . S
C764 C765 1.387 . S
C764 H768 0.950 . S
C764 C773 1.390 . S
C765 C764 1.387 . S
C765 C767 1.387 . S
H766 C773 0.950 . S
C767 C765 1.387 . S
C767 C769 1.390 . S
C767 H771 0.950 . S
H768 C764 0.950 . S
C769 C767 1.390 . S
C769 C770 1.387 . S
C769 H772 0.950 . S
C770 C769 1.387 . S
C770 C773 1.387 . S
H771 C767 0.950 . S
H772 C769 0.950 . S
C773 C764 1.390 . S
C773 H766 0.950 . S
C773 C770 1.387 . S
C774 C775 1.387 . S
C774 H778 0.950 . S
C774 C783 1.390 . S
C775 C774 1.387 . S
C775 C777 1.387 . S
H776 C783 0.950 . S
C777 C775 1.387 . S
C777 C779 1.390 . S
C777 H781 0.950 . S
H778 C774 0.950 . S
C779 C777 1.390 . S
C779 C780 1.387 . S
C779 H782 0.950 . S
C780 C779 1.387 . S
C780 C783 1.387 . S
H781 C777 0.950 . S
H782 C779 0.950 . S
C783 C774 1.390 . S
C783 H776 0.950 . S
C783 C780 1.387 . S
C784 C785 1.387 . S
C784 H788 0.950 . S
C784 C793 1.390 . S
C785 C784 1.387 . S
C785 C787 1.387 . S
H786 C793 0.950 . S
C787 C785 1.387 . S
C787 C789 1.390 . S
C787 H791 0.950 . S
H788 C784 0.950 . S
C789 C787 1.390 . S
C789 C790 1.387 . S
C789 H792 0.950 . S
C790 C789 1.387 . S
C790 C793 1.387 . S
H791 C787 0.950 . S
H792 C789 0.950 . S
C793 C784 1.390 . S
C793 H786 0.950 . S
C793 C790 1.387 . S
C794 C795 1.387 . S
C794 H798 0.950 . S
C794 C803 1.390 . S
C795 C794 1.387 . S
C795 C797 1.387 . S
H796 C803 0.950 . S
C797 C795 1.387 . S
C797 C799 1.390 . S
C797 H801 0.950 . S
H798 C794 0.950 . S
C799 C797 1.390 . S
C799 C800 1.387 . S
C799 H802 0.950 . S
C800 C799 1.387 . S
C800 C803 1.387 . S
H801 C797 0.950 . S
H802 C799 0.950 . S
C803 C794 1.390 . S
C803 H796 0.950 . S
C803 C800 1.387 . S
C565 C7 1.080 . S
C570 C85 0.972 . S
C575 C25 1.076 . S
C580 C164 1.121 . S
C585 C46 1.079 . S
C590 C235 1.124 . S
C600 C295 1.125 . S
C595 C70 1.080 . S
C610 C325 0.970 . S
C605 C28 1.079 . S
C615 C49 1.080 . S
C620 C415 1.126 . S
C625 C67 1.079 . S
C630 C475 1.125 . S
C635 C4 1.075 . S
C640 C524 1.124 . S
C645 C58 1.717 . S
C650 C505 1.676 . S
C660 C344 1.794 . S
C655 C66 1.716 . S
C670 C404 1.674 . S
C665 C3 1.717 . S
C675 C37 1.719 . S
C680 C464 1.676 . S
C690 C145 1.676 . S
C685 C79 1.719 . S
C695 C16 1.719 . S
C700 C224 1.675 . S
C710 C284 1.673 . S
C705 C24 1.716 . S
C720 C104 1.795 . S
C715 C45 1.716 . S
C730 C445 1.215 . S
C725 C19 1.064 . S
C740 C535 1.213 . S
C735 C41 1.062 . S
C745 C62 1.064 . S
C750 C355 1.222 . S
C760 C385 1.212 . S
C755 C82 1.069 . S
C770 C205 1.213 . S
C765 C40 1.062 . S
C775 C61 1.069 . S
C780 C265 1.215 . S
C790 C115 1.225 . S
C785 C83 1.068 . S
C800 C175 1.213 . S
C795 C20 1.070 . S
