# Generated by pormake.
# Topology pto, (3,4)-cn, num edge types: 1
# Building blocks:
#     Node 0, Type 0, BuildingBlock: OLANEW_clean_sbu_2, # of connection points: 3
#     Node 1, Type 0, BuildingBlock: OLANEW_clean_sbu_2, # of connection points: 3
#     Node 2, Type 0, BuildingBlock: OLANEW_clean_sbu_2, # of connection points: 3
#     Node 3, Type 0, BuildingBlock: OLANEW_clean_sbu_2, # of connection points: 3
#     Node 4, Type 0, BuildingBlock: OLANEW_clean_sbu_2, # of connection points: 3
#     Node 5, Type 0, BuildingBlock: OLANEW_clean_sbu_2, # of connection points: 3
#     Node 6, Type 0, BuildingBlock: OLANEW_clean_sbu_2, # of connection points: 3
#     Node 7, Type 0, BuildingBlock: OLANEW_clean_sbu_2, # of connection points: 3
#     Node 8, Type 1, BuildingBlock: AZAVOO_clean_linker_0, # of connection points: 4
#     Node 9, Type 1, BuildingBlock: AZAVOO_clean_linker_0, # of connection points: 4
#     Node 10, Type 1, BuildingBlock: AZAVOO_clean_linker_0, # of connection points: 4
#     Node 11, Type 1, BuildingBlock: AZAVOO_clean_linker_0, # of connection points: 4
#     Node 12, Type 1, BuildingBlock: AZAVOO_clean_linker_0, # of connection points: 4
#     Node 13, Type 1, BuildingBlock: AZAVOO_clean_linker_0, # of connection points: 4
#     Edge 14, Type (0, 1), BuildingBlock: TEMPAE_clean_linker_10, # of connection points: 2
#     Edge 15, Type (0, 1), BuildingBlock: TEMPAE_clean_linker_10, # of connection points: 2
#     Edge 16, Type (0, 1), BuildingBlock: TEMPAE_clean_linker_10, # of connection points: 2
#     Edge 17, Type (0, 1), BuildingBlock: TEMPAE_clean_linker_10, # of connection points: 2
#     Edge 18, Type (0, 1), BuildingBlock: TEMPAE_clean_linker_10, # of connection points: 2
#     Edge 19, Type (0, 1), BuildingBlock: TEMPAE_clean_linker_10, # of connection points: 2
#     Edge 20, Type (0, 1), BuildingBlock: TEMPAE_clean_linker_10, # of connection points: 2
#     Edge 21, Type (0, 1), BuildingBlock: TEMPAE_clean_linker_10, # of connection points: 2
#     Edge 22, Type (0, 1), BuildingBlock: TEMPAE_clean_linker_10, # of connection points: 2
#     Edge 23, Type (0, 1), BuildingBlock: TEMPAE_clean_linker_10, # of connection points: 2
#     Edge 24, Type (0, 1), BuildingBlock: TEMPAE_clean_linker_10, # of connection points: 2
#     Edge 25, Type (0, 1), BuildingBlock: TEMPAE_clean_linker_10, # of connection points: 2
#     Edge 26, Type (0, 1), BuildingBlock: TEMPAE_clean_linker_10, # of connection points: 2
#     Edge 27, Type (0, 1), BuildingBlock: TEMPAE_clean_linker_10, # of connection points: 2
#     Edge 28, Type (0, 1), BuildingBlock: TEMPAE_clean_linker_10, # of connection points: 2
#     Edge 29, Type (0, 1), BuildingBlock: TEMPAE_clean_linker_10, # of connection points: 2
#     Edge 30, Type (0, 1), BuildingBlock: TEMPAE_clean_linker_10, # of connection points: 2
#     Edge 31, Type (0, 1), BuildingBlock: TEMPAE_clean_linker_10, # of connection points: 2
#     Edge 32, Type (0, 1), BuildingBlock: TEMPAE_clean_linker_10, # of connection points: 2
#     Edge 33, Type (0, 1), BuildingBlock: TEMPAE_clean_linker_10, # of connection points: 2
#     Edge 34, Type (0, 1), BuildingBlock: TEMPAE_clean_linker_10, # of connection points: 2
#     Edge 35, Type (0, 1), BuildingBlock: TEMPAE_clean_linker_10, # of connection points: 2
#     Edge 36, Type (0, 1), BuildingBlock: TEMPAE_clean_linker_10, # of connection points: 2
#     Edge 37, Type (0, 1), BuildingBlock: TEMPAE_clean_linker_10, # of connection points: 2
# Relax obj value: 0.067
# Max RMSD: 0.223
# Mean RMSD: 0.134
data_MOF--net-pto--node1-OLANEW_clean_sbu_2--node2-AZAVOO_clean_linker_0--edge1-TEMPAE_clean_linker_10
_symmetry_space_group_name_H-M    P1
_symmetry_Int_Tables_number       1
_symmetry_cell_setting            triclinic
loop_
_symmetry_equiv_pos_as_xyz
'x, y, z'
_cell_length_a     45.988797
_cell_length_b     50.465626
_cell_length_c     51.59399
_cell_angle_alpha  92.809223
_cell_angle_beta   90.451205
_cell_angle_gamma 117.16277
loop_
_atom_site_label
_atom_site_type_symbol
_atom_site_fract_x
_atom_site_fract_y
_atom_site_fract_z
_atom_type_partial_charge
O0 O 0.32496 0.47095 0.24352 0.0
Cd1 Cd 0.31901 0.49829 0.28178 0.0
O2 O 0.3593 0.5106 0.22417 0.0
Cd3 Cd 0.3464 0.53899 0.24981 0.0
O4 O 0.31147 0.55576 0.25967 0.0
C5 C 0.29013 0.55098 0.24182 0.0
O6 O 0.29149 0.53744 0.21978 0.0
C7 C 0.34418 0.48238 0.22512 0.0
C8 C 0.33983 0.47948 0.32497 0.0
O9 O 0.30995 0.46618 0.31668 0.0
O10 O 0.35975 0.50229 0.31326 0.0
O11 O 0.38138 0.04926 0.82551 0.0
Cd12 Cd 0.34683 0.03559 0.78585 0.0
O13 O 0.34297 0.01507 0.84775 0.0
Cd14 Cd 0.30537 0.99295 0.81685 0.0
O15 O 0.26355 0.95158 0.8017 0.0
C16 C 0.26282 0.92771 0.80937 0.0
O17 O 0.28697 0.92983 0.82455 0.0
C18 C 0.37167 0.03653 0.84667 0.0
C19 C 0.36735 0.08089 0.75083 0.0
O20 O 0.34595 0.07818 0.76767 0.0
O21 O 0.37931 0.06239 0.75074 0.0
O22 O 0.93087 0.9609 0.3334 0.0
Cd23 Cd 0.97238 0.96363 0.30291 0.0
O24 O 0.89803 0.95101 0.2994 0.0
Cd25 Cd 0.85383 0.94688 0.27951 0.0
O26 O 0.81428 0.94895 0.25751 0.0
C27 C 0.82147 0.97181 0.24459 0.0
O28 O 0.85191 0.99287 0.24538 0.0
C29 C 0.90295 0.95525 0.32389 0.0
C30 C 0.9736 0.90918 0.29519 0.0
O31 O 0.99256 0.92897 0.31231 0.0
O32 O 0.95407 0.9152 0.28171 0.0
O33 O 0.72195 0.24209 0.80417 0.0
Cd34 Cd 0.68213 0.19072 0.81167 0.0
O35 O 0.68389 0.25446 0.79241 0.0
Cd36 Cd 0.64221 0.21172 0.79973 0.0
O37 O 0.59384 0.18746 0.8158 0.0
C38 C 0.59261 0.19088 0.84025 0.0
O39 O 0.62019 0.20593 0.85378 0.0
C40 C 0.71392 0.26142 0.79632 0.0
C41 C 0.67295 0.15306 0.76765 0.0
O42 O 0.65503 0.1662 0.77125 0.0
O43 O 0.69504 0.15753 0.78503 0.0
O44 O 0.77173 0.8569 0.68886 0.0
Cd45 Cd 0.77319 0.83745 0.73119 0.0
O46 O 0.8062 0.90294 0.70195 0.0
Cd47 Cd 0.80664 0.89303 0.74254 0.0
O48 O 0.79116 0.90081 0.7808 0.0
C49 C 0.79452 0.92704 0.7855 0.0
O50 O 0.80824 0.94688 0.76809 0.0
C51 C 0.78833 0.8842 0.68403 0.0
C52 C 0.81027 0.80653 0.73347 0.0
O53 O 0.77998 0.79315 0.72625 0.0
O54 O 0.82318 0.83468 0.7392 0.0
O55 O 0.60892 0.31372 0.29396 0.0
Cd56 Cd 0.55191 0.27574 0.29602 0.0
O57 O 0.60377 0.3458 0.32159 0.0
Cd58 Cd 0.55066 0.3203 0.31862 0.0
O59 O 0.51147 0.30961 0.28979 0.0
C60 C 0.48694 0.28429 0.28507 0.0
O61 O 0.48255 0.26216 0.29958 0.0
C62 C 0.62172 0.3384 0.30742 0.0
C63 C 0.54936 0.22867 0.32368 0.0
O64 O 0.55142 0.22835 0.29891 0.0
O65 O 0.54775 0.25099 0.33529 0.0
O66 O 0.34503 0.52804 0.83958 0.0
Cd67 Cd 0.35095 0.5582 0.8024 0.0
O68 O 0.3946 0.53238 0.83597 0.0
Cd69 Cd 0.40148 0.54765 0.79669 0.0
O70 O 0.41049 0.52709 0.76149 0.0
C71 C 0.43193 0.51802 0.76425 0.0
O72 O 0.44804 0.52379 0.78666 0.0
C73 C 0.36828 0.5236 0.84829 0.0
C74 C 0.30091 0.57485 0.79947 0.0
O75 O 0.32699 0.59053 0.81337 0.0
O76 O 0.29859 0.55139 0.78688 0.0
O77 O 0.43203 0.01143 0.28666 0.0
Cd78 Cd 0.39658 0.99601 0.32388 0.0
O79 O 0.39106 0.98238 0.25991 0.0
Cd80 Cd 0.35356 0.96158 0.28828 0.0
O81 O 0.30824 0.92174 0.29513 0.0
C82 C 0.29876 0.90226 0.27621 0.0
O83 O 0.31651 0.90791 0.25544 0.0
C84 C 0.42094 0.00127 0.2637 0.0
C85 C 0.40752 0.04284 0.36009 0.0
O86 O 0.42254 0.02699 0.36237 0.0
O87 O 0.38763 0.03671 0.34057 0.0
H88 H 0.96769 0.41784 0.28255 0.0
H89 H 0.78074 0.59506 0.25474 0.0
H90 H 0.03241 0.57631 0.30666 0.0
H91 H 0.08345 0.57234 0.30433 0.0
H92 H 0.09849 0.607 0.22797 0.0
H93 H 0.04733 0.61082 0.23045 0.0
H94 H 0.96106 0.52917 0.30802 0.0
H95 H 0.96108 0.48063 0.30482 0.0
H96 H 0.98914 0.49414 0.22486 0.0
H97 H 0.98867 0.54248 0.22826 0.0
H98 H 0.91166 0.55305 0.31622 0.0
H99 H 0.85884 0.50964 0.32156 0.0
H100 H 0.85581 0.48301 0.24029 0.0
H101 H 0.90884 0.52676 0.23512 0.0
H102 H 0.92105 0.61809 0.31314 0.0
H103 H 0.8692 0.62068 0.31458 0.0
H104 H 0.84618 0.58368 0.23531 0.0
H105 H 0.89825 0.58153 0.23408 0.0
H106 H 0.99083 0.66407 0.31383 0.0
H107 H 0.9905 0.71259 0.31652 0.0
H108 H 0.95782 0.69931 0.23603 0.0
H109 H 0.95808 0.65068 0.23355 0.0
H110 H 0.05027 0.64588 0.31049 0.0
H111 H 0.10029 0.69352 0.31317 0.0
H112 H 0.07846 0.71098 0.2361 0.0
H113 H 0.02848 0.66336 0.23367 0.0
O114 O 0.96772 0.43707 0.28337 0.0
O115 O 0.9823 0.44517 0.24238 0.0
O116 O 0.81444 0.61344 0.29537 0.0
O117 O 0.80139 0.59436 0.2547 0.0
C118 C 0.00465 0.59524 0.26986 0.0
C119 C 0.9748 0.56871 0.27027 0.0
C120 C 0.94501 0.57031 0.27221 0.0
C121 C 0.94487 0.59823 0.27257 0.0
C122 C 0.97461 0.62466 0.27208 0.0
C123 C 0.00455 0.62323 0.27102 0.0
C124 C 0.0361 0.59369 0.26867 0.0
C125 C 0.04673 0.583 0.28943 0.0
C126 C 0.07582 0.58072 0.28805 0.0
C127 C 0.09493 0.58931 0.26595 0.0
C128 C 0.08447 0.60053 0.24536 0.0
C129 C 0.05525 0.60262 0.24669 0.0
C130 C 0.97471 0.53923 0.26834 0.0
C131 C 0.967 0.5215 0.2898 0.0
C132 C 0.96714 0.49384 0.28793 0.0
C133 C 0.9751 0.48349 0.26457 0.0
C134 C 0.98288 0.50142 0.24312 0.0
C135 C 0.98266 0.52904 0.24501 0.0
C136 C 0.91396 0.54296 0.2753 0.0
C137 C 0.89969 0.53768 0.29964 0.0
C138 C 0.86967 0.51284 0.30267 0.0
C139 C 0.85328 0.49293 0.28135 0.0
C140 C 0.86785 0.4981 0.257 0.0
C141 C 0.89809 0.5229 0.25404 0.0
C142 C 0.9134 0.59974 0.27348 0.0
C143 C 0.90482 0.6107 0.29608 0.0
C144 C 0.87517 0.61208 0.29686 0.0
C145 C 0.85353 0.60239 0.27504 0.0
C146 C 0.86225 0.59133 0.25245 0.0
C147 C 0.89194 0.59004 0.25169 0.0
C148 C 0.97447 0.65399 0.27352 0.0
C149 C 0.98361 0.67169 0.29682 0.0
C150 C 0.98327 0.69923 0.29833 0.0
C151 C 0.97409 0.70959 0.27648 0.0
C152 C 0.9652 0.69189 0.25308 0.0
C153 C 0.9652 0.66416 0.25167 0.0
C154 C 0.03579 0.65124 0.27191 0.0
C155 C 0.05651 0.65991 0.29412 0.0
C156 C 0.08503 0.68707 0.2956 0.0
C157 C 0.09321 0.70606 0.27489 0.0
C158 C 0.07256 0.69705 0.25252 0.0
C159 C 0.04413 0.66983 0.25103 0.0
C160 C 0.97529 0.45412 0.26267 0.0
C161 C 0.822 0.60378 0.27575 0.0
H162 H 0.02958 0.46243 0.83519 0.0
H163 H 0.76801 0.53592 0.72761 0.0
H164 H 0.04121 0.60921 0.8283 0.0
H165 H 0.09554 0.61219 0.83382 0.0
H166 H 0.10994 0.62319 0.75154 0.0
H167 H 0.05605 0.62118 0.74651 0.0
H168 H 0.9758 0.54685 0.82699 0.0
H169 H 0.99402 0.50989 0.83747 0.0
H170 H 0.03788 0.5187 0.76249 0.0
H171 H 0.01912 0.55531 0.75214 0.0
H172 H 0.90415 0.54422 0.81259 0.0
H173 H 0.86391 0.49189 0.81432 0.0
H174 H 0.90676 0.46944 0.7478 0.0
H175 H 0.94556 0.5221 0.74535 0.0
H176 H 0.90297 0.60432 0.80367 0.0
H177 H 0.84526 0.59068 0.79533 0.0
H178 H 0.84688 0.54465 0.72282 0.0
H179 H 0.90469 0.55877 0.73125 0.0
H180 H 0.96796 0.66497 0.80691 0.0
H181 H 0.94651 0.70045 0.79953 0.0
H182 H 0.91939 0.66398 0.72041 0.0
H183 H 0.94198 0.6294 0.72775 0.0
H184 H 0.03495 0.6635 0.82046 0.0
H185 H 0.07694 0.71553 0.82264 0.0
H186 H 0.06297 0.71919 0.74019 0.0
H187 H 0.02146 0.66671 0.73813 0.0
O188 O 0.02229 0.47683 0.83053 0.0
O189 O 0.04466 0.48239 0.79185 0.0
O190 O 0.79138 0.56584 0.76873 0.0
O191 O 0.79085 0.5417 0.73135 0.0
C192 C 0.00978 0.60715 0.78281 0.0
C193 C 0.98603 0.57692 0.78296 0.0
C194 C 0.95267 0.56884 0.77817 0.0
C195 C 0.94311 0.59109 0.77308 0.0
C196 C 0.96689 0.62141 0.773 0.0
C197 C 0.00026 0.62947 0.77806 0.0
C198 C 0.04477 0.61491 0.78701 0.0
C199 C 0.05654 0.61308 0.81165 0.0
C200 C 0.08741 0.61446 0.81468 0.0
C201 C 0.10693 0.61745 0.79305 0.0
C202 C 0.09575 0.62112 0.76865 0.0
C203 C 0.06495 0.61997 0.7657 0.0
C204 C 0.99621 0.55376 0.78885 0.0
C205 C 0.98916 0.5406 0.81281 0.0
C206 C 0.99969 0.51958 0.81876 0.0
C207 C 0.0175 0.5114 0.80085 0.0
C208 C 0.02427 0.52453 0.77674 0.0
C209 C 0.01363 0.54546 0.77079 0.0
C210 C 0.92778 0.53702 0.77883 0.0
C211 C 0.90454 0.52802 0.79821 0.0
C212 C 0.88182 0.49801 0.79934 0.0
C213 C 0.88213 0.47628 0.78129 0.0
C214 C 0.90544 0.4855 0.76181 0.0
C215 C 0.92787 0.51558 0.76051 0.0
C216 C 0.90801 0.5826 0.76803 0.0
C217 C 0.89084 0.59141 0.78595 0.0
C218 C 0.85787 0.58352 0.78116 0.0
C219 C 0.84145 0.56656 0.75839 0.0
C220 C 0.85877 0.55771 0.74053 0.0
C221 C 0.89176 0.56569 0.74532 0.0
C222 C 0.95651 0.64462 0.76787 0.0
C223 C 0.9579 0.66504 0.78787 0.0
C224 C 0.94533 0.68506 0.78368 0.0
C225 C 0.93102 0.68492 0.75942 0.0
C226 C 0.93055 0.66493 0.73923 0.0
C227 C 0.94325 0.64503 0.74341 0.0
C228 C 0.02524 0.6613 0.77914 0.0
C229 C 0.04102 0.67554 0.80287 0.0
C230 C 0.06478 0.70534 0.8041 0.0
C231 C 0.07323 0.72158 0.7816 0.0
C232 C 0.05723 0.70725 0.75782 0.0
C233 C 0.03341 0.67736 0.75662 0.0
C234 C 0.029 0.48935 0.80736 0.0
C235 C 0.80641 0.55808 0.75323 0.0
H236 H 0.37944 0.25238 0.36865 0.0
H237 H 0.48223 0.49683 0.59609 0.0
H238 H 0.37366 0.23422 0.5077 0.0
H239 H 0.37328 0.19075 0.48417 0.0
H240 H 0.47662 0.22544 0.50196 0.0
H241 H 0.47676 0.26903 0.52536 0.0
H242 H 0.37171 0.28618 0.47752 0.0
H243 H 0.36552 0.27075 0.43125 0.0
H244 H 0.46542 0.28425 0.43193 0.0
H245 H 0.47138 0.30002 0.47811 0.0
H246 H 0.37519 0.34223 0.51406 0.0
H247 H 0.36535 0.37237 0.48282 0.0
H248 H 0.45737 0.39153 0.44777 0.0
H249 H 0.46725 0.3615 0.47946 0.0
H250 H 0.38577 0.35198 0.56744 0.0
H251 H 0.39331 0.39993 0.58702 0.0
H252 H 0.49294 0.44149 0.56161 0.0
H253 H 0.48513 0.39326 0.54235 0.0
H254 H 0.38604 0.30683 0.59836 0.0
H255 H 0.39014 0.33779 0.63752 0.0
H256 H 0.4943 0.38819 0.62813 0.0
H257 H 0.48972 0.3575 0.58866 0.0
H258 H 0.37472 0.2427 0.56535 0.0
H259 H 0.36744 0.2075 0.5985 0.0
H260 H 0.47035 0.25637 0.62001 0.0
H261 H 0.47708 0.29205 0.58709 0.0
O262 O 0.38247 0.25873 0.38691 0.0
O263 O 0.43385 0.26574 0.38837 0.0
O264 O 0.42695 0.45529 0.60055 0.0
O265 O 0.47825 0.47784 0.58773 0.0
C266 C 0.42681 0.28359 0.52759 0.0
C267 C 0.42553 0.3031 0.50928 0.0
C268 C 0.427 0.33071 0.51783 0.0
C269 C 0.43158 0.33947 0.54451 0.0
C270 C 0.43317 0.32011 0.56278 0.0
C271 C 0.42975 0.29176 0.55444 0.0
C272 C 0.42522 0.2547 0.5182 0.0
C273 C 0.396 0.23201 0.50708 0.0
C274 C 0.39586 0.20723 0.49366 0.0
C275 C 0.425 0.20483 0.49106 0.0
C276 C 0.4539 0.22689 0.50342 0.0
C277 C 0.45396 0.25158 0.517 0.0
C278 C 0.42198 0.29423 0.48111 0.0
C279 C 0.39226 0.28595 0.46758 0.0
C280 C 0.38878 0.27707 0.44118 0.0
C281 C 0.41497 0.27624 0.42789 0.0
C282 C 0.44476 0.28463 0.44157 0.0
C283 C 0.44823 0.2936 0.46794 0.0
C284 C 0.42198 0.34979 0.4991 0.0
C285 C 0.39343 0.35325 0.49986 0.0
C286 C 0.38788 0.3705 0.48204 0.0
C287 C 0.41066 0.38439 0.46293 0.0
C288 C 0.43933 0.38094 0.46221 0.0
C289 C 0.44502 0.36388 0.48026 0.0
C290 C 0.43495 0.36919 0.55358 0.0
C291 C 0.4091 0.37154 0.56592 0.0
C292 C 0.4135 0.39893 0.57714 0.0
C293 C 0.44381 0.42453 0.57601 0.0
C294 C 0.46933 0.42222 0.56289 0.0
C295 C 0.4649 0.39476 0.55174 0.0
C296 C 0.43754 0.33009 0.59065 0.0
C297 C 0.40993 0.32364 0.60547 0.0
C298 C 0.41234 0.34151 0.62777 0.0
C299 C 0.44245 0.36592 0.63554 0.0
C300 C 0.47065 0.37 0.62227 0.0
C301 C 0.4682 0.3522 0.59997 0.0
C302 C 0.42642 0.26983 0.57377 0.0
C303 C 0.39573 0.24565 0.57711 0.0
C304 C 0.39168 0.22548 0.59601 0.0
C305 C 0.41834 0.22897 0.61193 0.0
C306 C 0.44922 0.25318 0.60833 0.0
C307 C 0.45319 0.27348 0.58944 0.0
C308 C 0.41114 0.26661 0.39988 0.0
C309 C 0.449 0.45342 0.5888 0.0
H310 H 0.58158 0.06055 0.86543 0.0
H311 H 0.75343 0.92208 0.03603 0.0
H312 H 0.60521 0.07121 0.00392 0.0
H313 H 0.56413 0.0816 0.98232 0.0
H314 H 0.4912 0.99101 0.99175 0.0
H315 H 0.5323 0.98084 0.01352 0.0
H316 H 0.64635 0.0571 0.96243 0.0
H317 H 0.62794 0.066 0.92054 0.0
H318 H 0.53968 0.98242 0.92288 0.0
H319 H 0.5586 0.97367 0.96453 0.0
H320 H 0.70046 0.03336 0.98211 0.0
H321 H 0.72772 0.0206 0.94659 0.0
H322 H 0.63735 0.94185 0.92534 0.0
H323 H 0.6103 0.955 0.96072 0.0
H324 H 0.70711 0.0297 0.04392 0.0
H325 H 0.74835 0.01289 0.05218 0.0
H326 H 0.68336 0.92595 0.01658 0.0
H327 H 0.64217 0.94292 0.0088 0.0
H328 H 0.66363 0.04321 0.0827 0.0
H329 H 0.68732 0.03485 0.12231 0.0
H330 H 0.64002 0.94009 0.10211 0.0
H331 H 0.61637 0.94865 0.06264 0.0
H332 H 0.61208 0.06297 0.06471 0.0
H333 H 0.58548 0.06786 0.10446 0.0
H334 H 0.53228 0.97173 0.10501 0.0
H335 H 0.55955 0.96721 0.06584 0.0
O336 O 0.58891 0.05615 0.88156 0.0
O337 O 0.54363 0.01333 0.88408 0.0
O338 O 0.76998 0.97433 0.05125 0.0
O339 O 0.73767 0.92938 0.03283 0.0
C340 C 0.59774 0.01633 0.01474 0.0
C341 C 0.61336 0.01094 0.99302 0.0
C342 C 0.63761 0.00159 0.99658 0.0
C343 C 0.64619 0.99745 0.02184 0.0
C344 C 0.63001 0.00209 0.04347 0.0
C345 C 0.60576 0.01154 0.03993 0.0
C346 C 0.57167 0.02528 0.01023 0.0
C347 C 0.58003 0.05405 0.00239 0.0
C348 C 0.55663 0.0599 0.98997 0.0
C349 C 0.52472 0.03695 0.98511 0.0
C350 C 0.51575 0.00896 0.99514 0.0
C351 C 0.53905 0.00323 0.0078 0.0
C352 C 0.60376 0.01481 0.96647 0.0
C353 C 0.62328 0.04058 0.95365 0.0
C354 C 0.6126 0.04566 0.92982 0.0
C355 C 0.58222 0.02502 0.91845 0.0
C356 C 0.56314 0.99883 0.93112 0.0
C357 C 0.5739 0.99374 0.95487 0.0
C358 C 0.65342 0.99517 0.97386 0.0
C359 C 0.68655 0.01352 0.96959 0.0
C360 C 0.7021 0.00607 0.94946 0.0
C361 C 0.68472 0.98013 0.93323 0.0
C362 C 0.65131 0.96213 0.9373 0.0
C363 C 0.63582 0.96959 0.95747 0.0
C364 C 0.67173 0.98755 0.02571 0.0
C365 C 0.70188 0.00706 0.03789 0.0
C366 C 0.72537 0.99739 0.04257 0.0
C367 C 0.71914 0.96805 0.03505 0.0
C368 C 0.68897 0.94867 0.02262 0.0
C369 C 0.66545 0.95834 0.01804 0.0
C370 C 0.63856 0.99656 0.06976 0.0
C371 C 0.65763 0.0206 0.08726 0.0
C372 C 0.67112 0.01577 0.10983 0.0
C373 C 0.6658 0.98685 0.11508 0.0
C374 C 0.64486 0.96264 0.09834 0.0
C375 C 0.63123 0.96746 0.07591 0.0
C376 C 0.58774 0.01475 0.06253 0.0
C377 C 0.59447 0.04305 0.07339 0.0
C378 C 0.57924 0.04577 0.09604 0.0
C379 C 0.55703 0.02018 0.10809 0.0
C380 C 0.54979 0.99189 0.09659 0.0
C381 C 0.56508 0.98922 0.07409 0.0
C382 C 0.57034 0.03101 0.89365 0.0
C383 C 0.74387 0.95757 0.04023 0.0
H384 H 0.65708 0.00594 0.31096 0.0
H385 H 0.58593 0.14071 0.57584 0.0
H386 H 0.66618 0.95937 0.46028 0.0
H387 H 0.70176 0.94342 0.43579 0.0
H388 H 0.76967 0.03578 0.42624 0.0
H389 H 0.73416 0.05135 0.45046 0.0
H390 H 0.63259 0.98364 0.42078 0.0
H391 H 0.63703 0.98402 0.37355 0.0
H392 H 0.69881 0.07943 0.3804 0.0
H393 H 0.69448 0.07866 0.42762 0.0
H394 H 0.59166 0.02188 0.43495 0.0
H395 H 0.57099 0.0499 0.40947 0.0
H396 H 0.6449 0.13239 0.44627 0.0
H397 H 0.66602 0.10434 0.47079 0.0
H398 H 0.57738 0.02844 0.49676 0.0
H399 H 0.55003 0.05392 0.51975 0.0
H400 H 0.64375 0.12146 0.55084 0.0
H401 H 0.67079 0.096 0.52747 0.0
H402 H 0.60715 0.00836 0.54483 0.0
H403 H 0.60992 0.02293 0.59115 0.0
H404 H 0.71488 0.07445 0.5879 0.0
H405 H 0.71168 0.06089 0.54153 0.0
H406 H 0.6396 0.96575 0.52337 0.0
H407 H 0.6614 0.93984 0.5502 0.0
H408 H 0.75971 0.00347 0.53263 0.0
H409 H 0.73765 0.02939 0.50584 0.0
O410 O 0.65562 0.00631 0.32966 0.0
O411 O 0.68708 0.05538 0.33421 0.0
O412 O 0.5486 0.09527 0.5496 0.0
O413 O 0.59612 0.13029 0.56641 0.0
C414 C 0.67585 0.01676 0.47046 0.0
C415 C 0.66063 0.0306 0.45628 0.0
C416 C 0.6439 0.04446 0.46943 0.0
C417 C 0.64244 0.04455 0.49676 0.0
C418 C 0.65722 0.03029 0.51093 0.0
C419 C 0.67328 0.01578 0.4977 0.0
C420 C 0.69753 0.00648 0.45691 0.0
C421 C 0.68884 0.97605 0.45298 0.0
C422 C 0.70916 0.96703 0.43907 0.0
C423 C 0.73828 0.98837 0.42885 0.0
C424 C 0.74709 0.01881 0.43341 0.0
C425 C 0.72694 0.02775 0.44732 0.0
C426 C 0.663 0.03113 0.42758 0.0
C427 C 0.64705 0.00458 0.41202 0.0
C428 C 0.64962 0.00488 0.38506 0.0
C429 C 0.66822 0.03177 0.37318 0.0
C430 C 0.68422 0.05835 0.3889 0.0
C431 C 0.68168 0.058 0.41586 0.0
C432 C 0.63026 0.06109 0.45474 0.0
C433 C 0.60329 0.046 0.43746 0.0
C434 C 0.59142 0.06202 0.42307 0.0
C435 C 0.60638 0.09338 0.42578 0.0
C436 C 0.63313 0.1083 0.44343 0.0
C437 C 0.64503 0.09232 0.45766 0.0
C438 C 0.62601 0.06028 0.51059 0.0
C439 C 0.59194 0.04879 0.50849 0.0
C440 C 0.5764 0.06336 0.52167 0.0
C441 C 0.59471 0.0897 0.5372 0.0
C442 C 0.6289 0.10121 0.53911 0.0
C443 C 0.64441 0.08668 0.52584 0.0
C444 C 0.65918 0.03376 0.53977 0.0
C445 C 0.63076 0.02236 0.55428 0.0
C446 C 0.63243 0.0306 0.58074 0.0
C447 C 0.66259 0.05021 0.5931 0.0
C448 C 0.69121 0.05981 0.57883 0.0
C449 C 0.68949 0.05177 0.55241 0.0
C450 C 0.68701 0.99937 0.51258 0.0
C451 C 0.66583 0.97396 0.52517 0.0
C452 C 0.67832 0.95927 0.54053 0.0
C453 C 0.71227 0.96968 0.54355 0.0
C454 C 0.73345 0.99475 0.53041 0.0
C455 C 0.72091 0.00957 0.51514 0.0
C456 C 0.67095 0.03199 0.34454 0.0
C457 C 0.57831 0.10516 0.55139 0.0
H458 H 0.36941 0.33458 0.83993 0.0
H459 H 0.40476 0.11915 0.04017 0.0
H460 H 0.4001 0.35419 0.00121 0.0
H461 H 0.39163 0.39478 0.98469 0.0
H462 H 0.29642 0.33087 0.95341 0.0
H463 H 0.30495 0.29028 0.97033 0.0
H464 H 0.40475 0.32778 0.9476 0.0
H465 H 0.39808 0.33871 0.90293 0.0
H466 H 0.31389 0.25211 0.89135 0.0
H467 H 0.32055 0.24165 0.93625 0.0
H468 H 0.43014 0.28365 0.95069 0.0
H469 H 0.45359 0.26137 0.91996 0.0
H470 H 0.37124 0.17477 0.92808 0.0
H471 H 0.34813 0.19754 0.95952 0.0
H472 H 0.43977 0.25343 0.99888 0.0
H473 H 0.45705 0.21552 0.00804 0.0
H474 H 0.35993 0.15806 0.03339 0.0
H475 H 0.34287 0.19605 0.02383 0.0
H476 H 0.43255 0.28213 0.04854 0.0
H477 H 0.4439 0.27841 0.09411 0.0
H478 H 0.34033 0.23846 0.10814 0.0
H479 H 0.32933 0.24295 0.06236 0.0
H480 H 0.41527 0.33215 0.04854 0.0
H481 H 0.41256 0.3652 0.08363 0.0
H482 H 0.30734 0.32371 0.07286 0.0
H483 H 0.31048 0.2911 0.03734 0.0
O484 O 0.37172 0.3297 0.85748 0.0
O485 O 0.32914 0.28462 0.85227 0.0
O486 O 0.44803 0.16482 0.02293 0.0
O487 O 0.39859 0.13455 0.03643 0.0
C488 C 0.36077 0.29466 0.99314 0.0
C489 C 0.36624 0.27789 0.97268 0.0
C490 C 0.3761 0.25602 0.97833 0.0
C491 C 0.37937 0.25013 0.00442 0.0
C492 C 0.37391 0.26686 0.02481 0.0
C493 C 0.36518 0.28947 0.01917 0.0
C494 C 0.35312 0.3193 0.98701 0.0
C495 C 0.37697 0.34903 0.99157 0.0
C496 C 0.37209 0.37218 0.9821 0.0
C497 C 0.34341 0.36595 0.96768 0.0
C498 C 0.31884 0.33626 0.96431 0.0
C499 C 0.32361 0.31312 0.97401 0.0
C500 C 0.36293 0.28405 0.94522 0.0
C501 C 0.3848 0.31126 0.93542 0.0
C502 C 0.38098 0.31741 0.90987 0.0
C503 C 0.35537 0.29633 0.89359 0.0
C504 C 0.33382 0.26887 0.90339 0.0
C505 C 0.3376 0.2628 0.92899 0.0
C506 C 0.38739 0.24226 0.95721 0.0
C507 C 0.41677 0.25998 0.9454 0.0
C508 C 0.43006 0.24715 0.92772 0.0
C509 C 0.4142 0.21624 0.92136 0.0
C510 C 0.38415 0.19859 0.93266 0.0
C511 C 0.37083 0.21154 0.95048 0.0
C512 C 0.39 0.22733 0.01047 0.0
C513 C 0.42223 0.23257 0.00628 0.0
C514 C 0.43205 0.21092 0.0116 0.0
C515 C 0.40982 0.1837 0.02138 0.0
C516 C 0.37763 0.17872 0.02582 0.0
C517 C 0.36782 0.20038 0.02041 0.0
C518 C 0.38013 0.26258 0.05216 0.0
C519 C 0.4123 0.27221 0.06139 0.0
C520 C 0.41869 0.26996 0.08743 0.0
C521 C 0.39299 0.25793 0.10477 0.0
C522 C 0.36067 0.24802 0.09535 0.0
C523 C 0.35432 0.25038 0.06923 0.0
C524 C 0.36305 0.30918 0.04056 0.0
C525 C 0.39164 0.33015 0.05388 0.0
C526 C 0.39002 0.34891 0.07396 0.0
C527 C 0.35972 0.34702 0.08112 0.0
C528 C 0.33108 0.32596 0.06763 0.0
C529 C 0.33277 0.30722 0.04746 0.0
C530 C 0.35119 0.30307 0.86653 0.0
C531 C 0.42009 0.16055 0.02693 0.0
C532 C 0.23953 0.55268 0.22614 0.0
C533 C 0.26338 0.55925 0.24589 0.0
C534 C 0.21315 0.55906 0.22986 0.0
C535 C 0.21055 0.57241 0.25391 0.0
C536 C 0.23486 0.57968 0.27377 0.0
C537 C 0.261 0.57298 0.26954 0.0
C538 C 0.18771 0.55094 0.2082 0.0
C539 C 0.23294 0.59406 0.29963 0.0
C540 C 0.1537 0.60832 0.25446 0.0
C541 C 0.12514 0.58572 0.26402 0.0
C542 C 0.18201 0.60464 0.25167 0.0
C543 C 0.18164 0.57764 0.25848 0.0
C544 C 0.15302 0.55495 0.26852 0.0
C545 C 0.12514 0.55929 0.2712 0.0
C546 C 0.21213 0.6294 0.24104 0.0
C547 C 0.15157 0.52576 0.27582 0.0
H548 H 0.24117 0.54215 0.20778 0.0
H549 H 0.27936 0.5782 0.28488 0.0
H550 H 0.16357 0.53431 0.21468 0.0
H551 H 0.18516 0.57093 0.2032 0.0
H552 H 0.19384 0.54149 0.1904 0.0
H553 H 0.25458 0.59957 0.3126 0.0
H554 H 0.23097 0.61482 0.29669 0.0
H555 H 0.21064 0.57881 0.30953 0.0
H556 H 0.15391 0.62893 0.24918 0.0
H557 H 0.103 0.54161 0.2783 0.0
H558 H 0.21797 0.62154 0.22227 0.0
H559 H 0.23345 0.63573 0.25455 0.0
H560 H 0.20895 0.64956 0.2379 0.0
H561 H 0.15503 0.5139 0.25836 0.0
H562 H 0.12793 0.51091 0.28436 0.0
H563 H 0.17166 0.52995 0.29002 0.0
C564 C 0.23461 0.87227 0.81174 0.0
C565 C 0.23475 0.89806 0.8026 0.0
C566 C 0.2078 0.84409 0.80672 0.0
C567 C 0.18033 0.84151 0.79215 0.0
C568 C 0.18049 0.86734 0.78241 0.0
C569 C 0.2077 0.89534 0.78776 0.0
C570 C 0.20864 0.81712 0.81746 0.0
C571 C 0.15169 0.86544 0.76672 0.0
C572 C 0.1231 0.76335 0.76418 0.0
C573 C 0.09917 0.75314 0.78302 0.0
C574 C 0.14905 0.79246 0.76637 0.0
C575 C 0.15116 0.8118 0.78794 0.0
C576 C 0.12648 0.80195 0.80654 0.0
C577 C 0.10081 0.77278 0.80384 0.0
C578 C 0.17486 0.80212 0.74612 0.0
C579 C 0.12775 0.82189 0.82978 0.0
H580 H 0.25538 0.87407 0.82317 0.0
H581 H 0.20759 0.91512 0.78059 0.0
H582 H 0.1886 0.8068 0.8312 0.0
H583 H 0.20461 0.80011 0.80153 0.0
H584 H 0.23222 0.82279 0.82778 0.0
H585 H 0.15615 0.88737 0.75963 0.0
H586 H 0.14608 0.84928 0.74978 0.0
H587 H 0.1297 0.85713 0.77874 0.0
H588 H 0.12219 0.74825 0.74815 0.0
H589 H 0.08209 0.76523 0.81823 0.0
H590 H 0.19846 0.80553 0.75499 0.0
H591 H 0.17874 0.82373 0.73873 0.0
H592 H 0.16826 0.7854 0.72946 0.0
H593 H 0.14956 0.82689 0.84231 0.0
H594 H 0.10564 0.81154 0.8416 0.0
H595 H 0.13017 0.84346 0.8234 0.0
C596 C 0.9495 0.85675 0.276 0.0
C597 C 0.97408 0.88014 0.29126 0.0
C598 C 0.94919 0.82885 0.2727 0.0
C599 C 0.97426 0.82438 0.28471 0.0
C600 C 0.99945 0.84806 0.29975 0.0
C601 C 0.99895 0.87562 0.30298 0.0
C602 C 0.92177 0.80402 0.25671 0.0
C603 C 0.02679 0.84422 0.31262 0.0
C604 C 0.95819 0.74585 0.29875 0.0
C605 C 0.97364 0.73876 0.27821 0.0
C606 C 0.95784 0.7735 0.30088 0.0
C607 C 0.97366 0.79467 0.28218 0.0
C608 C 0.98926 0.7876 0.26135 0.0
C609 C 0.98888 0.7596 0.25952 0.0
C610 C 0.94059 0.78009 0.32318 0.0
C611 C 0.00671 0.80975 0.24122 0.0
H612 H 0.93017 0.86008 0.26693 0.0
H613 H 0.01812 0.89365 0.31467 0.0
H614 H 0.93187 0.7957 0.24063 0.0
H615 H 0.90802 0.785 0.26894 0.0
H616 H 0.90442 0.81126 0.24832 0.0
H617 H 0.04519 0.86517 0.32284 0.0
H618 H 0.01663 0.82673 0.32687 0.0
H619 H 0.03932 0.83668 0.29792 0.0
H620 H 0.94609 0.72959 0.31304 0.0
H621 H 0.00107 0.75419 0.24375 0.0
H622 H 0.92163 0.78582 0.31564 0.0
H623 H 0.9583 0.79968 0.33535 0.0
H624 H 0.92875 0.76092 0.33568 0.0
H625 H 0.98952 0.81631 0.23159 0.0
H626 H 0.01739 0.80067 0.22611 0.0
H627 H 0.02663 0.8303 0.25072 0.0
C628 C 0.77246 0.29937 0.79204 0.0
C629 C 0.73924 0.29237 0.79268 0.0
C630 C 0.79659 0.32884 0.78939 0.0
C631 C 0.7873 0.3519 0.78775 0.0
C632 C 0.75382 0.34494 0.78827 0.0
C633 C 0.73021 0.31527 0.79053 0.0
C634 C 0.83202 0.33533 0.7885 0.0
C635 C 0.74294 0.36893 0.78692 0.0
C636 C 0.84941 0.43176 0.8071 0.0
C637 C 0.85837 0.44416 0.78288 0.0
C638 C 0.82653 0.40174 0.80895 0.0
C639 C 0.81256 0.38345 0.78602 0.0
C640 C 0.82192 0.39559 0.76151 0.0
C641 C 0.84449 0.42581 0.76023 0.0
C642 C 0.817 0.38971 0.83547 0.0
C643 C 0.80778 0.37673 0.73662 0.0
H644 H 0.77964 0.2818 0.79357 0.0
H645 H 0.70463 0.31013 0.79115 0.0
H646 H 0.8429 0.34668 0.77057 0.0
H647 H 0.84604 0.3507 0.80522 0.0
H648 H 0.83509 0.31477 0.78902 0.0
H649 H 0.71593 0.35979 0.78737 0.0
H650 H 0.75408 0.38561 0.8035 0.0
H651 H 0.75145 0.38089 0.76887 0.0
H652 H 0.86042 0.4455 0.82473 0.0
H653 H 0.85084 0.43517 0.74142 0.0
H654 H 0.82215 0.37047 0.83761 0.0
H655 H 0.79033 0.38149 0.83769 0.0
H656 H 0.83024 0.4068 0.85141 0.0
H657 H 0.81157 0.35653 0.73649 0.0
H658 H 0.81892 0.38908 0.71914 0.0
H659 H 0.78102 0.36907 0.73528 0.0
C660 C 0.38371 0.48327 0.35629 0.0
C661 C 0.35125 0.468 0.34667 0.0
C662 C 0.39522 0.47168 0.37586 0.0
C663 C 0.37381 0.44408 0.38589 0.0
C664 C 0.3409 0.4288 0.37653 0.0
C665 C 0.33 0.44099 0.35711 0.0
C666 C 0.43039 0.48872 0.38553 0.0
C667 C 0.31733 0.39926 0.38669 0.0
C668 C 0.40774 0.39679 0.41691 0.0
C669 C 0.40377 0.40155 0.44335 0.0
C670 C 0.39881 0.41107 0.39801 0.0
C671 C 0.38582 0.43071 0.40579 0.0
C672 C 0.38279 0.43636 0.43252 0.0
C673 C 0.39169 0.42162 0.45098 0.0
C674 C 0.40225 0.40434 0.36969 0.0
C675 C 0.36939 0.4574 0.44159 0.0
H676 H 0.40028 0.50419 0.34836 0.0
H677 H 0.3049 0.42901 0.34977 0.0
H678 H 0.43154 0.49291 0.40692 0.0
H679 H 0.44342 0.47524 0.38123 0.0
H680 H 0.44352 0.51044 0.37649 0.0
H681 H 0.29241 0.39046 0.37768 0.0
H682 H 0.32645 0.38258 0.3828 0.0
H683 H 0.31565 0.40166 0.40804 0.0
H684 H 0.41677 0.38107 0.41093 0.0
H685 H 0.38898 0.42562 0.47145 0.0
H686 H 0.41674 0.42535 0.36 0.0
H687 H 0.37774 0.39316 0.3598 0.0
H688 H 0.41426 0.3897 0.36692 0.0
H689 H 0.38324 0.47938 0.43319 0.0
H690 H 0.37052 0.4608 0.46309 0.0
H691 H 0.34353 0.44841 0.4347 0.0
C692 C 0.38285 0.03145 0.89319 0.0
C693 C 0.39447 0.04447 0.86956 0.0
C694 C 0.40445 0.03453 0.91377 0.0
C695 C 0.43854 0.05088 0.91068 0.0
C696 C 0.45035 0.06615 0.88776 0.0
C697 C 0.42816 0.06274 0.8674 0.0
C698 C 0.39086 0.01884 0.93831 0.0
C699 C 0.48649 0.08491 0.88426 0.0
C700 C 0.49525 0.06494 0.96975 0.0
C701 C 0.50238 0.04083 0.96664 0.0
C702 C 0.47446 0.06871 0.95179 0.0
C703 C 0.46148 0.04838 0.9298 0.0
C704 C 0.4693 0.02436 0.9264 0.0
C705 C 0.48943 0.02077 0.94494 0.0
C706 C 0.46713 0.09475 0.95641 0.0
C707 C 0.4563 0.00229 0.90319 0.0
H708 H 0.35683 0.01779 0.89529 0.0
H709 H 0.43738 0.07333 0.84941 0.0
H710 H 0.39716 1.00019 0.93986 0.0
H711 H 0.402 0.03446 0.95557 0.0
H712 H 0.36385 0.00967 0.93878 0.0
H713 H 0.49153 0.0979 0.86662 0.0
H714 H 0.49764 0.10066 0.90144 0.0
H715 H 0.49862 0.0703 0.88269 0.0
H716 H 0.50562 0.08065 0.9864 0.0
H717 H 0.49557 0.00249 0.94224 0.0
H718 H 0.46792 0.1008 0.97749 0.0
H719 H 0.44292 0.0902 0.94802 0.0
H720 H 0.48621 0.11433 0.94727 0.0
H721 H 0.42918 0.99051 0.90313 0.0
H722 H 0.4655 0.9854 0.90307 0.0
H723 H 0.46346 0.0142 0.88498 0.0
C724 C 0.88646 0.97589 0.3627 0.0
C725 C 0.87754 0.95586 0.34086 0.0
C726 C 0.86262 0.97856 0.37783 0.0
C727 C 0.8291 0.96056 0.37106 0.0
C728 C 0.81997 0.93924 0.34978 0.0
C729 C 0.84435 0.93708 0.33498 0.0
C730 C 0.87333 0.00156 0.40039 0.0
C731 C 0.78449 0.91941 0.34213 0.0
C732 C 0.76782 0.95749 0.42139 0.0
C733 C 0.75952 0.97932 0.41317 0.0
C734 C 0.78987 0.95053 0.40753 0.0
C735 C 0.80383 0.96577 0.38498 0.0
C736 C 0.79468 0.98711 0.37617 0.0
C737 C 0.77261 0.99358 0.39034 0.0
C738 C 0.79895 0.92754 0.41742 0.0
C739 C 0.80882 0.0037 0.3521 0.0
H740 H 0.91214 0.99028 0.3674 0.0
H741 H 0.83743 0.92072 0.31874 0.0
H742 H 0.86607 0.01914 0.39629 0.0
H743 H 0.86101 0.99115 0.41825 0.0
H744 H 0.90021 0.01231 0.4042 0.0
H745 H 0.78148 0.9024 0.32642 0.0
H746 H 0.77084 0.90785 0.35916 0.0
H747 H 0.77317 0.9332 0.33531 0.0
H748 H 0.75787 0.94654 0.4391 0.0
H749 H 0.76577 0.01006 0.38365 0.0
H750 H 0.82517 0.93842 0.42364 0.0
H751 H 0.79556 0.91048 0.40169 0.0
H752 H 0.78418 0.91616 0.43411 0.0
H753 H 0.83571 0.01713 0.35488 0.0
H754 H 0.79829 0.01886 0.34738 0.0
H755 H 0.80429 0.98766 0.33522 0.0
C756 C 0.56092 0.19667 0.87708 0.0
C757 C 0.56102 0.18365 0.85248 0.0
C758 C 0.53207 0.19537 0.887 0.0
C759 C 0.50237 0.18006 0.87222 0.0
C760 C 0.50169 0.16428 0.84858 0.0
C761 C 0.53116 0.16662 0.83877 0.0
C762 C 0.53396 0.21242 0.9124 0.0
C763 C 0.47034 0.14652 0.83278 0.0
C764 C 0.43159 0.17641 0.91143 0.0
C765 C 0.43077 0.20269 0.90472 0.0
C766 C 0.45261 0.1669 0.89909 0.0
C767 C 0.4737 0.1844 0.88008 0.0
C768 C 0.47079 0.20937 0.87162 0.0
C769 C 0.44909 0.218 0.88384 0.0
C770 C 0.45385 0.13927 0.90753 0.0
C771 C 0.49255 0.22852 0.85118 0.0
H772 H 0.58378 0.2096 0.88796 0.0
H773 H 0.53094 0.15602 0.81992 0.0
H774 H 0.52862 0.23129 0.90877 0.0
H775 H 0.51539 0.19784 0.92574 0.0
H776 H 0.55844 0.22152 0.92229 0.0
H777 H 0.47191 0.12899 0.81983 0.0
H778 H 0.44914 0.13578 0.84541 0.0
H779 H 0.46568 0.16166 0.82044 0.0
H780 H 0.41739 0.16426 0.92741 0.0
H781 H 0.44776 0.23775 0.87795 0.0
H782 H 0.47752 0.14561 0.91786 0.0
H783 H 0.45242 0.12471 0.89028 0.0
H784 H 0.43366 0.1264 0.9205 0.0
H785 H 0.51824 0.24003 0.85883 0.0
H786 H 0.48538 0.24567 0.84529 0.0
H787 H 0.49177 0.2145 0.8337 0.0
C788 C 0.35992 0.12065 0.72883 0.0
C789 C 0.37726 0.10413 0.7316 0.0
C790 C 0.36792 0.14163 0.7098 0.0
C791 C 0.39414 0.14649 0.6933 0.0
C792 C 0.41228 0.13044 0.69642 0.0
C793 C 0.40351 0.10934 0.71543 0.0
C794 C 0.34781 0.15811 0.70696 0.0
C795 C 0.44065 0.13524 0.67943 0.0
C796 C 0.39253 0.17711 0.62775 0.0
C797 C 0.41358 0.20767 0.63245 0.0
C798 C 0.38626 0.15697 0.64729 0.0
C799 C 0.40171 0.16751 0.67213 0.0
C800 C 0.42364 0.19817 0.67686 0.0
C801 C 0.4292 0.2179 0.65702 0.0
C802 C 0.36265 0.12446 0.64146 0.0
C803 C 0.44078 0.21023 0.70303 0.0
H804 H 0.33958 0.11674 0.7412 0.0
H805 H 0.41716 0.0968 0.71753 0.0
H806 H 0.36386 0.18254 0.70866 0.0
H807 H 0.33562 0.15266 0.68739 0.0
H808 H 0.32879 0.15239 0.72177 0.0
H809 H 0.45329 0.12211 0.68519 0.0
H810 H 0.43184 0.12875 0.6589 0.0
H811 H 0.45865 0.15922 0.68036 0.0
H812 H 0.38082 0.16886 0.60872 0.0
H813 H 0.4452 0.24149 0.66098 0.0
H814 H 0.34177 0.11762 0.6546 0.0
H815 H 0.37487 0.1104 0.64509 0.0
H816 H 0.35294 0.11979 0.62107 0.0
H817 H 0.42249 0.20715 0.718 0.0
H818 H 0.45842 0.23431 0.70317 0.0
H819 H 0.45409 0.19768 0.70872 0.0
C820 C 0.80563 0.99747 0.21116 0.0
C821 C 0.79643 0.97413 0.22794 0.0
C822 C 0.78266 0.99921 0.19421 0.0
C823 C 0.74959 0.97719 0.19416 0.0
C824 C 0.73992 0.95404 0.21157 0.0
C825 C 0.7635 0.95271 0.2282 0.0
C826 C 0.79397 0.02415 0.17582 0.0
C827 C 0.70483 0.93032 0.2122 0.0
C828 C 0.68828 0.99657 0.16097 0.0
C829 C 0.68473 0.98234 0.13628 0.0
C830 C 0.70842 0.99423 0.1804 0.0
C831 C 0.72568 0.97759 0.17482 0.0
C832 C 0.72159 0.96265 0.15009 0.0
C833 C 0.70111 0.96515 0.13116 0.0
C834 C 0.71194 0.0102 0.20663 0.0
C835 C 0.73979 0.94493 0.14327 0.0
H836 H 0.831 0.01414 0.21085 0.0
H837 H 0.75614 0.9347 0.24122 0.0
H838 H 0.78997 0.01472 0.15547 0.0
H839 H 0.77944 0.03658 0.17818 0.0
H840 H 0.82028 0.04013 0.17899 0.0
H841 H 0.70088 0.91503 0.22806 0.0
H842 H 0.68836 0.9408 0.21477 0.0
H843 H 0.69764 0.91692 0.19343 0.0
H844 H 0.67549 0.00974 0.16499 0.0
H845 H 0.69888 0.95454 0.11195 0.0
H846 H 0.73738 0.02815 0.2098 0.0
H847 H 0.70715 0.99452 0.22225 0.0
H848 H 0.69501 0.02031 0.20849 0.0
H849 H 0.7665 0.95998 0.14404 0.0
H850 H 0.73274 0.93355 0.12359 0.0
H851 H 0.73506 0.92788 0.15763 0.0
C852 C 0.64509 0.12989 0.72466 0.0
C853 C 0.66903 0.13415 0.74369 0.0
C854 C 0.64261 0.11385 0.70105 0.0
C855 C 0.66463 0.10181 0.69634 0.0
C856 C 0.68809 0.10512 0.71581 0.0
C857 C 0.69001 0.12125 0.73927 0.0
C858 C 0.6172 0.11073 0.68078 0.0
C859 C 0.71198 0.0926 0.71149 0.0
C860 C 0.64504 0.04475 0.63943 0.0
C861 C 0.66398 0.06275 0.62001 0.0
C862 C 0.64527 0.05702 0.66453 0.0
C863 C 0.66485 0.08799 0.67026 0.0
C864 C 0.68425 0.10616 0.6508 0.0
C865 C 0.6835 0.09335 0.62595 0.0
C866 C 0.62433 0.03696 0.68483 0.0
C867 C 0.70538 0.1393 0.65609 0.0
H868 H 0.62866 0.13964 0.72796 0.0
H869 H 0.70849 0.12433 0.7539 0.0
H870 H 0.62947 0.12315 0.66365 0.0
H871 H 0.60253 0.08698 0.67401 0.0
H872 H 0.60037 0.11941 0.68818 0.0
H873 H 0.72688 0.09493 0.72931 0.0
H874 H 0.69878 0.06864 0.70494 0.0
H875 H 0.72872 0.10441 0.69592 0.0
H876 H 0.63006 0.02106 0.63499 0.0
H877 H 0.69767 0.10753 0.61091 0.0
H878 H 0.60606 0.0443 0.69132 0.0
H879 H 0.63967 0.03861 0.70212 0.0
H880 H 0.61118 0.01323 0.67748 0.0
H881 H 0.68985 0.15015 0.66142 0.0
H882 H 0.71974 0.15013 0.63905 0.0
H883 H 0.7226 0.14345 0.67276 0.0
C884 C 0.32847 0.43176 0.20412 0.0
C885 C 0.34804 0.46277 0.20456 0.0
C886 C 0.33082 0.41288 0.18428 0.0
C887 C 0.35343 0.42527 0.16449 0.0
C888 C 0.37365 0.45648 0.16501 0.0
C889 C 0.37064 0.47489 0.18501 0.0
C890 C 0.30873 0.37971 0.18431 0.0
C891 C 0.39825 0.47044 0.14433 0.0
C892 C 0.3777 0.37333 0.12519 0.0
C893 C 0.35811 0.36709 0.10249 0.0
C894 C 0.37671 0.39249 0.14541 0.0
C895 C 0.35543 0.40554 0.14297 0.0
C896 C 0.33555 0.39931 0.12016 0.0
C897 C 0.3372 0.38023 0.10016 0.0
C898 C 0.3983 0.39864 0.16944 0.0
C899 C 0.31244 0.41273 0.11691 0.0
H900 H 0.3109 0.42217 0.21911 0.0
H901 H 0.38593 0.4988 0.18524 0.0
H902 H 0.29295 0.37202 0.16636 0.0
H903 H 0.32357 0.36749 0.18437 0.0
H904 H 0.29282 0.37357 0.20135 0.0
H905 H 0.41278 0.49498 0.14793 0.0
H906 H 0.41526 0.4604 0.14337 0.0
H907 H 0.38549 0.46585 0.12505 0.0
H908 H 0.39357 0.36292 0.12729 0.0
H909 H 0.32236 0.37588 0.08253 0.0
H910 H 0.38302 0.391 0.18668 0.0
H911 H 0.41415 0.42299 0.17278 0.0
H912 H 0.41409 0.38731 0.16801 0.0
H913 H 0.2947 0.40611 0.13272 0.0
H914 H 0.29864 0.40563 0.09797 0.0
H915 H 0.32629 0.43743 0.11838 0.0
C916 C 0.81535 0.75921 0.72854 0.0
C917 C 0.82948 0.78978 0.73585 0.0
C918 C 0.83273 0.74276 0.73173 0.0
C919 C 0.86497 0.75719 0.7426 0.0
C920 C 0.87956 0.78812 0.74968 0.0
C921 C 0.86166 0.80406 0.74617 0.0
C922 C 0.81639 0.70984 0.72382 0.0
C923 C 0.91384 0.80426 0.76141 0.0
C924 C 0.89607 0.70843 0.77478 0.0
C925 C 0.91537 0.7046 0.75548 0.0
C926 C 0.87996 0.72585 0.77098 0.0
C927 C 0.88304 0.73968 0.74723 0.0
C928 C 0.90276 0.7362 0.72777 0.0
C929 C 0.91873 0.71875 0.73214 0.0
C930 C 0.85916 0.72903 0.79223 0.0
C931 C 0.90666 0.7506 0.7022 0.0
H932 H 0.79053 0.748 0.7205 0.0
H933 H 0.87277 0.82767 0.7519 0.0
H934 H 0.83153 0.70472 0.70977 0.0
H935 H 0.8142 0.69681 0.74105 0.0
H936 H 0.7916 0.70218 0.71487 0.0
H937 H 0.92203 0.82854 0.76512 0.0
H938 H 0.91505 0.79465 0.78003 0.0
H939 H 0.93123 0.80122 0.7483 0.0
H940 H 0.89289 0.69721 0.7927 0.0
H941 H 0.93392 0.7162 0.71726 0.0
H942 H 0.83331 0.71934 0.78513 0.0
H943 H 0.86728 0.75297 0.79765 0.0
H944 H 0.86024 0.71774 0.8099 0.0
H945 H 0.88247 0.7421 0.692 0.0
H946 H 0.92337 0.7462 0.68927 0.0
H947 H 0.91634 0.77508 0.70562 0.0
C948 C 0.67723 0.35048 0.29087 0.0
C949 C 0.65695 0.35919 0.3053 0.0
C950 C 0.71001 0.37067 0.28707 0.0
C951 C 0.72274 0.40032 0.29779 0.0
C952 C 0.70264 0.40907 0.31286 0.0
C953 C 0.67004 0.38838 0.31652 0.0
C954 C 0.73081 0.36046 0.27109 0.0
C955 C 0.71533 0.44055 0.32455 0.0
C956 C 0.81433 0.44991 0.30581 0.0
C957 C 0.82044 0.46764 0.28445 0.0
C958 C 0.78279 0.42733 0.31003 0.0
C959 C 0.75675 0.42258 0.29257 0.0
C960 C 0.76294 0.43997 0.27064 0.0
C961 C 0.79476 0.46224 0.26679 0.0
C962 C 0.77722 0.409 0.33345 0.0
C963 C 0.73576 0.43568 0.25166 0.0
H964 H 0.66739 0.32795 0.28221 0.0
H965 H 0.65457 0.39534 0.32766 0.0
H966 H 0.73809 0.37303 0.25324 0.0
H967 H 0.75361 0.36519 0.28217 0.0
H968 H 0.71781 0.33623 0.26535 0.0
H969 H 0.69687 0.44355 0.3364 0.0
H970 H 0.73748 0.44656 0.33699 0.0
H971 H 0.72254 0.45643 0.30887 0.0
H972 H 0.83424 0.45385 0.31934 0.0
H973 H 0.79934 0.47613 0.25042 0.0
H974 H 0.76503 0.38487 0.32742 0.0
H975 H 0.76072 0.41312 0.34679 0.0
H976 H 0.80038 0.41434 0.3443 0.0
H977 H 0.72289 0.4121 0.24398 0.0
H978 H 0.74487 0.45022 0.23505 0.0
H979 H 0.7175 0.44076 0.26174 0.0
C980 C 0.24801 0.56874 0.7801 0.0
C981 C 0.27405 0.58332 0.79829 0.0
C982 C 0.22195 0.57595 0.77918 0.0
C983 C 0.22174 0.59804 0.79708 0.0
C984 C 0.2481 0.61306 0.81532 0.0
C985 C 0.27405 0.60563 0.81562 0.0
C986 C 0.19444 0.55966 0.75925 0.0
C987 C 0.24856 0.6365 0.83489 0.0
C988 C 0.16498 0.63155 0.78132 0.0
C989 C 0.13742 0.61422 0.79548 0.0
C990 C 0.19285 0.62689 0.78196 0.0
C991 C 0.19326 0.60453 0.79729 0.0
C992 C 0.16588 0.58752 0.81214 0.0
C993 C 0.13826 0.59242 0.81093 0.0
C994 C 0.22153 0.64538 0.76576 0.0
C995 C 0.16541 0.56356 0.82883 0.0
H996 H 0.24793 0.5516 0.76655 0.0
H997 H 0.29405 0.61695 0.82977 0.0
H998 H 0.17123 0.54677 0.76915 0.0
H999 H 0.19098 0.57589 0.74747 0.0
H1000 H 0.199 0.54404 0.74598 0.0
H1001 H 0.27135 0.64679 0.84724 0.0
H1002 H 0.24613 0.65435 0.82483 0.0
H1003 H 0.22737 0.62637 0.84764 0.0
H1004 H 0.16469 0.64865 0.76956 0.0
H1005 H 0.11689 0.57848 0.82152 0.0
H1006 H 0.22553 0.63066 0.75108 0.0
H1007 H 0.24415 0.65672 0.77818 0.0
H1008 H 0.21778 0.66252 0.75555 0.0
H1009 H 0.16672 0.5456 0.8164 0.0
H1010 H 0.14301 0.55351 0.84036 0.0
H1011 H 0.18709 0.57294 0.84236 0.0
C1012 C 0.24913 0.86725 0.29921 0.0
C1013 C 0.2684 0.87376 0.27721 0.0
C1014 C 0.2203 0.84023 0.30009 0.0
C1015 C 0.21058 0.8193 0.27847 0.0
C1016 C 0.22995 0.82575 0.25625 0.0
C1017 C 0.25859 0.85287 0.2559 0.0
C1018 C 0.20022 0.83407 0.32412 0.0
C1019 C 0.22039 0.80402 0.23279 0.0
C1020 C 0.15269 0.7376 0.28653 0.0
C1021 C 0.12307 0.73528 0.27667 0.0
C1022 C 0.18124 0.76497 0.28775 0.0
C1023 C 0.18011 0.79061 0.27889 0.0
C1024 C 0.15015 0.78851 0.26932 0.0
C1025 C 0.122 0.76086 0.26831 0.0
C1026 C 0.21277 0.7663 0.29799 0.0
C1027 C 0.14795 0.81537 0.25977 0.0
H1028 H 0.25654 0.88327 0.31576 0.0
H1029 H 0.27329 0.85767 0.2388 0.0
H1030 H 0.17516 0.83049 0.31901 0.0
H1031 H 0.19787 0.81331 0.33237 0.0
H1032 H 0.21117 0.85261 0.3393 0.0
H1033 H 0.23821 0.81237 0.21708 0.0
H1034 H 0.21854 0.78238 0.23842 0.0
H1035 H 0.19597 0.79964 0.22496 0.0
H1036 H 0.15372 0.71784 0.29279 0.0
H1037 H 0.09903 0.75928 0.26106 0.0
H1038 H 0.2235 0.78378 0.31402 0.0
H1039 H 0.23079 0.77249 0.28239 0.0
H1040 H 0.20921 0.74468 0.30522 0.0
H1041 H 0.15704 0.83369 0.27516 0.0
H1042 H 0.12255 0.81024 0.25387 0.0
H1043 H 0.16373 0.8237 0.24287 0.0
C1044 C 0.79925 0.92564 0.65485 0.0
C1045 C 0.78356 0.89499 0.65888 0.0
C1046 C 0.79036 0.93705 0.63363 0.0
C1047 C 0.76531 0.91734 0.61589 0.0
C1048 C 0.7512 0.88619 0.61867 0.0
C1049 C 0.76045 0.87537 0.64018 0.0
C1050 C 0.80609 0.97042 0.63134 0.0
C1051 C 0.72472 0.86441 0.59996 0.0
C1052 C 0.7125 0.94844 0.58619 0.0
C1053 C 0.72543 0.95536 0.5615 0.0
C1054 C 0.72503 0.9357 0.60385 0.0
C1055 C 0.7511 0.92957 0.59663 0.0
C1056 C 0.76402 0.93612 0.5716 0.0
C1057 C 0.75113 0.94911 0.55434 0.0
C1058 C 0.71072 0.92932 0.63044 0.0
C1059 C 0.7916 0.92964 0.56316 0.0
H1060 H 0.81734 0.94101 0.66904 0.0
H1061 H 0.74835 0.85163 0.64298 0.0
H1062 H 0.81379 0.97612 0.61121 0.0
H1063 H 0.78804 0.97872 0.63594 0.0
H1064 H 0.82773 0.98237 0.64478 0.0
H1065 H 0.71976 0.841 0.6025 0.0
H1066 H 0.70178 0.86612 0.60315 0.0
H1067 H 0.73154 0.8698 0.5796 0.0
H1068 H 0.69298 0.95365 0.59196 0.0
H1069 H 0.76099 0.9542 0.53518 0.0
H1070 H 0.72991 0.94243 0.64557 0.0
H1071 H 0.70178 0.90538 0.63396 0.0
H1072 H 0.69012 0.93491 0.63281 0.0
H1073 H 0.81366 0.94294 0.57581 0.0
H1074 H 0.79796 0.93489 0.54268 0.0
H1075 H 0.78481 0.90577 0.56533 0.0
C1076 C 0.44033 0.25097 0.25448 0.0
C1077 C 0.46645 0.27912 0.26122 0.0
C1078 C 0.42351 0.24513 0.23034 0.0
C1079 C 0.43335 0.26787 0.2125 0.0
C1080 C 0.45864 0.29669 0.21972 0.0
C1081 C 0.47471 0.30199 0.24402 0.0
C1082 C 0.39617 0.21431 0.2235 0.0
C1083 C 0.47 0.32155 0.20123 0.0
C1084 C 0.42502 0.24944 0.13999 0.0
C1085 C 0.40031 0.25684 0.13269 0.0
C1086 C 0.43501 0.2517 0.16607 0.0
C1087 C 0.41958 0.26117 0.18544 0.0
C1088 C 0.39332 0.26698 0.17841 0.0
C1089 C 0.38412 0.26495 0.15207 0.0
C1090 C 0.46323 0.24542 0.17273 0.0
C1091 C 0.37599 0.27675 0.19854 0.0
H1092 H 0.4336 0.23323 0.26773 0.0
H1093 H 0.49471 0.32389 0.24907 0.0
H1094 H 0.37454 0.21572 0.21538 0.0
H1095 H 0.40421 0.20295 0.20834 0.0
H1096 H 0.38871 0.20036 0.24057 0.0
H1097 H 0.48863 0.34313 0.21039 0.0
H1098 H 0.48077 0.31562 0.1841 0.0
H1099 H 0.44901 0.32461 0.19404 0.0
H1100 H 0.43714 0.24251 0.12518 0.0
H1101 H 0.36515 0.2709 0.14662 0.0
H1102 H 0.45636 0.22912 0.18803 0.0
H1103 H 0.48431 0.26629 0.18056 0.0
H1104 H 0.47124 0.23653 0.15561 0.0
H1105 H 0.36983 0.26236 0.21528 0.0
H1106 H 0.35319 0.2761 0.19047 0.0
H1107 H 0.39239 0.29992 0.20602 0.0
C1108 C 0.41462 0.487 0.72222 0.0
C1109 C 0.43626 0.49849 0.74388 0.0
C1110 C 0.41665 0.46617 0.70419 0.0
C1111 C 0.44101 0.45678 0.70786 0.0
C1112 C 0.4636 0.46906 0.72919 0.0
C1113 C 0.4609 0.4897 0.74697 0.0
C1114 C 0.39215 0.45357 0.68164 0.0
C1115 C 0.49022 0.45994 0.73352 0.0
C1116 C 0.42544 0.38109 0.67757 0.0
C1117 C 0.44369 0.38906 0.65508 0.0
C1118 C 0.42452 0.40294 0.69499 0.0
C1119 C 0.44231 0.43347 0.68981 0.0
C1120 C 0.46114 0.44167 0.66733 0.0
C1121 C 0.46148 0.41938 0.65021 0.0
C1122 C 0.40415 0.39334 0.71878 0.0
C1123 C 0.48037 0.47395 0.66105 0.0
H1124 H 0.39549 0.49364 0.7197 0.0
H1125 H 0.47785 0.49859 0.76357 0.0
H1126 H 0.40498 0.45691 0.66305 0.0
H1127 H 0.37718 0.42918 0.6831 0.0
H1128 H 0.37551 0.46402 0.68099 0.0
H1129 H 0.5067 0.47252 0.75042 0.0
H1130 H 0.47913 0.43577 0.73684 0.0
H1131 H 0.50509 0.4636 0.71598 0.0
H1132 H 0.41174 0.35772 0.68147 0.0
H1133 H 0.47501 0.42572 0.63255 0.0
H1134 H 0.38516 0.40112 0.71848 0.0
H1135 H 0.41976 0.40373 0.73656 0.0
H1136 H 0.39192 0.36873 0.72008 0.0
H1137 H 0.4633 0.48324 0.65668 0.0
H1138 H 0.49603 0.4767 0.6441 0.0
H1139 H 0.49611 0.48735 0.678 0.0
C1140 C 0.47615 0.02989 0.24459 0.0
C1141 C 0.44282 0.00965 0.24132 0.0
C1142 C 0.4973 0.03572 0.2237 0.0
C1143 C 0.48483 0.02074 0.19913 0.0
C1144 C 0.45105 0.00113 0.19554 0.0
C1145 C 0.43049 0.99595 0.2166 0.0
C1146 C 0.53312 0.0571 0.22815 0.0
C1147 C 0.43676 0.98459 0.16969 0.0
C1148 C 0.52956 0.04367 0.13615 0.0
C1149 C 0.54147 0.02266 0.13263 0.0
C1150 C 0.51255 0.04445 0.15845 0.0
C1151 C 0.50711 0.02358 0.17752 0.0
C1152 C 0.52031 0.00321 0.17459 0.0
C1153 C 0.53745 0.00312 0.15227 0.0
C1154 C 0.49914 0.0667 0.16103 0.0
C1155 C 0.51505 0.98056 0.19445 0.0
H1156 H 0.48588 0.04071 0.26356 0.0
H1157 H 0.40478 0.98037 0.21378 0.0
H1158 H 0.54767 0.04461 0.22683 0.0
H1159 H 0.5416 0.07352 0.2129 0.0
H1160 H 0.5383 0.06935 0.24747 0.0
H1161 H 0.40973 0.97128 0.16977 0.0
H1162 H 0.44303 0.00052 0.15411 0.0
H1163 H 0.44742 0.96928 0.1647 0.0
H1164 H 0.53248 0.0588 0.12105 0.0
H1165 H 0.54729 0.98732 0.15001 0.0
H1166 H 0.50505 0.07817 0.18068 0.0
H1167 H 0.4721 0.05487 0.15856 0.0
H1168 H 0.50894 0.08376 0.14633 0.0
H1169 H 0.52267 0.99175 0.21412 0.0
H1170 H 0.52881 0.96769 0.19018 0.0
H1171 H 0.48864 0.96466 0.19485 0.0
C1172 C 0.55277 0.18071 0.32554 0.0
C1173 C 0.55099 0.20498 0.33855 0.0
C1174 C 0.5582 0.15997 0.3393 0.0
C1175 C 0.56216 0.16373 0.36668 0.0
C1176 C 0.55868 0.18726 0.38001 0.0
C1177 C 0.55303 0.20756 0.36578 0.0
C1178 C 0.56113 0.1348 0.32446 0.0
C1179 C 0.56273 0.19196 0.4092 0.0
C1180 C 0.56115 0.10147 0.40598 0.0
C1181 C 0.5947 0.1107 0.40999 0.0
C1182 C 0.55006 0.11818 0.39154 0.0
C1183 C 0.57309 0.1449 0.38114 0.0
C1184 C 0.60696 0.15411 0.38485 0.0
C1185 C 0.61732 0.13685 0.3991 0.0
C1186 C 0.51377 0.10756 0.38799 0.0
C1187 C 0.63232 0.18236 0.37391 0.0
H1188 H 0.55088 0.17835 0.30452 0.0
H1189 H 0.55145 0.22612 0.376 0.0
H1190 H 0.58667 0.13818 0.32622 0.0
H1191 H 0.54521 0.11319 0.33278 0.0
H1192 H 0.55438 0.13331 0.30352 0.0
H1193 H 0.55623 0.20948 0.4168 0.0
H1194 H 0.54732 0.17088 0.41848 0.0
H1195 H 0.58853 0.1987 0.41509 0.0
H1196 H 0.54352 0.08146 0.41456 0.0
H1197 H 0.64326 0.14381 0.40166 0.0
H1198 H 0.50722 0.10947 0.36766 0.0
H1199 H 0.50647 0.12174 0.40066 0.0
H1200 H 0.49947 0.08404 0.39311 0.0
H1201 H 0.62875 0.18124 0.35252 0.0
H1202 H 0.65769 0.18629 0.37842 0.0
H1203 H 0.62947 0.20182 0.38193 0.0
C1204 C 0.33351 0.49193 0.883 0.0
C1205 C 0.36376 0.50537 0.87102 0.0
C1206 C 0.32763 0.47096 0.90179 0.0
C1207 C 0.35252 0.46317 0.90856 0.0
C1208 C 0.38368 0.47799 0.89768 0.0
C1209 C 0.38895 0.49897 0.87916 0.0
C1210 C 0.29427 0.45596 0.9133 0.0
C1211 C 0.41092 0.47037 0.90439 0.0
C1212 C 0.35052 0.41819 0.96598 0.0
C1213 C 0.34104 0.38991 0.9537 0.0
C1214 C 0.35253 0.44202 0.95183 0.0
C1215 C 0.34533 0.43747 0.92476 0.0
C1216 C 0.33435 0.40862 0.91254 0.0
C1217 C 0.33225 0.38518 0.92718 0.0
C1218 C 0.36385 0.47235 0.9656 0.0
C1219 C 0.32671 0.40284 0.88368 0.0
H1220 H 0.31395 0.49686 0.87698 0.0
H1221 H 0.41251 0.50939 0.87021 0.0
H1222 H 0.28109 0.43254 0.90525 0.0
H1223 H 0.29652 0.45535 0.93466 0.0
H1224 H 0.27929 0.46743 0.90896 0.0
H1225 H 0.4344 0.48552 0.89579 0.0
H1226 H 0.41475 0.47153 0.92574 0.0
H1227 H 0.40411 0.44715 0.89711 0.0
H1228 H 0.3571 0.42182 0.98654 0.0
H1229 H 0.32538 0.36348 0.91753 0.0
H1230 H 0.34788 0.48238 0.95995 0.0
H1231 H 0.38898 0.48747 0.95979 0.0
H1232 H 0.36405 0.47128 0.98705 0.0
H1233 H 0.30921 0.41115 0.87788 0.0
H1234 H 0.31619 0.37876 0.87754 0.0
H1235 H 0.34942 0.41513 0.87297 0.0
C1236 C 0.43083 0.0712 0.40268 0.0
C1237 C 0.4125 0.06718 0.37965 0.0
C1238 C 0.43517 0.09382 0.42158 0.0
C1239 C 0.42045 0.11259 0.41749 0.0
C1240 C 0.40212 0.10878 0.3942 0.0
C1241 C 0.39839 0.08615 0.37556 0.0
C1242 C 0.4552 0.09741 0.44603 0.0
C1243 C 0.38607 0.12839 0.3891 0.0
C1244 C 0.40066 0.15124 0.47462 0.0
C1245 C 0.42555 0.1806 0.47386 0.0
C1246 C 0.3993 0.12869 0.45687 0.0
C1247 C 0.42331 0.13571 0.43781 0.0
C1248 C 0.449 0.16514 0.43738 0.0
C1249 C 0.44985 0.18723 0.45545 0.0
C1250 C 0.37163 0.09752 0.45805 0.0
C1251 C 0.47495 0.17354 0.41727 0.0
H1252 H 0.44159 0.05649 0.40608 0.0
H1253 H 0.38422 0.08323 0.35781 0.0
H1254 H 0.47513 0.12059 0.44865 0.0
H1255 H 0.43958 0.09332 0.46315 0.0
H1256 H 0.46621 0.08185 0.44573 0.0
H1257 H 0.3733 0.12299 0.36974 0.0
H1258 H 0.36805 0.12575 0.4042 0.0
H1259 H 0.40466 0.15218 0.39025 0.0
H1260 H 0.38201 0.14599 0.48897 0.0
H1261 H 0.46889 0.20998 0.45454 0.0
H1262 H 0.38147 0.08123 0.45943 0.0
H1263 H 0.35621 0.09136 0.43995 0.0
H1264 H 0.35589 0.0954 0.47485 0.0
H1265 H 0.48638 0.15838 0.4174 0.0
H1266 H 0.49439 0.1969 0.42058 0.0
H1267 H 0.46365 0.17094 0.39763 0.0
C1268 C 0.78504 0.96381 0.81372 0.0
C1269 C 0.78084 0.93465 0.80896 0.0
C1270 C 0.77031 0.9711 0.83471 0.0
C1271 C 0.75086 0.94867 0.85135 0.0
C1272 C 0.74716 0.91934 0.84708 0.0
C1273 C 0.76224 0.91268 0.82593 0.0
C1274 C 0.77496 0.00266 0.8387 0.0
C1275 C 0.7266 0.89486 0.86446 0.0
C1276 C 0.73272 0.97406 0.91707 0.0
C1277 C 0.70149 0.97164 0.91237 0.0
C1278 C 0.74893 0.96627 0.8975 0.0
C1279 C 0.73351 0.95579 0.87266 0.0
C1280 C 0.70184 0.953 0.86787 0.0
C1281 C 0.68623 0.96098 0.88778 0.0
C1282 C 0.78265 0.96949 0.90334 0.0
C1283 C 0.68463 0.94196 0.84159 0.0
H1284 H 0.79946 0.98097 0.80078 0.0
H1285 H 0.75887 0.89009 0.82239 0.0
H1286 H 0.75102 0.00284 0.83656 0.0
H1287 H 0.78474 0.01172 0.85866 0.0
H1288 H 0.79189 0.01775 0.82464 0.0
H1289 H 0.72743 0.87359 0.85926 0.0
H1290 H 0.73509 0.90172 0.88501 0.0
H1291 H 0.70079 0.8908 0.86305 0.0
H1292 H 0.74442 0.98181 0.93617 0.0
H1293 H 0.66224 0.95935 0.88395 0.0
H1294 H 0.80051 0.98559 0.89043 0.0
H1295 H 0.78291 0.94779 0.8994 0.0
H1296 H 0.79094 0.97734 0.92383 0.0
H1297 H 0.69901 0.95737 0.82669 0.0
H1298 H 0.65964 0.94017 0.84129 0.0
H1299 H 0.68279 0.91974 0.83595 0.0
loop_
_geom_bond_atom_site_label_1
_geom_bond_atom_site_label_2
_geom_bond_distance
_geom_bond_site_symmetry_2
_ccdc_geom_bond_type
O0 Cd1 2.300 . S
O0 C7 1.275 . S
Cd1 O0 2.300 . S
Cd1 O9 2.381 . S
Cd1 O10 2.378 . S
O2 Cd3 2.385 . S
O2 C7 1.255 . S
Cd3 O2 2.385 . S
Cd3 O4 2.317 . S
O4 Cd3 2.317 . S
O4 C5 1.232 . S
C5 O4 1.232 . S
C5 O6 1.218 . S
O6 C5 1.218 . S
C7 O0 1.275 . S
C7 O2 1.255 . S
C8 O9 1.258 . S
C8 O10 1.256 . S
O9 Cd1 2.381 . S
O9 C8 1.258 . S
O10 Cd1 2.378 . S
O10 C8 1.256 . S
O11 Cd12 2.300 . S
O11 C18 1.275 . S
Cd12 O11 2.300 . S
Cd12 O20 2.381 . S
Cd12 O21 2.378 . S
O13 Cd14 2.385 . S
O13 C18 1.255 1_565 S
Cd14 O13 2.385 . S
Cd14 O15 2.317 . S
O15 Cd14 2.317 . S
O15 C16 1.232 . S
C16 O15 1.232 . S
C16 O17 1.218 . S
O17 C16 1.218 . S
C18 O11 1.275 . S
C18 O13 1.255 1_545 S
C19 O20 1.258 . S
C19 O21 1.256 . S
O20 Cd12 2.381 . S
O20 C19 1.258 . S
O21 Cd12 2.378 . S
O21 C19 1.256 . S
O22 Cd23 2.300 . S
O22 C29 1.275 . S
Cd23 O22 2.300 . S
Cd23 O31 2.381 . S
Cd23 O32 2.378 . S
O24 Cd25 2.385 . S
O24 C29 1.255 . S
Cd25 O24 2.385 . S
Cd25 O26 2.317 . S
O26 Cd25 2.317 . S
O26 C27 1.232 . S
C27 O26 1.232 . S
C27 O28 1.218 . S
O28 C27 1.218 . S
C29 O22 1.275 . S
C29 O24 1.255 . S
C30 O31 1.258 . S
C30 O32 1.256 . S
O31 Cd23 2.381 . S
O31 C30 1.258 . S
O32 Cd23 2.378 . S
O32 C30 1.256 . S
O33 Cd34 2.300 . S
O33 C40 1.275 . S
Cd34 O33 2.300 . S
Cd34 O42 2.381 . S
Cd34 O43 2.378 . S
O35 Cd36 2.385 . S
O35 C40 1.255 . S
Cd36 O35 2.385 . S
Cd36 O37 2.317 . S
O37 Cd36 2.317 . S
O37 C38 1.232 . S
C38 O37 1.232 . S
C38 O39 1.218 . S
O39 C38 1.218 . S
C40 O33 1.275 . S
C40 O35 1.255 . S
C41 O42 1.258 . S
C41 O43 1.256 . S
O42 Cd34 2.381 . S
O42 C41 1.258 . S
O43 Cd34 2.378 . S
O43 C41 1.256 . S
O44 Cd45 2.300 . S
O44 C51 1.275 . S
Cd45 O44 2.300 . S
Cd45 O53 2.381 . S
Cd45 O54 2.378 . S
O46 Cd47 2.385 . S
O46 C51 1.255 . S
Cd47 O46 2.385 . S
Cd47 O48 2.317 . S
O48 Cd47 2.317 . S
O48 C49 1.232 . S
C49 O48 1.232 . S
C49 O50 1.218 . S
O50 C49 1.218 . S
C51 O44 1.275 . S
C51 O46 1.255 . S
C52 O53 1.258 . S
C52 O54 1.256 . S
O53 Cd45 2.381 . S
O53 C52 1.258 . S
O54 Cd45 2.378 . S
O54 C52 1.256 . S
O55 Cd56 2.300 . S
O55 C62 1.275 . S
Cd56 O55 2.300 . S
Cd56 O64 2.381 . S
Cd56 O65 2.378 . S
O57 Cd58 2.385 . S
O57 C62 1.255 . S
Cd58 O57 2.385 . S
Cd58 O59 2.317 . S
O59 Cd58 2.317 . S
O59 C60 1.232 . S
C60 O59 1.232 . S
C60 O61 1.218 . S
O61 C60 1.218 . S
C62 O55 1.275 . S
C62 O57 1.255 . S
C63 O64 1.258 . S
C63 O65 1.256 . S
O64 Cd56 2.381 . S
O64 C63 1.258 . S
O65 Cd56 2.378 . S
O65 C63 1.256 . S
O66 Cd67 2.300 . S
O66 C73 1.275 . S
Cd67 O66 2.300 . S
Cd67 O75 2.381 . S
Cd67 O76 2.378 . S
O68 Cd69 2.385 . S
O68 C73 1.255 . S
Cd69 O68 2.385 . S
Cd69 O70 2.317 . S
O70 Cd69 2.317 . S
O70 C71 1.232 . S
C71 O70 1.232 . S
C71 O72 1.218 . S
O72 C71 1.218 . S
C73 O66 1.275 . S
C73 O68 1.255 . S
C74 O75 1.258 . S
C74 O76 1.256 . S
O75 Cd67 2.381 . S
O75 C74 1.258 . S
O76 Cd67 2.378 . S
O76 C74 1.256 . S
O77 Cd78 2.324 . S
O77 C84 1.275 . S
Cd78 O77 2.324 . S
Cd78 O86 2.375 1_565 S
Cd78 O87 2.354 1_565 S
O79 Cd80 2.385 . S
O79 C84 1.255 . S
Cd80 O79 2.385 . S
Cd80 O81 2.317 . S
O81 Cd80 2.317 . S
O81 C82 1.232 . S
C82 O81 1.232 . S
C82 O83 1.218 . S
O83 C82 1.218 . S
C84 O77 1.275 . S
C84 O79 1.255 . S
C85 O86 1.258 . S
C85 O87 1.256 . S
O86 Cd78 2.375 1_545 S
O86 C85 1.258 . S
O87 Cd78 2.354 1_545 S
O87 C85 1.256 . S
H88 O114 0.856 . S
H89 O117 0.854 . S
H90 C125 0.930 . S
H91 C126 0.930 . S
H92 C128 0.930 . S
H93 C129 0.930 . S
H94 C131 0.931 . S
H95 C132 0.930 . S
H96 C134 0.930 1_455 S
H97 C135 0.932 . S
H98 C137 0.930 . S
H99 C138 0.931 . S
H100 C140 0.930 . S
H101 C141 0.929 . S
H102 C143 0.931 . S
H103 C144 0.930 . S
H104 C146 0.930 . S
H105 C147 0.932 . S
H106 C149 0.930 . S
H107 C150 0.929 . S
H108 C152 0.931 . S
H109 C153 0.930 . S
H110 C155 0.929 . S
H111 C156 0.931 . S
H112 C158 0.930 . S
H113 C159 0.929 . S
O114 H88 0.856 . S
O114 C160 1.300 . S
O115 C160 1.209 . S
O116 C161 1.199 . S
O117 H89 0.854 . S
O117 C161 1.297 . S
C118 C119 1.404 1_455 S
C118 C123 1.397 . S
C118 C124 1.492 . S
C119 C118 1.404 1_655 S
C119 C120 1.396 . S
C119 C130 1.492 . S
C120 C119 1.396 . S
C120 C121 1.397 . S
C120 C136 1.509 . S
C121 C120 1.397 . S
C121 C122 1.412 . S
C121 C142 1.485 . S
C122 C121 1.412 . S
C122 C123 1.388 1_655 S
C122 C148 1.490 . S
C123 C118 1.397 . S
C123 C122 1.388 1_455 S
C123 C154 1.519 . S
C124 C118 1.492 . S
C124 C125 1.363 . S
C124 C129 1.390 . S
C125 H90 0.930 . S
C125 C124 1.363 . S
C125 C126 1.372 . S
C126 H91 0.930 . S
C126 C125 1.372 . S
C126 C127 1.383 . S
C127 C126 1.383 . S
C127 C128 1.395 . S
C128 H92 0.930 . S
C128 C127 1.395 . S
C128 C129 1.362 . S
C129 H93 0.930 . S
C129 C124 1.390 . S
C129 C128 1.362 . S
C130 C119 1.492 . S
C130 C131 1.377 . S
C130 C135 1.397 . S
C131 H94 0.931 . S
C131 C130 1.377 . S
C131 C132 1.376 . S
C132 H95 0.930 . S
C132 C131 1.376 . S
C132 C133 1.376 . S
C133 C132 1.376 . S
C133 C134 1.378 . S
C133 C160 1.486 . S
C134 H96 0.930 1_655 S
C134 C133 1.378 . S
C134 C135 1.376 . S
C135 H97 0.932 . S
C135 C130 1.397 . S
C135 C134 1.376 . S
C136 C120 1.509 . S
C136 C137 1.391 . S
C136 C141 1.386 . S
C137 H98 0.930 . S
C137 C136 1.391 . S
C137 C138 1.375 . S
C138 H99 0.931 . S
C138 C137 1.375 . S
C138 C139 1.375 . S
C139 C138 1.375 . S
C139 C140 1.361 . S
C140 H100 0.930 . S
C140 C139 1.361 . S
C140 C141 1.399 . S
C141 H101 0.929 . S
C141 C136 1.386 . S
C141 C140 1.399 . S
C142 C121 1.485 . S
C142 C143 1.394 . S
C142 C147 1.360 . S
C143 H102 0.931 . S
C143 C142 1.394 . S
C143 C144 1.372 . S
C144 H103 0.930 . S
C144 C143 1.372 . S
C144 C145 1.397 . S
C145 C144 1.397 . S
C145 C146 1.390 . S
C145 C161 1.476 . S
C146 H104 0.930 . S
C146 C145 1.390 . S
C146 C147 1.366 . S
C147 H105 0.932 . S
C147 C142 1.360 . S
C147 C146 1.366 . S
C148 C122 1.490 . S
C148 C149 1.380 . S
C148 C153 1.386 . S
C149 H106 0.930 . S
C149 C148 1.380 . S
C149 C150 1.381 . S
C150 H107 0.929 . S
C150 C149 1.381 . S
C150 C151 1.371 . S
C151 C150 1.371 . S
C151 C152 1.380 . S
C152 H108 0.931 . S
C152 C151 1.380 . S
C152 C153 1.387 . S
C153 H109 0.930 . S
C153 C148 1.386 . S
C153 C152 1.387 . S
C154 C123 1.519 . S
C154 C155 1.377 . S
C154 C159 1.361 . S
C155 H110 0.929 . S
C155 C154 1.377 . S
C155 C156 1.386 . S
C156 H111 0.931 . S
C156 C155 1.386 . S
C156 C157 1.363 . S
C157 C156 1.363 . S
C157 C158 1.385 . S
C158 H112 0.930 . S
C158 C157 1.385 . S
C158 C159 1.396 . S
C159 H113 0.929 . S
C159 C154 1.361 . S
C159 C158 1.396 . S
C160 O114 1.300 . S
C160 O115 1.209 . S
C160 C133 1.486 . S
C161 O116 1.199 . S
C161 O117 1.297 . S
C161 C145 1.476 . S
H162 O188 0.856 . S
H163 O191 0.854 . S
H164 C199 0.930 . S
H165 C200 0.930 . S
H166 C202 0.930 . S
H167 C203 0.930 . S
H168 C205 0.931 . S
H169 C206 0.930 . S
H170 C208 0.930 . S
H171 C209 0.929 . S
H172 C211 0.930 . S
H173 C212 0.931 . S
H174 C214 0.930 . S
H175 C215 0.929 . S
H176 C217 0.931 . S
H177 C218 0.930 . S
H178 C220 0.930 . S
H179 C221 0.932 . S
H180 C223 0.930 . S
H181 C224 0.929 . S
H182 C226 0.931 . S
H183 C227 0.930 . S
H184 C229 0.929 . S
H185 C230 0.931 . S
H186 C232 0.930 . S
H187 C233 0.929 . S
O188 H162 0.856 . S
O188 C234 1.300 . S
O189 C234 1.209 . S
O190 C235 1.199 . S
O191 H163 0.854 . S
O191 C235 1.297 . S
C192 C193 1.404 1_455 S
C192 C197 1.397 1_455 S
C192 C198 1.492 . S
C193 C192 1.404 1_655 S
C193 C194 1.396 . S
C193 C204 1.492 . S
C194 C193 1.396 . S
C194 C195 1.397 . S
C194 C210 1.509 . S
C195 C194 1.397 . S
C195 C196 1.412 . S
C195 C216 1.485 . S
C196 C195 1.412 . S
C196 C197 1.388 . S
C196 C222 1.490 . S
C197 C192 1.397 1_655 S
C197 C196 1.388 . S
C197 C228 1.519 1_655 S
C198 C192 1.492 . S
C198 C199 1.363 . S
C198 C203 1.390 . S
C199 H164 0.930 . S
C199 C198 1.363 . S
C199 C200 1.372 . S
C200 H165 0.930 . S
C200 C199 1.372 . S
C200 C201 1.383 . S
C201 C200 1.383 . S
C201 C202 1.395 . S
C202 H166 0.930 . S
C202 C201 1.395 . S
C202 C203 1.362 . S
C203 H167 0.930 . S
C203 C198 1.390 . S
C203 C202 1.362 . S
C204 C193 1.492 . S
C204 C205 1.377 . S
C204 C209 1.397 1_655 S
C205 H168 0.931 . S
C205 C204 1.377 . S
C205 C206 1.376 . S
C206 H169 0.930 . S
C206 C205 1.376 . S
C206 C207 1.376 1_655 S
C207 C206 1.376 1_455 S
C207 C208 1.378 . S
C207 C234 1.486 . S
C208 H170 0.930 . S
C208 C207 1.378 . S
C208 C209 1.376 . S
C209 H171 0.929 . S
C209 C204 1.397 1_455 S
C209 C208 1.376 . S
C210 C194 1.509 . S
C210 C211 1.391 . S
C210 C215 1.386 . S
C211 H172 0.930 . S
C211 C210 1.391 . S
C211 C212 1.375 . S
C212 H173 0.931 . S
C212 C211 1.375 . S
C212 C213 1.375 . S
C213 C212 1.375 . S
C213 C214 1.361 . S
C214 H174 0.930 . S
C214 C213 1.361 . S
C214 C215 1.399 . S
C215 H175 0.929 . S
C215 C210 1.386 . S
C215 C214 1.399 . S
C216 C195 1.485 . S
C216 C217 1.394 . S
C216 C221 1.360 . S
C217 H176 0.931 . S
C217 C216 1.394 . S
C217 C218 1.372 . S
C218 H177 0.930 . S
C218 C217 1.372 . S
C218 C219 1.397 . S
C219 C218 1.397 . S
C219 C220 1.390 . S
C219 C235 1.476 . S
C220 H178 0.930 . S
C220 C219 1.390 . S
C220 C221 1.366 . S
C221 H179 0.932 . S
C221 C216 1.360 . S
C221 C220 1.366 . S
C222 C196 1.490 . S
C222 C223 1.380 . S
C222 C227 1.386 . S
C223 H180 0.930 . S
C223 C222 1.380 . S
C223 C224 1.381 . S
C224 H181 0.929 . S
C224 C223 1.381 . S
C224 C225 1.371 . S
C225 C224 1.371 . S
C225 C226 1.380 . S
C226 H182 0.931 . S
C226 C225 1.380 . S
C226 C227 1.387 . S
C227 H183 0.930 . S
C227 C222 1.386 . S
C227 C226 1.387 . S
C228 C197 1.519 1_455 S
C228 C229 1.377 . S
C228 C233 1.361 . S
C229 H184 0.929 . S
C229 C228 1.377 . S
C229 C230 1.386 . S
C230 H185 0.931 . S
C230 C229 1.386 . S
C230 C231 1.363 . S
C231 C230 1.363 . S
C231 C232 1.385 . S
C232 H186 0.930 . S
C232 C231 1.385 . S
C232 C233 1.396 . S
C233 H187 0.929 . S
C233 C228 1.361 . S
C233 C232 1.396 . S
C234 O188 1.300 . S
C234 O189 1.209 . S
C234 C207 1.486 . S
C235 O190 1.199 . S
C235 O191 1.297 . S
C235 C219 1.476 . S
H236 O262 0.856 . S
H237 O265 0.854 . S
H238 C273 0.930 . S
H239 C274 0.930 . S
H240 C276 0.930 . S
H241 C277 0.930 . S
H242 C279 0.931 . S
H243 C280 0.930 . S
H244 C282 0.930 . S
H245 C283 0.929 . S
H246 C285 0.930 . S
H247 C286 0.931 . S
H248 C288 0.930 . S
H249 C289 0.929 . S
H250 C291 0.931 . S
H251 C292 0.930 . S
H252 C294 0.930 . S
H253 C295 0.932 . S
H254 C297 0.930 . S
H255 C298 0.929 . S
H256 C300 0.931 . S
H257 C301 0.930 . S
H258 C303 0.929 . S
H259 C304 0.931 . S
H260 C306 0.930 . S
H261 C307 0.929 . S
O262 H236 0.856 . S
O262 C308 1.300 . S
O263 C308 1.209 . S
O264 C309 1.199 . S
O265 H237 0.854 . S
O265 C309 1.297 . S
C266 C267 1.404 . S
C266 C271 1.397 . S
C266 C272 1.492 . S
C267 C266 1.404 . S
C267 C268 1.396 . S
C267 C278 1.492 . S
C268 C267 1.396 . S
C268 C269 1.397 . S
C268 C284 1.509 . S
C269 C268 1.397 . S
C269 C270 1.412 . S
C269 C290 1.485 . S
C270 C269 1.412 . S
C270 C271 1.388 . S
C270 C296 1.490 . S
C271 C266 1.397 . S
C271 C270 1.388 . S
C271 C302 1.519 . S
C272 C266 1.492 . S
C272 C273 1.363 . S
C272 C277 1.390 . S
C273 H238 0.930 . S
C273 C272 1.363 . S
C273 C274 1.372 . S
C274 H239 0.930 . S
C274 C273 1.372 . S
C274 C275 1.383 . S
C275 C274 1.383 . S
C275 C276 1.395 . S
C276 H240 0.930 . S
C276 C275 1.395 . S
C276 C277 1.362 . S
C277 H241 0.930 . S
C277 C272 1.390 . S
C277 C276 1.362 . S
C278 C267 1.492 . S
C278 C279 1.377 . S
C278 C283 1.397 . S
C279 H242 0.931 . S
C279 C278 1.377 . S
C279 C280 1.376 . S
C280 H243 0.930 . S
C280 C279 1.376 . S
C280 C281 1.376 . S
C281 C280 1.376 . S
C281 C282 1.378 . S
C281 C308 1.486 . S
C282 H244 0.930 . S
C282 C281 1.378 . S
C282 C283 1.376 . S
C283 H245 0.929 . S
C283 C278 1.397 . S
C283 C282 1.376 . S
C284 C268 1.509 . S
C284 C285 1.391 . S
C284 C289 1.386 . S
C285 H246 0.930 . S
C285 C284 1.391 . S
C285 C286 1.375 . S
C286 H247 0.931 . S
C286 C285 1.375 . S
C286 C287 1.375 . S
C287 C286 1.375 . S
C287 C288 1.361 . S
C288 H248 0.930 . S
C288 C287 1.361 . S
C288 C289 1.399 . S
C289 H249 0.929 . S
C289 C284 1.386 . S
C289 C288 1.399 . S
C290 C269 1.485 . S
C290 C291 1.394 . S
C290 C295 1.360 . S
C291 H250 0.931 . S
C291 C290 1.394 . S
C291 C292 1.372 . S
C292 H251 0.930 . S
C292 C291 1.372 . S
C292 C293 1.397 . S
C293 C292 1.397 . S
C293 C294 1.390 . S
C293 C309 1.476 . S
C294 H252 0.930 . S
C294 C293 1.390 . S
C294 C295 1.366 . S
C295 H253 0.932 . S
C295 C290 1.360 . S
C295 C294 1.366 . S
C296 C270 1.490 . S
C296 C297 1.380 . S
C296 C301 1.386 . S
C297 H254 0.930 . S
C297 C296 1.380 . S
C297 C298 1.381 . S
C298 H255 0.929 . S
C298 C297 1.381 . S
C298 C299 1.371 . S
C299 C298 1.371 . S
C299 C300 1.380 . S
C300 H256 0.931 . S
C300 C299 1.380 . S
C300 C301 1.387 . S
C301 H257 0.930 . S
C301 C296 1.386 . S
C301 C300 1.387 . S
C302 C271 1.519 . S
C302 C303 1.377 . S
C302 C307 1.361 . S
C303 H258 0.929 . S
C303 C302 1.377 . S
C303 C304 1.386 . S
C304 H259 0.931 . S
C304 C303 1.386 . S
C304 C305 1.363 . S
C305 C304 1.363 . S
C305 C306 1.385 . S
C306 H260 0.930 . S
C306 C305 1.385 . S
C306 C307 1.396 . S
C307 H261 0.929 . S
C307 C302 1.361 . S
C307 C306 1.396 . S
C308 O262 1.300 . S
C308 O263 1.209 . S
C308 C281 1.486 . S
C309 O264 1.199 . S
C309 O265 1.297 . S
C309 C293 1.476 . S
H310 O336 0.856 1_565 S
H311 O339 0.854 . S
H312 C347 0.930 . S
H313 C348 0.930 . S
H314 C350 0.930 . S
H315 C351 0.930 . S
H316 C353 0.931 . S
H317 C354 0.930 . S
H318 C356 0.930 . S
H319 C357 0.929 . S
H320 C359 0.930 1_545 S
H321 C360 0.938 . S
H322 C362 0.930 . S
H323 C363 0.929 . S
H324 C365 0.931 1_545 S
H325 C366 0.930 1_545 S
H326 C368 0.930 . S
H327 C369 0.932 . S
H328 C371 0.930 . S
H329 C372 0.929 . S
H330 C374 0.931 . S
H331 C375 0.930 . S
H332 C377 0.929 . S
H333 C378 0.931 . S
H334 C380 0.930 . S
H335 C381 0.929 . S
O336 H310 0.856 1_545 S
O336 C382 1.300 1_545 S
O337 C382 1.209 . S
O338 C383 1.199 . S
O339 H311 0.854 . S
O339 C383 1.297 . S
C340 C341 1.404 1_554 S
C340 C345 1.397 . S
C340 C346 1.492 1_565 S
C341 C340 1.404 1_556 S
C341 C342 1.396 . S
C341 C352 1.492 . S
C342 C341 1.396 . S
C342 C343 1.397 1_556 S
C342 C358 1.509 . S
C343 C342 1.397 1_554 S
C343 C344 1.412 . S
C343 C364 1.485 . S
C344 C343 1.412 . S
C344 C345 1.388 . S
C344 C370 1.490 . S
C345 C340 1.397 . S
C345 C344 1.388 . S
C345 C376 1.534 . S
C346 C340 1.492 1_545 S
C346 C347 1.363 1_554 S
C346 C351 1.390 1_545 S
C347 H312 0.930 . S
C347 C346 1.363 1_556 S
C347 C348 1.372 . S
C348 H313 0.930 . S
C348 C347 1.372 . S
C348 C349 1.383 . S
C349 C348 1.383 . S
C349 C350 1.395 1_546 S
C350 H314 0.930 . S
C350 C349 1.395 1_564 S
C350 C351 1.362 . S
C351 H315 0.930 . S
C351 C346 1.390 1_565 S
C351 C350 1.362 . S
C352 C341 1.492 . S
C352 C353 1.377 1_565 S
C352 C357 1.397 . S
C353 H316 0.931 . S
C353 C352 1.377 1_545 S
C353 C354 1.376 . S
C354 H317 0.930 . S
C354 C353 1.376 . S
C354 C355 1.376 1_545 S
C355 C354 1.376 1_565 S
C355 C356 1.378 . S
C355 C382 1.486 . S
C356 H318 0.930 . S
C356 C355 1.378 . S
C356 C357 1.376 . S
C357 H319 0.929 . S
C357 C352 1.397 . S
C357 C356 1.376 . S
C358 C342 1.509 . S
C358 C359 1.391 . S
C358 C363 1.386 . S
C359 H320 0.930 1_565 S
C359 C358 1.391 . S
C359 C360 1.375 . S
C360 H321 0.938 . S
C360 C359 1.375 . S
C360 C361 1.375 . S
C361 C360 1.375 . S
C361 C362 1.361 . S
C362 H322 0.930 . S
C362 C361 1.361 . S
C362 C363 1.399 . S
C363 H323 0.929 . S
C363 C358 1.386 . S
C363 C362 1.399 . S
C364 C343 1.485 . S
C364 C365 1.394 . S
C364 C369 1.360 . S
C365 H324 0.931 1_565 S
C365 C364 1.394 . S
C365 C366 1.372 . S
C366 H325 0.930 1_565 S
C366 C365 1.372 . S
C366 C367 1.397 . S
C367 C366 1.397 . S
C367 C368 1.390 . S
C367 C383 1.476 . S
C368 H326 0.930 . S
C368 C367 1.390 . S
C368 C369 1.366 . S
C369 H327 0.932 . S
C369 C364 1.360 . S
C369 C368 1.366 . S
C370 C344 1.490 . S
C370 C371 1.380 1_565 S
C370 C375 1.386 . S
C371 H328 0.930 . S
C371 C370 1.380 1_545 S
C371 C372 1.381 . S
C372 H329 0.929 . S
C372 C371 1.381 . S
C372 C373 1.362 1_545 S
C373 C372 1.362 1_565 S
C373 C374 1.387 . S
C374 H330 0.931 . S
C374 C373 1.387 . S
C374 C375 1.387 . S
C375 H331 0.930 . S
C375 C370 1.386 . S
C375 C374 1.387 . S
C376 C345 1.534 . S
C376 C377 1.334 1_565 S
C376 C381 1.391 . S
C377 H332 0.929 . S
C377 C376 1.334 1_545 S
C377 C378 1.386 . S
C378 H333 0.931 . S
C378 C377 1.386 . S
C378 C379 1.363 . S
C379 C378 1.363 . S
C379 C380 1.385 1_545 S
C380 H334 0.930 . S
C380 C379 1.385 1_565 S
C380 C381 1.396 . S
C381 H335 0.929 . S
C381 C376 1.391 . S
C381 C380 1.396 . S
C382 O336 1.300 1_565 S
C382 O337 1.209 . S
C382 C355 1.486 . S
C383 O338 1.199 . S
C383 O339 1.297 . S
C383 C367 1.476 . S
H384 O410 0.856 . S
H385 O413 0.854 . S
H386 C421 0.930 . S
H387 C422 0.930 . S
H388 C424 0.930 . S
H389 C425 0.930 . S
H390 C427 0.931 . S
H391 C428 0.928 . S
H392 C430 0.930 . S
H393 C431 0.929 . S
H394 C433 0.930 . S
H395 C434 0.931 . S
H396 C436 0.930 . S
H397 C437 0.929 . S
H398 C439 0.931 . S
H399 C440 0.930 . S
H400 C442 0.930 . S
H401 C443 0.932 . S
H402 C445 0.930 . S
H403 C446 0.929 . S
H404 C448 0.931 . S
H405 C449 0.930 . S
H406 C451 0.929 . S
H407 C452 0.931 . S
H408 C454 0.930 . S
H409 C455 0.929 . S
O410 H384 0.856 . S
O410 C456 1.300 . S
O411 C456 1.209 . S
O412 C457 1.199 . S
O413 H385 0.854 . S
O413 C457 1.297 . S
C414 C415 1.404 . S
C414 C419 1.397 . S
C414 C420 1.492 1_545 S
C415 C414 1.404 . S
C415 C416 1.396 . S
C415 C426 1.492 . S
C416 C415 1.396 . S
C416 C417 1.397 . S
C416 C432 1.509 . S
C417 C416 1.397 . S
C417 C418 1.412 . S
C417 C438 1.485 . S
C418 C417 1.412 . S
C418 C419 1.388 . S
C418 C444 1.490 . S
C419 C414 1.397 . S
C419 C418 1.388 . S
C419 C450 1.519 1_545 S
C420 C414 1.492 1_565 S
C420 C421 1.363 . S
C420 C425 1.390 . S
C421 H386 0.930 . S
C421 C420 1.363 . S
C421 C422 1.372 . S
C422 H387 0.930 . S
C422 C421 1.372 . S
C422 C423 1.383 . S
C423 C422 1.383 . S
C423 C424 1.395 . S
C424 H388 0.930 . S
C424 C423 1.395 . S
C424 C425 1.362 . S
C425 H389 0.930 . S
C425 C420 1.390 . S
C425 C424 1.362 . S
C426 C415 1.492 . S
C426 C427 1.377 . S
C426 C431 1.397 . S
C427 H390 0.931 . S
C427 C426 1.377 . S
C427 C428 1.376 . S
C428 H391 0.928 . S
C428 C427 1.376 . S
C428 C429 1.376 . S
C429 C428 1.376 . S
C429 C430 1.378 . S
C429 C456 1.486 . S
C430 H392 0.930 . S
C430 C429 1.378 . S
C430 C431 1.376 . S
C431 H393 0.929 . S
C431 C426 1.397 . S
C431 C430 1.376 . S
C432 C416 1.509 . S
C432 C433 1.391 . S
C432 C437 1.386 . S
C433 H394 0.930 . S
C433 C432 1.391 . S
C433 C434 1.375 . S
C434 H395 0.931 . S
C434 C433 1.375 . S
C434 C435 1.375 . S
C435 C434 1.375 . S
C435 C436 1.361 . S
C436 H396 0.930 . S
C436 C435 1.361 . S
C436 C437 1.399 . S
C437 H397 0.929 . S
C437 C432 1.386 . S
C437 C436 1.399 . S
C438 C417 1.485 . S
C438 C439 1.394 . S
C438 C443 1.360 . S
C439 H398 0.931 . S
C439 C438 1.394 . S
C439 C440 1.372 . S
C440 H399 0.930 . S
C440 C439 1.372 . S
C440 C441 1.397 . S
C441 C440 1.397 . S
C441 C442 1.390 . S
C441 C457 1.476 . S
C442 H400 0.930 . S
C442 C441 1.390 . S
C442 C443 1.366 . S
C443 H401 0.932 . S
C443 C438 1.360 . S
C443 C442 1.366 . S
C444 C418 1.490 . S
C444 C445 1.380 1_545 S
C444 C449 1.386 . S
C445 H402 0.930 . S
C445 C444 1.380 1_565 S
C445 C446 1.381 . S
C446 H403 0.929 . S
C446 C445 1.381 . S
C446 C447 1.371 1_565 S
C447 C446 1.371 1_545 S
C447 C448 1.380 . S
C448 H404 0.931 . S
C448 C447 1.380 . S
C448 C449 1.387 . S
C449 H405 0.930 . S
C449 C444 1.386 . S
C449 C448 1.387 . S
C450 C419 1.519 1_565 S
C450 C451 1.377 . S
C450 C455 1.361 1_565 S
C451 H406 0.929 . S
C451 C450 1.377 . S
C451 C452 1.386 . S
C452 H407 0.931 . S
C452 C451 1.386 . S
C452 C453 1.363 . S
C453 C452 1.363 . S
C453 C454 1.385 . S
C454 H408 0.930 . S
C454 C453 1.385 . S
C454 C455 1.396 1_565 S
C455 H409 0.929 . S
C455 C450 1.361 1_545 S
C455 C454 1.396 1_545 S
C456 O410 1.300 . S
C456 O411 1.209 . S
C456 C429 1.486 . S
C457 O412 1.199 . S
C457 O413 1.297 . S
C457 C441 1.476 . S
H458 O484 0.856 . S
H459 O487 0.854 . S
H460 C495 0.930 . S
H461 C496 0.930 . S
H462 C498 0.930 . S
H463 C499 0.930 . S
H464 C501 0.931 . S
H465 C502 0.930 . S
H466 C504 0.930 . S
H467 C505 0.929 . S
H468 C507 0.930 . S
H469 C508 0.931 . S
H470 C510 0.930 . S
H471 C511 0.929 . S
H472 C513 0.931 . S
H473 C514 0.930 . S
H474 C516 0.930 . S
H475 C517 0.932 . S
H476 C519 0.930 . S
H477 C520 0.929 . S
H478 C522 0.931 . S
H479 C523 0.930 . S
H480 C525 0.929 . S
H481 C526 0.931 . S
H482 C528 0.930 . S
H483 C529 0.929 . S
O484 H458 0.856 . S
O484 C530 1.300 . S
O485 C530 1.209 . S
O486 C531 1.199 . S
O487 H459 0.854 . S
O487 C531 1.297 . S
C488 C489 1.404 . S
C488 C493 1.397 1_556 S
C488 C494 1.492 . S
C489 C488 1.404 . S
C489 C490 1.396 . S
C489 C500 1.492 . S
C490 C489 1.396 . S
C490 C491 1.397 1_556 S
C490 C506 1.509 . S
C491 C490 1.397 1_554 S
C491 C492 1.412 . S
C491 C512 1.485 . S
C492 C491 1.412 . S
C492 C493 1.388 . S
C492 C518 1.490 . S
C493 C488 1.397 1_554 S
C493 C492 1.388 . S
C493 C524 1.519 . S
C494 C488 1.492 . S
C494 C495 1.363 . S
C494 C499 1.390 . S
C495 H460 0.930 . S
C495 C494 1.363 . S
C495 C496 1.372 . S
C496 H461 0.930 . S
C496 C495 1.372 . S
C496 C497 1.383 . S
C497 C496 1.383 . S
C497 C498 1.395 . S
C498 H462 0.930 . S
C498 C497 1.395 . S
C498 C499 1.362 . S
C499 H463 0.930 . S
C499 C494 1.390 . S
C499 C498 1.362 . S
C500 C489 1.492 . S
C500 C501 1.377 . S
C500 C505 1.397 . S
C501 H464 0.931 . S
C501 C500 1.377 . S
C501 C502 1.376 . S
C502 H465 0.930 . S
C502 C501 1.376 . S
C502 C503 1.376 . S
C503 C502 1.376 . S
C503 C504 1.378 . S
C503 C530 1.486 . S
C504 H466 0.930 . S
C504 C503 1.378 . S
C504 C505 1.376 . S
C505 H467 0.929 . S
C505 C500 1.397 . S
C505 C504 1.376 . S
C506 C490 1.509 . S
C506 C507 1.391 . S
C506 C511 1.386 . S
C507 H468 0.930 . S
C507 C506 1.391 . S
C507 C508 1.375 . S
C508 H469 0.931 . S
C508 C507 1.375 . S
C508 C509 1.375 . S
C509 C508 1.375 . S
C509 C510 1.361 . S
C510 H470 0.930 . S
C510 C509 1.361 . S
C510 C511 1.399 . S
C511 H471 0.929 . S
C511 C506 1.386 . S
C511 C510 1.399 . S
C512 C491 1.485 . S
C512 C513 1.394 . S
C512 C517 1.360 . S
C513 H472 0.931 . S
C513 C512 1.394 . S
C513 C514 1.372 . S
C514 H473 0.930 . S
C514 C513 1.372 . S
C514 C515 1.397 . S
C515 C514 1.397 . S
C515 C516 1.390 . S
C515 C531 1.476 . S
C516 H474 0.930 . S
C516 C515 1.390 . S
C516 C517 1.366 . S
C517 H475 0.932 . S
C517 C512 1.360 . S
C517 C516 1.366 . S
C518 C492 1.490 . S
C518 C519 1.380 . S
C518 C523 1.386 . S
C519 H476 0.930 . S
C519 C518 1.380 . S
C519 C520 1.381 . S
C520 H477 0.929 . S
C520 C519 1.381 . S
C520 C521 1.371 . S
C521 C520 1.371 . S
C521 C522 1.380 . S
C522 H478 0.931 . S
C522 C521 1.380 . S
C522 C523 1.387 . S
C523 H479 0.930 . S
C523 C518 1.386 . S
C523 C522 1.387 . S
C524 C493 1.519 . S
C524 C525 1.377 . S
C524 C529 1.361 . S
C525 H480 0.929 . S
C525 C524 1.377 . S
C525 C526 1.386 . S
C526 H481 0.931 . S
C526 C525 1.386 . S
C526 C527 1.363 . S
C527 C526 1.363 . S
C527 C528 1.385 . S
C528 H482 0.930 . S
C528 C527 1.385 . S
C528 C529 1.396 . S
C529 H483 0.929 . S
C529 C524 1.361 . S
C529 C528 1.396 . S
C530 O484 1.300 . S
C530 O485 1.209 . S
C530 C503 1.486 . S
C531 O486 1.199 . S
C531 O487 1.297 . S
C531 C515 1.476 . S
C532 C533 1.391 . S
C532 C534 1.394 . S
C532 H548 0.931 . S
C533 C532 1.391 . S
C533 C537 1.376 . S
C534 C532 1.394 . S
C534 C535 1.369 . S
C534 C538 1.531 . S
C535 C534 1.369 . S
C535 C536 1.410 . S
C535 C543 1.503 . S
C536 C535 1.410 . S
C536 C537 1.392 . S
C536 C539 1.511 . S
C537 C533 1.376 . S
C537 C536 1.392 . S
C537 H549 0.929 . S
C538 C534 1.531 . S
C538 H550 0.960 . S
C538 H551 0.962 . S
C538 H552 0.960 . S
C539 C536 1.511 . S
C539 H553 0.961 . S
C539 H554 0.961 . S
C539 H555 0.961 . S
C540 C541 1.370 . S
C540 C542 1.363 . S
C540 H556 0.931 . S
C541 C540 1.370 . S
C541 C545 1.408 . S
C542 C540 1.363 . S
C542 C543 1.370 . S
C542 C546 1.524 . S
C543 C535 1.503 . S
C543 C542 1.370 . S
C543 C544 1.403 . S
C544 C543 1.403 . S
C544 C545 1.404 . S
C544 C547 1.539 . S
C545 C541 1.408 . S
C545 C544 1.404 . S
C545 H557 0.930 . S
C546 C542 1.524 . S
C546 H558 0.956 . S
C546 H559 0.961 . S
C546 H560 0.961 . S
C547 C544 1.539 . S
C547 H561 0.958 . S
C547 H562 0.961 . S
C547 H563 0.960 . S
H548 C532 0.931 . S
H549 C537 0.929 . S
H550 C538 0.960 . S
H551 C538 0.962 . S
H552 C538 0.960 . S
H553 C539 0.961 . S
H554 C539 0.961 . S
H555 C539 0.961 . S
H556 C540 0.931 . S
H557 C545 0.930 . S
H558 C546 0.956 . S
H559 C546 0.961 . S
H560 C546 0.961 . S
H561 C547 0.958 . S
H562 C547 0.961 . S
H563 C547 0.960 . S
C564 C565 1.391 . S
C564 C566 1.394 . S
C564 H580 0.931 . S
C565 C564 1.391 . S
C565 C569 1.376 . S
C566 C564 1.394 . S
C566 C567 1.369 . S
C566 C570 1.531 . S
C567 C566 1.369 . S
C567 C568 1.410 . S
C567 C575 1.503 . S
C568 C567 1.410 . S
C568 C569 1.392 . S
C568 C571 1.511 . S
C569 C565 1.376 . S
C569 C568 1.392 . S
C569 H581 0.929 . S
C570 C566 1.531 . S
C570 H582 0.960 . S
C570 H583 0.962 . S
C570 H584 0.960 . S
C571 C568 1.511 . S
C571 H585 0.961 . S
C571 H586 0.961 . S
C571 H587 0.961 . S
C572 C573 1.370 . S
C572 C574 1.363 . S
C572 H588 0.931 . S
C573 C572 1.370 . S
C573 C577 1.408 . S
C574 C572 1.363 . S
C574 C575 1.370 . S
C574 C578 1.524 . S
C575 C567 1.503 . S
C575 C574 1.370 . S
C575 C576 1.403 . S
C576 C575 1.403 . S
C576 C577 1.404 . S
C576 C579 1.539 . S
C577 C573 1.408 . S
C577 C576 1.404 . S
C577 H589 0.930 . S
C578 C574 1.524 . S
C578 H590 0.956 . S
C578 H591 0.961 . S
C578 H592 0.961 . S
C579 C576 1.539 . S
C579 H593 0.958 . S
C579 H594 0.961 . S
C579 H595 0.960 . S
H580 C564 0.931 . S
H581 C569 0.929 . S
H582 C570 0.960 . S
H583 C570 0.962 . S
H584 C570 0.960 . S
H585 C571 0.961 . S
H586 C571 0.961 . S
H587 C571 0.961 . S
H588 C572 0.931 . S
H589 C577 0.930 . S
H590 C578 0.956 . S
H591 C578 0.961 . S
H592 C578 0.961 . S
H593 C579 0.958 . S
H594 C579 0.961 . S
H595 C579 0.960 . S
C596 C597 1.391 . S
C596 C598 1.394 . S
C596 H612 0.931 . S
C597 C596 1.391 . S
C597 C601 1.376 . S
C598 C596 1.394 . S
C598 C599 1.369 . S
C598 C602 1.531 . S
C599 C598 1.369 . S
C599 C600 1.410 . S
C599 C607 1.503 . S
C600 C599 1.410 . S
C600 C601 1.392 . S
C600 C603 1.511 . S
C601 C597 1.376 . S
C601 C600 1.392 . S
C601 H613 0.929 . S
C602 C598 1.531 . S
C602 H614 0.960 . S
C602 H615 0.962 . S
C602 H616 0.960 . S
C603 C600 1.511 . S
C603 H617 0.961 1_655 S
C603 H618 0.961 . S
C603 H619 0.961 1_655 S
C604 C605 1.370 . S
C604 C606 1.363 . S
C604 H620 0.931 . S
C605 C604 1.370 . S
C605 C609 1.408 . S
C606 C604 1.363 . S
C606 C607 1.370 . S
C606 C610 1.524 . S
C607 C599 1.503 . S
C607 C606 1.370 . S
C607 C608 1.403 . S
C608 C607 1.403 . S
C608 C609 1.404 . S
C608 C611 1.539 . S
C609 C605 1.408 . S
C609 C608 1.404 . S
C609 H621 0.930 . S
C610 C606 1.524 . S
C610 H622 0.956 . S
C610 H623 0.961 . S
C610 H624 0.961 . S
C611 C608 1.539 . S
C611 H625 0.958 . S
C611 H626 0.961 . S
C611 H627 0.960 . S
H612 C596 0.931 . S
H613 C601 0.929 . S
H614 C602 0.960 . S
H615 C602 0.962 . S
H616 C602 0.960 . S
H617 C603 0.961 1_455 S
H618 C603 0.961 . S
H619 C603 0.961 1_455 S
H620 C604 0.931 . S
H621 C609 0.930 . S
H622 C610 0.956 . S
H623 C610 0.961 . S
H624 C610 0.961 . S
H625 C611 0.958 . S
H626 C611 0.961 . S
H627 C611 0.960 . S
C628 C629 1.391 . S
C628 C630 1.394 . S
C628 H644 0.931 . S
C629 C628 1.391 . S
C629 C633 1.376 . S
C630 C628 1.394 . S
C630 C631 1.369 . S
C630 C634 1.531 . S
C631 C630 1.369 . S
C631 C632 1.410 . S
C631 C639 1.503 . S
C632 C631 1.410 . S
C632 C633 1.392 . S
C632 C635 1.511 . S
C633 C629 1.376 . S
C633 C632 1.392 . S
C633 H645 0.929 . S
C634 C630 1.531 . S
C634 H646 0.960 . S
C634 H647 0.962 . S
C634 H648 0.960 . S
C635 C632 1.511 . S
C635 H649 0.961 . S
C635 H650 0.961 . S
C635 H651 0.961 . S
C636 C637 1.370 . S
C636 C638 1.363 . S
C636 H652 0.931 . S
C637 C636 1.370 . S
C637 C641 1.408 . S
C638 C636 1.363 . S
C638 C639 1.370 . S
C638 C642 1.524 . S
C639 C631 1.503 . S
C639 C638 1.370 . S
C639 C640 1.403 . S
C640 C639 1.403 . S
C640 C641 1.404 . S
C640 C643 1.539 . S
C641 C637 1.408 . S
C641 C640 1.404 . S
C641 H653 0.930 . S
C642 C638 1.524 . S
C642 H654 0.956 . S
C642 H655 0.961 . S
C642 H656 0.961 . S
C643 C640 1.539 . S
C643 H657 0.958 . S
C643 H658 0.961 . S
C643 H659 0.960 . S
H644 C628 0.931 . S
H645 C633 0.929 . S
H646 C634 0.960 . S
H647 C634 0.962 . S
H648 C634 0.960 . S
H649 C635 0.961 . S
H650 C635 0.961 . S
H651 C635 0.961 . S
H652 C636 0.931 . S
H653 C641 0.930 . S
H654 C642 0.956 . S
H655 C642 0.961 . S
H656 C642 0.961 . S
H657 C643 0.958 . S
H658 C643 0.961 . S
H659 C643 0.960 . S
C660 C661 1.391 . S
C660 C662 1.394 . S
C660 H676 0.931 . S
C661 C660 1.391 . S
C661 C665 1.376 . S
C662 C660 1.394 . S
C662 C663 1.369 . S
C662 C666 1.531 . S
C663 C662 1.369 . S
C663 C664 1.410 . S
C663 C671 1.503 . S
C664 C663 1.410 . S
C664 C665 1.392 . S
C664 C667 1.511 . S
C665 C661 1.376 . S
C665 C664 1.392 . S
C665 H677 0.929 . S
C666 C662 1.531 . S
C666 H678 0.960 . S
C666 H679 0.962 . S
C666 H680 0.960 . S
C667 C664 1.511 . S
C667 H681 0.961 . S
C667 H682 0.961 . S
C667 H683 0.961 . S
C668 C669 1.370 . S
C668 C670 1.363 . S
C668 H684 0.931 . S
C669 C668 1.370 . S
C669 C673 1.408 . S
C670 C668 1.363 . S
C670 C671 1.370 . S
C670 C674 1.524 . S
C671 C663 1.503 . S
C671 C670 1.370 . S
C671 C672 1.403 . S
C672 C671 1.403 . S
C672 C673 1.404 . S
C672 C675 1.539 . S
C673 C669 1.408 . S
C673 C672 1.404 . S
C673 H685 0.930 . S
C674 C670 1.524 . S
C674 H686 0.956 . S
C674 H687 0.961 . S
C674 H688 0.961 . S
C675 C672 1.539 . S
C675 H689 0.958 . S
C675 H690 0.961 . S
C675 H691 0.960 . S
H676 C660 0.931 . S
H677 C665 0.929 . S
H678 C666 0.960 . S
H679 C666 0.962 . S
H680 C666 0.960 . S
H681 C667 0.961 . S
H682 C667 0.961 . S
H683 C667 0.961 . S
H684 C668 0.931 . S
H685 C673 0.930 . S
H686 C674 0.956 . S
H687 C674 0.961 . S
H688 C674 0.961 . S
H689 C675 0.958 . S
H690 C675 0.961 . S
H691 C675 0.960 . S
C692 C693 1.391 1_565 S
C692 C694 1.394 . S
C692 H708 0.931 . S
C693 C692 1.391 1_545 S
C693 C697 1.376 . S
C694 C692 1.394 . S
C694 C695 1.369 1_565 S
C694 C698 1.531 . S
C695 C694 1.369 1_545 S
C695 C696 1.410 . S
C695 C703 1.503 . S
C696 C695 1.410 . S
C696 C697 1.392 . S
C696 C699 1.511 . S
C697 C693 1.376 . S
C697 C696 1.392 . S
C697 H709 0.929 . S
C698 C694 1.531 . S
C698 H710 0.960 . S
C698 H711 0.962 . S
C698 H712 0.960 . S
C699 C696 1.511 . S
C699 H713 0.961 . S
C699 H714 0.961 . S
C699 H715 0.961 . S
C700 C701 1.370 . S
C700 C702 1.363 . S
C700 H716 0.931 . S
C701 C700 1.370 . S
C701 C705 1.428 . S
C702 C700 1.363 . S
C702 C703 1.370 . S
C702 C706 1.524 . S
C703 C695 1.503 . S
C703 C702 1.370 . S
C703 C704 1.403 1_545 S
C704 C703 1.403 1_565 S
C704 C705 1.410 1_565 S
C704 C707 1.539 . S
C705 C701 1.428 . S
C705 C704 1.410 1_545 S
C705 H717 0.906 1_545 S
C706 C702 1.524 . S
C706 H718 0.956 . S
C706 H719 0.961 . S
C706 H720 0.961 . S
C707 C704 1.539 . S
C707 H721 0.958 . S
C707 H722 0.961 . S
C707 H723 0.960 . S
H708 C692 0.931 . S
H709 C697 0.929 . S
H710 C698 0.960 . S
H711 C698 0.962 . S
H712 C698 0.960 . S
H713 C699 0.961 . S
H714 C699 0.961 . S
H715 C699 0.961 . S
H716 C700 0.931 . S
H717 C705 0.906 1_565 S
H718 C706 0.956 . S
H719 C706 0.961 . S
H720 C706 0.961 . S
H721 C707 0.958 . S
H722 C707 0.961 . S
H723 C707 0.960 . S
C724 C725 1.391 . S
C724 C726 1.394 . S
C724 H740 0.931 . S
C725 C724 1.391 . S
C725 C729 1.376 . S
C726 C724 1.394 . S
C726 C727 1.369 . S
C726 C730 1.531 . S
C727 C726 1.369 . S
C727 C728 1.410 . S
C727 C735 1.503 . S
C728 C727 1.410 . S
C728 C729 1.392 . S
C728 C731 1.511 . S
C729 C725 1.376 . S
C729 C728 1.392 . S
C729 H741 0.929 . S
C730 C726 1.531 . S
C730 H742 0.960 . S
C730 H743 0.962 . S
C730 H744 0.960 1_565 S
C731 C728 1.511 . S
C731 H745 0.961 . S
C731 H746 0.961 . S
C731 H747 0.961 . S
C732 C733 1.370 . S
C732 C734 1.363 . S
C732 H748 0.931 . S
C733 C732 1.370 . S
C733 C737 1.408 . S
C734 C732 1.363 . S
C734 C735 1.370 . S
C734 C738 1.524 . S
C735 C727 1.503 . S
C735 C734 1.370 . S
C735 C736 1.403 . S
C736 C735 1.403 . S
C736 C737 1.404 . S
C736 C739 1.539 . S
C737 C733 1.408 . S
C737 C736 1.404 . S
C737 H749 0.930 . S
C738 C734 1.524 . S
C738 H750 0.956 . S
C738 H751 0.961 . S
C738 H752 0.961 . S
C739 C736 1.539 . S
C739 H753 0.958 . S
C739 H754 0.961 . S
C739 H755 0.960 . S
H740 C724 0.931 . S
H741 C729 0.929 . S
H742 C730 0.960 . S
H743 C730 0.962 . S
H744 C730 0.960 1_545 S
H745 C731 0.961 . S
H746 C731 0.961 . S
H747 C731 0.961 . S
H748 C732 0.931 . S
H749 C737 0.930 . S
H750 C738 0.956 . S
H751 C738 0.961 . S
H752 C738 0.961 . S
H753 C739 0.958 . S
H754 C739 0.961 . S
H755 C739 0.960 . S
C756 C757 1.391 . S
C756 C758 1.394 . S
C756 H772 0.931 . S
C757 C756 1.391 . S
C757 C761 1.376 . S
C758 C756 1.394 . S
C758 C759 1.369 . S
C758 C762 1.531 . S
C759 C758 1.369 . S
C759 C760 1.410 . S
C759 C767 1.503 . S
C760 C759 1.410 . S
C760 C761 1.392 . S
C760 C763 1.511 . S
C761 C757 1.376 . S
C761 C760 1.392 . S
C761 H773 0.929 . S
C762 C758 1.531 . S
C762 H774 0.960 . S
C762 H775 0.962 . S
C762 H776 0.960 . S
C763 C760 1.511 . S
C763 H777 0.961 . S
C763 H778 0.961 . S
C763 H779 0.961 . S
C764 C765 1.370 . S
C764 C766 1.363 . S
C764 H780 0.931 . S
C765 C764 1.370 . S
C765 C769 1.408 . S
C766 C764 1.363 . S
C766 C767 1.370 . S
C766 C770 1.524 . S
C767 C759 1.503 . S
C767 C766 1.370 . S
C767 C768 1.403 . S
C768 C767 1.403 . S
C768 C769 1.404 . S
C768 C771 1.539 . S
C769 C765 1.408 . S
C769 C768 1.404 . S
C769 H781 0.930 . S
C770 C766 1.524 . S
C770 H782 0.956 . S
C770 H783 0.961 . S
C770 H784 0.961 . S
C771 C768 1.539 . S
C771 H785 0.958 . S
C771 H786 0.961 . S
C771 H787 0.960 . S
H772 C756 0.931 . S
H773 C761 0.929 . S
H774 C762 0.960 . S
H775 C762 0.962 . S
H776 C762 0.960 . S
H777 C763 0.961 . S
H778 C763 0.961 . S
H779 C763 0.961 . S
H780 C764 0.931 . S
H781 C769 0.930 . S
H782 C770 0.956 . S
H783 C770 0.961 . S
H784 C770 0.961 . S
H785 C771 0.958 . S
H786 C771 0.961 . S
H787 C771 0.960 . S
C788 C789 1.391 . S
C788 C790 1.394 . S
C788 H804 0.931 . S
C789 C788 1.391 . S
C789 C793 1.376 . S
C790 C788 1.394 . S
C790 C791 1.369 . S
C790 C794 1.531 . S
C791 C790 1.369 . S
C791 C792 1.410 . S
C791 C799 1.503 . S
C792 C791 1.410 . S
C792 C793 1.392 . S
C792 C795 1.511 . S
C793 C789 1.376 . S
C793 C792 1.392 . S
C793 H805 0.929 . S
C794 C790 1.531 . S
C794 H806 0.960 . S
C794 H807 0.962 . S
C794 H808 0.960 . S
C795 C792 1.511 . S
C795 H809 0.961 . S
C795 H810 0.961 . S
C795 H811 0.961 . S
C796 C797 1.370 . S
C796 C798 1.363 . S
C796 H812 0.931 . S
C797 C796 1.370 . S
C797 C801 1.408 . S
C798 C796 1.363 . S
C798 C799 1.370 . S
C798 C802 1.524 . S
C799 C791 1.503 . S
C799 C798 1.370 . S
C799 C800 1.403 . S
C800 C799 1.403 . S
C800 C801 1.404 . S
C800 C803 1.539 . S
C801 C797 1.408 . S
C801 C800 1.404 . S
C801 H813 0.930 . S
C802 C798 1.524 . S
C802 H814 0.956 . S
C802 H815 0.961 . S
C802 H816 0.961 . S
C803 C800 1.539 . S
C803 H817 0.958 . S
C803 H818 0.961 . S
C803 H819 0.960 . S
H804 C788 0.931 . S
H805 C793 0.929 . S
H806 C794 0.960 . S
H807 C794 0.962 . S
H808 C794 0.960 . S
H809 C795 0.961 . S
H810 C795 0.961 . S
H811 C795 0.961 . S
H812 C796 0.931 . S
H813 C801 0.930 . S
H814 C802 0.956 . S
H815 C802 0.961 . S
H816 C802 0.961 . S
H817 C803 0.958 . S
H818 C803 0.961 . S
H819 C803 0.960 . S
C820 C821 1.391 . S
C820 C822 1.394 . S
C820 H836 0.931 . S
C821 C820 1.391 . S
C821 C825 1.376 . S
C822 C820 1.394 . S
C822 C823 1.369 . S
C822 C826 1.531 1_565 S
C823 C822 1.369 . S
C823 C824 1.410 . S
C823 C831 1.503 . S
C824 C823 1.410 . S
C824 C825 1.392 . S
C824 C827 1.511 . S
C825 C821 1.376 . S
C825 C824 1.392 . S
C825 H837 0.929 . S
C826 C822 1.531 1_545 S
C826 H838 0.960 . S
C826 H839 0.962 . S
C826 H840 0.960 . S
C827 C824 1.511 . S
C827 H841 0.961 . S
C827 H842 0.961 . S
C827 H843 0.961 . S
C828 C829 1.370 1_545 S
C828 C830 1.363 1_545 S
C828 H844 0.931 . S
C829 C828 1.370 1_565 S
C829 C833 1.408 . S
C830 C828 1.363 1_565 S
C830 C831 1.370 . S
C830 C834 1.524 1_565 S
C831 C823 1.503 . S
C831 C830 1.370 . S
C831 C832 1.403 . S
C832 C831 1.403 . S
C832 C833 1.404 . S
C832 C835 1.539 . S
C833 C829 1.408 . S
C833 C832 1.404 . S
C833 H845 0.930 . S
C834 C830 1.524 1_545 S
C834 H846 0.956 . S
C834 H847 0.961 1_545 S
C834 H848 0.961 . S
C835 C832 1.539 . S
C835 H849 0.958 . S
C835 H850 0.961 . S
C835 H851 0.960 . S
H836 C820 0.931 . S
H837 C825 0.929 . S
H838 C826 0.960 . S
H839 C826 0.962 . S
H840 C826 0.960 . S
H841 C827 0.961 . S
H842 C827 0.961 . S
H843 C827 0.961 . S
H844 C828 0.931 . S
H845 C833 0.930 . S
H846 C834 0.956 . S
H847 C834 0.961 1_565 S
H848 C834 0.961 . S
H849 C835 0.958 . S
H850 C835 0.961 . S
H851 C835 0.960 . S
C852 C853 1.391 . S
C852 C854 1.394 . S
C852 H868 0.931 . S
C853 C852 1.391 . S
C853 C857 1.376 . S
C854 C852 1.394 . S
C854 C855 1.369 . S
C854 C858 1.531 . S
C855 C854 1.369 . S
C855 C856 1.410 . S
C855 C863 1.503 . S
C856 C855 1.410 . S
C856 C857 1.392 . S
C856 C859 1.511 . S
C857 C853 1.376 . S
C857 C856 1.392 . S
C857 H869 0.929 . S
C858 C854 1.531 . S
C858 H870 0.960 . S
C858 H871 0.962 . S
C858 H872 0.960 . S
C859 C856 1.511 . S
C859 H873 0.961 . S
C859 H874 0.961 . S
C859 H875 0.961 . S
C860 C861 1.370 . S
C860 C862 1.363 . S
C860 H876 0.931 . S
C861 C860 1.370 . S
C861 C865 1.408 . S
C862 C860 1.363 . S
C862 C863 1.370 . S
C862 C866 1.524 . S
C863 C855 1.503 . S
C863 C862 1.370 . S
C863 C864 1.403 . S
C864 C863 1.403 . S
C864 C865 1.404 . S
C864 C867 1.539 . S
C865 C861 1.408 . S
C865 C864 1.404 . S
C865 H877 0.930 . S
C866 C862 1.524 . S
C866 H878 0.956 . S
C866 H879 0.961 . S
C866 H880 0.961 . S
C867 C864 1.539 . S
C867 H881 0.958 . S
C867 H882 0.961 . S
C867 H883 0.960 . S
H868 C852 0.931 . S
H869 C857 0.929 . S
H870 C858 0.960 . S
H871 C858 0.962 . S
H872 C858 0.960 . S
H873 C859 0.961 . S
H874 C859 0.961 . S
H875 C859 0.961 . S
H876 C860 0.931 . S
H877 C865 0.930 . S
H878 C866 0.956 . S
H879 C866 0.961 . S
H880 C866 0.961 . S
H881 C867 0.958 . S
H882 C867 0.961 . S
H883 C867 0.960 . S
C884 C885 1.391 . S
C884 C886 1.394 . S
C884 H900 0.931 . S
C885 C884 1.391 . S
C885 C889 1.376 . S
C886 C884 1.394 . S
C886 C887 1.369 . S
C886 C890 1.531 . S
C887 C886 1.369 . S
C887 C888 1.410 . S
C887 C895 1.503 . S
C888 C887 1.410 . S
C888 C889 1.392 . S
C888 C891 1.511 . S
C889 C885 1.376 . S
C889 C888 1.392 . S
C889 H901 0.929 . S
C890 C886 1.531 . S
C890 H902 0.960 . S
C890 H903 0.962 . S
C890 H904 0.960 . S
C891 C888 1.511 . S
C891 H905 0.961 . S
C891 H906 0.961 . S
C891 H907 0.961 . S
C892 C893 1.370 . S
C892 C894 1.363 . S
C892 H908 0.931 . S
C893 C892 1.370 . S
C893 C897 1.408 . S
C894 C892 1.363 . S
C894 C895 1.370 . S
C894 C898 1.524 . S
C895 C887 1.503 . S
C895 C894 1.370 . S
C895 C896 1.403 . S
C896 C895 1.403 . S
C896 C897 1.404 . S
C896 C899 1.539 . S
C897 C893 1.408 . S
C897 C896 1.404 . S
C897 H909 0.930 . S
C898 C894 1.524 . S
C898 H910 0.956 . S
C898 H911 0.961 . S
C898 H912 0.961 . S
C899 C896 1.539 . S
C899 H913 0.958 . S
C899 H914 0.961 . S
C899 H915 0.960 . S
H900 C884 0.931 . S
H901 C889 0.929 . S
H902 C890 0.960 . S
H903 C890 0.962 . S
H904 C890 0.960 . S
H905 C891 0.961 . S
H906 C891 0.961 . S
H907 C891 0.961 . S
H908 C892 0.931 . S
H909 C897 0.930 . S
H910 C898 0.956 . S
H911 C898 0.961 . S
H912 C898 0.961 . S
H913 C899 0.958 . S
H914 C899 0.961 . S
H915 C899 0.960 . S
C916 C917 1.391 . S
C916 C918 1.394 . S
C916 H932 0.931 . S
C917 C916 1.391 . S
C917 C921 1.376 . S
C918 C916 1.394 . S
C918 C919 1.369 . S
C918 C922 1.531 . S
C919 C918 1.369 . S
C919 C920 1.410 . S
C919 C927 1.503 . S
C920 C919 1.410 . S
C920 C921 1.392 . S
C920 C923 1.511 . S
C921 C917 1.376 . S
C921 C920 1.392 . S
C921 H933 0.929 . S
C922 C918 1.531 . S
C922 H934 0.960 . S
C922 H935 0.962 . S
C922 H936 0.960 . S
C923 C920 1.511 . S
C923 H937 0.961 . S
C923 H938 0.961 . S
C923 H939 0.961 . S
C924 C925 1.370 . S
C924 C926 1.363 . S
C924 H940 0.931 . S
C925 C924 1.370 . S
C925 C929 1.408 . S
C926 C924 1.363 . S
C926 C927 1.370 . S
C926 C930 1.524 . S
C927 C919 1.503 . S
C927 C926 1.370 . S
C927 C928 1.403 . S
C928 C927 1.403 . S
C928 C929 1.404 . S
C928 C931 1.539 . S
C929 C925 1.408 . S
C929 C928 1.404 . S
C929 H941 0.930 . S
C930 C926 1.524 . S
C930 H942 0.956 . S
C930 H943 0.961 . S
C930 H944 0.961 . S
C931 C928 1.539 . S
C931 H945 0.958 . S
C931 H946 0.961 . S
C931 H947 0.960 . S
H932 C916 0.931 . S
H933 C921 0.929 . S
H934 C922 0.960 . S
H935 C922 0.962 . S
H936 C922 0.960 . S
H937 C923 0.961 . S
H938 C923 0.961 . S
H939 C923 0.961 . S
H940 C924 0.931 . S
H941 C929 0.930 . S
H942 C930 0.956 . S
H943 C930 0.961 . S
H944 C930 0.961 . S
H945 C931 0.958 . S
H946 C931 0.961 . S
H947 C931 0.960 . S
C948 C949 1.391 . S
C948 C950 1.394 . S
C948 H964 0.931 . S
C949 C948 1.391 . S
C949 C953 1.376 . S
C950 C948 1.394 . S
C950 C951 1.369 . S
C950 C954 1.531 . S
C951 C950 1.369 . S
C951 C952 1.410 . S
C951 C959 1.503 . S
C952 C951 1.410 . S
C952 C953 1.392 . S
C952 C955 1.511 . S
C953 C949 1.376 . S
C953 C952 1.392 . S
C953 H965 0.929 . S
C954 C950 1.531 . S
C954 H966 0.960 . S
C954 H967 0.962 . S
C954 H968 0.960 . S
C955 C952 1.511 . S
C955 H969 0.961 . S
C955 H970 0.961 . S
C955 H971 0.961 . S
C956 C957 1.370 . S
C956 C958 1.363 . S
C956 H972 0.931 . S
C957 C956 1.370 . S
C957 C961 1.408 . S
C958 C956 1.363 . S
C958 C959 1.370 . S
C958 C962 1.524 . S
C959 C951 1.503 . S
C959 C958 1.370 . S
C959 C960 1.403 . S
C960 C959 1.403 . S
C960 C961 1.404 . S
C960 C963 1.539 . S
C961 C957 1.408 . S
C961 C960 1.404 . S
C961 H973 0.930 . S
C962 C958 1.524 . S
C962 H974 0.956 . S
C962 H975 0.961 . S
C962 H976 0.961 . S
C963 C960 1.539 . S
C963 H977 0.958 . S
C963 H978 0.961 . S
C963 H979 0.960 . S
H964 C948 0.931 . S
H965 C953 0.929 . S
H966 C954 0.960 . S
H967 C954 0.962 . S
H968 C954 0.960 . S
H969 C955 0.961 . S
H970 C955 0.961 . S
H971 C955 0.961 . S
H972 C956 0.931 . S
H973 C961 0.930 . S
H974 C962 0.956 . S
H975 C962 0.961 . S
H976 C962 0.961 . S
H977 C963 0.958 . S
H978 C963 0.961 . S
H979 C963 0.960 . S
C980 C981 1.391 . S
C980 C982 1.394 . S
C980 H996 0.931 . S
C981 C980 1.391 . S
C981 C985 1.376 . S
C982 C980 1.394 . S
C982 C983 1.369 . S
C982 C986 1.531 . S
C983 C982 1.369 . S
C983 C984 1.410 . S
C983 C991 1.503 . S
C984 C983 1.410 . S
C984 C985 1.392 . S
C984 C987 1.511 . S
C985 C981 1.376 . S
C985 C984 1.392 . S
C985 H997 0.929 . S
C986 C982 1.531 . S
C986 H998 0.960 . S
C986 H999 0.962 . S
C986 H1000 0.960 . S
C987 C984 1.511 . S
C987 H1001 0.961 . S
C987 H1002 0.961 . S
C987 H1003 0.961 . S
C988 C989 1.370 . S
C988 C990 1.363 . S
C988 H1004 0.931 . S
C989 C988 1.370 . S
C989 C993 1.408 . S
C990 C988 1.363 . S
C990 C991 1.370 . S
C990 C994 1.524 . S
C991 C983 1.503 . S
C991 C990 1.370 . S
C991 C992 1.403 . S
C992 C991 1.403 . S
C992 C993 1.404 . S
C992 C995 1.539 . S
C993 C989 1.408 . S
C993 C992 1.404 . S
C993 H1005 0.930 . S
C994 C990 1.524 . S
C994 H1006 0.956 . S
C994 H1007 0.961 . S
C994 H1008 0.961 . S
C995 C992 1.539 . S
C995 H1009 0.958 . S
C995 H1010 0.961 . S
C995 H1011 0.960 . S
H996 C980 0.931 . S
H997 C985 0.929 . S
H998 C986 0.960 . S
H999 C986 0.962 . S
H1000 C986 0.960 . S
H1001 C987 0.961 . S
H1002 C987 0.961 . S
H1003 C987 0.961 . S
H1004 C988 0.931 . S
H1005 C993 0.930 . S
H1006 C994 0.956 . S
H1007 C994 0.961 . S
H1008 C994 0.961 . S
H1009 C995 0.958 . S
H1010 C995 0.961 . S
H1011 C995 0.960 . S
C1012 C1013 1.391 . S
C1012 C1014 1.394 . S
C1012 H1028 0.931 . S
C1013 C1012 1.391 . S
C1013 C1017 1.376 . S
C1014 C1012 1.394 . S
C1014 C1015 1.369 . S
C1014 C1018 1.531 . S
C1015 C1014 1.369 . S
C1015 C1016 1.410 . S
C1015 C1023 1.503 . S
C1016 C1015 1.410 . S
C1016 C1017 1.392 . S
C1016 C1019 1.511 . S
C1017 C1013 1.376 . S
C1017 C1016 1.392 . S
C1017 H1029 0.929 . S
C1018 C1014 1.531 . S
C1018 H1030 0.960 . S
C1018 H1031 0.962 . S
C1018 H1032 0.960 . S
C1019 C1016 1.511 . S
C1019 H1033 0.961 . S
C1019 H1034 0.961 . S
C1019 H1035 0.961 . S
C1020 C1021 1.370 . S
C1020 C1022 1.363 . S
C1020 H1036 0.931 . S
C1021 C1020 1.370 . S
C1021 C1025 1.408 . S
C1022 C1020 1.363 . S
C1022 C1023 1.370 . S
C1022 C1026 1.524 . S
C1023 C1015 1.503 . S
C1023 C1022 1.370 . S
C1023 C1024 1.403 . S
C1024 C1023 1.403 . S
C1024 C1025 1.404 . S
C1024 C1027 1.539 . S
C1025 C1021 1.408 . S
C1025 C1024 1.404 . S
C1025 H1037 0.930 . S
C1026 C1022 1.524 . S
C1026 H1038 0.956 . S
C1026 H1039 0.961 . S
C1026 H1040 0.961 . S
C1027 C1024 1.539 . S
C1027 H1041 0.958 . S
C1027 H1042 0.961 . S
C1027 H1043 0.960 . S
H1028 C1012 0.931 . S
H1029 C1017 0.929 . S
H1030 C1018 0.960 . S
H1031 C1018 0.962 . S
H1032 C1018 0.960 . S
H1033 C1019 0.961 . S
H1034 C1019 0.961 . S
H1035 C1019 0.961 . S
H1036 C1020 0.931 . S
H1037 C1025 0.930 . S
H1038 C1026 0.956 . S
H1039 C1026 0.961 . S
H1040 C1026 0.961 . S
H1041 C1027 0.958 . S
H1042 C1027 0.961 . S
H1043 C1027 0.960 . S
C1044 C1045 1.391 . S
C1044 C1046 1.394 . S
C1044 H1060 0.931 . S
C1045 C1044 1.391 . S
C1045 C1049 1.376 . S
C1046 C1044 1.394 . S
C1046 C1047 1.369 . S
C1046 C1050 1.531 . S
C1047 C1046 1.369 . S
C1047 C1048 1.410 . S
C1047 C1055 1.503 . S
C1048 C1047 1.410 . S
C1048 C1049 1.392 . S
C1048 C1051 1.511 . S
C1049 C1045 1.376 . S
C1049 C1048 1.392 . S
C1049 H1061 0.929 . S
C1050 C1046 1.531 . S
C1050 H1062 0.960 . S
C1050 H1063 0.962 . S
C1050 H1064 0.960 . S
C1051 C1048 1.511 . S
C1051 H1065 0.961 . S
C1051 H1066 0.961 . S
C1051 H1067 0.961 . S
C1052 C1053 1.370 . S
C1052 C1054 1.363 . S
C1052 H1068 0.931 . S
C1053 C1052 1.370 . S
C1053 C1057 1.408 . S
C1054 C1052 1.363 . S
C1054 C1055 1.370 . S
C1054 C1058 1.524 . S
C1055 C1047 1.503 . S
C1055 C1054 1.370 . S
C1055 C1056 1.403 . S
C1056 C1055 1.403 . S
C1056 C1057 1.404 . S
C1056 C1059 1.539 . S
C1057 C1053 1.408 . S
C1057 C1056 1.404 . S
C1057 H1069 0.930 . S
C1058 C1054 1.524 . S
C1058 H1070 0.956 . S
C1058 H1071 0.961 . S
C1058 H1072 0.961 . S
C1059 C1056 1.539 . S
C1059 H1073 0.958 . S
C1059 H1074 0.961 . S
C1059 H1075 0.960 . S
H1060 C1044 0.931 . S
H1061 C1049 0.929 . S
H1062 C1050 0.960 . S
H1063 C1050 0.962 . S
H1064 C1050 0.960 . S
H1065 C1051 0.961 . S
H1066 C1051 0.961 . S
H1067 C1051 0.961 . S
H1068 C1052 0.931 . S
H1069 C1057 0.930 . S
H1070 C1058 0.956 . S
H1071 C1058 0.961 . S
H1072 C1058 0.961 . S
H1073 C1059 0.958 . S
H1074 C1059 0.961 . S
H1075 C1059 0.960 . S
C1076 C1077 1.391 . S
C1076 C1078 1.394 . S
C1076 H1092 0.931 . S
C1077 C1076 1.391 . S
C1077 C1081 1.376 . S
C1078 C1076 1.394 . S
C1078 C1079 1.369 . S
C1078 C1082 1.531 . S
C1079 C1078 1.369 . S
C1079 C1080 1.410 . S
C1079 C1087 1.503 . S
C1080 C1079 1.410 . S
C1080 C1081 1.392 . S
C1080 C1083 1.511 . S
C1081 C1077 1.376 . S
C1081 C1080 1.392 . S
C1081 H1093 0.929 . S
C1082 C1078 1.531 . S
C1082 H1094 0.960 . S
C1082 H1095 0.962 . S
C1082 H1096 0.960 . S
C1083 C1080 1.511 . S
C1083 H1097 0.961 . S
C1083 H1098 0.961 . S
C1083 H1099 0.961 . S
C1084 C1085 1.370 . S
C1084 C1086 1.363 . S
C1084 H1100 0.931 . S
C1085 C1084 1.370 . S
C1085 C1089 1.408 . S
C1086 C1084 1.363 . S
C1086 C1087 1.370 . S
C1086 C1090 1.524 . S
C1087 C1079 1.503 . S
C1087 C1086 1.370 . S
C1087 C1088 1.403 . S
C1088 C1087 1.403 . S
C1088 C1089 1.404 . S
C1088 C1091 1.539 . S
C1089 C1085 1.408 . S
C1089 C1088 1.404 . S
C1089 H1101 0.930 . S
C1090 C1086 1.524 . S
C1090 H1102 0.956 . S
C1090 H1103 0.961 . S
C1090 H1104 0.961 . S
C1091 C1088 1.539 . S
C1091 H1105 0.958 . S
C1091 H1106 0.961 . S
C1091 H1107 0.960 . S
H1092 C1076 0.931 . S
H1093 C1081 0.929 . S
H1094 C1082 0.960 . S
H1095 C1082 0.962 . S
H1096 C1082 0.960 . S
H1097 C1083 0.961 . S
H1098 C1083 0.961 . S
H1099 C1083 0.961 . S
H1100 C1084 0.931 . S
H1101 C1089 0.930 . S
H1102 C1090 0.956 . S
H1103 C1090 0.961 . S
H1104 C1090 0.961 . S
H1105 C1091 0.958 . S
H1106 C1091 0.961 . S
H1107 C1091 0.960 . S
C1108 C1109 1.391 . S
C1108 C1110 1.394 . S
C1108 H1124 0.931 . S
C1109 C1108 1.391 . S
C1109 C1113 1.376 . S
C1110 C1108 1.394 . S
C1110 C1111 1.369 . S
C1110 C1114 1.531 . S
C1111 C1110 1.369 . S
C1111 C1112 1.410 . S
C1111 C1119 1.503 . S
C1112 C1111 1.410 . S
C1112 C1113 1.392 . S
C1112 C1115 1.511 . S
C1113 C1109 1.376 . S
C1113 C1112 1.392 . S
C1113 H1125 0.929 . S
C1114 C1110 1.531 . S
C1114 H1126 0.960 . S
C1114 H1127 0.962 . S
C1114 H1128 0.960 . S
C1115 C1112 1.511 . S
C1115 H1129 0.961 . S
C1115 H1130 0.961 . S
C1115 H1131 0.961 . S
C1116 C1117 1.370 . S
C1116 C1118 1.363 . S
C1116 H1132 0.931 . S
C1117 C1116 1.370 . S
C1117 C1121 1.408 . S
C1118 C1116 1.363 . S
C1118 C1119 1.370 . S
C1118 C1122 1.524 . S
C1119 C1111 1.503 . S
C1119 C1118 1.370 . S
C1119 C1120 1.403 . S
C1120 C1119 1.403 . S
C1120 C1121 1.404 . S
C1120 C1123 1.539 . S
C1121 C1117 1.408 . S
C1121 C1120 1.404 . S
C1121 H1133 0.930 . S
C1122 C1118 1.524 . S
C1122 H1134 0.956 . S
C1122 H1135 0.961 . S
C1122 H1136 0.961 . S
C1123 C1120 1.539 . S
C1123 H1137 0.958 . S
C1123 H1138 0.961 . S
C1123 H1139 0.960 . S
H1124 C1108 0.931 . S
H1125 C1113 0.929 . S
H1126 C1114 0.960 . S
H1127 C1114 0.962 . S
H1128 C1114 0.960 . S
H1129 C1115 0.961 . S
H1130 C1115 0.961 . S
H1131 C1115 0.961 . S
H1132 C1116 0.931 . S
H1133 C1121 0.930 . S
H1134 C1122 0.956 . S
H1135 C1122 0.961 . S
H1136 C1122 0.961 . S
H1137 C1123 0.958 . S
H1138 C1123 0.961 . S
H1139 C1123 0.960 . S
C1140 C1141 1.403 . S
C1140 C1142 1.395 1_565 S
C1140 H1156 0.917 1_565 S
C1141 C1140 1.403 . S
C1141 C1145 1.376 . S
C1142 C1140 1.395 1_545 S
C1142 C1143 1.369 1_545 S
C1142 C1146 1.531 . S
C1143 C1142 1.369 1_565 S
C1143 C1144 1.410 . S
C1143 C1151 1.503 . S
C1144 C1143 1.410 . S
C1144 C1145 1.392 . S
C1144 C1147 1.511 . S
C1145 C1141 1.376 . S
C1145 C1144 1.392 . S
C1145 H1157 0.929 . S
C1146 C1142 1.531 . S
C1146 H1158 0.960 . S
C1146 H1159 0.962 . S
C1146 H1160 0.960 . S
C1147 C1144 1.511 . S
C1147 H1161 0.961 . S
C1147 H1162 0.961 . S
C1147 H1163 0.961 . S
C1148 C1149 1.370 1_545 S
C1148 C1150 1.363 1_545 S
C1148 H1164 0.931 . S
C1149 C1148 1.370 1_565 S
C1149 C1153 1.408 . S
C1150 C1148 1.363 1_565 S
C1150 C1151 1.370 . S
C1150 C1154 1.524 1_565 S
C1151 C1143 1.503 . S
C1151 C1150 1.370 . S
C1151 C1152 1.403 . S
C1152 C1151 1.403 . S
C1152 C1153 1.404 . S
C1152 C1155 1.539 . S
C1153 C1149 1.408 . S
C1153 C1152 1.404 . S
C1153 H1165 0.930 . S
C1154 C1150 1.524 1_545 S
C1154 H1166 0.956 . S
C1154 H1167 0.960 1_545 S
C1154 H1168 0.961 . S
C1155 C1152 1.539 . S
C1155 H1169 0.958 . S
C1155 H1170 0.961 . S
C1155 H1171 0.960 . S
H1156 C1140 0.917 1_545 S
H1157 C1145 0.929 . S
H1158 C1146 0.960 . S
H1159 C1146 0.962 . S
H1160 C1146 0.960 . S
H1161 C1147 0.961 . S
H1162 C1147 0.961 . S
H1163 C1147 0.961 . S
H1164 C1148 0.931 . S
H1165 C1153 0.930 . S
H1166 C1154 0.956 . S
H1167 C1154 0.960 1_565 S
H1168 C1154 0.961 . S
H1169 C1155 0.958 . S
H1170 C1155 0.961 . S
H1171 C1155 0.960 . S
C1172 C1173 1.391 . S
C1172 C1174 1.394 . S
C1172 H1188 0.931 . S
C1173 C1172 1.391 . S
C1173 C1177 1.376 . S
C1174 C1172 1.394 . S
C1174 C1175 1.369 . S
C1174 C1178 1.531 . S
C1175 C1174 1.369 . S
C1175 C1176 1.410 . S
C1175 C1183 1.503 . S
C1176 C1175 1.410 . S
C1176 C1177 1.392 . S
C1176 C1179 1.511 . S
C1177 C1173 1.376 . S
C1177 C1176 1.392 . S
C1177 H1189 0.929 . S
C1178 C1174 1.531 . S
C1178 H1190 0.960 . S
C1178 H1191 0.962 . S
C1178 H1192 0.960 . S
C1179 C1176 1.511 . S
C1179 H1193 0.961 . S
C1179 H1194 0.961 . S
C1179 H1195 0.961 . S
C1180 C1181 1.370 . S
C1180 C1182 1.363 . S
C1180 H1196 0.931 . S
C1181 C1180 1.370 . S
C1181 C1185 1.408 . S
C1182 C1180 1.363 . S
C1182 C1183 1.370 . S
C1182 C1186 1.524 . S
C1183 C1175 1.503 . S
C1183 C1182 1.370 . S
C1183 C1184 1.403 . S
C1184 C1183 1.403 . S
C1184 C1185 1.404 . S
C1184 C1187 1.539 . S
C1185 C1181 1.408 . S
C1185 C1184 1.404 . S
C1185 H1197 0.930 . S
C1186 C1182 1.524 . S
C1186 H1198 0.956 . S
C1186 H1199 0.961 . S
C1186 H1200 0.961 . S
C1187 C1184 1.539 . S
C1187 H1201 0.958 . S
C1187 H1202 0.961 . S
C1187 H1203 0.960 . S
H1188 C1172 0.931 . S
H1189 C1177 0.929 . S
H1190 C1178 0.960 . S
H1191 C1178 0.962 . S
H1192 C1178 0.960 . S
H1193 C1179 0.961 . S
H1194 C1179 0.961 . S
H1195 C1179 0.961 . S
H1196 C1180 0.931 . S
H1197 C1185 0.930 . S
H1198 C1186 0.956 . S
H1199 C1186 0.961 . S
H1200 C1186 0.961 . S
H1201 C1187 0.958 . S
H1202 C1187 0.961 . S
H1203 C1187 0.960 . S
C1204 C1205 1.391 . S
C1204 C1206 1.394 . S
C1204 H1220 0.931 . S
C1205 C1204 1.391 . S
C1205 C1209 1.376 . S
C1206 C1204 1.394 . S
C1206 C1207 1.369 . S
C1206 C1210 1.531 . S
C1207 C1206 1.369 . S
C1207 C1208 1.410 . S
C1207 C1215 1.503 . S
C1208 C1207 1.410 . S
C1208 C1209 1.392 . S
C1208 C1211 1.511 . S
C1209 C1205 1.376 . S
C1209 C1208 1.392 . S
C1209 H1221 0.929 . S
C1210 C1206 1.531 . S
C1210 H1222 0.960 . S
C1210 H1223 0.962 . S
C1210 H1224 0.960 . S
C1211 C1208 1.511 . S
C1211 H1225 0.961 . S
C1211 H1226 0.961 . S
C1211 H1227 0.961 . S
C1212 C1213 1.370 . S
C1212 C1214 1.363 . S
C1212 H1228 0.931 . S
C1213 C1212 1.370 . S
C1213 C1217 1.408 . S
C1214 C1212 1.363 . S
C1214 C1215 1.370 . S
C1214 C1218 1.524 . S
C1215 C1207 1.503 . S
C1215 C1214 1.370 . S
C1215 C1216 1.403 . S
C1216 C1215 1.403 . S
C1216 C1217 1.404 . S
C1216 C1219 1.539 . S
C1217 C1213 1.408 . S
C1217 C1216 1.404 . S
C1217 H1229 0.930 . S
C1218 C1214 1.524 . S
C1218 H1230 0.956 . S
C1218 H1231 0.961 . S
C1218 H1232 0.961 . S
C1219 C1216 1.539 . S
C1219 H1233 0.958 . S
C1219 H1234 0.961 . S
C1219 H1235 0.960 . S
H1220 C1204 0.931 . S
H1221 C1209 0.929 . S
H1222 C1210 0.960 . S
H1223 C1210 0.962 . S
H1224 C1210 0.960 . S
H1225 C1211 0.961 . S
H1226 C1211 0.961 . S
H1227 C1211 0.961 . S
H1228 C1212 0.931 . S
H1229 C1217 0.930 . S
H1230 C1218 0.956 . S
H1231 C1218 0.961 . S
H1232 C1218 0.961 . S
H1233 C1219 0.958 . S
H1234 C1219 0.961 . S
H1235 C1219 0.960 . S
C1236 C1237 1.391 . S
C1236 C1238 1.394 . S
C1236 H1252 0.931 . S
C1237 C1236 1.391 . S
C1237 C1241 1.376 . S
C1238 C1236 1.394 . S
C1238 C1239 1.369 . S
C1238 C1242 1.531 . S
C1239 C1238 1.369 . S
C1239 C1240 1.410 . S
C1239 C1247 1.503 . S
C1240 C1239 1.410 . S
C1240 C1241 1.392 . S
C1240 C1243 1.511 . S
C1241 C1237 1.376 . S
C1241 C1240 1.392 . S
C1241 H1253 0.929 . S
C1242 C1238 1.531 . S
C1242 H1254 0.960 . S
C1242 H1255 0.962 . S
C1242 H1256 0.960 . S
C1243 C1240 1.511 . S
C1243 H1257 0.961 . S
C1243 H1258 0.961 . S
C1243 H1259 0.961 . S
C1244 C1245 1.370 . S
C1244 C1246 1.363 . S
C1244 H1260 0.931 . S
C1245 C1244 1.370 . S
C1245 C1249 1.408 . S
C1246 C1244 1.363 . S
C1246 C1247 1.370 . S
C1246 C1250 1.524 . S
C1247 C1239 1.503 . S
C1247 C1246 1.370 . S
C1247 C1248 1.403 . S
C1248 C1247 1.403 . S
C1248 C1249 1.404 . S
C1248 C1251 1.539 . S
C1249 C1245 1.408 . S
C1249 C1248 1.404 . S
C1249 H1261 0.930 . S
C1250 C1246 1.524 . S
C1250 H1262 0.956 . S
C1250 H1263 0.961 . S
C1250 H1264 0.961 . S
C1251 C1248 1.539 . S
C1251 H1265 0.958 . S
C1251 H1266 0.961 . S
C1251 H1267 0.960 . S
H1252 C1236 0.931 . S
H1253 C1241 0.929 . S
H1254 C1242 0.960 . S
H1255 C1242 0.962 . S
H1256 C1242 0.960 . S
H1257 C1243 0.961 . S
H1258 C1243 0.961 . S
H1259 C1243 0.961 . S
H1260 C1244 0.931 . S
H1261 C1249 0.930 . S
H1262 C1250 0.956 . S
H1263 C1250 0.961 . S
H1264 C1250 0.961 . S
H1265 C1251 0.958 . S
H1266 C1251 0.961 . S
H1267 C1251 0.960 . S
C1268 C1269 1.391 . S
C1268 C1270 1.394 . S
C1268 H1284 0.931 . S
C1269 C1268 1.391 . S
C1269 C1273 1.376 . S
C1270 C1268 1.394 . S
C1270 C1271 1.369 . S
C1270 C1274 1.531 . S
C1271 C1270 1.369 . S
C1271 C1272 1.410 . S
C1271 C1279 1.503 . S
C1272 C1271 1.410 . S
C1272 C1273 1.392 . S
C1272 C1275 1.511 . S
C1273 C1269 1.376 . S
C1273 C1272 1.392 . S
C1273 H1285 0.929 . S
C1274 C1270 1.531 . S
C1274 H1286 0.960 . S
C1274 H1287 0.962 . S
C1274 H1288 0.960 . S
C1275 C1272 1.511 . S
C1275 H1289 0.961 . S
C1275 H1290 0.961 . S
C1275 H1291 0.961 . S
C1276 C1277 1.370 . S
C1276 C1278 1.363 . S
C1276 H1292 0.931 . S
C1277 C1276 1.370 . S
C1277 C1281 1.408 . S
C1278 C1276 1.363 . S
C1278 C1279 1.370 . S
C1278 C1282 1.524 . S
C1279 C1271 1.503 . S
C1279 C1278 1.370 . S
C1279 C1280 1.403 . S
C1280 C1279 1.403 . S
C1280 C1281 1.404 . S
C1280 C1283 1.539 . S
C1281 C1277 1.408 . S
C1281 C1280 1.404 . S
C1281 H1293 0.930 . S
C1282 C1278 1.524 . S
C1282 H1294 0.956 . S
C1282 H1295 0.961 . S
C1282 H1296 0.961 . S
C1283 C1280 1.539 . S
C1283 H1297 0.958 . S
C1283 H1298 0.961 . S
C1283 H1299 0.960 . S
H1284 C1268 0.931 . S
H1285 C1273 0.929 . S
H1286 C1274 0.960 . S
H1287 C1274 0.962 . S
H1288 C1274 0.960 . S
H1289 C1275 0.961 . S
H1290 C1275 0.961 . S
H1291 C1275 0.961 . S
H1292 C1276 0.931 . S
H1293 C1281 0.930 . S
H1294 C1282 0.956 . S
H1295 C1282 0.961 . S
H1296 C1282 0.961 . S
H1297 C1283 0.958 . S
H1298 C1283 0.961 . S
H1299 C1283 0.960 . S
C541 C127 1.809 . S
C533 C5 1.740 . S
C573 C231 1.849 . S
C565 C16 1.532 . S
C605 C151 1.562 . S
C597 C30 1.529 . S
C637 C213 1.618 . S
C629 C40 1.581 . S
C669 C287 1.657 . S
C661 C8 1.718 . S
C701 C349 1.842 . S
C693 C18 1.878 . S
C725 C29 1.586 . S
C733 C423 1.539 . S
C765 C509 1.588 . S
C757 C38 1.613 . S
C797 C305 2.641 . S
C789 C19 2.661 . S
C821 C27 1.516 . S
C829 C373 1.756 . S
C861 C447 1.272 . S
C853 C41 1.368 . S
C893 C527 1.945 . S
C885 C7 1.983 . S
C917 C52 1.495 . S
C925 C225 1.466 . S
C957 C139 1.917 . S
C949 C62 2.013 . S
C981 C74 1.547 . S
C989 C201 1.530 . S
C1013 C82 1.570 . S
C1021 C157 1.974 . S
C1053 C453 1.719 . S
C1045 C51 1.680 . S
C1085 C521 1.335 . S
C1077 C60 1.234 . S
C1117 C299 1.837 . S
C1109 C71 1.795 . S
C1141 C84 2.314 . S
C1149 C379 2.394 1_565 S
C1181 C435 1.221 . S
C1173 C63 1.201 . S
C1213 C497 1.291 . S
C1205 C73 1.357 . S
C1245 C275 1.933 . S
C1237 C85 1.989 . S
C1269 C49 1.283 . S
C1277 C361 1.425 . S
