# Generated by pormake.
# Topology sqc, (4,8)-cn, num edge types: 1
# Building blocks:
#     Node 0, Type 0, BuildingBlock: MUDLON_clean_linker_0, # of connection points: 4
#     Node 1, Type 0, BuildingBlock: MUDLON_clean_linker_0, # of connection points: 4
#     Node 2, Type 0, BuildingBlock: MUDLON_clean_linker_0, # of connection points: 4
#     Node 3, Type 0, BuildingBlock: MUDLON_clean_linker_0, # of connection points: 4
#     Node 4, Type 0, BuildingBlock: MUDLON_clean_linker_0, # of connection points: 4
#     Node 5, Type 0, BuildingBlock: MUDLON_clean_linker_0, # of connection points: 4
#     Node 6, Type 0, BuildingBlock: MUDLON_clean_linker_0, # of connection points: 4
#     Node 7, Type 0, BuildingBlock: MUDLON_clean_linker_0, # of connection points: 4
#     Node 8, Type 1, BuildingBlock: VETTIZ_charged_sbu_0, # of connection points: 8
#     Node 9, Type 1, BuildingBlock: VETTIZ_charged_sbu_0, # of connection points: 8
#     Node 10, Type 1, BuildingBlock: VETTIZ_charged_sbu_0, # of connection points: 8
#     Node 11, Type 1, BuildingBlock: VETTIZ_charged_sbu_0, # of connection points: 8
#     Edge 12, Type (0, 1), None
#     Edge 13, Type (0, 1), None
#     Edge 14, Type (0, 1), None
#     Edge 15, Type (0, 1), None
#     Edge 16, Type (0, 1), None
#     Edge 17, Type (0, 1), None
#     Edge 18, Type (0, 1), None
#     Edge 19, Type (0, 1), None
#     Edge 20, Type (0, 1), None
#     Edge 21, Type (0, 1), None
#     Edge 22, Type (0, 1), None
#     Edge 23, Type (0, 1), None
#     Edge 24, Type (0, 1), None
#     Edge 25, Type (0, 1), None
#     Edge 26, Type (0, 1), None
#     Edge 27, Type (0, 1), None
#     Edge 28, Type (0, 1), None
#     Edge 29, Type (0, 1), None
#     Edge 30, Type (0, 1), None
#     Edge 31, Type (0, 1), None
#     Edge 32, Type (0, 1), None
#     Edge 33, Type (0, 1), None
#     Edge 34, Type (0, 1), None
#     Edge 35, Type (0, 1), None
#     Edge 36, Type (0, 1), None
#     Edge 37, Type (0, 1), None
#     Edge 38, Type (0, 1), None
#     Edge 39, Type (0, 1), None
#     Edge 40, Type (0, 1), None
#     Edge 41, Type (0, 1), None
#     Edge 42, Type (0, 1), None
#     Edge 43, Type (0, 1), None
# Relax obj value: 0.169
# Max RMSD: 0.295
# Mean RMSD: 0.211
data_MOF--net-sqc--node1-VETTIZ_charged_sbu_0--node2-MUDLON_clean_linker_0--edge1-none
_symmetry_space_group_name_H-M    P1
_symmetry_Int_Tables_number       1
_symmetry_cell_setting            triclinic
loop_
_symmetry_equiv_pos_as_xyz
'x, y, z'
_cell_length_a     19.3225
_cell_length_b     19.33412
_cell_length_c     52.05445
_cell_angle_alpha  89.847366
_cell_angle_beta   90.016244
_cell_angle_gamma 89.977528
loop_
_atom_site_label
_atom_site_type_symbol
_atom_site_fract_x
_atom_site_fract_y
_atom_site_fract_z
_atom_type_partial_charge
H0 H 0.74334 0.98393 0.60741 0.0
N1 N 0.74698 0.01728 0.55755 0.0
H2 H 0.6915 0.05124 0.64236 0.0
H3 H 0.66778 0.13241 0.55233 0.0
H4 H 0.61369 0.1988 0.58697 0.0
H5 H 0.71468 0.0823 0.51311 0.0
H6 H 0.6488 0.03347 0.47695 0.0
H7 H 0.70144 0.88743 0.553 0.0
H8 H 0.63891 0.83759 0.51643 0.0
H9 H 0.83114 0.90711 0.55557 0.0
H10 H 0.83007 0.12936 0.56067 0.0
H11 H 0.95674 0.90637 0.5581 0.0
H12 H 0.95587 0.12941 0.56554 0.0
H13 H 0.33869 0.12196 0.56106 0.0
H14 H 0.38654 0.2117 0.58879 0.0
H15 H 0.2978 0.11037 0.65507 0.0
H16 H 0.25234 0.01905 0.62732 0.0
H17 H 0.2688 0.06224 0.52798 0.0
H18 H 0.32874 0.01363 0.49135 0.0
H19 H 0.40459 0.84655 0.53912 0.0
H20 H 0.34303 0.89604 0.57595 0.0
H21 H 0.17108 0.91423 0.59147 0.0
H22 H 0.04571 0.91811 0.58657 0.0
H23 H 0.06379 0.11546 0.5476 0.0
N24 N 0.26281 1.00811 0.57674 0.0
H25 H 0.1885 0.11334 0.55486 0.0
C26 C 0.70919 0.05297 0.57734 0.0
C27 C 0.71429 0.03029 0.60286 0.0
C28 C 0.68481 0.06887 0.62274 0.0
C29 C 0.64844 0.13029 0.61739 0.0
C30 C 0.64075 0.15133 0.59167 0.0
C31 C 0.67166 0.11345 0.57183 0.0
C32 C 0.71156 0.98859 0.53579 0.0
C33 C 0.69803 0.02889 0.51392 0.0
C34 C 0.6613 1.00075 0.49323 0.0
C35 C 0.63971 0.93129 0.49384 0.0
C36 C 0.65624 0.89054 0.51532 0.0
C37 C 0.6911 0.91914 0.53625 0.0
C38 C 0.82139 0.01822 0.55788 0.0
C39 C 0.85823 0.95586 0.55728 0.0
C40 C 0.93026 0.95562 0.55915 0.0
C41 C 0.96722 0.01777 0.56246 0.0
C42 C 0.92987 0.08047 0.56269 0.0
C43 C 0.85775 0.08067 0.56012 0.0
C44 C 0.29265 0.06257 0.59217 0.0
C45 C 0.32994 0.11828 0.58151 0.0
C46 C 0.35711 0.17002 0.59742 0.0
C47 C 0.34573 0.16824 0.62411 0.0
C48 C 0.30709 0.1135 0.63457 0.0
C49 C 0.28147 0.06108 0.61879 0.0
C50 C 0.30144 0.98285 0.55491 0.0
C51 C 0.29804 0.01519 0.53072 0.0
C52 C 0.33244 0.98691 0.50961 0.0
C53 C 0.37138 0.92566 0.5121 0.0
C54 C 0.37504 0.89361 0.53638 0.0
C55 C 0.34028 0.92197 0.55751 0.0
C56 C 0.18903 0.01258 0.57314 0.0
C57 C 0.14761 0.95824 0.58194 0.0
C58 C 0.0759 0.96041 0.57882 0.0
C59 C 0.04391 0.01662 0.56623 0.0
C60 C 0.08593 0.0715 0.55755 0.0
C61 C 0.15764 0.06994 0.56128 0.0
H62 H 0.32032 0.45431 0.8618 0.0
N63 N 0.3005 0.54492 0.82435 0.0
H64 H 0.23228 0.39187 0.88662 0.0
H65 H 0.16021 0.55315 0.81726 0.0
H66 H 0.07147 0.49019 0.84215 0.0
H67 H 0.23025 0.51486 0.78039 0.0
H68 H 0.27215 0.44609 0.74454 0.0
H69 H 0.42527 0.48849 0.81931 0.0
H70 H 0.46691 0.41594 0.78398 0.0
H71 H 0.31739 0.62993 0.86388 0.0
H72 H 0.27296 0.63053 0.78263 0.0
H73 H 0.31586 0.75609 0.8639 0.0
H74 H 0.27604 0.75532 0.78214 0.0
H75 H 0.33525 0.15896 0.85985 0.0
H76 H 0.25386 0.20221 0.89271 0.0
H77 H 0.09016 0.08353 0.85783 0.0
H78 H 0.16916 0.0446 0.82451 0.0
H79 H 0.22406 0.13571 0.78965 0.0
H80 H 0.25781 0.19107 0.74918 0.0
H81 H 0.46704 0.11763 0.75951 0.0
H82 H 0.43376 0.06569 0.8006 0.0
H83 H 0.38322 0.97833 0.85202 0.0
H84 H 0.37973 0.85203 0.85198 0.0
H85 H 0.22267 0.85817 0.79271 0.0
N86 N 0.31 0.06522 0.82302 0.0
H87 H 0.2307 0.98408 0.79177 0.0
C88 C 0.24675 0.50884 0.83806 0.0
C89 C 0.26613 0.46181 0.85724 0.0
C90 C 0.21608 0.42559 0.87107 0.0
C91 C 0.14561 0.43521 0.86575 0.0
C92 C 0.12575 0.48073 0.84602 0.0
C93 C 0.17616 0.51729 0.83213 0.0
C94 C 0.3256 0.50847 0.80216 0.0
C95 C 0.28259 0.49506 0.78101 0.0
C96 C 0.30668 0.4554 0.76055 0.0
C97 C 0.37344 0.42632 0.76118 0.0
C98 C 0.4158 0.43855 0.78266 0.0
C99 C 0.39223 0.47997 0.80281 0.0
C100 C 0.29582 0.61971 0.8234 0.0
C101 C 0.30754 0.65713 0.84603 0.0
C102 C 0.30745 0.72949 0.8459 0.0
C103 C 0.29672 0.7667 0.82294 0.0
C104 C 0.28368 0.72907 0.80031 0.0
C105 C 0.28252 0.65667 0.80055 0.0
C106 C 0.25926 0.09749 0.83979 0.0
C107 C 0.28146 0.14343 0.85904 0.0
C108 C 0.2352 0.16761 0.87792 0.0
C109 C 0.16627 0.14447 0.87829 0.0
C110 C 0.14353 0.10067 0.85848 0.0
C111 C 0.18893 0.07847 0.83925 0.0
C112 C 0.32693 0.09813 0.79873 0.0
C113 C 0.27734 0.13209 0.78342 0.0
C114 C 0.2967 0.16313 0.76003 0.0
C115 C 0.36561 0.15953 0.75106 0.0
C116 C 0.41393 0.12236 0.76584 0.0
C117 C 0.39499 0.09285 0.78942 0.0
C118 C 0.30698 0.99057 0.82215 0.0
C119 C 0.34844 0.95208 0.83897 0.0
C120 C 0.34565 0.87979 0.83907 0.0
C121 C 0.30027 0.8441 0.82254 0.0
C122 C 0.25892 0.88317 0.80552 0.0
C123 C 0.26281 0.95548 0.80513 0.0
H124 H 0.82157 0.09345 0.10616 0.0
N125 N 0.74884 0.05461 0.0657 0.0
H126 H 0.88806 0.01962 0.13551 0.0
H127 H 0.76784 0.91535 0.06082 0.0
H128 H 0.83665 0.84111 0.08976 0.0
H129 H 0.78554 0.98318 0.02289 0.0
H130 H 0.85553 0.0267 0.98731 0.0
H131 H 0.79017 0.18392 0.05849 0.0
H132 H 0.86027 0.22853 0.02304 0.0
H133 H 0.66749 0.07217 0.10637 0.0
H134 H 0.6616 0.0208 0.02583 0.0
H135 H 0.54161 0.06971 0.10794 0.0
H136 H 0.53614 0.02386 0.02663 0.0
H137 H 0.13934 0.09335 0.10865 0.0
H138 H 0.09819 0.0134 0.1423 0.0
H139 H 0.21172 0.84733 0.10669 0.0
H140 H 0.24829 0.92517 0.07243 0.0
H141 H 0.16482 0.98704 0.03481 0.0
H142 H 0.11091 0.02823 0.99496 0.0
H143 H 0.17203 0.2371 1.01321 0.0
H144 H 0.22266 0.19585 0.05358 0.0
H145 H 0.32058 0.1396 0.09835 0.0
H146 H 0.44665 0.13412 0.0966 0.0
H147 H 0.43272 0.97457 0.03861 0.0
N148 N 0.23024 0.06668 0.07107 0.0
H149 H 0.30693 0.98518 0.03917 0.0
C150 C 0.78955 0.00965 0.08166 0.0
C151 C 0.8253 0.03852 0.10237 0.0
C152 C 0.86382 0.99663 0.11881 0.0
C153 C 0.86825 0.92518 0.11451 0.0
C154 C 0.83513 0.89637 0.09304 0.0
C155 C 0.79537 0.93843 0.07674 0.0
C156 C 0.78282 0.08071 0.04319 0.0
C157 C 0.80101 0.03694 0.02282 0.0
C158 C 0.84096 0.062 1.0025 0.0
C159 C 0.86406 0.13099 1.00244 0.0
C160 C 0.84394 0.17499 0.02258 0.0
C161 C 0.80359 0.14993 0.04275 0.0
C162 C 0.67453 0.04714 0.06607 0.0
C163 C 0.639 0.06037 0.089 0.0
C164 C 0.56677 0.05996 0.08973 0.0
C165 C 0.52789 0.04793 0.06729 0.0
C166 C 0.56374 0.03276 0.04441 0.0
C167 C 0.63617 0.03157 0.04386 0.0
C168 C 0.19771 0.01627 0.08798 0.0
C169 C 0.15401 0.03935 0.10778 0.0
C170 C 0.13125 0.99386 0.12717 0.0
C171 C 0.15358 0.9246 0.1276 0.0
C172 C 0.19526 0.90088 0.10732 0.0
C173 C 0.21593 0.94564 0.0875 0.0
C174 C 0.19573 0.08869 0.04771 0.0
C175 C 0.16565 0.04178 0.03043 0.0
C176 C 0.13572 0.06558 1.00738 0.0
C177 C 0.13622 0.13666 1.00083 0.0
C178 C 0.16919 0.18262 0.01773 0.0
C179 C 0.19795 0.15904 0.04089 0.0
C180 C 0.30458 0.06231 0.06923 0.0
C181 C 0.34511 0.10383 0.08521 0.0
C182 C 0.41726 0.09984 0.08434 0.0
C183 C 0.45066 0.05299 0.06773 0.0
C184 C 0.40948 0.01177 0.05148 0.0
C185 C 0.33728 0.01709 0.05197 0.0
H186 H 0.21348 0.65282 0.35761 0.0
N187 N 0.2292 0.54324 0.32708 0.0
H188 H 0.29881 0.70377 0.387 0.0
H189 H 0.36562 0.50341 0.33301 0.0
H190 H 0.44884 0.55155 0.36317 0.0
H191 H 0.30722 0.5913 0.28685 0.0
H192 H 0.26474 0.65546 0.24937 0.0
H193 H 0.10256 0.5929 0.31951 0.0
H194 H 0.06115 0.66274 0.2834 0.0
H195 H 0.17144 0.4453 0.35612 0.0
H196 H 0.29781 0.47332 0.28865 0.0
H197 H 0.18042 0.31956 0.35121 0.0
H198 H 0.30433 0.34926 0.28295 0.0
H199 H 0.22113 0.01437 0.35126 0.0
H200 H 0.27975 0.956 0.38707 0.0
H201 H 0.44137 0.88928 0.33543 0.0
H202 H 0.38337 0.9498 0.29998 0.0
H203 H 0.32029 1.00253 0.2562 0.0
H204 H 0.26175 0.94213 0.22098 0.0
H205 H 0.07678 0.92656 0.2672 0.0
H206 H 0.13686 0.98519 0.30265 0.0
H207 H 0.157 0.09825 0.32011 0.0
H208 H 0.14505 0.22337 0.32557 0.0
H209 H 0.35726 0.2503 0.3011 0.0
N210 N 0.2704 0.0296 0.30271 0.0
H211 H 0.36725 0.1253 0.29476 0.0
C212 C 0.28214 0.57371 0.3432 0.0
C213 C 0.26501 0.63091 0.35855 0.0
C214 C 0.31361 0.6598 0.37536 0.0
C215 C 0.37991 0.63073 0.37769 0.0
C216 C 0.39757 0.57412 0.36212 0.0
C217 C 0.34974 0.54661 0.34474 0.0
C218 C 0.2072 0.58487 0.30548 0.0
C219 C 0.25294 0.6048 0.28581 0.0
C220 C 0.22861 0.64197 0.26448 0.0
C221 C 0.15878 0.66257 0.26295 0.0
C222 C 0.11443 0.646 0.28347 0.0
C223 C 0.13812 0.60652 0.30424 0.0
C224 C 0.23303 0.46934 0.32273 0.0
C225 C 0.20025 0.42444 0.34007 0.0
C226 C 0.20521 0.35257 0.33713 0.0
C227 C 0.24322 0.32391 0.31667 0.0
C228 C 0.27549 0.36915 0.29916 0.0
C229 C 0.27085 0.44081 0.30221 0.0
C230 C 0.29848 0.9872 0.32304 0.0
C231 C 0.2687 0.9865 0.34763 0.0
C232 C 0.30228 0.95297 0.36805 0.0
C233 C 0.36557 0.91825 0.36418 0.0
C234 C 0.39269 0.91518 0.33913 0.0
C235 C 0.35974 0.94988 0.31884 0.0
C236 C 0.23306 0.99782 0.28196 0.0
C237 C 0.26691 0.98668 0.25856 0.0
C238 C 0.23319 0.95287 0.23843 0.0
C239 C 0.16434 0.9305 0.24116 0.0
C240 C 0.1293 0.94459 0.26429 0.0
C241 C 0.16368 0.97742 0.28464 0.0
C242 C 0.26289 0.10283 0.30676 0.0
C243 C 0.20066 0.13126 0.31579 0.0
C244 C 0.1942 0.20287 0.31912 0.0
C245 C 0.25005 0.24737 0.31364 0.0
C246 C 0.31264 0.21811 0.30501 0.0
C247 C 0.31877 0.14667 0.30154 0.0
H248 H 0.66618 0.95346 0.30928 0.0
N249 N 0.77965 0.02935 0.32529 0.0
H250 H 0.576 0.90476 0.33682 0.0
H251 H 0.76667 0.04053 0.37577 0.0
H252 H 0.67494 0.99442 0.40325 0.0
H253 H 0.72786 0.02435 0.27633 0.0
H254 H 0.77587 0.96184 0.24023 0.0
H255 H 0.89005 0.94656 0.32534 0.0
H256 H 0.93912 0.88247 0.28901 0.0
H257 H 0.87443 0.11915 0.34068 0.0
H258 H 0.67667 0.10593 0.30295 0.0
H259 H 0.87267 0.2446 0.33624 0.0
H260 H 0.6766 0.23103 0.29626 0.0
H261 H 0.81201 0.55133 0.35851 0.0
H262 H 0.74299 0.603 0.39301 0.0
H263 H 0.59563 0.67693 0.3369 0.0
H264 H 0.66373 0.62311 0.30269 0.0
H265 H 0.71216 0.57652 0.26451 0.0
H266 H 0.75835 0.64033 0.22728 0.0
H267 H 0.95773 0.65039 0.2642 0.0
H268 H 0.91036 0.59076 0.3019 0.0
H269 H 0.88894 0.45974 0.30637 0.0
H270 H 0.88708 0.3341 0.30808 0.0
H271 H 0.66375 0.339 0.31463 0.0
N272 N 0.78112 0.54608 0.3086 0.0
H273 H 0.66648 0.46507 0.31065 0.0
C274 C 0.72435 1.00002 0.34053 0.0
C275 C 0.66917 0.9623 0.32973 0.0
C276 C 0.61722 0.93459 0.34551 0.0
C277 C 0.61826 0.94595 0.37218 0.0
C278 C 0.67238 0.98513 0.38275 0.0
C279 C 0.72501 0.01121 0.36712 0.0
C280 C 0.80535 0.99022 0.30369 0.0
C281 C 0.77397 0.99383 0.27938 0.0
C282 C 0.80184 0.95779 0.25861 0.0
C283 C 0.86184 0.91705 0.26154 0.0
C284 C 0.89302 0.91329 0.28595 0.0
C285 C 0.86496 0.94961 0.30676 0.0
C286 C 0.77663 0.10325 0.32175 0.0
C287 C 0.8312 0.14357 0.33099 0.0
C288 C 0.83023 0.21537 0.32814 0.0
C289 C 0.77501 0.24871 0.31543 0.0
C290 C 0.71986 0.20782 0.3063 0.0
C291 C 0.72026 0.13592 0.30971 0.0
C292 C 0.74347 0.58362 0.32804 0.0
C293 C 0.76531 0.57949 0.35368 0.0
C294 C 0.72573 0.60892 0.37333 0.0
C295 C 0.6639 0.64429 0.36769 0.0
C296 C 0.64342 0.65078 0.34185 0.0
C297 C 0.68236 0.61994 0.32223 0.0
C298 C 0.80749 0.58097 0.2862 0.0
C299 C 0.7656 0.59325 0.26463 0.0
C300 C 0.79233 0.6286 0.24326 0.0
C301 C 0.86204 0.64974 0.2428 0.0
C302 C 0.9044 0.6339 0.26391 0.0
C303 C 0.8772 0.60067 0.28553 0.0
C304 C 0.778 0.47169 0.30844 0.0
C305 C 0.83958 0.43355 0.30775 0.0
C306 C 0.83831 0.36148 0.30914 0.0
C307 C 0.77531 0.32559 0.312 0.0
C308 C 0.71331 0.3642 0.31219 0.0
C309 C 0.71465 0.4365 0.31013 0.0
H310 H 0.71044 0.12785 0.85587 0.0
N311 N 0.72346 0.02106 0.82452 0.0
H312 H 0.80237 0.19141 0.878 0.0
H313 H 0.86318 0.99734 0.81998 0.0
H314 H 0.95545 0.05943 0.84308 0.0
H315 H 0.79376 0.05122 0.78069 0.0
H316 H 0.75414 0.12425 0.74559 0.0
H317 H 0.59961 0.08018 0.81986 0.0
H318 H 0.56034 0.15733 0.78528 0.0
H319 H 0.70897 0.93411 0.86379 0.0
H320 H 0.74862 0.9369 0.78219 0.0
H321 H 0.71229 0.80787 0.8634 0.0
H322 H 0.74803 0.81216 0.78143 0.0
H323 H 0.6957 0.4001 0.85534 0.0
H324 H 0.77535 0.35396 0.88833 0.0
H325 H 0.93885 0.4814 0.85766 0.0
H326 H 0.86163 0.52341 0.82413 0.0
H327 H 0.80682 0.43346 0.78633 0.0
H328 H 0.77199 0.38043 0.74557 0.0
H329 H 0.56231 0.45035 0.75772 0.0
H330 H 0.59683 0.49998 0.79895 0.0
H331 H 0.64767 0.58433 0.85051 0.0
H332 H 0.64921 0.71075 0.85121 0.0
H333 H 0.80578 0.71046 0.79179 0.0
N334 N 0.72147 0.50021 0.82072 0.0
H335 H 0.8003 0.58433 0.7903 0.0
C336 C 0.77973 0.05673 0.83698 0.0
C337 C 0.76389 0.11334 0.85267 0.0
C338 C 0.8163 0.15044 0.86479 0.0
C339 C 0.8857 0.13133 0.86158 0.0
C340 C 0.90226 0.07629 0.84513 0.0
C341 C 0.8496 0.03983 0.83251 0.0
C342 C 0.69837 0.05805 0.80236 0.0
C343 C 0.74186 0.0722 0.78141 0.0
C344 C 0.71923 0.11467 0.76149 0.0
C345 C 0.65344 0.14585 0.76242 0.0
C346 C 0.61065 0.13312 0.78374 0.0
C347 C 0.63275 0.08885 0.80339 0.0
C348 C 0.72804 0.94617 0.8232 0.0
C349 C 0.71811 0.9077 0.84578 0.0
C350 C 0.71935 0.8353 0.84544 0.0
C351 C 0.72978 0.79906 0.82231 0.0
C352 C 0.74078 0.8377 0.79971 0.0
C353 C 0.74052 0.91012 0.80014 0.0
C354 C 0.77169 0.46627 0.83735 0.0
C355 C 0.74915 0.4169 0.85543 0.0
C356 C 0.79445 0.39097 0.87438 0.0
C357 C 0.86274 0.41563 0.87604 0.0
C358 C 0.88598 0.46278 0.8573 0.0
C359 C 0.8416 0.48679 0.83795 0.0
C360 C 0.70392 0.469 0.79623 0.0
C361 C 0.75327 0.43685 0.78037 0.0
C362 C 0.73328 0.40725 0.75682 0.0
C363 C 0.66393 0.41055 0.74827 0.0
C364 C 0.61584 0.4461 0.76363 0.0
C365 C 0.63545 0.47418 0.78733 0.0
C366 C 0.72399 0.57495 0.82054 0.0
C367 C 0.68204 0.61186 0.83762 0.0
C368 C 0.68363 0.68422 0.83812 0.0
C369 C 0.72807 0.72158 0.8217 0.0
C370 C 0.77015 0.68409 0.80452 0.0
C371 C 0.76767 0.61171 0.80378 0.0
H372 H 0.23346 0.56906 0.02436 0.0
N373 N 0.26328 0.50176 0.06908 0.0
H374 H 0.16534 0.52538 0.98886 0.0
H375 H 0.20266 0.37846 0.06578 0.0
H376 H 0.12801 0.33616 0.03108 0.0
H377 H 0.19543 0.47211 0.11181 0.0
H378 H 0.1337 0.5522 0.14014 0.0
H379 H 0.24739 0.64089 0.06123 0.0
H380 H 0.18365 0.72152 0.08929 0.0
H381 H 0.34768 0.55188 0.03035 0.0
H382 H 0.34903 0.46338 0.10642 0.0
H383 H 0.47273 0.55185 0.02973 0.0
H384 H 0.4751 0.46823 0.10691 0.0
H385 H 0.81395 0.58364 0.02601 0.0
H386 H 0.87809 0.5357 0.98919 0.0
H387 H 0.91065 0.34649 0.03191 0.0
H388 H 0.84538 0.39412 0.06792 0.0
H389 H 0.8786 0.48557 0.10735 0.0
H390 H 0.92376 0.56203 0.14131 0.0
H391 H 0.80077 0.72962 0.11092 0.0
H392 H 0.76007 0.65544 0.07645 0.0
H393 H 0.69939 0.60137 0.04339 0.0
H394 H 0.57345 0.60076 0.04337 0.0
H395 H 0.57556 0.41954 0.09241 0.0
N396 N 0.78448 0.5169 0.07109 0.0
H397 H 0.70183 0.42489 0.0939 0.0
C398 C 0.22604 0.4756 0.04722 0.0
C399 C 0.21345 0.51697 0.02555 0.0
C400 C 0.17342 0.49198 1.00532 0.0
C401 C 0.14245 0.42611 1.00673 0.0
C402 C 0.15303 0.38584 0.0289 0.0
C403 C 0.19534 0.41002 0.04877 0.0
C404 C 0.22627 0.55064 0.08468 0.0
C405 C 0.19253 0.52637 0.10669 0.0
C406 C 0.15667 0.57187 0.12259 0.0
C407 C 0.15284 0.64257 0.11654 0.0
C408 C 0.18443 0.66689 0.09394 0.0
C409 C 0.22142 0.62115 0.07813 0.0
C410 C 0.33804 0.50642 0.06839 0.0
C411 C 0.37442 0.5328 0.0471 0.0
C412 C 0.44696 0.53353 0.04689 0.0
C413 C 0.4853 0.50968 0.06821 0.0
C414 C 0.44835 0.4853 0.08977 0.0
C415 C 0.37592 0.48321 0.0897 0.0
C416 C 0.8249 0.49218 0.04969 0.0
C417 C 0.83472 0.53177 0.02727 0.0
C418 C 0.87124 0.50419 1.00622 0.0
C419 C 0.89932 0.43693 1.00742 0.0
C420 C 0.88974 0.39826 0.03012 0.0
C421 C 0.85274 0.42543 0.05085 0.0
C422 C 0.81519 0.56409 0.08939 0.0
C423 C 0.86234 0.53915 0.10783 0.0
C424 C 0.8877 0.58263 0.12731 0.0
C425 C 0.86457 0.65137 0.12915 0.0
C426 C 0.81849 0.67649 0.11037 0.0
C427 C 0.79514 0.63388 0.09049 0.0
C428 C 0.71001 0.51393 0.06912 0.0
C429 C 0.67267 0.562 0.05434 0.0
C430 C 0.60016 0.5609 0.05412 0.0
C431 C 0.56309 0.51037 0.06806 0.0
C432 C 0.60133 0.46065 0.08201 0.0
C433 C 0.67377 0.46292 0.08268 0.0
H434 H 0.27292 0.56231 0.60045 0.0
N435 N 0.2631 0.51256 0.55161 0.0
H436 H 0.32917 0.5048 0.63694 0.0
H437 H 0.34592 0.40195 0.55001 0.0
H438 H 0.40458 0.34539 0.58613 0.0
H439 H 0.29295 0.46438 0.50511 0.0
H440 H 0.35565 0.52392 0.47051 0.0
H441 H 0.30943 0.64569 0.55252 0.0
H442 H 0.36945 0.70688 0.51762 0.0
H443 H 0.19668 0.62873 0.56815 0.0
H444 H 0.16504 0.41788 0.54456 0.0
H445 H 0.07206 0.64326 0.57409 0.0
H446 H 0.04043 0.43056 0.55144 0.0
H447 H 0.63639 0.57747 0.60746 0.0
H448 H 0.58428 0.4921 0.63667 0.0
H449 H 0.74521 0.34665 0.6172 0.0
H450 H 0.79472 0.42939 0.5873 0.0
H451 H 0.69956 0.48507 0.53963 0.0
H452 H 0.63597 0.52718 0.502 0.0
H453 H 0.63434 0.7325 0.53429 0.0
H454 H 0.70368 0.69131 0.5706 0.0
H455 H 0.85119 0.62183 0.60666 0.0
H456 H 0.97657 0.61089 0.60072 0.0
H457 H 0.94129 0.48403 0.53374 0.0
N458 N 0.7507 0.56394 0.57897 0.0
H459 H 0.81768 0.49242 0.54049 0.0
C460 C 0.30434 0.48577 0.57253 0.0
C461 C 0.30206 0.5154 0.59714 0.0
C462 C 0.33437 0.48242 0.61798 0.0
C463 C 0.37098 0.42008 0.61455 0.0
C464 C 0.37701 0.39326 0.58954 0.0
C465 C 0.34346 0.42546 0.56884 0.0
C466 C 0.29654 0.55057 0.53127 0.0
C467 C 0.30896 0.51754 0.5078 0.0
C468 C 0.34412 0.55179 0.48802 0.0
C469 C 0.36632 0.62049 0.49114 0.0
C470 C 0.3514 0.65456 0.51438 0.0
C471 C 0.31756 0.61956 0.53442 0.0
C472 C 0.18995 0.52233 0.55557 0.0
C473 C 0.16285 0.58553 0.56423 0.0
C474 C 0.09144 0.59349 0.56788 0.0
C475 C 0.04572 0.53823 0.56313 0.0
C476 C 0.07356 0.47477 0.55479 0.0
C477 C 0.1448 0.46713 0.551 0.0
C478 C 0.71994 0.51097 0.59514 0.0
C479 C 0.66002 0.5269 0.6093 0.0
C480 C 0.63042 0.4783 0.62603 0.0
C481 C 0.66148 0.41332 0.62953 0.0
C482 C 0.72094 0.39692 0.61525 0.0
C483 C 0.74926 0.44459 0.59796 0.0
C484 C 0.70885 0.58582 0.55742 0.0
C485 C 0.68737 0.53958 0.5382 0.0
C486 C 0.65054 0.56369 0.51679 0.0
C487 C 0.63175 0.63387 0.51474 0.0
C488 C 0.6496 0.67886 0.53483 0.0
C489 C 0.68883 0.65531 0.55568 0.0
C490 C 0.82439 0.55892 0.574 0.0
C491 C 0.87075 0.59196 0.59066 0.0
C492 C 0.94241 0.58588 0.58712 0.0
C493 C 0.96941 0.54646 0.56672 0.0
C494 C 0.92272 0.51398 0.54988 0.0
C495 C 0.85129 0.51972 0.55353 0.0
Fe496 Fe 0.01108 0.7888 0.21716 0.0
O497 O 0.06884 0.74967 0.18869 0.0
Fe498 Fe 0.85282 0.81908 0.18645 0.0
Fe499 Fe 0.17014 0.75847 0.18643 0.0
O500 O 0.95442 0.82786 0.18835 0.0
O501 O 0.95422 0.82712 0.18559 0.0
O502 O 0.06859 0.74902 0.18599 0.0
Fe503 Fe 0.01102 0.78668 0.15714 0.0
C504 C 0.13476 0.8816 0.22224 0.0
O505 O 0.07863 0.74111 0.24346 0.0
O506 O 0.16636 0.69435 0.21871 0.0
O507 O 0.95216 0.69759 0.1565 0.0
O508 O 0.84833 0.74641 0.15721 0.0
O509 O 0.84629 0.7425 0.21396 0.0
O510 O 0.9527 0.6997 0.21806 0.0
O511 O 0.16113 0.68514 0.15828 0.0
O512 O 0.07949 0.73521 0.13138 0.0
C513 C 0.88795 0.69709 0.22256 0.0
O514 O 0.94255 0.83558 0.13084 0.0
O515 O 0.86216 0.88935 0.15715 0.0
O516 O 0.06939 0.87801 0.21925 0.0
O517 O 0.17604 0.83738 0.21267 0.0
C518 C 0.13277 0.70166 0.24025 0.0
C519 C 0.12879 0.69065 0.1365 0.0
C520 C 0.13166 0.87594 0.14831 0.0
O521 O 0.17338 0.82888 0.15583 0.0
O522 O 0.06893 0.87603 0.1555 0.0
C523 C 0.8889 0.6985 0.1498 0.0
O524 O 0.85839 0.88596 0.21739 0.0
O525 O 0.94215 0.83613 0.24313 0.0
C526 C 0.89379 0.88096 0.13537 0.0
C527 C 0.88991 0.87777 0.23929 0.0
Fe528 Fe 0.50372 0.7789 0.46814 0.0
O529 O 0.54622 0.7222 0.44019 0.0
Fe530 Fe 0.4711 0.93733 0.43765 0.0
Fe531 Fe 0.54225 0.62093 0.43747 0.0
O532 O 0.46469 0.83503 0.43899 0.0
O533 O 0.46607 0.83609 0.43594 0.0
O534 O 0.54423 0.72126 0.43804 0.0
Fe535 Fe 0.5181 0.78364 0.40906 0.0
C536 C 0.59367 0.65949 0.4918 0.0
O537 O 0.4167 0.71709 0.46956 0.0
O538 O 0.46124 0.6116 0.46304 0.0
O539 O 0.45668 0.8473 0.38257 0.0
O540 O 0.40093 0.92875 0.40754 0.0
O541 O 0.40113 0.92869 0.46768 0.0
O542 O 0.45294 0.84645 0.49366 0.0
O543 O 0.47338 0.6177 0.40677 0.0
O544 O 0.43383 0.72495 0.39882 0.0
C545 C 0.41001 0.8976 0.48968 0.0
O546 O 0.531 0.86155 0.38218 0.0
O547 O 0.55219 0.9442 0.41083 0.0
O548 O 0.55235 0.71242 0.49474 0.0
O549 O 0.60368 0.62642 0.47031 0.0
C550 C 0.41524 0.6515 0.47245 0.0
C551 C 0.43123 0.65953 0.39586 0.0
C552 C 0.61824 0.66858 0.38878 0.0
O553 O 0.61927 0.63277 0.40996 0.0
O554 O 0.57735 0.72093 0.38431 0.0
C555 C 0.40678 0.89324 0.38652 0.0
O556 O 0.54441 0.94443 0.46618 0.0
O557 O 0.59112 0.83959 0.46953 0.0
C558 C 0.56507 0.91547 0.38927 0.0
C559 C 0.59167 0.90415 0.47424 0.0
Fe560 Fe 0.51348 0.28513 0.71878 0.0
O561 O 0.56944 0.24219 0.69076 0.0
Fe562 Fe 0.3542 0.31658 0.6891 0.0
Fe563 Fe 0.67114 0.24806 0.68835 0.0
O564 O 0.45656 0.32411 0.68988 0.0
O565 O 0.45547 0.32285 0.68688 0.0
O566 O 0.57083 0.24511 0.68857 0.0
Fe567 Fe 0.50809 0.2717 0.6598 0.0
C568 C 0.63997 0.36954 0.72556 0.0
O569 O 0.58025 0.23451 0.7449 0.0
O570 O 0.66335 0.18208 0.71931 0.0
O571 O 0.42911 0.25621 0.63372 0.0
O572 O 0.34792 0.23362 0.66301 0.0
O573 O 0.34788 0.2466 0.71928 0.0
O574 O 0.45158 0.19844 0.72115 0.0
O575 O 0.66116 0.17474 0.65948 0.0
O576 O 0.57043 0.21413 0.63468 0.0
C577 C 0.38862 0.20087 0.72827 0.0
O578 O 0.44308 0.33079 0.63329 0.0
O579 O 0.36068 0.38514 0.65815 0.0
O580 O 0.5763 0.37143 0.71914 0.0
O581 O 0.68056 0.32386 0.71638 0.0
C582 C 0.63041 0.19025 0.74091 0.0
C583 C 0.62421 0.17503 0.63864 0.0
C584 C 0.63207 0.36166 0.64751 0.0
O585 O 0.67425 0.32138 0.6592 0.0
O586 O 0.56633 0.35644 0.6493 0.0
C587 C 0.37601 0.2214 0.64121 0.0
O588 O 0.36404 0.38864 0.71807 0.0
O589 O 0.4476 0.33861 0.74414 0.0
C590 C 0.39628 0.37978 0.63711 0.0
C591 C 0.39731 0.38236 0.73973 0.0
Fe592 Fe 0.9991 0.28093 0.96314 0.0
O593 O 0.98162 0.21703 0.93395 0.0
Fe594 Fe 0.02389 0.44047 0.93564 0.0
Fe595 Fe 0.99511 0.11757 0.93387 0.0
O596 O 0.04509 0.34039 0.93684 0.0
O597 O 0.0446 0.34014 0.9336 0.0
O598 O 0.97857 0.21799 0.93181 0.0
Fe599 Fe 0.01367 0.28059 0.90401 0.0
C600 C 0.09546 0.1632 0.97834 0.0
O601 O 0.94475 0.21317 0.98677 0.0
O602 O 0.91804 0.11868 0.96165 0.0
O603 O 0.9185 0.32968 0.90192 0.0
O604 O 0.951 0.43906 0.9064 0.0
O605 O 0.94431 0.43716 0.96399 0.0
O606 O 0.97962 0.35433 0.99085 0.0
O607 O 0.93154 0.11909 0.90236 0.0
O608 O 0.97239 0.20947 0.87715 0.0
C609 C 0.94048 0.40667 0.9859 0.0
O610 O 0.05826 0.35476 0.879 0.0
O611 O 0.09484 0.44224 0.90621 0.0
O612 O 0.08658 0.22852 0.9757 0.0
O613 O 0.06318 0.11902 0.96463 0.0
C614 C 0.91138 0.15618 0.9822 0.0
C615 C 0.93508 0.154 0.88111 0.0
C616 C 0.11631 0.16572 0.89852 0.0
O617 O 0.07504 0.11965 0.90721 0.0
O618 O 0.10827 0.22994 0.90327 0.0
C619 C 0.91099 0.39361 0.89685 0.0
O620 O 0.09526 0.44034 0.96511 0.0
O621 O 0.05561 0.34863 0.98945 0.0
C622 C 0.09503 0.40954 0.88447 0.0
C623 C 0.09798 0.40147 0.98539 0.0
loop_
_geom_bond_atom_site_label_1
_geom_bond_atom_site_label_2
_geom_bond_distance
_geom_bond_site_symmetry_2
_ccdc_geom_bond_type
H0 C27 0.929 1_565 S
N1 C26 1.434 . S
N1 C32 1.434 1_545 S
N1 C38 1.423 1_545 S
H2 C28 0.930 . S
H3 C31 0.931 . S
H4 C30 0.929 . S
H5 C33 0.930 . S
H6 C34 0.932 1_545 S
H7 C37 0.929 . S
H8 C36 0.931 . S
H9 C39 0.929 . S
H10 C43 0.932 . S
H11 C40 0.931 . S
H12 C42 0.929 . S
H13 C45 0.929 1_565 S
H14 C46 0.930 . S
H15 C48 0.929 . S
H16 C49 0.931 . S
H17 C51 0.930 . S
H18 C52 0.932 1_545 S
H19 C54 0.931 . S
H20 C55 0.929 . S
H21 C57 0.929 . S
H22 C58 0.931 . S
H23 C60 0.929 . S
N24 C44 1.434 . S
N24 C50 1.434 1_545 S
N24 C56 1.423 1_545 S
H25 C61 0.932 . S
C26 N1 1.434 . S
C26 C27 1.363 . S
C26 C31 1.370 . S
C27 H0 0.929 1_545 S
C27 C26 1.363 . S
C27 C28 1.385 . S
C28 H2 0.930 . S
C28 C27 1.385 . S
C28 C29 1.357 . S
C29 C28 1.357 . S
C29 C30 1.406 . S
C30 H4 0.929 . S
C30 C29 1.406 . S
C30 C31 1.391 . S
C31 H3 0.931 . S
C31 C26 1.370 . S
C31 C30 1.391 . S
C32 N1 1.434 1_565 S
C32 C33 1.358 1_565 S
C32 C37 1.371 . S
C33 H5 0.930 . S
C33 C32 1.358 1_545 S
C33 C34 1.405 1_545 S
C34 H6 0.932 1_565 S
C34 C33 1.405 1_565 S
C34 C35 1.383 . S
C35 C34 1.383 . S
C35 C36 1.393 . S
C36 H8 0.931 . S
C36 C35 1.393 . S
C36 C37 1.382 . S
C37 H7 0.929 . S
C37 C32 1.371 . S
C37 C36 1.382 . S
C38 N1 1.423 1_565 S
C38 C39 1.362 . S
C38 C43 1.388 . S
C39 H9 0.929 . S
C39 C38 1.362 . S
C39 C40 1.376 . S
C40 H11 0.931 . S
C40 C39 1.376 . S
C40 C41 1.396 . S
C41 C40 1.396 . S
C41 C42 1.348 . S
C41 C59 1.472 1_655 S
C42 H12 0.929 . S
C42 C41 1.348 . S
C42 C43 1.443 . S
C43 H10 0.932 . S
C43 C38 1.388 . S
C43 C42 1.443 . S
C44 N24 1.434 . S
C44 C45 1.363 . S
C44 C49 1.370 . S
C45 H13 0.929 1_545 S
C45 C44 1.363 . S
C45 C46 1.385 . S
C46 H14 0.930 . S
C46 C45 1.385 . S
C46 C47 1.357 . S
C47 C46 1.357 . S
C47 C48 1.406 . S
C48 H15 0.929 . S
C48 C47 1.406 . S
C48 C49 1.391 . S
C49 H16 0.931 . S
C49 C44 1.370 . S
C49 C48 1.391 . S
C50 N24 1.434 1_565 S
C50 C51 1.358 1_565 S
C50 C55 1.371 . S
C51 H17 0.930 . S
C51 C50 1.358 1_545 S
C51 C52 1.405 1_545 S
C52 H18 0.932 1_565 S
C52 C51 1.405 1_565 S
C52 C53 1.383 . S
C53 C52 1.383 . S
C53 C54 1.393 . S
C54 H19 0.931 . S
C54 C53 1.393 . S
C54 C55 1.382 . S
C55 H20 0.929 . S
C55 C50 1.371 . S
C55 C54 1.382 . S
C56 N24 1.423 1_565 S
C56 C57 1.362 . S
C56 C61 1.388 . S
C57 H21 0.929 . S
C57 C56 1.362 . S
C57 C58 1.376 . S
C58 H22 0.931 . S
C58 C57 1.376 . S
C58 C59 1.396 . S
C59 C41 1.472 1_455 S
C59 C58 1.396 . S
C59 C60 1.348 . S
C60 H23 0.929 . S
C60 C59 1.348 . S
C60 C61 1.443 . S
C61 H25 0.932 . S
C61 C56 1.388 . S
C61 C60 1.443 . S
H62 C89 0.929 . S
N63 C88 1.433 . S
N63 C94 1.435 . S
N63 C100 1.423 . S
H64 C90 0.930 . S
H65 C93 0.931 . S
H66 C92 0.929 . S
H67 C95 0.930 . S
H68 C96 0.932 . S
H69 C99 0.929 . S
H70 C98 0.931 . S
H71 C101 0.929 . S
H72 C105 0.932 . S
H73 C102 0.931 . S
H74 C104 0.929 . S
H75 C107 0.929 . S
H76 C108 0.930 . S
H77 C110 0.929 . S
H78 C111 0.931 1_565 S
H79 C113 0.930 . S
H80 C114 0.932 . S
H81 C116 0.931 . S
H82 C117 0.929 . S
H83 C119 0.929 . S
H84 C120 0.931 . S
H85 C122 0.929 . S
N86 C106 1.433 . S
N86 C112 1.435 . S
N86 C118 1.423 1_545 S
H87 C123 0.932 . S
C88 N63 1.433 . S
C88 C89 1.363 . S
C88 C93 1.370 . S
C89 H62 0.929 . S
C89 C88 1.363 . S
C89 C90 1.385 . S
C90 H64 0.930 . S
C90 C89 1.385 . S
C90 C91 1.357 . S
C91 C90 1.357 . S
C91 C92 1.406 . S
C92 H66 0.929 . S
C92 C91 1.406 . S
C92 C93 1.391 . S
C93 H65 0.931 . S
C93 C88 1.370 . S
C93 C92 1.391 . S
C94 N63 1.435 . S
C94 C95 1.358 . S
C94 C99 1.371 . S
C95 H67 0.930 . S
C95 C94 1.358 . S
C95 C96 1.405 . S
C96 H68 0.932 . S
C96 C95 1.405 . S
C96 C97 1.383 . S
C97 C96 1.383 . S
C97 C98 1.393 . S
C98 H70 0.931 . S
C98 C97 1.393 . S
C98 C99 1.382 . S
C99 H69 0.929 . S
C99 C94 1.371 . S
C99 C98 1.382 . S
C100 N63 1.423 . S
C100 C101 1.362 . S
C100 C105 1.388 . S
C101 H71 0.929 . S
C101 C100 1.362 . S
C101 C102 1.376 . S
C102 H73 0.931 . S
C102 C101 1.376 . S
C102 C103 1.396 . S
C103 C102 1.396 . S
C103 C104 1.348 . S
C103 C121 1.472 . S
C104 H74 0.929 . S
C104 C103 1.348 . S
C104 C105 1.443 . S
C105 H72 0.932 . S
C105 C100 1.388 . S
C105 C104 1.443 . S
C106 N86 1.433 . S
C106 C107 1.363 . S
C106 C111 1.370 . S
C107 H75 0.929 . S
C107 C106 1.363 . S
C107 C108 1.385 . S
C108 H76 0.930 . S
C108 C107 1.385 . S
C108 C109 1.357 . S
C109 C108 1.357 . S
C109 C110 1.406 . S
C110 H77 0.929 . S
C110 C109 1.406 . S
C110 C111 1.391 . S
C111 H78 0.931 1_545 S
C111 C106 1.370 . S
C111 C110 1.391 . S
C112 N86 1.435 . S
C112 C113 1.358 . S
C112 C117 1.371 . S
C113 H79 0.930 . S
C113 C112 1.358 . S
C113 C114 1.405 . S
C114 H80 0.932 . S
C114 C113 1.405 . S
C114 C115 1.383 . S
C115 C114 1.383 . S
C115 C116 1.393 . S
C116 H81 0.931 . S
C116 C115 1.393 . S
C116 C117 1.382 . S
C117 H82 0.929 . S
C117 C112 1.371 . S
C117 C116 1.382 . S
C118 N86 1.423 1_565 S
C118 C119 1.362 . S
C118 C123 1.388 . S
C119 H83 0.929 . S
C119 C118 1.362 . S
C119 C120 1.376 . S
C120 H84 0.931 . S
C120 C119 1.376 . S
C120 C121 1.396 . S
C121 C103 1.472 . S
C121 C120 1.396 . S
C121 C122 1.348 . S
C122 H85 0.929 . S
C122 C121 1.348 . S
C122 C123 1.443 . S
C123 H87 0.932 . S
C123 C118 1.388 . S
C123 C122 1.443 . S
H124 C151 0.929 . S
N125 C150 1.433 . S
N125 C156 1.435 . S
N125 C162 1.423 . S
H126 C152 0.930 . S
H127 C155 0.931 . S
H128 C154 0.929 . S
H129 C157 0.930 1_565 S
H130 C158 0.932 . S
H131 C161 0.929 . S
H132 C160 0.931 . S
H133 C163 0.929 . S
H134 C167 0.932 . S
H135 C164 0.931 . S
H136 C166 0.929 . S
H137 C169 0.929 . S
H138 C170 0.930 . S
H139 C172 0.929 . S
H140 C173 0.931 . S
H141 C175 0.930 1_565 S
H142 C176 0.932 . S
H143 C178 0.931 . S
H144 C179 0.929 . S
H145 C181 0.929 . S
H146 C182 0.931 . S
H147 C184 0.929 . S
N148 C168 1.433 . S
N148 C174 1.435 . S
N148 C180 1.423 . S
H149 C185 0.932 . S
C150 N125 1.433 . S
C150 C151 1.363 . S
C150 C155 1.370 1_545 S
C151 H124 0.929 . S
C151 C150 1.363 . S
C151 C152 1.385 1_545 S
C152 H126 0.930 . S
C152 C151 1.385 1_565 S
C152 C153 1.357 . S
C153 C152 1.357 . S
C153 C154 1.406 . S
C154 H128 0.929 . S
C154 C153 1.406 . S
C154 C155 1.391 . S
C155 H127 0.931 . S
C155 C150 1.370 1_565 S
C155 C154 1.391 . S
C156 N125 1.435 . S
C156 C157 1.358 . S
C156 C161 1.371 . S
C157 H129 0.930 1_545 S
C157 C156 1.358 . S
C157 C158 1.405 . S
C158 H130 0.932 . S
C158 C157 1.405 . S
C158 C159 1.384 . S
C159 C158 1.384 . S
C159 C160 1.394 . S
C160 H132 0.931 . S
C160 C159 1.394 . S
C160 C161 1.382 . S
C161 H131 0.929 . S
C161 C156 1.371 . S
C161 C160 1.382 . S
C162 N125 1.423 . S
C162 C163 1.362 . S
C162 C167 1.388 . S
C163 H133 0.929 . S
C163 C162 1.362 . S
C163 C164 1.376 . S
C164 H135 0.931 . S
C164 C163 1.376 . S
C164 C165 1.396 . S
C165 C164 1.396 . S
C165 C166 1.348 . S
C165 C183 1.472 . S
C166 H136 0.929 . S
C166 C165 1.348 . S
C166 C167 1.443 . S
C167 H134 0.932 . S
C167 C162 1.388 . S
C167 C166 1.443 . S
C168 N148 1.433 . S
C168 C169 1.363 . S
C168 C173 1.370 1_545 S
C169 H137 0.929 . S
C169 C168 1.363 . S
C169 C170 1.385 1_545 S
C170 H138 0.930 . S
C170 C169 1.385 1_565 S
C170 C171 1.357 . S
C171 C170 1.357 . S
C171 C172 1.406 . S
C172 H139 0.929 . S
C172 C171 1.406 . S
C172 C173 1.391 . S
C173 H140 0.931 . S
C173 C168 1.370 1_565 S
C173 C172 1.391 . S
C174 N148 1.435 . S
C174 C175 1.358 . S
C174 C179 1.371 . S
C175 H141 0.930 1_545 S
C175 C174 1.358 . S
C175 C176 1.405 . S
C176 H142 0.932 . S
C176 C175 1.405 . S
C176 C177 1.384 . S
C177 C176 1.384 . S
C177 C178 1.394 . S
C178 H143 0.931 . S
C178 C177 1.394 . S
C178 C179 1.382 . S
C179 H144 0.929 . S
C179 C174 1.371 . S
C179 C178 1.382 . S
C180 N148 1.423 . S
C180 C181 1.362 . S
C180 C185 1.388 . S
C181 H145 0.929 . S
C181 C180 1.362 . S
C181 C182 1.376 . S
C182 H146 0.931 . S
C182 C181 1.376 . S
C182 C183 1.396 . S
C183 C165 1.472 . S
C183 C182 1.396 . S
C183 C184 1.348 . S
C184 H147 0.929 . S
C184 C183 1.348 . S
C184 C185 1.443 . S
C185 H149 0.932 . S
C185 C180 1.388 . S
C185 C184 1.443 . S
H186 C213 0.929 . S
N187 C212 1.433 . S
N187 C218 1.435 . S
N187 C224 1.423 . S
H188 C214 0.930 . S
H189 C217 0.931 . S
H190 C216 0.929 . S
H191 C219 0.930 . S
H192 C220 0.932 . S
H193 C223 0.929 . S
H194 C222 0.931 . S
H195 C225 0.929 . S
H196 C229 0.932 . S
H197 C226 0.931 . S
H198 C228 0.929 . S
H199 C231 0.929 . S
H200 C232 0.930 . S
H201 C234 0.929 . S
H202 C235 0.931 . S
H203 C237 0.930 . S
H204 C238 0.932 . S
H205 C240 0.931 . S
H206 C241 0.929 1_545 S
H207 C243 0.929 . S
H208 C244 0.931 . S
H209 C246 0.929 . S
N210 C230 1.433 1_545 S
N210 C236 1.435 1_545 S
N210 C242 1.423 . S
H211 C247 0.932 . S
C212 N187 1.433 . S
C212 C213 1.363 . S
C212 C217 1.370 . S
C213 H186 0.929 . S
C213 C212 1.363 . S
C213 C214 1.385 . S
C214 H188 0.930 . S
C214 C213 1.385 . S
C214 C215 1.357 . S
C215 C214 1.357 . S
C215 C216 1.406 . S
C216 H190 0.929 . S
C216 C215 1.406 . S
C216 C217 1.391 . S
C217 H189 0.931 . S
C217 C212 1.370 . S
C217 C216 1.391 . S
C218 N187 1.435 . S
C218 C219 1.358 . S
C218 C223 1.371 . S
C219 H191 0.930 . S
C219 C218 1.358 . S
C219 C220 1.405 . S
C220 H192 0.932 . S
C220 C219 1.405 . S
C220 C221 1.383 . S
C221 C220 1.383 . S
C221 C222 1.393 . S
C222 H194 0.931 . S
C222 C221 1.393 . S
C222 C223 1.382 . S
C223 H193 0.929 . S
C223 C218 1.371 . S
C223 C222 1.382 . S
C224 N187 1.423 . S
C224 C225 1.362 . S
C224 C229 1.388 . S
C225 H195 0.929 . S
C225 C224 1.362 . S
C225 C226 1.376 . S
C226 H197 0.931 . S
C226 C225 1.376 . S
C226 C227 1.396 . S
C227 C226 1.396 . S
C227 C228 1.348 . S
C227 C245 1.472 . S
C228 H198 0.929 . S
C228 C227 1.348 . S
C228 C229 1.443 . S
C229 H196 0.932 . S
C229 C224 1.388 . S
C229 C228 1.443 . S
C230 N210 1.433 1_565 S
C230 C231 1.363 . S
C230 C235 1.370 1_565 S
C231 H199 0.929 . S
C231 C230 1.363 . S
C231 C232 1.385 . S
C232 H200 0.930 . S
C232 C231 1.385 . S
C232 C233 1.357 . S
C233 C232 1.357 . S
C233 C234 1.406 1_565 S
C234 H201 0.929 . S
C234 C233 1.406 1_545 S
C234 C235 1.391 . S
C235 H202 0.931 . S
C235 C230 1.370 1_545 S
C235 C234 1.391 . S
C236 N210 1.435 1_565 S
C236 C237 1.358 . S
C236 C241 1.371 . S
C237 H203 0.930 . S
C237 C236 1.358 . S
C237 C238 1.405 . S
C238 H204 0.932 . S
C238 C237 1.405 . S
C238 C239 1.383 . S
C239 C238 1.383 . S
C239 C240 1.393 . S
C240 H205 0.931 . S
C240 C239 1.393 . S
C240 C241 1.382 . S
C241 H206 0.929 1_565 S
C241 C236 1.371 . S
C241 C240 1.382 . S
C242 N210 1.423 . S
C242 C243 1.362 . S
C242 C247 1.388 . S
C243 H207 0.929 . S
C243 C242 1.362 . S
C243 C244 1.376 . S
C244 H208 0.931 . S
C244 C243 1.376 . S
C244 C245 1.396 . S
C245 C227 1.472 . S
C245 C244 1.396 . S
C245 C246 1.348 . S
C246 H209 0.929 . S
C246 C245 1.348 . S
C246 C247 1.443 . S
C247 H211 0.932 . S
C247 C242 1.388 . S
C247 C246 1.443 . S
H248 C275 0.929 . S
N249 C274 1.433 1_545 S
N249 C280 1.435 1_545 S
N249 C286 1.423 . S
H250 C276 0.930 . S
H251 C279 0.931 . S
H252 C278 0.929 . S
H253 C281 0.930 . S
H254 C282 0.932 . S
H255 C285 0.929 1_545 S
H256 C284 0.931 . S
H257 C287 0.929 . S
H258 C291 0.932 . S
H259 C288 0.931 . S
H260 C290 0.929 . S
H261 C293 0.929 . S
H262 C294 0.930 . S
H263 C296 0.929 . S
H264 C297 0.931 . S
H265 C299 0.930 . S
H266 C300 0.932 . S
H267 C302 0.931 . S
H268 C303 0.929 . S
H269 C305 0.929 . S
H270 C306 0.931 . S
H271 C308 0.929 . S
N272 C292 1.433 . S
N272 C298 1.435 . S
N272 C304 1.423 . S
H273 C309 0.932 . S
C274 N249 1.433 1_565 S
C274 C275 1.363 . S
C274 C279 1.370 1_565 S
C275 H248 0.929 . S
C275 C274 1.363 . S
C275 C276 1.385 . S
C276 H250 0.930 . S
C276 C275 1.385 . S
C276 C277 1.357 . S
C277 C276 1.357 . S
C277 C278 1.406 1_565 S
C278 H252 0.929 . S
C278 C277 1.406 1_545 S
C278 C279 1.391 . S
C279 H251 0.931 . S
C279 C274 1.370 1_545 S
C279 C278 1.391 . S
C280 N249 1.435 1_565 S
C280 C281 1.358 . S
C280 C285 1.371 . S
C281 H253 0.930 . S
C281 C280 1.358 . S
C281 C282 1.405 . S
C282 H254 0.932 . S
C282 C281 1.405 . S
C282 C283 1.383 . S
C283 C282 1.383 . S
C283 C284 1.393 . S
C284 H256 0.931 . S
C284 C283 1.393 . S
C284 C285 1.382 . S
C285 H255 0.929 1_565 S
C285 C280 1.371 . S
C285 C284 1.382 . S
C286 N249 1.423 . S
C286 C287 1.362 . S
C286 C291 1.388 . S
C287 H257 0.929 . S
C287 C286 1.362 . S
C287 C288 1.376 . S
C288 H259 0.931 . S
C288 C287 1.376 . S
C288 C289 1.396 . S
C289 C288 1.396 . S
C289 C290 1.348 . S
C289 C307 1.472 . S
C290 H260 0.929 . S
C290 C289 1.348 . S
C290 C291 1.443 . S
C291 H258 0.932 . S
C291 C286 1.388 . S
C291 C290 1.443 . S
C292 N272 1.433 . S
C292 C293 1.363 . S
C292 C297 1.370 . S
C293 H261 0.929 . S
C293 C292 1.363 . S
C293 C294 1.385 . S
C294 H262 0.930 . S
C294 C293 1.385 . S
C294 C295 1.357 . S
C295 C294 1.357 . S
C295 C296 1.406 . S
C296 H263 0.929 . S
C296 C295 1.406 . S
C296 C297 1.391 . S
C297 H264 0.931 . S
C297 C292 1.370 . S
C297 C296 1.391 . S
C298 N272 1.435 . S
C298 C299 1.358 . S
C298 C303 1.371 . S
C299 H265 0.930 . S
C299 C298 1.358 . S
C299 C300 1.405 . S
C300 H266 0.932 . S
C300 C299 1.405 . S
C300 C301 1.383 . S
C301 C300 1.383 . S
C301 C302 1.393 . S
C302 H267 0.931 . S
C302 C301 1.393 . S
C302 C303 1.382 . S
C303 H268 0.929 . S
C303 C298 1.371 . S
C303 C302 1.382 . S
C304 N272 1.423 . S
C304 C305 1.362 . S
C304 C309 1.388 . S
C305 H269 0.929 . S
C305 C304 1.362 . S
C305 C306 1.376 . S
C306 H270 0.931 . S
C306 C305 1.376 . S
C306 C307 1.396 . S
C307 C289 1.472 . S
C307 C306 1.396 . S
C307 C308 1.348 . S
C308 H271 0.929 . S
C308 C307 1.348 . S
C308 C309 1.443 . S
C309 H273 0.932 . S
C309 C304 1.388 . S
C309 C308 1.443 . S
H310 C337 0.929 . S
N311 C336 1.433 . S
N311 C342 1.435 . S
N311 C348 1.423 1_545 S
H312 C338 0.930 . S
H313 C341 0.931 1_565 S
H314 C340 0.929 . S
H315 C343 0.930 . S
H316 C344 0.932 . S
H317 C347 0.929 . S
H318 C346 0.931 . S
H319 C349 0.929 . S
H320 C353 0.932 . S
H321 C350 0.931 . S
H322 C352 0.929 . S
H323 C355 0.929 . S
H324 C356 0.930 . S
H325 C358 0.929 . S
H326 C359 0.931 . S
H327 C361 0.930 . S
H328 C362 0.932 . S
H329 C364 0.931 . S
H330 C365 0.929 . S
H331 C367 0.929 . S
H332 C368 0.931 . S
H333 C370 0.929 . S
N334 C354 1.433 . S
N334 C360 1.435 . S
N334 C366 1.423 . S
H335 C371 0.932 . S
C336 N311 1.433 . S
C336 C337 1.363 . S
C336 C341 1.370 . S
C337 H310 0.929 . S
C337 C336 1.363 . S
C337 C338 1.385 . S
C338 H312 0.930 . S
C338 C337 1.385 . S
C338 C339 1.357 . S
C339 C338 1.357 . S
C339 C340 1.406 . S
C340 H314 0.929 . S
C340 C339 1.406 . S
C340 C341 1.391 . S
C341 H313 0.931 1_545 S
C341 C336 1.370 . S
C341 C340 1.391 . S
C342 N311 1.435 . S
C342 C343 1.358 . S
C342 C347 1.371 . S
C343 H315 0.930 . S
C343 C342 1.358 . S
C343 C344 1.405 . S
C344 H316 0.932 . S
C344 C343 1.405 . S
C344 C345 1.383 . S
C345 C344 1.383 . S
C345 C346 1.393 . S
C346 H318 0.931 . S
C346 C345 1.393 . S
C346 C347 1.382 . S
C347 H317 0.929 . S
C347 C342 1.371 . S
C347 C346 1.382 . S
C348 N311 1.423 1_565 S
C348 C349 1.362 . S
C348 C353 1.388 . S
C349 H319 0.929 . S
C349 C348 1.362 . S
C349 C350 1.376 . S
C350 H321 0.931 . S
C350 C349 1.376 . S
C350 C351 1.396 . S
C351 C350 1.396 . S
C351 C352 1.348 . S
C351 C369 1.472 . S
C352 H322 0.929 . S
C352 C351 1.348 . S
C352 C353 1.443 . S
C353 H320 0.932 . S
C353 C348 1.388 . S
C353 C352 1.443 . S
C354 N334 1.433 . S
C354 C355 1.363 . S
C354 C359 1.370 . S
C355 H323 0.929 . S
C355 C354 1.363 . S
C355 C356 1.385 . S
C356 H324 0.930 . S
C356 C355 1.385 . S
C356 C357 1.357 . S
C357 C356 1.357 . S
C357 C358 1.406 . S
C358 H325 0.929 . S
C358 C357 1.406 . S
C358 C359 1.391 . S
C359 H326 0.931 . S
C359 C354 1.370 . S
C359 C358 1.391 . S
C360 N334 1.435 . S
C360 C361 1.358 . S
C360 C365 1.371 . S
C361 H327 0.930 . S
C361 C360 1.358 . S
C361 C362 1.405 . S
C362 H328 0.932 . S
C362 C361 1.405 . S
C362 C363 1.383 . S
C363 C362 1.383 . S
C363 C364 1.393 . S
C364 H329 0.931 . S
C364 C363 1.393 . S
C364 C365 1.382 . S
C365 H330 0.929 . S
C365 C360 1.371 . S
C365 C364 1.382 . S
C366 N334 1.423 . S
C366 C367 1.362 . S
C366 C371 1.388 . S
C367 H331 0.929 . S
C367 C366 1.362 . S
C367 C368 1.376 . S
C368 H332 0.931 . S
C368 C367 1.376 . S
C368 C369 1.396 . S
C369 C351 1.472 . S
C369 C368 1.396 . S
C369 C370 1.348 . S
C370 H333 0.929 . S
C370 C369 1.348 . S
C370 C371 1.443 . S
C371 H335 0.932 . S
C371 C366 1.388 . S
C371 C370 1.443 . S
H372 C399 0.929 . S
N373 C398 1.433 . S
N373 C404 1.435 . S
N373 C410 1.423 . S
H374 C400 0.930 . S
H375 C403 0.931 . S
H376 C402 0.929 . S
H377 C405 0.930 . S
H378 C406 0.932 . S
H379 C409 0.929 . S
H380 C408 0.931 . S
H381 C411 0.929 1_556 S
H382 C415 0.932 . S
H383 C412 0.931 1_556 S
H384 C414 0.929 . S
H385 C417 0.929 . S
H386 C418 0.930 . S
H387 C420 0.929 . S
H388 C421 0.931 . S
H389 C423 0.930 . S
H390 C424 0.932 . S
H391 C426 0.931 . S
H392 C427 0.929 . S
H393 C429 0.929 1_556 S
H394 C430 0.931 1_556 S
H395 C432 0.929 . S
N396 C416 1.433 . S
N396 C422 1.435 . S
N396 C428 1.423 . S
H397 C433 0.932 . S
C398 N373 1.433 . S
C398 C399 1.363 . S
C398 C403 1.370 . S
C399 H372 0.929 . S
C399 C398 1.363 . S
C399 C400 1.385 1_554 S
C400 H374 0.930 . S
C400 C399 1.385 1_556 S
C400 C401 1.357 . S
C401 C400 1.357 . S
C401 C402 1.406 . S
C402 H376 0.929 . S
C402 C401 1.406 . S
C402 C403 1.391 1_556 S
C403 H375 0.931 . S
C403 C398 1.370 . S
C403 C402 1.391 1_554 S
C404 N373 1.435 . S
C404 C405 1.358 . S
C404 C409 1.371 . S
C405 H377 0.930 . S
C405 C404 1.358 . S
C405 C406 1.405 . S
C406 H378 0.932 . S
C406 C405 1.405 . S
C406 C407 1.383 . S
C407 C406 1.383 . S
C407 C408 1.393 . S
C408 H380 0.931 . S
C408 C407 1.393 . S
C408 C409 1.382 . S
C409 H379 0.929 . S
C409 C404 1.371 . S
C409 C408 1.382 . S
C410 N373 1.423 . S
C410 C411 1.362 . S
C410 C415 1.388 . S
C411 H381 0.929 1_554 S
C411 C410 1.362 . S
C411 C412 1.376 . S
C412 H383 0.931 1_554 S
C412 C411 1.376 . S
C412 C413 1.396 . S
C413 C412 1.396 . S
C413 C414 1.348 . S
C413 C431 1.472 . S
C414 H384 0.929 . S
C414 C413 1.348 . S
C414 C415 1.443 . S
C415 H382 0.932 . S
C415 C410 1.388 . S
C415 C414 1.443 . S
C416 N396 1.433 . S
C416 C417 1.363 . S
C416 C421 1.370 . S
C417 H385 0.929 . S
C417 C416 1.363 . S
C417 C418 1.385 1_554 S
C418 H386 0.930 . S
C418 C417 1.385 1_556 S
C418 C419 1.357 . S
C419 C418 1.357 . S
C419 C420 1.406 . S
C420 H387 0.929 . S
C420 C419 1.406 . S
C420 C421 1.391 1_556 S
C421 H388 0.931 . S
C421 C416 1.370 . S
C421 C420 1.391 1_554 S
C422 N396 1.435 . S
C422 C423 1.358 . S
C422 C427 1.371 . S
C423 H389 0.930 . S
C423 C422 1.358 . S
C423 C424 1.405 . S
C424 H390 0.932 . S
C424 C423 1.405 . S
C424 C425 1.383 . S
C425 C424 1.383 . S
C425 C426 1.393 . S
C426 H391 0.931 . S
C426 C425 1.393 . S
C426 C427 1.382 . S
C427 H392 0.929 . S
C427 C422 1.371 . S
C427 C426 1.382 . S
C428 N396 1.423 . S
C428 C429 1.362 . S
C428 C433 1.388 . S
C429 H393 0.929 1_554 S
C429 C428 1.362 . S
C429 C430 1.376 . S
C430 H394 0.931 1_554 S
C430 C429 1.376 . S
C430 C431 1.396 . S
C431 C413 1.472 . S
C431 C430 1.396 . S
C431 C432 1.348 . S
C432 H395 0.929 . S
C432 C431 1.348 . S
C432 C433 1.443 . S
C433 H397 0.932 . S
C433 C428 1.388 . S
C433 C432 1.443 . S
H434 C461 0.929 . S
N435 C460 1.433 . S
N435 C466 1.435 . S
N435 C472 1.423 . S
H436 C462 0.930 . S
H437 C465 0.931 . S
H438 C464 0.929 . S
H439 C467 0.930 . S
H440 C468 0.932 . S
H441 C471 0.929 . S
H442 C470 0.931 . S
H443 C473 0.929 . S
H444 C477 0.932 . S
H445 C474 0.931 . S
H446 C476 0.929 . S
H447 C479 0.929 . S
H448 C480 0.930 . S
H449 C482 0.929 . S
H450 C483 0.931 . S
H451 C485 0.930 . S
H452 C486 0.932 . S
H453 C488 0.931 . S
H454 C489 0.929 . S
H455 C491 0.929 . S
H456 C492 0.931 . S
H457 C494 0.929 . S
N458 C478 1.433 . S
N458 C484 1.435 . S
N458 C490 1.423 . S
H459 C495 0.932 . S
C460 N435 1.433 . S
C460 C461 1.363 . S
C460 C465 1.370 . S
C461 H434 0.929 . S
C461 C460 1.363 . S
C461 C462 1.385 . S
C462 H436 0.930 . S
C462 C461 1.385 . S
C462 C463 1.357 . S
C463 C462 1.357 . S
C463 C464 1.406 . S
C464 H438 0.929 . S
C464 C463 1.406 . S
C464 C465 1.391 . S
C465 H437 0.931 . S
C465 C460 1.370 . S
C465 C464 1.391 . S
C466 N435 1.435 . S
C466 C467 1.358 . S
C466 C471 1.371 . S
C467 H439 0.930 . S
C467 C466 1.358 . S
C467 C468 1.405 . S
C468 H440 0.932 . S
C468 C467 1.405 . S
C468 C469 1.383 . S
C469 C468 1.383 . S
C469 C470 1.393 . S
C470 H442 0.931 . S
C470 C469 1.393 . S
C470 C471 1.382 . S
C471 H441 0.929 . S
C471 C466 1.371 . S
C471 C470 1.382 . S
C472 N435 1.423 . S
C472 C473 1.362 . S
C472 C477 1.388 . S
C473 H443 0.929 . S
C473 C472 1.362 . S
C473 C474 1.376 . S
C474 H445 0.931 . S
C474 C473 1.376 . S
C474 C475 1.396 . S
C475 C474 1.396 . S
C475 C476 1.348 . S
C475 C493 1.472 1_455 S
C476 H446 0.929 . S
C476 C475 1.348 . S
C476 C477 1.443 . S
C477 H444 0.932 . S
C477 C472 1.388 . S
C477 C476 1.443 . S
C478 N458 1.433 . S
C478 C479 1.363 . S
C478 C483 1.370 . S
C479 H447 0.929 . S
C479 C478 1.363 . S
C479 C480 1.385 . S
C480 H448 0.930 . S
C480 C479 1.385 . S
C480 C481 1.357 . S
C481 C480 1.357 . S
C481 C482 1.406 . S
C482 H449 0.929 . S
C482 C481 1.406 . S
C482 C483 1.391 . S
C483 H450 0.931 . S
C483 C478 1.370 . S
C483 C482 1.391 . S
C484 N458 1.435 . S
C484 C485 1.358 . S
C484 C489 1.371 . S
C485 H451 0.930 . S
C485 C484 1.358 . S
C485 C486 1.405 . S
C486 H452 0.932 . S
C486 C485 1.405 . S
C486 C487 1.383 . S
C487 C486 1.383 . S
C487 C488 1.393 . S
C488 H453 0.931 . S
C488 C487 1.393 . S
C488 C489 1.382 . S
C489 H454 0.929 . S
C489 C484 1.371 . S
C489 C488 1.382 . S
C490 N458 1.423 . S
C490 C491 1.362 . S
C490 C495 1.388 . S
C491 H455 0.929 . S
C491 C490 1.362 . S
C491 C492 1.376 . S
C492 H456 0.931 . S
C492 C491 1.376 . S
C492 C493 1.396 . S
C493 C475 1.472 1_655 S
C493 C492 1.396 . S
C493 C494 1.348 . S
C494 H457 0.929 . S
C494 C493 1.348 . S
C494 C495 1.443 . S
C495 H459 0.932 . S
C495 C490 1.388 . S
C495 C494 1.443 . S
Fe496 O497 1.886 . S
Fe496 O500 1.715 1_455 S
Fe496 O505 2.077 . S
Fe496 O510 1.935 1_455 S
Fe496 O516 2.077 . S
Fe496 O525 1.935 1_455 S
O497 Fe496 1.886 . S
O497 Fe499 1.715 . S
Fe498 O500 1.886 . S
Fe498 O501 1.715 . S
Fe498 O508 1.935 . S
Fe498 O509 2.077 . S
Fe498 O515 1.935 . S
Fe498 O524 2.077 . S
Fe499 O497 1.715 . S
Fe499 O502 1.886 . S
Fe499 O506 1.935 . S
Fe499 O511 2.077 . S
Fe499 O517 1.935 . S
Fe499 O521 2.077 . S
O500 Fe496 1.715 1_655 S
O500 Fe498 1.886 . S
O501 Fe498 1.715 . S
O501 Fe503 1.886 . S
O502 Fe499 1.886 . S
O502 Fe503 1.715 1_455 S
Fe503 O501 1.886 . S
Fe503 O502 1.715 1_655 S
Fe503 O507 2.077 . S
Fe503 O512 1.935 1_655 S
Fe503 O514 2.077 . S
Fe503 O522 1.935 1_655 S
C504 O516 1.381 . S
C504 O517 1.421 . S
O505 Fe496 2.077 . S
O505 C518 1.381 . S
O506 Fe499 1.935 . S
O506 C518 1.421 . S
O507 Fe503 2.077 . S
O507 C523 1.381 . S
O508 Fe498 1.935 . S
O508 C523 1.421 . S
O509 Fe498 2.077 . S
O509 C513 1.381 . S
O510 Fe496 1.935 1_655 S
O510 C513 1.421 . S
O511 Fe499 2.077 . S
O511 C519 1.381 . S
O512 Fe503 1.935 1_455 S
O512 C519 1.421 . S
C513 O509 1.381 . S
C513 O510 1.421 . S
O514 Fe503 2.077 . S
O514 C526 1.381 . S
O515 Fe498 1.935 . S
O515 C526 1.421 . S
O516 Fe496 2.077 . S
O516 C504 1.381 . S
O517 Fe499 1.935 . S
O517 C504 1.421 . S
C518 O505 1.381 . S
C518 O506 1.421 . S
C519 O511 1.381 . S
C519 O512 1.421 . S
C520 O521 1.381 . S
C520 O522 1.421 . S
O521 Fe499 2.077 . S
O521 C520 1.381 . S
O522 Fe503 1.935 1_455 S
O522 C520 1.421 . S
C523 O507 1.381 . S
C523 O508 1.421 . S
O524 Fe498 2.077 . S
O524 C527 1.381 . S
O525 Fe496 1.935 1_655 S
O525 C527 1.421 . S
C526 O514 1.381 . S
C526 O515 1.421 . S
C527 O524 1.381 . S
C527 O525 1.421 . S
Fe528 O529 1.886 . S
Fe528 O532 1.715 . S
Fe528 O537 2.077 . S
Fe528 O542 1.935 . S
Fe528 O548 2.077 . S
Fe528 O557 1.935 . S
O529 Fe528 1.886 . S
O529 Fe531 1.715 . S
Fe530 O532 1.886 . S
Fe530 O533 1.715 . S
Fe530 O540 1.935 . S
Fe530 O541 2.077 . S
Fe530 O547 1.935 . S
Fe530 O556 2.077 . S
Fe531 O529 1.715 . S
Fe531 O534 1.886 . S
Fe531 O538 1.935 . S
Fe531 O543 2.077 . S
Fe531 O549 1.935 . S
Fe531 O553 2.077 . S
O532 Fe528 1.715 . S
O532 Fe530 1.886 . S
O533 Fe530 1.715 . S
O533 Fe535 1.886 . S
O534 Fe531 1.886 . S
O534 Fe535 1.715 . S
Fe535 O533 1.886 . S
Fe535 O534 1.715 . S
Fe535 O539 2.077 . S
Fe535 O544 1.935 . S
Fe535 O546 2.077 . S
Fe535 O554 1.935 . S
C536 O548 1.381 . S
C536 O549 1.421 . S
O537 Fe528 2.077 . S
O537 C550 1.381 . S
O538 Fe531 1.935 . S
O538 C550 1.421 . S
O539 Fe535 2.077 . S
O539 C555 1.381 . S
O540 Fe530 1.935 . S
O540 C555 1.421 . S
O541 Fe530 2.077 . S
O541 C545 1.381 . S
O542 Fe528 1.935 . S
O542 C545 1.421 . S
O543 Fe531 2.077 . S
O543 C551 1.381 . S
O544 Fe535 1.935 . S
O544 C551 1.421 . S
C545 O541 1.381 . S
C545 O542 1.421 . S
O546 Fe535 2.077 . S
O546 C558 1.381 . S
O547 Fe530 1.935 . S
O547 C558 1.421 . S
O548 Fe528 2.077 . S
O548 C536 1.381 . S
O549 Fe531 1.935 . S
O549 C536 1.421 . S
C550 O537 1.381 . S
C550 O538 1.421 . S
C551 O543 1.381 . S
C551 O544 1.421 . S
C552 O553 1.381 . S
C552 O554 1.421 . S
O553 Fe531 2.077 . S
O553 C552 1.381 . S
O554 Fe535 1.935 . S
O554 C552 1.421 . S
C555 O539 1.381 . S
C555 O540 1.421 . S
O556 Fe530 2.077 . S
O556 C559 1.381 . S
O557 Fe528 1.935 . S
O557 C559 1.421 . S
C558 O546 1.381 . S
C558 O547 1.421 . S
C559 O556 1.381 . S
C559 O557 1.421 . S
Fe560 O561 1.886 . S
Fe560 O564 1.715 . S
Fe560 O569 2.077 . S
Fe560 O574 1.935 . S
Fe560 O580 2.077 . S
Fe560 O589 1.935 . S
O561 Fe560 1.886 . S
O561 Fe563 1.715 . S
Fe562 O564 1.886 . S
Fe562 O565 1.715 . S
Fe562 O572 1.935 . S
Fe562 O573 2.077 . S
Fe562 O579 1.935 . S
Fe562 O588 2.077 . S
Fe563 O561 1.715 . S
Fe563 O566 1.886 . S
Fe563 O570 1.935 . S
Fe563 O575 2.077 . S
Fe563 O581 1.935 . S
Fe563 O585 2.077 . S
O564 Fe560 1.715 . S
O564 Fe562 1.886 . S
O565 Fe562 1.715 . S
O565 Fe567 1.886 . S
O566 Fe563 1.886 . S
O566 Fe567 1.715 . S
Fe567 O565 1.886 . S
Fe567 O566 1.715 . S
Fe567 O571 2.077 . S
Fe567 O576 1.935 . S
Fe567 O578 2.077 . S
Fe567 O586 1.935 . S
C568 O580 1.381 . S
C568 O581 1.421 . S
O569 Fe560 2.077 . S
O569 C582 1.381 . S
O570 Fe563 1.935 . S
O570 C582 1.421 . S
O571 Fe567 2.077 . S
O571 C587 1.381 . S
O572 Fe562 1.935 . S
O572 C587 1.421 . S
O573 Fe562 2.077 . S
O573 C577 1.381 . S
O574 Fe560 1.935 . S
O574 C577 1.421 . S
O575 Fe563 2.077 . S
O575 C583 1.381 . S
O576 Fe567 1.935 . S
O576 C583 1.421 . S
C577 O573 1.381 . S
C577 O574 1.421 . S
O578 Fe567 2.077 . S
O578 C590 1.381 . S
O579 Fe562 1.935 . S
O579 C590 1.421 . S
O580 Fe560 2.077 . S
O580 C568 1.381 . S
O581 Fe563 1.935 . S
O581 C568 1.421 . S
C582 O569 1.381 . S
C582 O570 1.421 . S
C583 O575 1.381 . S
C583 O576 1.421 . S
C584 O585 1.381 . S
C584 O586 1.421 . S
O585 Fe563 2.077 . S
O585 C584 1.381 . S
O586 Fe567 1.935 . S
O586 C584 1.421 . S
C587 O571 1.381 . S
C587 O572 1.421 . S
O588 Fe562 2.077 . S
O588 C591 1.381 . S
O589 Fe560 1.935 . S
O589 C591 1.421 . S
C590 O578 1.381 . S
C590 O579 1.421 . S
C591 O588 1.381 . S
C591 O589 1.421 . S
Fe592 O593 1.886 . S
Fe592 O596 1.715 . S
Fe592 O601 2.077 1_455 S
Fe592 O606 1.935 1_455 S
Fe592 O612 2.077 . S
Fe592 O621 1.935 . S
O593 Fe592 1.886 . S
O593 Fe595 1.715 . S
Fe594 O596 1.886 . S
Fe594 O597 1.715 . S
Fe594 O604 1.935 1_455 S
Fe594 O605 2.077 1_455 S
Fe594 O611 1.935 . S
Fe594 O620 2.077 . S
Fe595 O593 1.715 . S
Fe595 O598 1.886 . S
Fe595 O602 1.935 1_455 S
Fe595 O607 2.077 1_455 S
Fe595 O613 1.935 . S
Fe595 O617 2.077 . S
O596 Fe592 1.715 . S
O596 Fe594 1.886 . S
O597 Fe594 1.715 . S
O597 Fe599 1.886 . S
O598 Fe595 1.886 . S
O598 Fe599 1.715 . S
Fe599 O597 1.886 . S
Fe599 O598 1.715 . S
Fe599 O603 2.077 1_455 S
Fe599 O608 1.935 1_455 S
Fe599 O610 2.077 . S
Fe599 O618 1.935 . S
C600 O612 1.381 . S
C600 O613 1.421 . S
O601 Fe592 2.077 1_655 S
O601 C614 1.381 . S
O602 Fe595 1.935 1_655 S
O602 C614 1.421 . S
O603 Fe599 2.077 1_655 S
O603 C619 1.381 . S
O604 Fe594 1.935 1_655 S
O604 C619 1.421 . S
O605 Fe594 2.077 1_655 S
O605 C609 1.381 . S
O606 Fe592 1.935 1_655 S
O606 C609 1.421 . S
O607 Fe595 2.077 1_655 S
O607 C615 1.381 . S
O608 Fe599 1.935 1_655 S
O608 C615 1.421 . S
C609 O605 1.381 . S
C609 O606 1.421 . S
O610 Fe599 2.077 . S
O610 C622 1.381 . S
O611 Fe594 1.935 . S
O611 C622 1.421 . S
O612 Fe592 2.077 . S
O612 C600 1.381 . S
O613 Fe595 1.935 . S
O613 C600 1.421 . S
C614 O601 1.381 . S
C614 O602 1.421 . S
C615 O607 1.381 . S
C615 O608 1.421 . S
C616 O617 1.381 . S
C616 O618 1.421 . S
O617 Fe595 2.077 . S
O617 C616 1.381 . S
O618 Fe599 1.935 . S
O618 C616 1.421 . S
C619 O603 1.381 . S
C619 O604 1.421 . S
O620 Fe594 2.077 . S
O620 C623 1.381 . S
O621 Fe592 1.935 . S
O621 C623 1.421 . S
C622 O610 1.381 . S
C622 O611 1.421 . S
C623 O620 1.381 . S
C623 O621 1.421 . S
C545 C53 1.825 . S
C115 C577 1.839 . S
C177 C600 1.986 1_554 S
C504 C239 1.893 . S
C587 C47 1.602 . S
C616 C109 1.566 . S
C520 C171 1.571 . S
C555 C233 1.583 . S
C29 C583 1.599 . S
C277 C558 1.583 . S
C153 C526 1.568 . S
C615 C339 1.567 . S
C559 C35 1.826 . S
C283 C527 1.843 . S
C159 C614 1.987 1_554 S
C582 C345 1.891 . S
C419 C609 1.717 . S
C301 C513 1.873 . S
C487 C536 1.883 . S
C363 C568 1.893 . S
C523 C425 2.217 . S
C295 C552 1.576 . S
C481 C584 1.599 . S
C619 C357 1.561 . S
C407 C519 2.125 . S
C91 C622 1.560 . S
C463 C590 1.601 . S
C551 C215 1.576 . S
C623 C401 1.713 . S
C591 C97 1.840 . S
C550 C469 1.882 . S
C518 C221 1.924 . S
