# Generated by pormake.
# Topology zzz, (3,6)-cn, num edge types: 1
# Building blocks:
#     Node 0, Type 0, BuildingBlock: KAKCAD_clean_linker_0, # of connection points: 3
#     Node 1, Type 0, BuildingBlock: KAKCAD_clean_linker_0, # of connection points: 3
#     Node 2, Type 0, BuildingBlock: KAKCAD_clean_linker_0, # of connection points: 3
#     Node 3, Type 0, BuildingBlock: KAKCAD_clean_linker_0, # of connection points: 3
#     Node 4, Type 0, BuildingBlock: KAKCAD_clean_linker_0, # of connection points: 3
#     Node 5, Type 0, BuildingBlock: KAKCAD_clean_linker_0, # of connection points: 3
#     Node 6, Type 0, BuildingBlock: KAKCAD_clean_linker_0, # of connection points: 3
#     Node 7, Type 0, BuildingBlock: KAKCAD_clean_linker_0, # of connection points: 3
#     Node 8, Type 1, BuildingBlock: BETDAH_clean_sbu_0, # of connection points: 6
#     Node 9, Type 1, BuildingBlock: BETDAH_clean_sbu_0, # of connection points: 6
#     Node 10, Type 1, BuildingBlock: BETDAH_clean_sbu_0, # of connection points: 6
#     Node 11, Type 1, BuildingBlock: BETDAH_clean_sbu_0, # of connection points: 6
#     Edge 12, Type (0, 1), BuildingBlock: XIVTED_clean_linker_0, # of connection points: 2
#     Edge 13, Type (0, 1), BuildingBlock: XIVTED_clean_linker_0, # of connection points: 2
#     Edge 14, Type (0, 1), BuildingBlock: XIVTED_clean_linker_0, # of connection points: 2
#     Edge 15, Type (0, 1), BuildingBlock: XIVTED_clean_linker_0, # of connection points: 2
#     Edge 16, Type (0, 1), BuildingBlock: XIVTED_clean_linker_0, # of connection points: 2
#     Edge 17, Type (0, 1), BuildingBlock: XIVTED_clean_linker_0, # of connection points: 2
#     Edge 18, Type (0, 1), BuildingBlock: XIVTED_clean_linker_0, # of connection points: 2
#     Edge 19, Type (0, 1), BuildingBlock: XIVTED_clean_linker_0, # of connection points: 2
#     Edge 20, Type (0, 1), BuildingBlock: XIVTED_clean_linker_0, # of connection points: 2
#     Edge 21, Type (0, 1), BuildingBlock: XIVTED_clean_linker_0, # of connection points: 2
#     Edge 22, Type (0, 1), BuildingBlock: XIVTED_clean_linker_0, # of connection points: 2
#     Edge 23, Type (0, 1), BuildingBlock: XIVTED_clean_linker_0, # of connection points: 2
#     Edge 24, Type (0, 1), BuildingBlock: XIVTED_clean_linker_0, # of connection points: 2
#     Edge 25, Type (0, 1), BuildingBlock: XIVTED_clean_linker_0, # of connection points: 2
#     Edge 26, Type (0, 1), BuildingBlock: XIVTED_clean_linker_0, # of connection points: 2
#     Edge 27, Type (0, 1), BuildingBlock: XIVTED_clean_linker_0, # of connection points: 2
#     Edge 28, Type (0, 1), BuildingBlock: XIVTED_clean_linker_0, # of connection points: 2
#     Edge 29, Type (0, 1), BuildingBlock: XIVTED_clean_linker_0, # of connection points: 2
#     Edge 30, Type (0, 1), BuildingBlock: XIVTED_clean_linker_0, # of connection points: 2
#     Edge 31, Type (0, 1), BuildingBlock: XIVTED_clean_linker_0, # of connection points: 2
#     Edge 32, Type (0, 1), BuildingBlock: XIVTED_clean_linker_0, # of connection points: 2
#     Edge 33, Type (0, 1), BuildingBlock: XIVTED_clean_linker_0, # of connection points: 2
#     Edge 34, Type (0, 1), BuildingBlock: XIVTED_clean_linker_0, # of connection points: 2
#     Edge 35, Type (0, 1), BuildingBlock: XIVTED_clean_linker_0, # of connection points: 2
# Relax obj value: 0.441
# Max RMSD: 0.272
# Mean RMSD: 0.255
data_MOF--net-zzz--node1-BETDAH_clean_sbu_0--node2-KAKCAD_clean_linker_0--edge1-XIVTED_clean_linker_0
_symmetry_space_group_name_H-M    P1
_symmetry_Int_Tables_number       1
_symmetry_cell_setting            triclinic
loop_
_symmetry_equiv_pos_as_xyz
'x, y, z'
_cell_length_a     60.627501
_cell_length_b     60.593135
_cell_length_c     18.326817
_cell_angle_alpha  89.87786
_cell_angle_beta   90.077245
_cell_angle_gamma 90.054094
loop_
_atom_site_label
_atom_site_type_symbol
_atom_site_fract_x
_atom_site_fract_y
_atom_site_fract_z
_atom_type_partial_charge
C0 C 0.76312 0.43157 0.08829 0.0
C1 C 0.78176 0.42104 0.11829 0.0
C2 C 0.7498 0.44505 0.13152 0.0
C3 C 0.75436 0.44767 0.20628 0.0
C4 C 0.77069 0.43427 0.23812 0.0
C5 C 0.78444 0.42139 0.19463 0.0
C6 C 0.74486 0.46657 0.24762 0.0
C7 C 0.7236 0.47452 0.23289 0.0
C8 C 0.71616 0.49447 0.26322 0.0
C9 C 0.73008 0.50645 0.31067 0.0
C10 C 0.75108 0.49802 0.3286 0.0
C11 C 0.75826 0.47837 0.29636 0.0
C12 C 0.76672 0.50925 0.37854 0.0
C13 C 0.77964 0.52689 0.35318 0.0
C14 C 0.77287 0.49858 0.44352 0.0
C15 C 0.79233 0.5044 0.4799 0.0
C16 C 0.80625 0.52097 0.45185 0.0
C17 C 0.69408 0.50251 0.24073 0.0
C18 C 0.69214 0.51952 0.18897 0.0
C19 C 0.67534 0.49 0.25846 0.0
C20 C 0.65539 0.49345 0.2218 0.0
C21 C 0.65378 0.50924 0.16553 0.0
C22 C 0.67216 0.52287 0.15169 0.0
C23 C 0.7992 0.53273 0.38954 0.0
H24 H 0.75977 0.43087 0.03032 0.0
H25 H 0.73717 0.45477 0.10479 0.0
H26 H 0.77403 0.43506 0.29612 0.0
H27 H 0.7983 0.41339 0.22082 0.0
H28 H 0.71292 0.46554 0.19588 0.0
H29 H 0.77498 0.47291 0.30715 0.0
H30 H 0.72456 0.52192 0.33385 0.0
H31 H 0.7755 0.53506 0.30235 0.0
H32 H 0.76345 0.48457 0.46318 0.0
H33 H 0.79719 0.49476 0.52705 0.0
H34 H 0.70649 0.52909 0.17345 0.0
H35 H 0.67651 0.47666 0.29774 0.0
H36 H 0.80928 0.54582 0.36693 0.0
H37 H 0.67163 0.5351 0.10854 0.0
H38 H 0.64149 0.48297 0.23519 0.0
C39 C 0.08404 0.76198 0.03494 0.0
C40 C 0.0968 0.78022 0.05682 0.0
C41 C 0.07088 0.75072 0.08523 0.0
C42 C 0.07082 0.75685 0.15932 0.0
C43 C 0.08613 0.77279 0.18268 0.0
C44 C 0.09871 0.78456 0.13206 0.0
C45 C 0.05295 0.74901 0.2091 0.0
C46 C 0.04308 0.7283 0.19937 0.0
C47 C 0.02363 0.7225 0.23635 0.0
C48 C 0.01433 0.73747 0.28678 0.0
C49 C 0.025 0.75775 0.30106 0.0
C50 C 0.04393 0.76338 0.26113 0.0
C51 C 0.01687 0.7741 0.35526 0.0
C52 C 0.99699 0.78552 0.34414 0.0
C53 C 0.03127 0.78146 0.41025 0.0
C54 C 0.02657 0.80046 0.45053 0.0
C55 C 0.00734 0.8128 0.43675 0.0
C56 C 0.01287 0.70139 0.21533 0.0
C57 C 0.99295 0.70162 0.17622 0.0
C58 C 0.02505 0.68167 0.21845 0.0
C59 C 0.01842 0.66313 0.17859 0.0
C60 C 0.99951 0.6639 0.13404 0.0
C61 C 0.98635 0.68307 0.13584 0.0
C62 C 0.99229 0.80469 0.38439 0.0
H63 H 0.08285 0.75738 0.97804 0.0
H64 H 0.05958 0.73842 0.06446 0.0
H65 H 0.08738 0.7773 0.23967 0.0
H66 H 0.10844 0.79824 0.1521 0.0
H67 H 0.05 0.71683 0.16031 0.0
H68 H 0.05095 0.77967 0.26865 0.0
H69 H 0.99925 0.73325 0.31524 0.0
H70 H 0.98576 0.78041 0.30136 0.0
H71 H 0.04685 0.77314 0.41927 0.0
H72 H 0.03873 0.80616 0.4895 0.0
H73 H 0.9834 0.71668 0.17207 0.0
H74 H 0.04062 0.68115 0.24752 0.0
H75 H 0.97717 0.81354 0.37288 0.0
H76 H 0.97151 0.68415 0.10308 0.0
H77 H 0.02908 0.6488 0.17838 0.0
C78 C 0.73375 0.08769 0.05884 0.0
C79 C 0.72353 0.10576 0.09313 0.0
C80 C 0.74813 0.07405 0.09762 0.0
C81 C 0.75246 0.07807 0.17162 0.0
C82 C 0.74415 0.09735 0.20384 0.0
C83 C 0.72999 0.1112 0.16471 0.0
C84 C 0.7621 0.06032 0.21713 0.0
C85 C 0.78071 0.04868 0.19385 0.0
C86 C 0.78756 0.02944 0.23019 0.0
C87 C 0.77534 0.02161 0.29054 0.0
C88 C 0.75659 0.03333 0.31464 0.0
C89 C 0.75047 0.05281 0.27827 0.0
C90 C 0.74123 0.02465 0.37114 0.0
C91 C 0.7306 0.00428 0.36095 0.0
C92 C 0.73355 0.03878 0.42629 0.0
C93 C 0.71462 0.03352 0.46632 0.0
C94 C 0.70281 0.01399 0.45205 0.0
C95 C 0.80683 0.01742 0.20041 0.0
C96 C 0.80627 0.0101 0.1278 0.0
C97 C 0.82686 0.01659 0.23886 0.0
C98 C 0.84626 0.00974 0.20374 0.0
C99 C 0.84591 1.00346 0.12971 0.0
C100 C 0.82551 1.00313 0.09298 0.0
C101 C 0.71155 0.99903 0.40088 0.0
H102 H 0.72916 0.08275 0.00415 0.0
H103 H 0.75422 0.05923 0.07152 0.0
H104 H 0.74753 0.10095 0.26065 0.0
H105 H 0.72296 0.12533 0.19223 0.0
H106 H 0.78963 0.05437 0.1461 0.0
H107 H 0.73544 0.06123 0.29411 0.0
H108 H 0.78003 0.00633 0.31713 0.0
H109 H 0.736 0.99318 0.31832 0.0
H110 H 0.74135 0.05465 0.43499 0.0
H111 H 0.70842 0.04554 0.5048 0.0
H112 H 0.79105 0.01083 0.0968 0.0
H113 H 0.82773 0.02241 0.29463 0.0
H114 H 0.70313 0.98365 0.38936 0.0
H115 H 0.82455 0.9987 0.03585 0.0
H116 H 0.86163 0.00998 0.2339 0.0
C117 C 0.48475 0.72509 0.48168 0.0
C118 C 0.50346 0.71286 0.46102 0.0
C119 C 0.47832 0.74382 0.44222 0.0
C120 C 0.49039 0.75092 0.38104 0.0
C121 C 0.51005 0.7399 0.36371 0.0
C122 C 0.51653 0.72108 0.4033 0.0
C123 C 0.47943 0.76542 0.32625 0.0
C124 C 0.48844 0.78556 0.30081 0.0
C125 C 0.47721 0.79792 0.24646 0.0
C126 C 0.45779 0.78922 0.21551 0.0
C127 C 0.4491 0.7691 0.23949 0.0
C128 C 0.45972 0.75764 0.29565 0.0
C129 C 0.43078 0.75819 0.20023 0.0
C130 C 0.41346 0.74832 0.23923 0.0
C131 C 0.43284 0.75397 0.12535 0.0
C132 C 0.4195 0.73812 0.09202 0.0
C133 C 0.40374 0.72634 0.13298 0.0
C134 C 0.48542 0.8196 0.2186 0.0
C135 C 0.47046 0.83707 0.20822 0.0
C136 C 0.50717 0.82224 0.19361 0.0
C137 C 0.51335 0.84136 0.15504 0.0
C138 C 0.49795 0.85831 0.14089 0.0
C139 C 0.47659 0.85608 0.16993 0.0
C140 C 0.3999 0.73268 0.20569 0.0
H141 H 0.47408 0.71936 0.52509 0.0
H142 H 0.46292 0.75182 0.45618 0.0
H143 H 0.51949 0.74479 0.3162 0.0
H144 H 0.53128 0.71242 0.38655 0.0
H145 H 0.50372 0.79168 0.32383 0.0
H146 H 0.45331 0.74171 0.31268 0.0
H147 H 0.44964 0.79787 0.17119 0.0
H148 H 0.41141 0.75156 0.29695 0.0
H149 H 0.44614 0.76131 0.09418 0.0
H150 H 0.42308 0.73369 0.03609 0.0
H151 H 0.45361 0.83563 0.22728 0.0
H152 H 0.51906 0.80907 0.20052 0.0
H153 H 0.38752 0.72438 0.2383 0.0
H154 H 0.46413 0.86852 0.15996 0.0
H155 H 0.53007 0.84259 0.13475 0.0
C156 C 0.25014 0.42373 0.34846 0.0
C157 C 0.2291 0.41559 0.33002 0.0
C158 C 0.2644 0.43124 0.29399 0.0
C159 C 0.25838 0.42951 0.22 0.0
C160 C 0.24002 0.41632 0.20236 0.0
C161 C 0.22525 0.40982 0.25666 0.0
C162 C 0.26775 0.44515 0.16491 0.0
C163 C 0.28907 0.45383 0.17258 0.0
C164 C 0.29575 0.47257 0.13302 0.0
C165 C 0.28119 0.48217 0.0816 0.0
C166 C 0.26031 0.4725 0.069 0.0
C167 C 0.25382 0.45439 0.11172 0.0
C168 C 0.24388 0.4812 0.01551 0.0
C169 C 0.23519 0.50263 0.02183 0.0
C170 C 0.23339 0.46626 0.96806 0.0
C171 C 0.21368 0.47183 0.93303 0.0
C172 C 0.20401 0.49262 0.9436 0.0
C173 C 0.31721 0.48265 0.15343 0.0
C174 C 0.3176 0.50143 0.19807 0.0
C175 C 0.33676 0.47058 0.14412 0.0
C176 C 0.35598 0.47639 0.18203 0.0
C177 C 0.35603 0.49418 0.23146 0.0
C178 C 0.33676 0.50712 0.23678 0.0
C179 C 0.21545 0.50834 0.98579 0.0
H180 H 0.25458 0.42684 0.40472 0.0
H181 H 0.27877 0.4405 0.31086 0.0
H182 H 0.23565 0.41319 0.14602 0.0
H183 H 0.20977 0.40268 0.23925 0.0
H184 H 0.30022 0.44684 0.21267 0.0
H185 H 0.23703 0.4485 0.10623 0.0
H186 H 0.28609 0.49679 0.0516 0.0
H187 H 0.24272 0.51439 0.0587 0.0
H188 H 0.23969 0.44963 0.96202 0.0
H189 H 0.20545 0.45949 0.90004 0.0
H190 H 0.3026 0.51069 0.20756 0.0
H191 H 0.33679 0.45584 0.11075 0.0
H192 H 0.20838 0.52451 0.99486 0.0
H193 H 0.33592 0.5208 0.27454 0.0
H194 H 0.37055 0.46632 0.17474 0.0
C195 C 0.03449 0.26429 0.44007 0.0
C196 C 0.04429 0.24353 0.45017 0.0
C197 C 0.03448 0.27423 0.37138 0.0
C198 C 0.04455 0.26377 0.31151 0.0
C199 C 0.05638 0.2442 0.32353 0.0
C200 C 0.05622 0.23414 0.39212 0.0
C201 C 0.04024 0.27185 0.23623 0.0
C202 C 0.0385 0.29447 0.22268 0.0
C203 C 0.02967 0.30243 0.15711 0.0
C204 C 0.02374 0.28738 0.10145 0.0
C205 C 0.02666 0.26444 0.11283 0.0
C206 C 0.03473 0.25699 0.18046 0.0
C207 C 0.01995 0.24738 0.05865 0.0
C208 C 1.00318 0.23236 0.0771 0.0
C209 C 0.03293 0.24305 0.99683 0.0
C210 C 0.03003 0.22339 0.95698 0.0
C211 C 0.01418 0.20762 0.97854 0.0
C212 C 0.02402 0.32623 0.15625 0.0
C213 C 1.00344 0.33254 0.18421 0.0
C214 C 0.0411 0.34191 0.15478 0.0
C215 C 0.03825 0.36275 0.18663 0.0
C216 C 0.01838 0.36824 0.22224 0.0
C217 C 1.00065 0.35321 0.21709 0.0
C218 C 1.00027 0.21283 0.03752 0.0
H219 H 0.02546 0.2721 0.48393 0.0
H220 H 0.0251 0.28929 0.36436 0.0
H221 H 0.0647 0.23598 0.27895 0.0
H222 H 0.06389 0.21809 0.39764 0.0
H223 H 0.0427 0.30607 0.26553 0.0
H224 H 0.03568 0.23938 0.19066 0.0
H225 H 0.01638 0.29335 0.05128 0.0
H226 H 0.99306 0.23518 0.12486 0.0
H227 H 0.04624 0.25414 0.98222 0.0
H228 H 0.0411 0.21996 0.91211 0.0
H229 H 0.99019 0.32056 0.18803 0.0
H230 H 0.05728 0.33732 0.13498 0.0
H231 H 0.98758 0.20139 0.05493 0.0
H232 H 0.98512 0.35646 0.24395 0.0
H233 H 0.05213 0.37399 0.18717 0.0
C234 C 0.27314 0.91001 0.2279 0.0
C235 C 0.27848 0.91538 0.30057 0.0
C236 C 0.25973 0.92398 0.18641 0.0
C237 C 0.25092 0.94319 0.21743 0.0
C238 C 0.25406 0.94716 0.29206 0.0
C239 C 0.26779 0.93348 0.33318 0.0
C240 C 0.24181 0.96087 0.17071 0.0
C241 C 0.22201 0.97126 0.18869 0.0
C242 C 0.21508 0.99035 0.15154 0.0
C243 C 0.2287 0.99946 0.09649 0.0
C244 C 0.24845 0.98862 0.07653 0.0
C245 C 0.25461 0.9693 0.11367 0.0
C246 C 0.26406 0.99739 0.02092 0.0
C247 C 0.27181 0.98327 0.96584 0.0
C248 C 0.27472 0.01772 0.03139 0.0
C249 C 0.29375 0.02304 0.9913 0.0
C250 C 0.30248 0.00814 0.93976 0.0
C251 C 0.19389 1.00048 0.17459 0.0
C252 C 0.17489 0.98723 0.17821 0.0
C253 C 0.19335 0.02159 0.20599 0.0
C254 C 0.1747 0.02857 0.24507 0.0
C255 C 0.15622 0.01459 0.25333 0.0
C256 C 0.15632 0.99417 0.21693 0.0
C257 C 0.29071 0.98857 0.92575 0.0
H258 H 0.28051 0.89585 0.20152 0.0
H259 H 0.25726 0.92047 0.12903 0.0
H260 H 0.24751 0.96194 0.31713 0.0
H261 H 0.27151 0.93837 0.3886 0.0
H262 H 0.21222 0.96477 0.23339 0.0
H263 H 0.27027 0.96154 0.10114 0.0
H264 H 0.22385 0.01452 0.06886 0.0
H265 H 0.26402 0.96739 0.95704 0.0
H266 H 0.26927 0.02879 0.07403 0.0
H267 H 0.30212 0.03844 1.00275 0.0
H268 H 0.17493 0.97082 0.15478 0.0
H269 H 0.20784 0.03205 0.20456 0.0
H270 H 0.29688 0.97655 0.88721 0.0
H271 H 0.14264 0.98278 0.22228 0.0
H272 H 0.1751 0.04457 0.27123 0.0
C273 C 0.47247 0.29471 0.88808 0.0
C274 C 0.49106 0.30771 0.90499 0.0
C275 C 0.46845 0.2748 0.9254 0.0
C276 C 0.48313 0.2672 0.97933 0.0
C277 C 0.50255 0.27929 0.99205 0.0
C278 C 0.50645 0.29929 0.95547 0.0
C279 C 0.47504 0.25196 0.03721 0.0
C280 C 0.48011 0.22916 0.04072 0.0
C281 C 0.47304 0.21652 0.1016 0.0
C282 C 0.4618 0.22694 0.15882 0.0
C283 C 0.45772 0.2496 0.15721 0.0
C284 C 0.4637 0.26176 0.09521 0.0
C285 C 0.4521 0.2616 0.22492 0.0
C286 C 0.43857 0.28036 0.2218 0.0
C287 C 0.4649 0.25785 0.28779 0.0
C288 C 0.46721 0.27442 0.33991 0.0
C289 C 0.45679 0.29485 0.3294 0.0
C290 C 0.4786 0.19291 0.11314 0.0
C291 C 0.46133 0.17749 0.1173 0.0
C292 C 0.49918 0.18726 0.14317 0.0
C293 C 0.50184 0.16743 0.18215 0.0
C294 C 0.48389 0.15297 0.19233 0.0
C295 C 0.46395 0.15774 0.15618 0.0
C296 C 0.44088 0.29693 0.27399 0.0
H297 H 0.46017 0.30071 0.85001 0.0
H298 H 0.453 0.26624 0.9162 0.0
H299 H 0.51383 0.2742 0.03478 0.0
H300 H 0.52105 0.30871 0.96935 0.0
H301 H 0.48958 0.22149 0.99762 0.0
H302 H 0.4612 0.2795 0.09442 0.0
H303 H 0.45741 0.21756 0.20719 0.0
H304 H 0.42817 0.28338 0.17469 0.0
H305 H 0.47544 0.24348 0.29206 0.0
H306 H 0.47948 0.27231 0.3824 0.0
H307 H 0.44517 0.18161 0.09593 0.0
H308 H 0.51259 0.1991 0.14253 0.0
H309 H 0.43229 0.31241 0.26579 0.0
H310 H 0.44989 0.14682 0.16166 0.0
H311 H 0.51741 0.16438 0.20938 0.0
Ho312 Ho 0.0216 1.00262 0.76956 0.0
Ho313 Ho 0.99146 0.01686 0.65635 0.0
C314 C 1.00326 0.96642 0.65042 0.0
C315 C 0.04301 0.98256 0.87207 0.0
C316 C 0.05783 0.9635 0.87183 0.0
C317 C 0.06601 0.95513 0.93766 0.0
C318 C 0.07899 0.9361 0.93798 0.0
C319 C 0.08394 0.92514 0.87231 0.0
C320 C 0.07631 0.93412 0.80612 0.0
C321 C 0.06334 0.95316 0.80591 0.0
C322 C 0.04251 0.01812 0.64885 0.0
C323 C 0.00947 0.05253 0.77342 0.0
C324 C 0.97172 0.04043 0.55967 0.0
C325 C 0.97137 0.06479 0.55754 0.0
C326 C 0.98442 0.07581 0.50585 0.0
C327 C 0.99043 0.09776 0.51684 0.0
C328 C 0.9832 0.10914 0.57907 0.0
C329 C 0.96816 0.09897 0.6264 0.0
C330 C 0.96236 0.07689 0.61598 0.0
C331 C 0.97083 1.00048 0.77576 0.0
O332 O 0.01241 0.97001 0.71514 0.0
O333 O 0.99539 0.98292 0.61121 0.0
O334 O 0.05043 1.00005 0.83841 0.0
O335 O 0.02243 0.97829 0.85602 0.0
O336 O 0.04871 0.02198 0.7151 0.0
O337 O 0.02585 0.00569 0.64972 0.0
O338 O 0.0045 0.04903 0.70421 0.0
O339 O 0.01307 0.03557 0.81685 0.0
O340 O 0.96131 0.03113 0.614 0.0
O341 O 0.99113 0.03164 0.54885 0.0
O342 O 0.9653 0.99603 0.70905 0.0
O343 O 0.9871 0.01352 0.77617 0.0
H344 H 0.06188 0.96297 0.98894 0.0
H345 H 0.08426 0.92942 0.99 0.0
H346 H 0.07996 0.92617 0.75467 0.0
H347 H 0.05723 0.95956 0.75447 0.0
H348 H 0.99149 0.06694 0.46023 0.0
H349 H 1.00165 0.10551 0.47861 0.0
H350 H 0.96227 0.10752 0.67444 0.0
H351 H 0.9522 0.06894 0.65689 0.0
Ho352 Ho 0.50682 0.02732 0.74048 0.0
Ho353 Ho 0.49633 0.99508 0.63009 0.0
C354 C 0.54602 0.00972 0.63484 0.0
C355 C 0.52266 0.05137 0.84486 0.0
C356 C 0.54193 0.06569 0.85635 0.0
C357 C 0.56233 0.06084 0.82422 0.0
C358 C 0.58075 0.07393 0.83909 0.0
C359 C 0.57908 0.09222 0.88602 0.0
C360 C 0.55834 0.09753 0.91553 0.0
C361 C 0.53995 0.08433 0.90092 0.0
C362 C 0.49348 0.04562 0.61199 0.0
C363 C 0.45723 0.01232 0.73722 0.0
C364 C 0.47981 0.97122 0.52667 0.0
C365 C 0.46001 0.95737 0.5183 0.0
C366 C 0.43913 0.96508 0.53902 0.0
C367 C 0.4205 0.95186 0.52957 0.0
C368 C 0.42236 0.93061 0.49935 0.0
C369 C 0.4434 0.92272 0.48048 0.0
C370 C 0.46205 0.93601 0.48984 0.0
C371 C 0.5098 0.97649 0.75768 0.0
O372 O 0.54099 0.01773 0.69984 0.0
O373 O 0.5303 1.00291 0.59058 0.0
O374 O 0.50814 0.05849 0.79788 0.0
O375 O 0.52649 0.03023 0.83844 0.0
O376 O 0.48721 0.05214 0.67574 0.0
O377 O 0.50669 0.02971 0.61904 0.0
O378 O 0.46216 0.00441 0.67197 0.0
O379 O 0.47303 0.01923 0.78094 0.0
O380 O 0.49452 0.96394 0.57275 0.0
O381 O 0.47675 0.99253 0.53183 0.0
O382 O 0.51591 0.97017 0.69353 0.0
O383 O 0.49662 0.99253 0.75147 0.0
H384 H 0.56415 0.04664 0.78912 0.0
H385 H 0.59648 0.06911 0.8162 0.0
H386 H 0.55639 0.11166 0.95101 0.0
H387 H 0.52424 0.08847 0.92548 0.0
H388 H 0.43711 0.98148 0.56128 0.0
H389 H 0.40453 0.95866 0.54347 0.0
H390 H 0.44543 0.90637 0.45769 0.0
H391 H 0.47806 0.92967 0.47418 0.0
Ho392 Ho 0.48876 0.51927 0.75978 0.0
Ho393 Ho 0.51804 0.50549 0.64206 0.0
C394 C 0.50844 0.55795 0.66391 0.0
C395 C 0.46595 0.52728 0.87581 0.0
C396 C 0.45148 0.54554 0.89716 0.0
C397 C 0.45372 0.56633 0.86425 0.0
C398 C 0.44015 0.58376 0.8853 0.0
C399 C 0.42389 0.58068 0.93917 0.0
C400 C 0.42128 0.55957 0.97032 0.0
C401 C 0.43501 0.54216 0.9495 0.0
C402 C 0.46887 0.51786 0.62735 0.0
C403 C 0.49865 0.467 0.73724 0.0
C404 C 0.53917 0.49497 0.52556 0.0
C405 C 0.54516 0.47273 0.50137 0.0
C406 C 0.54016 0.46634 0.42994 0.0
C407 C 0.53864 0.444 0.41247 0.0
C408 C 0.54216 0.42777 0.46638 0.0
C409 C 0.54957 0.43428 0.53567 0.0
C410 C 0.55092 0.4566 0.55322 0.0
C411 C 0.53785 0.50613 0.77436 0.0
O412 O 0.49978 0.5533 0.72818 0.0
O413 O 0.51476 0.54206 0.61924 0.0
O414 O 0.45871 0.51522 0.82195 0.0
O415 O 0.48692 0.53204 0.86965 0.0
O416 O 0.46576 0.53322 0.67515 0.0
O417 O 0.48204 0.50361 0.65256 0.0
O418 O 0.50496 0.4719 0.67034 0.0
O419 O 0.49469 0.48294 0.78482 0.0
O420 O 0.549 0.50208 0.58446 0.0
O421 O 0.51792 0.49862 0.52645 0.0
O422 O 0.54062 0.49091 0.726 0.0
O423 O 0.52495 0.52081 0.75009 0.0
H424 H 0.4662 0.56918 0.82304 0.0
H425 H 0.44293 0.59982 0.86098 0.0
H426 H 0.40875 0.55654 0.0112 0.0
H427 H 0.43286 0.52609 0.9746 0.0
H428 H 0.53545 0.47854 0.3895 0.0
H429 H 0.53273 0.43961 0.35865 0.0
H430 H 0.55279 0.42216 0.57788 0.0
H431 H 0.55472 0.4611 0.60901 0.0
Ho432 Ho 0.99643 0.49828 0.76025 0.0
Ho433 Ho 0.01524 0.52412 0.62246 0.0
C434 C 0.96225 0.5185 0.64296 0.0
C435 C 0.98341 0.48059 0.88062 0.0
C436 C 0.96514 0.46542 0.89666 0.0
C437 C 0.95495 0.45369 0.83991 0.0
C438 C 0.93644 0.44065 0.8537 0.0
C439 C 0.92767 0.43923 0.92447 0.0
C440 C 0.93841 0.4504 0.98173 0.0
C441 C 0.95701 0.46343 0.96782 0.0
C442 C 1.00135 0.47526 0.63497 0.0
C443 C 0.04885 0.50996 0.75153 0.0
C444 C 0.03438 0.52801 0.49901 0.0
C445 C 0.05536 0.51725 0.47898 0.0
C446 C 0.05589 0.50124 0.42373 0.0
C447 C 0.07451 0.48785 0.41483 0.0
C448 C 0.09287 0.49021 0.46132 0.0
C449 C 0.09244 0.50668 0.51513 0.0
C450 C 0.07404 0.52011 0.52345 0.0
C451 C 0.00403 0.55276 0.73076 0.0
O452 O 0.96527 0.51216 0.71169 0.0
O453 O 0.97886 0.52185 0.59691 0.0
O454 O 0.99926 0.47235 0.8405 0.0
O455 O 0.97753 0.50048 0.85999 0.0
O456 O 0.98535 0.47221 0.68056 0.0
O457 O 0.01437 0.48965 0.65974 0.0
O458 O 0.04658 0.51583 0.68231 0.0
O459 O 0.03178 0.50472 0.79341 0.0
O460 O 0.03569 0.54326 0.54961 0.0
O461 O 0.01775 0.51447 0.50909 0.0
O462 O 0.01111 0.55898 0.66693 0.0
O463 O 1.00283 0.53207 0.7302 0.0
H464 H 0.96098 0.455 0.78455 0.0
H465 H 0.92869 0.43209 0.8086 0.0
H466 H 0.93188 0.44991 0.03668 0.0
H467 H 0.96464 0.47245 0.01219 0.0
H468 H 0.04159 0.49849 0.38941 0.0
H469 H 0.07441 0.47551 0.37217 0.0
H470 H 0.10602 0.50876 0.55294 0.0
H471 H 0.07418 0.53206 0.56729 0.0
H472 H 0.15913 0.03531 0.38643 0.0
H473 H 0.03615 0.00425 0.50774 0.0
H474 H 0.11163 0.00566 0.24072 0.0
H475 H 0.0824 0.03897 0.6448 0.0
H476 H 0.06247 0.00678 0.40635 0.0
H477 H 0.13025 0.03945 0.47777 0.0
C478 C 0.14256 0.03003 0.37285 0.0
C479 C 0.13799 0.01996 0.30544 0.0
C480 C 0.06679 0.01401 0.45842 0.0
C481 C 0.10472 0.02417 0.41145 0.0
C482 C 0.05176 0.01258 0.51627 0.0
C483 C 0.05718 0.02124 0.58495 0.0
C484 C 0.08744 0.02412 0.46942 0.0
C485 C 0.0776 0.03192 0.59292 0.0
C486 C 0.12606 0.03222 0.42557 0.0
C487 C 0.11614 0.01313 0.29221 0.0
N488 N 0.09202 0.03289 0.53617 0.0
N489 N 0.10043 0.01516 0.34484 0.0
H490 H 0.51769 0.12323 0.21928 0.0
H491 H 0.46323 0.07787 0.58732 0.0
H492 H 0.45274 0.14152 0.29343 0.0
H493 H 0.518 0.04483 0.48524 0.0
H494 H 0.46034 0.10232 0.48151 0.0
H495 H 0.5195 0.09547 0.31732 0.0
C496 C 0.50377 0.12134 0.25572 0.0
C497 C 0.48497 0.13471 0.24749 0.0
C498 C 0.47292 0.08966 0.48178 0.0
C499 C 0.48705 0.10312 0.36036 0.0
C500 C 0.47459 0.07569 0.54231 0.0
C501 C 0.49087 0.05929 0.54515 0.0
C502 C 0.48788 0.08754 0.42366 0.0
C503 C 0.50515 0.05722 0.48516 0.0
C504 C 0.50479 0.10543 0.31151 0.0
C505 C 0.46743 0.13142 0.29651 0.0
N506 N 0.50347 0.07132 0.42715 0.0
N507 N 0.46898 0.11617 0.35084 0.0
H508 H 0.38365 0.46329 0.29413 0.0
H509 H 0.4416 0.54829 0.56569 0.0
H510 H 0.3723 0.53362 0.28586 0.0
H511 H 0.46373 0.48115 0.54034 0.0
H512 H 0.41612 0.54315 0.46353 0.0
H513 H 0.41301 0.46936 0.38284 0.0
C514 C 0.38748 0.48008 0.30978 0.0
C515 C 0.37525 0.49796 0.28175 0.0
C516 C 0.42663 0.52955 0.47982 0.0
C517 C 0.40879 0.50492 0.3859 0.0
C518 C 0.44117 0.53247 0.53828 0.0
C519 C 0.45472 0.51508 0.56185 0.0
C520 C 0.42535 0.50898 0.44486 0.0
C521 C 0.45354 0.49498 0.52405 0.0
C522 C 0.40422 0.48349 0.36118 0.0
C523 C 0.38087 0.51923 0.30636 0.0
N524 N 0.43896 0.49241 0.46791 0.0
N525 N 0.39705 0.52207 0.35719 0.0
H526 H 0.05143 0.38767 0.30448 0.0
H527 H 0.96965 0.45309 0.56029 0.0
H528 H 0.98197 0.39404 0.25558 0.0
H529 H 0.03896 0.4689 0.55307 0.0
H530 H 0.97408 0.43024 0.45144 0.0
H531 H 0.04778 0.4166 0.39591 0.0
C532 C 0.03546 0.39532 0.31151 0.0
C533 C 0.01694 0.38799 0.27167 0.0
C534 C 0.98831 0.43884 0.47311 0.0
C535 C 0.01261 0.42088 0.37936 0.0
C536 C 0.98581 0.45183 0.53545 0.0
C537 C 0.00398 0.46282 0.56591 0.0
C538 C 0.00926 0.43637 0.44156 0.0
C539 C 0.02452 0.46067 0.53129 0.0
C540 C 0.03341 0.4118 0.36454 0.0
C541 C 0.99667 0.39852 0.28558 0.0
N542 N 0.02668 0.44745 0.47149 0.0
N543 N 0.99502 0.41412 0.33872 0.0
H544 H 0.85355 0.97191 0.02503 0.0
H545 H 0.97176 0.02043 0.91035 0.0
H546 H 0.88569 0.02524 0.1392 0.0
H547 H 0.93446 0.97412 0.78119 0.0
H548 H 0.94325 0.01842 0.00523 0.0
H549 H 0.88581 0.96854 0.94617 0.0
C550 C 0.86745 0.98283 0.03393 0.0
C551 C 0.8667 0.99906 0.08853 0.0
C552 C 0.94142 0.00854 0.95643 0.0
C553 C 0.90391 0.99523 0.9981 0.0
C554 C 0.95772 0.00962 0.90242 0.0
C555 C 0.95536 0.99756 0.83756 0.0
C556 C 0.92269 0.9952 0.94563 0.0
C557 C 0.93685 0.98383 0.8301 0.0
C558 C 0.88591 0.98086 0.98888 0.0
C559 C 0.88548 0.01241 0.09822 0.0
N560 N 0.9212 0.98312 0.88316 0.0
N561 N 0.90319 0.01034 0.05306 0.0
H562 H 0.52387 0.85852 0.01754 0.0
H563 H 0.48869 0.98019 0.89033 0.0
H564 H 0.48405 0.90173 0.15012 0.0
H565 H 0.53347 0.93851 0.77092 0.0
H566 H 0.48824 0.9528 0.98953 0.0
H567 H 0.52932 0.88862 0.93091 0.0
C568 C 0.51653 0.8744 0.02931 0.0
C569 C 0.50335 0.87737 0.09157 0.0
C570 C 0.49832 0.94975 0.94189 0.0
C571 C 0.50916 0.91206 0.99072 0.0
C572 C 0.49861 0.96541 0.88535 0.0
C573 C 0.51102 0.96156 0.82201 0.0
C574 C 0.51047 0.93006 0.93493 0.0
C575 C 0.52355 0.94211 0.8185 0.0
C576 C 0.51951 0.89161 0.97922 0.0
C577 C 0.494 0.89839 0.10244 0.0
N578 N 0.52282 0.92708 0.87369 0.0
N579 N 0.49693 0.91481 0.0524 0.0
H580 H 0.63032 0.47395 0.11423 0.0
H581 H 0.54792 0.54287 0.85762 0.0
H582 H 0.6325 0.54508 0.10237 0.0
H583 H 0.55991 0.47296 0.84031 0.0
H584 H 0.57452 0.54452 0.95965 0.0
H585 H 0.59998 0.4739 0.0276 0.0
C586 C 0.62421 0.48965 0.09443 0.0
C587 C 0.63406 0.50957 0.11632 0.0
C588 C 0.57116 0.52883 0.93368 0.0
C589 C 0.59925 0.50955 0.0147 0.0
C590 C 0.55594 0.52788 0.87586 0.0
C591 C 0.55186 0.50777 0.84035 0.0
C592 C 0.58205 0.50948 0.95645 0.0
C593 C 0.56271 0.48884 0.86583 0.0
C594 C 0.60695 0.48957 0.04412 0.0
C595 C 0.62559 0.5293 0.08678 0.0
N596 N 0.57725 0.49017 0.92203 0.0
N597 N 0.60871 0.52881 0.0374 0.0
H598 H 0.00389 0.61867 0.15051 0.0
H599 H 0.99703 0.59677 0.7222 0.0
H600 H 0.98627 0.66833 0.99176 0.0
H601 H 1.00006 0.54344 0.87783 0.0
H602 H 0.99228 0.62284 0.82208 0.0
H603 H 1.00178 0.59057 0.05442 0.0
C604 C 0.99935 0.62367 0.09575 0.0
C605 C 0.9953 0.64602 0.07949 0.0
C606 C 0.99375 0.60544 0.83476 0.0
C607 C 0.993 0.61387 0.96902 0.0
C608 C 0.99648 0.59053 0.77761 0.0
C609 C 0.99894 0.56792 0.79177 0.0
C610 C 0.99384 0.59784 0.90725 0.0
C611 C 0.99811 0.56075 0.86464 0.0
C612 C 0.99809 0.60758 0.04096 0.0
C613 C 0.9893 0.65138 0.0075 0.0
N614 N 0.99589 0.5757 0.91984 0.0
N615 N 0.98857 0.63552 0.95511 0.0
H616 H 0.07026 0.21427 0.5271 0.0
H617 H 0.96207 0.14745 0.61712 0.0
H618 H 0.00418 0.24063 0.51755 0.0
H619 H 0.02668 0.1195 0.585 0.0
H620 H 0.979 0.18411 0.62843 0.0
H621 H 0.05632 0.18308 0.59818 0.0
C622 C 0.05296 0.21384 0.54166 0.0
C623 C 0.03825 0.22964 0.51387 0.0
C624 C 0.98949 0.16987 0.62035 0.0
C625 C 0.0222 0.19401 0.59423 0.0
C626 C 0.97983 0.14904 0.61367 0.0
C627 C 0.99299 0.13074 0.59717 0.0
C628 C 0.01239 0.17222 0.61047 0.0
C629 C 0.01594 0.13345 0.59475 0.0
C630 C 0.045 0.19605 0.58227 0.0
C631 C 0.01613 0.22867 0.53654 0.0
N632 N 0.02489 0.15387 0.60003 0.0
N633 N 0.00865 0.2108 0.57368 0.0
H634 H 0.28537 0.90732 0.44773 0.0
H635 H 0.41427 0.90605 0.37695 0.0
H636 H 0.31673 0.90076 0.23724 0.0
H637 H 0.38431 0.92613 0.57982 0.0
H638 H 0.37885 0.89148 0.33696 0.0
H639 H 0.32127 0.9019 0.50603 0.0
C640 C 0.29962 0.90429 0.41368 0.0
C641 C 0.29799 0.90527 0.33717 0.0
C642 C 0.38009 0.89871 0.39081 0.0
C643 C 0.33901 0.89874 0.40373 0.0
C644 C 0.40039 0.90693 0.41398 0.0
C645 C 0.40218 0.91783 0.48124 0.0
C646 C 0.36138 0.90159 0.43481 0.0
C647 C 0.38352 0.91848 0.52657 0.0
C648 C 0.3201 0.90111 0.44713 0.0
C649 C 0.31695 0.90037 0.29624 0.0
N650 N 0.36378 0.91087 0.50198 0.0
N651 N 0.33669 0.89776 0.32998 0.0
H652 H 0.46938 0.30354 0.47142 0.0
H653 H 0.5459 0.40286 0.34221 0.0
H654 H 0.46995 0.33062 0.25334 0.0
H655 H 0.51996 0.40084 0.56165 0.0
H656 H 0.5252 0.36932 0.3143 0.0
H657 H 0.49355 0.33404 0.51106 0.0
C658 C 0.47422 0.3161 0.43247 0.0
C659 C 0.46736 0.31482 0.3594 0.0
C660 C 0.52432 0.37614 0.36883 0.0
C661 C 0.49552 0.34869 0.40308 0.0
C662 C 0.53615 0.3952 0.3848 0.0
C663 C 0.53435 0.40492 0.45386 0.0
C664 C 0.51077 0.36664 0.4224 0.0
C665 C 0.52189 0.39394 0.50763 0.0
C666 C 0.48809 0.33328 0.45483 0.0
C667 C 0.47438 0.33125 0.31056 0.0
N668 N 0.51033 0.37545 0.49052 0.0
N669 N 0.48824 0.34734 0.33312 0.0
H670 H 0.22532 0.44605 0.44087 0.0
H671 H 0.09436 0.44571 0.42881 0.0
H672 H 0.18841 0.39389 0.33522 0.0
H673 H 0.13622 0.50137 0.47964 0.0
H674 H 0.12739 0.42245 0.41937 0.0
H675 H 0.19159 0.46023 0.4903 0.0
C676 C 0.21036 0.437 0.42917 0.0
C677 C 0.21 0.41907 0.38039 0.0
C678 C 0.12918 0.43971 0.43343 0.0
C679 C 0.17066 0.43638 0.4353 0.0
C680 C 0.11041 0.45307 0.43795 0.0
C681 C 0.11246 0.47561 0.45491 0.0
C682 C 0.15004 0.44895 0.44661 0.0
C683 C 0.13367 0.48408 0.46763 0.0
C684 C 0.19086 0.44552 0.45691 0.0
C685 C 0.18959 0.40843 0.3691 0.0
N686 N 0.15153 0.47077 0.46311 0.0
N687 N 0.17062 0.41762 0.39453 0.0
H688 H 0.07797 0.79046 0.92416 0.0
H689 H 0.11889 0.9115 0.95705 0.0
H690 H 0.13248 0.80903 0.06372 0.0
H691 H 0.07331 0.88855 0.7927 0.0
H692 H 0.13032 0.87335 0.97866 0.0
H693 H 0.08314 0.82389 0.85512 0.0
C694 C 0.09151 0.80112 0.93956 0.0
C695 C 0.10427 0.797 1.00232 0.0
C696 C 0.11821 0.87671 0.93659 0.0
C697 C 0.10951 0.83636 0.92418 0.0
C698 C 0.11158 0.89848 0.92458 0.0
C699 C 0.09472 0.90317 0.87429 0.0
C700 C 0.10769 0.85953 0.8987 0.0
C701 C 0.08625 0.88575 0.83239 0.0
C702 C 0.09428 0.82054 0.90001 0.0
C703 C 0.12146 0.81188 0.01821 0.0
N704 N 0.09249 0.86469 0.84661 0.0
N705 N 0.12314 0.83122 0.98085 0.0
H706 H 0.68599 0.11967 0.16245 0.0
H707 H 0.61551 0.10362 0.8043 0.0
H708 H 0.71468 0.11426 0.94753 0.0
H709 H 0.58894 0.10782 0.02231 0.0
H710 H 0.65105 0.11662 0.85075 0.0
H711 H 0.65027 0.12593 0.10715 0.0
C712 C 0.68503 0.12044 0.10353 0.0
C713 C 0.70347 0.11579 0.05977 0.0
C714 C 0.6373 0.11511 0.88808 0.0
C715 C 0.66203 0.12209 0.9959 0.0
C716 C 0.61703 0.10756 0.8617 0.0
C717 C 0.59929 0.10415 0.90969 0.0
C718 C 0.63986 0.11918 0.96303 0.0
C719 C 0.60207 0.11012 0.98311 0.0
C720 C 0.66441 0.12378 0.07186 0.0
C721 C 0.70083 0.11695 0.98361 0.0
N722 N 0.62205 0.11699 0.00764 0.0
N723 N 0.6804 0.11944 0.95407 0.0
H724 H 0.39098 0.71563 0.99248 0.0
H725 H 0.41168 0.58951 0.0801 0.0
H726 H 0.39731 0.68793 0.20887 0.0
H727 H 0.40713 0.61584 0.86143 0.0
H728 H 0.39674 0.62385 0.12708 0.0
H729 H 0.38736 0.67827 0.9436 0.0
C730 C 0.39113 0.70179 0.02994 0.0
C731 C 0.39502 0.70502 0.10478 0.0
C732 C 0.39867 0.62204 0.06867 0.0
C733 C 0.39089 0.66225 0.0492 0.0
C734 C 0.40709 0.6023 0.04163 0.0
C735 C 0.41116 0.59989 0.96668 0.0
C736 C 0.39454 0.63967 0.02066 0.0
C737 C 0.40495 0.61721 0.91985 0.0
C738 C 0.38902 0.68045 1.00198 0.0
C739 C 0.39444 0.68644 0.15082 0.0
N740 N 0.39734 0.63652 0.9477 0.0
N741 N 0.39289 0.66589 0.12213 0.0
H742 H 0.81326 0.3885 0.14319 0.0
H743 H 0.8909 0.44069 0.83827 0.0
H744 H 0.79355 0.43743 0.98371 0.0
H745 H 0.91525 0.41281 0.03984 0.0
H746 H 0.85405 0.42755 0.86858 0.0
H747 H 0.84909 0.38593 0.08261 0.0
C748 C 0.81616 0.39843 0.09498 0.0
C749 C 0.80038 0.41383 0.07061 0.0
C750 C 0.86754 0.42395 0.90553 0.0
C751 C 0.84113 0.41033 0.99994 0.0
C752 C 0.88864 0.43133 0.88813 0.0
C753 C 0.90617 0.42814 0.93718 0.0
C754 C 0.86385 0.41336 0.97255 0.0
C755 C 0.9021 0.41607 1.00129 0.0
C756 C 0.8366 0.39681 0.06026 0.0
C757 C 0.80492 0.42539 0.00562 0.0
N758 N 0.88128 0.40936 0.01767 0.0
N759 N 0.82495 0.42365 0.97342 0.0
H760 H 0.01805 0.1958 0.83265 0.0
H761 H 0.00969 0.06566 0.9164 0.0
H762 H 0.00865 0.16775 0.04698 0.0
H763 H 0.01169 0.09178 0.69756 0.0
H764 H 0.01073 0.10325 0.96401 0.0
H765 H 0.01701 0.15836 0.7809 0.0
C766 C 0.01578 0.18184 0.86889 0.0
C767 C 0.01325 0.18511 0.94446 0.0
C768 C 0.01088 0.10086 0.90548 0.0
C769 C 0.01216 0.14211 0.88548 0.0
C770 C 0.01036 0.07931 0.87821 0.0
C771 C 0.01043 0.07548 0.8027 0.0
C772 C 0.01164 0.11892 0.85717 0.0
C773 C 0.01129 0.09395 0.7561 0.0
C774 C 0.01511 0.16046 0.83922 0.0
C775 C 0.01026 0.16627 0.98839 0.0
N776 N 0.01188 0.11483 0.78396 0.0
N777 N 0.00987 0.14574 0.95842 0.0
H778 H 0.33967 0.02592 1.0027 0.0
H779 H 0.4195 0.99881 0.66542 0.0
H780 H 0.31642 0.99812 0.79999 0.0
H781 H 0.44163 0.02712 0.86859 0.0
H782 H 0.38154 0.99955 0.71114 0.0
H783 H 0.37668 0.0283 0.9513 0.0
C784 C 0.34219 0.02063 0.94695 0.0
C785 C 0.3247 0.01177 0.9059 0.0
C786 C 0.39471 0.00565 0.74563 0.0
C787 C 0.36753 0.014 0.84686 0.0
C788 C 0.41644 0.00519 0.71954 0.0
C789 C 0.43393 0.01282 0.76315 0.0
C790 C 0.39034 0.01382 0.81595 0.0
C791 C 0.4288 0.02099 0.83287 0.0
C792 C 0.36348 0.02179 0.91779 0.0
C793 C 0.32934 0.00478 0.8343 0.0
N794 N 0.40758 0.02123 0.85698 0.0
N795 N 0.35026 0.00595 0.8073 0.0
H796 H 0.48425 0.32331 0.76455 0.0
H797 H 0.49509 0.45064 0.87646 0.0
H798 H 0.50215 0.34511 0.9805 0.0
H799 H 0.4994 0.42936 0.65243 0.0
H800 H 0.49386 0.41202 0.91514 0.0
H801 H 0.48622 0.36182 0.72192 0.0
C802 C 0.48865 0.33614 0.80296 0.0
C803 C 0.4932 0.33083 0.87623 0.0
C804 C 0.49507 0.41576 0.85748 0.0
C805 C 0.49515 0.37505 0.82796 0.0
C806 C 0.49567 0.43788 0.83522 0.0
C807 C 0.49731 0.44341 0.76092 0.0
C808 C 0.49582 0.39882 0.80523 0.0
C809 C 0.49813 0.42597 0.71029 0.0
C810 C 0.48983 0.35812 0.77852 0.0
C811 C 0.49884 0.34825 0.92336 0.0
N812 N 0.49725 0.40452 0.73328 0.0
N813 N 0.49948 0.36947 0.89865 0.0
H814 H 0.1884 0.52755 0.86124 0.0
H815 H 0.06246 0.48774 0.87426 0.0
H816 H 0.16756 0.46712 0.96482 0.0
H817 H 0.08711 0.529 0.7003 0.0
H818 H 0.10003 0.48456 0.92229 0.0
H819 H 0.15048 0.53281 0.81531 0.0
C820 C 0.17584 0.51548 0.87455 0.0
C821 C 0.18117 0.49679 0.91638 0.0
C822 C 0.0972 0.49435 0.87368 0.0
C823 C 0.13783 0.50283 0.86521 0.0
C824 C 0.07572 0.49627 0.84635 0.0
C825 C 0.07153 0.5086 0.78285 0.0
C826 C 0.11471 0.50514 0.83821 0.0
C827 C 0.08951 0.51919 0.74906 0.0
C828 C 0.15427 0.51842 0.84813 0.0
C829 C 0.16425 0.48163 0.93204 0.0
N830 N 0.11026 0.51731 0.77727 0.0
N831 N 0.1434 0.48504 0.90686 0.0
H832 H 0.0174 0.82505 0.57812 0.0
H833 H 0.98628 0.95266 0.51902 0.0
H834 H 0.9903 0.85108 0.37781 0.0
H835 H 0.01822 0.92781 0.7131 0.0
H836 H 0.98552 0.91522 0.46974 0.0
H837 H 0.01557 0.86196 0.63143 0.0
C838 C 0.01099 0.83846 0.54523 0.0
C839 C 0.00411 0.83477 0.4729 0.0
C840 C 0.99265 0.91792 0.52319 0.0
C841 C 1.00185 0.87734 0.53432 0.0
C842 C 0.9931 0.93936 0.5515 0.0
C843 C 1.00235 0.94354 0.6205 0.0
C844 C 1.00149 0.90034 0.56395 0.0
C845 C 0.01091 0.92548 0.65974 0.0
C846 C 0.00991 0.85958 0.57594 0.0
C847 C 0.99559 0.8529 0.43389 0.0
N848 N 0.01029 0.90475 0.63094 0.0
N849 N 0.99482 0.87332 0.46487 0.0
H850 H 0.68851 0.0235 0.59166 0.0
H851 H 0.56183 0.99616 0.50235 0.0
H852 H 0.6657 0.9972 0.38628 0.0
H853 H 0.5837 0.0213 0.71038 0.0
H854 H 0.60005 0.99527 0.46122 0.0
H855 H 0.65072 0.02152 0.63834 0.0
C856 C 0.67563 0.01719 0.55643 0.0
C857 C 0.68044 0.01054 0.48469 0.0
C858 C 0.59654 1.00097 0.51594 0.0
C859 C 0.63698 0.00824 0.53805 0.0
C860 C 0.57464 1.00151 0.53957 0.0
C861 C 0.56939 0.00898 0.60997 0.0
C862 C 0.61352 0.00796 0.56282 0.0
C863 C 0.58686 0.01562 0.65551 0.0
C864 C 0.65403 0.01602 0.58325 0.0
C865 C 0.66299 1.00225 0.44215 0.0
N866 N 0.60809 0.01501 0.63112 0.0
N867 N 0.64211 1.00147 0.46926 0.0
H868 H 0.51902 0.67524 0.39455 0.0
H869 H 0.49639 0.59583 0.73712 0.0
H870 H 0.49731 0.69928 0.60407 0.0
H871 H 0.52396 0.57365 0.53306 0.0
H872 H 0.4975 0.63387 0.69135 0.0
H873 H 0.52235 0.63831 0.44647 0.0
C874 C 0.51529 0.67293 0.45181 0.0
C875 C 0.50782 0.69065 0.49464 0.0
C876 C 0.50343 0.62068 0.65678 0.0
C877 C 0.51109 0.64785 0.55443 0.0
C878 C 0.50281 0.59891 0.68292 0.0
C879 C 0.51006 0.58137 0.63899 0.0
C880 C 0.51126 0.62504 0.58595 0.0
C881 C 0.51816 0.58652 0.56909 0.0
C882 C 0.517 0.65168 0.48134 0.0
C883 C 0.5028 0.68622 0.56829 0.0
N884 N 0.51844 0.60777 0.54479 0.0
N885 N 0.50439 0.66532 0.59558 0.0
H886 H 0.81938 0.51953 0.59624 0.0
H887 H 0.94846 0.52941 0.50442 0.0
H888 H 0.84505 0.5293 0.37896 0.0
H889 H 0.9233 0.51402 0.71888 0.0
H890 H 0.91061 0.53247 0.45966 0.0
H891 H 0.85708 0.52059 0.64393 0.0
C892 C 0.83288 0.52201 0.55847 0.0
C893 C 0.82886 0.52424 0.48319 0.0
C894 C 0.91335 0.52851 0.51659 0.0
C895 C 0.87228 0.52555 0.53785 0.0
C896 C 0.93503 0.52677 0.54234 0.0
C897 C 0.93923 0.52138 0.6157 0.0
C898 C 0.89559 0.52487 0.56435 0.0
C899 C 0.92099 0.51817 0.66191 0.0
C900 C 0.85445 0.52266 0.58587 0.0
C901 C 0.84715 0.52777 0.4374 0.0
N902 N 0.90004 0.5199 0.63547 0.0
N903 N 0.86797 0.52818 0.46533 0.0
loop_
_geom_bond_atom_site_label_1
_geom_bond_atom_site_label_2
_geom_bond_distance
_geom_bond_site_symmetry_2
_ccdc_geom_bond_type
C0 C1 1.386 . S
C0 C2 1.397 . S
C0 H24 0.931 . S
C1 C0 1.386 . S
C1 C5 1.397 . S
C2 C0 1.397 . S
C2 C3 1.384 . S
C2 H25 0.930 . S
C3 C2 1.384 . S
C3 C4 1.377 . S
C3 C6 1.481 . S
C4 C3 1.377 . S
C4 C5 1.389 . S
C4 H26 0.929 . S
C5 C1 1.397 . S
C5 C4 1.389 . S
C5 H27 0.931 . S
C6 C3 1.481 . S
C6 C7 1.387 . S
C6 C11 1.390 . S
C7 C6 1.387 . S
C7 C8 1.401 . S
C7 H28 0.930 . S
C8 C7 1.401 . S
C8 C9 1.376 . S
C8 C17 1.511 . S
C9 C8 1.376 . S
C9 C10 1.392 . S
C9 H30 0.931 . S
C10 C9 1.392 . S
C10 C11 1.361 . S
C10 C12 1.500 . S
C11 C6 1.390 . S
C11 C10 1.361 . S
C11 H29 0.931 . S
C12 C10 1.500 . S
C12 C13 1.371 . S
C12 C14 1.365 . S
C13 C12 1.371 . S
C13 C23 1.386 . S
C13 H31 0.931 . S
C14 C12 1.365 . S
C14 C15 1.409 . S
C14 H32 0.929 . S
C15 C14 1.409 . S
C15 C16 1.380 . S
C15 H33 0.930 . S
C16 C15 1.380 . S
C16 C23 1.357 . S
C17 C8 1.511 . S
C17 C18 1.341 . S
C17 C19 1.371 . S
C18 C17 1.341 . S
C18 C22 1.394 . S
C18 H34 0.930 . S
C19 C17 1.371 . S
C19 C20 1.392 . S
C19 H35 0.931 . S
C20 C19 1.392 . S
C20 C21 1.331 . S
C20 H38 0.932 . S
C21 C20 1.331 . S
C21 C22 1.336 . S
C22 C18 1.394 . S
C22 C21 1.336 . S
C22 H37 0.929 . S
C23 C13 1.386 . S
C23 C16 1.357 . S
C23 H36 0.928 . S
H24 C0 0.931 . S
H25 C2 0.930 . S
H26 C4 0.929 . S
H27 C5 0.931 . S
H28 C7 0.930 . S
H29 C11 0.931 . S
H30 C9 0.931 . S
H31 C13 0.931 . S
H32 C14 0.929 . S
H33 C15 0.930 . S
H34 C18 0.930 . S
H35 C19 0.931 . S
H36 C23 0.928 . S
H37 C22 0.929 . S
H38 C20 0.932 . S
C39 C40 1.394 . S
C39 C41 1.397 . S
C39 H63 0.931 . S
C40 C39 1.394 . S
C40 C44 1.389 1_655 S
C41 C39 1.397 . S
C41 C42 1.389 . S
C41 H64 0.930 . S
C42 C41 1.389 . S
C42 C43 1.373 1_655 S
C42 C45 1.480 . S
C43 C42 1.373 1_455 S
C43 C44 1.389 . S
C43 H65 0.929 . S
C44 C40 1.389 1_455 S
C44 C43 1.389 . S
C44 H66 0.931 . S
C45 C42 1.480 . S
C45 C46 1.388 . S
C45 C50 1.390 . S
C46 C45 1.388 . S
C46 C47 1.402 . S
C46 H67 0.930 . S
C47 C46 1.402 . S
C47 C48 1.376 . S
C47 C56 1.513 . S
C48 C47 1.376 . S
C48 C49 1.392 . S
C48 H69 0.934 . S
C49 C48 1.392 . S
C49 C50 1.361 . S
C49 C51 1.499 1_655 S
C50 C45 1.390 . S
C50 C49 1.361 . S
C50 H68 0.931 . S
C51 C49 1.499 1_455 S
C51 C52 1.362 1_455 S
C51 C53 1.374 . S
C52 C51 1.362 1_655 S
C52 C62 1.386 . S
C52 H70 0.931 . S
C53 C51 1.374 . S
C53 C54 1.409 . S
C53 H71 0.929 . S
C54 C53 1.409 . S
C54 C55 1.379 . S
C54 H72 0.930 . S
C55 C54 1.379 . S
C55 C62 1.359 1_455 S
C56 C47 1.513 . S
C56 C57 1.341 . S
C56 C58 1.371 1_655 S
C57 C56 1.341 . S
C57 C61 1.394 . S
C57 H73 0.930 . S
C58 C56 1.371 1_455 S
C58 C59 1.392 . S
C58 H74 0.931 . S
C59 C58 1.392 . S
C59 C60 1.322 1_455 S
C59 H77 0.932 . S
C60 C59 1.322 1_655 S
C60 C61 1.345 . S
C61 C57 1.394 . S
C61 C60 1.345 . S
C61 H76 0.929 . S
C62 C52 1.386 . S
C62 C55 1.359 1_655 S
C62 H75 0.928 . S
H63 C39 0.931 . S
H64 C41 0.930 . S
H65 C43 0.929 . S
H66 C44 0.931 . S
H67 C46 0.930 . S
H68 C50 0.931 . S
H69 C48 0.934 . S
H70 C52 0.931 . S
H71 C53 0.929 . S
H72 C54 0.930 . S
H73 C57 0.930 . S
H74 C58 0.931 . S
H75 C62 0.928 . S
H76 C61 0.929 . S
H77 C59 0.932 . S
C78 C79 1.394 . S
C78 C80 1.397 . S
C78 H102 0.931 . S
C79 C78 1.394 . S
C79 C83 1.389 1_565 S
C80 C78 1.397 . S
C80 C81 1.389 . S
C80 H103 0.930 . S
C81 C80 1.389 . S
C81 C82 1.373 1_565 S
C81 C84 1.480 . S
C82 C81 1.373 1_545 S
C82 C83 1.389 . S
C82 H104 0.929 . S
C83 C79 1.389 1_545 S
C83 C82 1.389 . S
C83 H105 0.931 . S
C84 C81 1.480 . S
C84 C85 1.388 . S
C84 C89 1.390 . S
C85 C84 1.388 . S
C85 C86 1.402 . S
C85 H106 0.930 . S
C86 C85 1.402 . S
C86 C87 1.376 . S
C86 C95 1.513 . S
C87 C86 1.376 . S
C87 C88 1.392 . S
C87 H108 0.934 . S
C88 C87 1.392 . S
C88 C89 1.361 . S
C88 C90 1.499 1_565 S
C89 C84 1.390 . S
C89 C88 1.361 . S
C89 H107 0.931 . S
C90 C88 1.499 1_545 S
C90 C91 1.362 1_545 S
C90 C92 1.374 . S
C91 C90 1.362 1_565 S
C91 C101 1.386 . S
C91 H109 0.931 . S
C92 C90 1.374 . S
C92 C93 1.409 . S
C92 H110 0.929 . S
C93 C92 1.409 . S
C93 C94 1.379 . S
C93 H111 0.930 . S
C94 C93 1.379 . S
C94 C101 1.359 1_545 S
C95 C86 1.513 . S
C95 C96 1.341 . S
C95 C97 1.371 1_565 S
C96 C95 1.341 . S
C96 C100 1.394 . S
C96 H112 0.930 . S
C97 C95 1.371 1_545 S
C97 C98 1.392 . S
C97 H113 0.931 . S
C98 C97 1.392 . S
C98 C99 1.322 1_545 S
C98 H116 0.932 . S
C99 C98 1.322 1_565 S
C99 C100 1.345 . S
C100 C96 1.394 . S
C100 C99 1.345 . S
C100 H115 0.929 . S
C101 C91 1.386 . S
C101 C94 1.359 1_565 S
C101 H114 0.928 . S
H102 C78 0.931 . S
H103 C80 0.930 . S
H104 C82 0.929 . S
H105 C83 0.931 . S
H106 C85 0.930 . S
H107 C89 0.931 . S
H108 C87 0.934 . S
H109 C91 0.931 . S
H110 C92 0.929 . S
H111 C93 0.930 . S
H112 C96 0.930 . S
H113 C97 0.931 . S
H114 C101 0.928 . S
H115 C100 0.929 . S
H116 C98 0.932 . S
C117 C118 1.386 . S
C117 C119 1.397 . S
C117 H141 0.931 . S
C118 C117 1.386 . S
C118 C122 1.397 . S
C119 C117 1.397 . S
C119 C120 1.384 . S
C119 H142 0.930 . S
C120 C119 1.384 . S
C120 C121 1.377 . S
C120 C123 1.481 . S
C121 C120 1.377 . S
C121 C122 1.389 . S
C121 H143 0.929 . S
C122 C118 1.397 . S
C122 C121 1.389 . S
C122 H144 0.931 . S
C123 C120 1.481 . S
C123 C124 1.387 . S
C123 C128 1.390 . S
C124 C123 1.387 . S
C124 C125 1.401 . S
C124 H145 0.930 . S
C125 C124 1.401 . S
C125 C126 1.376 . S
C125 C134 1.511 . S
C126 C125 1.376 . S
C126 C127 1.392 . S
C126 H147 0.931 . S
C127 C126 1.392 . S
C127 C128 1.361 . S
C127 C129 1.500 . S
C128 C123 1.390 . S
C128 C127 1.361 . S
C128 H146 0.931 . S
C129 C127 1.500 . S
C129 C130 1.371 . S
C129 C131 1.365 . S
C130 C129 1.371 . S
C130 C140 1.386 . S
C130 H148 0.931 . S
C131 C129 1.365 . S
C131 C132 1.409 . S
C131 H149 0.929 . S
C132 C131 1.409 . S
C132 C133 1.380 . S
C132 H150 0.930 . S
C133 C132 1.380 . S
C133 C140 1.357 . S
C134 C125 1.511 . S
C134 C135 1.341 . S
C134 C136 1.371 . S
C135 C134 1.341 . S
C135 C139 1.394 . S
C135 H151 0.930 . S
C136 C134 1.371 . S
C136 C137 1.392 . S
C136 H152 0.931 . S
C137 C136 1.392 . S
C137 C138 1.331 . S
C137 H155 0.932 . S
C138 C137 1.331 . S
C138 C139 1.336 . S
C139 C135 1.394 . S
C139 C138 1.336 . S
C139 H154 0.929 . S
C140 C130 1.386 . S
C140 C133 1.357 . S
C140 H153 0.928 . S
H141 C117 0.931 . S
H142 C119 0.930 . S
H143 C121 0.929 . S
H144 C122 0.931 . S
H145 C124 0.930 . S
H146 C128 0.931 . S
H147 C126 0.931 . S
H148 C130 0.931 . S
H149 C131 0.929 . S
H150 C132 0.930 . S
H151 C135 0.930 . S
H152 C136 0.931 . S
H153 C140 0.928 . S
H154 C139 0.929 . S
H155 C137 0.932 . S
C156 C157 1.386 . S
C156 C158 1.397 . S
C156 H180 0.931 . S
C157 C156 1.386 . S
C157 C161 1.397 . S
C158 C156 1.397 . S
C158 C159 1.384 . S
C158 H181 0.930 . S
C159 C158 1.384 . S
C159 C160 1.377 . S
C159 C162 1.481 . S
C160 C159 1.377 . S
C160 C161 1.389 . S
C160 H182 0.929 . S
C161 C157 1.397 . S
C161 C160 1.389 . S
C161 H183 0.931 . S
C162 C159 1.481 . S
C162 C163 1.387 . S
C162 C167 1.390 . S
C163 C162 1.387 . S
C163 C164 1.401 . S
C163 H184 0.930 . S
C164 C163 1.401 . S
C164 C165 1.376 1_554 S
C164 C173 1.511 . S
C165 C164 1.376 1_556 S
C165 C166 1.392 . S
C165 H186 0.931 . S
C166 C165 1.392 . S
C166 C167 1.361 1_556 S
C166 C168 1.500 . S
C167 C162 1.390 . S
C167 C166 1.361 1_554 S
C167 H185 0.931 . S
C168 C166 1.500 . S
C168 C169 1.371 . S
C168 C170 1.365 . S
C169 C168 1.371 . S
C169 C179 1.386 . S
C169 H187 0.931 . S
C170 C168 1.365 . S
C170 C171 1.409 . S
C170 H188 0.929 . S
C171 C170 1.409 . S
C171 C172 1.380 . S
C171 H189 0.930 . S
C172 C171 1.380 . S
C172 C179 1.357 . S
C173 C164 1.511 . S
C173 C174 1.341 . S
C173 C175 1.371 . S
C174 C173 1.341 . S
C174 C178 1.394 . S
C174 H190 0.930 . S
C175 C173 1.371 . S
C175 C176 1.392 . S
C175 H191 0.931 1_554 S
C176 C175 1.392 . S
C176 C177 1.331 . S
C176 H194 0.932 . S
C177 C176 1.331 . S
C177 C178 1.336 . S
C178 C174 1.394 . S
C178 C177 1.336 . S
C178 H193 0.929 . S
C179 C169 1.386 . S
C179 C172 1.357 . S
C179 H192 0.928 . S
H180 C156 0.931 . S
H181 C158 0.930 . S
H182 C160 0.929 . S
H183 C161 0.931 . S
H184 C163 0.930 . S
H185 C167 0.931 . S
H186 C165 0.931 . S
H187 C169 0.931 . S
H188 C170 0.929 . S
H189 C171 0.930 . S
H190 C174 0.930 . S
H191 C175 0.931 1_556 S
H192 C179 0.928 . S
H193 C178 0.929 . S
H194 C176 0.932 . S
C195 C196 1.387 . S
C195 C197 1.397 . S
C195 H219 0.931 . S
C196 C195 1.387 . S
C196 C200 1.396 1_655 S
C197 C195 1.397 . S
C197 C198 1.381 . S
C197 H220 0.930 . S
C198 C197 1.381 . S
C198 C199 1.380 1_655 S
C198 C201 1.480 . S
C199 C198 1.380 1_455 S
C199 C200 1.389 . S
C199 H221 0.929 . S
C200 C196 1.396 1_455 S
C200 C199 1.389 . S
C200 H222 0.931 . S
C201 C198 1.480 . S
C201 C202 1.388 . S
C201 C206 1.390 . S
C202 C201 1.388 . S
C202 C203 1.402 . S
C202 H223 0.930 . S
C203 C202 1.402 . S
C203 C204 1.376 1_554 S
C203 C212 1.512 . S
C204 C203 1.376 1_556 S
C204 C205 1.392 1_655 S
C204 H225 0.933 . S
C205 C204 1.392 1_455 S
C205 C206 1.361 1_456 S
C205 C207 1.499 . S
C206 C201 1.390 . S
C206 C205 1.361 1_654 S
C206 H224 0.931 . S
C207 C205 1.499 . S
C207 C208 1.357 1_455 S
C207 C209 1.380 . S
C208 C207 1.357 1_655 S
C208 C218 1.386 . S
C208 H226 0.931 . S
C209 C207 1.380 . S
C209 C210 1.409 . S
C209 H227 0.929 . S
C210 C209 1.409 . S
C210 C211 1.384 . S
C210 H228 0.930 . S
C211 C210 1.384 . S
C211 C218 1.353 1_455 S
C212 C203 1.512 . S
C212 C213 1.341 . S
C212 C214 1.371 1_655 S
C213 C212 1.341 . S
C213 C217 1.394 . S
C213 H229 0.930 . S
C214 C212 1.371 1_455 S
C214 C215 1.392 . S
C214 H230 0.931 1_554 S
C215 C214 1.392 . S
C215 C216 1.326 1_455 S
C215 H233 0.932 . S
C216 C215 1.326 1_655 S
C216 C217 1.341 . S
C217 C213 1.394 . S
C217 C216 1.341 . S
C217 H232 0.929 . S
C218 C208 1.386 . S
C218 C211 1.353 1_655 S
C218 H231 0.928 . S
H219 C195 0.931 . S
H220 C197 0.930 . S
H221 C199 0.929 . S
H222 C200 0.931 . S
H223 C202 0.930 . S
H224 C206 0.931 . S
H225 C204 0.933 . S
H226 C208 0.931 . S
H227 C209 0.929 . S
H228 C210 0.930 . S
H229 C213 0.930 . S
H230 C214 0.931 1_556 S
H231 C218 0.928 . S
H232 C217 0.929 . S
H233 C215 0.932 . S
C234 C235 1.387 . S
C234 C236 1.397 . S
C234 H258 0.931 . S
C235 C234 1.387 . S
C235 C239 1.396 1_565 S
C236 C234 1.397 . S
C236 C237 1.381 . S
C236 H259 0.930 . S
C237 C236 1.381 . S
C237 C238 1.380 1_565 S
C237 C240 1.480 . S
C238 C237 1.380 1_545 S
C238 C239 1.389 . S
C238 H260 0.929 . S
C239 C235 1.396 1_545 S
C239 C238 1.389 . S
C239 H261 0.931 . S
C240 C237 1.480 . S
C240 C241 1.388 . S
C240 C245 1.390 . S
C241 C240 1.388 . S
C241 C242 1.402 . S
C241 H262 0.930 . S
C242 C241 1.402 . S
C242 C243 1.376 1_554 S
C242 C251 1.512 . S
C243 C242 1.376 1_556 S
C243 C244 1.392 1_565 S
C243 H264 0.933 . S
C244 C243 1.392 1_545 S
C244 C245 1.361 1_546 S
C244 C246 1.499 . S
C245 C240 1.390 . S
C245 C244 1.361 1_564 S
C245 H263 0.931 . S
C246 C244 1.499 . S
C246 C247 1.357 1_545 S
C246 C248 1.380 . S
C247 C246 1.357 1_565 S
C247 C257 1.386 . S
C247 H265 0.931 . S
C248 C246 1.380 . S
C248 C249 1.409 . S
C248 H266 0.929 . S
C249 C248 1.409 . S
C249 C250 1.384 . S
C249 H267 0.930 . S
C250 C249 1.384 . S
C250 C257 1.353 1_545 S
C251 C242 1.512 . S
C251 C252 1.341 . S
C251 C253 1.371 1_565 S
C252 C251 1.341 . S
C252 C256 1.394 . S
C252 H268 0.930 . S
C253 C251 1.371 1_545 S
C253 C254 1.392 . S
C253 H269 0.931 1_554 S
C254 C253 1.392 . S
C254 C255 1.326 1_545 S
C254 H272 0.932 . S
C255 C254 1.326 1_565 S
C255 C256 1.341 . S
C256 C252 1.394 . S
C256 C255 1.341 . S
C256 H271 0.929 . S
C257 C247 1.386 . S
C257 C250 1.353 1_565 S
C257 H270 0.928 . S
H258 C234 0.931 . S
H259 C236 0.930 . S
H260 C238 0.929 . S
H261 C239 0.931 . S
H262 C241 0.930 . S
H263 C245 0.931 . S
H264 C243 0.933 . S
H265 C247 0.931 . S
H266 C248 0.929 . S
H267 C249 0.930 . S
H268 C252 0.930 . S
H269 C253 0.931 1_556 S
H270 C257 0.928 . S
H271 C256 0.929 . S
H272 C254 0.932 . S
C273 C274 1.386 . S
C273 C275 1.397 . S
C273 H297 0.931 . S
C274 C273 1.386 . S
C274 C278 1.397 . S
C275 C273 1.397 . S
C275 C276 1.384 . S
C275 H298 0.930 . S
C276 C275 1.384 . S
C276 C277 1.377 . S
C276 C279 1.481 . S
C277 C276 1.377 . S
C277 C278 1.389 . S
C277 H299 0.929 . S
C278 C274 1.397 . S
C278 C277 1.389 . S
C278 H300 0.931 . S
C279 C276 1.481 . S
C279 C280 1.387 . S
C279 C284 1.390 1_556 S
C280 C279 1.387 . S
C280 C281 1.401 1_556 S
C280 H301 0.930 . S
C281 C280 1.401 1_554 S
C281 C282 1.376 . S
C281 C290 1.511 . S
C282 C281 1.376 . S
C282 C283 1.392 . S
C282 H303 0.931 . S
C283 C282 1.392 . S
C283 C284 1.361 . S
C283 C285 1.500 . S
C284 C279 1.390 1_554 S
C284 C283 1.361 . S
C284 H302 0.931 . S
C285 C283 1.500 . S
C285 C286 1.371 . S
C285 C287 1.365 . S
C286 C285 1.371 . S
C286 C296 1.386 . S
C286 H304 0.931 . S
C287 C285 1.365 . S
C287 C288 1.409 . S
C287 H305 0.929 . S
C288 C287 1.409 . S
C288 C289 1.380 . S
C288 H306 0.930 . S
C289 C288 1.380 . S
C289 C296 1.357 . S
C290 C281 1.511 . S
C290 C291 1.341 . S
C290 C292 1.371 . S
C291 C290 1.341 . S
C291 C295 1.394 . S
C291 H307 0.930 1_554 S
C292 C290 1.371 . S
C292 C293 1.392 . S
C292 H308 0.931 . S
C293 C292 1.392 . S
C293 C294 1.331 . S
C293 H311 0.932 . S
C294 C293 1.331 . S
C294 C295 1.336 . S
C295 C291 1.394 . S
C295 C294 1.336 . S
C295 H310 0.939 . S
C296 C286 1.386 . S
C296 C289 1.357 . S
C296 H309 0.928 . S
H297 C273 0.931 . S
H298 C275 0.930 . S
H299 C277 0.929 . S
H300 C278 0.931 . S
H301 C280 0.930 . S
H302 C284 0.931 . S
H303 C282 0.931 . S
H304 C286 0.931 . S
H305 C287 0.929 . S
H306 C288 0.930 . S
H307 C291 0.930 1_556 S
H308 C292 0.931 . S
H309 C296 0.928 . S
H310 C295 0.939 . S
H311 C293 0.932 . S
Ho312 C315 2.811 . S
Ho312 O332 2.322 . S
Ho312 O334 2.378 . S
Ho312 O335 2.524 . S
Ho312 O336 2.381 . S
Ho312 O337 2.669 1_565 S
Ho312 O339 2.346 1_565 S
Ho312 O343 2.305 1_455 S
Ho313 C324 2.811 . S
Ho313 O333 2.346 1_545 S
Ho313 O337 2.305 1_655 S
Ho313 O338 2.322 . S
Ho313 O340 2.378 . S
Ho313 O341 2.524 . S
Ho313 O342 2.381 . S
Ho313 O343 2.669 1_545 S
C314 O332 1.259 1_655 S
C314 O333 1.268 . S
C315 Ho312 2.811 . S
C315 C316 1.488 . S
C315 O334 1.215 . S
C315 O335 1.289 . S
C316 C315 1.488 . S
C316 C317 1.348 . S
C316 C321 1.413 . S
C317 C316 1.348 . S
C317 C318 1.442 . S
C317 H344 0.930 1_455 S
C318 C317 1.442 . S
C318 C319 1.381 . S
C318 H345 0.931 1_455 S
C319 C318 1.381 . S
C319 C320 1.321 . S
C320 C319 1.321 . S
C320 C321 1.403 . S
C320 H346 0.934 . S
C321 C316 1.413 . S
C321 C320 1.403 . S
C321 H347 0.930 . S
C322 O336 1.296 . S
C322 O337 1.245 1_565 S
C323 O338 1.259 1_455 S
C323 O339 1.268 . S
C324 Ho313 2.811 . S
C324 C325 1.488 . S
C324 O340 1.215 . S
C324 O341 1.289 . S
C325 C324 1.488 . S
C325 C326 1.348 . S
C325 C330 1.413 . S
C326 C325 1.348 . S
C326 C327 1.442 . S
C326 H348 0.930 1_655 S
C327 C326 1.442 . S
C327 C328 1.381 . S
C327 H349 0.931 1_655 S
C328 C327 1.381 . S
C328 C329 1.321 . S
C329 C328 1.321 . S
C329 C330 1.403 . S
C329 H350 0.934 . S
C330 C325 1.413 . S
C330 C329 1.403 . S
C330 H351 0.930 . S
C331 O342 1.302 . S
C331 O343 1.241 1_545 S
O332 Ho312 2.322 . S
O332 C314 1.259 1_455 S
O333 Ho313 2.346 1_565 S
O333 C314 1.268 . S
O334 Ho312 2.378 . S
O334 C315 1.215 . S
O335 Ho312 2.524 . S
O335 C315 1.289 . S
O336 Ho312 2.381 . S
O336 C322 1.296 . S
O337 Ho312 2.669 1_545 S
O337 Ho313 2.305 1_455 S
O337 C322 1.245 1_545 S
O338 Ho313 2.322 . S
O338 C323 1.259 1_655 S
O339 Ho312 2.346 1_545 S
O339 C323 1.268 . S
O340 Ho313 2.378 . S
O340 C324 1.215 . S
O341 Ho313 2.524 . S
O341 C324 1.289 . S
O342 Ho313 2.381 . S
O342 C331 1.302 . S
O343 Ho312 2.305 1_655 S
O343 Ho313 2.669 1_565 S
O343 C331 1.241 1_565 S
H344 C317 0.930 1_655 S
H345 C318 0.931 1_655 S
H346 C320 0.934 . S
H347 C321 0.930 . S
H348 C326 0.930 1_455 S
H349 C327 0.931 1_455 S
H350 C329 0.934 . S
H351 C330 0.930 . S
Ho352 C355 2.811 . S
Ho352 O372 2.322 . S
Ho352 O374 2.378 . S
Ho352 O375 2.524 . S
Ho352 O376 2.381 . S
Ho352 O377 2.669 . S
Ho352 O379 2.346 . S
Ho352 O383 2.305 1_545 S
Ho353 C364 2.811 . S
Ho353 O373 2.346 . S
Ho353 O377 2.305 1_565 S
Ho353 O378 2.322 . S
Ho353 O380 2.378 . S
Ho353 O381 2.524 . S
Ho353 O382 2.381 . S
Ho353 O383 2.669 . S
C354 O372 1.259 1_565 S
C354 O373 1.268 . S
C355 Ho352 2.811 . S
C355 C356 1.488 . S
C355 O374 1.215 . S
C355 O375 1.289 . S
C356 C355 1.488 . S
C356 C357 1.348 . S
C356 C361 1.413 . S
C357 C356 1.348 . S
C357 C358 1.442 . S
C357 H384 0.930 1_545 S
C358 C357 1.442 . S
C358 C359 1.381 . S
C358 H385 0.931 1_545 S
C359 C358 1.381 . S
C359 C360 1.321 . S
C360 C359 1.321 . S
C360 C361 1.403 . S
C360 H386 0.934 . S
C361 C356 1.413 . S
C361 C360 1.403 . S
C361 H387 0.930 . S
C362 O376 1.275 . S
C362 O377 1.256 . S
C363 O378 1.259 1_545 S
C363 O379 1.268 . S
C364 Ho353 2.811 . S
C364 C365 1.488 . S
C364 O380 1.215 . S
C364 O381 1.289 . S
C365 C364 1.488 . S
C365 C366 1.348 . S
C365 C370 1.413 . S
C366 C365 1.348 . S
C366 C367 1.442 . S
C366 H388 0.930 1_565 S
C367 C366 1.442 . S
C367 C368 1.381 . S
C367 H389 0.931 1_565 S
C368 C367 1.381 . S
C368 C369 1.321 . S
C369 C368 1.321 . S
C369 C370 1.403 . S
C369 H390 0.934 . S
C370 C365 1.413 . S
C370 C369 1.403 . S
C370 H391 0.930 . S
C371 O382 1.275 . S
C371 O383 1.256 . S
O372 Ho352 2.322 . S
O372 C354 1.259 1_545 S
O373 Ho353 2.346 . S
O373 C354 1.268 . S
O374 Ho352 2.378 . S
O374 C355 1.215 . S
O375 Ho352 2.524 . S
O375 C355 1.289 . S
O376 Ho352 2.381 . S
O376 C362 1.275 . S
O377 Ho352 2.669 . S
O377 Ho353 2.305 1_545 S
O377 C362 1.256 . S
O378 Ho353 2.322 . S
O378 C363 1.259 1_565 S
O379 Ho352 2.346 . S
O379 C363 1.268 . S
O380 Ho353 2.378 . S
O380 C364 1.215 . S
O381 Ho353 2.524 . S
O381 C364 1.289 . S
O382 Ho353 2.381 . S
O382 C371 1.275 . S
O383 Ho352 2.305 1_565 S
O383 Ho353 2.669 . S
O383 C371 1.256 . S
H384 C357 0.930 1_565 S
H385 C358 0.931 1_565 S
H386 C360 0.934 . S
H387 C361 0.930 . S
H388 C366 0.930 1_545 S
H389 C367 0.931 1_545 S
H390 C369 0.934 . S
H391 C370 0.930 . S
Ho392 C395 2.811 . S
Ho392 O412 2.322 . S
Ho392 O414 2.378 . S
Ho392 O415 2.524 . S
Ho392 O416 2.381 . S
Ho392 O417 2.669 . S
Ho392 O419 2.346 . S
Ho392 O423 2.305 . S
Ho393 C404 2.811 . S
Ho393 O413 2.346 . S
Ho393 O417 2.305 . S
Ho393 O418 2.322 . S
Ho393 O420 2.378 . S
Ho393 O421 2.524 . S
Ho393 O422 2.381 . S
Ho393 O423 2.669 . S
C394 O412 1.259 . S
C394 O413 1.268 . S
C395 Ho392 2.811 . S
C395 C396 1.488 . S
C395 O414 1.215 . S
C395 O415 1.289 . S
C396 C395 1.488 . S
C396 C397 1.348 . S
C396 C401 1.413 . S
C397 C396 1.348 . S
C397 C398 1.442 . S
C397 H424 0.930 . S
C398 C397 1.442 . S
C398 C399 1.381 . S
C398 H425 0.931 . S
C399 C398 1.381 . S
C399 C400 1.321 . S
C400 C399 1.321 . S
C400 C401 1.403 . S
C400 H426 0.934 . S
C401 C396 1.413 . S
C401 C400 1.403 . S
C401 H427 0.930 . S
C402 O416 1.275 . S
C402 O417 1.256 . S
C403 O418 1.259 . S
C403 O419 1.268 . S
C404 Ho393 2.811 . S
C404 C405 1.488 . S
C404 O420 1.215 . S
C404 O421 1.289 . S
C405 C404 1.488 . S
C405 C406 1.348 . S
C405 C410 1.413 . S
C406 C405 1.348 . S
C406 C407 1.442 . S
C406 H428 0.930 . S
C407 C406 1.442 . S
C407 C408 1.381 . S
C407 H429 0.931 . S
C408 C407 1.381 . S
C408 C409 1.321 . S
C409 C408 1.321 . S
C409 C410 1.403 . S
C409 H430 0.934 . S
C410 C405 1.413 . S
C410 C409 1.403 . S
C410 H431 0.930 . S
C411 O422 1.275 . S
C411 O423 1.256 . S
O412 Ho392 2.322 . S
O412 C394 1.259 . S
O413 Ho393 2.346 . S
O413 C394 1.268 . S
O414 Ho392 2.378 . S
O414 C395 1.215 . S
O415 Ho392 2.524 . S
O415 C395 1.289 . S
O416 Ho392 2.381 . S
O416 C402 1.275 . S
O417 Ho392 2.669 . S
O417 Ho393 2.305 . S
O417 C402 1.256 . S
O418 Ho393 2.322 . S
O418 C403 1.259 . S
O419 Ho392 2.346 . S
O419 C403 1.268 . S
O420 Ho393 2.378 . S
O420 C404 1.215 . S
O421 Ho393 2.524 . S
O421 C404 1.289 . S
O422 Ho393 2.381 . S
O422 C411 1.275 . S
O423 Ho392 2.305 . S
O423 Ho393 2.669 . S
O423 C411 1.256 . S
H424 C397 0.930 . S
H425 C398 0.931 . S
H426 C400 0.934 . S
H427 C401 0.930 . S
H428 C406 0.930 . S
H429 C407 0.931 . S
H430 C409 0.934 . S
H431 C410 0.930 . S
Ho432 C435 2.811 . S
Ho432 O452 2.322 . S
Ho432 O454 2.378 . S
Ho432 O455 2.524 . S
Ho432 O456 2.381 . S
Ho432 O457 2.669 1_655 S
Ho432 O459 2.346 1_655 S
Ho432 O463 2.305 . S
Ho433 C444 2.811 . S
Ho433 O453 2.346 1_455 S
Ho433 O457 2.305 . S
Ho433 O458 2.322 . S
Ho433 O460 2.378 . S
Ho433 O461 2.524 . S
Ho433 O462 2.381 . S
Ho433 O463 2.669 1_455 S
C434 O452 1.259 . S
C434 O453 1.268 . S
C435 Ho432 2.811 . S
C435 C436 1.488 . S
C435 O454 1.215 . S
C435 O455 1.289 . S
C436 C435 1.488 . S
C436 C437 1.348 . S
C436 C441 1.413 . S
C437 C436 1.348 . S
C437 C438 1.442 . S
C437 H464 0.930 . S
C438 C437 1.442 . S
C438 C439 1.381 . S
C438 H465 0.931 . S
C439 C438 1.381 . S
C439 C440 1.321 . S
C440 C439 1.321 . S
C440 C441 1.403 . S
C440 H466 0.934 . S
C441 C436 1.413 . S
C441 C440 1.403 . S
C441 H467 0.930 . S
C442 O456 1.292 . S
C442 O457 1.247 1_655 S
C443 O458 1.259 . S
C443 O459 1.268 . S
C444 Ho433 2.811 . S
C444 C445 1.488 . S
C444 O460 1.215 . S
C444 O461 1.289 . S
C445 C444 1.488 . S
C445 C446 1.348 . S
C445 C450 1.413 . S
C446 C445 1.348 . S
C446 C447 1.442 . S
C446 H468 0.930 . S
C447 C446 1.442 . S
C447 C448 1.381 . S
C447 H469 0.931 . S
C448 C447 1.381 . S
C448 C449 1.321 . S
C449 C448 1.321 . S
C449 C450 1.403 . S
C449 H470 0.934 . S
C450 C445 1.413 . S
C450 C449 1.403 . S
C450 H471 0.930 . S
C451 O462 1.298 . S
C451 O463 1.243 1_455 S
O452 Ho432 2.322 . S
O452 C434 1.259 . S
O453 Ho433 2.346 1_655 S
O453 C434 1.268 . S
O454 Ho432 2.378 . S
O454 C435 1.215 . S
O455 Ho432 2.524 . S
O455 C435 1.289 . S
O456 Ho432 2.381 . S
O456 C442 1.292 . S
O457 Ho432 2.669 1_455 S
O457 Ho433 2.305 . S
O457 C442 1.247 1_455 S
O458 Ho433 2.322 . S
O458 C443 1.259 . S
O459 Ho432 2.346 1_455 S
O459 C443 1.268 . S
O460 Ho433 2.378 . S
O460 C444 1.215 . S
O461 Ho433 2.524 . S
O461 C444 1.289 . S
O462 Ho433 2.381 . S
O462 C451 1.298 . S
O463 Ho432 2.305 . S
O463 Ho433 2.669 1_655 S
O463 C451 1.243 1_655 S
H464 C437 0.930 . S
H465 C438 0.931 . S
H466 C440 0.934 . S
H467 C441 0.930 . S
H468 C446 0.930 . S
H469 C447 0.931 . S
H470 C449 0.934 . S
H471 C450 0.930 . S
H472 C478 0.930 . S
H473 C482 0.930 . S
H474 C487 0.929 . S
H475 C485 0.929 . S
H476 C480 0.929 . S
H477 C486 0.929 . S
C478 H472 0.930 . S
C478 C479 1.365 1_565 S
C478 C486 1.378 . S
C479 C478 1.365 1_545 S
C479 C487 1.435 . S
C480 H476 0.929 . S
C480 C482 1.378 . S
C480 C484 1.350 . S
C481 C484 1.464 . S
C481 C486 1.345 1_545 S
C481 N489 1.433 . S
C482 H473 0.930 . S
C482 C480 1.378 . S
C482 C483 1.367 . S
C483 C482 1.367 . S
C483 C485 1.433 1_545 S
C484 C480 1.350 . S
C484 C481 1.464 . S
C484 N488 1.427 1_545 S
C485 H475 0.929 . S
C485 C483 1.433 1_565 S
C485 N488 1.384 . S
C486 H477 0.929 . S
C486 C478 1.378 . S
C486 C481 1.345 1_565 S
C487 H474 0.929 . S
C487 C479 1.435 . S
C487 N489 1.384 . S
N488 C484 1.427 1_565 S
N488 C485 1.384 . S
N489 C481 1.433 . S
N489 C487 1.384 . S
H490 C496 0.930 . S
H491 C500 0.930 . S
H492 C505 0.929 . S
H493 C503 0.929 . S
H494 C498 0.929 . S
H495 C504 0.929 . S
C496 H490 0.930 . S
C496 C497 1.367 . S
C496 C504 1.378 . S
C497 C496 1.367 . S
C497 C505 1.433 . S
C498 H494 0.929 . S
C498 C500 1.378 . S
C498 C502 1.350 . S
C499 C502 1.463 . S
C499 C504 1.350 . S
C499 N507 1.427 . S
C500 H491 0.930 . S
C500 C498 1.378 . S
C500 C501 1.367 . S
C501 C500 1.367 . S
C501 C503 1.433 . S
C502 C498 1.350 . S
C502 C499 1.463 . S
C502 N506 1.427 . S
C503 H493 0.929 . S
C503 C501 1.433 . S
C503 N506 1.384 . S
C504 H495 0.929 . S
C504 C496 1.378 . S
C504 C499 1.350 . S
C505 H492 0.929 . S
C505 C497 1.433 . S
C505 N507 1.384 . S
N506 C502 1.427 . S
N506 C503 1.384 . S
N507 C499 1.427 . S
N507 C505 1.384 . S
H508 C514 0.930 . S
H509 C518 0.930 . S
H510 C523 0.929 . S
H511 C521 0.929 . S
H512 C516 0.929 . S
H513 C522 0.929 . S
C514 H508 0.930 . S
C514 C515 1.367 . S
C514 C522 1.378 . S
C515 C514 1.367 . S
C515 C523 1.433 . S
C516 H512 0.929 . S
C516 C518 1.378 . S
C516 C520 1.350 . S
C517 C520 1.463 . S
C517 C522 1.350 . S
C517 N525 1.427 . S
C518 H509 0.930 . S
C518 C516 1.378 . S
C518 C519 1.367 . S
C519 C518 1.367 . S
C519 C521 1.433 . S
C520 C516 1.350 . S
C520 C517 1.463 . S
C520 N524 1.427 . S
C521 H511 0.929 . S
C521 C519 1.433 . S
C521 N524 1.384 . S
C522 H513 0.929 . S
C522 C514 1.378 . S
C522 C517 1.350 . S
C523 H510 0.929 . S
C523 C515 1.433 . S
C523 N525 1.384 . S
N524 C520 1.427 . S
N524 C521 1.384 . S
N525 C517 1.427 . S
N525 C523 1.384 . S
H526 C532 0.930 . S
H527 C536 0.930 . S
H528 C541 0.929 . S
H529 C539 0.929 . S
H530 C534 0.929 . S
H531 C540 0.929 . S
C532 H526 0.930 . S
C532 C533 1.404 . S
C532 C540 1.378 . S
C533 C532 1.404 . S
C533 C541 1.397 1_455 S
C534 H530 0.929 . S
C534 C536 1.378 . S
C534 C538 1.334 1_655 S
C535 C538 1.463 . S
C535 C540 1.350 . S
C535 N543 1.427 1_455 S
C536 H527 0.930 . S
C536 C534 1.378 . S
C536 C537 1.367 1_655 S
C537 C536 1.367 1_455 S
C537 C539 1.433 . S
C538 C534 1.334 1_455 S
C538 C535 1.463 . S
C538 N542 1.444 . S
C539 H529 0.929 . S
C539 C537 1.433 . S
C539 N542 1.384 . S
C540 H531 0.929 . S
C540 C532 1.378 . S
C540 C535 1.350 . S
C541 H528 0.929 . S
C541 C533 1.397 1_655 S
C541 N543 1.384 . S
N542 C538 1.444 . S
N542 C539 1.384 . S
N543 C535 1.427 1_655 S
N543 C541 1.384 . S
H544 C550 0.930 . S
H545 C554 0.930 . S
H546 C559 0.929 . S
H547 C557 0.929 . S
H548 C552 0.929 . S
H549 C558 0.929 . S
C550 H544 0.930 . S
C550 C551 1.394 . S
C550 C558 1.378 . S
C551 C550 1.394 . S
C551 C559 1.406 1_565 S
C552 H548 0.929 . S
C552 C554 1.378 . S
C552 C556 1.346 1_546 S
C553 C556 1.468 . S
C553 C558 1.350 . S
C553 N561 1.427 1_565 S
C554 H545 0.930 . S
C554 C552 1.378 . S
C554 C555 1.332 1_545 S
C555 C554 1.332 1_565 S
C555 C557 1.469 . S
C556 C552 1.346 1_564 S
C556 C553 1.468 . S
C556 N560 1.426 1_554 S
C557 H547 0.929 . S
C557 C555 1.469 . S
C557 N560 1.384 . S
C558 H549 0.929 . S
C558 C550 1.378 . S
C558 C553 1.350 . S
C559 H546 0.929 . S
C559 C551 1.406 1_545 S
C559 N561 1.384 . S
N560 C556 1.426 1_556 S
N560 C557 1.384 . S
N561 C553 1.427 1_545 S
N561 C559 1.384 . S
H562 C568 0.930 . S
H563 C572 0.930 . S
H564 C577 0.929 . S
H565 C575 0.929 . S
H566 C570 0.929 1_554 S
H567 C576 0.929 . S
C568 H562 0.930 . S
C568 C569 1.367 . S
C568 C576 1.378 . S
C569 C568 1.367 . S
C569 C577 1.433 . S
C570 H566 0.929 1_556 S
C570 C572 1.378 . S
C570 C574 1.350 1_556 S
C571 C574 1.463 . S
C571 C576 1.350 . S
C571 N579 1.427 . S
C572 H563 0.930 . S
C572 C570 1.378 . S
C572 C573 1.367 . S
C573 C572 1.367 . S
C573 C575 1.433 . S
C574 C570 1.350 1_554 S
C574 C571 1.463 . S
C574 N578 1.427 1_554 S
C575 H565 0.929 . S
C575 C573 1.433 . S
C575 N578 1.384 . S
C576 H567 0.929 . S
C576 C568 1.378 . S
C576 C571 1.350 . S
C577 H564 0.929 . S
C577 C569 1.433 . S
C577 N579 1.384 . S
N578 C574 1.427 1_556 S
N578 C575 1.384 . S
N579 C571 1.427 . S
N579 C577 1.384 . S
H580 C586 0.930 . S
H581 C590 0.930 . S
H582 C595 0.929 . S
H583 C593 0.929 . S
H584 C588 0.929 1_554 S
H585 C594 0.929 . S
C586 H580 0.930 . S
C586 C587 1.367 . S
C586 C594 1.378 . S
C587 C586 1.367 . S
C587 C595 1.433 . S
C588 H584 0.929 1_556 S
C588 C590 1.378 . S
C588 C592 1.350 1_556 S
C589 C592 1.463 . S
C589 C594 1.350 . S
C589 N597 1.427 . S
C590 H581 0.930 . S
C590 C588 1.378 . S
C590 C591 1.367 . S
C591 C590 1.367 . S
C591 C593 1.433 . S
C592 C588 1.350 1_554 S
C592 C589 1.463 . S
C592 N596 1.427 1_554 S
C593 H583 0.929 . S
C593 C591 1.433 . S
C593 N596 1.384 . S
C594 H585 0.929 . S
C594 C586 1.378 . S
C594 C589 1.350 . S
C595 H582 0.929 . S
C595 C587 1.433 . S
C595 N597 1.384 . S
N596 C592 1.427 1_556 S
N596 C593 1.384 . S
N597 C589 1.427 . S
N597 C595 1.384 . S
H598 C604 0.930 . S
H599 C608 0.932 . S
H600 C613 0.929 . S
H601 C611 0.929 . S
H602 C606 0.931 . S
H603 C612 0.929 . S
C604 H598 0.930 . S
C604 C605 1.368 . S
C604 C612 1.378 . S
C605 C604 1.368 . S
C605 C613 1.432 1_655 S
C606 H602 0.931 . S
C606 C608 1.378 . S
C606 C610 1.353 1_455 S
C607 C610 1.458 1_554 S
C607 C612 1.354 . S
C607 N615 1.424 1_655 S
C608 H599 0.932 . S
C608 C606 1.378 . S
C608 C609 1.366 1_455 S
C609 C608 1.366 1_655 S
C609 C611 1.433 . S
C610 C606 1.353 1_655 S
C610 C607 1.458 1_556 S
C610 N614 1.428 . S
C611 H601 0.929 . S
C611 C609 1.433 . S
C611 N614 1.384 . S
C612 H603 0.929 . S
C612 C604 1.378 . S
C612 C607 1.354 . S
C613 H600 0.929 . S
C613 C605 1.432 1_455 S
C613 N615 1.384 . S
N614 C610 1.428 . S
N614 C611 1.384 . S
N615 C607 1.424 1_455 S
N615 C613 1.384 . S
H616 C622 0.930 . S
H617 C626 0.930 . S
H618 C631 0.929 . S
H619 C629 0.929 . S
H620 C624 0.929 . S
H621 C630 0.929 . S
C622 H616 0.930 . S
C622 C623 1.367 . S
C622 C630 1.378 . S
C623 C622 1.367 . S
C623 C631 1.433 1_455 S
C624 H620 0.929 . S
C624 C626 1.378 . S
C624 C628 1.350 . S
C625 C628 1.463 . S
C625 C630 1.350 1_655 S
C625 N633 1.427 . S
C626 H617 0.930 . S
C626 C624 1.378 . S
C626 C627 1.367 . S
C627 C626 1.367 . S
C627 C629 1.433 . S
C628 C624 1.350 . S
C628 C625 1.463 . S
C628 N632 1.427 . S
C629 H619 0.929 . S
C629 C627 1.433 . S
C629 N632 1.384 . S
C630 H621 0.929 . S
C630 C622 1.378 . S
C630 C625 1.350 1_455 S
C631 H618 0.929 . S
C631 C623 1.433 1_655 S
C631 N633 1.384 . S
N632 C628 1.427 . S
N632 C629 1.384 . S
N633 C625 1.427 . S
N633 C631 1.384 . S
H634 C640 0.930 . S
H635 C644 0.930 . S
H636 C649 0.929 . S
H637 C647 0.929 . S
H638 C642 0.929 . S
H639 C648 0.929 . S
C640 H634 0.930 . S
C640 C641 1.367 . S
C640 C648 1.378 1_545 S
C641 C640 1.367 . S
C641 C649 1.433 1_545 S
C642 H638 0.929 . S
C642 C644 1.378 . S
C642 C646 1.350 . S
C643 C646 1.463 . S
C643 C648 1.350 . S
C643 N651 1.427 . S
C644 H635 0.930 . S
C644 C642 1.378 . S
C644 C645 1.367 . S
C645 C644 1.367 . S
C645 C647 1.433 . S
C646 C642 1.350 . S
C646 C643 1.463 . S
C646 N650 1.427 . S
C647 H637 0.929 . S
C647 C645 1.433 . S
C647 N650 1.384 . S
C648 H639 0.929 . S
C648 C640 1.378 1_565 S
C648 C643 1.350 . S
C649 H636 0.929 . S
C649 C641 1.433 1_565 S
C649 N651 1.384 . S
N650 C646 1.427 . S
N650 C647 1.384 . S
N651 C643 1.427 . S
N651 C649 1.384 . S
H652 C658 0.930 . S
H653 C662 0.930 . S
H654 C667 0.929 . S
H655 C665 0.929 . S
H656 C660 0.929 . S
H657 C666 0.929 . S
C658 H652 0.930 . S
C658 C659 1.367 . S
C658 C666 1.378 . S
C659 C658 1.367 . S
C659 C667 1.433 . S
C660 H656 0.929 . S
C660 C662 1.378 . S
C660 C664 1.350 . S
C661 C664 1.463 . S
C661 C666 1.350 . S
C661 N669 1.427 . S
C662 H653 0.930 . S
C662 C660 1.378 . S
C662 C663 1.367 . S
C663 C662 1.367 . S
C663 C665 1.433 . S
C664 C660 1.350 . S
C664 C661 1.463 . S
C664 N668 1.427 . S
C665 H655 0.929 . S
C665 C663 1.433 . S
C665 N668 1.384 . S
C666 H657 0.929 . S
C666 C658 1.378 . S
C666 C661 1.350 . S
C667 H654 0.929 . S
C667 C659 1.433 . S
C667 N669 1.384 . S
N668 C664 1.427 . S
N668 C665 1.384 . S
N669 C661 1.427 . S
N669 C667 1.384 . S
H670 C676 0.930 . S
H671 C680 0.930 . S
H672 C685 0.929 . S
H673 C683 0.929 . S
H674 C678 0.929 . S
H675 C684 0.929 . S
C676 H670 0.930 . S
C676 C677 1.367 . S
C676 C684 1.378 . S
C677 C676 1.367 . S
C677 C685 1.433 . S
C678 H674 0.929 . S
C678 C680 1.378 . S
C678 C682 1.350 . S
C679 C682 1.463 . S
C679 C684 1.350 . S
C679 N687 1.427 . S
C680 H671 0.930 . S
C680 C678 1.378 . S
C680 C681 1.367 . S
C681 C680 1.367 . S
C681 C683 1.433 . S
C682 C678 1.350 . S
C682 C679 1.463 . S
C682 N686 1.427 . S
C683 H673 0.929 . S
C683 C681 1.433 . S
C683 N686 1.384 . S
C684 H675 0.929 . S
C684 C676 1.378 . S
C684 C679 1.350 . S
C685 H672 0.929 . S
C685 C677 1.433 . S
C685 N687 1.384 . S
N686 C682 1.427 . S
N686 C683 1.384 . S
N687 C679 1.427 . S
N687 C685 1.384 . S
H688 C694 0.930 . S
H689 C698 0.930 . S
H690 C703 0.929 . S
H691 C701 0.929 . S
H692 C696 0.929 . S
H693 C702 0.929 . S
C694 H688 0.930 . S
C694 C695 1.367 . S
C694 C702 1.378 . S
C695 C694 1.367 . S
C695 C703 1.433 1_655 S
C696 H692 0.929 . S
C696 C698 1.378 1_554 S
C696 C700 1.350 . S
C697 C700 1.463 . S
C697 C702 1.350 1_455 S
C697 N705 1.427 . S
C698 H689 0.930 . S
C698 C696 1.378 1_556 S
C698 C699 1.367 . S
C699 C698 1.367 . S
C699 C701 1.433 . S
C700 C696 1.350 . S
C700 C697 1.463 . S
C700 N704 1.427 1_554 S
C701 H691 0.929 . S
C701 C699 1.433 . S
C701 N704 1.384 . S
C702 H693 0.929 . S
C702 C694 1.378 . S
C702 C697 1.350 1_655 S
C703 H690 0.929 . S
C703 C695 1.433 1_455 S
C703 N705 1.384 . S
N704 C700 1.427 1_556 S
N704 C701 1.384 . S
N705 C697 1.427 . S
N705 C703 1.384 . S
H706 C712 0.930 . S
H707 C716 0.930 . S
H708 C721 0.929 . S
H709 C719 0.929 . S
H710 C714 0.929 . S
H711 C720 0.929 . S
C712 H706 0.930 . S
C712 C713 1.367 1_545 S
C712 C720 1.378 . S
C713 C712 1.367 1_565 S
C713 C721 1.433 . S
C714 H710 0.929 . S
C714 C716 1.378 . S
C714 C718 1.350 1_556 S
C715 C718 1.463 . S
C715 C720 1.350 . S
C715 N723 1.406 1_545 S
C716 H707 0.930 . S
C716 C714 1.378 . S
C716 C717 1.367 . S
C717 C716 1.367 . S
C717 C719 1.433 1_556 S
C718 C714 1.350 1_554 S
C718 C715 1.463 . S
C718 N722 1.427 . S
C719 H709 0.929 . S
C719 C717 1.433 1_554 S
C719 N722 1.384 . S
C720 H711 0.929 . S
C720 C712 1.378 . S
C720 C715 1.350 . S
C721 H708 0.929 . S
C721 C713 1.433 . S
C721 N723 1.396 . S
N722 C718 1.427 . S
N722 C719 1.384 . S
N723 C715 1.406 1_565 S
N723 C721 1.396 . S
H724 C730 0.930 . S
H725 C734 0.930 . S
H726 C739 0.929 . S
H727 C737 0.929 . S
H728 C732 0.929 . S
H729 C738 0.929 1_556 S
C730 H724 0.930 . S
C730 C731 1.367 . S
C730 C738 1.378 . S
C731 C730 1.367 . S
C731 C739 1.433 . S
C732 H728 0.929 . S
C732 C734 1.378 . S
C732 C736 1.350 . S
C733 C736 1.463 . S
C733 C738 1.350 . S
C733 N741 1.427 . S
C734 H725 0.930 . S
C734 C732 1.378 . S
C734 C735 1.367 1_554 S
C735 C734 1.367 1_556 S
C735 C737 1.433 . S
C736 C732 1.350 . S
C736 C733 1.463 . S
C736 N740 1.427 1_554 S
C737 H727 0.929 . S
C737 C735 1.433 . S
C737 N740 1.384 . S
C738 H729 0.929 1_554 S
C738 C730 1.378 . S
C738 C733 1.350 . S
C739 H726 0.929 . S
C739 C731 1.433 . S
C739 N741 1.384 . S
N740 C736 1.427 1_556 S
N740 C737 1.384 . S
N741 C733 1.427 . S
N741 C739 1.384 . S
H742 C748 0.930 . S
H743 C752 0.930 . S
H744 C757 0.929 . S
H745 C755 0.929 . S
H746 C750 0.929 . S
H747 C756 0.929 1_556 S
C748 H742 0.930 . S
C748 C749 1.367 . S
C748 C756 1.378 . S
C749 C748 1.367 . S
C749 C757 1.433 . S
C750 H746 0.929 . S
C750 C752 1.378 . S
C750 C754 1.350 . S
C751 C754 1.463 . S
C751 C756 1.350 . S
C751 N759 1.427 . S
C752 H743 0.930 . S
C752 C750 1.378 . S
C752 C753 1.367 1_554 S
C753 C752 1.367 1_556 S
C753 C755 1.433 . S
C754 C750 1.350 . S
C754 C751 1.463 . S
C754 N758 1.427 1_554 S
C755 H745 0.929 . S
C755 C753 1.433 . S
C755 N758 1.384 . S
C756 H747 0.929 1_554 S
C756 C748 1.378 . S
C756 C751 1.350 . S
C757 H744 0.929 . S
C757 C749 1.433 . S
C757 N759 1.384 . S
N758 C754 1.427 1_556 S
N758 C755 1.384 . S
N759 C751 1.427 . S
N759 C757 1.384 . S
H760 C766 0.930 . S
H761 C770 0.927 1_655 S
H762 C775 0.929 . S
H763 C773 0.929 . S
H764 C768 0.929 . S
H765 C774 0.929 . S
C766 H760 0.930 . S
C766 C767 1.367 . S
C766 C774 1.378 . S
C767 C766 1.367 . S
C767 C775 1.433 1_455 S
C768 H764 0.929 . S
C768 C770 1.377 1_655 S
C768 C772 1.350 1_655 S
C769 C772 1.463 . S
C769 C774 1.350 . S
C769 N777 1.427 1_455 S
C770 H761 0.927 1_455 S
C770 C768 1.377 1_455 S
C770 C771 1.371 . S
C771 C770 1.371 . S
C771 C773 1.433 . S
C772 C768 1.350 1_455 S
C772 C769 1.463 . S
C772 N776 1.427 . S
C773 H763 0.929 . S
C773 C771 1.433 . S
C773 N776 1.384 . S
C774 H765 0.929 . S
C774 C766 1.378 . S
C774 C769 1.350 . S
C775 H762 0.929 . S
C775 C767 1.433 1_655 S
C775 N777 1.384 . S
N776 C772 1.427 . S
N776 C773 1.384 . S
N777 C769 1.427 1_655 S
N777 C775 1.384 . S
H778 C784 0.930 . S
H779 C788 0.930 . S
H780 C793 0.929 . S
H781 C791 0.929 . S
H782 C786 0.918 1_565 S
H783 C792 0.929 . S
C784 H778 0.930 . S
C784 C785 1.367 . S
C784 C792 1.378 . S
C785 C784 1.367 . S
C785 C793 1.433 1_545 S
C786 H782 0.918 1_545 S
C786 C788 1.378 . S
C786 C790 1.350 . S
C787 C790 1.463 . S
C787 C792 1.350 . S
C787 N795 1.427 1_545 S
C788 H779 0.930 . S
C788 C786 1.378 . S
C788 C789 1.367 . S
C789 C788 1.367 . S
C789 C791 1.433 . S
C790 C786 1.350 . S
C790 C787 1.463 . S
C790 N794 1.427 . S
C791 H781 0.929 . S
C791 C789 1.433 . S
C791 N794 1.384 . S
C792 H783 0.929 . S
C792 C784 1.378 . S
C792 C787 1.350 . S
C793 H780 0.929 . S
C793 C785 1.433 1_565 S
C793 N795 1.384 . S
N794 C790 1.427 . S
N794 C791 1.384 . S
N795 C787 1.427 1_565 S
N795 C793 1.384 . S
H796 C802 0.930 . S
H797 C806 0.930 . S
H798 C811 0.929 . S
H799 C809 0.929 . S
H800 C804 0.929 . S
H801 C810 0.929 . S
C802 H796 0.930 . S
C802 C803 1.367 . S
C802 C810 1.378 . S
C803 C802 1.367 . S
C803 C811 1.433 . S
C804 H800 0.929 . S
C804 C806 1.378 . S
C804 C808 1.350 . S
C805 C808 1.463 . S
C805 C810 1.350 . S
C805 N813 1.427 . S
C806 H797 0.930 . S
C806 C804 1.378 . S
C806 C807 1.367 . S
C807 C806 1.367 . S
C807 C809 1.433 . S
C808 C804 1.350 . S
C808 C805 1.463 . S
C808 N812 1.427 . S
C809 H799 0.929 . S
C809 C807 1.433 . S
C809 N812 1.384 . S
C810 H801 0.929 . S
C810 C802 1.378 . S
C810 C805 1.350 . S
C811 H798 0.929 . S
C811 C803 1.433 . S
C811 N813 1.384 . S
N812 C808 1.427 . S
N812 C809 1.384 . S
N813 C805 1.427 . S
N813 C811 1.384 . S
H814 C820 0.930 . S
H815 C824 0.930 . S
H816 C829 0.929 . S
H817 C827 0.929 . S
H818 C822 0.929 . S
H819 C828 0.929 . S
C820 H814 0.930 . S
C820 C821 1.367 . S
C820 C828 1.378 . S
C821 C820 1.367 . S
C821 C829 1.433 . S
C822 H818 0.929 . S
C822 C824 1.378 . S
C822 C826 1.350 . S
C823 C826 1.463 . S
C823 C828 1.350 . S
C823 N831 1.427 . S
C824 H815 0.930 . S
C824 C822 1.378 . S
C824 C825 1.367 . S
C825 C824 1.367 . S
C825 C827 1.433 . S
C826 C822 1.350 . S
C826 C823 1.463 . S
C826 N830 1.427 . S
C827 H817 0.929 . S
C827 C825 1.433 . S
C827 N830 1.384 . S
C828 H819 0.929 . S
C828 C820 1.378 . S
C828 C823 1.350 . S
C829 H816 0.929 . S
C829 C821 1.433 . S
C829 N831 1.384 . S
N830 C826 1.427 . S
N830 C827 1.384 . S
N831 C823 1.427 . S
N831 C829 1.384 . S
H832 C838 0.930 . S
H833 C842 0.930 . S
H834 C847 0.929 . S
H835 C845 0.929 . S
H836 C840 0.929 . S
H837 C846 0.929 . S
C838 H832 0.930 . S
C838 C839 1.367 1_455 S
C838 C846 1.378 . S
C839 C838 1.367 1_655 S
C839 C847 1.433 . S
C840 H836 0.929 . S
C840 C842 1.378 . S
C840 C844 1.350 . S
C841 C844 1.463 . S
C841 C846 1.350 1_655 S
C841 N849 1.427 . S
C842 H833 0.930 . S
C842 C840 1.378 . S
C842 C843 1.367 . S
C843 C842 1.367 . S
C843 C845 1.433 1_655 S
C844 C840 1.350 . S
C844 C841 1.463 . S
C844 N848 1.427 1_655 S
C845 H835 0.929 . S
C845 C843 1.433 1_455 S
C845 N848 1.384 . S
C846 H837 0.929 . S
C846 C838 1.378 . S
C846 C841 1.350 1_455 S
C847 H834 0.929 . S
C847 C839 1.433 . S
C847 N849 1.384 . S
N848 C844 1.427 1_455 S
N848 C845 1.384 . S
N849 C841 1.427 . S
N849 C847 1.384 . S
H850 C856 0.930 . S
H851 C860 0.930 . S
H852 C865 0.929 . S
H853 C863 0.929 . S
H854 C858 0.929 . S
H855 C864 0.929 . S
C856 H850 0.930 . S
C856 C857 1.367 1_545 S
C856 C864 1.378 . S
C857 C856 1.367 1_565 S
C857 C865 1.433 . S
C858 H854 0.929 . S
C858 C860 1.378 . S
C858 C862 1.350 . S
C859 C862 1.463 . S
C859 C864 1.350 1_565 S
C859 N867 1.427 . S
C860 H851 0.930 . S
C860 C858 1.378 . S
C860 C861 1.367 . S
C861 C860 1.367 . S
C861 C863 1.433 1_565 S
C862 C858 1.350 . S
C862 C859 1.463 . S
C862 N866 1.427 1_565 S
C863 H853 0.929 . S
C863 C861 1.433 1_545 S
C863 N866 1.384 . S
C864 H855 0.929 . S
C864 C856 1.378 . S
C864 C859 1.350 1_545 S
C865 H852 0.929 . S
C865 C857 1.433 . S
C865 N867 1.384 . S
N866 C862 1.427 1_545 S
N866 C863 1.384 . S
N867 C859 1.427 . S
N867 C865 1.384 . S
H868 C874 0.930 . S
H869 C878 0.930 . S
H870 C883 0.929 . S
H871 C881 0.929 . S
H872 C876 0.929 . S
H873 C882 0.929 . S
C874 H868 0.930 . S
C874 C875 1.367 . S
C874 C882 1.378 . S
C875 C874 1.367 . S
C875 C883 1.433 . S
C876 H872 0.929 . S
C876 C878 1.378 . S
C876 C880 1.350 . S
C877 C880 1.463 . S
C877 C882 1.350 . S
C877 N885 1.427 . S
C878 H869 0.930 . S
C878 C876 1.378 . S
C878 C879 1.367 . S
C879 C878 1.367 . S
C879 C881 1.433 . S
C880 C876 1.350 . S
C880 C877 1.463 . S
C880 N884 1.427 . S
C881 H871 0.929 . S
C881 C879 1.433 . S
C881 N884 1.384 . S
C882 H873 0.929 . S
C882 C874 1.378 . S
C882 C877 1.350 . S
C883 H870 0.929 . S
C883 C875 1.433 . S
C883 N885 1.384 . S
N884 C880 1.427 . S
N884 C881 1.384 . S
N885 C877 1.427 . S
N885 C883 1.384 . S
H886 C892 0.930 . S
H887 C896 0.930 . S
H888 C901 0.929 . S
H889 C899 0.929 . S
H890 C894 0.929 . S
H891 C900 0.929 . S
C892 H886 0.930 . S
C892 C893 1.367 . S
C892 C900 1.378 . S
C893 C892 1.367 . S
C893 C901 1.433 . S
C894 H890 0.929 . S
C894 C896 1.378 . S
C894 C898 1.350 . S
C895 C898 1.463 . S
C895 C900 1.350 . S
C895 N903 1.427 . S
C896 H887 0.930 . S
C896 C894 1.378 . S
C896 C897 1.367 . S
C897 C896 1.367 . S
C897 C899 1.433 . S
C898 C894 1.350 . S
C898 C895 1.463 . S
C898 N902 1.427 . S
C899 H889 0.929 . S
C899 C897 1.433 . S
C899 N902 1.384 . S
C900 H891 0.929 . S
C900 C892 1.378 . S
C900 C895 1.350 . S
C901 H888 0.929 . S
C901 C893 1.433 . S
C901 N903 1.384 . S
N902 C898 1.427 . S
N902 C899 1.384 . S
N903 C895 1.427 . S
N903 C901 1.384 . S
C479 C255 2.163 1_545 S
C483 C322 2.346 1_545 S
C501 C362 2.367 . S
C497 C294 2.156 . S
C519 C402 2.353 . S
C515 C177 2.177 . S
C537 C442 2.356 1_455 S
C533 C216 2.178 1_455 S
C555 C331 2.348 1_565 S
C551 C99 2.174 . S
C569 C138 2.150 . S
C573 C371 2.365 . S
C587 C21 2.169 . S
C591 C411 2.355 . S
C605 C60 2.184 . S
C609 C451 2.358 1_655 S
C627 C328 0.473 . S
C623 C196 0.456 1_455 S
C645 C368 0.462 . S
C641 C235 0.462 1_545 S
C663 C408 0.454 . S
C659 C289 0.455 . S
C677 C157 0.420 . S
C681 C448 0.436 . S
C695 C40 0.453 . S
C699 C319 0.470 . S
C717 C359 0.438 . S
C713 C79 0.414 . S
C735 C399 0.460 . S
C731 C133 0.452 . S
C749 C1 0.442 . S
C753 C439 0.449 . S
C767 C211 2.840 . S
C771 C323 3.231 . S
C785 C250 2.815 . S
C789 C363 3.225 . S
C807 C403 3.232 . S
C803 C274 2.840 . S
C825 C443 3.232 . S
C821 C172 2.824 . S
C839 C55 2.839 1_655 S
C843 C314 3.246 . S
C861 C354 3.229 . S
C857 C94 2.820 1_565 S
C879 C394 3.228 . S
C875 C118 2.828 . S
C893 C16 2.824 . S
C897 C434 3.237 . S
