# Generated by pormake.
# Topology zzz, (3,6)-cn, num edge types: 1
# Building blocks:
#     Node 0, Type 0, BuildingBlock: PAMTOO_clean_linker_0, # of connection points: 3
#     Node 1, Type 0, BuildingBlock: PAMTOO_clean_linker_0, # of connection points: 3
#     Node 2, Type 0, BuildingBlock: PAMTOO_clean_linker_0, # of connection points: 3
#     Node 3, Type 0, BuildingBlock: PAMTOO_clean_linker_0, # of connection points: 3
#     Node 4, Type 0, BuildingBlock: PAMTOO_clean_linker_0, # of connection points: 3
#     Node 5, Type 0, BuildingBlock: PAMTOO_clean_linker_0, # of connection points: 3
#     Node 6, Type 0, BuildingBlock: PAMTOO_clean_linker_0, # of connection points: 3
#     Node 7, Type 0, BuildingBlock: PAMTOO_clean_linker_0, # of connection points: 3
#     Node 8, Type 1, BuildingBlock: FUNLAD_clean_sbu_0, # of connection points: 6
#     Node 9, Type 1, BuildingBlock: FUNLAD_clean_sbu_0, # of connection points: 6
#     Node 10, Type 1, BuildingBlock: FUNLAD_clean_sbu_0, # of connection points: 6
#     Node 11, Type 1, BuildingBlock: FUNLAD_clean_sbu_0, # of connection points: 6
#     Edge 12, Type (0, 1), BuildingBlock: ZUJKAS_clean_linker_0, # of connection points: 2
#     Edge 13, Type (0, 1), BuildingBlock: ZUJKAS_clean_linker_0, # of connection points: 2
#     Edge 14, Type (0, 1), BuildingBlock: ZUJKAS_clean_linker_0, # of connection points: 2
#     Edge 15, Type (0, 1), BuildingBlock: ZUJKAS_clean_linker_0, # of connection points: 2
#     Edge 16, Type (0, 1), BuildingBlock: ZUJKAS_clean_linker_0, # of connection points: 2
#     Edge 17, Type (0, 1), BuildingBlock: ZUJKAS_clean_linker_0, # of connection points: 2
#     Edge 18, Type (0, 1), BuildingBlock: ZUJKAS_clean_linker_0, # of connection points: 2
#     Edge 19, Type (0, 1), BuildingBlock: ZUJKAS_clean_linker_0, # of connection points: 2
#     Edge 20, Type (0, 1), BuildingBlock: ZUJKAS_clean_linker_0, # of connection points: 2
#     Edge 21, Type (0, 1), BuildingBlock: ZUJKAS_clean_linker_0, # of connection points: 2
#     Edge 22, Type (0, 1), BuildingBlock: ZUJKAS_clean_linker_0, # of connection points: 2
#     Edge 23, Type (0, 1), BuildingBlock: ZUJKAS_clean_linker_0, # of connection points: 2
#     Edge 24, Type (0, 1), BuildingBlock: ZUJKAS_clean_linker_0, # of connection points: 2
#     Edge 25, Type (0, 1), BuildingBlock: ZUJKAS_clean_linker_0, # of connection points: 2
#     Edge 26, Type (0, 1), BuildingBlock: ZUJKAS_clean_linker_0, # of connection points: 2
#     Edge 27, Type (0, 1), BuildingBlock: ZUJKAS_clean_linker_0, # of connection points: 2
#     Edge 28, Type (0, 1), BuildingBlock: ZUJKAS_clean_linker_0, # of connection points: 2
#     Edge 29, Type (0, 1), BuildingBlock: ZUJKAS_clean_linker_0, # of connection points: 2
#     Edge 30, Type (0, 1), BuildingBlock: ZUJKAS_clean_linker_0, # of connection points: 2
#     Edge 31, Type (0, 1), BuildingBlock: ZUJKAS_clean_linker_0, # of connection points: 2
#     Edge 32, Type (0, 1), BuildingBlock: ZUJKAS_clean_linker_0, # of connection points: 2
#     Edge 33, Type (0, 1), BuildingBlock: ZUJKAS_clean_linker_0, # of connection points: 2
#     Edge 34, Type (0, 1), BuildingBlock: ZUJKAS_clean_linker_0, # of connection points: 2
#     Edge 35, Type (0, 1), BuildingBlock: ZUJKAS_clean_linker_0, # of connection points: 2
# Relax obj value: 0.124
# Max RMSD: 0.176
# Mean RMSD: 0.088
data_MOF--net-zzz--node1-FUNLAD_clean_sbu_0--node2-PAMTOO_clean_linker_0--edge1-ZUJKAS_clean_linker_0
_symmetry_space_group_name_H-M    P1
_symmetry_Int_Tables_number       1
_symmetry_cell_setting            triclinic
loop_
_symmetry_equiv_pos_as_xyz
'x, y, z'
_cell_length_a     65.826246
_cell_length_b     71.533179
_cell_length_c     22.338294
_cell_angle_alpha  86.244982
_cell_angle_beta   85.885544
_cell_angle_gamma 90.031082
loop_
_atom_site_label
_atom_site_type_symbol
_atom_site_fract_x
_atom_site_fract_y
_atom_site_fract_z
_atom_type_partial_charge
H0 H 0.8346 0.48605 0.23419 0.0
H1 H 0.78054 0.48787 0.13591 0.0
H2 H 0.77976 0.5103 0.30983 0.0
H3 H 0.73465 0.49709 0.27769 0.0
C4 C 0.742 0.49288 0.23429 0.0
O5 O 0.75837 0.50461 0.21751 0.0
H6 H 0.74692 0.47805 0.24171 0.0
C7 C 0.81854 0.48909 0.2314 0.0
C8 C 0.80822 0.49793 0.27868 0.0
C9 C 0.80891 0.4854 0.17927 0.0
C10 C 0.7884 0.49051 0.17551 0.0
C11 C 0.77789 0.4993 0.2227 0.0
C12 C 0.78784 0.50318 0.27404 0.0
H13 H 0.99113 0.82281 0.14296 0.0
H14 H 0.98938 0.77529 0.03485 0.0
H15 H 0.95326 0.77537 0.20332 0.0
H16 H 0.96315 0.73494 0.17822 0.0
C17 C 0.97301 0.73994 0.13786 0.0
O18 O 0.9643 0.75565 0.11117 0.0
H19 H 0.98819 0.74327 0.15384 0.0
C20 C 0.98585 0.80874 0.13674 0.0
C21 C 0.97182 0.80004 0.1798 0.0
C22 C 0.99213 0.80011 0.08404 0.0
C23 C 0.98467 0.78218 0.0753 0.0
C24 C 0.97094 0.77315 0.11885 0.0
C25 C 0.96413 0.78227 0.17039 0.0
H26 H 0.68793 0.00311 0.14882 0.0
H27 H 0.74352 1.00177 0.03593 0.0
H28 H 0.74511 0.99502 0.22876 0.0
H29 H 0.78378 0.0149 0.16674 0.0
C30 C 0.7805 0.01151 0.12051 0.0
O31 O 0.76728 0.99637 0.12462 0.0
H32 H 0.77343 0.02407 0.09852 0.0
C33 C 0.70439 1.00179 0.14413 0.0
C34 C 0.71522 0.99913 0.1956 0.0
C35 C 0.71441 0.00271 0.08668 0.0
C36 C 0.73565 1.0011 0.08033 0.0
C37 C 0.74679 0.99833 0.13148 0.0
C38 C 0.73654 0.99722 0.18931 0.0
H39 H 0.50462 0.66271 0.15759 0.0
H40 H 0.5109 0.71304 0.04153 0.0
H41 H 0.53418 0.71118 0.217 0.0
H42 H 0.52032 0.75019 0.18403 0.0
C43 C 0.51618 0.74677 0.1386 0.0
O44 O 0.52855 0.73247 0.11901 0.0
H45 H 0.49987 0.74236 0.14306 0.0
C46 C 0.5095 0.67722 0.14998 0.0
C47 C 0.5196 0.68573 0.19431 0.0
C48 C 0.50645 0.68684 0.09475 0.0
C49 C 0.51325 0.70542 0.08398 0.0
C50 C 0.52294 0.71427 0.12848 0.0
C51 C 0.52651 0.70431 0.18309 0.0
H52 H 0.18449 0.4994 0.1927 0.0
H53 H 0.24176 0.5176 0.2509 0.0
H54 H 0.23814 0.50064 0.07072 0.0
H55 H 0.28717 0.49896 0.11187 0.0
C56 C 0.27684 0.49809 0.1535 0.0
O57 O 0.26254 0.51216 0.14896 0.0
H58 H 0.26946 0.48399 0.15606 0.0
C59 C 0.20076 0.50169 0.18396 0.0
C60 C 0.20995 0.49882 0.12679 0.0
C61 C 0.21198 0.50868 0.22871 0.0
C62 C 0.23288 0.51224 0.21671 0.0
C63 C 0.24235 0.50897 0.16013 0.0
C64 C 0.23081 0.50269 0.11477 0.0
H65 H 0.05397 0.17883 0.26797 0.0
H66 H 0.03798 0.22928 0.35492 0.0
H67 H 0.0618 0.23235 0.16994 0.0
H68 H 0.07302 0.26851 0.22749 0.0
C69 C 0.06586 0.26279 0.27146 0.0
O70 O 0.04927 0.25189 0.26133 0.0
H71 H 0.07765 0.25426 0.29401 0.0
C72 C 0.05323 0.19401 0.26702 0.0
C73 C 0.05912 0.20451 0.21357 0.0
C74 C 0.04536 0.2027 0.31807 0.0
C75 C 0.04388 0.22231 0.31575 0.0
C76 C 0.05017 0.233 0.2627 0.0
C77 C 0.05737 0.22407 0.21117 0.0
H78 H 0.3294 0.99827 0.2413 0.0
H79 H 0.27381 0.99722 0.35469 0.0
H80 H 0.27213 0.00748 0.16275 0.0
H81 H 0.23857 0.02906 0.23698 0.0
C82 C 0.24045 0.02069 0.27993 0.0
O83 O 0.24996 0.00403 0.26689 0.0
H84 H 0.24996 0.02895 0.30806 0.0
C85 C 0.31292 0.99935 0.2462 0.0
C86 C 0.30206 0.00275 0.19504 0.0
C87 C 0.30294 0.9975 0.30365 0.0
C88 C 0.28167 0.9987 0.31031 0.0
C89 C 0.27051 0.00252 0.25964 0.0
C90 C 0.28074 0.00466 0.20185 0.0
H91 H 0.51822 0.34142 0.22583 0.0
H92 H 0.51495 0.29128 0.34315 0.0
H93 H 0.4919 0.29116 0.16767 0.0
H94 H 0.46964 0.26199 0.2571 0.0
C95 C 0.48019 0.26402 0.2928 0.0
O96 O 0.49866 0.27061 0.26645 0.0
H97 H 0.47319 0.27437 0.32317 0.0
C98 C 0.51434 0.32667 0.23369 0.0
C99 C 0.5048 0.31747 0.18967 0.0
C100 C 0.51794 0.31743 0.28911 0.0
C101 C 0.51224 0.29858 0.30043 0.0
C102 C 0.5031 0.28906 0.25634 0.0
C103 C 0.49914 0.29855 0.20129 0.0
C104 C 0.02046 0.96879 0.75248 0.0
N105 N 0.99065 0.97965 0.59543 0.0
C106 C 1.00322 0.96634 0.57277 0.0
C107 C 0.99603 0.95339 0.53538 0.0
C108 C 0.97558 0.95388 0.52155 0.0
C109 C 0.96295 0.96796 0.54444 0.0
C110 C 0.97089 0.98087 0.58126 0.0
Zn111 Zn 1.00192 0.9954 0.65919 0.0
C112 C 0.97135 0.99955 0.76341 0.0
N113 N 0.02669 0.0247 0.79786 0.0
C114 C 0.04653 0.02383 0.81136 0.0
C115 C 0.0139 0.03776 0.82106 0.0
C116 C 0.02098 0.0509 0.85797 0.0
C117 C 0.04152 0.05082 0.871 0.0
C118 C 0.05433 0.03689 0.84791 0.0
Zn119 Zn 0.01563 0.00893 0.73393 0.0
O120 O 0.01069 0.97018 0.70535 0.0
C121 C 0.04622 0.00485 0.62983 0.0
O122 O 0.02542 0.98359 0.77666 0.0
H123 H 0.99832 0.03855 0.80887 0.0
H124 H 0.01871 0.96522 0.58563 0.0
H125 H 0.05649 0.01342 0.79216 0.0
O126 O 0.03097 0.99711 0.60955 0.0
O127 O 0.04415 0.01152 0.68133 0.0
H128 H 0.96109 0.99146 0.60005 0.0
O129 O 1.00559 0.03394 0.69049 0.0
O130 O 0.99347 0.02098 0.6139 0.0
O131 O 0.98701 0.00606 0.7852 0.0
O132 O 0.973 0.99405 0.71025 0.0
C133 C 0.99706 0.03555 0.64124 0.0
H134 H 0.00619 0.94256 0.51964 0.0
H135 H 0.94709 0.9688 0.53464 0.0
H136 H 0.01065 0.06158 0.87386 0.0
H137 H 0.07024 0.03628 0.85722 0.0
C138 C 0.47899 0.99298 0.62206 0.0
N139 N 0.50575 0.04501 0.64659 0.0
C140 C 0.50519 0.04808 0.58597 0.0
C141 C 0.50386 0.06625 0.55981 0.0
C142 C 0.50319 0.08158 0.59616 0.0
C143 C 0.50378 0.07801 0.65872 0.0
C144 C 0.50505 0.05954 0.68309 0.0
Zn145 Zn 0.50767 0.01777 0.68116 0.0
C146 C 0.47681 0.00831 0.78221 0.0
N147 N 0.5113 0.96024 0.74587 0.0
C148 C 0.51305 0.94579 0.7091 0.0
C149 C 0.51119 0.95712 0.80665 0.0
C150 C 0.51302 0.93898 0.83266 0.0
C151 C 0.515 0.92377 0.79596 0.0
C152 C 0.51489 0.92736 0.73331 0.0
Zn153 Zn 0.50928 0.98746 0.71142 0.0
O154 O 0.48527 0.00971 0.62438 0.0
C155 C 0.54005 0.99696 0.61007 0.0
O156 O 0.48705 0.97988 0.65336 0.0
H157 H 0.50974 0.96876 0.83517 0.0
H158 H 0.50574 0.03636 0.55767 0.0
H159 H 0.51316 0.94858 0.6609 0.0
O160 O 0.53153 0.01281 0.61472 0.0
O161 O 0.53347 0.98308 0.64466 0.0
H162 H 0.50553 0.05681 0.73117 0.0
O163 O 0.53135 0.99549 0.76899 0.0
O164 O 0.53021 0.02526 0.7387 0.0
O165 O 0.48513 0.99239 0.77715 0.0
O166 O 0.48369 0.02225 0.7484 0.0
C167 C 0.53791 0.01214 0.77085 0.0
H168 H 0.50308 0.06822 0.51156 0.0
H169 H 0.50353 0.08936 0.68852 0.0
H170 H 0.51266 0.93689 0.88118 0.0
H171 H 0.51655 0.9161 0.70325 0.0
C172 C 0.52266 0.47498 0.62427 0.0
N173 N 0.46578 0.50133 0.63829 0.0
C174 C 0.46743 0.50068 0.57739 0.0
C175 C 0.45009 0.50021 0.54526 0.0
C176 C 0.43072 0.50055 0.57576 0.0
C177 C 0.42936 0.50147 0.63859 0.0
C178 C 0.44721 0.50175 0.66922 0.0
Zn179 Zn 0.49252 0.50196 0.68021 0.0
C180 C 0.495 0.47374 0.78077 0.0
N181 N 0.55028 0.50331 0.75619 0.0
C182 C 0.56878 0.5034 0.72476 0.0
C183 C 0.54876 0.50355 0.81721 0.0
C184 C 0.56618 0.504 0.849 0.0
C185 C 0.5855 0.50414 0.81797 0.0
C186 C 0.5867 0.50374 0.75496 0.0
Zn187 Zn 0.52354 0.50266 0.71447 0.0
O188 O 0.50457 0.48119 0.62484 0.0
C189 C 0.52115 0.53081 0.61379 0.0
O190 O 0.53514 0.48184 0.6579 0.0
H191 H 0.53394 0.50332 0.84152 0.0
H192 H 0.48229 0.5006 0.55342 0.0
H193 H 0.56965 0.5032 0.67626 0.0
O194 O 0.50341 0.52361 0.61654 0.0
O195 O 0.53391 0.52443 0.65005 0.0
H196 H 0.44623 0.5023 0.71761 0.0
O197 O 0.51145 0.52336 0.77028 0.0
O198 O 0.48099 0.52284 0.73641 0.0
O199 O 0.51271 0.48097 0.77782 0.0
O200 O 0.48213 0.48014 0.74486 0.0
C201 C 0.49339 0.52963 0.77041 0.0
H202 H 0.45185 0.49984 0.49676 0.0
H203 H 0.41469 0.50171 0.66378 0.0
H204 H 0.56452 0.50395 0.8976 0.0
H205 H 0.6013 0.50392 0.72929 0.0
C206 C 0.03953 0.51798 0.60797 0.0
N207 N 0.01574 0.46345 0.63681 0.0
C208 C 0.01719 0.46299 0.57587 0.0
C209 C 0.02005 0.44603 0.54895 0.0
C210 C 0.02134 0.42927 0.58496 0.0
C211 C 0.0197 0.43016 0.64784 0.0
C212 C 0.01692 0.44747 0.67291 0.0
Zn213 Zn 0.0119 0.48883 0.67367 0.0
C214 C 0.04102 0.49481 0.7667 0.0
N215 N 1.00454 0.54249 0.74645 0.0
C216 C 1.00168 0.55837 0.71108 0.0
C217 C 1.00442 0.54293 0.80726 0.0
C218 C 1.00123 0.55973 0.83483 0.0
C219 C 0.99799 0.57633 0.79966 0.0
C220 C 0.99836 0.57551 0.73686 0.0
Zn221 Zn 0.00846 0.51717 0.70934 0.0
O222 O 0.03427 0.50084 0.61041 0.0
C223 C 0.97928 0.51128 0.61665 0.0
O224 O 0.03065 0.5289 0.64405 0.0
H225 H 0.00672 0.53018 0.83463 0.0
H226 H 0.01624 0.47585 0.54793 0.0
H227 H 1.00179 0.5577 0.66283 0.0
O228 O 0.98867 0.49577 0.61523 0.0
O229 O 0.98459 0.52334 0.65197 0.0
H230 H 0.01571 0.44814 0.72126 0.0
O231 O 0.98672 0.50496 0.77455 0.0
O232 O 0.98922 0.47729 0.73743 0.0
O233 O 0.03208 0.51055 0.76573 0.0
O234 O 0.03533 0.48234 0.73327 0.0
C235 C 0.98108 0.48794 0.77555 0.0
H236 H 0.02156 0.44613 0.50034 0.0
H237 H 0.02035 0.41761 0.67746 0.0
H238 H 1.00145 0.5597 0.88325 0.0
H239 H 0.99575 0.5879 0.70798 0.0
H240 H 0.20973 0.04574 0.2918 0.0
H241 H 0.17716 0.04241 0.35175 0.0
H242 H 0.19213 0.98535 0.4056 0.0
H243 H 0.22506 0.98889 0.34759 0.0
H244 H 0.14521 0.02046 0.34512 0.0
H245 H 0.1767 0.00496 0.56628 0.0
H246 H 0.19246 0.01285 0.50008 0.0
H247 H 0.18488 0.98863 0.51202 0.0
C248 C 0.20599 0.03245 0.3162 0.0
C249 C 0.21983 0.01751 0.31395 0.0
C250 C 0.18739 0.03056 0.35055 0.0
C251 C 0.18218 0.0137 0.38398 0.0
C252 C 0.1959 0.99864 0.38135 0.0
H253 H 0.05743 0.98725 0.52743 0.0
H254 H 0.09019 0.98897 0.46843 0.0
C255 C 0.21465 1.0006 0.34742 0.0
C256 C 0.16233 0.01199 0.42084 0.0
H257 H 0.14091 1.00142 0.56314 0.0
C258 C 0.14431 0.01632 0.39283 0.0
C259 C 0.16106 0.00689 0.4834 0.0
C260 C 0.17981 0.00326 0.5174 0.0
C261 C 0.12516 0.0156 0.42526 0.0
C262 C 0.12382 0.00983 0.48735 0.0
C263 C 0.14184 0.00564 0.51549 0.0
C264 C 0.10394 0.0084 0.52412 0.0
C265 C 0.10665 0.02155 0.39283 0.0
C266 C 0.10087 0.01818 0.57659 0.0
C267 C 0.0822 0.01698 0.61109 0.0
C268 C 0.06615 0.006 0.59381 0.0
C269 C 0.06935 0.99603 0.5417 0.0
C270 C 0.08807 0.99709 0.50761 0.0
H271 H 0.11085 0.03078 0.35185 0.0
H272 H 0.09897 0.00895 0.37852 0.0
H273 H 0.09563 0.02911 0.42241 0.0
H274 H 0.11287 0.02693 0.59059 0.0
H275 H 0.08031 0.0248 0.65101 0.0
H276 H 0.49876 0.23253 0.25226 0.0
H277 H 0.503 0.20211 0.30761 0.0
H278 H 0.472 0.22329 0.46564 0.0
H279 H 0.46784 0.25372 0.41063 0.0
H280 H 0.52262 0.19513 0.42227 0.0
H281 H 0.44102 0.17384 0.43521 0.0
H282 H 0.45155 0.19176 0.38102 0.0
H283 H 0.44642 0.19685 0.45823 0.0
C284 C 0.49297 0.23067 0.2989 0.0
C285 C 0.48314 0.24549 0.32735 0.0
C286 C 0.49537 0.21334 0.33039 0.0
C287 C 0.48769 0.21044 0.39054 0.0
C288 C 0.47786 0.2252 0.41907 0.0
H289 H 0.48106 0.11102 0.63946 0.0
H290 H 0.47833 0.14274 0.59271 0.0
C291 C 0.47557 0.24258 0.38772 0.0
C292 C 0.49008 0.19199 0.42351 0.0
H293 H 0.46344 0.15371 0.48595 0.0
C294 C 0.50971 0.18604 0.43622 0.0
C295 C 0.47318 0.18027 0.44195 0.0
C296 C 0.45183 0.18585 0.42819 0.0
C297 C 0.51289 0.1687 0.46736 0.0
C298 C 0.49602 0.15677 0.48484 0.0
C299 C 0.47636 0.16284 0.47257 0.0
C300 C 0.49844 0.13775 0.51449 0.0
C301 C 0.53425 0.1635 0.48219 0.0
C302 C 0.51058 0.12434 0.48605 0.0
C303 C 0.51237 0.10627 0.51299 0.0
C304 C 0.50183 0.10109 0.56869 0.0
C305 C 0.48964 0.11456 0.59705 0.0
C306 C 0.48793 0.13268 0.57015 0.0
H307 H 0.54407 0.17612 0.4829 0.0
H308 H 0.5343 0.15551 0.5265 0.0
H309 H 0.54112 0.15463 0.44723 0.0
H310 H 0.51848 0.12776 0.44251 0.0
H311 H 0.52207 0.09638 0.49006 0.0
H312 H 0.29764 0.52915 0.18157 0.0
H313 H 0.32101 0.53163 0.26163 0.0
H314 H 0.3083 0.47406 0.32256 0.0
H315 H 0.28463 0.47171 0.24359 0.0
H316 H 0.31107 0.49731 0.41724 0.0
H317 H 0.37705 0.50733 0.2485 0.0
H318 H 0.3572 0.52433 0.2406 0.0
H319 H 0.35227 0.50018 0.22868 0.0
C320 C 0.29962 0.51717 0.2128 0.0
C321 C 0.28933 0.50027 0.20662 0.0
C322 C 0.31305 0.51854 0.25815 0.0
C323 C 0.31664 0.50293 0.29744 0.0
C324 C 0.30578 0.48627 0.2927 0.0
H325 H 0.42337 0.47784 0.48633 0.0
H326 H 0.39453 0.47876 0.42325 0.0
C327 C 0.29229 0.48492 0.24757 0.0
C328 C 0.33254 0.50354 0.34121 0.0
H329 H 0.38378 0.50859 0.35033 0.0
C330 C 0.32697 0.49985 0.40276 0.0
C331 C 0.3533 0.5066 0.32206 0.0
C332 C 0.36041 0.50967 0.25636 0.0
C333 C 0.34164 0.49908 0.44565 0.0
C334 C 0.36237 0.50235 0.42646 0.0
C335 C 0.36787 0.50618 0.36499 0.0
C336 C 0.37885 0.501 0.46856 0.0
C337 C 0.33492 0.4942 0.51079 0.0
C338 C 0.37954 0.51306 0.51559 0.0
C339 C 0.39604 0.5125 0.55199 0.0
C340 C 0.41224 0.50006 0.54139 0.0
C341 C 0.41125 0.48775 0.49513 0.0
C342 C 0.39475 0.48823 0.45914 0.0
H343 H 0.31947 0.48777 0.51601 0.0
H344 H 0.34577 0.48438 0.53192 0.0
H345 H 0.33446 0.50716 0.53555 0.0
H346 H 0.36765 0.52328 0.52299 0.0
H347 H 0.39649 0.52229 0.58687 0.0
H348 H 0.07584 0.26954 0.38548 0.0
H349 H 0.06658 0.29665 0.44331 0.0
H350 H 0.03185 0.31916 0.29892 0.0
H351 H 0.04114 0.29203 0.24088 0.0
H352 H 0.07546 0.33494 0.40303 0.0
H353 H 0.99251 0.32208 0.45202 0.0
H354 H 0.01 0.30387 0.43017 0.0
H355 H 1.00166 0.32089 0.37459 0.0
C356 C 0.06609 0.28021 0.36639 0.0
C357 C 0.05919 0.27878 0.30876 0.0
C358 C 0.06082 0.29566 0.39939 0.0
C359 C 0.04838 0.3098 0.37562 0.0
C360 C 0.0412 0.30824 0.31846 0.0
H361 H 1.00495 0.41739 0.48441 0.0
H362 H 0.01184 0.38828 0.43541 0.0
C363 C 0.04655 0.29284 0.28531 0.0
C364 C 0.0439 0.32671 0.40913 0.0
H365 H 1.0052 0.35156 0.47556 0.0
C366 C 0.06013 0.33854 0.4193 0.0
C367 C 0.02387 0.33137 0.42991 0.0
C368 C 0.00598 0.31884 0.42167 0.0
C369 C 0.05683 0.35517 0.44853 0.0
C370 C 0.03678 0.35986 0.46947 0.0
C371 C 0.02056 0.34794 0.45959 0.0
C372 C 0.0323 0.37728 0.50053 0.0
C373 C 0.07477 0.36785 0.45495 0.0
C374 C 0.04122 0.38064 0.55405 0.0
C375 C 0.03754 0.39741 0.58179 0.0
C376 C 0.02466 0.41108 0.5569 0.0
C377 C 0.01527 0.40738 0.5042 0.0
C378 C 0.01905 0.39066 0.47638 0.0
H379 H 0.08784 0.36487 0.42274 0.0
H380 H 0.07057 0.38282 0.44763 0.0
H381 H 0.0799 0.36559 0.5011 0.0
H382 H 0.05116 0.37035 0.57422 0.0
H383 H 0.04513 0.39979 0.62205 0.0
H384 H 0.81999 0.01563 0.14994 0.0
H385 H 0.85146 0.01153 0.08678 0.0
H386 H 0.81634 0.99416 0.9442 0.0
H387 H 0.78476 0.99867 0.00702 0.0
H388 H 0.86805 0.98084 0.03417 0.0
H389 H 0.85099 0.03604 0.85864 0.0
H390 H 0.83646 0.03331 0.9303 0.0
H391 H 0.83192 0.01801 0.87188 0.0
C392 C 0.81901 0.01079 0.1053 0.0
C393 C 0.79994 0.0073 0.08356 0.0
C394 C 0.837 0.00847 0.06919 0.0
C395 C 0.83632 0.00279 0.01033 0.0
C396 C 0.81729 0.99891 0.98896 0.0
H397 H 0.93417 0.98854 0.72891 0.0
H398 H 0.9013 0.98805 0.78814 0.0
C399 C 0.79926 1.00129 0.02505 0.0
C400 C 0.85557 1.00112 0.97157 0.0
H401 H 0.8809 0.01839 0.84044 0.0
C402 C 0.87084 0.98905 0.9918 0.0
C403 C 0.85925 0.01181 0.91614 0.0
C404 C 0.8439 0.02565 0.89306 0.0
C405 C 0.88959 0.98735 0.95824 0.0
C406 C 0.89336 0.99821 0.90328 0.0
C407 C 0.87799 0.01005 0.8825 0.0
C408 C 0.9134 0.99803 0.8678 0.0
C409 C 0.90516 0.9738 0.98169 0.0
C410 C 0.93112 0.00397 0.89259 0.0
C411 C 0.9499 0.00431 0.85888 0.0
C412 C 0.95141 0.99875 0.79941 0.0
C413 C 0.93361 0.99283 0.7746 0.0
C414 C 0.91479 0.99256 0.80837 0.0
H415 H 0.89805 0.963 0.0147 0.0
H416 H 0.9133 0.96667 0.9444 0.0
H417 H 0.91656 0.98161 0.00471 0.0
H418 H 0.93039 0.00861 0.93787 0.0
H419 H 0.96323 0.00906 0.87939 0.0
H420 H 0.53736 0.77929 0.14988 0.0
H421 H 0.53861 0.80782 0.08241 0.0
H422 H 0.50182 0.78068 0.96105 0.0
H423 H 0.50036 0.75219 0.029 0.0
H424 H 0.55205 0.81441 0.95954 0.0
H425 H 0.46917 0.82793 -0.00026 0.0
H426 H 0.48258 0.8113 0.04653 0.0
H427 H 0.47556 0.80526 0.97394 0.0
C428 C 0.52963 0.77944 0.10866 0.0
C429 C 0.51845 0.76373 0.09497 0.0
C430 C 0.53037 0.79569 0.07015 0.0
C431 C 0.51997 0.79649 0.01732 0.0
C432 C 0.50958 0.7805 0.00222 0.0
H433 H 0.49728 0.89146 0.76409 0.0
H434 H 0.49973 0.85985 0.81222 0.0
C435 C 0.50883 0.76424 0.04077 0.0
C436 C 0.51955 0.81426 0.97916 0.0
H437 H 0.4877 0.84877 0.93009 0.0
C438 C 0.53798 0.82191 0.95291 0.0
C439 C 0.50117 0.82401 0.97054 0.0
C440 C 0.48099 0.81684 0.99949 0.0
C441 C 0.53853 0.83905 0.9182 0.0
C442 C 0.5202 0.84896 0.91051 0.0
C443 C 0.50173 0.84114 0.9359 0.0
C444 C 0.51986 0.86784 0.87871 0.0
C445 C 0.55873 0.84629 0.88969 0.0
C446 C 0.53032 0.88285 0.90013 0.0
C447 C 0.52904 0.90088 0.87259 0.0
C448 C 0.51711 0.90436 0.82324 0.0
C449 C 0.50679 0.88925 0.80149 0.0
C450 C 0.50808 0.8712 0.82916 0.0
H451 H 0.56994 0.83481 0.88443 0.0
H452 H 0.55696 0.85354 0.84487 0.0
H453 H 0.56506 0.85647 0.91894 0.0
H454 H 0.53917 0.8807 0.93902 0.0
H455 H 0.53735 0.91213 0.89014 0.0
H456 H 0.70842 0.51534 0.22739 0.0
H457 H 0.68426 0.51743 0.14849 0.0
H458 H 0.7189 0.47635 0.05205 0.0
H459 H 0.7429 0.47405 0.13147 0.0
H460 H 0.69112 0.52703 0.02479 0.0
H461 H 0.66109 0.45434 0.06714 0.0
H462 H 0.67599 0.46539 0.11981 0.0
H463 H 0.68827 0.45626 0.05353 0.0
C464 C 0.71072 0.50667 0.18953 0.0
C465 C 0.72716 0.49419 0.18601 0.0
C466 C 0.69701 0.50792 0.14445 0.0
C467 C 0.69957 0.49678 0.095 0.0
C468 C 0.71637 0.48473 0.09051 0.0
H469 H 0.62041 0.48363 0.80114 0.0
H470 H 0.64991 0.48263 0.86243 0.0
C471 C 0.73007 0.48346 0.13566 0.0
C472 C 0.68462 0.49786 0.04825 0.0
H473 H 0.64871 0.47242 0.98557 0.0
C474 C 0.68188 0.51509 0.01607 0.0
C475 C 0.67266 0.48222 0.03676 0.0
C476 C 0.67446 0.46353 0.07137 0.0
C477 C 0.66739 0.51713 0.97292 0.0
C478 C 0.65511 0.50161 0.96243 0.0
C479 C 0.65818 0.48428 0.99359 0.0
C480 C 0.63813 0.5033 0.92222 0.0
C481 C 0.66542 0.53587 0.93879 0.0
C482 C 0.62177 0.51527 0.93543 0.0
C483 C 0.60499 0.5159 0.90053 0.0
C484 C 0.60412 0.50447 0.85184 0.0
C485 C 0.62071 0.49275 0.83793 0.0
C486 C 0.63751 0.49208 0.87307 0.0
H487 H 0.67957 0.54436 0.93851 0.0
H488 H 0.66188 0.53415 0.89159 0.0
H489 H 0.65282 0.54381 0.96087 0.0
H490 H 0.62174 0.52379 0.97376 0.0
H491 H 0.59255 0.52521 0.91211 0.0
H492 H 0.94313 0.71708 0.10413 0.0
H493 H 0.94693 0.69063 0.03929 0.0
H494 H 0.01122 0.70244 0.00881 0.0
H495 H 0.00746 0.72889 0.07337 0.0
H496 H 0.96497 0.6891 0.91343 0.0
H497 H 0.00594 0.64695 0.08466 0.0
H498 H 0.99074 0.66708 0.10294 0.0
H499 H 0.01555 0.67024 0.06471 0.0
C500 C 0.95801 0.71406 0.08313 0.0
C501 C 0.97508 0.72471 0.09448 0.0
C502 C 0.96016 0.69903 0.04612 0.0
C503 C 0.9794 0.69447 0.02006 0.0
C504 C 0.9963 0.70562 0.02923 0.0
H505 H 0.01219 0.61152 0.76079 0.0
H506 H 0.00688 0.64071 0.81113 0.0
C507 C 0.99414 0.72068 0.06599 0.0
C508 C 0.98196 0.67751 0.98572 0.0
H509 H 1.00267 0.63374 0.99179 0.0
C510 C 0.97324 0.67699 0.93034 0.0
C511 C 0.99258 0.66171 0.0084 0.0
C512 C 1.00164 0.66134 0.06863 0.0
C513 C 0.97504 0.66106 0.89668 0.0
C514 C 0.98588 0.64536 0.91907 0.0
C515 C 0.99446 0.64586 0.97465 0.0
C516 C 0.98813 0.62801 0.88644 0.0
C517 C 0.96502 0.66096 0.83806 0.0
C518 C 0.97942 0.61122 0.91225 0.0
C519 C 0.98232 0.59456 0.88355 0.0
C520 C 0.9942 0.5943 0.82864 0.0
C521 C 1.00274 0.61124 0.80257 0.0
C522 C 0.99975 0.62794 0.83128 0.0
H523 H 0.95398 0.6726 0.83291 0.0
H524 H 0.97688 0.66254 0.80016 0.0
H525 H 0.95698 0.64746 0.83471 0.0
H526 H 0.9704 0.61101 0.95482 0.0
H527 H 0.97522 0.58188 0.90444 0.0
H528 H 0.00809 0.20381 0.3801 0.0
H529 H 0.99328 0.17968 0.4539 0.0
H530 H 0.05037 0.15001 0.44638 0.0
H531 H 0.06522 0.17415 0.37434 0.0
H532 H 0.98842 0.14353 0.42893 0.0
H533 H 0.03491 0.14562 0.62396 0.0
H534 H 0.0347 0.1647 0.56693 0.0
H535 H 0.05105 0.1448 0.55611 0.0
C536 C 0.01762 0.19248 0.39606 0.0
C537 C 0.03776 0.19079 0.37165 0.0
C538 C 0.00913 0.17865 0.43774 0.0
C539 C 0.02077 0.16311 0.45603 0.0
C540 C 0.04121 0.16203 0.43404 0.0
H541 H 0.99777 0.04749 0.52235 0.0
H542 H 0.99866 0.08006 0.48117 0.0
C543 C 0.04966 0.17577 0.39254 0.0
C544 C 0.01123 0.14687 0.49209 0.0
H545 H 0.02009 0.11533 0.60808 0.0
C546 C 0.995 0.13756 0.469 0.0
C547 C 0.01954 0.13924 0.54488 0.0
C548 C 0.03586 0.14926 0.5747 0.0
C549 C 0.98786 0.12015 0.49488 0.0
C550 C 0.99755 0.11165 0.54414 0.0
C551 C 0.0128 0.12163 0.5697 0.0
C552 C 0.99334 0.09202 0.56761 0.0
C553 C 0.97022 0.11096 0.4685 0.0
C554 C 0.98992 0.08782 0.62976 0.0
C555 C 0.98991 0.06927 0.6533 0.0
C556 C 0.99305 0.05453 0.6151 0.0
C557 C 0.99506 0.05859 0.55266 0.0
C558 C 0.99547 0.07723 0.52912 0.0
H559 H 0.95999 0.12162 0.44842 0.0
H560 H 0.97615 0.10219 0.43202 0.0
H561 H 0.96116 0.10192 0.5029 0.0
H562 H 0.98823 0.09895 0.66037 0.0
H563 H 0.98825 0.06649 0.70169 0.0
H564 H 0.3286 0.0228 0.34147 0.0
H565 H 0.35509 0.01689 0.41162 0.0
H566 H 0.33282 0.96034 0.45044 0.0
H567 H 0.30615 0.9663 0.37961 0.0
H568 H 0.35473 0.00335 0.53649 0.0
H569 H 0.39257 0.95494 0.37773 0.0
H570 H 0.37266 0.97072 0.35555 0.0
H571 H 0.36647 0.95022 0.40403 0.0
C572 C 0.32904 0.00929 0.36636 0.0
C573 C 0.31542 0.995 0.35569 0.0
C574 C 0.34416 0.00591 0.40618 0.0
C575 C 0.34606 0.98812 0.43548 0.0
C576 C 0.33169 0.97411 0.42769 0.0
H577 H 0.45724 0.96021 0.62165 0.0
H578 H 0.42397 0.95622 0.58083 0.0
C579 C 0.3164 0.97755 0.38788 0.0
C580 C 0.36418 0.98418 0.46965 0.0
H581 H 0.41108 0.96375 0.45727 0.0
C582 C 0.3669 0.9944 0.51995 0.0
C583 C 0.38003 0.9725 0.44781 0.0
C584 C 0.37798 0.9615 0.39315 0.0
C585 C 0.3854 0.99391 0.54741 0.0
C586 C 0.40166 0.98316 0.52325 0.0
C587 C 0.39857 0.97204 0.47531 0.0
C588 C 0.42242 0.98482 0.54359 0.0
C589 C 0.38765 0.00535 0.60096 0.0
C590 C 0.43284 1.00196 0.53375 0.0
C591 C 0.45179 0.00426 0.55646 0.0
C592 C 0.46074 0.98942 0.58946 0.0
C593 C 0.45076 0.97191 0.59643 0.0
C594 C 0.43173 0.96962 0.57346 0.0
H595 H 0.37262 0.00851 0.62387 0.0
H596 H 0.39717 0.99795 0.634 0.0
H597 H 0.39523 0.01886 0.58558 0.0
H598 H 0.42605 0.01373 0.50966 0.0
H599 H 0.45909 0.01789 0.54989 0.0
H600 H 0.49969 0.32433 0.39825 0.0
H601 H 0.50876 0.34939 0.46138 0.0
H602 H 0.5637 0.36044 0.34725 0.0
H603 H 0.55422 0.33586 0.28281 0.0
H604 H 0.54076 0.36063 0.52521 0.0
H605 H 0.53174 0.4084 0.32219 0.0
H606 H 0.52499 0.38393 0.32534 0.0
H607 H 0.55124 0.39108 0.31346 0.0
C608 C 0.51401 0.33173 0.38793 0.0
C609 C 0.52621 0.32837 0.33567 0.0
C610 C 0.51916 0.34606 0.42382 0.0
C611 C 0.53664 0.35708 0.40804 0.0
C612 C 0.54991 0.3524 0.35935 0.0
H613 H 0.55784 0.45419 0.62344 0.0
H614 H 0.56498 0.42565 0.57031 0.0
C615 C 0.54459 0.33829 0.32292 0.0
C616 C 0.53941 0.37478 0.43758 0.0
H617 H 0.53841 0.42231 0.4107 0.0
C618 C 0.54053 0.37414 0.50021 0.0
C619 C 0.53882 0.39239 0.40477 0.0
C620 C 0.53645 0.3941 0.33785 0.0
C621 C 0.54046 0.39063 0.53117 0.0
C622 C 0.53961 0.40818 0.49833 0.0
C623 C 0.53925 0.40882 0.43556 0.0
C624 C 0.53633 0.4259 0.52837 0.0
C625 C 0.54017 0.38914 0.59892 0.0
C626 C 0.51824 0.43581 0.52061 0.0
C627 C 0.51424 0.4521 0.55015 0.0
C628 C 0.52826 0.45889 0.58822 0.0
C629 C 0.54673 0.4493 0.59447 0.0
C630 C 0.55075 0.43292 0.56464 0.0
H631 H 0.53748 0.37454 0.61794 0.0
H632 H 0.55505 0.39393 0.61284 0.0
H633 H 0.52815 0.39825 0.61867 0.0
H634 H 0.50695 0.43069 0.4926 0.0
H635 H 0.49989 0.45914 0.5441 0.0
H636 H 0.18799 0.48579 0.30534 0.0
H637 H 0.16298 0.49544 0.38345 0.0
H638 H 0.18531 0.55228 0.35637 0.0
H639 H 0.21048 0.5426 0.27778 0.0
H640 H 0.16419 0.51668 0.49282 0.0
H641 H 0.12496 0.55258 0.30426 0.0
H642 H 0.14476 0.53561 0.29088 0.0
H643 H 0.15116 0.55843 0.31277 0.0
C644 C 0.18797 0.50021 0.31746 0.0
C645 C 0.20101 0.51349 0.28558 0.0
C646 C 0.17372 0.50571 0.36199 0.0
C647 C 0.17217 0.5246 0.37496 0.0
C648 C 0.18624 0.53766 0.34659 0.0
H649 H 0.06415 0.54834 0.61823 0.0
H650 H 0.09739 0.55495 0.56353 0.0
C651 C 0.20067 0.53211 0.30217 0.0
C652 C 0.15413 0.53059 0.41196 0.0
H653 H 0.10624 0.54783 0.39713 0.0
C654 C 0.15171 0.52401 0.47259 0.0
C655 C 0.13785 0.53998 0.38495 0.0
C656 C 0.13961 0.54704 0.31959 0.0
C657 C 0.13299 0.52566 0.50603 0.0
C658 C 0.11639 0.53399 0.47785 0.0
C659 C 0.11913 0.54158 0.41842 0.0
C660 C 0.09547 0.53196 0.50594 0.0
C661 C 0.13055 0.51728 0.5699 0.0
C662 C 0.08332 0.51724 0.49012 0.0
C663 C 0.06452 0.51339 0.5212 0.0
C664 C 0.05747 0.5243 0.56838 0.0
C665 C 0.06915 0.53977 0.5818 0.0
C666 C 0.08814 0.54351 0.55092 0.0
H667 H 0.1451 0.5117 0.58583 0.0
H668 H 0.12473 0.52805 0.60029 0.0
H669 H 0.11918 0.50572 0.5732 0.0
H670 H 0.0888 0.50822 0.45537 0.0
H671 H 0.05584 0.50141 0.50975 0.0
H672 H 0.02798 0.81802 0.09568 0.0
H673 H 0.04217 0.84419 0.02959 0.0
H674 H 0.9981 0.83414 0.90146 0.0
H675 H 0.98386 0.80789 0.96741 0.0
H676 H 0.04126 0.84901 0.85382 0.0
H677 H 0.99879 0.88869 0.02906 0.0
H678 H 0.01662 0.87135 0.05422 0.0
H679 H 0.9941 0.86415 0.02107 0.0
C680 C 0.02188 0.82094 0.05228 0.0
C681 C 1.00472 0.81113 0.03677 0.0
C682 C 0.02997 0.83587 0.01469 0.0
C683 C 0.02096 0.8412 0.96126 0.0
C684 C 1.00525 0.83017 0.94258 0.0
H685 H 0.01053 0.93504 0.7124 0.0
H686 H 0.01479 0.9041 0.76161 0.0
C687 C 0.99718 0.81515 0.98013 0.0
C688 C 0.02521 0.85994 0.93115 0.0
H689 H 0.01454 0.9061 0.94634 0.0
C690 C 0.03563 0.86155 0.87408 0.0
C691 C 0.01783 0.87621 0.958 0.0
C692 C 0.00609 0.87516 0.01879 0.0
C693 C 0.03869 0.87913 0.84272 0.0
C694 C 0.03068 0.89535 0.86873 0.0
C695 C 0.02077 0.8937 0.92657 0.0
C696 C 0.03063 0.91395 0.83523 0.0
C697 C 0.05046 0.88014 0.78211 0.0
C698 C 0.03787 0.92992 0.86059 0.0
C699 C 0.03515 0.94779 0.83296 0.0
C700 C 0.02506 0.94997 0.77961 0.0
C701 C 0.0184 0.93389 0.75343 0.0
C702 C 0.02103 0.91611 0.78117 0.0
H703 H 0.06139 0.86836 0.7785 0.0
H704 H 0.03967 0.87904 0.74652 0.0
H705 H 0.05898 0.89356 0.77349 0.0
H706 H 0.04515 0.92858 0.90264 0.0
H707 H 0.04048 0.95988 0.85419 0.0
H708 H 0.68851 0.97741 0.04974 0.0
H709 H 0.66213 0.98329 0.97929 0.0
H710 H 0.68484 0.03965 0.93915 0.0
H711 H 0.71141 0.03368 0.01017 0.0
H712 H 0.64334 0.03745 0.97754 0.0
H713 H 0.66085 0.98958 0.79651 0.0
H714 H 0.66186 0.9779 0.86978 0.0
H715 H 0.67969 0.99648 0.84591 0.0
C716 C 0.68828 0.99081 0.02416 0.0
C717 C 0.70202 0.00503 0.0344 0.0
C718 C 0.67325 0.99417 0.98395 0.0
C719 C 0.67168 0.01184 0.95345 0.0
C720 C 0.68596 0.02587 0.96181 0.0
H721 H 0.56184 0.04376 0.76521 0.0
H722 H 0.5951 0.04675 0.80687 0.0
C723 C 0.70116 0.02244 0.00187 0.0
C724 C 0.65361 0.01604 0.91916 0.0
H725 H 0.62555 0.99855 0.81291 0.0
C726 C 0.63961 0.02931 0.9405 0.0
C727 C 0.64884 0.00538 0.87093 0.0
C728 C 0.66371 0.99167 0.84404 0.0
C729 C 0.62034 0.03123 0.91764 0.0
C730 C 0.61511 0.01969 0.8721 0.0
C731 C 0.62956 0.00724 0.84833 0.0
C732 C 0.59423 0.01903 0.85195 0.0
C733 C 0.60524 0.04472 0.94467 0.0
C734 C 0.58265 0.00262 0.86455 0.0
C735 C 0.56374 1.00087 0.84106 0.0
C736 C 0.55606 0.01549 0.80413 0.0
C737 C 0.56727 0.03229 0.79381 0.0
C738 C 0.58628 0.03402 0.81743 0.0
H739 H 0.61086 0.05107 0.98448 0.0
H740 H 0.60223 0.05615 0.91047 0.0
H741 H 0.59055 0.03746 0.95828 0.0
H742 H 0.58852 0.99093 0.89134 0.0
H743 H 0.55549 0.98775 0.85004 0.0
H744 H 0.52401 0.67878 0.98589 0.0
H745 H 0.51277 0.65472 0.92253 0.0
H746 H 0.45719 0.64733 0.03653 0.0
H747 H 0.46888 0.67089 0.10122 0.0
H748 H 0.4761 0.6157 0.02993 0.0
H749 H 0.47375 0.64667 0.79788 0.0
H750 H 0.49766 0.65175 0.82693 0.0
H751 H 0.4745 0.66092 0.86151 0.0
C752 C 0.50905 0.67252 0.99587 0.0
C753 C 0.49725 0.67663 0.04809 0.0
C754 C 0.50258 0.6588 0.95955 0.0
C755 C 0.48402 0.64927 0.97438 0.0
C756 C 0.47152 0.6545 0.02407 0.0
H757 H 0.46018 0.55263 0.76181 0.0
H758 H 0.45358 0.58156 0.81333 0.0
C759 C 0.47814 0.66799 0.06084 0.0
C760 C 0.47944 0.6319 0.94479 0.0
H761 H 0.48011 0.61303 0.80815 0.0
C762 C 0.47649 0.61524 0.98142 0.0
C763 C 0.47972 0.63119 0.88157 0.0
C764 C 0.48136 0.64866 0.83984 0.0
C765 C 0.47515 0.59785 0.95658 0.0
C766 C 0.47722 0.597 0.89345 0.0
C767 C 0.47878 0.6137 0.85665 0.0
C768 C 0.48004 0.57893 0.8653 0.0
C769 C 0.47211 0.58045 0.99826 0.0
C770 C 0.49702 0.56789 0.87777 0.0
C771 C 0.50082 0.55148 0.84864 0.0
C772 C 0.48774 0.54576 0.80616 0.0
C773 C 0.47043 0.55659 0.7947 0.0
C774 C 0.4667 0.57314 0.82378 0.0
H775 H 0.46429 0.58371 0.04207 0.0
H776 H 0.46307 0.56971 0.97797 0.0
H777 H 0.48719 0.5744 0.00733 0.0
H778 H 0.5077 0.57227 0.90887 0.0
H779 H 0.51432 0.54351 0.85838 0.0
H780 H 0.83911 0.45901 0.18176 0.0
H781 H 0.86537 0.45425 0.10193 0.0
H782 H 0.83201 0.48873 0.97761 0.0
H783 H 0.8066 0.49504 0.05866 0.0
H784 H 0.87165 0.44231 0.99318 0.0
H785 H 0.88226 0.5196 0.98089 0.0
H786 H 0.86496 0.50761 0.03656 0.0
H787 H 0.85772 0.51236 0.96081 0.0
C788 C 0.83729 0.46558 0.1374 0.0
C789 C 0.82118 0.47808 0.12739 0.0
C790 C 0.85222 0.46263 0.09153 0.0
C791 C 0.85109 0.47177 0.03439 0.0
C792 C 0.83358 0.48214 0.02205 0.0
H793 H 0.95163 0.46275 0.75565 0.0
H794 H 0.91957 0.45676 0.81657 0.0
C795 C 0.81888 0.48551 0.06838 0.0
C796 C 0.86935 0.47238 0.99128 0.0
H797 H 0.90429 0.50266 0.91836 0.0
C798 C 0.87877 0.45549 0.97649 0.0
C799 C 0.87884 0.48961 0.97052 0.0
C800 C 0.87057 0.50832 0.98839 0.0
C801 C 0.89764 0.45537 0.94275 0.0
C802 C 0.90697 0.47262 0.92165 0.0
C803 C 0.89718 0.48944 0.93478 0.0
C804 C 0.92727 0.47394 0.88811 0.0
C805 C 0.90776 0.43682 0.9324 0.0
C806 C 0.94231 0.48554 0.90794 0.0
C807 C 0.9603 0.4894 0.87245 0.0
C808 C 0.9638 0.48139 0.81704 0.0
C809 C 0.94937 0.46888 0.7987 0.0
C810 C 0.93108 0.46538 0.83361 0.0
H811 H 0.90168 0.42559 0.9656 0.0
H812 H 0.90476 0.43263 0.8869 0.0
H813 H 0.9245 0.43779 0.93514 0.0
H814 H 0.93977 0.49225 0.94993 0.0
H815 H 0.97122 0.49908 0.88754 0.0
H816 H 0.09331 0.18384 0.19784 0.0
H817 H 0.09915 0.15964 0.12595 0.0
H818 H 0.04419 0.17634 0.04293 0.0
H819 H 0.03885 0.20094 0.11346 0.0
H820 H 0.0739 0.13144 0.12887 0.0
H821 H 0.07918 0.16383 0.89716 0.0
H822 H 0.08235 0.17724 0.96164 0.0
H823 H 0.05725 0.17219 0.93941 0.0
C824 C 0.08307 0.18286 0.16229 0.0
C825 C 0.06578 0.1943 0.16044 0.0
C826 C 0.08631 0.16898 0.12154 0.0
C827 C 0.07217 0.16617 0.07874 0.0
C828 C 0.05561 0.17848 0.07438 0.0
H829 H 0.02377 0.06522 0.97207 0.0
H830 H 0.0346 0.09257 0.02157 0.0
C831 C 0.05252 0.19254 0.11471 0.0
C832 C 0.07275 0.14869 0.04624 0.0
H833 H 0.06714 0.13157 0.90922 0.0
C834 C 0.07286 0.13151 0.08061 0.0
C835 C 0.07159 0.14865 0.98325 0.0
C836 C 0.07281 0.16649 0.94323 0.0
C837 C 0.07072 0.11443 0.05432 0.0
C838 C 0.06792 0.1145 0.99218 0.0
C839 C 0.069 0.13155 0.95708 0.0
C840 C 0.06224 0.09725 0.9639 0.0
C841 C 0.07111 0.09647 0.09365 0.0
C842 C 0.07408 0.09086 0.91466 0.0
C843 C 0.06782 0.07525 0.88591 0.0
C844 C 0.04948 0.06592 0.90557 0.0
C845 C 0.03791 0.07216 0.95567 0.0
C846 C 0.04417 0.0877 0.98433 0.0
H847 H 0.0799 0.09821 0.13358 0.0
H848 H 0.05529 0.09248 0.1101 0.0
H849 H 0.07787 0.08485 0.06841 0.0
H850 H 0.08801 0.09812 0.89797 0.0
H851 H 0.07692 0.07094 0.84691 0.0
H852 H 0.32416 0.97552 0.14327 0.0
H853 H 0.35083 0.97963 0.06138 0.0
H854 H 0.33441 0.03776 0.03368 0.0
H855 H 0.30768 0.03364 0.11653 0.0
H856 H 0.35274 0.9924 0.93924 0.0
H857 H 0.39408 0.04 0.07673 0.0
H858 H 0.3726 0.02596 0.10771 0.0
H859 H 0.36865 0.04678 0.06068 0.0
C860 C 0.32584 0.98902 0.11839 0.0
C861 C 0.31383 0.00424 0.13583 0.0
C862 C 0.34114 0.99139 0.07185 0.0
C863 C 0.34491 0.00908 0.04216 0.0
C864 C 0.33199 0.02405 0.05666 0.0
H865 H 0.45347 0.03962 0.80038 0.0
H866 H 0.42077 0.04128 0.85992 0.0
C867 C 0.31656 0.02165 0.10331 0.0
C868 C 0.36332 0.01187 -0.00028 0.0
H869 H 0.41061 0.03227 0.98502 0.0
C870 C 0.36529 1.00128 0.9489 0.0
C871 C 0.37977 0.02342 0.01241 0.0
C872 C 0.37886 0.03461 0.06752 0.0
C873 C 0.38334 1.00166 0.91112 0.0
C874 C 0.40003 0.01268 0.92506 0.0
C875 C 0.39782 0.02381 0.97454 0.0
C876 C 0.42022 0.01197 0.89076 0.0
C877 C 0.38445 0.99016 0.85674 0.0
C878 C 0.43108 0.9951 0.88989 0.0
C879 C 0.44978 0.99412 0.85636 0.0
C880 C 0.45811 0.01003 0.82295 0.0
C881 C 0.44752 0.0271 0.82553 0.0
C882 C 0.4288 0.02807 0.85937 0.0
H883 H 0.36903 0.98688 0.84288 0.0
H884 H 0.39332 0.99757 0.81813 0.0
H885 H 0.39215 0.97671 0.86777 0.0
H886 H 0.42499 0.9826 0.91486 0.0
H887 H 0.45749 0.98076 0.85568 0.0
H888 H 0.53107 0.33907 0.11553 0.0
H889 H 0.52258 0.36212 0.0358 0.0
H890 H 0.45984 0.34392 0.05716 0.0
H891 H 0.46829 0.32089 0.13822 0.0
H892 H 0.5043 0.36053 0.92611 0.0
H893 H 0.45711 0.39979 0.09262 0.0
H894 H 0.47407 0.38127 0.11542 0.0
H895 H 0.45038 0.37571 0.08548 0.0
C896 C 0.51553 0.33975 0.10249 0.0
C897 C 0.50029 0.32833 0.13335 0.0
C898 C 0.5107 0.3529 0.0569 0.0
C899 C 0.49052 0.35498 0.04133 0.0
C900 C 0.47546 0.34275 0.06921 0.0
H901 H 0.46094 0.45101 0.78963 0.0
H902 H 0.45597 0.42112 0.85002 0.0
C903 C 0.48032 0.32947 0.11496 0.0
C904 C 0.48544 0.37095 0.99925 0.0
H905 H 0.46395 0.4145 0.99638 0.0
C906 C 0.4951 0.37215 0.941 0.0
C907 C 0.47351 0.38617 0.01892 0.0
C908 C 0.46323 0.38586 0.08158 0.0
C909 C 0.49392 0.38848 0.90301 0.0
C910 C 0.4829 0.40399 0.92387 0.0
C911 C 0.47229 0.40248 0.98066 0.0
C912 C 0.48471 0.42256 0.89069 0.0
C913 C 0.5053 0.38948 0.84183 0.0
C914 C 0.50223 0.43336 0.895 0.0
C915 C 0.50506 0.45036 0.86114 0.0
C916 C 0.49043 0.45692 0.82202 0.0
C917 C 0.47247 0.44638 0.81941 0.0
C918 C 0.46963 0.4293 0.85365 0.0
H919 H 0.51022 0.37543 0.82821 0.0
H920 H 0.49565 0.39597 0.80741 0.0
H921 H 0.51904 0.39844 0.84271 0.0
H922 H 0.51396 0.4284 0.92368 0.0
H923 H 0.51904 0.4581 0.86451 0.0
H924 H 0.20544 0.51656 0.01676 0.0
H925 H 0.17824 0.51117 0.95017 0.0
H926 H 0.15793 0.46287 0.06464 0.0
H927 H 0.18472 0.46854 0.13202 0.0
H928 H 0.16438 0.48207 0.88564 0.0
H929 H 0.10907 0.49767 0.07533 0.0
H930 H 0.13608 0.50145 0.07738 0.0
H931 H 0.12551 0.47826 0.09145 0.0
C932 C 0.19549 0.50452 0.02668 0.0
C933 C 0.19699 0.49306 0.07966 0.0
C934 C 0.17993 0.50147 0.98881 0.0
C935 C 0.16576 0.48689 0.00331 0.0
C936 C 0.16839 0.47447 0.05341 0.0
H937 H 0.06551 0.46374 0.77621 0.0
H938 H 0.0959 0.45997 0.8333 0.0
C939 C 0.18375 0.47764 0.0916 0.0
C940 C 0.14721 0.48581 0.96962 0.0
H941 H 0.09542 0.48956 0.98597 0.0
C942 C 0.14928 0.48358 0.90751 0.0
C943 C 0.12754 0.4881 0.99821 0.0
C944 C 0.12434 0.49168 0.06411 0.0
C945 C 0.13218 0.48369 0.87312 0.0
C946 C 0.11252 0.48576 0.90195 0.0
C947 C 0.11049 0.48777 0.96412 0.0
C948 C 0.09396 0.48751 0.86805 0.0
C949 C 0.13536 0.48231 0.806 0.0
C950 C 0.08243 0.50396 0.87022 0.0
C951 C 0.06502 0.50607 0.83842 0.0
C952 C 0.05868 0.49173 0.80365 0.0
C953 C 0.07 0.47506 0.80245 0.0
C954 C 0.08747 0.47295 0.83458 0.0
H955 H 0.15151 0.48482 0.78936 0.0
H956 H 0.13101 0.46805 0.7946 0.0
H957 H 0.12566 0.49255 0.78186 0.0
H958 H 0.08709 0.51534 0.89598 0.0
H959 H 0.05669 0.5191 0.84048 0.0
H960 H 0.93314 0.81098 0.21337 0.0
H961 H 0.92374 0.83517 0.28367 0.0
H962 H 0.98597 0.83749 0.33159 0.0
H963 H 0.99529 0.81341 0.26204 0.0
H964 H 0.95593 0.84172 0.42986 0.0
H965 H 0.94414 0.88897 0.22682 0.0
H966 H 0.92943 0.86766 0.23744 0.0
H967 H 0.9565 0.86658 0.22157 0.0
C968 C 0.94458 0.81622 0.24065 0.0
C969 C 0.96493 0.81046 0.23245 0.0
C970 C 0.93926 0.83012 0.28025 0.0
C971 C 0.95425 0.83831 0.312 0.0
C972 C 0.97419 0.83138 0.30745 0.0
H973 H 0.99281 0.94038 0.4186 0.0
H974 H 0.98253 0.91264 0.36979 0.0
C975 C 0.9795 0.81763 0.26784 0.0
C976 C 0.9502 0.85551 0.34431 0.0
H977 H 0.94547 0.90284 0.31837 0.0
C978 C 0.95312 0.85506 0.40598 0.0
C979 C 0.9468 0.87288 0.31261 0.0
C980 C 0.94413 0.87423 0.2459 0.0
C981 C 0.95378 0.87164 0.43621 0.0
C982 C 0.95126 0.88906 0.40386 0.0
C983 C 0.94726 0.88943 0.34297 0.0
C984 C 0.95569 0.907 0.43 0.0
C985 C 0.95854 0.87051 0.50143 0.0
C986 C 0.94361 0.91336 0.47885 0.0
C987 C 0.94947 0.92926 0.50689 0.0
C988 C 0.96753 0.93895 0.48653 0.0
C989 C 0.97896 0.93306 0.43568 0.0
C990 C 0.97306 0.91728 0.40763 0.0
H991 H 0.96259 0.85608 0.51777 0.0
H992 H 0.97136 0.88007 0.50812 0.0
H993 H 0.94504 0.875 0.52945 0.0
H994 H 0.93001 0.90572 0.49629 0.0
H995 H 0.94043 0.93342 0.54619 0.0
H996 H 0.70556 0.96835 0.27084 0.0
H997 H 0.67748 0.96609 0.35002 0.0
H998 H 0.6689 0.02582 0.32818 0.0
H999 H 0.69673 0.02804 0.24905 0.0
H1000 H 0.6664 0.98633 0.463 0.0
H1001 H 0.61544 1.00053 0.2777 0.0
H1002 H 0.64157 0.99331 0.26453 0.0
H1003 H 0.63582 0.01713 0.28011 0.0
C1004 C 0.6982 0.98104 0.2849 0.0
C1005 C 0.7034 0.9984 0.25458 0.0
C1006 C 0.68208 0.97973 0.32968 0.0
C1007 C 0.67093 0.99576 0.34428 0.0
C1008 C 0.67719 0.01327 0.31722 0.0
H1009 H 0.55797 0.02419 0.53231 0.0
H1010 H 0.58977 0.02241 0.46978 0.0
C1011 C 0.69321 0.01457 0.27253 0.0
C1012 C 0.65151 0.99409 0.38253 0.0
H1013 H 0.60019 1.00021 0.37697 0.0
C1014 C 0.65189 0.98921 0.44431 0.0
C1015 C 0.63259 0.99776 0.35785 0.0
C1016 C 0.63119 1.00232 0.29134 0.0
C1017 C 0.63387 0.98864 0.48251 0.0
C1018 C 0.61497 0.99269 0.45792 0.0
C1019 C 0.61464 0.99714 0.39587 0.0
C1020 C 0.59546 0.99332 0.49585 0.0
C1021 C 0.6353 0.98439 0.54911 0.0
C1022 C 0.58775 0.97743 0.53047 0.0
C1023 C 0.56946 0.9784 0.56644 0.0
C1024 C 0.55846 0.99525 0.5682 0.0
C1025 C 0.56599 0.01097 0.53217 0.0
C1026 C 0.58423 0.01 0.4964 0.0
H1027 H 0.65113 0.98593 0.5624 0.0
H1028 H 0.62523 0.99377 0.57549 0.0
H1029 H 0.63032 0.96973 0.56125 0.0
H1030 H 0.59588 0.96429 0.52972 0.0
H1031 H 0.56411 0.96601 0.59351 0.0
H1032 H 0.49156 0.66563 0.26683 0.0
H1033 H 0.49779 0.64288 0.34953 0.0
H1034 H 0.56164 0.65746 0.33233 0.0
H1035 H 0.55544 0.68022 0.24821 0.0
H1036 H 0.55467 0.61935 0.33076 0.0
H1037 H 0.5097 0.64687 0.52354 0.0
H1038 H 0.49485 0.64617 0.45953 0.0
H1039 H 0.5169 0.66125 0.4558 0.0
C1040 C 0.50686 0.66427 0.28148 0.0
C1041 C 0.52303 0.67466 0.25114 0.0
C1042 C 0.51039 0.65136 0.32906 0.0
C1043 C 0.53014 0.64861 0.34769 0.0
C1044 C 0.54625 0.65947 0.31899 0.0
H1045 H 0.55622 0.55215 0.60124 0.0
H1046 H 0.56217 0.58154 0.53894 0.0
C1047 C 0.54269 0.67253 0.2713 0.0
C1048 C 0.53391 0.63302 0.39267 0.0
H1049 H 0.515 0.61319 0.52845 0.0
C1050 C 0.54645 0.6182 0.3747 0.0
C1051 C 0.52324 0.63154 0.45007 0.0
C1052 C 0.5106 0.64742 0.4736 0.0
C1053 C 0.54735 0.6014 0.41079 0.0
C1054 C 0.53547 0.59948 0.46603 0.0
C1055 C 0.52397 0.61469 0.48572 0.0
C1056 C 0.5329 0.5812 0.50079 0.0
C1057 C 0.55994 0.58537 0.38822 0.0
C1058 C 0.51463 0.57126 0.49915 0.0
C1059 C 0.51123 0.55453 0.53416 0.0
C1060 C 0.526 0.54744 0.57202 0.0
C1061 C 0.54457 0.5572 0.57245 0.0
C1062 C 0.54799 0.57398 0.53704 0.0
H1063 H 0.56799 0.58897 0.34352 0.0
H1064 H 0.57141 0.58134 0.42075 0.0
H1065 H 0.55001 0.57299 0.38486 0.0
H1066 H 0.50284 0.57662 0.47131 0.0
H1067 H 0.49677 0.54742 0.53257 0.0
H1068 H 0.81597 0.53256 0.31644 0.0
H1069 H 0.84227 0.54034 0.38388 0.0
H1070 H 0.85357 0.4815 0.42098 0.0
H1071 H 0.82752 0.47373 0.35359 0.0
H1072 H 0.85449 0.50653 0.52481 0.0
H1073 H 0.90312 0.52897 0.31783 0.0
H1074 H 0.87805 0.53888 0.32758 0.0
H1075 H 0.88079 0.51446 0.31535 0.0
C1076 C 0.8236 0.52134 0.34074 0.0
C1077 C 0.81979 0.50256 0.33013 0.0
C1078 C 0.83868 0.52578 0.37876 0.0
C1079 C 0.84995 0.51148 0.40681 0.0
C1080 C 0.84502 0.49272 0.39976 0.0
H1081 H 0.96667 0.49044 0.52803 0.0
H1082 H 0.9349 0.49349 0.47798 0.0
C1083 C 0.83014 0.48829 0.36145 0.0
C1084 C 0.86836 0.51577 0.43779 0.0
H1085 H 0.91862 0.52746 0.40936 0.0
C1086 C 0.86843 0.51146 0.49994 0.0
C1087 C 0.88656 0.52194 0.4048 0.0
C1088 C 0.88735 0.52627 0.33763 0.0
C1089 C 0.88641 0.51275 0.52981 0.0
C1090 C 0.9047 0.51845 0.49649 0.0
C1091 C 0.90451 0.52323 0.43467 0.0
C1092 C 0.9245 0.51777 0.52398 0.0
C1093 C 0.88602 0.50718 0.59619 0.0
C1094 C 0.92935 0.53073 0.56528 0.0
C1095 C 0.94761 0.52913 0.59369 0.0
C1096 C 0.96121 0.51445 0.58148 0.0
C1097 C 0.95653 0.50187 0.53858 0.0
C1098 C 0.93838 0.50358 0.50993 0.0
H1099 H 0.87102 0.50133 0.6143 0.0
H1100 H 0.89798 0.4966 0.60496 0.0
H1101 H 0.88938 0.51963 0.62102 0.0
H1102 H 0.91886 0.54186 0.57627 0.0
H1103 H 0.95074 0.53902 0.6266 0.0
loop_
_geom_bond_atom_site_label_1
_geom_bond_atom_site_label_2
_geom_bond_distance
_geom_bond_site_symmetry_2
_ccdc_geom_bond_type
H0 C7 0.929 . S
H1 C10 0.930 . S
H2 C12 0.929 . S
H3 C4 0.969 . S
C4 H3 0.969 . S
C4 O5 1.550 . S
C4 H6 0.973 . S
O5 C4 1.550 . S
O5 C11 1.412 . S
H6 C4 0.973 . S
C7 H0 0.929 . S
C7 C8 1.400 . S
C7 C9 1.364 . S
C8 C7 1.400 . S
C8 C12 1.377 . S
C9 C7 1.364 . S
C9 C10 1.374 . S
C10 H1 0.930 . S
C10 C9 1.374 . S
C10 C11 1.383 . S
C11 O5 1.412 . S
C11 C10 1.383 . S
C11 C12 1.394 . S
C12 H2 0.929 . S
C12 C8 1.377 . S
C12 C11 1.394 . S
H13 C20 0.929 . S
H14 C23 0.930 . S
H15 C25 0.929 . S
H16 C17 0.969 . S
C17 H16 0.969 . S
C17 O18 1.550 1_556 S
C17 H19 0.973 . S
O18 C17 1.550 1_554 S
O18 C24 1.412 . S
H19 C17 0.973 . S
C20 H13 0.929 . S
C20 C21 1.400 . S
C20 C22 1.364 1_554 S
C21 C20 1.400 . S
C21 C25 1.377 . S
C22 C20 1.364 1_556 S
C22 C23 1.374 . S
C23 H14 0.930 . S
C23 C22 1.374 . S
C23 C24 1.383 1_556 S
C24 O18 1.412 . S
C24 C23 1.383 1_554 S
C24 C25 1.394 . S
C25 H15 0.929 . S
C25 C21 1.377 . S
C25 C24 1.394 . S
H26 C33 0.929 . S
H27 C36 0.927 1_556 S
H28 C38 0.929 1_565 S
H29 C30 0.969 . S
C30 H29 0.969 . S
C30 O31 1.550 1_545 S
C30 H32 0.973 1_544 S
O31 C30 1.550 1_565 S
O31 C37 1.406 1_565 S
H32 C30 0.973 1_566 S
C33 H26 0.929 . S
C33 C34 1.400 1_565 S
C33 C35 1.363 1_565 S
C34 C33 1.400 1_545 S
C34 C38 1.377 . S
C35 C33 1.363 1_545 S
C35 C36 1.374 1_545 S
C36 H27 0.927 1_554 S
C36 C35 1.374 1_565 S
C36 C37 1.381 1_565 S
C37 O31 1.406 1_545 S
C37 C36 1.381 1_545 S
C37 C38 1.396 . S
C38 H28 0.929 1_545 S
C38 C34 1.377 . S
C38 C37 1.396 . S
H39 C46 0.929 . S
H40 C49 0.930 1_556 S
H41 C51 0.929 . S
H42 C43 0.969 . S
C43 H42 0.969 . S
C43 O44 1.550 . S
C43 H45 0.973 1_554 S
O44 C43 1.550 . S
O44 C50 1.412 . S
H45 C43 0.973 1_556 S
C46 H39 0.929 . S
C46 C47 1.400 . S
C46 C48 1.364 . S
C47 C46 1.400 . S
C47 C51 1.377 . S
C48 C46 1.364 . S
C48 C49 1.374 . S
C49 H40 0.930 1_554 S
C49 C48 1.374 . S
C49 C50 1.383 . S
C50 O44 1.412 . S
C50 C49 1.383 . S
C50 C51 1.394 . S
C51 H41 0.929 . S
C51 C47 1.377 . S
C51 C50 1.394 . S
H52 C59 0.929 . S
H53 C62 0.930 . S
H54 C64 0.929 . S
H55 C56 0.969 . S
C56 H55 0.969 . S
C56 O57 1.550 . S
C56 H58 0.973 . S
O57 C56 1.550 . S
O57 C63 1.412 . S
H58 C56 0.973 . S
C59 H52 0.929 . S
C59 C60 1.400 . S
C59 C61 1.364 . S
C60 C59 1.400 . S
C60 C64 1.377 . S
C61 C59 1.364 . S
C61 C62 1.374 . S
C62 H53 0.930 . S
C62 C61 1.374 . S
C62 C63 1.383 . S
C63 O57 1.412 . S
C63 C62 1.383 . S
C63 C64 1.394 . S
C64 H54 0.929 . S
C64 C60 1.377 . S
C64 C63 1.394 . S
H65 C72 0.929 . S
H66 C75 0.930 . S
H67 C77 0.929 . S
H68 C69 0.969 . S
C69 H68 0.969 . S
C69 O70 1.550 . S
C69 H71 0.973 . S
O70 C69 1.550 . S
O70 C76 1.412 . S
H71 C69 0.973 . S
C72 H65 0.929 . S
C72 C73 1.400 . S
C72 C74 1.364 . S
C73 C72 1.400 . S
C73 C77 1.377 . S
C74 C72 1.364 . S
C74 C75 1.374 . S
C75 H66 0.930 . S
C75 C74 1.374 . S
C75 C76 1.383 . S
C76 O70 1.412 . S
C76 C75 1.383 . S
C76 C77 1.394 . S
C77 H67 0.929 . S
C77 C73 1.377 . S
C77 C76 1.394 . S
H78 C85 0.929 1_565 S
H79 C88 0.932 . S
H80 C90 0.928 1_565 S
H81 C82 0.969 . S
C82 H81 0.969 . S
C82 O83 1.550 1_545 S
C82 H84 0.973 1_545 S
O83 C82 1.550 1_565 S
O83 C89 1.402 1_565 S
H84 C82 0.973 1_565 S
C85 H78 0.929 1_545 S
C85 C86 1.400 . S
C85 C87 1.364 . S
C86 C85 1.400 . S
C86 C90 1.377 . S
C87 C85 1.364 . S
C87 C88 1.374 1_545 S
C88 H79 0.932 . S
C88 C87 1.374 1_565 S
C88 C89 1.384 1_565 S
C89 O83 1.402 1_545 S
C89 C88 1.384 1_545 S
C89 C90 1.392 . S
C90 H80 0.928 1_545 S
C90 C86 1.377 . S
C90 C89 1.392 . S
H91 C98 0.929 . S
H92 C101 0.930 . S
H93 C103 0.929 . S
H94 C95 0.969 . S
C95 H94 0.969 . S
C95 O96 1.550 . S
C95 H97 0.973 . S
O96 C95 1.550 . S
O96 C102 1.412 . S
H97 C95 0.973 . S
C98 H91 0.929 . S
C98 C99 1.400 . S
C98 C100 1.364 . S
C99 C98 1.400 . S
C99 C103 1.377 . S
C100 C98 1.364 . S
C100 C101 1.374 . S
C101 H92 0.930 . S
C101 C100 1.374 . S
C101 C102 1.383 . S
C102 O96 1.412 . S
C102 C101 1.383 . S
C102 C103 1.394 . S
C103 H93 0.929 . S
C103 C99 1.377 . S
C103 C102 1.394 . S
C104 O120 1.251 1_455 S
C104 O122 1.254 . S
N105 C106 1.333 . S
N105 C110 1.307 . S
N105 Zn111 2.020 . S
C106 N105 1.333 . S
C106 C107 1.379 . S
C106 H124 0.952 1_655 S
C107 C106 1.379 . S
C107 C108 1.390 . S
C107 H134 0.949 . S
C108 C107 1.390 . S
C108 C109 1.357 . S
C109 C108 1.357 . S
C109 C110 1.370 . S
C109 H135 0.950 . S
C110 N105 1.307 . S
C110 C109 1.370 . S
C110 H128 0.948 . S
Zn111 N105 2.020 . S
Zn111 O120 2.039 . S
Zn111 O126 2.034 1_655 S
Zn111 O130 2.025 1_565 S
Zn111 O132 2.024 . S
C112 O131 1.246 . S
C112 O132 1.249 1_545 S
N113 C114 1.307 . S
N113 C115 1.333 . S
N113 Zn119 2.020 . S
C114 N113 1.307 . S
C114 C118 1.370 . S
C114 H125 0.948 . S
C115 N113 1.333 . S
C115 C116 1.379 . S
C115 H123 0.952 . S
C116 C115 1.379 . S
C116 C117 1.390 . S
C116 H136 0.949 . S
C117 C116 1.390 . S
C117 C118 1.357 . S
C118 C114 1.370 . S
C118 C117 1.357 . S
C118 H137 0.950 . S
Zn119 N113 2.020 . S
Zn119 O122 2.025 1_545 S
Zn119 O127 2.024 . S
Zn119 O129 2.039 . S
Zn119 O131 2.034 1_455 S
O120 C104 1.251 1_655 S
O120 Zn111 2.039 . S
C121 O126 1.246 . S
C121 O127 1.249 1_565 S
O122 C104 1.254 . S
O122 Zn119 2.025 1_565 S
H123 C115 0.952 . S
H124 C106 0.952 1_455 S
H125 C114 0.948 . S
O126 Zn111 2.034 1_455 S
O126 C121 1.246 . S
O127 Zn119 2.024 . S
O127 C121 1.249 1_545 S
H128 C110 0.948 . S
O129 Zn119 2.039 . S
O129 C133 1.251 . S
O130 Zn111 2.025 1_545 S
O130 C133 1.253 1_655 S
O131 C112 1.246 . S
O131 Zn119 2.034 1_655 S
O132 Zn111 2.024 . S
O132 C112 1.249 1_565 S
C133 O129 1.251 . S
C133 O130 1.253 1_455 S
H134 C107 0.949 . S
H135 C109 0.950 . S
H136 C116 0.949 . S
H137 C118 0.950 . S
C138 O154 1.251 1_565 S
C138 O156 1.254 . S
N139 C140 1.333 . S
N139 C144 1.307 . S
N139 Zn145 2.020 . S
C140 N139 1.333 . S
C140 C141 1.379 . S
C140 H158 0.952 . S
C141 C140 1.379 . S
C141 C142 1.390 . S
C141 H168 0.949 . S
C142 C141 1.390 . S
C142 C143 1.357 . S
C143 C142 1.357 . S
C143 C144 1.370 . S
C143 H169 0.950 . S
C144 N139 1.307 . S
C144 C143 1.370 . S
C144 H162 0.948 . S
Zn145 N139 2.020 . S
Zn145 O154 2.039 . S
Zn145 O160 2.034 . S
Zn145 O164 2.025 . S
Zn145 O166 2.024 . S
C146 O165 1.246 1_545 S
C146 O166 1.249 . S
N147 C148 1.307 . S
N147 C149 1.333 . S
N147 Zn153 2.020 . S
C148 N147 1.307 . S
C148 C152 1.370 . S
C148 H159 0.948 . S
C149 N147 1.333 . S
C149 C150 1.379 . S
C149 H157 0.952 . S
C150 C149 1.379 . S
C150 C151 1.390 . S
C150 H170 0.949 . S
C151 C150 1.390 . S
C151 C152 1.357 . S
C152 C148 1.370 . S
C152 C151 1.357 . S
C152 H171 0.950 . S
Zn153 N147 2.020 . S
Zn153 O156 2.025 . S
Zn153 O161 2.024 . S
Zn153 O163 2.039 . S
Zn153 O165 2.034 . S
O154 C138 1.251 1_545 S
O154 Zn145 2.039 . S
C155 O160 1.246 1_565 S
C155 O161 1.249 . S
O156 C138 1.254 . S
O156 Zn153 2.025 . S
H157 C149 0.952 . S
H158 C140 0.952 . S
H159 C148 0.948 . S
O160 Zn145 2.034 . S
O160 C155 1.246 1_545 S
O161 Zn153 2.024 . S
O161 C155 1.249 . S
H162 C144 0.948 . S
O163 Zn153 2.039 . S
O163 C167 1.251 1_565 S
O164 Zn145 2.025 . S
O164 C167 1.254 . S
O165 C146 1.246 1_565 S
O165 Zn153 2.034 . S
O166 Zn145 2.024 . S
O166 C146 1.249 . S
C167 O163 1.251 1_545 S
C167 O164 1.254 . S
H168 C141 0.949 . S
H169 C143 0.950 . S
H170 C150 0.949 . S
H171 C152 0.950 . S
C172 O188 1.251 . S
C172 O190 1.254 . S
N173 C174 1.333 . S
N173 C178 1.307 . S
N173 Zn179 2.020 . S
C174 N173 1.333 . S
C174 C175 1.379 . S
C174 H192 0.952 . S
C175 C174 1.379 . S
C175 C176 1.390 . S
C175 H202 0.949 . S
C176 C175 1.390 . S
C176 C177 1.357 . S
C177 C176 1.357 . S
C177 C178 1.370 . S
C177 H203 0.950 . S
C178 N173 1.307 . S
C178 C177 1.370 . S
C178 H196 0.948 . S
Zn179 N173 2.020 . S
Zn179 O188 2.039 . S
Zn179 O194 2.034 . S
Zn179 O198 2.025 . S
Zn179 O200 2.024 . S
C180 O199 1.246 . S
C180 O200 1.249 . S
N181 C182 1.307 . S
N181 C183 1.333 . S
N181 Zn187 2.020 . S
C182 N181 1.307 . S
C182 C186 1.370 . S
C182 H193 0.948 . S
C183 N181 1.333 . S
C183 C184 1.379 . S
C183 H191 0.952 . S
C184 C183 1.379 . S
C184 C185 1.390 . S
C184 H204 0.949 . S
C185 C184 1.390 . S
C185 C186 1.357 . S
C186 C182 1.370 . S
C186 C185 1.357 . S
C186 H205 0.950 . S
Zn187 N181 2.020 . S
Zn187 O190 2.025 . S
Zn187 O195 2.024 . S
Zn187 O197 2.039 . S
Zn187 O199 2.034 . S
O188 C172 1.251 . S
O188 Zn179 2.039 . S
C189 O194 1.246 . S
C189 O195 1.249 . S
O190 C172 1.254 . S
O190 Zn187 2.025 . S
H191 C183 0.952 . S
H192 C174 0.952 . S
H193 C182 0.948 . S
O194 Zn179 2.034 . S
O194 C189 1.246 . S
O195 Zn187 2.024 . S
O195 C189 1.249 . S
H196 C178 0.948 . S
O197 Zn187 2.039 . S
O197 C201 1.251 . S
O198 Zn179 2.025 . S
O198 C201 1.254 . S
O199 C180 1.246 . S
O199 Zn187 2.034 . S
O200 Zn179 2.024 . S
O200 C180 1.249 . S
C201 O197 1.251 . S
C201 O198 1.254 . S
H202 C175 0.949 . S
H203 C177 0.950 . S
H204 C184 0.949 . S
H205 C186 0.950 . S
C206 O222 1.251 . S
C206 O224 1.254 . S
N207 C208 1.333 . S
N207 C212 1.307 . S
N207 Zn213 2.020 . S
C208 N207 1.333 . S
C208 C209 1.379 . S
C208 H226 0.952 . S
C209 C208 1.379 . S
C209 C210 1.390 . S
C209 H236 0.949 . S
C210 C209 1.390 . S
C210 C211 1.357 . S
C211 C210 1.357 . S
C211 C212 1.370 . S
C211 H237 0.962 . S
C212 N207 1.307 . S
C212 C211 1.370 . S
C212 H230 0.948 1_455 S
Zn213 N207 2.020 . S
Zn213 O222 2.039 . S
Zn213 O228 2.034 1_455 S
Zn213 O232 2.025 1_455 S
Zn213 O234 2.024 . S
C214 O233 1.246 . S
C214 O234 1.249 . S
N215 C216 1.311 . S
N215 C217 1.323 1_455 S
N215 Zn221 2.021 . S
C216 N215 1.311 . S
C216 C220 1.370 . S
C216 H227 0.948 . S
C217 N215 1.323 1_655 S
C217 C218 1.379 . S
C217 H225 0.952 . S
C218 C217 1.379 . S
C218 C219 1.390 . S
C218 H238 0.949 . S
C219 C218 1.390 . S
C219 C220 1.357 1_655 S
C220 C216 1.370 . S
C220 C219 1.357 1_455 S
C220 H239 0.950 . S
Zn221 N215 2.021 . S
Zn221 O224 2.025 . S
Zn221 O229 2.024 1_455 S
Zn221 O231 2.039 1_455 S
Zn221 O233 2.034 . S
O222 C206 1.251 . S
O222 Zn213 2.039 . S
C223 O228 1.246 . S
C223 O229 1.249 . S
O224 C206 1.254 . S
O224 Zn221 2.025 . S
H225 C217 0.952 . S
H226 C208 0.952 . S
H227 C216 0.948 . S
O228 Zn213 2.034 1_655 S
O228 C223 1.246 . S
O229 Zn221 2.024 1_655 S
O229 C223 1.249 . S
H230 C212 0.948 1_655 S
O231 Zn221 2.039 1_655 S
O231 C235 1.251 . S
O232 Zn213 2.025 1_655 S
O232 C235 1.254 . S
O233 C214 1.246 . S
O233 Zn221 2.034 . S
O234 Zn213 2.024 . S
O234 C214 1.249 . S
C235 O231 1.251 . S
C235 O232 1.254 . S
H236 C209 0.949 . S
H237 C211 0.962 . S
H238 C218 0.949 . S
H239 C220 0.950 . S
H240 C248 0.929 . S
H241 C250 0.930 . S
H242 C252 0.930 . S
H243 C255 0.929 . S
H244 C258 0.930 . S
H245 C260 0.960 . S
H246 C260 0.960 1_545 S
H247 C260 0.960 . S
C248 H240 0.929 . S
C248 C249 1.378 . S
C248 C250 1.384 . S
C249 C248 1.378 . S
C249 C255 1.389 1_545 S
C250 H241 0.930 . S
C250 C248 1.384 . S
C250 C251 1.384 . S
C251 C250 1.384 . S
C251 C252 1.388 1_545 S
C251 C256 1.490 . S
C252 H242 0.930 . S
C252 C251 1.388 1_565 S
C252 C255 1.386 . S
H253 C269 0.930 . S
H254 C270 0.931 . S
C255 H243 0.929 . S
C255 C249 1.389 1_565 S
C255 C252 1.386 . S
C256 C251 1.490 . S
C256 C258 1.395 . S
C256 C259 1.403 1_545 S
H257 C263 0.930 . S
C258 H244 0.930 . S
C258 C256 1.395 . S
C258 C261 1.403 . S
C259 C256 1.403 1_565 S
C259 C260 1.524 . S
C259 C263 1.400 . S
C260 H245 0.960 . S
C260 H246 0.960 1_565 S
C260 H247 0.960 . S
C260 C259 1.524 . S
C261 C258 1.403 . S
C261 C262 1.390 1_545 S
C261 C265 1.495 . S
C262 C261 1.390 1_565 S
C262 C263 1.388 . S
C262 C264 1.478 . S
C263 H257 0.930 . S
C263 C259 1.400 . S
C263 C262 1.388 . S
C264 C262 1.478 . S
C264 C266 1.381 1_565 S
C264 C270 1.383 . S
C265 C261 1.495 . S
C265 H271 0.959 . S
C265 H272 0.961 1_545 S
C265 H273 0.960 . S
C266 C264 1.381 1_545 S
C266 C267 1.394 . S
C266 H274 0.930 . S
C267 C266 1.394 . S
C267 C268 1.383 1_545 S
C267 H275 0.929 . S
C268 C267 1.383 1_565 S
C268 C269 1.377 . S
C269 H253 0.930 . S
C269 C268 1.377 . S
C269 C270 1.379 . S
C270 H254 0.931 . S
C270 C264 1.383 . S
C270 C269 1.379 . S
H271 C265 0.959 . S
H272 C265 0.961 1_565 S
H273 C265 0.960 . S
H274 C266 0.930 . S
H275 C267 0.929 . S
H276 C284 0.929 . S
H277 C286 0.930 . S
H278 C288 0.930 . S
H279 C291 0.929 . S
H280 C294 0.930 . S
H281 C296 0.960 . S
H282 C296 0.960 . S
H283 C296 0.960 . S
C284 H276 0.929 . S
C284 C285 1.377 . S
C284 C286 1.384 . S
C285 C284 1.377 . S
C285 C291 1.390 . S
C286 H277 0.930 . S
C286 C284 1.384 . S
C286 C287 1.372 . S
C287 C286 1.372 . S
C287 C288 1.400 . S
C287 C292 1.490 . S
C288 H278 0.930 . S
C288 C287 1.400 . S
C288 C291 1.386 . S
H289 C305 0.930 . S
H290 C306 0.931 . S
C291 H279 0.929 . S
C291 C285 1.390 . S
C291 C288 1.386 . S
C292 C287 1.490 . S
C292 C294 1.395 . S
C292 C295 1.403 . S
H293 C299 0.930 . S
C294 H280 0.930 . S
C294 C292 1.395 . S
C294 C297 1.403 . S
C295 C292 1.403 . S
C295 C296 1.524 . S
C295 C299 1.400 . S
C296 H281 0.960 . S
C296 H282 0.960 . S
C296 H283 0.960 . S
C296 C295 1.524 . S
C297 C294 1.403 . S
C297 C298 1.392 . S
C297 C301 1.495 . S
C298 C297 1.392 . S
C298 C299 1.385 . S
C298 C300 1.478 . S
C299 H293 0.930 . S
C299 C295 1.400 . S
C299 C298 1.385 . S
C300 C298 1.478 . S
C300 C302 1.381 . S
C300 C306 1.383 . S
C301 C297 1.495 . S
C301 H307 0.959 . S
C301 H308 0.961 . S
C301 H309 0.960 . S
C302 C300 1.381 . S
C302 C303 1.394 . S
C302 H310 0.930 . S
C303 C302 1.394 . S
C303 C304 1.383 . S
C303 H311 0.929 . S
C304 C303 1.383 . S
C304 C305 1.377 . S
C305 H289 0.930 . S
C305 C304 1.377 . S
C305 C306 1.379 . S
C306 H290 0.931 . S
C306 C300 1.383 . S
C306 C305 1.379 . S
H307 C301 0.959 . S
H308 C301 0.961 . S
H309 C301 0.960 . S
H310 C302 0.930 . S
H311 C303 0.929 . S
H312 C320 0.929 . S
H313 C322 0.930 . S
H314 C324 0.930 . S
H315 C327 0.929 . S
H316 C330 0.930 . S
H317 C332 0.960 . S
H318 C332 0.960 . S
H319 C332 0.960 . S
C320 H312 0.929 . S
C320 C321 1.377 . S
C320 C322 1.384 . S
C321 C320 1.377 . S
C321 C327 1.390 . S
C322 H313 0.930 . S
C322 C320 1.384 . S
C322 C323 1.372 . S
C323 C322 1.372 . S
C323 C324 1.400 . S
C323 C328 1.490 . S
C324 H314 0.930 . S
C324 C323 1.400 . S
C324 C327 1.386 . S
H325 C341 0.930 . S
H326 C342 0.931 . S
C327 H315 0.929 . S
C327 C321 1.390 . S
C327 C324 1.386 . S
C328 C323 1.490 . S
C328 C330 1.395 . S
C328 C331 1.403 . S
H329 C335 0.930 . S
C330 H316 0.930 . S
C330 C328 1.395 . S
C330 C333 1.403 . S
C331 C328 1.403 . S
C331 C332 1.524 . S
C331 C335 1.400 . S
C332 H317 0.960 . S
C332 H318 0.960 . S
C332 H319 0.960 . S
C332 C331 1.524 . S
C333 C330 1.403 . S
C333 C334 1.392 . S
C333 C337 1.495 . S
C334 C333 1.392 . S
C334 C335 1.385 . S
C334 C336 1.478 . S
C335 H329 0.930 . S
C335 C331 1.400 . S
C335 C334 1.385 . S
C336 C334 1.478 . S
C336 C338 1.381 . S
C336 C342 1.383 . S
C337 C333 1.495 . S
C337 H343 0.959 . S
C337 H344 0.961 . S
C337 H345 0.960 . S
C338 C336 1.381 . S
C338 C339 1.394 . S
C338 H346 0.930 . S
C339 C338 1.394 . S
C339 C340 1.383 . S
C339 H347 0.929 . S
C340 C339 1.383 . S
C340 C341 1.377 . S
C341 H325 0.930 . S
C341 C340 1.377 . S
C341 C342 1.379 . S
C342 H326 0.931 . S
C342 C336 1.383 . S
C342 C341 1.379 . S
H343 C337 0.959 . S
H344 C337 0.961 . S
H345 C337 0.960 . S
H346 C338 0.930 . S
H347 C339 0.929 . S
H348 C356 0.929 . S
H349 C358 0.930 . S
H350 C360 0.930 . S
H351 C363 0.929 . S
H352 C366 0.930 . S
H353 C368 0.960 1_655 S
H354 C368 0.960 . S
H355 C368 0.960 1_655 S
C356 H348 0.929 . S
C356 C357 1.377 . S
C356 C358 1.384 . S
C357 C356 1.377 . S
C357 C363 1.390 . S
C358 H349 0.930 . S
C358 C356 1.384 . S
C358 C359 1.372 . S
C359 C358 1.372 . S
C359 C360 1.400 . S
C359 C364 1.490 . S
C360 H350 0.930 . S
C360 C359 1.400 . S
C360 C363 1.386 . S
H361 C377 0.930 1_655 S
H362 C378 0.931 . S
C363 H351 0.929 . S
C363 C357 1.390 . S
C363 C360 1.386 . S
C364 C359 1.490 . S
C364 C366 1.395 . S
C364 C367 1.403 . S
H365 C371 0.930 . S
C366 H352 0.930 . S
C366 C364 1.395 . S
C366 C369 1.403 . S
C367 C364 1.403 . S
C367 C368 1.524 . S
C367 C371 1.400 . S
C368 H353 0.960 1_455 S
C368 H354 0.960 . S
C368 H355 0.960 1_455 S
C368 C367 1.524 . S
C369 C366 1.403 . S
C369 C370 1.392 . S
C369 C373 1.495 . S
C370 C369 1.392 . S
C370 C371 1.385 . S
C370 C372 1.478 . S
C371 H365 0.930 . S
C371 C367 1.400 . S
C371 C370 1.385 . S
C372 C370 1.478 . S
C372 C374 1.381 . S
C372 C378 1.383 . S
C373 C369 1.495 . S
C373 H379 0.959 . S
C373 H380 0.961 . S
C373 H381 0.960 . S
C374 C372 1.381 . S
C374 C375 1.394 . S
C374 H382 0.930 . S
C375 C374 1.394 . S
C375 C376 1.383 . S
C375 H383 0.929 . S
C376 C375 1.383 . S
C376 C377 1.377 . S
C377 H361 0.930 1_455 S
C377 C376 1.377 . S
C377 C378 1.379 . S
C378 H362 0.931 . S
C378 C372 1.383 . S
C378 C377 1.379 . S
H379 C373 0.959 . S
H380 C373 0.961 . S
H381 C373 0.960 . S
H382 C374 0.930 . S
H383 C375 0.929 . S
H384 C392 0.929 . S
H385 C394 0.930 . S
H386 C396 0.930 . S
H387 C399 0.929 . S
H388 C402 0.930 . S
H389 C404 0.960 . S
H390 C404 0.960 . S
H391 C404 0.955 . S
C392 H384 0.929 . S
C392 C393 1.403 1_554 S
C392 C394 1.384 1_554 S
C393 C392 1.403 1_556 S
C393 C399 1.365 1_545 S
C394 H385 0.930 . S
C394 C392 1.384 1_556 S
C394 C395 1.372 . S
C395 C394 1.372 . S
C395 C396 1.400 1_545 S
C395 C400 1.490 . S
C396 H386 0.930 . S
C396 C395 1.400 1_565 S
C396 C399 1.386 . S
H397 C413 0.930 . S
H398 C414 0.931 . S
C399 H387 0.929 . S
C399 C393 1.365 1_565 S
C399 C396 1.386 . S
C400 C395 1.490 . S
C400 C402 1.395 1_545 S
C400 C403 1.403 . S
H401 C407 0.930 . S
C402 H388 0.930 . S
C402 C400 1.395 1_565 S
C402 C405 1.403 . S
C403 C400 1.403 . S
C403 C404 1.524 . S
C403 C407 1.400 . S
C404 H389 0.960 . S
C404 H390 0.960 . S
C404 H391 0.955 . S
C404 C403 1.524 . S
C405 C402 1.403 . S
C405 C406 1.392 1_565 S
C405 C409 1.495 . S
C406 C405 1.392 1_545 S
C406 C407 1.385 . S
C406 C408 1.478 . S
C407 H401 0.930 . S
C407 C403 1.400 . S
C407 C406 1.385 . S
C408 C406 1.478 . S
C408 C410 1.381 . S
C408 C414 1.383 1_545 S
C409 C405 1.495 . S
C409 H415 0.959 1_556 S
C409 H416 0.961 . S
C409 H417 0.960 1_565 S
C410 C408 1.381 . S
C410 C411 1.394 . S
C410 H418 0.930 . S
C411 C410 1.394 . S
C411 C412 1.383 . S
C411 H419 0.929 . S
C412 C411 1.383 . S
C412 C413 1.377 1_545 S
C413 H397 0.930 . S
C413 C412 1.377 1_565 S
C413 C414 1.379 . S
C414 H398 0.931 . S
C414 C408 1.383 1_565 S
C414 C413 1.379 . S
H415 C409 0.959 1_554 S
H416 C409 0.961 . S
H417 C409 0.960 1_545 S
H418 C410 0.930 . S
H419 C411 0.929 . S
H420 C428 0.929 . S
H421 C430 0.930 . S
H422 C432 0.930 . S
H423 C435 0.929 . S
H424 C438 0.930 . S
H425 C440 0.960 . S
H426 C440 0.960 . S
H427 C440 0.960 1_556 S
C428 H420 0.929 . S
C428 C429 1.377 . S
C428 C430 1.384 1_554 S
C429 C428 1.377 . S
C429 C435 1.390 1_554 S
C430 H421 0.930 . S
C430 C428 1.384 1_556 S
C430 C431 1.372 . S
C431 C430 1.372 . S
C431 C432 1.400 . S
C431 C436 1.490 . S
C432 H422 0.930 . S
C432 C431 1.400 . S
C432 C435 1.386 . S
H433 C449 0.930 . S
H434 C450 0.931 . S
C435 H423 0.929 . S
C435 C429 1.390 1_556 S
C435 C432 1.386 . S
C436 C431 1.490 . S
C436 C438 1.395 . S
C436 C439 1.403 . S
H437 C443 0.930 . S
C438 H424 0.930 . S
C438 C436 1.395 . S
C438 C441 1.403 . S
C439 C436 1.403 . S
C439 C440 1.524 1_556 S
C439 C443 1.400 . S
C440 H425 0.960 . S
C440 H426 0.960 . S
C440 H427 0.960 1_554 S
C440 C439 1.524 1_554 S
C441 C438 1.403 . S
C441 C442 1.392 . S
C441 C445 1.495 . S
C442 C441 1.392 . S
C442 C443 1.385 . S
C442 C444 1.478 . S
C443 H437 0.930 . S
C443 C439 1.400 . S
C443 C442 1.385 . S
C444 C442 1.478 . S
C444 C446 1.381 . S
C444 C450 1.383 . S
C445 C441 1.495 . S
C445 H451 0.959 . S
C445 H452 0.961 . S
C445 H453 0.960 . S
C446 C444 1.381 . S
C446 C447 1.394 . S
C446 H454 0.930 . S
C447 C446 1.394 . S
C447 C448 1.383 . S
C447 H455 0.929 . S
C448 C447 1.383 . S
C448 C449 1.377 . S
C449 H433 0.930 . S
C449 C448 1.377 . S
C449 C450 1.379 . S
C450 H434 0.931 . S
C450 C444 1.383 . S
C450 C449 1.379 . S
H451 C445 0.959 . S
H452 C445 0.961 . S
H453 C445 0.960 . S
H454 C446 0.930 . S
H455 C447 0.929 . S
H456 C464 0.929 . S
H457 C466 0.930 . S
H458 C468 0.930 . S
H459 C471 0.929 . S
H460 C474 0.930 . S
H461 C476 0.960 . S
H462 C476 0.960 1_554 S
H463 C476 0.960 . S
C464 H456 0.929 . S
C464 C465 1.377 . S
C464 C466 1.384 . S
C465 C464 1.377 . S
C465 C471 1.390 . S
C466 H457 0.930 . S
C466 C464 1.384 . S
C466 C467 1.372 1_554 S
C467 C466 1.372 1_556 S
C467 C468 1.400 . S
C467 C472 1.490 . S
C468 H458 0.930 . S
C468 C467 1.400 . S
C468 C471 1.386 1_556 S
H469 C485 0.930 . S
H470 C486 0.931 . S
C471 H459 0.929 . S
C471 C465 1.390 . S
C471 C468 1.386 1_554 S
C472 C467 1.490 . S
C472 C474 1.395 . S
C472 C475 1.403 . S
H473 C479 0.930 . S
C474 H460 0.930 . S
C474 C472 1.395 . S
C474 C477 1.403 . S
C475 C472 1.403 . S
C475 C476 1.524 . S
C475 C479 1.400 . S
C476 H461 0.960 . S
C476 H462 0.960 1_556 S
C476 H463 0.960 . S
C476 C475 1.524 . S
C477 C474 1.403 . S
C477 C478 1.392 . S
C477 C481 1.495 . S
C478 C477 1.392 . S
C478 C479 1.385 . S
C478 C480 1.478 . S
C479 H473 0.930 . S
C479 C475 1.400 . S
C479 C478 1.385 . S
C480 C478 1.478 . S
C480 C482 1.381 . S
C480 C486 1.383 . S
C481 C477 1.495 . S
C481 H487 0.959 . S
C481 H488 0.961 . S
C481 H489 0.960 . S
C482 C480 1.381 . S
C482 C483 1.394 . S
C482 H490 0.930 . S
C483 C482 1.394 . S
C483 C484 1.383 . S
C483 H491 0.929 . S
C484 C483 1.383 . S
C484 C485 1.377 . S
C485 H469 0.930 . S
C485 C484 1.377 . S
C485 C486 1.379 . S
C486 H470 0.931 . S
C486 C480 1.383 . S
C486 C485 1.379 . S
H487 C481 0.959 . S
H488 C481 0.961 . S
H489 C481 0.960 . S
H490 C482 0.930 . S
H491 C483 0.929 . S
H492 C500 0.929 . S
H493 C502 0.930 . S
H494 C504 0.930 . S
H495 C507 0.929 . S
H496 C510 0.930 . S
H497 C512 0.960 . S
H498 C512 0.954 1_554 S
H499 C512 0.960 . S
C500 H492 0.929 . S
C500 C501 1.377 . S
C500 C502 1.384 . S
C501 C500 1.377 . S
C501 C507 1.390 . S
C502 H493 0.930 . S
C502 C500 1.384 . S
C502 C503 1.372 . S
C503 C502 1.372 . S
C503 C504 1.400 . S
C503 C508 1.490 . S
C504 H494 0.930 . S
C504 C503 1.400 . S
C504 C507 1.386 . S
H505 C521 0.930 . S
H506 C522 0.931 . S
C507 H495 0.929 . S
C507 C501 1.390 . S
C507 C504 1.386 . S
C508 C503 1.490 . S
C508 C510 1.395 . S
C508 C511 1.403 . S
H509 C515 0.930 . S
C510 H496 0.930 . S
C510 C508 1.395 . S
C510 C513 1.403 . S
C511 C508 1.403 . S
C511 C512 1.524 . S
C511 C515 1.400 . S
C512 H497 0.960 . S
C512 H498 0.954 1_556 S
C512 H499 0.960 . S
C512 C511 1.524 . S
C513 C510 1.403 . S
C513 C514 1.392 . S
C513 C517 1.495 . S
C514 C513 1.392 . S
C514 C515 1.385 . S
C514 C516 1.478 . S
C515 H509 0.930 . S
C515 C511 1.400 . S
C515 C514 1.385 . S
C516 C514 1.478 . S
C516 C518 1.381 . S
C516 C522 1.383 1_655 S
C517 C513 1.495 . S
C517 H523 0.959 . S
C517 H524 0.961 . S
C517 H525 0.960 . S
C518 C516 1.381 . S
C518 C519 1.394 . S
C518 H526 0.930 . S
C519 C518 1.394 . S
C519 C520 1.383 . S
C519 H527 0.929 . S
C520 C519 1.383 . S
C520 C521 1.377 1_655 S
C521 H505 0.930 . S
C521 C520 1.377 1_455 S
C521 C522 1.379 . S
C522 H506 0.931 . S
C522 C516 1.383 1_455 S
C522 C521 1.379 . S
H523 C517 0.959 . S
H524 C517 0.961 . S
H525 C517 0.960 . S
H526 C518 0.930 . S
H527 C519 0.929 . S
H528 C536 0.929 . S
H529 C538 0.930 . S
H530 C540 0.930 . S
H531 C543 0.929 . S
H532 C546 0.930 . S
H533 C548 0.960 . S
H534 C548 0.960 . S
H535 C548 0.960 . S
C536 H528 0.929 . S
C536 C537 1.377 . S
C536 C538 1.384 . S
C537 C536 1.377 . S
C537 C543 1.390 . S
C538 H529 0.930 . S
C538 C536 1.384 . S
C538 C539 1.372 . S
C539 C538 1.372 . S
C539 C540 1.400 . S
C539 C544 1.490 . S
C540 H530 0.930 . S
C540 C539 1.400 . S
C540 C543 1.386 . S
H541 C557 0.930 . S
H542 C558 0.931 . S
C543 H531 0.929 . S
C543 C537 1.390 . S
C543 C540 1.386 . S
C544 C539 1.490 . S
C544 C546 1.395 . S
C544 C547 1.403 . S
H545 C551 0.930 . S
C546 H532 0.930 . S
C546 C544 1.395 . S
C546 C549 1.403 . S
C547 C544 1.403 . S
C547 C548 1.524 . S
C547 C551 1.400 . S
C548 H533 0.960 . S
C548 H534 0.960 . S
C548 H535 0.960 . S
C548 C547 1.524 . S
C549 C546 1.403 . S
C549 C550 1.392 . S
C549 C553 1.495 1_455 S
C550 C549 1.392 . S
C550 C551 1.385 . S
C550 C552 1.478 . S
C551 H545 0.930 . S
C551 C547 1.400 . S
C551 C550 1.385 . S
C552 C550 1.478 . S
C552 C554 1.371 1_455 S
C552 C558 1.383 . S
C553 C549 1.495 1_655 S
C553 H559 0.959 . S
C553 H560 0.961 . S
C553 H561 0.960 . S
C554 C552 1.371 1_655 S
C554 C555 1.398 . S
C554 H562 0.937 . S
C555 C554 1.398 . S
C555 C556 1.383 1_655 S
C555 H563 0.929 . S
C556 C555 1.383 1_455 S
C556 C557 1.377 . S
C557 H541 0.930 . S
C557 C556 1.377 . S
C557 C558 1.379 . S
C558 H542 0.931 . S
C558 C552 1.383 . S
C558 C557 1.379 . S
H559 C553 0.959 . S
H560 C553 0.961 . S
H561 C553 0.960 . S
H562 C554 0.937 . S
H563 C555 0.929 . S
H564 C572 0.929 . S
H565 C574 0.930 . S
H566 C576 0.930 . S
H567 C579 0.929 . S
H568 C582 0.930 . S
H569 C584 0.960 . S
H570 C584 0.960 . S
H571 C584 0.960 . S
C572 H564 0.929 . S
C572 C573 1.385 . S
C572 C574 1.384 . S
C573 C572 1.385 . S
C573 C579 1.382 1_545 S
C574 H565 0.930 . S
C574 C572 1.384 . S
C574 C575 1.371 1_545 S
C575 C574 1.371 1_565 S
C575 C576 1.400 . S
C575 C580 1.490 . S
C576 H566 0.930 . S
C576 C575 1.400 . S
C576 C579 1.386 . S
H577 C593 0.930 . S
H578 C594 0.931 . S
C579 H567 0.929 . S
C579 C573 1.382 1_565 S
C579 C576 1.386 . S
C580 C575 1.490 . S
C580 C582 1.388 1_565 S
C580 C583 1.409 . S
H581 C587 0.930 . S
C582 H568 0.930 . S
C582 C580 1.388 1_545 S
C582 C585 1.403 . S
C583 C580 1.409 . S
C583 C584 1.524 . S
C583 C587 1.400 . S
C584 H569 0.960 . S
C584 H570 0.960 . S
C584 H571 0.960 . S
C584 C583 1.524 . S
C585 C582 1.403 . S
C585 C586 1.396 . S
C585 C589 1.495 . S
C586 C585 1.396 . S
C586 C587 1.381 1_545 S
C586 C588 1.478 1_545 S
C587 H581 0.930 . S
C587 C583 1.400 . S
C587 C586 1.381 1_565 S
C588 C586 1.478 1_565 S
C588 C590 1.347 1_565 S
C588 C594 1.419 . S
C589 C585 1.495 . S
C589 H595 0.959 . S
C589 H596 0.961 . S
C589 H597 0.960 . S
C590 C588 1.347 1_545 S
C590 C591 1.394 . S
C590 H598 0.930 . S
C591 C590 1.394 . S
C591 C592 1.383 1_545 S
C591 H599 0.929 . S
C592 C591 1.383 1_565 S
C592 C593 1.377 . S
C593 H577 0.930 . S
C593 C592 1.377 . S
C593 C594 1.379 . S
C594 H578 0.931 . S
C594 C588 1.419 . S
C594 C593 1.379 . S
H595 C589 0.959 . S
H596 C589 0.961 . S
H597 C589 0.960 . S
H598 C590 0.930 . S
H599 C591 0.929 . S
H600 C608 0.929 . S
H601 C610 0.930 . S
H602 C612 0.930 . S
H603 C615 0.929 . S
H604 C618 0.930 . S
H605 C620 0.960 . S
H606 C620 0.960 . S
H607 C620 0.960 . S
C608 H600 0.929 . S
C608 C609 1.377 . S
C608 C610 1.384 . S
C609 C608 1.377 . S
C609 C615 1.390 . S
C610 H601 0.930 . S
C610 C608 1.384 . S
C610 C611 1.372 . S
C611 C610 1.372 . S
C611 C612 1.400 . S
C611 C616 1.490 . S
C612 H602 0.930 . S
C612 C611 1.400 . S
C612 C615 1.386 . S
H613 C629 0.930 . S
H614 C630 0.931 . S
C615 H603 0.929 . S
C615 C609 1.390 . S
C615 C612 1.386 . S
C616 C611 1.490 . S
C616 C618 1.395 . S
C616 C619 1.403 . S
H617 C623 0.930 . S
C618 H604 0.930 . S
C618 C616 1.395 . S
C618 C621 1.403 . S
C619 C616 1.403 . S
C619 C620 1.524 . S
C619 C623 1.400 . S
C620 H605 0.960 . S
C620 H606 0.960 . S
C620 H607 0.960 . S
C620 C619 1.524 . S
C621 C618 1.403 . S
C621 C622 1.392 . S
C621 C625 1.495 . S
C622 C621 1.392 . S
C622 C623 1.385 . S
C622 C624 1.478 . S
C623 H617 0.930 . S
C623 C619 1.400 . S
C623 C622 1.385 . S
C624 C622 1.478 . S
C624 C626 1.381 . S
C624 C630 1.383 . S
C625 C621 1.495 . S
C625 H631 0.959 . S
C625 H632 0.961 . S
C625 H633 0.960 . S
C626 C624 1.381 . S
C626 C627 1.394 . S
C626 H634 0.930 . S
C627 C626 1.394 . S
C627 C628 1.383 . S
C627 H635 0.929 . S
C628 C627 1.383 . S
C628 C629 1.377 . S
C629 H613 0.930 . S
C629 C628 1.377 . S
C629 C630 1.379 . S
C630 H614 0.931 . S
C630 C624 1.383 . S
C630 C629 1.379 . S
H631 C625 0.959 . S
H632 C625 0.961 . S
H633 C625 0.960 . S
H634 C626 0.930 . S
H635 C627 0.929 . S
H636 C644 0.929 . S
H637 C646 0.930 . S
H638 C648 0.930 . S
H639 C651 0.929 . S
H640 C654 0.930 . S
H641 C656 0.960 . S
H642 C656 0.960 . S
H643 C656 0.960 . S
C644 H636 0.929 . S
C644 C645 1.377 . S
C644 C646 1.384 . S
C645 C644 1.377 . S
C645 C651 1.390 . S
C646 H637 0.930 . S
C646 C644 1.384 . S
C646 C647 1.372 . S
C647 C646 1.372 . S
C647 C648 1.400 . S
C647 C652 1.490 . S
C648 H638 0.930 . S
C648 C647 1.400 . S
C648 C651 1.386 . S
H649 C665 0.930 . S
H650 C666 0.931 . S
C651 H639 0.929 . S
C651 C645 1.390 . S
C651 C648 1.386 . S
C652 C647 1.490 . S
C652 C654 1.395 . S
C652 C655 1.403 . S
H653 C659 0.930 . S
C654 H640 0.930 . S
C654 C652 1.395 . S
C654 C657 1.403 . S
C655 C652 1.403 . S
C655 C656 1.524 . S
C655 C659 1.400 . S
C656 H641 0.960 . S
C656 H642 0.960 . S
C656 H643 0.960 . S
C656 C655 1.524 . S
C657 C654 1.403 . S
C657 C658 1.392 . S
C657 C661 1.495 . S
C658 C657 1.392 . S
C658 C659 1.385 . S
C658 C660 1.478 . S
C659 H653 0.930 . S
C659 C655 1.400 . S
C659 C658 1.385 . S
C660 C658 1.478 . S
C660 C662 1.381 . S
C660 C666 1.383 . S
C661 C657 1.495 . S
C661 H667 0.959 . S
C661 H668 0.961 . S
C661 H669 0.960 . S
C662 C660 1.381 . S
C662 C663 1.394 . S
C662 H670 0.930 . S
C663 C662 1.394 . S
C663 C664 1.383 . S
C663 H671 0.929 . S
C664 C663 1.383 . S
C664 C665 1.377 . S
C665 H649 0.930 . S
C665 C664 1.377 . S
C665 C666 1.379 . S
C666 H650 0.931 . S
C666 C660 1.383 . S
C666 C665 1.379 . S
H667 C661 0.959 . S
H668 C661 0.961 . S
H669 C661 0.960 . S
H670 C662 0.930 . S
H671 C663 0.929 . S
H672 C680 0.929 1_554 S
H673 C682 0.930 . S
H674 C684 0.930 . S
H675 C687 0.929 . S
H676 C690 0.930 1_455 S
H677 C692 0.960 . S
H678 C692 0.960 . S
H679 C692 0.960 . S
C680 H672 0.929 1_556 S
C680 C681 1.377 . S
C680 C682 1.384 . S
C681 C680 1.377 . S
C681 C687 1.390 . S
C682 H673 0.930 . S
C682 C680 1.384 . S
C682 C683 1.372 . S
C683 C682 1.372 . S
C683 C684 1.400 . S
C683 C688 1.490 . S
C684 H674 0.930 . S
C684 C683 1.400 . S
C684 C687 1.386 . S
H685 C701 0.930 . S
H686 C702 0.931 . S
C687 H675 0.929 . S
C687 C681 1.390 . S
C687 C684 1.386 . S
C688 C683 1.490 . S
C688 C690 1.395 . S
C688 C691 1.403 . S
H689 C695 0.930 . S
C690 H676 0.930 1_655 S
C690 C688 1.395 . S
C690 C693 1.403 1_655 S
C691 C688 1.403 . S
C691 C692 1.524 . S
C691 C695 1.400 . S
C692 H677 0.960 . S
C692 H678 0.960 . S
C692 H679 0.960 . S
C692 C691 1.524 . S
C693 C690 1.403 1_455 S
C693 C694 1.392 1_455 S
C693 C697 1.495 . S
C694 C693 1.392 1_655 S
C694 C695 1.385 . S
C694 C696 1.478 . S
C695 H689 0.930 . S
C695 C691 1.400 . S
C695 C694 1.385 . S
C696 C694 1.478 . S
C696 C698 1.381 1_655 S
C696 C702 1.383 . S
C697 C693 1.495 . S
C697 H703 0.959 . S
C697 H704 0.961 . S
C697 H705 0.960 . S
C698 C696 1.381 1_455 S
C698 C699 1.394 . S
C698 H706 0.930 . S
C699 C698 1.394 . S
C699 C700 1.383 . S
C699 H707 0.929 . S
C700 C699 1.383 . S
C700 C701 1.377 1_455 S
C701 H685 0.930 . S
C701 C700 1.377 1_655 S
C701 C702 1.379 . S
C702 H686 0.931 . S
C702 C696 1.383 . S
C702 C701 1.379 . S
H703 C697 0.959 . S
H704 C697 0.961 . S
H705 C697 0.960 . S
H706 C698 0.930 . S
H707 C699 0.929 . S
H708 C716 0.929 . S
H709 C718 0.930 . S
H710 C720 0.930 . S
H711 C723 0.929 . S
H712 C726 0.930 . S
H713 C728 0.960 . S
H714 C728 0.960 . S
H715 C728 0.960 . S
C716 H708 0.929 . S
C716 C717 1.380 . S
C716 C718 1.384 . S
C717 C716 1.380 . S
C717 C723 1.387 1_564 S
C718 H709 0.930 . S
C718 C716 1.384 . S
C718 C719 1.360 1_564 S
C719 C718 1.360 1_546 S
C719 C720 1.412 . S
C719 C724 1.491 . S
C720 H710 0.930 . S
C720 C719 1.412 . S
C720 C723 1.386 . S
H721 C737 0.930 . S
H722 C738 0.931 . S
C723 H711 0.929 . S
C723 C717 1.387 1_546 S
C723 C720 1.386 . S
C724 C719 1.491 . S
C724 C726 1.395 . S
C724 C727 1.403 1_545 S
H725 C731 0.930 . S
C726 H712 0.930 . S
C726 C724 1.395 . S
C726 C729 1.403 . S
C727 C724 1.403 1_565 S
C727 C728 1.524 . S
C727 C731 1.400 . S
C728 H713 0.960 . S
C728 H714 0.960 . S
C728 H715 0.960 . S
C728 C727 1.524 . S
C729 C726 1.403 . S
C729 C730 1.392 . S
C729 C733 1.495 . S
C730 C729 1.392 . S
C730 C731 1.385 1_545 S
C730 C732 1.478 . S
C731 H725 0.930 . S
C731 C727 1.400 . S
C731 C730 1.385 1_565 S
C732 C730 1.478 . S
C732 C734 1.381 1_545 S
C732 C738 1.383 . S
C733 C729 1.495 . S
C733 H739 0.959 . S
C733 H740 0.961 . S
C733 H741 0.960 . S
C734 C732 1.381 1_565 S
C734 C735 1.394 . S
C734 H742 0.930 . S
C735 C734 1.394 . S
C735 C736 1.383 1_565 S
C735 H743 0.929 . S
C736 C735 1.383 1_545 S
C736 C737 1.377 . S
C737 H721 0.930 . S
C737 C736 1.377 . S
C737 C738 1.379 . S
C738 H722 0.931 . S
C738 C732 1.383 . S
C738 C737 1.379 . S
H739 C733 0.959 . S
H740 C733 0.961 . S
H741 C733 0.960 . S
H742 C734 0.930 . S
H743 C735 0.929 . S
H744 C752 0.929 . S
H745 C754 0.930 1_554 S
H746 C756 0.930 . S
H747 C759 0.929 . S
H748 C762 0.930 1_554 S
H749 C764 0.960 . S
H750 C764 0.960 . S
H751 C764 0.960 . S
C752 H744 0.929 . S
C752 C753 1.377 . S
C752 C754 1.384 1_554 S
C753 C752 1.377 . S
C753 C759 1.390 1_554 S
C754 H745 0.930 1_556 S
C754 C752 1.384 1_556 S
C754 C755 1.372 . S
C755 C754 1.372 . S
C755 C756 1.400 . S
C755 C760 1.490 . S
C756 H746 0.930 . S
C756 C755 1.400 . S
C756 C759 1.386 . S
H757 C773 0.930 . S
H758 C774 0.931 . S
C759 H747 0.929 . S
C759 C753 1.390 1_556 S
C759 C756 1.386 . S
C760 C755 1.490 . S
C760 C762 1.395 . S
C760 C763 1.403 . S
H761 C767 0.930 . S
C762 H748 0.930 1_556 S
C762 C760 1.395 . S
C762 C765 1.403 . S
C763 C760 1.403 . S
C763 C764 1.524 . S
C763 C767 1.400 . S
C764 H749 0.960 . S
C764 H750 0.960 . S
C764 H751 0.960 . S
C764 C763 1.524 . S
C765 C762 1.403 . S
C765 C766 1.392 . S
C765 C769 1.495 . S
C766 C765 1.392 . S
C766 C767 1.385 . S
C766 C768 1.478 . S
C767 H761 0.930 . S
C767 C763 1.400 . S
C767 C766 1.385 . S
C768 C766 1.478 . S
C768 C770 1.381 . S
C768 C774 1.383 . S
C769 C765 1.495 . S
C769 H775 0.959 1_556 S
C769 H776 0.961 . S
C769 H777 0.960 . S
C770 C768 1.381 . S
C770 C771 1.394 . S
C770 H778 0.930 . S
C771 C770 1.394 . S
C771 C772 1.383 . S
C771 H779 0.929 . S
C772 C771 1.383 . S
C772 C773 1.377 . S
C773 H757 0.930 . S
C773 C772 1.377 . S
C773 C774 1.379 . S
C774 H758 0.931 . S
C774 C768 1.383 . S
C774 C773 1.379 . S
H775 C769 0.959 1_554 S
H776 C769 0.961 . S
H777 C769 0.960 . S
H778 C770 0.930 . S
H779 C771 0.929 . S
H780 C788 0.929 . S
H781 C790 0.930 . S
H782 C792 0.930 . S
H783 C795 0.929 . S
H784 C798 0.930 . S
H785 C800 0.960 . S
H786 C800 0.960 1_554 S
H787 C800 0.960 . S
C788 H780 0.929 . S
C788 C789 1.377 . S
C788 C790 1.384 . S
C789 C788 1.377 . S
C789 C795 1.390 . S
C790 H781 0.930 . S
C790 C788 1.384 . S
C790 C791 1.372 . S
C791 C790 1.372 . S
C791 C792 1.400 1_554 S
C791 C796 1.490 1_554 S
C792 H782 0.930 . S
C792 C791 1.400 1_556 S
C792 C795 1.386 1_556 S
H793 C809 0.930 . S
H794 C810 0.931 . S
C795 H783 0.929 . S
C795 C789 1.390 . S
C795 C792 1.386 1_554 S
C796 C791 1.490 1_556 S
C796 C798 1.395 . S
C796 C799 1.403 . S
H797 C803 0.930 . S
C798 H784 0.930 . S
C798 C796 1.395 . S
C798 C801 1.403 . S
C799 C796 1.403 . S
C799 C800 1.524 . S
C799 C803 1.400 . S
C800 H785 0.960 . S
C800 H786 0.960 1_556 S
C800 H787 0.960 . S
C800 C799 1.524 . S
C801 C798 1.403 . S
C801 C802 1.392 . S
C801 C805 1.495 . S
C802 C801 1.392 . S
C802 C803 1.385 . S
C802 C804 1.478 . S
C803 H797 0.930 . S
C803 C799 1.400 . S
C803 C802 1.385 . S
C804 C802 1.478 . S
C804 C806 1.381 . S
C804 C810 1.383 . S
C805 C801 1.495 . S
C805 H811 0.959 . S
C805 H812 0.961 . S
C805 H813 0.960 . S
C806 C804 1.381 . S
C806 C807 1.394 . S
C806 H814 0.930 . S
C807 C806 1.394 . S
C807 C808 1.383 . S
C807 H815 0.929 . S
C808 C807 1.383 . S
C808 C809 1.377 . S
C809 H793 0.930 . S
C809 C808 1.377 . S
C809 C810 1.379 . S
C810 H794 0.931 . S
C810 C804 1.383 . S
C810 C809 1.379 . S
H811 C805 0.959 . S
H812 C805 0.961 . S
H813 C805 0.960 . S
H814 C806 0.930 . S
H815 C807 0.929 . S
H816 C824 0.929 . S
H817 C826 0.930 . S
H818 C828 0.930 . S
H819 C831 0.929 . S
H820 C834 0.930 . S
H821 C836 0.960 . S
H822 C836 0.960 . S
H823 C836 0.960 . S
C824 H816 0.929 . S
C824 C825 1.377 . S
C824 C826 1.384 . S
C825 C824 1.377 . S
C825 C831 1.390 . S
C826 H817 0.930 . S
C826 C824 1.384 . S
C826 C827 1.372 . S
C827 C826 1.372 . S
C827 C828 1.400 . S
C827 C832 1.490 . S
C828 H818 0.930 . S
C828 C827 1.400 . S
C828 C831 1.386 . S
H829 C845 0.930 1_655 S
H830 C846 0.931 . S
C831 H819 0.929 . S
C831 C825 1.390 . S
C831 C828 1.386 . S
C832 C827 1.490 . S
C832 C834 1.395 . S
C832 C835 1.403 . S
H833 C839 0.930 . S
C834 H820 0.930 . S
C834 C832 1.395 . S
C834 C837 1.403 . S
C835 C832 1.403 . S
C835 C836 1.524 . S
C835 C839 1.400 . S
C836 H821 0.960 . S
C836 H822 0.960 . S
C836 H823 0.960 . S
C836 C835 1.524 . S
C837 C834 1.403 . S
C837 C838 1.392 . S
C837 C841 1.495 . S
C838 C837 1.392 . S
C838 C839 1.385 . S
C838 C840 1.478 . S
C839 H833 0.930 . S
C839 C835 1.400 . S
C839 C838 1.385 . S
C840 C838 1.478 . S
C840 C842 1.381 . S
C840 C846 1.383 . S
C841 C837 1.495 . S
C841 H847 0.959 . S
C841 H848 0.961 . S
C841 H849 0.960 . S
C842 C840 1.381 . S
C842 C843 1.394 1_554 S
C842 H850 0.930 . S
C843 C842 1.394 1_556 S
C843 C844 1.383 . S
C843 H851 0.929 . S
C844 C843 1.383 . S
C844 C845 1.377 . S
C845 H829 0.930 1_455 S
C845 C844 1.377 . S
C845 C846 1.379 1_556 S
C846 H830 0.931 . S
C846 C840 1.383 . S
C846 C845 1.379 1_554 S
H847 C841 0.959 . S
H848 C841 0.961 . S
H849 C841 0.960 . S
H850 C842 0.930 . S
H851 C843 0.929 . S
H852 C860 0.929 . S
H853 C862 0.930 . S
H854 C864 0.930 . S
H855 C867 0.929 . S
H856 C870 0.930 . S
H857 C872 0.960 . S
H858 C872 0.960 . S
H859 C872 0.960 . S
C860 H852 0.929 . S
C860 C861 1.372 1_565 S
C860 C862 1.384 . S
C861 C860 1.372 1_545 S
C861 C867 1.396 . S
C862 H853 0.930 . S
C862 C860 1.384 . S
C862 C863 1.372 1_565 S
C863 C862 1.372 1_545 S
C863 C864 1.400 . S
C863 C868 1.494 . S
C864 H854 0.930 . S
C864 C863 1.400 . S
C864 C867 1.386 . S
H865 C881 0.930 . S
H866 C882 0.931 . S
C867 H855 0.929 . S
C867 C861 1.396 . S
C867 C864 1.386 . S
C868 C863 1.494 . S
C868 C870 1.346 1_545 S
C868 C871 1.448 . S
H869 C875 0.930 . S
C870 H856 0.930 . S
C870 C868 1.346 1_565 S
C870 C873 1.403 . S
C871 C868 1.448 . S
C871 C872 1.524 . S
C871 C875 1.400 1_554 S
C872 H857 0.960 . S
C872 H858 0.960 . S
C872 H859 0.960 . S
C872 C871 1.524 . S
C873 C870 1.403 . S
C873 C874 1.392 1_554 S
C873 C877 1.495 . S
C874 C873 1.392 1_556 S
C874 C875 1.385 1_565 S
C874 C876 1.477 . S
C875 H869 0.930 . S
C875 C871 1.400 1_556 S
C875 C874 1.385 1_545 S
C876 C874 1.477 . S
C876 C878 1.386 . S
C876 C882 1.379 1_565 S
C877 C873 1.495 . S
C877 H883 0.959 . S
C877 H884 0.961 1_554 S
C877 H885 0.960 . S
C878 C876 1.386 . S
C878 C879 1.397 . S
C878 H886 0.930 . S
C879 C878 1.397 . S
C879 C880 1.380 1_565 S
C879 H887 0.932 . S
C880 C879 1.380 1_545 S
C880 C881 1.377 . S
C881 H865 0.930 . S
C881 C880 1.377 . S
C881 C882 1.379 . S
C882 H866 0.931 . S
C882 C876 1.379 1_545 S
C882 C881 1.379 . S
H883 C877 0.959 . S
H884 C877 0.961 1_556 S
H885 C877 0.960 . S
H886 C878 0.930 . S
H887 C879 0.932 . S
H888 C896 0.929 . S
H889 C898 0.930 . S
H890 C900 0.930 . S
H891 C903 0.929 . S
H892 C906 0.930 . S
H893 C908 0.960 . S
H894 C908 0.960 . S
H895 C908 0.960 . S
C896 H888 0.929 . S
C896 C897 1.377 . S
C896 C898 1.384 . S
C897 C896 1.377 . S
C897 C903 1.390 . S
C898 H889 0.930 . S
C898 C896 1.384 . S
C898 C899 1.372 . S
C899 C898 1.372 . S
C899 C900 1.400 . S
C899 C904 1.490 . S
C900 H890 0.930 . S
C900 C899 1.400 . S
C900 C903 1.386 . S
H901 C917 0.930 . S
H902 C918 0.931 . S
C903 H891 0.929 . S
C903 C897 1.390 . S
C903 C900 1.386 . S
C904 C899 1.490 . S
C904 C906 1.395 . S
C904 C907 1.403 . S
H905 C911 0.930 . S
C906 H892 0.930 . S
C906 C904 1.395 . S
C906 C909 1.403 1_554 S
C907 C904 1.403 . S
C907 C908 1.524 . S
C907 C911 1.400 . S
C908 H893 0.960 . S
C908 H894 0.960 . S
C908 H895 0.960 . S
C908 C907 1.524 . S
C909 C906 1.403 1_556 S
C909 C910 1.392 . S
C909 C913 1.495 . S
C910 C909 1.392 . S
C910 C911 1.385 1_556 S
C910 C912 1.478 . S
C911 H905 0.930 . S
C911 C907 1.400 . S
C911 C910 1.385 1_554 S
C912 C910 1.478 . S
C912 C914 1.381 . S
C912 C918 1.383 . S
C913 C909 1.495 . S
C913 H919 0.959 . S
C913 H920 0.961 . S
C913 H921 0.960 . S
C914 C912 1.381 . S
C914 C915 1.394 . S
C914 H922 0.930 . S
C915 C914 1.394 . S
C915 C916 1.383 . S
C915 H923 0.929 . S
C916 C915 1.383 . S
C916 C917 1.377 . S
C917 H901 0.930 . S
C917 C916 1.377 . S
C917 C918 1.379 . S
C918 H902 0.931 . S
C918 C912 1.383 . S
C918 C917 1.379 . S
H919 C913 0.959 . S
H920 C913 0.961 . S
H921 C913 0.960 . S
H922 C914 0.930 . S
H923 C915 0.929 . S
H924 C932 0.929 . S
H925 C934 0.930 . S
H926 C936 0.930 . S
H927 C939 0.929 . S
H928 C942 0.930 . S
H929 C944 0.960 . S
H930 C944 0.960 . S
H931 C944 0.960 . S
C932 H924 0.929 . S
C932 C933 1.377 . S
C932 C934 1.384 . S
C933 C932 1.377 . S
C933 C939 1.390 . S
C934 H925 0.930 . S
C934 C932 1.384 . S
C934 C935 1.372 . S
C935 C934 1.372 . S
C935 C936 1.400 . S
C935 C940 1.490 . S
C936 H926 0.930 . S
C936 C935 1.400 . S
C936 C939 1.386 . S
H937 C953 0.930 . S
H938 C954 0.931 . S
C939 H927 0.929 . S
C939 C933 1.390 . S
C939 C936 1.386 . S
C940 C935 1.490 . S
C940 C942 1.395 1_554 S
C940 C943 1.403 . S
H941 C947 0.930 1_554 S
C942 H928 0.930 . S
C942 C940 1.395 1_556 S
C942 C945 1.403 . S
C943 C940 1.403 . S
C943 C944 1.524 . S
C943 C947 1.400 1_554 S
C944 H929 0.960 . S
C944 H930 0.960 . S
C944 H931 0.960 . S
C944 C943 1.524 . S
C945 C942 1.403 . S
C945 C946 1.392 . S
C945 C949 1.495 . S
C946 C945 1.392 . S
C946 C947 1.385 . S
C946 C948 1.478 . S
C947 H941 0.930 1_556 S
C947 C943 1.400 1_556 S
C947 C946 1.385 . S
C948 C946 1.478 . S
C948 C950 1.381 . S
C948 C954 1.383 . S
C949 C945 1.495 . S
C949 H955 0.959 . S
C949 H956 0.961 . S
C949 H957 0.960 . S
C950 C948 1.381 . S
C950 C951 1.394 . S
C950 H958 0.930 . S
C951 C950 1.394 . S
C951 C952 1.383 . S
C951 H959 0.929 . S
C952 C951 1.383 . S
C952 C953 1.377 . S
C953 H937 0.930 . S
C953 C952 1.377 . S
C953 C954 1.379 . S
C954 H938 0.931 . S
C954 C948 1.383 . S
C954 C953 1.379 . S
H955 C949 0.959 . S
H956 C949 0.961 . S
H957 C949 0.960 . S
H958 C950 0.930 . S
H959 C951 0.929 . S
H960 C968 0.929 . S
H961 C970 0.930 . S
H962 C972 0.930 . S
H963 C975 0.929 . S
H964 C978 0.930 . S
H965 C980 0.960 . S
H966 C980 0.960 . S
H967 C980 0.960 . S
C968 H960 0.929 . S
C968 C969 1.377 . S
C968 C970 1.384 . S
C969 C968 1.377 . S
C969 C975 1.390 . S
C970 H961 0.930 . S
C970 C968 1.384 . S
C970 C971 1.372 . S
C971 C970 1.372 . S
C971 C972 1.400 . S
C971 C976 1.490 . S
C972 H962 0.930 . S
C972 C971 1.400 . S
C972 C975 1.386 . S
H973 C989 0.930 1_455 S
H974 C990 0.931 1_455 S
C975 H963 0.929 . S
C975 C969 1.390 . S
C975 C972 1.386 . S
C976 C971 1.490 . S
C976 C978 1.395 . S
C976 C979 1.403 . S
H977 C983 0.930 . S
C978 H964 0.930 . S
C978 C976 1.395 . S
C978 C981 1.403 . S
C979 C976 1.403 . S
C979 C980 1.524 . S
C979 C983 1.400 . S
C980 H965 0.960 . S
C980 H966 0.960 . S
C980 H967 0.960 . S
C980 C979 1.524 . S
C981 C978 1.403 . S
C981 C982 1.392 . S
C981 C985 1.495 . S
C982 C981 1.392 . S
C982 C983 1.385 . S
C982 C984 1.478 . S
C983 H977 0.930 . S
C983 C979 1.400 . S
C983 C982 1.385 . S
C984 C982 1.478 . S
C984 C986 1.381 . S
C984 C990 1.383 . S
C985 C981 1.495 . S
C985 H991 0.959 . S
C985 H992 0.961 . S
C985 H993 0.960 . S
C986 C984 1.381 . S
C986 C987 1.394 . S
C986 H994 0.930 . S
C987 C986 1.394 . S
C987 C988 1.383 . S
C987 H995 0.929 . S
C988 C987 1.383 . S
C988 C989 1.377 . S
C989 H973 0.930 1_655 S
C989 C988 1.377 . S
C989 C990 1.379 . S
C990 H974 0.931 1_655 S
C990 C984 1.383 . S
C990 C989 1.379 . S
H991 C985 0.959 . S
H992 C985 0.961 . S
H993 C985 0.960 . S
H994 C986 0.930 . S
H995 C987 0.929 . S
H996 C1004 0.929 . S
H997 C1006 0.930 . S
H998 C1008 0.930 . S
H999 C1011 0.929 . S
H1000 C1014 0.930 . S
H1001 C1016 0.960 . S
H1002 C1016 0.960 . S
H1003 C1016 0.960 . S
C1004 H996 0.929 . S
C1004 C1005 1.393 . S
C1004 C1006 1.384 . S
C1005 C1004 1.393 . S
C1005 C1011 1.374 1_565 S
C1006 H997 0.930 . S
C1006 C1004 1.384 . S
C1006 C1007 1.372 . S
C1007 C1006 1.372 . S
C1007 C1008 1.400 1_565 S
C1007 C1012 1.490 . S
C1008 H998 0.930 . S
C1008 C1007 1.400 1_545 S
C1008 C1011 1.386 . S
H1009 C1025 0.930 . S
H1010 C1026 0.931 . S
C1011 H999 0.929 . S
C1011 C1005 1.374 1_545 S
C1011 C1008 1.386 . S
C1012 C1007 1.490 . S
C1012 C1014 1.395 . S
C1012 C1015 1.403 1_565 S
H1013 C1019 0.930 . S
C1014 H1000 0.930 . S
C1014 C1012 1.395 . S
C1014 C1017 1.403 . S
C1015 C1012 1.403 1_545 S
C1015 C1016 1.524 . S
C1015 C1019 1.400 . S
C1016 H1001 0.960 . S
C1016 H1002 0.960 . S
C1016 H1003 0.960 . S
C1016 C1015 1.524 . S
C1017 C1014 1.403 . S
C1017 C1018 1.392 . S
C1017 C1021 1.495 . S
C1018 C1017 1.392 . S
C1018 C1019 1.385 1_565 S
C1018 C1020 1.478 . S
C1019 H1013 0.930 . S
C1019 C1015 1.400 . S
C1019 C1018 1.385 1_545 S
C1020 C1018 1.478 . S
C1020 C1022 1.381 . S
C1020 C1026 1.383 1_565 S
C1021 C1017 1.495 . S
C1021 H1027 0.959 . S
C1021 H1028 0.961 . S
C1021 H1029 0.960 . S
C1022 C1020 1.381 . S
C1022 C1023 1.394 . S
C1022 H1030 0.930 . S
C1023 C1022 1.394 . S
C1023 C1024 1.383 . S
C1023 H1031 0.929 . S
C1024 C1023 1.383 . S
C1024 C1025 1.377 1_565 S
C1025 H1009 0.930 . S
C1025 C1024 1.377 1_545 S
C1025 C1026 1.379 . S
C1026 H1010 0.931 . S
C1026 C1020 1.383 1_545 S
C1026 C1025 1.379 . S
H1027 C1021 0.959 . S
H1028 C1021 0.961 . S
H1029 C1021 0.960 . S
H1030 C1022 0.930 . S
H1031 C1023 0.929 . S
H1032 C1040 0.929 . S
H1033 C1042 0.930 . S
H1034 C1044 0.930 . S
H1035 C1047 0.929 . S
H1036 C1050 0.930 . S
H1037 C1052 0.960 . S
H1038 C1052 0.960 . S
H1039 C1052 0.960 . S
C1040 H1032 0.929 . S
C1040 C1041 1.377 . S
C1040 C1042 1.384 . S
C1041 C1040 1.377 . S
C1041 C1047 1.390 . S
C1042 H1033 0.930 . S
C1042 C1040 1.384 . S
C1042 C1043 1.372 . S
C1043 C1042 1.372 . S
C1043 C1044 1.400 . S
C1043 C1048 1.490 . S
C1044 H1034 0.930 . S
C1044 C1043 1.400 . S
C1044 C1047 1.386 . S
H1045 C1061 0.930 . S
H1046 C1062 0.931 . S
C1047 H1035 0.929 . S
C1047 C1041 1.390 . S
C1047 C1044 1.386 . S
C1048 C1043 1.490 . S
C1048 C1050 1.395 . S
C1048 C1051 1.403 . S
H1049 C1055 0.930 . S
C1050 H1036 0.930 . S
C1050 C1048 1.395 . S
C1050 C1053 1.403 . S
C1051 C1048 1.403 . S
C1051 C1052 1.524 . S
C1051 C1055 1.400 . S
C1052 H1037 0.960 . S
C1052 H1038 0.960 . S
C1052 H1039 0.960 . S
C1052 C1051 1.524 . S
C1053 C1050 1.403 . S
C1053 C1054 1.392 . S
C1053 C1057 1.495 . S
C1054 C1053 1.392 . S
C1054 C1055 1.385 . S
C1054 C1056 1.478 . S
C1055 H1049 0.930 . S
C1055 C1051 1.400 . S
C1055 C1054 1.385 . S
C1056 C1054 1.478 . S
C1056 C1058 1.381 . S
C1056 C1062 1.383 . S
C1057 C1053 1.495 . S
C1057 H1063 0.959 . S
C1057 H1064 0.961 . S
C1057 H1065 0.960 . S
C1058 C1056 1.381 . S
C1058 C1059 1.394 . S
C1058 H1066 0.930 . S
C1059 C1058 1.394 . S
C1059 C1060 1.383 . S
C1059 H1067 0.929 . S
C1060 C1059 1.383 . S
C1060 C1061 1.377 . S
C1061 H1045 0.930 . S
C1061 C1060 1.377 . S
C1061 C1062 1.379 . S
C1062 H1046 0.931 . S
C1062 C1056 1.383 . S
C1062 C1061 1.379 . S
H1063 C1057 0.959 . S
H1064 C1057 0.961 . S
H1065 C1057 0.960 . S
H1066 C1058 0.930 . S
H1067 C1059 0.929 . S
H1068 C1076 0.929 . S
H1069 C1078 0.930 . S
H1070 C1080 0.930 . S
H1071 C1083 0.929 . S
H1072 C1086 0.930 . S
H1073 C1088 0.960 . S
H1074 C1088 0.960 . S
H1075 C1088 0.960 . S
C1076 H1068 0.929 . S
C1076 C1077 1.377 . S
C1076 C1078 1.384 . S
C1077 C1076 1.377 . S
C1077 C1083 1.390 . S
C1078 H1069 0.930 . S
C1078 C1076 1.384 . S
C1078 C1079 1.372 . S
C1079 C1078 1.372 . S
C1079 C1080 1.400 . S
C1079 C1084 1.490 . S
C1080 H1070 0.930 . S
C1080 C1079 1.400 . S
C1080 C1083 1.386 . S
H1081 C1097 0.930 . S
H1082 C1098 0.931 . S
C1083 H1071 0.929 . S
C1083 C1077 1.390 . S
C1083 C1080 1.386 . S
C1084 C1079 1.490 . S
C1084 C1086 1.395 . S
C1084 C1087 1.403 . S
H1085 C1091 0.930 . S
C1086 H1072 0.930 . S
C1086 C1084 1.395 . S
C1086 C1089 1.403 . S
C1087 C1084 1.403 . S
C1087 C1088 1.524 . S
C1087 C1091 1.400 . S
C1088 H1073 0.960 . S
C1088 H1074 0.960 . S
C1088 H1075 0.960 . S
C1088 C1087 1.524 . S
C1089 C1086 1.403 . S
C1089 C1090 1.392 . S
C1089 C1093 1.495 . S
C1090 C1089 1.392 . S
C1090 C1091 1.385 . S
C1090 C1092 1.478 . S
C1091 H1085 0.930 . S
C1091 C1087 1.400 . S
C1091 C1090 1.385 . S
C1092 C1090 1.478 . S
C1092 C1094 1.381 . S
C1092 C1098 1.383 . S
C1093 C1089 1.495 . S
C1093 H1099 0.959 . S
C1093 H1100 0.961 . S
C1093 H1101 0.960 . S
C1094 C1092 1.381 . S
C1094 C1095 1.394 . S
C1094 H1102 0.930 . S
C1095 C1094 1.394 . S
C1095 C1096 1.383 . S
C1095 H1103 0.929 . S
C1096 C1095 1.383 . S
C1096 C1097 1.377 . S
C1097 H1081 0.930 . S
C1097 C1096 1.377 . S
C1097 C1098 1.379 . S
C1098 H1082 0.931 . S
C1098 C1092 1.383 . S
C1098 C1097 1.379 . S
H1099 C1093 0.959 . S
H1100 C1093 0.961 . S
H1101 C1093 0.960 . S
H1102 C1094 0.930 . S
H1103 C1095 0.929 . S
C249 C82 1.757 . S
C268 C121 1.864 . S
C304 C142 1.538 . S
C285 C95 1.461 . S
C340 C176 1.336 . S
C321 C56 1.224 . S
C376 C210 1.532 . S
C357 C69 1.466 . S
C412 C112 1.864 . S
C393 C30 1.757 1_556 S
C429 C43 1.449 . S
C448 C151 1.556 . S
C465 C4 1.229 . S
C484 C185 1.327 . S
C501 C17 1.441 . S
C520 C219 1.543 . S
C556 C133 0.323 . S
C537 C74 0.465 . S
C592 C138 0.681 . S
C573 C87 0.692 . S
C628 C172 0.640 . S
C609 C100 0.642 . S
C645 C61 0.230 . S
C664 C206 0.123 . S
C681 C22 0.432 . S
C700 C104 0.294 . S
C736 C167 0.712 . S
C717 C35 0.698 1_565 S
C772 C201 0.642 . S
C753 C48 0.644 . S
C789 C9 0.230 . S
C808 C235 0.224 . S
C825 C73 1.269 . S
C844 C117 1.298 . S
C861 C86 1.709 . S
C880 C146 1.749 . S
C916 C180 1.547 . S
C897 C99 1.517 . S
C952 C214 1.611 . S
C933 C60 1.568 . S
C969 C21 1.262 . S
C988 C108 1.286 . S
C1024 C155 1.751 . S
C1005 C34 1.711 1_565 S
C1060 C189 1.554 . S
C1041 C47 1.517 . S
C1077 C8 1.568 . S
C1096 C223 1.612 . S
