# Generated by pormake.
# Topology sit, (3,6)-cn, num edge types: 1
# Building blocks:
#     Node 0, Type 0, BuildingBlock: KAKCAD_clean_linker_0, # of connection points: 3
#     Node 1, Type 0, BuildingBlock: KAKCAD_clean_linker_0, # of connection points: 3
#     Node 2, Type 0, BuildingBlock: KAKCAD_clean_linker_0, # of connection points: 3
#     Node 3, Type 0, BuildingBlock: KAKCAD_clean_linker_0, # of connection points: 3
#     Node 4, Type 1, BuildingBlock: MIDCAF_clean_sbu_0, # of connection points: 6
#     Node 5, Type 1, BuildingBlock: MIDCAF_clean_sbu_0, # of connection points: 6
#     Edge 6, Type (0, 1), BuildingBlock: UVAHIK_clean_linker_0, # of connection points: 2
#     Edge 7, Type (0, 1), BuildingBlock: UVAHIK_clean_linker_0, # of connection points: 2
#     Edge 8, Type (0, 1), BuildingBlock: UVAHIK_clean_linker_0, # of connection points: 2
#     Edge 9, Type (0, 1), BuildingBlock: UVAHIK_clean_linker_0, # of connection points: 2
#     Edge 10, Type (0, 1), BuildingBlock: UVAHIK_clean_linker_0, # of connection points: 2
#     Edge 11, Type (0, 1), BuildingBlock: UVAHIK_clean_linker_0, # of connection points: 2
#     Edge 12, Type (0, 1), BuildingBlock: UVAHIK_clean_linker_0, # of connection points: 2
#     Edge 13, Type (0, 1), BuildingBlock: UVAHIK_clean_linker_0, # of connection points: 2
#     Edge 14, Type (0, 1), BuildingBlock: UVAHIK_clean_linker_0, # of connection points: 2
#     Edge 15, Type (0, 1), BuildingBlock: UVAHIK_clean_linker_0, # of connection points: 2
#     Edge 16, Type (0, 1), BuildingBlock: UVAHIK_clean_linker_0, # of connection points: 2
#     Edge 17, Type (0, 1), BuildingBlock: UVAHIK_clean_linker_0, # of connection points: 2
# Relax obj value: 0.110
# Max RMSD: 0.193
# Mean RMSD: 0.106
data_MOF--net-sit--node1-MIDCAF_clean_sbu_0--node2-KAKCAD_clean_linker_0--edge1-UVAHIK_clean_linker_0
_symmetry_space_group_name_H-M    P1
_symmetry_Int_Tables_number       1
_symmetry_cell_setting            triclinic
loop_
_symmetry_equiv_pos_as_xyz
'x, y, z'
_cell_length_a     36.396019
_cell_length_b     47.209912
_cell_length_c     55.945319
_cell_angle_alpha  90.329606
_cell_angle_beta   89.536647
_cell_angle_gamma 82.028357
loop_
_atom_site_label
_atom_site_type_symbol
_atom_site_fract_x
_atom_site_fract_y
_atom_site_fract_z
_atom_type_partial_charge
C0 C 0.19862 0.3551 -0.01079 0.0
C1 C 0.19677 0.38506 -0.01164 0.0
C2 C 0.1684 0.34254 -0.00231 0.0
C3 C 0.1358 0.35972 0.00544 0.0
C4 C 0.13488 0.38959 0.00592 0.0
C5 C 0.16498 0.4021 -0.00252 0.0
C6 C 0.10152 0.34697 0.01057 0.0
C7 C 0.10202 0.32245 0.02481 0.0
C8 C 0.06923 0.31034 0.02892 0.0
C9 C 0.03611 0.32282 0.01809 0.0
C10 C 0.03525 0.34738 0.004 0.0
C11 C 0.06801 0.35925 0.00037 0.0
C12 C 0.00041 0.36053 -0.00742 0.0
C13 C -0.02205 0.34352 -0.01973 0.0
C14 C -0.00978 0.39037 -0.00691 0.0
C15 C 0.95865 0.403 -0.01889 0.0
C16 C 0.93677 0.38606 0.96822 0.0
C17 C 0.06903 0.28511 0.04483 0.0
C18 C 0.09885 0.26267 0.04489 0.0
C19 C 0.03858 0.28325 0.0601 0.0
C20 C 0.03773 0.25958 0.07481 0.0
C21 C 0.06755 0.23718 0.07502 0.0
C22 C 0.09815 0.23902 0.05983 0.0
C23 C 0.94652 0.35617 0.96814 0.0
H24 H 0.22265 0.34138 -0.0178 0.0
H25 H 0.16981 0.31948 -0.00302 0.0
H26 H 0.11035 0.40335 0.0122 0.0
H27 H 0.16302 0.42521 -0.00243 0.0
H28 H 0.12771 0.31334 0.03314 0.0
H29 H 0.06764 0.37766 -0.01117 0.0
H30 H 0.0108 0.31351 0.02066 0.0
H31 H -0.01475 0.3205 -0.02055 0.0
H32 H 0.00685 0.40398 0.00264 0.0
H33 H 0.95196 0.42608 -0.01861 0.0
H34 H 0.12262 0.26321 0.03321 0.0
H35 H 0.01534 0.30025 0.0609 0.0
H36 H 0.92993 0.34255 0.95858 0.0
H37 H 0.12181 0.22236 0.05966 0.0
H38 H 0.01341 0.25881 0.08594 0.0
C39 C 0.87798 0.70023 0.97251 0.0
C40 C 0.87632 0.67063 0.97142 0.0
C41 C 0.90776 0.71067 -0.01627 0.0
C42 C 0.93633 0.69167 -0.00594 0.0
C43 C 0.93358 0.66225 -0.00607 0.0
C44 C 0.90404 0.65187 -0.01729 0.0
C45 C 0.97031 0.70183 0.0035 0.0
C46 C 0.96855 0.7262 0.01828 0.0
C47 C 0.0012 0.73456 0.02775 0.0
C48 C 0.03568 0.71838 0.02204 0.0
C49 C 0.03795 0.69431 0.00694 0.0
C50 C 0.00509 0.68651 -0.00238 0.0
C51 C 0.0744 0.67735 0.00052 0.0
C52 C 0.10602 0.69085 -0.00352 0.0
C53 C 0.07746 0.64748 -0.0026 0.0
C54 C 0.11062 0.63176 -0.01064 0.0
C55 C 0.14175 0.64542 -0.01523 0.0
C56 C -0.00024 0.75997 0.04378 0.0
C57 C -0.02229 0.78593 0.03823 0.0
C58 C 0.02183 0.75867 0.06434 0.0
C59 C 0.02278 0.78291 0.07861 0.0
C60 C 0.00175 0.80917 0.07269 0.0
C61 C -0.02129 0.8103 0.05253 0.0
C62 C 0.13944 0.67498 -0.01115 0.0
H63 H 0.85704 0.71521 0.96391 0.0
H64 H 0.90919 0.73342 -0.01653 0.0
H65 H 0.95472 0.64712 0.00221 0.0
H66 H 0.90308 0.62904 -0.0173 0.0
H67 H 0.94181 0.73808 0.02301 0.0
H68 H 0.00652 0.66863 -0.01474 0.0
H69 H 0.06084 0.72464 0.02937 0.0
H70 H 0.10471 0.7138 -0.00161 0.0
H71 H 0.05408 0.63617 0.00094 0.0
H72 H 0.11191 0.60892 -0.01343 0.0
H73 H 0.96059 0.78764 0.02242 0.0
H74 H 0.03853 0.73885 0.06941 0.0
H75 H 0.16309 0.68599 -0.01476 0.0
H76 H 0.96229 0.8302 0.0474 0.0
H77 H 0.04008 0.78104 0.09434 0.0
C78 C 0.70728 0.8513 0.48277 0.0
C79 C 0.70596 0.88116 0.48109 0.0
C80 C 0.67784 0.83945 0.49323 0.0
C81 C 0.64655 0.85727 0.50216 0.0
C82 C 0.64616 0.88707 0.50154 0.0
C83 C 0.67546 0.89887 0.49112 0.0
C84 C 0.61299 0.84521 0.51022 0.0
C85 C 0.61536 0.82139 0.52544 0.0
C86 C 0.58298 0.81065 0.53298 0.0
C87 C 0.54832 0.82343 0.52455 0.0
C88 C 0.54565 0.84692 0.50914 0.0
C89 C 0.57804 0.85769 0.50217 0.0
C90 C 0.50927 0.85982 0.49961 0.0
C91 C 0.48461 0.84235 0.49018 0.0
C92 C 0.4998 0.8897 0.49874 0.0
C93 C 0.46681 0.90187 0.48806 0.0
C94 C 0.44281 0.88439 0.47785 0.0
C95 C 0.58468 0.78663 0.55015 0.0
C96 C 0.6098 0.76143 0.54686 0.0
C97 C 0.55999 0.78858 0.5697 0.0
C98 C 0.55998 0.76578 0.58544 0.0
C99 C 0.5846 0.74036 0.58202 0.0
C100 C 0.60957 0.7384 0.56256 0.0
C101 C 0.45178 0.85451 0.47934 0.0
H102 H 0.73032 0.83707 0.47511 0.0
H103 H 0.67881 0.81642 0.49334 0.0
H104 H 0.62272 0.90135 0.50869 0.0
H105 H 0.67399 0.92193 0.49062 0.0
H106 H 0.64215 0.81184 0.532 0.0
H107 H 0.57613 0.87539 0.48976 0.0
H108 H 0.52329 0.81509 0.53005 0.0
H109 H 0.49128 0.81927 0.49047 0.0
H110 H 0.51817 0.90367 0.50607 0.0
H111 H 0.4607 0.92495 0.48707 0.0
H112 H 0.629 0.75932 0.53185 0.0
H113 H 0.54053 0.8078 0.57282 0.0
H114 H 0.43358 0.84052 0.47185 0.0
H115 H 0.62897 0.71913 0.55955 0.0
H116 H 0.5401 0.76788 0.60007 0.0
C117 C 0.38382 0.18935 0.48318 0.0
C118 C 0.38599 0.15937 0.48233 0.0
C119 C 0.41306 0.20226 0.49255 0.0
C120 C 0.44496 0.18541 0.50125 0.0
C121 C 0.44607 0.15552 0.50164 0.0
C122 C 0.417 0.14266 0.49225 0.0
C123 C 0.47847 0.19848 0.50768 0.0
C124 C 0.47609 0.22368 0.52152 0.0
C125 C 0.50822 0.23613 0.5268 0.0
C126 C 0.5427 0.22309 0.51764 0.0
C127 C 0.54549 0.19778 0.5041 0.0
C128 C 0.51329 0.18576 0.49916 0.0
C129 C 0.58189 0.18385 0.49475 0.0
C130 C 0.60674 0.20008 0.48376 0.0
C131 C 0.59148 0.15402 0.49611 0.0
C132 C 0.62488 0.14063 0.48629 0.0
C133 C 0.64943 0.15677 0.47483 0.0
C134 C 0.50627 0.26242 0.54203 0.0
C135 C 0.47586 0.28436 0.54086 0.0
C136 C 0.53534 0.26593 0.55777 0.0
C137 C 0.53453 0.29084 0.57145 0.0
C138 C 0.50431 0.3127 0.57016 0.0
C139 C 0.47477 0.30913 0.55494 0.0
C140 C 0.64011 0.18669 0.47386 0.0
H141 H 0.36033 0.20281 0.47559 0.0
H142 H 0.41149 0.22532 0.49187 0.0
H143 H 0.46996 0.14197 0.50867 0.0
H144 H 0.41912 0.11954 0.49234 0.0
H145 H 0.44936 0.23311 0.52861 0.0
H146 H 0.51524 0.16681 0.48793 0.0
H147 H 0.56761 0.23255 0.52108 0.0
H148 H 0.5999 0.22306 0.48219 0.0
H149 H 0.57311 0.141 0.50481 0.0
H150 H 0.63148 0.11762 0.4877 0.0
H151 H 0.45316 0.28266 0.52879 0.0
H152 H 0.55874 0.2493 0.55978 0.0
H153 H 0.6581 0.19973 0.46484 0.0
H154 H 0.45115 0.32573 0.55361 0.0
H155 H 0.55733 0.29279 0.58341 0.0
Zn156 Zn 0.03627 0.07384 0.3169 0.0
Zn157 Zn 0.0643 0.96203 0.31496 0.0
Zn158 Zn 0.04877 0.01843 0.3169 0.0
C159 C 0.05385 0.97925 0.26815 0.0
C160 C -0.00179 0.97614 0.34187 0.0
O161 O 0.09436 0.03479 0.33686 0.0
O162 O 0.07325 0.08079 0.34124 0.0
C163 C 0.05134 0.05809 0.26999 0.0
O164 O 0.04902 1.00389 0.27874 0.0
O165 O 0.06121 0.95662 0.28008 0.0
O166 O 0.02184 0.95509 0.3358 0.0
O167 O 0.00275 1.00173 0.33577 0.0
O168 O 0.04901 0.08008 0.28311 0.0
O169 O 0.04918 0.03338 0.27918 0.0
O170 O -0.00477 0.03201 0.33569 0.0
O171 O -0.01648 0.07803 0.327 0.0
C172 C 0.97369 0.0561 0.33658 0.0
O173 O 0.10171 1.00467 0.33605 0.0
O174 O 0.11387 0.95804 0.32927 0.0
C175 C 0.09752 0.05971 0.34556 0.0
C176 C 0.12284 0.98056 0.33838 0.0
Zn177 Zn 0.51112 0.57755 0.81813 0.0
Zn178 Zn 0.54923 0.46548 0.81872 0.0
Zn179 Zn 0.53428 0.52128 0.81878 0.0
C180 C 0.53004 0.48111 0.77223 0.0
C181 C 0.48985 0.47792 0.8493 0.0
O182 O 0.57956 0.54056 0.83553 0.0
O183 O 0.55504 0.58621 0.83672 0.0
C184 C 0.52111 0.56022 0.77071 0.0
O185 O 0.53202 0.50605 0.7812 0.0
O186 O 0.53407 0.45927 0.78535 0.0
O187 O 0.51466 0.45717 0.84458 0.0
O188 O 0.49183 0.50277 0.84029 0.0
O189 O 0.51087 0.58239 0.78307 0.0
O190 O 0.53022 0.53582 0.78087 0.0
O191 O 0.48291 0.53284 0.84063 0.0
O192 O 0.46325 0.57891 0.83523 0.0
C193 C 0.45919 0.55535 0.84467 0.0
O194 O 0.58963 0.51032 0.83501 0.0
O195 O 0.60253 0.46416 0.82642 0.0
C196 C 0.58139 0.56672 0.84151 0.0
C197 C 0.61221 0.48675 0.83503 0.0
C198 C 0.05059 0.21647 0.11422 0.0
C199 C 0.06662 0.21234 0.09127 0.0
C200 C 0.04857 0.19332 0.12934 0.0
C201 C 0.09269 0.12129 0.14309 0.0
H202 H 0.00274 0.11903 0.18028 0.0
C203 C 0.0887 0.07352 0.2367 0.0
C204 C 0.05741 0.06161 0.24426 0.0
C205 C 0.09087 0.08393 0.21352 0.0
C206 C 0.02785 0.11889 0.16973 0.0
H207 H 0.0934 0.18029 0.06644 0.0
H208 H 0.09074 0.13985 0.0933 0.0
H209 H 0.0034 0.154 0.14848 0.0
H210 H 0.00443 0.05017 0.23358 0.0
H211 H 0.00813 0.06828 0.19272 0.0
H212 H 0.11754 0.08686 0.16503 0.0
C213 C 0.07954 0.16116 0.09937 0.0
C214 C 0.02834 0.13919 0.1517 0.0
C215 C 0.08122 0.18436 0.08406 0.0
C216 C 0.02919 0.05868 0.2279 0.0
C217 C 0.03116 0.06937 0.20467 0.0
C218 C 0.09229 0.10109 0.16128 0.0
C219 C 0.06287 0.16541 0.12209 0.0
C220 C 0.06106 0.14118 0.13868 0.0
C221 C 0.06143 0.08308 0.19754 0.0
C222 C 0.06014 0.10022 0.17526 0.0
H223 H 0.03992 0.23769 0.1207 0.0
H224 H 0.03634 0.19737 0.14696 0.0
H225 H 0.1183 0.12233 0.13335 0.0
H226 H 0.11052 0.07631 0.24921 0.0
H227 H 0.11434 0.09464 0.20877 0.0
C228 C 0.03924 0.84023 0.09615 0.0
C229 C 0.00463 0.83519 0.08738 0.0
C230 C 0.0421 0.86361 0.11107 0.0
C231 C -0.01321 0.91225 0.15357 0.0
H232 H 0.07603 0.9486 0.15438 0.0
C233 C 0.01559 0.98627 0.23131 0.0
C234 C 0.04955 0.97643 0.24216 0.0
C235 C 0.0082 0.97703 0.2082 0.0
C236 C 0.0508 0.93883 0.15426 0.0
H237 H 0.94593 0.85147 0.08689 0.0
H238 H 0.95099 0.8927 0.1127 0.0
H239 H 0.06567 0.91674 0.12134 0.0
H240 H 0.10312 0.95077 0.23726 0.0
H241 H 0.09078 0.93519 0.19685 0.0
H242 H 0.97252 0.93373 0.18687 0.0
C243 C -0.02409 0.87825 0.10825 0.0
C244 C 0.04493 0.92043 0.13542 0.0
C245 C 0.97304 0.85475 0.09328 0.0
C246 C 0.0769 0.95889 0.22907 0.0
C247 C 0.0698 0.95003 0.20593 0.0
C248 C -0.00746 0.93082 0.17233 0.0
C249 C 0.01045 0.88278 0.11758 0.0
C250 C 0.01352 0.90606 0.13529 0.0
C251 C 0.03487 0.95807 0.19558 0.0
C252 C 0.02523 0.94352 0.17331 0.0
H253 H 0.06426 0.82592 0.09165 0.0
H254 H 0.0691 0.86608 0.11812 0.0
H255 H 0.96244 0.90144 0.15422 0.0
H256 H -0.00616 0.99933 0.24131 0.0
H257 H -0.01891 0.98363 0.20063 0.0
C258 C 0.58325 0.68801 0.59005 0.0
C259 C 0.58329 0.71607 0.59867 0.0
C260 C 0.57754 0.66593 0.60574 0.0
C261 C 0.53323 0.65663 0.66388 0.0
H262 H 0.58664 0.57962 0.66261 0.0
C263 C 0.49487 0.57766 0.732 0.0
C264 C 0.52498 0.56373 0.74477 0.0
C265 C 0.50049 0.58976 0.7098 0.0
C266 C 0.57141 0.60101 0.66312 0.0
H267 H 0.58018 0.74249 0.63063 0.0
H268 H 0.57046 0.70418 0.65787 0.0
H269 H 0.60209 0.61481 0.63338 0.0
H270 H 0.58407 0.54956 0.7439 0.0
H271 H 0.59432 0.57143 0.70532 0.0
H272 H 0.50355 0.64372 0.69392 0.0
C273 C 0.57383 0.69929 0.63897 0.0
C274 C 0.58013 0.6211 0.64631 0.0
C275 C 0.57947 0.72125 0.62337 0.0
C276 C 0.56037 0.5599 0.73414 0.0
C277 C 0.56618 0.57251 0.71205 0.0
C278 C 0.52453 0.63671 0.68052 0.0
C279 C 0.57177 0.67155 0.6303 0.0
C280 C 0.56157 0.6493 0.64686 0.0
C281 C 0.53655 0.58895 0.70028 0.0
C282 C 0.54372 0.60871 0.6806 0.0
H283 H 0.58599 0.68339 0.57108 0.0
H284 H 0.57606 0.64478 0.59852 0.0
H285 H 0.51793 0.67801 0.66454 0.0
H286 H 0.46734 0.58089 0.73995 0.0
H287 H 0.47687 0.60151 0.70089 0.0
C288 C 0.47304 0.3481 0.60002 0.0
C289 C 0.50364 0.33878 0.58518 0.0
C290 C 0.4741 0.37086 0.61603 0.0
C291 C 0.54236 0.40904 0.64752 0.0
H292 H 0.45324 0.4562 0.6705 0.0
C293 C 0.54529 0.48453 0.72872 0.0
C294 C 0.52155 0.47724 0.74686 0.0
C295 C 0.54123 0.47504 0.7052 0.0
C296 C 0.47842 0.44339 0.66406 0.0
H297 H 0.55839 0.34696 0.5743 0.0
H298 H 0.55983 0.38734 0.60151 0.0
H299 H 0.45008 0.42525 0.63567 0.0
H300 H 0.47385 0.45611 0.75478 0.0
H301 H 0.46601 0.4403 0.71379 0.0
H302 H 0.57048 0.42699 0.67618 0.0
C303 C 0.53546 0.37655 0.60152 0.0
C304 C 0.4766 0.42542 0.64425 0.0
C305 C 0.53461 0.3535 0.58581 0.0
C306 C 0.49231 0.4621 0.74098 0.0
C307 C 0.48778 0.45316 0.71752 0.0
C308 C 0.54424 0.4273 0.6671 0.0
C309 C 0.5056 0.38512 0.61731 0.0
C310 C 0.50833 0.40728 0.63616 0.0
C311 C 0.51294 0.45863 0.69953 0.0
C312 C 0.51209 0.444 0.67603 0.0
H313 H 0.44894 0.33697 0.6 0.0
H314 H 0.45076 0.3764 0.62808 0.0
H315 H 0.56735 0.3952 0.64217 0.0
H316 H 0.56836 0.49584 0.73299 0.0
H317 H 0.561 0.47954 0.69164 0.0
C318 C 0.26419 0.38808 -0.02009 0.0
C319 C 0.22656 0.39857 -0.02354 0.0
C320 C 0.29189 0.40014 0.9677 0.0
C321 C 0.30696 0.43975 0.91301 0.0
H322 H 0.39819 0.45315 0.94365 0.0
C323 C 0.42254 0.4858 0.86078 0.0
C324 C 0.45898 0.47323 0.86538 0.0
C325 C 0.39329 0.48024 0.87565 0.0
C326 C 0.37298 0.44934 0.93477 0.0
H327 H 0.18856 0.42992 0.95745 0.0
H328 H 0.23682 0.45105 0.93639 0.0
H329 H 0.34908 0.43622 0.96732 0.0
H330 H 0.49354 0.44449 0.88862 0.0
H331 H 0.44262 0.43401 0.91411 0.0
H332 H 0.33106 0.45203 0.88036 0.0
C333 C 0.24492 0.43348 0.94847 0.0
C334 C 0.34486 0.43966 0.94836 0.0
C335 C 0.21729 0.42156 0.96075 0.0
C336 C 0.46568 0.45471 0.88486 0.0
C337 C 0.43652 0.44897 0.89961 0.0
C338 C 0.33514 0.44926 0.8994 0.0
C339 C 0.28251 0.42277 0.95165 0.0
C340 C 0.3117 0.43446 0.93757 0.0
C341 C 0.3999 0.46154 0.89514 0.0
C342 C 0.36872 0.45382 0.91004 0.0
H343 H 0.27221 0.3705 -0.00802 0.0
H344 H 0.32062 0.39125 0.97037 0.0
H345 H 0.28189 0.43564 0.90412 0.0
H346 H 0.41657 0.49946 0.84543 0.0
H347 H 0.3655 0.49047 0.87176 0.0
C348 C 0.80943 0.67163 0.95993 0.0
C349 C 0.84664 0.65904 0.95791 0.0
C350 C 0.78164 0.66011 0.94754 0.0
C351 C 0.76614 0.61478 0.89564 0.0
H352 H 0.67379 0.60706 0.92833 0.0
C353 C 0.64948 0.56116 0.85096 0.0
C354 C 0.61313 0.57461 0.85512 0.0
C355 C 0.67909 0.56944 0.86392 0.0
C356 C 0.69928 0.60929 0.91885 0.0
H357 H 0.88398 0.62499 0.94076 0.0
H358 H 0.83552 0.60486 0.91927 0.0
H359 H 0.72285 0.62636 0.94979 0.0
H360 H 0.57922 0.60773 0.87556 0.0
H361 H 0.63054 0.62267 0.8976 0.0
H362 H 0.74233 0.59817 0.86456 0.0
C363 C 0.82779 0.62359 0.93044 0.0
C364 C 0.72738 0.62038 0.93117 0.0
C365 C 0.8555 0.63497 0.94294 0.0
C366 C 0.60696 0.59679 0.87212 0.0
C367 C 0.63637 0.60515 0.88494 0.0
C368 C 0.73792 0.60381 0.88325 0.0
C369 C 0.79052 0.63592 0.93268 0.0
C370 C 0.761 0.62351 0.91966 0.0
C371 C 0.67283 0.59157 0.8811 0.0
C372 C 0.70396 0.60123 0.89463 0.0
H373 H 0.80173 0.6901 0.97139 0.0
H374 H 0.7532 0.67028 0.94943 0.0
H375 H 0.79165 0.61713 0.88622 0.0
H376 H 0.65507 0.54457 0.83745 0.0
H377 H 0.70681 0.55847 0.86055 0.0
C378 C 0.87946 0.42204 0.96396 0.0
C379 C 0.9046 0.39954 0.95425 0.0
C380 C 0.84907 0.43449 0.95069 0.0
C381 C 0.79147 0.41892 0.89947 0.0
H382 H 0.75715 0.50049 0.90095 0.0
C383 C 0.6789 0.46701 0.83595 0.0
C384 C 0.64881 0.48467 0.84638 0.0
C385 C 0.7119 0.46024 0.84842 0.0
C386 C 0.76638 0.47767 0.90049 0.0
H387 H 0.91846 0.37323 0.92271 0.0
H388 H 0.86586 0.39503 0.8995 0.0
H389 H 0.81133 0.48104 0.92442 0.0
H390 H 0.62969 0.50985 0.87766 0.0
H391 H 0.68785 0.49809 0.89963 0.0
H392 H 0.74681 0.4154 0.87563 0.0
C393 C 0.86896 0.40263 0.91757 0.0
C394 C 0.79729 0.46651 0.91395 0.0
C395 C 0.89912 0.39011 0.93087 0.0
C396 C 0.65281 0.49656 0.86911 0.0
C397 C 0.686 0.48978 0.88166 0.0
C398 C 0.76087 0.43004 0.88599 0.0
C399 C 0.84333 0.42477 0.92738 0.0
C400 C 0.8103 0.43698 0.91347 0.0
C401 C 0.71537 0.47073 0.87172 0.0
C402 C 0.74811 0.45952 0.88619 0.0
H403 H 0.88288 0.42963 -0.01799 0.0
H404 H 0.82965 0.45127 0.95888 0.0
H405 H 0.80008 0.39602 0.89913 0.0
H406 H 0.67641 0.45756 0.81844 0.0
H407 H 0.7343 0.44593 0.84013 0.0
C408 C 0.21047 0.63007 -0.01506 0.0
C409 C 0.17584 0.62913 -0.0256 0.0
C410 C 0.24274 0.61558 -0.02562 0.0
C411 C 0.27608 0.56279 0.92557 0.0
H412 H 0.36295 0.6019 0.92723 0.0
C413 C 0.39168 0.56414 0.85366 0.0
C414 C 0.42787 0.55444 0.86117 0.0
C415 C 0.36217 0.56642 0.86995 0.0
C416 C 0.33905 0.59052 0.92698 0.0
H417 H 0.14746 0.61248 0.94471 0.0
H418 H 0.20356 0.58847 0.92557 0.0
H419 H 0.30877 0.62 0.95137 0.0
H420 H 0.46204 0.53923 0.89121 0.0
H421 H 0.41018 0.54451 0.92018 0.0
H422 H 0.30606 0.53474 0.8995 0.0
C423 C 0.20613 0.59928 0.94246 0.0
C424 C 0.30796 0.60076 0.94089 0.0
C425 C 0.17388 0.61325 0.95329 0.0
C426 C 0.43418 0.54654 0.8851 0.0
C427 C 0.40472 0.54951 0.90156 0.0
C428 C 0.30697 0.55295 0.91126 0.0
C429 C 0.24112 0.6004 0.95272 0.0
C430 C 0.27569 0.58741 0.94003 0.0
C431 C 0.36864 0.5598 0.8941 0.0
C432 C 0.33838 0.56705 0.91164 0.0
H433 H 0.21255 0.642 0.00136 0.0
H434 H 0.26895 0.61651 -0.01685 0.0
H435 H 0.25222 0.55145 0.92484 0.0
H436 H 0.3864 0.57048 0.83528 0.0
H437 H 0.33455 0.57471 0.86396 0.0
C438 C 0.77293 0.88304 0.47051 0.0
C439 C 0.73524 0.89392 0.46793 0.0
C440 C 0.80021 0.89493 0.45776 0.0
C441 C 0.81396 0.93654 0.40368 0.0
H442 H 0.90634 0.9476 0.43401 0.0
C443 C 0.93066 0.98467 0.35327 0.0
C444 C 0.96672 0.97075 0.35711 0.0
C445 C 0.90109 0.97845 0.36763 0.0
C446 C 0.88077 0.9445 0.42523 0.0
H447 H 0.69667 0.9256 0.44968 0.0
H448 H 0.74425 0.94649 0.42768 0.0
H449 H 0.85751 0.93015 0.4575 0.0
H450 H 0.00025 0.93906 0.37845 0.0
H451 H 0.94894 0.92777 0.40309 0.0
H452 H 0.83751 0.95033 0.37128 0.0
C453 C 0.75271 0.92873 0.4395 0.0
C454 C 0.85283 0.93446 0.4387 0.0
C455 C 0.72549 0.91695 0.45232 0.0
C456 C 0.97271 0.9503 0.37527 0.0
C457 C 0.94335 0.94406 0.38955 0.0
C458 C 0.84198 0.94651 0.39017 0.0
C459 C 0.79039 0.91785 0.44203 0.0
C460 C 0.8193 0.92998 0.42801 0.0
C461 C 0.90715 0.958 0.38593 0.0
C462 C 0.87597 0.95015 0.4007 0.0
H463 H 0.78135 0.86543 0.48249 0.0
H464 H 0.82898 0.88584 0.45991 0.0
H465 H 0.78857 0.93308 0.39485 0.0
H466 H 0.92528 1.00005 0.33899 0.0
H467 H 0.87356 0.98965 0.36442 0.0
C468 C 0.36769 0.12222 0.45428 0.0
C469 C 0.3572 0.14543 0.46993 0.0
C470 C 0.34096 0.10955 0.44191 0.0
C471 C 0.24184 0.10103 0.44244 0.0
H472 H 0.25642 0.08696 0.37442 0.0
C473 C 0.12198 0.08327 0.38066 0.0
C474 C 0.12862 0.0643 0.36122 0.0
C475 C 0.15113 0.0895 0.3949 0.0
C476 C 0.25217 0.0902 0.39348 0.0
H477 H 0.31034 0.17323 0.4851 0.0
H478 H 0.2635 0.15109 0.46341 0.0
H479 H 0.30473 0.10513 0.39755 0.0
H480 H 0.17095 0.03738 0.341 0.0
H481 H 0.22225 0.04759 0.36639 0.0
H482 H 0.18927 0.08624 0.43843 0.0
C483 C 0.29249 0.14264 0.46084 0.0
C484 C 0.27983 0.10073 0.40672 0.0
C485 C 0.31928 0.15549 0.47309 0.0
C486 C 0.16507 0.05163 0.35622 0.0
C487 C 0.1944 0.05777 0.37058 0.0
C488 C 0.2143 0.09032 0.42925 0.0
C489 C 0.30306 0.11965 0.44499 0.0
C490 C 0.27469 0.10674 0.43127 0.0
C491 C 0.18777 0.07697 0.39001 0.0
C492 C 0.21878 0.0853 0.4045 0.0
H493 H 0.39671 0.11419 0.45123 0.0
H494 H 0.34996 0.09177 0.42995 0.0
H495 H 0.23736 0.10494 0.46141 0.0
H496 H 0.09413 0.09358 0.38474 0.0
H497 H 0.14497 0.10484 0.40934 0.0
C498 C 0.38568 0.92068 0.47391 0.0
C499 C 0.40952 0.89715 0.4646 0.0
C500 C 0.3543 0.93245 0.46119 0.0
C501 C 0.29265 0.91393 0.41288 0.0
H502 H 0.26153 0.99581 0.40934 0.0
C503 C 0.18863 0.96017 0.34354 0.0
C504 C 0.15735 0.97811 0.35217 0.0
C505 C 0.21971 0.95358 0.35785 0.0
C506 C 0.26986 0.97291 0.41037 0.0
H507 H 0.42011 0.86828 0.43431 0.0
H508 H 0.36601 0.88891 0.41203 0.0
H509 H 0.31535 0.9773 0.43361 0.0
H510 H 0.13396 1.00368 0.38227 0.0
H511 H 0.18912 0.99249 0.40744 0.0
H512 H 0.24789 0.90949 0.38932 0.0
C513 C 0.37071 0.89782 0.42943 0.0
C514 C 0.30051 0.96229 0.42429 0.0
C515 C 0.40179 0.88598 0.44219 0.0
C516 C 0.15812 0.99024 0.37511 0.0
C517 C 0.18951 0.98378 0.38947 0.0
C518 C 0.26244 0.92451 0.39889 0.0
C519 C 0.34633 0.92099 0.43886 0.0
C520 C 0.31258 0.93265 0.42538 0.0
C521 C 0.22009 0.96466 0.38118 0.0
C522 C 0.25107 0.95407 0.39719 0.0
H523 H 0.39094 0.92966 0.4912 0.0
H524 H 0.33594 0.95013 0.46905 0.0
H525 H 0.30045 0.89098 0.41384 0.0
H526 H 0.18857 0.95048 0.32593 0.0
H527 H 0.24311 0.93907 0.35094 0.0
C528 C 0.717 0.15476 0.46436 0.0
C529 C 0.68404 0.14245 0.46322 0.0
C530 C 0.74883 0.14234 0.45211 0.0
C531 C 0.79366 0.07615 0.4224 0.0
H532 H 0.84337 0.1289 0.38528 0.0
C533 C 0.908 0.07802 0.34116 0.0
C534 C 0.93823 0.05937 0.34984 0.0
C535 C 0.87612 0.085 0.35513 0.0
C536 C 0.82968 0.11386 0.39543 0.0
H537 H 0.65903 0.10699 0.44868 0.0
H538 H 0.71475 0.08524 0.42741 0.0
H539 H 0.79051 0.14723 0.41043 0.0
H540 H 0.95888 0.03298 0.37968 0.0
H541 H 0.90261 0.04499 0.40421 0.0
H542 H 0.83298 0.04271 0.40702 0.0
C543 C 0.71597 0.10438 0.43798 0.0
C544 C 0.79968 0.1244 0.41008 0.0
C545 C 0.68406 0.11687 0.45017 0.0
C546 C 0.93559 0.04701 0.37245 0.0
C547 C 0.9035 0.05393 0.38646 0.0
C548 C 0.82401 0.06556 0.40781 0.0
C549 C 0.7485 0.11728 0.43847 0.0
C550 C 0.78122 0.10571 0.42366 0.0
C551 C 0.8739 0.07367 0.37817 0.0
C552 C 0.84206 0.08434 0.39401 0.0
H553 H 0.71817 0.17413 0.47463 0.0
H554 H 0.77369 0.15252 0.45314 0.0
H555 H 0.78006 0.06125 0.43277 0.0
H556 H 0.90945 0.08787 0.3238 0.0
H557 H 0.85351 0.09992 0.34813 0.0
loop_
_geom_bond_atom_site_label_1
_geom_bond_atom_site_label_2
_geom_bond_distance
_geom_bond_site_symmetry_2
_ccdc_geom_bond_type
C0 C1 1.386 . S
C0 C2 1.397 . S
C0 H24 0.931 . S
C1 C0 1.386 . S
C1 C5 1.397 . S
C2 C0 1.397 . S
C2 C3 1.393 . S
C2 H25 0.930 . S
C3 C2 1.393 . S
C3 C4 1.386 . S
C3 C6 1.466 1_556 S
C4 C3 1.386 . S
C4 C5 1.389 . S
C4 H26 0.929 . S
C5 C1 1.397 . S
C5 C4 1.389 . S
C5 H27 0.931 . S
C6 C3 1.466 1_554 S
C6 C7 1.387 . S
C6 C11 1.390 1_554 S
C7 C6 1.387 . S
C7 C8 1.401 . S
C7 H28 0.930 . S
C8 C7 1.401 . S
C8 C9 1.376 . S
C8 C17 1.511 . S
C9 C8 1.376 . S
C9 C10 1.392 . S
C9 H30 0.931 . S
C10 C9 1.392 . S
C10 C11 1.361 1_554 S
C10 C12 1.500 1_554 S
C11 C6 1.390 1_556 S
C11 C10 1.361 1_556 S
C11 H29 0.931 . S
C12 C10 1.500 1_556 S
C12 C13 1.371 . S
C12 C14 1.365 . S
C13 C12 1.371 . S
C13 C23 1.386 1_455 S
C13 H31 0.931 1_556 S
C14 C12 1.365 . S
C14 C15 1.409 . S
C14 H32 0.929 . S
C15 C14 1.409 . S
C15 C16 1.380 1_455 S
C15 H33 0.930 . S
C16 C15 1.380 1_655 S
C16 C23 1.357 . S
C17 C8 1.511 . S
C17 C18 1.341 . S
C17 C19 1.371 . S
C18 C17 1.341 . S
C18 C22 1.394 . S
C18 H34 0.930 . S
C19 C17 1.371 . S
C19 C20 1.392 . S
C19 H35 0.931 . S
C20 C19 1.392 . S
C20 C21 1.331 . S
C20 H38 0.932 . S
C21 C20 1.331 . S
C21 C22 1.336 . S
C22 C18 1.394 . S
C22 C21 1.336 . S
C22 H37 0.929 . S
C23 C13 1.386 1_655 S
C23 C16 1.357 . S
C23 H36 0.928 . S
H24 C0 0.931 . S
H25 C2 0.930 . S
H26 C4 0.929 . S
H27 C5 0.931 . S
H28 C7 0.930 . S
H29 C11 0.931 . S
H30 C9 0.931 . S
H31 C13 0.931 1_554 S
H32 C14 0.929 . S
H33 C15 0.930 . S
H34 C18 0.930 . S
H35 C19 0.931 . S
H36 C23 0.928 . S
H37 C22 0.929 . S
H38 C20 0.932 . S
C39 C40 1.386 . S
C39 C41 1.397 . S
C39 H63 0.931 . S
C40 C39 1.386 . S
C40 C44 1.397 . S
C41 C39 1.397 . S
C41 C42 1.384 1_556 S
C41 H64 0.927 1_556 S
C42 C41 1.384 1_554 S
C42 C43 1.377 1_554 S
C42 C45 1.481 . S
C43 C42 1.377 1_556 S
C43 C44 1.389 . S
C43 H65 0.929 . S
C44 C40 1.397 . S
C44 C43 1.389 . S
C44 H66 0.931 . S
C45 C42 1.481 . S
C45 C46 1.387 . S
C45 C50 1.390 1_655 S
C46 C45 1.387 . S
C46 C47 1.401 1_655 S
C46 H67 0.930 . S
C47 C46 1.401 1_455 S
C47 C48 1.376 . S
C47 C56 1.511 . S
C48 C47 1.376 . S
C48 C49 1.392 . S
C48 H69 0.931 . S
C49 C48 1.392 . S
C49 C50 1.361 . S
C49 C51 1.500 1_554 S
C50 C45 1.390 1_455 S
C50 C49 1.361 . S
C50 H68 0.931 1_554 S
C51 C49 1.500 1_556 S
C51 C52 1.371 . S
C51 C53 1.365 . S
C52 C51 1.371 . S
C52 C62 1.386 . S
C52 H70 0.931 1_556 S
C53 C51 1.365 . S
C53 C54 1.409 . S
C53 H71 0.929 . S
C54 C53 1.409 . S
C54 C55 1.380 . S
C54 H72 0.930 . S
C55 C54 1.380 . S
C55 C62 1.357 . S
C56 C47 1.511 . S
C56 C57 1.341 1_455 S
C56 C58 1.371 . S
C57 C56 1.341 1_655 S
C57 C61 1.394 . S
C57 H73 0.930 . S
C58 C56 1.371 . S
C58 C59 1.392 . S
C58 H74 0.931 . S
C59 C58 1.392 . S
C59 C60 1.331 . S
C59 H77 0.932 . S
C60 C59 1.331 . S
C60 C61 1.336 1_455 S
C61 C57 1.394 . S
C61 C60 1.336 1_655 S
C61 H76 0.929 . S
C62 C52 1.386 . S
C62 C55 1.357 . S
C62 H75 0.928 . S
H63 C39 0.931 . S
H64 C41 0.927 1_554 S
H65 C43 0.929 . S
H66 C44 0.931 . S
H67 C46 0.930 . S
H68 C50 0.931 1_556 S
H69 C48 0.931 . S
H70 C52 0.931 1_554 S
H71 C53 0.929 . S
H72 C54 0.930 . S
H73 C57 0.930 . S
H74 C58 0.931 . S
H75 C62 0.928 . S
H76 C61 0.929 . S
H77 C59 0.932 . S
C78 C79 1.386 . S
C78 C80 1.397 . S
C78 H102 0.931 . S
C79 C78 1.386 . S
C79 C83 1.397 . S
C80 C78 1.397 . S
C80 C81 1.384 . S
C80 H103 0.930 . S
C81 C80 1.384 . S
C81 C82 1.377 . S
C81 C84 1.481 . S
C82 C81 1.377 . S
C82 C83 1.389 . S
C82 H104 0.929 . S
C83 C79 1.397 . S
C83 C82 1.389 . S
C83 H105 0.931 . S
C84 C81 1.481 . S
C84 C85 1.387 . S
C84 C89 1.390 . S
C85 C84 1.387 . S
C85 C86 1.401 . S
C85 H106 0.930 . S
C86 C85 1.401 . S
C86 C87 1.376 . S
C86 C95 1.511 . S
C87 C86 1.376 . S
C87 C88 1.392 . S
C87 H108 0.931 . S
C88 C87 1.392 . S
C88 C89 1.361 . S
C88 C90 1.500 . S
C89 C84 1.390 . S
C89 C88 1.361 . S
C89 H107 0.931 . S
C90 C88 1.500 . S
C90 C91 1.371 . S
C90 C92 1.365 . S
C91 C90 1.371 . S
C91 C101 1.386 . S
C91 H109 0.931 . S
C92 C90 1.365 . S
C92 C93 1.409 . S
C92 H110 0.929 . S
C93 C92 1.409 . S
C93 C94 1.380 . S
C93 H111 0.930 . S
C94 C93 1.380 . S
C94 C101 1.357 . S
C95 C86 1.511 . S
C95 C96 1.341 . S
C95 C97 1.371 . S
C96 C95 1.341 . S
C96 C100 1.394 . S
C96 H112 0.930 . S
C97 C95 1.371 . S
C97 C98 1.392 . S
C97 H113 0.931 . S
C98 C97 1.392 . S
C98 C99 1.331 . S
C98 H116 0.932 . S
C99 C98 1.331 . S
C99 C100 1.336 . S
C100 C96 1.394 . S
C100 C99 1.336 . S
C100 H115 0.929 . S
C101 C91 1.386 . S
C101 C94 1.357 . S
C101 H114 0.928 . S
H102 C78 0.931 . S
H103 C80 0.930 . S
H104 C82 0.929 . S
H105 C83 0.931 . S
H106 C85 0.930 . S
H107 C89 0.931 . S
H108 C87 0.931 . S
H109 C91 0.931 . S
H110 C92 0.929 . S
H111 C93 0.930 . S
H112 C96 0.930 . S
H113 C97 0.931 . S
H114 C101 0.928 . S
H115 C100 0.929 . S
H116 C98 0.932 . S
C117 C118 1.386 . S
C117 C119 1.397 . S
C117 H141 0.931 . S
C118 C117 1.386 . S
C118 C122 1.397 . S
C119 C117 1.397 . S
C119 C120 1.384 . S
C119 H142 0.930 . S
C120 C119 1.384 . S
C120 C121 1.377 . S
C120 C123 1.481 . S
C121 C120 1.377 . S
C121 C122 1.389 . S
C121 H143 0.929 . S
C122 C118 1.397 . S
C122 C121 1.389 . S
C122 H144 0.931 . S
C123 C120 1.481 . S
C123 C124 1.387 . S
C123 C128 1.390 . S
C124 C123 1.387 . S
C124 C125 1.401 . S
C124 H145 0.930 . S
C125 C124 1.401 . S
C125 C126 1.376 . S
C125 C134 1.511 . S
C126 C125 1.376 . S
C126 C127 1.392 . S
C126 H147 0.931 . S
C127 C126 1.392 . S
C127 C128 1.361 . S
C127 C129 1.500 . S
C128 C123 1.390 . S
C128 C127 1.361 . S
C128 H146 0.931 . S
C129 C127 1.500 . S
C129 C130 1.371 . S
C129 C131 1.365 . S
C130 C129 1.371 . S
C130 C140 1.386 . S
C130 H148 0.931 . S
C131 C129 1.365 . S
C131 C132 1.409 . S
C131 H149 0.929 . S
C132 C131 1.409 . S
C132 C133 1.380 . S
C132 H150 0.930 . S
C133 C132 1.380 . S
C133 C140 1.357 . S
C134 C125 1.511 . S
C134 C135 1.341 . S
C134 C136 1.371 . S
C135 C134 1.341 . S
C135 C139 1.394 . S
C135 H151 0.930 . S
C136 C134 1.371 . S
C136 C137 1.392 . S
C136 H152 0.931 . S
C137 C136 1.392 . S
C137 C138 1.331 . S
C137 H155 0.932 . S
C138 C137 1.331 . S
C138 C139 1.336 . S
C139 C135 1.394 . S
C139 C138 1.336 . S
C139 H154 0.929 . S
C140 C130 1.386 . S
C140 C133 1.357 . S
C140 H153 0.928 . S
H141 C117 0.931 . S
H142 C119 0.930 . S
H143 C121 0.929 . S
H144 C122 0.931 . S
H145 C124 0.930 . S
H146 C128 0.931 . S
H147 C126 0.931 . S
H148 C130 0.931 . S
H149 C131 0.929 . S
H150 C132 0.930 . S
H151 C135 0.930 . S
H152 C136 0.931 . S
H153 C140 0.928 . S
H154 C139 0.929 . S
H155 C137 0.932 . S
Zn156 O162 1.920 . S
Zn156 O168 1.898 . S
Zn156 O171 1.905 . S
Zn157 O165 1.905 . S
Zn157 O166 1.898 . S
Zn157 O174 1.920 . S
Zn158 O161 2.080 . S
Zn158 O164 2.114 1_545 S
Zn158 O167 2.120 1_545 S
Zn158 O169 2.120 . S
Zn158 O170 2.114 . S
Zn158 O173 2.080 1_545 S
C159 O164 1.166 . S
C159 O165 1.182 . S
C160 O166 1.167 . S
C160 O167 1.299 . S
O161 Zn158 2.080 . S
O161 C175 1.305 . S
O162 Zn156 1.920 . S
O162 C175 1.234 . S
C163 O168 1.167 . S
C163 O169 1.299 . S
O164 Zn158 2.114 1_565 S
O164 C159 1.166 . S
O165 Zn157 1.905 . S
O165 C159 1.182 . S
O166 Zn157 1.898 . S
O166 C160 1.167 . S
O167 Zn158 2.120 1_565 S
O167 C160 1.299 . S
O168 Zn156 1.898 . S
O168 C163 1.167 . S
O169 Zn158 2.120 . S
O169 C163 1.299 . S
O170 Zn158 2.114 . S
O170 C172 1.161 1_455 S
O171 Zn156 1.905 . S
O171 C172 1.178 1_455 S
C172 O170 1.161 1_655 S
C172 O171 1.178 1_655 S
O173 Zn158 2.080 1_565 S
O173 C176 1.305 . S
O174 Zn157 1.920 . S
O174 C176 1.234 . S
C175 O161 1.305 . S
C175 O162 1.234 . S
C176 O173 1.305 . S
C176 O174 1.234 . S
Zn177 O183 1.920 . S
Zn177 O189 1.898 . S
Zn177 O192 1.905 . S
Zn178 O186 1.905 . S
Zn178 O187 1.898 . S
Zn178 O195 1.920 . S
Zn179 O182 2.080 . S
Zn179 O185 2.114 . S
Zn179 O188 2.120 . S
Zn179 O190 2.120 . S
Zn179 O191 2.114 . S
Zn179 O194 2.080 . S
C180 O185 1.166 . S
C180 O186 1.182 . S
C181 O187 1.167 . S
C181 O188 1.299 . S
O182 Zn179 2.080 . S
O182 C196 1.305 . S
O183 Zn177 1.920 . S
O183 C196 1.234 . S
C184 O189 1.167 . S
C184 O190 1.299 . S
O185 Zn179 2.114 . S
O185 C180 1.166 . S
O186 Zn178 1.905 . S
O186 C180 1.182 . S
O187 Zn178 1.898 . S
O187 C181 1.167 . S
O188 Zn179 2.120 . S
O188 C181 1.299 . S
O189 Zn177 1.898 . S
O189 C184 1.167 . S
O190 Zn179 2.120 . S
O190 C184 1.299 . S
O191 Zn179 2.114 . S
O191 C193 1.166 . S
O192 Zn177 1.905 . S
O192 C193 1.182 . S
C193 O191 1.166 . S
C193 O192 1.182 . S
O194 Zn179 2.080 . S
O194 C197 1.305 . S
O195 Zn178 1.920 . S
O195 C197 1.234 . S
C196 O182 1.305 . S
C196 O183 1.234 . S
C197 O194 1.305 . S
C197 O195 1.234 . S
C198 C199 1.349 . S
C198 C200 1.327 . S
C198 H223 0.950 . S
C199 C198 1.349 . S
C199 C215 1.349 . S
C200 C198 1.327 . S
C200 C219 1.429 . S
C200 H224 0.950 . S
C201 C218 1.574 . S
C201 C220 1.368 . S
C201 H225 0.949 . S
H202 C206 0.949 . S
C203 C204 1.349 . S
C203 C205 1.327 . S
C203 H226 0.950 . S
C204 C203 1.349 . S
C204 C216 1.349 . S
C205 C203 1.327 . S
C205 C221 1.429 . S
C205 H227 0.950 . S
C206 H202 0.949 . S
C206 C214 1.574 . S
C206 C222 1.368 . S
H207 C215 0.950 . S
H208 C213 0.950 . S
H209 C214 0.949 . S
H210 C216 0.950 . S
H211 C217 0.950 . S
H212 C218 0.949 . S
C213 H208 0.950 . S
C213 C215 1.327 . S
C213 C219 1.429 . S
C214 C206 1.574 . S
C214 H209 0.949 . S
C214 C220 1.368 . S
C215 C199 1.349 . S
C215 H207 0.950 . S
C215 C213 1.327 . S
C216 C204 1.349 . S
C216 H210 0.950 . S
C216 C217 1.327 . S
C217 H211 0.950 . S
C217 C216 1.327 . S
C217 C221 1.429 . S
C218 C201 1.574 . S
C218 H212 0.949 . S
C218 C222 1.368 . S
C219 C200 1.429 . S
C219 C213 1.429 . S
C219 C220 1.523 . S
C220 C201 1.368 . S
C220 C214 1.368 . S
C220 C219 1.523 . S
C221 C205 1.429 . S
C221 C217 1.429 . S
C221 C222 1.523 . S
C222 C206 1.368 . S
C222 C218 1.368 . S
C222 C221 1.523 . S
H223 C198 0.950 . S
H224 C200 0.950 . S
H225 C201 0.949 . S
H226 C203 0.950 . S
H227 C205 0.950 . S
C228 C229 1.349 . S
C228 C230 1.327 . S
C228 H253 0.950 . S
C229 C228 1.349 . S
C229 C245 1.349 1_455 S
C230 C228 1.327 . S
C230 C249 1.429 . S
C230 H254 0.950 . S
C231 C248 1.574 . S
C231 C250 1.368 . S
C231 H255 0.949 1_455 S
H232 C236 0.949 . S
C233 C234 1.349 . S
C233 C235 1.327 . S
C233 H256 0.950 . S
C234 C233 1.349 . S
C234 C246 1.349 . S
C235 C233 1.327 . S
C235 C251 1.429 . S
C235 H257 0.950 . S
C236 H232 0.949 . S
C236 C244 1.574 . S
C236 C252 1.368 . S
H237 C245 0.950 . S
H238 C243 0.950 . S
H239 C244 0.949 . S
H240 C246 0.950 . S
H241 C247 0.950 . S
H242 C248 0.949 . S
C243 H238 0.950 . S
C243 C245 1.327 . S
C243 C249 1.429 1_655 S
C244 C236 1.574 . S
C244 H239 0.949 . S
C244 C250 1.368 . S
C245 C229 1.349 1_655 S
C245 H237 0.950 . S
C245 C243 1.327 . S
C246 C234 1.349 . S
C246 H240 0.950 . S
C246 C247 1.327 . S
C247 H241 0.950 . S
C247 C246 1.327 . S
C247 C251 1.429 . S
C248 C231 1.574 . S
C248 H242 0.949 . S
C248 C252 1.368 . S
C249 C230 1.429 . S
C249 C243 1.429 1_455 S
C249 C250 1.523 . S
C250 C231 1.368 . S
C250 C244 1.368 . S
C250 C249 1.523 . S
C251 C235 1.429 . S
C251 C247 1.429 . S
C251 C252 1.523 . S
C252 C236 1.368 . S
C252 C248 1.368 . S
C252 C251 1.523 . S
H253 C228 0.950 . S
H254 C230 0.950 . S
H255 C231 0.949 1_655 S
H256 C233 0.950 . S
H257 C235 0.950 . S
C258 C259 1.349 . S
C258 C260 1.327 . S
C258 H283 0.950 . S
C259 C258 1.349 . S
C259 C275 1.349 . S
C260 C258 1.327 . S
C260 C279 1.429 . S
C260 H284 0.950 . S
C261 C278 1.574 . S
C261 C280 1.368 . S
C261 H285 0.949 . S
H262 C266 0.949 . S
C263 C264 1.349 . S
C263 C265 1.327 . S
C263 H286 0.950 . S
C264 C263 1.349 . S
C264 C276 1.349 . S
C265 C263 1.327 . S
C265 C281 1.429 . S
C265 H287 0.950 . S
C266 H262 0.949 . S
C266 C274 1.574 . S
C266 C282 1.368 . S
H267 C275 0.950 . S
H268 C273 0.950 . S
H269 C274 0.949 . S
H270 C276 0.950 . S
H271 C277 0.950 . S
H272 C278 0.949 . S
C273 H268 0.950 . S
C273 C275 1.327 . S
C273 C279 1.429 . S
C274 C266 1.574 . S
C274 H269 0.949 . S
C274 C280 1.368 . S
C275 C259 1.349 . S
C275 H267 0.950 . S
C275 C273 1.327 . S
C276 C264 1.349 . S
C276 H270 0.950 . S
C276 C277 1.327 . S
C277 H271 0.950 . S
C277 C276 1.327 . S
C277 C281 1.429 . S
C278 C261 1.574 . S
C278 H272 0.949 . S
C278 C282 1.368 . S
C279 C260 1.429 . S
C279 C273 1.429 . S
C279 C280 1.523 . S
C280 C261 1.368 . S
C280 C274 1.368 . S
C280 C279 1.523 . S
C281 C265 1.429 . S
C281 C277 1.429 . S
C281 C282 1.523 . S
C282 C266 1.368 . S
C282 C278 1.368 . S
C282 C281 1.523 . S
H283 C258 0.950 . S
H284 C260 0.950 . S
H285 C261 0.949 . S
H286 C263 0.950 . S
H287 C265 0.950 . S
C288 C289 1.349 . S
C288 C290 1.327 . S
C288 H313 0.950 . S
C289 C288 1.349 . S
C289 C305 1.349 . S
C290 C288 1.327 . S
C290 C309 1.429 . S
C290 H314 0.950 . S
C291 C308 1.574 . S
C291 C310 1.368 . S
C291 H315 0.949 . S
H292 C296 0.949 . S
C293 C294 1.349 . S
C293 C295 1.327 . S
C293 H316 0.950 . S
C294 C293 1.349 . S
C294 C306 1.349 . S
C295 C293 1.327 . S
C295 C311 1.429 . S
C295 H317 0.950 . S
C296 H292 0.949 . S
C296 C304 1.574 . S
C296 C312 1.368 . S
H297 C305 0.950 . S
H298 C303 0.950 . S
H299 C304 0.949 . S
H300 C306 0.950 . S
H301 C307 0.950 . S
H302 C308 0.949 . S
C303 H298 0.950 . S
C303 C305 1.327 . S
C303 C309 1.429 . S
C304 C296 1.574 . S
C304 H299 0.949 . S
C304 C310 1.368 . S
C305 C289 1.349 . S
C305 H297 0.950 . S
C305 C303 1.327 . S
C306 C294 1.349 . S
C306 H300 0.950 . S
C306 C307 1.327 . S
C307 H301 0.950 . S
C307 C306 1.327 . S
C307 C311 1.429 . S
C308 C291 1.574 . S
C308 H302 0.949 . S
C308 C312 1.368 . S
C309 C290 1.429 . S
C309 C303 1.429 . S
C309 C310 1.523 . S
C310 C291 1.368 . S
C310 C304 1.368 . S
C310 C309 1.523 . S
C311 C295 1.429 . S
C311 C307 1.429 . S
C311 C312 1.523 . S
C312 C296 1.368 . S
C312 C308 1.368 . S
C312 C311 1.523 . S
H313 C288 0.950 . S
H314 C290 0.950 . S
H315 C291 0.949 . S
H316 C293 0.950 . S
H317 C295 0.950 . S
C318 C319 1.349 . S
C318 C320 1.327 . S
C318 H343 0.950 1_556 S
C319 C318 1.349 . S
C319 C335 1.349 . S
C320 C318 1.327 . S
C320 C339 1.429 . S
C320 H344 0.950 . S
C321 C338 1.574 . S
C321 C340 1.368 . S
C321 H345 0.949 . S
H322 C326 0.949 . S
C323 C324 1.349 . S
C323 C325 1.327 . S
C323 H346 0.950 . S
C324 C323 1.349 . S
C324 C336 1.349 . S
C325 C323 1.327 . S
C325 C341 1.429 . S
C325 H347 0.950 . S
C326 H322 0.949 . S
C326 C334 1.574 . S
C326 C342 1.368 . S
H327 C335 0.950 . S
H328 C333 0.950 . S
H329 C334 0.949 . S
H330 C336 0.950 . S
H331 C337 0.950 . S
H332 C338 0.949 . S
C333 H328 0.950 . S
C333 C335 1.327 . S
C333 C339 1.429 . S
C334 C326 1.574 . S
C334 H329 0.949 . S
C334 C340 1.368 . S
C335 C319 1.349 . S
C335 H327 0.950 . S
C335 C333 1.327 . S
C336 C324 1.349 . S
C336 H330 0.950 . S
C336 C337 1.327 . S
C337 H331 0.950 . S
C337 C336 1.327 . S
C337 C341 1.429 . S
C338 C321 1.574 . S
C338 H332 0.949 . S
C338 C342 1.368 . S
C339 C320 1.429 . S
C339 C333 1.429 . S
C339 C340 1.523 . S
C340 C321 1.368 . S
C340 C334 1.368 . S
C340 C339 1.523 . S
C341 C325 1.429 . S
C341 C337 1.429 . S
C341 C342 1.523 . S
C342 C326 1.368 . S
C342 C338 1.368 . S
C342 C341 1.523 . S
H343 C318 0.950 1_554 S
H344 C320 0.950 . S
H345 C321 0.949 . S
H346 C323 0.950 . S
H347 C325 0.950 . S
C348 C349 1.349 . S
C348 C350 1.327 . S
C348 H373 0.950 1_556 S
C349 C348 1.349 . S
C349 C365 1.349 . S
C350 C348 1.327 . S
C350 C369 1.429 . S
C350 H374 0.950 . S
C351 C368 1.574 . S
C351 C370 1.368 . S
C351 H375 0.949 . S
H352 C356 0.949 . S
C353 C354 1.349 . S
C353 C355 1.327 . S
C353 H376 0.950 . S
C354 C353 1.349 . S
C354 C366 1.349 . S
C355 C353 1.327 . S
C355 C371 1.429 . S
C355 H377 0.950 . S
C356 H352 0.949 . S
C356 C364 1.574 . S
C356 C372 1.368 . S
H357 C365 0.950 . S
H358 C363 0.950 . S
H359 C364 0.949 . S
H360 C366 0.950 . S
H361 C367 0.950 . S
H362 C368 0.949 . S
C363 H358 0.950 . S
C363 C365 1.327 . S
C363 C369 1.429 . S
C364 C356 1.574 . S
C364 H359 0.949 . S
C364 C370 1.368 . S
C365 C349 1.349 . S
C365 H357 0.950 . S
C365 C363 1.327 . S
C366 C354 1.349 . S
C366 H360 0.950 . S
C366 C367 1.327 . S
C367 H361 0.950 . S
C367 C366 1.327 . S
C367 C371 1.429 . S
C368 C351 1.574 . S
C368 H362 0.949 . S
C368 C372 1.368 . S
C369 C350 1.429 . S
C369 C363 1.429 . S
C369 C370 1.523 . S
C370 C351 1.368 . S
C370 C364 1.368 . S
C370 C369 1.523 . S
C371 C355 1.429 . S
C371 C367 1.429 . S
C371 C372 1.523 . S
C372 C356 1.368 . S
C372 C368 1.368 . S
C372 C371 1.523 . S
H373 C348 0.950 1_554 S
H374 C350 0.950 . S
H375 C351 0.949 . S
H376 C353 0.950 . S
H377 C355 0.950 . S
C378 C379 1.349 . S
C378 C380 1.327 . S
C378 H403 0.950 . S
C379 C378 1.349 . S
C379 C395 1.349 . S
C380 C378 1.327 . S
C380 C399 1.429 . S
C380 H404 0.950 . S
C381 C398 1.574 . S
C381 C400 1.368 . S
C381 H405 0.949 . S
H382 C386 0.949 . S
C383 C384 1.349 . S
C383 C385 1.327 . S
C383 H406 0.950 . S
C384 C383 1.349 . S
C384 C396 1.349 . S
C385 C383 1.327 . S
C385 C401 1.429 . S
C385 H407 0.950 . S
C386 H382 0.949 . S
C386 C394 1.574 . S
C386 C402 1.368 . S
H387 C395 0.950 . S
H388 C393 0.950 . S
H389 C394 0.949 . S
H390 C396 0.950 . S
H391 C397 0.950 . S
H392 C398 0.949 . S
C393 H388 0.950 . S
C393 C395 1.327 . S
C393 C399 1.429 . S
C394 C386 1.574 . S
C394 H389 0.949 . S
C394 C400 1.368 . S
C395 C379 1.349 . S
C395 H387 0.950 . S
C395 C393 1.327 . S
C396 C384 1.349 . S
C396 H390 0.950 . S
C396 C397 1.327 . S
C397 H391 0.950 . S
C397 C396 1.327 . S
C397 C401 1.429 . S
C398 C381 1.574 . S
C398 H392 0.949 . S
C398 C402 1.368 . S
C399 C380 1.429 . S
C399 C393 1.429 . S
C399 C400 1.523 . S
C400 C381 1.368 . S
C400 C394 1.368 . S
C400 C399 1.523 . S
C401 C385 1.429 . S
C401 C397 1.429 . S
C401 C402 1.523 . S
C402 C386 1.368 . S
C402 C398 1.368 . S
C402 C401 1.523 . S
H403 C378 0.950 . S
H404 C380 0.950 . S
H405 C381 0.949 . S
H406 C383 0.950 . S
H407 C385 0.950 . S
C408 C409 1.349 . S
C408 C410 1.327 . S
C408 H433 0.950 . S
C409 C408 1.349 . S
C409 C425 1.349 . S
C410 C408 1.327 . S
C410 C429 1.429 . S
C410 H434 0.950 . S
C411 C428 1.574 . S
C411 C430 1.368 . S
C411 H435 0.949 . S
H412 C416 0.949 . S
C413 C414 1.349 . S
C413 C415 1.327 . S
C413 H436 0.950 . S
C414 C413 1.349 . S
C414 C426 1.349 . S
C415 C413 1.327 . S
C415 C431 1.429 . S
C415 H437 0.950 . S
C416 H412 0.949 . S
C416 C424 1.574 . S
C416 C432 1.368 . S
H417 C425 0.950 . S
H418 C423 0.950 . S
H419 C424 0.949 . S
H420 C426 0.950 . S
H421 C427 0.950 . S
H422 C428 0.949 . S
C423 H418 0.950 . S
C423 C425 1.327 . S
C423 C429 1.429 . S
C424 C416 1.574 . S
C424 H419 0.949 . S
C424 C430 1.368 . S
C425 C409 1.349 . S
C425 H417 0.950 . S
C425 C423 1.327 . S
C426 C414 1.349 . S
C426 H420 0.950 . S
C426 C427 1.327 . S
C427 H421 0.950 . S
C427 C426 1.327 . S
C427 C431 1.429 . S
C428 C411 1.574 . S
C428 H422 0.949 . S
C428 C432 1.368 . S
C429 C410 1.429 . S
C429 C423 1.429 . S
C429 C430 1.523 . S
C430 C411 1.368 . S
C430 C424 1.368 . S
C430 C429 1.523 . S
C431 C415 1.429 . S
C431 C427 1.429 . S
C431 C432 1.523 . S
C432 C416 1.368 . S
C432 C428 1.368 . S
C432 C431 1.523 . S
H433 C408 0.950 . S
H434 C410 0.950 . S
H435 C411 0.949 . S
H436 C413 0.950 . S
H437 C415 0.950 . S
C438 C439 1.349 . S
C438 C440 1.327 . S
C438 H463 0.950 . S
C439 C438 1.349 . S
C439 C455 1.349 . S
C440 C438 1.327 . S
C440 C459 1.429 . S
C440 H464 0.950 . S
C441 C458 1.574 . S
C441 C460 1.368 . S
C441 H465 0.949 . S
H442 C446 0.949 . S
C443 C444 1.349 1_655 S
C443 C445 1.327 . S
C443 H466 0.950 . S
C444 C443 1.349 1_455 S
C444 C456 1.349 . S
C445 C443 1.327 . S
C445 C461 1.429 . S
C445 H467 0.950 . S
C446 H442 0.949 . S
C446 C454 1.574 . S
C446 C462 1.368 . S
H447 C455 0.950 . S
H448 C453 0.950 . S
H449 C454 0.949 . S
H450 C456 0.950 . S
H451 C457 0.950 . S
H452 C458 0.949 . S
C453 H448 0.950 . S
C453 C455 1.327 . S
C453 C459 1.429 . S
C454 C446 1.574 . S
C454 H449 0.949 . S
C454 C460 1.368 . S
C455 C439 1.349 . S
C455 H447 0.950 . S
C455 C453 1.327 . S
C456 C444 1.349 . S
C456 H450 0.950 . S
C456 C457 1.327 1_455 S
C457 H451 0.950 . S
C457 C456 1.327 1_655 S
C457 C461 1.429 . S
C458 C441 1.574 . S
C458 H452 0.949 . S
C458 C462 1.368 . S
C459 C440 1.429 . S
C459 C453 1.429 . S
C459 C460 1.523 . S
C460 C441 1.368 . S
C460 C454 1.368 . S
C460 C459 1.523 . S
C461 C445 1.429 . S
C461 C457 1.429 . S
C461 C462 1.523 . S
C462 C446 1.368 . S
C462 C458 1.368 . S
C462 C461 1.523 . S
H463 C438 0.950 . S
H464 C440 0.950 . S
H465 C441 0.949 . S
H466 C443 0.950 . S
H467 C445 0.950 . S
C468 C469 1.349 . S
C468 C470 1.327 . S
C468 H493 0.950 . S
C469 C468 1.349 . S
C469 C485 1.349 . S
C470 C468 1.327 . S
C470 C489 1.429 . S
C470 H494 0.950 . S
C471 C488 1.574 . S
C471 C490 1.368 . S
C471 H495 0.949 . S
H472 C476 0.949 . S
C473 C474 1.349 . S
C473 C475 1.327 . S
C473 H496 0.950 . S
C474 C473 1.349 . S
C474 C486 1.349 . S
C475 C473 1.327 . S
C475 C491 1.429 . S
C475 H497 0.950 . S
C476 H472 0.949 . S
C476 C484 1.574 . S
C476 C492 1.368 . S
H477 C485 0.950 . S
H478 C483 0.950 . S
H479 C484 0.949 . S
H480 C486 0.950 . S
H481 C487 0.950 . S
H482 C488 0.949 . S
C483 H478 0.950 . S
C483 C485 1.327 . S
C483 C489 1.429 . S
C484 C476 1.574 . S
C484 H479 0.949 . S
C484 C490 1.368 . S
C485 C469 1.349 . S
C485 H477 0.950 . S
C485 C483 1.327 . S
C486 C474 1.349 . S
C486 H480 0.950 . S
C486 C487 1.327 . S
C487 H481 0.950 . S
C487 C486 1.327 . S
C487 C491 1.429 . S
C488 C471 1.574 . S
C488 H482 0.949 . S
C488 C492 1.368 . S
C489 C470 1.429 . S
C489 C483 1.429 . S
C489 C490 1.523 . S
C490 C471 1.368 . S
C490 C484 1.368 . S
C490 C489 1.523 . S
C491 C475 1.429 . S
C491 C487 1.429 . S
C491 C492 1.523 . S
C492 C476 1.368 . S
C492 C488 1.368 . S
C492 C491 1.523 . S
H493 C468 0.950 . S
H494 C470 0.950 . S
H495 C471 0.949 . S
H496 C473 0.950 . S
H497 C475 0.950 . S
C498 C499 1.349 . S
C498 C500 1.327 . S
C498 H523 0.950 . S
C499 C498 1.349 . S
C499 C515 1.349 . S
C500 C498 1.327 . S
C500 C519 1.429 . S
C500 H524 0.950 . S
C501 C518 1.574 . S
C501 C520 1.368 . S
C501 H525 0.949 . S
H502 C506 0.949 . S
C503 C504 1.349 . S
C503 C505 1.327 . S
C503 H526 0.950 . S
C504 C503 1.349 . S
C504 C516 1.349 . S
C505 C503 1.327 . S
C505 C521 1.429 . S
C505 H527 0.950 . S
C506 H502 0.949 . S
C506 C514 1.574 . S
C506 C522 1.368 . S
H507 C515 0.950 . S
H508 C513 0.950 . S
H509 C514 0.949 . S
H510 C516 0.950 . S
H511 C517 0.950 . S
H512 C518 0.949 . S
C513 H508 0.950 . S
C513 C515 1.327 . S
C513 C519 1.429 . S
C514 C506 1.574 . S
C514 H509 0.949 . S
C514 C520 1.368 . S
C515 C499 1.349 . S
C515 H507 0.950 . S
C515 C513 1.327 . S
C516 C504 1.349 . S
C516 H510 0.950 . S
C516 C517 1.327 . S
C517 H511 0.950 . S
C517 C516 1.327 . S
C517 C521 1.429 . S
C518 C501 1.574 . S
C518 H512 0.949 . S
C518 C522 1.368 . S
C519 C500 1.429 . S
C519 C513 1.429 . S
C519 C520 1.523 . S
C520 C501 1.368 . S
C520 C514 1.368 . S
C520 C519 1.523 . S
C521 C505 1.429 . S
C521 C517 1.429 . S
C521 C522 1.523 . S
C522 C506 1.368 . S
C522 C518 1.368 . S
C522 C521 1.523 . S
H523 C498 0.950 . S
H524 C500 0.950 . S
H525 C501 0.949 . S
H526 C503 0.950 . S
H527 C505 0.950 . S
C528 C529 1.349 . S
C528 C530 1.327 . S
C528 H553 0.950 . S
C529 C528 1.349 . S
C529 C545 1.349 . S
C530 C528 1.327 . S
C530 C549 1.429 . S
C530 H554 0.950 . S
C531 C548 1.574 . S
C531 C550 1.368 . S
C531 H555 0.949 . S
H532 C536 0.949 . S
C533 C534 1.349 . S
C533 C535 1.327 . S
C533 H556 0.950 . S
C534 C533 1.349 . S
C534 C546 1.349 . S
C535 C533 1.327 . S
C535 C551 1.429 . S
C535 H557 0.950 . S
C536 H532 0.949 . S
C536 C544 1.574 . S
C536 C552 1.368 . S
H537 C545 0.950 . S
H538 C543 0.950 . S
H539 C544 0.949 . S
H540 C546 0.950 . S
H541 C547 0.950 . S
H542 C548 0.949 . S
C543 H538 0.950 . S
C543 C545 1.327 . S
C543 C549 1.429 . S
C544 C536 1.574 . S
C544 H539 0.949 . S
C544 C550 1.368 . S
C545 C529 1.349 . S
C545 H537 0.950 . S
C545 C543 1.327 . S
C546 C534 1.349 . S
C546 H540 0.950 . S
C546 C547 1.327 . S
C547 H541 0.950 . S
C547 C546 1.327 . S
C547 C551 1.429 . S
C548 C531 1.574 . S
C548 H542 0.949 . S
C548 C552 1.368 . S
C549 C530 1.429 . S
C549 C543 1.429 . S
C549 C550 1.523 . S
C550 C531 1.368 . S
C550 C544 1.368 . S
C550 C549 1.523 . S
C551 C535 1.429 . S
C551 C547 1.429 . S
C551 C552 1.523 . S
C552 C536 1.368 . S
C552 C548 1.368 . S
C552 C551 1.523 . S
H553 C528 0.950 . S
H554 C530 0.950 . S
H555 C531 0.949 . S
H556 C533 0.950 . S
H557 C535 0.950 . S
C204 C163 1.412 . S
C199 C21 1.516 . S
C234 C159 1.418 . S
C229 C60 1.515 . S
C264 C184 1.411 . S
C259 C99 1.516 . S
C289 C138 1.515 . S
C294 C180 1.419 . S
C319 C1 1.091 . S
C324 C181 0.984 . S
C354 C196 1.007 . S
C349 C40 1.116 . S
C379 C16 1.732 . S
C384 C197 1.597 . S
C414 C193 1.614 . S
C409 C55 1.743 . S
C444 C160 0.984 . S
C439 C79 1.091 . S
C469 C118 1.116 . S
C474 C175 1.007 . S
C504 C176 1.596 . S
C499 C94 1.732 . S
C534 C172 1.627 . S
C529 C133 1.743 . S
