# Generated by pormake.
# Topology zzz, (3,6)-cn, num edge types: 1
# Building blocks:
#     Node 0, Type 0, BuildingBlock: BELTOD_clean_linker_0, # of connection points: 3
#     Node 1, Type 0, BuildingBlock: BELTOD_clean_linker_0, # of connection points: 3
#     Node 2, Type 0, BuildingBlock: BELTOD_clean_linker_0, # of connection points: 3
#     Node 3, Type 0, BuildingBlock: BELTOD_clean_linker_0, # of connection points: 3
#     Node 4, Type 0, BuildingBlock: BELTOD_clean_linker_0, # of connection points: 3
#     Node 5, Type 0, BuildingBlock: BELTOD_clean_linker_0, # of connection points: 3
#     Node 6, Type 0, BuildingBlock: BELTOD_clean_linker_0, # of connection points: 3
#     Node 7, Type 0, BuildingBlock: BELTOD_clean_linker_0, # of connection points: 3
#     Node 8, Type 1, BuildingBlock: BETDIP_clean_sbu_0, # of connection points: 6
#     Node 9, Type 1, BuildingBlock: BETDIP_clean_sbu_0, # of connection points: 6
#     Node 10, Type 1, BuildingBlock: BETDIP_clean_sbu_0, # of connection points: 6
#     Node 11, Type 1, BuildingBlock: BETDIP_clean_sbu_0, # of connection points: 6
#     Edge 12, Type (0, 1), BuildingBlock: UVAHIK_clean_linker_0, # of connection points: 2
#     Edge 13, Type (0, 1), BuildingBlock: UVAHIK_clean_linker_0, # of connection points: 2
#     Edge 14, Type (0, 1), BuildingBlock: UVAHIK_clean_linker_0, # of connection points: 2
#     Edge 15, Type (0, 1), BuildingBlock: UVAHIK_clean_linker_0, # of connection points: 2
#     Edge 16, Type (0, 1), BuildingBlock: UVAHIK_clean_linker_0, # of connection points: 2
#     Edge 17, Type (0, 1), BuildingBlock: UVAHIK_clean_linker_0, # of connection points: 2
#     Edge 18, Type (0, 1), BuildingBlock: UVAHIK_clean_linker_0, # of connection points: 2
#     Edge 19, Type (0, 1), BuildingBlock: UVAHIK_clean_linker_0, # of connection points: 2
#     Edge 20, Type (0, 1), BuildingBlock: UVAHIK_clean_linker_0, # of connection points: 2
#     Edge 21, Type (0, 1), BuildingBlock: UVAHIK_clean_linker_0, # of connection points: 2
#     Edge 22, Type (0, 1), BuildingBlock: UVAHIK_clean_linker_0, # of connection points: 2
#     Edge 23, Type (0, 1), BuildingBlock: UVAHIK_clean_linker_0, # of connection points: 2
#     Edge 24, Type (0, 1), BuildingBlock: UVAHIK_clean_linker_0, # of connection points: 2
#     Edge 25, Type (0, 1), BuildingBlock: UVAHIK_clean_linker_0, # of connection points: 2
#     Edge 26, Type (0, 1), BuildingBlock: UVAHIK_clean_linker_0, # of connection points: 2
#     Edge 27, Type (0, 1), BuildingBlock: UVAHIK_clean_linker_0, # of connection points: 2
#     Edge 28, Type (0, 1), BuildingBlock: UVAHIK_clean_linker_0, # of connection points: 2
#     Edge 29, Type (0, 1), BuildingBlock: UVAHIK_clean_linker_0, # of connection points: 2
#     Edge 30, Type (0, 1), BuildingBlock: UVAHIK_clean_linker_0, # of connection points: 2
#     Edge 31, Type (0, 1), BuildingBlock: UVAHIK_clean_linker_0, # of connection points: 2
#     Edge 32, Type (0, 1), BuildingBlock: UVAHIK_clean_linker_0, # of connection points: 2
#     Edge 33, Type (0, 1), BuildingBlock: UVAHIK_clean_linker_0, # of connection points: 2
#     Edge 34, Type (0, 1), BuildingBlock: UVAHIK_clean_linker_0, # of connection points: 2
#     Edge 35, Type (0, 1), BuildingBlock: UVAHIK_clean_linker_0, # of connection points: 2
# Relax obj value: 0.391
# Max RMSD: 0.253
# Mean RMSD: 0.231
data_MOF--net-zzz--node1-BETDIP_clean_sbu_0--node2-BELTOD_clean_linker_0--edge1-UVAHIK_clean_linker_0
_symmetry_space_group_name_H-M    P1
_symmetry_Int_Tables_number       1
_symmetry_cell_setting            triclinic
loop_
_symmetry_equiv_pos_as_xyz
'x, y, z'
_cell_length_a     70.296547
_cell_length_b     70.359951
_cell_length_c     21.584884
_cell_angle_alpha  89.854786
_cell_angle_beta   90.03006
_cell_angle_gamma 89.984442
loop_
_atom_site_label
_atom_site_type_symbol
_atom_site_fract_x
_atom_site_fract_y
_atom_site_fract_z
_atom_type_partial_charge
P0 P 0.71462 0.47493 0.34997 0.0
H1 H 0.72907 0.4718 0.47673 0.0
H2 H 0.75951 0.48102 0.52181 0.0
H3 H 0.77215 0.51442 0.35903 0.0
H4 H 0.74164 0.50491 0.31343 0.0
H5 H 0.67572 0.46238 0.33631 0.0
H6 H 0.64905 0.47501 0.27836 0.0
H7 H 0.67994 0.52731 0.24795 0.0
H8 H 0.70697 0.51429 0.3064 0.0
H9 H 0.74444 0.44683 0.33364 0.0
H10 H 0.71084 0.48354 0.2161 0.0
O11 O 0.70802 0.4563 0.39291 0.0
H12 H 0.76409 0.43816 0.24451 0.0
H13 H 0.73023 0.47486 0.12763 0.0
C14 C 0.73296 0.48767 0.39159 0.0
C15 C 0.73803 0.48161 0.45134 0.0
C16 C 0.75557 0.48674 0.47697 0.0
C17 C 0.76836 0.4982 0.44359 0.0
C18 C 0.76257 0.50562 0.38598 0.0
C19 C 0.74505 0.5003 0.36004 0.0
C20 C 0.69332 0.48744 0.3266 0.0
C21 C 0.67657 0.47686 0.31943 0.0
C22 C 0.66123 0.48414 0.28591 0.0
C23 C 0.66229 0.50218 0.25797 0.0
C24 C 0.67869 0.51328 0.2683 0.0
C25 C 0.69408 0.50597 0.30248 0.0
C26 C 0.72616 0.46581 0.28185 0.0
C27 C 0.74097 0.45263 0.28849 0.0
C28 C 0.75213 0.44765 0.23753 0.0
C29 C 0.74871 0.45593 0.17924 0.0
C30 C 0.73328 0.46841 0.17217 0.0
C31 C 0.72213 0.47335 0.22304 0.0
P32 P 0.02663 0.71756 0.34144 0.0
H33 H 0.02627 0.73151 0.46909 0.0
H34 H 0.01523 0.76133 0.51197 0.0
H35 H 0.98382 0.77254 0.34343 0.0
H36 H 0.99614 0.74318 0.29929 0.0
H37 H 0.04006 0.67915 0.32231 0.0
H38 H 0.02927 0.65345 0.25658 0.0
H39 H 0.97795 0.6849 0.2153 0.0
H40 H 0.98922 0.71096 0.28061 0.0
H41 H 0.04734 0.75316 0.3446 0.0
H42 H 0.03162 0.71183 0.20603 0.0
O43 O 0.04336 0.70995 0.39049 0.0
H44 H 0.05768 0.77493 0.26283 0.0
H45 H 0.04228 0.73349 0.1246 0.0
C46 C 0.01189 0.73482 0.38104 0.0
C47 C 0.0165 0.74002 0.44194 0.0
C48 C 0.01011 0.75727 0.4666 0.0
C49 C 0.99881 0.76974 0.43107 0.0
C50 C 0.99288 0.76365 0.3719 0.0
C51 C 0.99951 0.7465 0.34698 0.0
C52 C 0.01536 0.69695 0.30748 0.0
C53 C 0.02619 0.68034 0.30083 0.0
C54 C 0.01995 0.66554 0.2629 0.0
C55 C 1.0027 0.66698 0.23019 0.0
C56 C 0.99143 0.68334 0.23907 0.0
C57 C 0.99775 0.69823 0.27712 0.0
C58 C 0.03833 0.73104 0.28158 0.0
C59 C 0.04652 0.74857 0.29681 0.0
C60 C 0.05243 0.76098 0.25021 0.0
C61 C 0.0506 0.75585 0.18771 0.0
C62 C 0.04387 0.73768 0.17259 0.0
C63 C 0.03766 0.72535 0.21928 0.0
P64 P 0.78584 0.02614 0.346 0.0
H65 H 0.77711 0.01384 0.47273 0.0
H66 H 0.7477 1.00202 0.51888 0.0
H67 H 0.72361 0.99526 0.33592 0.0
H68 H 0.75333 0.00626 0.29035 0.0
H69 H 0.82484 0.03755 0.32692 0.0
H70 H 0.84994 0.02593 0.25979 0.0
H71 H 0.81491 0.97788 0.20966 0.0
H72 H 0.7895 0.98996 0.27711 0.0
H73 H 0.76259 0.06007 0.36143 0.0
H74 H 0.7822 0.02517 0.21038 0.0
O75 O 0.79465 0.03963 0.4027 0.0
H76 H 0.74141 0.07706 0.29042 0.0
H77 H 0.76086 0.04154 0.14005 0.0
C78 C 0.76734 0.01126 0.3781 0.0
C79 C 0.76573 0.00922 0.44248 0.0
C80 C 0.74875 0.00268 0.46887 0.0
C81 C 0.73298 0.99819 0.43133 0.0
C82 C 0.73535 0.99857 0.36653 0.0
C83 C 0.75241 0.00493 0.34024 0.0
C84 C 0.80543 0.01444 0.30802 0.0
C85 C 0.82273 0.0242 0.30304 0.0
C86 C 0.83714 0.0175 0.26444 0.0
C87 C 0.83455 1.0009 0.22925 0.0
C88 C 0.81735 0.99076 0.2358 0.0
C89 C 0.8029 0.99751 0.27488 0.0
C90 C 0.77416 0.04152 0.29119 0.0
C91 C 0.76274 0.05642 0.31271 0.0
C92 C 0.75051 0.06599 0.27217 0.0
C93 C 0.74934 0.06061 0.20954 0.0
C94 C 0.76159 0.04632 0.18764 0.0
C95 C 0.77383 0.03684 0.22812 0.0
P96 P 0.47577 0.7856 0.34926 0.0
H97 H 0.47231 0.77172 0.47671 0.0
H98 H 0.48333 0.74248 0.52432 0.0
H99 H 0.52142 0.73339 0.36996 0.0
H100 H 0.50919 0.76199 0.32055 0.0
H101 H 0.46291 0.82473 0.33879 0.0
H102 H 0.47373 0.85133 0.27659 0.0
H103 H 0.52414 0.81976 0.22638 0.0
H104 H 0.51286 0.79284 0.28791 0.0
H105 H 0.46038 0.74734 0.34401 0.0
H106 H 0.47125 0.79296 0.21441 0.0
O107 O 0.457 0.79224 0.39132 0.0
H108 H 0.45348 0.72602 0.25785 0.0
H109 H 0.46403 0.7716 0.12825 0.0
C110 C 0.49002 0.76934 0.3951 0.0
C111 C 0.4835 0.76383 0.4539 0.0
C112 C 0.48988 0.74694 0.4813 0.0
C113 C 0.50309 0.73518 0.45073 0.0
C114 C 0.5109 0.74172 0.39442 0.0
C115 C 0.50428 0.75848 0.36663 0.0
C116 C 0.48716 0.80676 0.31912 0.0
C117 C 0.4766 0.82366 0.31615 0.0
C118 C 0.48285 0.83898 0.28026 0.0
C119 C 0.49981 0.83777 0.24596 0.0
C120 C 0.51088 0.82114 0.25147 0.0
C121 C 0.50457 0.80576 0.2875 0.0
C122 C 0.46698 0.77156 0.28575 0.0
C123 C 0.46106 0.75286 0.29719 0.0
C124 C 0.45708 0.7407 0.24806 0.0
C125 C 0.45851 0.74718 0.18673 0.0
C126 C 0.4629 0.76632 0.17531 0.0
C127 C 0.46716 0.77847 0.22462 0.0
P128 P 0.27864 0.46225 0.08838 0.0
H129 H 0.26376 0.44302 0.97882 0.0
H130 H 0.2366 0.45034 0.91267 0.0
H131 H 0.23433 0.50697 0.98849 0.0
H132 H 0.26164 0.49964 0.05457 0.0
H133 H 0.30959 0.43741 0.12494 0.0
H134 H 0.34124 0.44391 0.1629 0.0
H135 H 0.33584 0.50244 0.10476 0.0
H136 H 0.30378 0.49561 0.0648 0.0
H137 H 0.25335 0.44694 0.18424 0.0
H138 H 0.28208 0.49993 0.14627 0.0
O139 O 0.27518 0.43878 0.09214 0.0
H140 H 0.23899 0.46099 0.27636 0.0
H141 H 0.26785 0.5139 0.23815 0.0
C142 C 0.2646 0.47058 0.02312 0.0
C143 C 0.25787 0.45723 0.98014 0.0
C144 C 0.24217 0.46137 0.94254 0.0
C145 C 0.23295 0.47907 0.94649 0.0
C146 C 0.241 0.49315 0.98458 0.0
C147 C 0.25669 0.48894 0.02259 0.0
C148 C 0.30411 0.46602 0.09203 0.0
C149 C 0.31534 0.45151 0.11773 0.0
C150 C 0.3336 0.45527 0.13984 0.0
C151 C 0.3411 0.47377 0.13771 0.0
C152 C 0.33039 0.48808 0.10791 0.0
C153 C 0.3121 0.48417 0.08468 0.0
C154 C 0.26893 0.47229 0.15827 0.0
C155 C 0.25682 0.46147 0.19598 0.0
C156 C 0.24872 0.46947 0.24892 0.0
C157 C 0.25242 0.4885 0.26451 0.0
C158 C 0.26476 0.49921 0.22716 0.0
C159 C 0.27296 0.49116 0.17461 0.0
P160 P 0.0456 0.28633 0.00512 0.0
H161 H 0.04038 0.27398 0.87686 0.0
H162 H 0.0278 0.24434 0.83648 0.0
H163 H 1.00205 0.23243 0.01404 0.0
H164 H 0.01511 0.26209 0.05461 0.0
H165 H 0.06595 0.31899 0.04927 0.0
H166 H 0.05842 0.34407 0.12282 0.0
H167 H 1.00075 0.3234 0.13559 0.0
H168 H 0.00849 0.29795 0.06123 0.0
H169 H 0.07286 0.25608 0.98302 0.0
H170 H 0.04402 0.28073 0.13987 0.0
O171 O 0.06096 0.29402 0.95172 0.0
H172 H 0.08133 0.22841 0.04606 0.0
H173 H 0.0523 0.25329 0.20249 0.0
C174 C 0.02866 0.27046 0.96887 0.0
C175 C 0.03134 0.26547 0.90655 0.0
C176 C 0.02417 0.24833 0.88342 0.0
C177 C 0.01419 0.23569 0.92223 0.0
C178 C 0.01 0.24158 0.98308 0.0
C179 C 0.01715 0.2588 0.00609 0.0
C180 C 0.03774 0.30674 0.04898 0.0
C181 C 0.05154 0.32005 0.06663 0.0
C182 C 0.04727 0.33429 0.10924 0.0
C183 C 0.02905 0.33562 0.13542 0.0
C184 C 0.0149 0.32275 0.11591 0.0
C185 C 0.01928 0.30825 0.07337 0.0
C186 C 0.05797 0.27055 0.05677 0.0
C187 C 0.0691 0.25595 0.03168 0.0
C188 C 0.07377 0.24007 0.06755 0.0
C189 C 0.06732 0.23861 0.12901 0.0
C190 C 0.05768 0.25407 0.15553 0.0
C191 C 0.05291 0.26986 0.11955 0.0
P192 P 0.22204 0.04788 0.06549 0.0
H193 H 0.24169 0.06915 0.96902 0.0
H194 H 0.26947 0.0612 0.90715 0.0
H195 H 0.26394 1.00235 0.96092 0.0
H196 H 0.23585 0.01042 0.02307 0.0
H197 H 0.18187 0.05831 0.05097 0.0
H198 H 0.15376 0.04651 0.10515 0.0
H199 H 0.18587 0.99807 0.16979 0.0
H200 H 0.21395 0.00986 0.11503 0.0
H201 H 0.26305 0.04138 0.08802 0.0
H202 H 0.21222 0.0494 0.19741 0.0
O203 O 0.21695 0.07093 0.05745 0.0
H204 H 0.28037 0.03199 0.18038 0.0
H205 H 0.22986 0.04009 0.2908 0.0
C206 C 0.2365 0.04038 1.0006 0.0
C207 C 0.24586 0.05438 0.96566 0.0
C208 C 0.26196 0.04986 0.93075 0.0
C209 C 0.26913 0.03122 0.93008 0.0
C210 C 0.25873 0.01684 0.96038 0.0
C211 C 0.24256 0.02141 0.9956 0.0
C212 C 0.20012 0.03509 0.07938 0.0
C213 C 0.1827 0.04473 0.07449 0.0
C214 C 0.16659 0.03798 0.10573 0.0
C215 C 0.16772 0.02157 0.14283 0.0
C216 C 0.18465 0.01091 0.14228 0.0
C217 C 0.20067 0.01752 0.11027 0.0
C218 C 0.23602 0.04525 0.13512 0.0
C219 C 0.25552 0.04117 0.13165 0.0
C220 C 0.2655 0.03583 0.18464 0.0
C221 C 0.25627 0.03482 0.24221 0.0
C222 C 0.23721 0.04057 0.24673 0.0
C223 C 0.22715 0.04582 0.19341 0.0
P224 P 0.46306 0.21465 0.01536 0.0
H225 H 0.4562 0.22991 0.89134 0.0
H226 H 0.46672 0.25919 0.84365 0.0
H227 H 0.51055 0.26463 0.98321 0.0
H228 H 0.49875 0.23609 0.03359 0.0
H229 H 0.45001 0.17544 0.02623 0.0
H230 H 0.46015 0.1491 0.09178 0.0
H231 H 0.50972 0.18098 0.14694 0.0
H232 H 0.49983 0.20722 0.07969 0.0
H233 H 0.44008 0.24876 0.01284 0.0
H234 H 0.46992 0.21599 0.15155 0.0
O235 O 0.44361 0.20797 0.97671 0.0
H236 H 0.43901 0.27579 0.08336 0.0
H237 H 0.46941 0.24301 0.22092 0.0
C238 C 0.47681 0.23035 0.96585 0.0
C239 C 0.46853 0.23696 0.91066 0.0
C240 C 0.47462 0.25395 0.88318 0.0
C241 C 0.48938 0.26476 0.90977 0.0
C242 C 0.4988 0.25714 0.96195 0.0
C243 C 0.49242 0.24032 0.99009 0.0
C244 C 0.47411 0.19348 0.04756 0.0
C245 C 0.46345 0.17662 0.05039 0.0
C246 C 0.46923 0.16149 0.08813 0.0
C247 C 0.48562 0.16304 0.12496 0.0
C248 C 0.49696 0.17943 0.11924 0.0
C249 C 0.49138 0.19442 0.08021 0.0
C250 C 0.45556 0.23049 0.07597 0.0
C251 C 0.44586 0.24713 0.05909 0.0
C252 C 0.44539 0.26262 0.09921 0.0
C253 C 0.45458 0.26165 0.15694 0.0
C254 C 0.46229 0.24423 0.17658 0.0
C255 C 0.46277 0.22874 0.13632 0.0
Tb256 Tb 0.00963 0.99697 0.73237 0.0
Tb257 Tb 0.986 0.00871 0.62469 0.0
C258 C 0.0226 0.98049 0.82649 0.0
C259 C 0.02913 0.96086 0.83792 0.0
C260 C 0.01675 0.94535 0.83052 0.0
C261 C 0.02332 0.92682 0.83886 0.0
C262 C 0.04242 0.92334 0.85473 0.0
C263 C 0.05478 0.93888 0.86221 0.0
C264 C 0.04817 0.95746 0.854 0.0
C265 C 0.02936 0.00749 0.63383 0.0
C266 C 0.99326 0.96529 0.6388 0.0
C267 C 0.975 0.02532 0.52814 0.0
C268 C 0.98306 0.04205 0.49724 0.0
C269 C 1.00156 0.04794 0.51226 0.0
C270 C 0.00939 0.06396 0.48427 0.0
C271 C 0.99891 0.07434 0.44037 0.0
C272 C 0.98042 0.06833 0.42486 0.0
C273 C 0.9725 0.0523 0.45342 0.0
C274 C 0.96638 0.99805 0.72276 0.0
C275 C 1.00267 0.03978 0.7177 0.0
O276 O 0.00439 0.98285 0.81612 0.0
O277 O 0.03312 0.9905 0.78862 0.0
O278 O 0.01416 0.99803 0.63416 0.0
O279 O 0.03464 0.01032 0.69053 0.0
O280 O 1.00137 0.96932 0.69268 0.0
O281 O 0.98711 0.97878 0.6011 0.0
O282 O 0.98599 0.01034 0.52793 0.0
O283 O 0.96756 0.02842 0.58272 0.0
O284 O 0.98151 0.0076 0.72241 0.0
O285 O 0.96077 0.99556 0.66611 0.0
O286 O 0.9986 0.03545 0.65943 0.0
O287 O 0.0049 0.02624 0.7595 0.0
H288 H 1.00196 0.94746 0.81818 0.0
H289 H 0.0133 0.91522 0.834 0.0
H290 H 0.0696 0.93669 0.87402 0.0
H291 H 0.058 0.96919 0.85969 0.0
H292 H 0.01003 0.04009 0.54548 0.0
H293 H 0.02378 0.06806 0.49632 0.0
H294 H 0.97203 0.07617 0.39131 0.0
H295 H 0.95819 0.04793 0.44142 0.0
Tb296 Tb 0.50667 0.01407 0.74115 0.0
Tb297 Tb 0.49547 0.98819 0.63958 0.0
C298 C 0.52234 0.02834 0.83492 0.0
C299 C 0.54166 0.03443 0.85173 0.0
C300 C 0.55771 0.02465 0.83001 0.0
C301 C 0.57595 0.03073 0.84611 0.0
C302 C 0.57849 0.04658 0.88487 0.0
C303 C 0.56232 0.05637 0.90629 0.0
C304 C 0.54408 0.05036 0.88968 0.0
C305 C 0.49585 0.03171 0.63902 0.0
C306 C 0.5385 0.99679 0.64869 0.0
C307 C 0.47751 0.97377 0.55143 0.0
C308 C 0.45711 0.97577 0.53706 0.0
C309 C 0.44846 0.99378 0.53793 0.0
C310 C 0.42874 0.99547 0.53457 0.0
C311 C 0.41722 0.97921 0.53055 0.0
C312 C 0.4259 0.96122 0.5277 0.0
C313 C 0.4457 0.95952 0.53104 0.0
C314 C 0.50653 0.97102 0.74193 0.0
C315 C 0.46375 0.00619 0.72841 0.0
O316 O 0.51978 0.01006 0.82731 0.0
O317 O 0.51393 0.03841 0.79197 0.0
O318 O 0.50564 0.0167 0.64215 0.0
O319 O 0.4928 0.03789 0.69463 0.0
O320 O 0.53436 0.00576 0.70108 0.0
O321 O 0.52509 0.98966 0.61271 0.0
O322 O 0.48786 0.98916 0.5457 0.0
O323 O 0.48117 0.96459 0.6028 0.0
O324 O 0.49634 0.98573 0.73826 0.0
O325 O 0.51008 0.96485 0.68657 0.0
O326 O 0.46809 0.99949 0.67297 0.0
O327 O 0.47717 0.01076 0.7684 0.0
H328 H 0.55617 0.01224 0.80093 0.0
H329 H 0.58807 0.023 0.82813 0.0
H330 H 0.56372 0.06844 0.93701 0.0
H331 H 0.53184 0.05806 0.90695 0.0
H332 H 0.45684 0.00659 0.54325 0.0
H333 H 0.42252 0.00955 0.53554 0.0
H334 H 0.41738 0.94844 0.52476 0.0
H335 H 0.45206 0.9455 0.53116 0.0
Tb336 Tb 0.49175 0.50508 0.73366 0.0
Tb337 Tb 0.51989 0.49616 0.63573 0.0
C338 C 0.47403 0.51993 0.82204 0.0
C339 C 0.47001 0.53985 0.838 0.0
C340 C 0.48438 0.55369 0.83545 0.0
C341 C 0.48007 0.57277 0.84563 0.0
C342 C 0.46129 0.57843 0.85838 0.0
C343 C 0.44696 0.56451 0.86158 0.0
C344 C 0.4513 0.54539 0.85144 0.0
C345 C 0.47682 0.49325 0.62834 0.0
C346 C 0.50937 0.53863 0.64943 0.0
C347 C 0.53576 0.48119 0.544 0.0
C348 C 0.53255 0.46252 0.51588 0.0
C349 C 0.5152 0.45314 0.52585 0.0
C350 C 0.51213 0.43513 0.50146 0.0
C351 C 0.52625 0.42624 0.4659 0.0
C352 C 0.54357 0.4357 0.45527 0.0
C353 C 0.54676 0.45372 0.48061 0.0
C354 C 0.53504 0.50796 0.74047 0.0
C355 C 0.50226 0.46286 0.72046 0.0
O356 O 0.49181 0.51446 0.82573 0.0
O357 O 0.46575 0.51388 0.7716 0.0
O358 O 0.49078 0.50432 0.63452 0.0
O359 O 0.47016 0.48909 0.68265 0.0
O360 O 0.50048 0.53356 0.70107 0.0
O361 O 0.517 0.52591 0.61213 0.0
O362 O 0.52145 0.49301 0.53953 0.0
O363 O 0.54301 0.48083 0.59981 0.0
O364 O 0.52093 0.49703 0.73468 0.0
O365 O 0.54199 0.51158 0.68602 0.0
O366 O 0.50974 0.46796 0.66656 0.0
O367 O 0.49596 0.47567 0.76002 0.0
H368 H 0.49894 0.54983 0.82481 0.0
H369 H 0.4915 0.58308 0.84398 0.0
H370 H 0.43235 0.56844 0.87092 0.0
H371 H 0.43999 0.53494 0.85301 0.0
H372 H 0.50391 0.45978 0.55215 0.0
H373 H 0.49851 0.42832 0.50924 0.0
H374 H 0.55464 0.4291 0.42782 0.0
H375 H 0.56024 0.46077 0.47267 0.0
Tb376 Tb 0.997 0.48979 0.73018 0.0
Tb377 Tb 0.00768 0.51555 0.62798 0.0
C378 C 0.98131 0.47454 0.82235 0.0
C379 C 0.96145 0.47175 0.84115 0.0
C380 C 0.94736 0.4848 0.82358 0.0
C381 C 0.9283 0.48129 0.83735 0.0
C382 C 0.92299 0.46479 0.87003 0.0
C383 C 0.93727 0.45195 0.88869 0.0
C384 C 0.95632 0.45536 0.87399 0.0
C385 C 0.009 0.47245 0.62922 0.0
C386 C 0.96498 0.5062 0.63725 0.0
C387 C 0.02512 0.53021 0.53892 0.0
C388 C 0.04581 0.53122 0.52861 0.0
C389 C 0.05712 0.51489 0.53563 0.0
C390 C 0.07687 0.51626 0.53519 0.0
C391 C 0.08579 0.53399 0.52798 0.0
C392 C 0.0745 0.55027 0.51902 0.0
C393 C 0.05465 0.54889 0.51948 0.0
C394 C 0.99553 0.5329 0.72847 0.0
C395 C 0.03982 0.499 0.72022 0.0
O396 O 0.98745 0.49211 0.82178 0.0
O397 O 0.9865 0.46516 0.77301 0.0
O398 O 0.99833 0.48682 0.63156 0.0
O399 O 0.01271 0.46682 0.68513 0.0
O400 O 0.96919 0.49916 0.69273 0.0
O401 O 0.97845 0.51182 0.59874 0.0
O402 O 0.0175 0.51323 0.53667 0.0
O403 O 0.01896 0.54004 0.58617 0.0
O404 O 0.00627 0.51854 0.72653 0.0
O405 O 0.99195 0.53853 0.67239 0.0
O406 O 0.03555 0.50661 0.66572 0.0
O407 O 0.02641 0.4929 0.75809 0.0
H408 H 0.95107 0.49764 0.79874 0.0
H409 H 0.91773 0.4914 0.82154 0.0
H410 H 0.93378 0.43931 0.91502 0.0
H411 H 0.96704 0.44514 0.88794 0.0
H412 H 0.05077 0.50105 0.54327 0.0
H413 H 0.08516 0.50339 0.54077 0.0
H414 H 0.081 0.56412 0.51338 0.0
H415 H 0.04619 0.56169 0.51472 0.0
C416 C 0.1331 0.01782 0.1718 0.0
C417 C 0.15242 0.01725 0.18847 0.0
C418 C 0.11887 0.01547 0.21676 0.0
C419 C 0.11163 1.00047 0.38262 0.0
H420 H 0.06489 0.02937 0.36685 0.0
C421 C 0.06123 0.0149 0.58832 0.0
C422 C 0.04219 0.00943 0.57971 0.0
C423 C 0.07385 0.01543 0.53825 0.0
C424 C 0.07784 0.02114 0.37157 0.0
H425 H 0.17193 0.0141 0.26553 0.0
H426 H 0.14742 0.01066 0.34369 0.0
H427 H 0.08849 0.03054 0.28386 0.0
H428 H 0.02137 1.00063 0.51157 0.0
H429 H 0.0433 1.00235 0.42338 0.0
H430 H 0.10122 0.99186 0.47173 0.0
C431 C 0.14302 0.01215 0.29586 0.0
C432 C 0.09136 0.02167 0.32383 0.0
C433 C 0.15718 0.01417 0.2509 0.0
C434 C 0.03589 0.00505 0.51957 0.0
C435 C 0.04844 0.006 0.46915 0.0
C436 C 0.0983 1.00027 0.4307 0.0
C437 C 0.12361 0.01285 0.27972 0.0
C438 C 0.10858 0.01147 0.32883 0.0
C439 C 0.06762 0.01088 0.47824 0.0
C440 C 0.08134 0.0107 0.4259 0.0
H441 H 0.129 0.02017 0.124 0.0
H442 H 0.10416 0.01578 0.202 0.0
H443 H 0.12436 0.99197 0.3879 0.0
H444 H 0.06651 0.01836 0.63407 0.0
H445 H 0.08853 0.01938 0.54644 0.0
C446 C 0.489 0.12908 0.16089 0.0
C447 C 0.48944 0.14865 0.17406 0.0
C448 C 0.4905 0.11562 0.20873 0.0
C449 C 0.4786 0.10921 0.37056 0.0
H450 H 0.51558 0.06836 0.37444 0.0
C451 C 0.48786 0.06271 0.58871 0.0
C452 C 0.49399 0.04381 0.58298 0.0
C453 C 0.48717 0.07474 0.53707 0.0
C454 C 0.50488 0.07942 0.37376 0.0
H455 H 0.49188 0.16943 0.24754 0.0
H456 H 0.49406 0.14594 0.33109 0.0
H457 H 0.51516 0.09055 0.28713 0.0
H458 H 0.50394 0.02259 0.51823 0.0
H459 H 0.50176 0.04318 0.42726 0.0
H460 H 0.46769 0.09795 0.45526 0.0
C461 C 0.49282 0.14104 0.28372 0.0
C462 C 0.50477 0.09222 0.32378 0.0
C463 C 0.49174 0.15446 0.23588 0.0
C464 C 0.49905 0.03706 0.52407 0.0
C465 C 0.49803 0.04901 0.47199 0.0
C466 C 0.47841 0.09623 0.41975 0.0
C467 C 0.492 0.12149 0.27074 0.0
C468 C 0.49181 0.1074 0.32221 0.0
C469 C 0.49223 0.06813 0.47773 0.0
C470 C 0.49175 0.08128 0.42283 0.0
H471 H 0.48719 0.12421 0.11368 0.0
H472 H 0.48978 0.10064 0.1975 0.0
H473 H 0.46824 0.12061 0.36998 0.0
H474 H 0.48401 0.06842 0.63355 0.0
H475 H 0.48307 0.08939 0.54432 0.0
C476 C 0.35988 0.49411 0.21169 0.0
C477 C 0.35891 0.47814 0.17272 0.0
C478 C 0.37508 0.49639 0.25314 0.0
C479 C 0.41007 0.46726 0.33852 0.0
H480 H 0.43121 0.51594 0.38647 0.0
C481 C 0.4709 0.50028 0.51563 0.0
C482 C 0.46611 0.49033 0.56998 0.0
C483 C 0.45962 0.49864 0.46224 0.0
C484 C 0.42561 0.5022 0.37321 0.0
H485 H 0.37401 0.45281 0.14367 0.0
H486 H 0.4005 0.45683 0.21551 0.0
H487 H 0.4088 0.51424 0.29995 0.0
H488 H 0.44615 0.47042 0.61045 0.0
H489 H 0.42657 0.46747 0.51763 0.0
H490 H 0.42672 0.45523 0.41192 0.0
C491 C 0.38929 0.46738 0.21511 0.0
C492 C 0.41261 0.50125 0.32397 0.0
C493 C 0.37412 0.46512 0.1737 0.0
C494 C 0.45019 0.47827 0.56927 0.0
C495 C 0.43902 0.47652 0.51591 0.0
C496 C 0.42296 0.46823 0.38788 0.0
C497 C 0.3897 0.48275 0.25669 0.0
C498 C 0.40453 0.48378 0.3063 0.0
C499 C 0.44342 0.48686 0.46189 0.0
C500 C 0.43075 0.48572 0.4064 0.0
H501 H 0.34834 0.50431 0.21282 0.0
H502 H 0.37483 0.50834 0.28467 0.0
H503 H 0.40401 0.45358 0.32685 0.0
H504 H 0.4831 0.50968 0.5148 0.0
H505 H 0.46354 0.50664 0.42128 0.0
C506 C 0.00993 0.36225 0.18326 0.0
C507 C 0.02551 0.34975 0.18541 0.0
C508 C 0.00772 0.3764 0.22856 0.0
C509 C 0.03562 0.40201 0.35072 0.0
H510 H 0.98596 0.41784 0.409 0.0
C511 C 0.02461 0.44516 0.57554 0.0
C512 C 0.01171 0.46038 0.57377 0.0
C513 C 0.02635 0.43283 0.52504 0.0
C514 C 0.99992 0.4137 0.3927 0.0
H515 H 0.05038 0.3416 0.23845 0.0
H516 H 0.04626 0.36558 0.31805 0.0
H517 H 0.98835 0.39364 0.32833 0.0
H518 H 0.99065 0.47483 0.51742 0.0
H519 H 0.99346 0.45305 0.42928 0.0
H520 H 0.04715 0.42164 0.41655 0.0
C521 C 0.0361 0.36515 0.28038 0.0
C522 C 1.00132 0.39984 0.34627 0.0
C523 C 0.03841 0.35125 0.23489 0.0
C524 C 1.00074 0.46322 0.52003 0.0
C525 C 1.00226 0.45069 0.46979 0.0
C526 C 0.03422 0.41565 0.39756 0.0
C527 C 0.02094 0.37821 0.27744 0.0
C528 C 0.01921 0.39361 0.32503 0.0
C529 C 0.01502 0.43529 0.47186 0.0
C530 C 0.01637 0.42155 0.41953 0.0
H531 H 0.9998 0.36147 0.14552 0.0
H532 H 0.99593 0.38621 0.22426 0.0
H533 H 0.04966 0.39808 0.33463 0.0
H534 H 0.03323 0.44263 0.61635 0.0
H535 H 0.03622 0.42105 0.52829 0.0
C536 C 0.86867 0.99781 0.19523 0.0
C537 C 0.84918 0.99533 0.1826 0.0
C538 C 0.88228 0.99535 0.1487 0.0
C539 C 0.89091 0.97513 0.99303 0.0
H540 H 0.92684 0.01667 0.97768 0.0
C541 C 0.93606 0.98706 0.77188 0.0
C542 C 0.95431 0.99494 0.77801 0.0
C543 C 0.92412 0.98522 0.82345 0.0
C544 C 0.9172 0.00473 0.98172 0.0
H545 H 0.82892 0.98741 0.11136 0.0
H546 H 0.85272 0.9828 0.03051 0.0
H547 H 0.90468 0.01609 0.06403 0.0
H548 H 0.97459 0.00663 0.84315 0.0
H549 H 0.95412 0.00284 0.93349 0.0
H550 H 0.90346 0.96373 0.91073 0.0
C551 C 0.85744 0.98667 0.07656 0.0
C552 C 0.90443 0.00444 0.03133 0.0
C553 C 0.84378 0.98926 0.12306 0.0
C554 C 0.9606 1.00049 0.837 0.0
C555 C 0.94875 0.99848 0.8887 0.0
C556 C 0.90383 0.97532 0.94361 0.0
C557 C 0.87679 0.99019 0.08843 0.0
C558 C 0.89102 0.98973 0.03735 0.0
C559 C 0.93022 0.99108 0.88256 0.0
C560 C 0.91706 0.99023 0.93691 0.0
H561 H 0.87341 1.0021 0.24086 0.0
H562 H 0.89712 0.99781 0.15966 0.0
H563 H 0.88088 0.9635 0.99672 0.0
H564 H 0.93082 0.9827 0.72691 0.0
H565 H 0.90991 0.97971 0.8165 0.0
C566 C 0.50088 0.87231 0.21395 0.0
C567 C 0.50488 0.85312 0.20085 0.0
C568 C 0.5034 0.8864 0.16876 0.0
C569 C 0.5268 0.89707 0.01885 0.0
H570 H 0.48435 0.9315 0.9949 0.0
C571 C 0.51777 0.94151 0.79524 0.0
C572 C 0.50911 0.95946 0.79874 0.0
C573 C 0.51899 0.92982 0.84762 0.0
C574 C 0.49652 0.92229 0.00146 0.0
H575 H 0.51524 0.83396 0.12979 0.0
H576 H 0.51997 0.85855 0.05167 0.0
H577 H 0.48384 0.90898 0.08064 0.0
H578 H 0.49543 0.97952 0.86026 0.0
H579 H 0.49803 0.95939 0.95229 0.0
H580 H 0.53952 0.91034 0.93973 0.0
C581 C 0.51493 0.86268 0.09709 0.0
C582 C 0.4962 0.90931 0.0507 0.0
C583 C 0.51227 0.84857 0.14212 0.0
C584 C 0.50217 0.96574 0.85615 0.0
C585 C 0.50351 0.95409 0.90877 0.0
C586 C 0.52721 0.91017 0.96988 0.0
C587 C 0.51014 0.88171 0.10942 0.0
C588 C 0.51121 0.89637 0.05956 0.0
C589 C 0.5117 0.93584 0.90507 0.0
C590 C 0.51195 0.9228 0.95993 0.0
H591 H 0.49551 0.87645 0.25895 0.0
H592 H 0.49988 0.90097 0.18009 0.0
H593 H 0.53871 0.88747 0.02487 0.0
H594 H 0.52321 0.93626 0.75156 0.0
H595 H 0.52513 0.9158 0.84244 0.0
C596 C 0.62798 0.50352 0.22385 0.0
C597 C 0.64718 0.50821 0.21328 0.0
C598 C 0.61428 0.50624 0.1776 0.0
C599 C 0.60441 0.53044 0.0279 0.0
H600 H 0.57221 0.48671 0.99746 0.0
C601 C 0.56319 0.52056 0.79812 0.0
C602 C 0.54566 0.51099 0.79893 0.0
C603 C 0.57412 0.52215 0.85208 0.0
C604 C 0.58078 0.49924 0.00579 0.0
H605 H 0.66672 0.52033 0.14619 0.0
H606 H 0.64277 0.52538 0.06606 0.0
H607 H 0.59366 0.48666 0.08591 0.0
H608 H 0.52553 0.4961 0.85737 0.0
H609 H 0.54428 0.49933 0.95208 0.0
H610 H 0.59158 0.54301 0.94765 0.0
C611 C 0.63833 0.51959 0.11028 0.0
C612 C 0.59314 0.49918 0.05663 0.0
C613 C 0.65207 0.51676 0.15644 0.0
C614 C 0.53899 0.50356 0.8553 0.0
C615 C 0.54986 0.50526 0.90947 0.0
C616 C 0.59192 0.53057 0.97725 0.0
C617 C 0.61936 0.51388 0.11966 0.0
C618 C 0.60528 0.51468 0.06797 0.0
C619 C 0.56774 0.51432 0.90846 0.0
C620 C 0.58009 0.51486 0.96496 0.0
H621 H 0.62361 0.49724 0.26742 0.0
H622 H 0.59973 0.50204 0.18681 0.0
H623 H 0.6134 0.54271 0.03571 0.0
H624 H 0.56873 0.52642 0.75533 0.0
H625 H 0.58788 0.529 0.84896 0.0
C626 C 0.98935 0.65738 0.1263 0.0
C627 C 0.99749 0.65218 0.18345 0.0
C628 C 0.98658 0.64388 0.07959 0.0
C629 C 0.98638 0.59152 0.04751 0.0
H630 H 0.99777 0.60821 0.88031 0.0
C631 C 1.00034 0.53992 0.8416 0.0
C632 C 0.99275 0.54506 0.78369 0.0
C633 C 0.999 0.55232 0.8922 0.0
C634 C 0.99431 0.60334 0.9266 0.0
H635 H 0.00807 0.62826 0.23701 0.0
H636 H 0.0039 0.60495 0.15516 0.0
H637 H 0.99866 0.63099 0.96471 0.0
H638 H 0.97724 0.56691 0.73392 0.0
H639 H 0.97495 0.58852 0.82185 0.0
H640 H 0.9826 0.56368 0.00894 0.0
C641 C 0.99944 0.61944 0.14645 0.0
C642 C 0.99475 0.61645 0.97517 0.0
C643 C 1.00206 0.63292 0.19333 0.0
C644 C 0.98333 0.56258 0.77786 0.0
C645 C 0.9821 0.57501 0.82818 0.0
C646 C 0.98611 0.57835 0.99884 0.0
C647 C 0.99201 0.62479 0.0884 0.0
C648 C 0.99081 0.61077 0.03643 0.0
C649 C 0.99017 0.57018 0.88574 0.0
C650 C 0.99008 0.58411 0.93777 0.0
H651 H 0.98577 0.67205 0.11651 0.0
H652 H 0.98044 0.64852 0.03609 0.0
H653 H 0.983 0.58661 0.09378 0.0
H654 H 0.00774 0.52652 0.84743 0.0
H655 H 0.00547 0.54821 0.93576 0.0
C656 C 0.06143 0.20369 0.13043 0.0
C657 C 0.06751 0.22008 0.16173 0.0
C658 C 0.05764 0.18699 0.16305 0.0
C659 C 0.04246 0.17226 0.31806 0.0
H660 H 0.04826 0.1216 0.25023 0.0
C661 C 0.01748 0.10459 0.44638 0.0
C662 C 0.00753 0.09122 0.41058 0.0
C663 C 0.02652 0.11998 0.41815 0.0
C664 C 0.04647 0.13569 0.26952 0.0
H665 H 0.07577 0.23147 0.25094 0.0
H666 H 0.06944 0.20211 0.3081 0.0
H667 H 0.06315 0.14857 0.19794 0.0
H668 H 0.99911 0.08348 0.31741 0.0
H669 H 0.01481 0.11055 0.26793 0.0
H670 H 0.02562 0.15938 0.38926 0.0
C671 C 0.06721 0.20232 0.25845 0.0
C672 C 0.05503 0.15111 0.23972 0.0
C673 C 0.07094 0.21908 0.22577 0.0
C674 C 0.00658 0.09366 0.34608 0.0
C675 C 0.01574 0.109 0.31778 0.0
C676 C 0.03401 0.15683 0.34802 0.0
C677 C 0.0599 0.1863 0.22771 0.0
C678 C 0.05285 0.16962 0.26309 0.0
C679 C 0.02589 0.12224 0.35353 0.0
C680 C 0.03568 0.13844 0.3235 0.0
H681 H 0.0583 0.20409 0.08128 0.0
H682 H 0.05179 0.17503 0.13797 0.0
H683 H 0.04018 0.18635 0.3367 0.0
H684 H 0.0183 0.10311 0.49628 0.0
H685 H 0.03429 0.12994 0.4468 0.0
C686 C 0.27612 0.00937 0.2892 0.0
C687 C 0.2664 0.02665 0.29597 0.0
C688 C 0.28729 1.00225 0.33718 0.0
C689 C 0.31673 0.01984 0.46116 0.0
H690 H 0.32619 0.96605 0.48609 0.0
C691 C 0.38699 0.99469 0.56596 0.0
C692 C 0.39624 0.98123 0.52846 0.0
C693 C 0.36756 0.99819 0.5589 0.0
C694 C 0.32363 0.98112 0.48008 0.0
H695 H 0.25974 0.04956 0.35914 0.0
H696 H 0.27965 0.03718 0.44365 0.0
H697 H 0.29698 0.97635 0.43466 0.0
H698 H 0.39217 0.9602 0.45645 0.0
H699 H 0.35838 0.96645 0.44344 0.0
H700 H 0.34383 0.02463 0.50291 0.0
C701 C 0.27859 0.02918 0.40098 0.0
C702 C 0.30692 0.98702 0.45079 0.0
C703 C 0.26721 0.03624 0.35288 0.0
C704 C 0.38544 0.97057 0.4863 0.0
C705 C 0.36603 0.9741 0.4791 0.0
C706 C 0.33343 0.01395 0.49044 0.0
C707 C 0.28906 0.01232 0.39301 0.0
C708 C 0.30376 0.00639 0.43833 0.0
C709 C 0.357 0.98834 0.51404 0.0
C710 C 0.33746 0.99449 0.49749 0.0
H711 H 0.27547 1.00157 0.24601 0.0
H712 H 0.29536 0.98938 0.32913 0.0
H713 H 0.31479 0.03486 0.45188 0.0
H714 H 0.39488 0.0029 0.59967 0.0
H715 H 0.36094 0.00906 0.58708 0.0
C716 C 0.45829 0.27973 0.25652 0.0
C717 C 0.45898 0.27925 0.19151 0.0
C718 C 0.46509 0.29556 0.28868 0.0
C719 C 0.47932 0.34598 0.26729 0.0
H720 H 0.51046 0.33674 0.41272 0.0
C721 C 0.52495 0.40486 0.37388 0.0
C722 C 0.52221 0.40759 0.43762 0.0
C723 C 0.51828 0.38838 0.34531 0.0
C724 C 0.50173 0.3395 0.37231 0.0
H725 H 0.46731 0.29497 0.10924 0.0
H726 H 0.47917 0.32238 0.16493 0.0
H727 H 0.49497 0.31007 0.36089 0.0
H728 H 0.51162 0.39482 0.52236 0.0
H729 H 0.50005 0.36591 0.4724 0.0
H730 H 0.48634 0.37535 0.27816 0.0
C731 C 0.47299 0.31081 0.19129 0.0
C732 C 0.49274 0.32428 0.3429 0.0
C733 C 0.46612 0.29509 0.15928 0.0
C734 C 0.51374 0.39308 0.47297 0.0
C735 C 0.50723 0.37653 0.44451 0.0
C736 C 0.48842 0.36113 0.29633 0.0
C737 C 0.47283 0.31113 0.25636 0.0
C738 C 0.4815 0.32735 0.28986 0.0
C739 C 0.50894 0.3743 0.38015 0.0
C740 C 0.49978 0.35803 0.3489 0.0
H741 H 0.45281 0.26773 0.28247 0.0
H742 H 0.46451 0.29551 0.33881 0.0
H743 H 0.47049 0.34889 0.22723 0.0
H744 H 0.53136 0.41588 0.34562 0.0
H745 H 0.51997 0.38686 0.29569 0.0
C746 C 0.24005 0.48818 0.37337 0.0
C747 C 0.2421 0.49755 0.31628 0.0
C748 C 0.22803 0.49557 0.41886 0.0
C749 C 0.19686 0.53721 0.45696 0.0
H750 H 0.16277 0.49768 0.51464 0.0
C751 C 0.11653 0.54611 0.48439 0.0
C752 C 0.10684 0.53516 0.52872 0.0
C753 C 0.13629 0.5449 0.47923 0.0
C754 C 0.17234 0.50894 0.50049 0.0
H755 H 0.23404 0.52244 0.26303 0.0
H756 H 0.21273 0.53504 0.34114 0.0
H757 H 0.19271 0.48898 0.46758 0.0
H758 H 0.11034 0.51578 0.60618 0.0
H759 H 0.14483 0.51364 0.59712 0.0
H760 H 0.17558 0.5571 0.48617 0.0
C761 C 0.22068 0.52227 0.35194 0.0
C762 C 0.18962 0.50394 0.47348 0.0
C763 C 0.23284 0.51499 0.30685 0.0
C764 C 0.1174 0.5241 0.57079 0.0
C765 C 0.13714 0.52292 0.56575 0.0
C766 C 0.17945 0.54222 0.48361 0.0
C767 C 0.21764 0.51234 0.40769 0.0
C768 C 0.20173 0.51797 0.44903 0.0
C769 C 0.1467 0.53273 0.51839 0.0
C770 C 0.16672 0.52807 0.5034 0.0
H771 H 0.2473 0.47485 0.38207 0.0
H772 H 0.2263 0.48776 0.46177 0.0
H773 H 0.20607 0.54838 0.43983 0.0
H774 H 0.10878 0.5547 0.45118 0.0
H775 H 0.14323 0.55247 0.4418 0.0
C776 C 0.06528 0.76723 0.08818 0.0
C777 C 0.05317 0.77032 0.13894 0.0
C778 C 0.06698 0.78108 0.04172 0.0
C779 C 0.04089 0.81908 0.96751 0.0
H780 H 0.08813 0.84687 0.9472 0.0
C781 C 0.04222 0.88845 0.8304 0.0
C782 C 0.049 0.90362 0.86659 0.0
C783 C 0.04618 0.86968 0.84715 0.0
C784 C 0.07493 0.83904 0.95165 0.0
H785 H 0.03304 0.78979 0.18064 0.0
H786 H 0.0357 0.81369 0.09906 0.0
H787 H 0.08764 0.8176 0.0093 0.0
H788 H 0.06624 0.91093 0.94646 0.0
H789 H 0.07322 0.87824 0.9753 0.0
H790 H 0.02786 0.84085 0.91303 0.0
C791 C 0.04403 0.80078 0.0955 0.0
C792 C 0.07469 0.8223 0.98673 0.0
C793 C 0.04264 0.78722 0.14227 0.0
C794 C 0.06092 0.89962 0.91726 0.0
C795 C 0.06497 0.88086 0.93375 0.0
C796 C 0.04115 0.83562 0.93191 0.0
C797 C 0.05617 0.79783 0.04491 0.0
C798 C 0.0575 0.81267 0.99685 0.0
C799 C 0.0571 0.86571 0.90011 0.0
C800 C 0.05801 0.84618 0.92567 0.0
H801 H 0.07346 0.75423 0.08479 0.0
H802 H 0.07647 0.77862 0.00302 0.0
H803 H 0.02748 0.81182 0.97484 0.0
H804 H 0.03336 0.89107 0.7902 0.0
H805 H 0.04011 0.85825 0.82003 0.0
C806 C 0.7153 0.06974 0.19283 0.0
C807 C 0.73383 0.06789 0.16911 0.0
C808 C 0.69997 0.0731 0.15325 0.0
C809 C 0.66962 0.08474 0.06089 0.0
H810 H 0.66926 0.04892 0.92462 0.0
C811 C 0.60261 0.07174 0.91137 0.0
C812 C 0.59785 0.05241 0.90493 0.0
C813 C 0.62048 0.07707 0.93391 0.0
C814 C 0.66919 0.05909 0.96221 0.0
H815 H 0.75096 0.06975 0.08574 0.0
H816 H 0.72405 0.07542 0.01637 0.0
H817 H 0.69837 0.05369 0.98386 0.0
H818 H 0.60827 0.02359 0.91673 0.0
H819 H 0.63938 0.03289 0.95522 0.0
H820 H 0.64012 0.08933 0.04122 0.0
C821 C 0.72143 0.07403 0.06562 0.0
C822 C 0.68592 0.062 0.99571 0.0
C823 C 0.73682 0.07075 0.10532 0.0
C824 C 0.61154 0.03859 0.92 0.0
C825 C 0.6294 0.04392 0.9421 0.0
C826 C 0.65289 0.08188 0.02719 0.0
C827 C 0.70279 0.07461 0.08899 0.0
C828 C 0.68615 0.0744 0.04667 0.0
C829 C 0.63399 0.0632 0.94999 0.0
C830 C 0.65236 0.06855 0.97883 0.0
H831 H 0.7124 0.06734 0.24149 0.0
H832 H 0.68577 0.07322 0.17267 0.0
H833 H 0.66943 0.09452 0.09956 0.0
H834 H 0.5925 0.08275 0.89923 0.0
H835 H 0.62369 0.09204 0.93904 0.0
C836 C 0.44459 0.73594 0.08611 0.0
C837 C 0.45741 0.73345 0.13541 0.0
C838 C 0.44343 0.72228 0.03912 0.0
C839 C 0.47025 0.6835 0.96643 0.0
H840 H 0.42171 0.65824 0.94397 0.0
C841 C 0.46576 0.61312 0.83524 0.0
C842 C 0.45691 0.59872 0.87017 0.0
C843 C 0.46333 0.63221 0.85099 0.0
C844 C 0.43531 0.6653 0.94917 0.0
H845 H 0.47952 0.71544 0.17351 0.0
H846 H 0.47771 0.69182 0.09139 0.0
H847 H 0.42329 0.68781 0.00333 0.0
H848 H 0.43785 0.59313 0.94706 0.0
H849 H 0.43362 0.62637 0.9745 0.0
H850 H 0.48252 0.66057 0.91565 0.0
C851 C 0.4685 0.70415 0.08895 0.0
C852 C 0.43617 0.68227 0.98263 0.0
C853 C 0.46941 0.71753 0.13618 0.0
C854 C 0.44473 0.60387 0.9189 0.0
C855 C 0.44226 0.62295 0.93451 0.0
C856 C 0.46938 0.66666 0.93268 0.0
C857 C 0.45542 0.70629 0.04029 0.0
C858 C 0.45378 0.69106 0.99363 0.0
C859 C 0.45195 0.63728 0.90181 0.0
C860 C 0.45202 0.65699 0.92581 0.0
H861 H 0.43524 0.74817 0.08476 0.0
H862 H 0.43321 0.72417 0.00205 0.0
H863 H 0.48397 0.69012 0.97399 0.0
H864 H 0.4749 0.60962 0.79653 0.0
H865 H 0.47079 0.64298 0.82453 0.0
C866 C 0.76924 0.46925 0.09572 0.0
C867 C 0.76247 0.45331 0.1281 0.0
C868 C 0.78395 0.46743 0.05294 0.0
C869 C 0.82476 0.43649 0.0209 0.0
H870 H 0.83163 0.47176 0.88433 0.0
C871 C 0.89534 0.44256 0.88524 0.0
C872 C 0.90271 0.46117 0.88536 0.0
C873 C 0.87649 0.43914 0.90251 0.0
C874 C 0.82981 0.46173 0.92203 0.0
H875 H 0.76497 0.42279 0.13865 0.0
H876 H 0.79054 0.41947 0.0626 0.0
H877 H 0.80066 0.46939 0.93487 0.0
H878 H 0.89582 0.49076 0.90312 0.0
H879 H 0.8629 0.48478 0.93152 0.0
H880 H 0.85405 0.42911 0.00845 0.0
C881 C 0.78473 0.43347 0.07133 0.0
C882 C 0.81214 0.46041 0.95117 0.0
C883 C 0.77009 0.43533 0.11471 0.0
C884 C 0.8906 0.4763 0.90138 0.0
C885 C 0.87172 0.4729 0.91773 0.0
C886 C 0.84235 0.43763 0.99118 0.0
C887 C 0.79217 0.44958 0.04112 0.0
C888 C 0.80961 0.44831 0.0025 0.0
C889 C 0.86458 0.45428 0.91924 0.0
C890 C 0.84519 0.45074 0.94296 0.0
H891 H 0.76386 0.48334 0.10581 0.0
H892 H 0.78952 0.48023 0.03169 0.0
H893 H 0.82344 0.42718 0.06066 0.0
H894 H 0.90412 0.43061 0.87194 0.0
H895 H 0.87124 0.42467 0.90309 0.0
C896 C 0.01286 0.20036 0.94207 0.0
C897 C 0.01012 0.21579 0.90136 0.0
C898 C 0.01095 0.18159 0.92139 0.0
C899 C 0.01257 0.15252 0.77825 0.0
H900 H 0.99075 0.11357 0.88373 0.0
C901 C 1.00073 0.07487 0.69393 0.0
C902 C 0.00395 0.06009 0.73678 0.0
C903 C 1.00108 0.09394 0.71279 0.0
C904 C 0.9971 0.1242 0.85385 0.0
H905 H 1.00256 0.22334 0.80703 0.0
H906 H 0.9992 0.19063 0.77104 0.0
H907 H 0.99138 0.14645 0.91883 0.0
H908 H 0.01042 0.05399 0.83306 0.0
H909 H 0.01132 0.08708 0.86557 0.0
H910 H 0.01843 0.13024 0.71347 0.0
C911 C 0.00312 0.19307 0.81889 0.0
C912 C 0.99743 0.14312 0.87402 0.0
C913 C 0.005 0.21187 0.83961 0.0
C914 C 0.0078 0.06493 0.79873 0.0
C915 C 0.00816 0.08397 0.81755 0.0
C916 C 0.01227 0.13358 0.75809 0.0
C917 C 0.00629 0.17765 0.85931 0.0
C918 C 0.00526 0.15756 0.8367 0.0
C919 C 0.00466 0.09878 0.77502 0.0
C920 C 0.00464 0.1191 0.79577 0.0
H921 H 0.01723 0.20271 0.98955 0.0
H922 H 0.01378 0.17014 0.95374 0.0
H923 H 0.01898 0.16316 0.74853 0.0
H924 H 0.99768 0.07172 0.64584 0.0
H925 H 0.99814 0.10488 0.67872 0.0
C926 C 0.29236 0.01183 0.86649 0.0
C927 C 0.28852 0.0275 0.90489 0.0
C928 C 0.31091 0.00846 0.84474 0.0
C929 C 0.36088 0.01733 0.88486 0.0
H930 H 0.37208 0.00961 0.71094 0.0
C931 C 0.43808 0.01983 0.79578 0.0
C932 C 0.44342 0.00806 0.74631 0.0
C933 C 0.41898 0.02142 0.81336 0.0
C934 C 0.36924 0.01143 0.75986 0.0
H935 H 0.30124 0.0516 0.95163 0.0
H936 H 0.3334 0.04561 0.91454 0.0
H937 H 0.33905 0.01307 0.74471 0.0
H938 H 0.43282 0.98855 0.67678 0.0
H939 H 0.39965 0.99067 0.70903 0.0
H940 H 0.39078 0.01533 0.9009 0.0
C941 C 0.32211 0.03604 0.90063 0.0
C942 C 0.35027 0.01346 0.7791 0.0
C943 C 0.30364 0.03957 0.92141 0.0
C944 C 0.42918 0.99789 0.71479 0.0
C945 C 0.41009 0.99921 0.7331 0.0
C946 C 0.37976 0.01505 0.86589 0.0
C947 C 0.32602 0.02044 0.8622 0.0
C948 C 0.34592 0.01675 0.84171 0.0
C949 C 0.40468 0.01099 0.78274 0.0
C950 C 0.38431 0.0124 0.80296 0.0
H951 H 0.28102 1.00227 0.85307 0.0
H952 H 0.31352 0.99627 0.81537 0.0
H953 H 0.35796 0.01954 0.93359 0.0
H954 H 0.44866 0.028 0.82067 0.0
H955 H 0.41546 0.031 0.85079 0.0
C956 C 0.49038 0.28981 0.82474 0.0
C957 C 0.49352 0.28457 0.887 0.0
C958 C 0.49217 0.30877 0.80535 0.0
C959 C 0.49434 0.35834 0.86974 0.0
H960 H 0.50659 0.37119 0.69984 0.0
C961 C 0.48872 0.43599 0.78343 0.0
C962 C 0.50114 0.44234 0.73682 0.0
C963 C 0.4879 0.41672 0.79972 0.0
C964 C 0.50341 0.36799 0.74779 0.0
H965 H 0.50164 0.29576 0.97701 0.0
H966 H 0.50618 0.32811 0.94251 0.0
H967 H 0.50667 0.33817 0.73219 0.0
H968 H 0.52248 0.43333 0.67069 0.0
H969 H 0.52181 0.4 0.70093 0.0
H970 H 0.49221 0.38814 0.88643 0.0
C971 C 0.50152 0.31774 0.90881 0.0
C972 C 0.50311 0.34885 0.76624 0.0
C973 C 0.49933 0.29888 0.92849 0.0
C974 C 0.51268 0.42892 0.70669 0.0
C975 C 0.51217 0.40968 0.72386 0.0
C976 C 0.49503 0.37746 0.85165 0.0
C977 C 0.49754 0.32314 0.84723 0.0
C978 C 0.49846 0.34366 0.82751 0.0
C979 C 0.49979 0.40322 0.77086 0.0
C980 C 0.4994 0.38266 0.79021 0.0
H981 H 0.48626 0.27931 0.79072 0.0
H982 H 0.48879 0.31214 0.75766 0.0
H983 H 0.49031 0.35517 0.91701 0.0
H984 H 0.47945 0.4459 0.80707 0.0
H985 H 0.47776 0.41245 0.8348 0.0
C986 C 0.19985 0.4678 0.92338 0.0
C987 C 0.21391 0.48189 0.91699 0.0
C988 C 0.18151 0.47059 0.8999 0.0
C989 C 0.15307 0.49647 0.78526 0.0
H990 H 0.11128 0.48607 0.89738 0.0
C991 C 0.07402 0.50966 0.71475 0.0
C992 C 0.06007 0.49754 0.73971 0.0
C993 C 0.09296 0.50867 0.73535 0.0
C994 C 0.12268 0.48874 0.86481 0.0
H995 H 0.21971 0.5099 0.87965 0.0
H996 H 0.18757 0.51463 0.83711 0.0
H997 H 0.14385 0.48246 0.93333 0.0
H998 H 0.05525 0.47441 0.80418 0.0
H999 H 0.08818 0.47194 0.83748 0.0
H1000 H 0.13196 0.50213 0.71595 0.0
C1001 C 0.19086 0.50145 0.86079 0.0
C1002 C 0.14142 0.48679 0.88577 0.0
C1003 C 0.20921 0.49878 0.88535 0.0
C1004 C 0.06558 0.48412 0.78453 0.0
C1005 C 0.08454 0.48283 0.80404 0.0
C1006 C 0.13426 0.49814 0.76384 0.0
C1007 C 0.17672 0.48747 0.86864 0.0
C1008 C 0.15685 0.49048 0.84623 0.0
C1009 C 0.09854 0.49523 0.7804 0.0
C1010 C 0.11873 0.49413 0.80319 0.0
H1011 H 0.20286 0.45474 0.9482 0.0
H1012 H 0.171 0.45951 0.90636 0.0
H1013 H 0.16468 0.49932 0.75357 0.0
H1014 H 0.07023 0.52027 0.68043 0.0
H1015 H 0.1031 0.51875 0.71684 0.0
C1016 C 0.99448 0.80488 0.41077 0.0
C1017 C 0.99494 0.7896 0.45307 0.0
C1018 C 0.99274 0.82365 0.43132 0.0
C1019 C 0.98128 0.85336 0.57078 0.0
H1020 H 0.00882 0.89185 0.47846 0.0
C1021 C 0.99506 0.93017 0.66134 0.0
C1022 C 0.99195 0.94508 0.61892 0.0
C1023 C 0.9944 0.91116 0.64203 0.0
C1024 C 1.00092 0.8813 0.50448 0.0
H1025 H 0.99308 0.78249 0.55082 0.0
H1026 H 0.99101 0.81513 0.58665 0.0
H1027 H 0.00951 0.85902 0.44364 0.0
H1028 H 0.98563 0.95156 0.52277 0.0
H1029 H 0.98476 0.91848 0.48909 0.0
H1030 H 0.9733 0.87581 0.6328 0.0
C1031 C 0.99164 0.8126 0.53726 0.0
C1032 C 1.0012 0.86241 0.48433 0.0
C1033 C 0.99311 0.79376 0.51662 0.0
C1034 C 0.98806 0.94049 0.55679 0.0
C1035 C 0.98767 0.92151 0.53735 0.0
C1036 C 0.98124 0.87226 0.59143 0.0
C1037 C 0.99171 0.82788 0.49496 0.0
C1038 C 0.99129 0.84811 0.51688 0.0
C1039 C 0.99088 0.90662 0.57965 0.0
C1040 C 0.99098 0.88647 0.55831 0.0
H1041 H 0.99612 0.80249 0.36155 0.0
H1042 H 0.99239 0.83488 0.39695 0.0
H1043 H 0.97322 0.84294 0.59678 0.0
H1044 H 0.99806 0.93315 0.70952 0.0
H1045 H 0.99707 0.90003 0.67568 0.0
C1046 C 0.70792 0.00623 0.51022 0.0
C1047 C 0.71373 0.99523 0.45922 0.0
C1048 C 0.68933 0.00508 0.53287 0.0
C1049 C 0.64505 0.97607 0.52948 0.0
H1050 H 0.62152 0.02378 0.57622 0.0
C1051 C 0.56406 0.98379 0.57894 0.0
C1052 C 0.55871 0.99546 0.62883 0.0
C1053 C 0.58307 0.98289 0.55955 0.0
C1054 C 0.62791 0.01029 0.56409 0.0
H1055 H 0.70445 0.97379 0.39377 0.0
H1056 H 0.67186 0.97213 0.43241 0.0
H1057 H 0.65434 0.0235 0.54078 0.0
H1058 H 0.56929 0.0154 0.69715 0.0
H1059 H 0.60232 0.01366 0.66399 0.0
H1060 H 0.6184 0.96295 0.55227 0.0
C1061 C 0.68181 0.98154 0.45526 0.0
C1062 C 0.6468 0.01011 0.5438 0.0
C1063 C 0.70049 0.98264 0.43266 0.0
C1064 C 0.57286 0.00613 0.65898 0.0
C1065 C 0.59182 0.00528 0.6395 0.0
C1066 C 0.62609 0.97627 0.54965 0.0
C1067 C 0.67589 0.99301 0.505 0.0
C1068 C 0.65568 0.993 0.52648 0.0
C1069 C 0.59717 0.99373 0.58932 0.0
C1070 C 0.61731 0.99338 0.56746 0.0
H1071 H 0.71752 0.01631 0.53152 0.0
H1072 H 0.68543 0.01389 0.57194 0.0
H1073 H 0.65146 0.96261 0.51716 0.0
H1074 H 0.55356 0.97537 0.55461 0.0
H1075 H 0.58664 0.974 0.52037 0.0
C1076 C 0.50956 0.70038 0.43176 0.0
C1077 C 0.50698 0.71543 0.47386 0.0
C1078 C 0.51122 0.6816 0.45248 0.0
C1079 C 0.51865 0.65155 0.59416 0.0
H1080 H 0.49541 0.61291 0.49109 0.0
C1081 C 0.50538 0.57339 0.6745 0.0
C1082 C 0.51025 0.55908 0.6319 0.0
C1083 C 0.50578 0.5926 0.65712 0.0
C1084 C 0.5021 0.6235 0.52019 0.0
H1085 H 0.50496 0.72218 0.57172 0.0
H1086 H 0.50696 0.68943 0.60755 0.0
H1087 H 0.49479 0.64594 0.45781 0.0
H1088 H 0.51946 0.55389 0.53751 0.0
H1089 H 0.51994 0.58729 0.50717 0.0
H1090 H 0.5254 0.6289 0.65739 0.0
C1091 C 0.50803 0.6922 0.55832 0.0
C1092 C 0.50186 0.6425 0.50097 0.0
C1093 C 0.50663 0.71106 0.5376 0.0
C1094 C 0.51564 0.56448 0.57162 0.0
C1095 C 0.51581 0.58364 0.55406 0.0
C1096 C 0.51867 0.63252 0.61377 0.0
C1097 C 0.51004 0.67713 0.51597 0.0
C1098 C 0.51027 0.65683 0.53732 0.0
C1099 C 0.51082 0.59794 0.59646 0.0
C1100 C 0.51052 0.61826 0.57675 0.0
H1101 H 0.50964 0.70293 0.38229 0.0
H1102 H 0.51321 0.67054 0.41831 0.0
H1103 H 0.52548 0.66204 0.62322 0.0
H1104 H 0.50122 0.56977 0.7213 0.0
H1105 H 0.50174 0.60326 0.69076 0.0
C1106 C 0.79731 0.5184 0.46591 0.0
C1107 C 0.78832 0.50055 0.46572 0.0
C1108 C 0.81634 0.52015 0.48505 0.0
C1109 C 0.86082 0.49319 0.49523 0.0
H1110 H 0.87656 0.52995 0.61863 0.0
C1111 C 0.94005 0.50759 0.5539 0.0
C1112 C 0.94476 0.50715 0.61723 0.0
C1113 C 0.92099 0.50771 0.53481 0.0
C1114 C 0.87236 0.51963 0.58408 0.0
H1115 H 0.79235 0.47052 0.48436 0.0
H1116 H 0.82551 0.47354 0.51658 0.0
H1117 H 0.84312 0.52853 0.58617 0.0
H1118 H 0.93304 0.50713 0.71005 0.0
H1119 H 0.89979 0.50761 0.67676 0.0
H1120 H 0.89 0.48434 0.49271 0.0
C1121 C 0.81783 0.48621 0.50267 0.0
C1122 C 0.85326 0.51891 0.56524 0.0
C1123 C 0.79879 0.48451 0.48472 0.0
C1124 C 0.92994 0.50727 0.66099 0.0
C1125 C 0.91088 0.50771 0.64191 0.0
C1126 C 0.87994 0.49414 0.51319 0.0
C1127 C 0.82685 0.50402 0.50297 0.0
C1128 C 0.84725 0.50553 0.52107 0.0
C1129 C 0.90618 0.50773 0.57859 0.0
C1130 C 0.88592 0.50725 0.55821 0.0
H1131 H 0.78962 0.53099 0.45148 0.0
H1132 H 0.82296 0.53405 0.48458 0.0
H1133 H 0.85664 0.4828 0.46086 0.0
H1134 H 0.95109 0.50747 0.51893 0.0
H1135 H 0.91782 0.50784 0.48569 0.0
loop_
_geom_bond_atom_site_label_1
_geom_bond_atom_site_label_2
_geom_bond_distance
_geom_bond_site_symmetry_2
_ccdc_geom_bond_type
P0 O11 1.490 . S
P0 C14 1.812 . S
P0 C20 1.803 . S
P0 C26 1.819 . S
H1 C15 0.941 . S
H2 C16 0.939 . S
H3 C18 0.940 . S
H4 C19 0.940 . S
H5 C21 0.939 . S
H6 C22 0.942 . S
H7 C24 0.940 . S
H8 C25 0.939 . S
H9 C27 0.941 . S
H10 C31 0.939 . S
O11 P0 1.490 . S
H12 C28 0.939 . S
H13 C30 0.940 . S
C14 P0 1.812 . S
C14 C15 1.389 . S
C14 C19 1.391 . S
C15 H1 0.941 . S
C15 C14 1.389 . S
C15 C16 1.397 . S
C16 H2 0.939 . S
C16 C15 1.397 . S
C16 C17 1.378 . S
C17 C16 1.378 . S
C17 C18 1.378 . S
C18 H3 0.940 . S
C18 C17 1.378 . S
C18 C19 1.396 . S
C19 H4 0.940 . S
C19 C14 1.391 . S
C19 C18 1.396 . S
C20 P0 1.803 . S
C20 C21 1.378 . S
C20 C25 1.400 . S
C21 H5 0.939 . S
C21 C20 1.378 . S
C21 C22 1.361 . S
C22 H6 0.942 . S
C22 C21 1.361 . S
C22 C23 1.369 . S
C23 C22 1.369 . S
C23 C24 1.404 . S
C24 H7 0.940 . S
C24 C23 1.404 . S
C24 C25 1.389 . S
C25 H8 0.939 . S
C25 C20 1.400 . S
C25 C24 1.389 . S
C26 P0 1.819 . S
C26 C27 1.391 . S
C26 C31 1.391 . S
C27 H9 0.941 . S
C27 C26 1.391 . S
C27 C28 1.396 . S
C28 H12 0.939 . S
C28 C27 1.396 . S
C28 C29 1.397 . S
C29 C28 1.397 . S
C29 C30 1.385 . S
C30 H13 0.940 . S
C30 C29 1.385 . S
C30 C31 1.388 . S
C31 H10 0.939 . S
C31 C26 1.391 . S
C31 C30 1.388 . S
P32 O43 1.490 . S
P32 C46 1.812 . S
P32 C52 1.803 . S
P32 C58 1.819 . S
H33 C47 0.941 . S
H34 C48 0.939 . S
H35 C50 0.940 . S
H36 C51 0.950 . S
H37 C53 0.939 . S
H38 C54 0.942 . S
H39 C56 0.940 . S
H40 C57 0.959 . S
H41 C59 0.941 . S
H42 C63 0.929 1_655 S
O43 P32 1.490 . S
H44 C60 0.939 . S
H45 C62 0.940 . S
C46 P32 1.812 . S
C46 C47 1.389 . S
C46 C51 1.375 1_455 S
C47 H33 0.941 . S
C47 C46 1.389 . S
C47 C48 1.397 . S
C48 H34 0.939 . S
C48 C47 1.397 . S
C48 C49 1.378 . S
C49 C48 1.378 . S
C49 C50 1.378 1_455 S
C50 H35 0.940 . S
C50 C49 1.378 1_655 S
C50 C51 1.403 . S
C51 H36 0.950 . S
C51 C46 1.375 1_655 S
C51 C50 1.403 . S
C52 P32 1.803 . S
C52 C53 1.378 . S
C52 C57 1.368 1_455 S
C53 H37 0.939 . S
C53 C52 1.378 . S
C53 C54 1.361 . S
C54 H38 0.942 . S
C54 C53 1.361 . S
C54 C55 1.369 . S
C55 C54 1.369 . S
C55 C56 1.404 1_455 S
C56 H39 0.940 . S
C56 C55 1.404 1_655 S
C56 C57 1.402 . S
C57 H40 0.959 . S
C57 C52 1.368 1_655 S
C57 C56 1.402 . S
C58 P32 1.819 . S
C58 C59 1.391 . S
C58 C63 1.391 . S
C59 H41 0.941 . S
C59 C58 1.391 . S
C59 C60 1.396 . S
C60 H44 0.939 . S
C60 C59 1.396 . S
C60 C61 1.397 . S
C61 C60 1.397 . S
C61 C62 1.385 1_455 S
C62 H45 0.940 . S
C62 C61 1.385 1_655 S
C62 C63 1.388 1_655 S
C63 H42 0.929 1_455 S
C63 C58 1.391 . S
C63 C62 1.388 1_455 S
P64 O75 1.490 . S
P64 C78 1.812 . S
P64 C84 1.803 . S
P64 C90 1.819 . S
H65 C79 0.941 . S
H66 C80 0.939 . S
H67 C82 0.940 . S
H68 C83 0.950 . S
H69 C85 0.939 . S
H70 C86 0.942 . S
H71 C88 0.940 . S
H72 C89 0.959 . S
H73 C91 0.941 . S
H74 C95 0.929 1_565 S
O75 P64 1.490 . S
H76 C92 0.939 . S
H77 C94 0.940 . S
C78 P64 1.812 . S
C78 C79 1.389 . S
C78 C83 1.375 1_545 S
C79 H65 0.941 . S
C79 C78 1.389 . S
C79 C80 1.397 . S
C80 H66 0.939 . S
C80 C79 1.397 . S
C80 C81 1.378 . S
C81 C80 1.378 . S
C81 C82 1.378 1_545 S
C82 H67 0.940 . S
C82 C81 1.378 1_565 S
C82 C83 1.403 . S
C83 H68 0.950 . S
C83 C78 1.375 1_565 S
C83 C82 1.403 . S
C84 P64 1.803 . S
C84 C85 1.378 . S
C84 C89 1.368 1_545 S
C85 H69 0.939 . S
C85 C84 1.378 . S
C85 C86 1.361 . S
C86 H70 0.942 . S
C86 C85 1.361 . S
C86 C87 1.369 . S
C87 C86 1.369 . S
C87 C88 1.404 1_545 S
C88 H71 0.940 . S
C88 C87 1.404 1_565 S
C88 C89 1.402 . S
C89 H72 0.959 . S
C89 C84 1.368 1_565 S
C89 C88 1.402 . S
C90 P64 1.819 . S
C90 C91 1.391 . S
C90 C95 1.391 . S
C91 H73 0.941 . S
C91 C90 1.391 . S
C91 C92 1.396 . S
C92 H76 0.939 . S
C92 C91 1.396 . S
C92 C93 1.397 . S
C93 C92 1.397 . S
C93 C94 1.385 1_545 S
C94 H77 0.940 . S
C94 C93 1.385 1_565 S
C94 C95 1.388 1_565 S
C95 H74 0.929 1_545 S
C95 C90 1.391 . S
C95 C94 1.388 1_545 S
P96 O107 1.490 . S
P96 C110 1.812 . S
P96 C116 1.803 . S
P96 C122 1.819 . S
H97 C111 0.941 . S
H98 C112 0.939 . S
H99 C114 0.940 . S
H100 C115 0.940 . S
H101 C117 0.939 . S
H102 C118 0.942 . S
H103 C120 0.940 . S
H104 C121 0.939 . S
H105 C123 0.941 . S
H106 C127 0.939 . S
O107 P96 1.490 . S
H108 C124 0.939 . S
H109 C126 0.940 . S
C110 P96 1.812 . S
C110 C111 1.389 . S
C110 C115 1.391 . S
C111 H97 0.941 . S
C111 C110 1.389 . S
C111 C112 1.397 . S
C112 H98 0.939 . S
C112 C111 1.397 . S
C112 C113 1.378 . S
C113 C112 1.378 . S
C113 C114 1.378 . S
C114 H99 0.940 . S
C114 C113 1.378 . S
C114 C115 1.396 . S
C115 H100 0.940 . S
C115 C110 1.391 . S
C115 C114 1.396 . S
C116 P96 1.803 . S
C116 C117 1.378 . S
C116 C121 1.400 . S
C117 H101 0.939 . S
C117 C116 1.378 . S
C117 C118 1.361 . S
C118 H102 0.942 . S
C118 C117 1.361 . S
C118 C119 1.369 . S
C119 C118 1.369 . S
C119 C120 1.404 . S
C120 H103 0.940 . S
C120 C119 1.404 . S
C120 C121 1.389 . S
C121 H104 0.939 . S
C121 C116 1.400 . S
C121 C120 1.389 . S
C122 P96 1.819 . S
C122 C123 1.391 . S
C122 C127 1.391 . S
C123 H105 0.941 . S
C123 C122 1.391 . S
C123 C124 1.396 . S
C124 H108 0.939 . S
C124 C123 1.396 . S
C124 C125 1.397 . S
C125 C124 1.397 . S
C125 C126 1.385 . S
C126 H109 0.940 . S
C126 C125 1.385 . S
C126 C127 1.388 . S
C127 H106 0.939 . S
C127 C122 1.391 . S
C127 C126 1.388 . S
P128 O139 1.490 . S
P128 C142 1.812 1_554 S
P128 C148 1.803 . S
P128 C154 1.819 . S
H129 C143 0.941 . S
H130 C144 0.939 . S
H131 C146 0.940 . S
H132 C147 0.940 1_554 S
H133 C149 0.939 . S
H134 C150 0.942 . S
H135 C152 0.940 . S
H136 C153 0.939 . S
H137 C155 0.941 . S
H138 C159 0.939 . S
O139 P128 1.490 . S
H140 C156 0.939 . S
H141 C158 0.940 . S
C142 P128 1.812 1_556 S
C142 C143 1.389 . S
C142 C147 1.391 . S
C143 H129 0.941 . S
C143 C142 1.389 . S
C143 C144 1.397 . S
C144 H130 0.939 . S
C144 C143 1.397 . S
C144 C145 1.378 . S
C145 C144 1.378 . S
C145 C146 1.378 . S
C146 H131 0.940 . S
C146 C145 1.378 . S
C146 C147 1.396 . S
C147 H132 0.940 1_556 S
C147 C142 1.391 . S
C147 C146 1.396 . S
C148 P128 1.803 . S
C148 C149 1.378 . S
C148 C153 1.400 . S
C149 H133 0.939 . S
C149 C148 1.378 . S
C149 C150 1.361 . S
C150 H134 0.942 . S
C150 C149 1.361 . S
C150 C151 1.369 . S
C151 C150 1.369 . S
C151 C152 1.404 . S
C152 H135 0.940 . S
C152 C151 1.404 . S
C152 C153 1.389 . S
C153 H136 0.939 . S
C153 C148 1.400 . S
C153 C152 1.389 . S
C154 P128 1.819 . S
C154 C155 1.391 . S
C154 C159 1.391 . S
C155 H137 0.941 . S
C155 C154 1.391 . S
C155 C156 1.396 . S
C156 H140 0.939 . S
C156 C155 1.396 . S
C156 C157 1.397 . S
C157 C156 1.397 . S
C157 C158 1.385 . S
C158 H141 0.940 . S
C158 C157 1.385 . S
C158 C159 1.388 . S
C159 H138 0.939 . S
C159 C154 1.391 . S
C159 C158 1.388 . S
P160 O171 1.490 . S
P160 C174 1.812 1_554 S
P160 C180 1.803 . S
P160 C186 1.819 . S
H161 C175 0.941 . S
H162 C176 0.939 . S
H163 C178 0.940 . S
H164 C179 0.942 1_554 S
H165 C181 0.939 . S
H166 C182 0.942 . S
H167 C184 0.940 . S
H168 C185 0.951 . S
H169 C187 0.941 . S
H170 C191 0.934 1_655 S
O171 P160 1.490 . S
H172 C188 0.939 . S
H173 C190 0.940 . S
C174 P160 1.812 1_556 S
C174 C175 1.389 . S
C174 C179 1.388 1_455 S
C175 H161 0.941 . S
C175 C174 1.389 . S
C175 C176 1.397 . S
C176 H162 0.939 . S
C176 C175 1.397 . S
C176 C177 1.378 . S
C177 C176 1.378 . S
C177 C178 1.378 1_455 S
C178 H163 0.940 . S
C178 C177 1.378 1_655 S
C178 C179 1.398 . S
C179 H164 0.942 1_556 S
C179 C174 1.388 1_655 S
C179 C178 1.398 . S
C180 P160 1.803 . S
C180 C181 1.378 . S
C180 C185 1.381 1_455 S
C181 H165 0.939 . S
C181 C180 1.378 . S
C181 C182 1.361 . S
C182 H166 0.942 . S
C182 C181 1.361 . S
C182 C183 1.369 . S
C183 C182 1.369 . S
C183 C184 1.404 1_455 S
C184 H167 0.940 . S
C184 C183 1.404 1_655 S
C184 C185 1.396 . S
C185 H168 0.951 . S
C185 C180 1.381 1_655 S
C185 C184 1.396 . S
C186 P160 1.819 . S
C186 C187 1.391 . S
C186 C191 1.391 . S
C187 H169 0.941 . S
C187 C186 1.391 . S
C187 C188 1.396 . S
C188 H172 0.939 . S
C188 C187 1.396 . S
C188 C189 1.397 . S
C189 C188 1.397 . S
C189 C190 1.385 1_455 S
C190 H173 0.940 . S
C190 C189 1.385 1_655 S
C190 C191 1.388 1_655 S
C191 H170 0.934 1_455 S
C191 C186 1.391 . S
C191 C190 1.388 1_455 S
P192 O203 1.490 . S
P192 C206 1.812 1_554 S
P192 C212 1.803 . S
P192 C218 1.819 . S
H193 C207 0.941 . S
H194 C208 0.939 . S
H195 C210 0.940 . S
H196 C211 0.942 1_554 S
H197 C213 0.939 . S
H198 C214 0.942 . S
H199 C216 0.940 . S
H200 C217 0.951 . S
H201 C219 0.941 . S
H202 C223 0.934 1_565 S
O203 P192 1.490 . S
H204 C220 0.939 . S
H205 C222 0.940 . S
C206 P192 1.812 1_556 S
C206 C207 1.389 . S
C206 C211 1.388 1_545 S
C207 H193 0.941 . S
C207 C206 1.389 . S
C207 C208 1.397 . S
C208 H194 0.939 . S
C208 C207 1.397 . S
C208 C209 1.378 . S
C209 C208 1.378 . S
C209 C210 1.378 1_545 S
C210 H195 0.940 . S
C210 C209 1.378 1_565 S
C210 C211 1.398 . S
C211 H196 0.942 1_556 S
C211 C206 1.388 1_565 S
C211 C210 1.398 . S
C212 P192 1.803 . S
C212 C213 1.378 . S
C212 C217 1.381 1_545 S
C213 H197 0.939 . S
C213 C212 1.378 . S
C213 C214 1.361 . S
C214 H198 0.942 . S
C214 C213 1.361 . S
C214 C215 1.369 . S
C215 C214 1.369 . S
C215 C216 1.404 1_545 S
C216 H199 0.940 . S
C216 C215 1.404 1_565 S
C216 C217 1.396 . S
C217 H200 0.951 . S
C217 C212 1.381 1_565 S
C217 C216 1.396 . S
C218 P192 1.819 . S
C218 C219 1.391 . S
C218 C223 1.391 . S
C219 H201 0.941 . S
C219 C218 1.391 . S
C219 C220 1.396 . S
C220 H204 0.939 . S
C220 C219 1.396 . S
C220 C221 1.397 . S
C221 C220 1.397 . S
C221 C222 1.385 1_545 S
C222 H205 0.940 . S
C222 C221 1.385 1_565 S
C222 C223 1.388 1_565 S
C223 H202 0.934 1_545 S
C223 C218 1.391 . S
C223 C222 1.388 1_545 S
P224 O235 1.490 . S
P224 C238 1.812 1_554 S
P224 C244 1.803 . S
P224 C250 1.819 . S
H225 C239 0.941 . S
H226 C240 0.939 . S
H227 C242 0.940 . S
H228 C243 0.940 1_554 S
H229 C245 0.939 . S
H230 C246 0.942 . S
H231 C248 0.940 . S
H232 C249 0.939 . S
H233 C251 0.941 . S
H234 C255 0.939 . S
O235 P224 1.490 . S
H236 C252 0.939 . S
H237 C254 0.940 . S
C238 P224 1.812 1_556 S
C238 C239 1.389 . S
C238 C243 1.391 . S
C239 H225 0.941 . S
C239 C238 1.389 . S
C239 C240 1.397 . S
C240 H226 0.939 . S
C240 C239 1.397 . S
C240 C241 1.378 . S
C241 C240 1.378 . S
C241 C242 1.378 . S
C242 H227 0.940 . S
C242 C241 1.378 . S
C242 C243 1.396 . S
C243 H228 0.940 1_556 S
C243 C238 1.391 . S
C243 C242 1.396 . S
C244 P224 1.803 . S
C244 C245 1.378 . S
C244 C249 1.400 . S
C245 H229 0.939 . S
C245 C244 1.378 . S
C245 C246 1.361 . S
C246 H230 0.942 . S
C246 C245 1.361 . S
C246 C247 1.369 . S
C247 C246 1.369 . S
C247 C248 1.404 . S
C248 H231 0.940 . S
C248 C247 1.404 . S
C248 C249 1.389 . S
C249 H232 0.939 . S
C249 C244 1.400 . S
C249 C248 1.389 . S
C250 P224 1.819 . S
C250 C251 1.391 . S
C250 C255 1.391 . S
C251 H233 0.941 . S
C251 C250 1.391 . S
C251 C252 1.396 . S
C252 H236 0.939 . S
C252 C251 1.396 . S
C252 C253 1.397 . S
C253 C252 1.397 . S
C253 C254 1.385 . S
C254 H237 0.940 . S
C254 C253 1.385 . S
C254 C255 1.388 . S
C255 H234 0.939 . S
C255 C250 1.391 . S
C255 C254 1.388 . S
Tb256 C258 2.809 . S
Tb256 O276 2.484 . S
Tb256 O277 2.440 . S
Tb256 O278 2.658 1_565 S
Tb256 O279 2.409 . S
Tb256 O280 2.378 . S
Tb256 O284 2.325 1_455 S
Tb256 O287 2.341 1_565 S
Tb257 C267 2.809 . S
Tb257 O278 2.325 1_655 S
Tb257 O281 2.341 1_545 S
Tb257 O282 2.484 . S
Tb257 O283 2.440 . S
Tb257 O284 2.658 1_545 S
Tb257 O285 2.409 . S
Tb257 O286 2.378 . S
C258 Tb256 2.809 . S
C258 C259 1.514 . S
C258 O276 1.248 . S
C258 O277 1.266 . S
C259 C258 1.514 . S
C259 C260 1.359 . S
C259 C264 1.348 . S
C260 C259 1.359 . S
C260 C261 1.380 . S
C260 H288 0.929 1_455 S
C261 C260 1.380 . S
C261 C262 1.347 . S
C261 H289 0.931 1_455 S
C262 C261 1.347 . S
C262 C263 1.369 . S
C263 C262 1.369 . S
C263 C264 1.408 . S
C263 H290 0.930 . S
C264 C259 1.348 . S
C264 C263 1.408 . S
C264 H291 0.930 . S
C265 O278 1.262 1_565 S
C265 O279 1.281 . S
C266 O280 1.236 1_655 S
C266 O281 1.266 . S
C267 Tb257 2.809 . S
C267 C268 1.514 . S
C267 O282 1.248 . S
C267 O283 1.266 . S
C268 C267 1.514 . S
C268 C269 1.359 . S
C268 C273 1.348 . S
C269 C268 1.359 . S
C269 C270 1.380 . S
C269 H292 0.929 1_655 S
C270 C269 1.380 . S
C270 C271 1.347 . S
C270 H293 0.931 1_655 S
C271 C270 1.347 . S
C271 C272 1.369 . S
C272 C271 1.369 . S
C272 C273 1.408 . S
C272 H294 0.930 . S
C273 C268 1.348 . S
C273 C272 1.408 . S
C273 H295 0.930 . S
C274 O284 1.281 1_545 S
C274 O285 1.254 . S
C275 O286 1.236 1_455 S
C275 O287 1.266 . S
O276 Tb256 2.484 . S
O276 C258 1.248 . S
O277 Tb256 2.440 . S
O277 C258 1.266 . S
O278 Tb256 2.658 1_545 S
O278 Tb257 2.325 1_455 S
O278 C265 1.262 1_545 S
O279 Tb256 2.409 . S
O279 C265 1.281 . S
O280 Tb256 2.378 . S
O280 C266 1.236 1_455 S
O281 Tb257 2.341 1_565 S
O281 C266 1.266 . S
O282 Tb257 2.484 . S
O282 C267 1.248 . S
O283 Tb257 2.440 . S
O283 C267 1.266 . S
O284 Tb256 2.325 1_655 S
O284 Tb257 2.658 1_565 S
O284 C274 1.281 1_565 S
O285 Tb257 2.409 . S
O285 C274 1.254 . S
O286 Tb257 2.378 . S
O286 C275 1.236 1_655 S
O287 Tb256 2.341 1_545 S
O287 C275 1.266 . S
H288 C260 0.929 1_655 S
H289 C261 0.931 1_655 S
H290 C263 0.930 . S
H291 C264 0.930 . S
H292 C269 0.929 1_455 S
H293 C270 0.931 1_455 S
H294 C272 0.930 . S
H295 C273 0.930 . S
Tb296 C298 2.809 . S
Tb296 O316 2.484 . S
Tb296 O317 2.440 . S
Tb296 O318 2.658 . S
Tb296 O319 2.409 . S
Tb296 O320 2.378 . S
Tb296 O324 2.325 1_545 S
Tb296 O327 2.341 . S
Tb297 C307 2.809 . S
Tb297 O318 2.325 1_565 S
Tb297 O321 2.341 . S
Tb297 O322 2.484 . S
Tb297 O323 2.440 . S
Tb297 O324 2.658 . S
Tb297 O325 2.409 . S
Tb297 O326 2.378 . S
C298 Tb296 2.809 . S
C298 C299 1.514 . S
C298 O316 1.248 . S
C298 O317 1.266 . S
C299 C298 1.514 . S
C299 C300 1.359 . S
C299 C304 1.348 . S
C300 C299 1.359 . S
C300 C301 1.380 . S
C300 H328 0.929 1_545 S
C301 C300 1.380 . S
C301 C302 1.347 . S
C301 H329 0.931 1_545 S
C302 C301 1.347 . S
C302 C303 1.369 . S
C303 C302 1.369 . S
C303 C304 1.408 . S
C303 H330 0.930 . S
C304 C299 1.348 . S
C304 C303 1.408 . S
C304 H331 0.930 . S
C305 O318 1.281 . S
C305 O319 1.254 . S
C306 O320 1.236 1_565 S
C306 O321 1.266 . S
C307 Tb297 2.809 . S
C307 C308 1.514 . S
C307 O322 1.248 . S
C307 O323 1.266 . S
C308 C307 1.514 . S
C308 C309 1.359 . S
C308 C313 1.348 . S
C309 C308 1.359 . S
C309 C310 1.380 . S
C309 H332 0.929 1_565 S
C310 C309 1.380 . S
C310 C311 1.347 . S
C310 H333 0.931 1_565 S
C311 C310 1.347 . S
C311 C312 1.369 . S
C312 C311 1.369 . S
C312 C313 1.408 . S
C312 H334 0.930 . S
C313 C308 1.348 . S
C313 C312 1.408 . S
C313 H335 0.930 . S
C314 O324 1.281 . S
C314 O325 1.254 . S
C315 O326 1.236 1_545 S
C315 O327 1.266 . S
O316 Tb296 2.484 . S
O316 C298 1.248 . S
O317 Tb296 2.440 . S
O317 C298 1.266 . S
O318 Tb296 2.658 . S
O318 Tb297 2.325 1_545 S
O318 C305 1.281 . S
O319 Tb296 2.409 . S
O319 C305 1.254 . S
O320 Tb296 2.378 . S
O320 C306 1.236 1_545 S
O321 Tb297 2.341 . S
O321 C306 1.266 . S
O322 Tb297 2.484 . S
O322 C307 1.248 . S
O323 Tb297 2.440 . S
O323 C307 1.266 . S
O324 Tb296 2.325 1_565 S
O324 Tb297 2.658 . S
O324 C314 1.281 . S
O325 Tb297 2.409 . S
O325 C314 1.254 . S
O326 Tb297 2.378 . S
O326 C315 1.236 1_565 S
O327 Tb296 2.341 . S
O327 C315 1.266 . S
H328 C300 0.929 1_565 S
H329 C301 0.931 1_565 S
H330 C303 0.930 . S
H331 C304 0.930 . S
H332 C309 0.929 1_545 S
H333 C310 0.931 1_545 S
H334 C312 0.930 . S
H335 C313 0.930 . S
Tb336 C338 2.809 . S
Tb336 O356 2.484 . S
Tb336 O357 2.440 . S
Tb336 O358 2.658 . S
Tb336 O359 2.409 . S
Tb336 O360 2.378 . S
Tb336 O364 2.325 . S
Tb336 O367 2.341 . S
Tb337 C347 2.809 . S
Tb337 O358 2.325 . S
Tb337 O361 2.341 . S
Tb337 O362 2.484 . S
Tb337 O363 2.440 . S
Tb337 O364 2.658 . S
Tb337 O365 2.409 . S
Tb337 O366 2.378 . S
C338 Tb336 2.809 . S
C338 C339 1.514 . S
C338 O356 1.248 . S
C338 O357 1.266 . S
C339 C338 1.514 . S
C339 C340 1.359 . S
C339 C344 1.348 . S
C340 C339 1.359 . S
C340 C341 1.380 . S
C340 H368 0.929 . S
C341 C340 1.380 . S
C341 C342 1.347 . S
C341 H369 0.931 . S
C342 C341 1.347 . S
C342 C343 1.369 . S
C343 C342 1.369 . S
C343 C344 1.408 . S
C343 H370 0.930 . S
C344 C339 1.348 . S
C344 C343 1.408 . S
C344 H371 0.930 . S
C345 O358 1.281 . S
C345 O359 1.254 . S
C346 O360 1.236 . S
C346 O361 1.266 . S
C347 Tb337 2.809 . S
C347 C348 1.514 . S
C347 O362 1.248 . S
C347 O363 1.266 . S
C348 C347 1.514 . S
C348 C349 1.359 . S
C348 C353 1.348 . S
C349 C348 1.359 . S
C349 C350 1.380 . S
C349 H372 0.929 . S
C350 C349 1.380 . S
C350 C351 1.347 . S
C350 H373 0.931 . S
C351 C350 1.347 . S
C351 C352 1.369 . S
C352 C351 1.369 . S
C352 C353 1.408 . S
C352 H374 0.930 . S
C353 C348 1.348 . S
C353 C352 1.408 . S
C353 H375 0.930 . S
C354 O364 1.281 . S
C354 O365 1.254 . S
C355 O366 1.236 . S
C355 O367 1.266 . S
O356 Tb336 2.484 . S
O356 C338 1.248 . S
O357 Tb336 2.440 . S
O357 C338 1.266 . S
O358 Tb336 2.658 . S
O358 Tb337 2.325 . S
O358 C345 1.281 . S
O359 Tb336 2.409 . S
O359 C345 1.254 . S
O360 Tb336 2.378 . S
O360 C346 1.236 . S
O361 Tb337 2.341 . S
O361 C346 1.266 . S
O362 Tb337 2.484 . S
O362 C347 1.248 . S
O363 Tb337 2.440 . S
O363 C347 1.266 . S
O364 Tb336 2.325 . S
O364 Tb337 2.658 . S
O364 C354 1.281 . S
O365 Tb337 2.409 . S
O365 C354 1.254 . S
O366 Tb337 2.378 . S
O366 C355 1.236 . S
O367 Tb336 2.341 . S
O367 C355 1.266 . S
H368 C340 0.929 . S
H369 C341 0.931 . S
H370 C343 0.930 . S
H371 C344 0.930 . S
H372 C349 0.929 . S
H373 C350 0.931 . S
H374 C352 0.930 . S
H375 C353 0.930 . S
Tb376 C378 2.809 . S
Tb376 O396 2.484 . S
Tb376 O397 2.440 . S
Tb376 O398 2.658 1_655 S
Tb376 O399 2.409 . S
Tb376 O400 2.378 . S
Tb376 O404 2.325 . S
Tb376 O407 2.341 1_655 S
Tb377 C387 2.809 . S
Tb377 O398 2.325 . S
Tb377 O401 2.341 1_455 S
Tb377 O402 2.484 . S
Tb377 O403 2.440 . S
Tb377 O404 2.658 1_455 S
Tb377 O405 2.409 . S
Tb377 O406 2.378 . S
C378 Tb376 2.809 . S
C378 C379 1.514 . S
C378 O396 1.248 . S
C378 O397 1.266 . S
C379 C378 1.514 . S
C379 C380 1.359 . S
C379 C384 1.348 . S
C380 C379 1.359 . S
C380 C381 1.380 . S
C380 H408 0.929 . S
C381 C380 1.380 . S
C381 C382 1.347 . S
C381 H409 0.931 . S
C382 C381 1.347 . S
C382 C383 1.369 . S
C383 C382 1.369 . S
C383 C384 1.408 . S
C383 H410 0.930 . S
C384 C379 1.348 . S
C384 C383 1.408 . S
C384 H411 0.930 . S
C385 O398 1.271 1_655 S
C385 O399 1.268 . S
C386 O400 1.236 . S
C386 O401 1.266 . S
C387 Tb377 2.809 . S
C387 C388 1.514 . S
C387 O402 1.248 . S
C387 O403 1.266 . S
C388 C387 1.514 . S
C388 C389 1.359 . S
C388 C393 1.348 . S
C389 C388 1.359 . S
C389 C390 1.380 . S
C389 H412 0.929 . S
C390 C389 1.380 . S
C390 C391 1.347 . S
C390 H413 0.931 . S
C391 C390 1.347 . S
C391 C392 1.369 . S
C392 C391 1.369 . S
C392 C393 1.408 . S
C392 H414 0.930 . S
C393 C388 1.348 . S
C393 C392 1.408 . S
C393 H415 0.930 . S
C394 O404 1.267 1_455 S
C394 O405 1.275 . S
C395 O406 1.236 . S
C395 O407 1.266 . S
O396 Tb376 2.484 . S
O396 C378 1.248 . S
O397 Tb376 2.440 . S
O397 C378 1.266 . S
O398 Tb376 2.658 1_455 S
O398 Tb377 2.325 . S
O398 C385 1.271 1_455 S
O399 Tb376 2.409 . S
O399 C385 1.268 . S
O400 Tb376 2.378 . S
O400 C386 1.236 . S
O401 Tb377 2.341 1_655 S
O401 C386 1.266 . S
O402 Tb377 2.484 . S
O402 C387 1.248 . S
O403 Tb377 2.440 . S
O403 C387 1.266 . S
O404 Tb376 2.325 . S
O404 Tb377 2.658 1_655 S
O404 C394 1.267 1_655 S
O405 Tb377 2.409 . S
O405 C394 1.275 . S
O406 Tb377 2.378 . S
O406 C395 1.236 . S
O407 Tb376 2.341 1_455 S
O407 C395 1.266 . S
H408 C380 0.929 . S
H409 C381 0.931 . S
H410 C383 0.930 . S
H411 C384 0.930 . S
H412 C389 0.929 . S
H413 C390 0.931 . S
H414 C392 0.930 . S
H415 C393 0.930 . S
C416 C417 1.351 . S
C416 C418 1.327 . S
C416 H441 0.950 . S
C417 C416 1.351 . S
C417 C433 1.347 1_545 S
C418 C416 1.327 . S
C418 C437 1.435 . S
C418 H442 0.950 . S
C419 C436 1.574 . S
C419 C438 1.359 1_565 S
C419 H443 0.949 . S
H420 C424 0.949 . S
C421 C422 1.328 1_565 S
C421 C423 1.327 . S
C421 H444 0.950 . S
C422 C421 1.328 1_545 S
C422 C434 1.370 . S
C423 C421 1.327 . S
C423 C439 1.413 1_565 S
C423 H445 0.950 . S
C424 H420 0.949 . S
C424 C432 1.574 . S
C424 C440 1.383 . S
H425 C433 0.950 . S
H426 C431 0.950 . S
H427 C432 0.949 . S
H428 C434 0.950 . S
H429 C435 0.950 . S
H430 C436 0.949 . S
C431 H426 0.950 . S
C431 C433 1.327 . S
C431 C437 1.422 1_565 S
C432 C424 1.574 . S
C432 H427 0.949 . S
C432 C438 1.378 . S
C433 C417 1.347 1_565 S
C433 H425 0.950 . S
C433 C431 1.327 . S
C434 C422 1.370 . S
C434 H428 0.950 . S
C434 C435 1.327 . S
C435 H429 0.950 . S
C435 C434 1.327 . S
C435 C439 1.444 . S
C436 C419 1.574 . S
C436 H430 0.949 . S
C436 C440 1.354 1_565 S
C437 C418 1.435 . S
C437 C431 1.422 1_545 S
C437 C438 1.523 . S
C438 C419 1.359 1_545 S
C438 C432 1.378 . S
C438 C437 1.523 . S
C439 C423 1.413 1_545 S
C439 C435 1.444 . S
C439 C440 1.523 . S
C440 C424 1.383 . S
C440 C436 1.354 1_545 S
C440 C439 1.523 . S
H441 C416 0.950 . S
H442 C418 0.950 . S
H443 C419 0.949 . S
H444 C421 0.950 . S
H445 C423 0.950 . S
C446 C447 1.349 . S
C446 C448 1.327 . S
C446 H471 0.950 . S
C447 C446 1.349 . S
C447 C463 1.349 . S
C448 C446 1.327 . S
C448 C467 1.429 . S
C448 H472 0.950 . S
C449 C466 1.574 . S
C449 C468 1.368 . S
C449 H473 0.949 . S
H450 C454 0.949 . S
C451 C452 1.349 . S
C451 C453 1.327 . S
C451 H474 0.950 . S
C452 C451 1.349 . S
C452 C464 1.349 . S
C453 C451 1.327 . S
C453 C469 1.429 . S
C453 H475 0.950 . S
C454 H450 0.949 . S
C454 C462 1.574 . S
C454 C470 1.368 . S
H455 C463 0.950 . S
H456 C461 0.950 . S
H457 C462 0.949 . S
H458 C464 0.950 . S
H459 C465 0.950 . S
H460 C466 0.949 . S
C461 H456 0.950 . S
C461 C463 1.327 . S
C461 C467 1.429 . S
C462 C454 1.574 . S
C462 H457 0.949 . S
C462 C468 1.368 . S
C463 C447 1.349 . S
C463 H455 0.950 . S
C463 C461 1.327 . S
C464 C452 1.349 . S
C464 H458 0.950 . S
C464 C465 1.327 . S
C465 H459 0.950 . S
C465 C464 1.327 . S
C465 C469 1.429 . S
C466 C449 1.574 . S
C466 H460 0.949 . S
C466 C470 1.368 . S
C467 C448 1.429 . S
C467 C461 1.429 . S
C467 C468 1.523 . S
C468 C449 1.368 . S
C468 C462 1.368 . S
C468 C467 1.523 . S
C469 C453 1.429 . S
C469 C465 1.429 . S
C469 C470 1.523 . S
C470 C454 1.368 . S
C470 C466 1.368 . S
C470 C469 1.523 . S
H471 C446 0.950 . S
H472 C448 0.950 . S
H473 C449 0.949 . S
H474 C451 0.950 . S
H475 C453 0.950 . S
C476 C477 1.349 . S
C476 C478 1.327 . S
C476 H501 0.950 . S
C477 C476 1.349 . S
C477 C493 1.349 . S
C478 C476 1.327 . S
C478 C497 1.429 . S
C478 H502 0.950 . S
C479 C496 1.574 . S
C479 C498 1.368 . S
C479 H503 0.949 . S
H480 C484 0.949 . S
C481 C482 1.349 . S
C481 C483 1.327 . S
C481 H504 0.950 . S
C482 C481 1.349 . S
C482 C494 1.349 . S
C483 C481 1.327 . S
C483 C499 1.429 . S
C483 H505 0.950 . S
C484 H480 0.949 . S
C484 C492 1.574 . S
C484 C500 1.368 . S
H485 C493 0.950 . S
H486 C491 0.950 . S
H487 C492 0.949 . S
H488 C494 0.950 . S
H489 C495 0.950 . S
H490 C496 0.949 . S
C491 H486 0.950 . S
C491 C493 1.327 . S
C491 C497 1.429 . S
C492 C484 1.574 . S
C492 H487 0.949 . S
C492 C498 1.368 . S
C493 C477 1.349 . S
C493 H485 0.950 . S
C493 C491 1.327 . S
C494 C482 1.349 . S
C494 H488 0.950 . S
C494 C495 1.327 . S
C495 H489 0.950 . S
C495 C494 1.327 . S
C495 C499 1.429 . S
C496 C479 1.574 . S
C496 H490 0.949 . S
C496 C500 1.368 . S
C497 C478 1.429 . S
C497 C491 1.429 . S
C497 C498 1.523 . S
C498 C479 1.368 . S
C498 C492 1.368 . S
C498 C497 1.523 . S
C499 C483 1.429 . S
C499 C495 1.429 . S
C499 C500 1.523 . S
C500 C484 1.368 . S
C500 C496 1.368 . S
C500 C499 1.523 . S
H501 C476 0.950 . S
H502 C478 0.950 . S
H503 C479 0.949 . S
H504 C481 0.950 . S
H505 C483 0.950 . S
C506 C507 1.346 1_655 S
C506 C508 1.327 . S
C506 H531 0.950 . S
C507 C506 1.346 1_455 S
C507 C523 1.351 . S
C508 C506 1.327 . S
C508 C527 1.419 1_655 S
C508 H532 0.950 . S
C509 C526 1.574 . S
C509 C528 1.383 . S
C509 H533 0.949 . S
H510 C514 0.949 . S
C511 C512 1.380 . S
C511 C513 1.327 . S
C511 H534 0.950 . S
C512 C511 1.380 . S
C512 C524 1.319 1_455 S
C513 C511 1.327 . S
C513 C529 1.452 . S
C513 H535 0.950 . S
C514 H510 0.949 . S
C514 C522 1.574 . S
C514 C530 1.347 1_655 S
H515 C523 0.950 . S
H516 C521 0.950 . S
H517 C522 0.949 . S
H518 C524 0.950 . S
H519 C525 0.950 . S
H520 C526 0.949 . S
C521 H516 0.950 . S
C521 C523 1.327 . S
C521 C527 1.438 . S
C522 C514 1.574 . S
C522 H517 0.949 . S
C522 C528 1.354 1_655 S
C523 C507 1.351 . S
C523 H515 0.950 . S
C523 C521 1.327 . S
C524 C512 1.319 1_655 S
C524 H518 0.950 . S
C524 C525 1.327 . S
C525 H519 0.950 . S
C525 C524 1.327 . S
C525 C529 1.406 1_655 S
C526 C509 1.574 . S
C526 H520 0.949 . S
C526 C530 1.390 . S
C527 C508 1.419 1_455 S
C527 C521 1.438 . S
C527 C528 1.523 . S
C528 C509 1.383 . S
C528 C522 1.354 1_455 S
C528 C527 1.523 . S
C529 C513 1.452 . S
C529 C525 1.406 1_455 S
C529 C530 1.523 . S
C530 C514 1.347 1_455 S
C530 C526 1.390 . S
C530 C529 1.523 . S
H531 C506 0.950 . S
H532 C508 0.950 . S
H533 C509 0.949 . S
H534 C511 0.950 . S
H535 C513 0.950 . S
C536 C537 1.347 . S
C536 C538 1.327 . S
C536 H561 0.950 . S
C537 C536 1.347 . S
C537 C553 1.351 1_545 S
C538 C536 1.327 . S
C538 C557 1.431 1_545 S
C538 H562 0.950 . S
C539 C556 1.574 1_554 S
C539 C558 1.368 . S
C539 H563 0.949 . S
H540 C544 0.949 . S
C541 C542 1.358 . S
C541 C543 1.327 . S
C541 H564 0.950 . S
C542 C541 1.358 . S
C542 C554 1.340 1_565 S
C543 C541 1.327 . S
C543 C559 1.434 . S
C543 H565 0.950 . S
C544 H540 0.949 . S
C544 C552 1.574 . S
C544 C560 1.365 1_544 S
H545 C553 0.950 . S
H546 C551 0.950 . S
H547 C552 0.949 . S
H548 C554 0.950 . S
H549 C555 0.950 . S
H550 C556 0.949 . S
C551 H546 0.950 . S
C551 C553 1.327 . S
C551 C557 1.426 . S
C552 C544 1.574 . S
C552 H547 0.949 . S
C552 C558 1.369 1_545 S
C553 C537 1.351 1_565 S
C553 H545 0.950 . S
C553 C551 1.327 . S
C554 C542 1.340 1_545 S
C554 H548 0.950 . S
C554 C555 1.327 . S
C555 H549 0.950 . S
C555 C554 1.327 . S
C555 C559 1.423 1_545 S
C556 C539 1.574 1_556 S
C556 H550 0.949 . S
C556 C560 1.372 . S
C557 C538 1.431 1_565 S
C557 C551 1.426 . S
C557 C558 1.523 . S
C558 C539 1.368 . S
C558 C552 1.369 1_565 S
C558 C557 1.523 . S
C559 C543 1.434 . S
C559 C555 1.423 1_565 S
C559 C560 1.523 . S
C560 C544 1.365 1_566 S
C560 C556 1.372 . S
C560 C559 1.523 . S
H561 C536 0.950 . S
H562 C538 0.950 . S
H563 C539 0.949 . S
H564 C541 0.950 . S
H565 C543 0.950 . S
C566 C567 1.349 . S
C566 C568 1.327 . S
C566 H591 0.950 . S
C567 C566 1.349 . S
C567 C583 1.349 . S
C568 C566 1.327 . S
C568 C587 1.429 . S
C568 H592 0.950 . S
C569 C586 1.574 1_554 S
C569 C588 1.368 . S
C569 H593 0.949 . S
H570 C574 0.949 . S
C571 C572 1.349 . S
C571 C573 1.327 . S
C571 H594 0.950 . S
C572 C571 1.349 . S
C572 C584 1.349 . S
C573 C571 1.327 . S
C573 C589 1.429 . S
C573 H595 0.950 . S
C574 H570 0.949 . S
C574 C582 1.574 1_556 S
C574 C590 1.368 . S
H575 C583 0.950 . S
H576 C581 0.950 . S
H577 C582 0.949 . S
H578 C584 0.950 . S
H579 C585 0.950 . S
H580 C586 0.949 . S
C581 H576 0.950 . S
C581 C583 1.327 . S
C581 C587 1.429 . S
C582 C574 1.574 1_554 S
C582 H577 0.949 . S
C582 C588 1.368 . S
C583 C567 1.349 . S
C583 H575 0.950 . S
C583 C581 1.327 . S
C584 C572 1.349 . S
C584 H578 0.950 . S
C584 C585 1.327 . S
C585 H579 0.950 . S
C585 C584 1.327 . S
C585 C589 1.429 . S
C586 C569 1.574 1_556 S
C586 H580 0.949 . S
C586 C590 1.368 . S
C587 C568 1.429 . S
C587 C581 1.429 . S
C587 C588 1.523 . S
C588 C569 1.368 . S
C588 C582 1.368 . S
C588 C587 1.523 . S
C589 C573 1.429 . S
C589 C585 1.429 . S
C589 C590 1.523 . S
C590 C574 1.368 . S
C590 C586 1.368 . S
C590 C589 1.523 . S
H591 C566 0.950 . S
H592 C568 0.950 . S
H593 C569 0.949 . S
H594 C571 0.950 . S
H595 C573 0.950 . S
C596 C597 1.349 . S
C596 C598 1.327 . S
C596 H621 0.950 . S
C597 C596 1.349 . S
C597 C613 1.349 . S
C598 C596 1.327 . S
C598 C617 1.429 . S
C598 H622 0.950 . S
C599 C616 1.574 1_554 S
C599 C618 1.368 . S
C599 H623 0.949 . S
H600 C604 0.947 1_556 S
C601 C602 1.349 . S
C601 C603 1.327 . S
C601 H624 0.950 . S
C602 C601 1.349 . S
C602 C614 1.349 . S
C603 C601 1.327 . S
C603 C619 1.429 . S
C603 H625 0.950 . S
C604 H600 0.947 1_554 S
C604 C612 1.582 . S
C604 C620 1.362 1_554 S
H605 C613 0.950 . S
H606 C611 0.950 . S
H607 C612 0.949 . S
H608 C614 0.950 . S
H609 C615 0.950 . S
H610 C616 0.949 . S
C611 H606 0.950 . S
C611 C613 1.327 . S
C611 C617 1.429 . S
C612 C604 1.582 . S
C612 H607 0.949 . S
C612 C618 1.368 . S
C613 C597 1.349 . S
C613 H605 0.950 . S
C613 C611 1.327 . S
C614 C602 1.349 . S
C614 H608 0.950 . S
C614 C615 1.327 . S
C615 H609 0.950 . S
C615 C614 1.327 . S
C615 C619 1.429 . S
C616 C599 1.574 1_556 S
C616 H610 0.949 . S
C616 C620 1.368 . S
C617 C598 1.429 . S
C617 C611 1.429 . S
C617 C618 1.523 . S
C618 C599 1.368 . S
C618 C612 1.368 . S
C618 C617 1.523 . S
C619 C603 1.429 . S
C619 C615 1.429 . S
C619 C620 1.523 . S
C620 C604 1.362 1_556 S
C620 C616 1.368 . S
C620 C619 1.523 . S
H621 C596 0.950 . S
H622 C598 0.950 . S
H623 C599 0.949 . S
H624 C601 0.950 . S
H625 C603 0.950 . S
C626 C627 1.348 1_455 S
C626 C628 1.327 . S
C626 H651 0.950 . S
C627 C626 1.348 1_655 S
C627 C643 1.350 . S
C628 C626 1.327 . S
C628 C647 1.424 1_455 S
C628 H652 0.950 . S
C629 C646 1.574 . S
C629 C648 1.375 . S
C629 H653 0.949 . S
H630 C634 0.949 . S
C631 C632 1.364 . S
C631 C633 1.327 . S
C631 H654 0.950 . S
C632 C631 1.364 . S
C632 C644 1.336 1_655 S
C633 C631 1.327 . S
C633 C649 1.440 . S
C633 H655 0.950 . S
C634 H630 0.949 . S
C634 C642 1.574 1_556 S
C634 C650 1.359 1_455 S
H635 C643 0.950 . S
H636 C641 0.950 . S
H637 C642 0.949 . S
H638 C644 0.950 . S
H639 C645 0.950 . S
H640 C646 0.949 . S
C641 H636 0.950 . S
C641 C643 1.327 . S
C641 C647 1.433 . S
C642 C634 1.574 1_554 S
C642 H637 0.949 . S
C642 C648 1.362 1_455 S
C643 C627 1.350 . S
C643 H635 0.950 . S
C643 C641 1.327 . S
C644 C632 1.336 1_455 S
C644 H638 0.950 . S
C644 C645 1.327 . S
C645 H639 0.950 . S
C645 C644 1.327 . S
C645 C649 1.419 1_455 S
C646 C629 1.574 . S
C646 H640 0.949 . S
C646 C650 1.378 1_554 S
C647 C628 1.424 1_655 S
C647 C641 1.433 . S
C647 C648 1.523 . S
C648 C629 1.375 . S
C648 C642 1.362 1_655 S
C648 C647 1.523 . S
C649 C633 1.440 . S
C649 C645 1.419 1_655 S
C649 C650 1.523 . S
C650 C634 1.359 1_655 S
C650 C646 1.378 1_556 S
C650 C649 1.523 . S
H651 C626 0.950 . S
H652 C628 0.950 . S
H653 C629 0.949 . S
H654 C631 0.950 . S
H655 C633 0.950 . S
C656 C657 1.349 1_655 S
C656 C658 1.327 . S
C656 H681 0.950 . S
C657 C656 1.349 1_455 S
C657 C673 1.349 . S
C658 C656 1.327 . S
C658 C677 1.429 . S
C658 H682 0.950 . S
C659 C676 1.574 . S
C659 C678 1.368 . S
C659 H683 0.949 . S
H660 C664 0.949 . S
C661 C662 1.349 . S
C661 C663 1.327 . S
C661 H684 0.950 . S
C662 C661 1.349 . S
C662 C674 1.349 . S
C663 C661 1.327 . S
C663 C679 1.429 . S
C663 H685 0.950 . S
C664 H660 0.949 . S
C664 C672 1.574 . S
C664 C680 1.368 . S
H665 C673 0.950 . S
H666 C671 0.947 1_455 S
H667 C672 0.949 . S
H668 C674 0.950 . S
H669 C675 0.950 . S
H670 C676 0.949 . S
C671 H666 0.947 1_655 S
C671 C673 1.325 1_655 S
C671 C677 1.431 . S
C672 C664 1.574 . S
C672 H667 0.949 . S
C672 C678 1.368 . S
C673 C657 1.349 . S
C673 H665 0.950 . S
C673 C671 1.325 1_455 S
C674 C662 1.349 . S
C674 H668 0.950 . S
C674 C675 1.327 . S
C675 H669 0.950 . S
C675 C674 1.327 . S
C675 C679 1.429 . S
C676 C659 1.574 . S
C676 H670 0.949 . S
C676 C680 1.368 . S
C677 C658 1.429 . S
C677 C671 1.431 . S
C677 C678 1.523 . S
C678 C659 1.368 . S
C678 C672 1.368 . S
C678 C677 1.523 . S
C679 C663 1.429 . S
C679 C675 1.429 . S
C679 C680 1.523 . S
C680 C664 1.368 . S
C680 C676 1.368 . S
C680 C679 1.523 . S
H681 C656 0.950 . S
H682 C658 0.950 . S
H683 C659 0.949 . S
H684 C661 0.950 . S
H685 C663 0.950 . S
C686 C687 1.349 1_565 S
C686 C688 1.327 . S
C686 H711 0.950 . S
C687 C686 1.349 1_545 S
C687 C703 1.349 . S
C688 C686 1.327 . S
C688 C707 1.429 . S
C688 H712 0.950 . S
C689 C706 1.572 1_545 S
C689 C708 1.368 1_545 S
C689 H713 0.949 . S
H690 C694 0.949 . S
C691 C692 1.349 . S
C691 C693 1.327 . S
C691 H714 0.950 . S
C692 C691 1.349 . S
C692 C704 1.349 . S
C693 C691 1.327 . S
C693 C709 1.429 . S
C693 H715 0.950 1_565 S
C694 H690 0.949 . S
C694 C702 1.574 . S
C694 C710 1.368 . S
H695 C703 0.950 . S
H696 C701 0.950 . S
H697 C702 0.949 . S
H698 C704 0.950 . S
H699 C705 0.950 . S
H700 C706 0.943 1_545 S
C701 H696 0.950 . S
C701 C703 1.327 . S
C701 C707 1.429 1_545 S
C702 C694 1.574 . S
C702 H697 0.949 . S
C702 C708 1.368 . S
C703 C687 1.349 . S
C703 H695 0.950 . S
C703 C701 1.327 . S
C704 C692 1.349 . S
C704 H698 0.950 . S
C704 C705 1.327 . S
C705 H699 0.950 . S
C705 C704 1.327 . S
C705 C709 1.429 . S
C706 C689 1.572 1_565 S
C706 H700 0.943 1_565 S
C706 C710 1.377 . S
C707 C688 1.429 . S
C707 C701 1.429 1_565 S
C707 C708 1.523 . S
C708 C689 1.368 1_565 S
C708 C702 1.368 . S
C708 C707 1.523 . S
C709 C693 1.429 . S
C709 C705 1.429 . S
C709 C710 1.523 . S
C710 C694 1.368 . S
C710 C706 1.377 . S
C710 C709 1.523 . S
H711 C686 0.950 . S
H712 C688 0.950 . S
H713 C689 0.949 . S
H714 C691 0.950 . S
H715 C693 0.950 1_545 S
C716 C717 1.349 . S
C716 C718 1.327 . S
C716 H741 0.950 . S
C717 C716 1.349 . S
C717 C733 1.349 . S
C718 C716 1.327 . S
C718 C737 1.429 . S
C718 H742 0.950 . S
C719 C736 1.574 . S
C719 C738 1.368 . S
C719 H743 0.949 . S
H720 C724 0.949 . S
C721 C722 1.349 . S
C721 C723 1.327 . S
C721 H744 0.950 . S
C722 C721 1.349 . S
C722 C734 1.349 . S
C723 C721 1.327 . S
C723 C739 1.429 . S
C723 H745 0.950 . S
C724 H720 0.949 . S
C724 C732 1.574 . S
C724 C740 1.368 . S
H725 C733 0.950 . S
H726 C731 0.950 . S
H727 C732 0.949 . S
H728 C734 0.950 . S
H729 C735 0.950 . S
H730 C736 0.949 . S
C731 H726 0.950 . S
C731 C733 1.327 . S
C731 C737 1.429 . S
C732 C724 1.574 . S
C732 H727 0.949 . S
C732 C738 1.368 . S
C733 C717 1.349 . S
C733 H725 0.950 . S
C733 C731 1.327 . S
C734 C722 1.349 . S
C734 H728 0.950 . S
C734 C735 1.327 . S
C735 H729 0.950 . S
C735 C734 1.327 . S
C735 C739 1.429 . S
C736 C719 1.574 . S
C736 H730 0.949 . S
C736 C740 1.368 . S
C737 C718 1.429 . S
C737 C731 1.429 . S
C737 C738 1.523 . S
C738 C719 1.368 . S
C738 C732 1.368 . S
C738 C737 1.523 . S
C739 C723 1.429 . S
C739 C735 1.429 . S
C739 C740 1.523 . S
C740 C724 1.368 . S
C740 C736 1.368 . S
C740 C739 1.523 . S
H741 C716 0.950 . S
H742 C718 0.950 . S
H743 C719 0.949 . S
H744 C721 0.950 . S
H745 C723 0.950 . S
C746 C747 1.349 . S
C746 C748 1.327 . S
C746 H771 0.950 . S
C747 C746 1.349 . S
C747 C763 1.349 . S
C748 C746 1.327 . S
C748 C767 1.429 . S
C748 H772 0.950 . S
C749 C766 1.574 . S
C749 C768 1.368 . S
C749 H773 0.949 . S
H750 C754 0.949 . S
C751 C752 1.349 . S
C751 C753 1.327 . S
C751 H774 0.950 . S
C752 C751 1.349 . S
C752 C764 1.349 . S
C753 C751 1.327 . S
C753 C769 1.429 . S
C753 H775 0.950 . S
C754 H750 0.949 . S
C754 C762 1.574 . S
C754 C770 1.368 . S
H755 C763 0.950 . S
H756 C761 0.950 . S
H757 C762 0.949 . S
H758 C764 0.950 . S
H759 C765 0.950 . S
H760 C766 0.949 . S
C761 H756 0.950 . S
C761 C763 1.327 . S
C761 C767 1.429 . S
C762 C754 1.574 . S
C762 H757 0.949 . S
C762 C768 1.368 . S
C763 C747 1.349 . S
C763 H755 0.950 . S
C763 C761 1.327 . S
C764 C752 1.349 . S
C764 H758 0.950 . S
C764 C765 1.327 . S
C765 H759 0.950 . S
C765 C764 1.327 . S
C765 C769 1.429 . S
C766 C749 1.574 . S
C766 H760 0.949 . S
C766 C770 1.368 . S
C767 C748 1.429 . S
C767 C761 1.429 . S
C767 C768 1.523 . S
C768 C749 1.368 . S
C768 C762 1.368 . S
C768 C767 1.523 . S
C769 C753 1.429 . S
C769 C765 1.429 . S
C769 C770 1.523 . S
C770 C754 1.368 . S
C770 C766 1.368 . S
C770 C769 1.523 . S
H771 C746 0.950 . S
H772 C748 0.950 . S
H773 C749 0.949 . S
H774 C751 0.950 . S
H775 C753 0.950 . S
C776 C777 1.349 1_455 S
C776 C778 1.327 . S
C776 H801 0.950 . S
C777 C776 1.349 1_655 S
C777 C793 1.349 . S
C778 C776 1.327 . S
C778 C797 1.429 . S
C778 H802 0.950 . S
C779 C796 1.574 1_554 S
C779 C798 1.368 1_655 S
C779 H803 0.949 . S
H780 C784 0.949 . S
C781 C782 1.349 . S
C781 C783 1.327 . S
C781 H804 0.908 1_455 S
C782 C781 1.349 . S
C782 C794 1.349 . S
C783 C781 1.327 . S
C783 C799 1.429 . S
C783 H805 0.950 1_455 S
C784 H780 0.949 . S
C784 C792 1.574 . S
C784 C800 1.368 1_554 S
H785 C793 0.950 . S
H786 C791 0.950 . S
H787 C792 0.949 . S
H788 C794 0.950 . S
H789 C795 0.950 . S
H790 C796 0.949 . S
C791 H786 0.950 . S
C791 C793 1.327 . S
C791 C797 1.429 1_655 S
C792 C784 1.574 . S
C792 H787 0.949 . S
C792 C798 1.368 . S
C793 C777 1.349 . S
C793 H785 0.950 . S
C793 C791 1.327 . S
C794 C782 1.349 . S
C794 H788 0.950 . S
C794 C795 1.327 . S
C795 H789 0.950 . S
C795 C794 1.327 . S
C795 C799 1.429 . S
C796 C779 1.574 1_556 S
C796 H790 0.949 . S
C796 C800 1.368 1_655 S
C797 C778 1.429 . S
C797 C791 1.429 1_455 S
C797 C798 1.523 . S
C798 C779 1.368 1_455 S
C798 C792 1.368 . S
C798 C797 1.523 . S
C799 C783 1.429 . S
C799 C795 1.429 . S
C799 C800 1.523 . S
C800 C784 1.368 1_556 S
C800 C796 1.368 1_455 S
C800 C799 1.523 . S
H801 C776 0.950 . S
H802 C778 0.950 . S
H803 C779 0.949 . S
H804 C781 0.908 1_655 S
H805 C783 0.950 1_655 S
C806 C807 1.349 . S
C806 C808 1.327 . S
C806 H831 0.950 . S
C807 C806 1.349 . S
C807 C823 1.349 1_565 S
C808 C806 1.327 . S
C808 C827 1.429 1_565 S
C808 H832 0.950 . S
C809 C826 1.573 . S
C809 C828 1.368 . S
C809 H833 0.949 . S
H810 C814 0.949 . S
C811 C812 1.349 . S
C811 C813 1.327 . S
C811 H834 0.950 . S
C812 C811 1.349 . S
C812 C824 1.349 . S
C813 C811 1.327 . S
C813 C829 1.429 . S
C813 H835 0.950 . S
C814 H810 0.949 . S
C814 C822 1.574 . S
C814 C830 1.368 1_564 S
H815 C823 0.950 . S
H816 C821 0.950 . S
H817 C822 0.949 . S
H818 C824 0.950 1_565 S
H819 C825 0.950 1_565 S
H820 C826 0.950 1_556 S
C821 H816 0.950 . S
C821 C823 1.327 . S
C821 C827 1.429 . S
C822 C814 1.574 . S
C822 H817 0.949 . S
C822 C828 1.368 1_565 S
C823 C807 1.349 1_545 S
C823 H815 0.950 . S
C823 C821 1.327 . S
C824 C812 1.349 . S
C824 H818 0.950 1_545 S
C824 C825 1.327 . S
C825 H819 0.950 1_545 S
C825 C824 1.327 . S
C825 C829 1.429 . S
C826 C809 1.573 . S
C826 H820 0.950 1_554 S
C826 C830 1.368 1_554 S
C827 C808 1.429 1_545 S
C827 C821 1.429 . S
C827 C828 1.523 . S
C828 C809 1.368 . S
C828 C822 1.368 1_545 S
C828 C827 1.523 . S
C829 C813 1.429 . S
C829 C825 1.429 . S
C829 C830 1.523 . S
C830 C814 1.368 1_546 S
C830 C826 1.368 1_556 S
C830 C829 1.523 . S
H831 C806 0.950 . S
H832 C808 0.950 . S
H833 C809 0.949 . S
H834 C811 0.950 . S
H835 C813 0.950 . S
C836 C837 1.349 . S
C836 C838 1.327 . S
C836 H861 0.950 . S
C837 C836 1.349 . S
C837 C853 1.349 . S
C838 C836 1.327 . S
C838 C857 1.429 . S
C838 H862 0.950 . S
C839 C856 1.574 . S
C839 C858 1.368 . S
C839 H863 0.949 . S
H840 C844 0.949 . S
C841 C842 1.349 . S
C841 C843 1.327 . S
C841 H864 0.950 . S
C842 C841 1.349 . S
C842 C854 1.349 . S
C843 C841 1.327 . S
C843 C859 1.429 . S
C843 H865 0.950 . S
C844 H840 0.949 . S
C844 C852 1.574 . S
C844 C860 1.368 1_554 S
H845 C853 0.950 . S
H846 C851 0.950 . S
H847 C852 0.949 . S
H848 C854 0.950 . S
H849 C855 0.950 . S
H850 C856 0.949 1_556 S
C851 H846 0.950 . S
C851 C853 1.327 . S
C851 C857 1.429 . S
C852 C844 1.574 . S
C852 H847 0.949 . S
C852 C858 1.368 . S
C853 C837 1.349 . S
C853 H845 0.950 . S
C853 C851 1.327 . S
C854 C842 1.349 . S
C854 H848 0.950 . S
C854 C855 1.327 . S
C855 H849 0.950 . S
C855 C854 1.327 . S
C855 C859 1.429 . S
C856 C839 1.574 . S
C856 H850 0.949 1_554 S
C856 C860 1.368 1_554 S
C857 C838 1.429 . S
C857 C851 1.429 . S
C857 C858 1.523 . S
C858 C839 1.368 . S
C858 C852 1.368 . S
C858 C857 1.523 . S
C859 C843 1.429 . S
C859 C855 1.429 . S
C859 C860 1.523 . S
C860 C844 1.368 1_556 S
C860 C856 1.368 1_556 S
C860 C859 1.523 . S
H861 C836 0.950 . S
H862 C838 0.950 . S
H863 C839 0.949 . S
H864 C841 0.950 . S
H865 C843 0.950 . S
C866 C867 1.349 . S
C866 C868 1.327 . S
C866 H891 0.950 . S
C867 C866 1.349 . S
C867 C883 1.349 . S
C868 C866 1.327 . S
C868 C887 1.429 . S
C868 H892 0.950 . S
C869 C886 1.574 1_554 S
C869 C888 1.368 . S
C869 H893 0.949 . S
H870 C874 0.949 . S
C871 C872 1.349 . S
C871 C873 1.327 . S
C871 H894 0.950 . S
C872 C871 1.349 . S
C872 C884 1.349 . S
C873 C871 1.327 . S
C873 C889 1.429 . S
C873 H895 0.950 . S
C874 H870 0.949 . S
C874 C882 1.574 . S
C874 C890 1.368 1_554 S
H875 C883 0.950 . S
H876 C881 0.950 . S
H877 C882 0.949 . S
H878 C884 0.950 . S
H879 C885 0.950 . S
H880 C886 0.949 . S
C881 H876 0.950 . S
C881 C883 1.327 . S
C881 C887 1.429 . S
C882 C874 1.574 . S
C882 H877 0.949 . S
C882 C888 1.368 . S
C883 C867 1.349 . S
C883 H875 0.950 . S
C883 C881 1.327 . S
C884 C872 1.349 . S
C884 H878 0.950 . S
C884 C885 1.327 . S
C885 H879 0.950 . S
C885 C884 1.327 . S
C885 C889 1.429 . S
C886 C869 1.574 1_556 S
C886 H880 0.949 . S
C886 C890 1.368 . S
C887 C868 1.429 . S
C887 C881 1.429 . S
C887 C888 1.523 . S
C888 C869 1.368 . S
C888 C882 1.368 . S
C888 C887 1.523 . S
C889 C873 1.429 . S
C889 C885 1.429 . S
C889 C890 1.523 . S
C890 C874 1.368 1_556 S
C890 C886 1.368 . S
C890 C889 1.523 . S
H891 C866 0.950 . S
H892 C868 0.950 . S
H893 C869 0.949 . S
H894 C871 0.950 . S
H895 C873 0.950 . S
C896 C897 1.349 1_655 S
C896 C898 1.327 . S
C896 H921 0.950 . S
C897 C896 1.349 1_455 S
C897 C913 1.349 . S
C898 C896 1.327 . S
C898 C917 1.429 1_655 S
C898 H922 0.950 . S
C899 C916 1.574 . S
C899 C918 1.368 . S
C899 H923 0.949 . S
H900 C904 0.949 . S
C901 C902 1.349 . S
C901 C903 1.327 . S
C901 H924 0.950 . S
C902 C901 1.349 . S
C902 C914 1.349 1_455 S
C903 C901 1.327 . S
C903 C919 1.429 . S
C903 H925 0.950 . S
C904 H900 0.949 . S
C904 C912 1.574 . S
C904 C920 1.368 1_655 S
H905 C913 0.950 . S
H906 C911 0.950 . S
H907 C912 0.949 . S
H908 C914 0.950 . S
H909 C915 0.950 . S
H910 C916 0.949 . S
C911 H906 0.950 . S
C911 C913 1.327 . S
C911 C917 1.429 . S
C912 C904 1.574 . S
C912 H907 0.949 . S
C912 C918 1.368 1_655 S
C913 C897 1.349 . S
C913 H905 0.950 . S
C913 C911 1.327 . S
C914 C902 1.349 1_655 S
C914 H908 0.950 . S
C914 C915 1.327 . S
C915 H909 0.950 . S
C915 C914 1.327 . S
C915 C919 1.429 1_655 S
C916 C899 1.574 . S
C916 H910 0.949 . S
C916 C920 1.368 . S
C917 C898 1.429 1_455 S
C917 C911 1.429 . S
C917 C918 1.523 . S
C918 C899 1.368 . S
C918 C912 1.368 1_455 S
C918 C917 1.523 . S
C919 C903 1.429 . S
C919 C915 1.429 1_455 S
C919 C920 1.523 . S
C920 C904 1.368 1_455 S
C920 C916 1.368 . S
C920 C919 1.523 . S
H921 C896 0.950 . S
H922 C898 0.950 . S
H923 C899 0.949 . S
H924 C901 0.950 . S
H925 C903 0.950 . S
C926 C927 1.349 1_565 S
C926 C928 1.327 . S
C926 H951 0.950 . S
C927 C926 1.349 1_545 S
C927 C943 1.349 . S
C928 C926 1.327 . S
C928 C947 1.429 1_565 S
C928 H952 0.950 . S
C929 C946 1.574 . S
C929 C948 1.368 . S
C929 H953 0.949 . S
H930 C934 0.949 . S
C931 C932 1.349 . S
C931 C933 1.327 . S
C931 H954 0.950 . S
C932 C931 1.349 . S
C932 C944 1.349 1_545 S
C933 C931 1.327 . S
C933 C949 1.429 . S
C933 H955 0.950 . S
C934 H930 0.949 . S
C934 C942 1.574 . S
C934 C950 1.368 1_565 S
H935 C943 0.950 . S
H936 C941 0.950 . S
H937 C942 0.949 . S
H938 C944 0.950 . S
H939 C945 0.950 . S
H940 C946 0.949 . S
C941 H936 0.950 . S
C941 C943 1.327 . S
C941 C947 1.429 . S
C942 C934 1.574 . S
C942 H937 0.949 . S
C942 C948 1.368 1_565 S
C943 C927 1.349 . S
C943 H935 0.950 . S
C943 C941 1.327 . S
C944 C932 1.349 1_565 S
C944 H938 0.950 . S
C944 C945 1.327 . S
C945 H939 0.950 . S
C945 C944 1.327 . S
C945 C949 1.429 1_565 S
C946 C929 1.574 . S
C946 H940 0.949 . S
C946 C950 1.368 . S
C947 C928 1.429 1_545 S
C947 C941 1.429 . S
C947 C948 1.523 . S
C948 C929 1.368 . S
C948 C942 1.368 1_545 S
C948 C947 1.523 . S
C949 C933 1.429 . S
C949 C945 1.429 1_545 S
C949 C950 1.523 . S
C950 C934 1.368 1_545 S
C950 C946 1.368 . S
C950 C949 1.523 . S
H951 C926 0.950 . S
H952 C928 0.950 . S
H953 C929 0.949 . S
H954 C931 0.950 . S
H955 C933 0.950 . S
C956 C957 1.349 . S
C956 C958 1.327 . S
C956 H981 0.950 . S
C957 C956 1.349 . S
C957 C973 1.349 . S
C958 C956 1.327 . S
C958 C977 1.429 . S
C958 H982 0.950 . S
C959 C976 1.574 . S
C959 C978 1.368 . S
C959 H983 0.949 . S
H960 C964 0.949 . S
C961 C962 1.349 . S
C961 C963 1.327 . S
C961 H984 0.950 . S
C962 C961 1.349 . S
C962 C974 1.349 . S
C963 C961 1.327 . S
C963 C979 1.429 . S
C963 H985 0.950 . S
C964 H960 0.949 . S
C964 C972 1.574 . S
C964 C980 1.368 . S
H965 C973 0.950 . S
H966 C971 0.950 . S
H967 C972 0.949 . S
H968 C974 0.950 . S
H969 C975 0.950 . S
H970 C976 0.949 . S
C971 H966 0.950 . S
C971 C973 1.327 . S
C971 C977 1.429 . S
C972 C964 1.574 . S
C972 H967 0.949 . S
C972 C978 1.368 . S
C973 C957 1.349 . S
C973 H965 0.950 . S
C973 C971 1.327 . S
C974 C962 1.349 . S
C974 H968 0.950 . S
C974 C975 1.327 . S
C975 H969 0.950 . S
C975 C974 1.327 . S
C975 C979 1.429 . S
C976 C959 1.574 . S
C976 H970 0.949 . S
C976 C980 1.368 . S
C977 C958 1.429 . S
C977 C971 1.429 . S
C977 C978 1.523 . S
C978 C959 1.368 . S
C978 C972 1.368 . S
C978 C977 1.523 . S
C979 C963 1.429 . S
C979 C975 1.429 . S
C979 C980 1.523 . S
C980 C964 1.368 . S
C980 C976 1.368 . S
C980 C979 1.523 . S
H981 C956 0.950 . S
H982 C958 0.950 . S
H983 C959 0.949 . S
H984 C961 0.950 . S
H985 C963 0.950 . S
C986 C987 1.349 . S
C986 C988 1.327 . S
C986 H1011 0.950 . S
C987 C986 1.349 . S
C987 C1003 1.349 . S
C988 C986 1.327 . S
C988 C1007 1.429 . S
C988 H1012 0.950 . S
C989 C1006 1.574 . S
C989 C1008 1.368 . S
C989 H1013 0.949 . S
H990 C994 0.949 . S
C991 C992 1.349 . S
C991 C993 1.327 . S
C991 H1014 0.950 . S
C992 C991 1.349 . S
C992 C1004 1.349 . S
C993 C991 1.327 . S
C993 C1009 1.429 . S
C993 H1015 0.950 . S
C994 H990 0.949 . S
C994 C1002 1.574 . S
C994 C1010 1.368 . S
H995 C1003 0.950 . S
H996 C1001 0.950 . S
H997 C1002 0.949 . S
H998 C1004 0.950 . S
H999 C1005 0.950 . S
H1000 C1006 0.949 . S
C1001 H996 0.950 . S
C1001 C1003 1.327 . S
C1001 C1007 1.429 . S
C1002 C994 1.574 . S
C1002 H997 0.949 . S
C1002 C1008 1.368 . S
C1003 C987 1.349 . S
C1003 H995 0.950 . S
C1003 C1001 1.327 . S
C1004 C992 1.349 . S
C1004 H998 0.950 . S
C1004 C1005 1.327 . S
C1005 H999 0.950 . S
C1005 C1004 1.327 . S
C1005 C1009 1.429 . S
C1006 C989 1.574 . S
C1006 H1000 0.949 . S
C1006 C1010 1.368 . S
C1007 C988 1.429 . S
C1007 C1001 1.429 . S
C1007 C1008 1.523 . S
C1008 C989 1.368 . S
C1008 C1002 1.368 . S
C1008 C1007 1.523 . S
C1009 C993 1.429 . S
C1009 C1005 1.429 . S
C1009 C1010 1.523 . S
C1010 C994 1.368 . S
C1010 C1006 1.368 . S
C1010 C1009 1.523 . S
H1011 C986 0.950 . S
H1012 C988 0.950 . S
H1013 C989 0.949 . S
H1014 C991 0.950 . S
H1015 C993 0.950 . S
C1016 C1017 1.349 . S
C1016 C1018 1.327 . S
C1016 H1041 0.950 . S
C1017 C1016 1.349 . S
C1017 C1033 1.344 1_655 S
C1018 C1016 1.327 . S
C1018 C1037 1.429 . S
C1018 H1042 0.950 . S
C1019 C1036 1.574 . S
C1019 C1038 1.368 . S
C1019 H1043 0.944 1_655 S
H1020 C1024 0.949 . S
C1021 C1022 1.349 . S
C1021 C1023 1.327 . S
C1021 H1044 0.950 . S
C1022 C1021 1.349 . S
C1022 C1034 1.349 . S
C1023 C1021 1.327 . S
C1023 C1039 1.429 . S
C1023 H1045 0.950 . S
C1024 H1020 0.949 . S
C1024 C1032 1.574 . S
C1024 C1040 1.368 . S
H1025 C1033 0.961 . S
H1026 C1031 0.951 . S
H1027 C1032 0.949 . S
H1028 C1034 0.950 . S
H1029 C1035 0.950 . S
H1030 C1036 0.955 . S
C1031 H1026 0.951 . S
C1031 C1033 1.326 . S
C1031 C1037 1.427 1_455 S
C1032 C1024 1.574 . S
C1032 H1027 0.949 . S
C1032 C1038 1.368 . S
C1033 C1017 1.344 1_455 S
C1033 H1025 0.961 . S
C1033 C1031 1.326 . S
C1034 C1022 1.349 . S
C1034 H1028 0.950 . S
C1034 C1035 1.327 . S
C1035 H1029 0.950 . S
C1035 C1034 1.327 . S
C1035 C1039 1.429 . S
C1036 C1019 1.574 . S
C1036 H1030 0.955 . S
C1036 C1040 1.368 . S
C1037 C1018 1.429 . S
C1037 C1031 1.427 1_655 S
C1037 C1038 1.523 . S
C1038 C1019 1.368 . S
C1038 C1032 1.368 . S
C1038 C1037 1.523 . S
C1039 C1023 1.429 . S
C1039 C1035 1.429 . S
C1039 C1040 1.523 . S
C1040 C1024 1.368 . S
C1040 C1036 1.368 . S
C1040 C1039 1.523 . S
H1041 C1016 0.950 . S
H1042 C1018 0.950 . S
H1043 C1019 0.944 1_455 S
H1044 C1021 0.950 . S
H1045 C1023 0.950 . S
C1046 C1047 1.304 1_545 S
C1046 C1048 1.327 . S
C1046 H1071 0.950 . S
C1047 C1046 1.304 1_565 S
C1047 C1063 1.397 . S
C1048 C1046 1.327 . S
C1048 C1067 1.429 1_545 S
C1048 H1072 0.950 . S
C1049 C1066 1.574 . S
C1049 C1068 1.368 . S
C1049 H1073 0.949 . S
H1050 C1054 0.949 . S
C1051 C1052 1.349 . S
C1051 C1053 1.327 . S
C1051 H1074 0.950 . S
C1052 C1051 1.349 . S
C1052 C1064 1.349 1_565 S
C1053 C1051 1.327 . S
C1053 C1069 1.429 . S
C1053 H1075 0.950 . S
C1054 H1050 0.949 . S
C1054 C1062 1.574 . S
C1054 C1070 1.368 1_545 S
H1055 C1063 0.950 . S
H1056 C1061 0.950 . S
H1057 C1062 0.949 . S
H1058 C1064 0.950 . S
H1059 C1065 0.950 . S
H1060 C1066 0.949 . S
C1061 H1056 0.950 . S
C1061 C1063 1.327 . S
C1061 C1067 1.429 . S
C1062 C1054 1.574 . S
C1062 H1057 0.949 . S
C1062 C1068 1.368 1_545 S
C1063 C1047 1.397 . S
C1063 H1055 0.950 . S
C1063 C1061 1.327 . S
C1064 C1052 1.349 1_545 S
C1064 H1058 0.950 . S
C1064 C1065 1.327 . S
C1065 H1059 0.950 . S
C1065 C1064 1.327 . S
C1065 C1069 1.429 1_545 S
C1066 C1049 1.574 . S
C1066 H1060 0.949 . S
C1066 C1070 1.368 . S
C1067 C1048 1.429 1_565 S
C1067 C1061 1.429 . S
C1067 C1068 1.523 . S
C1068 C1049 1.368 . S
C1068 C1062 1.368 1_565 S
C1068 C1067 1.523 . S
C1069 C1053 1.429 . S
C1069 C1065 1.429 1_565 S
C1069 C1070 1.523 . S
C1070 C1054 1.368 1_565 S
C1070 C1066 1.368 . S
C1070 C1069 1.523 . S
H1071 C1046 0.950 . S
H1072 C1048 0.950 . S
H1073 C1049 0.949 . S
H1074 C1051 0.950 . S
H1075 C1053 0.950 . S
C1076 C1077 1.349 . S
C1076 C1078 1.327 . S
C1076 H1101 0.950 . S
C1077 C1076 1.349 . S
C1077 C1093 1.349 . S
C1078 C1076 1.327 . S
C1078 C1097 1.429 . S
C1078 H1102 0.950 . S
C1079 C1096 1.574 . S
C1079 C1098 1.368 . S
C1079 H1103 0.949 . S
H1080 C1084 0.949 . S
C1081 C1082 1.349 . S
C1081 C1083 1.327 . S
C1081 H1104 0.950 . S
C1082 C1081 1.349 . S
C1082 C1094 1.349 . S
C1083 C1081 1.327 . S
C1083 C1099 1.429 . S
C1083 H1105 0.950 . S
C1084 H1080 0.949 . S
C1084 C1092 1.574 . S
C1084 C1100 1.368 . S
H1085 C1093 0.950 . S
H1086 C1091 0.950 . S
H1087 C1092 0.949 . S
H1088 C1094 0.950 . S
H1089 C1095 0.950 . S
H1090 C1096 0.949 . S
C1091 H1086 0.950 . S
C1091 C1093 1.327 . S
C1091 C1097 1.429 . S
C1092 C1084 1.574 . S
C1092 H1087 0.949 . S
C1092 C1098 1.368 . S
C1093 C1077 1.349 . S
C1093 H1085 0.950 . S
C1093 C1091 1.327 . S
C1094 C1082 1.349 . S
C1094 H1088 0.950 . S
C1094 C1095 1.327 . S
C1095 H1089 0.950 . S
C1095 C1094 1.327 . S
C1095 C1099 1.429 . S
C1096 C1079 1.574 . S
C1096 H1090 0.949 . S
C1096 C1100 1.368 . S
C1097 C1078 1.429 . S
C1097 C1091 1.429 . S
C1097 C1098 1.523 . S
C1098 C1079 1.368 . S
C1098 C1092 1.368 . S
C1098 C1097 1.523 . S
C1099 C1083 1.429 . S
C1099 C1095 1.429 . S
C1099 C1100 1.523 . S
C1100 C1084 1.368 . S
C1100 C1096 1.368 . S
C1100 C1099 1.523 . S
H1101 C1076 0.950 . S
H1102 C1078 0.950 . S
H1103 C1079 0.949 . S
H1104 C1081 0.950 . S
H1105 C1083 0.950 . S
C1106 C1107 1.349 . S
C1106 C1108 1.327 . S
C1106 H1131 0.950 . S
C1107 C1106 1.349 . S
C1107 C1123 1.349 . S
C1108 C1106 1.327 . S
C1108 C1127 1.429 . S
C1108 H1132 0.950 . S
C1109 C1126 1.574 . S
C1109 C1128 1.368 . S
C1109 H1133 0.949 . S
H1110 C1114 0.949 . S
C1111 C1112 1.349 . S
C1111 C1113 1.327 . S
C1111 H1134 0.950 . S
C1112 C1111 1.349 . S
C1112 C1124 1.349 . S
C1113 C1111 1.327 . S
C1113 C1129 1.429 . S
C1113 H1135 0.950 . S
C1114 H1110 0.949 . S
C1114 C1122 1.574 . S
C1114 C1130 1.368 . S
H1115 C1123 0.950 . S
H1116 C1121 0.950 . S
H1117 C1122 0.949 . S
H1118 C1124 0.950 . S
H1119 C1125 0.950 . S
H1120 C1126 0.949 . S
C1121 H1116 0.950 . S
C1121 C1123 1.327 . S
C1121 C1127 1.429 . S
C1122 C1114 1.574 . S
C1122 H1117 0.949 . S
C1122 C1128 1.368 . S
C1123 C1107 1.349 . S
C1123 H1115 0.950 . S
C1123 C1121 1.327 . S
C1124 C1112 1.349 . S
C1124 H1118 0.950 . S
C1124 C1125 1.327 . S
C1125 H1119 0.950 . S
C1125 C1124 1.327 . S
C1125 C1129 1.429 . S
C1126 C1109 1.574 . S
C1126 H1120 0.949 . S
C1126 C1130 1.368 . S
C1127 C1108 1.429 . S
C1127 C1121 1.429 . S
C1127 C1128 1.523 . S
C1128 C1109 1.368 . S
C1128 C1122 1.368 . S
C1128 C1127 1.523 . S
C1129 C1113 1.429 . S
C1129 C1125 1.429 . S
C1129 C1130 1.523 . S
C1130 C1114 1.368 . S
C1130 C1126 1.368 . S
C1130 C1129 1.523 . S
H1131 C1106 0.950 . S
H1132 C1108 0.950 . S
H1133 C1109 0.949 . S
H1134 C1111 0.950 . S
H1135 C1113 0.950 . S
C417 C215 1.801 . S
C422 C265 1.907 1_545 S
C452 C305 1.923 . S
C447 C247 1.802 . S
C482 C345 1.926 . S
C477 C151 1.811 . S
C512 C385 1.914 1_455 S
C507 C183 1.806 . S
C542 C274 1.913 1_565 S
C537 C87 1.806 . S
C567 C119 1.817 . S
C572 C314 1.928 . S
C597 C23 1.820 . S
C602 C354 1.926 . S
C627 C55 1.806 1_655 S
C632 C394 1.914 1_655 S
C662 C271 0.269 . S
C657 C189 0.244 . S
C692 C311 0.272 . S
C687 C221 0.255 . S
C722 C351 0.271 . S
C717 C253 0.269 . S
C747 C157 0.260 . S
C752 C391 0.264 . S
C777 C61 0.427 1_655 S
C782 C262 0.263 . S
C812 C302 0.272 . S
C807 C93 0.412 1_565 S
C842 C342 0.271 . S
C837 C125 0.414 . S
C867 C29 0.414 . S
C872 C382 0.272 . S
C897 C177 2.269 . S
C902 C275 2.500 . S
C927 C209 2.244 . S
C932 C315 2.481 . S
C962 C355 2.468 . S
C957 C241 2.227 . S
C992 C395 2.493 . S
C987 C145 2.246 . S
C1017 C49 2.285 1_655 S
C1022 C266 2.515 . S
C1052 C306 2.482 . S
C1047 C81 2.252 1_565 S
C1082 C346 2.468 . S
C1077 C113 2.252 . S
C1107 C17 2.276 . S
C1112 C386 2.499 . S
