# Generated by pormake.
# Topology pyr, (3,6)-cn, num edge types: 1
# Building blocks:
#     Node 0, Type 0, BuildingBlock: BETDAH_clean_linker_0, # of connection points: 3
#     Node 1, Type 0, BuildingBlock: BETDAH_clean_linker_0, # of connection points: 3
#     Node 2, Type 0, BuildingBlock: BETDAH_clean_linker_0, # of connection points: 3
#     Node 3, Type 0, BuildingBlock: BETDAH_clean_linker_0, # of connection points: 3
#     Node 4, Type 0, BuildingBlock: BETDAH_clean_linker_0, # of connection points: 3
#     Node 5, Type 0, BuildingBlock: BETDAH_clean_linker_0, # of connection points: 3
#     Node 6, Type 0, BuildingBlock: BETDAH_clean_linker_0, # of connection points: 3
#     Node 7, Type 0, BuildingBlock: BETDAH_clean_linker_0, # of connection points: 3
#     Node 8, Type 1, BuildingBlock: JUFBIX_clean_sbu_0, # of connection points: 6
#     Node 9, Type 1, BuildingBlock: JUFBIX_clean_sbu_0, # of connection points: 6
#     Node 10, Type 1, BuildingBlock: JUFBIX_clean_sbu_0, # of connection points: 6
#     Node 11, Type 1, BuildingBlock: JUFBIX_clean_sbu_0, # of connection points: 6
#     Edge 12, Type (0, 1), BuildingBlock: XIVTED_clean_linker_0, # of connection points: 2
#     Edge 13, Type (0, 1), BuildingBlock: XIVTED_clean_linker_0, # of connection points: 2
#     Edge 14, Type (0, 1), BuildingBlock: XIVTED_clean_linker_0, # of connection points: 2
#     Edge 15, Type (0, 1), BuildingBlock: XIVTED_clean_linker_0, # of connection points: 2
#     Edge 16, Type (0, 1), BuildingBlock: XIVTED_clean_linker_0, # of connection points: 2
#     Edge 17, Type (0, 1), BuildingBlock: XIVTED_clean_linker_0, # of connection points: 2
#     Edge 18, Type (0, 1), BuildingBlock: XIVTED_clean_linker_0, # of connection points: 2
#     Edge 19, Type (0, 1), BuildingBlock: XIVTED_clean_linker_0, # of connection points: 2
#     Edge 20, Type (0, 1), BuildingBlock: XIVTED_clean_linker_0, # of connection points: 2
#     Edge 21, Type (0, 1), BuildingBlock: XIVTED_clean_linker_0, # of connection points: 2
#     Edge 22, Type (0, 1), BuildingBlock: XIVTED_clean_linker_0, # of connection points: 2
#     Edge 23, Type (0, 1), BuildingBlock: XIVTED_clean_linker_0, # of connection points: 2
#     Edge 24, Type (0, 1), BuildingBlock: XIVTED_clean_linker_0, # of connection points: 2
#     Edge 25, Type (0, 1), BuildingBlock: XIVTED_clean_linker_0, # of connection points: 2
#     Edge 26, Type (0, 1), BuildingBlock: XIVTED_clean_linker_0, # of connection points: 2
#     Edge 27, Type (0, 1), BuildingBlock: XIVTED_clean_linker_0, # of connection points: 2
#     Edge 28, Type (0, 1), BuildingBlock: XIVTED_clean_linker_0, # of connection points: 2
#     Edge 29, Type (0, 1), BuildingBlock: XIVTED_clean_linker_0, # of connection points: 2
#     Edge 30, Type (0, 1), BuildingBlock: XIVTED_clean_linker_0, # of connection points: 2
#     Edge 31, Type (0, 1), BuildingBlock: XIVTED_clean_linker_0, # of connection points: 2
#     Edge 32, Type (0, 1), BuildingBlock: XIVTED_clean_linker_0, # of connection points: 2
#     Edge 33, Type (0, 1), BuildingBlock: XIVTED_clean_linker_0, # of connection points: 2
#     Edge 34, Type (0, 1), BuildingBlock: XIVTED_clean_linker_0, # of connection points: 2
#     Edge 35, Type (0, 1), BuildingBlock: XIVTED_clean_linker_0, # of connection points: 2
# Relax obj value: 0.126
# Max RMSD: 0.203
# Mean RMSD: 0.127
data_MOF--net-pry--node1-JUFBIX_clean_sbu_0--node2-BETDAH_clean_linker_0--edge1-XIVTED_clean_linker_0
_symmetry_space_group_name_H-M    P1
_symmetry_Int_Tables_number       1
_symmetry_cell_setting            triclinic
loop_
_symmetry_equiv_pos_as_xyz
'x, y, z'
_cell_length_a     36.996647
_cell_length_b     34.873016
_cell_length_c     38.572562
_cell_angle_alpha  84.981735
_cell_angle_beta   90.548258
_cell_angle_gamma 97.588774
loop_
_atom_site_label
_atom_site_type_symbol
_atom_site_fract_x
_atom_site_fract_y
_atom_site_fract_z
_atom_type_partial_charge
H0 H 0.23905 0.14421 0.24246 0.0
H1 H 0.24937 0.22842 0.15371 0.0
H2 H 0.16716 0.23343 0.23038 0.0
C3 C 0.23026 0.16943 0.22813 0.0
C4 C 0.2006 0.18655 0.24114 0.0
C5 C 0.24785 0.18359 0.19609 0.0
C6 C 0.23564 0.21618 0.17764 0.0
C7 C 0.20668 0.23435 0.18931 0.0
C8 C 0.18893 0.21916 0.22097 0.0
N9 N 0.19921 0.26905 0.1688 0.0
C10 C 0.16966 0.29094 0.16717 0.0
H11 H 0.47417 0.86156 0.72656 0.0
H12 H 0.45143 0.97513 0.68567 0.0
H13 H 0.47704 0.89338 0.61612 0.0
C14 C 0.4712 0.88267 0.70471 0.0
C15 C 0.47638 0.87288 0.6707 0.0
C16 C 0.4627 0.9198 0.71055 0.0
C17 C 0.45794 0.94641 0.68179 0.0
C18 C 0.46338 0.93679 0.64786 0.0
C19 C 0.47325 0.90054 0.64253 0.0
N20 N 0.45902 0.96328 0.61869 0.0
C21 C 0.42685 0.97932 0.61355 0.0
H22 H 0.71094 0.37449 0.96443 0.0
H23 H 0.70614 0.48933 0.91582 0.0
H24 H 0.61516 0.40075 0.90716 0.0
C25 C 0.69645 0.39464 0.94853 0.0
C26 C 0.66082 0.38268 0.93707 0.0
C27 C 0.71289 0.43301 0.94112 0.0
C28 C 0.69394 0.45942 0.92129 0.0
C29 C 0.65938 0.44743 0.9081 0.0
C30 C 0.64276 0.40911 0.91592 0.0
N31 N 0.64029 0.47518 0.88964 0.0
C32 C 0.63412 0.47483 0.85416 0.0
H33 H 0.9372 0.71243 0.51474 0.0
H34 H 0.02396 0.68438 0.45203 0.0
H35 H 0.91962 0.61424 0.45332 0.0
C36 C 0.94747 0.69336 0.49756 0.0
C37 C 0.92412 0.66159 0.48647 0.0
C38 C 0.98334 0.70217 0.48488 0.0
C39 C 0.99648 0.67767 0.46236 0.0
C40 C 0.97355 0.64606 0.45109 0.0
C41 C 0.93746 0.63809 0.46308 0.0
N42 N 0.98649 0.62406 0.4259 0.0
C43 C 0.96657 0.61621 0.39608 0.0
H44 H 0.9256 0.87418 0.83926 0.0
H45 H 0.84295 0.8812 0.91673 0.0
H46 H 0.85342 0.96094 0.8247 0.0
C47 C 0.903 0.88743 0.84832 0.0
C48 C 0.89143 0.91886 0.82724 0.0
C49 C 0.88586 0.87277 0.88069 0.0
C50 C 0.85653 0.89146 0.8923 0.0
C51 C 0.84469 0.9234 0.87195 0.0
C52 C 0.86235 0.93627 0.83983 0.0
N53 N 0.81631 0.94505 0.88194 0.0
C54 C 0.79011 0.93929 0.90897 0.0
H55 H 0.67077 0.11782 0.40856 0.0
H56 H 0.67349 0.16941 0.50611 0.0
H57 H 0.59329 0.19472 0.42905 0.0
C58 C 0.65963 0.13584 0.4262 0.0
C59 C 0.62956 0.15457 0.41557 0.0
C60 C 0.67637 0.14163 0.45846 0.0
C61 C 0.66164 0.16538 0.48066 0.0
C62 C 0.63217 0.18494 0.47014 0.0
C63 C 0.61636 0.18001 0.43723 0.0
N64 N 0.61865 0.20846 0.49382 0.0
C65 C 0.60372 0.24225 0.48405 0.0
H66 H 0.33784 0.74087 0.13582 0.0
H67 H 0.29305 0.6452 0.2067 0.0
H68 H 0.39621 0.71039 0.22945 0.0
C69 C 0.34038 0.722 0.15935 0.0
C70 C 0.37085 0.72894 0.18117 0.0
C71 C 0.31207 0.69229 0.16863 0.0
C72 C 0.31473 0.66855 0.19946 0.0
C73 C 0.3448 0.67467 0.22143 0.0
C74 C 0.37286 0.7053 0.21253 0.0
N75 N 0.34538 0.64906 0.25201 0.0
C76 C 0.36969 0.65344 0.27944 0.0
H77 H 0.13385 0.39283 0.5796 0.0
H78 H 0.11877 0.47777 0.65012 0.0
H79 H 0.02725 0.39767 0.6223 0.0
C80 C 0.11556 0.40659 0.59477 0.0
C81 C 0.07853 0.39095 0.59829 0.0
C82 C 0.13011 0.43821 0.61297 0.0
C83 C 0.10754 0.45391 0.63539 0.0
C84 C 0.0705 0.43896 0.63883 0.0
C85 C 0.05593 0.40866 0.61936 0.0
N86 N 0.0479 0.45229 0.66334 0.0
C87 C 0.06167 0.4651 0.69448 0.0
Co88 Co 0.02075 0.04615 0.52085 0.0
C89 C 0.05268 0.9774 0.52255 0.0
Co90 Co 0.07437 0.0481 0.54615 0.0
C91 C 0.94536 0.05464 0.50724 0.0
C92 C 0.96844 0.02488 0.46839 0.0
N93 N 0.97647 0.04183 0.49811 0.0
N94 N 0.91817 0.0463 0.48441 0.0
C95 C 0.9326 0.02751 0.45994 0.0
H96 H 0.94273 0.0696 0.53034 0.0
H97 H 0.98752 0.01171 0.45367 0.0
C98 C 0.0429 0.11708 0.54351 0.0
N99 N 0.11842 0.05287 0.56935 0.0
C100 C 0.15051 0.04141 0.56121 0.0
C101 C 0.12468 0.06965 0.5994 0.0
N102 N 0.17658 0.05053 0.58505 0.0
C103 C 0.16028 0.06827 0.6091 0.0
C104 C 0.08034 0.07228 0.47406 0.0
O105 O 0.01586 0.09781 0.52979 0.0
O106 O 0.0706 0.10069 0.55243 0.0
O107 O 0.09903 0.06526 0.50141 0.0
O108 O 0.04561 0.06595 0.47675 0.0
O109 O 0.07811 0.99544 0.53949 0.0
H110 H 0.1045 0.08198 0.61348 0.0
H111 H 0.15464 0.02697 0.53813 0.0
O112 O 0.02595 0.99455 0.51181 0.0
O113 O 0.99616 0.02659 0.56522 0.0
O114 O 0.04934 0.03089 0.59063 0.0
C115 C 0.01477 0.02235 0.59304 0.0
H116 H 0.91857 0.01723 0.4371 0.0
H117 H 0.1729 0.07881 0.63248 0.0
Co118 Co 0.50392 0.04651 0.0375 0.0
C119 C 0.50005 0.98491 0.09035 0.0
Co120 Co 0.53678 0.0579 0.08445 0.0
C121 C 0.48457 0.02755 0.96732 0.0
C122 C 0.43788 0.02347 1.00036 0.0
N123 N 0.47443 0.03316 0.99987 0.0
N124 N 0.45588 0.01459 0.94763 0.0
C125 C 0.42642 0.01226 0.96831 0.0
H126 H 0.51256 0.03223 0.95835 0.0
H127 H 0.42069 0.02309 0.02293 0.0
C128 C 0.54118 0.11937 0.03138 0.0
N129 N 0.56637 0.07185 0.12163 0.0
C130 C 0.55734 0.07493 0.15506 0.0
C131 C 0.60165 0.08764 0.11877 0.0
N132 N 0.58546 0.09265 0.17282 0.0
C133 C 0.6134 0.10049 0.15011 0.0
C134 C 0.57534 0.02562 0.03244 0.0
O135 O 0.51927 0.09655 0.01467 0.0
O136 O 0.5513 0.10785 0.06164 0.0
O137 O 0.57785 0.03805 0.06267 0.0
O138 O 0.545 0.02639 0.01654 0.0
O139 O 0.52196 0.00781 0.10703 0.0
H140 H 0.61732 0.09147 0.09491 0.0
H141 H 0.53015 0.06652 0.1656 0.0
O142 O 0.4891 0.99654 0.06036 0.0
O143 O 0.46312 0.06695 0.05923 0.0
O144 O 0.49558 0.07738 0.10583 0.0
C145 C 0.46539 0.07865 0.08975 0.0
H146 H 0.39877 1.00147 0.96133 0.0
H147 H 0.64014 0.11541 0.15555 0.0
Co148 Co 0.55352 0.57402 0.54564 0.0
C149 C 0.49392 0.58186 0.50094 0.0
Co150 Co 0.50038 0.54469 0.56564 0.0
C151 C 0.63102 0.59628 0.53182 0.0
C152 C 0.59764 0.63801 0.51012 0.0
N153 N 0.59596 0.60279 0.52798 0.0
N154 N 0.65442 0.62631 0.51729 0.0
C155 C 0.63341 0.65246 0.50347 0.0
H156 H 0.63922 0.57072 0.54606 0.0
H157 H 0.57433 0.65277 0.50313 0.0
C158 C 0.55942 0.5367 0.61059 0.0
N159 N 0.45784 0.5163 0.58356 0.0
C160 C 0.42323 0.52472 0.58188 0.0
C161 C 0.4557 0.48143 0.60215 0.0
N162 N 0.39984 0.49663 0.59911 0.0
C163 C 0.42017 0.46942 0.61191 0.0
C164 C 0.5404 0.49966 0.52722 0.0
O165 O 0.57834 0.5579 0.58709 0.0
O166 O 0.52548 0.52795 0.60582 0.0
O167 O 0.51083 0.50053 0.54355 0.0
O168 O 0.56417 0.52965 0.52479 0.0
O169 O 0.47549 0.56177 0.52533 0.0
H170 H 0.47856 0.4656 0.60811 0.0
H171 H 0.41541 0.55104 0.56865 0.0
O172 O 0.52821 0.58982 0.50445 0.0
O173 O 0.54278 0.61803 0.56667 0.0
O174 O 0.4904 0.58918 0.58773 0.0
C175 C 0.51419 0.61913 0.58428 0.0
H176 H 0.64315 0.68022 0.48969 0.0
H177 H 0.40991 0.44239 0.62667 0.0
Co178 Co 0.02875 0.57614 1.0109 0.0
C179 C 0.95717 0.54099 0.02733 0.0
Co180 Co 1.00798 0.58567 0.06228 0.0
C181 C 0.06765 0.55579 0.9504 0.0
C182 C 0.0201 0.58323 0.9379 0.0
N183 N 0.04017 0.57082 0.96503 0.0
N184 N 0.06574 0.55968 0.91531 0.0
C185 C 0.03589 0.57677 0.90747 0.0
H186 H 0.08839 0.5422 0.96501 0.0
H187 H 0.99496 0.59553 0.93996 0.0
C188 C 0.07948 0.62102 0.04602 0.0
N189 N 0.99714 0.59138 0.10819 0.0
C190 C 0.96593 0.59517 0.12486 0.0
C191 C 0.02232 0.58917 0.13363 0.0
N192 N 0.97122 0.59527 0.15953 0.0
C193 C 1.0065 0.59156 0.16507 0.0
C194 C 0.04611 0.51803 0.05962 0.0
O195 O 0.07535 0.60525 0.01753 0.0
O196 O 0.05327 0.61643 0.06755 0.0
O197 O 0.02976 0.53854 0.07866 0.0
O198 O 0.04861 0.52862 0.0271 0.0
O199 O 0.9626 0.55526 0.05642 0.0
H200 H 0.05039 0.58497 0.12971 0.0
H201 H 0.93991 0.59674 0.11209 0.0
O202 O 0.98234 0.54676 1.00452 0.0
O203 O 1.00876 0.62405 0.99531 0.0
O204 O 0.98627 0.63247 0.04574 0.0
C205 C 0.99068 0.64374 0.01346 0.0
H206 H 0.02544 0.5826 0.88148 0.0
H207 H 0.01963 0.59002 0.19028 0.0
H208 H 0.12743 0.18036 0.26071 0.0
H209 H 0.15405 0.08528 0.45701 0.0
H210 H 0.23132 0.15513 0.30174 0.0
H211 H 0.04868 0.09727 0.41197 0.0
H212 H 0.18279 0.11277 0.4015 0.0
H213 H 0.09869 0.15308 0.31619 0.0
C214 C 0.14443 0.16939 0.28126 0.0
C215 C 0.18224 0.17031 0.27573 0.0
C216 C 0.15337 0.10939 0.40365 0.0
C217 C 0.14881 0.13832 0.34044 0.0
C218 C 0.13681 0.09358 0.43555 0.0
C219 C 0.09859 0.08858 0.43972 0.0
C220 C 0.13186 0.12088 0.37516 0.0
C221 C 0.07813 0.10024 0.41044 0.0
C222 C 0.12779 0.15346 0.31311 0.0
C223 C 0.20216 0.15485 0.30393 0.0
N224 N 0.09487 0.11577 0.37981 0.0
N225 N 0.1854 0.1398 0.33466 0.0
H226 H 0.50881 0.90723 0.76502 0.0
H227 H 0.40279 0.01584 0.89875 0.0
H228 H 0.41203 0.95982 0.73772 0.0
H229 H 0.51049 0.98406 0.91766 0.0
H230 H 0.40334 0.9914 0.84122 0.0
H231 H 0.50709 0.93026 0.82298 0.0
C232 C 0.48696 0.92326 0.77135 0.0
C233 C 0.46051 0.9316 0.74648 0.0
C234 C 0.42691 0.98991 0.85791 0.0
C235 C 0.45861 0.95846 0.81269 0.0
C236 C 0.42655 1.00373 0.89078 0.0
C237 C 0.45665 1.00206 0.91303 0.0
C238 C 0.45746 0.97391 0.84727 0.0
C239 C 0.48689 0.9864 0.90122 0.0
C240 C 0.48618 0.93671 0.80434 0.0
C241 C 0.43315 0.95304 0.75598 0.0
N242 N 0.48644 0.97276 0.86924 0.0
N243 N 0.43289 0.96569 0.78833 0.0
H244 H 0.58104 0.43342 0.8195 0.0
H245 H 0.62626 0.56203 0.63856 0.0
H246 H 0.67196 0.5242 0.80575 0.0
H247 H 0.52901 0.48022 0.65856 0.0
H248 H 0.6486 0.54251 0.69679 0.0
H249 H 0.56662 0.44395 0.7575 0.0
C250 C 0.59814 0.45527 0.80316 0.0
C251 C 0.62754 0.4781 0.81727 0.0
C252 C 0.62251 0.52867 0.68823 0.0
C253 C 0.61127 0.49073 0.74682 0.0
C254 C 0.60984 0.53971 0.655 0.0
C255 C 0.57556 0.52307 0.64387 0.0
C256 C 0.6008 0.50067 0.71023 0.0
C257 C 0.5554 0.49422 0.66619 0.0
C258 C 0.58994 0.4614 0.76788 0.0
C259 C 0.64899 0.50613 0.79545 0.0
N260 N 0.56822 0.48413 0.69829 0.0
N261 N 0.6403 0.5119 0.76121 0.0
H262 H 0.94163 0.54891 0.36871 0.0
H263 H 0.94924 0.6593 0.18146 0.0
H264 H 0.95298 0.6733 0.34836 0.0
H265 H 0.93966 0.53526 0.20143 0.0
H266 H 0.93054 0.66409 0.24154 0.0
H267 H 0.92257 0.54232 0.30818 0.0
C268 C 0.93931 0.57476 0.35153 0.0
C269 C 0.94917 0.61163 0.36292 0.0
C270 C 0.93116 0.63562 0.23256 0.0
C271 C 0.92813 0.60463 0.29396 0.0
C272 C 0.94126 0.63297 0.19813 0.0
C273 C 0.94583 0.59688 0.18685 0.0
C274 C 0.92642 0.60189 0.25577 0.0
C275 C 0.93615 0.56352 0.20943 0.0
C276 C 0.92844 0.57109 0.31706 0.0
C277 C 0.9458 0.64437 0.3401 0.0
N278 N 0.92774 0.56683 0.24313 0.0
N279 N 0.93611 0.64015 0.30644 0.0
H280 H 0.25997 0.16992 0.12779 0.0
H281 H 0.45762 0.09787 0.1575 0.0
H282 H 0.30765 0.15506 0.22963 0.0
H283 H 0.39901 0.09298 0.06058 0.0
H284 H 0.40515 0.12111 0.18393 0.0
H285 H 0.31161 0.14443 0.10294 0.0
C286 C 0.28126 0.1614 0.14512 0.0
C287 C 0.27894 0.16515 0.18117 0.0
C288 C 0.40368 0.11494 0.15689 0.0
C289 C 0.33941 0.13542 0.15218 0.0
C290 C 0.43384 0.10168 0.14162 0.0
C291 C 0.43327 0.09325 0.10645 0.0
C292 C 0.3723 0.12044 0.13702 0.0
C293 C 0.40118 0.09891 0.08765 0.0
C294 C 0.31091 0.14659 0.13075 0.0
C295 C 0.30767 0.15273 0.20184 0.0
N296 N 0.37243 0.11216 0.10298 0.0
N297 N 0.33656 0.13887 0.18714 0.0
H298 H 0.4017 0.04026 0.63961 0.0
H299 H 0.20391 0.99272 0.555 0.0
H300 H 0.37312 0.9473 0.57384 0.0
H301 H 0.23435 0.08928 0.61675 0.0
H302 H 0.26634 0.97712 0.55953 0.0
H303 H 0.34082 0.06005 0.63013 0.0
C304 C 0.38251 0.02427 0.62301 0.0
C305 C 0.39193 0.99234 0.60735 0.0
C306 C 0.25937 1.00181 0.57199 0.0
C307 C 0.32271 0.01427 0.59651 0.0
C308 C 0.22374 0.01087 0.56923 0.0
C309 C 0.21371 0.04218 0.58575 0.0
C310 C 0.28517 0.02422 0.59142 0.0
C311 C 0.24059 0.06442 0.60416 0.0
C312 C 0.34787 0.03544 0.61759 0.0
C313 C 0.3665 0.9722 0.58622 0.0
N314 N 0.27499 0.05492 0.60661 0.0
N315 N 0.33289 0.98343 0.58145 0.0
H316 H 0.77596 0.40124 0.9352 0.0
H317 H 0.89151 0.54395 0.05826 0.0
H318 H 0.73159 0.49385 0.9803 0.0
H319 H 0.94111 0.49156 0.97657 0.0
H320 H 0.83142 0.51485 0.03932 0.0
H321 H 0.83597 0.42398 0.95924 0.0
C322 C 0.77893 0.42624 0.9503 0.0
C323 C 0.74909 0.44599 0.95563 0.0
C324 C 0.85554 0.50955 0.02578 0.0
C325 C 0.81697 0.47158 0.98349 0.0
C326 C 0.88979 0.52588 0.03668 0.0
C327 C 0.92125 0.52029 0.01881 0.0
C328 C 0.85288 0.48699 0.99723 0.0
C329 C 0.91747 0.4968 0.9909 0.0
C330 C 0.81303 0.4392 0.96389 0.0
C331 C 0.75415 0.4782 0.97533 0.0
N332 N 0.88386 0.48096 0.98095 0.0
N333 N 0.78746 0.48995 0.9887 0.0
H334 H 0.88067 0.59229 0.50347 0.0
H335 H 0.70015 0.69369 0.51637 0.0
H336 H 0.87809 0.71617 0.49153 0.0
H337 H 0.69842 0.56951 0.51929 0.0
H338 H 0.76634 0.7017 0.51309 0.0
H339 H 0.81494 0.58263 0.51489 0.0
C340 C 0.86635 0.61745 0.50343 0.0
C341 C 0.88498 0.65511 0.49649 0.0
C342 C 0.7516 0.67263 0.51453 0.0
C343 C 0.80992 0.64426 0.50971 0.0
C344 C 0.71371 0.66806 0.51618 0.0
C345 C 0.69367 0.63088 0.51757 0.0
C346 C 0.76979 0.63982 0.51415 0.0
C347 C 0.71283 0.59867 0.51827 0.0
C348 C 0.82888 0.61191 0.51005 0.0
C349 C 0.86511 0.68664 0.49723 0.0
N350 N 0.74989 0.60388 0.51627 0.0
N351 N 0.82871 0.68047 0.50352 0.0
H352 H 0.13787 0.34348 0.20289 0.0
H353 H 0.07877 0.46365 0.02681 0.0
H354 H 0.15107 0.30826 0.10011 0.0
H355 H 0.05157 0.49157 0.12921 0.0
H356 H 0.10592 0.40754 0.05338 0.0
H357 H 0.10655 0.39764 0.17727 0.0
C358 C 0.13365 0.34668 0.17502 0.0
C359 C 0.14665 0.32067 0.15376 0.0
C360 C 0.09395 0.42581 0.07014 0.0
C361 C 0.11154 0.38367 0.12385 0.0
C362 C 0.07837 0.45809 0.05488 0.0
C363 C 0.06254 0.48285 0.07554 0.0
C364 C 0.09425 0.4178 0.10664 0.0
C365 C 0.0632 0.47359 0.11194 0.0
C366 C 0.11594 0.37786 0.16029 0.0
C367 C 0.14106 0.32708 0.11766 0.0
N368 N 0.07876 0.44222 0.12616 0.0
N369 N 0.12424 0.35771 0.10398 0.0
H370 H 0.66145 0.34799 1.00301 0.0
H371 H 0.53229 0.15318 0.96486 0.0
H372 H 0.61575 0.32983 0.90146 0.0
H373 H 0.58397 0.17525 0.0633 0.0
H374 H 0.55991 0.21795 0.94075 0.0
H375 H 0.63094 0.28486 0.02506 0.0
C376 C 0.64524 0.33049 0.98519 0.0
C377 C 0.64167 0.34403 0.95016 0.0
C378 C 0.56502 0.20851 0.96763 0.0
C379 C 0.60579 0.2714 0.97557 0.0
C380 C 0.54923 0.17164 0.98142 0.0
C381 C 0.55588 0.15871 0.01613 0.0
C382 C 0.58747 0.23246 0.9888 0.0
C383 C 0.57811 0.18379 0.03638 0.0
C384 C 0.62752 0.29444 0.9979 0.0
C385 C 0.61928 0.32047 0.92864 0.0
N386 N 0.59305 0.21927 0.02242 0.0
N387 N 0.60227 0.28514 0.94166 0.0
H388 H 0.01613 0.75639 0.43628 0.0
H389 H 0.07509 0.91913 0.5664 0.0
H390 H 0.99782 0.73428 0.54692 0.0
H391 H 0.02968 0.94284 0.46461 0.0
H392 H 0.06658 0.84931 0.55762 0.0
H393 H 0.04208 0.82312 0.44497 0.0
C394 C 0.01847 0.76531 0.46251 0.0
C395 C 1.00473 0.73994 0.49095 0.0
C396 C 0.0591 0.87002 0.5371 0.0
C397 C 0.03421 0.81602 0.50093 0.0
C398 C 0.06411 0.90966 0.54197 0.0
C399 C 0.05284 0.93646 0.51621 0.0
C400 C 0.04372 0.8576 0.50592 0.0
C401 C 0.03844 0.92293 0.48514 0.0
C402 C 0.033 0.80339 0.46737 0.0
C403 C 1.00793 0.75314 0.52434 0.0
N404 N 0.03432 0.88441 0.48083 0.0
N405 N 0.02223 0.79046 0.52845 0.0
H406 H 0.43992 0.80205 0.69473 0.0
H407 H 0.56063 0.68661 0.57988 0.0
H408 H 0.53086 0.85517 0.63057 0.0
H409 H 0.45782 0.63398 0.62552 0.0
H410 H 0.55361 0.74645 0.60519 0.0
H411 H 0.44987 0.73821 0.67689 0.0
C412 C 0.4623 0.80013 0.67734 0.0
C413 C 0.48452 0.8338 0.6639 0.0
C414 C 0.53251 0.72189 0.60977 0.0
C415 C 0.49587 0.7614 0.64334 0.0
C416 C 0.53648 0.68758 0.59528 0.0
C417 C 0.50961 0.6552 0.60035 0.0
C418 C 0.50142 0.72418 0.62961 0.0
C419 C 0.47908 0.65832 0.62078 0.0
C420 C 0.46777 0.76384 0.66698 0.0
C421 C 0.51293 0.82992 0.64123 0.0
N422 N 0.47574 0.69233 0.63464 0.0
N423 N 0.5177 0.79445 0.63162 0.0
H424 H 0.85966 0.94589 0.76572 0.0
H425 H 0.04717 1.0027 0.65605 0.0
H426 H 0.96476 0.92616 0.80749 0.0
H427 H 0.94096 1.00675 0.61015 0.0
H428 H 0.01793 0.97749 0.71183 0.0
H429 H 0.88887 0.97066 0.70996 0.0
C430 C 0.88891 0.94686 0.76347 0.0
C431 C 0.90942 0.93369 0.79215 0.0
C432 C 1.00092 0.98386 0.68963 0.0
C433 C 0.9436 0.96246 0.72701 0.0
C434 C 0.01768 0.99843 0.65754 0.0
C435 C 0.99678 0.00713 0.62777 0.0
C436 C 0.96261 0.97792 0.6927 0.0
C437 C 0.95851 1.00063 0.63199 0.0
C438 C 0.90564 0.96092 0.73126 0.0
C439 C 0.94735 0.93541 0.78656 0.0
N440 N 0.94287 0.98668 0.66354 0.0
N441 N 0.963 0.94955 0.75506 0.0
H442 H 0.59897 0.08569 0.39376 0.0
H443 H 0.61835 0.15974 0.19531 0.0
H444 H 0.6243 0.20717 0.35958 0.0
H445 H 0.55184 0.05241 0.22945 0.0
H446 H 0.62148 0.1775 0.25532 0.0
H447 H 0.5812 0.07231 0.33419 0.0
C448 C 0.6001 0.10959 0.37369 0.0
C449 C 0.61303 0.14754 0.38133 0.0
C450 C 0.60586 0.15024 0.2497 0.0
C451 C 0.59373 0.13245 0.31324 0.0
C452 C 0.60434 0.13997 0.21554 0.0
C453 C 0.58517 0.10437 0.20763 0.0
C454 C 0.58867 0.12438 0.27628 0.0
C455 C 0.56692 0.08008 0.23462 0.0
C456 C 0.58999 0.10199 0.33979 0.0
C457 C 0.61425 0.17757 0.3546 0.0
N458 N 0.56958 0.09024 0.26791 0.0
N459 N 0.6053 0.1693 0.32153 0.0
H460 H 0.44314 0.65872 0.2882 0.0
H461 H 0.42075 0.57832 0.48831 0.0
H462 H 0.34072 0.64058 0.34321 0.0
H463 H 0.52572 0.61774 0.4406 0.0
H464 H 0.39124 0.60098 0.43496 0.0
H465 H 0.47468 0.64483 0.34349 0.0
C466 C 0.42751 0.65246 0.31211 0.0
C467 C 0.38955 0.65091 0.31162 0.0
C468 C 0.42074 0.60485 0.43616 0.0
C469 C 0.42482 0.63427 0.37429 0.0
C470 C 0.43761 0.59175 0.46661 0.0
C471 C 0.47576 0.59595 0.46888 0.0
C472 C 0.44212 0.62199 0.40757 0.0
C473 C 0.49621 0.61382 0.43996 0.0
C474 C 0.44536 0.64441 0.34354 0.0
C475 C 0.37016 0.64222 0.34286 0.0
N476 N 0.47913 0.62596 0.41041 0.0
N477 N 0.38797 0.63393 0.37295 0.0
H478 H 0.10074 0.5333 0.70735 0.0
H479 H 0.07273 0.48438 0.91108 0.0
H480 H 0.05487 0.4218 0.75585 0.0
H481 H 0.10227 0.59922 0.86111 0.0
H482 H 0.08573 0.45704 0.85671 0.0
H483 H 0.11922 0.55393 0.76487 0.0
C484 C 0.09497 0.51314 0.73023 0.0
C485 C 0.07578 0.47628 0.72745 0.0
C486 C 0.09057 0.48821 0.85792 0.0
C487 C 0.0966 0.49923 0.79283 0.0
C488 C 0.08368 0.50366 0.88905 0.0
C489 C 0.08631 0.54393 0.89013 0.0
C490 C 0.09992 0.51344 0.82794 0.0
C491 C 0.09991 0.56797 0.86093 0.0
C492 C 0.10559 0.52474 0.76295 0.0
C493 C 0.06921 0.45076 0.75739 0.0
N494 N 0.10553 0.55242 0.83074 0.0
N495 N 0.07919 0.46288 0.78903 0.0
H496 H 0.71806 0.9259 0.89234 0.0
H497 H 0.64631 0.02488 0.05657 0.0
H498 H 0.78948 0.96935 0.97274 0.0
H499 H 0.57818 0.99201 0.96999 0.0
H500 H 0.69775 1.00126 0.02881 0.0
H501 H 0.66605 0.94524 0.92273 0.0
C502 C 0.72275 0.93876 0.91683 0.0
C503 C 0.75835 0.94517 0.93021 0.0
C504 C 0.67157 0.9991 0.01585 0.0
C505 C 0.69836 0.96862 0.96521 0.0
C506 C 0.64196 0.01264 0.03178 0.0
C507 C 0.60734 0.01069 0.01585 0.0
C508 C 0.66701 0.98303 0.98353 0.0
C509 C 0.60403 0.99437 0.98353 0.0
C510 C 0.69295 0.9502 0.93409 0.0
C511 C 0.76258 0.96305 0.96166 0.0
N512 N 0.63315 0.9813 0.96867 0.0
N513 N 0.73319 0.97407 0.97793 0.0
H514 H 0.73703 0.17585 0.49075 0.0
H515 H 0.85694 0.00849 0.45752 0.0
H516 H 0.69364 0.06937 0.44723 0.0
H517 H 0.89639 0.10831 0.51237 0.0
H518 H 0.79635 0.02916 0.45527 0.0
H519 H 0.79466 0.15016 0.50148 0.0
C520 C 0.73938 0.14681 0.48392 0.0
C521 C 0.71039 0.12482 0.4679 0.0
C522 C 0.81818 0.04642 0.46802 0.0
C523 C 0.77676 0.09553 0.47948 0.0
C524 C 0.85284 0.03474 0.46911 0.0
C525 C 0.88185 0.05685 0.48492 0.0
C526 C 0.8125 0.08065 0.4826 0.0
C527 C 0.8748 0.09025 0.50011 0.0
C528 C 0.77245 0.13226 0.48985 0.0
C529 C 0.7154 0.08764 0.45908 0.0
N530 N 0.84092 0.10131 0.49832 0.0
N531 N 0.74802 0.07429 0.46476 0.0
H532 H 0.24247 0.69032 0.19057 0.0
H533 H 0.14778 0.61947 0.01838 0.0
H534 H 0.30588 0.68351 0.09864 0.0
H535 H 0.09196 0.66749 0.09881 0.0
H536 H 0.20633 0.64272 0.04516 0.0
H537 H 0.18684 0.68029 0.15635 0.0
C538 C 0.24455 0.68667 0.16308 0.0
C539 C 0.2786 0.68739 0.14738 0.0
C540 C 0.1812 0.64869 0.05647 0.0
C541 C 0.2151 0.67586 0.1079 0.0
C542 C 0.14786 0.63559 0.04114 0.0
C543 C 0.11498 0.64106 0.0567 0.0
C544 C 0.18134 0.66697 0.08756 0.0
C545 C 0.1166 0.66205 0.08622 0.0
C546 C 0.21286 0.68124 0.14346 0.0
C547 C 0.27997 0.68305 0.11158 0.0
N548 N 0.14912 0.67372 0.10091 0.0
N549 N 0.24854 0.67696 0.09302 0.0
H550 H 0.17178 0.45711 0.55422 0.0
H551 H 0.35928 0.46941 0.65577 0.0
H552 H 0.17794 0.45183 0.66623 0.0
H553 H 0.35219 0.51886 0.54998 0.0
H554 H 0.29271 0.46017 0.65963 0.0
H555 H 0.23787 0.47717 0.5511 0.0
C556 C 0.18708 0.46039 0.5781 0.0
C557 C 0.16952 0.45277 0.61052 0.0
C558 C 0.30566 0.47344 0.63567 0.0
C559 C 0.24479 0.47533 0.6072 0.0
C560 C 0.34356 0.47852 0.63344 0.0
C561 C 0.36102 0.49472 0.60248 0.0
C562 C 0.28504 0.48393 0.60647 0.0
C563 C 0.3396 0.50644 0.57433 0.0
C564 C 0.22465 0.47203 0.57632 0.0
C565 C 0.19043 0.45767 0.64072 0.0
N566 N 0.30259 0.50032 0.5768 0.0
N567 N 0.22705 0.46823 0.63834 0.0
H568 H 0.91247 0.80925 0.85648 0.0
H569 H 0.95252 0.69753 0.04252 0.0
H570 H 0.88936 0.85494 0.95307 0.0
H571 H 0.99112 0.66942 0.94396 0.0
H572 H 0.92596 0.75249 1.01189 0.0
H573 H 0.93728 0.75584 0.88917 0.0
C574 C 0.91276 0.80854 0.88458 0.0
C575 C 0.89904 0.83789 0.90155 0.0
C576 C 0.94029 0.73429 0.99701 0.0
C577 C 0.92738 0.77461 0.94002 0.0
C578 C 0.95553 0.70276 0.01455 0.0
C579 C 0.97439 0.67832 0.99609 0.0
C580 C 0.94343 0.74156 0.96051 0.0
C581 C 0.97706 0.68703 0.95969 0.0
C582 C 0.92689 0.77748 0.9034 0.0
C583 C 0.89936 0.83346 0.93839 0.0
N584 N 0.96184 0.71743 0.94338 0.0
N585 N 0.91329 0.80277 0.95621 0.0
H586 H 0.40259 0.7853 0.2216 0.0
H587 H 0.47158 0.92407 0.05496 0.0
H588 H 0.40299 0.74853 0.11772 0.0
H589 H 0.49957 0.95461 0.1588 0.0
H590 H 0.44756 0.85893 0.07866 0.0
H591 H 0.44056 0.84607 0.20096 0.0
C592 C 0.41133 0.78966 0.19466 0.0
C593 C 0.39919 0.76217 0.17118 0.0
C594 C 0.45919 0.87965 0.09637 0.0
C595 C 0.44188 0.83155 0.14738 0.0
C596 C 0.47274 0.917 0.08283 0.0
C597 C 0.48732 0.94489 0.10498 0.0
C598 C 0.45958 0.87005 0.13248 0.0
C599 C 0.48847 0.93393 0.14085 0.0
C600 C 0.43279 0.82439 0.18287 0.0
C601 C 0.41112 0.76932 0.13653 0.0
N602 N 0.47432 0.8974 0.1536 0.0
N603 N 0.43136 0.80345 0.12562 0.0
H604 H 0.02722 0.33195 0.62606 0.0
H605 H 0.10131 0.17221 0.53407 0.0
H606 H 0.09895 0.36357 0.53732 0.0
H607 H 0.98678 0.15656 0.55973 0.0
H608 H 0.10395 0.24165 0.54061 0.0
H609 H 0.01274 0.26715 0.60665 0.0
C610 C 0.03934 0.32586 0.60206 0.0
C611 C 0.06488 0.35356 0.58362 0.0
C612 C 0.07818 0.22306 0.54447 0.0
C613 C 0.04924 0.27862 0.5623 0.0
C614 C 0.07673 0.18351 0.54111 0.0
C615 C 0.04384 0.15885 0.54669 0.0
C616 C 0.04679 0.23779 0.55448 0.0
C617 C 0.01262 0.17484 0.55533 0.0
C618 C 0.03111 0.28862 0.59119 0.0
C619 C 0.08005 0.34306 0.5531 0.0
N620 N 0.01498 0.21341 0.55967 0.0
N621 N 0.07265 0.30616 0.54384 0.0
H622 H 0.53538 0.25787 0.49461 0.0
H623 H 0.60214 0.48563 0.49426 0.0
H624 H 0.64389 0.31108 0.46593 0.0
H625 H 0.4951 0.43095 0.52756 0.0
H626 H 0.61519 0.42364 0.4756 0.0
H627 H 0.51713 0.32257 0.49809 0.0
C628 C 0.55506 0.28337 0.48829 0.0
C629 C 0.591 0.27962 0.47986 0.0
C630 C 0.58873 0.4253 0.4867 0.0
C631 C 0.5709 0.3533 0.48455 0.0
C632 C 0.58125 0.4607 0.49736 0.0
C633 C 0.54762 0.46342 0.51286 0.0
C634 C 0.56241 0.39233 0.49163 0.0
C635 C 0.52153 0.43017 0.51604 0.0
C636 C 0.54479 0.32022 0.49048 0.0
C637 C 0.61581 0.31314 0.47233 0.0
N638 N 0.52959 0.39598 0.50579 0.0
N639 N 0.6054 0.3487 0.47517 0.0
loop_
_geom_bond_atom_site_label_1
_geom_bond_atom_site_label_2
_geom_bond_distance
_geom_bond_site_symmetry_2
_ccdc_geom_bond_type
H0 C3 0.929 . S
H1 C6 0.929 . S
H2 C8 0.930 . S
C3 H0 0.929 . S
C3 C4 1.398 . S
C3 C5 1.396 . S
C4 C3 1.398 . S
C4 C8 1.407 . S
C5 C3 1.396 . S
C5 C6 1.394 . S
C6 H1 0.929 . S
C6 C5 1.394 . S
C6 C7 1.382 . S
C7 C6 1.382 . S
C7 C8 1.392 . S
C7 N9 1.420 . S
C8 H2 0.930 . S
C8 C4 1.407 . S
C8 C7 1.392 . S
N9 C7 1.420 . S
N9 C10 1.244 . S
C10 N9 1.244 . S
H11 C14 0.929 . S
H12 C17 0.929 . S
H13 C19 0.930 . S
C14 H11 0.929 . S
C14 C15 1.398 . S
C14 C16 1.396 . S
C15 C14 1.398 . S
C15 C19 1.407 . S
C16 C14 1.396 . S
C16 C17 1.394 . S
C17 H12 0.929 . S
C17 C16 1.394 . S
C17 C18 1.382 . S
C18 C17 1.382 . S
C18 C19 1.392 . S
C18 N20 1.420 . S
C19 H13 0.930 . S
C19 C15 1.407 . S
C19 C18 1.392 . S
N20 C18 1.420 . S
N20 C21 1.244 . S
C21 N20 1.244 . S
H22 C25 0.929 . S
H23 C28 0.929 . S
H24 C30 0.930 . S
C25 H22 0.929 . S
C25 C26 1.398 . S
C25 C27 1.396 . S
C26 C25 1.398 . S
C26 C30 1.407 . S
C27 C25 1.396 . S
C27 C28 1.394 . S
C28 H23 0.929 . S
C28 C27 1.394 . S
C28 C29 1.382 . S
C29 C28 1.382 . S
C29 C30 1.392 . S
C29 N31 1.420 . S
C30 H24 0.930 . S
C30 C26 1.407 . S
C30 C29 1.392 . S
N31 C29 1.420 . S
N31 C32 1.244 . S
C32 N31 1.244 . S
H33 C36 0.929 . S
H34 C39 0.929 . S
H35 C41 0.930 . S
C36 H33 0.929 . S
C36 C37 1.398 . S
C36 C38 1.396 . S
C37 C36 1.398 . S
C37 C41 1.407 . S
C38 C36 1.396 . S
C38 C39 1.394 . S
C39 H34 0.929 . S
C39 C38 1.394 . S
C39 C40 1.382 . S
C40 C39 1.382 . S
C40 C41 1.392 . S
C40 N42 1.420 . S
C41 H35 0.930 . S
C41 C37 1.407 . S
C41 C40 1.392 . S
N42 C40 1.420 . S
N42 C43 1.244 . S
C43 N42 1.244 . S
H44 C47 0.929 . S
H45 C50 0.929 . S
H46 C52 0.930 . S
C47 H44 0.929 . S
C47 C48 1.398 . S
C47 C49 1.396 . S
C48 C47 1.398 . S
C48 C52 1.407 . S
C49 C47 1.396 . S
C49 C50 1.394 . S
C50 H45 0.929 . S
C50 C49 1.394 . S
C50 C51 1.382 . S
C51 C50 1.382 . S
C51 C52 1.392 . S
C51 N53 1.420 . S
C52 H46 0.930 . S
C52 C48 1.407 . S
C52 C51 1.392 . S
N53 C51 1.420 . S
N53 C54 1.244 . S
C54 N53 1.244 . S
H55 C58 0.929 . S
H56 C61 0.929 . S
H57 C63 0.930 . S
C58 H55 0.929 . S
C58 C59 1.398 . S
C58 C60 1.396 . S
C59 C58 1.398 . S
C59 C63 1.407 . S
C60 C58 1.396 . S
C60 C61 1.394 . S
C61 H56 0.929 . S
C61 C60 1.394 . S
C61 C62 1.382 . S
C62 C61 1.382 . S
C62 C63 1.392 . S
C62 N64 1.420 . S
C63 H57 0.930 . S
C63 C59 1.407 . S
C63 C62 1.392 . S
N64 C62 1.420 . S
N64 C65 1.244 . S
C65 N64 1.244 . S
H66 C69 0.929 . S
H67 C72 0.929 . S
H68 C74 0.930 . S
C69 H66 0.929 . S
C69 C70 1.398 . S
C69 C71 1.396 . S
C70 C69 1.398 . S
C70 C74 1.407 . S
C71 C69 1.396 . S
C71 C72 1.394 . S
C72 H67 0.929 . S
C72 C71 1.394 . S
C72 C73 1.382 . S
C73 C72 1.382 . S
C73 C74 1.392 . S
C73 N75 1.420 . S
C74 H68 0.930 . S
C74 C70 1.407 . S
C74 C73 1.392 . S
N75 C73 1.420 . S
N75 C76 1.244 . S
C76 N75 1.244 . S
H77 C80 0.929 . S
H78 C83 0.929 . S
H79 C85 0.930 . S
C80 H77 0.929 . S
C80 C81 1.398 . S
C80 C82 1.396 . S
C81 C80 1.398 . S
C81 C85 1.407 . S
C82 C80 1.396 . S
C82 C83 1.394 . S
C83 H78 0.929 . S
C83 C82 1.394 . S
C83 C84 1.382 . S
C84 C83 1.382 . S
C84 C85 1.392 . S
C84 N86 1.420 . S
C85 H79 0.930 . S
C85 C81 1.407 . S
C85 C84 1.392 . S
N86 C84 1.420 . S
N86 C87 1.244 . S
C87 N86 1.244 . S
Co88 N93 2.057 . S
Co88 O105 2.021 . S
Co88 O108 2.062 . S
Co88 O112 2.117 1_545 S
Co88 O113 2.020 . S
C89 O109 1.259 1_655 S
C89 O112 1.258 . S
Co90 N99 2.057 . S
Co90 O106 2.117 . S
Co90 O107 2.020 . S
Co90 O109 2.021 1_545 S
Co90 O114 2.062 . S
C91 N93 1.316 . S
C91 N94 1.347 . S
C91 H96 0.931 . S
C92 N93 1.375 . S
C92 C95 1.350 . S
C92 H97 0.930 1_545 S
N93 Co88 2.057 . S
N93 C91 1.316 . S
N93 C92 1.375 . S
N94 C91 1.347 . S
N94 C95 1.373 . S
C95 C92 1.350 . S
C95 N94 1.373 . S
C95 H116 0.931 . S
H96 C91 0.931 . S
H97 C92 0.930 1_565 S
C98 O105 1.259 1_455 S
C98 O106 1.258 . S
N99 Co90 2.057 . S
N99 C100 1.316 1_545 S
N99 C101 1.375 . S
C100 N99 1.316 1_565 S
C100 N102 1.347 1_565 S
C100 H111 0.931 . S
C101 N99 1.375 . S
C101 C103 1.350 . S
C101 H110 0.930 . S
N102 C100 1.347 1_545 S
N102 C103 1.373 . S
C103 C101 1.350 . S
C103 N102 1.373 . S
C103 H117 0.931 . S
C104 O107 1.256 . S
C104 O108 1.255 1_455 S
O105 Co88 2.021 . S
O105 C98 1.259 1_655 S
O106 Co90 2.117 . S
O106 C98 1.258 . S
O107 Co90 2.020 . S
O107 C104 1.256 . S
O108 Co88 2.062 . S
O108 C104 1.255 1_655 S
O109 C89 1.259 1_455 S
O109 Co90 2.021 1_565 S
H110 C101 0.930 . S
H111 C100 0.931 . S
O112 Co88 2.117 1_565 S
O112 C89 1.258 . S
O113 Co88 2.020 . S
O113 C115 1.256 . S
O114 Co90 2.062 . S
O114 C115 1.255 1_455 S
C115 O113 1.256 . S
C115 O114 1.255 1_655 S
H116 C95 0.931 . S
H117 C103 0.931 . S
Co118 N123 2.057 1_554 S
Co118 O135 2.021 1_554 S
Co118 O138 2.062 . S
Co118 O142 2.117 1_545 S
Co118 O143 2.020 . S
C119 O139 1.259 . S
C119 O142 1.258 . S
Co120 N129 2.057 . S
Co120 O136 2.117 . S
Co120 O137 2.020 . S
Co120 O139 2.021 1_545 S
Co120 O144 2.062 . S
C121 N123 1.316 . S
C121 N124 1.347 1_545 S
C121 H126 0.931 . S
C122 N123 1.375 1_565 S
C122 C125 1.350 . S
C122 H127 0.930 . S
N123 Co118 2.057 1_556 S
N123 C121 1.316 . S
N123 C122 1.375 1_545 S
N124 C121 1.347 1_565 S
N124 C125 1.373 . S
C125 C122 1.350 . S
C125 N124 1.373 . S
C125 H146 0.931 . S
H126 C121 0.931 . S
H127 C122 0.930 . S
C128 O135 1.259 1_554 S
C128 O136 1.258 . S
N129 Co120 2.057 . S
N129 C130 1.316 . S
N129 C131 1.375 . S
C130 N129 1.316 . S
C130 N132 1.347 . S
C130 H141 0.931 . S
C131 N129 1.375 . S
C131 C133 1.350 . S
C131 H140 0.930 . S
N132 C130 1.347 . S
N132 C133 1.373 . S
C133 C131 1.350 . S
C133 N132 1.373 . S
C133 H147 0.931 . S
C134 O137 1.256 . S
C134 O138 1.255 . S
O135 Co118 2.021 1_556 S
O135 C128 1.259 1_556 S
O136 Co120 2.117 . S
O136 C128 1.258 . S
O137 Co120 2.020 . S
O137 C134 1.256 . S
O138 Co118 2.062 . S
O138 C134 1.255 . S
O139 C119 1.259 . S
O139 Co120 2.021 1_565 S
H140 C131 0.930 . S
H141 C130 0.931 . S
O142 Co118 2.117 1_565 S
O142 C119 1.258 . S
O143 Co118 2.020 . S
O143 C145 1.256 . S
O144 Co120 2.062 . S
O144 C145 1.255 . S
C145 O143 1.256 . S
C145 O144 1.255 . S
H146 C125 0.931 . S
H147 C133 0.931 . S
Co148 N153 2.057 . S
Co148 O165 2.021 . S
Co148 O168 2.062 . S
Co148 O172 2.117 . S
Co148 O173 2.020 . S
C149 O169 1.259 . S
C149 O172 1.258 . S
Co150 N159 2.057 . S
Co150 O166 2.117 . S
Co150 O167 2.020 . S
Co150 O169 2.021 . S
Co150 O174 2.062 . S
C151 N153 1.316 . S
C151 N154 1.347 . S
C151 H156 0.931 . S
C152 N153 1.375 . S
C152 C155 1.350 . S
C152 H157 0.930 . S
N153 Co148 2.057 . S
N153 C151 1.316 . S
N153 C152 1.375 . S
N154 C151 1.347 . S
N154 C155 1.373 . S
C155 C152 1.350 . S
C155 N154 1.373 . S
C155 H176 0.931 . S
H156 C151 0.931 . S
H157 C152 0.930 . S
C158 O165 1.259 . S
C158 O166 1.258 . S
N159 Co150 2.057 . S
N159 C160 1.316 . S
N159 C161 1.375 . S
C160 N159 1.316 . S
C160 N162 1.347 . S
C160 H171 0.931 . S
C161 N159 1.375 . S
C161 C163 1.350 . S
C161 H170 0.930 . S
N162 C160 1.347 . S
N162 C163 1.373 . S
C163 C161 1.350 . S
C163 N162 1.373 . S
C163 H177 0.931 . S
C164 O167 1.256 . S
C164 O168 1.255 . S
O165 Co148 2.021 . S
O165 C158 1.259 . S
O166 Co150 2.117 . S
O166 C158 1.258 . S
O167 Co150 2.020 . S
O167 C164 1.256 . S
O168 Co148 2.062 . S
O168 C164 1.255 . S
O169 C149 1.259 . S
O169 Co150 2.021 . S
H170 C161 0.930 . S
H171 C160 0.931 . S
O172 Co148 2.117 . S
O172 C149 1.258 . S
O173 Co148 2.020 . S
O173 C175 1.256 . S
O174 Co150 2.062 . S
O174 C175 1.255 . S
C175 O173 1.256 . S
C175 O174 1.255 . S
H176 C155 0.931 . S
H177 C163 0.931 . S
Co178 N183 2.057 . S
Co178 O195 2.021 1_556 S
Co178 O198 2.062 1_556 S
Co178 O202 2.117 1_455 S
Co178 O203 2.020 . S
C179 O199 1.259 . S
C179 O202 1.258 1_554 S
Co180 N189 2.057 . S
Co180 O196 2.117 . S
Co180 O197 2.020 . S
Co180 O199 2.021 1_455 S
Co180 O204 2.062 . S
C181 N183 1.316 . S
C181 N184 1.347 . S
C181 H186 0.931 . S
C182 N183 1.375 . S
C182 C185 1.350 . S
C182 H187 0.930 1_455 S
N183 Co178 2.057 . S
N183 C181 1.316 . S
N183 C182 1.375 . S
N184 C181 1.347 . S
N184 C185 1.373 . S
C185 C182 1.350 . S
C185 N184 1.373 . S
C185 H206 0.931 . S
H186 C181 0.931 . S
H187 C182 0.930 1_655 S
C188 O195 1.259 . S
C188 O196 1.258 . S
N189 Co180 2.057 . S
N189 C190 1.316 1_455 S
N189 C191 1.375 . S
C190 N189 1.316 1_655 S
C190 N192 1.347 . S
C190 H201 0.931 . S
C191 N189 1.375 . S
C191 C193 1.350 . S
C191 H200 0.930 . S
N192 C190 1.347 . S
N192 C193 1.373 1_655 S
C193 C191 1.350 . S
C193 N192 1.373 1_455 S
C193 H207 0.931 . S
C194 O197 1.256 . S
C194 O198 1.255 . S
O195 Co178 2.021 1_554 S
O195 C188 1.259 . S
O196 Co180 2.117 . S
O196 C188 1.258 . S
O197 Co180 2.020 . S
O197 C194 1.256 . S
O198 Co178 2.062 1_554 S
O198 C194 1.255 . S
O199 C179 1.259 . S
O199 Co180 2.021 1_655 S
H200 C191 0.930 . S
H201 C190 0.931 . S
O202 Co178 2.117 1_655 S
O202 C179 1.258 1_556 S
O203 Co178 2.020 . S
O203 C205 1.256 1_556 S
O204 Co180 2.062 . S
O204 C205 1.255 . S
C205 O203 1.256 1_554 S
C205 O204 1.255 . S
H206 C185 0.931 . S
H207 C193 0.931 . S
H208 C214 0.930 . S
H209 C218 0.930 . S
H210 C223 0.929 . S
H211 C221 0.929 . S
H212 C216 0.929 . S
H213 C222 0.929 . S
C214 H208 0.930 . S
C214 C215 1.367 . S
C214 C222 1.378 . S
C215 C214 1.367 . S
C215 C223 1.433 . S
C216 H212 0.929 . S
C216 C218 1.378 . S
C216 C220 1.350 . S
C217 C220 1.463 . S
C217 C222 1.350 . S
C217 N225 1.427 . S
C218 H209 0.930 . S
C218 C216 1.378 . S
C218 C219 1.367 . S
C219 C218 1.367 . S
C219 C221 1.433 . S
C220 C216 1.350 . S
C220 C217 1.463 . S
C220 N224 1.427 . S
C221 H211 0.929 . S
C221 C219 1.433 . S
C221 N224 1.384 . S
C222 H213 0.929 . S
C222 C214 1.378 . S
C222 C217 1.350 . S
C223 H210 0.929 . S
C223 C215 1.433 . S
C223 N225 1.384 . S
N224 C220 1.427 . S
N224 C221 1.384 . S
N225 C217 1.427 . S
N225 C223 1.384 . S
H226 C232 0.930 . S
H227 C236 0.930 1_545 S
H228 C241 0.929 . S
H229 C239 0.929 . S
H230 C234 0.929 . S
H231 C240 0.929 . S
C232 H226 0.930 . S
C232 C233 1.367 . S
C232 C240 1.378 . S
C233 C232 1.367 . S
C233 C241 1.433 . S
C234 H230 0.929 . S
C234 C236 1.378 . S
C234 C238 1.350 . S
C235 C238 1.463 . S
C235 C240 1.350 . S
C235 N243 1.427 . S
C236 H227 0.930 1_565 S
C236 C234 1.378 . S
C236 C237 1.367 . S
C237 C236 1.367 . S
C237 C239 1.433 . S
C238 C234 1.350 . S
C238 C235 1.463 . S
C238 N242 1.427 . S
C239 H229 0.929 . S
C239 C237 1.433 . S
C239 N242 1.384 . S
C240 H231 0.929 . S
C240 C232 1.378 . S
C240 C235 1.350 . S
C241 H228 0.929 . S
C241 C233 1.433 . S
C241 N243 1.384 . S
N242 C238 1.427 . S
N242 C239 1.384 . S
N243 C235 1.427 . S
N243 C241 1.384 . S
H244 C250 0.930 . S
H245 C254 0.930 . S
H246 C259 0.929 . S
H247 C257 0.929 . S
H248 C252 0.929 . S
H249 C258 0.929 . S
C250 H244 0.930 . S
C250 C251 1.367 . S
C250 C258 1.378 . S
C251 C250 1.367 . S
C251 C259 1.433 . S
C252 H248 0.929 . S
C252 C254 1.378 . S
C252 C256 1.350 . S
C253 C256 1.463 . S
C253 C258 1.350 . S
C253 N261 1.427 . S
C254 H245 0.930 . S
C254 C252 1.378 . S
C254 C255 1.367 . S
C255 C254 1.367 . S
C255 C257 1.433 . S
C256 C252 1.350 . S
C256 C253 1.463 . S
C256 N260 1.427 . S
C257 H247 0.929 . S
C257 C255 1.433 . S
C257 N260 1.384 . S
C258 H249 0.929 . S
C258 C250 1.378 . S
C258 C253 1.350 . S
C259 H246 0.929 . S
C259 C251 1.433 . S
C259 N261 1.384 . S
N260 C256 1.427 . S
N260 C257 1.384 . S
N261 C253 1.427 . S
N261 C259 1.384 . S
H262 C268 0.930 . S
H263 C272 0.930 1_455 S
H264 C277 0.929 . S
H265 C275 0.929 . S
H266 C270 0.929 1_455 S
H267 C276 0.929 . S
C268 H262 0.930 . S
C268 C269 1.367 . S
C268 C276 1.378 . S
C269 C268 1.367 . S
C269 C277 1.433 . S
C270 H266 0.929 1_655 S
C270 C272 1.378 . S
C270 C274 1.350 . S
C271 C274 1.463 . S
C271 C276 1.350 . S
C271 N279 1.427 . S
C272 H263 0.930 1_655 S
C272 C270 1.378 . S
C272 C273 1.367 . S
C273 C272 1.367 . S
C273 C275 1.433 . S
C274 C270 1.350 . S
C274 C271 1.463 . S
C274 N278 1.427 . S
C275 H265 0.929 . S
C275 C273 1.433 . S
C275 N278 1.384 . S
C276 H267 0.929 . S
C276 C268 1.378 . S
C276 C271 1.350 . S
C277 H264 0.929 . S
C277 C269 1.433 . S
C277 N279 1.384 . S
N278 C274 1.427 . S
N278 C275 1.384 . S
N279 C271 1.427 . S
N279 C277 1.384 . S
H280 C286 0.930 . S
H281 C290 0.930 . S
H282 C295 0.929 . S
H283 C293 0.929 . S
H284 C288 0.929 . S
H285 C294 0.929 . S
C286 H280 0.930 . S
C286 C287 1.367 . S
C286 C294 1.378 . S
C287 C286 1.367 . S
C287 C295 1.433 . S
C288 H284 0.929 . S
C288 C290 1.378 . S
C288 C292 1.350 . S
C289 C292 1.463 . S
C289 C294 1.350 . S
C289 N297 1.427 . S
C290 H281 0.930 . S
C290 C288 1.378 . S
C290 C291 1.367 . S
C291 C290 1.367 . S
C291 C293 1.433 . S
C292 C288 1.350 . S
C292 C289 1.463 . S
C292 N296 1.427 . S
C293 H283 0.929 . S
C293 C291 1.433 . S
C293 N296 1.384 . S
C294 H285 0.929 . S
C294 C286 1.378 . S
C294 C289 1.350 . S
C295 H282 0.929 . S
C295 C287 1.433 . S
C295 N297 1.384 . S
N296 C292 1.427 . S
N296 C293 1.384 . S
N297 C289 1.427 . S
N297 C295 1.384 . S
H298 C304 0.930 1_545 S
H299 C308 0.930 . S
H300 C313 0.929 . S
H301 C311 0.929 . S
H302 C306 0.929 . S
H303 C312 0.929 1_545 S
C304 H298 0.930 1_565 S
C304 C305 1.367 . S
C304 C312 1.378 . S
C305 C304 1.367 . S
C305 C313 1.433 . S
C306 H302 0.929 . S
C306 C308 1.378 . S
C306 C310 1.350 . S
C307 C310 1.463 . S
C307 C312 1.350 . S
C307 N315 1.427 . S
C308 H299 0.930 . S
C308 C306 1.378 . S
C308 C309 1.367 . S
C309 C308 1.367 . S
C309 C311 1.433 1_565 S
C310 C306 1.350 . S
C310 C307 1.463 . S
C310 N314 1.427 1_565 S
C311 H301 0.929 . S
C311 C309 1.433 1_545 S
C311 N314 1.384 . S
C312 H303 0.929 1_565 S
C312 C304 1.378 . S
C312 C307 1.350 . S
C313 H300 0.929 . S
C313 C305 1.433 . S
C313 N315 1.384 . S
N314 C310 1.427 1_545 S
N314 C311 1.384 . S
N315 C307 1.427 . S
N315 C313 1.384 . S
H316 C322 0.930 . S
H317 C326 0.930 . S
H318 C331 0.929 . S
H319 C329 0.927 1_554 S
H320 C324 0.929 . S
H321 C330 0.929 . S
C322 H316 0.930 . S
C322 C323 1.367 . S
C322 C330 1.378 . S
C323 C322 1.367 . S
C323 C331 1.433 . S
C324 H320 0.929 . S
C324 C326 1.378 . S
C324 C328 1.350 . S
C325 C328 1.463 . S
C325 C330 1.350 . S
C325 N333 1.427 . S
C326 H317 0.930 . S
C326 C324 1.378 . S
C326 C327 1.367 . S
C327 C326 1.367 . S
C327 C329 1.434 . S
C328 C324 1.350 . S
C328 C325 1.463 . S
C328 N332 1.427 . S
C329 H319 0.927 1_556 S
C329 C327 1.434 . S
C329 N332 1.385 . S
C330 H321 0.929 . S
C330 C322 1.378 . S
C330 C325 1.350 . S
C331 H318 0.929 . S
C331 C323 1.433 . S
C331 N333 1.384 . S
N332 C328 1.427 . S
N332 C329 1.385 . S
N333 C325 1.427 . S
N333 C331 1.384 . S
H334 C340 0.930 . S
H335 C344 0.930 . S
H336 C349 0.929 . S
H337 C347 0.929 . S
H338 C342 0.929 . S
H339 C348 0.929 . S
C340 H334 0.930 . S
C340 C341 1.367 . S
C340 C348 1.378 . S
C341 C340 1.367 . S
C341 C349 1.433 . S
C342 H338 0.929 . S
C342 C344 1.378 . S
C342 C346 1.350 . S
C343 C346 1.463 . S
C343 C348 1.350 . S
C343 N351 1.427 . S
C344 H335 0.930 . S
C344 C342 1.378 . S
C344 C345 1.367 . S
C345 C344 1.367 . S
C345 C347 1.433 . S
C346 C342 1.350 . S
C346 C343 1.463 . S
C346 N350 1.427 . S
C347 H337 0.929 . S
C347 C345 1.433 . S
C347 N350 1.384 . S
C348 H339 0.929 . S
C348 C340 1.378 . S
C348 C343 1.350 . S
C349 H336 0.929 . S
C349 C341 1.433 . S
C349 N351 1.384 . S
N350 C346 1.427 . S
N350 C347 1.384 . S
N351 C343 1.427 . S
N351 C349 1.384 . S
H352 C358 0.930 . S
H353 C362 0.930 . S
H354 C367 0.929 . S
H355 C365 0.929 . S
H356 C360 0.929 . S
H357 C366 0.929 . S
C358 H352 0.930 . S
C358 C359 1.367 . S
C358 C366 1.378 . S
C359 C358 1.367 . S
C359 C367 1.433 . S
C360 H356 0.929 . S
C360 C362 1.378 . S
C360 C364 1.350 . S
C361 C364 1.463 . S
C361 C366 1.350 . S
C361 N369 1.427 . S
C362 H353 0.930 . S
C362 C360 1.378 . S
C362 C363 1.367 . S
C363 C362 1.367 . S
C363 C365 1.433 . S
C364 C360 1.350 . S
C364 C361 1.463 . S
C364 N368 1.427 . S
C365 H355 0.929 . S
C365 C363 1.433 . S
C365 N368 1.384 . S
C366 H357 0.929 . S
C366 C358 1.378 . S
C366 C361 1.350 . S
C367 H354 0.929 . S
C367 C359 1.433 . S
C367 N369 1.384 . S
N368 C364 1.427 . S
N368 C365 1.384 . S
N369 C361 1.427 . S
N369 C367 1.384 . S
H370 C376 0.930 . S
H371 C380 0.930 . S
H372 C385 0.929 . S
H373 C383 0.929 . S
H374 C378 0.929 . S
H375 C384 0.925 1_554 S
C376 H370 0.930 . S
C376 C377 1.367 . S
C376 C384 1.378 . S
C377 C376 1.367 . S
C377 C385 1.433 . S
C378 H374 0.929 . S
C378 C380 1.378 . S
C378 C382 1.350 . S
C379 C382 1.463 . S
C379 C384 1.350 . S
C379 N387 1.427 . S
C380 H371 0.930 . S
C380 C378 1.378 . S
C380 C381 1.367 1_556 S
C381 C380 1.367 1_554 S
C381 C383 1.433 . S
C382 C378 1.350 . S
C382 C379 1.463 . S
C382 N386 1.427 1_556 S
C383 H373 0.929 . S
C383 C381 1.433 . S
C383 N386 1.384 . S
C384 H375 0.925 1_556 S
C384 C376 1.378 . S
C384 C379 1.350 . S
C385 H372 0.929 . S
C385 C377 1.433 . S
C385 N387 1.384 . S
N386 C382 1.427 1_554 S
N386 C383 1.384 . S
N387 C379 1.427 . S
N387 C385 1.384 . S
H388 C394 0.930 . S
H389 C398 0.930 . S
H390 C403 0.929 . S
H391 C401 0.929 . S
H392 C396 0.929 . S
H393 C402 0.929 . S
C394 H388 0.930 . S
C394 C395 1.367 . S
C394 C402 1.378 . S
C395 C394 1.367 . S
C395 C403 1.433 . S
C396 H392 0.929 . S
C396 C398 1.378 . S
C396 C400 1.350 . S
C397 C400 1.463 . S
C397 C402 1.350 . S
C397 N405 1.427 . S
C398 H389 0.930 . S
C398 C396 1.378 . S
C398 C399 1.367 . S
C399 C398 1.367 . S
C399 C401 1.433 . S
C400 C396 1.350 . S
C400 C397 1.463 . S
C400 N404 1.427 . S
C401 H391 0.929 . S
C401 C399 1.433 . S
C401 N404 1.384 . S
C402 H393 0.929 . S
C402 C394 1.378 . S
C402 C397 1.350 . S
C403 H390 0.929 . S
C403 C395 1.433 . S
C403 N405 1.384 . S
N404 C400 1.427 . S
N404 C401 1.384 . S
N405 C397 1.427 . S
N405 C403 1.384 . S
H406 C412 0.930 . S
H407 C416 0.930 . S
H408 C421 0.929 . S
H409 C419 0.929 . S
H410 C414 0.929 . S
H411 C420 0.929 . S
C412 H406 0.930 . S
C412 C413 1.367 . S
C412 C420 1.378 . S
C413 C412 1.367 . S
C413 C421 1.433 . S
C414 H410 0.929 . S
C414 C416 1.378 . S
C414 C418 1.350 . S
C415 C418 1.463 . S
C415 C420 1.350 . S
C415 N423 1.427 . S
C416 H407 0.930 . S
C416 C414 1.378 . S
C416 C417 1.367 . S
C417 C416 1.367 . S
C417 C419 1.433 . S
C418 C414 1.350 . S
C418 C415 1.463 . S
C418 N422 1.427 . S
C419 H409 0.929 . S
C419 C417 1.433 . S
C419 N422 1.384 . S
C420 H411 0.929 . S
C420 C412 1.378 . S
C420 C415 1.350 . S
C421 H408 0.929 . S
C421 C413 1.433 . S
C421 N423 1.384 . S
N422 C418 1.427 . S
N422 C419 1.384 . S
N423 C415 1.427 . S
N423 C421 1.384 . S
H424 C430 0.930 . S
H425 C434 0.930 1_455 S
H426 C439 0.929 1_545 S
H427 C437 0.929 . S
H428 C432 0.930 1_455 S
H429 C438 0.929 . S
C430 H424 0.930 . S
C430 C431 1.367 . S
C430 C438 1.378 . S
C431 C430 1.367 . S
C431 C439 1.433 . S
C432 H428 0.930 1_655 S
C432 C434 1.378 . S
C432 C436 1.350 1_545 S
C433 C436 1.463 . S
C433 C438 1.350 . S
C433 N441 1.427 1_565 S
C434 H425 0.930 1_655 S
C434 C432 1.378 . S
C434 C435 1.359 1_545 S
C435 C434 1.359 1_565 S
C435 C437 1.443 . S
C436 C432 1.350 1_565 S
C436 C433 1.463 . S
C436 N440 1.427 . S
C437 H427 0.929 . S
C437 C435 1.443 . S
C437 N440 1.384 . S
C438 H429 0.929 . S
C438 C430 1.378 . S
C438 C433 1.350 . S
C439 H426 0.929 1_565 S
C439 C431 1.433 . S
C439 N441 1.384 1_565 S
N440 C436 1.427 . S
N440 C437 1.384 . S
N441 C433 1.427 1_545 S
N441 C439 1.384 1_545 S
H442 C448 0.930 . S
H443 C452 0.930 . S
H444 C457 0.929 . S
H445 C455 0.929 . S
H446 C450 0.929 . S
H447 C456 0.929 . S
C448 H442 0.930 . S
C448 C449 1.367 . S
C448 C456 1.378 . S
C449 C448 1.367 . S
C449 C457 1.433 . S
C450 H446 0.929 . S
C450 C452 1.378 . S
C450 C454 1.350 . S
C451 C454 1.463 . S
C451 C456 1.350 . S
C451 N459 1.427 . S
C452 H443 0.930 . S
C452 C450 1.378 . S
C452 C453 1.367 . S
C453 C452 1.367 . S
C453 C455 1.433 . S
C454 C450 1.350 . S
C454 C451 1.463 . S
C454 N458 1.427 . S
C455 H445 0.929 . S
C455 C453 1.433 . S
C455 N458 1.384 . S
C456 H447 0.929 . S
C456 C448 1.378 . S
C456 C451 1.350 . S
C457 H444 0.929 . S
C457 C449 1.433 . S
C457 N459 1.384 . S
N458 C454 1.427 . S
N458 C455 1.384 . S
N459 C451 1.427 . S
N459 C457 1.384 . S
H460 C466 0.930 . S
H461 C470 0.930 . S
H462 C475 0.929 . S
H463 C473 0.929 . S
H464 C468 0.929 . S
H465 C474 0.929 . S
C466 H460 0.930 . S
C466 C467 1.367 . S
C466 C474 1.378 . S
C467 C466 1.367 . S
C467 C475 1.433 . S
C468 H464 0.929 . S
C468 C470 1.378 . S
C468 C472 1.350 . S
C469 C472 1.463 . S
C469 C474 1.350 . S
C469 N477 1.427 . S
C470 H461 0.930 . S
C470 C468 1.378 . S
C470 C471 1.367 . S
C471 C470 1.367 . S
C471 C473 1.433 . S
C472 C468 1.350 . S
C472 C469 1.463 . S
C472 N476 1.427 . S
C473 H463 0.929 . S
C473 C471 1.433 . S
C473 N476 1.384 . S
C474 H465 0.929 . S
C474 C466 1.378 . S
C474 C469 1.350 . S
C475 H462 0.929 . S
C475 C467 1.433 . S
C475 N477 1.384 . S
N476 C472 1.427 . S
N476 C473 1.384 . S
N477 C469 1.427 . S
N477 C475 1.384 . S
H478 C484 0.930 . S
H479 C488 0.930 . S
H480 C493 0.929 . S
H481 C491 0.929 . S
H482 C486 0.929 . S
H483 C492 0.929 . S
C484 H478 0.930 . S
C484 C485 1.367 . S
C484 C492 1.378 . S
C485 C484 1.367 . S
C485 C493 1.433 . S
C486 H482 0.929 . S
C486 C488 1.378 . S
C486 C490 1.350 . S
C487 C490 1.463 . S
C487 C492 1.350 . S
C487 N495 1.427 . S
C488 H479 0.930 . S
C488 C486 1.378 . S
C488 C489 1.367 . S
C489 C488 1.367 . S
C489 C491 1.433 . S
C490 C486 1.350 . S
C490 C487 1.463 . S
C490 N494 1.427 . S
C491 H481 0.929 . S
C491 C489 1.433 . S
C491 N494 1.384 . S
C492 H483 0.929 . S
C492 C484 1.378 . S
C492 C487 1.350 . S
C493 H480 0.929 . S
C493 C485 1.433 . S
C493 N495 1.384 . S
N494 C490 1.427 . S
N494 C491 1.384 . S
N495 C487 1.427 . S
N495 C493 1.384 . S
H496 C502 0.930 1_545 S
H497 C506 0.930 . S
H498 C511 0.929 1_554 S
H499 C509 0.929 . S
H500 C504 0.929 . S
H501 C510 0.944 . S
C502 H496 0.930 1_565 S
C502 C503 1.367 . S
C502 C510 1.369 1_565 S
C503 C502 1.367 . S
C503 C511 1.433 . S
C504 H500 0.929 . S
C504 C506 1.378 . S
C504 C508 1.350 1_554 S
C505 C508 1.463 . S
C505 C510 1.343 1_565 S
C505 N513 1.427 1_556 S
C506 H497 0.930 . S
C506 C504 1.378 . S
C506 C507 1.367 1_565 S
C507 C506 1.367 1_545 S
C507 C509 1.433 1_554 S
C508 C504 1.350 1_556 S
C508 C505 1.463 . S
C508 N512 1.427 1_565 S
C509 H499 0.929 . S
C509 C507 1.433 1_556 S
C509 N512 1.384 . S
C510 H501 0.944 . S
C510 C502 1.369 1_545 S
C510 C505 1.343 1_545 S
C511 H498 0.929 1_556 S
C511 C503 1.433 . S
C511 N513 1.384 1_556 S
N512 C508 1.427 1_545 S
N512 C509 1.384 . S
N513 C505 1.427 1_554 S
N513 C511 1.384 1_554 S
H514 C520 0.930 . S
H515 C524 0.930 . S
H516 C529 0.929 . S
H517 C527 0.929 . S
H518 C522 0.929 . S
H519 C528 0.929 . S
C520 H514 0.930 . S
C520 C521 1.367 . S
C520 C528 1.378 . S
C521 C520 1.367 . S
C521 C529 1.433 . S
C522 H518 0.929 . S
C522 C524 1.378 . S
C522 C526 1.350 . S
C523 C526 1.463 . S
C523 C528 1.350 . S
C523 N531 1.427 . S
C524 H515 0.930 . S
C524 C522 1.378 . S
C524 C525 1.367 . S
C525 C524 1.367 . S
C525 C527 1.433 . S
C526 C522 1.350 . S
C526 C523 1.463 . S
C526 N530 1.427 . S
C527 H517 0.929 . S
C527 C525 1.433 . S
C527 N530 1.384 . S
C528 H519 0.929 . S
C528 C520 1.378 . S
C528 C523 1.350 . S
C529 H516 0.929 . S
C529 C521 1.433 . S
C529 N531 1.384 . S
N530 C526 1.427 . S
N530 C527 1.384 . S
N531 C523 1.427 . S
N531 C529 1.384 . S
H532 C538 0.930 . S
H533 C542 0.930 . S
H534 C547 0.929 . S
H535 C545 0.929 . S
H536 C540 0.929 . S
H537 C546 0.929 . S
C538 H532 0.930 . S
C538 C539 1.367 . S
C538 C546 1.378 . S
C539 C538 1.367 . S
C539 C547 1.433 . S
C540 H536 0.929 . S
C540 C542 1.378 . S
C540 C544 1.350 . S
C541 C544 1.463 . S
C541 C546 1.350 . S
C541 N549 1.427 . S
C542 H533 0.930 . S
C542 C540 1.378 . S
C542 C543 1.367 . S
C543 C542 1.367 . S
C543 C545 1.433 . S
C544 C540 1.350 . S
C544 C541 1.463 . S
C544 N548 1.427 . S
C545 H535 0.929 . S
C545 C543 1.433 . S
C545 N548 1.384 . S
C546 H537 0.929 . S
C546 C538 1.378 . S
C546 C541 1.350 . S
C547 H534 0.929 . S
C547 C539 1.433 . S
C547 N549 1.384 . S
N548 C544 1.427 . S
N548 C545 1.384 . S
N549 C541 1.427 . S
N549 C547 1.384 . S
H550 C556 0.930 . S
H551 C560 0.930 . S
H552 C565 0.929 . S
H553 C563 0.929 . S
H554 C558 0.929 . S
H555 C564 0.929 . S
C556 H550 0.930 . S
C556 C557 1.367 . S
C556 C564 1.378 . S
C557 C556 1.367 . S
C557 C565 1.433 . S
C558 H554 0.929 . S
C558 C560 1.378 . S
C558 C562 1.350 . S
C559 C562 1.463 . S
C559 C564 1.350 . S
C559 N567 1.427 . S
C560 H551 0.930 . S
C560 C558 1.378 . S
C560 C561 1.367 . S
C561 C560 1.367 . S
C561 C563 1.433 . S
C562 C558 1.350 . S
C562 C559 1.463 . S
C562 N566 1.427 . S
C563 H553 0.929 . S
C563 C561 1.433 . S
C563 N566 1.384 . S
C564 H555 0.929 . S
C564 C556 1.378 . S
C564 C559 1.350 . S
C565 H552 0.929 . S
C565 C557 1.433 . S
C565 N567 1.384 . S
N566 C562 1.427 . S
N566 C563 1.384 . S
N567 C559 1.427 . S
N567 C565 1.384 . S
H568 C574 0.930 . S
H569 C578 0.930 . S
H570 C583 0.929 . S
H571 C581 0.929 . S
H572 C576 0.934 . S
H573 C582 0.929 1_455 S
C574 H568 0.930 . S
C574 C575 1.367 . S
C574 C582 1.378 . S
C575 C574 1.367 . S
C575 C583 1.433 . S
C576 H572 0.934 . S
C576 C578 1.378 1_556 S
C576 C580 1.350 . S
C577 C580 1.463 . S
C577 C582 1.350 . S
C577 N585 1.427 . S
C578 H569 0.930 . S
C578 C576 1.378 1_554 S
C578 C579 1.367 1_554 S
C579 C578 1.367 1_556 S
C579 C581 1.433 1_655 S
C580 C576 1.350 . S
C580 C577 1.463 . S
C580 N584 1.427 1_655 S
C581 H571 0.929 . S
C581 C579 1.433 1_455 S
C581 N584 1.384 . S
C582 H573 0.929 1_655 S
C582 C574 1.378 . S
C582 C577 1.350 . S
C583 H570 0.929 . S
C583 C575 1.433 . S
C583 N585 1.384 . S
N584 C580 1.427 1_455 S
N584 C581 1.384 . S
N585 C577 1.427 . S
N585 C583 1.384 . S
H586 C592 0.930 . S
H587 C596 0.930 . S
H588 C601 0.929 . S
H589 C599 0.929 . S
H590 C594 0.929 . S
H591 C600 0.929 . S
C592 H586 0.930 . S
C592 C593 1.367 . S
C592 C600 1.378 . S
C593 C592 1.367 . S
C593 C601 1.433 . S
C594 H590 0.929 . S
C594 C596 1.378 . S
C594 C598 1.350 . S
C595 C598 1.463 . S
C595 C600 1.350 . S
C595 N603 1.427 . S
C596 H587 0.930 . S
C596 C594 1.378 . S
C596 C597 1.367 . S
C597 C596 1.367 . S
C597 C599 1.433 . S
C598 C594 1.350 . S
C598 C595 1.463 . S
C598 N602 1.427 . S
C599 H589 0.929 . S
C599 C597 1.433 . S
C599 N602 1.384 . S
C600 H591 0.929 . S
C600 C592 1.378 . S
C600 C595 1.350 . S
C601 H588 0.929 . S
C601 C593 1.433 . S
C601 N603 1.384 . S
N602 C598 1.427 . S
N602 C599 1.384 . S
N603 C595 1.427 . S
N603 C601 1.384 . S
H604 C610 0.930 . S
H605 C614 0.930 . S
H606 C619 0.929 . S
H607 C617 0.929 . S
H608 C612 0.929 . S
H609 C618 0.929 . S
C610 H604 0.930 . S
C610 C611 1.367 . S
C610 C618 1.378 . S
C611 C610 1.367 . S
C611 C619 1.433 . S
C612 H608 0.929 . S
C612 C614 1.378 . S
C612 C616 1.350 . S
C613 C616 1.463 . S
C613 C618 1.350 . S
C613 N621 1.427 . S
C614 H605 0.930 . S
C614 C612 1.378 . S
C614 C615 1.367 . S
C615 C614 1.367 . S
C615 C617 1.433 . S
C616 C612 1.350 . S
C616 C613 1.463 . S
C616 N620 1.427 . S
C617 H607 0.929 . S
C617 C615 1.433 . S
C617 N620 1.384 . S
C618 H609 0.929 . S
C618 C610 1.378 . S
C618 C613 1.350 . S
C619 H606 0.929 . S
C619 C611 1.433 . S
C619 N621 1.384 . S
N620 C616 1.427 . S
N620 C617 1.384 . S
N621 C613 1.427 . S
N621 C619 1.384 . S
H622 C628 0.930 . S
H623 C632 0.930 . S
H624 C637 0.929 . S
H625 C635 0.929 . S
H626 C630 0.929 . S
H627 C636 0.929 . S
C628 H622 0.930 . S
C628 C629 1.367 . S
C628 C636 1.378 . S
C629 C628 1.367 . S
C629 C637 1.433 . S
C630 H626 0.929 . S
C630 C632 1.378 . S
C630 C634 1.350 . S
C631 C634 1.463 . S
C631 C636 1.350 . S
C631 N639 1.427 . S
C632 H623 0.930 . S
C632 C630 1.378 . S
C632 C633 1.367 . S
C633 C632 1.367 . S
C633 C635 1.433 . S
C634 C630 1.350 . S
C634 C631 1.463 . S
C634 N638 1.427 . S
C635 H625 0.929 . S
C635 C633 1.433 . S
C635 N638 1.384 . S
C636 H627 0.929 . S
C636 C628 1.378 . S
C636 C631 1.350 . S
C637 H624 0.929 . S
C637 C629 1.433 . S
C637 N639 1.384 . S
N638 C634 1.427 . S
N638 C635 1.384 . S
N639 C631 1.427 . S
N639 C637 1.384 . S
C215 C4 2.304 . S
C219 C104 2.314 . S
C233 C16 1.391 . S
C237 N124 1.376 . S
C255 C158 1.582 . S
C251 C32 1.575 . S
C269 C43 1.140 . S
C273 N192 1.090 . S
C291 C145 2.754 . S
C287 C5 2.741 . S
C309 N102 0.954 1_565 S
C305 C21 0.961 . S
C327 C179 1.817 1_556 S
C323 C27 1.800 . S
C345 N154 0.925 . S
C341 C37 0.941 . S
C359 C10 1.807 . S
C363 C194 1.825 . S
C381 C128 1.767 . S
C377 C26 1.748 . S
C395 C38 1.128 . S
C399 C89 1.142 . S
C413 C15 1.586 . S
C417 C175 1.597 . S
C435 C115 2.440 1_565 S
C431 C48 2.435 . S
C449 C59 1.188 . S
C453 N132 1.169 . S
C467 C76 1.859 . S
C471 C149 1.868 . S
C485 C87 1.015 . S
C489 N184 0.990 . S
C503 C54 2.119 . S
C507 C134 2.137 . S
C525 N94 1.480 . S
C521 C60 1.491 . S
C543 C188 1.864 . S
C539 C71 1.842 . S
C561 N162 0.924 . S
C557 C82 0.937 . S
C575 C49 2.053 . S
C579 C205 2.062 1_656 S
C597 C119 1.408 . S
C593 C70 1.398 . S
C615 C98 1.484 . S
C611 C81 1.476 . S
C629 C65 1.414 . S
C633 C164 1.423 . S
