# Generated by pormake.
# Topology cml, (3,6)-cn, num edge types: 1
# Building blocks:
#     Node 0, Type 0, BuildingBlock: ESEHIV_clean_linker_0, # of connection points: 3
#     Node 1, Type 0, BuildingBlock: ESEHIV_clean_linker_0, # of connection points: 3
#     Node 2, Type 0, BuildingBlock: ESEHIV_clean_linker_0, # of connection points: 3
#     Node 3, Type 0, BuildingBlock: ESEHIV_clean_linker_0, # of connection points: 3
#     Node 4, Type 0, BuildingBlock: ESEHIV_clean_linker_0, # of connection points: 3
#     Node 5, Type 0, BuildingBlock: ESEHIV_clean_linker_0, # of connection points: 3
#     Node 6, Type 0, BuildingBlock: ESEHIV_clean_linker_0, # of connection points: 3
#     Node 7, Type 0, BuildingBlock: ESEHIV_clean_linker_0, # of connection points: 3
#     Node 8, Type 1, BuildingBlock: IZENUY_clean_sbu_0, # of connection points: 6
#     Node 9, Type 1, BuildingBlock: IZENUY_clean_sbu_0, # of connection points: 6
#     Node 10, Type 1, BuildingBlock: IZENUY_clean_sbu_0, # of connection points: 6
#     Node 11, Type 1, BuildingBlock: IZENUY_clean_sbu_0, # of connection points: 6
#     Edge 12, Type (0, 1), BuildingBlock: CIFDUS_clean_linker_0, # of connection points: 2
#     Edge 13, Type (0, 1), BuildingBlock: CIFDUS_clean_linker_0, # of connection points: 2
#     Edge 14, Type (0, 1), BuildingBlock: CIFDUS_clean_linker_0, # of connection points: 2
#     Edge 15, Type (0, 1), BuildingBlock: CIFDUS_clean_linker_0, # of connection points: 2
#     Edge 16, Type (0, 1), BuildingBlock: CIFDUS_clean_linker_0, # of connection points: 2
#     Edge 17, Type (0, 1), BuildingBlock: CIFDUS_clean_linker_0, # of connection points: 2
#     Edge 18, Type (0, 1), BuildingBlock: CIFDUS_clean_linker_0, # of connection points: 2
#     Edge 19, Type (0, 1), BuildingBlock: CIFDUS_clean_linker_0, # of connection points: 2
#     Edge 20, Type (0, 1), BuildingBlock: CIFDUS_clean_linker_0, # of connection points: 2
#     Edge 21, Type (0, 1), BuildingBlock: CIFDUS_clean_linker_0, # of connection points: 2
#     Edge 22, Type (0, 1), BuildingBlock: CIFDUS_clean_linker_0, # of connection points: 2
#     Edge 23, Type (0, 1), BuildingBlock: CIFDUS_clean_linker_0, # of connection points: 2
#     Edge 24, Type (0, 1), BuildingBlock: CIFDUS_clean_linker_0, # of connection points: 2
#     Edge 25, Type (0, 1), BuildingBlock: CIFDUS_clean_linker_0, # of connection points: 2
#     Edge 26, Type (0, 1), BuildingBlock: CIFDUS_clean_linker_0, # of connection points: 2
#     Edge 27, Type (0, 1), BuildingBlock: CIFDUS_clean_linker_0, # of connection points: 2
#     Edge 28, Type (0, 1), BuildingBlock: CIFDUS_clean_linker_0, # of connection points: 2
#     Edge 29, Type (0, 1), BuildingBlock: CIFDUS_clean_linker_0, # of connection points: 2
#     Edge 30, Type (0, 1), BuildingBlock: CIFDUS_clean_linker_0, # of connection points: 2
#     Edge 31, Type (0, 1), BuildingBlock: CIFDUS_clean_linker_0, # of connection points: 2
#     Edge 32, Type (0, 1), BuildingBlock: CIFDUS_clean_linker_0, # of connection points: 2
#     Edge 33, Type (0, 1), BuildingBlock: CIFDUS_clean_linker_0, # of connection points: 2
#     Edge 34, Type (0, 1), BuildingBlock: CIFDUS_clean_linker_0, # of connection points: 2
#     Edge 35, Type (0, 1), BuildingBlock: CIFDUS_clean_linker_0, # of connection points: 2
# Relax obj value: 0.055
# Max RMSD: 0.070
# Mean RMSD: 0.067
data_MOF--net-cml--node1-IZENUY_clean_sbu_0--node2-ESEHIV_clean_linker_0--edge1-CIFDUS_clean_linker_0
_symmetry_space_group_name_H-M    P1
_symmetry_Int_Tables_number       1
_symmetry_cell_setting            triclinic
loop_
_symmetry_equiv_pos_as_xyz
'x, y, z'
_cell_length_a     28.821613
_cell_length_b     33.652313
_cell_length_c     31.267623
_cell_angle_alpha  89.816764
_cell_angle_beta   90.558313
_cell_angle_gamma 89.62561
loop_
_atom_site_label
_atom_site_type_symbol
_atom_site_fract_x
_atom_site_fract_y
_atom_site_fract_z
_atom_type_partial_charge
H0 H 0.3704 0.42649 0.02211 0.0
H1 H 0.26465 0.39323 0.93252 0.0
H2 H 0.29457 0.31823 0.04176 0.0
C3 C 0.34387 0.40566 0.01221 0.0
C4 C 0.33597 0.37127 0.03663 0.0
C5 C 0.31898 0.41316 0.97438 0.0
C6 C 0.28441 0.38671 0.96139 0.0
C7 C 0.27455 0.35267 0.98587 0.0
C8 C 0.3007 0.34507 0.0235 0.0
H9 H 0.65181 0.58621 0.53172 0.0
H10 H 0.75829 0.61101 0.44095 0.0
H11 H 0.73562 0.69028 0.54735 0.0
C12 C 0.68001 0.60487 0.52107 0.0
C13 C 0.69108 0.63926 0.54413 0.0
C14 C 0.70358 0.59484 0.48366 0.0
C15 C 0.73967 0.61924 0.46956 0.0
C16 C 0.75222 0.65358 0.49255 0.0
C17 C 0.72761 0.66331 0.53003 0.0
H18 H 0.64359 0.40882 0.04199 0.0
H19 H 0.75316 0.32314 0.04912 0.0
H20 H 0.73795 0.39714 0.9365 0.0
C21 C 0.67324 0.39467 0.02715 0.0
C22 C 0.68649 0.40572 0.98565 0.0
C23 C 0.69717 0.36502 0.04974 0.0
C24 C 0.73564 0.34669 0.03145 0.0
C25 C 0.75188 0.35878 0.99113 0.0
C26 C 0.72663 0.38814 0.96799 0.0
H27 H 0.35392 0.58308 0.55333 0.0
H28 H 0.28621 0.61383 0.43487 0.0
H29 H 0.26382 0.68442 0.5484 0.0
C30 C 0.33055 0.60217 0.53508 0.0
C31 C 0.30871 0.63384 0.55568 0.0
C32 C 0.32418 0.59577 0.49115 0.0
C33 C 0.29238 0.61981 0.46841 0.0
C34 C 0.26939 0.65178 0.48867 0.0
C35 C 0.27909 0.65913 0.53232 0.0
H36 H 0.85102 0.93733 0.03421 0.0
H37 H 0.76989 0.89727 0.92734 0.0
H38 H 0.77736 0.82722 0.04305 0.0
C39 C 0.82744 0.91598 0.02011 0.0
C40 C 0.81412 0.88277 0.04418 0.0
C41 C 0.81249 0.92093 0.97762 0.0
C42 C 0.7832 0.89241 0.95945 0.0
C43 C 0.77064 0.85807 0.98228 0.0
C44 C 0.78643 0.85345 0.02488 0.0
H45 H 0.14621 0.09031 0.52565 0.0
H46 H 0.25198 0.11511 0.43324 0.0
H47 H 0.23301 0.19178 0.54218 0.0
C48 C 0.17485 0.10827 0.51465 0.0
C49 C 0.18816 0.14142 0.53862 0.0
C50 C 0.19695 0.09906 0.47599 0.0
C51 C 0.23373 0.12307 0.46212 0.0
C52 C 0.24778 0.15643 0.48611 0.0
C53 C 0.22377 0.16572 0.52379 0.0
H54 H 0.16923 0.93804 0.0453 0.0
H55 H 0.26206 0.83913 0.06309 0.0
H56 H 0.24546 0.89335 0.9384 0.0
C57 C 0.19488 0.91766 0.03261 0.0
C58 C 0.20651 0.92021 0.98923 0.0
C59 C 0.21411 0.88808 0.05926 0.0
C60 C 0.24601 0.86095 0.04205 0.0
C61 C 0.25785 0.86226 0.99836 0.0
C62 C 0.2375 0.89204 0.97214 0.0
H63 H 0.8498 0.06748 0.54341 0.0
H64 H 0.75255 0.09095 0.44165 0.0
H65 H 0.78432 0.18227 0.53388 0.0
C66 C 0.82513 0.08732 0.52775 0.0
C67 C 0.8195 0.12609 0.54327 0.0
C68 C 0.80153 0.07453 0.49101 0.0
C69 C 0.77094 0.10082 0.47004 0.0
C70 C 0.76406 0.13971 0.48533 0.0
C71 C 0.78818 0.15207 0.52246 0.0
Fe72 Fe 0.01435 0.79996 0.31686 0.0
Fe73 Fe 1.0008 0.84924 0.3989 0.0
O74 O 0.00866 0.84676 0.34264 0.0
Fe75 Fe 0.01006 0.89139 0.31226 0.0
O76 O 0.9601 0.87652 0.28051 0.0
O77 O 0.98352 0.81536 0.26783 0.0
O78 O 0.95855 0.78331 0.33687 0.0
C79 C 0.94676 0.78275 0.37562 0.0
C80 C 0.07776 0.84318 0.27172 0.0
O81 O 0.96866 0.80278 0.40317 0.0
C82 C 0.06159 0.91315 0.38216 0.0
O83 O 0.04653 0.77647 0.36143 0.0
O84 O 0.05525 0.82402 0.40924 0.0
O85 O 0.05024 0.87254 0.27232 0.0
O86 O 0.07033 0.81268 0.29417 0.0
C87 C 0.93978 0.90694 0.37255 0.0
O88 O 0.03202 0.89605 0.4054 0.0
O89 O 0.06023 0.90954 0.34198 0.0
C90 C 0.06705 0.79096 0.39381 0.0
O91 O 0.94533 0.87475 0.39279 0.0
O92 O 0.96991 0.91866 0.34636 0.0
C93 C 0.95698 0.84461 0.25957 0.0
Fe94 Fe 0.00871 0.16916 0.89983 0.0
Fe95 Fe 1.00486 0.11779 0.81887 0.0
O96 O 0.00733 0.16524 0.84326 0.0
Fe97 Fe 0.00871 0.20865 0.8109 0.0
O98 O 0.06417 0.22325 0.83377 0.0
O99 O 0.04575 0.21322 0.90096 0.0
O100 O 0.06139 0.13926 0.90399 0.0
C101 C 0.06566 0.10441 0.88963 0.0
C102 C 0.94963 0.23051 0.87876 0.0
O103 O 0.03817 0.09181 0.86099 0.0
C104 C 0.94618 0.16522 0.76541 0.0
O105 O 0.97178 0.12587 0.90877 0.0
O106 O 0.95034 0.10656 0.8444 0.0
O107 O 0.97588 0.23988 0.84818 0.0
O108 O 0.95628 0.1991 0.90006 0.0
C109 C 0.0658 0.15382 0.76572 0.0
O110 O 0.97133 0.13478 0.77197 0.0
O111 O 0.95338 0.19697 0.78559 0.0
C112 C 0.94425 0.10728 0.88429 0.0
O113 O 0.05921 0.12574 0.79171 0.0
O114 O 0.04141 0.18526 0.76734 0.0
C115 C 0.07276 0.22731 0.87317 0.0
Fe116 Fe 0.51522 0.30235 0.32019 0.0
Fe117 Fe 0.50431 0.34931 0.40354 0.0
O118 O 0.51084 0.3484 0.34731 0.0
Fe119 Fe 0.51332 0.39365 0.31851 0.0
O120 O 0.48498 0.37418 0.27015 0.0
O121 O 0.46431 0.31342 0.28731 0.0
O122 O 0.47591 0.27617 0.35643 0.0
C123 C 0.44537 0.28954 0.3816 0.0
C124 C 0.57962 0.35158 0.27647 0.0
O125 O 0.45008 0.32268 0.39987 0.0
C126 C 0.56677 0.40904 0.39322 0.0
O127 O 0.56656 0.28795 0.35138 0.0
O128 O 0.53684 0.30338 0.41349 0.0
O129 O 0.57028 0.38172 0.2986 0.0
O130 O 0.55462 0.32077 0.27858 0.0
C131 C 0.44679 0.41319 0.37567 0.0
O132 O 0.55835 0.37597 0.41058 0.0
O133 O 0.54287 0.42115 0.36145 0.0
C134 C 0.56789 0.28642 0.39177 0.0
O135 O 0.47071 0.39564 0.40419 0.0
O136 O 0.45616 0.40899 0.33667 0.0
C137 C 0.46004 0.34387 0.264 0.0
Fe138 Fe 0.50371 0.65848 0.90283 0.0
Fe139 Fe 0.50263 0.62031 0.81411 0.0
O140 O 0.50755 0.66326 0.84647 0.0
Fe141 Fe 0.51589 0.71025 0.82195 0.0
O142 O 0.5531 0.72963 0.86493 0.0
O143 O 0.5599 0.68053 0.91154 0.0
O144 O 0.53342 0.60957 0.90438 0.0
C145 C 0.55982 0.59277 0.87744 0.0
C146 C 0.45369 0.73 0.8849 0.0
O147 O 0.55496 0.59902 0.8378 0.0
C148 C 0.44866 0.6723 0.76868 0.0
O149 O 0.44679 0.63635 0.89909 0.0
O150 O 0.46557 0.59243 0.85097 0.0
O151 O 0.46418 0.7309 0.84588 0.0
O152 O 0.47364 0.70624 0.91079 0.0
C153 C 0.5694 0.6654 0.76955 0.0
O154 O 0.45035 0.63974 0.78894 0.0
O155 O 0.47939 0.69872 0.77476 0.0
C156 C 0.43887 0.60415 0.88023 0.0
O157 O 0.5383 0.63917 0.77043 0.0
O158 O 0.56878 0.69368 0.79577 0.0
C159 C 0.57336 0.71317 0.89652 0.0
H160 H 0.25326 0.32905 0.90466 0.0
H161 H 0.21043 0.31534 0.03578 0.0
H162 H 0.14519 0.27452 0.01252 0.0
H163 H 0.09841 0.24528 0.95487 0.0
H164 H 0.13957 0.26126 0.8235 0.0
H165 H 0.20682 0.29944 0.84704 0.0
C166 C 0.22949 0.31742 0.9282 0.0
C167 C 0.2367 0.32555 0.97194 0.0
C168 C 0.19147 0.29471 0.91455 0.0
C169 C 0.20611 0.3093 1.00198 0.0
C170 C 0.16852 0.28623 0.98867 0.0
C171 C 0.12201 0.2571 0.93129 0.0
C172 C 0.11363 0.25057 0.88739 0.0
C173 C 0.16057 0.27914 0.94501 0.0
C174 C 0.14488 0.266 0.85744 0.0
C175 C 0.18345 0.28777 0.87088 0.0
H176 H 0.77358 0.67296 0.40986 0.0
H177 H 0.81779 0.69221 0.54054 0.0
H178 H 0.88085 0.73407 0.51579 0.0
H179 H 0.92417 0.76439 0.45743 0.0
H180 H 0.88274 0.74308 0.32647 0.0
H181 H 0.81849 0.70196 0.35109 0.0
C182 C 0.7973 0.68584 0.43301 0.0
C183 C 0.79065 0.67932 0.47714 0.0
C184 C 0.83418 0.70933 0.41852 0.0
C185 C 0.82137 0.69711 0.50649 0.0
C186 C 0.85777 0.72083 0.49234 0.0
C187 C 0.90116 0.75079 0.43414 0.0
C188 C 0.90836 0.7569 0.39009 0.0
C189 C 0.86452 0.72709 0.44848 0.0
C190 C 0.8782 0.7388 0.36052 0.0
C191 C 0.84136 0.71537 0.3746 0.0
H192 H 0.77141 0.33637 0.90852 0.0
H193 H 0.83049 0.33934 0.03597 0.0
H194 H 0.89614 0.29959 0.01268 0.0
H195 H 0.93493 0.26033 0.95738 0.0
H196 H 0.88145 0.26219 0.82835 0.0
H197 H 0.81591 0.30399 0.8507 0.0
C198 C 0.79903 0.32901 0.93101 0.0
C199 C 0.79503 0.33994 0.9743 0.0
C200 C 0.83764 0.30671 0.91718 0.0
C201 C 0.83157 0.33019 1.00281 0.0
C202 C 0.86942 0.30759 0.98952 0.0
C203 C 0.90898 0.27017 0.93423 0.0
C204 C 0.91238 0.25802 0.89154 0.0
C205 C 0.8723 0.29491 0.94708 0.0
C206 C 0.87922 0.2713 0.86148 0.0
C207 C 0.8418 0.29508 0.87427 0.0
H208 H 0.19201 0.68955 0.51905 0.0
H209 H 0.27022 0.6726 0.4031 0.0
H210 H 0.21312 0.71173 0.36333 0.0
H211 H 0.141 0.75179 0.36127 0.0
H212 H 0.06958 0.77611 0.47885 0.0
H213 H 0.12487 0.7341 0.5184 0.0
C214 C 0.19748 0.69493 0.4853 0.0
C215 C 0.23558 0.67742 0.46441 0.0
C216 C 0.16567 0.71906 0.46281 0.0
C217 C 0.2408 0.68443 0.42023 0.0
C218 C 0.20833 0.70729 0.39734 0.0
C219 C 0.13778 0.74778 0.39556 0.0
C220 C 0.10137 0.76658 0.41725 0.0
C221 C 0.17057 0.72466 0.41826 0.0
C222 C 0.09757 0.76185 0.46168 0.0
C223 C 0.12904 0.7378 0.48421 0.0
H224 H 0.7027 0.81243 0.0182 0.0
H225 H 0.7717 0.83455 0.89843 0.0
H226 H 0.71661 0.79213 0.86137 0.0
H227 H 0.64604 0.75147 0.86201 0.0
H228 H 0.58209 0.72332 0.98223 0.0
H229 H 0.63863 0.76461 0.02021 0.0
C230 C 0.70645 0.8074 0.98418 0.0
C231 C 0.74069 0.82778 0.96115 0.0
C232 C 0.67542 0.7819 0.96304 0.0
C233 C 0.74468 0.82063 0.91693 0.0
C234 C 0.7134 0.79604 0.89561 0.0
C235 C 0.64488 0.75425 0.89655 0.0
C236 C 0.60997 0.73494 0.91938 0.0
C237 C 0.67806 0.7772 0.91817 0.0
C238 C 0.6089 0.73804 0.96414 0.0
C239 C 0.64105 0.76171 0.98579 0.0
H240 H 0.27491 0.17561 0.40464 0.0
H241 H 0.31182 0.19325 0.53758 0.0
H242 H 0.3734 0.23801 0.51695 0.0
H243 H 0.4175 0.2723 0.46142 0.0
H244 H 0.38804 0.24856 0.32867 0.0
H245 H 0.32345 0.20544 0.34889 0.0
C246 C 0.29677 0.18865 0.42918 0.0
C247 C 0.28765 0.1815 0.47272 0.0
C248 C 0.33359 0.21336 0.41711 0.0
C249 C 0.31657 0.19911 0.50385 0.0
C250 C 0.35228 0.22451 0.49213 0.0
C251 C 0.39669 0.25774 0.43705 0.0
C252 C 0.40675 0.26375 0.39376 0.0
C253 C 0.36089 0.23208 0.44893 0.0
C254 C 0.38051 0.24426 0.36225 0.0
C255 C 0.34371 0.2197 0.3738 0.0
H256 H 0.32181 0.87272 0.93468 0.0
H257 H 0.26922 0.78375 0.02129 0.0
H258 H 0.32635 0.7362 0.99572 0.0
H259 H 0.39156 0.71928 0.94862 0.0
H260 H 0.43846 0.80567 0.85685 0.0
H261 H 0.38265 0.85431 0.8839 0.0
C262 C 0.3221 0.84281 0.9476 0.0
C263 C 0.29131 0.83245 0.98055 0.0
C264 C 0.35417 0.81492 0.93173 0.0
C265 C 0.29313 0.79336 0.99692 0.0
C266 C 0.32563 0.76583 0.98202 0.0
C267 C 0.38955 0.74882 0.93468 0.0
C268 C 0.41932 0.75902 0.90109 0.0
C269 C 0.35653 0.77632 0.94963 0.0
C270 C 0.41588 0.79713 0.88276 0.0
C271 C 0.38403 0.82497 0.89826 0.0
H272 H 0.69943 0.1901 0.51802 0.0
H273 H 0.7583 0.15132 0.39882 0.0
H274 H 0.70352 0.19342 0.35906 0.0
H275 H 0.63713 0.24007 0.35804 0.0
H276 H 0.57899 0.27857 0.47793 0.0
H277 H 0.63529 0.23825 0.51714 0.0
C278 C 0.70062 0.19124 0.48337 0.0
C279 C 0.73265 0.16737 0.46149 0.0
C280 C 0.66893 0.21542 0.46066 0.0
C281 C 0.73346 0.16893 0.41649 0.0
C282 C 0.70225 0.19312 0.39369 0.0
C283 C 0.63683 0.23969 0.39271 0.0
C284 C 0.60348 0.26218 0.41478 0.0
C285 C 0.66945 0.21621 0.4154 0.0
C286 C 0.60391 0.26141 0.45986 0.0
C287 C 0.63621 0.23835 0.48249 0.0
H288 H 0.32505 0.49024 0.99827 0.0
H289 H 0.34232 0.41238 0.89037 0.0
H290 H 0.37663 0.46657 0.84919 0.0
H291 H 0.41015 0.53354 0.84741 0.0
H292 H 0.39252 0.61136 0.95572 0.0
H293 H 0.34931 0.55997 0.9929 0.0
C294 C 0.33568 0.48547 0.96549 0.0
C295 C 0.33172 0.44749 0.94739 0.0
C296 C 0.3556 0.51661 0.94224 0.0
C297 C 0.34502 0.44151 0.90481 0.0
C298 C 0.3649 0.47237 0.88142 0.0
C299 C 0.39622 0.5395 0.87887 0.0
C300 C 0.40537 0.576 0.89901 0.0
C301 C 0.37164 0.50969 0.9003 0.0
C302 C 0.38643 0.58343 0.93953 0.0
C303 C 0.36184 0.55398 0.96097 0.0
H304 H 0.68598 0.52023 0.51225 0.0
H305 H 0.68417 0.59265 0.39823 0.0
H306 H 0.64467 0.53979 0.3589 0.0
H307 H 0.60341 0.47613 0.35927 0.0
H308 H 0.60452 0.40398 0.47372 0.0
H309 H 0.65158 0.45358 0.51052 0.0
C310 C 0.6774 0.52416 0.47864 0.0
C311 C 0.68754 0.56035 0.45822 0.0
C312 C 0.65411 0.49394 0.45649 0.0
C313 C 0.67692 0.56496 0.41454 0.0
C314 C 0.65397 0.53491 0.39218 0.0
C315 C 0.61426 0.47108 0.39217 0.0
C316 C 0.59981 0.43668 0.4139 0.0
C317 C 0.64122 0.49976 0.41319 0.0
C318 C 0.61487 0.43029 0.45628 0.0
C319 C 0.6417 0.45869 0.47741 0.0
H320 H 0.71404 0.46882 0.93566 0.0
H321 H 0.59227 0.40876 0.98171 0.0
H322 H 0.54289 0.46155 0.95327 0.0
H323 H 0.53396 0.52676 0.91899 0.0
H324 H 0.6533 0.58515 0.8669 0.0
H325 H 0.7039 0.53124 0.89367 0.0
C326 C 0.67669 0.46697 0.93877 0.0
C327 C 0.65715 0.43527 0.96187 0.0
C328 C 0.64803 0.49741 0.92166 0.0
C329 C 0.60851 0.43334 0.96529 0.0
C330 C 0.58008 0.46349 0.94891 0.0
C331 C 0.57109 0.52752 0.91354 0.0
C332 C 0.59024 0.5599 0.89183 0.0
C333 C 0.59949 0.49607 0.92793 0.0
C334 C 0.63809 0.56044 0.88395 0.0
C335 C 0.6669 0.52967 0.8992 0.0
H336 H 0.29844 0.5426 0.42849 0.0
H337 H 0.41592 0.58132 0.50414 0.0
H338 H 0.46339 0.52844 0.47478 0.0
H339 H 0.47127 0.46971 0.43045 0.0
H340 H 0.35773 0.43198 0.35014 0.0
H341 H 0.30904 0.48639 0.37785 0.0
C342 C 0.33455 0.53973 0.43809 0.0
C343 C 0.35312 0.56529 0.46944 0.0
C344 C 0.36228 0.50944 0.42037 0.0
C345 C 0.40017 0.56128 0.48126 0.0
C346 C 0.42756 0.53122 0.46425 0.0
C347 C 0.4358 0.47347 0.41902 0.0
C348 C 0.41756 0.44678 0.38905 0.0
C349 C 0.40878 0.5048 0.43446 0.0
C350 C 0.37214 0.45226 0.37351 0.0
C351 C 0.34444 0.48322 0.38941 0.0
H352 H 0.82537 0.99767 1.00257 0.0
H353 H 0.83903 0.91975 0.89389 0.0
H354 H 0.87491 0.97292 0.8531 0.0
H355 H 0.91042 0.03887 0.85099 0.0
H356 H 0.9033 0.11461 0.96184 0.0
H357 H 0.85709 0.06496 0.99911 0.0
C358 C 0.8362 0.99229 0.96997 0.0
C359 C 0.82978 0.95463 0.95154 0.0
C360 C 0.85828 0.02257 0.94712 0.0
C361 C 0.84306 0.94851 0.90886 0.0
C362 C 0.86398 0.97883 0.88555 0.0
C363 C 0.89794 0.04483 0.88297 0.0
C364 C 0.91036 0.08021 0.90375 0.0
C365 C 0.87278 0.01563 0.9047 0.0
C366 C 0.89437 0.08741 0.94534 0.0
C367 C 0.86807 0.05903 0.96668 0.0
H368 H 0.17396 0.02561 0.50448 0.0
H369 H 0.18246 0.09581 0.38925 0.0
H370 H 0.14565 0.04242 0.34841 0.0
H371 H 0.10356 0.97843 0.3472 0.0
H372 H 0.09211 0.91088 0.46418 0.0
H373 H 0.13723 0.96053 0.50246 0.0
C374 C 0.16787 0.02922 0.47039 0.0
C375 C 0.18038 0.06485 0.45009 0.0
C376 C 0.14574 0.99892 0.44743 0.0
C377 C 0.17329 0.06863 0.40568 0.0
C378 C 0.1519 0.03822 0.38237 0.0
C379 C 0.11161 0.97436 0.38089 0.0
C380 C 0.09406 0.94121 0.4029 0.0
C381 C 0.13692 1.0036 0.40312 0.0
C382 C 0.10468 0.93637 0.4466 0.0
C383 C 0.13052 0.96474 0.46857 0.0
H384 H 0.19671 0.99876 0.00755 0.0
H385 H 0.16612 0.91212 0.91011 0.0
H386 H 0.12226 0.9622 0.86933 0.0
H387 H 0.08784 0.02922 0.8641 0.0
H388 H 0.1182 0.11568 0.96206 0.0
H389 H 0.16681 0.06706 0.99981 0.0
C390 C 0.18059 0.9909 0.97727 0.0
C391 C 0.18439 0.95165 0.96207 0.0
C392 C 0.1551 0.01975 0.95423 0.0
C393 C 0.16399 0.94212 0.92243 0.0
C394 C 0.13861 0.97069 0.89926 0.0
C395 C 0.10532 0.03759 0.89356 0.0
C396 C 0.09882 0.07607 0.91037 0.0
C397 C 0.13321 0.0094 0.91525 0.0
C398 C 0.12227 0.08636 0.94837 0.0
C399 C 0.15005 0.05849 0.97009 0.0
H400 H 0.82106 0.05886 0.40829 0.0
H401 H 0.81074 1.0029 0.53206 0.0
H402 H 0.84726 0.94262 0.50424 0.0
H403 H 0.8923 0.91002 0.44759 0.0
H404 H 0.90505 0.96789 0.32492 0.0
H405 H 0.85644 0.02274 0.34913 0.0
C406 C 0.82546 0.03305 0.42883 0.0
C407 C 0.81371 0.03545 0.47223 0.0
C408 C 0.84742 0.99893 0.41291 0.0
C409 C 0.82014 1.00189 0.49861 0.0
C410 C 0.84105 0.96746 0.48276 0.0
C411 C 0.8835 0.93417 0.42587 0.0
C412 C 0.90286 0.93523 0.3848 0.0
C413 C 0.85647 0.96623 0.44038 0.0
C414 C 0.89113 0.96672 0.35696 0.0
C415 C 0.86339 0.99813 0.37077 0.0
H416 H 0.31092 0.34032 0.11466 0.0
H417 H 0.42918 0.38277 0.04443 0.0
H418 H 0.47731 0.37808 0.10844 0.0
H419 H 0.48536 0.36565 0.18516 0.0
H420 H 0.3707 0.31776 0.2555 0.0
H421 H 0.32176 0.32022 0.19063 0.0
C422 C 0.34736 0.34792 0.11319 0.0
C423 C 0.36587 0.36305 0.0749 0.0
C424 C 0.37546 0.34439 0.15021 0.0
C425 C 0.41339 0.37245 0.0737 0.0
C426 C 0.44117 0.36954 0.11026 0.0
C427 C 0.44964 0.35566 0.18616 0.0
C428 C 0.4312 0.34221 0.22489 0.0
C429 C 0.42236 0.35639 0.14883 0.0
C430 C 0.38535 0.32844 0.22586 0.0
C431 C 0.35747 0.32993 0.18887 0.0
H432 H 0.72015 0.66351 0.62386 0.0
H433 H 0.59725 0.63942 0.54853 0.0
H434 H 0.54918 0.64661 0.61155 0.0
H435 H 0.54223 0.65444 0.68857 0.0
H436 H 0.66261 0.6817 0.76542 0.0
H437 H 0.71159 0.67901 0.70137 0.0
C438 C 0.6828 0.66055 0.62124 0.0
C439 C 0.66244 0.65001 0.58173 0.0
C440 C 0.65503 0.66488 0.65788 0.0
C441 C 0.61391 0.6465 0.57875 0.0
C442 C 0.58633 0.65069 0.61474 0.0
C443 C 0.57923 0.6599 0.69125 0.0
C444 C 0.59914 0.66747 0.7315 0.0
C445 C 0.60662 0.65881 0.65456 0.0
C446 C 0.64677 0.67553 0.73461 0.0
C447 C 0.67465 0.67391 0.69807 0.0
H448 H 0.69583 0.4105 0.1203 0.0
H449 H 0.66304 0.29346 0.07427 0.0
H450 H 0.62792 0.27674 0.14317 0.0
H451 H 0.59978 0.29829 0.21353 0.0
H452 H 0.63414 0.4156 0.25934 0.0
H453 H 0.67634 0.42901 0.19391 0.0
C454 C 0.68148 0.3812 0.12578 0.0
C455 C 0.68136 0.3533 0.09261 0.0
C456 C 0.66167 0.37191 0.16529 0.0
C457 C 0.66324 0.31528 0.09967 0.0
C458 C 0.64314 0.30583 0.1389 0.0
C459 C 0.61723 0.3265 0.2096 0.0
C460 C 0.61299 0.3561 0.24107 0.0
C461 C 0.64119 0.33428 0.1716 0.0
C462 C 0.63627 0.39237 0.23551 0.0
C463 C 0.66031 0.40021 0.19798 0.0
H464 H 0.3507 0.69824 0.58989 0.0
H465 H 0.29389 0.58409 0.62232 0.0
H466 H 0.32765 0.58843 0.69422 0.0
H467 H 0.3818 0.62032 0.74379 0.0
H468 H 0.44283 0.73287 0.71006 0.0
H469 H 0.39854 0.73385 0.64314 0.0
C470 C 0.34471 0.67498 0.61326 0.0
C471 C 0.31993 0.64095 0.60119 0.0
C472 C 0.36558 0.6771 0.65401 0.0
C473 C 0.31284 0.61056 0.63123 0.0
C474 C 0.33235 0.61294 0.67214 0.0
C475 C 0.38498 0.64539 0.72215 0.0
C476 C 0.41625 0.67612 0.73172 0.0
C477 C 0.36019 0.64538 0.6833 0.0
C478 C 0.4194 0.70857 0.70342 0.0
C479 C 0.39414 0.70914 0.66501 0.0
H480 H 0.85576 0.81853 0.08192 0.0
H481 H 0.81113 0.93878 0.1065 0.0
H482 H 0.84845 0.93663 0.17693 0.0
H483 H 0.8993 0.90276 0.22878 0.0
H484 H 0.94564 0.78284 0.2038 0.0
H485 H 0.9017 0.78255 0.13676 0.0
C486 C 0.85347 0.84391 0.10311 0.0
C487 C 0.83108 0.87885 0.08897 0.0
C488 C 0.87568 0.8427 0.14336 0.0
C489 C 0.82867 0.9117 0.11656 0.0
C490 C 0.85 0.91051 0.1568 0.0
C491 C 0.8995 0.87639 0.20893 0.0
C492 C 0.9263 0.8431 0.22121 0.0
C493 C 0.87458 0.87652 0.1701 0.0
C494 C 0.9257 0.80908 0.1951 0.0
C495 C 0.90058 0.80886 0.15664 0.0
H496 H 0.17713 0.09202 0.60613 0.0
H497 H 0.1488 0.21152 0.56274 0.0
H498 H 0.11101 0.22681 0.63057 0.0
H499 H 0.08395 0.20543 0.70099 0.0
H500 H 0.11336 0.08598 0.74493 0.0
H501 H 0.15346 0.07165 0.67834 0.0
C502 C 0.16248 0.12132 0.61162 0.0
C503 C 0.16524 0.15054 0.57958 0.0
C504 C 0.14138 0.12998 0.6508 0.0
C505 C 0.14695 0.18862 0.5871 0.0
C506 C 0.1254 0.19734 0.62579 0.0
C507 C 0.09951 0.17636 0.69627 0.0
C508 C 0.09531 0.14679 0.72791 0.0
C509 C 0.12225 0.16818 0.65778 0.0
C510 C 0.11594 0.10934 0.72119 0.0
C511 C 0.1387 0.10101 0.68299 0.0
H512 H 0.19328 0.82079 0.10437 0.0
H513 H 0.2007 0.9484 0.11606 0.0
H514 H 0.16393 0.94492 0.18582 0.0
H515 H 0.12167 0.90671 0.23926 0.0
H516 H 0.11383 0.77921 0.22878 0.0
H517 H 0.16016 0.7814 0.16348 0.0
C518 C 0.18788 0.84774 0.12262 0.0
C519 C 0.1989 0.88491 0.10453 0.0
C520 C 0.16655 0.84555 0.16288 0.0
C521 C 0.19151 0.91952 0.12868 0.0
C522 C 0.17066 0.91756 0.16868 0.0
C523 C 0.13084 0.8793 0.22309 0.0
C524 C 0.1139 0.84292 0.23845 0.0
C525 C 0.15672 0.8809 0.18541 0.0
C526 C 0.12651 0.8076 0.2176 0.0
C527 C 0.15263 0.8089 0.18005 0.0
H528 H 0.79419 0.16214 0.61831 0.0
H529 H 0.91271 0.11906 0.54862 0.0
H530 H 0.96243 0.12886 0.61103 0.0
H531 H 0.97116 0.14364 0.6869 0.0
H532 H 0.85533 0.18942 0.75783 0.0
H533 H 0.80547 0.18481 0.69363 0.0
C534 C 0.83104 0.15569 0.61674 0.0
C535 C 0.84964 0.13916 0.57925 0.0
C536 C 0.85967 0.16131 0.65306 0.0
C537 C 0.8975 0.13107 0.57743 0.0
C538 C 0.92595 0.13661 0.61307 0.0
C539 C 0.93499 0.15275 0.68816 0.0
C540 C 0.91644 0.16606 0.72688 0.0
C541 C 0.90717 0.15055 0.65132 0.0
C542 C 0.87 0.17875 0.7282 0.0
C543 C 0.84163 0.17607 0.69158 0.0
loop_
_geom_bond_atom_site_label_1
_geom_bond_atom_site_label_2
_geom_bond_distance
_geom_bond_site_symmetry_2
_ccdc_geom_bond_type
H0 C3 0.931 . S
H1 C6 0.928 . S
H2 C8 0.930 . S
C3 H0 0.931 . S
C3 C4 1.413 . S
C3 C5 1.360 1_554 S
C4 C3 1.413 . S
C4 C8 1.429 . S
C5 C3 1.360 1_556 S
C5 C6 1.372 . S
C6 H1 0.928 . S
C6 C5 1.372 . S
C6 C7 1.404 . S
C7 C6 1.404 . S
C7 C8 1.391 1_556 S
C8 H2 0.930 . S
C8 C4 1.429 . S
C8 C7 1.391 1_554 S
H9 C12 0.931 . S
H10 C15 0.928 . S
H11 C17 0.930 . S
C12 H9 0.931 . S
C12 C13 1.413 . S
C12 C14 1.360 . S
C13 C12 1.413 . S
C13 C17 1.429 . S
C14 C12 1.360 . S
C14 C15 1.372 . S
C15 H10 0.928 . S
C15 C14 1.372 . S
C15 C16 1.404 . S
C16 C15 1.404 . S
C16 C17 1.391 . S
C17 H11 0.930 . S
C17 C13 1.429 . S
C17 C16 1.391 . S
H18 C21 0.931 . S
H19 C24 0.928 . S
H20 C26 0.930 . S
C21 H18 0.931 . S
C21 C22 1.413 1_554 S
C21 C23 1.360 . S
C22 C21 1.413 1_556 S
C22 C26 1.429 . S
C23 C21 1.360 . S
C23 C24 1.372 . S
C24 H19 0.928 . S
C24 C23 1.372 . S
C24 C25 1.404 1_554 S
C25 C24 1.404 1_556 S
C25 C26 1.391 . S
C26 H20 0.930 . S
C26 C22 1.429 . S
C26 C25 1.391 . S
H27 C30 0.931 . S
H28 C33 0.928 . S
H29 C35 0.930 . S
C30 H27 0.931 . S
C30 C31 1.413 . S
C30 C32 1.360 . S
C31 C30 1.413 . S
C31 C35 1.429 . S
C32 C30 1.360 . S
C32 C33 1.372 . S
C33 H28 0.928 . S
C33 C32 1.372 . S
C33 C34 1.404 . S
C34 C33 1.404 . S
C34 C35 1.391 . S
C35 H29 0.930 . S
C35 C31 1.429 . S
C35 C34 1.391 . S
H36 C39 0.931 . S
H37 C42 0.928 . S
H38 C44 0.930 . S
C39 H36 0.931 . S
C39 C40 1.413 . S
C39 C41 1.360 1_554 S
C40 C39 1.413 . S
C40 C44 1.429 . S
C41 C39 1.360 1_556 S
C41 C42 1.372 . S
C42 H37 0.928 . S
C42 C41 1.372 . S
C42 C43 1.404 . S
C43 C42 1.404 . S
C43 C44 1.391 1_556 S
C44 H38 0.930 . S
C44 C40 1.429 . S
C44 C43 1.391 1_554 S
H45 C48 0.931 . S
H46 C51 0.928 . S
H47 C53 0.930 . S
C48 H45 0.931 . S
C48 C49 1.413 . S
C48 C50 1.360 . S
C49 C48 1.413 . S
C49 C53 1.429 . S
C50 C48 1.360 . S
C50 C51 1.372 . S
C51 H46 0.928 . S
C51 C50 1.372 . S
C51 C52 1.404 . S
C52 C51 1.404 . S
C52 C53 1.391 . S
C53 H47 0.930 . S
C53 C49 1.429 . S
C53 C52 1.391 . S
H54 C57 0.931 . S
H55 C60 0.928 . S
H56 C62 0.930 . S
C57 H54 0.931 . S
C57 C58 1.413 1_554 S
C57 C59 1.360 . S
C58 C57 1.413 1_556 S
C58 C62 1.429 . S
C59 C57 1.360 . S
C59 C60 1.372 . S
C60 H55 0.928 . S
C60 C59 1.372 . S
C60 C61 1.404 1_554 S
C61 C60 1.404 1_556 S
C61 C62 1.391 . S
C62 H56 0.930 . S
C62 C58 1.429 . S
C62 C61 1.391 . S
H63 C66 0.931 . S
H64 C69 0.928 . S
H65 C71 0.930 . S
C66 H63 0.931 . S
C66 C67 1.413 . S
C66 C68 1.360 . S
C67 C66 1.413 . S
C67 C71 1.429 . S
C68 C66 1.360 . S
C68 C69 1.372 . S
C69 H64 0.928 . S
C69 C68 1.372 . S
C69 C70 1.404 . S
C70 C69 1.404 . S
C70 C71 1.391 . S
C71 H65 0.930 . S
C71 C67 1.429 . S
C71 C70 1.391 . S
Fe72 O74 1.918 . S
Fe72 O77 1.997 1_455 S
Fe72 O78 2.002 1_455 S
Fe72 O83 1.976 . S
Fe72 O86 1.996 . S
Fe73 O74 1.918 . S
Fe73 O81 1.997 1_455 S
Fe73 O84 1.996 . S
Fe73 O88 1.976 . S
Fe73 O91 2.002 1_455 S
O74 Fe72 1.918 . S
O74 Fe73 1.918 . S
O74 Fe75 1.918 . S
Fe75 O74 1.918 . S
Fe75 O76 2.002 1_455 S
Fe75 O85 1.976 . S
Fe75 O89 1.996 . S
Fe75 O92 1.997 1_455 S
O76 Fe75 2.002 1_655 S
O76 C93 1.295 . S
O77 Fe72 1.997 1_655 S
O77 C93 1.235 . S
O78 Fe72 2.002 1_655 S
O78 C79 1.295 . S
C79 O78 1.295 . S
C79 O81 1.235 . S
C80 O85 1.287 . S
C80 O86 1.255 . S
O81 Fe73 1.997 1_655 S
O81 C79 1.235 . S
C82 O88 1.287 . S
C82 O89 1.255 . S
O83 Fe72 1.976 . S
O83 C90 1.287 . S
O84 Fe73 1.996 . S
O84 C90 1.255 . S
O85 Fe75 1.976 . S
O85 C80 1.287 . S
O86 Fe72 1.996 . S
O86 C80 1.255 . S
C87 O91 1.295 . S
C87 O92 1.235 . S
O88 Fe73 1.976 . S
O88 C82 1.287 . S
O89 Fe75 1.996 . S
O89 C82 1.255 . S
C90 O83 1.287 . S
C90 O84 1.255 . S
O91 Fe73 2.002 1_655 S
O91 C87 1.295 . S
O92 Fe75 1.997 1_655 S
O92 C87 1.235 . S
C93 O76 1.295 . S
C93 O77 1.235 . S
Fe94 O96 1.918 . S
Fe94 O99 1.997 1_655 S
Fe94 O100 2.002 1_655 S
Fe94 O105 1.976 . S
Fe94 O108 1.996 . S
Fe95 O96 1.918 . S
Fe95 O103 1.997 1_655 S
Fe95 O106 1.996 . S
Fe95 O110 1.976 . S
Fe95 O113 2.002 1_655 S
O96 Fe94 1.918 . S
O96 Fe95 1.918 . S
O96 Fe97 1.918 . S
Fe97 O96 1.918 . S
Fe97 O98 2.002 1_655 S
Fe97 O107 1.976 . S
Fe97 O111 1.996 . S
Fe97 O114 1.997 1_655 S
O98 Fe97 2.002 1_455 S
O98 C115 1.295 . S
O99 Fe94 1.997 1_455 S
O99 C115 1.235 . S
O100 Fe94 2.002 1_455 S
O100 C101 1.295 . S
C101 O100 1.295 . S
C101 O103 1.235 . S
C102 O107 1.287 . S
C102 O108 1.255 . S
O103 Fe95 1.997 1_455 S
O103 C101 1.235 . S
C104 O110 1.287 . S
C104 O111 1.255 . S
O105 Fe94 1.976 . S
O105 C112 1.287 . S
O106 Fe95 1.996 . S
O106 C112 1.255 . S
O107 Fe97 1.976 . S
O107 C102 1.287 . S
O108 Fe94 1.996 . S
O108 C102 1.255 . S
C109 O113 1.295 . S
C109 O114 1.235 . S
O110 Fe95 1.976 . S
O110 C104 1.287 . S
O111 Fe97 1.996 . S
O111 C104 1.255 . S
C112 O105 1.287 . S
C112 O106 1.255 . S
O113 Fe95 2.002 1_455 S
O113 C109 1.295 . S
O114 Fe97 1.997 1_455 S
O114 C109 1.235 . S
C115 O98 1.295 . S
C115 O99 1.235 . S
Fe116 O118 1.918 . S
Fe116 O121 1.997 . S
Fe116 O122 2.002 . S
Fe116 O127 1.976 . S
Fe116 O130 1.996 . S
Fe117 O118 1.918 . S
Fe117 O125 1.997 . S
Fe117 O128 1.996 . S
Fe117 O132 1.976 . S
Fe117 O135 2.002 . S
O118 Fe116 1.918 . S
O118 Fe117 1.918 . S
O118 Fe119 1.918 . S
Fe119 O118 1.918 . S
Fe119 O120 2.002 . S
Fe119 O129 1.976 . S
Fe119 O133 1.996 . S
Fe119 O136 1.997 . S
O120 Fe119 2.002 . S
O120 C137 1.295 . S
O121 Fe116 1.997 . S
O121 C137 1.235 . S
O122 Fe116 2.002 . S
O122 C123 1.295 . S
C123 O122 1.295 . S
C123 O125 1.235 . S
C124 O129 1.287 . S
C124 O130 1.255 . S
O125 Fe117 1.997 . S
O125 C123 1.235 . S
C126 O132 1.287 . S
C126 O133 1.255 . S
O127 Fe116 1.976 . S
O127 C134 1.287 . S
O128 Fe117 1.996 . S
O128 C134 1.255 . S
O129 Fe119 1.976 . S
O129 C124 1.287 . S
O130 Fe116 1.996 . S
O130 C124 1.255 . S
C131 O135 1.295 . S
C131 O136 1.235 . S
O132 Fe117 1.976 . S
O132 C126 1.287 . S
O133 Fe119 1.996 . S
O133 C126 1.255 . S
C134 O127 1.287 . S
C134 O128 1.255 . S
O135 Fe117 2.002 . S
O135 C131 1.295 . S
O136 Fe119 1.997 . S
O136 C131 1.235 . S
C137 O120 1.295 . S
C137 O121 1.235 . S
Fe138 O140 1.918 . S
Fe138 O143 1.997 . S
Fe138 O144 2.002 . S
Fe138 O149 1.976 . S
Fe138 O152 1.996 . S
Fe139 O140 1.918 . S
Fe139 O147 1.997 . S
Fe139 O150 1.996 . S
Fe139 O154 1.976 . S
Fe139 O157 2.002 . S
O140 Fe138 1.918 . S
O140 Fe139 1.918 . S
O140 Fe141 1.918 . S
Fe141 O140 1.918 . S
Fe141 O142 2.002 . S
Fe141 O151 1.976 . S
Fe141 O155 1.996 . S
Fe141 O158 1.997 . S
O142 Fe141 2.002 . S
O142 C159 1.295 . S
O143 Fe138 1.997 . S
O143 C159 1.235 . S
O144 Fe138 2.002 . S
O144 C145 1.295 . S
C145 O144 1.295 . S
C145 O147 1.235 . S
C146 O151 1.287 . S
C146 O152 1.255 . S
O147 Fe139 1.997 . S
O147 C145 1.235 . S
C148 O154 1.287 . S
C148 O155 1.255 . S
O149 Fe138 1.976 . S
O149 C156 1.287 . S
O150 Fe139 1.996 . S
O150 C156 1.255 . S
O151 Fe141 1.976 . S
O151 C146 1.287 . S
O152 Fe138 1.996 . S
O152 C146 1.255 . S
C153 O157 1.295 . S
C153 O158 1.235 . S
O154 Fe139 1.976 . S
O154 C148 1.287 . S
O155 Fe141 1.996 . S
O155 C148 1.255 . S
C156 O149 1.287 . S
C156 O150 1.255 . S
O157 Fe139 2.002 . S
O157 C153 1.295 . S
O158 Fe141 1.997 . S
O158 C153 1.235 . S
C159 O142 1.295 . S
C159 O143 1.235 . S
H160 C166 0.930 . S
H161 C169 0.930 . S
H162 C170 0.930 1_554 S
H163 C171 0.930 . S
H164 C174 0.930 . S
H165 C175 0.930 . S
C166 H160 0.930 . S
C166 C167 1.355 . S
C166 C168 1.415 . S
C167 C166 1.355 . S
C167 C169 1.419 1_556 S
C168 C166 1.415 . S
C168 C173 1.425 . S
C168 C175 1.409 . S
C169 H161 0.930 . S
C169 C167 1.419 1_554 S
C169 C170 1.362 1_554 S
C170 H162 0.930 1_556 S
C170 C169 1.362 1_556 S
C170 C173 1.409 . S
C171 H163 0.930 . S
C171 C172 1.355 . S
C171 C173 1.415 . S
C172 C171 1.355 . S
C172 C174 1.419 . S
C173 C168 1.425 . S
C173 C170 1.409 . S
C173 C171 1.415 . S
C174 H164 0.930 . S
C174 C172 1.419 . S
C174 C175 1.362 . S
C175 H165 0.930 . S
C175 C168 1.409 . S
C175 C174 1.362 . S
H176 C182 0.930 . S
H177 C185 0.930 . S
H178 C186 0.930 . S
H179 C187 0.930 . S
H180 C190 0.930 . S
H181 C191 0.930 . S
C182 H176 0.930 . S
C182 C183 1.355 . S
C182 C184 1.415 . S
C183 C182 1.355 . S
C183 C185 1.419 . S
C184 C182 1.415 . S
C184 C189 1.425 . S
C184 C191 1.409 . S
C185 H177 0.930 . S
C185 C183 1.419 . S
C185 C186 1.362 . S
C186 H178 0.930 . S
C186 C185 1.362 . S
C186 C189 1.409 . S
C187 H179 0.930 . S
C187 C188 1.355 . S
C187 C189 1.415 . S
C188 C187 1.355 . S
C188 C190 1.419 . S
C189 C184 1.425 . S
C189 C186 1.409 . S
C189 C187 1.415 . S
C190 H180 0.930 . S
C190 C188 1.419 . S
C190 C191 1.362 . S
C191 H181 0.930 . S
C191 C184 1.409 . S
C191 C190 1.362 . S
H192 C198 0.930 . S
H193 C201 0.933 . S
H194 C202 0.930 . S
H195 C203 0.930 . S
H196 C206 0.930 . S
H197 C207 0.930 . S
C198 H192 0.930 . S
C198 C199 1.355 . S
C198 C200 1.415 . S
C199 C198 1.355 . S
C199 C201 1.419 . S
C200 C198 1.415 . S
C200 C205 1.425 . S
C200 C207 1.409 . S
C201 H193 0.933 . S
C201 C199 1.419 . S
C201 C202 1.362 . S
C202 H194 0.930 . S
C202 C201 1.362 . S
C202 C205 1.409 . S
C203 H195 0.930 . S
C203 C204 1.355 . S
C203 C205 1.415 . S
C204 C203 1.355 . S
C204 C206 1.419 . S
C205 C200 1.425 . S
C205 C202 1.409 . S
C205 C203 1.415 . S
C206 H196 0.930 . S
C206 C204 1.419 . S
C206 C207 1.362 . S
C207 H197 0.930 . S
C207 C200 1.409 . S
C207 C206 1.362 . S
H208 C214 0.930 . S
H209 C217 0.930 . S
H210 C218 0.930 . S
H211 C219 0.930 . S
H212 C222 0.930 . S
H213 C223 0.930 . S
C214 H208 0.930 . S
C214 C215 1.355 . S
C214 C216 1.415 . S
C215 C214 1.355 . S
C215 C217 1.419 . S
C216 C214 1.415 . S
C216 C221 1.425 . S
C216 C223 1.409 . S
C217 H209 0.930 . S
C217 C215 1.419 . S
C217 C218 1.362 . S
C218 H210 0.930 . S
C218 C217 1.362 . S
C218 C221 1.409 . S
C219 H211 0.930 . S
C219 C220 1.355 . S
C219 C221 1.415 . S
C220 C219 1.355 . S
C220 C222 1.419 . S
C221 C216 1.425 . S
C221 C218 1.409 . S
C221 C219 1.415 . S
C222 H212 0.930 . S
C222 C220 1.419 . S
C222 C223 1.362 . S
C223 H213 0.930 . S
C223 C216 1.409 . S
C223 C222 1.362 . S
H224 C230 0.930 1_554 S
H225 C233 0.930 . S
H226 C234 0.930 . S
H227 C235 0.930 . S
H228 C238 0.930 . S
H229 C239 0.930 . S
C230 H224 0.930 1_556 S
C230 C231 1.355 . S
C230 C232 1.415 . S
C231 C230 1.355 . S
C231 C233 1.419 . S
C232 C230 1.415 . S
C232 C237 1.425 . S
C232 C239 1.409 . S
C233 H225 0.930 . S
C233 C231 1.419 . S
C233 C234 1.362 . S
C234 H226 0.930 . S
C234 C233 1.362 . S
C234 C237 1.409 . S
C235 H227 0.930 . S
C235 C236 1.355 . S
C235 C237 1.415 . S
C236 C235 1.355 . S
C236 C238 1.419 . S
C237 C232 1.425 . S
C237 C234 1.409 . S
C237 C235 1.415 . S
C238 H228 0.930 . S
C238 C236 1.419 . S
C238 C239 1.362 . S
C239 H229 0.930 . S
C239 C232 1.409 . S
C239 C238 1.362 . S
H240 C246 0.930 . S
H241 C249 0.930 . S
H242 C250 0.930 . S
H243 C251 0.930 . S
H244 C254 0.930 . S
H245 C255 0.930 . S
C246 H240 0.930 . S
C246 C247 1.355 . S
C246 C248 1.415 . S
C247 C246 1.355 . S
C247 C249 1.419 . S
C248 C246 1.415 . S
C248 C253 1.425 . S
C248 C255 1.409 . S
C249 H241 0.930 . S
C249 C247 1.419 . S
C249 C250 1.362 . S
C250 H242 0.930 . S
C250 C249 1.362 . S
C250 C253 1.409 . S
C251 H243 0.930 . S
C251 C252 1.355 . S
C251 C253 1.415 . S
C252 C251 1.355 . S
C252 C254 1.419 . S
C253 C248 1.425 . S
C253 C250 1.409 . S
C253 C251 1.415 . S
C254 H244 0.930 . S
C254 C252 1.419 . S
C254 C255 1.362 . S
C255 H245 0.930 . S
C255 C248 1.409 . S
C255 C254 1.362 . S
H256 C262 0.930 . S
H257 C265 0.930 . S
H258 C266 0.930 . S
H259 C267 0.930 . S
H260 C270 0.930 . S
H261 C271 0.930 . S
C262 H256 0.930 . S
C262 C263 1.355 . S
C262 C264 1.415 . S
C263 C262 1.355 . S
C263 C265 1.419 . S
C264 C262 1.415 . S
C264 C269 1.425 . S
C264 C271 1.409 . S
C265 H257 0.930 . S
C265 C263 1.419 . S
C265 C266 1.362 . S
C266 H258 0.930 . S
C266 C265 1.362 . S
C266 C269 1.409 . S
C267 H259 0.930 . S
C267 C268 1.355 . S
C267 C269 1.415 . S
C268 C267 1.355 . S
C268 C270 1.419 . S
C269 C264 1.425 . S
C269 C266 1.409 . S
C269 C267 1.415 . S
C270 H260 0.930 . S
C270 C268 1.419 . S
C270 C271 1.362 . S
C271 H261 0.930 . S
C271 C264 1.409 . S
C271 C270 1.362 . S
H272 C278 0.930 . S
H273 C281 0.930 . S
H274 C282 0.930 . S
H275 C283 0.930 . S
H276 C286 0.930 . S
H277 C287 0.930 . S
C278 H272 0.930 . S
C278 C279 1.355 . S
C278 C280 1.415 . S
C279 C278 1.355 . S
C279 C281 1.419 . S
C280 C278 1.415 . S
C280 C285 1.425 . S
C280 C287 1.409 . S
C281 H273 0.930 . S
C281 C279 1.419 . S
C281 C282 1.362 . S
C282 H274 0.930 . S
C282 C281 1.362 . S
C282 C285 1.409 . S
C283 H275 0.930 . S
C283 C284 1.355 . S
C283 C285 1.415 . S
C284 C283 1.355 . S
C284 C286 1.419 . S
C285 C280 1.425 . S
C285 C282 1.409 . S
C285 C283 1.415 . S
C286 H276 0.930 . S
C286 C284 1.419 . S
C286 C287 1.362 . S
C287 H277 0.930 . S
C287 C280 1.409 . S
C287 C286 1.362 . S
H288 C294 0.930 . S
H289 C297 0.930 . S
H290 C298 0.930 . S
H291 C299 0.930 . S
H292 C302 0.930 . S
H293 C303 0.930 . S
C294 H288 0.930 . S
C294 C295 1.355 . S
C294 C296 1.415 . S
C295 C294 1.355 . S
C295 C297 1.419 . S
C296 C294 1.415 . S
C296 C301 1.425 . S
C296 C303 1.409 . S
C297 H289 0.930 . S
C297 C295 1.419 . S
C297 C298 1.362 . S
C298 H290 0.930 . S
C298 C297 1.362 . S
C298 C301 1.409 . S
C299 H291 0.930 . S
C299 C300 1.355 . S
C299 C301 1.415 . S
C300 C299 1.355 . S
C300 C302 1.419 . S
C301 C296 1.425 . S
C301 C298 1.409 . S
C301 C299 1.415 . S
C302 H292 0.930 . S
C302 C300 1.419 . S
C302 C303 1.362 . S
C303 H293 0.930 . S
C303 C296 1.409 . S
C303 C302 1.362 . S
H304 C310 0.930 . S
H305 C313 0.930 . S
H306 C314 0.930 . S
H307 C315 0.930 . S
H308 C318 0.930 . S
H309 C319 0.930 . S
C310 H304 0.930 . S
C310 C311 1.355 . S
C310 C312 1.415 . S
C311 C310 1.355 . S
C311 C313 1.419 . S
C312 C310 1.415 . S
C312 C317 1.425 . S
C312 C319 1.409 . S
C313 H305 0.930 . S
C313 C311 1.419 . S
C313 C314 1.362 . S
C314 H306 0.930 . S
C314 C313 1.362 . S
C314 C317 1.409 . S
C315 H307 0.930 . S
C315 C316 1.355 . S
C315 C317 1.415 . S
C316 C315 1.355 . S
C316 C318 1.419 . S
C317 C312 1.425 . S
C317 C314 1.409 . S
C317 C315 1.415 . S
C318 H308 0.930 . S
C318 C316 1.419 . S
C318 C319 1.362 . S
C319 H309 0.930 . S
C319 C312 1.409 . S
C319 C318 1.362 . S
H320 C326 0.930 . S
H321 C329 0.930 1_554 S
H322 C330 0.930 . S
H323 C331 0.930 . S
H324 C334 0.930 . S
H325 C335 0.930 . S
C326 H320 0.930 . S
C326 C327 1.355 . S
C326 C328 1.415 . S
C327 C326 1.355 . S
C327 C329 1.419 . S
C328 C326 1.415 . S
C328 C333 1.425 . S
C328 C335 1.409 . S
C329 H321 0.930 1_556 S
C329 C327 1.419 . S
C329 C330 1.362 . S
C330 H322 0.930 . S
C330 C329 1.362 . S
C330 C333 1.409 . S
C331 H323 0.930 . S
C331 C332 1.355 . S
C331 C333 1.415 . S
C332 C331 1.355 . S
C332 C334 1.419 . S
C333 C328 1.425 . S
C333 C330 1.409 . S
C333 C331 1.415 . S
C334 H324 0.930 . S
C334 C332 1.419 . S
C334 C335 1.362 . S
C335 H325 0.930 . S
C335 C328 1.409 . S
C335 C334 1.362 . S
H336 C342 0.930 . S
H337 C345 0.930 . S
H338 C346 0.930 . S
H339 C347 0.930 . S
H340 C350 0.930 . S
H341 C351 0.930 . S
C342 H336 0.930 . S
C342 C343 1.355 . S
C342 C344 1.415 . S
C343 C342 1.355 . S
C343 C345 1.419 . S
C344 C342 1.415 . S
C344 C349 1.425 . S
C344 C351 1.409 . S
C345 H337 0.930 . S
C345 C343 1.419 . S
C345 C346 1.362 . S
C346 H338 0.930 . S
C346 C345 1.362 . S
C346 C349 1.409 . S
C347 H339 0.930 . S
C347 C348 1.355 . S
C347 C349 1.415 . S
C348 C347 1.355 . S
C348 C350 1.419 . S
C349 C344 1.425 . S
C349 C346 1.409 . S
C349 C347 1.415 . S
C350 H340 0.930 . S
C350 C348 1.419 . S
C350 C351 1.362 . S
C351 H341 0.930 . S
C351 C344 1.409 . S
C351 C350 1.362 . S
H352 C358 0.930 1_554 S
H353 C361 0.930 . S
H354 C362 0.930 . S
H355 C363 0.930 . S
H356 C366 0.930 . S
H357 C367 0.930 . S
C358 H352 0.930 1_556 S
C358 C359 1.355 . S
C358 C360 1.415 1_565 S
C359 C358 1.355 . S
C359 C361 1.419 . S
C360 C358 1.415 1_545 S
C360 C365 1.425 . S
C360 C367 1.409 . S
C361 H353 0.930 . S
C361 C359 1.419 . S
C361 C362 1.362 . S
C362 H354 0.930 . S
C362 C361 1.362 . S
C362 C365 1.409 1_565 S
C363 H355 0.930 . S
C363 C364 1.355 . S
C363 C365 1.415 . S
C364 C363 1.355 . S
C364 C366 1.419 . S
C365 C360 1.425 . S
C365 C362 1.409 1_545 S
C365 C363 1.415 . S
C366 H356 0.930 . S
C366 C364 1.419 . S
C366 C367 1.362 . S
C367 H357 0.930 . S
C367 C360 1.409 . S
C367 C366 1.362 . S
H368 C374 0.930 . S
H369 C377 0.930 . S
H370 C378 0.930 . S
H371 C379 0.930 . S
H372 C382 0.930 . S
H373 C383 0.930 . S
C374 H368 0.930 . S
C374 C375 1.355 . S
C374 C376 1.415 1_545 S
C375 C374 1.355 . S
C375 C377 1.419 . S
C376 C374 1.415 1_565 S
C376 C381 1.425 . S
C376 C383 1.409 . S
C377 H369 0.930 . S
C377 C375 1.419 . S
C377 C378 1.362 . S
C378 H370 0.930 . S
C378 C377 1.362 . S
C378 C381 1.409 1_545 S
C379 H371 0.930 . S
C379 C380 1.355 . S
C379 C381 1.415 . S
C380 C379 1.355 . S
C380 C382 1.419 . S
C381 C376 1.425 . S
C381 C378 1.409 1_565 S
C381 C379 1.415 . S
C382 H372 0.930 . S
C382 C380 1.419 . S
C382 C383 1.362 . S
C383 H373 0.930 . S
C383 C376 1.409 . S
C383 C382 1.362 . S
H384 C390 0.930 1_544 S
H385 C393 0.930 . S
H386 C394 0.930 . S
H387 C395 0.930 . S
H388 C398 0.930 . S
H389 C399 0.930 . S
C390 H384 0.930 1_566 S
C390 C391 1.355 . S
C390 C392 1.415 1_565 S
C391 C390 1.355 . S
C391 C393 1.419 . S
C392 C390 1.415 1_545 S
C392 C397 1.425 . S
C392 C399 1.409 . S
C393 H385 0.930 . S
C393 C391 1.419 . S
C393 C394 1.362 . S
C394 H386 0.930 . S
C394 C393 1.362 . S
C394 C397 1.409 1_565 S
C395 H387 0.930 . S
C395 C396 1.355 . S
C395 C397 1.415 . S
C396 C395 1.355 . S
C396 C398 1.419 . S
C397 C392 1.425 . S
C397 C394 1.409 1_545 S
C397 C395 1.415 . S
C398 H388 0.930 . S
C398 C396 1.419 . S
C398 C399 1.362 . S
C399 H389 0.930 . S
C399 C392 1.409 . S
C399 C398 1.362 . S
H400 C406 0.930 . S
H401 C409 0.930 . S
H402 C410 0.930 . S
H403 C411 0.930 . S
H404 C414 0.930 . S
H405 C415 0.930 . S
C406 H400 0.930 . S
C406 C407 1.355 . S
C406 C408 1.415 . S
C407 C406 1.355 . S
C407 C409 1.419 1_545 S
C408 C406 1.415 . S
C408 C413 1.425 1_545 S
C408 C415 1.409 . S
C409 H401 0.930 . S
C409 C407 1.419 1_565 S
C409 C410 1.362 . S
C410 H402 0.930 . S
C410 C409 1.362 . S
C410 C413 1.409 . S
C411 H403 0.930 . S
C411 C412 1.355 . S
C411 C413 1.415 . S
C412 C411 1.355 . S
C412 C414 1.419 . S
C413 C408 1.425 1_565 S
C413 C410 1.409 . S
C413 C411 1.415 . S
C414 H404 0.930 . S
C414 C412 1.419 . S
C414 C415 1.362 1_565 S
C415 H405 0.930 . S
C415 C408 1.409 . S
C415 C414 1.362 1_545 S
H416 C422 0.930 . S
H417 C425 0.930 . S
H418 C426 0.930 . S
H419 C427 0.930 . S
H420 C430 0.930 . S
H421 C431 0.930 . S
C422 H416 0.930 . S
C422 C423 1.355 . S
C422 C424 1.415 . S
C423 C422 1.355 . S
C423 C425 1.419 . S
C424 C422 1.415 . S
C424 C429 1.425 . S
C424 C431 1.409 . S
C425 H417 0.930 . S
C425 C423 1.419 . S
C425 C426 1.362 . S
C426 H418 0.930 . S
C426 C425 1.362 . S
C426 C429 1.409 . S
C427 H419 0.930 . S
C427 C428 1.355 . S
C427 C429 1.415 . S
C428 C427 1.355 . S
C428 C430 1.419 . S
C429 C424 1.425 . S
C429 C426 1.409 . S
C429 C427 1.415 . S
C430 H420 0.930 . S
C430 C428 1.419 . S
C430 C431 1.362 . S
C431 H421 0.930 . S
C431 C424 1.409 . S
C431 C430 1.362 . S
H432 C438 0.930 . S
H433 C441 0.930 . S
H434 C442 0.930 . S
H435 C443 0.930 . S
H436 C446 0.930 . S
H437 C447 0.930 . S
C438 H432 0.930 . S
C438 C439 1.355 . S
C438 C440 1.415 . S
C439 C438 1.355 . S
C439 C441 1.419 . S
C440 C438 1.415 . S
C440 C445 1.425 . S
C440 C447 1.409 . S
C441 H433 0.930 . S
C441 C439 1.419 . S
C441 C442 1.362 . S
C442 H434 0.930 . S
C442 C441 1.362 . S
C442 C445 1.409 . S
C443 H435 0.930 . S
C443 C444 1.355 . S
C443 C445 1.415 . S
C444 C443 1.355 . S
C444 C446 1.419 . S
C445 C440 1.425 . S
C445 C442 1.409 . S
C445 C443 1.415 . S
C446 H436 0.930 . S
C446 C444 1.419 . S
C446 C447 1.362 . S
C447 H437 0.930 . S
C447 C440 1.409 . S
C447 C446 1.362 . S
H448 C454 0.930 . S
H449 C457 0.930 . S
H450 C458 0.930 . S
H451 C459 0.930 . S
H452 C462 0.930 . S
H453 C463 0.930 . S
C454 H448 0.930 . S
C454 C455 1.355 . S
C454 C456 1.415 . S
C455 C454 1.355 . S
C455 C457 1.419 . S
C456 C454 1.415 . S
C456 C461 1.425 . S
C456 C463 1.409 . S
C457 H449 0.930 . S
C457 C455 1.419 . S
C457 C458 1.362 . S
C458 H450 0.930 . S
C458 C457 1.362 . S
C458 C461 1.409 . S
C459 H451 0.930 . S
C459 C460 1.355 . S
C459 C461 1.415 . S
C460 C459 1.355 . S
C460 C462 1.419 . S
C461 C456 1.425 . S
C461 C458 1.409 . S
C461 C459 1.415 . S
C462 H452 0.930 . S
C462 C460 1.419 . S
C462 C463 1.362 . S
C463 H453 0.930 . S
C463 C456 1.409 . S
C463 C462 1.362 . S
H464 C470 0.930 . S
H465 C473 0.930 . S
H466 C474 0.930 . S
H467 C475 0.930 . S
H468 C478 0.930 . S
H469 C479 0.930 . S
C470 H464 0.930 . S
C470 C471 1.355 . S
C470 C472 1.415 . S
C471 C470 1.355 . S
C471 C473 1.419 . S
C472 C470 1.415 . S
C472 C477 1.425 . S
C472 C479 1.409 . S
C473 H465 0.930 . S
C473 C471 1.419 . S
C473 C474 1.362 . S
C474 H466 0.930 . S
C474 C473 1.362 . S
C474 C477 1.409 . S
C475 H467 0.930 . S
C475 C476 1.355 . S
C475 C477 1.415 . S
C476 C475 1.355 . S
C476 C478 1.419 . S
C477 C472 1.425 . S
C477 C474 1.409 . S
C477 C475 1.415 . S
C478 H468 0.930 . S
C478 C476 1.419 . S
C478 C479 1.362 . S
C479 H469 0.930 . S
C479 C472 1.409 . S
C479 C478 1.362 . S
H480 C486 0.930 . S
H481 C489 0.930 . S
H482 C490 0.930 . S
H483 C491 0.930 . S
H484 C494 0.930 . S
H485 C495 0.930 . S
C486 H480 0.930 . S
C486 C487 1.355 . S
C486 C488 1.415 . S
C487 C486 1.355 . S
C487 C489 1.419 . S
C488 C486 1.415 . S
C488 C493 1.425 . S
C488 C495 1.409 . S
C489 H481 0.930 . S
C489 C487 1.419 . S
C489 C490 1.362 . S
C490 H482 0.930 . S
C490 C489 1.362 . S
C490 C493 1.409 . S
C491 H483 0.930 . S
C491 C492 1.355 . S
C491 C493 1.415 . S
C492 C491 1.355 . S
C492 C494 1.419 . S
C493 C488 1.425 . S
C493 C490 1.409 . S
C493 C491 1.415 . S
C494 H484 0.930 . S
C494 C492 1.419 . S
C494 C495 1.362 . S
C495 H485 0.930 . S
C495 C488 1.409 . S
C495 C494 1.362 . S
H496 C502 0.930 . S
H497 C505 0.930 . S
H498 C506 0.930 . S
H499 C507 0.930 . S
H500 C510 0.930 . S
H501 C511 0.930 . S
C502 H496 0.930 . S
C502 C503 1.355 . S
C502 C504 1.415 . S
C503 C502 1.355 . S
C503 C505 1.419 . S
C504 C502 1.415 . S
C504 C509 1.425 . S
C504 C511 1.409 . S
C505 H497 0.930 . S
C505 C503 1.419 . S
C505 C506 1.362 . S
C506 H498 0.930 . S
C506 C505 1.362 . S
C506 C509 1.409 . S
C507 H499 0.930 . S
C507 C508 1.355 . S
C507 C509 1.415 . S
C508 C507 1.355 . S
C508 C510 1.419 . S
C509 C504 1.425 . S
C509 C506 1.409 . S
C509 C507 1.415 . S
C510 H500 0.930 . S
C510 C508 1.419 . S
C510 C511 1.362 . S
C511 H501 0.930 . S
C511 C504 1.409 . S
C511 C510 1.362 . S
H512 C518 0.930 . S
H513 C521 0.930 . S
H514 C522 0.930 . S
H515 C523 0.930 . S
H516 C526 0.930 . S
H517 C527 0.930 . S
C518 H512 0.930 . S
C518 C519 1.355 . S
C518 C520 1.415 . S
C519 C518 1.355 . S
C519 C521 1.419 . S
C520 C518 1.415 . S
C520 C525 1.425 . S
C520 C527 1.409 . S
C521 H513 0.930 . S
C521 C519 1.419 . S
C521 C522 1.362 . S
C522 H514 0.930 . S
C522 C521 1.362 . S
C522 C525 1.409 . S
C523 H515 0.930 . S
C523 C524 1.355 . S
C523 C525 1.415 . S
C524 C523 1.355 . S
C524 C526 1.419 . S
C525 C520 1.425 . S
C525 C522 1.409 . S
C525 C523 1.415 . S
C526 H516 0.930 . S
C526 C524 1.419 . S
C526 C527 1.362 . S
C527 H517 0.930 . S
C527 C520 1.409 . S
C527 C526 1.362 . S
H528 C534 0.930 . S
H529 C537 0.930 . S
H530 C538 0.930 . S
H531 C539 0.930 . S
H532 C542 0.930 . S
H533 C543 0.930 . S
C534 H528 0.930 . S
C534 C535 1.355 . S
C534 C536 1.415 . S
C535 C534 1.355 . S
C535 C537 1.419 . S
C536 C534 1.415 . S
C536 C541 1.425 . S
C536 C543 1.409 . S
C537 H529 0.930 . S
C537 C535 1.419 . S
C537 C538 1.362 . S
C538 H530 0.930 . S
C538 C537 1.362 . S
C538 C541 1.409 . S
C539 H531 0.930 . S
C539 C540 1.355 . S
C539 C541 1.415 . S
C540 C539 1.355 . S
C540 C542 1.419 . S
C541 C536 1.425 . S
C541 C538 1.409 . S
C541 C539 1.415 . S
C542 H532 0.930 . S
C542 C540 1.419 . S
C542 C543 1.362 . S
C543 H533 0.930 . S
C543 C536 1.409 . S
C543 C542 1.362 . S
C167 C7 1.526 . S
C172 C115 1.520 . S
C188 C79 1.521 . S
C183 C16 1.526 . S
C204 C102 1.506 . S
C199 C25 1.508 . S
C220 C90 1.478 . S
C215 C34 1.482 . S
C236 C159 1.484 . S
C231 C43 1.502 . S
C252 C123 1.523 . S
C247 C52 1.528 . S
C263 C61 1.486 . S
C268 C146 1.488 . S
C284 C134 1.479 . S
C279 C70 1.485 . S
C295 C5 1.458 . S
C300 C156 1.473 . S
C316 C126 1.473 . S
C311 C14 1.459 . S
C327 C22 1.469 . S
C332 C145 1.488 . S
C343 C32 1.469 . S
C348 C131 1.493 . S
C364 C112 1.460 . S
C359 C41 1.476 . S
C375 C50 1.475 . S
C380 C82 1.461 . S
C396 C101 1.482 . S
C391 C58 1.476 . S
C412 C87 1.460 . S
C407 C68 1.498 . S
C428 C137 1.487 . S
C423 C4 1.463 . S
C444 C153 1.489 . S
C439 C13 1.465 . S
C455 C23 1.462 . S
C460 C124 1.442 . S
C476 C148 1.457 . S
C471 C31 1.464 . S
C492 C93 1.461 . S
C487 C40 1.488 . S
C503 C49 1.467 . S
C508 C109 1.488 . S
C519 C59 1.467 . S
C524 C80 1.453 . S
C535 C67 1.433 . S
C540 C104 1.465 . S
