# Generated by pormake.
# Topology pto, (3,4)-cn, num edge types: 1
# Building blocks:
#     Node 0, Type 0, BuildingBlock: OLANEW_clean_sbu_2, # of connection points: 3
#     Node 1, Type 0, BuildingBlock: OLANEW_clean_sbu_2, # of connection points: 3
#     Node 2, Type 0, BuildingBlock: OLANEW_clean_sbu_2, # of connection points: 3
#     Node 3, Type 0, BuildingBlock: OLANEW_clean_sbu_2, # of connection points: 3
#     Node 4, Type 0, BuildingBlock: OLANEW_clean_sbu_2, # of connection points: 3
#     Node 5, Type 0, BuildingBlock: OLANEW_clean_sbu_2, # of connection points: 3
#     Node 6, Type 0, BuildingBlock: OLANEW_clean_sbu_2, # of connection points: 3
#     Node 7, Type 0, BuildingBlock: OLANEW_clean_sbu_2, # of connection points: 3
#     Node 8, Type 1, BuildingBlock: KUFVIS_clean_linker_0, # of connection points: 4
#     Node 9, Type 1, BuildingBlock: KUFVIS_clean_linker_0, # of connection points: 4
#     Node 10, Type 1, BuildingBlock: KUFVIS_clean_linker_0, # of connection points: 4
#     Node 11, Type 1, BuildingBlock: KUFVIS_clean_linker_0, # of connection points: 4
#     Node 12, Type 1, BuildingBlock: KUFVIS_clean_linker_0, # of connection points: 4
#     Node 13, Type 1, BuildingBlock: KUFVIS_clean_linker_0, # of connection points: 4
#     Edge 14, Type (0, 1), BuildingBlock: AJUNOK_clean_linker_0, # of connection points: 2
#     Edge 15, Type (0, 1), BuildingBlock: AJUNOK_clean_linker_0, # of connection points: 2
#     Edge 16, Type (0, 1), BuildingBlock: AJUNOK_clean_linker_0, # of connection points: 2
#     Edge 17, Type (0, 1), BuildingBlock: AJUNOK_clean_linker_0, # of connection points: 2
#     Edge 18, Type (0, 1), BuildingBlock: AJUNOK_clean_linker_0, # of connection points: 2
#     Edge 19, Type (0, 1), BuildingBlock: AJUNOK_clean_linker_0, # of connection points: 2
#     Edge 20, Type (0, 1), BuildingBlock: AJUNOK_clean_linker_0, # of connection points: 2
#     Edge 21, Type (0, 1), BuildingBlock: AJUNOK_clean_linker_0, # of connection points: 2
#     Edge 22, Type (0, 1), BuildingBlock: AJUNOK_clean_linker_0, # of connection points: 2
#     Edge 23, Type (0, 1), BuildingBlock: AJUNOK_clean_linker_0, # of connection points: 2
#     Edge 24, Type (0, 1), BuildingBlock: AJUNOK_clean_linker_0, # of connection points: 2
#     Edge 25, Type (0, 1), BuildingBlock: AJUNOK_clean_linker_0, # of connection points: 2
#     Edge 26, Type (0, 1), BuildingBlock: AJUNOK_clean_linker_0, # of connection points: 2
#     Edge 27, Type (0, 1), BuildingBlock: AJUNOK_clean_linker_0, # of connection points: 2
#     Edge 28, Type (0, 1), BuildingBlock: AJUNOK_clean_linker_0, # of connection points: 2
#     Edge 29, Type (0, 1), BuildingBlock: AJUNOK_clean_linker_0, # of connection points: 2
#     Edge 30, Type (0, 1), BuildingBlock: AJUNOK_clean_linker_0, # of connection points: 2
#     Edge 31, Type (0, 1), BuildingBlock: AJUNOK_clean_linker_0, # of connection points: 2
#     Edge 32, Type (0, 1), BuildingBlock: AJUNOK_clean_linker_0, # of connection points: 2
#     Edge 33, Type (0, 1), BuildingBlock: AJUNOK_clean_linker_0, # of connection points: 2
#     Edge 34, Type (0, 1), BuildingBlock: AJUNOK_clean_linker_0, # of connection points: 2
#     Edge 35, Type (0, 1), BuildingBlock: AJUNOK_clean_linker_0, # of connection points: 2
#     Edge 36, Type (0, 1), BuildingBlock: AJUNOK_clean_linker_0, # of connection points: 2
#     Edge 37, Type (0, 1), BuildingBlock: AJUNOK_clean_linker_0, # of connection points: 2
# Relax obj value: 0.010
# Max RMSD: 0.114
# Mean RMSD: 0.066
data_MOF--net-pto--node1-OLANEW_clean_sbu_2--node2-KUFVIS_clean_linker_0--edge1-AJUNOK_clean_linker_0
_symmetry_space_group_name_H-M    P1
_symmetry_Int_Tables_number       1
_symmetry_cell_setting            triclinic
loop_
_symmetry_equiv_pos_as_xyz
'x, y, z'
_cell_length_a     22.817607
_cell_length_b     40.643878
_cell_length_c     32.197945
_cell_angle_alpha  92.422659
_cell_angle_beta   89.057221
_cell_angle_gamma 108.31382
loop_
_atom_site_label
_atom_site_type_symbol
_atom_site_fract_x
_atom_site_fract_y
_atom_site_fract_z
_atom_type_partial_charge
O0 O 0.35735 0.34107 0.26037 0.0
Cd1 Cd 0.31725 0.34486 0.33052 0.0
O2 O 0.41465 0.39588 0.25894 0.0
Cd3 Cd 0.38072 0.41215 0.31716 0.0
O4 O 0.32961 0.44221 0.35012 0.0
C5 C 0.32958 0.47041 0.33445 0.0
O6 O 0.36333 0.48079 0.30118 0.0
C7 C 0.39571 0.36576 0.24162 0.0
C8 C 0.34236 0.29705 0.38199 0.0
O9 O 0.29225 0.28892 0.36099 0.0
O10 O 0.3803 0.32766 0.37846 0.0
O11 O 0.24011 0.93723 0.83795 0.0
Cd12 Cd 0.16162 0.94649 0.79315 0.0
O13 O 0.20336 0.88319 0.81579 0.0
Cd14 Cd 0.19915 0.8294 0.80112 0.0
O15 O 0.16406 0.78039 0.76527 0.0
C16 C 0.13432 0.75193 0.78146 0.0
O17 O 0.12711 0.75124 0.82201 0.0
C18 C 0.24244 0.90639 0.83769 0.0
C19 C 0.21419 0.98287 0.72303 0.0
O20 O 0.19734 0.99834 0.75429 0.0
O21 O 0.20594 0.9503 0.72475 0.0
O22 O 0.87266 0.82441 0.32249 0.0
Cd23 Cd 0.83081 0.76872 0.28222 0.0
O24 O 0.86468 0.85627 0.27054 0.0
Cd25 Cd 0.83062 0.81311 0.22529 0.0
O26 O 0.76225 0.79412 0.17618 0.0
C27 C 0.77384 0.80691 0.14049 0.0
O28 O 0.82945 0.82807 0.13316 0.0
C29 C 0.87829 0.85405 0.30821 0.0
C30 C 0.86197 0.71157 0.30981 0.0
O31 O 0.89243 0.7303 0.28076 0.0
O32 O 0.81713 0.72008 0.32647 0.0
O33 O 0.77646 0.31356 0.60554 0.0
Cd34 Cd 0.74959 0.25717 0.64026 0.0
O35 O 0.8051 0.32837 0.66961 0.0
Cd36 Cd 0.84309 0.36404 0.72195 0.0
O37 O 0.82148 0.37722 0.78489 0.0
C38 C 0.80448 0.40357 0.79368 0.0
O39 O 0.80787 0.42594 0.76473 0.0
C40 C 0.79712 0.33739 0.63338 0.0
C41 C 0.77282 0.19847 0.60398 0.0
O42 O 0.72085 0.20378 0.59931 0.0
O43 O 0.81504 0.22179 0.62421 0.0
O44 O 0.70221 0.79299 0.53921 0.0
Cd45 Cd 0.66427 0.72882 0.53911 0.0
O46 O 0.70873 0.80517 0.60655 0.0
Cd47 Cd 0.71843 0.84017 0.66135 0.0
O48 O 0.69673 0.86289 0.72001 0.0
C49 C 0.6969 0.84748 0.75353 0.0
O50 O 0.71347 0.81927 0.75203 0.0
C51 C 0.71337 0.81527 0.56947 0.0
C52 C 0.74162 0.6907 0.56111 0.0
O53 O 0.7444 0.70261 0.52463 0.0
O54 O 0.7046 0.69816 0.58751 0.0
O55 O 0.88964 0.32217 0.33551 0.0
Cd56 Cd 0.86775 0.26887 0.28988 0.0
O57 O 0.8406 0.34518 0.29298 0.0
Cd58 Cd 0.80863 0.29958 0.25115 0.0
O59 O 0.75613 0.2777 0.19536 0.0
C60 C 0.77902 0.28897 0.16053 0.0
O61 O 0.83663 0.30918 0.15942 0.0
C62 C 0.8724 0.34778 0.32567 0.0
C63 C 0.85687 0.20501 0.32487 0.0
O64 O 0.90965 0.22547 0.31405 0.0
O65 O 0.80975 0.21529 0.32036 0.0
O66 O 0.25437 0.40996 0.86373 0.0
Cd67 Cd 0.15304 0.40826 0.83933 0.0
O68 O 0.25808 0.37371 0.81205 0.0
Cd69 Cd 0.30553 0.34294 0.77574 0.0
O70 O 0.34428 0.31338 0.73116 0.0
C71 C 0.33013 0.28068 0.73344 0.0
O72 O 0.29434 0.2655 0.76403 0.0
C73 C 0.28158 0.39077 0.84496 0.0
C74 C 0.14755 0.45275 0.77692 0.0
O75 O 0.14793 0.46219 0.81544 0.0
O76 O 0.15283 0.42276 0.76799 0.0
O77 O 0.36603 0.89944 0.25355 0.0
Cd78 Cd 0.31861 0.89945 0.32229 0.0
O79 O 0.35152 0.84356 0.25855 0.0
Cd80 Cd 0.31428 0.83485 0.32172 0.0
O81 O 0.26489 0.79666 0.36661 0.0
C82 C 0.28258 0.77022 0.37043 0.0
O83 O 0.33194 0.76865 0.34989 0.0
C84 C 0.36935 0.87088 0.23765 0.0
C85 C 0.34994 0.96161 0.36997 0.0
O86 O 0.38052 0.94017 0.37276 0.0
O87 O 0.30611 0.95425 0.34335 0.0
H88 H 0.07737 0.45861 0.37573 0.0
H89 H 0.95189 0.51801 0.39198 0.0
H90 H 0.14893 0.56869 0.37888 0.0
H91 H 0.13066 0.60837 0.42063 0.0
H92 H 0.03426 0.67812 0.38785 0.0
H93 H 0.95105 0.56942 0.36174 0.0
C94 C 0.06922 0.4834 0.38054 0.0
C95 C 0.11939 0.51355 0.37923 0.0
C96 C 0.00879 0.4845 0.38501 0.0
C97 C 0.99865 0.51712 0.3885 0.0
C98 C 0.04923 0.54831 0.3877 0.0
C99 C 0.10935 0.54576 0.38195 0.0
C100 C 0.04103 0.58368 0.39167 0.0
C101 C 0.08977 0.6122 0.40793 0.0
C102 C 0.08841 0.64634 0.40583 0.0
C103 C 0.03514 0.65184 0.39126 0.0
C104 C 0.98518 0.62433 0.37645 0.0
C105 C 0.98822 0.59021 0.37592 0.0
H106 H 0.94478 0.67342 0.64926 0.0
H107 H 0.02429 0.59873 0.69085 0.0
H108 H 0.8836 0.56997 0.59528 0.0
H109 H 0.86986 0.51568 0.61817 0.0
H110 H 0.97946 0.45156 0.64714 0.0
H111 H 0.05967 0.56144 0.65877 0.0
C112 C 0.94847 0.64742 0.64685 0.0
C113 C 0.90915 0.62254 0.62007 0.0
C114 C 0.9903 0.63886 0.67201 0.0
C115 C 0.99311 0.60491 0.66989 0.0
C116 C 0.95652 0.57948 0.6414 0.0
C117 C 0.91346 0.58867 0.61688 0.0
C118 C 0.96369 0.54381 0.63851 0.0
C119 C 0.9143 0.51375 0.62669 0.0
C120 C 0.92173 0.48063 0.62761 0.0
C121 C 0.97657 0.47734 0.64276 0.0
C122 C 0.02477 0.50632 0.65632 0.0
C123 C 0.01987 0.53936 0.65102 0.0
H124 H 0.37644 0.25096 0.55132 0.0
H125 H 0.38477 0.16 0.60973 0.0
H126 H 0.35755 0.15846 0.47685 0.0
H127 H 0.3901 0.11143 0.47838 0.0
H128 H 0.31852 0.01446 0.53814 0.0
H129 H 0.31918 0.10807 0.60405 0.0
C130 C 0.37686 0.22433 0.54908 0.0
C131 C 0.37216 0.20739 0.5099 0.0
C132 C 0.37841 0.2068 0.5853 0.0
C133 C 0.37865 0.17236 0.58175 0.0
C134 C 0.36867 0.15367 0.54312 0.0
C135 C 0.36575 0.17179 0.50704 0.0
C136 C 0.35694 0.11512 0.54154 0.0
C137 C 0.36948 0.09736 0.50552 0.0
C138 C 0.35584 0.06108 0.50439 0.0
C139 C 0.33082 0.04251 0.53966 0.0
C140 C 0.31919 0.05948 0.5761 0.0
C141 C 0.33102 0.09552 0.57637 0.0
H142 H 0.53888 0.83134 0.12302 0.0
H143 H 0.58839 0.82905 0.99471 0.0
H144 H 0.45189 0.87754 0.03622 0.0
H145 H 0.41903 0.86675 0.97192 0.0
H146 H 0.49326 0.88392 0.84906 0.0
H147 H 0.60439 0.86436 0.94466 0.0
C148 C 0.53253 0.83704 0.0911 0.0
C149 C 0.48942 0.85371 0.08245 0.0
C150 C 0.56915 0.82896 0.05963 0.0
C151 C 0.5613 0.837 0.01861 0.0
C152 C 0.51915 0.85474 0.00886 0.0
C153 C 0.48381 0.86339 0.04172 0.0
C154 C 0.5125 0.86402 0.96476 0.0
C155 C 0.45763 0.86927 0.95102 0.0
C156 C 0.45178 0.87776 0.90977 0.0
C157 C 0.49954 0.87937 0.8814 0.0
C158 C 0.55386 0.87365 0.89379 0.0
C159 C 0.56081 0.86706 0.93554 0.0
H160 H 0.82869 0.13479 0.46573 0.0
H161 H 0.82259 0.0455 0.5334 0.0
H162 H 0.84334 0.0446 0.39879 0.0
H163 H 0.89093 1.00562 0.40948 0.0
H164 H 0.83802 0.9071 0.46616 0.0
H165 H 0.77889 0.98844 0.52184 0.0
C166 C 0.83083 0.10845 0.46591 0.0
C167 C 0.83829 0.09175 0.42858 0.0
C168 C 0.82407 0.09174 0.50329 0.0
C169 C 0.82651 0.05762 0.50377 0.0
C170 C 0.83444 0.03972 0.4662 0.0
C171 C 0.83964 0.05739 0.4284 0.0
C172 C 0.83645 1.00288 0.46643 0.0
C173 C 0.86752 0.98955 0.43445 0.0
C174 C 0.8686 0.95506 0.43438 0.0
C175 C 0.8397 0.93411 0.46674 0.0
C176 C 0.80834 0.94613 0.49828 0.0
C177 C 0.80595 0.98025 0.49807 0.0
H178 H 0.55373 0.30966 0.12748 0.0
H179 H 0.61972 0.32113 0.00166 0.0
H180 H 0.48006 0.36594 0.04419 0.0
H181 H 0.45471 0.35364 0.97312 0.0
H182 H 0.56113 0.40114 0.86823 0.0
H183 H 0.6521 0.37543 0.97214 0.0
C184 C 0.55086 0.31814 0.09629 0.0
C185 C 0.51027 0.33678 0.08869 0.0
C186 C 0.59158 0.31313 0.06543 0.0
C187 C 0.58932 0.32575 0.02584 0.0
C188 C 0.54976 0.34529 0.0178 0.0
C189 C 0.5099 0.35042 0.04946 0.0
C190 C 0.55294 0.36195 0.97725 0.0
C191 C 0.49931 0.36405 0.95823 0.0
C192 C 0.50279 0.37929 0.91964 0.0
C193 C 0.55963 0.39125 0.89912 0.0
C194 C 0.61351 0.38862 0.91715 0.0
C195 C 0.6101 0.37551 0.95705 0.0
C196 C 0.25164 0.47725 0.38651 0.0
C197 C 0.28477 0.4879 0.3496 0.0
C198 C 0.20101 0.48814 0.39771 0.0
C199 C 0.18153 0.51008 0.37246 0.0
H200 H 0.26288 0.45897 0.40595 0.0
H201 H 0.1747 0.47775 0.42516 0.0
S202 S 0.25663 0.54896 0.2755 0.0
N203 N 0.29826 0.5248 0.2901 0.0
N204 N 0.20214 0.54469 0.31111 0.0
C205 C 0.21687 0.52313 0.33726 0.0
C206 C 0.26876 0.51215 0.32583 0.0
C207 C 0.10031 0.7251 0.711 0.0
C208 C 0.10212 0.72132 0.75422 0.0
C209 C 0.06525 0.69801 0.68472 0.0
C210 C 0.03092 0.66588 0.70041 0.0
H211 H 0.12477 0.74953 0.69729 0.0
H212 H 0.06433 0.70241 0.65181 0.0
S213 S 0.02272 0.64139 0.81049 0.0
N214 N 0.06869 0.68194 0.81113 0.0
N215 N 0.00256 0.63109 0.76146 0.0
C216 C 0.03396 0.66113 0.7432 0.0
C217 C 0.06954 0.68882 0.77015 0.0
C218 C 0.91802 0.66783 0.29932 0.0
C219 C 0.88036 0.68205 0.32462 0.0
C220 C 0.945 0.64422 0.3148 0.0
C221 C 0.93573 0.63415 0.35623 0.0
H222 H 0.92956 0.67643 0.26797 0.0
H223 H 0.97808 0.63645 0.29547 0.0
S224 S 0.83574 0.66034 0.43394 0.0
N225 N 0.82986 0.68111 0.39197 0.0
N226 N 0.8823 0.63754 0.42115 0.0
C227 C 0.89434 0.64587 0.38078 0.0
C228 C 0.86623 0.66964 0.36497 0.0
C229 C 0.80303 0.39811 0.65508 0.0
C230 C 0.81382 0.37477 0.62458 0.0
C231 C 0.83127 0.43404 0.65269 0.0
C232 C 0.87109 0.44783 0.61963 0.0
H233 H 0.77561 0.38842 0.68233 0.0
H234 H 0.82691 0.45075 0.6789 0.0
S235 S 0.90464 0.39855 0.52794 0.0
N236 N 0.85901 0.36844 0.55713 0.0
N237 N 0.91274 0.43605 0.55291 0.0
C238 C 0.87652 0.42512 0.5867 0.0
C239 C 0.84759 0.38852 0.58905 0.0
C240 C 0.30927 0.24013 0.41739 0.0
C241 C 0.35451 0.27237 0.41095 0.0
C242 C 0.3168 0.21796 0.44775 0.0
C243 C 0.36978 0.22728 0.47277 0.0
H244 H 0.26663 0.23242 0.39991 0.0
H245 H 0.27964 0.19423 0.45309 0.0
S246 S 0.50524 0.30634 0.46536 0.0
N247 N 0.45696 0.31065 0.42992 0.0
N248 N 0.47049 0.26903 0.4869 0.0
C249 C 0.41674 0.25838 0.4652 0.0
C250 C 0.40931 0.2809 0.43432 0.0
C251 C 0.35268 0.92354 0.85861 0.0
C252 C 0.29349 0.89894 0.859 0.0
C253 C 0.40316 0.9167 0.87612 0.0
C254 C 0.39617 0.88525 0.89532 0.0
H255 H 0.36048 0.94789 0.84351 0.0
H256 H 0.44831 0.93599 0.87413 0.0
S257 S 0.24994 0.81358 0.90798 0.0
N258 N 0.22982 0.84292 0.88276 0.0
N259 N 0.32518 0.82993 0.91548 0.0
C260 C 0.3369 0.86094 0.89737 0.0
C261 C 0.28543 0.86779 0.87916 0.0
C262 C 0.86502 0.91146 0.32861 0.0
C263 C 0.8915 0.88532 0.3366 0.0
C264 C 0.86424 0.93714 0.35905 0.0
C265 C 0.89065 0.93787 0.39834 0.0
H266 H 0.84022 0.91048 0.29995 0.0
H267 H 0.8379 0.95445 0.35307 0.0
S268 S 0.97923 0.88086 0.43093 0.0
N269 N 0.95385 0.86549 0.38401 0.0
N270 N 0.95434 0.91445 0.44057 0.0
C271 C 0.92388 0.91456 0.40468 0.0
C272 C 0.92359 0.88801 0.37408 0.0
C273 C 0.73591 0.42879 0.83698 0.0
C274 C 0.76718 0.40404 0.83176 0.0
C275 C 0.68897 0.42496 0.86673 0.0
C276 C 0.67142 0.39621 0.89232 0.0
H277 H 0.74513 0.45024 0.81639 0.0
H278 H 0.66432 0.44382 0.86838 0.0
S279 S 0.74533 0.32688 0.89543 0.0
N280 N 0.78312 0.3524 0.85877 0.0
N281 N 0.69324 0.34436 0.9132 0.0
C282 C 0.70572 0.37281 0.88972 0.0
C283 C 0.75405 0.37696 0.85983 0.0
C284 C 0.22126 0.02903 0.67264 0.0
C285 C 0.24185 1.00205 0.68583 0.0
C286 C 0.24598 0.04718 0.63701 0.0
C287 C 0.29328 0.03956 0.6137 0.0
H288 H 0.18486 0.03574 0.68951 0.0
H289 H 0.22729 0.06708 0.62746 0.0
S290 S 0.36748 0.97336 0.63809 0.0
N291 N 0.31374 0.96941 0.6742 0.0
N292 N 0.36266 1.00464 0.60855 0.0
C293 C 0.31531 0.01312 0.62735 0.0
C294 C 0.28906 0.99413 0.66309 0.0
C295 C 0.73134 0.82958 0.08085 0.0
C296 C 0.72223 0.80523 0.11215 0.0
C297 C 0.68116 0.83488 0.06082 0.0
C298 C 0.62021 0.8159 0.07123 0.0
H299 H 0.77719 0.84656 0.07389 0.0
H300 H 0.69011 0.85589 0.03957 0.0
S301 S 0.57176 0.74332 0.14318 0.0
N302 N 0.64777 0.75769 0.14694 0.0
N303 N 0.55365 0.76767 0.10898 0.0
C304 C 0.6107 0.78888 0.09891 0.0
C305 C 0.66169 0.78351 0.11942 0.0
C306 C 0.84544 0.16604 0.5804 0.0
C307 C 0.78446 0.16691 0.58545 0.0
C308 C 0.85817 0.13873 0.55779 0.0
C309 C 0.81038 0.11098 0.54018 0.0
H310 H 0.88395 0.18763 0.59168 0.0
H311 H 0.90586 0.14068 0.55126 0.0
S312 S 0.64276 0.09814 0.54916 0.0
N313 N 0.67548 0.1354 0.57464 0.0
N314 N 0.69996 0.08427 0.53237 0.0
C315 C 0.74923 0.11007 0.5479 0.0
C316 C 0.73611 0.13799 0.57044 0.0
C317 C 0.41075 0.32481 0.18535 0.0
C318 C 0.41973 0.35913 0.20011 0.0
C319 C 0.43757 0.31776 0.14801 0.0
C320 C 0.47373 0.34475 0.12379 0.0
H321 H 0.38462 0.3031 0.20345 0.0
H322 H 0.43158 0.291 0.13861 0.0
S323 S 0.50763 0.43902 0.14646 0.0
N324 N 0.46431 0.42045 0.18585 0.0
N325 N 0.51498 0.40695 0.11581 0.0
C326 C 0.48079 0.3791 0.13702 0.0
C327 C 0.45382 0.38638 0.17517 0.0
C328 C 0.83745 0.6732 0.5526 0.0
C329 C 0.78037 0.66919 0.57257 0.0
C330 C 0.87745 0.65558 0.5658 0.0
C331 C 0.861 0.63268 0.59867 0.0
H332 H 0.85277 0.69143 0.52806 0.0
H333 H 0.92278 0.66121 0.55167 0.0
S334 S 0.71472 0.61031 0.65844 0.0
N335 N 0.70789 0.63861 0.62501 0.0
N336 N 0.78287 0.6053 0.64917 0.0
C337 C 0.80282 0.62691 0.61722 0.0
C338 C 0.76253 0.64521 0.60435 0.0
C339 C 0.88499 0.41153 0.33216 0.0
C340 C 0.89467 0.38202 0.34883 0.0
C341 C 0.91646 0.44524 0.34762 0.0
C342 C 0.95837 0.45073 0.3806 0.0
H343 H 0.85638 0.40888 0.30493 0.0
H344 H 0.91228 0.46707 0.33114 0.0
S345 S 0.99078 0.38253 0.44083 0.0
N346 N 0.9424 0.36075 0.40432 0.0
N347 N 0.99995 0.42388 0.434 0.0
C348 C 0.96264 0.42141 0.40073 0.0
C349 C 0.93144 0.38714 0.38463 0.0
C350 C 0.12808 0.46094 0.7024 0.0
C351 C 0.13277 0.47349 0.74406 0.0
C352 C 0.09901 0.47447 0.67249 0.0
C353 C 0.07328 0.50096 0.68313 0.0
H354 H 0.14311 0.4389 0.6933 0.0
H355 H 0.09249 0.46233 0.64157 0.0
S356 S 0.08383 0.54736 0.78599 0.0
N357 N 0.11821 0.51782 0.79271 0.0
N358 N 0.06209 0.54251 0.7369 0.0
C359 C 0.08359 0.51624 0.72354 0.0
C360 C 0.11362 0.50263 0.75394 0.0
C361 C 0.24512 0.70592 0.37687 0.0
C362 C 0.24114 0.73872 0.38966 0.0
C363 C 0.19819 0.67542 0.38633 0.0
C364 C 0.14583 0.67653 0.40934 0.0
H365 H 0.28217 0.70376 0.35657 0.0
H366 H 0.2005 0.65115 0.37231 0.0
S367 S 0.12149 0.7551 0.45947 0.0
N368 N 0.18638 0.77005 0.43292 0.0
N369 N 0.09901 0.71254 0.45172 0.0
C370 C 0.14518 0.70882 0.42663 0.0
C371 C 0.19254 0.73996 0.41648 0.0
C372 C 0.69615 0.863 0.53043 0.0
C373 C 0.72983 0.8525 0.56055 0.0
C374 C 0.71753 0.89635 0.51468 0.0
C375 C 0.77388 0.92018 0.52801 0.0
H376 H 0.65481 0.84461 0.51716 0.0
H377 H 0.69307 0.90228 0.48892 0.0
S378 S 0.87687 0.90646 0.60861 0.0
N379 N 0.81947 0.86957 0.60568 0.0
N380 N 0.86055 0.932 0.5751 0.0
C381 C 0.80554 0.91093 0.56032 0.0
C382 C 0.78333 0.87709 0.57682 0.0
C383 C 0.67506 0.26578 0.12785 0.0
C384 C 0.73646 0.28776 0.12577 0.0
C385 C 0.62868 0.27155 0.10409 0.0
C386 C 0.64196 0.29965 0.07763 0.0
H387 H 0.66173 0.24568 0.15041 0.0
H388 H 0.5813 0.25575 0.10916 0.0
S389 S 0.7975 0.35971 0.05364 0.0
N390 N 0.80991 0.33441 0.08898 0.0
N391 N 0.72237 0.34595 0.04536 0.0
C392 C 0.70421 0.31901 0.07129 0.0
C393 C 0.75163 0.31288 0.09518 0.0
C394 C 0.39384 0.2765 0.67057 0.0
C395 C 0.34798 0.25995 0.69933 0.0
C396 C 0.40611 0.25862 0.635 0.0
C397 C 0.37274 0.22352 0.62658 0.0
H398 H 0.4194 0.30379 0.67491 0.0
H399 H 0.44068 0.27271 0.61322 0.0
S400 S 0.24978 0.16768 0.69298 0.0
N401 N 0.27151 0.20576 0.71815 0.0
N402 N 0.29315 0.17252 0.65077 0.0
C403 C 0.32862 0.20623 0.656 0.0
C404 C 0.31658 0.22435 0.69247 0.0
C405 C 0.38461 0.83537 0.17582 0.0
C406 C 0.39411 0.86844 0.195 0.0
C407 C 0.41228 0.83121 0.13777 0.0
C408 C 0.45038 0.85991 0.1171 0.0
H409 H 0.35697 0.81221 0.19086 0.0
H410 H 0.40599 0.80517 0.12521 0.0
S411 S 0.48727 0.95217 0.15178 0.0
N412 N 0.44178 0.93071 0.18874 0.0
N413 N 0.49411 0.92256 0.11692 0.0
C414 C 0.45797 0.89323 0.13449 0.0
C415 C 0.42972 0.89758 0.17351 0.0
C416 C 0.90434 0.16366 0.3559 0.0
C417 C 0.85105 0.17124 0.34368 0.0
C418 C 0.90006 0.13459 0.37931 0.0
C419 C 0.84242 0.11177 0.39078 0.0
H420 H 0.94981 0.18143 0.34963 0.0
H421 H 0.94202 0.13153 0.39139 0.0
S422 S 0.68909 0.11677 0.36205 0.0
N423 N 0.73864 0.15095 0.34114 0.0
N424 N 0.73127 0.09658 0.38518 0.0
C425 C 0.78901 0.11736 0.37592 0.0
C426 C 0.79314 0.14702 0.35238 0.0
C427 C 0.38656 0.41717 0.87521 0.0
C428 C 0.3386 0.38743 0.86226 0.0
C429 C 0.44019 0.41434 0.89324 0.0
C430 C 0.44658 0.38168 0.89982 0.0
H431 H 0.38268 0.44274 0.87118 0.0
H432 H 0.47649 0.43777 0.90272 0.0
S433 S 0.33328 0.29605 0.87293 0.0
N434 N 0.30024 0.3244 0.85806 0.0
N435 N 0.40094 0.31916 0.89239 0.0
C436 C 0.39883 0.3518 0.88733 0.0
C437 C 0.34476 0.35466 0.86841 0.0
C438 C 0.39635 0.99359 0.43562 0.0
C439 C 0.36053 0.99179 0.39987 0.0
C440 C 0.39795 0.01777 0.46826 0.0
C441 C 0.36458 0.04143 0.4662 0.0
H442 H 0.42062 0.97493 0.4396 0.0
H443 H 0.42322 0.01691 0.49619 0.0
S444 S 0.27036 0.05082 0.37756 0.0
N445 N 0.29583 0.01833 0.3628 0.0
N446 N 0.29931 0.06383 0.4243 0.0
C447 C 0.33238 0.04174 0.42953 0.0
C448 C 0.33022 0.01689 0.39633 0.0
C449 C 0.65336 0.83484 0.82506 0.0
C450 C 0.66983 0.85786 0.79222 0.0
C451 C 0.6191 0.84128 0.8592 0.0
C452 C 0.60019 0.87106 0.86192 0.0
H453 H 0.66425 0.81073 0.82355 0.0
H454 H 0.60437 0.82181 0.88244 0.0
S455 S 0.64075 0.94261 0.78832 0.0
N456 N 0.67121 0.91389 0.76742 0.0
N457 N 0.60731 0.92602 0.83189 0.0
C458 C 0.62024 0.89555 0.83098 0.0
C459 C 0.65497 0.88898 0.79609 0.0
loop_
_geom_bond_atom_site_label_1
_geom_bond_atom_site_label_2
_geom_bond_distance
_geom_bond_site_symmetry_2
_ccdc_geom_bond_type
O0 Cd1 2.300 . S
O0 C7 1.275 . S
Cd1 O0 2.300 . S
Cd1 O9 2.381 . S
Cd1 O10 2.378 . S
O2 Cd3 2.385 . S
O2 C7 1.255 . S
Cd3 O2 2.385 . S
Cd3 O4 2.317 . S
O4 Cd3 2.317 . S
O4 C5 1.232 . S
C5 O4 1.232 . S
C5 O6 1.218 . S
O6 C5 1.218 . S
C7 O0 1.275 . S
C7 O2 1.255 . S
C8 O9 1.258 . S
C8 O10 1.256 . S
O9 Cd1 2.381 . S
O9 C8 1.258 . S
O10 Cd1 2.378 . S
O10 C8 1.256 . S
O11 Cd12 2.300 . S
O11 C18 1.275 . S
Cd12 O11 2.300 . S
Cd12 O20 2.381 . S
Cd12 O21 2.378 . S
O13 Cd14 2.385 . S
O13 C18 1.255 . S
Cd14 O13 2.385 . S
Cd14 O15 2.317 . S
O15 Cd14 2.317 . S
O15 C16 1.232 . S
C16 O15 1.232 . S
C16 O17 1.218 . S
O17 C16 1.218 . S
C18 O11 1.275 . S
C18 O13 1.255 . S
C19 O20 1.258 . S
C19 O21 1.256 . S
O20 Cd12 2.381 . S
O20 C19 1.258 . S
O21 Cd12 2.378 . S
O21 C19 1.256 . S
O22 Cd23 2.300 . S
O22 C29 1.275 . S
Cd23 O22 2.300 . S
Cd23 O31 2.381 . S
Cd23 O32 2.378 . S
O24 Cd25 2.385 . S
O24 C29 1.255 . S
Cd25 O24 2.385 . S
Cd25 O26 2.317 . S
O26 Cd25 2.317 . S
O26 C27 1.232 . S
C27 O26 1.232 . S
C27 O28 1.218 . S
O28 C27 1.218 . S
C29 O22 1.275 . S
C29 O24 1.255 . S
C30 O31 1.258 . S
C30 O32 1.256 . S
O31 Cd23 2.381 . S
O31 C30 1.258 . S
O32 Cd23 2.378 . S
O32 C30 1.256 . S
O33 Cd34 2.300 . S
O33 C40 1.275 . S
Cd34 O33 2.300 . S
Cd34 O42 2.381 . S
Cd34 O43 2.378 . S
O35 Cd36 2.385 . S
O35 C40 1.255 . S
Cd36 O35 2.385 . S
Cd36 O37 2.317 . S
O37 Cd36 2.317 . S
O37 C38 1.232 . S
C38 O37 1.232 . S
C38 O39 1.218 . S
O39 C38 1.218 . S
C40 O33 1.275 . S
C40 O35 1.255 . S
C41 O42 1.258 . S
C41 O43 1.256 . S
O42 Cd34 2.381 . S
O42 C41 1.258 . S
O43 Cd34 2.378 . S
O43 C41 1.256 . S
O44 Cd45 2.300 . S
O44 C51 1.275 . S
Cd45 O44 2.300 . S
Cd45 O53 2.381 . S
Cd45 O54 2.378 . S
O46 Cd47 2.385 . S
O46 C51 1.255 . S
Cd47 O46 2.385 . S
Cd47 O48 2.317 . S
O48 Cd47 2.317 . S
O48 C49 1.232 . S
C49 O48 1.232 . S
C49 O50 1.218 . S
O50 C49 1.218 . S
C51 O44 1.275 . S
C51 O46 1.255 . S
C52 O53 1.258 . S
C52 O54 1.256 . S
O53 Cd45 2.381 . S
O53 C52 1.258 . S
O54 Cd45 2.378 . S
O54 C52 1.256 . S
O55 Cd56 2.300 . S
O55 C62 1.275 . S
Cd56 O55 2.300 . S
Cd56 O64 2.381 . S
Cd56 O65 2.378 . S
O57 Cd58 2.385 . S
O57 C62 1.255 . S
Cd58 O57 2.385 . S
Cd58 O59 2.317 . S
O59 Cd58 2.317 . S
O59 C60 1.232 . S
C60 O59 1.232 . S
C60 O61 1.218 . S
O61 C60 1.218 . S
C62 O55 1.275 . S
C62 O57 1.255 . S
C63 O64 1.258 . S
C63 O65 1.256 . S
O64 Cd56 2.381 . S
O64 C63 1.258 . S
O65 Cd56 2.378 . S
O65 C63 1.256 . S
O66 Cd67 2.300 . S
O66 C73 1.275 . S
Cd67 O66 2.300 . S
Cd67 O75 2.381 . S
Cd67 O76 2.378 . S
O68 Cd69 2.385 . S
O68 C73 1.255 . S
Cd69 O68 2.385 . S
Cd69 O70 2.317 . S
O70 Cd69 2.317 . S
O70 C71 1.232 . S
C71 O70 1.232 . S
C71 O72 1.218 . S
O72 C71 1.218 . S
C73 O66 1.275 . S
C73 O68 1.255 . S
C74 O75 1.258 . S
C74 O76 1.256 . S
O75 Cd67 2.381 . S
O75 C74 1.258 . S
O76 Cd67 2.378 . S
O76 C74 1.256 . S
O77 Cd78 2.300 . S
O77 C84 1.275 . S
Cd78 O77 2.300 . S
Cd78 O86 2.381 . S
Cd78 O87 2.378 . S
O79 Cd80 2.385 . S
O79 C84 1.255 . S
Cd80 O79 2.385 . S
Cd80 O81 2.317 . S
O81 Cd80 2.317 . S
O81 C82 1.232 . S
C82 O81 1.232 . S
C82 O83 1.218 . S
O83 C82 1.218 . S
C84 O77 1.275 . S
C84 O79 1.255 . S
C85 O86 1.258 . S
C85 O87 1.256 . S
O86 Cd78 2.381 . S
O86 C85 1.258 . S
O87 Cd78 2.378 . S
O87 C85 1.256 . S
H88 C94 0.930 . S
H89 C97 0.931 . S
H90 C99 0.931 . S
H91 C101 0.930 . S
H92 C103 0.930 . S
H93 C105 0.939 . S
C94 H88 0.930 . S
C94 C95 1.380 . S
C94 C96 1.394 1_455 S
C95 C94 1.380 . S
C95 C99 1.382 . S
C96 C94 1.394 1_655 S
C96 C97 1.400 . S
C97 H89 0.931 . S
C97 C96 1.400 . S
C97 C98 1.375 1_655 S
C98 C97 1.375 1_455 S
C98 C99 1.415 . S
C98 C100 1.501 . S
C99 H90 0.931 . S
C99 C95 1.382 . S
C99 C98 1.415 . S
C100 C98 1.501 . S
C100 C101 1.384 . S
C100 C105 1.396 1_455 S
C101 H91 0.930 . S
C101 C100 1.384 . S
C101 C102 1.389 . S
C102 C101 1.389 . S
C102 C103 1.405 . S
C103 H92 0.930 . S
C103 C102 1.405 . S
C103 C104 1.364 . S
C104 C103 1.364 . S
C104 C105 1.404 1_455 S
C105 H93 0.939 . S
C105 C100 1.396 1_655 S
C105 C104 1.404 1_655 S
H106 C112 0.930 . S
H107 C115 0.931 . S
H108 C117 0.931 . S
H109 C119 0.930 . S
H110 C121 0.930 . S
H111 C123 0.931 . S
C112 H106 0.930 . S
C112 C113 1.380 1_455 S
C112 C114 1.394 . S
C113 C112 1.380 1_655 S
C113 C117 1.382 . S
C114 C112 1.394 . S
C114 C115 1.400 . S
C115 H107 0.931 . S
C115 C114 1.400 . S
C115 C116 1.375 . S
C116 C115 1.375 . S
C116 C117 1.415 1_455 S
C116 C118 1.501 1_455 S
C117 H108 0.931 . S
C117 C113 1.382 . S
C117 C116 1.415 1_655 S
C118 C116 1.501 1_655 S
C118 C119 1.384 . S
C118 C123 1.408 1_655 S
C119 H109 0.930 . S
C119 C118 1.384 . S
C119 C120 1.389 . S
C120 C119 1.389 . S
C120 C121 1.405 . S
C121 H110 0.930 . S
C121 C120 1.405 . S
C121 C122 1.364 1_655 S
C122 C121 1.364 1_455 S
C122 C123 1.400 . S
C123 H111 0.931 . S
C123 C118 1.408 1_455 S
C123 C122 1.400 . S
H124 C130 0.930 . S
H125 C133 0.931 . S
H126 C135 0.931 . S
H127 C137 0.930 . S
H128 C139 0.930 . S
H129 C141 0.931 . S
C130 H124 0.930 . S
C130 C131 1.380 . S
C130 C132 1.394 . S
C131 C130 1.380 . S
C131 C135 1.382 . S
C132 C130 1.394 . S
C132 C133 1.400 . S
C133 H125 0.931 . S
C133 C132 1.400 . S
C133 C134 1.375 . S
C134 C133 1.375 . S
C134 C135 1.415 . S
C134 C136 1.501 . S
C135 H126 0.931 . S
C135 C131 1.382 . S
C135 C134 1.415 . S
C136 C134 1.501 . S
C136 C137 1.384 . S
C136 C141 1.408 . S
C137 H127 0.930 . S
C137 C136 1.384 . S
C137 C138 1.389 . S
C138 C137 1.389 . S
C138 C139 1.405 . S
C139 H128 0.930 . S
C139 C138 1.405 . S
C139 C140 1.364 . S
C140 C139 1.364 . S
C140 C141 1.400 . S
C141 H129 0.931 . S
C141 C136 1.408 . S
C141 C140 1.400 . S
H142 C148 0.930 . S
H143 C151 0.931 . S
H144 C153 0.931 . S
H145 C155 0.930 . S
H146 C157 0.930 . S
H147 C159 0.931 . S
C148 H142 0.930 . S
C148 C149 1.380 . S
C148 C150 1.394 . S
C149 C148 1.380 . S
C149 C153 1.382 . S
C150 C148 1.394 . S
C150 C151 1.400 . S
C151 H143 0.931 . S
C151 C150 1.400 . S
C151 C152 1.375 . S
C152 C151 1.375 . S
C152 C153 1.415 . S
C152 C154 1.501 1_554 S
C153 H144 0.931 . S
C153 C149 1.382 . S
C153 C152 1.415 . S
C154 C152 1.501 1_556 S
C154 C155 1.384 . S
C154 C159 1.408 . S
C155 H145 0.930 . S
C155 C154 1.384 . S
C155 C156 1.389 . S
C156 C155 1.389 . S
C156 C157 1.405 . S
C157 H146 0.930 . S
C157 C156 1.405 . S
C157 C158 1.364 . S
C158 C157 1.364 . S
C158 C159 1.400 . S
C159 H147 0.931 . S
C159 C154 1.408 . S
C159 C158 1.400 . S
H160 C166 0.930 . S
H161 C169 0.931 . S
H162 C171 0.931 . S
H163 C173 0.930 . S
H164 C175 0.930 . S
H165 C177 0.931 1_545 S
C166 H160 0.930 . S
C166 C167 1.380 . S
C166 C168 1.394 . S
C167 C166 1.380 . S
C167 C171 1.382 . S
C168 C166 1.394 . S
C168 C169 1.400 . S
C169 H161 0.931 . S
C169 C168 1.400 . S
C169 C170 1.375 . S
C170 C169 1.375 . S
C170 C171 1.415 . S
C170 C172 1.501 . S
C171 H162 0.931 . S
C171 C167 1.382 . S
C171 C170 1.415 . S
C172 C170 1.501 . S
C172 C173 1.384 1_545 S
C172 C177 1.408 1_545 S
C173 H163 0.930 . S
C173 C172 1.384 1_565 S
C173 C174 1.389 . S
C174 C173 1.389 . S
C174 C175 1.405 . S
C175 H164 0.930 . S
C175 C174 1.405 . S
C175 C176 1.364 . S
C176 C175 1.364 . S
C176 C177 1.400 . S
C177 H165 0.931 1_565 S
C177 C172 1.408 1_565 S
C177 C176 1.400 . S
H178 C184 0.930 . S
H179 C187 0.931 . S
H180 C189 0.931 . S
H181 C191 0.930 . S
H182 C193 0.930 . S
H183 C195 0.931 . S
C184 H178 0.930 . S
C184 C185 1.380 . S
C184 C186 1.394 . S
C185 C184 1.380 . S
C185 C189 1.382 . S
C186 C184 1.394 . S
C186 C187 1.400 . S
C187 H179 0.931 . S
C187 C186 1.400 . S
C187 C188 1.375 . S
C188 C187 1.375 . S
C188 C189 1.415 . S
C188 C190 1.501 1_554 S
C189 H180 0.931 . S
C189 C185 1.382 . S
C189 C188 1.415 . S
C190 C188 1.501 1_556 S
C190 C191 1.384 . S
C190 C195 1.408 . S
C191 H181 0.930 . S
C191 C190 1.384 . S
C191 C192 1.389 . S
C192 C191 1.389 . S
C192 C193 1.405 . S
C193 H182 0.930 . S
C193 C192 1.405 . S
C193 C194 1.364 . S
C194 C193 1.364 . S
C194 C195 1.400 . S
C195 H183 0.931 . S
C195 C190 1.408 . S
C195 C194 1.400 . S
C196 C197 1.369 . S
C196 C198 1.419 . S
C196 H200 0.930 . S
C197 C196 1.369 . S
C197 C206 1.429 . S
C198 C196 1.419 . S
C198 C199 1.363 . S
C198 H201 0.929 . S
C199 C198 1.363 . S
C199 C205 1.428 . S
H200 C196 0.930 . S
H201 C198 0.929 . S
S202 N203 1.613 . S
S202 N204 1.610 . S
N203 S202 1.613 . S
N203 C206 1.350 . S
N204 S202 1.610 . S
N204 C205 1.351 . S
C205 C199 1.428 . S
C205 N204 1.351 . S
C205 C206 1.434 . S
C206 C197 1.429 . S
C206 N203 1.350 . S
C206 C205 1.434 . S
C207 C208 1.369 . S
C207 C209 1.419 . S
C207 H211 0.930 . S
C208 C207 1.369 . S
C208 C217 1.429 . S
C209 C207 1.419 . S
C209 C210 1.363 . S
C209 H212 0.929 . S
C210 C209 1.363 . S
C210 C216 1.428 . S
H211 C207 0.930 . S
H212 C209 0.929 . S
S213 N214 1.613 1_655 S
S213 N215 1.610 1_655 S
N214 S213 1.613 1_455 S
N214 C217 1.350 . S
N215 S213 1.610 1_455 S
N215 C216 1.351 . S
C216 C210 1.428 . S
C216 N215 1.351 . S
C216 C217 1.434 . S
C217 C208 1.429 . S
C217 N214 1.350 . S
C217 C216 1.434 . S
C218 C219 1.369 . S
C218 C220 1.419 . S
C218 H222 0.930 . S
C219 C218 1.369 . S
C219 C228 1.429 . S
C220 C218 1.419 . S
C220 C221 1.363 . S
C220 H223 0.921 1_655 S
C221 C220 1.363 . S
C221 C227 1.428 . S
H222 C218 0.930 . S
H223 C220 0.921 1_455 S
S224 N225 1.613 . S
S224 N226 1.610 . S
N225 S224 1.613 . S
N225 C228 1.350 . S
N226 S224 1.610 . S
N226 C227 1.351 . S
C227 C221 1.428 . S
C227 N226 1.351 . S
C227 C228 1.434 . S
C228 C219 1.429 . S
C228 N225 1.350 . S
C228 C227 1.434 . S
C229 C230 1.369 . S
C229 C231 1.419 . S
C229 H233 0.930 . S
C230 C229 1.369 . S
C230 C239 1.429 . S
C231 C229 1.419 . S
C231 C232 1.363 . S
C231 H234 0.929 . S
C232 C231 1.363 . S
C232 C238 1.428 . S
H233 C229 0.930 . S
H234 C231 0.929 . S
S235 N236 1.613 . S
S235 N237 1.610 . S
N236 S235 1.613 . S
N236 C239 1.350 . S
N237 S235 1.610 . S
N237 C238 1.351 . S
C238 C232 1.428 . S
C238 N237 1.351 . S
C238 C239 1.434 . S
C239 C230 1.429 . S
C239 N236 1.350 . S
C239 C238 1.434 . S
C240 C241 1.369 . S
C240 C242 1.419 . S
C240 H244 0.930 . S
C241 C240 1.369 . S
C241 C250 1.429 . S
C242 C240 1.419 . S
C242 C243 1.363 . S
C242 H245 0.929 . S
C243 C242 1.363 . S
C243 C249 1.428 . S
H244 C240 0.930 . S
H245 C242 0.929 . S
S246 N247 1.613 . S
S246 N248 1.610 . S
N247 S246 1.613 . S
N247 C250 1.350 . S
N248 S246 1.610 . S
N248 C249 1.351 . S
C249 C243 1.428 . S
C249 N248 1.351 . S
C249 C250 1.434 . S
C250 C241 1.429 . S
C250 N247 1.350 . S
C250 C249 1.434 . S
C251 C252 1.369 . S
C251 C253 1.419 . S
C251 H255 0.930 . S
C252 C251 1.369 . S
C252 C261 1.429 . S
C253 C251 1.419 . S
C253 C254 1.363 . S
C253 H256 0.929 . S
C254 C253 1.363 . S
C254 C260 1.428 . S
H255 C251 0.930 . S
H256 C253 0.929 . S
S257 N258 1.613 . S
S257 N259 1.610 . S
N258 S257 1.613 . S
N258 C261 1.350 . S
N259 S257 1.610 . S
N259 C260 1.351 . S
C260 C254 1.428 . S
C260 N259 1.351 . S
C260 C261 1.434 . S
C261 C252 1.429 . S
C261 N258 1.350 . S
C261 C260 1.434 . S
C262 C263 1.369 . S
C262 C264 1.419 . S
C262 H266 0.930 . S
C263 C262 1.369 . S
C263 C272 1.429 . S
C264 C262 1.419 . S
C264 C265 1.363 . S
C264 H267 0.929 . S
C265 C264 1.363 . S
C265 C271 1.428 . S
H266 C262 0.930 . S
H267 C264 0.929 . S
S268 N269 1.613 . S
S268 N270 1.610 . S
N269 S268 1.613 . S
N269 C272 1.350 . S
N270 S268 1.610 . S
N270 C271 1.351 . S
C271 C265 1.428 . S
C271 N270 1.351 . S
C271 C272 1.434 . S
C272 C263 1.429 . S
C272 N269 1.350 . S
C272 C271 1.434 . S
C273 C274 1.369 . S
C273 C275 1.419 . S
C273 H277 0.930 . S
C274 C273 1.369 . S
C274 C283 1.429 . S
C275 C273 1.419 . S
C275 C276 1.363 . S
C275 H278 0.929 . S
C276 C275 1.363 . S
C276 C282 1.428 . S
H277 C273 0.930 . S
H278 C275 0.929 . S
S279 N280 1.613 . S
S279 N281 1.610 . S
N280 S279 1.613 . S
N280 C283 1.350 . S
N281 S279 1.610 . S
N281 C282 1.351 . S
C282 C276 1.428 . S
C282 N281 1.351 . S
C282 C283 1.434 . S
C283 C274 1.429 . S
C283 N280 1.350 . S
C283 C282 1.434 . S
C284 C285 1.369 . S
C284 C286 1.419 1_565 S
C284 H288 0.930 . S
C285 C284 1.369 . S
C285 C294 1.429 . S
C286 C284 1.419 1_545 S
C286 C287 1.363 . S
C286 H289 0.929 . S
C287 C286 1.363 . S
C287 C293 1.428 1_545 S
H288 C284 0.930 . S
H289 C286 0.929 . S
S290 N291 1.613 . S
S290 N292 1.610 . S
N291 S290 1.613 . S
N291 C294 1.350 . S
N292 S290 1.610 . S
N292 C293 1.351 . S
C293 C287 1.428 1_565 S
C293 N292 1.351 . S
C293 C294 1.434 . S
C294 C285 1.429 . S
C294 N291 1.350 . S
C294 C293 1.434 . S
C295 C296 1.369 . S
C295 C297 1.419 . S
C295 H299 0.930 . S
C296 C295 1.369 . S
C296 C305 1.429 . S
C297 C295 1.419 . S
C297 C298 1.363 . S
C297 H300 0.929 . S
C298 C297 1.363 . S
C298 C304 1.428 . S
H299 C295 0.930 . S
H300 C297 0.929 . S
S301 N302 1.613 . S
S301 N303 1.610 . S
N302 S301 1.613 . S
N302 C305 1.350 . S
N303 S301 1.610 . S
N303 C304 1.351 . S
C304 C298 1.428 . S
C304 N303 1.351 . S
C304 C305 1.434 . S
C305 C296 1.429 . S
C305 N302 1.350 . S
C305 C304 1.434 . S
C306 C307 1.369 . S
C306 C308 1.419 . S
C306 H310 0.930 . S
C307 C306 1.369 . S
C307 C316 1.429 . S
C308 C306 1.419 . S
C308 C309 1.363 . S
C308 H311 0.929 . S
C309 C308 1.363 . S
C309 C315 1.428 . S
H310 C306 0.930 . S
H311 C308 0.929 . S
S312 N313 1.613 . S
S312 N314 1.610 . S
N313 S312 1.613 . S
N313 C316 1.350 . S
N314 S312 1.610 . S
N314 C315 1.351 . S
C315 C309 1.428 . S
C315 N314 1.351 . S
C315 C316 1.434 . S
C316 C307 1.429 . S
C316 N313 1.350 . S
C316 C315 1.434 . S
C317 C318 1.369 . S
C317 C319 1.419 . S
C317 H321 0.930 . S
C318 C317 1.369 . S
C318 C327 1.429 . S
C319 C317 1.419 . S
C319 C320 1.363 . S
C319 H322 0.929 . S
C320 C319 1.363 . S
C320 C326 1.428 . S
H321 C317 0.930 . S
H322 C319 0.929 . S
S323 N324 1.613 . S
S323 N325 1.610 . S
N324 S323 1.613 . S
N324 C327 1.350 . S
N325 S323 1.610 . S
N325 C326 1.351 . S
C326 C320 1.428 . S
C326 N325 1.351 . S
C326 C327 1.434 . S
C327 C318 1.429 . S
C327 N324 1.350 . S
C327 C326 1.434 . S
C328 C329 1.369 . S
C328 C330 1.419 . S
C328 H332 0.930 . S
C329 C328 1.369 . S
C329 C338 1.429 . S
C330 C328 1.419 . S
C330 C331 1.363 . S
C330 H333 0.929 . S
C331 C330 1.363 . S
C331 C337 1.428 . S
H332 C328 0.930 . S
H333 C330 0.929 . S
S334 N335 1.613 . S
S334 N336 1.610 . S
N335 S334 1.613 . S
N335 C338 1.350 . S
N336 S334 1.610 . S
N336 C337 1.351 . S
C337 C331 1.428 . S
C337 N336 1.351 . S
C337 C338 1.434 . S
C338 C329 1.429 . S
C338 N335 1.350 . S
C338 C337 1.434 . S
C339 C340 1.369 . S
C339 C341 1.419 . S
C339 H343 0.930 . S
C340 C339 1.369 . S
C340 C349 1.429 . S
C341 C339 1.419 . S
C341 C342 1.363 . S
C341 H344 0.929 . S
C342 C341 1.363 . S
C342 C348 1.428 . S
H343 C339 0.930 . S
H344 C341 0.929 . S
S345 N346 1.613 1_455 S
S345 N347 1.610 . S
N346 S345 1.613 1_655 S
N346 C349 1.350 . S
N347 S345 1.610 . S
N347 C348 1.351 1_455 S
C348 C342 1.428 . S
C348 N347 1.351 1_655 S
C348 C349 1.434 . S
C349 C340 1.429 . S
C349 N346 1.350 . S
C349 C348 1.434 . S
C350 C351 1.369 . S
C350 C352 1.419 . S
C350 H354 0.930 . S
C351 C350 1.369 . S
C351 C360 1.429 . S
C352 C350 1.419 . S
C352 C353 1.363 . S
C352 H355 0.929 . S
C353 C352 1.363 . S
C353 C359 1.428 . S
H354 C350 0.930 . S
H355 C352 0.929 . S
S356 N357 1.613 . S
S356 N358 1.610 . S
N357 S356 1.613 . S
N357 C360 1.350 . S
N358 S356 1.610 . S
N358 C359 1.351 . S
C359 C353 1.428 . S
C359 N358 1.351 . S
C359 C360 1.434 . S
C360 C351 1.429 . S
C360 N357 1.350 . S
C360 C359 1.434 . S
C361 C362 1.369 . S
C361 C363 1.419 . S
C361 H365 0.930 . S
C362 C361 1.369 . S
C362 C371 1.429 . S
C363 C361 1.419 . S
C363 C364 1.363 . S
C363 H366 0.929 . S
C364 C363 1.363 . S
C364 C370 1.428 . S
H365 C361 0.930 . S
H366 C363 0.929 . S
S367 N368 1.613 . S
S367 N369 1.610 . S
N368 S367 1.613 . S
N368 C371 1.350 . S
N369 S367 1.610 . S
N369 C370 1.351 . S
C370 C364 1.428 . S
C370 N369 1.351 . S
C370 C371 1.434 . S
C371 C362 1.429 . S
C371 N368 1.350 . S
C371 C370 1.434 . S
C372 C373 1.369 . S
C372 C374 1.419 . S
C372 H376 0.930 . S
C373 C372 1.369 . S
C373 C382 1.429 . S
C374 C372 1.419 . S
C374 C375 1.363 . S
C374 H377 0.929 . S
C375 C374 1.363 . S
C375 C381 1.428 . S
H376 C372 0.930 . S
H377 C374 0.929 . S
S378 N379 1.613 . S
S378 N380 1.610 . S
N379 S378 1.613 . S
N379 C382 1.350 . S
N380 S378 1.610 . S
N380 C381 1.351 . S
C381 C375 1.428 . S
C381 N380 1.351 . S
C381 C382 1.434 . S
C382 C373 1.429 . S
C382 N379 1.350 . S
C382 C381 1.434 . S
C383 C384 1.369 . S
C383 C385 1.419 . S
C383 H387 0.930 . S
C384 C383 1.369 . S
C384 C393 1.429 . S
C385 C383 1.419 . S
C385 C386 1.363 . S
C385 H388 0.929 . S
C386 C385 1.363 . S
C386 C392 1.428 . S
H387 C383 0.930 . S
H388 C385 0.929 . S
S389 N390 1.613 . S
S389 N391 1.610 . S
N390 S389 1.613 . S
N390 C393 1.350 . S
N391 S389 1.610 . S
N391 C392 1.351 . S
C392 C386 1.428 . S
C392 N391 1.351 . S
C392 C393 1.434 . S
C393 C384 1.429 . S
C393 N390 1.350 . S
C393 C392 1.434 . S
C394 C395 1.369 . S
C394 C396 1.419 . S
C394 H398 0.930 . S
C395 C394 1.369 . S
C395 C404 1.429 . S
C396 C394 1.419 . S
C396 C397 1.363 . S
C396 H399 0.929 . S
C397 C396 1.363 . S
C397 C403 1.428 . S
H398 C394 0.930 . S
H399 C396 0.929 . S
S400 N401 1.613 . S
S400 N402 1.610 . S
N401 S400 1.613 . S
N401 C404 1.350 . S
N402 S400 1.610 . S
N402 C403 1.351 . S
C403 C397 1.428 . S
C403 N402 1.351 . S
C403 C404 1.434 . S
C404 C395 1.429 . S
C404 N401 1.350 . S
C404 C403 1.434 . S
C405 C406 1.369 . S
C405 C407 1.419 . S
C405 H409 0.930 . S
C406 C405 1.369 . S
C406 C415 1.429 . S
C407 C405 1.419 . S
C407 C408 1.363 . S
C407 H410 0.929 . S
C408 C407 1.363 . S
C408 C414 1.428 . S
H409 C405 0.930 . S
H410 C407 0.929 . S
S411 N412 1.613 . S
S411 N413 1.610 . S
N412 S411 1.613 . S
N412 C415 1.350 . S
N413 S411 1.610 . S
N413 C414 1.351 . S
C414 C408 1.428 . S
C414 N413 1.351 . S
C414 C415 1.434 . S
C415 C406 1.429 . S
C415 N412 1.350 . S
C415 C414 1.434 . S
C416 C417 1.369 . S
C416 C418 1.419 . S
C416 H420 0.930 . S
C417 C416 1.369 . S
C417 C426 1.429 . S
C418 C416 1.419 . S
C418 C419 1.363 . S
C418 H421 0.929 . S
C419 C418 1.363 . S
C419 C425 1.428 . S
H420 C416 0.930 . S
H421 C418 0.929 . S
S422 N423 1.613 . S
S422 N424 1.610 . S
N423 S422 1.613 . S
N423 C426 1.350 . S
N424 S422 1.610 . S
N424 C425 1.351 . S
C425 C419 1.428 . S
C425 N424 1.351 . S
C425 C426 1.434 . S
C426 C417 1.429 . S
C426 N423 1.350 . S
C426 C425 1.434 . S
C427 C428 1.369 . S
C427 C429 1.419 . S
C427 H431 0.930 . S
C428 C427 1.369 . S
C428 C437 1.429 . S
C429 C427 1.419 . S
C429 C430 1.363 . S
C429 H432 0.929 . S
C430 C429 1.363 . S
C430 C436 1.428 . S
H431 C427 0.930 . S
H432 C429 0.929 . S
S433 N434 1.613 . S
S433 N435 1.610 . S
N434 S433 1.613 . S
N434 C437 1.350 . S
N435 S433 1.610 . S
N435 C436 1.351 . S
C436 C430 1.428 . S
C436 N435 1.351 . S
C436 C437 1.434 . S
C437 C428 1.429 . S
C437 N434 1.350 . S
C437 C436 1.434 . S
C438 C439 1.369 . S
C438 C440 1.419 1_565 S
C438 H442 0.930 . S
C439 C438 1.369 . S
C439 C448 1.429 . S
C440 C438 1.419 1_545 S
C440 C441 1.363 . S
C440 H443 0.929 . S
C441 C440 1.363 . S
C441 C447 1.428 . S
H442 C438 0.930 . S
H443 C440 0.929 . S
S444 N445 1.613 1_545 S
S444 N446 1.610 . S
N445 S444 1.613 1_565 S
N445 C448 1.350 . S
N446 S444 1.610 . S
N446 C447 1.351 . S
C447 C441 1.428 . S
C447 N446 1.351 . S
C447 C448 1.434 1_545 S
C448 C439 1.429 . S
C448 N445 1.350 . S
C448 C447 1.434 1_565 S
C449 C450 1.369 . S
C449 C451 1.419 . S
C449 H453 0.930 . S
C450 C449 1.369 . S
C450 C459 1.429 . S
C451 C449 1.419 . S
C451 C452 1.363 . S
C451 H454 0.929 . S
C452 C451 1.363 . S
C452 C458 1.428 . S
H453 C449 0.930 . S
H454 C451 0.929 . S
S455 N456 1.613 . S
S455 N457 1.610 . S
N456 S455 1.613 . S
N456 C459 1.350 . S
N457 S455 1.610 . S
N457 C458 1.351 . S
C458 C452 1.428 . S
C458 N457 1.351 . S
C458 C459 1.434 . S
C459 C450 1.429 . S
C459 N456 1.350 . S
C459 C458 1.434 . S
C199 C95 1.502 . S
C197 C5 1.386 . S
C210 C114 1.476 . S
C208 C16 1.310 . S
C221 C104 1.611 1_655 S
C219 C30 1.671 . S
C232 C120 1.642 . S
C230 C40 1.619 . S
C243 C131 1.414 . S
C241 C8 1.478 . S
C254 C156 1.414 . S
C252 C18 1.413 . S
C263 C29 1.698 . S
C265 C174 1.642 . S
C276 C194 1.515 . S
C274 C38 1.272 . S
C287 C140 1.401 . S
C285 C19 1.448 . S
C296 C27 1.421 . S
C298 C150 1.514 . S
C309 C168 1.549 . S
C307 C41 1.601 . S
C320 C185 1.461 . S
C318 C7 1.508 . S
C329 C52 1.654 . S
C331 C113 1.626 . S
C342 C96 1.572 . S
C340 C62 1.589 . S
C351 C74 1.528 . S
C353 C122 1.434 . S
C362 C82 1.296 . S
C364 C102 1.421 . S
C375 C176 1.741 . S
C373 C51 1.713 . S
C386 C186 1.532 . S
C384 C60 1.337 . S
C397 C132 1.436 . S
C395 C71 1.217 . S
C406 C84 1.452 . S
C408 C149 1.416 . S
C419 C167 1.582 . S
C417 C63 1.695 . S
C430 C192 1.423 . S
C428 C73 1.439 . S
C441 C138 1.442 . S
C439 C85 1.489 . S
C450 C49 1.319 . S
C452 C158 1.560 . S
