# Generated by pormake.
# Topology pyr, (3,6)-cn, num edge types: 1
# Building blocks:
#     Node 0, Type 0, BuildingBlock: BELTOD_clean_linker_0, # of connection points: 3
#     Node 1, Type 0, BuildingBlock: BELTOD_clean_linker_0, # of connection points: 3
#     Node 2, Type 0, BuildingBlock: BELTOD_clean_linker_0, # of connection points: 3
#     Node 3, Type 0, BuildingBlock: BELTOD_clean_linker_0, # of connection points: 3
#     Node 4, Type 0, BuildingBlock: BELTOD_clean_linker_0, # of connection points: 3
#     Node 5, Type 0, BuildingBlock: BELTOD_clean_linker_0, # of connection points: 3
#     Node 6, Type 0, BuildingBlock: BELTOD_clean_linker_0, # of connection points: 3
#     Node 7, Type 0, BuildingBlock: BELTOD_clean_linker_0, # of connection points: 3
#     Node 8, Type 1, BuildingBlock: JUFBIX_clean_sbu_0, # of connection points: 6
#     Node 9, Type 1, BuildingBlock: JUFBIX_clean_sbu_0, # of connection points: 6
#     Node 10, Type 1, BuildingBlock: JUFBIX_clean_sbu_0, # of connection points: 6
#     Node 11, Type 1, BuildingBlock: JUFBIX_clean_sbu_0, # of connection points: 6
#     Edge 12, Type (0, 1), BuildingBlock: EZIPEK_clean_linker_0, # of connection points: 2
#     Edge 13, Type (0, 1), BuildingBlock: EZIPEK_clean_linker_0, # of connection points: 2
#     Edge 14, Type (0, 1), BuildingBlock: EZIPEK_clean_linker_0, # of connection points: 2
#     Edge 15, Type (0, 1), BuildingBlock: EZIPEK_clean_linker_0, # of connection points: 2
#     Edge 16, Type (0, 1), BuildingBlock: EZIPEK_clean_linker_0, # of connection points: 2
#     Edge 17, Type (0, 1), BuildingBlock: EZIPEK_clean_linker_0, # of connection points: 2
#     Edge 18, Type (0, 1), BuildingBlock: EZIPEK_clean_linker_0, # of connection points: 2
#     Edge 19, Type (0, 1), BuildingBlock: EZIPEK_clean_linker_0, # of connection points: 2
#     Edge 20, Type (0, 1), BuildingBlock: EZIPEK_clean_linker_0, # of connection points: 2
#     Edge 21, Type (0, 1), BuildingBlock: EZIPEK_clean_linker_0, # of connection points: 2
#     Edge 22, Type (0, 1), BuildingBlock: EZIPEK_clean_linker_0, # of connection points: 2
#     Edge 23, Type (0, 1), BuildingBlock: EZIPEK_clean_linker_0, # of connection points: 2
#     Edge 24, Type (0, 1), BuildingBlock: EZIPEK_clean_linker_0, # of connection points: 2
#     Edge 25, Type (0, 1), BuildingBlock: EZIPEK_clean_linker_0, # of connection points: 2
#     Edge 26, Type (0, 1), BuildingBlock: EZIPEK_clean_linker_0, # of connection points: 2
#     Edge 27, Type (0, 1), BuildingBlock: EZIPEK_clean_linker_0, # of connection points: 2
#     Edge 28, Type (0, 1), BuildingBlock: EZIPEK_clean_linker_0, # of connection points: 2
#     Edge 29, Type (0, 1), BuildingBlock: EZIPEK_clean_linker_0, # of connection points: 2
#     Edge 30, Type (0, 1), BuildingBlock: EZIPEK_clean_linker_0, # of connection points: 2
#     Edge 31, Type (0, 1), BuildingBlock: EZIPEK_clean_linker_0, # of connection points: 2
#     Edge 32, Type (0, 1), BuildingBlock: EZIPEK_clean_linker_0, # of connection points: 2
#     Edge 33, Type (0, 1), BuildingBlock: EZIPEK_clean_linker_0, # of connection points: 2
#     Edge 34, Type (0, 1), BuildingBlock: EZIPEK_clean_linker_0, # of connection points: 2
#     Edge 35, Type (0, 1), BuildingBlock: EZIPEK_clean_linker_0, # of connection points: 2
# Relax obj value: 0.077
# Max RMSD: 0.102
# Mean RMSD: 0.044
data_MOF--net-pry--node1-JUFBIX_clean_sbu_0--node2-BELTOD_clean_linker_0--edge1-EZIPEK_clean_linker_0
_symmetry_space_group_name_H-M    P1
_symmetry_Int_Tables_number       1
_symmetry_cell_setting            triclinic
loop_
_symmetry_equiv_pos_as_xyz
'x, y, z'
_cell_length_a     32.964801
_cell_length_b     31.189494
_cell_length_c     32.66418
_cell_angle_alpha  83.954691
_cell_angle_beta   90.290234
_cell_angle_gamma 91.645486
loop_
_atom_site_label
_atom_site_type_symbol
_atom_site_fract_x
_atom_site_fract_y
_atom_site_fract_z
_atom_type_partial_charge
P0 P 0.20245 0.18259 0.2135 0.0
H1 H 0.28941 0.20325 0.20114 0.0
H2 H 0.34365 0.17188 0.16448 0.0
H3 H 0.25873 0.0771 0.12471 0.0
H4 H 0.20389 0.10827 0.16259 0.0
H5 H 0.13586 0.23715 0.23214 0.0
H6 H 0.09834 0.2935 0.19124 0.0
H7 H 0.16144 0.26618 0.08219 0.0
H8 H 0.19901 0.20942 0.12317 0.0
H9 H 0.22724 0.13168 0.28946 0.0
H10 H 0.11537 0.15361 0.22272 0.0
O11 O 0.22688 0.21626 0.24227 0.0
H12 H 0.18916 0.09487 0.34809 0.0
H13 H 0.07727 0.1171 0.28162 0.0
C14 C 0.24222 0.15791 0.18541 0.0
C15 C 0.28207 0.1755 0.18495 0.0
C16 C 0.31332 0.15764 0.16374 0.0
C17 C 0.30574 0.12189 0.14171 0.0
C18 C 0.26566 0.10455 0.1415 0.0
C19 C 0.23428 0.12231 0.16319 0.0
C20 C 0.16974 0.21806 0.1808 0.0
C21 C 0.14096 0.24232 0.19925 0.0
C22 C 0.11966 0.27479 0.17593 0.0
C23 C 0.12692 0.28423 0.13355 0.0
C24 C 0.15512 0.25944 0.11477 0.0
C25 C 0.17645 0.2268 0.1382 0.0
C26 C 0.17444 0.14574 0.25139 0.0
C27 C 0.1946 0.12777 0.28692 0.0
C28 C 0.1728 0.10695 0.32062 0.0
C29 C 0.13017 0.10344 0.31969 0.0
C30 C 0.11006 0.11945 0.28333 0.0
C31 C 0.13194 0.14027 0.24954 0.0
P32 P 0.44202 0.88954 0.60578 0.0
H33 H 0.41331 0.85336 0.68663 0.0
H34 H 0.42118 0.87792 0.75485 0.0
H35 H 0.50666 0.97722 0.70591 0.0
H36 H 0.49875 0.95266 0.63714 0.0
H37 H 0.50217 0.83158 0.5792 0.0
H38 H 0.50168 0.75327 0.57622 0.0
H39 H 0.38055 0.7425 0.62613 0.0
H40 H 0.38084 0.82089 0.62903 0.0
H41 H 0.40008 0.96143 0.63621 0.0
H42 H 0.37577 0.86734 0.5505 0.0
O43 O 0.47504 0.9135 0.57154 0.0
H44 H 0.33023 0.98515 0.62889 0.0
H45 H 0.30544 0.89138 0.54336 0.0
C46 C 0.45599 0.90067 0.65692 0.0
C47 C 0.43475 0.87948 0.6906 0.0
C48 C 0.43898 0.89366 0.72949 0.0
C49 C 0.46432 0.92939 0.73513 0.0
C50 C 0.48704 0.9495 0.70193 0.0
C51 C 0.4827 0.93532 0.66288 0.0
C52 C 0.44125 0.83212 0.60345 0.0
C53 C 0.47541 0.8125 0.58929 0.0
C54 C 0.47522 0.76792 0.58775 0.0
C55 C 0.44097 0.74245 0.60069 0.0
C56 C 0.40709 0.76185 0.61582 0.0
C57 C 0.4073 0.80648 0.6173 0.0
C58 C 0.39267 0.91136 0.59515 0.0
C59 C 0.37991 0.94592 0.61571 0.0
C60 C 0.34013 0.9597 0.61142 0.0
C61 C 0.31283 0.9395 0.58611 0.0
C62 C 0.32622 0.90696 0.56331 0.0
C63 C 0.36616 0.89321 0.56754 0.0
P64 P 0.71004 0.33774 0.83791 0.0
H65 H 0.78986 0.37603 0.8164 0.0
H66 H 0.8447 0.40647 0.85628 0.0
H67 H 0.77105 0.38609 0.96559 0.0
H68 H 0.71571 0.35591 0.92553 0.0
H69 H 0.7094 0.24336 0.84971 0.0
H70 H 0.6661 0.18908 0.88877 0.0
H71 H 0.59799 0.28947 0.93517 0.0
H72 H 0.64115 0.34448 0.89486 0.0
H73 H 0.72987 0.42235 0.79261 0.0
H74 H 0.62651 0.33406 0.80601 0.0
O75 O 0.73553 0.31048 0.80554 0.0
H76 H 0.69587 0.4643 0.73539 0.0
H77 H 0.59225 0.37667 0.74949 0.0
C78 C 0.74851 0.36351 0.86783 0.0
C79 C 0.78517 0.3784 0.84886 0.0
C80 C 0.81661 0.39567 0.87162 0.0
C81 C 0.81215 0.39836 0.91397 0.0
C82 C 0.7752 0.38421 0.93297 0.0
C83 C 0.74357 0.36706 0.91004 0.0
C84 C 0.67847 0.29821 0.86902 0.0
C85 C 0.68514 0.25407 0.86802 0.0
C86 C 0.66035 0.2229 0.89034 0.0
C87 C 0.62851 0.23506 0.91465 0.0
C88 C 0.62213 0.27929 0.91634 0.0
C89 C 0.64685 0.31064 0.89354 0.0
C90 C 0.68053 0.37542 0.80461 0.0
C91 C 0.69936 0.41275 0.78442 0.0
C92 C 0.68001 0.43671 0.75154 0.0
C93 C 0.64142 0.42378 0.73818 0.0
C94 C 0.62185 0.38751 0.75946 0.0
C95 C 0.64138 0.36334 0.79204 0.0
P96 P 0.91696 0.70189 0.35 0.0
H97 H 0.92121 0.79265 0.3584 0.0
H98 H 0.95831 0.83552 0.4053 0.0
H99 H 0.01996 0.72229 0.45726 0.0
H100 H 0.98315 0.67905 0.40963 0.0
H101 H 0.93718 0.61989 0.3988 0.0
H102 H 0.9608 0.55122 0.37813 0.0
H103 H 0.96321 0.60705 0.25143 0.0
H104 H 0.94235 0.67548 0.27204 0.0
H105 H 0.83261 0.70373 0.32338 0.0
H106 H 0.89905 0.67077 0.43602 0.0
O107 O 0.90656 0.73295 0.3066 0.0
H108 H 0.76882 0.68427 0.35952 0.0
H109 H 0.835 0.64983 0.47189 0.0
C110 C 0.9497 0.73282 0.38024 0.0
C111 C 0.94342 0.77709 0.37907 0.0
C112 C 0.9645 0.80152 0.40577 0.0
C113 C 0.99178 0.78189 0.43438 0.0
C114 C 0.99916 0.7378 0.43498 0.0
C115 C 0.97807 0.71325 0.40792 0.0
C116 C 0.93817 0.65287 0.33691 0.0
C117 C 0.94368 0.61754 0.36672 0.0
C118 C 0.9568 0.5783 0.355 0.0
C119 C 0.96325 0.57397 0.31328 0.0
C120 C 0.95841 0.60971 0.28387 0.0
C121 C 0.94638 0.64885 0.29562 0.0
C122 C 0.87041 0.68914 0.37718 0.0
C123 C 0.83349 0.69258 0.35589 0.0
C124 C 0.79716 0.6814 0.3764 0.0
C125 C 0.7974 0.66594 0.4183 0.0
C126 C 0.83439 0.66204 0.4396 0.0
C127 C 0.87076 0.67388 0.41915 0.0
P128 P 0.84554 0.87234 0.8955 0.0
H129 H 0.80898 0.87241 0.97666 0.0
H130 H 0.74374 0.89623 1.00065 0.0
H131 H 0.70261 0.91892 0.875 0.0
H132 H 0.7686 0.89599 0.8509 0.0
H133 H 0.92697 0.83853 0.89929 0.0
H134 H 0.95548 0.76964 0.92719 0.0
H135 H 0.83534 0.71975 0.95946 0.0
H136 H 0.80663 0.78915 0.93165 0.0
H137 H 0.85612 0.95552 0.84552 0.0
H138 H 0.86092 0.82145 0.82525 0.0
O139 O 0.87445 0.90643 0.91988 0.0
H140 H 0.88265 0.97638 0.77593 0.0
H141 H 0.887 0.84239 0.75527 0.0
C142 C 0.79391 0.88203 0.91191 0.0
C143 C 0.78578 0.88183 0.95416 0.0
C144 C 0.74847 0.89564 0.96792 0.0
C145 C 0.71795 0.90973 0.93981 0.0
C146 C 0.7255 0.90838 0.89745 0.0
C147 C 0.76317 0.89501 0.88365 0.0
C148 C 0.86461 0.81927 0.91337 0.0
C149 C 0.9066 0.8128 0.91217 0.0
C150 C 0.92296 0.77349 0.92822 0.0
C151 C 0.89768 0.7395 0.94572 0.0
C152 C 0.85549 0.74554 0.94629 0.0
C153 C 0.83908 0.78513 0.93029 0.0
C154 C 0.85661 0.88686 0.84098 0.0
C155 C 0.86212 0.93053 0.8259 0.0
C156 C 0.87747 0.94249 0.78614 0.0
C157 C 0.8874 0.91105 0.76026 0.0
C158 C 0.87994 0.86732 0.7746 0.0
C159 C 0.86481 0.85536 0.81457 0.0
P160 P 0.73224 0.29473 0.30667 0.0
H161 H 0.72099 0.38724 0.30886 0.0
H162 H 0.68005 0.42802 0.35324 0.0
H163 H 0.6362 0.30887 0.41926 0.0
H164 H 0.67684 0.26815 0.37523 0.0
H165 H 0.8141 0.28138 0.3408 0.0
H166 H 0.84582 0.21757 0.37694 0.0
H167 H 0.73181 0.14652 0.37498 0.0
H168 H 0.70023 0.20959 0.33859 0.0
H169 H 0.75568 0.24702 0.24018 0.0
H170 H 0.6439 0.28601 0.2916 0.0
O171 O 0.76838 0.32674 0.28316 0.0
H172 H 0.71759 0.19598 0.20167 0.0
H173 H 0.6057 0.23548 0.25224 0.0
C174 C 0.70244 0.32468 0.33913 0.0
C175 C 0.70277 0.36988 0.333 0.0
C176 C 0.6795 0.39311 0.3582 0.0
C177 C 0.65549 0.37126 0.38949 0.0
C178 C 0.65484 0.32611 0.39535 0.0
C179 C 0.67812 0.30295 0.37027 0.0
C180 C 0.75493 0.25013 0.33687 0.0
C181 C 0.79589 0.25221 0.34839 0.0
C182 C 0.81394 0.21596 0.36886 0.0
C183 C 0.79101 0.1776 0.37822 0.0
C184 C 0.74982 0.17594 0.36783 0.0
C185 C 0.73191 0.21197 0.34721 0.0
C186 C 0.70265 0.27035 0.2686 0.0
C187 C 0.72285 0.24582 0.24193 0.0
C188 C 0.70121 0.21649 0.22026 0.0
C189 C 0.659 0.21168 0.22467 0.0
C190 C 0.63834 0.23869 0.24877 0.0
C191 C 0.66014 0.26767 0.27099 0.0
P192 P 0.35361 0.64095 0.17086 0.0
H193 H 0.31033 0.65509 0.09346 0.0
H194 H 0.24187 0.63485 0.07152 0.0
H195 H 0.21023 0.59267 0.19754 0.0
H196 H 0.27953 0.61087 0.21925 0.0
H197 H 0.43594 0.67171 0.15177 0.0
H198 H 0.46615 0.74293 0.12884 0.0
H199 H 0.3488 0.79947 0.13476 0.0
H200 H 0.31836 0.72783 0.15773 0.0
H201 H 0.41733 0.58519 0.20572 0.0
H202 H 0.32565 0.66322 0.25218 0.0
O203 O 0.37652 0.60829 0.14146 0.0
H204 H 0.44207 0.56607 0.27552 0.0
H205 H 0.35004 0.6428 0.323 0.0
C206 C 0.30019 0.63507 0.15809 0.0
C207 C 0.28852 0.64224 0.11658 0.0
C208 C 0.24942 0.63055 0.10399 0.0
C209 C 0.22075 0.61199 0.13276 0.0
C210 C 0.23175 0.60687 0.17471 0.0
C211 C 0.27133 0.61764 0.18719 0.0
C212 C 0.37479 0.69434 0.15576 0.0
C213 C 0.41661 0.69936 0.14814 0.0
C214 C 0.43389 0.73996 0.13513 0.0
C215 C 0.40969 0.77639 0.12984 0.0
C216 C 0.36794 0.77167 0.13849 0.0
C217 C 0.35059 0.73086 0.15151 0.0
C218 C 0.36871 0.62468 0.22359 0.0
C219 C 0.40194 0.5977 0.23093 0.0
C220 C 0.41634 0.5869 0.27088 0.0
C221 C 0.39793 0.60282 0.30461 0.0
C222 C 0.36469 0.63003 0.29746 0.0
C223 C 0.35056 0.64136 0.25714 0.0
P224 P 0.14641 0.27795 0.69537 0.0
H225 H 0.14622 0.21276 0.63965 0.0
H226 H 0.09216 0.17905 0.60167 0.0
H227 H 1.00631 0.26753 0.64205 0.0
H228 H 0.06055 0.30109 0.68091 0.0
H229 H 0.23335 0.28235 0.70874 0.0
H230 H 0.28869 0.32086 0.66941 0.0
H231 H 0.20379 0.36744 0.57525 0.0
H232 H 0.14824 0.32811 0.61433 0.0
H233 H 0.12844 0.27421 0.78306 0.0
H234 H 0.12658 0.36861 0.67645 0.0
O235 O 0.16375 0.23575 0.7254 0.0
H236 H 0.1108 0.33002 0.82691 0.0
H237 H 0.10925 0.42441 0.7205 0.0
C238 C 0.10715 0.25873 0.66351 0.0
C239 C 0.11592 0.22532 0.63994 0.0
C240 C 0.08524 0.20636 0.61813 0.0
C241 C 0.04543 0.22075 0.6195 0.0
C242 C 0.03698 0.25617 0.64084 0.0
C243 C 0.06784 0.275 0.66311 0.0
C244 C 0.18703 0.30179 0.66396 0.0
C245 C 0.22672 0.30003 0.67925 0.0
C246 C 0.25815 0.32206 0.65698 0.0
C247 C 0.25009 0.34653 0.61948 0.0
C248 C 0.21039 0.34824 0.60398 0.0
C249 C 0.17893 0.3258 0.62616 0.0
C250 C 0.12945 0.31756 0.72672 0.0
C251 C 0.12403 0.30678 0.76908 0.0
C252 C 0.11395 0.33845 0.79402 0.0
C253 C 0.10906 0.38104 0.77671 0.0
C254 C 0.11309 0.39159 0.73415 0.0
C255 C 0.12309 0.35986 0.7092 0.0
Co256 Co 0.97569 1.00243 0.51911 0.0
C257 C 0.01489 0.92606 0.51708 0.0
Co258 Co 0.03366 1.00018 0.55247 0.0
C259 C 0.91278 0.04018 0.46948 0.0
C260 C 0.89731 0.97429 0.48998 0.0
N261 N 0.92719 0.00469 0.49106 0.0
N262 N 0.87509 0.03339 0.45542 0.0
C263 C 0.8649 0.99204 0.46797 0.0
H264 H 0.92895 0.07103 0.46541 0.0
H265 H 0.89847 0.94191 0.50542 0.0
C266 C 0.99466 0.07664 0.55467 0.0
N267 N 0.08217 0.99855 0.58051 0.0
C268 C 0.11751 0.98415 0.5675 0.0
C269 C 0.09045 0.01175 0.61779 0.0
N270 N 0.14739 0.98793 0.59513 0.0
C271 C 0.13079 0.00515 0.62693 0.0
C272 C 0.04215 0.03246 0.46918 0.0
O273 O 0.96708 0.0584 0.53504 0.0
O274 O 0.02689 0.057 0.56475 0.0
O275 O 0.06178 0.02175 0.50218 0.0
O276 O 1.00363 0.02765 0.46971 0.0
O277 O 0.04048 0.94278 0.54022 0.0
H278 H 0.06857 0.02534 0.63698 0.0
H279 H 0.12133 0.97109 0.53838 0.0
O280 O 0.98427 0.94701 0.50375 0.0
O281 O 0.94813 0.97694 0.56834 0.0
O282 O 1.00509 0.97914 0.60259 0.0
C283 C 0.96705 0.97049 0.60244 0.0
H284 H 0.83577 0.97655 0.46292 0.0
H285 H 0.14671 0.01227 0.65459 0.0
Co286 Co 0.49174 0.01281 1.00511 0.0
C287 C 0.48192 0.94321 0.06704 0.0
Co288 Co 0.52539 0.02019 0.06196 0.0
C289 C 0.47812 1.00096 0.92029 0.0
C290 C 0.42342 0.99172 0.95566 0.0
N291 N 0.463 1.0035 0.95821 0.0
N292 N 0.44974 0.98724 0.89457 0.0
C293 C 0.41518 0.98157 0.9164 0.0
H294 H 0.50979 0.00655 0.91224 0.0
H295 H 0.40248 0.98847 0.98126 0.0
C296 C 0.53692 0.08909 0.99941 0.0
N297 N 0.55421 0.02966 0.1087 0.0
C298 C 0.55773 0.0676 0.12487 0.0
C299 C 0.58142 1.00403 0.12936 0.0
N300 N 0.58689 0.06714 0.15384 0.0
C301 C 0.60182 0.02721 0.15711 0.0
C302 C 0.57076 0.98036 1.00499 0.0
O303 O 0.51401 0.06605 0.97854 0.0
O304 O 0.54333 0.07616 0.03704 0.0
O305 O 0.57277 0.99535 0.03971 0.0
O306 O 0.53749 0.98303 0.98511 0.0
O307 O 0.50807 0.96428 0.08621 0.0
H308 H 0.58786 0.97165 0.12275 0.0
H309 H 0.54155 0.09614 0.11337 0.0
O310 O 0.47006 0.95928 0.03171 0.0
O311 O 0.44602 0.04261 0.0254 0.0
O312 O 0.47761 0.0447 0.08431 0.0
C313 C 0.44602 0.05224 0.06235 0.0
H314 H 0.38672 0.969 0.90527 0.0
H315 H 0.62715 0.01653 0.17641 0.0
Co316 Co 0.54236 0.54956 0.51642 0.0
C317 C 0.47745 0.54794 0.46072 0.0
Co318 Co 0.49553 0.50027 0.53538 0.0
C319 C 0.62036 0.58974 0.49849 0.0
C320 C 0.57212 0.63391 0.48615 0.0
N321 N 0.57982 0.59295 0.50115 0.0
N322 N 0.63803 0.62675 0.48144 0.0
C323 C 0.60799 0.65477 0.47378 0.0
H324 H 0.63639 0.56025 0.5067 0.0
H325 H 0.54219 0.64718 0.48289 0.0
C326 C 0.56028 0.50144 0.59084 0.0
N327 N 0.45861 0.4565 0.55038 0.0
C328 C 0.41778 0.45748 0.55032 0.0
C329 C 0.46754 0.41581 0.56521 0.0
N330 N 0.40114 0.41911 0.56516 0.0
C331 C 0.43213 0.39271 0.57441 0.0
C332 C 0.55783 0.47291 0.48685 0.0
O333 O 0.57407 0.53156 0.56484 0.0
O334 O 0.52593 0.48402 0.58422 0.0
O335 O 0.52584 0.46124 0.50694 0.0
O336 O 0.57071 0.51164 0.4863 0.0
O337 O 0.46472 0.51697 0.48637 0.0
H338 H 0.49792 0.40392 0.56967 0.0
H339 H 0.40064 0.48591 0.54072 0.0
O340 O 0.511 0.56682 0.46807 0.0
O341 O 0.51366 0.58766 0.54615 0.0
O342 O 0.46556 0.53919 0.56385 0.0
C343 C 0.48021 0.57725 0.56402 0.0
H344 H 0.61167 0.68733 0.45888 0.0
H345 H 0.42919 0.35944 0.58761 0.0
Co346 Co 0.02677 0.50997 1.0034 0.0
C347 C 0.94997 0.46926 1.00021 0.0
Co348 Co 0.99353 0.50489 0.06166 0.0
C349 C 0.05731 0.48328 0.92914 0.0
C350 C 0.0731 0.54951 0.93478 0.0
N351 N 0.05375 0.51444 0.95425 0.0
N352 N 0.07801 0.49753 0.89485 0.0
C353 C 0.08809 0.53914 0.8979 0.0
H354 H 0.04472 0.45084 0.93565 0.0
H355 H 0.07583 0.58062 0.94654 0.0
C356 C 0.07017 0.54565 0.06525 0.0
N357 N 0.96703 0.50102 0.11123 0.0
C358 C 0.98341 0.48786 0.14818 0.0
C359 C 0.93168 0.51882 0.11967 0.0
N360 N 0.96108 0.49943 0.17933 0.0
C361 C 0.92808 0.5181 0.16161 0.0
C362 C 0.04402 0.43502 0.055 0.0
O363 O 0.07185 0.5383 0.02779 0.0
O364 O 0.0381 0.53483 0.08562 0.0
O365 O 0.01886 0.45087 0.07822 0.0
O366 O 0.0512 0.45492 0.0196 0.0
O367 O 0.9491 0.47512 0.03812 0.0
H368 H 0.91142 0.53426 0.09688 0.0
H369 H 1.01293 0.47364 0.15209 0.0
O370 O 0.98138 0.48155 0.97916 0.0
O371 O 1.00263 0.56455 0.98709 0.0
O372 O 0.96827 0.55946 0.04451 0.0
C373 C 0.97671 0.58003 1.00971 0.0
H374 H 0.10492 0.5602 0.87516 0.0
H375 H 0.90448 0.53287 0.1778 0.0
C376 C 0.10349 0.11015 0.39155 0.0
C377 C 0.10671 0.08533 0.35762 0.0
C378 C 0.06442 0.02743 0.39534 0.0
C379 C 0.06406 0.05081 0.43054 0.0
N380 N 0.08707 0.11267 0.4637 0.0
N381 N 0.09468 0.01805 0.3291 0.0
C382 C 0.08488 0.09158 0.42908 0.0
C383 C 0.08817 0.04339 0.36 0.0
N384 N 0.11677 0.15233 0.3873 0.0
N385 N 0.04201 0.98982 0.39561 0.0
H386 H 0.11152 0.02868 0.30285 0.0
H387 H 0.08615 0.98553 0.3307 0.0
H388 H 0.02623 0.97574 0.4214 0.0
H389 H 0.03695 0.97376 0.36961 0.0
H390 H 0.11128 0.17382 0.40881 0.0
H391 H 0.13037 0.16713 0.36048 0.0
H392 H 0.10588 0.13961 0.46641 0.0
H393 H 0.07193 0.1018 0.49093 0.0
C394 C 0.48415 0.92463 0.80946 0.0
C395 C 0.46445 0.94719 0.7754 0.0
C396 C 0.44068 1.0 0.81963 0.0
C397 C 0.45627 0.97463 0.85419 0.0
N398 N 0.488 0.91003 0.88374 0.0
N399 N 0.41985 1.00349 0.74818 0.0
C400 C 0.47699 0.93628 0.84959 0.0
C401 C 0.44179 0.98437 0.78039 0.0
N402 N 0.51005 0.89248 0.80327 0.0
N403 N 0.4254 0.03937 0.82454 0.0
H404 H 0.41986 0.99311 0.71886 0.0
H405 H 0.39927 0.02766 0.75117 0.0
H406 H 0.4242 0.05125 0.8532 0.0
H407 H 0.41714 0.06157 0.80009 0.0
H408 H 0.52836 0.87763 0.82633 0.0
H409 H 0.51589 0.88321 0.77414 0.0
H410 H 0.49947 0.87942 0.8826 0.0
H411 H 0.48247 0.91731 0.9136 0.0
C412 C 0.60868 0.48798 0.698 0.0
C413 C 0.6232 0.44538 0.69946 0.0
C414 C 0.59823 0.44047 0.62895 0.0
C415 C 0.58503 0.48369 0.62686 0.0
N416 N 0.58589 0.55166 0.65588 0.0
N417 N 0.64084 0.38533 0.66288 0.0
C418 C 0.59302 0.50849 0.66025 0.0
C419 C 0.62053 0.42284 0.66391 0.0
N420 N 0.60821 0.50817 0.73314 0.0
N421 N 0.58935 0.41601 0.59754 0.0
H422 H 0.65817 0.37177 0.68746 0.0
H423 H 0.64385 0.3698 0.63641 0.0
H424 H 0.5761 0.42835 0.56994 0.0
H425 H 0.59313 0.38281 0.59967 0.0
H426 H 0.59393 0.53719 0.7353 0.0
H427 H 0.61924 0.49417 0.76126 0.0
H428 H 0.59478 0.57233 0.67752 0.0
H429 H 0.57426 0.56766 0.62894 0.0
C430 C 1.0097 0.53412 0.27494 0.0
C431 C 0.97378 0.53269 0.29807 0.0
C432 C 0.94283 0.48477 0.25191 0.0
C433 C 0.97212 0.50006 0.22196 0.0
N434 N 0.03549 0.54043 0.20579 0.0
N435 N 0.90888 0.4986 0.31475 0.0
C436 C 1.00725 0.52355 0.2339 0.0
C437 C 0.94172 0.504 0.28934 0.0
N438 N 0.04435 0.5507 0.29078 0.0
N439 N 0.91519 0.45364 0.24319 0.0
H440 H 0.90837 0.51152 0.3429 0.0
H441 H 0.88222 0.48225 0.30762 0.0
H442 H 0.91607 0.43978 0.21546 0.0
H443 H 0.89422 0.43919 0.26445 0.0
H444 H 0.07249 0.55061 0.27637 0.0
H445 H 0.04487 0.5605 0.32041 0.0
H446 H 0.05899 0.56142 0.21298 0.0
H447 H 0.03414 0.53695 0.1746 0.0
C448 C 0.35366 0.06077 0.13219 0.0
C449 C 0.34009 0.10298 0.11934 0.0
C450 C 0.39707 0.11284 0.06975 0.0
C451 C 0.40865 0.06959 0.08061 0.0
N452 N 0.39058 0.9993 0.11416 0.0
N453 N 0.34416 0.16561 0.06935 0.0
C454 C 0.38476 0.04268 0.10954 0.0
C455 C 0.36049 0.12798 0.08617 0.0
N456 N 0.33813 0.0384 0.16709 0.0
N457 N 0.42167 0.13996 0.04469 0.0
H458 H 0.31714 0.17717 0.07984 0.0
H459 H 0.35516 0.18312 0.04261 0.0
H460 H 0.44847 0.12996 0.03232 0.0
H461 H 0.41733 0.173 0.03899 0.0
H462 H 0.34999 0.00956 0.18035 0.0
H463 H 0.31597 0.05056 0.185 0.0
H464 H 0.37176 0.97737 0.13194 0.0
H465 H 0.41142 0.98488 0.09644 0.0
C466 C 0.25651 0.98849 0.56247 0.0
C467 C 0.2695 0.95056 0.5861 0.0
C468 C 0.20049 0.93531 0.61212 0.0
C469 C 0.18852 0.9751 0.59161 0.0
N470 N 0.20423 0.04178 0.55048 0.0
N471 N 0.25577 0.89002 0.63704 0.0
C472 C 0.21629 1.00228 0.56748 0.0
C473 C 0.24196 0.92437 0.61183 0.0
N474 N 0.28246 0.01071 0.53482 0.0
N475 N 0.17177 0.90769 0.63101 0.0
H476 H 0.28585 0.8805 0.63729 0.0
H477 H 0.23816 0.87264 0.65976 0.0
H478 H 0.14119 0.91529 0.63189 0.0
H479 H 0.17751 0.87617 0.64295 0.0
H480 H 0.27382 0.03629 0.51385 0.0
H481 H 0.31222 1.00148 0.53071 0.0
H482 H 0.22382 0.06522 0.53583 0.0
H483 H 0.17474 0.0523 0.55354 0.0
C484 C 0.84483 0.45739 0.95154 0.0
C485 C 0.84659 0.41559 0.93821 0.0
C486 C 0.91662 0.40931 0.96459 0.0
C487 C 0.91395 0.45002 0.98012 0.0
N488 N 0.87328 0.5101 0.99396 0.0
N489 N 0.8811 0.34854 0.9383 0.0
C490 C 0.87726 0.47308 0.9755 0.0
C491 C 0.88171 0.39067 0.94646 0.0
N492 N 0.81301 0.48302 0.93955 0.0
N493 N 0.95262 0.38846 0.96702 0.0
H494 H 0.85606 0.33374 0.92538 0.0
H495 H 0.90387 0.32713 0.94748 0.0
H496 H 0.97805 0.39954 0.98231 0.0
H497 H 0.95814 0.36148 0.95186 0.0
H498 H 0.81217 0.51557 0.94388 0.0
H499 H 0.78869 0.47277 0.92213 0.0
H500 H 0.84583 0.52543 0.99601 0.0
H501 H 0.89676 0.52424 1.00977 0.0
C502 C 0.74203 0.67778 0.46823 0.0
C503 C 0.75858 0.65257 0.43901 0.0
C504 C 0.69526 0.61008 0.43794 0.0
C505 C 0.67953 0.63359 0.4688 0.0
N506 N 0.69024 0.68275 0.51989 0.0
N507 N 0.75523 0.58807 0.4042 0.0
C508 C 0.70375 0.66527 0.48605 0.0
C509 C 0.73654 0.61646 0.42654 0.0
N510 N 0.76183 0.71465 0.47749 0.0
N511 N 0.67018 0.58369 0.41773 0.0
H512 H 0.78573 0.59154 0.39577 0.0
H513 H 0.74167 0.55898 0.39764 0.0
H514 H 0.63922 0.57981 0.42381 0.0
H515 H 0.6792 0.56905 0.39217 0.0
H516 H 0.74906 0.73664 0.49519 0.0
H517 H 0.78986 0.72509 0.46491 0.0
H518 H 0.70803 0.70313 0.53636 0.0
H519 H 0.66243 0.67354 0.53374 0.0
C520 C 0.12832 0.36115 0.09926 0.0
C521 C 0.10641 0.32161 0.10968 0.0
C522 C 0.04377 0.35569 0.08218 0.0
C523 C 0.06601 0.39485 0.07043 0.0
N524 N 0.13116 0.43215 0.061 0.0
N525 N 0.04508 0.27878 0.10471 0.0
C526 C 0.10884 0.39658 0.07658 0.0
C527 C 0.0646 0.31824 0.09929 0.0
N528 N 0.16728 0.36575 0.11308 0.0
N529 N 1.00257 0.35435 0.07713 0.0
H530 H 0.05938 0.25091 0.11709 0.0
H531 H 0.01589 0.27277 0.09404 0.0
H532 H 0.98667 0.37968 0.06179 0.0
H533 H 0.98379 0.32899 0.08967 0.0
H534 H 0.18322 0.39518 0.11133 0.0
H535 H 0.18276 0.34077 0.12951 0.0
H536 H 0.16273 0.4332 0.05993 0.0
H537 H 0.11841 0.45994 0.04655 0.0
C538 C 0.62171 0.17365 0.97085 0.0
C539 C 0.60317 0.20083 0.93907 0.0
C540 C 0.539 0.15919 0.95174 0.0
C541 C 0.55925 0.12838 0.97931 0.0
N542 N 0.62358 0.10211 1.00662 0.0
N543 N 0.54532 0.21567 0.89488 0.0
C544 C 0.60158 0.13458 0.98683 0.0
C545 C 0.56204 0.19268 0.92838 0.0
N546 N 0.6586 0.18534 0.98615 0.0
N547 N 0.49765 0.15749 0.94873 0.0
H548 H 0.56107 0.24032 0.87699 0.0
H549 H 0.51707 0.20787 0.8828 0.0
H550 H 0.47955 0.13423 0.96574 0.0
H551 H 0.48107 0.18163 0.93242 0.0
H552 H 0.67178 0.16882 1.01201 0.0
H553 H 0.67401 0.21406 0.97563 0.0
H554 H 0.65511 0.10363 1.00892 0.0
H555 H 0.61138 0.07168 0.01655 0.0
C556 C 0.98461 0.81285 0.50078 0.0
C557 C 1.00869 0.80791 0.46588 0.0
C558 C 0.04691 0.8746 0.47433 0.0
C559 C 0.01955 0.88207 0.50598 0.0
N560 N 0.97093 0.85472 0.55754 0.0
N561 N 0.06925 0.82532 0.4265 0.0
C562 C 0.99142 0.84963 0.52217 0.0
C563 C 0.04245 0.83579 0.45537 0.0
N564 N 0.95354 0.78389 0.5114 0.0
N565 N 0.07516 0.90577 0.46081 0.0
H566 H 0.06599 0.79685 0.41247 0.0
H567 H 0.09608 0.84262 0.41884 0.0
H568 H 0.0798 0.93395 0.47501 0.0
H569 H 0.09313 0.90466 0.43488 0.0
H570 H 0.93158 0.78808 0.53327 0.0
H571 H 0.94903 0.75569 0.4972 0.0
H572 H 0.95219 0.83102 0.57303 0.0
H573 H 0.97524 0.8819 0.57327 0.0
C574 C 0.42363 0.67874 0.56242 0.0
C575 C 0.44093 0.69541 0.59756 0.0
C576 C 0.47206 0.6262 0.61868 0.0
C577 C 0.45787 0.61117 0.5817 0.0
N578 N 0.40983 0.61583 0.52602 0.0
N579 N 0.47247 0.68312 0.66423 0.0
C580 C 0.42989 0.63503 0.55625 0.0
C581 C 0.46202 0.66828 0.62759 0.0
N582 N 0.40347 0.70537 0.53377 0.0
N583 N 0.49605 0.60039 0.64436 0.0
H584 H 0.46525 0.71385 0.67132 0.0
H585 H 0.48569 0.66439 0.68867 0.0
H586 H 0.50083 0.56834 0.63959 0.0
H587 H 0.51138 0.61038 0.66976 0.0
H588 H 0.3945 0.69664 0.50512 0.0
H589 H 0.39755 0.73736 0.53767 0.0
H590 H 0.38658 0.63019 0.5083 0.0
H591 H 0.41412 0.58375 0.52115 0.0
C592 C 0.94756 0.91356 0.71138 0.0
C593 C 0.90682 0.92415 0.71885 0.0
C594 C 0.90562 0.96724 0.651 0.0
C595 C 0.94522 0.95327 0.64179 0.0
N596 N 0.99818 0.90253 0.6605 0.0
N597 N 0.84416 0.95294 0.69141 0.0
C598 C 0.96456 0.9234 0.67123 0.0
C599 C 0.885 0.94848 0.68727 0.0
N600 N 0.9708 0.8954 0.74298 0.0
N601 N 0.88817 1.00008 0.62667 0.0
H602 H 0.82799 0.93945 0.71722 0.0
H603 H 0.82576 0.96617 0.66759 0.0
H604 H 0.90177 0.01629 0.60064 0.0
H605 H 0.86168 0.01451 0.63479 0.0
H606 H 1.00193 0.89142 0.74034 0.0
H607 H 0.95995 0.8882 0.77292 0.0
H608 H 1.01091 0.87745 0.67947 0.0
H609 H 1.01055 0.90637 0.63103 0.0
C610 C 0.62193 0.13968 0.23251 0.0
C611 C 0.63736 0.17586 0.20651 0.0
C612 C 0.62271 0.13813 0.14599 0.0
C613 C 0.60374 0.10395 0.17163 0.0
N614 N 0.57852 0.07522 0.23801 0.0
N615 N 0.64519 0.21312 0.13835 0.0
C616 C 0.60131 0.10568 0.21458 0.0
C617 C 0.63544 0.17622 0.16312 0.0
N618 N 0.6287 0.1367 0.27403 0.0
N619 N 0.63048 0.1332 0.10576 0.0
H620 H 0.65424 0.2418 0.14999 0.0
H621 H 0.64062 0.21639 0.1066 0.0
H622 H 0.62352 0.10473 0.09284 0.0
H623 H 0.6476 0.15545 0.08651 0.0
H624 H 0.62181 0.10901 0.29373 0.0
H625 H 0.64451 0.16034 0.28848 0.0
H626 H 0.57218 0.07708 0.26897 0.0
H627 H 0.56295 0.0501 0.22544 0.0
C628 C 0.41167 0.54598 0.36322 0.0
C629 C 0.41378 0.59 0.3471 0.0
C630 C 0.44951 0.60708 0.40989 0.0
C631 C 0.45358 0.56226 0.4226 0.0
N632 N 0.44383 0.48883 0.40588 0.0
N633 N 0.44014 0.66212 0.3528 0.0
C634 C 0.43575 0.53158 0.39799 0.0
C635 C 0.43404 0.62055 0.36989 0.0
N636 N 0.38623 0.51783 0.34554 0.0
N637 N 0.45887 0.63691 0.4365 0.0
H638 H 0.42965 0.67332 0.32357 0.0
H639 H 0.45866 0.68444 0.3662 0.0
H640 H 0.46847 0.62861 0.46664 0.0
H641 H 0.45267 0.66952 0.43023 0.0
H642 H 0.38039 0.48627 0.35845 0.0
H643 H 0.36772 0.52735 0.32039 0.0
H644 H 0.43519 0.46593 0.38624 0.0
H645 H 0.4629 0.47681 0.42944 0.0
C646 C 0.13455 0.43054 0.82677 0.0
C647 C 0.1017 0.41494 0.80378 0.0
C648 C 0.05523 0.46134 0.83542 0.0
C649 C 0.08695 0.47261 0.86187 0.0
N650 N 0.15535 0.46529 0.88675 0.0
N651 N 0.03024 0.4123 0.78758 0.0
C652 C 0.12639 0.45682 0.85841 0.0
C653 C 0.06184 0.42972 0.80818 0.0
N654 N 0.17347 0.42065 0.81792 0.0
N655 N 0.01904 0.48147 0.83631 0.0
H656 H 0.03411 0.38944 0.76691 0.0
H657 H 0.99992 0.41832 0.79287 0.0
H658 H 1.01376 0.50485 0.85614 0.0
H659 H 0.99562 0.47777 0.81537 0.0
H660 H 0.19893 0.4345 0.83087 0.0
H661 H 0.18053 0.40129 0.79492 0.0
H662 H 0.18347 0.45082 0.88879 0.0
H663 H 0.15009 0.48447 0.91037 0.0
C664 C 0.65185 0.90019 0.98062 0.0
C665 C 0.67898 0.92728 0.95497 0.0
C666 C 0.63187 0.98721 0.95766 0.0
C667 C 0.60739 0.96157 0.98704 0.0
N668 N 0.59659 0.89479 0.03019 0.0
N669 N 0.69799 0.99925 0.92553 0.0
C670 C 0.61821 0.91839 0.99964 0.0
C671 C 0.66973 0.97151 0.94508 0.0
N672 N 0.65731 0.85668 0.98553 0.0
N673 N 0.6188 0.02655 0.94127 0.0
H674 H 0.72637 0.98956 0.91673 0.0
H675 H 0.69492 0.03258 0.92158 0.0
H676 H 0.59165 0.03933 0.9499 0.0
H677 H 0.63305 0.0448 0.91662 0.0
H678 H 0.63646 0.83462 1.00027 0.0
H679 H 0.68088 0.84215 0.97146 0.0
H680 H 0.60546 0.86491 0.04403 0.0
H681 H 0.57123 0.90653 0.04388 0.0
C682 C 0.81128 0.13115 0.44177 0.0
C683 C 0.81034 0.1386 0.39817 0.0
C684 C 0.84953 0.07395 0.39257 0.0
C685 C 0.84978 0.06615 0.43594 0.0
N686 N 0.82733 0.08219 0.50223 0.0
N687 N 0.82274 0.11478 0.33154 0.0
C688 C 0.82936 0.09323 0.46067 0.0
C689 C 0.82766 0.10918 0.37335 0.0
N690 N 0.79588 0.16097 0.46489 0.0
N691 N 0.87163 0.04839 0.37011 0.0
H692 H 0.80789 0.14096 0.31632 0.0
H693 H 0.83101 0.09225 0.312 0.0
H694 H 0.88693 0.02168 0.38368 0.0
H695 H 0.8767 0.05474 0.33861 0.0
H696 H 0.79918 0.15989 0.49666 0.0
H697 H 0.78143 0.18853 0.452 0.0
H698 H 0.81002 0.09809 0.52213 0.0
H699 H 0.84101 0.05485 0.51668 0.0
C700 C 0.16974 0.55098 0.12452 0.0
C701 C 0.18029 0.59574 0.11832 0.0
C702 C 0.11817 0.60798 0.0768 0.0
C703 C 0.10644 0.56384 0.08568 0.0
N704 N 0.11642 0.4958 0.12649 0.0
N705 N 0.15986 0.66813 0.09611 0.0
C706 C 0.13063 0.53623 0.11245 0.0
C707 C 0.1531 0.62465 0.09659 0.0
N708 N 0.1979 0.52197 0.13947 0.0
N709 N 0.09614 0.63395 0.04924 0.0
H710 H 0.18438 0.68142 0.11121 0.0
H711 H 0.13921 0.6909 0.08426 0.0
H712 H 0.06952 0.62336 0.03558 0.0
H713 H 0.10564 0.66506 0.03792 0.0
H714 H 0.19325 0.48871 0.14026 0.0
H715 H 0.22749 0.53086 0.14704 0.0
H716 H 0.13093 0.47607 0.14944 0.0
H717 H 0.0884 0.48329 0.11786 0.0
C718 C 0.3032 0.35682 0.56437 0.0
C719 C 0.28356 0.37214 0.59826 0.0
C720 C 0.33916 0.42406 0.60594 0.0
C721 C 0.35916 0.40825 0.57262 0.0
N722 N 0.35711 0.36857 0.51365 0.0
N723 N 0.27625 0.42778 0.64332 0.0
C724 C 0.33988 0.37762 0.54956 0.0
C725 C 0.29934 0.40852 0.61623 0.0
N726 N 0.28802 0.32114 0.54794 0.0
N727 N 0.35929 0.45152 0.62948 0.0
H728 H 0.24681 0.41692 0.6513 0.0
H729 H 0.28467 0.4567 0.65471 0.0
H730 H 0.38884 0.46301 0.62323 0.0
H731 H 0.34791 0.46037 0.65696 0.0
H732 H 0.3034 0.30556 0.52629 0.0
H733 H 0.26079 0.30556 0.55763 0.0
H734 H 0.34315 0.34916 0.49335 0.0
H735 H 0.38405 0.38384 0.50248 0.0
C736 C 0.93328 0.69396 1.00327 0.0
C737 C 0.91583 0.69772 0.96319 0.0
C738 C 0.93389 0.62271 0.95599 0.0
C739 C 0.95502 0.6204 0.99432 0.0
N740 N 0.97961 0.65637 0.05179 0.0
N741 N 0.90407 0.66769 0.89908 0.0
C742 C 0.95576 0.65665 0.0174 0.0
C743 C 0.91737 0.66259 0.93896 0.0
N744 N 0.92775 0.72587 0.02817 0.0
N745 N 0.92799 0.58628 0.93655 0.0
H746 H 0.89086 0.69584 0.88583 0.0
H747 H 0.90889 0.64535 0.87817 0.0
H748 H 0.93905 0.55639 0.94788 0.0
H749 H 0.90889 0.58463 0.91125 0.0
H750 H 0.9357 0.72319 0.05921 0.0
H751 H 0.91207 0.75379 0.01869 0.0
H752 H 0.98518 0.6834 0.06735 0.0
H753 H 0.99681 0.63009 0.06291 0.0
C754 C 0.43897 0.82783 0.07225 0.0
C755 C 0.42832 0.81924 0.11437 0.0
C756 C 0.45239 0.89225 0.12643 0.0
C757 C 0.46575 0.89979 0.08471 0.0
N758 N 0.48188 0.86925 0.0219 0.0
N759 N 0.4321 0.8397 0.18337 0.0
C760 C 0.46184 0.86602 0.05871 0.0
C761 C 0.43721 0.85041 0.142 0.0
N762 N 0.42653 0.79988 0.04487 0.0
N763 N 0.45233 0.92521 0.15091 0.0
H764 H 0.42044 0.80973 0.19583 0.0
H765 H 0.4426 0.85907 0.2055 0.0
H766 H 0.46303 0.95638 0.1416 0.0
H767 H 0.43826 0.9227 0.17957 0.0
H768 H 0.42949 0.80685 0.0131 0.0
H769 H 0.40992 0.77143 0.05357 0.0
H770 H 0.48326 0.84392 1.00361 0.0
H771 H 0.50115 0.89526 1.01182 0.0
C772 C 0.99582 0.15938 0.62833 0.0
C773 C 1.01305 0.19432 0.6023 0.0
C774 C 0.99973 0.15669 0.54159 0.0
C775 C 0.98915 0.11943 0.56833 0.0
N776 N 0.9644 0.08761 0.6339 0.0
N777 N 0.01995 0.23289 0.53523 0.0
C778 C 0.98239 0.12188 0.6107 0.0
C779 C 1.01041 0.19533 0.559 0.0
N780 N 0.99578 0.16087 0.67001 0.0
N781 N 1.00197 0.15401 0.50018 0.0
H782 H 0.02777 0.26113 0.54834 0.0
H783 H 0.0175 0.23702 0.50331 0.0
H784 H 0.99302 0.12615 0.48704 0.0
H785 H 1.01304 0.1787 0.47895 0.0
H786 H 0.98832 0.13473 0.69135 0.0
H787 H 1.0041 0.18863 0.68353 0.0
H788 H 0.95582 0.08782 0.66448 0.0
H789 H 0.9553 0.0596 0.62123 0.0
C790 C 0.58814 0.39843 0.40809 0.0
C791 C 0.63029 0.39555 0.41594 0.0
C792 C 0.62422 0.43933 0.47353 0.0
C793 C 0.58166 0.44163 0.46611 0.0
N794 N 0.522 0.41159 0.43455 0.0
N795 N 0.68775 0.40584 0.45999 0.0
C796 C 0.56318 0.41751 0.43603 0.0
C797 C 0.64818 0.41392 0.44979 0.0
N798 N 0.57207 0.38415 0.37311 0.0
N799 N 0.64171 0.46113 0.50359 0.0
H800 H 0.70629 0.38786 0.44292 0.0
H801 H 0.70156 0.41417 0.48687 0.0
H802 H 0.62496 0.47522 0.52533 0.0
H803 H 0.67288 0.46623 0.50653 0.0
H804 H 0.54255 0.39024 0.36307 0.0
H805 H 0.58926 0.3695 0.35204 0.0
H806 H 0.50751 0.39085 0.4158 0.0
H807 H 0.50226 0.42291 0.45529 0.0
loop_
_geom_bond_atom_site_label_1
_geom_bond_atom_site_label_2
_geom_bond_distance
_geom_bond_site_symmetry_2
_ccdc_geom_bond_type
P0 O11 1.490 . S
P0 C14 1.812 . S
P0 C20 1.803 . S
P0 C26 1.819 . S
H1 C15 0.941 . S
H2 C16 0.939 . S
H3 C18 0.940 . S
H4 C19 0.940 . S
H5 C21 0.939 . S
H6 C22 0.942 . S
H7 C24 0.940 . S
H8 C25 0.939 . S
H9 C27 0.941 . S
H10 C31 0.939 . S
O11 P0 1.490 . S
H12 C28 0.939 . S
H13 C30 0.940 . S
C14 P0 1.812 . S
C14 C15 1.389 . S
C14 C19 1.391 . S
C15 H1 0.941 . S
C15 C14 1.389 . S
C15 C16 1.397 . S
C16 H2 0.939 . S
C16 C15 1.397 . S
C16 C17 1.378 . S
C17 C16 1.378 . S
C17 C18 1.378 . S
C18 H3 0.940 . S
C18 C17 1.378 . S
C18 C19 1.396 . S
C19 H4 0.940 . S
C19 C14 1.391 . S
C19 C18 1.396 . S
C20 P0 1.803 . S
C20 C21 1.378 . S
C20 C25 1.400 . S
C21 H5 0.939 . S
C21 C20 1.378 . S
C21 C22 1.361 . S
C22 H6 0.942 . S
C22 C21 1.361 . S
C22 C23 1.369 . S
C23 C22 1.369 . S
C23 C24 1.404 . S
C24 H7 0.940 . S
C24 C23 1.404 . S
C24 C25 1.389 . S
C25 H8 0.939 . S
C25 C20 1.400 . S
C25 C24 1.389 . S
C26 P0 1.819 . S
C26 C27 1.391 . S
C26 C31 1.391 . S
C27 H9 0.941 . S
C27 C26 1.391 . S
C27 C28 1.396 . S
C28 H12 0.939 . S
C28 C27 1.396 . S
C28 C29 1.397 . S
C29 C28 1.397 . S
C29 C30 1.385 . S
C30 H13 0.940 . S
C30 C29 1.385 . S
C30 C31 1.388 . S
C31 H10 0.939 . S
C31 C26 1.391 . S
C31 C30 1.388 . S
P32 O43 1.490 . S
P32 C46 1.812 . S
P32 C52 1.803 . S
P32 C58 1.819 . S
H33 C47 0.941 . S
H34 C48 0.939 . S
H35 C50 0.940 . S
H36 C51 0.940 . S
H37 C53 0.939 . S
H38 C54 0.942 . S
H39 C56 0.940 . S
H40 C57 0.939 . S
H41 C59 0.941 . S
H42 C63 0.939 . S
O43 P32 1.490 . S
H44 C60 0.939 . S
H45 C62 0.940 . S
C46 P32 1.812 . S
C46 C47 1.389 . S
C46 C51 1.391 . S
C47 H33 0.941 . S
C47 C46 1.389 . S
C47 C48 1.397 . S
C48 H34 0.939 . S
C48 C47 1.397 . S
C48 C49 1.378 . S
C49 C48 1.378 . S
C49 C50 1.378 . S
C50 H35 0.940 . S
C50 C49 1.378 . S
C50 C51 1.396 . S
C51 H36 0.940 . S
C51 C46 1.391 . S
C51 C50 1.396 . S
C52 P32 1.803 . S
C52 C53 1.378 . S
C52 C57 1.400 . S
C53 H37 0.939 . S
C53 C52 1.378 . S
C53 C54 1.361 . S
C54 H38 0.942 . S
C54 C53 1.361 . S
C54 C55 1.369 . S
C55 C54 1.369 . S
C55 C56 1.404 . S
C56 H39 0.940 . S
C56 C55 1.404 . S
C56 C57 1.389 . S
C57 H40 0.939 . S
C57 C52 1.400 . S
C57 C56 1.389 . S
C58 P32 1.819 . S
C58 C59 1.391 . S
C58 C63 1.391 . S
C59 H41 0.941 . S
C59 C58 1.391 . S
C59 C60 1.396 . S
C60 H44 0.939 . S
C60 C59 1.396 . S
C60 C61 1.397 . S
C61 C60 1.397 . S
C61 C62 1.385 . S
C62 H45 0.940 . S
C62 C61 1.385 . S
C62 C63 1.388 . S
C63 H42 0.939 . S
C63 C58 1.391 . S
C63 C62 1.388 . S
P64 O75 1.490 . S
P64 C78 1.812 . S
P64 C84 1.803 . S
P64 C90 1.819 . S
H65 C79 0.941 . S
H66 C80 0.939 . S
H67 C82 0.940 . S
H68 C83 0.940 . S
H69 C85 0.939 . S
H70 C86 0.942 . S
H71 C88 0.940 . S
H72 C89 0.939 . S
H73 C91 0.941 . S
H74 C95 0.939 . S
O75 P64 1.490 . S
H76 C92 0.939 . S
H77 C94 0.940 . S
C78 P64 1.812 . S
C78 C79 1.389 . S
C78 C83 1.391 . S
C79 H65 0.941 . S
C79 C78 1.389 . S
C79 C80 1.397 . S
C80 H66 0.939 . S
C80 C79 1.397 . S
C80 C81 1.378 . S
C81 C80 1.378 . S
C81 C82 1.378 . S
C82 H67 0.940 . S
C82 C81 1.378 . S
C82 C83 1.396 . S
C83 H68 0.940 . S
C83 C78 1.391 . S
C83 C82 1.396 . S
C84 P64 1.803 . S
C84 C85 1.378 . S
C84 C89 1.400 . S
C85 H69 0.939 . S
C85 C84 1.378 . S
C85 C86 1.361 . S
C86 H70 0.942 . S
C86 C85 1.361 . S
C86 C87 1.369 . S
C87 C86 1.369 . S
C87 C88 1.404 . S
C88 H71 0.940 . S
C88 C87 1.404 . S
C88 C89 1.389 . S
C89 H72 0.939 . S
C89 C84 1.400 . S
C89 C88 1.389 . S
C90 P64 1.819 . S
C90 C91 1.391 . S
C90 C95 1.391 . S
C91 H73 0.941 . S
C91 C90 1.391 . S
C91 C92 1.396 . S
C92 H76 0.939 . S
C92 C91 1.396 . S
C92 C93 1.397 . S
C93 C92 1.397 . S
C93 C94 1.385 . S
C94 H77 0.940 . S
C94 C93 1.385 . S
C94 C95 1.388 . S
C95 H74 0.939 . S
C95 C90 1.391 . S
C95 C94 1.388 . S
P96 O107 1.490 . S
P96 C110 1.812 . S
P96 C116 1.803 . S
P96 C122 1.819 . S
H97 C111 0.941 . S
H98 C112 0.939 . S
H99 C114 0.940 . S
H100 C115 0.940 . S
H101 C117 0.939 . S
H102 C118 0.942 . S
H103 C120 0.940 . S
H104 C121 0.939 . S
H105 C123 0.941 . S
H106 C127 0.939 . S
O107 P96 1.490 . S
H108 C124 0.939 . S
H109 C126 0.940 . S
C110 P96 1.812 . S
C110 C111 1.389 . S
C110 C115 1.391 . S
C111 H97 0.941 . S
C111 C110 1.389 . S
C111 C112 1.397 . S
C112 H98 0.939 . S
C112 C111 1.397 . S
C112 C113 1.378 . S
C113 C112 1.378 . S
C113 C114 1.378 . S
C114 H99 0.940 . S
C114 C113 1.378 . S
C114 C115 1.396 . S
C115 H100 0.940 . S
C115 C110 1.391 . S
C115 C114 1.396 . S
C116 P96 1.803 . S
C116 C117 1.378 . S
C116 C121 1.400 . S
C117 H101 0.939 . S
C117 C116 1.378 . S
C117 C118 1.361 . S
C118 H102 0.942 . S
C118 C117 1.361 . S
C118 C119 1.369 . S
C119 C118 1.369 . S
C119 C120 1.404 . S
C120 H103 0.940 . S
C120 C119 1.404 . S
C120 C121 1.389 . S
C121 H104 0.939 . S
C121 C116 1.400 . S
C121 C120 1.389 . S
C122 P96 1.819 . S
C122 C123 1.391 . S
C122 C127 1.391 . S
C123 H105 0.941 . S
C123 C122 1.391 . S
C123 C124 1.396 . S
C124 H108 0.939 . S
C124 C123 1.396 . S
C124 C125 1.397 . S
C125 C124 1.397 . S
C125 C126 1.385 . S
C126 H109 0.940 . S
C126 C125 1.385 . S
C126 C127 1.388 . S
C127 H106 0.939 . S
C127 C122 1.391 . S
C127 C126 1.388 . S
P128 O139 1.490 . S
P128 C142 1.812 . S
P128 C148 1.803 . S
P128 C154 1.819 . S
H129 C143 0.941 . S
H130 C144 0.940 1_554 S
H131 C146 0.940 . S
H132 C147 0.940 . S
H133 C149 0.939 . S
H134 C150 0.942 . S
H135 C152 0.940 . S
H136 C153 0.939 . S
H137 C155 0.941 . S
H138 C159 0.939 . S
O139 P128 1.490 . S
H140 C156 0.939 1_545 S
H141 C158 0.940 . S
C142 P128 1.812 . S
C142 C143 1.389 . S
C142 C147 1.391 . S
C143 H129 0.941 . S
C143 C142 1.389 . S
C143 C144 1.397 . S
C144 H130 0.940 1_556 S
C144 C143 1.397 . S
C144 C145 1.378 . S
C145 C144 1.378 . S
C145 C146 1.378 . S
C146 H131 0.940 . S
C146 C145 1.378 . S
C146 C147 1.396 . S
C147 H132 0.940 . S
C147 C142 1.391 . S
C147 C146 1.396 . S
C148 P128 1.803 . S
C148 C149 1.378 . S
C148 C153 1.400 . S
C149 H133 0.939 . S
C149 C148 1.378 . S
C149 C150 1.361 . S
C150 H134 0.942 . S
C150 C149 1.361 . S
C150 C151 1.369 . S
C151 C150 1.369 . S
C151 C152 1.404 . S
C152 H135 0.940 . S
C152 C151 1.404 . S
C152 C153 1.389 . S
C153 H136 0.939 . S
C153 C148 1.400 . S
C153 C152 1.389 . S
C154 P128 1.819 . S
C154 C155 1.391 . S
C154 C159 1.391 . S
C155 H137 0.941 . S
C155 C154 1.391 . S
C155 C156 1.396 . S
C156 H140 0.939 1_565 S
C156 C155 1.396 . S
C156 C157 1.397 . S
C157 C156 1.397 . S
C157 C158 1.385 . S
C158 H141 0.940 . S
C158 C157 1.385 . S
C158 C159 1.388 . S
C159 H138 0.939 . S
C159 C154 1.391 . S
C159 C158 1.388 . S
P160 O171 1.490 . S
P160 C174 1.812 . S
P160 C180 1.803 . S
P160 C186 1.819 . S
H161 C175 0.941 . S
H162 C176 0.939 . S
H163 C178 0.940 . S
H164 C179 0.940 . S
H165 C181 0.939 . S
H166 C182 0.942 . S
H167 C184 0.940 . S
H168 C185 0.939 . S
H169 C187 0.941 . S
H170 C191 0.939 . S
O171 P160 1.490 . S
H172 C188 0.939 . S
H173 C190 0.940 . S
C174 P160 1.812 . S
C174 C175 1.389 . S
C174 C179 1.391 . S
C175 H161 0.941 . S
C175 C174 1.389 . S
C175 C176 1.397 . S
C176 H162 0.939 . S
C176 C175 1.397 . S
C176 C177 1.378 . S
C177 C176 1.378 . S
C177 C178 1.378 . S
C178 H163 0.940 . S
C178 C177 1.378 . S
C178 C179 1.396 . S
C179 H164 0.940 . S
C179 C174 1.391 . S
C179 C178 1.396 . S
C180 P160 1.803 . S
C180 C181 1.378 . S
C180 C185 1.400 . S
C181 H165 0.939 . S
C181 C180 1.378 . S
C181 C182 1.361 . S
C182 H166 0.942 . S
C182 C181 1.361 . S
C182 C183 1.369 . S
C183 C182 1.369 . S
C183 C184 1.404 . S
C184 H167 0.940 . S
C184 C183 1.404 . S
C184 C185 1.389 . S
C185 H168 0.939 . S
C185 C180 1.400 . S
C185 C184 1.389 . S
C186 P160 1.819 . S
C186 C187 1.391 . S
C186 C191 1.391 . S
C187 H169 0.941 . S
C187 C186 1.391 . S
C187 C188 1.396 . S
C188 H172 0.939 . S
C188 C187 1.396 . S
C188 C189 1.397 . S
C189 C188 1.397 . S
C189 C190 1.385 . S
C190 H173 0.940 . S
C190 C189 1.385 . S
C190 C191 1.388 . S
C191 H170 0.939 . S
C191 C186 1.391 . S
C191 C190 1.388 . S
P192 O203 1.490 . S
P192 C206 1.812 . S
P192 C212 1.803 . S
P192 C218 1.819 . S
H193 C207 0.941 . S
H194 C208 0.939 . S
H195 C210 0.940 . S
H196 C211 0.940 . S
H197 C213 0.939 . S
H198 C214 0.942 . S
H199 C216 0.940 . S
H200 C217 0.939 . S
H201 C219 0.941 . S
H202 C223 0.939 . S
O203 P192 1.490 . S
H204 C220 0.939 . S
H205 C222 0.940 . S
C206 P192 1.812 . S
C206 C207 1.389 . S
C206 C211 1.391 . S
C207 H193 0.941 . S
C207 C206 1.389 . S
C207 C208 1.397 . S
C208 H194 0.939 . S
C208 C207 1.397 . S
C208 C209 1.378 . S
C209 C208 1.378 . S
C209 C210 1.378 . S
C210 H195 0.940 . S
C210 C209 1.378 . S
C210 C211 1.396 . S
C211 H196 0.940 . S
C211 C206 1.391 . S
C211 C210 1.396 . S
C212 P192 1.803 . S
C212 C213 1.378 . S
C212 C217 1.400 . S
C213 H197 0.939 . S
C213 C212 1.378 . S
C213 C214 1.361 . S
C214 H198 0.942 . S
C214 C213 1.361 . S
C214 C215 1.369 . S
C215 C214 1.369 . S
C215 C216 1.404 . S
C216 H199 0.940 . S
C216 C215 1.404 . S
C216 C217 1.389 . S
C217 H200 0.939 . S
C217 C212 1.400 . S
C217 C216 1.389 . S
C218 P192 1.819 . S
C218 C219 1.391 . S
C218 C223 1.391 . S
C219 H201 0.941 . S
C219 C218 1.391 . S
C219 C220 1.396 . S
C220 H204 0.939 . S
C220 C219 1.396 . S
C220 C221 1.397 . S
C221 C220 1.397 . S
C221 C222 1.385 . S
C222 H205 0.940 . S
C222 C221 1.385 . S
C222 C223 1.388 . S
C223 H202 0.939 . S
C223 C218 1.391 . S
C223 C222 1.388 . S
P224 O235 1.490 . S
P224 C238 1.812 . S
P224 C244 1.803 . S
P224 C250 1.819 . S
H225 C239 0.941 . S
H226 C240 0.939 . S
H227 C242 0.940 . S
H228 C243 0.940 . S
H229 C245 0.939 . S
H230 C246 0.942 . S
H231 C248 0.940 . S
H232 C249 0.939 . S
H233 C251 0.941 . S
H234 C255 0.939 . S
O235 P224 1.490 . S
H236 C252 0.939 . S
H237 C254 0.940 . S
C238 P224 1.812 . S
C238 C239 1.389 . S
C238 C243 1.391 . S
C239 H225 0.941 . S
C239 C238 1.389 . S
C239 C240 1.397 . S
C240 H226 0.939 . S
C240 C239 1.397 . S
C240 C241 1.378 . S
C241 C240 1.378 . S
C241 C242 1.378 . S
C242 H227 0.940 . S
C242 C241 1.378 . S
C242 C243 1.396 . S
C243 H228 0.940 . S
C243 C238 1.391 . S
C243 C242 1.396 . S
C244 P224 1.803 . S
C244 C245 1.378 . S
C244 C249 1.400 . S
C245 H229 0.939 . S
C245 C244 1.378 . S
C245 C246 1.361 . S
C246 H230 0.942 . S
C246 C245 1.361 . S
C246 C247 1.369 . S
C247 C246 1.369 . S
C247 C248 1.404 . S
C248 H231 0.940 . S
C248 C247 1.404 . S
C248 C249 1.389 . S
C249 H232 0.939 . S
C249 C244 1.400 . S
C249 C248 1.389 . S
C250 P224 1.819 . S
C250 C251 1.391 . S
C250 C255 1.391 . S
C251 H233 0.941 . S
C251 C250 1.391 . S
C251 C252 1.396 . S
C252 H236 0.939 . S
C252 C251 1.396 . S
C252 C253 1.397 . S
C253 C252 1.397 . S
C253 C254 1.385 . S
C254 H237 0.940 . S
C254 C253 1.385 . S
C254 C255 1.388 . S
C255 H234 0.939 . S
C255 C250 1.391 . S
C255 C254 1.388 . S
Co256 N261 2.057 . S
Co256 O273 2.021 . S
Co256 O276 2.062 . S
Co256 O280 2.117 1_545 S
Co256 O281 2.020 . S
C257 O277 1.259 1_655 S
C257 O280 1.258 . S
Co258 N267 2.057 . S
Co258 O274 2.117 1_565 S
Co258 O275 2.020 1_565 S
Co258 O277 2.021 . S
Co258 O282 2.062 . S
C259 N261 1.316 . S
C259 N262 1.347 . S
C259 H264 0.931 . S
C260 N261 1.375 . S
C260 C263 1.350 . S
C260 H265 0.930 1_545 S
N261 Co256 2.057 . S
N261 C259 1.316 . S
N261 C260 1.375 . S
N262 C259 1.347 . S
N262 C263 1.373 . S
C263 C260 1.350 . S
C263 N262 1.373 . S
C263 H284 0.931 . S
H264 C259 0.931 . S
H265 C260 0.930 1_565 S
C266 O273 1.259 1_455 S
C266 O274 1.258 . S
N267 Co258 2.057 . S
N267 C268 1.316 . S
N267 C269 1.375 1_565 S
C268 N267 1.316 . S
C268 N270 1.347 . S
C268 H279 0.931 . S
C269 N267 1.375 1_545 S
C269 C271 1.350 1_545 S
C269 H278 0.930 . S
N270 C268 1.347 . S
N270 C271 1.373 . S
C271 C269 1.350 1_565 S
C271 N270 1.373 . S
C271 H285 0.931 1_565 S
C272 O275 1.256 . S
C272 O276 1.255 1_455 S
O273 Co256 2.021 . S
O273 C266 1.259 1_655 S
O274 Co258 2.117 1_545 S
O274 C266 1.258 . S
O275 Co258 2.020 1_545 S
O275 C272 1.256 . S
O276 Co256 2.062 . S
O276 C272 1.255 1_655 S
O277 C257 1.259 1_455 S
O277 Co258 2.021 . S
H278 C269 0.930 . S
H279 C268 0.931 . S
O280 Co256 2.117 1_565 S
O280 C257 1.258 . S
O281 Co256 2.020 . S
O281 C283 1.256 1_545 S
O282 Co258 2.062 . S
O282 C283 1.255 1_455 S
C283 O281 1.256 1_565 S
C283 O282 1.255 1_655 S
H284 C263 0.931 . S
H285 C271 0.931 1_545 S
Co286 N291 2.057 1_545 S
Co286 O303 2.021 . S
Co286 O306 2.062 1_545 S
Co286 O310 2.117 1_546 S
Co286 O311 2.020 . S
C287 O307 1.259 . S
C287 O310 1.258 . S
Co288 N297 2.057 . S
Co288 O304 2.117 . S
Co288 O305 2.020 1_545 S
Co288 O307 2.021 1_545 S
Co288 O312 2.062 . S
C289 N291 1.316 . S
C289 N292 1.347 . S
C289 H294 0.931 1_565 S
C290 N291 1.375 . S
C290 C293 1.350 . S
C290 H295 0.930 . S
N291 Co286 2.057 1_565 S
N291 C289 1.316 . S
N291 C290 1.375 . S
N292 C289 1.347 . S
N292 C293 1.373 . S
C293 C290 1.350 . S
C293 N292 1.373 . S
C293 H314 0.931 . S
H294 C289 0.931 1_545 S
H295 C290 0.930 . S
C296 O303 1.259 . S
C296 O304 1.258 1_556 S
N297 Co288 2.057 . S
N297 C298 1.316 . S
N297 C299 1.375 . S
C298 N297 1.316 . S
C298 N300 1.347 . S
C298 H309 0.931 . S
C299 N297 1.375 . S
C299 C301 1.350 . S
C299 H308 0.930 . S
N300 C298 1.347 . S
N300 C301 1.373 . S
C301 C299 1.350 . S
C301 N300 1.373 . S
C301 H315 0.931 . S
C302 O305 1.256 1_556 S
C302 O306 1.255 . S
O303 Co286 2.021 . S
O303 C296 1.259 . S
O304 Co288 2.117 . S
O304 C296 1.258 1_554 S
O305 Co288 2.020 1_565 S
O305 C302 1.256 1_554 S
O306 Co286 2.062 1_565 S
O306 C302 1.255 . S
O307 C287 1.259 . S
O307 Co288 2.021 1_565 S
H308 C299 0.930 . S
H309 C298 0.931 . S
O310 Co286 2.117 1_564 S
O310 C287 1.258 . S
O311 Co286 2.020 . S
O311 C313 1.256 1_556 S
O312 Co288 2.062 . S
O312 C313 1.255 . S
C313 O311 1.256 1_554 S
C313 O312 1.255 . S
H314 C293 0.931 . S
H315 C301 0.931 . S
Co316 N321 2.057 . S
Co316 O333 2.021 . S
Co316 O336 2.062 . S
Co316 O340 2.117 . S
Co316 O341 2.020 . S
C317 O337 1.259 . S
C317 O340 1.258 . S
Co318 N327 2.057 . S
Co318 O334 2.117 . S
Co318 O335 2.020 . S
Co318 O337 2.021 . S
Co318 O342 2.062 . S
C319 N321 1.316 . S
C319 N322 1.347 . S
C319 H324 0.931 . S
C320 N321 1.375 . S
C320 C323 1.350 . S
C320 H325 0.930 . S
N321 Co316 2.057 . S
N321 C319 1.316 . S
N321 C320 1.375 . S
N322 C319 1.347 . S
N322 C323 1.373 . S
C323 C320 1.350 . S
C323 N322 1.373 . S
C323 H344 0.931 . S
H324 C319 0.931 . S
H325 C320 0.930 . S
C326 O333 1.259 . S
C326 O334 1.258 . S
N327 Co318 2.057 . S
N327 C328 1.316 . S
N327 C329 1.375 . S
C328 N327 1.316 . S
C328 N330 1.347 . S
C328 H339 0.931 . S
C329 N327 1.375 . S
C329 C331 1.350 . S
C329 H338 0.930 . S
N330 C328 1.347 . S
N330 C331 1.373 . S
C331 C329 1.350 . S
C331 N330 1.373 . S
C331 H345 0.931 . S
C332 O335 1.256 . S
C332 O336 1.255 . S
O333 Co316 2.021 . S
O333 C326 1.259 . S
O334 Co318 2.117 . S
O334 C326 1.258 . S
O335 Co318 2.020 . S
O335 C332 1.256 . S
O336 Co316 2.062 . S
O336 C332 1.255 . S
O337 C317 1.259 . S
O337 Co318 2.021 . S
H338 C329 0.930 . S
H339 C328 0.931 . S
O340 Co316 2.117 . S
O340 C317 1.258 . S
O341 Co316 2.020 . S
O341 C343 1.256 . S
O342 Co318 2.062 . S
O342 C343 1.255 . S
C343 O341 1.256 . S
C343 O342 1.255 . S
H344 C323 0.931 . S
H345 C331 0.931 . S
Co346 N351 2.057 . S
Co346 O363 2.021 . S
Co346 O366 2.062 . S
Co346 O370 2.117 1_455 S
Co346 O371 2.015 1_455 S
C347 O367 1.259 1_556 S
C347 O370 1.258 . S
Co348 N357 2.057 . S
Co348 O364 2.117 1_655 S
Co348 O365 2.020 1_655 S
Co348 O367 2.021 . S
Co348 O372 2.062 . S
C349 N351 1.316 . S
C349 N352 1.347 . S
C349 H354 0.931 . S
C350 N351 1.375 1_655 S
C350 C353 1.350 1_655 S
C350 H355 0.930 . S
N351 Co346 2.057 . S
N351 C349 1.316 . S
N351 C350 1.375 1_455 S
N352 C349 1.347 . S
N352 C353 1.373 . S
C353 C350 1.350 1_455 S
C353 N352 1.373 . S
C353 H374 0.931 1_455 S
H354 C349 0.931 . S
H355 C350 0.930 . S
C356 O363 1.259 1_554 S
C356 O364 1.258 . S
N357 Co348 2.057 . S
N357 C358 1.316 . S
N357 C359 1.375 1_655 S
C358 N357 1.316 . S
C358 N360 1.347 . S
C358 H369 0.931 . S
C359 N357 1.375 1_455 S
C359 C361 1.350 1_455 S
C359 H368 0.930 . S
N360 C358 1.347 . S
N360 C361 1.373 . S
C361 C359 1.350 1_655 S
C361 N360 1.373 . S
C361 H375 0.931 1_655 S
C362 O365 1.256 . S
C362 O366 1.255 1_554 S
O363 Co346 2.021 . S
O363 C356 1.259 1_556 S
O364 Co348 2.117 1_455 S
O364 C356 1.258 . S
O365 Co348 2.020 1_455 S
O365 C362 1.256 . S
O366 Co346 2.062 . S
O366 C362 1.255 1_556 S
O367 C347 1.259 1_554 S
O367 Co348 2.021 . S
H368 C359 0.930 . S
H369 C358 0.931 . S
O370 Co346 2.117 1_655 S
O370 C347 1.258 . S
O371 Co346 2.015 1_655 S
O371 C373 1.262 . S
O372 Co348 2.062 . S
O372 C373 1.255 1_554 S
C373 O371 1.262 . S
C373 O372 1.255 1_556 S
H374 C353 0.931 1_655 S
H375 C361 0.931 1_455 S
C376 C377 1.363 . S
C376 C382 1.379 . S
C376 N384 1.356 . S
C377 C376 1.363 . S
C377 C383 1.363 . S
C378 C379 1.363 . S
C378 C383 1.379 . S
C378 N385 1.356 1_545 S
C379 C378 1.363 . S
C379 C382 1.363 . S
N380 C382 1.356 . S
N380 H392 0.984 . S
N380 H393 0.985 . S
N381 C383 1.356 . S
N381 H386 0.984 . S
N381 H387 0.985 1_545 S
C382 C376 1.379 . S
C382 C379 1.363 . S
C382 N380 1.356 . S
C383 C377 1.363 . S
C383 C378 1.379 . S
C383 N381 1.356 . S
N384 C376 1.356 . S
N384 H390 0.984 . S
N384 H391 0.984 . S
N385 C378 1.356 1_565 S
N385 H388 0.984 . S
N385 H389 0.985 1_455 S
H386 N381 0.984 . S
H387 N381 0.985 1_565 S
H388 N385 0.984 . S
H389 N385 0.985 1_655 S
H390 N384 0.984 . S
H391 N384 0.984 . S
H392 N380 0.984 . S
H393 N380 0.985 . S
C394 C395 1.363 . S
C394 C400 1.379 . S
C394 N402 1.356 . S
C395 C394 1.363 . S
C395 C401 1.363 . S
C396 C397 1.363 . S
C396 C401 1.379 . S
C396 N403 1.356 . S
C397 C396 1.363 . S
C397 C400 1.363 . S
N398 C400 1.356 1_545 S
N398 H410 0.984 . S
N398 H411 0.985 . S
N399 C401 1.356 . S
N399 H404 0.984 . S
N399 H405 0.985 . S
C400 C394 1.379 . S
C400 C397 1.363 . S
C400 N398 1.356 1_565 S
C401 C395 1.363 . S
C401 C396 1.379 . S
C401 N399 1.356 . S
N402 C394 1.356 . S
N402 H408 0.984 . S
N402 H409 0.984 . S
N403 C396 1.356 . S
N403 H406 0.984 . S
N403 H407 0.985 . S
H404 N399 0.984 . S
H405 N399 0.985 . S
H406 N403 0.984 . S
H407 N403 0.985 . S
H408 N402 0.984 . S
H409 N402 0.984 . S
H410 N398 0.984 . S
H411 N398 0.985 . S
C412 C413 1.363 . S
C412 C418 1.379 . S
C412 N420 1.356 . S
C413 C412 1.363 . S
C413 C419 1.363 . S
C414 C415 1.363 . S
C414 C419 1.379 . S
C414 N421 1.356 . S
C415 C414 1.363 . S
C415 C418 1.363 . S
N416 C418 1.356 . S
N416 H428 0.984 . S
N416 H429 0.985 . S
N417 C419 1.356 . S
N417 H422 0.984 . S
N417 H423 0.985 . S
C418 C412 1.379 . S
C418 C415 1.363 . S
C418 N416 1.356 . S
C419 C413 1.363 . S
C419 C414 1.379 . S
C419 N417 1.356 . S
N420 C412 1.356 . S
N420 H426 0.984 . S
N420 H427 0.984 . S
N421 C414 1.356 . S
N421 H424 0.984 . S
N421 H425 0.985 . S
H422 N417 0.984 . S
H423 N417 0.985 . S
H424 N421 0.984 . S
H425 N421 0.985 . S
H426 N420 0.984 . S
H427 N420 0.984 . S
H428 N416 0.984 . S
H429 N416 0.985 . S
C430 C431 1.363 . S
C430 C436 1.379 . S
C430 N438 1.356 1_655 S
C431 C430 1.363 . S
C431 C437 1.363 . S
C432 C433 1.363 . S
C432 C437 1.379 . S
C432 N439 1.356 . S
C433 C432 1.363 . S
C433 C436 1.363 . S
N434 C436 1.356 . S
N434 H446 0.984 1_655 S
N434 H447 0.985 . S
N435 C437 1.356 . S
N435 H440 0.984 . S
N435 H441 0.985 . S
C436 C430 1.379 . S
C436 C433 1.363 . S
C436 N434 1.356 . S
C437 C431 1.363 . S
C437 C432 1.379 . S
C437 N435 1.356 . S
N438 C430 1.356 1_455 S
N438 H444 0.984 . S
N438 H445 0.984 . S
N439 C432 1.356 . S
N439 H442 0.984 . S
N439 H443 0.985 . S
H440 N435 0.984 . S
H441 N435 0.985 . S
H442 N439 0.984 . S
H443 N439 0.985 . S
H444 N438 0.984 . S
H445 N438 0.984 . S
H446 N434 0.984 1_455 S
H447 N434 0.985 . S
C448 C449 1.363 . S
C448 C454 1.379 . S
C448 N456 1.356 . S
C449 C448 1.363 . S
C449 C455 1.363 . S
C450 C451 1.363 . S
C450 C455 1.379 . S
C450 N457 1.350 1_554 S
C451 C450 1.363 . S
C451 C454 1.363 . S
N452 C454 1.356 . S
N452 H464 0.984 1_545 S
N452 H465 0.985 . S
N453 C455 1.356 . S
N453 H458 0.984 . S
N453 H459 0.985 1_554 S
C454 C448 1.379 . S
C454 C451 1.363 . S
C454 N452 1.356 . S
C455 C449 1.363 . S
C455 C450 1.379 . S
C455 N453 1.356 . S
N456 C448 1.356 . S
N456 H462 0.984 1_545 S
N456 H463 0.984 . S
N457 C450 1.350 1_556 S
N457 H460 0.985 . S
N457 H461 0.990 . S
H458 N453 0.984 . S
H459 N453 0.985 1_556 S
H460 N457 0.985 . S
H461 N457 0.990 . S
H462 N456 0.984 1_565 S
H463 N456 0.984 . S
H464 N452 0.984 1_565 S
H465 N452 0.985 . S
C466 C467 1.363 . S
C466 C472 1.379 . S
C466 N474 1.356 . S
C467 C466 1.363 . S
C467 C473 1.363 . S
C468 C469 1.363 . S
C468 C473 1.379 . S
C468 N475 1.356 . S
C469 C468 1.363 . S
C469 C472 1.363 . S
N470 C472 1.356 . S
N470 H482 0.984 1_565 S
N470 H483 0.985 . S
N471 C473 1.356 . S
N471 H476 0.984 . S
N471 H477 0.985 . S
C472 C466 1.379 . S
C472 C469 1.363 . S
C472 N470 1.356 . S
C473 C467 1.363 . S
C473 C468 1.379 . S
C473 N471 1.356 . S
N474 C466 1.356 . S
N474 H480 0.984 1_565 S
N474 H481 0.984 . S
N475 C468 1.356 . S
N475 H478 0.984 . S
N475 H479 0.985 . S
H476 N471 0.984 . S
H477 N471 0.985 . S
H478 N475 0.984 . S
H479 N475 0.985 . S
H480 N474 0.984 1_545 S
H481 N474 0.984 . S
H482 N470 0.984 1_545 S
H483 N470 0.985 . S
C484 C485 1.363 . S
C484 C490 1.379 . S
C484 N492 1.356 . S
C485 C484 1.363 . S
C485 C491 1.363 . S
C486 C487 1.363 . S
C486 C491 1.379 . S
C486 N493 1.356 1_556 S
C487 C486 1.363 . S
C487 C490 1.363 . S
N488 C490 1.356 . S
N488 H500 0.984 . S
N488 H501 0.985 . S
N489 C491 1.356 . S
N489 H494 0.984 . S
N489 H495 0.985 1_556 S
C490 C484 1.379 . S
C490 C487 1.363 . S
C490 N488 1.356 . S
C491 C485 1.363 . S
C491 C486 1.379 . S
C491 N489 1.356 . S
N492 C484 1.356 . S
N492 H498 0.984 . S
N492 H499 0.984 . S
N493 C486 1.356 1_554 S
N493 H496 0.984 . S
N493 H497 0.985 . S
H494 N489 0.984 . S
H495 N489 0.985 1_554 S
H496 N493 0.984 . S
H497 N493 0.985 . S
H498 N492 0.984 . S
H499 N492 0.984 . S
H500 N488 0.984 . S
H501 N488 0.985 . S
C502 C503 1.363 . S
C502 C508 1.379 . S
C502 N510 1.356 . S
C503 C502 1.363 . S
C503 C509 1.363 . S
C504 C505 1.363 . S
C504 C509 1.379 . S
C504 N511 1.356 . S
C505 C504 1.363 . S
C505 C508 1.363 . S
N506 C508 1.356 . S
N506 H518 0.984 . S
N506 H519 0.985 . S
N507 C509 1.356 . S
N507 H512 0.984 . S
N507 H513 0.985 . S
C508 C502 1.379 . S
C508 C505 1.363 . S
C508 N506 1.356 . S
C509 C503 1.363 . S
C509 C504 1.379 . S
C509 N507 1.356 . S
N510 C502 1.356 . S
N510 H516 0.984 . S
N510 H517 0.984 . S
N511 C504 1.356 . S
N511 H514 0.984 . S
N511 H515 0.985 . S
H512 N507 0.984 . S
H513 N507 0.985 . S
H514 N511 0.984 . S
H515 N511 0.985 . S
H516 N510 0.984 . S
H517 N510 0.984 . S
H518 N506 0.984 . S
H519 N506 0.985 . S
C520 C521 1.363 . S
C520 C526 1.379 . S
C520 N528 1.356 . S
C521 C520 1.363 . S
C521 C527 1.363 . S
C522 C523 1.363 . S
C522 C527 1.379 . S
C522 N529 1.356 1_455 S
C523 C522 1.363 . S
C523 C526 1.363 . S
N524 C526 1.356 . S
N524 H536 0.984 . S
N524 H537 0.985 . S
N525 C527 1.356 . S
N525 H530 0.984 . S
N525 H531 0.985 1_455 S
C526 C520 1.379 . S
C526 C523 1.363 . S
C526 N524 1.356 . S
C527 C521 1.363 . S
C527 C522 1.379 . S
C527 N525 1.356 . S
N528 C520 1.356 . S
N528 H534 0.984 . S
N528 H535 0.984 . S
N529 C522 1.356 1_655 S
N529 H532 0.984 . S
N529 H533 0.985 . S
H530 N525 0.984 . S
H531 N525 0.985 1_655 S
H532 N529 0.984 . S
H533 N529 0.985 . S
H534 N528 0.984 . S
H535 N528 0.984 . S
H536 N524 0.984 . S
H537 N524 0.985 . S
C538 C539 1.363 . S
C538 C544 1.379 . S
C538 N546 1.356 1_556 S
C539 C538 1.363 . S
C539 C545 1.363 . S
C540 C541 1.363 . S
C540 C545 1.379 . S
C540 N547 1.356 . S
C541 C540 1.363 . S
C541 C544 1.363 . S
N542 C544 1.356 1_554 S
N542 H554 0.984 . S
N542 H555 0.985 . S
N543 C545 1.356 . S
N543 H548 0.984 . S
N543 H549 0.985 . S
C544 C538 1.379 . S
C544 C541 1.363 . S
C544 N542 1.356 1_556 S
C545 C539 1.363 . S
C545 C540 1.379 . S
C545 N543 1.356 . S
N546 C538 1.356 1_554 S
N546 H552 0.984 . S
N546 H553 0.984 1_554 S
N547 C540 1.356 . S
N547 H550 0.984 . S
N547 H551 0.985 . S
H548 N543 0.984 . S
H549 N543 0.985 . S
H550 N547 0.984 . S
H551 N547 0.985 . S
H552 N546 0.984 . S
H553 N546 0.984 1_556 S
H554 N542 0.984 . S
H555 N542 0.985 . S
C556 C557 1.363 . S
C556 C562 1.379 . S
C556 N564 1.356 . S
C557 C556 1.363 . S
C557 C563 1.363 . S
C558 C559 1.363 . S
C558 C563 1.379 . S
C558 N565 1.356 1_655 S
C559 C558 1.363 . S
C559 C562 1.363 . S
N560 C562 1.356 . S
N560 H572 0.984 . S
N560 H573 0.985 . S
N561 C563 1.356 1_455 S
N561 H566 0.983 1_455 S
N561 H567 0.985 . S
C562 C556 1.379 . S
C562 C559 1.363 . S
C562 N560 1.356 . S
C563 C557 1.363 . S
C563 C558 1.379 . S
C563 N561 1.356 1_655 S
N564 C556 1.356 . S
N564 H570 0.984 . S
N564 H571 0.984 . S
N565 C558 1.356 1_455 S
N565 H568 0.984 . S
N565 H569 0.985 . S
H566 N561 0.983 1_655 S
H567 N561 0.985 . S
H568 N565 0.984 . S
H569 N565 0.985 . S
H570 N564 0.984 . S
H571 N564 0.984 . S
H572 N560 0.984 . S
H573 N560 0.985 . S
C574 C575 1.363 . S
C574 C580 1.379 . S
C574 N582 1.356 . S
C575 C574 1.363 . S
C575 C581 1.363 . S
C576 C577 1.363 . S
C576 C581 1.379 . S
C576 N583 1.356 . S
C577 C576 1.363 . S
C577 C580 1.363 . S
N578 C580 1.356 . S
N578 H590 0.984 . S
N578 H591 0.985 . S
N579 C581 1.356 . S
N579 H584 0.984 . S
N579 H585 0.985 . S
C580 C574 1.379 . S
C580 C577 1.363 . S
C580 N578 1.356 . S
C581 C575 1.363 . S
C581 C576 1.379 . S
C581 N579 1.356 . S
N582 C574 1.356 . S
N582 H588 0.984 . S
N582 H589 0.984 . S
N583 C576 1.356 . S
N583 H586 0.984 . S
N583 H587 0.985 . S
H584 N579 0.984 . S
H585 N579 0.985 . S
H586 N583 0.984 . S
H587 N583 0.985 . S
H588 N582 0.984 . S
H589 N582 0.984 . S
H590 N578 0.984 . S
H591 N578 0.985 . S
C592 C593 1.363 . S
C592 C598 1.379 . S
C592 N600 1.356 . S
C593 C592 1.363 . S
C593 C599 1.363 . S
C594 C595 1.357 1_545 S
C594 C599 1.378 1_545 S
C594 N601 1.362 . S
C595 C594 1.357 1_565 S
C595 C598 1.363 . S
N596 C598 1.356 . S
N596 H608 0.984 1_655 S
N596 H609 0.985 1_655 S
N597 C599 1.356 1_545 S
N597 H602 0.984 . S
N597 H603 0.985 . S
C598 C592 1.379 . S
C598 C595 1.363 . S
C598 N596 1.356 . S
C599 C593 1.363 . S
C599 C594 1.378 1_565 S
C599 N597 1.356 1_565 S
N600 C592 1.356 . S
N600 H606 0.984 . S
N600 H607 0.984 . S
N601 C594 1.362 . S
N601 H604 0.984 . S
N601 H605 0.985 . S
H602 N597 0.984 . S
H603 N597 0.985 . S
H604 N601 0.984 . S
H605 N601 0.985 . S
H606 N600 0.984 . S
H607 N600 0.984 . S
H608 N596 0.984 1_455 S
H609 N596 0.985 1_455 S
C610 C611 1.363 . S
C610 C616 1.379 . S
C610 N618 1.356 . S
C611 C610 1.363 . S
C611 C617 1.363 . S
C612 C613 1.363 . S
C612 C617 1.379 . S
C612 N619 1.356 . S
C613 C612 1.363 . S
C613 C616 1.363 . S
N614 C616 1.356 . S
N614 H626 0.984 1_545 S
N614 H627 0.985 . S
N615 C617 1.356 . S
N615 H620 0.984 . S
N615 H621 0.985 . S
C616 C610 1.379 . S
C616 C613 1.363 . S
C616 N614 1.356 . S
C617 C611 1.363 . S
C617 C612 1.379 . S
C617 N615 1.356 . S
N618 C610 1.356 . S
N618 H624 0.984 . S
N618 H625 0.984 . S
N619 C612 1.356 . S
N619 H622 0.984 . S
N619 H623 0.985 . S
H620 N615 0.984 . S
H621 N615 0.985 . S
H622 N619 0.984 . S
H623 N619 0.985 . S
H624 N618 0.984 . S
H625 N618 0.984 . S
H626 N614 0.984 1_565 S
H627 N614 0.985 . S
C628 C629 1.363 . S
C628 C634 1.379 . S
C628 N636 1.356 . S
C629 C628 1.363 . S
C629 C635 1.363 . S
C630 C631 1.363 . S
C630 C635 1.379 . S
C630 N637 1.356 . S
C631 C630 1.363 . S
C631 C634 1.363 . S
N632 C634 1.356 . S
N632 H644 0.984 . S
N632 H645 0.985 . S
N633 C635 1.356 . S
N633 H638 0.984 . S
N633 H639 0.985 . S
C634 C628 1.379 . S
C634 C631 1.363 . S
C634 N632 1.356 . S
C635 C629 1.363 . S
C635 C630 1.379 . S
C635 N633 1.356 . S
N636 C628 1.356 . S
N636 H642 0.984 . S
N636 H643 0.984 . S
N637 C630 1.356 . S
N637 H640 0.984 . S
N637 H641 0.985 . S
H638 N633 0.984 . S
H639 N633 0.985 . S
H640 N637 0.984 . S
H641 N637 0.985 . S
H642 N636 0.984 . S
H643 N636 0.984 . S
H644 N632 0.984 . S
H645 N632 0.985 . S
C646 C647 1.363 . S
C646 C652 1.379 . S
C646 N654 1.356 . S
C647 C646 1.363 . S
C647 C653 1.363 . S
C648 C649 1.363 . S
C648 C653 1.379 . S
C648 N655 1.356 . S
C649 C648 1.363 . S
C649 C652 1.363 . S
N650 C652 1.356 . S
N650 H662 0.984 . S
N650 H663 0.985 . S
N651 C653 1.356 . S
N651 H656 0.984 . S
N651 H657 0.985 1_455 S
C652 C646 1.379 . S
C652 C649 1.363 . S
C652 N650 1.356 . S
C653 C647 1.363 . S
C653 C648 1.379 . S
C653 N651 1.356 . S
N654 C646 1.356 . S
N654 H660 0.984 . S
N654 H661 0.984 . S
N655 C648 1.356 . S
N655 H658 0.984 . S
N655 H659 0.985 . S
H656 N651 0.984 . S
H657 N651 0.985 1_655 S
H658 N655 0.984 . S
H659 N655 0.985 . S
H660 N654 0.984 . S
H661 N654 0.984 . S
H662 N650 0.984 . S
H663 N650 0.985 . S
C664 C665 1.363 . S
C664 C670 1.379 . S
C664 N672 1.356 . S
C665 C664 1.363 . S
C665 C671 1.363 . S
C666 C667 1.363 1_545 S
C666 C671 1.379 1_545 S
C666 N673 1.356 . S
C667 C666 1.363 1_565 S
C667 C670 1.363 . S
N668 C670 1.357 1_554 S
N668 H680 0.984 . S
N668 H681 0.984 . S
N669 C671 1.356 1_545 S
N669 H674 0.984 . S
N669 H675 0.985 . S
C670 C664 1.379 . S
C670 C667 1.363 . S
C670 N668 1.357 1_556 S
C671 C665 1.363 . S
C671 C666 1.379 1_565 S
C671 N669 1.356 1_565 S
N672 C664 1.356 . S
N672 H678 0.984 . S
N672 H679 0.984 . S
N673 C666 1.356 . S
N673 H676 0.984 . S
N673 H677 0.985 . S
H674 N669 0.984 . S
H675 N669 0.985 . S
H676 N673 0.984 . S
H677 N673 0.985 . S
H678 N672 0.984 . S
H679 N672 0.984 . S
H680 N668 0.984 . S
H681 N668 0.984 . S
C682 C683 1.363 . S
C682 C688 1.379 . S
C682 N690 1.356 . S
C683 C682 1.363 . S
C683 C689 1.363 . S
C684 C685 1.363 . S
C684 C689 1.379 . S
C684 N691 1.356 . S
C685 C684 1.363 . S
C685 C688 1.363 . S
N686 C688 1.356 . S
N686 H698 0.984 . S
N686 H699 0.985 . S
N687 C689 1.356 . S
N687 H692 0.984 . S
N687 H693 0.985 . S
C688 C682 1.379 . S
C688 C685 1.363 . S
C688 N686 1.356 . S
C689 C683 1.363 . S
C689 C684 1.379 . S
C689 N687 1.356 . S
N690 C682 1.356 . S
N690 H696 0.984 . S
N690 H697 0.984 . S
N691 C684 1.356 . S
N691 H694 0.984 . S
N691 H695 0.985 . S
H692 N687 0.984 . S
H693 N687 0.985 . S
H694 N691 0.984 . S
H695 N691 0.985 . S
H696 N690 0.984 . S
H697 N690 0.984 . S
H698 N686 0.984 . S
H699 N686 0.985 . S
C700 C701 1.363 . S
C700 C706 1.379 . S
C700 N708 1.356 . S
C701 C700 1.363 . S
C701 C707 1.363 . S
C702 C703 1.363 . S
C702 C707 1.379 . S
C702 N709 1.356 . S
C703 C702 1.363 . S
C703 C706 1.363 . S
N704 C706 1.356 . S
N704 H716 0.984 . S
N704 H717 0.985 . S
N705 C707 1.356 . S
N705 H710 0.984 . S
N705 H711 0.985 . S
C706 C700 1.379 . S
C706 C703 1.363 . S
C706 N704 1.356 . S
C707 C701 1.363 . S
C707 C702 1.379 . S
C707 N705 1.356 . S
N708 C700 1.356 . S
N708 H714 0.984 . S
N708 H715 0.984 . S
N709 C702 1.356 . S
N709 H712 0.984 . S
N709 H713 0.985 . S
H710 N705 0.984 . S
H711 N705 0.985 . S
H712 N709 0.984 . S
H713 N709 0.985 . S
H714 N708 0.984 . S
H715 N708 0.984 . S
H716 N704 0.984 . S
H717 N704 0.985 . S
C718 C719 1.363 . S
C718 C724 1.379 . S
C718 N726 1.356 . S
C719 C718 1.363 . S
C719 C725 1.363 . S
C720 C721 1.363 . S
C720 C725 1.379 . S
C720 N727 1.356 . S
C721 C720 1.363 . S
C721 C724 1.363 . S
N722 C724 1.356 . S
N722 H734 0.984 . S
N722 H735 0.985 . S
N723 C725 1.356 . S
N723 H728 0.984 . S
N723 H729 0.985 . S
C724 C718 1.379 . S
C724 C721 1.363 . S
C724 N722 1.356 . S
C725 C719 1.363 . S
C725 C720 1.379 . S
C725 N723 1.356 . S
N726 C718 1.356 . S
N726 H732 0.984 . S
N726 H733 0.984 . S
N727 C720 1.356 . S
N727 H730 0.984 . S
N727 H731 0.985 . S
H728 N723 0.984 . S
H729 N723 0.985 . S
H730 N727 0.984 . S
H731 N727 0.985 . S
H732 N726 0.984 . S
H733 N726 0.984 . S
H734 N722 0.984 . S
H735 N722 0.985 . S
C736 C737 1.363 . S
C736 C742 1.379 1_556 S
C736 N744 1.356 1_556 S
C737 C736 1.363 . S
C737 C743 1.363 . S
C738 C739 1.363 . S
C738 C743 1.379 . S
C738 N745 1.356 . S
C739 C738 1.363 . S
C739 C742 1.363 1_556 S
N740 C742 1.356 1_455 S
N740 H752 0.984 . S
N740 H753 0.985 . S
N741 C743 1.356 . S
N741 H746 0.984 . S
N741 H747 0.985 . S
C742 C736 1.379 1_554 S
C742 C739 1.363 1_554 S
C742 N740 1.356 1_655 S
C743 C737 1.363 . S
C743 C738 1.379 . S
C743 N741 1.356 . S
N744 C736 1.356 1_554 S
N744 H750 0.984 . S
N744 H751 0.984 . S
N745 C738 1.356 . S
N745 H748 0.984 . S
N745 H749 0.985 . S
H746 N741 0.984 . S
H747 N741 0.985 . S
H748 N745 0.984 . S
H749 N745 0.985 . S
H750 N744 0.984 . S
H751 N744 0.984 . S
H752 N740 0.984 . S
H753 N740 0.985 . S
C754 C755 1.363 . S
C754 C760 1.379 . S
C754 N762 1.356 . S
C755 C754 1.363 . S
C755 C761 1.363 . S
C756 C757 1.363 . S
C756 C761 1.379 . S
C756 N763 1.356 . S
C757 C756 1.363 . S
C757 C760 1.363 . S
N758 C760 1.356 . S
N758 H770 0.984 1_554 S
N758 H771 0.985 . S
N759 C761 1.356 . S
N759 H764 0.984 . S
N759 H765 0.985 . S
C760 C754 1.379 . S
C760 C757 1.363 . S
C760 N758 1.356 . S
C761 C755 1.363 . S
C761 C756 1.379 . S
C761 N759 1.356 . S
N762 C754 1.356 . S
N762 H768 0.984 . S
N762 H769 0.984 . S
N763 C756 1.356 . S
N763 H766 0.984 . S
N763 H767 0.985 . S
H764 N759 0.984 . S
H765 N759 0.985 . S
H766 N763 0.984 . S
H767 N763 0.985 . S
H768 N762 0.984 . S
H769 N762 0.984 . S
H770 N758 0.984 1_556 S
H771 N758 0.985 . S
C772 C773 1.363 . S
C772 C778 1.379 . S
C772 N780 1.356 . S
C773 C772 1.363 . S
C773 C779 1.363 . S
C774 C775 1.363 . S
C774 C779 1.379 . S
C774 N781 1.356 . S
C775 C774 1.363 . S
C775 C778 1.363 . S
N776 C778 1.356 . S
N776 H788 0.984 . S
N776 H789 0.985 . S
N777 C779 1.356 . S
N777 H782 0.984 . S
N777 H783 0.985 1_455 S
C778 C772 1.379 . S
C778 C775 1.363 . S
C778 N776 1.356 . S
C779 C773 1.363 . S
C779 C774 1.379 . S
C779 N777 1.356 . S
N780 C772 1.356 . S
N780 H786 0.984 . S
N780 H787 0.984 . S
N781 C774 1.356 . S
N781 H784 0.984 . S
N781 H785 0.985 1_455 S
H782 N777 0.984 . S
H783 N777 0.985 1_655 S
H784 N781 0.984 . S
H785 N781 0.985 1_655 S
H786 N780 0.984 . S
H787 N780 0.984 . S
H788 N776 0.984 . S
H789 N776 0.985 . S
C790 C791 1.363 . S
C790 C796 1.379 . S
C790 N798 1.356 . S
C791 C790 1.363 . S
C791 C797 1.363 . S
C792 C793 1.363 . S
C792 C797 1.379 . S
C792 N799 1.356 . S
C793 C792 1.363 . S
C793 C796 1.363 . S
N794 C796 1.356 . S
N794 H806 0.984 . S
N794 H807 0.985 . S
N795 C797 1.356 . S
N795 H800 0.984 . S
N795 H801 0.985 . S
C796 C790 1.379 . S
C796 C793 1.363 . S
C796 N794 1.356 . S
C797 C791 1.363 . S
C797 C792 1.379 . S
C797 N795 1.356 . S
N798 C790 1.356 . S
N798 H804 0.984 . S
N798 H805 0.984 . S
N799 C792 1.356 . S
N799 H802 0.984 . S
N799 H803 0.985 . S
H800 N795 0.984 . S
H801 N795 0.985 . S
H802 N799 0.984 . S
H803 N799 0.985 . S
H804 N798 0.984 . S
H805 N798 0.984 . S
H806 N794 0.984 . S
H807 N794 0.985 . S
C377 C29 2.062 . S
C379 C272 2.195 . S
C395 C49 1.147 . S
C397 N292 1.129 . S
C415 C326 2.039 . S
C413 C93 1.919 . S
C431 C119 1.239 . S
C433 N360 1.239 . S
C451 C313 2.284 . S
C449 C17 2.174 . S
C469 N270 1.211 . S
C467 C61 1.311 . S
C487 C347 2.035 . S
C485 C81 1.930 . S
C505 N322 1.136 . S
C503 C125 1.029 . S
C521 C23 1.692 . S
C523 C362 1.800 . S
C541 C296 1.715 . S
C539 C87 1.608 . S
C557 C113 1.377 . S
C559 C257 1.498 . S
C575 C55 1.457 . S
C577 C343 1.444 . S
C595 C283 2.139 . S
C593 C157 2.131 . S
C611 C189 1.113 . S
C613 N300 1.178 . S
C629 C221 2.015 . S
C631 C317 2.011 . S
C647 C253 1.257 . S
C649 N352 1.289 . S
C665 C145 2.324 . S
C667 C302 2.320 . S
C685 N262 1.152 . S
C683 C183 1.124 . S
C703 C356 2.058 . S
C701 C209 2.046 . S
C721 N330 1.087 . S
C719 C247 1.004 . S
C737 C151 1.818 . S
C739 C373 1.815 . S
C757 C287 1.723 . S
C755 C215 1.732 . S
C775 C266 1.499 . S
C773 C241 1.368 . S
C791 C177 1.367 . S
C793 C332 1.479 . S
