# Generated by pormake.
# Topology pyr, (3,6)-cn, num edge types: 1
# Building blocks:
#     Node 0, Type 0, BuildingBlock: BETDAH_clean_linker_0, # of connection points: 3
#     Node 1, Type 0, BuildingBlock: BETDAH_clean_linker_0, # of connection points: 3
#     Node 2, Type 0, BuildingBlock: BETDAH_clean_linker_0, # of connection points: 3
#     Node 3, Type 0, BuildingBlock: BETDAH_clean_linker_0, # of connection points: 3
#     Node 4, Type 0, BuildingBlock: BETDAH_clean_linker_0, # of connection points: 3
#     Node 5, Type 0, BuildingBlock: BETDAH_clean_linker_0, # of connection points: 3
#     Node 6, Type 0, BuildingBlock: BETDAH_clean_linker_0, # of connection points: 3
#     Node 7, Type 0, BuildingBlock: BETDAH_clean_linker_0, # of connection points: 3
#     Node 8, Type 1, BuildingBlock: MIDCAF_clean_sbu_0, # of connection points: 6
#     Node 9, Type 1, BuildingBlock: MIDCAF_clean_sbu_0, # of connection points: 6
#     Node 10, Type 1, BuildingBlock: MIDCAF_clean_sbu_0, # of connection points: 6
#     Node 11, Type 1, BuildingBlock: MIDCAF_clean_sbu_0, # of connection points: 6
#     Edge 12, Type (0, 1), BuildingBlock: ZUJKAS_clean_linker_0, # of connection points: 2
#     Edge 13, Type (0, 1), BuildingBlock: ZUJKAS_clean_linker_0, # of connection points: 2
#     Edge 14, Type (0, 1), BuildingBlock: ZUJKAS_clean_linker_0, # of connection points: 2
#     Edge 15, Type (0, 1), BuildingBlock: ZUJKAS_clean_linker_0, # of connection points: 2
#     Edge 16, Type (0, 1), BuildingBlock: ZUJKAS_clean_linker_0, # of connection points: 2
#     Edge 17, Type (0, 1), BuildingBlock: ZUJKAS_clean_linker_0, # of connection points: 2
#     Edge 18, Type (0, 1), BuildingBlock: ZUJKAS_clean_linker_0, # of connection points: 2
#     Edge 19, Type (0, 1), BuildingBlock: ZUJKAS_clean_linker_0, # of connection points: 2
#     Edge 20, Type (0, 1), BuildingBlock: ZUJKAS_clean_linker_0, # of connection points: 2
#     Edge 21, Type (0, 1), BuildingBlock: ZUJKAS_clean_linker_0, # of connection points: 2
#     Edge 22, Type (0, 1), BuildingBlock: ZUJKAS_clean_linker_0, # of connection points: 2
#     Edge 23, Type (0, 1), BuildingBlock: ZUJKAS_clean_linker_0, # of connection points: 2
#     Edge 24, Type (0, 1), BuildingBlock: ZUJKAS_clean_linker_0, # of connection points: 2
#     Edge 25, Type (0, 1), BuildingBlock: ZUJKAS_clean_linker_0, # of connection points: 2
#     Edge 26, Type (0, 1), BuildingBlock: ZUJKAS_clean_linker_0, # of connection points: 2
#     Edge 27, Type (0, 1), BuildingBlock: ZUJKAS_clean_linker_0, # of connection points: 2
#     Edge 28, Type (0, 1), BuildingBlock: ZUJKAS_clean_linker_0, # of connection points: 2
#     Edge 29, Type (0, 1), BuildingBlock: ZUJKAS_clean_linker_0, # of connection points: 2
#     Edge 30, Type (0, 1), BuildingBlock: ZUJKAS_clean_linker_0, # of connection points: 2
#     Edge 31, Type (0, 1), BuildingBlock: ZUJKAS_clean_linker_0, # of connection points: 2
#     Edge 32, Type (0, 1), BuildingBlock: ZUJKAS_clean_linker_0, # of connection points: 2
#     Edge 33, Type (0, 1), BuildingBlock: ZUJKAS_clean_linker_0, # of connection points: 2
#     Edge 34, Type (0, 1), BuildingBlock: ZUJKAS_clean_linker_0, # of connection points: 2
#     Edge 35, Type (0, 1), BuildingBlock: ZUJKAS_clean_linker_0, # of connection points: 2
# Relax obj value: 0.082
# Max RMSD: 0.181
# Mean RMSD: 0.135
data_MOF--net-pyr--node1-MIDCAF_clean_sbu_0--node2-BETDAH_clean_linker_0--edge1-ZUJKAS_clean_linker_0
_symmetry_space_group_name_H-M    P1
_symmetry_Int_Tables_number       1
_symmetry_cell_setting            triclinic
loop_
_symmetry_equiv_pos_as_xyz
'x, y, z'
_cell_length_a     44.669966
_cell_length_b     45.480712
_cell_length_c     47.087509
_cell_angle_alpha  90.40565
_cell_angle_beta   90.972027
_cell_angle_gamma 96.687448
loop_
_atom_site_label
_atom_site_type_symbol
_atom_site_fract_x
_atom_site_fract_y
_atom_site_fract_z
_atom_type_partial_charge
H0 H 0.2657 0.20234 0.27566 0.0
H1 H 0.28188 0.25343 0.19992 0.0
H2 H 0.21115 0.27199 0.25541 0.0
C3 C 0.26029 0.22001 0.26188 0.0
C4 C 0.23629 0.23629 0.26875 0.0
C5 C 0.27724 0.22611 0.2373 0.0
C6 C 0.26967 0.24875 0.21937 0.0
C7 C 0.24611 0.26533 0.22567 0.0
C8 C 0.22932 0.25912 0.25041 0.0
N9 N 0.24031 0.28778 0.20616 0.0
C10 C 0.21883 0.30749 0.20833 0.0
H11 H 0.37255 0.80647 0.78951 0.0
H12 H 0.29167 0.84982 0.79323 0.0
H13 H 0.29673 0.77838 0.7344 0.0
C14 C 0.34991 0.80885 0.78198 0.0
C15 C 0.33681 0.78984 0.76035 0.0
C16 C 0.33386 0.83048 0.79436 0.0
C17 C 0.30467 0.83374 0.78379 0.0
C18 C 0.2914 0.81478 0.76221 0.0
C19 C 0.30733 0.79281 0.75101 0.0
N20 N 0.2612 0.81557 0.75275 0.0
C21 C 0.2479 0.84124 0.74779 0.0
H22 H 0.77767 0.29563 0.88091 0.0
H23 H 0.77595 0.33392 0.79746 0.0
H24 H 0.72111 0.25241 0.8145 0.0
C25 C 0.76917 0.29494 0.8592 0.0
C26 C 0.74787 0.27133 0.85029 0.0
C27 C 0.77974 0.31761 0.84036 0.0
C28 C 0.76794 0.31689 0.81239 0.0
C29 C 0.74702 0.29313 0.80315 0.0
C30 C 0.73748 0.27039 0.82195 0.0
N31 N 0.73676 0.29048 0.77452 0.0
C32 C 0.72294 0.31227 0.76064 0.0
H33 H 0.76227 0.78709 0.37658 0.0
H34 H 0.81171 0.79686 0.29872 0.0
H35 H 0.732 0.73476 0.30285 0.0
C36 C 0.765 0.78091 0.35459 0.0
C37 C 0.74412 0.75901 0.34183 0.0
C38 C 0.78946 0.79484 0.33931 0.0
C39 C 0.79322 0.78619 0.3109 0.0
C40 C 0.77216 0.76475 0.29778 0.0
C41 C 0.7477 0.75162 0.31318 0.0
N42 N 0.77406 0.75661 0.26879 0.0
C43 C 0.80078 0.75552 0.25432 0.0
H44 H 0.96381 0.87857 0.87657 0.0
H45 H 0.88782 0.90017 0.92506 0.0
H46 H 0.91575 0.95094 0.85187 0.0
C47 C 0.94559 0.89187 0.87998 0.0
C48 C 0.94221 0.91535 0.86142 0.0
C49 C 0.92608 0.8859 0.90313 0.0
C50 C 0.90333 0.90452 0.90777 0.0
C51 C 0.89998 0.92818 0.8893 0.0
C52 C 0.91919 0.93313 0.86631 0.0
N53 N 0.87715 0.94722 0.89218 0.0
C54 C 0.85838 0.94915 0.91519 0.0
H55 H 0.68778 0.12476 0.37808 0.0
H56 H 0.70328 0.15195 0.4653 0.0
H57 H 0.63075 0.18292 0.41738 0.0
C58 C 0.68222 0.13758 0.39634 0.0
C59 C 0.65761 0.15426 0.39454 0.0
C60 C 0.69877 0.13623 0.42183 0.0
C61 C 0.69055 0.1522 0.44552 0.0
C62 C 0.66651 0.1693 0.44407 0.0
C63 C 0.6498 0.17022 0.41854 0.0
N64 N 0.65956 0.18433 0.4692 0.0
C65 C 0.6434 0.20861 0.47052 0.0
H66 H 0.35247 0.66618 0.12726 0.0
H67 H 0.39693 0.61688 0.18968 0.0
H68 H 0.4443 0.69456 0.15284 0.0
C69 C 0.37232 0.66332 0.14004 0.0
C70 C 0.39823 0.68376 0.13793 0.0
C71 C 0.37169 0.63913 0.15855 0.0
C72 C 0.39723 0.63556 0.17548 0.0
C73 C 0.42365 0.6554 0.17282 0.0
C74 C 0.42399 0.67911 0.15403 0.0
N75 N 0.45071 0.65179 0.18786 0.0
C76 C 0.45204 0.63984 0.21483 0.0
H77 H 0.16438 0.41767 0.62093 0.0
H78 H 0.12327 0.48239 0.66956 0.0
H79 H 0.06796 0.41048 0.62849 0.0
C80 C 0.14443 0.42596 0.62916 0.0
C81 C 0.11594 0.41047 0.62311 0.0
C82 C 0.14737 0.45211 0.64568 0.0
C83 C 0.12136 0.46241 0.65666 0.0
C84 C 0.09276 0.44717 0.6505 0.0
C85 C 0.0902 0.42176 0.63337 0.0
N86 N 0.06605 0.45722 0.66072 0.0
C87 C 0.06344 0.46729 0.68836 0.0
Zn88 Zn 1.00186 0.0744 0.56847 0.0
Zn89 Zn 0.07136 0.01505 0.50116 0.0
Zn90 Zn 0.03574 0.04607 0.53385 0.0
C91 C 0.08685 0.07618 0.49119 0.0
C92 C 0.01015 0.99881 0.48484 0.0
O93 O 0.03916 0.0292 0.57833 0.0
O94 O 0.00735 0.05215 0.60354 0.0
C95 C 0.04634 0.11622 0.54578 0.0
O96 O 0.06635 0.0785 0.50979 0.0
O97 O 0.09381 0.05105 0.48404 0.0
O98 O 0.03655 0.99324 0.47941 0.0
O99 O 0.00588 0.01825 0.50396 0.0
O100 O 0.02652 0.11333 0.56467 0.0
O101 O 0.05193 0.09382 0.5307 0.0
O102 O 0.98886 0.03835 0.51738 0.0
O103 O 0.96381 0.0654 0.54578 0.0
C104 C 0.96428 0.04867 0.52429 0.0
O105 O 0.06173 0.01876 0.56192 0.0
O106 O 0.09026 0.99531 0.53349 0.0
C107 C 0.02594 0.03337 0.60198 0.0
C108 C 0.08206 1.00118 0.55825 0.0
Zn109 Zn 0.5069 0.07042 0.03715 0.0
Zn110 Zn 0.55088 0.99044 0.10196 0.0
Zn111 Zn 0.53083 0.02968 0.06806 0.0
C112 C 0.59774 0.01002 0.06487 0.0
C113 C 0.50329 0.96057 0.07145 0.0
O114 O 0.50968 0.06068 0.09652 0.0
O115 O 0.48818 0.09106 0.06823 0.0
C116 C 0.56947 0.07527 0.02726 0.0
O117 O 0.579 0.02806 0.057 0.0
O118 O 0.59058 0.99113 0.08384 0.0
O119 O 0.5211 0.95659 0.09176 0.0
O120 O 0.50409 0.98606 0.05951 0.0
O121 O 0.54643 0.08839 0.02299 0.0
O122 O 0.56803 0.0518 0.04259 0.0
O123 O 0.49638 0.006 0.03874 0.0
O124 O 0.48105 0.04162 0.01234 0.0
C125 C 0.48037 0.0144 0.01788 0.0
O126 O 0.52838 0.0448 0.11315 0.0
O127 O 0.54787 0.01097 0.13884 0.0
C128 C 0.49349 0.08216 0.09293 0.0
C129 C 0.53683 0.03525 0.13743 0.0
Zn130 Zn 0.5573 0.57004 0.59125 0.0
Zn131 Zn 0.46704 0.50226 0.54066 0.0
Zn132 Zn 0.51148 0.53744 0.56347 0.0
C133 C 0.5115 0.46653 0.55215 0.0
C134 C 0.48803 0.54408 0.49964 0.0
O135 O 0.49191 0.56417 0.59636 0.0
O136 O 0.53119 0.59083 0.61688 0.0
C137 C 0.56625 0.51139 0.59936 0.0
O138 O 0.5235 0.49115 0.56346 0.0
O139 O 0.48601 0.46516 0.53993 0.0
O140 O 0.46588 0.52512 0.50487 0.0
O141 O 0.50892 0.5508 0.51857 0.0
O142 O 0.57787 0.53707 0.60645 0.0
O143 O 0.54241 0.50782 0.58321 0.0
O144 O 0.5337 0.56816 0.53188 0.0
O145 O 0.57327 0.58988 0.55613 0.0
C146 C 0.55822 0.58616 0.53316 0.0
O147 O 0.46862 0.54307 0.58588 0.0
O148 O 0.43597 0.50648 0.56899 0.0
C149 C 0.503 0.58406 0.61454 0.0
C150 C 0.4423 0.52798 0.58591 0.0
Zn151 Zn 0.06454 0.59414 0.01487 0.0
Zn152 Zn 0.97947 0.52759 0.07182 0.0
Zn153 Zn 0.02081 0.56269 0.04222 0.0
C154 C 0.0358 0.51566 0.09192 0.0
C155 C 0.97217 0.51159 0.01398 0.0
O156 O 0.00998 0.60929 0.04338 0.0
O157 O 0.04603 0.63178 0.01698 0.0
C158 C 0.09265 0.57024 0.06002 0.0
O159 O 0.04402 0.53577 0.07346 0.0
O160 O 0.00814 0.50821 0.09627 0.0
O161 O 0.96132 0.505 0.03802 0.0
O162 O 0.99437 0.53221 0.01165 0.0
O163 O 0.0989 0.5883 0.04019 0.0
O164 O 0.06532 0.55808 0.06306 0.0
O165 O 0.01828 0.54805 0.9971 0.0
O166 O 0.05991 0.57112 0.97883 0.0
C167 C 0.03636 0.55303 0.97618 0.0
O168 O 0.99241 0.59255 0.06366 0.0
O169 O 0.96019 0.56157 0.08736 0.0
C170 C 0.02216 0.63272 0.03082 0.0
C171 C 0.97023 0.58776 0.08084 0.0
H172 H 0.25691 0.22082 0.32115 0.0
H173 H 0.22731 0.20152 0.36135 0.0
H174 H 0.14552 0.21663 0.31667 0.0
H175 H 0.17494 0.23435 0.27552 0.0
H176 H 0.18857 0.22252 0.39698 0.0
H177 H 0.12846 0.1299 0.33317 0.0
H178 H 0.16005 0.15364 0.31965 0.0
H179 H 0.12323 0.16599 0.32025 0.0
C180 C 0.2326 0.21986 0.31969 0.0
C181 C 0.21834 0.22854 0.29471 0.0
C182 C 0.21569 0.20908 0.34289 0.0
C183 C 0.18409 0.20689 0.34186 0.0
C184 C 0.16982 0.21731 0.31771 0.0
H185 H 0.05755 0.11603 0.46247 0.0
H186 H 0.07935 0.15298 0.42849 0.0
C187 C 0.18674 0.22784 0.2943 0.0
C188 C 0.16642 0.19241 0.36558 0.0
H189 H 0.11565 0.13277 0.38125 0.0
C190 C 0.17247 0.20302 0.39348 0.0
C191 C 0.14544 0.16683 0.36113 0.0
C192 C 0.13905 0.1532 0.332 0.0
C193 C 0.15854 0.18851 0.41694 0.0
C194 C 0.13807 0.16276 0.41242 0.0
C195 C 0.13124 0.15268 0.38458 0.0
C196 C 0.12537 0.14436 0.43623 0.0
C197 C 0.166 0.20053 0.44646 0.0
C198 C 0.14407 0.12762 0.45212 0.0
C199 C 0.13165 0.10655 0.47143 0.0
C200 C 0.10039 0.10222 0.47551 0.0
C201 C 0.08181 0.11976 0.46043 0.0
C202 C 0.09419 0.14062 0.44085 0.0
H203 H 0.17705 0.22371 0.44611 0.0
H204 H 0.14531 0.19967 0.45933 0.0
H205 H 0.18161 0.18665 0.45711 0.0
H206 H 0.16811 0.12976 0.4485 0.0
H207 H 0.14632 0.09283 0.48238 0.0
H208 H 0.36756 0.81252 0.83883 0.0
H209 H 0.39049 0.84213 0.87867 0.0
H210 H 0.35267 0.91862 0.8468 0.0
H211 H 0.33027 0.88939 0.8062 0.0
H212 H 0.43205 0.89742 0.87395 0.0
H213 H 0.3275 0.9108 0.9328 0.0
H214 H 0.32949 0.8816 0.90691 0.0
H215 H 0.32704 0.91878 0.89542 0.0
C216 C 0.36433 0.83573 0.83999 0.0
C217 C 0.3472 0.84857 0.81904 0.0
C218 C 0.37728 0.85254 0.86297 0.0
C219 C 0.37307 0.88246 0.8658 0.0
C220 C 0.35583 0.89541 0.84518 0.0
H221 H 0.4322 0.02362 0.98426 0.0
H222 H 0.40614 0.99007 0.94876 0.0
C223 C 0.343 0.87865 0.82202 0.0
C224 C 0.38763 0.90027 0.88986 0.0
H225 H 0.3728 0.93708 0.95055 0.0
C226 C 0.41917 0.90601 0.8908 0.0
C227 C 0.37071 0.91144 0.9117 0.0
C228 C 0.3368 0.90527 0.91195 0.0
C229 C 0.43427 0.92333 0.91265 0.0
C230 C 0.41738 0.93446 0.93468 0.0
C231 C 0.38578 0.92844 0.9338 0.0
C232 C 0.43194 0.95373 0.95792 0.0
C233 C 0.46808 0.93041 0.91127 0.0
C234 C 0.45466 0.94429 0.9755 0.0
C235 C 0.46998 0.96368 0.99554 0.0
C236 C 0.46231 0.99258 0.99898 0.0
C237 C 0.43867 1.00149 0.9822 0.0
C238 C 0.42366 0.98228 0.96193 0.0
H239 H 0.47641 0.92712 0.88951 0.0
H240 H 0.47537 0.95362 0.91803 0.0
H241 H 0.47893 0.91546 0.9257 0.0
H242 H 0.46107 0.92216 0.97325 0.0
H243 H 0.48865 0.95642 0.00743 0.0
H244 H 0.74422 0.35973 0.7295 0.0
H245 H 0.71422 0.3899 0.69953 0.0
H246 H 0.63282 0.33651 0.72446 0.0
H247 H 0.66276 0.30676 0.75464 0.0
H248 H 0.67523 0.37113 0.65361 0.0
H249 H 0.61342 0.42064 0.7399 0.0
H250 H 0.64656 0.4024 0.7467 0.0
H251 H 0.6107 0.38094 0.74008 0.0
C252 C 0.71989 0.35483 0.72877 0.0
C253 C 0.70558 0.33136 0.74447 0.0
C254 C 0.70281 0.37187 0.71159 0.0
C255 C 0.67124 0.36567 0.71 0.0
C256 C 0.65705 0.34208 0.72576 0.0
H257 H 0.53837 0.45721 0.61524 0.0
H258 H 0.56195 0.41761 0.63923 0.0
C259 C 0.67412 0.3251 0.74293 0.0
C260 C 0.65322 0.38355 0.69151 0.0
H261 H 0.59909 0.43077 0.69278 0.0
C262 C 0.65854 0.38412 0.66217 0.0
C263 C 0.63125 0.40029 0.70266 0.0
C264 C 0.62523 0.40133 0.73407 0.0
C265 C 0.64271 0.40127 0.64378 0.0
C266 C 0.62132 0.41849 0.65506 0.0
C267 C 0.61539 0.41733 0.68421 0.0
C268 C 0.60723 0.44029 0.63762 0.0
C269 C 0.64906 0.40109 0.61242 0.0
C270 C 0.62494 0.46587 0.62861 0.0
C271 C 0.61158 0.48846 0.61527 0.0
C272 C 0.58025 0.48579 0.6104 0.0
C273 C 0.5626 0.45967 0.61847 0.0
C274 C 0.57599 0.43714 0.63221 0.0
H275 H 0.66033 0.38157 0.60613 0.0
H276 H 0.62789 0.40109 0.5997 0.0
H277 H 0.66412 0.42139 0.60713 0.0
H278 H 0.64902 0.46886 0.6329 0.0
H279 H 0.62571 0.50836 0.60928 0.0
H280 H 0.79636 0.74521 0.1984 0.0
H281 H 0.83389 0.72578 0.16838 0.0
H282 H 0.89702 0.73194 0.23917 0.0
H283 H 0.85894 0.75075 0.26949 0.0
H284 H 0.89243 0.74333 0.15156 0.0
H285 H 0.88653 0.64397 0.22053 0.0
H286 H 0.86069 0.67136 0.22386 0.0
H287 H 0.89848 0.67866 0.23802 0.0
C288 C 0.8185 0.74296 0.20732 0.0
C289 C 0.82496 0.74931 0.23608 0.0
C290 C 0.83993 0.73192 0.19019 0.0
C291 C 0.86813 0.72695 0.20161 0.0
C292 C 0.87524 0.73512 0.23003 0.0
H293 H 0.99733 0.64359 0.09463 0.0
H294 H 0.9759 0.68127 0.12317 0.0
C295 C 0.85364 0.74602 0.24727 0.0
C296 C 0.88839 0.71046 0.18441 0.0
H297 H 0.91592 0.64365 0.17995 0.0
C298 C 0.89796 0.7217 0.15789 0.0
C299 C 0.89529 0.68208 0.19259 0.0
C300 C 0.88457 0.6681 0.22016 0.0
C301 C 0.91342 0.70492 0.139 0.0
C302 C 0.91964 0.67633 0.14702 0.0
C303 C 0.91112 0.66563 0.17392 0.0
C304 C 0.93215 0.65573 0.12704 0.0
C305 C 0.92168 0.7172 0.11014 0.0
C306 C 0.91462 0.62913 0.11949 0.0
C307 C 0.92676 0.60773 0.1034 0.0
C308 C 0.95673 0.61243 0.09437 0.0
C309 C 0.97404 0.63955 0.10098 0.0
C310 C 0.96183 0.66106 0.11727 0.0
H311 H 0.91127 0.73773 0.10559 0.0
H312 H 0.94653 0.72242 0.10911 0.0
H313 H 0.91452 0.70054 0.09326 0.0
H314 H 0.89166 0.62459 0.12674 0.0
H315 H 0.91284 0.5871 0.0986 0.0
H316 H 0.33145 0.24637 0.2137 0.0
H317 H 0.37083 0.21759 0.19775 0.0
H318 H 0.32132 0.13809 0.22996 0.0
H319 H 0.28076 0.16643 0.24434 0.0
H320 H 0.40821 0.18396 0.22385 0.0
H321 H 0.33247 0.11372 0.14924 0.0
H322 H 0.3209 0.14584 0.16667 0.0
H323 H 0.32106 0.11162 0.18558 0.0
C324 C 0.32864 0.2227 0.21711 0.0
C325 C 0.30252 0.20875 0.22989 0.0
C326 C 0.35143 0.20629 0.20825 0.0
C327 C 0.34885 0.17553 0.2121 0.0
C328 C 0.32353 0.16167 0.22609 0.0
H329 H 0.47033 0.05485 0.14079 0.0
H330 H 0.43784 0.07549 0.17564 0.0
C331 C 0.3005 0.17804 0.23468 0.0
C332 C 0.37226 0.15817 0.20049 0.0
H333 H 0.38312 0.10452 0.15172 0.0
C334 C 0.40265 0.1664 0.20829 0.0
C335 C 0.3651 0.1352 0.18012 0.0
C336 C 0.33318 0.12619 0.16967 0.0
C337 C 0.42598 0.15291 0.1957 0.0
C338 C 0.41877 0.13062 0.17488 0.0
C339 C 0.38846 0.12147 0.16793 0.0
C340 C 0.4422 0.11923 0.15733 0.0
C341 C 0.45828 0.16301 0.20411 0.0
C342 C 0.45577 0.13715 0.13592 0.0
C343 C 0.47389 0.12538 0.11592 0.0
C344 C 0.47912 0.09554 0.11713 0.0
C345 C 0.46697 0.07802 0.13958 0.0
C346 C 0.44834 0.08972 0.15939 0.0
H347 H 0.45997 0.17601 0.22426 0.0
H348 H 0.4712 0.14371 0.20654 0.0
H349 H 0.46895 0.17718 0.1871 0.0
H350 H 0.45105 0.15988 0.13381 0.0
H351 H 0.48293 0.13937 0.09882 0.0
H352 H 0.26766 0.89868 0.73668 0.0
H353 H 0.23861 0.93426 0.7125 0.0
H354 H 0.16035 0.86888 0.71015 0.0
H355 H 0.18906 0.83397 0.7349 0.0
H356 H 0.21652 0.92771 0.66073 0.0
H357 H 0.12081 0.94019 0.73051 0.0
H358 H 0.15374 0.92411 0.74277 0.0
H359 H 0.1237 0.90182 0.72385 0.0
C360 C 0.24399 0.89243 0.73173 0.0
C361 C 0.23032 0.86392 0.73782 0.0
C362 C 0.22743 0.91264 0.71787 0.0
C363 C 0.19704 0.90451 0.70988 0.0
C364 C 0.18336 0.87614 0.71682 0.0
H365 H 0.10378 0.9479 0.56014 0.0
H366 H 0.13164 0.92751 0.59899 0.0
C367 C 0.19982 0.8561 0.73078 0.0
C368 C 0.18078 0.92387 0.69114 0.0
H369 H 0.11267 0.94986 0.68039 0.0
C370 C 0.19406 0.93303 0.66537 0.0
C371 C 0.15154 0.93123 0.69715 0.0
C372 C 0.1368 0.92408 0.72524 0.0
C373 C 0.17837 0.94779 0.64488 0.0
C374 C 0.14829 0.95298 0.64995 0.0
C375 C 0.13555 0.94543 0.67633 0.0
C376 C 0.12943 0.96474 0.62743 0.0
C377 C 0.19402 0.95726 0.61772 0.0
C378 C 0.11795 0.99198 0.63089 0.0
C379 C 0.10195 0.00371 0.60862 0.0
C380 C 0.09675 0.98811 0.58277 0.0
C381 C 0.10751 0.96046 0.57976 0.0
C382 C 0.1235 0.94883 0.60191 0.0
H383 H 0.21894 0.95984 0.62058 0.0
H384 H 0.18794 0.94009 0.60109 0.0
H385 H 0.18706 0.97852 0.61003 0.0
H386 H 0.12216 0.00456 0.65047 0.0
H387 H 0.09442 0.02532 0.61134 0.0
H388 H 0.78341 0.37749 0.83046 0.0
H389 H 0.82121 0.41645 0.84958 0.0
H390 H 0.8668 0.35031 0.89222 0.0
H391 H 0.83004 0.31149 0.87249 0.0
H392 H 0.83206 0.43028 0.90471 0.0
H393 H 0.9373 0.40039 0.85877 0.0
H394 H 0.90058 0.3852 0.84535 0.0
H395 H 0.91729 0.36906 0.87574 0.0
C396 C 0.80188 0.37126 0.84341 0.0
C397 C 0.80358 0.34138 0.85009 0.0
C398 C 0.8234 0.39354 0.8544 0.0
C399 C 0.84718 0.38632 0.87199 0.0
C400 C 0.84917 0.35647 0.87816 0.0
H401 H 0.9553 0.45264 0.00921 0.0
H402 H 0.92742 0.42597 0.96981 0.0
C403 C 0.82779 0.33428 0.86721 0.0
C404 C 0.86833 0.4098 0.8862 0.0
H405 H 0.94289 0.42859 0.90311 0.0
C406 C 0.85632 0.43041 0.90378 0.0
C407 C 0.90005 0.41015 0.88491 0.0
C408 C 0.91453 0.39019 0.86491 0.0
C409 C 0.87502 0.44985 0.92155 0.0
C410 C 0.90648 0.44864 0.92173 0.0
C411 C 0.9187 0.42929 0.90303 0.0
C412 C 0.92634 0.4647 0.94362 0.0
C413 C 0.861 0.47041 0.94131 0.0
C414 C 0.93539 0.49522 0.94163 0.0
C415 C 0.95148 0.51047 0.96412 0.0
C416 C 0.95866 0.49537 0.98877 0.0
C417 C 0.95018 0.46473 0.99033 0.0
C418 C 0.93436 0.4495 0.96786 0.0
H419 H 0.83606 0.46832 0.93894 0.0
H420 H 0.86694 0.46563 0.96367 0.0
H421 H 0.87017 0.49366 0.93701 0.0
H422 H 0.92918 0.50734 0.92313 0.0
H423 H 0.95694 0.53423 0.96289 0.0
H424 H 0.74631 0.74046 0.39701 0.0
H425 H 0.70632 0.71259 0.42382 0.0
H426 H 0.64591 0.71249 0.35149 0.0
H427 H 0.68553 0.74127 0.32461 0.0
H428 H 0.64293 0.72799 0.43364 0.0
H429 H 0.65046 0.62239 0.37472 0.0
H430 H 0.6812 0.65197 0.37564 0.0
H431 H 0.64796 0.65569 0.35475 0.0
C432 C 0.7244 0.73507 0.38688 0.0
C433 C 0.71924 0.74316 0.35857 0.0
C434 C 0.70162 0.71895 0.40221 0.0
C435 C 0.67329 0.71034 0.38954 0.0
C436 C 0.66776 0.71872 0.36152 0.0
H437 H 0.52849 0.61763 0.49438 0.0
H438 H 0.55131 0.64781 0.45522 0.0
C439 C 0.69049 0.73503 0.34618 0.0
C440 C 0.65001 0.69193 0.40569 0.0
H441 H 0.61869 0.62042 0.4141 0.0
C442 C 0.63712 0.70459 0.42909 0.0
C443 C 0.64265 0.66142 0.39966 0.0
C444 C 0.65627 0.64682 0.37493 0.0
C445 C 0.61785 0.68725 0.4473 0.0
C446 C 0.61146 0.65653 0.44193 0.0
C447 C 0.62345 0.64406 0.41792 0.0
C448 C 0.5964 0.6365 0.46333 0.0
C449 C 0.60577 0.70147 0.47308 0.0
C450 C 0.61411 0.61988 0.48031 0.0
C451 C 0.60126 0.60292 0.50246 0.0
C452 C 0.57034 0.60188 0.50782 0.0
C453 C 0.55232 0.61783 0.49035 0.0
C454 C 0.56531 0.6351 0.46817 0.0
H455 H 0.61396 0.72544 0.4749 0.0
H456 H 0.58077 0.69886 0.47191 0.0
H457 H 0.61256 0.69023 0.49263 0.0
H458 H 0.63814 0.62077 0.47695 0.0
H459 H 0.61562 0.59089 0.51574 0.0
H460 H 0.15826 0.30127 0.19987 0.0
H461 H 0.12801 0.33998 0.18355 0.0
H462 H 0.20714 0.40414 0.18816 0.0
H463 H 0.23708 0.36562 0.20503 0.0
H464 H 0.15699 0.42783 0.20602 0.0
H465 H 0.134 0.36991 0.10254 0.0
H466 H 0.12145 0.34778 0.1324 0.0
H467 H 0.16107 0.35905 0.1281 0.0
C468 C 0.16889 0.32382 0.19803 0.0
C469 C 0.19979 0.33071 0.20385 0.0
C470 C 0.15175 0.34583 0.1884 0.0
C471 C 0.16544 0.37488 0.18402 0.0
C472 C 0.19608 0.38193 0.19124 0.0
H473 H 0.08966 0.50132 0.07236 0.0
H474 H 0.12392 0.47021 0.09568 0.0
C475 C 0.21314 0.35998 0.20098 0.0
C476 C 0.14835 0.39756 0.17065 0.0
H477 H 0.10819 0.41181 0.11086 0.0
C478 C 0.14634 0.42433 0.18521 0.0
C479 C 0.13511 0.3934 0.14314 0.0
C480 C 0.13822 0.36613 0.12547 0.0
C481 C 0.13075 0.44661 0.17336 0.0
C482 C 0.11634 0.44179 0.14645 0.0
C483 C 0.11902 0.41539 0.1316 0.0
C484 C 0.09748 0.46331 0.13366 0.0
C485 C 0.13017 0.47527 0.18954 0.0
C486 C 0.07138 0.47 0.14731 0.0
C487 C 0.05195 0.48791 0.13412 0.0
C488 C 0.05823 0.49959 0.10701 0.0
C489 C 0.0846 0.49325 0.09352 0.0
C490 C 0.10406 0.47529 0.10673 0.0
H491 H 0.14889 0.47884 0.20548 0.0
H492 H 0.13177 0.49443 0.17491 0.0
H493 H 0.10861 0.4746 0.201 0.0
H494 H 0.06545 0.46052 0.16778 0.0
H495 H 0.03162 0.49213 0.14489 0.0
H496 H 0.73544 0.21131 0.84115 0.0
H497 H 0.71134 0.17432 0.87365 0.0
H498 H 0.71 0.24164 0.93838 0.0
H499 H 0.73287 0.27891 0.9058 0.0
H500 H 0.72683 0.15543 0.92918 0.0
H501 H 0.62109 0.20852 0.92765 0.0
H502 H 0.65066 0.21757 0.90246 0.0
H503 H 0.6539 0.23322 0.93772 0.0
C504 C 0.72991 0.21828 0.86227 0.0
C505 C 0.7358 0.2482 0.87071 0.0
C506 C 0.71642 0.19704 0.88089 0.0
C507 C 0.70851 0.20533 0.90826 0.0
C508 C 0.71555 0.23486 0.91719 0.0
H509 H 0.60013 0.12739 0.04245 0.0
H510 H 0.6391 0.15637 0.01523 0.0
C511 C 0.7289 0.25611 0.89859 0.0
C512 C 0.69131 0.1836 0.92696 0.0
H513 H 0.62438 0.17037 0.96098 0.0
C514 C 0.70442 0.1586 0.93616 0.0
C515 C 0.66192 0.18759 0.93568 0.0
C516 C 0.64589 0.213 0.92518 0.0
C517 C 0.6892 0.13801 0.95469 0.0
C518 C 0.66009 0.14248 0.96393 0.0
C519 C 0.64688 0.16718 0.95422 0.0
C520 C 0.64239 0.12217 0.98362 0.0
C521 C 0.70451 0.11192 0.9644 0.0
C522 C 0.63228 0.09278 0.97562 0.0
C523 C 0.61015 0.07605 0.99145 0.0
C524 C 0.59796 0.08863 0.0153 0.0
C525 C 0.60952 0.11721 0.02428 0.0
C526 C 0.63166 0.13377 0.00869 0.0
H527 H 0.72941 0.11633 0.96271 0.0
H528 H 0.69887 0.10599 0.98667 0.0
H529 H 0.6967 0.09262 0.95056 0.0
H530 H 0.6399 0.0835 0.95615 0.0
H531 H 0.60112 0.05417 0.98397 0.0
H532 H 0.85115 0.80324 0.33604 0.0
H533 H 0.88612 0.8408 0.36072 0.0
H534 H 0.81126 0.87687 0.39915 0.0
H535 H 0.77611 0.84001 0.3739 0.0
H536 H 0.85509 0.92048 0.37944 0.0
H537 H 0.90618 0.83847 0.4458 0.0
H538 H 0.90729 0.831 0.40836 0.0
H539 H 0.87156 0.82927 0.42568 0.0
C540 C 0.8421 0.81936 0.34949 0.0
C541 C 0.81083 0.8184 0.35322 0.0
C542 C 0.86213 0.84063 0.36381 0.0
C543 C 0.85131 0.86128 0.3822 0.0
C544 C 0.82011 0.86099 0.38527 0.0
H545 H 0.95281 0.98333 0.50378 0.0
H546 H 0.91154 0.95242 0.47901 0.0
C547 C 0.80008 0.83975 0.37098 0.0
C548 C 0.87254 0.8829 0.39854 0.0
H549 H 0.93088 0.8878 0.44687 0.0
C550 C 0.87151 0.91335 0.39434 0.0
C551 C 0.89367 0.87358 0.4183 0.0
C552 C 0.89464 0.84132 0.42508 0.0
C553 C 0.89182 0.93463 0.40863 0.0
C554 C 0.91361 0.92516 0.42743 0.0
C555 C 0.91417 0.89486 0.43224 0.0
C556 C 0.93711 0.94627 0.44129 0.0
C557 C 0.89045 0.96709 0.40329 0.0
C558 C 0.96487 0.95316 0.42807 0.0
C559 C 0.98831 0.97089 0.44202 0.0
C560 C 0.98436 0.98212 0.46942 0.0
C561 C 0.95629 0.97558 0.48243 0.0
C562 C 0.93279 0.95779 0.46843 0.0
H563 H 0.87088 0.97101 0.38953 0.0
H564 H 0.88902 0.97906 0.42378 0.0
H565 H 0.9115 0.97662 0.39294 0.0
H566 H 0.9686 0.94427 0.40718 0.0
H567 H 0.0097 0.9755 0.43149 0.0
H568 H 0.31555 0.73251 0.74611 0.0
H569 H 0.34255 0.69555 0.72286 0.0
H570 H 0.42339 0.75742 0.72292 0.0
H571 H 0.39624 0.79495 0.74527 0.0
H572 H 0.41119 0.73007 0.67108 0.0
H573 H 0.4048 0.64661 0.75675 0.0
H574 H 0.36885 0.65721 0.746 0.0
H575 H 0.39655 0.68409 0.76254 0.0
C576 C 0.33906 0.73833 0.74112 0.0
C577 C 0.3537 0.76677 0.74755 0.0
C578 C 0.35457 0.71701 0.72813 0.0
C579 C 0.38512 0.72354 0.72152 0.0
C580 C 0.39987 0.75182 0.72802 0.0
H581 H 0.51296 0.60555 0.66846 0.0
H582 H 0.48289 0.63821 0.69452 0.0
C583 C 0.38437 0.77319 0.74098 0.0
C584 C 0.40136 0.70135 0.70669 0.0
H585 H 0.4225 0.63172 0.71213 0.0
C586 C 0.41371 0.70859 0.68008 0.0
C587 C 0.40485 0.67342 0.71857 0.0
C588 C 0.39333 0.66489 0.74765 0.0
C589 C 0.42924 0.6886 0.6649 0.0
C590 C 0.43204 0.66037 0.67642 0.0
C591 C 0.41997 0.65322 0.70317 0.0
C592 C 0.44863 0.63854 0.66152 0.0
C593 C 0.44309 0.69815 0.63694 0.0
C594 C 0.43899 0.62734 0.6346 0.0
C595 C 0.45624 0.60882 0.61967 0.0
C596 C 0.48307 0.60074 0.63157 0.0
C597 C 0.49221 0.61126 0.65887 0.0
C598 C 0.47504 0.62984 0.67378 0.0
H599 H 0.44514 0.72258 0.63443 0.0
H600 H 0.4658 0.69076 0.63494 0.0
H601 H 0.42859 0.68798 0.61928 0.0
H602 H 0.41856 0.63356 0.62481 0.0
H603 H 0.44943 0.60201 0.59825 0.0
H604 H 0.96797 0.96883 0.84228 0.0
H605 H 0.99393 0.97922 0.79765 0.0
H606 H 0.98796 0.88568 0.7793 0.0
H607 H 0.9609 0.8751 0.82368 0.0
H608 H 0.04647 0.96264 0.77374 0.0
H609 H 0.94403 0.91741 0.71135 0.0
H610 H 0.94303 0.92428 0.74907 0.0
H611 H 0.95922 0.89265 0.73584 0.0
C612 C 0.97221 0.95042 0.82881 0.0
C613 C 0.96187 0.92116 0.83633 0.0
C614 C 0.9873 0.95639 0.80339 0.0
C615 C 0.99243 0.93328 0.78486 0.0
C616 C 0.98376 0.9039 0.79303 0.0
H617 H 0.03197 0.97411 0.60558 0.0
H618 H 0.03175 0.94464 0.64926 0.0
C619 C 0.96856 0.89788 0.81853 0.0
C620 C 0.00485 0.94055 0.75632 0.0
H621 H 0.98394 0.94196 0.68626 0.0
C622 C 0.03304 0.95765 0.75453 0.0
C623 C 0.98743 0.93389 0.73118 0.0
C624 C 0.95666 0.91623 0.73177 0.0
C625 C 0.04352 0.96956 0.72857 0.0
C626 C 0.02517 0.96455 0.70384 0.0
C627 C 0.99801 0.94574 0.70524 0.0
C628 C 0.03105 0.98219 0.67766 0.0
C629 C 0.07367 0.9883 0.72807 0.0
C630 C 0.03118 0.01303 0.67913 0.0
C631 C 0.0312 0.02971 0.65439 0.0
C632 C 0.0312 0.01598 0.6276 0.0
C633 C 0.03241 0.98527 0.62601 0.0
C634 C 0.0322 0.96845 0.6509 0.0
H635 H 0.0891 0.98152 0.74492 0.0
H636 H 0.08454 0.98688 0.70715 0.0
H637 H 0.07039 0.01175 0.73218 0.0
H638 H 0.02952 0.02408 0.6994 0.0
H639 H 0.03006 0.05332 0.6562 0.0
H640 H 0.67788 0.16662 0.34133 0.0
H641 H 0.65025 0.15639 0.29638 0.0
H642 H 0.56953 0.12746 0.34236 0.0
H643 H 0.59701 0.13867 0.38738 0.0
H644 H 0.62889 0.10239 0.28154 0.0
H645 H 0.53412 0.17067 0.27788 0.0
H646 H 0.56565 0.17827 0.30241 0.0
H647 H 0.53529 0.15002 0.31012 0.0
C648 C 0.65402 0.15889 0.34177 0.0
C649 C 0.63955 0.15338 0.36776 0.0
C650 C 0.63823 0.15305 0.3161 0.0
C651 C 0.6077 0.14128 0.31585 0.0
C652 C 0.59282 0.13717 0.34186 0.0
H653 H 0.53089 0.01564 0.19155 0.0
H654 H 0.5434 0.04436 0.23504 0.0
C655 C 0.60857 0.14344 0.36761 0.0
C656 C 0.59309 0.12931 0.28885 0.0
H657 H 0.53049 0.12887 0.24575 0.0
C658 C 0.60756 0.10855 0.27363 0.0
C659 C 0.56524 0.13728 0.27836 0.0
C660 C 0.54931 0.16051 0.29289 0.0
C661 C 0.59481 0.09512 0.24872 0.0
C662 C 0.56637 0.10201 0.23893 0.0
C663 C 0.55211 0.12334 0.25355 0.0
C664 C 0.55143 0.08645 0.21379 0.0
C665 C 0.61192 0.07344 0.23308 0.0
C666 C 0.54998 0.10091 0.18763 0.0
C667 C 0.54258 0.0845 0.16264 0.0
C668 C 0.53671 0.05346 0.16359 0.0
C669 C 0.5356 0.0395 0.19014 0.0
C670 C 0.54271 0.05587 0.21501 0.0
H671 H 0.63616 0.07589 0.23941 0.0
H672 H 0.60216 0.05053 0.23806 0.0
H673 H 0.61012 0.07642 0.20975 0.0
H674 H 0.55663 0.12453 0.18629 0.0
H675 H 0.54377 0.09583 0.14247 0.0
H676 H 0.42302 0.59378 0.24349 0.0
H677 H 0.43365 0.57971 0.29279 0.0
H678 H 0.50514 0.65205 0.29926 0.0
H679 H 0.49436 0.66615 0.25027 0.0
H680 H 0.48935 0.56488 0.31748 0.0
H681 H 0.45106 0.66479 0.36753 0.0
H682 H 0.44149 0.65384 0.33128 0.0
H683 H 0.47841 0.67192 0.34013 0.0
C684 C 0.4409 0.60658 0.2556 0.0
C685 C 0.45782 0.63106 0.24353 0.0
C686 C 0.44702 0.59856 0.28359 0.0
C687 C 0.46995 0.61508 0.29972 0.0
C688 C 0.48706 0.63932 0.28734 0.0
H689 H 0.53678 0.55775 0.46553 0.0
H690 H 0.53615 0.5775 0.41697 0.0
C691 C 0.48097 0.64729 0.25943 0.0
C692 C 0.47594 0.60709 0.32955 0.0
H693 H 0.4729 0.63183 0.39796 0.0
C694 C 0.4859 0.57953 0.33511 0.0
C695 C 0.47135 0.62629 0.35243 0.0
C696 C 0.45976 0.65578 0.3477 0.0
C697 C 0.49109 0.57048 0.36305 0.0
C698 C 0.48641 0.58966 0.38592 0.0
C699 C 0.47681 0.61737 0.38032 0.0
C700 C 0.48803 0.58004 0.41582 0.0
C701 C 0.50047 0.54009 0.368 0.0
C702 C 0.46145 0.57584 0.43139 0.0
C703 C 0.46185 0.56492 0.45894 0.0
C704 C 0.48892 0.55832 0.47162 0.0
C705 C 0.51575 0.56319 0.45635 0.0
C706 C 0.51533 0.57412 0.42859 0.0
H707 H 0.49866 0.52633 0.34832 0.0
H708 H 0.52426 0.54231 0.37568 0.0
H709 H 0.48637 0.52835 0.38455 0.0
H710 H 0.44017 0.58028 0.42191 0.0
H711 H 0.44084 0.56126 0.47026 0.0
H712 H 0.10393 0.49331 0.72677 0.0
H713 H 0.09421 0.50509 0.77664 0.0
H714 H 1.00063 0.47079 0.76437 0.0
H715 H 0.01047 0.4588 0.71471 0.0
H716 H 0.05362 0.54202 0.79818 0.0
H717 H 0.02631 0.42625 0.83467 0.0
H718 H 0.04467 0.43525 0.80146 0.0
H719 H 0.00471 0.43603 0.80436 0.0
C720 C 0.08136 0.48839 0.73487 0.0
C721 C 0.05789 0.47524 0.71729 0.0
C722 C 0.07581 0.49505 0.76323 0.0
C723 C 0.04678 0.48839 0.77429 0.0
C724 C 0.02328 0.47557 0.75643 0.0
H725 H 0.99528 0.56372 0.93555 0.0
H726 H 0.99309 0.54545 0.88622 0.0
C727 C 0.02884 0.46895 0.72812 0.0
C728 C 0.04103 0.49543 0.80435 0.0
H729 H 0.01945 0.46429 0.86773 0.0
C730 C 0.04607 0.52506 0.81339 0.0
C731 C 0.03134 0.47318 0.82413 0.0
C732 C 0.02666 0.44085 0.81583 0.0
C733 C 0.04185 0.5331 0.84174 0.0
C734 C 0.03185 0.51091 0.86148 0.0
C735 C 0.02671 0.48126 0.85244 0.0
C736 C 0.02911 0.51794 0.89203 0.0
C737 C 0.04906 0.56517 0.85051 0.0
C738 C 0.04892 0.50729 0.91187 0.0
C739 C 0.04977 0.51729 0.94002 0.0
C740 C 0.03055 0.53774 0.94878 0.0
C741 C 0.00969 0.5473 0.92934 0.0
C742 C 0.00874 0.53721 0.90116 0.0
H743 H 0.06228 0.57832 0.83421 0.0
H744 H 0.02774 0.575 0.85356 0.0
H745 H 0.06201 0.56717 0.87091 0.0
H746 H 0.06485 0.49248 0.90523 0.0
H747 H 0.06641 0.51014 0.95463 0.0
H748 H 0.84991 0.00421 0.93045 0.0
H749 H 0.80892 0.01933 0.95921 0.0
H750 H 0.77607 0.92756 0.97258 0.0
H751 H 0.81721 0.91244 0.9437 0.0
H752 H 0.74636 0.00368 0.94601 0.0
H753 H 0.77755 0.96572 0.05315 0.0
H754 H 0.8043 0.97124 0.02478 0.0
H755 H 0.77769 0.93845 0.02535 0.0
C756 C 0.83426 0.98733 0.94008 0.0
C757 C 0.8367 0.95725 0.93533 0.0
C758 C 0.81083 0.99597 0.95633 0.0
C759 C 0.78961 0.9746 0.96822 0.0
C760 C 0.7925 0.94441 0.96399 0.0
H761 H 0.62332 0.96059 0.05367 0.0
H762 H 0.67084 0.95593 0.03052 0.0
C763 C 0.81592 0.93577 0.94756 0.0
C764 C 0.76339 0.98388 0.98345 0.0
H765 H 0.72805 0.97944 0.04721 0.0
C766 C 0.74247 0.99875 0.96824 0.0
C767 C 0.75849 0.97746 0.01242 0.0
C768 C 0.78079 0.96257 0.03003 0.0
C769 C 0.71602 0.00611 0.98091 0.0
C770 C 0.71071 0.99897 0.00971 0.0
C771 C 0.73217 0.98499 0.02514 0.0
C772 C 0.68172 1.00287 0.02345 0.0
C773 C 0.69319 0.02 0.96303 0.0
C774 C 0.67192 0.03094 0.02728 0.0
C775 C 0.64441 0.03366 0.04053 0.0
C776 C 0.62653 0.0084 0.05021 0.0
C777 C 0.63663 0.98051 0.04649 0.0
C778 C 0.66381 0.97778 0.03325 0.0
H779 H 0.69883 0.02039 0.94014 0.0
H780 H 0.67038 0.00778 0.96551 0.0
H781 H 0.69228 0.04309 0.97031 0.0
H782 H 0.68571 0.05071 0.02047 0.0
H783 H 0.63762 0.05544 0.04398 0.0
H784 H 0.71401 0.10213 0.46632 0.0
H785 H 0.75928 0.07745 0.47221 0.0
H786 H 0.78656 0.10308 0.38764 0.0
H787 H 0.74202 0.12935 0.38213 0.0
H788 H 0.78315 0.03287 0.44445 0.0
H789 H 0.85808 0.139 0.43474 0.0
H790 H 0.81782 0.13784 0.4379 0.0
H791 H 0.83381 0.12869 0.40466 0.0
C792 C 0.72971 0.10277 0.449 0.0
C793 C 0.72464 0.11834 0.42399 0.0
C794 C 0.75544 0.0883 0.45228 0.0
C795 C 0.77665 0.08887 0.43059 0.0
C796 C 0.77085 0.10289 0.40492 0.0
H797 H 0.96049 0.04559 0.46629 0.0
H798 H 0.91489 0.04791 0.43679 0.0
C799 C 0.74518 0.11764 0.40169 0.0
C800 C 0.80552 0.07643 0.43599 0.0
H801 H 0.88085 0.09704 0.44691 0.0
C802 C 0.80459 0.04678 0.44453 0.0
C803 C 0.83357 0.09453 0.43599 0.0
C804 C 0.83604 0.12683 0.42806 0.0
C805 C 0.83065 0.03524 0.45441 0.0
C806 C 0.85825 0.05384 0.45589 0.0
C807 C 0.85962 0.08281 0.44558 0.0
C808 C 0.88462 0.04573 0.4723 0.0
C809 C 0.8283 0.00358 0.4642 0.0
C810 C 0.88254 0.04302 0.50188 0.0
C811 C 0.90844 0.04205 0.51866 0.0
C812 C 0.93687 0.04346 0.50617 0.0
C813 C 0.93878 0.04416 0.4764 0.0
C814 C 0.91281 0.04554 0.45957 0.0
H815 H 0.80894 0.98989 0.45373 0.0
H816 H 0.84929 0.99358 0.4598 0.0
H817 H 0.82474 0.00299 0.48747 0.0
H818 H 0.86112 0.04366 0.51218 0.0
H819 H 0.90638 0.04159 0.54156 0.0
H820 H 0.33656 0.62301 0.20424 0.0
H821 H 0.28597 0.59486 0.20287 0.0
H822 H 0.29427 0.58027 0.11284 0.0
H823 H 0.34434 0.60812 0.11423 0.0
H824 H 0.24026 0.61419 0.17118 0.0
H825 H 0.25348 0.50039 0.1375 0.0
H826 H 0.28414 0.52488 0.15333 0.0
H827 H 0.27576 0.52642 0.11581 0.0
C828 C 0.32782 0.61291 0.18443 0.0
C829 C 0.34414 0.6177 0.15931 0.0
C830 C 0.299 0.59691 0.18364 0.0
C831 C 0.28649 0.58505 0.15784 0.0
C832 C 0.30366 0.5885 0.13313 0.0
H833 H 0.15025 0.56586 0.04596 0.0
H834 H 0.19313 0.56184 0.07778 0.0
C835 C 0.33216 0.60466 0.13386 0.0
C836 C 0.25408 0.57354 0.15513 0.0
H837 H 0.20769 0.52011 0.11967 0.0
C838 C 0.23283 0.59313 0.16088 0.0
C839 C 0.24438 0.54597 0.14195 0.0
C840 C 0.26568 0.52311 0.1371 0.0
C841 C 0.20297 0.58747 0.15069 0.0
C842 C 0.19415 0.56132 0.13471 0.0
C843 C 0.21455 0.54028 0.13171 0.0
C844 C 0.16687 0.55871 0.11608 0.0
C845 C 0.18199 0.61086 0.15464 0.0
C846 C 0.13765 0.55746 0.12698 0.0
C847 C 0.11298 0.56002 0.10869 0.0
C848 C 0.11729 0.56357 0.07934 0.0
C849 C 0.14632 0.56328 0.0685 0.0
C850 C 0.1708 0.56075 0.08665 0.0
H851 H 0.19321 0.63095 0.16568 0.0
H852 H 0.1732 0.61747 0.13372 0.0
H853 H 0.16248 0.60174 0.16741 0.0
H854 H 0.13411 0.5556 0.14962 0.0
H855 H 0.09083 0.56043 0.11757 0.0
H856 H 0.1632 0.51168 0.63992 0.0
H857 H 0.21433 0.53811 0.64015 0.0
H858 H 0.25084 0.45716 0.66106 0.0
H859 H 0.19988 0.43067 0.66117 0.0
H860 H 0.27975 0.51448 0.68979 0.0
H861 H 0.26856 0.51627 0.57166 0.0
H862 H 0.23957 0.53006 0.5923 0.0
H863 H 0.24394 0.49137 0.59291 0.0
C864 C 0.18207 0.4997 0.6453 0.0
C865 C 0.1776 0.46903 0.6502 0.0
C866 C 0.21123 0.5148 0.64533 0.0
C867 C 0.23629 0.4995 0.65042 0.0
C868 C 0.23175 0.46933 0.65711 0.0
H869 H 0.42181 0.49777 0.63203 0.0
H870 H 0.37232 0.49891 0.65292 0.0
C871 C 0.20268 0.4542 0.65693 0.0
C872 C 0.26726 0.51369 0.64541 0.0
H873 H 0.31588 0.53177 0.59164 0.0
C874 C 0.28766 0.51878 0.6684 0.0
C875 C 0.27738 0.51943 0.61751 0.0
C876 C 0.2564 0.51394 0.59205 0.0
C877 C 0.31827 0.52864 0.66408 0.0
C878 C 0.32878 0.53263 0.636 0.0
C879 C 0.30794 0.52887 0.61319 0.0
C880 C 0.3614 0.537 0.62915 0.0
C881 C 0.339 0.53437 0.68962 0.0
C882 C 0.3722 0.55829 0.60912 0.0
C883 C 0.4003 0.55719 0.59677 0.0
C884 C 0.4184 0.53534 0.6048 0.0
C885 C 0.40862 0.51544 0.62624 0.0
C886 C 0.38034 0.51619 0.63828 0.0
H887 H 0.32668 0.54202 0.70806 0.0
H888 H 0.34777 0.51343 0.69578 0.0
H889 H 0.35837 0.55119 0.68516 0.0
H890 H 0.35792 0.57432 0.60145 0.0
H891 H 0.40676 0.57187 0.57935 0.0
H892 H 0.91708 0.88082 0.96098 0.0
H893 H 0.92429 0.83866 0.99126 0.0
H894 H 0.9517 0.79084 0.91857 0.0
H895 H 0.94223 0.83161 0.88796 0.0
H896 H 0.91784 0.75487 0.95024 0.0
H897 H 1.00331 0.81873 0.02064 0.0
H898 H 0.96701 0.83194 0.0205 0.0
H899 H 0.98899 0.83416 0.98874 0.0
C900 C 0.92419 0.86118 0.95131 0.0
C901 C 0.92952 0.86002 0.92192 0.0
C902 C 0.92878 0.83719 0.96881 0.0
C903 C 0.93936 0.81174 0.95743 0.0
C904 C 0.94382 0.81025 0.92804 0.0
H905 H 0.04862 0.6878 0.01856 0.0
H906 H 0.02409 0.73099 0.00621 0.0
C907 C 0.93877 0.8339 0.91053 0.0
C908 C 0.94629 0.78658 0.97569 0.0
H909 H 0.99202 0.76811 0.03008 0.0
C910 C 0.9339 0.75778 0.96785 0.0
C911 C 0.96727 0.79032 0.99873 0.0
C912 C 0.98264 0.82039 0.00756 0.0
C913 C 0.9431 0.73266 0.98115 0.0
C914 C 0.96447 0.73635 1.00389 0.0
C915 C 0.97554 0.76521 0.01281 0.0
C916 C 0.97901 0.711 0.01567 0.0
C917 C 0.93131 0.70249 0.96934 0.0
C918 C 0.96215 0.68549 0.02634 0.0
C919 C 0.97621 0.66024 0.03286 0.0
C920 C 0.00748 0.66039 0.02962 0.0
C921 C 0.02447 0.68677 0.02116 0.0
C922 C 0.01043 0.71165 0.01417 0.0
H923 H 0.92028 0.70388 0.94814 0.0
H924 H 0.94979 0.6883 0.96731 0.0
H925 H 0.9143 0.69153 0.98391 0.0
H926 H 0.93799 0.68465 0.02853 0.0
H927 H 0.96238 0.64023 0.03891 0.0
H928 H 0.44368 0.7097 0.1048 0.0
H929 H 0.4462 0.75748 0.0812 0.0
H930 H 0.35478 0.76573 0.10515 0.0
H931 H 0.35261 0.71869 0.13026 0.0
H932 H 0.41382 0.78226 0.03858 0.0
H933 H 0.401 0.83781 0.14291 0.0
H934 H 0.40713 0.79943 0.14033 0.0
H935 H 0.37072 0.81047 0.13183 0.0
C936 C 0.42409 0.72166 0.10514 0.0
C937 C 0.39818 0.71059 0.11998 0.0
C938 C 0.42544 0.74883 0.09131 0.0
C939 C 0.40087 0.76544 0.09187 0.0
C940 C 0.37421 0.75355 0.10493 0.0
H941 H 0.44184 0.95651 0.06645 0.0
H942 H 0.40746 0.91009 0.06263 0.0
C943 C 0.37293 0.72647 0.11903 0.0
C944 C 0.40463 0.7962 0.08108 0.0
H945 H 0.41437 0.86795 0.10438 0.0
C946 C 0.41332 0.80106 0.0528 0.0
C947 C 0.4037 0.82077 0.09956 0.0
C948 C 0.39534 0.81704 0.13039 0.0
C949 C 0.42308 0.82965 0.04311 0.0
C950 C 0.4244 0.85385 0.06224 0.0
C951 C 0.41321 0.84932 0.08972 0.0
C952 C 0.44308 0.88226 0.05675 0.0
C953 C 0.43333 0.83357 0.01289 0.0
C954 C 0.47426 0.88201 0.05395 0.0
C955 C 0.49368 0.90816 0.05662 0.0
C956 C 0.48228 0.9351 0.06179 0.0
C957 C 0.45098 0.93591 0.06224 0.0
C958 C 0.43143 0.9095 0.06005 0.0
H959 H 0.421 0.8165 0.99867 0.0
H960 H 0.43 0.85587 1.00483 0.0
H961 H 0.45769 0.83095 0.01195 0.0
H962 H 0.48384 0.86128 0.05207 0.0
H963 H 0.51779 0.90712 0.05633 0.0
H964 H 0.07949 0.35993 0.6349 0.0
H965 H 0.07478 0.31279 0.60931 0.0
H966 H 0.14099 0.34891 0.54949 0.0
H967 H 0.14578 0.39653 0.57506 0.0
H968 H 0.05827 0.30066 0.55201 0.0
H969 H 0.17384 0.27287 0.57774 0.0
H970 H 0.15741 0.30165 0.59645 0.0
H971 H 0.17055 0.30779 0.56095 0.0
C972 C 0.09285 0.35803 0.61613 0.0
C973 C 0.11298 0.38202 0.607 0.0
C974 C 0.09021 0.33102 0.60159 0.0
C975 C 0.10768 0.32729 0.57763 0.0
C976 C 0.12763 0.3512 0.56818 0.0
H977 H 0.05109 0.15203 0.49921 0.0
H978 H 0.07233 0.20441 0.49846 0.0
C979 C 0.13034 0.37835 0.58281 0.0
C980 C 0.10475 0.29803 0.56314 0.0
H981 H 0.14022 0.23594 0.55564 0.0
C982 C 0.07631 0.28663 0.55221 0.0
C983 C 0.12842 0.27991 0.56346 0.0
C984 C 0.15929 0.29095 0.57539 0.0
C985 C 0.07027 0.25696 0.54338 0.0
C986 C 0.09354 0.23836 0.54506 0.0
C987 C 0.12253 0.25032 0.55421 0.0
C988 C 0.08676 0.20572 0.54265 0.0
C989 C 0.03845 0.24527 0.53447 0.0
C990 C 0.08946 0.18876 0.56713 0.0
C991 C 0.07799 0.15893 0.56731 0.0
C992 C 0.06389 0.14542 0.54296 0.0
C993 C 0.06278 0.16177 0.51789 0.0
C994 C 0.07441 0.19177 0.51765 0.0
H995 H 0.0223 0.26166 0.53818 0.0
H996 H 0.03779 0.23972 0.51147 0.0
H997 H 0.03073 0.22479 0.54624 0.0
H998 H 0.09879 0.19903 0.58668 0.0
H999 H 0.07881 0.14674 0.58695 0.0
H1000 H 0.65171 0.26197 0.44503 0.0
H1001 H 0.6326 0.30774 0.46133 0.0
H1002 H 0.58551 0.2594 0.52886 0.0
H1003 H 0.60474 0.21384 0.51267 0.0
H1004 H 0.57322 0.3205 0.46783 0.0
H1005 H 0.63552 0.32858 0.57101 0.0
H1006 H 0.64465 0.3047 0.54239 0.0
H1007 H 0.61338 0.29346 0.56494 0.0
C1008 C 0.63695 0.26121 0.4631 0.0
C1009 C 0.62935 0.23463 0.47755 0.0
C1010 C 0.62624 0.28728 0.47251 0.0
C1011 C 0.60816 0.28707 0.49667 0.0
C1012 C 0.59996 0.2602 0.51058 0.0
H1013 H 0.48733 0.40904 0.5488 0.0
H1014 H 0.51323 0.36617 0.5373 0.0
C1015 C 0.6106 0.23418 0.50113 0.0
C1016 C 0.59726 0.31476 0.50702 0.0
H1017 H 0.59686 0.36031 0.56513 0.0
C1018 C 0.57859 0.32932 0.48901 0.0
C1019 C 0.60463 0.32649 0.53456 0.0
C1020 C 0.62588 0.3127 0.55429 0.0
C1021 C 0.56619 0.35465 0.49813 0.0
C1022 C 0.57236 0.36552 0.52611 0.0
C1023 C 0.59192 0.35168 0.54382 0.0
C1024 C 0.55771 0.39067 0.53733 0.0
C1025 C 0.54638 0.36954 0.4778 0.0
C1026 C 0.57438 0.41837 0.54251 0.0
C1027 C 0.55959 0.44303 0.5491 0.0
C1028 C 0.52798 0.44016 0.55087 0.0
C1029 C 0.51168 0.41196 0.54746 0.0
C1030 C 0.52642 0.38746 0.54083 0.0
H1031 H 0.54958 0.36285 0.45542 0.0
H1032 H 0.5224 0.36318 0.4831 0.0
H1033 H 0.55108 0.39401 0.47961 0.0
H1034 H 0.59861 0.42121 0.54001 0.0
H1035 H 0.57269 0.46453 0.55116 0.0
loop_
_geom_bond_atom_site_label_1
_geom_bond_atom_site_label_2
_geom_bond_distance
_geom_bond_site_symmetry_2
_ccdc_geom_bond_type
H0 C3 0.929 . S
H1 C6 0.929 . S
H2 C8 0.930 . S
C3 H0 0.929 . S
C3 C4 1.398 . S
C3 C5 1.396 . S
C4 C3 1.398 . S
C4 C8 1.407 . S
C5 C3 1.396 . S
C5 C6 1.394 . S
C6 H1 0.929 . S
C6 C5 1.394 . S
C6 C7 1.382 . S
C7 C6 1.382 . S
C7 C8 1.392 . S
C7 N9 1.420 . S
C8 H2 0.930 . S
C8 C4 1.407 . S
C8 C7 1.392 . S
N9 C7 1.420 . S
N9 C10 1.244 . S
C10 N9 1.244 . S
H11 C14 0.929 . S
H12 C17 0.929 . S
H13 C19 0.930 . S
C14 H11 0.929 . S
C14 C15 1.398 . S
C14 C16 1.396 . S
C15 C14 1.398 . S
C15 C19 1.407 . S
C16 C14 1.396 . S
C16 C17 1.394 . S
C17 H12 0.929 . S
C17 C16 1.394 . S
C17 C18 1.382 . S
C18 C17 1.382 . S
C18 C19 1.392 . S
C18 N20 1.420 . S
C19 H13 0.930 . S
C19 C15 1.407 . S
C19 C18 1.392 . S
N20 C18 1.420 . S
N20 C21 1.244 . S
C21 N20 1.244 . S
H22 C25 0.929 . S
H23 C28 0.929 . S
H24 C30 0.930 . S
C25 H22 0.929 . S
C25 C26 1.398 . S
C25 C27 1.396 . S
C26 C25 1.398 . S
C26 C30 1.407 . S
C27 C25 1.396 . S
C27 C28 1.394 . S
C28 H23 0.929 . S
C28 C27 1.394 . S
C28 C29 1.382 . S
C29 C28 1.382 . S
C29 C30 1.392 . S
C29 N31 1.420 . S
C30 H24 0.930 . S
C30 C26 1.407 . S
C30 C29 1.392 . S
N31 C29 1.420 . S
N31 C32 1.244 . S
C32 N31 1.244 . S
H33 C36 0.929 . S
H34 C39 0.929 . S
H35 C41 0.930 . S
C36 H33 0.929 . S
C36 C37 1.398 . S
C36 C38 1.396 . S
C37 C36 1.398 . S
C37 C41 1.407 . S
C38 C36 1.396 . S
C38 C39 1.394 . S
C39 H34 0.929 . S
C39 C38 1.394 . S
C39 C40 1.382 . S
C40 C39 1.382 . S
C40 C41 1.392 . S
C40 N42 1.420 . S
C41 H35 0.930 . S
C41 C37 1.407 . S
C41 C40 1.392 . S
N42 C40 1.420 . S
N42 C43 1.244 . S
C43 N42 1.244 . S
H44 C47 0.929 . S
H45 C50 0.929 . S
H46 C52 0.930 1_545 S
C47 H44 0.929 . S
C47 C48 1.398 . S
C47 C49 1.396 . S
C48 C47 1.398 . S
C48 C52 1.407 . S
C49 C47 1.396 . S
C49 C50 1.394 . S
C50 H45 0.929 . S
C50 C49 1.394 . S
C50 C51 1.382 . S
C51 C50 1.382 . S
C51 C52 1.392 . S
C51 N53 1.420 . S
C52 H46 0.930 1_565 S
C52 C48 1.407 . S
C52 C51 1.392 . S
N53 C51 1.420 . S
N53 C54 1.244 . S
C54 N53 1.244 . S
H55 C58 0.929 . S
H56 C61 0.929 . S
H57 C63 0.930 . S
C58 H55 0.929 . S
C58 C59 1.398 . S
C58 C60 1.396 . S
C59 C58 1.398 . S
C59 C63 1.407 . S
C60 C58 1.396 . S
C60 C61 1.394 . S
C61 H56 0.929 . S
C61 C60 1.394 . S
C61 C62 1.382 . S
C62 C61 1.382 . S
C62 C63 1.392 . S
C62 N64 1.420 . S
C63 H57 0.930 . S
C63 C59 1.407 . S
C63 C62 1.392 . S
N64 C62 1.420 . S
N64 C65 1.244 . S
C65 N64 1.244 . S
H66 C69 0.929 . S
H67 C72 0.929 . S
H68 C74 0.930 . S
C69 H66 0.929 . S
C69 C70 1.398 . S
C69 C71 1.396 . S
C70 C69 1.398 . S
C70 C74 1.407 . S
C71 C69 1.396 . S
C71 C72 1.394 . S
C72 H67 0.929 . S
C72 C71 1.394 . S
C72 C73 1.382 . S
C73 C72 1.382 . S
C73 C74 1.392 . S
C73 N75 1.420 . S
C74 H68 0.930 . S
C74 C70 1.407 . S
C74 C73 1.392 . S
N75 C73 1.420 . S
N75 C76 1.244 . S
C76 N75 1.244 . S
H77 C80 0.929 . S
H78 C83 0.929 . S
H79 C85 0.930 . S
C80 H77 0.929 . S
C80 C81 1.398 . S
C80 C82 1.396 . S
C81 C80 1.398 . S
C81 C85 1.407 . S
C82 C80 1.396 . S
C82 C83 1.394 . S
C83 H78 0.929 . S
C83 C82 1.394 . S
C83 C84 1.382 . S
C84 C83 1.382 . S
C84 C85 1.392 . S
C84 N86 1.420 . S
C85 H79 0.930 . S
C85 C81 1.407 . S
C85 C84 1.392 . S
N86 C84 1.420 . S
N86 C87 1.244 . S
C87 N86 1.244 . S
Zn88 O94 1.920 . S
Zn88 O100 1.898 . S
Zn88 O103 1.905 . S
Zn89 O97 1.905 1_565 S
Zn89 O98 1.898 . S
Zn89 O106 1.920 . S
Zn90 O93 2.080 1_455 S
Zn90 O96 2.114 . S
Zn90 O99 2.120 1_445 S
Zn90 O101 2.120 . S
Zn90 O102 2.114 1_455 S
Zn90 O105 2.080 . S
C91 O96 1.166 . S
C91 O97 1.182 . S
C92 O98 1.167 1_655 S
C92 O99 1.299 . S
O93 Zn90 2.080 1_655 S
O93 C107 1.305 . S
O94 Zn88 1.920 . S
O94 C107 1.234 . S
C95 O100 1.167 1_455 S
C95 O101 1.299 . S
O96 Zn90 2.114 . S
O96 C91 1.166 . S
O97 Zn89 1.905 1_545 S
O97 C91 1.182 . S
O98 Zn89 1.898 . S
O98 C92 1.167 1_455 S
O99 Zn90 2.120 1_665 S
O99 C92 1.299 . S
O100 Zn88 1.898 . S
O100 C95 1.167 1_655 S
O101 Zn90 2.120 . S
O101 C95 1.299 . S
O102 Zn90 2.114 1_655 S
O102 C104 1.166 . S
O103 Zn88 1.905 . S
O103 C104 1.182 . S
C104 O102 1.166 . S
C104 O103 1.182 . S
O105 Zn90 2.080 . S
O105 C108 1.305 . S
O106 Zn89 1.920 . S
O106 C108 1.234 1_565 S
C107 O93 1.305 . S
C107 O94 1.234 . S
C108 O105 1.305 . S
C108 O106 1.234 1_545 S
Zn109 O115 1.920 . S
Zn109 O121 1.898 . S
Zn109 O124 1.905 . S
Zn110 O118 1.905 . S
Zn110 O119 1.898 . S
Zn110 O127 1.920 1_565 S
Zn111 O114 2.080 . S
Zn111 O117 2.114 . S
Zn111 O120 2.120 1_545 S
Zn111 O122 2.120 . S
Zn111 O123 2.114 . S
Zn111 O126 2.080 . S
C112 O117 1.166 . S
C112 O118 1.182 1_545 S
C113 O119 1.167 . S
C113 O120 1.299 . S
O114 Zn111 2.080 . S
O114 C128 1.305 . S
O115 Zn109 1.920 . S
O115 C128 1.234 . S
C116 O121 1.167 . S
C116 O122 1.299 . S
O117 Zn111 2.114 . S
O117 C112 1.166 . S
O118 Zn110 1.905 . S
O118 C112 1.182 1_565 S
O119 Zn110 1.898 . S
O119 C113 1.167 . S
O120 Zn111 2.120 1_565 S
O120 C113 1.299 . S
O121 Zn109 1.898 . S
O121 C116 1.167 . S
O122 Zn111 2.120 . S
O122 C116 1.299 . S
O123 Zn111 2.114 . S
O123 C125 1.166 . S
O124 Zn109 1.905 . S
O124 C125 1.182 . S
C125 O123 1.166 . S
C125 O124 1.182 . S
O126 Zn111 2.080 . S
O126 C129 1.305 . S
O127 Zn110 1.920 1_545 S
O127 C129 1.234 . S
C128 O114 1.305 . S
C128 O115 1.234 . S
C129 O126 1.305 . S
C129 O127 1.234 . S
Zn130 O136 1.920 . S
Zn130 O142 1.898 . S
Zn130 O145 1.905 . S
Zn131 O139 1.905 . S
Zn131 O140 1.898 . S
Zn131 O148 1.920 . S
Zn132 O135 2.080 . S
Zn132 O138 2.114 . S
Zn132 O141 2.120 . S
Zn132 O143 2.120 . S
Zn132 O144 2.114 . S
Zn132 O147 2.080 . S
C133 O138 1.166 . S
C133 O139 1.182 . S
C134 O140 1.167 . S
C134 O141 1.299 . S
O135 Zn132 2.080 . S
O135 C149 1.305 . S
O136 Zn130 1.920 . S
O136 C149 1.234 . S
C137 O142 1.167 . S
C137 O143 1.299 . S
O138 Zn132 2.114 . S
O138 C133 1.166 . S
O139 Zn131 1.905 . S
O139 C133 1.182 . S
O140 Zn131 1.898 . S
O140 C134 1.167 . S
O141 Zn132 2.120 . S
O141 C134 1.299 . S
O142 Zn130 1.898 . S
O142 C137 1.167 . S
O143 Zn132 2.120 . S
O143 C137 1.299 . S
O144 Zn132 2.114 . S
O144 C146 1.166 . S
O145 Zn130 1.905 . S
O145 C146 1.182 . S
C146 O144 1.166 . S
C146 O145 1.182 . S
O147 Zn132 2.080 . S
O147 C150 1.305 . S
O148 Zn131 1.920 . S
O148 C150 1.234 . S
C149 O135 1.305 . S
C149 O136 1.234 . S
C150 O147 1.305 . S
C150 O148 1.234 . S
Zn151 O157 1.920 . S
Zn151 O163 1.898 . S
Zn151 O166 1.905 . S
Zn152 O160 1.905 1_655 S
Zn152 O161 1.898 . S
Zn152 O169 1.920 . S
Zn153 O156 2.080 1_554 S
Zn153 O159 2.114 . S
Zn153 O162 2.130 1_455 S
Zn153 O164 2.120 . S
Zn153 O165 2.114 1_554 S
Zn153 O168 2.080 . S
C154 O159 1.166 . S
C154 O160 1.182 . S
C155 O161 1.143 1_556 S
C155 O162 1.297 1_556 S
O156 Zn153 2.080 1_556 S
O156 C170 1.305 . S
O157 Zn151 1.920 . S
O157 C170 1.234 . S
C158 O163 1.167 1_554 S
C158 O164 1.299 . S
O159 Zn153 2.114 . S
O159 C154 1.166 . S
O160 Zn152 1.905 1_455 S
O160 C154 1.182 . S
O161 Zn152 1.898 . S
O161 C155 1.143 1_554 S
O162 Zn153 2.130 1_655 S
O162 C155 1.297 1_554 S
O163 Zn151 1.898 . S
O163 C158 1.167 1_556 S
O164 Zn153 2.120 . S
O164 C158 1.299 . S
O165 Zn153 2.114 1_556 S
O165 C167 1.166 . S
O166 Zn151 1.905 . S
O166 C167 1.182 . S
C167 O165 1.166 . S
C167 O166 1.182 . S
O168 Zn153 2.080 . S
O168 C171 1.324 . S
O169 Zn152 1.920 . S
O169 C171 1.222 1_655 S
C170 O156 1.305 . S
C170 O157 1.234 . S
C171 O168 1.324 . S
C171 O169 1.222 1_455 S
H172 C180 0.929 . S
H173 C182 0.930 . S
H174 C184 0.930 . S
H175 C187 0.929 . S
H176 C190 0.930 . S
H177 C192 0.960 . S
H178 C192 0.960 . S
H179 C192 0.960 . S
C180 H172 0.929 . S
C180 C181 1.377 . S
C180 C182 1.384 . S
C181 C180 1.377 . S
C181 C187 1.390 . S
C182 H173 0.930 . S
C182 C180 1.384 . S
C182 C183 1.372 . S
C183 C182 1.372 . S
C183 C184 1.400 . S
C183 C188 1.490 . S
C184 H174 0.930 . S
C184 C183 1.400 . S
C184 C187 1.386 . S
H185 C201 0.930 . S
H186 C202 0.931 . S
C187 H175 0.929 . S
C187 C181 1.390 . S
C187 C184 1.386 . S
C188 C183 1.490 . S
C188 C190 1.395 . S
C188 C191 1.403 . S
H189 C195 0.930 . S
C190 H176 0.930 . S
C190 C188 1.395 . S
C190 C193 1.403 . S
C191 C188 1.403 . S
C191 C192 1.524 . S
C191 C195 1.400 . S
C192 H177 0.960 . S
C192 H178 0.960 . S
C192 H179 0.960 . S
C192 C191 1.524 . S
C193 C190 1.403 . S
C193 C194 1.392 . S
C193 C197 1.495 . S
C194 C193 1.392 . S
C194 C195 1.385 . S
C194 C196 1.478 . S
C195 H189 0.930 . S
C195 C191 1.400 . S
C195 C194 1.385 . S
C196 C194 1.478 . S
C196 C198 1.381 . S
C196 C202 1.383 . S
C197 C193 1.495 . S
C197 H203 0.959 . S
C197 H204 0.961 . S
C197 H205 0.960 . S
C198 C196 1.381 . S
C198 C199 1.394 . S
C198 H206 0.930 . S
C199 C198 1.394 . S
C199 C200 1.383 . S
C199 H207 0.929 . S
C200 C199 1.383 . S
C200 C201 1.377 . S
C201 H185 0.930 . S
C201 C200 1.377 . S
C201 C202 1.379 . S
C202 H186 0.931 . S
C202 C196 1.383 . S
C202 C201 1.379 . S
H203 C197 0.959 . S
H204 C197 0.961 . S
H205 C197 0.960 . S
H206 C198 0.930 . S
H207 C199 0.929 . S
H208 C216 0.929 . S
H209 C218 0.930 . S
H210 C220 0.930 . S
H211 C223 0.929 . S
H212 C226 0.930 . S
H213 C228 0.960 . S
H214 C228 0.960 . S
H215 C228 0.960 . S
C216 H208 0.929 . S
C216 C217 1.377 . S
C216 C218 1.384 . S
C217 C216 1.377 . S
C217 C223 1.390 . S
C218 H209 0.930 . S
C218 C216 1.384 . S
C218 C219 1.372 . S
C219 C218 1.372 . S
C219 C220 1.400 . S
C219 C224 1.490 . S
C220 H210 0.930 . S
C220 C219 1.400 . S
C220 C223 1.386 . S
H221 C237 0.930 1_545 S
H222 C238 0.931 . S
C223 H211 0.929 . S
C223 C217 1.390 . S
C223 C220 1.386 . S
C224 C219 1.490 . S
C224 C226 1.395 . S
C224 C227 1.403 . S
H225 C231 0.930 . S
C226 H212 0.930 . S
C226 C224 1.395 . S
C226 C229 1.403 . S
C227 C224 1.403 . S
C227 C228 1.524 . S
C227 C231 1.400 . S
C228 H213 0.960 . S
C228 H214 0.960 . S
C228 H215 0.960 . S
C228 C227 1.524 . S
C229 C226 1.403 . S
C229 C230 1.392 . S
C229 C233 1.495 . S
C230 C229 1.392 . S
C230 C231 1.385 . S
C230 C232 1.478 . S
C231 H225 0.930 . S
C231 C227 1.400 . S
C231 C230 1.385 . S
C232 C230 1.478 . S
C232 C234 1.381 . S
C232 C238 1.383 . S
C233 C229 1.495 . S
C233 H239 0.959 . S
C233 H240 0.961 . S
C233 H241 0.960 . S
C234 C232 1.381 . S
C234 C235 1.394 . S
C234 H242 0.930 . S
C235 C234 1.394 . S
C235 C236 1.383 . S
C235 H243 0.929 . S
C236 C235 1.383 . S
C236 C237 1.377 . S
C237 H221 0.930 1_565 S
C237 C236 1.377 . S
C237 C238 1.379 . S
C238 H222 0.931 . S
C238 C232 1.383 . S
C238 C237 1.379 . S
H239 C233 0.959 . S
H240 C233 0.961 . S
H241 C233 0.960 . S
H242 C234 0.930 . S
H243 C235 0.929 . S
H244 C252 0.929 . S
H245 C254 0.930 . S
H246 C256 0.930 . S
H247 C259 0.929 . S
H248 C262 0.930 . S
H249 C264 0.960 . S
H250 C264 0.960 . S
H251 C264 0.960 . S
C252 H244 0.929 . S
C252 C253 1.377 . S
C252 C254 1.384 . S
C253 C252 1.377 . S
C253 C259 1.390 . S
C254 H245 0.930 . S
C254 C252 1.384 . S
C254 C255 1.372 . S
C255 C254 1.372 . S
C255 C256 1.400 . S
C255 C260 1.490 . S
C256 H246 0.930 . S
C256 C255 1.400 . S
C256 C259 1.386 . S
H257 C273 0.930 . S
H258 C274 0.931 . S
C259 H247 0.929 . S
C259 C253 1.390 . S
C259 C256 1.386 . S
C260 C255 1.490 . S
C260 C262 1.395 . S
C260 C263 1.403 . S
H261 C267 0.930 . S
C262 H248 0.930 . S
C262 C260 1.395 . S
C262 C265 1.403 . S
C263 C260 1.403 . S
C263 C264 1.524 . S
C263 C267 1.400 . S
C264 H249 0.960 . S
C264 H250 0.960 . S
C264 H251 0.960 . S
C264 C263 1.524 . S
C265 C262 1.403 . S
C265 C266 1.392 . S
C265 C269 1.495 . S
C266 C265 1.392 . S
C266 C267 1.385 . S
C266 C268 1.478 . S
C267 H261 0.930 . S
C267 C263 1.400 . S
C267 C266 1.385 . S
C268 C266 1.478 . S
C268 C270 1.381 . S
C268 C274 1.383 . S
C269 C265 1.495 . S
C269 H275 0.959 . S
C269 H276 0.961 . S
C269 H277 0.960 . S
C270 C268 1.381 . S
C270 C271 1.394 . S
C270 H278 0.930 . S
C271 C270 1.394 . S
C271 C272 1.383 . S
C271 H279 0.929 . S
C272 C271 1.383 . S
C272 C273 1.377 . S
C273 H257 0.930 . S
C273 C272 1.377 . S
C273 C274 1.379 . S
C274 H258 0.931 . S
C274 C268 1.383 . S
C274 C273 1.379 . S
H275 C269 0.959 . S
H276 C269 0.961 . S
H277 C269 0.960 . S
H278 C270 0.930 . S
H279 C271 0.929 . S
H280 C288 0.929 . S
H281 C290 0.930 . S
H282 C292 0.930 . S
H283 C295 0.929 . S
H284 C298 0.930 . S
H285 C300 0.960 . S
H286 C300 0.960 . S
H287 C300 0.960 . S
C288 H280 0.929 . S
C288 C289 1.377 . S
C288 C290 1.384 . S
C289 C288 1.377 . S
C289 C295 1.390 . S
C290 H281 0.930 . S
C290 C288 1.384 . S
C290 C291 1.372 . S
C291 C290 1.372 . S
C291 C292 1.400 . S
C291 C296 1.490 . S
C292 H282 0.930 . S
C292 C291 1.400 . S
C292 C295 1.386 . S
H293 C309 0.930 1_455 S
H294 C310 0.931 . S
C295 H283 0.929 . S
C295 C289 1.390 . S
C295 C292 1.386 . S
C296 C291 1.490 . S
C296 C298 1.395 . S
C296 C299 1.403 . S
H297 C303 0.930 . S
C298 H284 0.930 . S
C298 C296 1.395 . S
C298 C301 1.403 . S
C299 C296 1.403 . S
C299 C300 1.524 . S
C299 C303 1.400 . S
C300 H285 0.960 . S
C300 H286 0.960 . S
C300 H287 0.960 . S
C300 C299 1.524 . S
C301 C298 1.403 . S
C301 C302 1.392 . S
C301 C305 1.495 . S
C302 C301 1.392 . S
C302 C303 1.385 . S
C302 C304 1.478 . S
C303 H297 0.930 . S
C303 C299 1.400 . S
C303 C302 1.385 . S
C304 C302 1.478 . S
C304 C306 1.381 . S
C304 C310 1.383 . S
C305 C301 1.495 . S
C305 H311 0.959 . S
C305 H312 0.961 1_655 S
C305 H313 0.960 . S
C306 C304 1.381 . S
C306 C307 1.394 . S
C306 H314 0.930 . S
C307 C306 1.394 . S
C307 C308 1.383 . S
C307 H315 0.929 . S
C308 C307 1.383 . S
C308 C309 1.377 . S
C309 H293 0.930 1_655 S
C309 C308 1.377 . S
C309 C310 1.379 . S
C310 H294 0.931 . S
C310 C304 1.383 . S
C310 C309 1.379 . S
H311 C305 0.959 . S
H312 C305 0.961 1_455 S
H313 C305 0.960 . S
H314 C306 0.930 . S
H315 C307 0.929 . S
H316 C324 0.929 . S
H317 C326 0.930 . S
H318 C328 0.930 . S
H319 C331 0.929 . S
H320 C334 0.930 . S
H321 C336 0.960 . S
H322 C336 0.960 . S
H323 C336 0.960 . S
C324 H316 0.929 . S
C324 C325 1.377 . S
C324 C326 1.384 . S
C325 C324 1.377 . S
C325 C331 1.390 . S
C326 H317 0.930 . S
C326 C324 1.384 . S
C326 C327 1.372 . S
C327 C326 1.372 . S
C327 C328 1.400 . S
C327 C332 1.490 . S
C328 H318 0.930 . S
C328 C327 1.400 . S
C328 C331 1.386 . S
H329 C345 0.930 . S
H330 C346 0.931 . S
C331 H319 0.929 . S
C331 C325 1.390 . S
C331 C328 1.386 . S
C332 C327 1.490 . S
C332 C334 1.395 . S
C332 C335 1.403 . S
H333 C339 0.930 . S
C334 H320 0.930 . S
C334 C332 1.395 . S
C334 C337 1.403 . S
C335 C332 1.403 . S
C335 C336 1.524 . S
C335 C339 1.400 . S
C336 H321 0.960 . S
C336 H322 0.960 . S
C336 H323 0.960 . S
C336 C335 1.524 . S
C337 C334 1.403 . S
C337 C338 1.392 . S
C337 C341 1.495 . S
C338 C337 1.392 . S
C338 C339 1.385 . S
C338 C340 1.478 . S
C339 H333 0.930 . S
C339 C335 1.400 . S
C339 C338 1.385 . S
C340 C338 1.478 . S
C340 C342 1.381 . S
C340 C346 1.383 . S
C341 C337 1.495 . S
C341 H347 0.959 . S
C341 H348 0.961 . S
C341 H349 0.960 . S
C342 C340 1.381 . S
C342 C343 1.394 . S
C342 H350 0.930 . S
C343 C342 1.394 . S
C343 C344 1.383 . S
C343 H351 0.929 . S
C344 C343 1.383 . S
C344 C345 1.377 . S
C345 H329 0.930 . S
C345 C344 1.377 . S
C345 C346 1.379 . S
C346 H330 0.931 . S
C346 C340 1.383 . S
C346 C345 1.379 . S
H347 C341 0.959 . S
H348 C341 0.961 . S
H349 C341 0.960 . S
H350 C342 0.930 . S
H351 C343 0.929 . S
H352 C360 0.929 . S
H353 C362 0.930 . S
H354 C364 0.930 . S
H355 C367 0.929 . S
H356 C370 0.930 . S
H357 C372 0.960 . S
H358 C372 0.960 . S
H359 C372 0.960 . S
C360 H352 0.929 . S
C360 C361 1.377 . S
C360 C362 1.384 . S
C361 C360 1.377 . S
C361 C367 1.390 . S
C362 H353 0.930 . S
C362 C360 1.384 . S
C362 C363 1.372 . S
C363 C362 1.372 . S
C363 C364 1.400 . S
C363 C368 1.490 . S
C364 H354 0.930 . S
C364 C363 1.400 . S
C364 C367 1.386 . S
H365 C381 0.930 . S
H366 C382 0.931 . S
C367 H355 0.929 . S
C367 C361 1.390 . S
C367 C364 1.386 . S
C368 C363 1.490 . S
C368 C370 1.395 . S
C368 C371 1.403 . S
H369 C375 0.930 . S
C370 H356 0.930 . S
C370 C368 1.395 . S
C370 C373 1.403 . S
C371 C368 1.403 . S
C371 C372 1.524 . S
C371 C375 1.400 . S
C372 H357 0.960 . S
C372 H358 0.960 . S
C372 H359 0.960 . S
C372 C371 1.524 . S
C373 C370 1.403 . S
C373 C374 1.392 . S
C373 C377 1.495 1_565 S
C374 C373 1.392 . S
C374 C375 1.385 . S
C374 C376 1.478 . S
C375 H369 0.930 . S
C375 C371 1.400 . S
C375 C374 1.385 . S
C376 C374 1.478 . S
C376 C378 1.381 1_565 S
C376 C382 1.383 . S
C377 C373 1.495 1_545 S
C377 H383 0.959 . S
C377 H384 0.961 . S
C377 H385 0.960 . S
C378 C376 1.381 1_545 S
C378 C379 1.394 . S
C378 H386 0.930 . S
C379 C378 1.394 . S
C379 C380 1.397 . S
C379 H387 0.929 . S
C380 C379 1.397 . S
C380 C381 1.351 1_545 S
C381 H365 0.930 . S
C381 C380 1.351 1_565 S
C381 C382 1.379 . S
C382 H366 0.931 . S
C382 C376 1.383 . S
C382 C381 1.379 . S
H383 C377 0.959 . S
H384 C377 0.961 . S
H385 C377 0.960 . S
H386 C378 0.930 . S
H387 C379 0.929 . S
H388 C396 0.929 . S
H389 C398 0.930 . S
H390 C400 0.930 . S
H391 C403 0.929 . S
H392 C406 0.930 . S
H393 C408 0.960 . S
H394 C408 0.960 . S
H395 C408 0.960 . S
C396 H388 0.929 . S
C396 C397 1.377 . S
C396 C398 1.384 . S
C397 C396 1.377 . S
C397 C403 1.390 . S
C398 H389 0.930 . S
C398 C396 1.384 . S
C398 C399 1.372 . S
C399 C398 1.372 . S
C399 C400 1.400 . S
C399 C404 1.490 . S
C400 H390 0.930 . S
C400 C399 1.400 . S
C400 C403 1.386 . S
H401 C417 0.930 1_554 S
H402 C418 0.931 . S
C403 H391 0.929 . S
C403 C397 1.390 . S
C403 C400 1.386 . S
C404 C399 1.490 . S
C404 C406 1.395 . S
C404 C407 1.403 . S
H405 C411 0.930 . S
C406 H392 0.930 . S
C406 C404 1.395 . S
C406 C409 1.403 . S
C407 C404 1.403 . S
C407 C408 1.524 . S
C407 C411 1.400 . S
C408 H393 0.960 . S
C408 H394 0.960 . S
C408 H395 0.960 . S
C408 C407 1.524 . S
C409 C406 1.403 . S
C409 C410 1.392 . S
C409 C413 1.495 . S
C410 C409 1.392 . S
C410 C411 1.385 . S
C410 C412 1.478 . S
C411 H405 0.930 . S
C411 C407 1.400 . S
C411 C410 1.385 . S
C412 C410 1.478 . S
C412 C414 1.381 . S
C412 C418 1.383 . S
C413 C409 1.495 . S
C413 H419 0.959 . S
C413 H420 0.961 . S
C413 H421 0.960 . S
C414 C412 1.381 . S
C414 C415 1.394 . S
C414 H422 0.930 . S
C415 C414 1.394 . S
C415 C416 1.383 . S
C415 H423 0.929 . S
C416 C415 1.383 . S
C416 C417 1.377 . S
C417 H401 0.930 1_556 S
C417 C416 1.377 . S
C417 C418 1.379 . S
C418 H402 0.931 . S
C418 C412 1.383 . S
C418 C417 1.379 . S
H419 C413 0.959 . S
H420 C413 0.961 . S
H421 C413 0.960 . S
H422 C414 0.930 . S
H423 C415 0.929 . S
H424 C432 0.929 . S
H425 C434 0.930 . S
H426 C436 0.930 . S
H427 C439 0.929 . S
H428 C442 0.930 . S
H429 C444 0.960 . S
H430 C444 0.960 . S
H431 C444 0.960 . S
C432 H424 0.929 . S
C432 C433 1.377 . S
C432 C434 1.384 . S
C433 C432 1.377 . S
C433 C439 1.390 . S
C434 H425 0.930 . S
C434 C432 1.384 . S
C434 C435 1.372 . S
C435 C434 1.372 . S
C435 C436 1.400 . S
C435 C440 1.490 . S
C436 H426 0.930 . S
C436 C435 1.400 . S
C436 C439 1.386 . S
H437 C453 0.930 . S
H438 C454 0.931 . S
C439 H427 0.929 . S
C439 C433 1.390 . S
C439 C436 1.386 . S
C440 C435 1.490 . S
C440 C442 1.395 . S
C440 C443 1.403 . S
H441 C447 0.930 . S
C442 H428 0.930 . S
C442 C440 1.395 . S
C442 C445 1.403 . S
C443 C440 1.403 . S
C443 C444 1.524 . S
C443 C447 1.400 . S
C444 H429 0.960 . S
C444 H430 0.960 . S
C444 H431 0.960 . S
C444 C443 1.524 . S
C445 C442 1.403 . S
C445 C446 1.392 . S
C445 C449 1.495 . S
C446 C445 1.392 . S
C446 C447 1.385 . S
C446 C448 1.478 . S
C447 H441 0.930 . S
C447 C443 1.400 . S
C447 C446 1.385 . S
C448 C446 1.478 . S
C448 C450 1.381 . S
C448 C454 1.383 . S
C449 C445 1.495 . S
C449 H455 0.959 . S
C449 H456 0.961 . S
C449 H457 0.960 . S
C450 C448 1.381 . S
C450 C451 1.394 . S
C450 H458 0.930 . S
C451 C450 1.394 . S
C451 C452 1.383 . S
C451 H459 0.929 . S
C452 C451 1.383 . S
C452 C453 1.377 . S
C453 H437 0.930 . S
C453 C452 1.377 . S
C453 C454 1.379 . S
C454 H438 0.931 . S
C454 C448 1.383 . S
C454 C453 1.379 . S
H455 C449 0.959 . S
H456 C449 0.961 . S
H457 C449 0.960 . S
H458 C450 0.930 . S
H459 C451 0.929 . S
H460 C468 0.929 . S
H461 C470 0.930 . S
H462 C472 0.930 . S
H463 C475 0.929 . S
H464 C478 0.930 . S
H465 C480 0.960 . S
H466 C480 0.960 . S
H467 C480 0.960 . S
C468 H460 0.929 . S
C468 C469 1.377 . S
C468 C470 1.384 . S
C469 C468 1.377 . S
C469 C475 1.390 . S
C470 H461 0.930 . S
C470 C468 1.384 . S
C470 C471 1.372 . S
C471 C470 1.372 . S
C471 C472 1.400 . S
C471 C476 1.490 . S
C472 H462 0.930 . S
C472 C471 1.400 . S
C472 C475 1.386 . S
H473 C489 0.930 . S
H474 C490 0.931 . S
C475 H463 0.929 . S
C475 C469 1.390 . S
C475 C472 1.386 . S
C476 C471 1.490 . S
C476 C478 1.395 . S
C476 C479 1.403 . S
H477 C483 0.930 . S
C478 H464 0.930 . S
C478 C476 1.395 . S
C478 C481 1.403 . S
C479 C476 1.403 . S
C479 C480 1.524 . S
C479 C483 1.400 . S
C480 H465 0.960 . S
C480 H466 0.960 . S
C480 H467 0.960 . S
C480 C479 1.524 . S
C481 C478 1.403 . S
C481 C482 1.392 . S
C481 C485 1.495 . S
C482 C481 1.392 . S
C482 C483 1.385 . S
C482 C484 1.478 . S
C483 H477 0.930 . S
C483 C479 1.400 . S
C483 C482 1.385 . S
C484 C482 1.478 . S
C484 C486 1.381 . S
C484 C490 1.383 . S
C485 C481 1.495 . S
C485 H491 0.959 . S
C485 H492 0.961 . S
C485 H493 0.960 . S
C486 C484 1.381 . S
C486 C487 1.394 . S
C486 H494 0.930 . S
C487 C486 1.394 . S
C487 C488 1.383 . S
C487 H495 0.929 . S
C488 C487 1.383 . S
C488 C489 1.377 . S
C489 H473 0.930 . S
C489 C488 1.377 . S
C489 C490 1.379 . S
C490 H474 0.931 . S
C490 C484 1.383 . S
C490 C489 1.379 . S
H491 C485 0.959 . S
H492 C485 0.961 . S
H493 C485 0.960 . S
H494 C486 0.930 . S
H495 C487 0.929 . S
H496 C504 0.929 . S
H497 C506 0.930 . S
H498 C508 0.930 . S
H499 C511 0.929 . S
H500 C514 0.930 . S
H501 C516 0.960 . S
H502 C516 0.960 . S
H503 C516 0.960 . S
C504 H496 0.929 . S
C504 C505 1.377 . S
C504 C506 1.384 . S
C505 C504 1.377 . S
C505 C511 1.390 . S
C506 H497 0.930 . S
C506 C504 1.384 . S
C506 C507 1.372 . S
C507 C506 1.372 . S
C507 C508 1.400 . S
C507 C512 1.490 . S
C508 H498 0.930 . S
C508 C507 1.400 . S
C508 C511 1.386 . S
H509 C525 0.930 . S
H510 C526 0.931 . S
C511 H499 0.929 . S
C511 C505 1.390 . S
C511 C508 1.386 . S
C512 C507 1.490 . S
C512 C514 1.395 . S
C512 C515 1.403 . S
H513 C519 0.930 . S
C514 H500 0.930 . S
C514 C512 1.395 . S
C514 C517 1.403 . S
C515 C512 1.403 . S
C515 C516 1.524 . S
C515 C519 1.400 . S
C516 H501 0.960 . S
C516 H502 0.960 . S
C516 H503 0.960 . S
C516 C515 1.524 . S
C517 C514 1.403 . S
C517 C518 1.392 . S
C517 C521 1.495 1_556 S
C518 C517 1.392 . S
C518 C519 1.385 . S
C518 C520 1.478 . S
C519 H513 0.930 . S
C519 C515 1.400 . S
C519 C518 1.385 . S
C520 C518 1.478 . S
C520 C522 1.381 . S
C520 C526 1.383 1_556 S
C521 C517 1.495 1_554 S
C521 H527 0.959 . S
C521 H528 0.961 . S
C521 H529 0.960 1_554 S
C522 C520 1.381 . S
C522 C523 1.383 1_556 S
C522 H530 0.930 . S
C523 C522 1.383 1_554 S
C523 C524 1.400 . S
C523 H531 0.925 1_554 S
C524 C523 1.400 . S
C524 C525 1.377 . S
C525 H509 0.930 . S
C525 C524 1.377 . S
C525 C526 1.379 . S
C526 H510 0.931 . S
C526 C520 1.383 1_554 S
C526 C525 1.379 . S
H527 C521 0.959 . S
H528 C521 0.961 . S
H529 C521 0.960 1_556 S
H530 C522 0.930 . S
H531 C523 0.925 1_556 S
H532 C540 0.929 . S
H533 C542 0.930 . S
H534 C544 0.930 . S
H535 C547 0.929 . S
H536 C550 0.930 . S
H537 C552 0.960 . S
H538 C552 0.960 . S
H539 C552 0.960 . S
C540 H532 0.929 . S
C540 C541 1.377 . S
C540 C542 1.384 . S
C541 C540 1.377 . S
C541 C547 1.390 . S
C542 H533 0.930 . S
C542 C540 1.384 . S
C542 C543 1.372 . S
C543 C542 1.372 . S
C543 C544 1.400 . S
C543 C548 1.490 . S
C544 H534 0.930 . S
C544 C543 1.400 . S
C544 C547 1.386 . S
H545 C561 0.930 . S
H546 C562 0.931 . S
C547 H535 0.929 . S
C547 C541 1.390 . S
C547 C544 1.386 . S
C548 C543 1.490 . S
C548 C550 1.395 . S
C548 C551 1.403 . S
H549 C555 0.930 . S
C550 H536 0.930 . S
C550 C548 1.395 . S
C550 C553 1.403 . S
C551 C548 1.403 . S
C551 C552 1.524 . S
C551 C555 1.400 . S
C552 H537 0.960 . S
C552 H538 0.960 . S
C552 H539 0.960 . S
C552 C551 1.524 . S
C553 C550 1.403 . S
C553 C554 1.392 . S
C553 C557 1.495 . S
C554 C553 1.392 . S
C554 C555 1.385 . S
C554 C556 1.478 . S
C555 H549 0.930 . S
C555 C551 1.400 . S
C555 C554 1.385 . S
C556 C554 1.478 . S
C556 C558 1.381 . S
C556 C562 1.383 . S
C557 C553 1.495 . S
C557 H563 0.959 . S
C557 H564 0.961 . S
C557 H565 0.960 . S
C558 C556 1.381 . S
C558 C559 1.394 . S
C558 H566 0.930 . S
C559 C558 1.394 . S
C559 C560 1.383 . S
C559 H567 0.929 1_655 S
C560 C559 1.383 . S
C560 C561 1.377 . S
C561 H545 0.930 . S
C561 C560 1.377 . S
C561 C562 1.379 . S
C562 H546 0.931 . S
C562 C556 1.383 . S
C562 C561 1.379 . S
H563 C557 0.959 . S
H564 C557 0.961 . S
H565 C557 0.960 . S
H566 C558 0.930 . S
H567 C559 0.929 1_455 S
H568 C576 0.929 . S
H569 C578 0.930 . S
H570 C580 0.930 . S
H571 C583 0.929 . S
H572 C586 0.930 . S
H573 C588 0.960 . S
H574 C588 0.960 . S
H575 C588 0.960 . S
C576 H568 0.929 . S
C576 C577 1.377 . S
C576 C578 1.384 . S
C577 C576 1.377 . S
C577 C583 1.390 . S
C578 H569 0.930 . S
C578 C576 1.384 . S
C578 C579 1.372 . S
C579 C578 1.372 . S
C579 C580 1.400 . S
C579 C584 1.490 . S
C580 H570 0.930 . S
C580 C579 1.400 . S
C580 C583 1.386 . S
H581 C597 0.930 . S
H582 C598 0.931 . S
C583 H571 0.929 . S
C583 C577 1.390 . S
C583 C580 1.386 . S
C584 C579 1.490 . S
C584 C586 1.395 . S
C584 C587 1.403 . S
H585 C591 0.930 . S
C586 H572 0.930 . S
C586 C584 1.395 . S
C586 C589 1.403 . S
C587 C584 1.403 . S
C587 C588 1.524 . S
C587 C591 1.400 . S
C588 H573 0.960 . S
C588 H574 0.960 . S
C588 H575 0.960 . S
C588 C587 1.524 . S
C589 C586 1.403 . S
C589 C590 1.392 . S
C589 C593 1.495 . S
C590 C589 1.392 . S
C590 C591 1.385 . S
C590 C592 1.478 . S
C591 H585 0.930 . S
C591 C587 1.400 . S
C591 C590 1.385 . S
C592 C590 1.478 . S
C592 C594 1.381 . S
C592 C598 1.383 . S
C593 C589 1.495 . S
C593 H599 0.959 . S
C593 H600 0.961 . S
C593 H601 0.960 . S
C594 C592 1.381 . S
C594 C595 1.394 . S
C594 H602 0.930 . S
C595 C594 1.394 . S
C595 C596 1.383 . S
C595 H603 0.929 . S
C596 C595 1.383 . S
C596 C597 1.377 . S
C597 H581 0.930 . S
C597 C596 1.377 . S
C597 C598 1.379 . S
C598 H582 0.931 . S
C598 C592 1.383 . S
C598 C597 1.379 . S
H599 C593 0.959 . S
H600 C593 0.961 . S
H601 C593 0.960 . S
H602 C594 0.930 . S
H603 C595 0.929 . S
H604 C612 0.929 . S
H605 C614 0.930 . S
H606 C616 0.930 . S
H607 C619 0.929 . S
H608 C622 0.930 . S
H609 C624 0.960 . S
H610 C624 0.960 . S
H611 C624 0.960 . S
C612 H604 0.929 . S
C612 C613 1.377 1_545 S
C612 C614 1.384 . S
C613 C612 1.377 1_565 S
C613 C619 1.390 . S
C614 H605 0.930 . S
C614 C612 1.384 . S
C614 C615 1.372 1_545 S
C615 C614 1.372 1_565 S
C615 C616 1.400 . S
C615 C620 1.490 . S
C616 H606 0.930 . S
C616 C615 1.400 . S
C616 C619 1.386 . S
H617 C633 0.930 . S
H618 C634 0.931 . S
C619 H607 0.929 . S
C619 C613 1.390 . S
C619 C616 1.386 . S
C620 C615 1.490 . S
C620 C622 1.395 1_665 S
C620 C623 1.403 . S
H621 C627 0.930 . S
C622 H608 0.930 . S
C622 C620 1.395 1_445 S
C622 C625 1.403 . S
C623 C620 1.403 . S
C623 C624 1.524 . S
C623 C627 1.400 . S
C624 H609 0.960 . S
C624 H610 0.960 . S
C624 H611 0.960 . S
C624 C623 1.524 . S
C625 C622 1.403 . S
C625 C626 1.392 1_455 S
C625 C629 1.495 . S
C626 C625 1.392 1_655 S
C626 C627 1.385 1_545 S
C626 C628 1.478 . S
C627 H621 0.930 . S
C627 C623 1.400 . S
C627 C626 1.385 1_565 S
C628 C626 1.478 . S
C628 C630 1.381 . S
C628 C634 1.383 1_545 S
C629 C625 1.495 . S
C629 H635 0.959 . S
C629 H636 0.961 . S
C629 H637 0.960 . S
C630 C628 1.381 . S
C630 C631 1.394 . S
C630 H638 0.930 . S
C631 C630 1.394 . S
C631 C632 1.383 . S
C631 H639 0.929 . S
C632 C631 1.383 . S
C632 C633 1.377 1_545 S
C633 H617 0.930 . S
C633 C632 1.377 1_565 S
C633 C634 1.379 . S
C634 H618 0.931 . S
C634 C628 1.383 1_565 S
C634 C633 1.379 . S
H635 C629 0.959 . S
H636 C629 0.961 . S
H637 C629 0.960 . S
H638 C630 0.930 . S
H639 C631 0.929 . S
H640 C648 0.929 . S
H641 C650 0.930 . S
H642 C652 0.930 . S
H643 C655 0.929 . S
H644 C658 0.930 . S
H645 C660 0.960 . S
H646 C660 0.960 . S
H647 C660 0.960 . S
C648 H640 0.929 . S
C648 C649 1.377 . S
C648 C650 1.384 . S
C649 C648 1.377 . S
C649 C655 1.390 . S
C650 H641 0.930 . S
C650 C648 1.384 . S
C650 C651 1.372 . S
C651 C650 1.372 . S
C651 C652 1.400 . S
C651 C656 1.490 . S
C652 H642 0.930 . S
C652 C651 1.400 . S
C652 C655 1.386 . S
H653 C669 0.930 . S
H654 C670 0.931 . S
C655 H643 0.929 . S
C655 C649 1.390 . S
C655 C652 1.386 . S
C656 C651 1.490 . S
C656 C658 1.395 . S
C656 C659 1.403 . S
H657 C663 0.930 . S
C658 H644 0.930 . S
C658 C656 1.395 . S
C658 C661 1.403 . S
C659 C656 1.403 . S
C659 C660 1.524 . S
C659 C663 1.400 . S
C660 H645 0.960 . S
C660 H646 0.960 . S
C660 H647 0.960 . S
C660 C659 1.524 . S
C661 C658 1.403 . S
C661 C662 1.392 . S
C661 C665 1.495 . S
C662 C661 1.392 . S
C662 C663 1.385 . S
C662 C664 1.478 . S
C663 H657 0.930 . S
C663 C659 1.400 . S
C663 C662 1.385 . S
C664 C662 1.478 . S
C664 C666 1.381 . S
C664 C670 1.383 . S
C665 C661 1.495 . S
C665 H671 0.959 . S
C665 H672 0.961 . S
C665 H673 0.960 . S
C666 C664 1.381 . S
C666 C667 1.394 . S
C666 H674 0.930 . S
C667 C666 1.394 . S
C667 C668 1.383 . S
C667 H675 0.929 . S
C668 C667 1.383 . S
C668 C669 1.377 . S
C669 H653 0.930 . S
C669 C668 1.377 . S
C669 C670 1.379 . S
C670 H654 0.931 . S
C670 C664 1.383 . S
C670 C669 1.379 . S
H671 C665 0.959 . S
H672 C665 0.961 . S
H673 C665 0.960 . S
H674 C666 0.930 . S
H675 C667 0.929 . S
H676 C684 0.929 . S
H677 C686 0.930 . S
H678 C688 0.930 . S
H679 C691 0.929 . S
H680 C694 0.930 . S
H681 C696 0.960 . S
H682 C696 0.960 . S
H683 C696 0.960 . S
C684 H676 0.929 . S
C684 C685 1.377 . S
C684 C686 1.384 . S
C685 C684 1.377 . S
C685 C691 1.390 . S
C686 H677 0.930 . S
C686 C684 1.384 . S
C686 C687 1.372 . S
C687 C686 1.372 . S
C687 C688 1.400 . S
C687 C692 1.490 . S
C688 H678 0.930 . S
C688 C687 1.400 . S
C688 C691 1.386 . S
H689 C705 0.930 . S
H690 C706 0.931 . S
C691 H679 0.929 . S
C691 C685 1.390 . S
C691 C688 1.386 . S
C692 C687 1.490 . S
C692 C694 1.395 . S
C692 C695 1.403 . S
H693 C699 0.930 . S
C694 H680 0.930 . S
C694 C692 1.395 . S
C694 C697 1.403 . S
C695 C692 1.403 . S
C695 C696 1.524 . S
C695 C699 1.400 . S
C696 H681 0.960 . S
C696 H682 0.960 . S
C696 H683 0.960 . S
C696 C695 1.524 . S
C697 C694 1.403 . S
C697 C698 1.392 . S
C697 C701 1.495 . S
C698 C697 1.392 . S
C698 C699 1.385 . S
C698 C700 1.478 . S
C699 H693 0.930 . S
C699 C695 1.400 . S
C699 C698 1.385 . S
C700 C698 1.478 . S
C700 C702 1.381 . S
C700 C706 1.383 . S
C701 C697 1.495 . S
C701 H707 0.959 . S
C701 H708 0.961 . S
C701 H709 0.960 . S
C702 C700 1.381 . S
C702 C703 1.394 . S
C702 H710 0.930 . S
C703 C702 1.394 . S
C703 C704 1.383 . S
C703 H711 0.929 . S
C704 C703 1.383 . S
C704 C705 1.377 . S
C705 H689 0.930 . S
C705 C704 1.377 . S
C705 C706 1.379 . S
C706 H690 0.931 . S
C706 C700 1.383 . S
C706 C705 1.379 . S
H707 C701 0.959 . S
H708 C701 0.961 . S
H709 C701 0.960 . S
H710 C702 0.930 . S
H711 C703 0.929 . S
H712 C720 0.929 . S
H713 C722 0.930 . S
H714 C724 0.930 . S
H715 C727 0.929 . S
H716 C730 0.930 . S
H717 C732 0.960 . S
H718 C732 0.960 . S
H719 C732 0.960 . S
C720 H712 0.929 . S
C720 C721 1.377 . S
C720 C722 1.384 . S
C721 C720 1.377 . S
C721 C727 1.390 . S
C722 H713 0.930 . S
C722 C720 1.384 . S
C722 C723 1.372 . S
C723 C722 1.372 . S
C723 C724 1.400 . S
C723 C728 1.490 . S
C724 H714 0.930 . S
C724 C723 1.400 . S
C724 C727 1.386 . S
H725 C741 0.930 . S
H726 C742 0.931 . S
C727 H715 0.929 . S
C727 C721 1.390 . S
C727 C724 1.386 . S
C728 C723 1.490 . S
C728 C730 1.395 . S
C728 C731 1.403 . S
H729 C735 0.930 . S
C730 H716 0.930 . S
C730 C728 1.395 . S
C730 C733 1.403 . S
C731 C728 1.403 . S
C731 C732 1.524 . S
C731 C735 1.400 . S
C732 H717 0.960 . S
C732 H718 0.960 . S
C732 H719 0.960 . S
C732 C731 1.524 . S
C733 C730 1.403 . S
C733 C734 1.392 . S
C733 C737 1.495 . S
C734 C733 1.392 . S
C734 C735 1.385 . S
C734 C736 1.478 . S
C735 H729 0.930 . S
C735 C731 1.400 . S
C735 C734 1.385 . S
C736 C734 1.478 . S
C736 C738 1.381 . S
C736 C742 1.383 . S
C737 C733 1.495 . S
C737 H743 0.959 . S
C737 H744 0.961 . S
C737 H745 0.960 . S
C738 C736 1.381 . S
C738 C739 1.394 . S
C738 H746 0.930 . S
C739 C738 1.394 . S
C739 C740 1.383 . S
C739 H747 0.929 . S
C740 C739 1.383 . S
C740 C741 1.377 . S
C741 H725 0.930 . S
C741 C740 1.377 . S
C741 C742 1.379 . S
C742 H726 0.931 . S
C742 C736 1.383 . S
C742 C741 1.379 . S
H743 C737 0.959 . S
H744 C737 0.961 . S
H745 C737 0.960 . S
H746 C738 0.930 . S
H747 C739 0.929 . S
H748 C756 0.929 . S
H749 C758 0.930 . S
H750 C760 0.930 . S
H751 C763 0.927 1_554 S
H752 C766 0.930 . S
H753 C768 0.960 . S
H754 C768 0.941 1_545 S
H755 C768 0.960 . S
C756 H748 0.929 . S
C756 C757 1.377 1_545 S
C756 C758 1.384 . S
C757 C756 1.377 1_565 S
C757 C763 1.390 . S
C758 H749 0.930 . S
C758 C756 1.384 . S
C758 C759 1.372 1_546 S
C759 C758 1.372 1_564 S
C759 C760 1.400 . S
C759 C764 1.490 . S
C760 H750 0.930 . S
C760 C759 1.400 . S
C760 C763 1.386 1_554 S
H761 C777 0.930 . S
H762 C778 0.931 . S
C763 H751 0.927 1_556 S
C763 C757 1.390 . S
C763 C760 1.386 1_556 S
C764 C759 1.490 . S
C764 C766 1.395 1_564 S
C764 C767 1.403 . S
H765 C771 0.930 . S
C766 H752 0.930 . S
C766 C764 1.395 1_546 S
C766 C769 1.403 . S
C767 C764 1.403 . S
C767 C768 1.524 . S
C767 C771 1.400 . S
C768 H753 0.960 . S
C768 H754 0.941 1_565 S
C768 H755 0.960 . S
C768 C767 1.524 . S
C769 C766 1.403 . S
C769 C770 1.392 1_556 S
C769 C773 1.495 . S
C770 C769 1.392 1_554 S
C770 C771 1.385 1_545 S
C770 C772 1.478 . S
C771 H765 0.930 . S
C771 C767 1.400 . S
C771 C770 1.385 1_565 S
C772 C770 1.478 . S
C772 C774 1.381 . S
C772 C778 1.383 1_545 S
C773 C769 1.495 . S
C773 H779 0.959 . S
C773 H780 0.961 . S
C773 H781 0.960 . S
C774 C772 1.381 . S
C774 C775 1.394 . S
C774 H782 0.930 . S
C775 C774 1.394 . S
C775 C776 1.383 . S
C775 H783 0.929 . S
C776 C775 1.383 . S
C776 C777 1.377 1_545 S
C777 H761 0.930 . S
C777 C776 1.377 1_565 S
C777 C778 1.379 . S
C778 H762 0.931 . S
C778 C772 1.383 1_565 S
C778 C777 1.379 . S
H779 C773 0.959 . S
H780 C773 0.961 . S
H781 C773 0.960 . S
H782 C774 0.930 . S
H783 C775 0.929 . S
H784 C792 0.929 . S
H785 C794 0.930 . S
H786 C796 0.930 . S
H787 C799 0.929 . S
H788 C802 0.930 . S
H789 C804 0.960 . S
H790 C804 0.960 . S
H791 C804 0.960 . S
C792 H784 0.929 . S
C792 C793 1.377 . S
C792 C794 1.384 . S
C793 C792 1.377 . S
C793 C799 1.390 . S
C794 H785 0.930 . S
C794 C792 1.384 . S
C794 C795 1.372 . S
C795 C794 1.372 . S
C795 C796 1.400 . S
C795 C800 1.490 . S
C796 H786 0.930 . S
C796 C795 1.400 . S
C796 C799 1.386 . S
H797 C813 0.930 . S
H798 C814 0.931 . S
C799 H787 0.929 . S
C799 C793 1.390 . S
C799 C796 1.386 . S
C800 C795 1.490 . S
C800 C802 1.395 . S
C800 C803 1.403 . S
H801 C807 0.930 . S
C802 H788 0.930 . S
C802 C800 1.395 . S
C802 C805 1.403 . S
C803 C800 1.403 . S
C803 C804 1.524 . S
C803 C807 1.400 . S
C804 H789 0.960 . S
C804 H790 0.960 . S
C804 H791 0.960 . S
C804 C803 1.524 . S
C805 C802 1.403 . S
C805 C806 1.392 . S
C805 C809 1.495 . S
C806 C805 1.392 . S
C806 C807 1.385 . S
C806 C808 1.478 . S
C807 H801 0.930 . S
C807 C803 1.400 . S
C807 C806 1.385 . S
C808 C806 1.478 . S
C808 C810 1.381 . S
C808 C814 1.383 . S
C809 C805 1.495 . S
C809 H815 0.959 . S
C809 H816 0.961 . S
C809 H817 0.960 . S
C810 C808 1.381 . S
C810 C811 1.394 . S
C810 H818 0.930 . S
C811 C810 1.394 . S
C811 C812 1.383 . S
C811 H819 0.929 . S
C812 C811 1.383 . S
C812 C813 1.377 . S
C813 H797 0.930 . S
C813 C812 1.377 . S
C813 C814 1.379 . S
C814 H798 0.931 . S
C814 C808 1.383 . S
C814 C813 1.379 . S
H815 C809 0.959 . S
H816 C809 0.961 . S
H817 C809 0.960 . S
H818 C810 0.930 . S
H819 C811 0.929 . S
H820 C828 0.929 . S
H821 C830 0.930 . S
H822 C832 0.930 . S
H823 C835 0.929 . S
H824 C838 0.930 . S
H825 C840 0.960 . S
H826 C840 0.960 . S
H827 C840 0.960 . S
C828 H820 0.929 . S
C828 C829 1.377 . S
C828 C830 1.384 . S
C829 C828 1.377 . S
C829 C835 1.390 . S
C830 H821 0.930 . S
C830 C828 1.384 . S
C830 C831 1.372 . S
C831 C830 1.372 . S
C831 C832 1.400 . S
C831 C836 1.490 . S
C832 H822 0.930 . S
C832 C831 1.400 . S
C832 C835 1.386 . S
H833 C849 0.930 . S
H834 C850 0.931 . S
C835 H823 0.929 . S
C835 C829 1.390 . S
C835 C832 1.386 . S
C836 C831 1.490 . S
C836 C838 1.395 . S
C836 C839 1.403 . S
H837 C843 0.930 . S
C838 H824 0.930 . S
C838 C836 1.395 . S
C838 C841 1.403 . S
C839 C836 1.403 . S
C839 C840 1.524 . S
C839 C843 1.400 . S
C840 H825 0.960 . S
C840 H826 0.960 . S
C840 H827 0.960 . S
C840 C839 1.524 . S
C841 C838 1.403 . S
C841 C842 1.392 . S
C841 C845 1.495 . S
C842 C841 1.392 . S
C842 C843 1.385 . S
C842 C844 1.478 . S
C843 H837 0.930 . S
C843 C839 1.400 . S
C843 C842 1.385 . S
C844 C842 1.478 . S
C844 C846 1.381 . S
C844 C850 1.383 . S
C845 C841 1.495 . S
C845 H851 0.959 . S
C845 H852 0.961 . S
C845 H853 0.960 . S
C846 C844 1.381 . S
C846 C847 1.394 . S
C846 H854 0.930 . S
C847 C846 1.394 . S
C847 C848 1.383 . S
C847 H855 0.929 . S
C848 C847 1.383 . S
C848 C849 1.377 . S
C849 H833 0.930 . S
C849 C848 1.377 . S
C849 C850 1.379 . S
C850 H834 0.931 . S
C850 C844 1.383 . S
C850 C849 1.379 . S
H851 C845 0.959 . S
H852 C845 0.961 . S
H853 C845 0.960 . S
H854 C846 0.930 . S
H855 C847 0.929 . S
H856 C864 0.929 . S
H857 C866 0.930 . S
H858 C868 0.930 . S
H859 C871 0.929 . S
H860 C874 0.930 . S
H861 C876 0.960 . S
H862 C876 0.960 . S
H863 C876 0.960 . S
C864 H856 0.929 . S
C864 C865 1.377 . S
C864 C866 1.384 . S
C865 C864 1.377 . S
C865 C871 1.390 . S
C866 H857 0.930 . S
C866 C864 1.384 . S
C866 C867 1.372 . S
C867 C866 1.372 . S
C867 C868 1.400 . S
C867 C872 1.490 . S
C868 H858 0.930 . S
C868 C867 1.400 . S
C868 C871 1.386 . S
H869 C885 0.930 . S
H870 C886 0.931 . S
C871 H859 0.929 . S
C871 C865 1.390 . S
C871 C868 1.386 . S
C872 C867 1.490 . S
C872 C874 1.395 . S
C872 C875 1.403 . S
H873 C879 0.930 . S
C874 H860 0.930 . S
C874 C872 1.395 . S
C874 C877 1.403 . S
C875 C872 1.403 . S
C875 C876 1.524 . S
C875 C879 1.400 . S
C876 H861 0.960 . S
C876 H862 0.960 . S
C876 H863 0.960 . S
C876 C875 1.524 . S
C877 C874 1.403 . S
C877 C878 1.392 . S
C877 C881 1.495 . S
C878 C877 1.392 . S
C878 C879 1.385 . S
C878 C880 1.478 . S
C879 H873 0.930 . S
C879 C875 1.400 . S
C879 C878 1.385 . S
C880 C878 1.478 . S
C880 C882 1.381 . S
C880 C886 1.383 . S
C881 C877 1.495 . S
C881 H887 0.959 . S
C881 H888 0.961 . S
C881 H889 0.960 . S
C882 C880 1.381 . S
C882 C883 1.394 . S
C882 H890 0.930 . S
C883 C882 1.394 . S
C883 C884 1.383 . S
C883 H891 0.929 . S
C884 C883 1.383 . S
C884 C885 1.377 . S
C885 H869 0.930 . S
C885 C884 1.377 . S
C885 C886 1.379 . S
C886 H870 0.931 . S
C886 C880 1.383 . S
C886 C885 1.379 . S
H887 C881 0.959 . S
H888 C881 0.961 . S
H889 C881 0.960 . S
H890 C882 0.930 . S
H891 C883 0.929 . S
H892 C900 0.929 1_554 S
H893 C902 0.930 1_554 S
H894 C904 0.930 . S
H895 C907 0.929 . S
H896 C910 0.930 . S
H897 C912 0.960 . S
H898 C912 0.960 . S
H899 C912 0.960 . S
C900 H892 0.929 1_556 S
C900 C901 1.377 . S
C900 C902 1.384 . S
C901 C900 1.377 . S
C901 C907 1.390 . S
C902 H893 0.930 1_556 S
C902 C900 1.384 . S
C902 C903 1.372 . S
C903 C902 1.372 . S
C903 C904 1.400 . S
C903 C908 1.490 . S
C904 H894 0.930 . S
C904 C903 1.400 . S
C904 C907 1.386 . S
H905 C921 0.930 . S
H906 C922 0.931 . S
C907 H895 0.929 . S
C907 C901 1.390 . S
C907 C904 1.386 . S
C908 C903 1.490 . S
C908 C910 1.395 . S
C908 C911 1.403 1_655 S
H909 C915 0.930 . S
C910 H896 0.930 . S
C910 C908 1.395 . S
C910 C913 1.403 . S
C911 C908 1.403 1_455 S
C911 C912 1.524 . S
C911 C915 1.400 . S
C912 H897 0.960 . S
C912 H898 0.960 . S
C912 H899 0.960 . S
C912 C911 1.524 . S
C913 C910 1.403 . S
C913 C914 1.411 . S
C913 C917 1.495 1_556 S
C914 C913 1.411 . S
C914 C915 1.372 1_655 S
C914 C916 1.471 1_655 S
C915 H909 0.930 . S
C915 C911 1.400 . S
C915 C914 1.372 1_455 S
C916 C914 1.471 1_455 S
C916 C918 1.381 1_556 S
C916 C922 1.383 . S
C917 C913 1.495 1_554 S
C917 H923 0.959 . S
C917 H924 0.961 1_554 S
C917 H925 0.960 . S
C918 C916 1.381 1_554 S
C918 C919 1.394 . S
C918 H926 0.930 . S
C919 C918 1.394 . S
C919 C920 1.383 1_554 S
C919 H927 0.929 . S
C920 C919 1.383 1_556 S
C920 C921 1.377 . S
C921 H905 0.930 . S
C921 C920 1.377 . S
C921 C922 1.379 . S
C922 H906 0.931 . S
C922 C916 1.383 . S
C922 C921 1.379 . S
H923 C917 0.959 . S
H924 C917 0.961 1_556 S
H925 C917 0.960 . S
H926 C918 0.930 . S
H927 C919 0.929 . S
H928 C936 0.929 . S
H929 C938 0.930 . S
H930 C940 0.930 . S
H931 C943 0.929 . S
H932 C946 0.930 . S
H933 C948 0.960 . S
H934 C948 0.960 . S
H935 C948 0.960 . S
C936 H928 0.929 . S
C936 C937 1.377 . S
C936 C938 1.384 . S
C937 C936 1.377 . S
C937 C943 1.390 . S
C938 H929 0.930 . S
C938 C936 1.384 . S
C938 C939 1.372 . S
C939 C938 1.372 . S
C939 C940 1.400 . S
C939 C944 1.490 . S
C940 H930 0.930 . S
C940 C939 1.400 . S
C940 C943 1.386 . S
H941 C957 0.930 . S
H942 C958 0.931 . S
C943 H931 0.929 . S
C943 C937 1.390 . S
C943 C940 1.386 . S
C944 C939 1.490 . S
C944 C946 1.395 . S
C944 C947 1.403 . S
H945 C951 0.930 . S
C946 H932 0.930 . S
C946 C944 1.395 . S
C946 C949 1.403 . S
C947 C944 1.403 . S
C947 C948 1.524 . S
C947 C951 1.400 . S
C948 H933 0.960 . S
C948 H934 0.960 . S
C948 H935 0.960 . S
C948 C947 1.524 . S
C949 C946 1.403 . S
C949 C950 1.392 . S
C949 C953 1.495 . S
C950 C949 1.392 . S
C950 C951 1.385 . S
C950 C952 1.478 . S
C951 H945 0.930 . S
C951 C947 1.400 . S
C951 C950 1.385 . S
C952 C950 1.478 . S
C952 C954 1.381 . S
C952 C958 1.383 . S
C953 C949 1.495 . S
C953 H959 0.959 . S
C953 H960 0.961 . S
C953 H961 0.960 . S
C954 C952 1.381 . S
C954 C955 1.394 . S
C954 H962 0.930 . S
C955 C954 1.394 . S
C955 C956 1.383 . S
C955 H963 0.929 . S
C956 C955 1.383 . S
C956 C957 1.377 . S
C957 H941 0.930 . S
C957 C956 1.377 . S
C957 C958 1.379 . S
C958 H942 0.931 . S
C958 C952 1.383 . S
C958 C957 1.379 . S
H959 C953 0.959 . S
H960 C953 0.961 . S
H961 C953 0.960 . S
H962 C954 0.930 . S
H963 C955 0.929 . S
H964 C972 0.929 . S
H965 C974 0.930 . S
H966 C976 0.930 . S
H967 C979 0.929 . S
H968 C982 0.930 . S
H969 C984 0.960 . S
H970 C984 0.960 . S
H971 C984 0.960 . S
C972 H964 0.929 . S
C972 C973 1.377 . S
C972 C974 1.384 . S
C973 C972 1.377 . S
C973 C979 1.390 . S
C974 H965 0.930 . S
C974 C972 1.384 . S
C974 C975 1.372 . S
C975 C974 1.372 . S
C975 C976 1.400 . S
C975 C980 1.490 . S
C976 H966 0.930 . S
C976 C975 1.400 . S
C976 C979 1.386 . S
H977 C993 0.930 . S
H978 C994 0.931 . S
C979 H967 0.929 . S
C979 C973 1.390 . S
C979 C976 1.386 . S
C980 C975 1.490 . S
C980 C982 1.395 . S
C980 C983 1.403 . S
H981 C987 0.930 . S
C982 H968 0.930 . S
C982 C980 1.395 . S
C982 C985 1.403 . S
C983 C980 1.403 . S
C983 C984 1.524 . S
C983 C987 1.400 . S
C984 H969 0.960 . S
C984 H970 0.960 . S
C984 H971 0.960 . S
C984 C983 1.524 . S
C985 C982 1.403 . S
C985 C986 1.392 . S
C985 C989 1.495 1_455 S
C986 C985 1.392 . S
C986 C987 1.385 . S
C986 C988 1.478 . S
C987 H981 0.930 . S
C987 C983 1.400 . S
C987 C986 1.385 . S
C988 C986 1.478 . S
C988 C990 1.381 . S
C988 C994 1.383 . S
C989 C985 1.495 1_655 S
C989 H995 0.959 . S
C989 H996 0.961 . S
C989 H997 0.960 . S
C990 C988 1.381 . S
C990 C991 1.394 . S
C990 H998 0.930 . S
C991 C990 1.394 . S
C991 C992 1.383 . S
C991 H999 0.929 1_455 S
C992 C991 1.383 . S
C992 C993 1.377 . S
C993 H977 0.930 . S
C993 C992 1.377 . S
C993 C994 1.379 . S
C994 H978 0.931 . S
C994 C988 1.383 . S
C994 C993 1.379 . S
H995 C989 0.959 . S
H996 C989 0.961 . S
H997 C989 0.960 . S
H998 C990 0.930 . S
H999 C991 0.929 1_655 S
H1000 C1008 0.929 . S
H1001 C1010 0.930 . S
H1002 C1012 0.930 . S
H1003 C1015 0.929 . S
H1004 C1018 0.930 . S
H1005 C1020 0.960 . S
H1006 C1020 0.960 . S
H1007 C1020 0.960 . S
C1008 H1000 0.929 . S
C1008 C1009 1.377 . S
C1008 C1010 1.384 . S
C1009 C1008 1.377 . S
C1009 C1015 1.390 . S
C1010 H1001 0.930 . S
C1010 C1008 1.384 . S
C1010 C1011 1.372 . S
C1011 C1010 1.372 . S
C1011 C1012 1.400 . S
C1011 C1016 1.490 . S
C1012 H1002 0.930 . S
C1012 C1011 1.400 . S
C1012 C1015 1.386 . S
H1013 C1029 0.930 . S
H1014 C1030 0.931 . S
C1015 H1003 0.929 . S
C1015 C1009 1.390 . S
C1015 C1012 1.386 . S
C1016 C1011 1.490 . S
C1016 C1018 1.395 . S
C1016 C1019 1.403 . S
H1017 C1023 0.930 . S
C1018 H1004 0.930 . S
C1018 C1016 1.395 . S
C1018 C1021 1.403 . S
C1019 C1016 1.403 . S
C1019 C1020 1.524 . S
C1019 C1023 1.400 . S
C1020 H1005 0.960 . S
C1020 H1006 0.960 . S
C1020 H1007 0.960 . S
C1020 C1019 1.524 . S
C1021 C1018 1.403 . S
C1021 C1022 1.392 . S
C1021 C1025 1.495 . S
C1022 C1021 1.392 . S
C1022 C1023 1.385 . S
C1022 C1024 1.478 . S
C1023 H1017 0.930 . S
C1023 C1019 1.400 . S
C1023 C1022 1.385 . S
C1024 C1022 1.478 . S
C1024 C1026 1.381 . S
C1024 C1030 1.383 . S
C1025 C1021 1.495 . S
C1025 H1031 0.959 . S
C1025 H1032 0.961 . S
C1025 H1033 0.960 . S
C1026 C1024 1.381 . S
C1026 C1027 1.394 . S
C1026 H1034 0.930 . S
C1027 C1026 1.394 . S
C1027 C1028 1.383 . S
C1027 H1035 0.929 . S
C1028 C1027 1.383 . S
C1028 C1029 1.377 . S
C1029 H1013 0.930 . S
C1029 C1028 1.377 . S
C1029 C1030 1.379 . S
C1030 H1014 0.931 . S
C1030 C1024 1.383 . S
C1030 C1029 1.379 . S
H1031 C1025 0.959 . S
H1032 C1025 0.961 . S
H1033 C1025 0.960 . S
H1034 C1026 0.930 . S
H1035 C1027 0.929 . S
C181 C4 1.756 . S
C200 C91 1.655 . S
C217 C16 1.884 . S
C236 C125 1.747 1_566 S
C272 C137 1.000 . S
C253 C32 1.023 . S
C289 C43 1.328 . S
C308 C171 1.255 1_655 S
C344 C128 1.943 . S
C325 C5 2.082 . S
C380 C108 1.213 . S
C361 C21 1.289 . S
C416 C155 1.254 . S
C397 C27 1.352 . S
C452 C146 1.306 . S
C433 C37 1.401 . S
C469 C10 1.586 . S
C488 C154 1.491 . S
C524 C116 1.521 . S
C505 C26 1.620 . S
C541 C38 1.231 . S
C560 C92 1.110 . S
C577 C15 1.705 . S
C596 C149 1.602 . S
C632 C107 1.838 . S
C613 C48 1.967 . S
C649 C59 1.678 . S
C668 C129 1.546 . S
C685 C76 1.467 . S
C704 C134 1.344 . S
C721 C87 1.265 . S
C740 C167 1.191 . S
C757 C54 1.470 . S
C776 C112 1.427 . S
C812 C104 1.914 . S
C793 C60 2.049 . S
C848 C158 1.373 . S
C829 C71 1.453 . S
C884 C150 1.332 . S
C865 C82 1.399 . S
C901 C49 1.863 . S
C920 C170 1.785 . S
C956 C113 1.246 . S
C937 C70 1.307 . S
C992 C95 1.526 . S
C973 C81 1.678 . S
C1009 C65 1.567 . S
C1028 C133 1.440 . S
