# Generated by pormake.
# Topology llj, (12,3)-cn, num edge types: 1
# Building blocks:
#     Node 0, Type 0, BuildingBlock: QEWDON_clean_sbu_0, # of connection points: 12
#     Node 1, Type 0, BuildingBlock: QEWDON_clean_sbu_0, # of connection points: 12
#     Node 2, Type 1, BuildingBlock: BETDIP_clean_linker_0, # of connection points: 3
#     Node 3, Type 1, BuildingBlock: BETDIP_clean_linker_0, # of connection points: 3
#     Node 4, Type 1, BuildingBlock: BETDIP_clean_linker_0, # of connection points: 3
#     Node 5, Type 1, BuildingBlock: BETDIP_clean_linker_0, # of connection points: 3
#     Node 6, Type 1, BuildingBlock: BETDIP_clean_linker_0, # of connection points: 3
#     Node 7, Type 1, BuildingBlock: BETDIP_clean_linker_0, # of connection points: 3
#     Node 8, Type 1, BuildingBlock: BETDIP_clean_linker_0, # of connection points: 3
#     Node 9, Type 1, BuildingBlock: BETDIP_clean_linker_0, # of connection points: 3
#     Edge 10, Type (0, 1), BuildingBlock: UVAHIK_clean_linker_0, # of connection points: 2
#     Edge 11, Type (0, 1), BuildingBlock: UVAHIK_clean_linker_0, # of connection points: 2
#     Edge 12, Type (0, 1), BuildingBlock: UVAHIK_clean_linker_0, # of connection points: 2
#     Edge 13, Type (0, 1), BuildingBlock: UVAHIK_clean_linker_0, # of connection points: 2
#     Edge 14, Type (0, 1), BuildingBlock: UVAHIK_clean_linker_0, # of connection points: 2
#     Edge 15, Type (0, 1), BuildingBlock: UVAHIK_clean_linker_0, # of connection points: 2
#     Edge 16, Type (0, 1), BuildingBlock: UVAHIK_clean_linker_0, # of connection points: 2
#     Edge 17, Type (0, 1), BuildingBlock: UVAHIK_clean_linker_0, # of connection points: 2
#     Edge 18, Type (0, 1), BuildingBlock: UVAHIK_clean_linker_0, # of connection points: 2
#     Edge 19, Type (0, 1), BuildingBlock: UVAHIK_clean_linker_0, # of connection points: 2
#     Edge 20, Type (0, 1), BuildingBlock: UVAHIK_clean_linker_0, # of connection points: 2
#     Edge 21, Type (0, 1), BuildingBlock: UVAHIK_clean_linker_0, # of connection points: 2
#     Edge 22, Type (0, 1), BuildingBlock: UVAHIK_clean_linker_0, # of connection points: 2
#     Edge 23, Type (0, 1), BuildingBlock: UVAHIK_clean_linker_0, # of connection points: 2
#     Edge 24, Type (0, 1), BuildingBlock: UVAHIK_clean_linker_0, # of connection points: 2
#     Edge 25, Type (0, 1), BuildingBlock: UVAHIK_clean_linker_0, # of connection points: 2
#     Edge 26, Type (0, 1), BuildingBlock: UVAHIK_clean_linker_0, # of connection points: 2
#     Edge 27, Type (0, 1), BuildingBlock: UVAHIK_clean_linker_0, # of connection points: 2
#     Edge 28, Type (0, 1), BuildingBlock: UVAHIK_clean_linker_0, # of connection points: 2
#     Edge 29, Type (0, 1), BuildingBlock: UVAHIK_clean_linker_0, # of connection points: 2
#     Edge 30, Type (0, 1), BuildingBlock: UVAHIK_clean_linker_0, # of connection points: 2
#     Edge 31, Type (0, 1), BuildingBlock: UVAHIK_clean_linker_0, # of connection points: 2
#     Edge 32, Type (0, 1), BuildingBlock: UVAHIK_clean_linker_0, # of connection points: 2
#     Edge 33, Type (0, 1), BuildingBlock: UVAHIK_clean_linker_0, # of connection points: 2
# Relax obj value: 0.010
# Max RMSD: 0.108
# Mean RMSD: 0.092
data_MOF--net-llj--node1-QEWDON_clean_sbu_0--node2-BETDIP_clean_linker_0--edge1-UVAHIK_clean_linker_0
_symmetry_space_group_name_H-M    P1
_symmetry_Int_Tables_number       1
_symmetry_cell_setting            triclinic
loop_
_symmetry_equiv_pos_as_xyz
'x, y, z'
_cell_length_a     49.661569
_cell_length_b     49.666949
_cell_length_c     31.116855
_cell_angle_alpha  90.34754
_cell_angle_beta   90.942978
_cell_angle_gamma 90.382685
loop_
_atom_site_label
_atom_site_type_symbol
_atom_site_fract_x
_atom_site_fract_y
_atom_site_fract_z
_atom_type_partial_charge
Zn0 Zn 0.9478 0.05928 0.96824 0.0
Zn1 Zn 0.95969 0.05838 0.06703 0.0
O2 O 0.97885 0.05919 0.01147 0.0
H3 H 0.99684 0.05296 0.00596 0.0
C4 C 0.93042 0.99347 0.8977 0.0
O5 O 0.92625 0.00642 0.93389 0.0
Zn6 Zn 0.0424 0.94874 0.06962 0.0
Zn7 Zn 0.04592 0.94292 0.9668 0.0
O8 O 0.02189 0.95496 0.01494 0.0
H9 H 0.0079 0.96817 0.01122 0.0
Zn10 Zn 0.9468 0.95436 0.95978 0.0
O11 O 0.95271 0.98182 0.00702 0.0
Zn12 Zn 0.94729 0.96144 0.06104 0.0
H13 H 0.96343 0.99803 0.00402 0.0
Zn14 Zn 0.05993 0.05369 0.97419 0.0
O15 O 0.05373 0.02505 0.01908 0.0
H16 H 0.04379 0.00851 0.01411 0.0
Zn17 Zn 0.05479 0.04519 0.07411 0.0
C18 C 0.06892 0.01476 0.90698 0.0
O19 O 0.05482 0.00011 0.93358 0.0
O20 O 0.91349 0.07692 0.99209 0.0
O21 O 0.92435 0.07825 0.06171 0.0
O22 O 0.0785 0.92077 0.98749 0.0
O23 O 0.07482 0.92468 0.0585 0.0
O24 O 0.92488 0.92152 0.97926 0.0
O25 O 0.92505 0.92727 0.05024 0.0
C26 C 0.00793 0.07096 0.11263 0.0
O27 O 0.07869 0.08764 -0.00094 0.0
O28 O 0.07664 0.0799 0.06927 0.0
O29 O 0.02685 0.93286 0.90912 0.0
C30 C 0.90816 0.08354 0.03069 0.0
O31 O 0.95907 0.06801 0.90616 0.0
C32 C 0.99255 0.93554 0.10939 0.0
O33 O 0.93949 0.96965 0.89915 0.0
C34 C 0.08674 0.91544 0.0255 0.0
O35 O 0.07353 0.03934 0.91607 0.0
C36 C 0.93316 0.01059 0.10197 0.0
O37 O 0.9831 0.07671 0.11219 0.0
O38 O 0.01633 0.05346 0.08636 0.0
C39 C 0.91795 0.91398 0.01658 0.0
O40 O 0.01754 0.93045 0.11209 0.0
O41 O 0.98458 0.95237 0.08158 0.0
C42 C 0.06915 0.99643 0.11844 0.0
O43 O 0.92747 0.98565 0.10145 0.0
O44 O 0.95234 0.01924 0.07928 0.0
C45 C 0.08415 0.09441 0.03784 0.0
O46 O 0.07204 0.02186 0.11905 0.0
O47 O 0.05377 0.98602 0.08968 0.0
C48 C 0.00248 0.92502 0.91041 0.0
O49 O 0.99084 0.92311 0.94789 0.0
C50 C 0.97889 0.05519 0.89113 0.0
O51 O 0.9903 0.03647 0.91473 0.0
Zn52 Zn 0.44 0.55354 0.44568 0.0
Zn53 Zn 0.44772 0.5558 0.54646 0.0
O54 O 0.46863 0.55675 0.49256 0.0
H55 H 0.4872 0.56217 0.48932 0.0
C56 C 0.42504 0.48563 0.41246 0.0
O57 O 0.41937 0.49481 0.45095 0.0
Zn58 Zn 0.55195 0.44099 0.55201 0.0
Zn59 Zn 0.56234 0.44027 0.45229 0.0
O60 O 0.53245 0.43946 0.4958 0.0
H61 H 0.51345 0.43636 0.49051 0.0
Zn62 Zn 0.45415 0.44995 0.46693 0.0
O63 O 0.46426 0.47837 0.51102 0.0
Zn64 Zn 0.4621 0.45915 0.56682 0.0
H65 H 0.47573 0.49365 0.50512 0.0
Zn66 Zn 0.54773 0.54737 0.47205 0.0
O67 O 0.53662 0.51912 0.51464 0.0
H68 H 0.52573 0.50354 0.50726 0.0
Zn69 Zn 0.53748 0.5385 0.57071 0.0
C70 C 0.57771 0.51085 0.42087 0.0
O71 O 0.58204 0.5014 0.45972 0.0
O72 O 0.40339 0.56826 0.46514 0.0
O73 O 0.40979 0.56906 0.53607 0.0
O74 O 0.59792 0.42438 0.47621 0.0
O75 O 0.5896 0.42649 0.54619 0.0
O76 O 0.4332 0.41833 0.49304 0.0
O77 O 0.43597 0.42727 0.56315 0.0
C78 C 0.49122 0.57239 0.59641 0.0
O79 O 0.56774 0.57936 0.50042 0.0
O80 O 0.56384 0.5704 0.57006 0.0
O81 O 0.55009 0.43238 0.38953 0.0
C82 C 0.39495 0.57303 0.50289 0.0
O83 O 0.45318 0.56183 0.38439 0.0
C84 C 0.50737 0.42533 0.59771 0.0
O85 O 0.44014 0.46521 0.40923 0.0
C86 C 0.60509 0.42062 0.51526 0.0
O87 O 0.56334 0.53172 0.41633 0.0
C88 C 0.4468 0.5097 0.60468 0.0
O89 O 0.46696 0.57938 0.59023 0.0
O90 O 0.49975 0.55201 0.57607 0.0
C91 C 0.42723 0.41283 0.53173 0.0
O92 O 0.53164 0.41807 0.59402 0.0
O93 O 0.49946 0.44551 0.57627 0.0
C94 C 0.55193 0.48781 0.60966 0.0
O95 O 0.4515 0.48527 0.6137 0.0
O96 O 0.44838 0.51738 0.56603 0.0
C97 C 0.57302 0.5849 0.53974 0.0
O98 O 0.54706 0.51232 0.61823 0.0
O99 O 0.55129 0.47983 0.57087 0.0
C100 C 0.53094 0.44641 0.37422 0.0
O101 O 0.52104 0.46589 0.39785 0.0
C102 C 0.47502 0.55083 0.37324 0.0
O103 O 0.48685 0.53397 0.39978 0.0
H104 H 0.33564 0.29538 0.93284 0.0
H105 H 0.34874 0.30987 0.06841 0.0
H106 H 0.40184 0.34511 0.9769 0.0
H107 H 0.32097 0.27589 0.07745 0.0
C108 C 0.30803 0.27388 0.04917 0.0
C109 C 0.34736 0.30437 0.95896 0.0
C110 C 0.36957 0.32085 0.9499 0.0
C111 C 0.33967 0.29998 0.00154 0.0
C112 C 0.35454 0.31235 0.03534 0.0
C113 C 0.37724 0.32827 0.02654 0.0
C114 C 0.38458 0.33245 0.98382 0.0
N115 N 0.3164 0.28386 0.00873 0.0
H116 H 0.67175 0.31439 0.94895 0.0
H117 H 0.68468 0.33327 0.08279 0.0
H118 H 0.626 0.37694 0.00935 0.0
H119 H 0.72185 0.31126 0.07674 0.0
C120 C 0.71902 0.29634 0.05145 0.0
C121 C 0.66703 0.32636 0.97703 0.0
C122 C 0.64718 0.34633 0.97438 0.0
C123 C 0.68083 0.32154 0.01584 0.0
C124 C 0.67447 0.33682 0.0525 0.0
C125 C 0.65478 0.35695 0.05042 0.0
C126 C 0.64122 0.36146 0.01125 0.0
N127 N 0.70036 0.30071 0.01706 0.0
H128 H 0.64942 0.69823 0.07409 0.0
H129 H 0.65816 0.71008 0.93805 0.0
H130 H 0.59753 0.65631 0.98319 0.0
H131 H 0.67936 0.74702 0.95695 0.0
C132 C 0.689 0.74341 0.9879 0.0
C133 C 0.64277 0.69409 0.04136 0.0
C134 C 0.62183 0.67541 0.0331 0.0
C135 C 0.65567 0.70726 0.00758 0.0
C136 C 0.64781 0.70124 0.96485 0.0
C137 C 0.6271 0.68264 0.95616 0.0
C138 C 0.61407 0.67006 0.99027 0.0
N139 N 0.67724 0.72538 0.01765 0.0
H140 H 0.31678 0.67655 0.9407 0.0
H141 H 0.30495 0.6566 0.07349 0.0
H142 H 0.36494 0.61548 0.00129 0.0
H143 H 0.26937 0.68096 0.06951 0.0
C144 C 0.27059 0.69456 0.0425 0.0
C145 C 0.32197 0.66462 0.96864 0.0
C146 C 0.34252 0.64539 0.96629 0.0
C147 C 0.30822 0.66891 0.00704 0.0
C148 C 0.31519 0.65364 0.04355 0.0
C149 C 0.33558 0.63421 0.0417 0.0
C150 C 0.34913 0.63035 0.00297 0.0
N151 N 0.28818 0.68927 0.00787 0.0
H152 H 0.81877 0.7979 0.43729 0.0
H153 H 0.83054 0.80621 0.5741 0.0
H154 H 0.87687 0.85466 0.48821 0.0
H155 H 0.81031 0.7666 0.57681 0.0
C156 C 0.79586 0.76619 0.55027 0.0
C157 C 0.82902 0.80728 0.46459 0.0
C158 C 0.84868 0.82717 0.45792 0.0
C159 C 0.82223 0.79956 0.50633 0.0
C160 C 0.83554 0.81186 0.54172 0.0
C161 C 0.85555 0.83156 0.53554 0.0
C162 C 0.8617 0.83929 0.49347 0.0
N163 N 0.80138 0.78008 0.51149 0.0
H164 H 0.216 0.84904 0.59282 0.0
H165 H 0.21547 0.83887 0.45544 0.0
H166 H 0.17877 0.90825 0.51108 0.0
H167 H 0.24757 0.81 0.46752 0.0
C168 C 0.24337 0.80103 0.49842 0.0
C169 C 0.21092 0.85648 0.56105 0.0
C170 C 0.19684 0.88076 0.55638 0.0
C171 C 0.21824 0.84143 0.52499 0.0
C172 C 0.21101 0.85062 0.48374 0.0
C173 C 0.19722 0.87492 0.47859 0.0
C174 C 0.19044 0.89003 0.51498 0.0
N175 N 0.23128 0.81638 0.53146 0.0
H176 H 0.15536 0.20214 0.5971 0.0
H177 H 0.17099 0.20693 0.4614 0.0
H178 H 0.10562 0.15846 0.50575 0.0
H179 H 0.19368 0.24315 0.47838 0.0
C180 C 0.20137 0.24106 0.511 0.0
C181 C 0.15033 0.19665 0.56415 0.0
C182 C 0.12853 0.1792 0.55533 0.0
C183 C 0.16543 0.20748 0.53062 0.0
C184 C 0.15901 0.19996 0.48784 0.0
C185 C 0.13755 0.18222 0.47885 0.0
C186 C 0.12228 0.17213 0.51266 0.0
N187 N 0.18739 0.22502 0.54117 0.0
H188 H 0.78913 0.16663 0.43564 0.0
H189 H 0.8033 0.15228 0.57021 0.0
H190 H 0.84768 0.10834 0.47577 0.0
H191 H 0.77608 0.18548 0.58223 0.0
C192 C 0.77072 0.19549 0.55248 0.0
C193 C 0.79942 0.15574 0.46108 0.0
C194 C 0.81872 0.13646 0.45082 0.0
C195 C 0.79418 0.16214 0.50392 0.0
C196 C 0.80768 0.14817 0.53697 0.0
C197 C 0.82691 0.12847 0.52717 0.0
C198 C 0.83249 0.123 0.4839 0.0
N199 N 0.77635 0.18374 0.5119 0.0
C200 C 0.10931 0.13475 0.01169 0.0
C201 C 0.10145 0.11839 0.04606 0.0
C202 C 0.1283 0.15527 0.01801 0.0
C203 C 0.18593 0.17244 0.08746 0.0
H204 H 0.18408 0.23958 0.02453 0.0
C205 C 0.27492 0.24827 0.09271 0.0
C206 C 0.28228 0.25901 0.05293 0.0
C207 C 0.25087 0.23375 0.09662 0.0
C208 C 0.18495 0.22087 0.04217 0.0
H209 H 0.10628 0.11186 0.11469 0.0
H210 H 0.1396 0.14782 0.12564 0.0
H211 H 0.14445 0.21027 0.02405 0.0
H212 H 0.27009 0.26327 0.98604 0.0
H213 H 0.22838 0.23772 0.99267 0.0
H214 H 0.22666 0.18262 0.10454 0.0
C215 C 0.13122 0.14445 0.09369 0.0
C216 C 0.16222 0.20412 0.04199 0.0
C217 C 0.11204 0.12394 0.08742 0.0
C218 C 0.265 0.25526 0.01718 0.0
C219 C 0.24095 0.24078 0.02108 0.0
C220 C 0.20867 0.18918 0.0876 0.0
C221 C 0.13998 0.15994 0.05883 0.0
C222 C 0.16265 0.17944 0.06385 0.0
C223 C 0.23364 0.22975 0.06079 0.0
C224 C 0.20864 0.21331 0.06418 0.0
H225 H 0.10148 0.13117 0.97945 0.0
H226 H 0.13476 0.16665 0.99039 0.0
H227 H 0.18705 0.15341 0.10417 0.0
H228 H 0.28787 0.25099 0.12079 0.0
H229 H 0.24571 0.22575 0.12774 0.0
C230 C 0.86537 0.10532 0.00583 0.0
C231 C 0.88373 0.09945 0.03929 0.0
C232 C 0.84418 0.12309 0.01261 0.0
C233 C 0.82888 0.18163 0.07786 0.0
H234 H 0.75729 0.17401 0.02747 0.0
C235 C 0.75099 0.2665 0.09034 0.0
C236 C 0.73536 0.27166 0.0534 0.0
C237 C 0.76676 0.24339 0.09287 0.0
C238 C 0.77727 0.17653 0.04144 0.0
H239 H 0.89319 0.10637 0.10688 0.0
H240 H 0.85617 0.13744 0.11856 0.0
H241 H 0.78836 0.13613 0.02523 0.0
H242 H 0.72381 0.25677 0.99003 0.0
H243 H 0.75196 0.21683 0.9938 0.0
H244 H 0.81842 0.22223 0.09255 0.0
C245 C 0.85842 0.12849 0.087 0.0
C246 C 0.79497 0.15479 0.04034 0.0
C247 C 0.87955 0.1106 0.0803 0.0
C248 C 0.73561 0.25325 0.01901 0.0
C249 C 0.75158 0.23024 0.02135 0.0
C250 C 0.8113 0.20341 0.07865 0.0
C251 C 0.84096 0.13543 0.05291 0.0
C252 C 0.82107 0.15726 0.05805 0.0
C253 C 0.76744 0.22507 0.05825 0.0
C254 C 0.78539 0.20126 0.05993 0.0
H255 H 0.86789 0.09695 0.97394 0.0
H256 H 0.83113 0.1282 0.98567 0.0
H257 H 0.84904 0.18427 0.09114 0.0
H258 H 0.75096 0.28034 0.11739 0.0
H259 H 0.77838 0.23986 0.12202 0.0
C260 C 0.88992 0.87734 0.98297 0.0
C261 C 0.89968 0.89043 0.0203 0.0
C262 C 0.87048 0.85707 0.98552 0.0
C263 C 0.81614 0.83365 0.05527 0.0
H264 H 0.81159 0.77633 0.97018 0.0
C265 C 0.72617 0.7579 0.03915 0.0
C266 C 0.71498 0.75699 -0.00263 0.0
C267 C 0.75082 0.77104 0.04704 0.0
C268 C 0.81269 0.79217 0.99426 0.0
H269 H 0.89767 0.8914 0.08993 0.0
H270 H 0.86389 0.85554 0.09439 0.0
H271 H 0.85239 0.80378 0.97613 0.0
H272 H 0.72061 0.76876 0.93124 0.0
H273 H 0.76384 0.79122 0.94481 0.0
H274 H 0.77617 0.82196 0.07299 0.0
C275 C 0.87095 0.86143 0.06305 0.0
C276 C 0.83598 0.80797 -0.00241 0.0
C277 C 0.8904 0.88188 0.06049 0.0
C278 C 0.72885 0.76919 0.9637 0.0
C279 C 0.75362 0.78186 0.97141 0.0
C280 C 0.79293 0.81757 0.05228 0.0
C281 C 0.86039 0.84913 0.02548 0.0
C282 C 0.83764 0.82952 0.0271 0.0
C283 C 0.76482 0.78296 0.01312 0.0
C284 C 0.7907 0.79727 0.02081 0.0
H285 H 0.89658 0.88334 0.95145 0.0
H286 H 0.86258 0.84844 0.95582 0.0
H287 H 0.81658 0.85019 0.07811 0.0
H288 H 0.71581 0.74871 0.06575 0.0
H289 H 0.75906 0.77168 0.07948 0.0
C290 C 0.11524 0.88535 0.07175 0.0
C291 C 0.10954 0.89668 0.03132 0.0
C292 C 0.13489 0.86548 0.07613 0.0
C293 C 0.19369 0.83525 0.02399 0.0
H294 H 0.1712 0.76994 0.08129 0.0
C295 C 0.25162 0.73564 0.00673 0.0
C296 C 0.25349 0.71878 0.04269 0.0
C297 C 0.23533 0.75847 0.00765 0.0
C298 C 0.17804 0.78815 0.06581 0.0
H299 H 0.12099 0.89701 0.96429 0.0
H300 H 0.15535 0.86255 0.97211 0.0
H301 H 0.14155 0.80879 0.08023 0.0
H302 H 0.24018 0.71256 0.10779 0.0
H303 H 0.21222 0.75274 0.10989 0.0
H304 H 0.23019 0.8147 0.00956 0.0
C305 C 0.14457 0.86896 0.00034 0.0
C306 C 0.16102 0.81042 0.06521 0.0
C307 C 0.12477 0.88861 0.99584 0.0
C308 C 0.23894 0.7252 0.07958 0.0
C309 C 0.22283 0.74813 0.08065 0.0
C310 C 0.21084 0.81306 0.0249 0.0
C311 C 0.14945 0.85681 0.04031 0.0
C312 C 0.16853 0.83407 0.04386 0.0
C313 C 0.22075 0.76503 0.04464 0.0
C314 C 0.20309 0.78911 0.04537 0.0
H315 H 0.10396 0.89117 0.09978 0.0
H316 H 0.13847 0.85663 0.10742 0.0
H317 H 0.2001 0.85334 0.00768 0.0
H318 H 0.26251 0.73113 0.97773 0.0
H319 H 0.23385 0.77074 0.97906 0.0
C320 C 0.60316 0.61133 0.59071 0.0
C321 C 0.5913 0.60789 0.54965 0.0
C322 C 0.62271 0.63141 0.59802 0.0
C323 C 0.65143 0.69393 0.55211 0.0
H324 H 0.71886 0.66966 0.60251 0.0
C325 C 0.75182 0.74808 0.52112 0.0
C326 C 0.77093 0.75005 0.55478 0.0
C327 C 0.72836 0.73279 0.52601 0.0
C328 C 0.70006 0.67697 0.58904 0.0
H329 H 0.58948 0.62393 0.4849 0.0
H330 H 0.62323 0.65867 0.49766 0.0
H331 H 0.67939 0.64016 0.60328 0.0
H332 H 0.78045 0.73788 0.61993 0.0
H333 H 0.73932 0.71127 0.62868 0.0
H334 H 0.67215 0.73048 0.537 0.0
C335 C 0.61758 0.64593 0.52422 0.0
C336 C 0.67742 0.66006 0.58958 0.0
C337 C 0.59834 0.62582 0.51683 0.0
C338 C 0.76607 0.73657 0.59343 0.0
C339 C 0.74258 0.72127 0.59836 0.0
C340 C 0.674 0.71084 0.55168 0.0
C341 C 0.63041 0.64863 0.56457 0.0
C342 C 0.65306 0.66809 0.57013 0.0
C343 C 0.72344 0.71918 0.56467 0.0
C344 C 0.69878 0.70231 0.56915 0.0
H345 H 0.59805 0.59797 0.61677 0.0
H346 H 0.63209 0.63321 0.62959 0.0
H347 H 0.63281 0.70083 0.53745 0.0
H348 H 0.755 0.75821 0.49088 0.0
H349 H 0.71429 0.73124 0.49913 0.0
C350 C 0.35442 0.59587 0.47211 0.0
C351 C 0.36858 0.5861 0.50815 0.0
C352 C 0.33232 0.61267 0.4773 0.0
C353 C 0.30975 0.66237 0.55522 0.0
H354 H 0.2539 0.67335 0.46868 0.0
C355 C 0.24911 0.76074 0.54591 0.0
C356 C 0.25037 0.77259 0.5051 0.0
C357 C 0.25664 0.73392 0.55155 0.0
C358 C 0.26924 0.67037 0.49331 0.0
H359 H 0.36888 0.58386 0.57783 0.0
H360 H 0.32993 0.6128 0.58681 0.0
H361 H 0.27842 0.63089 0.47021 0.0
H362 H 0.25959 0.76582 0.43817 0.0
H363 H 0.27273 0.71897 0.44793 0.0
H364 H 0.30122 0.70221 0.57729 0.0
C365 C 0.33642 0.60811 0.55457 0.0
C366 C 0.28331 0.64614 0.49416 0.0
C367 C 0.35869 0.59147 0.5494 0.0
C368 C 0.25854 0.75709 0.46993 0.0
C369 C 0.26577 0.73025 0.47545 0.0
C370 C 0.29552 0.68648 0.55459 0.0
C371 C 0.32373 0.61985 0.51864 0.0
C372 C 0.30453 0.64235 0.52394 0.0
C373 C 0.26519 0.71851 0.51638 0.0
C374 C 0.27594 0.69111 0.52252 0.0
H375 H 0.36137 0.59196 0.43986 0.0
H376 H 0.32324 0.62148 0.44887 0.0
H377 H 0.32615 0.66035 0.5783 0.0
H378 H 0.2428 0.77226 0.5736 0.0
H379 H 0.25606 0.7253 0.58342 0.0
C380 C 0.39967 0.37386 0.50488 0.0
C381 C 0.40884 0.38983 0.53962 0.0
C382 C 0.38073 0.35351 0.51089 0.0
C383 C 0.32547 0.33457 0.58088 0.0
H384 H 0.32529 0.27069 0.5085 0.0
C385 C 0.23558 0.25817 0.56547 0.0
C386 C 0.22701 0.25472 0.52248 0.0
C387 C 0.25992 0.27149 0.57514 0.0
C388 C 0.32517 0.28833 0.52916 0.0
H389 H 0.40606 0.39606 0.60852 0.0
H390 H 0.37274 0.3602 0.61904 0.0
H391 H 0.36561 0.2989 0.51353 0.0
H392 H 0.23695 0.26215 0.45611 0.0
H393 H 0.27961 0.28483 0.47287 0.0
H394 H 0.28465 0.32408 0.59559 0.0
C395 C 0.38014 0.36378 0.58702 0.0
C396 C 0.34819 0.30453 0.53198 0.0
C397 C 0.39927 0.38425 0.58099 0.0
C398 C 0.24316 0.26453 0.48947 0.0
C399 C 0.26761 0.27734 0.49905 0.0
C400 C 0.30246 0.31814 0.57839 0.0
C401 C 0.37042 0.34842 0.55185 0.0
C402 C 0.34823 0.32845 0.55639 0.0
C403 C 0.27622 0.281 0.54192 0.0
C404 C 0.30182 0.29548 0.55116 0.0
H405 H 0.40661 0.37746 0.47258 0.0
H406 H 0.37339 0.34244 0.48292 0.0
H407 H 0.32477 0.35291 0.59981 0.0
H408 H 0.2234 0.25088 0.59156 0.0
H409 H 0.26614 0.27417 0.60843 0.0
C410 C 0.6379 0.40072 0.56782 0.0
C411 C 0.63045 0.4063 0.52499 0.0
C412 C 0.65896 0.38307 0.57695 0.0
C413 C 0.71517 0.34494 0.52848 0.0
H414 H 0.69261 0.28878 0.60645 0.0
C415 C 0.75301 0.23681 0.51653 0.0
C416 C 0.75835 0.2224 0.55439 0.0
C417 C 0.74174 0.26238 0.51844 0.0
C418 C 0.69952 0.30453 0.58529 0.0
H419 H 0.64075 0.39951 0.4583 0.0
H420 H 0.67719 0.36852 0.4742 0.0
H421 H 0.66623 0.3297 0.60027 0.0
H422 H 0.75637 0.22338 0.62383 0.0
H423 H 0.73633 0.26832 0.62723 0.0
H424 H 0.74785 0.31913 0.51222 0.0
C425 C 0.66688 0.37785 0.50078 0.0
C426 C 0.68444 0.32803 0.58178 0.0
C427 C 0.64584 0.39551 0.49163 0.0
C428 C 0.75231 0.23409 0.59421 0.0
C429 C 0.74087 0.25972 0.59613 0.0
C430 C 0.73023 0.32141 0.53196 0.0
C431 C 0.67301 0.37069 0.54347 0.0
C432 C 0.69165 0.34815 0.55241 0.0
C433 C 0.73551 0.27411 0.55821 0.0
C434 C 0.72208 0.30063 0.55943 0.0
H435 H 0.62669 0.40896 0.59436 0.0
H436 H 0.66356 0.37832 0.61019 0.0
H437 H 0.72146 0.36028 0.5061 0.0
H438 H 0.75744 0.2284 0.48527 0.0
H439 H 0.73735 0.27274 0.48863 0.0
C440 C 0.02721 0.11341 0.14344 0.0
C441 C 0.02669 0.0852 0.14186 0.0
C442 C 0.04427 0.12687 0.1727 0.0
C443 C 0.10157 0.11615 0.25009 0.0
H444 H 0.06953 0.17604 0.31079 0.0
C445 C 0.12856 0.14629 0.42402 0.0
C446 C 0.13109 0.17376 0.43422 0.0
C447 C 0.12056 0.13813 0.38276 0.0
C448 C 0.07897 0.15966 0.29363 0.0
H449 H 0.04263 0.04883 0.16979 0.0
H450 H 0.07211 0.07204 0.22145 0.0
H451 H 0.04644 0.15681 0.2481 0.0
H452 H 0.12792 0.21428 0.40941 0.0
H453 H 0.11325 0.19995 0.33703 0.0
H454 H 0.13331 0.11814 0.29755 0.0
C455 C 0.0603 0.08398 0.19918 0.0
C456 C 0.06579 0.14865 0.25758 0.0
C457 C 0.04347 0.0706 0.1696 0.0
C458 C 0.12616 0.19297 0.40216 0.0
C459 C 0.11771 0.1848 0.36097 0.0
C460 C 0.11457 0.12696 0.28648 0.0
C461 C 0.06072 0.11231 0.20146 0.0
C462 C 0.07658 0.12631 0.23598 0.0
C463 C 0.11458 0.1573 0.35107 0.0
C464 C 0.10306 0.14841 0.30913 0.0
H465 H 0.01438 0.125 0.12209 0.0
H466 H 0.04433 0.14867 0.17312 0.0
H467 H 0.11078 0.09936 0.23366 0.0
H468 H 0.13241 0.13113 0.44821 0.0
H469 H 0.11803 0.11681 0.37612 0.0
C470 C 0.92904 0.04853 0.1535 0.0
C471 C 0.91665 0.0293 0.12664 0.0
C472 C 0.9135 0.06564 0.17848 0.0
C473 C 0.84825 0.06719 0.23047 0.0
H474 H 0.87255 0.13895 0.26307 0.0
C475 C 0.80477 0.12372 0.37574 0.0
C476 C 0.82518 0.13082 0.40555 0.0
C477 C 0.81132 0.11642 0.33374 0.0
C478 C 0.86536 0.11905 0.25391 0.0
H479 H 0.87857 0.01278 0.10377 0.0
H480 H 0.85111 0.04294 0.14734 0.0
H481 H 0.89234 0.1165 0.20115 0.0
H482 H 0.86804 0.13736 0.41475 0.0
H483 H 0.87951 0.12481 0.34138 0.0
H484 H 0.82194 0.06942 0.2841 0.0
C485 C 0.87284 0.04476 0.14934 0.0
C486 C 0.87673 0.10617 0.21867 0.0
C487 C 0.88847 0.02753 0.12451 0.0
C488 C 0.85203 0.1317 0.39234 0.0
C489 C 0.85851 0.12483 0.35031 0.0
C490 C 0.83671 0.08019 0.26545 0.0
C491 C 0.88522 0.06375 0.17708 0.0
C492 C 0.86916 0.07963 0.20782 0.0
C493 C 0.8383 0.11664 0.32085 0.0
C494 C 0.84599 0.10575 0.27855 0.0
H495 H 0.95074 0.04951 0.15663 0.0
H496 H 0.92374 0.07951 0.20033 0.0
H497 H 0.84209 0.04669 0.2232 0.0
H498 H 0.78392 0.1229 0.38536 0.0
H499 H 0.7954 0.11014 0.31158 0.0
C500 C 0.97521 0.8935 0.14298 0.0
C501 C 0.97333 0.92138 0.13691 0.0
C502 C 0.95773 0.88031 0.17081 0.0
C503 C 0.89504 0.89011 0.23433 0.0
H504 H 0.92682 0.8353 0.30705 0.0
C505 C 0.85716 0.86239 0.40265 0.0
C506 C 0.85645 0.83508 0.41402 0.0
C507 C 0.86744 0.87027 0.36312 0.0
C508 C 0.91751 0.85025 0.28653 0.0
H509 H 0.95265 0.95752 0.15594 0.0
H510 H 0.92241 0.9349 0.20507 0.0
H511 H 0.95273 0.85407 0.24857 0.0
H512 H 0.86518 0.79452 0.39279 0.0
H513 H 0.88371 0.80838 0.32365 0.0
H514 H 0.86035 0.88718 0.27425 0.0
C515 C 0.93649 0.92283 0.18719 0.0
C516 C 0.93233 0.861 0.25284 0.0
C517 C 0.95374 0.93588 0.15894 0.0
C518 C 0.86538 0.81568 0.38458 0.0
C519 C 0.8761 0.82361 0.34526 0.0
C520 C 0.88038 0.8796 0.26844 0.0
C521 C 0.93838 0.89487 0.19384 0.0
C522 C 0.92149 0.88145 0.22675 0.0
C523 C 0.87759 0.85102 0.33447 0.0
C524 C 0.89165 0.85988 0.29528 0.0
H525 H 0.99022 0.88193 0.12619 0.0
H526 H 0.95955 0.85874 0.17452 0.0
H527 H 0.88577 0.90536 0.21438 0.0
H528 H 0.85033 0.87769 0.42483 0.0
H529 H 0.86856 0.89154 0.35582 0.0
C530 C 0.10412 0.99274 0.17634 0.0
C531 C 0.08458 0.98011 0.14979 0.0
C532 C 0.11887 0.97799 0.20635 0.0
C533 C 0.11564 0.91633 0.26985 0.0
H534 H 0.19037 0.93429 0.2955 0.0
C535 C 0.17526 0.86558 0.40711 0.0
C536 C 0.18833 0.88375 0.43539 0.0
C537 C 0.16519 0.87433 0.3675 0.0
C538 C 0.16952 0.92907 0.28862 0.0
H539 H 0.06522 0.942 0.13467 0.0
H540 H 0.09137 0.91599 0.18632 0.0
H541 H 0.16772 0.95472 0.23373 0.0
H542 H 0.20198 0.92498 0.44406 0.0
H543 H 0.18426 0.94036 0.37483 0.0
H544 H 0.11734 0.89105 0.32524 0.0
C545 C 0.09511 0.93744 0.18393 0.0
C546 C 0.15654 0.94077 0.25337 0.0
C547 C 0.08024 0.9523 0.15396 0.0
C548 C 0.19183 0.91063 0.4229 0.0
C549 C 0.18194 0.91934 0.38317 0.0
C550 C 0.12868 0.90451 0.30496 0.0
C551 C 0.11452 0.95018 0.21055 0.0
C552 C 0.12926 0.93507 0.2443 0.0
C553 C 0.16818 0.90135 0.35539 0.0
C554 C 0.15553 0.91129 0.31525 0.0
H555 H 0.108 0.01418 0.17424 0.0
H556 H 0.13325 0.98855 0.22697 0.0
H557 H 0.09454 0.91174 0.26401 0.0
H558 H 0.17209 0.84478 0.41615 0.0
H559 H 0.15477 0.86005 0.34656 0.0
C560 C 0.09339 0.01822 0.83748 0.0
C561 C 0.08041 0.00237 0.86825 0.0
C562 C 0.10557 0.00613 0.80218 0.0
C563 C 0.10739 0.94271 0.73946 0.0
H564 H 0.17887 0.96721 0.70891 0.0
C565 C 0.17403 0.88117 0.62739 0.0
C566 C 0.18673 0.89536 0.59441 0.0
C567 C 0.16177 0.89499 0.66087 0.0
C568 C 0.15883 0.96033 0.71685 0.0
H569 H 0.06981 0.96155 0.886 0.0
H570 H 0.09112 0.9405 0.82479 0.0
H571 H 0.15467 0.99047 0.76567 0.0
H572 H 0.19765 0.93506 0.57157 0.0
H573 H 0.17602 0.95927 0.63008 0.0
H574 H 0.11165 0.91241 0.69102 0.0
C575 C 0.09157 0.96226 0.82746 0.0
C576 C 0.14493 0.97369 0.7492 0.0
C577 C 0.07939 0.97432 0.86262 0.0
C578 C 0.1878 0.92363 0.59642 0.0
C579 C 0.1756 0.93746 0.63002 0.0
C580 C 0.1213 0.92933 0.70726 0.0
C581 C 0.10503 0.97799 0.79707 0.0
C582 C 0.11915 0.96487 0.76107 0.0
C583 C 0.162 0.92327 0.66209 0.0
C584 C 0.14725 0.93785 0.69589 0.0
H585 H 0.09438 0.03992 0.84086 0.0
H586 H 0.11547 0.01881 0.77895 0.0
H587 H 0.08738 0.93573 0.74738 0.0
H588 H 0.17266 0.8594 0.6265 0.0
H589 H 0.15177 0.88353 0.68554 0.0
C590 C 0.97771 0.08157 0.82274 0.0
C591 C 0.99115 0.06372 0.85043 0.0
C592 C 0.99083 0.0923 0.78725 0.0
C593 C 0.0533 0.08626 0.72208 0.0
H594 H 0.04007 0.16187 0.7002 0.0
C595 C 0.12481 0.15343 0.62382 0.0
C596 C 0.11236 0.16776 0.59032 0.0
C597 C 0.10922 0.14039 0.6545 0.0
C598 C 0.04383 0.14071 0.70585 0.0
H599 H 0.02818 0.04187 0.86121 0.0
H600 H 0.0515 0.06133 0.80089 0.0
H601 H 0.01351 0.13834 0.75353 0.0
H602 H 0.07413 0.18062 0.56322 0.0
H603 H 0.04686 0.15838 0.61758 0.0
H604 H 0.08442 0.08919 0.67538 0.0
C605 C 0.03071 0.06679 0.80574 0.0
C606 C 0.02847 0.1271 0.73613 0.0
C607 C 0.01741 0.05574 0.84068 0.0
C608 C 0.08415 0.16961 0.58877 0.0
C609 C 0.0686 0.15698 0.61983 0.0
C610 C 0.06893 0.10001 0.69231 0.0
C611 C 0.01783 0.08572 0.7791 0.0
C612 C 0.03306 0.0997 0.74481 0.0
C613 C 0.08098 0.14191 0.65255 0.0
C614 C 0.0644 0.12737 0.68407 0.0
H615 H 0.95726 0.08774 0.82902 0.0
H616 H 0.97996 0.10617 0.76675 0.0
H617 H 0.05712 0.06507 0.72721 0.0
H618 H 0.14653 0.1516 0.62545 0.0
H619 H 0.11921 0.12905 0.67968 0.0
C620 C 0.91491 0.03303 0.85524 0.0
C621 C 0.9243 0.00642 0.85614 0.0
C622 C 0.90885 0.04543 0.81626 0.0
C623 C 0.88407 0.03099 0.70954 0.0
H624 H 0.90846 0.10338 0.68383 0.0
C625 C 0.84718 0.08626 0.55745 0.0
C626 C 0.84137 0.1138 0.56198 0.0
C627 C 0.86066 0.07244 0.5902 0.0
C628 C 0.90125 0.08327 0.6907 0.0
H629 H 0.93453 0.97181 0.81682 0.0
H630 H 0.92291 0.99337 0.74846 0.0
H631 H 0.92642 0.08039 0.74711 0.0
H632 H 0.84575 0.14848 0.60435 0.0
H633 H 0.86791 0.12414 0.66222 0.0
H634 H 0.85787 0.03417 0.65475 0.0
C635 C 0.92078 0.00466 0.77811 0.0
C636 C 0.9117 0.07008 0.72672 0.0
C637 C 0.92738 0.99237 0.81716 0.0
C638 C 0.84949 0.12719 0.59999 0.0
C639 C 0.86267 0.1133 0.63294 0.0
C640 C 0.87332 0.0443 0.67386 0.0
C641 C 0.91147 0.03129 0.77743 0.0
C642 C 0.90287 0.04401 0.73676 0.0
C643 C 0.86839 0.08573 0.62851 0.0
C644 C 0.88145 0.07078 0.66438 0.0
H645 H 0.91198 0.04428 0.88469 0.0
H646 H 0.90133 0.06586 0.81657 0.0
H647 H 0.87674 0.01098 0.71697 0.0
H648 H 0.84098 0.07521 0.52882 0.0
H649 H 0.865 0.0513 0.58541 0.0
C650 C 0.95996 0.91112 0.87189 0.0
C651 C 0.98742 0.91804 0.87045 0.0
C652 C 0.94571 0.90423 0.83432 0.0
C653 C 0.95528 0.87569 0.72771 0.0
H654 H 0.88411 0.9038 0.70256 0.0
C655 C 0.8984 0.84846 0.57056 0.0
C656 C 0.87052 0.84364 0.57283 0.0
C657 C 0.91267 0.85933 0.60566 0.0
C658 C 0.90383 0.89552 0.70935 0.0
H659 H 0.02143 0.92337 0.82835 0.0
H660 H 0.99658 0.91078 0.76276 0.0
H661 H 0.90906 0.9198 0.76614 0.0
H662 H 0.83576 0.84693 0.6138 0.0
H663 H 0.86082 0.86488 0.67562 0.0
H664 H 0.94995 0.85086 0.67191 0.0
C665 C 0.98613 0.91081 0.79304 0.0
C666 C 0.91813 0.90477 0.74565 0.0
C667 C 0.00031 0.91805 0.83057 0.0
C668 C 0.85726 0.85007 0.61108 0.0
C669 C 0.87159 0.86074 0.64636 0.0
C670 C 0.94091 0.86626 0.69167 0.0
C671 C 0.95872 0.90374 0.7946 0.0
C672 C 0.94394 0.89486 0.75523 0.0
C673 C 0.8995 0.8654 0.64415 0.0
C674 C 0.91496 0.87598 0.68207 0.0
H675 H 0.94943 0.91088 0.90206 0.0
H676 H 0.92466 0.89863 0.83649 0.0
H677 H 0.97499 0.86743 0.73469 0.0
H678 H 0.90936 0.84345 0.54183 0.0
H679 H 0.93406 0.86298 0.60254 0.0
C680 C 0.50804 0.6161 0.62702 0.0
C681 C 0.50915 0.58789 0.62546 0.0
C682 C 0.52503 0.63059 0.65519 0.0
C683 C 0.58605 0.62331 0.72533 0.0
H684 H 0.55283 0.67896 0.79407 0.0
C685 C 0.61801 0.64868 0.89836 0.0
C686 C 0.6192 0.67575 0.91142 0.0
C687 C 0.6089 0.64178 0.8571 0.0
C688 C 0.56257 0.66385 0.77459 0.0
H689 H 0.52752 0.55266 0.65325 0.0
H690 H 0.55716 0.57758 0.70232 0.0
H691 H 0.52828 0.65976 0.73255 0.0
H692 H 0.61245 0.71693 0.89169 0.0
H693 H 0.59579 0.70476 0.81931 0.0
H694 H 0.6197 0.62636 0.76911 0.0
C695 C 0.54407 0.58875 0.68082 0.0
C696 C 0.54854 0.65287 0.73928 0.0
C697 C 0.52717 0.57439 0.65266 0.0
C698 C 0.61174 0.69591 0.88218 0.0
C699 C 0.60218 0.68897 0.841 0.0
C700 C 0.59994 0.63411 0.76086 0.0
C701 C 0.54319 0.61703 0.68254 0.0
C702 C 0.55977 0.63184 0.71514 0.0
C703 C 0.60047 0.66181 0.82828 0.0
C704 C 0.58799 0.65388 0.78656 0.0
H705 H 0.49416 0.62693 0.60632 0.0
H706 H 0.52391 0.65235 0.65567 0.0
H707 H 0.59552 0.6076 0.70673 0.0
H708 H 0.62381 0.63282 0.92033 0.0
H709 H 0.60749 0.62067 0.84831 0.0
C710 C 0.45654 0.5311 0.6758 0.0
C711 C 0.44022 0.52891 0.6388 0.0
C712 C 0.44954 0.54867 0.70895 0.0
C713 C 0.40241 0.60444 0.73692 0.0
H714 H 0.41307 0.57695 0.85224 0.0
C715 C 0.34234 0.63751 0.88645 0.0
C716 C 0.35675 0.6401 0.92553 0.0
C717 C 0.35525 0.62867 0.84937 0.0
C718 C 0.4103 0.58511 0.82027 0.0
H719 H 0.40385 0.54266 0.60711 0.0
H720 H 0.39096 0.5727 0.66531 0.0
H721 H 0.43084 0.55218 0.79163 0.0
H722 H 0.39641 0.63768 0.95552 0.0
H723 H 0.41876 0.62178 0.89104 0.0
H724 H 0.38056 0.63672 0.76607 0.0
C725 C 0.4097 0.56182 0.66844 0.0
C726 C 0.4206 0.57096 0.78543 0.0
C727 C 0.41699 0.54459 0.63507 0.0
C728 C 0.38462 0.63526 0.92614 0.0
C729 C 0.39745 0.62625 0.88925 0.0
C730 C 0.39177 0.61842 0.77185 0.0
C731 C 0.42571 0.56387 0.70609 0.0
C732 C 0.41658 0.58027 0.74323 0.0
C733 C 0.38274 0.62215 0.85084 0.0
C734 C 0.39547 0.60875 0.8138 0.0
H735 H 0.47472 0.51927 0.67898 0.0
H736 H 0.46267 0.55012 0.737 0.0
H737 H 0.3993 0.61247 0.70496 0.0
H738 H 0.32083 0.64094 0.885 0.0
H739 H 0.34342 0.62553 0.82019 0.0
C740 C 0.48936 0.38216 0.62692 0.0
C741 C 0.48883 0.41038 0.62531 0.0
C742 C 0.47198 0.3682 0.65402 0.0
C743 C 0.41092 0.37717 0.72064 0.0
H744 H 0.44272 0.32115 0.79094 0.0
C745 C 0.37856 0.35385 0.89198 0.0
C746 C 0.37683 0.32695 0.90516 0.0
C747 C 0.3876 0.36014 0.85104 0.0
C748 C 0.43335 0.33636 0.77098 0.0
H749 H 0.47108 0.44616 0.65205 0.0
H750 H 0.44075 0.42217 0.69923 0.0
H751 H 0.46783 0.33948 0.73096 0.0
H752 H 0.38249 0.28543 0.88601 0.0
H753 H 0.3991 0.2965 0.81415 0.0
H754 H 0.37714 0.37511 0.76246 0.0
C755 C 0.45368 0.41059 0.67851 0.0
C756 C 0.44771 0.34686 0.73656 0.0
C757 C 0.47095 0.42442 0.65139 0.0
C758 C 0.38361 0.30632 0.87634 0.0
C759 C 0.39315 0.31264 0.83548 0.0
C760 C 0.39671 0.36686 0.75529 0.0
C761 C 0.45401 0.3823 0.6803 0.0
C762 C 0.43703 0.36803 0.71191 0.0
C763 C 0.39547 0.33965 0.82268 0.0
C764 C 0.40815 0.34695 0.78157 0.0
H765 H 0.50313 0.37091 0.60712 0.0
H766 H 0.47268 0.34642 0.65453 0.0
H767 H 0.40185 0.393 0.7016 0.0
H768 H 0.37336 0.37006 0.91372 0.0
H769 H 0.3895 0.38113 0.84224 0.0
C770 C 0.54029 0.46678 0.67943 0.0
C771 C 0.55751 0.46874 0.64437 0.0
C772 C 0.54606 0.44882 0.7127 0.0
C773 C 0.59049 0.39118 0.74286 0.0
H774 H 0.57907 0.41793 0.85838 0.0
C775 C 0.64783 0.35467 0.89491 0.0
C776 C 0.63323 0.35246 0.93306 0.0
C777 C 0.63539 0.36424 0.85742 0.0
C778 C 0.582 0.40997 0.82632 0.0
H779 H 0.59432 0.45439 0.61647 0.0
H780 H 0.60501 0.42361 0.67487 0.0
H781 H 0.56303 0.44388 0.79733 0.0
H782 H 0.59367 0.35641 0.9609 0.0
H783 H 0.57213 0.37352 0.89565 0.0
H784 H 0.61071 0.35786 0.77241 0.0
C785 C 0.5865 0.43497 0.67628 0.0
C786 C 0.57272 0.4248 0.79124 0.0
C787 C 0.58049 0.45261 0.64283 0.0
C788 C 0.6056 0.35848 0.93226 0.0
C789 C 0.59324 0.3682 0.89494 0.0
C790 C 0.60006 0.37648 0.77805 0.0
C791 C 0.56948 0.43298 0.71185 0.0
C792 C 0.57716 0.41581 0.74902 0.0
C793 C 0.60818 0.37186 0.85751 0.0
C794 C 0.59615 0.38591 0.82009 0.0
H795 H 0.5223 0.47896 0.68089 0.0
H796 H 0.53225 0.4475 0.73917 0.0
H797 H 0.59384 0.38339 0.71083 0.0
H798 H 0.66918 0.35038 0.89456 0.0
H799 H 0.64742 0.36705 0.82906 0.0
C800 C 0.60157 0.47186 0.38815 0.0
C801 C 0.58809 0.49643 0.38303 0.0
C802 C 0.60977 0.4572 0.35236 0.0
C803 C 0.62794 0.463 0.24006 0.0
H804 H 0.60585 0.38811 0.23133 0.0
C805 C 0.64271 0.40093 0.08525 0.0
C806 C 0.64838 0.37333 0.08904 0.0
C807 C 0.63602 0.41619 0.12129 0.0
C808 C 0.61264 0.40884 0.2335 0.0
H809 H 0.57384 0.52557 0.33647 0.0
H810 H 0.58857 0.50009 0.27379 0.0
H811 H 0.59396 0.41442 0.29437 0.0
H812 H 0.65163 0.34026 0.13408 0.0
H813 H 0.64157 0.36713 0.19713 0.0
H814 H 0.64753 0.45735 0.18012 0.0
C815 C 0.59243 0.49208 0.30559 0.0
C816 C 0.60561 0.42393 0.2695 0.0
C817 C 0.58389 0.50657 0.34141 0.0
C818 C 0.64769 0.36151 0.12994 0.0
C819 C 0.64145 0.37687 0.16609 0.0
C820 C 0.63545 0.44778 0.20439 0.0
C821 C 0.60511 0.46711 0.3108 0.0
C822 C 0.61304 0.45115 0.27295 0.0
C823 C 0.63528 0.40436 0.1622 0.0
C824 C 0.62777 0.42052 0.20053 0.0
H825 H 0.60542 0.4637 0.41979 0.0
H826 H 0.61979 0.43812 0.35717 0.0
H827 H 0.63414 0.48392 0.2423 0.0
H828 H 0.64349 0.41085 0.05441 0.0
H829 H 0.63107 0.43719 0.11685 0.0
C830 C 0.47569 0.57636 0.30398 0.0
C831 C 0.48882 0.55971 0.33399 0.0
C832 C 0.48981 0.58724 0.26958 0.0
C833 C 0.55734 0.60882 0.24202 0.0
H834 H 0.53128 0.60817 0.12384 0.0
C835 C 0.60219 0.67496 0.10731 0.0
C836 C 0.60791 0.66139 0.06872 0.0
C837 C 0.58795 0.662 0.13973 0.0
C838 C 0.53877 0.60845 0.15673 0.0
H839 H 0.52661 0.5404 0.3503 0.0
H840 H 0.55135 0.55987 0.29067 0.0
H841 H 0.50516 0.58547 0.17929 0.0
H842 H 0.60404 0.62307 0.03502 0.0
H843 H 0.57849 0.60094 0.09098 0.0
H844 H 0.59075 0.63209 0.21963 0.0
C845 C 0.5302 0.56452 0.29397 0.0
C846 C 0.5238 0.59561 0.18838 0.0
C847 C 0.51601 0.55331 0.32793 0.0
C848 C 0.59943 0.63442 0.06376 0.0
C849 C 0.58488 0.62165 0.09585 0.0
C850 C 0.57207 0.62203 0.21052 0.0
C851 C 0.51737 0.58196 0.26497 0.0
C852 C 0.53305 0.59553 0.23125 0.0
C853 C 0.57887 0.63535 0.134 0.0
C854 C 0.563 0.62183 0.16756 0.0
H855 H 0.45471 0.58154 0.30768 0.0
H856 H 0.47946 0.60064 0.24759 0.0
H857 H 0.56476 0.60926 0.27495 0.0
H858 H 0.60809 0.6958 0.11209 0.0
H859 H 0.58343 0.67303 0.16885 0.0
C860 C 0.39981 0.5233 0.37796 0.0
C861 C 0.41483 0.49959 0.37377 0.0
C862 C 0.39128 0.53741 0.34168 0.0
C863 C 0.37301 0.53 0.22935 0.0
H864 H 0.39027 0.60604 0.22125 0.0
C865 C 0.35005 0.59079 0.07584 0.0
C866 C 0.34306 0.61806 0.08016 0.0
C867 C 0.3585 0.57597 0.1115 0.0
C868 C 0.38483 0.58495 0.22324 0.0
H869 H 0.43157 0.47138 0.32824 0.0
H870 H 0.41602 0.49581 0.26444 0.0
H871 H 0.40546 0.58072 0.2838 0.0
H872 H 0.339 0.65091 0.12587 0.0
H873 H 0.35219 0.6247 0.18831 0.0
H874 H 0.35147 0.53424 0.16982 0.0
C875 C 0.41137 0.50364 0.29601 0.0
C876 C 0.39376 0.57044 0.25893 0.0
C877 C 0.42033 0.48976 0.33243 0.0
C878 C 0.34398 0.6299 0.1213 0.0
C879 C 0.35202 0.61495 0.15709 0.0
C880 C 0.36363 0.54461 0.19399 0.0
C881 C 0.39703 0.52774 0.30043 0.0
C882 C 0.38796 0.54286 0.26222 0.0
C883 C 0.35974 0.58788 0.15259 0.0
C884 C 0.36945 0.57229 0.19043 0.0
H885 H 0.39476 0.53107 0.40929 0.0
H886 H 0.37992 0.55577 0.34584 0.0
H887 H 0.36806 0.50878 0.23151 0.0
H888 H 0.34911 0.58082 0.0448 0.0
H889 H 0.36453 0.55529 0.10657 0.0
C890 C 0.49315 0.45045 0.32051 0.0
C891 C 0.51772 0.43869 0.33299 0.0
C892 C 0.47883 0.44069 0.2846 0.0
C893 C 0.483 0.40234 0.18459 0.0
H894 H 0.41025 0.37902 0.2095 0.0
C895 C 0.42118 0.33728 0.06427 0.0
C896 C 0.39323 0.34102 0.06172 0.0
C897 C 0.43655 0.35003 0.09651 0.0
C898 C 0.4303 0.38584 0.20156 0.0
H899 H 0.54723 0.40856 0.31618 0.0
H900 H 0.52238 0.39196 0.25286 0.0
H901 H 0.43723 0.4017 0.26497 0.0
H902 H 0.35933 0.36112 0.09021 0.0
H903 H 0.38614 0.38431 0.14562 0.0
H904 H 0.47605 0.38723 0.12092 0.0
C905 C 0.51419 0.40853 0.27116 0.0
C906 C 0.44578 0.39874 0.23349 0.0
C907 C 0.52837 0.41803 0.30741 0.0
C908 C 0.38084 0.35771 0.09192 0.0
C909 C 0.39626 0.37088 0.12373 0.0
C910 C 0.46736 0.38987 0.15232 0.0
C911 C 0.48894 0.41927 0.26022 0.0
C912 C 0.47231 0.40692 0.2254 0.0
C913 C 0.42436 0.36723 0.12649 0.0
C914 C 0.44085 0.38121 0.16047 0.0
H915 H 0.48447 0.46652 0.33933 0.0
H916 H 0.45958 0.44951 0.27622 0.0
H917 H 0.50339 0.40862 0.17756 0.0
H918 H 0.43112 0.3243 0.04143 0.0
H919 H 0.45796 0.34616 0.09807 0.0
loop_
_geom_bond_atom_site_label_1
_geom_bond_atom_site_label_2
_geom_bond_distance
_geom_bond_site_symmetry_2
_ccdc_geom_bond_type
Zn0 O2 1.933 1_556 S
Zn0 O20 1.985 . S
Zn0 O31 1.955 . S
Zn1 O2 1.911 . S
Zn1 O21 1.970 . S
Zn1 O37 1.945 . S
Zn1 O44 1.981 . S
O2 Zn0 1.933 1_554 S
O2 Zn1 1.911 . S
O2 H3 0.841 1_655 S
H3 O2 0.841 1_455 S
C4 O5 1.246 . S
C4 O33 1.278 . S
O5 C4 1.246 . S
Zn6 O8 1.911 . S
Zn6 O23 1.970 . S
Zn6 O40 1.945 . S
Zn6 O47 1.981 . S
Zn7 O8 1.933 1_556 S
Zn7 O22 1.985 . S
Zn7 O29 1.955 . S
O8 Zn6 1.911 . S
O8 Zn7 1.933 1_554 S
O8 H9 0.841 1_455 S
H9 O8 0.841 1_655 S
Zn10 O11 1.933 1_556 S
Zn10 O24 1.985 . S
Zn10 O33 1.954 1_565 S
O11 Zn10 1.933 1_554 S
O11 Zn12 1.911 . S
O11 H13 0.841 1_565 S
Zn12 O11 1.911 . S
Zn12 O25 1.970 . S
Zn12 O41 1.981 . S
Zn12 O43 1.945 . S
H13 O11 0.841 1_545 S
Zn14 O15 1.933 1_556 S
Zn14 O27 1.985 . S
Zn14 O35 1.955 . S
O15 Zn14 1.933 1_554 S
O15 H16 0.841 1_545 S
O15 Zn17 1.911 . S
H16 O15 0.841 1_565 S
Zn17 O15 1.911 . S
Zn17 O28 1.970 . S
Zn17 O38 1.981 . S
Zn17 O46 1.945 . S
C18 O19 1.246 . S
C18 O35 1.276 1_565 S
O19 C18 1.246 . S
O20 Zn0 1.985 . S
O20 C30 1.245 1_556 S
O21 Zn1 1.970 . S
O21 C30 1.263 . S
O22 Zn7 1.985 . S
O22 C34 1.245 1_556 S
O23 Zn6 1.970 . S
O23 C34 1.263 . S
O24 Zn10 1.985 . S
O24 C39 1.245 1_556 S
O25 Zn12 1.970 . S
O25 C39 1.263 . S
C26 O37 1.262 1_455 S
C26 O38 1.245 . S
O27 Zn14 1.985 . S
O27 C45 1.245 1_556 S
O28 Zn17 1.970 . S
O28 C45 1.263 . S
O29 Zn7 1.955 . S
O29 C48 1.276 1_455 S
C30 O20 1.245 1_554 S
C30 O21 1.263 . S
O31 Zn0 1.955 . S
O31 C50 1.276 1_655 S
C32 O40 1.262 1_655 S
C32 O41 1.245 . S
O33 C4 1.278 . S
O33 Zn10 1.954 1_545 S
C34 O22 1.245 1_554 S
C34 O23 1.263 . S
O35 Zn14 1.955 . S
O35 C18 1.276 1_545 S
C36 O43 1.262 1_545 S
C36 O44 1.245 . S
O37 Zn1 1.945 . S
O37 C26 1.262 1_655 S
O38 Zn17 1.981 . S
O38 C26 1.245 . S
C39 O24 1.245 1_554 S
C39 O25 1.263 . S
O40 Zn6 1.945 . S
O40 C32 1.262 1_455 S
O41 Zn12 1.981 . S
O41 C32 1.245 . S
C42 O46 1.262 1_565 S
C42 O47 1.245 . S
O43 Zn12 1.945 . S
O43 C36 1.262 1_565 S
O44 Zn1 1.981 . S
O44 C36 1.245 . S
C45 O27 1.245 1_554 S
C45 O28 1.263 . S
O46 Zn17 1.945 . S
O46 C42 1.262 1_545 S
O47 Zn6 1.981 . S
O47 C42 1.245 . S
C48 O29 1.276 1_655 S
C48 O49 1.246 . S
O49 C48 1.246 . S
C50 O31 1.276 1_455 S
C50 O51 1.246 . S
O51 C50 1.246 . S
Zn52 O54 1.933 . S
Zn52 O72 1.985 . S
Zn52 O83 1.955 . S
Zn53 O54 1.911 . S
Zn53 O73 1.970 . S
Zn53 O89 1.945 . S
Zn53 O96 1.981 . S
O54 Zn52 1.933 . S
O54 Zn53 1.911 . S
O54 H55 0.841 . S
H55 O54 0.841 . S
C56 O57 1.246 . S
C56 O85 1.276 . S
O57 C56 1.246 . S
Zn58 O60 1.911 . S
Zn58 O75 1.970 . S
Zn58 O92 1.945 . S
Zn58 O99 1.981 . S
Zn59 O60 1.933 . S
Zn59 O74 1.985 . S
Zn59 O81 1.955 . S
O60 Zn58 1.911 . S
O60 Zn59 1.933 . S
O60 H61 0.841 . S
H61 O60 0.841 . S
Zn62 O63 1.933 . S
Zn62 O76 1.985 . S
Zn62 O85 1.955 . S
O63 Zn62 1.933 . S
O63 Zn64 1.911 . S
O63 H65 0.841 . S
Zn64 O63 1.911 . S
Zn64 O77 1.970 . S
Zn64 O93 1.981 . S
Zn64 O95 1.945 . S
H65 O63 0.841 . S
Zn66 O67 1.933 . S
Zn66 O79 1.985 . S
Zn66 O87 1.955 . S
O67 Zn66 1.933 . S
O67 H68 0.841 . S
O67 Zn69 1.911 . S
H68 O67 0.841 . S
Zn69 O67 1.911 . S
Zn69 O80 1.970 . S
Zn69 O90 1.981 . S
Zn69 O98 1.945 . S
C70 O71 1.246 . S
C70 O87 1.276 . S
O71 C70 1.246 . S
O72 Zn52 1.985 . S
O72 C82 1.245 . S
O73 Zn53 1.970 . S
O73 C82 1.263 . S
O74 Zn59 1.985 . S
O74 C86 1.245 . S
O75 Zn58 1.970 . S
O75 C86 1.263 . S
O76 Zn62 1.985 . S
O76 C91 1.245 . S
O77 Zn64 1.970 . S
O77 C91 1.263 . S
C78 O89 1.262 . S
C78 O90 1.245 . S
O79 Zn66 1.985 . S
O79 C97 1.245 . S
O80 Zn69 1.970 . S
O80 C97 1.263 . S
O81 Zn59 1.955 . S
O81 C100 1.276 . S
C82 O72 1.245 . S
C82 O73 1.263 . S
O83 Zn52 1.955 . S
O83 C102 1.276 . S
C84 O92 1.262 . S
C84 O93 1.245 . S
O85 C56 1.276 . S
O85 Zn62 1.955 . S
C86 O74 1.245 . S
C86 O75 1.263 . S
O87 Zn66 1.955 . S
O87 C70 1.276 . S
C88 O95 1.262 . S
C88 O96 1.245 . S
O89 Zn53 1.945 . S
O89 C78 1.262 . S
O90 Zn69 1.981 . S
O90 C78 1.245 . S
C91 O76 1.245 . S
C91 O77 1.263 . S
O92 Zn58 1.945 . S
O92 C84 1.262 . S
O93 Zn64 1.981 . S
O93 C84 1.245 . S
C94 O98 1.262 . S
C94 O99 1.245 . S
O95 Zn64 1.945 . S
O95 C88 1.262 . S
O96 Zn53 1.981 . S
O96 C88 1.245 . S
C97 O79 1.245 . S
C97 O80 1.263 . S
O98 Zn69 1.945 . S
O98 C94 1.262 . S
O99 Zn58 1.981 . S
O99 C94 1.245 . S
C100 O81 1.276 . S
C100 O101 1.246 . S
O101 C100 1.246 . S
C102 O83 1.276 . S
C102 O103 1.246 . S
O103 C102 1.246 . S
H104 C109 0.930 . S
H105 C112 0.930 . S
H106 C114 0.930 . S
H107 C108 1.016 . S
C108 H107 1.016 . S
C108 N115 1.286 1_554 S
C109 H104 0.930 . S
C109 C110 1.397 . S
C109 C111 1.361 1_556 S
C110 C109 1.397 . S
C110 C114 1.390 1_556 S
C111 C109 1.361 1_554 S
C111 C112 1.393 . S
C111 N115 1.413 1_554 S
C112 H105 0.930 . S
C112 C111 1.393 . S
C112 C113 1.399 . S
C113 C112 1.399 . S
C113 C114 1.381 . S
C114 H106 0.930 . S
C114 C110 1.390 1_554 S
C114 C113 1.381 . S
N115 C108 1.286 1_556 S
N115 C111 1.413 1_556 S
H116 C121 0.930 . S
H117 C124 0.930 . S
H118 C126 0.930 . S
H119 C120 1.016 . S
C120 H119 1.016 . S
C120 N127 1.286 1_554 S
C121 H116 0.930 . S
C121 C122 1.397 . S
C121 C123 1.361 1_556 S
C122 C121 1.397 . S
C122 C126 1.390 1_556 S
C123 C121 1.361 1_554 S
C123 C124 1.393 . S
C123 N127 1.413 1_554 S
C124 H117 0.930 . S
C124 C123 1.393 . S
C124 C125 1.399 . S
C125 C124 1.399 . S
C125 C126 1.381 . S
C126 H118 0.930 . S
C126 C122 1.390 1_554 S
C126 C125 1.381 . S
N127 C120 1.286 1_556 S
N127 C123 1.413 1_556 S
H128 C133 0.930 . S
H129 C136 0.930 . S
H130 C138 0.930 . S
H131 C132 1.016 1_556 S
C132 H131 1.016 1_554 S
C132 N139 1.286 . S
C133 H128 0.930 . S
C133 C134 1.397 . S
C133 C135 1.361 . S
C134 C133 1.397 . S
C134 C138 1.390 . S
C135 C133 1.361 . S
C135 C136 1.393 1_554 S
C135 N139 1.413 . S
C136 H129 0.930 . S
C136 C135 1.393 1_556 S
C136 C137 1.399 . S
C137 C136 1.399 . S
C137 C138 1.381 1_556 S
C138 H130 0.930 . S
C138 C134 1.390 . S
C138 C137 1.381 1_554 S
N139 C132 1.286 . S
N139 C135 1.413 . S
H140 C145 0.930 . S
H141 C148 0.930 . S
H142 C150 0.930 . S
H143 C144 1.016 . S
C144 H143 1.016 . S
C144 N151 1.286 1_554 S
C145 H140 0.930 . S
C145 C146 1.397 . S
C145 C147 1.376 . S
C146 C145 1.397 . S
C146 C150 1.390 1_556 S
C147 C145 1.376 . S
C147 C148 1.377 1_556 S
C147 N151 1.415 . S
C148 H141 0.930 . S
C148 C147 1.377 1_554 S
C148 C149 1.399 . S
C149 C148 1.399 . S
C149 C150 1.381 . S
C150 H142 0.930 . S
C150 C146 1.390 1_554 S
C150 C149 1.381 . S
N151 C144 1.286 1_556 S
N151 C147 1.415 . S
H152 C157 0.930 . S
H153 C160 0.930 . S
H154 C162 0.930 . S
H155 C156 1.016 . S
C156 H155 1.016 . S
C156 N163 1.286 . S
C157 H152 0.930 . S
C157 C158 1.397 . S
C157 C159 1.361 . S
C158 C157 1.397 . S
C158 C162 1.390 . S
C159 C157 1.361 . S
C159 C160 1.393 . S
C159 N163 1.413 . S
C160 H153 0.930 . S
C160 C159 1.393 . S
C160 C161 1.399 . S
C161 C160 1.399 . S
C161 C162 1.381 . S
C162 H154 0.930 . S
C162 C158 1.390 . S
C162 C161 1.381 . S
N163 C156 1.286 . S
N163 C159 1.413 . S
H164 C169 0.930 . S
H165 C172 0.930 . S
H166 C174 0.930 . S
H167 C168 1.016 . S
C168 H167 1.016 . S
C168 N175 1.286 . S
C169 H164 0.930 . S
C169 C170 1.397 . S
C169 C171 1.361 . S
C170 C169 1.397 . S
C170 C174 1.390 . S
C171 C169 1.361 . S
C171 C172 1.393 . S
C171 N175 1.413 . S
C172 H165 0.930 . S
C172 C171 1.393 . S
C172 C173 1.399 . S
C173 C172 1.399 . S
C173 C174 1.381 . S
C174 H166 0.930 . S
C174 C170 1.390 . S
C174 C173 1.381 . S
N175 C168 1.286 . S
N175 C171 1.413 . S
H176 C181 0.930 . S
H177 C184 0.930 . S
H178 C186 0.930 . S
H179 C180 1.016 . S
C180 H179 1.016 . S
C180 N187 1.286 . S
C181 H176 0.930 . S
C181 C182 1.397 . S
C181 C183 1.361 . S
C182 C181 1.397 . S
C182 C186 1.390 . S
C183 C181 1.361 . S
C183 C184 1.393 . S
C183 N187 1.413 . S
C184 H177 0.930 . S
C184 C183 1.393 . S
C184 C185 1.399 . S
C185 C184 1.399 . S
C185 C186 1.381 . S
C186 H178 0.930 . S
C186 C182 1.390 . S
C186 C185 1.381 . S
N187 C180 1.286 . S
N187 C183 1.413 . S
H188 C193 0.930 . S
H189 C196 0.930 . S
H190 C198 0.930 . S
H191 C192 1.016 . S
C192 H191 1.016 . S
C192 N199 1.286 . S
C193 H188 0.930 . S
C193 C194 1.397 . S
C193 C195 1.361 . S
C194 C193 1.397 . S
C194 C198 1.390 . S
C195 C193 1.361 . S
C195 C196 1.393 . S
C195 N199 1.413 . S
C196 H189 0.930 . S
C196 C195 1.393 . S
C196 C197 1.399 . S
C197 C196 1.399 . S
C197 C198 1.381 . S
C198 H190 0.930 . S
C198 C194 1.390 . S
C198 C197 1.381 . S
N199 C192 1.286 . S
N199 C195 1.413 . S
C200 C201 1.349 1_556 S
C200 C202 1.327 . S
C200 H225 0.950 . S
C201 C200 1.349 1_554 S
C201 C217 1.349 . S
C202 C200 1.327 . S
C202 C221 1.429 1_556 S
C202 H226 0.950 . S
C203 C220 1.574 . S
C203 C222 1.368 . S
C203 H227 0.949 . S
H204 C208 0.949 . S
C205 C206 1.349 . S
C205 C207 1.327 . S
C205 H228 0.950 . S
C206 C205 1.349 . S
C206 C218 1.349 1_554 S
C207 C205 1.327 . S
C207 C223 1.429 . S
C207 H229 0.950 . S
C208 H204 0.949 . S
C208 C216 1.574 . S
C208 C224 1.368 1_556 S
H209 C217 0.950 . S
H210 C215 0.950 . S
H211 C216 0.949 . S
H212 C218 0.950 . S
H213 C219 0.950 . S
H214 C220 0.949 . S
C215 H210 0.950 . S
C215 C217 1.327 . S
C215 C221 1.429 . S
C216 C208 1.574 . S
C216 H211 0.949 . S
C216 C222 1.368 1_556 S
C217 C201 1.349 . S
C217 H209 0.950 . S
C217 C215 1.327 . S
C218 C206 1.349 1_556 S
C218 H212 0.950 . S
C218 C219 1.327 . S
C219 H213 0.950 . S
C219 C218 1.327 . S
C219 C223 1.429 1_556 S
C220 C203 1.574 . S
C220 H214 0.949 . S
C220 C224 1.368 . S
C221 C202 1.429 1_554 S
C221 C215 1.429 . S
C221 C222 1.523 . S
C222 C203 1.368 . S
C222 C216 1.368 1_554 S
C222 C221 1.523 . S
C223 C207 1.429 . S
C223 C219 1.429 1_554 S
C223 C224 1.523 . S
C224 C208 1.368 1_554 S
C224 C220 1.368 . S
C224 C223 1.523 . S
H225 C200 0.950 . S
H226 C202 0.950 . S
H227 C203 0.949 . S
H228 C205 0.950 . S
H229 C207 0.950 . S
C230 C231 1.349 1_556 S
C230 C232 1.327 . S
C230 H255 0.950 . S
C231 C230 1.349 1_554 S
C231 C247 1.349 . S
C232 C230 1.327 . S
C232 C251 1.429 1_556 S
C232 H256 0.950 . S
C233 C250 1.574 . S
C233 C252 1.368 . S
C233 H257 0.949 . S
H234 C238 0.949 . S
C235 C236 1.349 . S
C235 C237 1.327 . S
C235 H258 0.950 . S
C236 C235 1.349 . S
C236 C248 1.349 1_554 S
C237 C235 1.327 . S
C237 C253 1.429 . S
C237 H259 0.950 . S
C238 H234 0.949 . S
C238 C246 1.574 . S
C238 C254 1.368 1_556 S
H239 C247 0.950 . S
H240 C245 0.950 . S
H241 C246 0.949 . S
H242 C248 0.950 . S
H243 C249 0.950 . S
H244 C250 0.949 . S
C245 H240 0.950 . S
C245 C247 1.327 . S
C245 C251 1.429 . S
C246 C238 1.574 . S
C246 H241 0.949 . S
C246 C252 1.368 1_556 S
C247 C231 1.349 . S
C247 H239 0.950 . S
C247 C245 1.327 . S
C248 C236 1.349 1_556 S
C248 H242 0.950 . S
C248 C249 1.327 . S
C249 H243 0.950 . S
C249 C248 1.327 . S
C249 C253 1.429 1_556 S
C250 C233 1.574 . S
C250 H244 0.949 . S
C250 C254 1.368 . S
C251 C232 1.429 1_554 S
C251 C245 1.429 . S
C251 C252 1.523 . S
C252 C233 1.368 . S
C252 C246 1.368 1_554 S
C252 C251 1.523 . S
C253 C237 1.429 . S
C253 C249 1.429 1_554 S
C253 C254 1.523 . S
C254 C238 1.368 1_554 S
C254 C250 1.368 . S
C254 C253 1.523 . S
H255 C230 0.950 . S
H256 C232 0.950 . S
H257 C233 0.949 . S
H258 C235 0.950 . S
H259 C237 0.950 . S
C260 C261 1.349 1_556 S
C260 C262 1.327 . S
C260 H285 0.950 . S
C261 C260 1.349 1_554 S
C261 C277 1.349 . S
C262 C260 1.327 . S
C262 C281 1.429 1_556 S
C262 H286 0.950 . S
C263 C280 1.574 . S
C263 C282 1.368 . S
C263 H287 0.949 . S
H264 C268 0.949 . S
C265 C266 1.349 . S
C265 C267 1.327 . S
C265 H288 0.950 . S
C266 C265 1.349 . S
C266 C278 1.349 1_554 S
C267 C265 1.327 . S
C267 C283 1.429 . S
C267 H289 0.950 . S
C268 H264 0.949 . S
C268 C276 1.574 . S
C268 C284 1.368 1_556 S
H269 C277 0.950 . S
H270 C275 0.950 . S
H271 C276 0.949 . S
H272 C278 0.950 . S
H273 C279 0.950 . S
H274 C280 0.949 . S
C275 H270 0.950 . S
C275 C277 1.327 . S
C275 C281 1.429 . S
C276 C268 1.574 . S
C276 H271 0.949 . S
C276 C282 1.368 1_556 S
C277 C261 1.349 . S
C277 H269 0.950 . S
C277 C275 1.327 . S
C278 C266 1.349 1_556 S
C278 H272 0.950 . S
C278 C279 1.327 . S
C279 H273 0.950 . S
C279 C278 1.327 . S
C279 C283 1.429 1_556 S
C280 C263 1.574 . S
C280 H274 0.949 . S
C280 C284 1.368 . S
C281 C262 1.429 1_554 S
C281 C275 1.429 . S
C281 C282 1.523 . S
C282 C263 1.368 . S
C282 C276 1.368 1_554 S
C282 C281 1.523 . S
C283 C267 1.429 . S
C283 C279 1.429 1_554 S
C283 C284 1.523 . S
C284 C268 1.368 1_554 S
C284 C280 1.368 . S
C284 C283 1.523 . S
H285 C260 0.950 . S
H286 C262 0.950 . S
H287 C263 0.949 . S
H288 C265 0.950 . S
H289 C267 0.950 . S
C290 C291 1.349 . S
C290 C292 1.327 . S
C290 H315 0.950 . S
C291 C290 1.349 . S
C291 C307 1.349 1_554 S
C292 C290 1.327 . S
C292 C311 1.429 . S
C292 H316 0.950 . S
C293 C310 1.574 . S
C293 C312 1.368 1_556 S
C293 H317 0.949 . S
H294 C298 0.949 . S
C295 C296 1.349 1_556 S
C295 C297 1.327 . S
C295 H318 0.950 . S
C296 C295 1.349 1_554 S
C296 C308 1.349 . S
C297 C295 1.327 . S
C297 C313 1.429 1_556 S
C297 H319 0.950 . S
C298 H294 0.949 . S
C298 C306 1.574 . S
C298 C314 1.368 . S
H299 C307 0.950 . S
H300 C305 0.950 . S
H301 C306 0.949 . S
H302 C308 0.950 . S
H303 C309 0.950 . S
H304 C310 0.949 . S
C305 H300 0.950 . S
C305 C307 1.327 . S
C305 C311 1.429 1_556 S
C306 C298 1.574 . S
C306 H301 0.949 . S
C306 C312 1.368 . S
C307 C291 1.349 1_556 S
C307 H299 0.950 . S
C307 C305 1.327 . S
C308 C296 1.349 . S
C308 H302 0.950 . S
C308 C309 1.327 . S
C309 H303 0.950 . S
C309 C308 1.327 . S
C309 C313 1.429 . S
C310 C293 1.574 . S
C310 H304 0.949 . S
C310 C314 1.368 1_556 S
C311 C292 1.429 . S
C311 C305 1.429 1_554 S
C311 C312 1.523 . S
C312 C293 1.368 1_554 S
C312 C306 1.368 . S
C312 C311 1.523 . S
C313 C297 1.429 1_554 S
C313 C309 1.429 . S
C313 C314 1.523 . S
C314 C298 1.368 . S
C314 C310 1.368 1_554 S
C314 C313 1.523 . S
H315 C290 0.950 . S
H316 C292 0.950 . S
H317 C293 0.949 . S
H318 C295 0.950 . S
H319 C297 0.950 . S
C320 C321 1.349 . S
C320 C322 1.327 . S
C320 H345 0.950 . S
C321 C320 1.349 . S
C321 C337 1.349 . S
C322 C320 1.327 . S
C322 C341 1.429 . S
C322 H346 0.950 . S
C323 C340 1.574 . S
C323 C342 1.368 . S
C323 H347 0.949 . S
H324 C328 0.949 . S
C325 C326 1.349 . S
C325 C327 1.327 . S
C325 H348 0.950 . S
C326 C325 1.349 . S
C326 C338 1.349 . S
C327 C325 1.327 . S
C327 C343 1.429 . S
C327 H349 0.950 . S
C328 H324 0.949 . S
C328 C336 1.574 . S
C328 C344 1.368 . S
H329 C337 0.950 . S
H330 C335 0.950 . S
H331 C336 0.949 . S
H332 C338 0.950 . S
H333 C339 0.950 . S
H334 C340 0.949 . S
C335 H330 0.950 . S
C335 C337 1.327 . S
C335 C341 1.429 . S
C336 C328 1.574 . S
C336 H331 0.949 . S
C336 C342 1.368 . S
C337 C321 1.349 . S
C337 H329 0.950 . S
C337 C335 1.327 . S
C338 C326 1.349 . S
C338 H332 0.950 . S
C338 C339 1.327 . S
C339 H333 0.950 . S
C339 C338 1.327 . S
C339 C343 1.429 . S
C340 C323 1.574 . S
C340 H334 0.949 . S
C340 C344 1.368 . S
C341 C322 1.429 . S
C341 C335 1.429 . S
C341 C342 1.523 . S
C342 C323 1.368 . S
C342 C336 1.368 . S
C342 C341 1.523 . S
C343 C327 1.429 . S
C343 C339 1.429 . S
C343 C344 1.523 . S
C344 C328 1.368 . S
C344 C340 1.368 . S
C344 C343 1.523 . S
H345 C320 0.950 . S
H346 C322 0.950 . S
H347 C323 0.949 . S
H348 C325 0.950 . S
H349 C327 0.950 . S
C350 C351 1.349 . S
C350 C352 1.327 . S
C350 H375 0.950 . S
C351 C350 1.349 . S
C351 C367 1.349 . S
C352 C350 1.327 . S
C352 C371 1.429 . S
C352 H376 0.950 . S
C353 C370 1.574 . S
C353 C372 1.368 . S
C353 H377 0.949 . S
H354 C358 0.949 . S
C355 C356 1.349 . S
C355 C357 1.327 . S
C355 H378 0.950 . S
C356 C355 1.349 . S
C356 C368 1.349 . S
C357 C355 1.327 . S
C357 C373 1.429 . S
C357 H379 0.950 . S
C358 H354 0.949 . S
C358 C366 1.574 . S
C358 C374 1.368 . S
H359 C367 0.950 . S
H360 C365 0.950 . S
H361 C366 0.949 . S
H362 C368 0.950 . S
H363 C369 0.950 . S
H364 C370 0.949 . S
C365 H360 0.950 . S
C365 C367 1.327 . S
C365 C371 1.429 . S
C366 C358 1.574 . S
C366 H361 0.949 . S
C366 C372 1.368 . S
C367 C351 1.349 . S
C367 H359 0.950 . S
C367 C365 1.327 . S
C368 C356 1.349 . S
C368 H362 0.950 . S
C368 C369 1.327 . S
C369 H363 0.950 . S
C369 C368 1.327 . S
C369 C373 1.429 . S
C370 C353 1.574 . S
C370 H364 0.949 . S
C370 C374 1.368 . S
C371 C352 1.429 . S
C371 C365 1.429 . S
C371 C372 1.523 . S
C372 C353 1.368 . S
C372 C366 1.368 . S
C372 C371 1.523 . S
C373 C357 1.429 . S
C373 C369 1.429 . S
C373 C374 1.523 . S
C374 C358 1.368 . S
C374 C370 1.368 . S
C374 C373 1.523 . S
H375 C350 0.950 . S
H376 C352 0.950 . S
H377 C353 0.949 . S
H378 C355 0.950 . S
H379 C357 0.950 . S
C380 C381 1.349 . S
C380 C382 1.327 . S
C380 H405 0.950 . S
C381 C380 1.349 . S
C381 C397 1.349 . S
C382 C380 1.327 . S
C382 C401 1.429 . S
C382 H406 0.950 . S
C383 C400 1.574 . S
C383 C402 1.368 . S
C383 H407 0.949 . S
H384 C388 0.949 . S
C385 C386 1.349 . S
C385 C387 1.327 . S
C385 H408 0.950 . S
C386 C385 1.349 . S
C386 C398 1.349 . S
C387 C385 1.327 . S
C387 C403 1.429 . S
C387 H409 0.950 . S
C388 H384 0.949 . S
C388 C396 1.574 . S
C388 C404 1.368 . S
H389 C397 0.950 . S
H390 C395 0.950 . S
H391 C396 0.949 . S
H392 C398 0.950 . S
H393 C399 0.950 . S
H394 C400 0.949 . S
C395 H390 0.950 . S
C395 C397 1.327 . S
C395 C401 1.429 . S
C396 C388 1.574 . S
C396 H391 0.949 . S
C396 C402 1.368 . S
C397 C381 1.349 . S
C397 H389 0.950 . S
C397 C395 1.327 . S
C398 C386 1.349 . S
C398 H392 0.950 . S
C398 C399 1.327 . S
C399 H393 0.950 . S
C399 C398 1.327 . S
C399 C403 1.429 . S
C400 C383 1.574 . S
C400 H394 0.949 . S
C400 C404 1.368 . S
C401 C382 1.429 . S
C401 C395 1.429 . S
C401 C402 1.523 . S
C402 C383 1.368 . S
C402 C396 1.368 . S
C402 C401 1.523 . S
C403 C387 1.429 . S
C403 C399 1.429 . S
C403 C404 1.523 . S
C404 C388 1.368 . S
C404 C400 1.368 . S
C404 C403 1.523 . S
H405 C380 0.950 . S
H406 C382 0.950 . S
H407 C383 0.949 . S
H408 C385 0.950 . S
H409 C387 0.950 . S
C410 C411 1.349 . S
C410 C412 1.327 . S
C410 H435 0.950 . S
C411 C410 1.349 . S
C411 C427 1.349 . S
C412 C410 1.327 . S
C412 C431 1.429 . S
C412 H436 0.950 . S
C413 C430 1.574 . S
C413 C432 1.368 . S
C413 H437 0.949 . S
H414 C418 0.949 . S
C415 C416 1.349 . S
C415 C417 1.327 . S
C415 H438 0.950 . S
C416 C415 1.349 . S
C416 C428 1.349 . S
C417 C415 1.327 . S
C417 C433 1.429 . S
C417 H439 0.950 . S
C418 H414 0.949 . S
C418 C426 1.574 . S
C418 C434 1.368 . S
H419 C427 0.950 . S
H420 C425 0.950 . S
H421 C426 0.949 . S
H422 C428 0.950 . S
H423 C429 0.950 . S
H424 C430 0.949 . S
C425 H420 0.950 . S
C425 C427 1.327 . S
C425 C431 1.429 . S
C426 C418 1.574 . S
C426 H421 0.949 . S
C426 C432 1.368 . S
C427 C411 1.349 . S
C427 H419 0.950 . S
C427 C425 1.327 . S
C428 C416 1.349 . S
C428 H422 0.950 . S
C428 C429 1.327 . S
C429 H423 0.950 . S
C429 C428 1.327 . S
C429 C433 1.429 . S
C430 C413 1.574 . S
C430 H424 0.949 . S
C430 C434 1.368 . S
C431 C412 1.429 . S
C431 C425 1.429 . S
C431 C432 1.523 . S
C432 C413 1.368 . S
C432 C426 1.368 . S
C432 C431 1.523 . S
C433 C417 1.429 . S
C433 C429 1.429 . S
C433 C434 1.523 . S
C434 C418 1.368 . S
C434 C430 1.368 . S
C434 C433 1.523 . S
H435 C410 0.950 . S
H436 C412 0.950 . S
H437 C413 0.949 . S
H438 C415 0.950 . S
H439 C417 0.950 . S
C440 C441 1.349 . S
C440 C442 1.327 . S
C440 H465 0.950 . S
C441 C440 1.349 . S
C441 C457 1.349 . S
C442 C440 1.327 . S
C442 C461 1.429 . S
C442 H466 0.950 . S
C443 C460 1.574 . S
C443 C462 1.368 . S
C443 H467 0.949 . S
H444 C448 0.949 . S
C445 C446 1.349 . S
C445 C447 1.327 . S
C445 H468 0.950 . S
C446 C445 1.349 . S
C446 C458 1.349 . S
C447 C445 1.327 . S
C447 C463 1.429 . S
C447 H469 0.950 . S
C448 H444 0.949 . S
C448 C456 1.574 . S
C448 C464 1.368 . S
H449 C457 0.950 . S
H450 C455 0.950 . S
H451 C456 0.949 . S
H452 C458 0.950 . S
H453 C459 0.950 . S
H454 C460 0.949 . S
C455 H450 0.950 . S
C455 C457 1.327 . S
C455 C461 1.429 . S
C456 C448 1.574 . S
C456 H451 0.949 . S
C456 C462 1.368 . S
C457 C441 1.349 . S
C457 H449 0.950 . S
C457 C455 1.327 . S
C458 C446 1.349 . S
C458 H452 0.950 . S
C458 C459 1.327 . S
C459 H453 0.950 . S
C459 C458 1.327 . S
C459 C463 1.429 . S
C460 C443 1.574 . S
C460 H454 0.949 . S
C460 C464 1.368 . S
C461 C442 1.429 . S
C461 C455 1.429 . S
C461 C462 1.523 . S
C462 C443 1.368 . S
C462 C456 1.368 . S
C462 C461 1.523 . S
C463 C447 1.429 . S
C463 C459 1.429 . S
C463 C464 1.523 . S
C464 C448 1.368 . S
C464 C460 1.368 . S
C464 C463 1.523 . S
H465 C440 0.950 . S
H466 C442 0.950 . S
H467 C443 0.949 . S
H468 C445 0.950 . S
H469 C447 0.950 . S
C470 C471 1.349 . S
C470 C472 1.327 . S
C470 H495 0.950 . S
C471 C470 1.349 . S
C471 C487 1.349 . S
C472 C470 1.327 . S
C472 C491 1.429 . S
C472 H496 0.950 . S
C473 C490 1.574 . S
C473 C492 1.368 . S
C473 H497 0.949 . S
H474 C478 0.949 . S
C475 C476 1.349 . S
C475 C477 1.327 . S
C475 H498 0.950 . S
C476 C475 1.349 . S
C476 C488 1.349 . S
C477 C475 1.327 . S
C477 C493 1.429 . S
C477 H499 0.950 . S
C478 H474 0.949 . S
C478 C486 1.574 . S
C478 C494 1.368 . S
H479 C487 0.950 . S
H480 C485 0.950 . S
H481 C486 0.949 . S
H482 C488 0.950 . S
H483 C489 0.950 . S
H484 C490 0.949 . S
C485 H480 0.950 . S
C485 C487 1.327 . S
C485 C491 1.429 . S
C486 C478 1.574 . S
C486 H481 0.949 . S
C486 C492 1.368 . S
C487 C471 1.349 . S
C487 H479 0.950 . S
C487 C485 1.327 . S
C488 C476 1.349 . S
C488 H482 0.950 . S
C488 C489 1.327 . S
C489 H483 0.950 . S
C489 C488 1.327 . S
C489 C493 1.429 . S
C490 C473 1.574 . S
C490 H484 0.949 . S
C490 C494 1.368 . S
C491 C472 1.429 . S
C491 C485 1.429 . S
C491 C492 1.523 . S
C492 C473 1.368 . S
C492 C486 1.368 . S
C492 C491 1.523 . S
C493 C477 1.429 . S
C493 C489 1.429 . S
C493 C494 1.523 . S
C494 C478 1.368 . S
C494 C490 1.368 . S
C494 C493 1.523 . S
H495 C470 0.950 . S
H496 C472 0.950 . S
H497 C473 0.949 . S
H498 C475 0.950 . S
H499 C477 0.950 . S
C500 C501 1.349 . S
C500 C502 1.327 . S
C500 H525 0.950 . S
C501 C500 1.349 . S
C501 C517 1.349 . S
C502 C500 1.327 . S
C502 C521 1.429 . S
C502 H526 0.950 . S
C503 C520 1.574 . S
C503 C522 1.368 . S
C503 H527 0.949 . S
H504 C508 0.949 . S
C505 C506 1.349 . S
C505 C507 1.327 . S
C505 H528 0.950 . S
C506 C505 1.349 . S
C506 C518 1.349 . S
C507 C505 1.327 . S
C507 C523 1.429 . S
C507 H529 0.950 . S
C508 H504 0.949 . S
C508 C516 1.574 . S
C508 C524 1.368 . S
H509 C517 0.950 . S
H510 C515 0.950 . S
H511 C516 0.949 . S
H512 C518 0.950 . S
H513 C519 0.950 . S
H514 C520 0.949 . S
C515 H510 0.950 . S
C515 C517 1.327 . S
C515 C521 1.429 . S
C516 C508 1.574 . S
C516 H511 0.949 . S
C516 C522 1.368 . S
C517 C501 1.349 . S
C517 H509 0.950 . S
C517 C515 1.327 . S
C518 C506 1.349 . S
C518 H512 0.950 . S
C518 C519 1.327 . S
C519 H513 0.950 . S
C519 C518 1.327 . S
C519 C523 1.429 . S
C520 C503 1.574 . S
C520 H514 0.949 . S
C520 C524 1.368 . S
C521 C502 1.429 . S
C521 C515 1.429 . S
C521 C522 1.523 . S
C522 C503 1.368 . S
C522 C516 1.368 . S
C522 C521 1.523 . S
C523 C507 1.429 . S
C523 C519 1.429 . S
C523 C524 1.523 . S
C524 C508 1.368 . S
C524 C520 1.368 . S
C524 C523 1.523 . S
H525 C500 0.950 . S
H526 C502 0.950 . S
H527 C503 0.949 . S
H528 C505 0.950 . S
H529 C507 0.950 . S
C530 C531 1.349 . S
C530 C532 1.327 . S
C530 H555 0.950 1_565 S
C531 C530 1.349 . S
C531 C547 1.349 . S
C532 C530 1.327 . S
C532 C551 1.429 . S
C532 H556 0.950 . S
C533 C550 1.574 . S
C533 C552 1.368 . S
C533 H557 0.949 . S
H534 C538 0.949 . S
C535 C536 1.349 . S
C535 C537 1.327 . S
C535 H558 0.950 . S
C536 C535 1.349 . S
C536 C548 1.349 . S
C537 C535 1.327 . S
C537 C553 1.429 . S
C537 H559 0.950 . S
C538 H534 0.949 . S
C538 C546 1.574 . S
C538 C554 1.368 . S
H539 C547 0.950 . S
H540 C545 0.950 . S
H541 C546 0.949 . S
H542 C548 0.950 . S
H543 C549 0.950 . S
H544 C550 0.949 . S
C545 H540 0.950 . S
C545 C547 1.327 . S
C545 C551 1.429 . S
C546 C538 1.574 . S
C546 H541 0.949 . S
C546 C552 1.368 . S
C547 C531 1.349 . S
C547 H539 0.950 . S
C547 C545 1.327 . S
C548 C536 1.349 . S
C548 H542 0.950 . S
C548 C549 1.327 . S
C549 H543 0.950 . S
C549 C548 1.327 . S
C549 C553 1.429 . S
C550 C533 1.574 . S
C550 H544 0.949 . S
C550 C554 1.368 . S
C551 C532 1.429 . S
C551 C545 1.429 . S
C551 C552 1.523 . S
C552 C533 1.368 . S
C552 C546 1.368 . S
C552 C551 1.523 . S
C553 C537 1.429 . S
C553 C549 1.429 . S
C553 C554 1.523 . S
C554 C538 1.368 . S
C554 C550 1.368 . S
C554 C553 1.523 . S
H555 C530 0.950 1_545 S
H556 C532 0.950 . S
H557 C533 0.949 . S
H558 C535 0.950 . S
H559 C537 0.950 . S
C560 C561 1.349 . S
C560 C562 1.327 . S
C560 H585 0.950 1_565 S
C561 C560 1.349 . S
C561 C577 1.349 . S
C562 C560 1.327 . S
C562 C581 1.429 . S
C562 H586 0.950 . S
C563 C580 1.574 . S
C563 C582 1.368 . S
C563 H587 0.949 . S
H564 C568 0.949 . S
C565 C566 1.349 . S
C565 C567 1.327 . S
C565 H588 0.950 . S
C566 C565 1.349 . S
C566 C578 1.349 . S
C567 C565 1.327 . S
C567 C583 1.429 . S
C567 H589 0.950 . S
C568 H564 0.949 . S
C568 C576 1.574 . S
C568 C584 1.368 . S
H569 C577 0.950 . S
H570 C575 0.950 . S
H571 C576 0.949 . S
H572 C578 0.950 . S
H573 C579 0.950 . S
H574 C580 0.949 . S
C575 H570 0.950 . S
C575 C577 1.327 . S
C575 C581 1.429 . S
C576 C568 1.574 . S
C576 H571 0.949 . S
C576 C582 1.368 . S
C577 C561 1.349 . S
C577 H569 0.950 . S
C577 C575 1.327 . S
C578 C566 1.349 . S
C578 H572 0.950 . S
C578 C579 1.327 . S
C579 H573 0.950 . S
C579 C578 1.327 . S
C579 C583 1.429 . S
C580 C563 1.574 . S
C580 H574 0.949 . S
C580 C584 1.368 . S
C581 C562 1.429 . S
C581 C575 1.429 . S
C581 C582 1.523 . S
C582 C563 1.368 . S
C582 C576 1.368 . S
C582 C581 1.523 . S
C583 C567 1.429 . S
C583 C579 1.429 . S
C583 C584 1.523 . S
C584 C568 1.368 . S
C584 C580 1.368 . S
C584 C583 1.523 . S
H585 C560 0.950 1_545 S
H586 C562 0.950 . S
H587 C563 0.949 . S
H588 C565 0.950 . S
H589 C567 0.950 . S
C590 C591 1.349 . S
C590 C592 1.327 . S
C590 H615 0.950 1_455 S
C591 C590 1.349 . S
C591 C607 1.349 . S
C592 C590 1.327 . S
C592 C611 1.429 . S
C592 H616 0.950 . S
C593 C610 1.574 . S
C593 C612 1.368 . S
C593 H617 0.949 . S
H594 C598 0.949 . S
C595 C596 1.349 . S
C595 C597 1.327 . S
C595 H618 0.950 . S
C596 C595 1.349 . S
C596 C608 1.349 . S
C597 C595 1.327 . S
C597 C613 1.429 . S
C597 H619 0.950 . S
C598 H594 0.949 . S
C598 C606 1.574 . S
C598 C614 1.368 . S
H599 C607 0.950 . S
H600 C605 0.950 . S
H601 C606 0.949 . S
H602 C608 0.950 . S
H603 C609 0.950 . S
H604 C610 0.949 . S
C605 H600 0.950 . S
C605 C607 1.327 . S
C605 C611 1.429 . S
C606 C598 1.574 . S
C606 H601 0.949 . S
C606 C612 1.368 . S
C607 C591 1.349 . S
C607 H599 0.950 . S
C607 C605 1.327 . S
C608 C596 1.349 . S
C608 H602 0.950 . S
C608 C609 1.327 . S
C609 H603 0.950 . S
C609 C608 1.327 . S
C609 C613 1.429 . S
C610 C593 1.574 . S
C610 H604 0.949 . S
C610 C614 1.368 . S
C611 C592 1.429 . S
C611 C605 1.429 . S
C611 C612 1.523 . S
C612 C593 1.368 . S
C612 C606 1.368 . S
C612 C611 1.523 . S
C613 C597 1.429 . S
C613 C609 1.429 . S
C613 C614 1.523 . S
C614 C598 1.368 . S
C614 C610 1.368 . S
C614 C613 1.523 . S
H615 C590 0.950 1_655 S
H616 C592 0.950 . S
H617 C593 0.949 . S
H618 C595 0.950 . S
H619 C597 0.950 . S
C620 C621 1.349 . S
C620 C622 1.327 . S
C620 H645 0.950 . S
C621 C620 1.349 . S
C621 C637 1.349 . S
C622 C620 1.327 . S
C622 C641 1.429 . S
C622 H646 0.950 . S
C623 C640 1.574 . S
C623 C642 1.368 . S
C623 H647 0.949 . S
H624 C628 0.949 . S
C625 C626 1.349 . S
C625 C627 1.327 . S
C625 H648 0.950 . S
C626 C625 1.349 . S
C626 C638 1.349 . S
C627 C625 1.327 . S
C627 C643 1.429 . S
C627 H649 0.950 . S
C628 H624 0.949 . S
C628 C636 1.574 . S
C628 C644 1.368 . S
H629 C637 0.950 1_565 S
H630 C635 0.950 . S
H631 C636 0.949 . S
H632 C638 0.950 . S
H633 C639 0.950 . S
H634 C640 0.949 . S
C635 H630 0.950 . S
C635 C637 1.327 . S
C635 C641 1.429 . S
C636 C628 1.574 . S
C636 H631 0.949 . S
C636 C642 1.368 . S
C637 C621 1.349 . S
C637 H629 0.950 1_545 S
C637 C635 1.327 . S
C638 C626 1.349 . S
C638 H632 0.950 . S
C638 C639 1.327 . S
C639 H633 0.950 . S
C639 C638 1.327 . S
C639 C643 1.429 . S
C640 C623 1.574 . S
C640 H634 0.949 . S
C640 C644 1.368 . S
C641 C622 1.429 . S
C641 C635 1.429 . S
C641 C642 1.523 . S
C642 C623 1.368 . S
C642 C636 1.368 . S
C642 C641 1.523 . S
C643 C627 1.429 . S
C643 C639 1.429 . S
C643 C644 1.523 . S
C644 C628 1.368 . S
C644 C640 1.368 . S
C644 C643 1.523 . S
H645 C620 0.950 . S
H646 C622 0.950 . S
H647 C623 0.949 . S
H648 C625 0.950 . S
H649 C627 0.950 . S
C650 C651 1.349 . S
C650 C652 1.327 . S
C650 H675 0.950 . S
C651 C650 1.349 . S
C651 C667 1.349 . S
C652 C650 1.327 . S
C652 C671 1.429 . S
C652 H676 0.950 . S
C653 C670 1.574 . S
C653 C672 1.368 . S
C653 H677 0.949 . S
H654 C658 0.949 . S
C655 C656 1.349 . S
C655 C657 1.327 . S
C655 H678 0.950 . S
C656 C655 1.349 . S
C656 C668 1.349 . S
C657 C655 1.327 . S
C657 C673 1.429 . S
C657 H679 0.950 . S
C658 H654 0.949 . S
C658 C666 1.574 . S
C658 C674 1.368 . S
H659 C667 0.950 1_455 S
H660 C665 0.950 . S
H661 C666 0.949 . S
H662 C668 0.950 . S
H663 C669 0.950 . S
H664 C670 0.949 . S
C665 H660 0.950 . S
C665 C667 1.327 . S
C665 C671 1.429 . S
C666 C658 1.574 . S
C666 H661 0.949 . S
C666 C672 1.368 . S
C667 C651 1.349 . S
C667 H659 0.950 1_655 S
C667 C665 1.327 . S
C668 C656 1.349 . S
C668 H662 0.950 . S
C668 C669 1.327 . S
C669 H663 0.950 . S
C669 C668 1.327 . S
C669 C673 1.429 . S
C670 C653 1.574 . S
C670 H664 0.949 . S
C670 C674 1.368 . S
C671 C652 1.429 . S
C671 C665 1.429 . S
C671 C672 1.523 . S
C672 C653 1.368 . S
C672 C666 1.368 . S
C672 C671 1.523 . S
C673 C657 1.429 . S
C673 C669 1.429 . S
C673 C674 1.523 . S
C674 C658 1.368 . S
C674 C670 1.368 . S
C674 C673 1.523 . S
H675 C650 0.950 . S
H676 C652 0.950 . S
H677 C653 0.949 . S
H678 C655 0.950 . S
H679 C657 0.950 . S
C680 C681 1.349 . S
C680 C682 1.327 . S
C680 H705 0.950 . S
C681 C680 1.349 . S
C681 C697 1.349 . S
C682 C680 1.327 . S
C682 C701 1.429 . S
C682 H706 0.950 . S
C683 C700 1.574 . S
C683 C702 1.368 . S
C683 H707 0.949 . S
H684 C688 0.949 . S
C685 C686 1.349 . S
C685 C687 1.327 . S
C685 H708 0.950 . S
C686 C685 1.349 . S
C686 C698 1.349 . S
C687 C685 1.327 . S
C687 C703 1.429 . S
C687 H709 0.950 . S
C688 H684 0.949 . S
C688 C696 1.574 . S
C688 C704 1.368 . S
H689 C697 0.950 . S
H690 C695 0.950 . S
H691 C696 0.949 . S
H692 C698 0.950 . S
H693 C699 0.950 . S
H694 C700 0.949 . S
C695 H690 0.950 . S
C695 C697 1.327 . S
C695 C701 1.429 . S
C696 C688 1.574 . S
C696 H691 0.949 . S
C696 C702 1.368 . S
C697 C681 1.349 . S
C697 H689 0.950 . S
C697 C695 1.327 . S
C698 C686 1.349 . S
C698 H692 0.950 . S
C698 C699 1.327 . S
C699 H693 0.950 . S
C699 C698 1.327 . S
C699 C703 1.429 . S
C700 C683 1.574 . S
C700 H694 0.949 . S
C700 C704 1.368 . S
C701 C682 1.429 . S
C701 C695 1.429 . S
C701 C702 1.523 . S
C702 C683 1.368 . S
C702 C696 1.368 . S
C702 C701 1.523 . S
C703 C687 1.429 . S
C703 C699 1.429 . S
C703 C704 1.523 . S
C704 C688 1.368 . S
C704 C700 1.368 . S
C704 C703 1.523 . S
H705 C680 0.950 . S
H706 C682 0.950 . S
H707 C683 0.949 . S
H708 C685 0.950 . S
H709 C687 0.950 . S
C710 C711 1.349 . S
C710 C712 1.327 . S
C710 H735 0.950 . S
C711 C710 1.349 . S
C711 C727 1.349 . S
C712 C710 1.327 . S
C712 C731 1.429 . S
C712 H736 0.950 . S
C713 C730 1.574 . S
C713 C732 1.368 . S
C713 H737 0.949 . S
H714 C718 0.949 . S
C715 C716 1.349 . S
C715 C717 1.327 . S
C715 H738 0.950 . S
C716 C715 1.349 . S
C716 C728 1.349 . S
C717 C715 1.327 . S
C717 C733 1.429 . S
C717 H739 0.950 . S
C718 H714 0.949 . S
C718 C726 1.574 . S
C718 C734 1.368 . S
H719 C727 0.950 . S
H720 C725 0.950 . S
H721 C726 0.949 . S
H722 C728 0.950 . S
H723 C729 0.950 . S
H724 C730 0.949 . S
C725 H720 0.950 . S
C725 C727 1.327 . S
C725 C731 1.429 . S
C726 C718 1.574 . S
C726 H721 0.949 . S
C726 C732 1.368 . S
C727 C711 1.349 . S
C727 H719 0.950 . S
C727 C725 1.327 . S
C728 C716 1.349 . S
C728 H722 0.950 . S
C728 C729 1.327 . S
C729 H723 0.950 . S
C729 C728 1.327 . S
C729 C733 1.429 . S
C730 C713 1.574 . S
C730 H724 0.949 . S
C730 C734 1.368 . S
C731 C712 1.429 . S
C731 C725 1.429 . S
C731 C732 1.523 . S
C732 C713 1.368 . S
C732 C726 1.368 . S
C732 C731 1.523 . S
C733 C717 1.429 . S
C733 C729 1.429 . S
C733 C734 1.523 . S
C734 C718 1.368 . S
C734 C730 1.368 . S
C734 C733 1.523 . S
H735 C710 0.950 . S
H736 C712 0.950 . S
H737 C713 0.949 . S
H738 C715 0.950 . S
H739 C717 0.950 . S
C740 C741 1.349 . S
C740 C742 1.327 . S
C740 H765 0.950 . S
C741 C740 1.349 . S
C741 C757 1.349 . S
C742 C740 1.327 . S
C742 C761 1.429 . S
C742 H766 0.950 . S
C743 C760 1.574 . S
C743 C762 1.368 . S
C743 H767 0.949 . S
H744 C748 0.949 . S
C745 C746 1.349 . S
C745 C747 1.327 . S
C745 H768 0.950 . S
C746 C745 1.349 . S
C746 C758 1.349 . S
C747 C745 1.327 . S
C747 C763 1.429 . S
C747 H769 0.950 . S
C748 H744 0.949 . S
C748 C756 1.574 . S
C748 C764 1.368 . S
H749 C757 0.950 . S
H750 C755 0.950 . S
H751 C756 0.949 . S
H752 C758 0.950 . S
H753 C759 0.950 . S
H754 C760 0.949 . S
C755 H750 0.950 . S
C755 C757 1.327 . S
C755 C761 1.429 . S
C756 C748 1.574 . S
C756 H751 0.949 . S
C756 C762 1.368 . S
C757 C741 1.349 . S
C757 H749 0.950 . S
C757 C755 1.327 . S
C758 C746 1.349 . S
C758 H752 0.950 . S
C758 C759 1.327 . S
C759 H753 0.950 . S
C759 C758 1.327 . S
C759 C763 1.429 . S
C760 C743 1.574 . S
C760 H754 0.949 . S
C760 C764 1.368 . S
C761 C742 1.429 . S
C761 C755 1.429 . S
C761 C762 1.523 . S
C762 C743 1.368 . S
C762 C756 1.368 . S
C762 C761 1.523 . S
C763 C747 1.429 . S
C763 C759 1.429 . S
C763 C764 1.523 . S
C764 C748 1.368 . S
C764 C760 1.368 . S
C764 C763 1.523 . S
H765 C740 0.950 . S
H766 C742 0.950 . S
H767 C743 0.949 . S
H768 C745 0.950 . S
H769 C747 0.950 . S
C770 C771 1.349 . S
C770 C772 1.327 . S
C770 H795 0.950 . S
C771 C770 1.349 . S
C771 C787 1.349 . S
C772 C770 1.327 . S
C772 C791 1.429 . S
C772 H796 0.950 . S
C773 C790 1.574 . S
C773 C792 1.368 . S
C773 H797 0.949 . S
H774 C778 0.949 . S
C775 C776 1.349 . S
C775 C777 1.327 . S
C775 H798 0.950 . S
C776 C775 1.349 . S
C776 C788 1.349 . S
C777 C775 1.327 . S
C777 C793 1.429 . S
C777 H799 0.950 . S
C778 H774 0.949 . S
C778 C786 1.574 . S
C778 C794 1.368 . S
H779 C787 0.950 . S
H780 C785 0.950 . S
H781 C786 0.949 . S
H782 C788 0.950 . S
H783 C789 0.950 . S
H784 C790 0.949 . S
C785 H780 0.950 . S
C785 C787 1.327 . S
C785 C791 1.429 . S
C786 C778 1.574 . S
C786 H781 0.949 . S
C786 C792 1.368 . S
C787 C771 1.349 . S
C787 H779 0.950 . S
C787 C785 1.327 . S
C788 C776 1.349 . S
C788 H782 0.950 . S
C788 C789 1.327 . S
C789 H783 0.950 . S
C789 C788 1.327 . S
C789 C793 1.429 . S
C790 C773 1.574 . S
C790 H784 0.949 . S
C790 C794 1.368 . S
C791 C772 1.429 . S
C791 C785 1.429 . S
C791 C792 1.523 . S
C792 C773 1.368 . S
C792 C786 1.368 . S
C792 C791 1.523 . S
C793 C777 1.429 . S
C793 C789 1.429 . S
C793 C794 1.523 . S
C794 C778 1.368 . S
C794 C790 1.368 . S
C794 C793 1.523 . S
H795 C770 0.950 . S
H796 C772 0.950 . S
H797 C773 0.949 . S
H798 C775 0.950 . S
H799 C777 0.950 . S
C800 C801 1.349 . S
C800 C802 1.327 . S
C800 H825 0.950 . S
C801 C800 1.349 . S
C801 C817 1.349 . S
C802 C800 1.327 . S
C802 C821 1.429 . S
C802 H826 0.950 . S
C803 C820 1.574 . S
C803 C822 1.368 . S
C803 H827 0.949 . S
H804 C808 0.949 . S
C805 C806 1.349 . S
C805 C807 1.327 . S
C805 H828 0.950 . S
C806 C805 1.349 . S
C806 C818 1.349 . S
C807 C805 1.327 . S
C807 C823 1.429 . S
C807 H829 0.950 . S
C808 H804 0.949 . S
C808 C816 1.574 . S
C808 C824 1.368 . S
H809 C817 0.950 . S
H810 C815 0.950 . S
H811 C816 0.949 . S
H812 C818 0.950 . S
H813 C819 0.950 . S
H814 C820 0.949 . S
C815 H810 0.950 . S
C815 C817 1.327 . S
C815 C821 1.429 . S
C816 C808 1.574 . S
C816 H811 0.949 . S
C816 C822 1.368 . S
C817 C801 1.349 . S
C817 H809 0.950 . S
C817 C815 1.327 . S
C818 C806 1.349 . S
C818 H812 0.950 . S
C818 C819 1.327 . S
C819 H813 0.950 . S
C819 C818 1.327 . S
C819 C823 1.429 . S
C820 C803 1.574 . S
C820 H814 0.949 . S
C820 C824 1.368 . S
C821 C802 1.429 . S
C821 C815 1.429 . S
C821 C822 1.523 . S
C822 C803 1.368 . S
C822 C816 1.368 . S
C822 C821 1.523 . S
C823 C807 1.429 . S
C823 C819 1.429 . S
C823 C824 1.523 . S
C824 C808 1.368 . S
C824 C820 1.368 . S
C824 C823 1.523 . S
H825 C800 0.950 . S
H826 C802 0.950 . S
H827 C803 0.949 . S
H828 C805 0.950 . S
H829 C807 0.950 . S
C830 C831 1.349 . S
C830 C832 1.327 . S
C830 H855 0.950 . S
C831 C830 1.349 . S
C831 C847 1.349 . S
C832 C830 1.327 . S
C832 C851 1.429 . S
C832 H856 0.950 . S
C833 C850 1.574 . S
C833 C852 1.368 . S
C833 H857 0.949 . S
H834 C838 0.949 . S
C835 C836 1.349 . S
C835 C837 1.327 . S
C835 H858 0.950 . S
C836 C835 1.349 . S
C836 C848 1.349 . S
C837 C835 1.327 . S
C837 C853 1.429 . S
C837 H859 0.950 . S
C838 H834 0.949 . S
C838 C846 1.574 . S
C838 C854 1.368 . S
H839 C847 0.950 . S
H840 C845 0.950 . S
H841 C846 0.949 . S
H842 C848 0.950 . S
H843 C849 0.950 . S
H844 C850 0.949 . S
C845 H840 0.950 . S
C845 C847 1.327 . S
C845 C851 1.429 . S
C846 C838 1.574 . S
C846 H841 0.949 . S
C846 C852 1.368 . S
C847 C831 1.349 . S
C847 H839 0.950 . S
C847 C845 1.327 . S
C848 C836 1.349 . S
C848 H842 0.950 . S
C848 C849 1.327 . S
C849 H843 0.950 . S
C849 C848 1.327 . S
C849 C853 1.429 . S
C850 C833 1.574 . S
C850 H844 0.949 . S
C850 C854 1.368 . S
C851 C832 1.429 . S
C851 C845 1.429 . S
C851 C852 1.523 . S
C852 C833 1.368 . S
C852 C846 1.368 . S
C852 C851 1.523 . S
C853 C837 1.429 . S
C853 C849 1.429 . S
C853 C854 1.523 . S
C854 C838 1.368 . S
C854 C850 1.368 . S
C854 C853 1.523 . S
H855 C830 0.950 . S
H856 C832 0.950 . S
H857 C833 0.949 . S
H858 C835 0.950 . S
H859 C837 0.950 . S
C860 C861 1.349 . S
C860 C862 1.327 . S
C860 H885 0.950 . S
C861 C860 1.349 . S
C861 C877 1.349 . S
C862 C860 1.327 . S
C862 C881 1.429 . S
C862 H886 0.950 . S
C863 C880 1.574 . S
C863 C882 1.368 . S
C863 H887 0.949 . S
H864 C868 0.949 . S
C865 C866 1.349 . S
C865 C867 1.327 . S
C865 H888 0.950 . S
C866 C865 1.349 . S
C866 C878 1.349 . S
C867 C865 1.327 . S
C867 C883 1.429 . S
C867 H889 0.950 . S
C868 H864 0.949 . S
C868 C876 1.574 . S
C868 C884 1.368 . S
H869 C877 0.950 . S
H870 C875 0.950 . S
H871 C876 0.949 . S
H872 C878 0.950 . S
H873 C879 0.950 . S
H874 C880 0.949 . S
C875 H870 0.950 . S
C875 C877 1.327 . S
C875 C881 1.429 . S
C876 C868 1.574 . S
C876 H871 0.949 . S
C876 C882 1.368 . S
C877 C861 1.349 . S
C877 H869 0.950 . S
C877 C875 1.327 . S
C878 C866 1.349 . S
C878 H872 0.950 . S
C878 C879 1.327 . S
C879 H873 0.950 . S
C879 C878 1.327 . S
C879 C883 1.429 . S
C880 C863 1.574 . S
C880 H874 0.949 . S
C880 C884 1.368 . S
C881 C862 1.429 . S
C881 C875 1.429 . S
C881 C882 1.523 . S
C882 C863 1.368 . S
C882 C876 1.368 . S
C882 C881 1.523 . S
C883 C867 1.429 . S
C883 C879 1.429 . S
C883 C884 1.523 . S
C884 C868 1.368 . S
C884 C880 1.368 . S
C884 C883 1.523 . S
H885 C860 0.950 . S
H886 C862 0.950 . S
H887 C863 0.949 . S
H888 C865 0.950 . S
H889 C867 0.950 . S
C890 C891 1.349 . S
C890 C892 1.327 . S
C890 H915 0.950 . S
C891 C890 1.349 . S
C891 C907 1.349 . S
C892 C890 1.327 . S
C892 C911 1.429 . S
C892 H916 0.950 . S
C893 C910 1.574 . S
C893 C912 1.368 . S
C893 H917 0.949 . S
H894 C898 0.949 . S
C895 C896 1.349 . S
C895 C897 1.327 . S
C895 H918 0.950 . S
C896 C895 1.349 . S
C896 C908 1.349 . S
C897 C895 1.327 . S
C897 C913 1.429 . S
C897 H919 0.950 . S
C898 H894 0.949 . S
C898 C906 1.574 . S
C898 C914 1.368 . S
H899 C907 0.950 . S
H900 C905 0.950 . S
H901 C906 0.949 . S
H902 C908 0.950 . S
H903 C909 0.950 . S
H904 C910 0.949 . S
C905 H900 0.950 . S
C905 C907 1.327 . S
C905 C911 1.429 . S
C906 C898 1.574 . S
C906 H901 0.949 . S
C906 C912 1.368 . S
C907 C891 1.349 . S
C907 H899 0.950 . S
C907 C905 1.327 . S
C908 C896 1.349 . S
C908 H902 0.950 . S
C908 C909 1.327 . S
C909 H903 0.950 . S
C909 C908 1.327 . S
C909 C913 1.429 . S
C910 C893 1.574 . S
C910 H904 0.949 . S
C910 C914 1.368 . S
C911 C892 1.429 . S
C911 C905 1.429 . S
C911 C912 1.523 . S
C912 C893 1.368 . S
C912 C906 1.368 . S
C912 C911 1.523 . S
C913 C897 1.429 . S
C913 C909 1.429 . S
C913 C914 1.523 . S
C914 C898 1.368 . S
C914 C910 1.368 . S
C914 C913 1.523 . S
H915 C890 0.950 . S
H916 C892 0.950 . S
H917 C893 0.949 . S
H918 C895 0.950 . S
H919 C897 0.950 . S
C201 C45 1.576 . S
C206 C108 1.581 . S
C231 C30 1.577 . S
C236 C120 1.584 . S
C261 C39 1.576 . S
C266 C132 1.573 . S
C296 C144 1.582 . S
C291 C34 1.576 . S
C321 C97 1.576 . S
C326 C156 1.582 . S
C356 C168 1.573 . S
C351 C82 1.576 . S
C386 C180 1.571 . S
C381 C91 1.575 . S
C416 C192 1.583 . S
C411 C86 1.576 . S
C446 C185 1.541 . S
C441 C26 1.502 . S
C476 C194 1.508 . S
C471 C36 1.471 . S
C506 C158 1.531 . S
C501 C32 1.496 . S
C536 C173 1.565 . S
C531 C42 1.528 . S
C561 C18 1.570 . S
C566 C170 1.638 . S
C596 C182 1.661 . S
C591 C50 1.594 . S
C621 C4 1.628 . S
C626 C197 1.670 . S
C651 C48 1.603 . S
C656 C161 1.647 . S
C686 C137 1.570 . S
C681 C78 1.530 . S
C711 C88 1.484 . S
C716 C146 1.521 . S
C746 C110 1.553 . S
C741 C84 1.517 . S
C776 C122 1.475 . S
C771 C94 1.442 . S
C806 C125 1.704 . S
C801 C70 1.658 . S
C836 C134 1.633 . S
C831 C102 1.567 . S
C861 C56 1.614 . S
C866 C149 1.657 . S
C891 C100 1.581 . S
C896 C113 1.626 . S
