# Generated by pormake.
# Topology zzz, (3,6)-cn, num edge types: 1
# Building blocks:
#     Node 0, Type 0, BuildingBlock: VETTIZ_charged_linker_0, # of connection points: 3
#     Node 1, Type 0, BuildingBlock: VETTIZ_charged_linker_0, # of connection points: 3
#     Node 2, Type 0, BuildingBlock: VETTIZ_charged_linker_0, # of connection points: 3
#     Node 3, Type 0, BuildingBlock: VETTIZ_charged_linker_0, # of connection points: 3
#     Node 4, Type 0, BuildingBlock: VETTIZ_charged_linker_0, # of connection points: 3
#     Node 5, Type 0, BuildingBlock: VETTIZ_charged_linker_0, # of connection points: 3
#     Node 6, Type 0, BuildingBlock: VETTIZ_charged_linker_0, # of connection points: 3
#     Node 7, Type 0, BuildingBlock: VETTIZ_charged_linker_0, # of connection points: 3
#     Node 8, Type 1, BuildingBlock: JUFBIX_clean_sbu_0, # of connection points: 6
#     Node 9, Type 1, BuildingBlock: JUFBIX_clean_sbu_0, # of connection points: 6
#     Node 10, Type 1, BuildingBlock: JUFBIX_clean_sbu_0, # of connection points: 6
#     Node 11, Type 1, BuildingBlock: JUFBIX_clean_sbu_0, # of connection points: 6
#     Edge 12, Type (0, 1), BuildingBlock: KIFKEQ_clean_linker_1, # of connection points: 2
#     Edge 13, Type (0, 1), BuildingBlock: KIFKEQ_clean_linker_1, # of connection points: 2
#     Edge 14, Type (0, 1), BuildingBlock: KIFKEQ_clean_linker_1, # of connection points: 2
#     Edge 15, Type (0, 1), BuildingBlock: KIFKEQ_clean_linker_1, # of connection points: 2
#     Edge 16, Type (0, 1), BuildingBlock: KIFKEQ_clean_linker_1, # of connection points: 2
#     Edge 17, Type (0, 1), BuildingBlock: KIFKEQ_clean_linker_1, # of connection points: 2
#     Edge 18, Type (0, 1), BuildingBlock: KIFKEQ_clean_linker_1, # of connection points: 2
#     Edge 19, Type (0, 1), BuildingBlock: KIFKEQ_clean_linker_1, # of connection points: 2
#     Edge 20, Type (0, 1), BuildingBlock: KIFKEQ_clean_linker_1, # of connection points: 2
#     Edge 21, Type (0, 1), BuildingBlock: KIFKEQ_clean_linker_1, # of connection points: 2
#     Edge 22, Type (0, 1), BuildingBlock: KIFKEQ_clean_linker_1, # of connection points: 2
#     Edge 23, Type (0, 1), BuildingBlock: KIFKEQ_clean_linker_1, # of connection points: 2
#     Edge 24, Type (0, 1), BuildingBlock: KIFKEQ_clean_linker_1, # of connection points: 2
#     Edge 25, Type (0, 1), BuildingBlock: KIFKEQ_clean_linker_1, # of connection points: 2
#     Edge 26, Type (0, 1), BuildingBlock: KIFKEQ_clean_linker_1, # of connection points: 2
#     Edge 27, Type (0, 1), BuildingBlock: KIFKEQ_clean_linker_1, # of connection points: 2
#     Edge 28, Type (0, 1), BuildingBlock: KIFKEQ_clean_linker_1, # of connection points: 2
#     Edge 29, Type (0, 1), BuildingBlock: KIFKEQ_clean_linker_1, # of connection points: 2
#     Edge 30, Type (0, 1), BuildingBlock: KIFKEQ_clean_linker_1, # of connection points: 2
#     Edge 31, Type (0, 1), BuildingBlock: KIFKEQ_clean_linker_1, # of connection points: 2
#     Edge 32, Type (0, 1), BuildingBlock: KIFKEQ_clean_linker_1, # of connection points: 2
#     Edge 33, Type (0, 1), BuildingBlock: KIFKEQ_clean_linker_1, # of connection points: 2
#     Edge 34, Type (0, 1), BuildingBlock: KIFKEQ_clean_linker_1, # of connection points: 2
#     Edge 35, Type (0, 1), BuildingBlock: KIFKEQ_clean_linker_1, # of connection points: 2
# Relax obj value: 0.298
# Max RMSD: 0.228
# Mean RMSD: 0.191
data_MOF--net-zzz--node1-JUFBIX_clean_sbu_0--node2-VETTIZ_charged_linker_0--edge1-KIFKEQ_clean_linker_1
_symmetry_space_group_name_H-M    P1
_symmetry_Int_Tables_number       1
_symmetry_cell_setting            triclinic
loop_
_symmetry_equiv_pos_as_xyz
'x, y, z'
_cell_length_a     57.551797
_cell_length_b     58.760001
_cell_length_c     22.95173
_cell_angle_alpha  82.995464
_cell_angle_beta   90.268697
_cell_angle_gamma 86.465152
loop_
_atom_site_label
_atom_site_type_symbol
_atom_site_fract_x
_atom_site_fract_y
_atom_site_fract_z
_atom_type_partial_charge
C0 C 0.79868 0.55323 0.47399 0.0
C1 C 0.82123 0.56072 0.48307 0.0
C2 C 0.83309 0.57168 0.43515 0.0
C3 C 0.8041 0.56125 0.36933 0.0
C4 C 0.78999 0.55467 0.4158 0.0
C5 C 0.76599 0.55012 0.39331 0.0
H6 H 0.70666 0.51803 0.15875 0.0
C7 C 0.79363 0.55532 0.31557 0.0
C8 C 0.77063 0.54959 0.32771 0.0
H9 H 0.67478 0.54171 0.31194 0.0
H10 H 0.71343 0.54662 0.35249 0.0
H11 H 0.74032 0.55691 0.1347 0.0
H12 H 0.74855 0.48848 0.22422 0.0
H13 H 0.7763 0.49404 0.19688 0.0
H14 H 0.75207 0.49415 0.14644 0.0
H15 H 0.74038 0.53134 0.09905 0.0
H16 H 0.76695 0.54459 0.11219 0.0
C17 C 0.74933 0.57078 0.40411 0.0
C18 C 0.75805 0.52707 0.42329 0.0
C19 C 0.85058 0.53105 0.16385 0.0
C20 C 0.84848 0.5178 0.11736 0.0
C21 C 0.82617 0.51187 0.10129 0.0
C22 C 0.80645 0.5186 0.132 0.0
C23 C 0.80904 0.53102 0.18002 0.0
C24 C 0.83085 0.537 0.19521 0.0
C25 C 0.83072 0.54886 0.24959 0.0
C26 C 0.80493 0.54894 0.26473 0.0
C27 C 0.7925 0.53848 0.22392 0.0
C28 C 0.83912 0.57345 0.23395 0.0
C29 C 0.84626 0.53363 0.29622 0.0
C30 C 0.7079 0.52414 0.20129 0.0
C31 C 0.68778 0.52933 0.23232 0.0
C32 C 0.69013 0.53766 0.28714 0.0
C33 C 0.71243 0.5408 0.31013 0.0
C34 C 0.73237 0.53632 0.27696 0.0
C35 C 0.72967 0.52811 0.22346 0.0
C36 C 0.75211 0.52532 0.19179 0.0
C37 C 0.76859 0.53502 0.23237 0.0
C38 C 0.75739 0.54079 0.28351 0.0
C39 C 0.74996 0.54015 0.13102 0.0
C40 C 0.75761 0.49924 0.18918 0.0
H41 H 0.83448 0.57988 0.34273 0.0
H42 H 0.78865 0.54594 0.51063 0.0
H43 H 0.77113 0.51289 0.4169 0.0
H44 H 0.74122 0.52291 0.40506 0.0
H45 H 0.75586 0.52757 0.47118 0.0
H46 H 0.75796 0.58722 0.39415 0.0
H47 H 0.74384 0.56937 0.4507 0.0
H48 H 0.73374 0.5726 0.37557 0.0
H49 H 0.86733 0.53653 0.17621 0.0
H50 H 0.82396 0.50162 0.06577 0.0
H51 H 0.79001 0.51355 0.11759 0.0
H52 H 0.84112 0.57811 0.18586 0.0
H53 H 0.8563 0.57522 0.25468 0.0
H54 H 0.82643 0.58671 0.24774 0.0
H55 H 0.83924 0.51639 0.3064 0.0
H56 H 0.84789 0.54094 0.33776 0.0
H57 H 0.86431 0.5312 0.28019 0.0
H58 H 0.85001 0.57823 0.44133 0.0
C59 C 0.82445 0.57219 0.3782 0.0
C60 C 0.08128 0.84197 0.07877 0.0
C61 C 0.08968 0.86195 0.09755 0.0
C62 C 0.09244 0.86287 0.1583 0.0
C63 C 0.07283 0.82763 0.17931 0.0
C64 C 0.07315 0.82496 0.12052 0.0
C65 C 0.06236 0.80324 0.10868 0.0
H66 H 1.00222 0.71072 0.20574 0.0
C67 C 0.05857 0.80987 0.20948 0.0
C68 C 0.05271 0.79523 0.16895 0.0
H69 H 0.03928 0.72555 0.04332 0.0
H70 H 0.04886 0.76178 0.07064 0.0
H71 H 0.0385 0.73168 0.30012 0.0
H72 H 0.98079 0.7694 0.2007 0.0
H73 H 0.981 0.77356 0.27562 0.0
H74 H 0.97588 0.74562 0.25545 0.0
H75 H 0.00938 0.72211 0.30617 0.0
H76 H 0.01756 0.74554 0.34342 0.0
C77 C 0.08212 0.78643 0.09024 0.0
C78 C 0.04264 0.80948 0.0622 0.0
C79 C 0.02791 0.8247 0.40669 0.0
C80 C 0.00876 0.81767 0.43991 0.0
C81 C 0.9964 0.7994 0.42291 0.0
C82 C 1.00321 0.78856 0.37313 0.0
C83 C 0.022 0.79664 0.33891 0.0
C84 C 0.03371 0.81463 0.3563 0.0
C85 C 0.05098 0.82364 0.31243 0.0
C86 C 0.0478 0.80837 0.26498 0.0
C87 C 0.03141 0.79185 0.28063 0.0
C88 C 0.07554 0.81918 0.34108 0.0
C89 C 0.04391 0.84945 0.29171 0.0
C90 C 0.01246 0.7219 0.17658 0.0
C91 C 0.02055 0.71499 0.12272 0.0
C92 C 0.03338 0.73016 0.08537 0.0
C93 C 0.03914 0.7512 0.10152 0.0
C94 C 0.03214 0.75749 0.15596 0.0
C95 C 0.01867 0.74335 0.19257 0.0
C96 C 0.01245 0.75427 0.24785 0.0
C97 C 0.02693 0.77547 0.24095 0.0
C98 C 0.03778 0.77728 0.18584 0.0
C99 C 0.01982 0.7375 0.30261 0.0
C100 C 0.9861 0.76103 0.24528 0.0
H101 H 0.08547 0.84813 0.24466 0.0
H102 H 0.07933 0.84034 0.03259 0.0
H103 H 0.03181 0.82481 0.07236 0.0
H104 H 0.03052 0.7957 0.06079 0.0
H105 H 0.0499 0.8135 0.01763 0.0
H106 H 0.09976 0.79191 0.0999 0.0
H107 H 0.08136 0.7851 0.04241 0.0
H108 H 0.08152 0.769 0.11474 0.0
H109 H 0.03731 0.83914 0.41719 0.0
H110 H 0.98145 0.79368 0.44776 0.0
H111 H 0.9934 0.77467 0.36229 0.0
H112 H 0.07714 0.8022 0.36865 0.0
H113 H 0.07909 0.83251 0.3698 0.0
H114 H 0.08953 0.81842 0.30839 0.0
H115 H 0.026 0.85462 0.30519 0.0
H116 H 0.04335 0.85347 0.24334 0.0
H117 H 0.05582 0.86099 0.31012 0.0
H118 H 0.09984 0.87748 0.17424 0.0
C119 C 0.084 0.84584 0.19923 0.0
C120 C 0.8332 1.0009 0.18235 0.0
C121 C 0.84343 0.99269 0.13214 0.0
C122 C 0.83077 0.97855 0.09993 0.0
C123 C 0.79734 0.98413 0.15996 0.0
C124 C 0.81008 0.99562 0.19663 0.0
C125 C 0.79639 0.99906 0.252 0.0
H126 H 0.69458 0.97699 0.40082 0.0
C127 C 0.77456 0.98058 0.18467 0.0
C128 C 0.77391 0.98732 0.2411 0.0
H129 H 0.74844 0.01792 0.45469 0.0
H130 H 0.77176 1.00949 0.36976 0.0
H131 H 0.68529 0.9962 0.30207 0.0
H132 H 0.71007 0.93435 0.27625 0.0
H133 H 0.69537 0.94241 0.34055 0.0
H134 H 0.72639 0.93621 0.3409 0.0
H135 H 0.67757 0.97302 0.26596 0.0
H136 H 0.69475 0.99528 0.22958 0.0
C137 C 0.79176 0.02506 0.25399 0.0
C138 C 0.81014 0.98687 0.30588 0.0
C139 C 0.70354 0.98508 0.05508 0.0
C140 C 0.68033 0.98084 0.0693 0.0
C141 C 0.67551 0.96695 0.1217 0.0
C142 C 0.69325 0.95975 0.16273 0.0
C143 C 0.71546 0.9676 0.15219 0.0
C144 C 0.72101 0.97798 0.09736 0.0
C145 C 0.74657 0.98196 0.09319 0.0
C146 C 0.75434 0.97448 0.1571 0.0
C147 C 0.73531 0.9684 0.19187 0.0
C148 C 0.75007 1.00767 0.07471 0.0
C149 C 0.75746 0.96698 0.04844 0.0
C150 C 0.7117 0.98363 0.39518 0.0
C151 C 0.71992 0.99767 0.43449 0.0
C152 C 0.74193 1.00673 0.42503 0.0
C153 C 0.75526 1.00202 0.3756 0.0
C154 C 0.74602 0.98883 0.33462 0.0
C155 C 0.72432 0.98029 0.34488 0.0
C156 C 0.71488 0.97 0.29396 0.0
C157 C 0.73491 0.97275 0.25145 0.0
C158 C 0.75352 0.98337 0.27551 0.0
C159 C 0.69206 0.98419 0.27145 0.0
C160 C 0.71133 0.94436 0.3138 0.0
H161 H 0.79969 0.96102 0.09369 0.0
H162 H 0.84307 1.01055 0.21002 0.0
H163 H 0.81544 0.96886 0.29916 0.0
H164 H 0.79977 0.98604 0.34629 0.0
H165 H 0.82614 0.99584 0.31328 0.0
H166 H 0.78472 0.03357 0.21102 0.0
H167 H 0.80811 0.03309 0.26354 0.0
H168 H 0.7788 0.0289 0.2872 0.0
H169 H 0.70767 0.99501 0.01396 0.0
H170 H 0.65783 0.96262 0.13198 0.0
H171 H 0.68906 0.94919 0.20227 0.0
H172 H 0.74121 0.01842 0.10566 0.0
H173 H 0.74297 0.0133 0.02982 0.0
H174 H 0.76885 0.01097 0.07432 0.0
H175 H 0.74549 0.96645 0.01052 0.0
H176 H 0.76142 0.94901 0.06894 0.0
H177 H 0.7734 0.97422 0.02895 0.0
H178 H 0.83864 0.97101 0.06339 0.0
C179 C 0.808 0.97375 0.11479 0.0
C180 C 0.50218 0.72269 0.38274 0.0
C181 C 0.49608 0.70054 0.40695 0.0
C182 C 0.48116 0.68847 0.37521 0.0
C183 C 0.4794 0.71924 0.29501 0.0
C184 C 0.49336 0.73185 0.32634 0.0
C185 C 0.4971 0.75514 0.29194 0.0
H186 H 0.47464 0.8274 0.03558 0.0
C187 C 0.47381 0.7324 0.23736 0.0
C188 C 0.48372 0.75379 0.23466 0.0
H189 H 0.51408 0.84274 0.18462 0.0
H190 H 0.50829 0.80446 0.23526 0.0
H191 H 0.49909 0.78039 0.03143 0.0
H192 H 0.43377 0.80049 0.10531 0.0
H193 H 0.42937 0.77721 0.0656 0.0
H194 H 0.43972 0.80328 0.02809 0.0
H195 H 0.47302 0.78507 0.98757 0.0
H196 H 0.48175 0.75722 0.02643 0.0
C197 C 0.52341 0.75702 0.28153 0.0
C198 C 0.48621 0.77399 0.32643 0.0
C199 C 0.43707 0.69083 0.08388 0.0
C200 C 0.434 0.69629 0.023 0.0
C201 C 0.43588 0.71919 0.99773 0.0
C202 C 0.44253 0.73594 0.03207 0.0
C203 C 0.44777 0.72961 0.09205 0.0
C204 C 0.4443 0.70754 0.11715 0.0
C205 C 0.45216 0.70322 0.1801 0.0
C206 C 0.46193 0.72607 0.18813 0.0
C207 C 0.45914 0.74148 0.13682 0.0
C208 C 0.47136 0.68321 0.18576 0.0
C209 C 0.43032 0.69869 0.2183 0.0
C210 C 0.48181 0.82268 0.07945 0.0
C211 C 0.49441 0.8382 0.10652 0.0
C212 C 0.50414 0.83107 0.16295 0.0
C213 C 0.50066 0.80894 0.19233 0.0
C214 C 0.48759 0.7937 0.16462 0.0
C215 C 0.47876 0.80078 0.10864 0.0
C216 C 0.46663 0.78241 0.0832 0.0
C217 C 0.46834 0.7634 0.13398 0.0
C218 C 0.48068 0.76975 0.18222 0.0
C219 C 0.48062 0.77593 0.02918 0.0
C220 C 0.44103 0.79121 0.06934 0.0
H221 H 0.46175 0.68722 0.29835 0.0
H222 H 0.51339 0.73245 0.40685 0.0
H223 H 0.46845 0.76972 0.34124 0.0
H224 H 0.48417 0.7909 0.2997 0.0
H225 H 0.49692 0.77561 0.36594 0.0
H226 H 0.53111 0.74114 0.26546 0.0
H227 H 0.53261 0.75931 0.32288 0.0
H228 H 0.52712 0.77136 0.24794 0.0
H229 H 0.43619 0.67332 0.10451 0.0
H230 H 0.43341 0.72383 0.95087 0.0
H231 H 0.44436 0.7529 0.01001 0.0
H232 H 0.48207 0.68372 0.14541 0.0
H233 H 0.46362 0.66625 0.19239 0.0
H234 H 0.48412 0.68402 0.22132 0.0
H235 H 0.41415 0.70683 0.19597 0.0
H236 H 0.43101 0.70633 0.26004 0.0
H237 H 0.42789 0.68002 0.22803 0.0
H238 H 0.47616 0.67157 0.39324 0.0
C239 C 0.47276 0.69766 0.31994 0.0
C240 C 0.30377 0.47824 0.32322 0.0
C241 C 0.31369 0.47023 0.37924 0.0
C242 C 0.30148 0.45504 0.41844 0.0
C243 C 0.26846 0.46011 0.35283 0.0
C244 C 0.28115 0.47207 0.31015 0.0
C245 C 0.26774 0.47566 0.25202 0.0
H246 H 0.1646 0.45939 0.11303 0.0
C247 C 0.2455 0.4573 0.32979 0.0
C248 C 0.24493 0.46449 0.26934 0.0
H249 H 0.22263 0.49385 0.03395 0.0
H250 H 0.24465 0.48549 0.12647 0.0
H251 H 0.19233 0.41731 0.20353 0.0
H252 H 0.15733 0.48108 0.19905 0.0
H253 H 0.16646 0.47941 0.27291 0.0
H254 H 0.14702 0.4591 0.24944 0.0
H255 H 0.16191 0.42647 0.19714 0.0
H256 H 0.17553 0.41787 0.26792 0.0
C257 C 0.28149 0.46287 0.20712 0.0
C258 C 0.26376 0.50168 0.23284 0.0
C259 C 0.17623 0.46795 0.45768 0.0
C260 C 0.15235 0.46604 0.44725 0.0
C261 C 0.14551 0.45342 0.40223 0.0
C262 C 0.16201 0.44524 0.36407 0.0
C263 C 0.1852 0.45052 0.36981 0.0
C264 C 0.19244 0.45965 0.41879 0.0
C265 C 0.21848 0.4607 0.42081 0.0
C266 C 0.22485 0.45318 0.3609 0.0
C267 C 0.20486 0.44927 0.32972 0.0
C268 C 0.22818 0.444 0.47377 0.0
C269 C 0.22492 0.48557 0.42535 0.0
C270 C 0.18232 0.46455 0.11521 0.0
C271 C 0.19218 0.47666 0.06636 0.0
C272 C 0.2149 0.48407 0.07116 0.0
C273 C 0.22753 0.47932 0.12478 0.0
C274 C 0.21694 0.46778 0.17421 0.0
C275 C 0.19447 0.46105 0.16865 0.0
C276 C 0.18411 0.45225 0.22606 0.0
C277 C 0.20454 0.45345 0.2674 0.0
C278 C 0.22403 0.4622 0.23706 0.0
C279 C 0.17799 0.42713 0.2237 0.0
C280 C 0.16272 0.46864 0.23787 0.0
H281 H 0.27068 0.43666 0.43302 0.0
H282 H 0.31333 0.48884 0.29098 0.0
H283 H 0.25677 0.51051 0.26985 0.0
H284 H 0.25101 0.50566 0.19648 0.0
H285 H 0.28037 0.50926 0.21891 0.0
H286 H 0.28687 0.44504 0.22656 0.0
H287 H 0.29746 0.47175 0.19367 0.0
H288 H 0.27112 0.46136 0.16744 0.0
H289 H 0.182 0.47644 0.49399 0.0
H290 H 0.12732 0.45099 0.39432 0.0
H291 H 0.15623 0.43572 0.33034 0.0
H292 H 0.21617 0.44366 0.51164 0.0
H293 H 0.24474 0.44954 0.49051 0.0
H294 H 0.23072 0.42619 0.4623 0.0
H295 H 0.21717 0.49754 0.38805 0.0
H296 H 0.24406 0.48685 0.42479 0.0
H297 H 0.21856 0.49141 0.467 0.0
H298 H 0.30916 0.44777 0.46032 0.0
C299 C 0.27902 0.44957 0.40473 0.0
C300 C 0.92157 0.19863 0.45377 0.0
C301 C 0.91287 0.1789 0.43439 0.0
C302 C 0.91021 0.17823 0.37351 0.0
C303 C 0.93064 0.21302 0.35369 0.0
C304 C 0.93018 0.21555 0.41255 0.0
C305 C 0.94149 0.2369 0.42515 0.0
H306 H 0.00592 0.32688 0.33334 0.0
C307 C 0.94553 0.2304 0.32431 0.0
C308 C 0.95163 0.24474 0.36534 0.0
H309 H 0.96694 0.31331 0.49322 0.0
H310 H 0.95583 0.27786 0.4642 0.0
H311 H 0.02478 0.26774 0.3374 0.0
H312 H 0.96899 0.30804 0.23657 0.0
H313 H 0.98949 0.29348 0.1936 0.0
H314 H 0.9986 0.3163 0.23183 0.0
H315 H 0.03092 0.29138 0.28345 0.0
H316 H 0.02477 0.26384 0.2623 0.0
C317 C 0.96084 0.23007 0.47234 0.0
C318 C 0.92204 0.25416 0.44307 0.0
C319 C 0.97695 0.21497 0.12819 0.0
C320 C 0.99645 0.22154 0.09575 0.0
C321 C 0.00925 0.23936 0.11359 0.0
C322 C 1.00253 0.25023 0.16339 0.0
C323 C 0.98333 0.24262 0.19676 0.0
C324 C 0.97118 0.22507 0.17856 0.0
C325 C 0.95335 0.21655 0.22151 0.0
C326 C 0.95669 0.23163 0.26931 0.0
C327 C 0.97372 0.24759 0.25468 0.0
C328 C 0.95953 0.19057 0.24225 0.0
C329 C 0.92906 0.22178 0.19175 0.0
C330 C 0.99493 0.31614 0.36158 0.0
C331 C 0.98678 0.32321 0.41521 0.0
C332 C 0.97292 0.30861 0.45132 0.0
C333 C 0.9663 0.28802 0.4342 0.0
C334 C 0.97347 0.28158 0.38005 0.0
C335 C 0.98783 0.29516 0.34456 0.0
C336 C 0.99391 0.28423 0.28922 0.0
C337 C 0.97852 0.26369 0.29487 0.0
C338 C 0.96724 0.26217 0.34942 0.0
C339 C 0.02002 0.27643 0.29277 0.0
C340 C 0.98746 0.30144 0.2346 0.0
H341 H 0.91769 0.19305 0.28754 0.0
H342 H 0.92346 0.20008 0.50007 0.0
H343 H 0.90429 0.24919 0.43261 0.0
H344 H 0.92323 0.27158 0.41885 0.0
H345 H 0.9226 0.25538 0.49097 0.0
H346 H 0.97135 0.21451 0.46236 0.0
H347 H 0.95325 0.22617 0.51658 0.0
H348 H 0.97332 0.24348 0.47449 0.0
H349 H 0.96717 0.20087 0.11706 0.0
H350 H 0.02448 0.24472 0.08935 0.0
H351 H 0.01269 0.26377 0.17485 0.0
H352 H 0.97728 0.1848 0.22895 0.0
H353 H 0.9472 0.17946 0.22367 0.0
H354 H 0.95993 0.18655 0.29062 0.0
H355 H 0.9281 0.23884 0.16448 0.0
H356 H 0.91487 0.22284 0.2238 0.0
H357 H 0.92532 0.20868 0.16252 0.0
H358 H 0.90257 0.16383 0.3571 0.0
C359 C 0.91909 0.19517 0.33309 0.0
C360 C 0.2693 0.05571 0.12694 0.0
C361 C 0.29035 0.06575 0.10918 0.0
C362 C 0.2996 0.08161 0.14286 0.0
C363 C 0.27215 0.07164 0.21859 0.0
C364 C 0.25986 0.0599 0.18176 0.0
C365 C 0.23663 0.05393 0.20929 0.0
H366 H 0.17856 0.03492 0.47084 0.0
C367 C 0.26207 0.06857 0.27683 0.0
C368 C 0.24032 0.0593 0.27243 0.0
H369 H 0.14738 0.03929 0.29834 0.0
H370 H 0.18534 0.04611 0.25374 0.0
H371 H 0.22391 1.00702 0.44374 0.0
H372 H 0.20739 0.07884 0.44739 0.0
H373 H 0.23454 0.0719 0.48321 0.0
H374 H 0.20932 0.05765 0.51092 0.0
H375 H 0.22658 0.01989 0.51002 0.0
H376 H 0.25058 0.01782 0.46015 0.0
C377 C 0.23256 0.02842 0.20683 0.0
C378 C 0.21754 0.07034 0.17651 0.0
C379 C 0.32098 0.05722 0.44309 0.0
C380 C 0.31966 0.04829 0.50246 0.0
C381 C 0.29761 0.04461 0.52709 0.0
C382 C 0.27736 0.04879 0.49225 0.0
C383 C 0.27918 0.05648 0.43205 0.0
C384 C 0.30069 0.0611 0.40882 0.0
C385 C 0.29962 0.06876 0.34397 0.0
C386 C 0.2737 0.0672 0.33174 0.0
C387 C 0.26207 0.05953 0.38313 0.0
C388 C 0.31497 0.05135 0.31301 0.0
C389 C 0.30763 0.09366 0.33242 0.0
C390 C 0.17988 0.03736 0.42342 0.0
C391 C 0.16015 0.03661 0.38802 0.0
C392 C 0.16244 0.03998 0.32638 0.0
C393 C 0.18428 0.04426 0.30067 0.0
C394 C 0.20372 0.04588 0.33707 0.0
C395 C 0.20116 0.04235 0.39743 0.0
C396 C 0.22315 0.04521 0.43013 0.0
C397 C 0.23887 0.05298 0.37993 0.0
C398 C 0.22783 0.05282 0.32501 0.0
C399 C 0.23154 0.0214 0.46306 0.0
C400 C 0.21848 0.06429 0.47046 0.0
H401 H 0.29778 0.0969 0.2222 0.0
H402 H 0.261 0.04463 0.09991 0.0
H403 H 0.22369 0.08796 0.16632 0.0
H404 H 0.20177 0.07242 0.20276 0.0
H405 H 0.21272 0.06428 0.13433 0.0
H406 H 0.24731 0.01734 0.22826 0.0
H407 H 0.23105 0.02477 0.16064 0.0
H408 H 0.21643 0.02341 0.2296 0.0
H409 H 0.33764 0.06017 0.42278 0.0
H410 H 0.29606 0.03819 0.57309 0.0
H411 H 0.26111 0.04539 0.51326 0.0
H412 H 0.30882 0.03374 0.32304 0.0
H413 H 0.33343 0.05097 0.32756 0.0
H414 H 0.31503 0.05558 0.26494 0.0
H415 H 0.31454 0.09985 0.37259 0.0
H416 H 0.29299 0.10607 0.31626 0.0
H417 H 0.32193 0.09496 0.30009 0.0
H418 H 0.31507 0.09028 0.12883 0.0
C419 C 0.29029 0.08486 0.19733 0.0
C420 C 0.50435 0.33242 0.16861 0.0
C421 C 0.50964 0.35508 0.14664 0.0
C422 C 0.52336 0.36741 0.18081 0.0
C423 C 0.52521 0.33594 0.25925 0.0
C424 C 0.51257 0.32307 0.22542 0.0
C425 C 0.50966 0.2992 0.2576 0.0
H426 H 0.52063 0.22909 0.52079 0.0
C427 C 0.52997 0.32261 0.31713 0.0
C428 C 0.52107 0.30084 0.31735 0.0
H429 H 0.49635 0.20965 0.35702 0.0
H430 H 0.50264 0.24808 0.30789 0.0
H431 H 0.56454 0.25365 0.46644 0.0
H432 H 0.49571 0.27852 0.50925 0.0
H433 H 0.51435 0.29927 0.52657 0.0
H434 H 0.51789 0.27045 0.56432 0.0
H435 H 0.55498 0.25447 0.54052 0.0
H436 H 0.56758 0.27874 0.49959 0.0
C437 C 0.52316 0.28155 0.22382 0.0
C438 C 0.48348 0.29528 0.26303 0.0
C439 C 0.56143 0.36477 0.47689 0.0
C440 C 0.56287 0.35956 0.53814 0.0
C441 C 0.55959 0.33692 0.56355 0.0
C442 C 0.55352 0.32016 0.52858 0.0
C443 C 0.55034 0.32619 0.46766 0.0
C444 C 0.55482 0.34805 0.44287 0.0
C445 C 0.54887 0.35218 0.37866 0.0
C446 C 0.5397 0.32926 0.36886 0.0
C447 C 0.54074 0.31409 0.4208 0.0
C448 C 0.57177 0.3566 0.34484 0.0
C449 C 0.52968 0.3722 0.36917 0.0
C450 C 0.51655 0.23313 0.47439 0.0
C451 C 0.50777 0.21655 0.44286 0.0
C452 C 0.50306 0.22229 0.38221 0.0
C453 C 0.50678 0.24452 0.35385 0.0
C454 C 0.51573 0.26097 0.3863 0.0
C455 C 0.52069 0.25483 0.44549 0.0
C456 C 0.5311 0.27358 0.47352 0.0
C457 C 0.53205 0.292 0.42167 0.0
C458 C 0.5226 0.28501 0.37028 0.0
C459 C 0.55579 0.26478 0.49675 0.0
C460 C 0.5141 0.28085 0.52123 0.0
H461 H 0.54131 0.36865 0.25993 0.0
H462 H 0.49419 0.32243 0.14249 0.0
H463 H 0.47417 0.30988 0.28152 0.0
H464 H 0.48011 0.27958 0.29245 0.0
H465 H 0.47564 0.29392 0.21936 0.0
H466 H 0.54036 0.2878 0.20974 0.0
H467 H 0.51334 0.27864 0.18387 0.0
H468 H 0.52701 0.26492 0.25092 0.0
H469 H 0.56325 0.38212 0.45609 0.0
H470 H 0.56068 0.33251 0.61075 0.0
H471 H 0.55056 0.30344 0.55072 0.0
H472 H 0.58697 0.34688 0.36823 0.0
H473 H 0.57534 0.37509 0.34002 0.0
H474 H 0.57175 0.35056 0.30102 0.0
H475 H 0.51899 0.37324 0.40916 0.0
H476 H 0.51679 0.37003 0.3348 0.0
H477 H 0.53739 0.38904 0.35839 0.0
H478 H 0.52779 0.38469 0.16448 0.0
C479 C 0.53121 0.35801 0.23644 0.0
Co480 Co 0.00981 0.03458 0.78437 0.0
C481 C 0.97421 0.01556 0.85161 0.0
Co482 Co 0.99401 1.00624 0.74467 0.0
C483 C 0.0133 0.07684 0.83928 0.0
C484 C 0.04651 0.06094 0.82157 0.0
N485 N 0.0235 0.05851 0.81652 0.0
N486 N 0.02908 0.09065 0.85829 0.0
C487 C 0.04999 0.08049 0.84709 0.0
H488 H 0.99463 0.08004 0.84127 0.0
H489 H 0.05997 0.04914 0.80776 0.0
C490 C 0.02958 0.0251 0.67735 0.0
N491 N 0.98036 0.98227 0.7126 0.0
C492 C 0.99066 0.96378 0.69071 0.0
C493 C 0.95737 0.97984 0.70704 0.0
N494 N 0.97497 0.94987 0.6718 0.0
C495 C 0.95401 0.96012 0.68212 0.0
C496 C 0.97245 0.04937 0.71025 0.0
O497 O 0.03034 0.03798 0.71813 0.0
O498 O 0.01467 1.00989 0.68013 0.0
O499 O 0.97212 0.02819 0.7037 0.0
O500 O 0.98781 0.05586 0.74353 0.0
O501 O 0.97354 1.00289 0.81039 0.0
H502 H 0.94385 0.99172 0.72021 0.0
H503 H 0.00935 0.96054 0.68938 0.0
O504 O 0.98908 0.03081 0.84939 0.0
O505 O 0.03174 0.01262 0.82523 0.0
O506 O 0.01594 0.98497 0.78566 0.0
C507 C 0.03133 0.99144 0.81885 0.0
H508 H 0.06675 0.08645 0.85743 0.0
H509 H 0.93729 0.95409 0.67163 0.0
Co510 Co 0.49366 0.03536 0.80722 0.0
C511 C 0.50432 0.98852 0.84111 0.0
Co512 Co 0.51633 0.01885 0.74394 0.0
C513 C 0.45047 0.0422 0.86948 0.0
C514 C 0.4759 0.06476 0.89239 0.0
N515 N 0.47255 0.04813 0.85811 0.0
N516 N 0.44003 0.05438 0.90935 0.0
C517 C 0.45603 0.06851 0.92418 0.0
H518 H 0.44228 0.02884 0.84991 0.0
H519 H 0.49178 0.07359 0.89433 0.0
C520 C 0.50541 0.06571 0.71009 0.0
N521 N 0.53745 1.00615 0.69306 0.0
C522 C 0.55909 0.0129 0.67956 0.0
C523 C 0.53458 0.9887 0.66111 0.0
N524 N 0.56974 1.00045 0.64053 0.0
C525 C 0.55431 0.98527 0.62853 0.0
C526 C 0.47039 0.01723 0.71764 0.0
O527 O 0.49464 0.06451 0.75877 0.0
O528 O 0.51615 0.04769 0.69555 0.0
O529 O 0.49045 0.01107 0.70006 0.0
O530 O 0.46853 0.02801 0.76213 0.0
O531 O 0.51611 0.9898 0.79393 0.0
H532 H 0.51914 0.9791 0.66132 0.0
H533 H 0.56677 0.02704 0.69704 0.0
O534 O 0.49295 1.00645 0.8541 0.0
O535 O 0.5195 0.04221 0.85244 0.0
O536 O 0.54154 0.02687 0.78795 0.0
C537 C 0.53961 0.03662 0.83414 0.0
H538 H 0.45343 0.08087 0.95526 0.0
H539 H 0.55719 0.97244 0.59881 0.0
Co540 Co 0.51843 0.53094 0.7995 0.0
C541 C 0.49491 0.49259 0.85057 0.0
Co542 Co 0.48386 0.52677 0.75981 0.0
C543 C 0.55265 0.53107 0.89385 0.0
C544 C 0.56758 0.5357 0.80825 0.0
N545 N 0.54715 0.53295 0.8359 0.0
N546 N 0.57575 0.53228 0.90323 0.0
C547 C 0.58513 0.53521 0.84935 0.0
H548 H 0.54005 0.52819 0.92845 0.0
H549 H 0.56962 0.53762 0.76111 0.0
C550 C 0.50748 0.56507 0.70853 0.0
N551 N 0.45498 0.5258 0.72152 0.0
C552 C 0.44793 0.51186 0.68267 0.0
C553 C 0.4383 0.54318 0.71772 0.0
N554 N 0.42786 0.5202 0.65467 0.0
C555 C 0.42178 0.5398 0.67693 0.0
C556 C 0.48219 0.55475 0.8488 0.0
O557 O 0.52369 0.55766 0.74516 0.0
O558 O 0.48925 0.55391 0.70776 0.0
O559 O 0.46985 0.54539 0.81359 0.0
O560 O 0.50409 0.55031 0.85061 0.0
O561 O 0.47888 0.49952 0.8127 0.0
H562 H 0.43887 0.55834 0.73992 0.0
H563 H 0.4581 0.49687 0.6719 0.0
O564 O 0.51277 0.50429 0.85276 0.0
O565 O 0.53252 0.51142 0.74786 0.0
O566 O 0.49847 0.50818 0.70735 0.0
C567 C 0.52022 0.50285 0.71095 0.0
H568 H 0.60343 0.53688 0.84025 0.0
H569 H 0.40692 0.5514 0.66274 0.0
Co570 Co 0.00709 0.53581 0.78135 0.0
C571 C 0.04614 0.50862 0.82375 0.0
Co572 Co 0.00622 0.49948 0.76223 0.0
C573 C 0.00759 0.57336 0.85475 0.0
C574 C 0.00584 0.58541 0.76287 0.0
N575 N 0.00677 0.56598 0.80097 0.0
N576 N 0.00745 0.59655 0.85139 0.0
C577 C 0.00642 0.6041 0.79356 0.0
H578 H 0.00879 0.56195 0.89555 0.0
H579 H 0.00485 0.58597 0.71565 0.0
C580 C 0.9671 0.52681 0.7202 0.0
N581 N 0.00652 0.46934 0.74234 0.0
C582 C 0.00511 0.46215 0.68845 0.0
C583 C 0.00806 0.44979 0.78002 0.0
N584 N 0.0055 0.43898 0.69131 0.0
C585 C 0.00726 0.43121 0.74897 0.0
C586 C 0.98533 0.50614 0.8656 0.0
O587 O 0.97775 0.54263 0.74045 0.0
O588 O 0.97666 0.50653 0.72454 0.0
O589 O 0.99087 0.49082 0.8328 0.0
O590 O 0.99092 0.52666 0.85125 0.0
O591 O 0.0361 0.49291 0.80131 0.0
H592 H 0.0096 0.44906 0.8272 0.0
H593 H 0.00333 0.47369 0.64793 0.0
O594 O 0.03605 0.52862 0.82109 0.0
O595 O 0.02369 0.5442 0.71074 0.0
O596 O 0.02119 0.5086 0.69214 0.0
C597 C 0.02775 0.52867 0.67744 0.0
H598 H 0.00598 0.62194 0.77476 0.0
H599 H 0.00806 0.41331 0.76737 0.0
H600 H 0.14701 0.99884 0.45734 0.0
H601 H 0.1231 0.06781 0.38799 0.0
H602 H 0.11326 0.99618 0.52184 0.0
H603 H 0.08939 0.0654 0.4533 0.0
H604 H 0.03985 0.99424 0.59955 0.0
H605 H 0.06886 0.99657 0.52193 0.0
H606 H 0.08636 0.06286 0.56566 0.0
H607 H 0.05753 0.06046 0.64389 0.0
C608 C 0.13414 0.01319 0.45486 0.0
C609 C 0.13743 0.0334 0.41717 0.0
C610 C 0.11486 0.01172 0.49187 0.0
C611 C 0.09871 0.03063 0.49295 0.0
C612 C 0.10161 0.0506 0.45373 0.0
C613 C 0.1207 0.0519 0.41589 0.0
C614 C 0.04975 1.00941 0.5924 0.0
C615 C 0.04638 0.02715 0.62815 0.0
C616 C 0.06642 0.01069 0.548 0.0
C617 C 0.07988 0.02991 0.53751 0.0
C618 C 0.0761 0.04793 0.5722 0.0
C619 C 0.05969 0.04648 0.61729 0.0
H620 H 0.4775 0.20547 0.53087 0.0
H621 H 0.53128 0.17587 0.42839 0.0
H622 H 0.4755 0.16885 0.59278 0.0
H623 H 0.53055 0.13947 0.49212 0.0
H624 H 0.51468 0.07112 0.59274 0.0
H625 H 0.51292 0.10635 0.52486 0.0
H626 H 0.49426 0.14527 0.66785 0.0
H627 H 0.49472 0.10971 0.73481 0.0
C628 C 0.48874 0.19094 0.52136 0.0
C629 C 0.50432 0.19338 0.47443 0.0
C630 C 0.48792 0.16997 0.55746 0.0
C631 C 0.50308 0.15095 0.54857 0.0
C632 C 0.5183 0.15339 0.50036 0.0
C633 C 0.51878 0.17429 0.46358 0.0
C634 C 0.51018 0.08722 0.60968 0.0
C635 C 0.50487 0.08754 0.66937 0.0
C636 C 0.50929 0.10757 0.57063 0.0
C637 C 0.50346 0.12901 0.59019 0.0
C638 C 0.49832 0.12924 0.65025 0.0
C639 C 0.49879 0.1088 0.68909 0.0
H640 H 0.35321 0.44441 0.4166 0.0
H641 H 0.32297 0.51386 0.39398 0.0
H642 H 0.38504 0.45612 0.47469 0.0
H643 H 0.35382 0.52557 0.45453 0.0
H644 H 0.41442 0.54534 0.553 0.0
H645 H 0.39147 0.53335 0.47398 0.0
H646 H 0.3913 0.46502 0.56881 0.0
H647 H 0.41556 0.47707 0.6459 0.0
C648 C 0.35375 0.46234 0.423 0.0
C649 C 0.33578 0.4783 0.40037 0.0
C650 C 0.37177 0.46902 0.4572 0.0
C651 C 0.37201 0.49177 0.4707 0.0
C652 C 0.35465 0.50797 0.44489 0.0
C653 C 0.33687 0.50133 0.40985 0.0
C654 C 0.4097 0.52767 0.55623 0.0
C655 C 0.41657 0.51214 0.60559 0.0
C656 C 0.39635 0.52078 0.51118 0.0
C657 C 0.389 0.49824 0.51484 0.0
C658 C 0.39674 0.48245 0.56351 0.0
C659 C 0.41057 0.48929 0.60806 0.0
H660 H 0.95479 0.35615 0.44009 0.0
H661 H 0.02892 0.34012 0.44065 0.0
H662 H 0.96033 0.38672 0.50091 0.0
H663 H 0.03455 0.37137 0.50109 0.0
H664 H 0.0257 0.44483 0.58388 0.0
H665 H 0.02312 0.41983 0.5053 0.0
H666 H 0.97779 0.37708 0.61318 0.0
H667 H 0.98082 0.4015 0.69144 0.0
C668 C 0.97238 0.35974 0.4515 0.0
C669 C 0.99142 0.34569 0.43563 0.0
C670 C 0.97552 0.37717 0.48662 0.0
C671 C 0.99782 0.38127 0.50628 0.0
C672 C 0.01716 0.36861 0.48635 0.0
C673 C 0.01397 0.35085 0.45147 0.0
C674 C 0.01516 0.43011 0.59045 0.0
C675 C 0.00345 0.4251 0.64382 0.0
C676 C 0.01381 0.41576 0.54577 0.0
C677 C 1.00022 0.39654 0.55312 0.0
C678 C 0.98833 0.39181 0.60616 0.0
C679 C 0.99012 0.40574 0.65105 0.0
H680 H 0.85921 0.03436 0.08958 0.0
H681 H 0.88033 0.9623 0.12394 0.0
H682 H 0.8935 0.04061 0.0278 0.0
H683 H 0.91461 0.96841 0.06314 0.0
H684 H 0.94497 0.98097 0.87756 0.0
H685 H 0.91672 0.97661 0.95599 0.0
H686 H 0.93697 0.03935 0.01647 0.0
H687 H 0.96543 0.0438 0.93734 0.0
C688 C 0.87172 0.02007 0.08591 0.0
C689 C 0.86718 0.99787 0.11161 0.0
C690 C 0.89128 0.02358 0.05021 0.0
C691 C 0.90656 1.00491 0.03946 0.0
C692 C 0.90295 0.98308 0.06938 0.0
C693 C 0.88349 0.97961 0.10487 0.0
C694 C 0.94356 0.9938 0.90768 0.0
C695 C 0.95754 0.01272 0.90102 0.0
C696 C 0.92745 0.99121 0.95307 0.0
C697 C 0.92467 1.00753 0.99301 0.0
C698 C 0.93863 0.02649 0.98647 0.0
C699 C 0.955 0.02897 0.94124 0.0
H700 H 0.53446 0.86045 0.07981 0.0
H701 H 0.45977 0.86842 0.05945 0.0
H702 H 0.53794 0.89703 0.01658 0.0
H703 H 0.46312 0.90467 0.99686 0.0
H704 H 0.47579 0.97931 0.9345 0.0
H705 H 0.47468 0.94417 1.00225 0.0
H706 H 0.5306 0.91286 0.90894 0.0
H707 H 0.53178 0.94831 0.84052 0.0
C708 C 0.51881 0.87021 0.06265 0.0
C709 C 0.49684 0.86163 0.07477 0.0
C710 C 0.52079 0.89099 0.02592 0.0
C711 C 0.50081 0.90378 1.00143 0.0
C712 C 0.47887 0.89543 0.01522 0.0
C713 C 0.47693 0.87462 0.05105 0.0
C714 C 0.4879 0.96499 0.92818 0.0
C715 C 0.5038 0.96668 0.88165 0.0
C716 C 0.48721 0.94477 0.9671 0.0
C717 C 0.50252 0.92563 0.96113 0.0
C718 C 0.51869 0.92735 0.91514 0.0
C719 C 0.51923 0.94759 0.87561 0.0
H720 H 0.65303 0.56289 0.20366 0.0
H721 H 0.67194 0.49142 0.19253 0.0
H722 H 0.62202 0.5621 0.13019 0.0
H723 H 0.64106 0.4905 0.11981 0.0
H724 H 0.61846 0.51164 0.92621 0.0
H725 H 0.6411 0.50934 0.01673 0.0
H726 H 0.58449 0.54528 0.09718 0.0
H727 H 0.56165 0.54759 0.00539 0.0
C728 C 0.64991 0.54679 0.18735 0.0
C729 C 0.66493 0.52724 0.20359 0.0
C730 C 0.63224 0.54634 0.14505 0.0
C731 C 0.6294 0.52635 0.11826 0.0
C732 C 0.64308 0.50629 0.13871 0.0
C733 C 0.66063 0.50674 0.18078 0.0
C734 C 0.61078 0.519 0.96318 0.0
C735 C 0.58832 0.52989 0.95852 0.0
C736 C 0.62366 0.51748 0.01537 0.0
C737 C 0.61457 0.527 0.06445 0.0
C738 C 0.59198 0.53778 0.06017 0.0
C739 C 0.57887 0.53899 0.00786 0.0
H740 H 0.05398 0.68311 0.09982 0.0
H741 H 0.97942 0.69612 0.09762 0.0
H742 H 0.05011 0.65176 0.04053 0.0
H743 H 0.97546 0.66415 0.03858 0.0
H744 H 0.98584 0.59145 0.95712 0.0
H745 H 0.98734 0.61703 0.03469 0.0
H746 H 0.03432 0.65881 0.92948 0.0
H747 H 0.03239 0.6338 0.85227 0.0
C748 C 0.03667 0.67869 0.08841 0.0
C749 C 0.01701 0.69209 0.10343 0.0
C750 C 0.03448 0.66083 0.05409 0.0
C751 C 0.01252 0.65567 0.03427 0.0
C752 C 0.99261 0.66771 0.0534 0.0
C753 C 0.99484 0.68589 0.0875 0.0
C754 C 0.99654 0.60606 0.95098 0.0
C755 C 0.00901 0.61064 0.89861 0.0
C756 C 0.99727 0.62074 0.99508 0.0
C757 C 0.011 0.63988 0.98823 0.0
C758 C 0.02369 0.64414 0.93624 0.0
C759 C 0.02253 0.62988 0.8919 0.0
H760 H 0.8979 0.1749 0.54922 0.0
H761 H 0.92434 0.1347 0.41526 0.0
H762 H 0.90501 0.14143 0.62285 0.0
H763 H 0.93079 0.10164 0.48789 0.0
H764 H 0.94085 0.04274 0.62526 0.0
H765 H 0.91732 0.0723 0.56313 0.0
H766 H 0.94339 0.12431 0.6595 0.0
H767 H 0.96652 0.09494 0.72184 0.0
C768 C 0.90467 0.15888 0.53513 0.0
C769 C 0.91088 0.15771 0.4763 0.0
C770 C 0.90866 0.13971 0.57728 0.0
C771 C 0.91874 0.119 0.56125 0.0
C772 C 0.92279 0.11724 0.50169 0.0
C773 C 0.91899 0.13635 0.45978 0.0
C774 C 0.9412 0.06045 0.63381 0.0
C775 C 0.95589 0.06658 0.67766 0.0
C776 C 0.92772 0.07735 0.5983 0.0
C777 C 0.92861 0.10064 0.60619 0.0
C778 C 0.94209 0.10652 0.65266 0.0
C779 C 0.9556 0.08968 0.68795 0.0
H780 H 0.32895 1.00997 0.5816 0.0
H781 H 0.35973 0.07106 0.50002 0.0
H782 H 0.36599 0.99732 0.63152 0.0
H783 H 0.39677 0.05791 0.5481 0.0
H784 H 0.46489 0.01903 0.59912 0.0
H785 H 0.42764 0.02359 0.54528 0.0
H786 H 0.39091 0.01385 0.7092 0.0
H787 H 0.42792 1.00952 0.76274 0.0
C788 C 0.3435 0.02079 0.5747 0.0
C789 C 0.34141 0.0415 0.53671 0.0
C790 C 0.36472 0.01339 0.60267 0.0
C791 C 0.38425 0.02643 0.59248 0.0
C792 C 0.3821 0.04726 0.55532 0.0
C793 C 0.36087 0.05481 0.52807 0.0
C794 C 0.44886 0.01714 0.62331 0.0
C795 C 0.44913 0.01413 0.68485 0.0
C796 C 0.42763 0.01994 0.5927 0.0
C797 C 0.40653 0.01932 0.62335 0.0
C798 C 0.40694 0.01433 0.68464 0.0
C799 C 0.42809 0.01193 0.71518 0.0
H800 H 0.59068 0.39612 0.52673 0.0
H801 H 0.53468 0.36676 0.62928 0.0
H802 H 0.5833 0.43228 0.56883 0.0
H803 H 0.5275 0.40265 0.67108 0.0
H804 H 0.49715 0.4769 0.64211 0.0
H805 H 0.51167 0.44142 0.60674 0.0
H806 H 0.58029 0.4502 0.67372 0.0
H807 H 0.56574 0.48586 0.71037 0.0
C808 C 0.5773 0.39719 0.55949 0.0
C809 C 0.56316 0.3787 0.57448 0.0
C810 C 0.57311 0.41781 0.58345 0.0
C811 C 0.55458 0.42023 0.62215 0.0
C812 C 0.54171 0.4012 0.64066 0.0
C813 C 0.54602 0.38058 0.61728 0.0
C814 C 0.51542 0.47157 0.64864 0.0
C815 C 0.53023 0.4841 0.67961 0.0
C816 C 0.52366 0.45115 0.62879 0.0
C817 C 0.54692 0.44296 0.63877 0.0
C818 C 0.56222 0.45617 0.66606 0.0
C819 C 0.55389 0.47656 0.68673 0.0
H820 H 0.11138 0.45087 0.4917 0.0
H821 H 0.15296 0.51003 0.47378 0.0
H822 H 0.08044 0.47301 0.53534 0.0
H823 H 0.12187 0.53229 0.51774 0.0
H824 H 0.07065 0.54521 0.67654 0.0
H825 H 0.10209 0.53322 0.61359 0.0
H826 H 0.05204 0.50523 0.50548 0.0
H827 H 0.0209 0.51656 0.56957 0.0
C828 C 0.11387 0.46862 0.497 0.0
C829 C 0.13455 0.4787 0.47929 0.0
C830 C 0.09609 0.4814 0.5215 0.0
C831 C 0.09855 0.50457 0.52871 0.0
C832 C 0.11948 0.51451 0.51249 0.0
C833 C 0.13731 0.5017 0.48786 0.0
C834 C 0.06632 0.53763 0.63746 0.0
C835 C 0.04352 0.53167 0.62772 0.0
C836 C 0.08432 0.53054 0.60173 0.0
C837 C 0.07954 0.51763 0.55583 0.0
C838 C 0.05627 0.51457 0.54161 0.0
C839 C 0.0384 0.52139 0.57759 0.0
H840 H 0.07773 0.90617 0.11551 0.0
H841 H 0.10473 0.86565 0.98281 0.0
H842 H 0.07156 0.93912 0.04238 0.0
H843 H 0.09791 0.89899 0.90864 0.0
H844 H 0.0372 0.94587 0.80726 0.0
H845 H 0.05984 0.91638 0.87044 0.0
H846 H 0.08571 0.96827 0.9676 0.0
H847 H 0.06265 0.99794 0.90462 0.0
C848 C 0.08324 0.90442 0.07116 0.0
C849 C 0.09149 0.88302 0.05515 0.0
C850 C 0.07962 0.92346 0.02897 0.0
C851 C 0.08397 0.9216 0.96959 0.0
C852 C 0.09405 0.90081 0.95406 0.0
C853 C 0.09787 0.88171 0.9965 0.0
C854 C 0.04799 0.95108 0.84149 0.0
C855 C 0.04776 0.97418 0.85176 0.0
C856 C 0.06122 0.93417 0.87729 0.0
C857 C 0.07447 0.93999 0.92423 0.0
C858 C 0.07547 0.96327 0.93208 0.0
C859 C 0.06226 0.98024 0.89606 0.0
H860 H 0.67104 0.98011 0.95279 0.0
H861 H 0.64666 1.00936 0.10649 0.0
H862 H 0.63777 0.99931 0.89642 0.0
H863 H 0.61412 0.02966 0.05003 0.0
H864 H 0.54313 0.03145 0.9531 0.0
H865 H 0.57873 0.02131 0.01031 0.0
H866 H 0.61928 0.03389 0.85261 0.0
H867 H 0.58344 0.04277 0.79529 0.0
C868 C 0.65865 0.99093 0.97407 0.0
C869 C 0.661 0.99301 0.03386 0.0
C870 C 0.63974 1.00217 0.94185 0.0
C871 C 0.62315 0.01607 0.9687 0.0
C872 C 0.6262 0.01876 0.02819 0.0
C873 C 0.64482 1.00718 0.06052 0.0
C874 C 0.55971 0.03275 0.93113 0.0
C875 C 0.56062 0.03766 0.86993 0.0
C876 C 0.58019 0.0269 0.96382 0.0
C877 C 0.60193 0.02627 0.93589 0.0
C878 C 0.60282 0.03347 0.87529 0.0
C879 C 0.58234 0.03887 0.84254 0.0
H880 H 0.46045 0.69111 0.92753 0.0
H881 H 0.40856 0.65799 0.03757 0.0
H882 H 0.46917 0.6556 0.88517 0.0
H883 H 0.41755 0.6222 0.99499 0.0
H884 H 0.436 0.56862 0.85583 0.0
H885 H 0.41992 0.60373 0.89243 0.0
H886 H 0.48881 0.61831 0.94642 0.0
H887 H 0.50489 0.58337 0.91087 0.0
C888 C 0.45027 0.67652 0.94109 0.0
C889 C 0.43393 0.67728 0.98618 0.0
C890 C 0.4555 0.65612 0.91739 0.0
C891 C 0.44436 0.63616 0.93791 0.0
C892 C 0.42644 0.63739 0.97883 0.0
C893 C 0.42132 0.65781 1.00305 0.0
C894 C 0.44763 0.57911 0.87655 0.0
C895 C 0.47175 0.57332 0.88008 0.0
C896 C 0.43842 0.59918 0.89721 0.0
C897 C 0.45325 0.61385 0.92088 0.0
C898 C 0.47712 0.60745 0.92716 0.0
C899 C 0.48627 0.58733 0.90731 0.0
H900 H 0.89169 0.50417 0.16444 0.0
H901 H 0.85313 0.51415 0.99998 0.0
H902 H 0.92741 0.49619 0.11171 0.0
H903 H 0.88871 0.50486 0.94829 0.0
H904 H 0.95483 0.47243 0.87965 0.0
H905 H 0.92233 0.47004 0.94789 0.0
H906 H 0.94724 0.52639 0.02977 0.0
H907 H 0.97945 0.52924 0.96076 0.0
C908 C 0.89075 0.50451 0.11721 0.0
C909 C 0.86958 0.51023 0.08628 0.0
C910 C 0.91115 0.49966 0.08736 0.0
C911 C 0.91062 0.49987 0.02632 0.0
C912 C 0.88937 0.50432 0.99563 0.0
C913 C 0.86903 0.50961 0.02528 0.0
C914 C 0.95376 0.48386 0.91333 0.0
C915 C 0.96947 0.50116 0.9148 0.0
C916 C 0.93514 0.48253 0.95203 0.0
C917 C 0.93239 0.4981 0.99349 0.0
C918 C 0.94918 0.51413 0.99822 0.0
C919 C 0.96751 0.51579 0.95874 0.0
H920 H 0.03917 0.19991 0.07929 0.0
H921 H 0.96977 0.21096 0.00555 0.0
H922 H 0.04765 0.16957 0.01664 0.0
H923 H 0.97815 0.18091 0.94277 0.0
H924 H 0.98938 0.10506 0.91127 0.0
H925 H 0.98292 0.13934 0.96024 0.0
H926 H 0.05266 0.15836 0.91792 0.0
H927 H 0.05912 0.12423 0.8684 0.0
C928 C 0.026 0.19641 0.04827 0.0
C929 C 0.00378 0.20781 0.04755 0.0
C930 C 0.03077 0.17889 0.01256 0.0
C931 C 0.01341 0.17238 0.97537 0.0
C932 C 0.99176 0.18498 0.97184 0.0
C933 C 0.98703 0.20242 0.00735 0.0
C934 C 0.00329 0.11661 0.91156 0.0
C935 C 0.02484 0.11154 0.88576 0.0
C936 C 0.99957 0.1364 0.93975 0.0
C937 C 0.01727 0.15175 0.94317 0.0
C938 C 0.03872 0.14684 0.91693 0.0
C939 C 0.04242 0.12711 0.88849 0.0
H940 H 0.31689 0.02614 0.11452 0.0
H941 H 0.29981 0.08942 1.00284 0.0
H942 H 0.35275 0.0204 0.0596 0.0
H943 H 0.33533 0.08327 0.94643 0.0
H944 H 0.40068 0.04976 0.84762 0.0
H945 H 0.3607 0.0488 0.88549 0.0
H946 H 0.38698 0.0535 0.05959 0.0
H947 H 0.42664 0.05524 0.02153 0.0
C948 C 0.32012 0.0381 0.07605 0.0
C949 C 0.30535 0.05799 0.06221 0.0
C950 C 0.34078 0.03497 0.04516 0.0
C951 C 0.34681 0.05145 0.99902 0.0
C952 C 0.33097 0.07023 0.98151 0.0
C953 C 0.31054 0.07363 0.01332 0.0
C954 C 0.39784 0.05044 0.89399 0.0
C955 C 0.41671 0.05265 0.9317 0.0
C956 C 0.37503 0.04994 0.91553 0.0
C957 C 0.37084 0.05089 0.97547 0.0
C958 C 0.38978 0.05253 0.01328 0.0
C959 C 0.41242 0.05367 0.99153 0.0
H960 H 0.53397 0.35994 0.04575 0.0
H961 H 0.46855 0.37983 0.1211 0.0
H962 H 0.52801 0.39166 0.96668 0.0
H963 H 0.46248 0.41176 0.04207 0.0
H964 H 0.45818 0.46438 0.8701 0.0
H965 H 0.45832 0.4271 0.93202 0.0
H966 H 0.53019 0.43315 0.97882 0.0
H967 H 0.53006 0.47001 0.91829 0.0
C968 C 0.51774 0.37041 0.04364 0.0
C969 C 0.50153 0.36716 0.08893 0.0
C970 C 0.51449 0.38885 0.99896 0.0
C971 C 0.49496 0.40454 0.99863 0.0
C972 C 0.47765 0.39998 0.04083 0.0
C973 C 0.48099 0.38154 0.0858 0.0
C974 C 0.47396 0.45773 0.89378 0.0
C975 C 0.49408 0.47031 0.88922 0.0
C976 C 0.47404 0.43637 0.92915 0.0
C977 C 0.49437 0.42694 0.95971 0.0
C978 C 0.51437 0.4396 0.95502 0.0
C979 C 0.5142 0.46095 0.92064 0.0
H980 H 0.17911 0.45038 0.9834 0.0
H981 H 0.16886 0.51783 0.03765 0.0
H982 H 0.14576 0.45854 0.91609 0.0
H983 H 0.13478 0.52579 0.97365 0.0
H984 H 0.07804 0.53989 0.83828 0.0
H985 H 0.11643 0.53331 0.88393 0.0
H986 H 0.10555 0.46076 0.91966 0.0
H987 H 0.06764 0.46737 0.87049 0.0
C988 C 0.17007 0.46723 0.97942 0.0
C989 C 0.17684 0.48369 0.01451 0.0
C990 C 0.15061 0.4718 0.94183 0.0
C991 C 0.13708 0.49275 0.93962 0.0
C992 C 0.14473 0.50959 0.97291 0.0
C993 C 0.16441 0.50513 0.00963 0.0
C994 C 0.08391 0.5225 0.85571 0.0
C995 C 0.06968 0.50417 0.8512 0.0
C996 C 0.10598 0.51871 0.88227 0.0
C997 C 0.11434 0.49649 0.90634 0.0
C998 C 0.10012 0.47809 0.90096 0.0
C999 C 0.0782 0.48186 0.87322 0.0
H1000 H 0.03526 0.82879 0.52974 0.0
H1001 H 0.96583 0.83888 0.45598 0.0
H1002 H 0.02658 0.85912 0.59152 0.0
H1003 H 0.95706 0.86953 0.51749 0.0
H1004 H 0.9451 0.91606 0.66288 0.0
H1005 H 0.95184 0.88151 0.61513 0.0
H1006 H 0.02157 0.90056 0.57273 0.0
H1007 H 0.01483 0.93522 0.61999 0.0
C1008 C 0.01792 0.83716 0.5278 0.0
C1009 C 1.00124 0.83142 0.48788 0.0
C1010 C 0.01302 0.85477 0.56269 0.0
C1011 C 0.99127 0.86722 0.55874 0.0
C1012 C 0.97399 0.86035 0.5219 0.0
C1013 C 0.97893 0.84264 0.48685 0.0
C1014 C 0.96186 0.91308 0.64315 0.0
C1015 C 0.97936 0.92877 0.64535 0.0
C1016 C 0.96572 0.89312 0.61573 0.0
C1017 C 0.98725 0.88808 0.58999 0.0
C1018 C 0.00486 0.90358 0.59289 0.0
C1019 C 1.00098 0.92359 0.62008 0.0
H1020 H 0.68685 0.03232 0.41765 0.0
H1021 H 0.71354 0.97733 0.5465 0.0
H1022 H 0.65075 0.03548 0.47284 0.0
H1023 H 0.67753 0.98089 0.60294 0.0
H1024 H 0.60905 1.00927 0.69719 0.0
H1025 H 0.64828 0.01233 0.6556 0.0
H1026 H 0.62115 1.0009 0.48682 0.0
H1027 H 0.58229 0.99724 0.5286 0.0
C1028 C 0.68544 0.02174 0.45945 0.0
C1029 C 0.70317 1.00493 0.47852 0.0
C1030 C 0.66468 0.02333 0.49059 0.0
C1031 C 0.6613 1.00833 0.54192 0.0
C1032 C 0.67977 0.99278 0.56373 0.0
C1033 C 0.70045 0.99089 0.53186 0.0
C1034 C 0.61154 1.00752 0.65118 0.0
C1035 C 0.59265 1.00298 0.61608 0.0
C1036 C 0.63394 1.00918 0.62753 0.0
C1037 C 0.6377 1.007 0.56794 0.0
C1038 C 0.61871 1.00285 0.53277 0.0
C1039 C 0.59653 1.00061 0.55669 0.0
H1040 H 0.47326 0.69837 0.51007 0.0
H1041 H 0.53606 0.67377 0.43056 0.0
H1042 H 0.47847 0.66715 0.59066 0.0
H1043 H 0.54137 0.64235 0.51107 0.0
H1044 H 0.54551 0.59101 0.68401 0.0
H1045 H 0.54655 0.6278 0.62054 0.0
H1046 H 0.47322 0.62586 0.58262 0.0
H1047 H 0.47218 0.58944 0.64492 0.0
C1048 C 0.48884 0.68696 0.51151 0.0
C1049 C 0.50448 0.68875 0.46466 0.0
C1050 C 0.49162 0.66881 0.55707 0.0
C1051 C 0.5101 0.65196 0.55676 0.0
C1052 C 0.527 0.65504 0.51283 0.0
C1053 C 0.52412 0.67319 0.467 0.0
C1054 C 0.52964 0.59848 0.66205 0.0
C1055 C 0.50879 0.58716 0.66947 0.0
C1056 C 0.53024 0.61955 0.62575 0.0
C1057 C 0.5099 0.62997 0.59709 0.0
C1058 C 0.48912 0.61862 0.60487 0.0
C1059 C 0.48859 0.59753 0.64021 0.0
H1060 H 0.83611 0.58893 0.5599 0.0
H1061 H 0.83928 0.51849 0.52493 0.0
H1062 H 0.86921 0.58037 0.62763 0.0
H1063 H 0.87325 0.51 0.5887 0.0
H1064 H 0.93311 0.49674 0.7154 0.0
H1065 H 0.89402 0.50426 0.67409 0.0
H1066 H 0.90878 0.57515 0.62193 0.0
H1067 H 0.94726 0.56775 0.66725 0.0
C1068 C 0.84345 0.57141 0.56846 0.0
C1069 C 0.83488 0.55427 0.53813 0.0
C1070 C 0.86285 0.56654 0.60614 0.0
C1071 C 0.87461 0.54457 0.613 0.0
C1072 C 0.86482 0.52708 0.58564 0.0
C1073 C 0.84512 0.53186 0.5491 0.0
C1074 C 0.92792 0.51396 0.69523 0.0
C1075 C 0.94337 0.53161 0.69414 0.0
C1076 C 0.90543 0.51831 0.67118 0.0
C1077 C 0.89788 0.54035 0.64392 0.0
C1078 C 0.91345 0.55805 0.64341 0.0
C1079 C 0.93575 0.55378 0.66881 0.0
loop_
_geom_bond_atom_site_label_1
_geom_bond_atom_site_label_2
_geom_bond_distance
_geom_bond_site_symmetry_2
_ccdc_geom_bond_type
C0 C1 1.391 . S
C0 C4 1.391 . S
C0 H42 0.948 . S
C1 C0 1.391 . S
C1 C2 1.391 . S
C2 C1 1.391 . S
C2 H58 0.947 . S
C2 C59 1.392 . S
C3 C4 1.391 . S
C3 C7 1.397 . S
C3 C59 1.419 . S
C4 C0 1.391 . S
C4 C3 1.391 . S
C4 C5 1.399 . S
C5 C4 1.399 . S
C5 C8 1.396 . S
C5 C17 1.453 . S
C5 C18 1.684 . S
H6 C30 0.948 . S
C7 C3 1.397 . S
C7 C8 1.394 . S
C7 C26 1.723 . S
C8 C5 1.396 . S
C8 C7 1.394 . S
C8 C38 1.723 . S
H9 C32 0.947 . S
H10 C33 0.948 . S
H11 C39 0.982 1_554 S
H12 C40 0.978 1_554 S
H13 C40 0.980 . S
H14 C40 0.983 . S
H15 C39 0.979 . S
H16 C39 0.977 . S
C17 C5 1.453 . S
C17 H46 0.982 . S
C17 H47 0.979 . S
C17 H48 0.977 . S
C18 C5 1.684 . S
C18 H43 0.979 . S
C18 H44 0.980 . S
C18 H45 0.983 . S
C19 C20 1.391 1_554 S
C19 C24 1.391 . S
C19 H49 0.948 . S
C20 C19 1.391 1_556 S
C20 C21 1.391 . S
C21 C20 1.391 . S
C21 C22 1.392 . S
C21 H50 0.947 . S
C22 C21 1.392 . S
C22 C23 1.419 1_556 S
C22 H51 0.948 . S
C23 C22 1.419 1_554 S
C23 C24 1.391 . S
C23 C27 1.397 . S
C24 C19 1.391 . S
C24 C23 1.391 . S
C24 C25 1.399 . S
C25 C24 1.399 . S
C25 C26 1.396 . S
C25 C28 1.453 . S
C25 C29 1.684 . S
C26 C7 1.723 . S
C26 C25 1.396 . S
C26 C27 1.394 . S
C27 C23 1.397 . S
C27 C26 1.394 . S
C27 C37 1.723 . S
C28 C25 1.453 . S
C28 H52 0.982 . S
C28 H53 0.979 . S
C28 H54 0.977 . S
C29 C25 1.684 . S
C29 H55 0.979 . S
C29 H56 0.980 . S
C29 H57 0.983 . S
C30 H6 0.948 . S
C30 C31 1.391 . S
C30 C35 1.391 . S
C31 C30 1.391 . S
C31 C32 1.391 . S
C32 H9 0.947 . S
C32 C31 1.391 . S
C32 C33 1.392 . S
C33 H10 0.948 . S
C33 C32 1.392 . S
C33 C34 1.419 . S
C34 C33 1.419 . S
C34 C35 1.391 . S
C34 C38 1.397 . S
C35 C30 1.391 . S
C35 C34 1.391 . S
C35 C36 1.399 . S
C36 C35 1.399 . S
C36 C37 1.396 . S
C36 C39 1.453 1_554 S
C36 C40 1.684 1_554 S
C37 C27 1.723 . S
C37 C36 1.396 . S
C37 C38 1.394 . S
C38 C8 1.723 . S
C38 C34 1.397 . S
C38 C37 1.394 . S
C39 H11 0.982 1_556 S
C39 H15 0.979 . S
C39 H16 0.977 . S
C39 C36 1.453 1_556 S
C40 H12 0.978 1_556 S
C40 H13 0.980 . S
C40 H14 0.983 . S
C40 C36 1.684 1_556 S
H41 C59 0.948 . S
H42 C0 0.948 . S
H43 C18 0.979 . S
H44 C18 0.980 . S
H45 C18 0.983 . S
H46 C17 0.982 . S
H47 C17 0.979 . S
H48 C17 0.977 . S
H49 C19 0.948 . S
H50 C21 0.947 . S
H51 C22 0.948 . S
H52 C28 0.982 . S
H53 C28 0.979 . S
H54 C28 0.977 . S
H55 C29 0.979 . S
H56 C29 0.980 . S
H57 C29 0.983 . S
H58 C2 0.947 . S
C59 C2 1.392 . S
C59 C3 1.419 . S
C59 H41 0.948 . S
C60 C61 1.391 . S
C60 C64 1.391 . S
C60 H102 0.948 . S
C61 C60 1.391 . S
C61 C62 1.391 1_556 S
C62 C61 1.391 1_554 S
C62 H118 0.947 . S
C62 C119 1.392 . S
C63 C64 1.391 1_554 S
C63 C67 1.397 1_655 S
C63 C119 1.419 . S
C64 C60 1.391 . S
C64 C63 1.391 1_556 S
C64 C65 1.400 1_556 S
C65 C64 1.400 1_554 S
C65 C68 1.410 1_655 S
C65 C77 1.446 1_654 S
C65 C78 1.675 1_554 S
H66 C90 0.948 . S
C67 C63 1.397 1_455 S
C67 C68 1.394 . S
C67 C86 1.723 . S
C68 C65 1.410 1_455 S
C68 C67 1.394 . S
C68 C98 1.723 . S
H69 C92 0.947 1_556 S
H70 C93 0.944 1_556 S
H71 C99 0.982 . S
H72 C100 0.979 . S
H73 C100 0.980 . S
H74 C100 0.983 . S
H75 C99 0.979 . S
H76 C99 0.977 . S
C77 C65 1.446 1_456 S
C77 H106 0.982 . S
C77 H107 0.979 . S
C77 H108 0.977 . S
C78 C65 1.675 1_556 S
C78 H103 0.979 . S
C78 H104 0.980 . S
C78 H105 0.983 . S
C79 C80 1.391 . S
C79 C84 1.391 . S
C79 H109 0.948 . S
C80 C79 1.391 . S
C80 C81 1.391 . S
C81 C80 1.391 . S
C81 C82 1.392 . S
C81 H110 0.947 . S
C82 C81 1.392 . S
C82 C83 1.419 . S
C82 H111 0.948 . S
C83 C82 1.419 . S
C83 C84 1.391 . S
C83 C87 1.397 1_655 S
C84 C79 1.391 . S
C84 C83 1.391 . S
C84 C85 1.399 . S
C85 C84 1.399 . S
C85 C86 1.396 1_655 S
C85 C88 1.453 1_655 S
C85 C89 1.684 . S
C86 C67 1.723 . S
C86 C85 1.396 1_455 S
C86 C87 1.394 . S
C87 C83 1.397 1_455 S
C87 C86 1.394 . S
C87 C97 1.723 . S
C88 C85 1.453 1_455 S
C88 H112 0.982 . S
C88 H113 0.979 . S
C88 H114 0.977 . S
C89 C85 1.684 . S
C89 H115 0.979 . S
C89 H116 0.980 . S
C89 H117 0.983 . S
C90 H66 0.948 . S
C90 C91 1.391 . S
C90 C95 1.391 . S
C91 C90 1.391 . S
C91 C92 1.391 . S
C92 H69 0.947 1_554 S
C92 C91 1.391 . S
C92 C93 1.392 . S
C93 H70 0.944 1_554 S
C93 C92 1.392 . S
C93 C94 1.419 . S
C94 C93 1.419 . S
C94 C95 1.391 . S
C94 C98 1.397 1_655 S
C95 C90 1.391 . S
C95 C94 1.391 . S
C95 C96 1.399 . S
C96 C95 1.399 . S
C96 C97 1.396 1_655 S
C96 C99 1.453 1_655 S
C96 C100 1.684 . S
C97 C87 1.723 . S
C97 C96 1.396 1_455 S
C97 C98 1.394 . S
C98 C68 1.723 . S
C98 C94 1.397 1_455 S
C98 C97 1.394 . S
C99 H71 0.982 . S
C99 H75 0.979 . S
C99 H76 0.977 . S
C99 C96 1.453 1_455 S
C100 H72 0.979 . S
C100 H73 0.980 . S
C100 H74 0.983 . S
C100 C96 1.684 . S
H101 C119 0.948 . S
H102 C60 0.948 . S
H103 C78 0.979 . S
H104 C78 0.980 . S
H105 C78 0.983 . S
H106 C77 0.982 . S
H107 C77 0.979 . S
H108 C77 0.977 . S
H109 C79 0.948 . S
H110 C81 0.947 . S
H111 C82 0.948 . S
H112 C88 0.982 . S
H113 C88 0.979 . S
H114 C88 0.977 . S
H115 C89 0.979 . S
H116 C89 0.980 . S
H117 C89 0.983 . S
H118 C62 0.947 . S
C119 C62 1.392 . S
C119 C63 1.419 . S
C119 H101 0.948 . S
C120 C121 1.391 . S
C120 C124 1.391 . S
C120 H162 0.948 . S
C121 C120 1.391 . S
C121 C122 1.391 1_554 S
C122 C121 1.391 1_556 S
C122 H178 0.947 . S
C122 C179 1.392 1_556 S
C123 C124 1.391 . S
C123 C127 1.397 . S
C123 C179 1.419 . S
C124 C120 1.391 . S
C124 C123 1.391 . S
C124 C125 1.399 . S
C125 C124 1.399 . S
C125 C128 1.396 . S
C125 C137 1.453 . S
C125 C138 1.684 . S
H126 C150 0.948 . S
C127 C123 1.397 . S
C127 C128 1.394 . S
C127 C146 1.723 . S
C128 C125 1.396 . S
C128 C127 1.394 . S
C128 C158 1.723 . S
H129 C152 0.947 . S
H130 C153 0.948 . S
H131 C159 0.982 . S
H132 C160 0.979 . S
H133 C160 0.980 . S
H134 C160 0.983 . S
H135 C159 0.979 . S
H136 C159 0.977 . S
C137 C125 1.453 . S
C137 H166 0.982 . S
C137 H167 0.979 . S
C137 H168 0.977 . S
C138 C125 1.684 . S
C138 H163 0.979 . S
C138 H164 0.980 . S
C138 H165 0.983 . S
C139 C140 1.391 . S
C139 C144 1.391 . S
C139 H169 0.948 . S
C140 C139 1.391 . S
C140 C141 1.391 . S
C141 C140 1.391 . S
C141 C142 1.392 1_556 S
C141 H170 0.944 1_556 S
C142 C141 1.392 1_554 S
C142 C143 1.419 . S
C142 H171 0.948 . S
C143 C142 1.419 . S
C143 C144 1.391 1_554 S
C143 C147 1.397 . S
C144 C139 1.391 . S
C144 C143 1.391 1_556 S
C144 C145 1.399 . S
C145 C144 1.399 . S
C145 C146 1.396 1_556 S
C145 C148 1.453 . S
C145 C149 1.684 . S
C146 C127 1.723 . S
C146 C145 1.396 1_554 S
C146 C147 1.394 . S
C147 C143 1.397 . S
C147 C146 1.394 . S
C147 C157 1.723 . S
C148 C145 1.453 . S
C148 H172 0.982 . S
C148 H173 0.979 . S
C148 H174 0.977 . S
C149 C145 1.684 . S
C149 H175 0.979 . S
C149 H176 0.980 . S
C149 H177 0.983 . S
C150 H126 0.948 . S
C150 C151 1.391 . S
C150 C155 1.391 . S
C151 C150 1.391 . S
C151 C152 1.391 . S
C152 H129 0.947 . S
C152 C151 1.391 . S
C152 C153 1.392 . S
C153 H130 0.948 . S
C153 C152 1.392 . S
C153 C154 1.419 . S
C154 C153 1.419 . S
C154 C155 1.391 . S
C154 C158 1.397 . S
C155 C150 1.391 . S
C155 C154 1.391 . S
C155 C156 1.399 . S
C156 C155 1.399 . S
C156 C157 1.396 . S
C156 C159 1.453 . S
C156 C160 1.684 . S
C157 C147 1.723 . S
C157 C156 1.396 . S
C157 C158 1.394 . S
C158 C128 1.723 . S
C158 C154 1.397 . S
C158 C157 1.394 . S
C159 H131 0.982 . S
C159 H135 0.979 . S
C159 H136 0.977 . S
C159 C156 1.453 . S
C160 H132 0.979 . S
C160 H133 0.980 . S
C160 H134 0.983 . S
C160 C156 1.684 . S
H161 C179 0.948 1_556 S
H162 C120 0.948 . S
H163 C138 0.979 . S
H164 C138 0.980 . S
H165 C138 0.983 . S
H166 C137 0.982 . S
H167 C137 0.979 . S
H168 C137 0.977 . S
H169 C139 0.948 . S
H170 C141 0.944 1_554 S
H171 C142 0.948 . S
H172 C148 0.982 . S
H173 C148 0.979 . S
H174 C148 0.977 . S
H175 C149 0.979 . S
H176 C149 0.980 . S
H177 C149 0.983 . S
H178 C122 0.947 . S
C179 C122 1.392 1_554 S
C179 C123 1.419 . S
C179 H161 0.948 1_554 S
C180 C181 1.391 . S
C180 C184 1.391 . S
C180 H222 0.948 . S
C181 C180 1.391 . S
C181 C182 1.391 . S
C182 C181 1.391 . S
C182 H238 0.947 . S
C182 C239 1.392 . S
C183 C184 1.391 . S
C183 C187 1.397 . S
C183 C239 1.419 . S
C184 C180 1.391 . S
C184 C183 1.391 . S
C184 C185 1.399 . S
C185 C184 1.399 . S
C185 C188 1.396 . S
C185 C197 1.453 . S
C185 C198 1.684 . S
H186 C210 0.948 1_556 S
C187 C183 1.397 . S
C187 C188 1.394 . S
C187 C206 1.723 . S
C188 C185 1.396 . S
C188 C187 1.394 . S
C188 C218 1.723 . S
H189 C212 0.947 . S
H190 C213 0.948 . S
H191 C219 0.982 1_554 S
H192 C220 0.979 . S
H193 C220 0.980 . S
H194 C220 0.983 . S
H195 C219 0.979 . S
H196 C219 0.977 . S
C197 C185 1.453 . S
C197 H226 0.982 . S
C197 H227 0.979 . S
C197 H228 0.977 . S
C198 C185 1.684 . S
C198 H223 0.979 . S
C198 H224 0.980 . S
C198 H225 0.983 . S
C199 C200 1.391 1_554 S
C199 C204 1.391 . S
C199 H229 0.948 . S
C200 C199 1.391 1_556 S
C200 C201 1.391 . S
C201 C200 1.391 . S
C201 C202 1.392 . S
C201 H230 0.947 . S
C202 C201 1.392 . S
C202 C203 1.419 1_556 S
C202 H231 0.948 . S
C203 C202 1.419 1_554 S
C203 C204 1.391 . S
C203 C207 1.397 . S
C204 C199 1.391 . S
C204 C203 1.391 . S
C204 C205 1.399 . S
C205 C204 1.399 . S
C205 C206 1.396 . S
C205 C208 1.453 . S
C205 C209 1.684 . S
C206 C187 1.723 . S
C206 C205 1.396 . S
C206 C207 1.394 . S
C207 C203 1.397 . S
C207 C206 1.394 . S
C207 C217 1.723 . S
C208 C205 1.453 . S
C208 H232 0.982 . S
C208 H233 0.979 . S
C208 H234 0.977 . S
C209 C205 1.684 . S
C209 H235 0.979 . S
C209 H236 0.980 . S
C209 H237 0.983 . S
C210 H186 0.948 1_554 S
C210 C211 1.391 . S
C210 C215 1.391 . S
C211 C210 1.391 . S
C211 C212 1.391 . S
C212 H189 0.947 . S
C212 C211 1.391 . S
C212 C213 1.392 . S
C213 H190 0.948 . S
C213 C212 1.392 . S
C213 C214 1.419 . S
C214 C213 1.419 . S
C214 C215 1.391 . S
C214 C218 1.397 . S
C215 C210 1.391 . S
C215 C214 1.391 . S
C215 C216 1.399 . S
C216 C215 1.399 . S
C216 C217 1.396 . S
C216 C219 1.453 1_554 S
C216 C220 1.684 1_554 S
C217 C207 1.723 . S
C217 C216 1.396 . S
C217 C218 1.394 . S
C218 C188 1.723 . S
C218 C214 1.397 . S
C218 C217 1.394 . S
C219 H191 0.982 1_556 S
C219 H195 0.979 . S
C219 H196 0.977 . S
C219 C216 1.453 1_556 S
C220 H192 0.979 . S
C220 H193 0.980 . S
C220 H194 0.983 . S
C220 C216 1.684 1_556 S
H221 C239 0.948 . S
H222 C180 0.948 . S
H223 C198 0.979 . S
H224 C198 0.980 . S
H225 C198 0.983 . S
H226 C197 0.982 . S
H227 C197 0.979 . S
H228 C197 0.977 . S
H229 C199 0.948 . S
H230 C201 0.947 . S
H231 C202 0.948 . S
H232 C208 0.982 . S
H233 C208 0.979 . S
H234 C208 0.977 . S
H235 C209 0.979 . S
H236 C209 0.980 . S
H237 C209 0.983 . S
H238 C182 0.947 . S
C239 C182 1.392 . S
C239 C183 1.419 . S
C239 H221 0.948 . S
C240 C241 1.391 . S
C240 C244 1.391 . S
C240 H282 0.948 . S
C241 C240 1.391 . S
C241 C242 1.391 . S
C242 C241 1.391 . S
C242 H298 0.947 . S
C242 C299 1.392 . S
C243 C244 1.391 . S
C243 C247 1.397 . S
C243 C299 1.419 . S
C244 C240 1.391 . S
C244 C243 1.391 . S
C244 C245 1.399 . S
C245 C244 1.399 . S
C245 C248 1.396 . S
C245 C257 1.453 . S
C245 C258 1.684 . S
H246 C270 0.948 . S
C247 C243 1.397 . S
C247 C248 1.394 . S
C247 C266 1.723 . S
C248 C245 1.396 . S
C248 C247 1.394 . S
C248 C278 1.723 . S
H249 C272 0.947 . S
H250 C273 0.948 . S
H251 C279 0.982 . S
H252 C280 0.979 . S
H253 C280 0.980 . S
H254 C280 0.983 . S
H255 C279 0.979 . S
H256 C279 0.977 . S
C257 C245 1.453 . S
C257 H286 0.982 . S
C257 H287 0.979 . S
C257 H288 0.977 . S
C258 C245 1.684 . S
C258 H283 0.979 . S
C258 H284 0.980 . S
C258 H285 0.983 . S
C259 C260 1.391 . S
C259 C264 1.391 . S
C259 H289 0.948 . S
C260 C259 1.391 . S
C260 C261 1.391 . S
C261 C260 1.391 . S
C261 C262 1.392 . S
C261 H290 0.947 . S
C262 C261 1.392 . S
C262 C263 1.419 . S
C262 H291 0.948 . S
C263 C262 1.419 . S
C263 C264 1.391 . S
C263 C267 1.397 . S
C264 C259 1.391 . S
C264 C263 1.391 . S
C264 C265 1.399 . S
C265 C264 1.399 . S
C265 C266 1.396 . S
C265 C268 1.453 . S
C265 C269 1.684 . S
C266 C247 1.723 . S
C266 C265 1.396 . S
C266 C267 1.394 . S
C267 C263 1.397 . S
C267 C266 1.394 . S
C267 C277 1.723 . S
C268 C265 1.453 . S
C268 H292 0.982 . S
C268 H293 0.979 . S
C268 H294 0.977 . S
C269 C265 1.684 . S
C269 H295 0.979 . S
C269 H296 0.980 . S
C269 H297 0.983 . S
C270 H246 0.948 . S
C270 C271 1.391 . S
C270 C275 1.391 . S
C271 C270 1.391 . S
C271 C272 1.391 . S
C272 H249 0.947 . S
C272 C271 1.391 . S
C272 C273 1.392 . S
C273 H250 0.948 . S
C273 C272 1.392 . S
C273 C274 1.419 . S
C274 C273 1.419 . S
C274 C275 1.391 . S
C274 C278 1.397 . S
C275 C270 1.391 . S
C275 C274 1.391 . S
C275 C276 1.399 . S
C276 C275 1.399 . S
C276 C277 1.396 . S
C276 C279 1.453 . S
C276 C280 1.684 . S
C277 C267 1.723 . S
C277 C276 1.396 . S
C277 C278 1.394 . S
C278 C248 1.723 . S
C278 C274 1.397 . S
C278 C277 1.394 . S
C279 H251 0.982 . S
C279 H255 0.979 . S
C279 H256 0.977 . S
C279 C276 1.453 . S
C280 H252 0.979 . S
C280 H253 0.980 . S
C280 H254 0.983 . S
C280 C276 1.684 . S
H281 C299 0.948 . S
H282 C240 0.948 . S
H283 C258 0.979 . S
H284 C258 0.980 . S
H285 C258 0.983 . S
H286 C257 0.982 . S
H287 C257 0.979 . S
H288 C257 0.977 . S
H289 C259 0.948 . S
H290 C261 0.947 . S
H291 C262 0.948 . S
H292 C268 0.982 . S
H293 C268 0.979 . S
H294 C268 0.977 . S
H295 C269 0.979 . S
H296 C269 0.980 . S
H297 C269 0.983 . S
H298 C242 0.947 . S
C299 C242 1.392 . S
C299 C243 1.419 . S
C299 H281 0.948 . S
C300 C301 1.391 . S
C300 C304 1.391 . S
C300 H342 0.948 . S
C301 C300 1.391 . S
C301 C302 1.391 . S
C302 C301 1.391 . S
C302 H358 0.947 . S
C302 C359 1.392 . S
C303 C304 1.391 . S
C303 C307 1.396 1_655 S
C303 C359 1.419 . S
C304 C300 1.391 . S
C304 C303 1.391 . S
C304 C305 1.399 . S
C305 C304 1.399 . S
C305 C308 1.396 1_655 S
C305 C317 1.453 1_655 S
C305 C318 1.684 . S
H306 C330 0.948 . S
C307 C303 1.396 1_455 S
C307 C308 1.395 . S
C307 C326 1.723 . S
C308 C305 1.396 1_455 S
C308 C307 1.395 . S
C308 C338 1.723 . S
H309 C332 0.947 . S
H310 C333 0.948 . S
H311 C339 0.982 . S
H312 C340 0.979 . S
H313 C340 0.980 . S
H314 C340 0.983 . S
H315 C339 0.979 . S
H316 C339 0.977 . S
C317 C305 1.453 1_455 S
C317 H346 0.982 . S
C317 H347 0.979 . S
C317 H348 0.977 . S
C318 C305 1.684 . S
C318 H343 0.979 . S
C318 H344 0.980 . S
C318 H345 0.983 . S
C319 C320 1.391 . S
C319 C324 1.391 . S
C319 H349 0.948 . S
C320 C319 1.391 . S
C320 C321 1.391 . S
C321 C320 1.391 . S
C321 C322 1.392 . S
C321 H350 0.947 . S
C322 C321 1.392 . S
C322 C323 1.419 . S
C322 H351 0.948 . S
C323 C322 1.419 . S
C323 C324 1.391 . S
C323 C327 1.396 1_655 S
C324 C319 1.391 . S
C324 C323 1.391 . S
C324 C325 1.399 . S
C325 C324 1.399 . S
C325 C326 1.396 1_655 S
C325 C328 1.453 1_655 S
C325 C329 1.684 . S
C326 C307 1.723 . S
C326 C325 1.396 1_455 S
C326 C327 1.394 . S
C327 C323 1.396 1_455 S
C327 C326 1.394 . S
C327 C337 1.724 . S
C328 C325 1.453 1_455 S
C328 H352 0.982 . S
C328 H353 0.979 . S
C328 H354 0.977 . S
C329 C325 1.684 . S
C329 H355 0.979 . S
C329 H356 0.980 . S
C329 H357 0.983 . S
C330 H306 0.948 . S
C330 C331 1.391 . S
C330 C335 1.391 . S
C331 C330 1.391 . S
C331 C332 1.391 . S
C332 H309 0.947 . S
C332 C331 1.391 . S
C332 C333 1.392 . S
C333 H310 0.948 . S
C333 C332 1.392 . S
C333 C334 1.419 . S
C334 C333 1.419 . S
C334 C335 1.391 . S
C334 C338 1.397 1_655 S
C335 C330 1.391 . S
C335 C334 1.391 . S
C335 C336 1.399 . S
C336 C335 1.399 . S
C336 C337 1.396 1_655 S
C336 C339 1.453 1_655 S
C336 C340 1.684 . S
C337 C327 1.724 . S
C337 C336 1.396 1_455 S
C337 C338 1.395 . S
C338 C308 1.723 . S
C338 C334 1.397 1_455 S
C338 C337 1.395 . S
C339 H311 0.982 . S
C339 H315 0.979 . S
C339 H316 0.977 . S
C339 C336 1.453 1_455 S
C340 H312 0.979 . S
C340 H313 0.980 . S
C340 H314 0.983 . S
C340 C336 1.684 . S
H341 C359 0.948 . S
H342 C300 0.948 . S
H343 C318 0.979 . S
H344 C318 0.980 . S
H345 C318 0.983 . S
H346 C317 0.982 . S
H347 C317 0.979 . S
H348 C317 0.977 . S
H349 C319 0.948 . S
H350 C321 0.947 . S
H351 C322 0.948 . S
H352 C328 0.982 . S
H353 C328 0.979 . S
H354 C328 0.977 . S
H355 C329 0.979 . S
H356 C329 0.980 . S
H357 C329 0.983 . S
H358 C302 0.947 . S
C359 C302 1.392 . S
C359 C303 1.419 . S
C359 H341 0.948 . S
C360 C361 1.391 . S
C360 C364 1.391 . S
C360 H402 0.948 . S
C361 C360 1.391 . S
C361 C362 1.391 . S
C362 C361 1.391 . S
C362 H418 0.947 . S
C362 C419 1.392 . S
C363 C364 1.391 . S
C363 C367 1.397 . S
C363 C419 1.419 . S
C364 C360 1.391 . S
C364 C363 1.391 . S
C364 C365 1.399 . S
C365 C364 1.399 . S
C365 C368 1.396 . S
C365 C377 1.453 . S
C365 C378 1.684 . S
H366 C390 0.948 . S
C367 C363 1.397 . S
C367 C368 1.394 . S
C367 C386 1.723 . S
C368 C365 1.396 . S
C368 C367 1.394 . S
C368 C398 1.723 . S
H369 C392 0.947 . S
H370 C393 0.948 . S
H371 C399 0.982 . S
H372 C400 0.979 . S
H373 C400 0.980 . S
H374 C400 0.983 . S
H375 C399 0.979 . S
H376 C399 0.977 . S
C377 C365 1.453 . S
C377 H406 0.982 . S
C377 H407 0.979 . S
C377 H408 0.977 . S
C378 C365 1.684 . S
C378 H403 0.979 . S
C378 H404 0.980 . S
C378 H405 0.983 . S
C379 C380 1.391 . S
C379 C384 1.391 . S
C379 H409 0.948 . S
C380 C379 1.391 . S
C380 C381 1.391 . S
C381 C380 1.391 . S
C381 C382 1.392 . S
C381 H410 0.947 . S
C382 C381 1.392 . S
C382 C383 1.419 . S
C382 H411 0.948 . S
C383 C382 1.419 . S
C383 C384 1.391 . S
C383 C387 1.397 . S
C384 C379 1.391 . S
C384 C383 1.391 . S
C384 C385 1.399 . S
C385 C384 1.399 . S
C385 C386 1.396 . S
C385 C388 1.453 . S
C385 C389 1.684 . S
C386 C367 1.723 . S
C386 C385 1.396 . S
C386 C387 1.394 . S
C387 C383 1.397 . S
C387 C386 1.394 . S
C387 C397 1.723 . S
C388 C385 1.453 . S
C388 H412 0.982 . S
C388 H413 0.979 . S
C388 H414 0.977 . S
C389 C385 1.684 . S
C389 H415 0.979 . S
C389 H416 0.980 . S
C389 H417 0.983 . S
C390 H366 0.948 . S
C390 C391 1.391 . S
C390 C395 1.391 . S
C391 C390 1.391 . S
C391 C392 1.391 . S
C392 H369 0.947 . S
C392 C391 1.391 . S
C392 C393 1.392 . S
C393 H370 0.948 . S
C393 C392 1.392 . S
C393 C394 1.419 . S
C394 C393 1.419 . S
C394 C395 1.391 . S
C394 C398 1.397 . S
C395 C390 1.391 . S
C395 C394 1.391 . S
C395 C396 1.399 . S
C396 C395 1.399 . S
C396 C397 1.396 . S
C396 C399 1.453 . S
C396 C400 1.684 . S
C397 C387 1.723 . S
C397 C396 1.396 . S
C397 C398 1.394 . S
C398 C368 1.723 . S
C398 C394 1.397 . S
C398 C397 1.394 . S
C399 H371 0.982 . S
C399 H375 0.979 . S
C399 H376 0.977 . S
C399 C396 1.453 . S
C400 H372 0.979 . S
C400 H373 0.980 . S
C400 H374 0.983 . S
C400 C396 1.684 . S
H401 C419 0.948 . S
H402 C360 0.948 . S
H403 C378 0.979 . S
H404 C378 0.980 . S
H405 C378 0.983 . S
H406 C377 0.982 . S
H407 C377 0.979 . S
H408 C377 0.977 . S
H409 C379 0.948 . S
H410 C381 0.947 . S
H411 C382 0.948 . S
H412 C388 0.982 . S
H413 C388 0.979 . S
H414 C388 0.977 . S
H415 C389 0.979 . S
H416 C389 0.980 . S
H417 C389 0.983 . S
H418 C362 0.947 . S
C419 C362 1.392 . S
C419 C363 1.419 . S
C419 H401 0.948 . S
C420 C421 1.391 . S
C420 C424 1.391 . S
C420 H462 0.948 . S
C421 C420 1.391 . S
C421 C422 1.391 . S
C422 C421 1.391 . S
C422 H478 0.947 . S
C422 C479 1.392 . S
C423 C424 1.391 . S
C423 C427 1.397 . S
C423 C479 1.419 . S
C424 C420 1.391 . S
C424 C423 1.391 . S
C424 C425 1.399 . S
C425 C424 1.399 . S
C425 C428 1.396 . S
C425 C437 1.453 . S
C425 C438 1.684 . S
H426 C450 0.948 . S
C427 C423 1.397 . S
C427 C428 1.394 . S
C427 C446 1.723 . S
C428 C425 1.396 . S
C428 C427 1.394 . S
C428 C458 1.723 . S
H429 C452 0.947 . S
H430 C453 0.948 . S
H431 C459 0.982 . S
H432 C460 0.979 . S
H433 C460 0.980 . S
H434 C460 0.983 . S
H435 C459 0.979 . S
H436 C459 0.977 . S
C437 C425 1.453 . S
C437 H466 0.982 . S
C437 H467 0.979 . S
C437 H468 0.977 . S
C438 C425 1.684 . S
C438 H463 0.979 . S
C438 H464 0.980 . S
C438 H465 0.983 . S
C439 C440 1.391 . S
C439 C444 1.391 . S
C439 H469 0.948 . S
C440 C439 1.391 . S
C440 C441 1.391 . S
C441 C440 1.391 . S
C441 C442 1.392 . S
C441 H470 0.947 . S
C442 C441 1.392 . S
C442 C443 1.419 . S
C442 H471 0.948 . S
C443 C442 1.419 . S
C443 C444 1.391 . S
C443 C447 1.397 . S
C444 C439 1.391 . S
C444 C443 1.391 . S
C444 C445 1.399 . S
C445 C444 1.399 . S
C445 C446 1.396 . S
C445 C448 1.453 . S
C445 C449 1.684 . S
C446 C427 1.723 . S
C446 C445 1.396 . S
C446 C447 1.394 . S
C447 C443 1.397 . S
C447 C446 1.394 . S
C447 C457 1.723 . S
C448 C445 1.453 . S
C448 H472 0.982 . S
C448 H473 0.979 . S
C448 H474 0.977 . S
C449 C445 1.684 . S
C449 H475 0.979 . S
C449 H476 0.980 . S
C449 H477 0.983 . S
C450 H426 0.948 . S
C450 C451 1.391 . S
C450 C455 1.391 . S
C451 C450 1.391 . S
C451 C452 1.391 . S
C452 H429 0.947 . S
C452 C451 1.391 . S
C452 C453 1.392 . S
C453 H430 0.948 . S
C453 C452 1.392 . S
C453 C454 1.419 . S
C454 C453 1.419 . S
C454 C455 1.391 . S
C454 C458 1.397 . S
C455 C450 1.391 . S
C455 C454 1.391 . S
C455 C456 1.399 . S
C456 C455 1.399 . S
C456 C457 1.396 . S
C456 C459 1.453 . S
C456 C460 1.684 . S
C457 C447 1.723 . S
C457 C456 1.396 . S
C457 C458 1.394 . S
C458 C428 1.723 . S
C458 C454 1.397 . S
C458 C457 1.394 . S
C459 H431 0.982 . S
C459 H435 0.979 . S
C459 H436 0.977 . S
C459 C456 1.453 . S
C460 H432 0.979 . S
C460 H433 0.980 . S
C460 H434 0.983 . S
C460 C456 1.684 . S
H461 C479 0.948 . S
H462 C420 0.948 . S
H463 C438 0.979 . S
H464 C438 0.980 . S
H465 C438 0.983 . S
H466 C437 0.982 . S
H467 C437 0.979 . S
H468 C437 0.977 . S
H469 C439 0.948 . S
H470 C441 0.947 . S
H471 C442 0.948 . S
H472 C448 0.982 . S
H473 C448 0.979 . S
H474 C448 0.977 . S
H475 C449 0.979 . S
H476 C449 0.980 . S
H477 C449 0.983 . S
H478 C422 0.947 . S
C479 C422 1.392 . S
C479 C423 1.419 . S
C479 H461 0.948 . S
Co480 N485 2.057 . S
Co480 O497 2.021 . S
Co480 O500 2.062 1_455 S
Co480 O504 2.117 1_455 S
Co480 O505 2.020 1_545 S
C481 O501 1.259 1_545 S
C481 O504 1.258 . S
Co482 N491 2.057 . S
Co482 O498 2.117 1_665 S
Co482 O499 2.020 1_565 S
Co482 O501 2.021 . S
Co482 O506 2.062 1_655 S
C483 N485 1.316 . S
C483 N486 1.347 . S
C483 H488 0.931 . S
C484 N485 1.375 1_655 S
C484 C487 1.350 . S
C484 H489 0.930 . S
N485 Co480 2.057 . S
N485 C483 1.316 . S
N485 C484 1.375 1_455 S
N486 C483 1.347 . S
N486 C487 1.373 1_455 S
C487 C484 1.350 . S
C487 N486 1.373 1_655 S
C487 H508 0.931 . S
H488 C483 0.931 . S
H489 C484 0.930 . S
C490 O497 1.259 . S
C490 O498 1.258 . S
N491 Co482 2.057 . S
N491 C492 1.316 . S
N491 C493 1.375 1_655 S
C492 N491 1.316 . S
C492 N494 1.347 . S
C492 H503 0.931 . S
C493 N491 1.375 1_455 S
C493 C495 1.350 . S
C493 H502 0.930 . S
N494 C492 1.347 . S
N494 C495 1.373 1_655 S
C495 C493 1.350 . S
C495 N494 1.373 1_455 S
C495 H509 0.931 . S
C496 O499 1.256 . S
C496 O500 1.255 . S
O497 Co480 2.021 . S
O497 C490 1.259 . S
O498 Co482 2.117 1_445 S
O498 C490 1.258 . S
O499 Co482 2.020 1_545 S
O499 C496 1.256 . S
O500 Co480 2.062 1_655 S
O500 C496 1.255 . S
O501 C481 1.259 1_565 S
O501 Co482 2.021 . S
H502 C493 0.930 . S
H503 C492 0.931 . S
O504 Co480 2.117 1_655 S
O504 C481 1.258 . S
O505 Co480 2.020 1_565 S
O505 C507 1.256 . S
O506 Co482 2.062 1_455 S
O506 C507 1.255 . S
C507 O505 1.256 . S
C507 O506 1.255 . S
H508 C487 0.931 . S
H509 C495 0.931 . S
Co510 N515 2.057 . S
Co510 O527 2.021 . S
Co510 O530 2.062 . S
Co510 O534 2.117 1_545 S
Co510 O535 2.020 . S
C511 O531 1.259 . S
C511 O534 1.258 . S
Co512 N521 2.056 1_545 S
Co512 O528 2.121 . S
Co512 O529 2.020 . S
Co512 O531 2.017 1_545 S
Co512 O536 2.062 1_545 S
C513 N515 1.316 . S
C513 N516 1.347 . S
C513 H518 0.931 . S
C514 N515 1.375 . S
C514 C517 1.350 . S
C514 H519 0.930 1_545 S
N515 Co510 2.057 . S
N515 C513 1.316 . S
N515 C514 1.375 . S
N516 C513 1.347 . S
N516 C517 1.373 . S
C517 C514 1.350 . S
C517 N516 1.373 . S
C517 H538 0.931 . S
H518 C513 0.931 . S
H519 C514 0.930 1_565 S
C520 O527 1.259 . S
C520 O528 1.258 . S
N521 Co512 2.056 1_565 S
N521 C522 1.316 . S
N521 C523 1.375 1_565 S
C522 N521 1.316 . S
C522 N524 1.347 . S
C522 H533 0.931 . S
C523 N521 1.375 1_545 S
C523 C525 1.350 . S
C523 H532 0.930 . S
N524 C522 1.347 . S
N524 C525 1.373 1_565 S
C525 C523 1.350 . S
C525 N524 1.373 1_545 S
C525 H539 0.931 . S
C526 O529 1.256 . S
C526 O530 1.255 . S
O527 Co510 2.021 . S
O527 C520 1.259 . S
O528 Co512 2.121 . S
O528 C520 1.258 . S
O529 Co512 2.020 . S
O529 C526 1.256 . S
O530 Co510 2.062 . S
O530 C526 1.255 . S
O531 C511 1.259 . S
O531 Co512 2.017 1_565 S
H532 C523 0.930 . S
H533 C522 0.931 . S
O534 Co510 2.117 1_565 S
O534 C511 1.258 . S
O535 Co510 2.020 . S
O535 C537 1.256 . S
O536 Co512 2.062 1_565 S
O536 C537 1.255 1_565 S
C537 O535 1.256 . S
C537 O536 1.255 1_545 S
H538 C517 0.931 . S
H539 C525 0.931 . S
Co540 N545 2.057 . S
Co540 O557 2.021 . S
Co540 O560 2.062 . S
Co540 O564 2.117 . S
Co540 O565 2.020 . S
C541 O561 1.259 . S
C541 O564 1.258 . S
Co542 N551 2.057 . S
Co542 O558 2.117 . S
Co542 O559 2.020 . S
Co542 O561 2.021 . S
Co542 O566 2.062 . S
C543 N545 1.316 . S
C543 N546 1.347 . S
C543 H548 0.931 . S
C544 N545 1.375 . S
C544 C547 1.350 . S
C544 H549 0.930 . S
N545 Co540 2.057 . S
N545 C543 1.316 . S
N545 C544 1.375 . S
N546 C543 1.347 . S
N546 C547 1.373 . S
C547 C544 1.350 . S
C547 N546 1.373 . S
C547 H568 0.931 . S
H548 C543 0.931 . S
H549 C544 0.930 . S
C550 O557 1.259 . S
C550 O558 1.258 . S
N551 Co542 2.057 . S
N551 C552 1.316 . S
N551 C553 1.375 . S
C552 N551 1.316 . S
C552 N554 1.347 . S
C552 H563 0.931 . S
C553 N551 1.375 . S
C553 C555 1.350 . S
C553 H562 0.930 . S
N554 C552 1.347 . S
N554 C555 1.373 . S
C555 C553 1.350 . S
C555 N554 1.373 . S
C555 H569 0.931 . S
C556 O559 1.256 . S
C556 O560 1.255 . S
O557 Co540 2.021 . S
O557 C550 1.259 . S
O558 Co542 2.117 . S
O558 C550 1.258 . S
O559 Co542 2.020 . S
O559 C556 1.256 . S
O560 Co540 2.062 . S
O560 C556 1.255 . S
O561 C541 1.259 . S
O561 Co542 2.021 . S
H562 C553 0.930 . S
H563 C552 0.931 . S
O564 Co540 2.117 . S
O564 C541 1.258 . S
O565 Co540 2.020 . S
O565 C567 1.256 . S
O566 Co542 2.062 . S
O566 C567 1.255 . S
C567 O565 1.256 . S
C567 O566 1.255 . S
H568 C547 0.931 . S
H569 C555 0.931 . S
Co570 N575 2.057 . S
Co570 O587 2.021 1_455 S
Co570 O590 2.062 1_455 S
Co570 O594 2.117 . S
Co570 O595 2.020 . S
C571 O591 1.259 . S
C571 O594 1.258 . S
Co572 N581 2.057 . S
Co572 O588 2.117 . S
Co572 O589 2.020 . S
Co572 O591 2.021 1_655 S
Co572 O596 2.062 1_655 S
C573 N575 1.316 . S
C573 N576 1.347 . S
C573 H578 0.931 1_455 S
C574 N575 1.375 . S
C574 C577 1.350 . S
C574 H579 0.930 . S
N575 Co570 2.057 . S
N575 C573 1.316 . S
N575 C574 1.375 . S
N576 C573 1.347 . S
N576 C577 1.373 . S
C577 C574 1.350 . S
C577 N576 1.373 . S
C577 H598 0.931 . S
H578 C573 0.931 1_655 S
H579 C574 0.930 . S
C580 O587 1.259 . S
C580 O588 1.258 . S
N581 Co572 2.057 . S
N581 C582 1.316 . S
N581 C583 1.375 . S
C582 N581 1.316 . S
C582 N584 1.347 . S
C582 H593 0.931 1_655 S
C583 N581 1.375 . S
C583 C585 1.350 . S
C583 H592 0.930 . S
N584 C582 1.347 . S
N584 C585 1.373 . S
C585 C583 1.350 . S
C585 N584 1.373 . S
C585 H599 0.931 . S
C586 O589 1.256 . S
C586 O590 1.255 . S
O587 Co570 2.021 1_655 S
O587 C580 1.259 . S
O588 Co572 2.117 . S
O588 C580 1.258 . S
O589 Co572 2.020 . S
O589 C586 1.256 . S
O590 Co570 2.062 1_655 S
O590 C586 1.255 . S
O591 C571 1.259 . S
O591 Co572 2.021 1_455 S
H592 C583 0.930 . S
H593 C582 0.931 1_455 S
O594 Co570 2.117 . S
O594 C571 1.258 . S
O595 Co570 2.020 . S
O595 C597 1.256 . S
O596 Co572 2.062 1_455 S
O596 C597 1.255 . S
C597 O595 1.256 . S
C597 O596 1.255 . S
H598 C577 0.931 . S
H599 C585 0.931 . S
H600 C608 0.950 . S
H601 C613 0.950 . S
H602 C610 0.950 . S
H603 C612 0.950 . S
H604 C614 0.950 . S
H605 C616 0.950 . S
H606 C618 0.950 . S
H607 C619 0.950 . S
C608 H600 0.950 . S
C608 C609 1.386 . S
C608 C610 1.391 . S
C609 C608 1.386 . S
C609 C613 1.393 . S
C610 H602 0.950 . S
C610 C608 1.391 . S
C610 C611 1.400 . S
C611 C610 1.400 . S
C611 C612 1.398 . S
C611 C617 1.491 . S
C612 H603 0.950 . S
C612 C611 1.398 . S
C612 C613 1.391 . S
C613 H601 0.950 . S
C613 C609 1.393 . S
C613 C612 1.391 . S
C614 H604 0.950 . S
C614 C615 1.386 . S
C614 C616 1.391 . S
C615 C614 1.386 . S
C615 C619 1.393 . S
C616 H605 0.950 . S
C616 C614 1.391 . S
C616 C617 1.400 . S
C617 C611 1.491 . S
C617 C616 1.400 . S
C617 C618 1.398 . S
C618 H606 0.950 . S
C618 C617 1.398 . S
C618 C619 1.391 . S
C619 H607 0.950 . S
C619 C615 1.393 . S
C619 C618 1.391 . S
H620 C628 0.950 . S
H621 C633 0.950 . S
H622 C630 0.950 . S
H623 C632 0.950 . S
H624 C634 0.950 . S
H625 C636 0.950 . S
H626 C638 0.950 . S
H627 C639 0.950 . S
C628 H620 0.950 . S
C628 C629 1.386 . S
C628 C630 1.391 . S
C629 C628 1.386 . S
C629 C633 1.393 . S
C630 H622 0.950 . S
C630 C628 1.391 . S
C630 C631 1.400 . S
C631 C630 1.400 . S
C631 C632 1.398 . S
C631 C637 1.491 . S
C632 H623 0.950 . S
C632 C631 1.398 . S
C632 C633 1.391 . S
C633 H621 0.950 . S
C633 C629 1.393 . S
C633 C632 1.391 . S
C634 H624 0.950 . S
C634 C635 1.386 . S
C634 C636 1.391 . S
C635 C634 1.386 . S
C635 C639 1.393 . S
C636 H625 0.950 . S
C636 C634 1.391 . S
C636 C637 1.400 . S
C637 C631 1.491 . S
C637 C636 1.400 . S
C637 C638 1.398 . S
C638 H626 0.950 . S
C638 C637 1.398 . S
C638 C639 1.391 . S
C639 H627 0.950 . S
C639 C635 1.393 . S
C639 C638 1.391 . S
H640 C648 0.950 . S
H641 C653 0.950 . S
H642 C650 0.950 . S
H643 C652 0.950 . S
H644 C654 0.950 . S
H645 C656 0.950 . S
H646 C658 0.950 . S
H647 C659 0.950 . S
C648 H640 0.950 . S
C648 C649 1.386 . S
C648 C650 1.391 . S
C649 C648 1.386 . S
C649 C653 1.393 . S
C650 H642 0.950 . S
C650 C648 1.391 . S
C650 C651 1.400 . S
C651 C650 1.400 . S
C651 C652 1.398 . S
C651 C657 1.491 . S
C652 H643 0.950 . S
C652 C651 1.398 . S
C652 C653 1.391 . S
C653 H641 0.950 . S
C653 C649 1.393 . S
C653 C652 1.391 . S
C654 H644 0.950 . S
C654 C655 1.386 . S
C654 C656 1.391 . S
C655 C654 1.386 . S
C655 C659 1.393 . S
C656 H645 0.950 . S
C656 C654 1.391 . S
C656 C657 1.400 . S
C657 C651 1.491 . S
C657 C656 1.400 . S
C657 C658 1.398 . S
C658 H646 0.950 . S
C658 C657 1.398 . S
C658 C659 1.391 . S
C659 H647 0.950 . S
C659 C655 1.393 . S
C659 C658 1.391 . S
H660 C668 0.950 . S
H661 C673 0.950 . S
H662 C670 0.950 . S
H663 C672 0.950 . S
H664 C674 0.950 1_455 S
H665 C676 0.950 . S
H666 C678 0.950 . S
H667 C679 0.950 . S
C668 H660 0.950 . S
C668 C669 1.391 . S
C668 C670 1.391 . S
C669 C668 1.391 . S
C669 C673 1.388 1_655 S
C670 H662 0.950 . S
C670 C668 1.391 . S
C670 C671 1.400 . S
C671 C670 1.400 . S
C671 C672 1.398 1_655 S
C671 C677 1.491 . S
C672 H663 0.950 . S
C672 C671 1.398 1_455 S
C672 C673 1.391 . S
C673 H661 0.950 . S
C673 C669 1.388 1_455 S
C673 C672 1.391 . S
C674 H664 0.950 1_655 S
C674 C675 1.386 . S
C674 C676 1.391 1_655 S
C675 C674 1.386 . S
C675 C679 1.393 . S
C676 H665 0.950 . S
C676 C674 1.391 1_455 S
C676 C677 1.400 1_455 S
C677 C671 1.491 . S
C677 C676 1.400 1_655 S
C677 C678 1.398 . S
C678 H666 0.950 . S
C678 C677 1.398 . S
C678 C679 1.391 . S
C679 H667 0.950 . S
C679 C675 1.393 . S
C679 C678 1.391 . S
H680 C688 0.950 . S
H681 C693 0.950 . S
H682 C690 0.959 . S
H683 C692 0.950 . S
H684 C694 0.950 . S
H685 C696 0.950 . S
H686 C698 0.950 . S
H687 C699 0.950 1_545 S
C688 H680 0.950 . S
C688 C689 1.386 . S
C688 C690 1.401 . S
C689 C688 1.386 . S
C689 C693 1.393 1_554 S
C690 H682 0.959 . S
C690 C688 1.401 . S
C690 C691 1.382 1_554 S
C691 C690 1.382 1_556 S
C691 C692 1.398 . S
C691 C697 1.491 . S
C692 H683 0.950 . S
C692 C691 1.398 . S
C692 C693 1.391 . S
C693 H681 0.950 . S
C693 C689 1.393 1_556 S
C693 C692 1.391 . S
C694 H684 0.950 . S
C694 C695 1.386 . S
C694 C696 1.391 . S
C695 C694 1.386 . S
C695 C699 1.393 . S
C696 H685 0.950 . S
C696 C694 1.391 . S
C696 C697 1.400 . S
C697 C691 1.491 . S
C697 C696 1.400 . S
C697 C698 1.398 . S
C698 H686 0.950 . S
C698 C697 1.398 . S
C698 C699 1.391 . S
C699 H687 0.950 1_565 S
C699 C695 1.393 . S
C699 C698 1.391 . S
H700 C708 0.950 . S
H701 C713 0.950 . S
H702 C710 0.950 1_554 S
H703 C712 0.950 . S
H704 C714 0.950 . S
H705 C716 0.950 . S
H706 C718 0.950 . S
H707 C719 0.950 . S
C708 H700 0.950 . S
C708 C709 1.386 . S
C708 C710 1.391 1_554 S
C709 C708 1.386 . S
C709 C713 1.393 1_554 S
C710 H702 0.950 1_556 S
C710 C708 1.391 1_556 S
C710 C711 1.400 . S
C711 C710 1.400 . S
C711 C712 1.398 . S
C711 C717 1.491 . S
C712 H703 0.950 . S
C712 C711 1.398 . S
C712 C713 1.391 . S
C713 H701 0.950 . S
C713 C709 1.393 1_556 S
C713 C712 1.391 . S
C714 H704 0.950 . S
C714 C715 1.386 . S
C714 C716 1.391 . S
C715 C714 1.386 . S
C715 C719 1.393 . S
C716 H705 0.950 . S
C716 C714 1.391 . S
C716 C717 1.400 . S
C717 C711 1.491 . S
C717 C716 1.400 . S
C717 C718 1.398 . S
C718 H706 0.950 . S
C718 C717 1.398 . S
C718 C719 1.391 . S
C719 H707 0.950 . S
C719 C715 1.393 . S
C719 C718 1.391 . S
H720 C728 0.950 . S
H721 C733 0.950 . S
H722 C730 0.950 . S
H723 C732 0.950 . S
H724 C734 0.950 . S
H725 C736 0.950 . S
H726 C738 0.950 . S
H727 C739 0.950 . S
C728 H720 0.950 . S
C728 C729 1.386 . S
C728 C730 1.391 1_554 S
C729 C728 1.386 . S
C729 C733 1.393 . S
C730 H722 0.950 . S
C730 C728 1.391 1_556 S
C730 C731 1.400 . S
C731 C730 1.400 . S
C731 C732 1.398 . S
C731 C737 1.491 . S
C732 H723 0.950 . S
C732 C731 1.398 . S
C732 C733 1.391 1_556 S
C733 H721 0.950 . S
C733 C729 1.393 . S
C733 C732 1.391 1_554 S
C734 H724 0.950 . S
C734 C735 1.386 . S
C734 C736 1.391 . S
C735 C734 1.386 . S
C735 C739 1.393 . S
C736 H725 0.950 . S
C736 C734 1.391 . S
C736 C737 1.400 . S
C737 C731 1.491 . S
C737 C736 1.400 . S
C737 C738 1.398 . S
C738 H726 0.950 . S
C738 C737 1.398 . S
C738 C739 1.391 . S
C739 H727 0.950 . S
C739 C735 1.393 . S
C739 C738 1.391 . S
H740 C748 0.950 . S
H741 C753 0.950 . S
H742 C750 0.950 . S
H743 C752 0.950 . S
H744 C754 0.950 . S
H745 C756 0.950 . S
H746 C758 0.950 . S
H747 C759 0.950 . S
C748 H740 0.950 . S
C748 C749 1.395 . S
C748 C750 1.391 . S
C749 C748 1.395 . S
C749 C753 1.384 1_455 S
C750 H742 0.950 . S
C750 C748 1.391 . S
C750 C751 1.400 1_554 S
C751 C750 1.400 1_556 S
C751 C752 1.398 1_455 S
C751 C757 1.491 . S
C752 H743 0.950 . S
C752 C751 1.398 1_655 S
C752 C753 1.391 1_556 S
C753 H741 0.950 . S
C753 C749 1.384 1_655 S
C753 C752 1.391 1_554 S
C754 H744 0.950 . S
C754 C755 1.386 1_655 S
C754 C756 1.391 . S
C755 C754 1.386 1_455 S
C755 C759 1.393 . S
C756 H745 0.950 . S
C756 C754 1.391 . S
C756 C757 1.400 1_655 S
C757 C751 1.491 . S
C757 C756 1.400 1_455 S
C757 C758 1.398 . S
C758 H746 0.950 . S
C758 C757 1.398 . S
C758 C759 1.391 . S
C759 H747 0.950 . S
C759 C755 1.393 . S
C759 C758 1.391 . S
H760 C768 0.950 . S
H761 C773 0.950 . S
H762 C770 0.950 . S
H763 C772 0.950 . S
H764 C774 0.950 . S
H765 C776 0.950 . S
H766 C778 0.950 . S
H767 C779 0.950 . S
C768 H760 0.950 . S
C768 C769 1.386 1_655 S
C768 C770 1.391 . S
C769 C768 1.386 1_455 S
C769 C773 1.393 . S
C770 H762 0.950 . S
C770 C768 1.391 . S
C770 C771 1.400 . S
C771 C770 1.400 . S
C771 C772 1.398 1_655 S
C771 C777 1.491 . S
C772 H763 0.950 . S
C772 C771 1.398 1_455 S
C772 C773 1.391 . S
C773 H761 0.950 . S
C773 C769 1.393 . S
C773 C772 1.391 . S
C774 H764 0.950 . S
C774 C775 1.386 1_455 S
C774 C776 1.391 . S
C775 C774 1.386 1_655 S
C775 C779 1.393 . S
C776 H765 0.950 . S
C776 C774 1.391 . S
C776 C777 1.400 1_455 S
C777 C771 1.491 . S
C777 C776 1.400 1_655 S
C777 C778 1.398 . S
C778 H766 0.950 . S
C778 C777 1.398 . S
C778 C779 1.391 . S
C779 H767 0.950 . S
C779 C775 1.393 . S
C779 C778 1.391 . S
H780 C788 0.950 . S
H781 C793 0.950 . S
H782 C790 0.950 . S
H783 C792 0.950 . S
H784 C794 0.950 . S
H785 C796 0.950 . S
H786 C798 0.950 . S
H787 C799 0.950 1_565 S
C788 H780 0.950 . S
C788 C789 1.386 . S
C788 C790 1.391 . S
C789 C788 1.386 . S
C789 C793 1.393 . S
C790 H782 0.950 . S
C790 C788 1.391 . S
C790 C791 1.400 . S
C791 C790 1.400 . S
C791 C792 1.398 . S
C791 C797 1.491 . S
C792 H783 0.950 . S
C792 C791 1.398 . S
C792 C793 1.391 . S
C793 H781 0.950 . S
C793 C789 1.393 . S
C793 C792 1.391 . S
C794 H784 0.950 . S
C794 C795 1.386 . S
C794 C796 1.391 . S
C795 C794 1.386 . S
C795 C799 1.393 . S
C796 H785 0.950 . S
C796 C794 1.391 . S
C796 C797 1.400 . S
C797 C791 1.491 . S
C797 C796 1.400 . S
C797 C798 1.398 . S
C798 H786 0.950 . S
C798 C797 1.398 . S
C798 C799 1.391 . S
C799 H787 0.950 1_545 S
C799 C795 1.393 . S
C799 C798 1.391 . S
H800 C808 0.950 . S
H801 C813 0.950 . S
H802 C810 0.950 . S
H803 C812 0.950 . S
H804 C814 0.950 . S
H805 C816 0.950 . S
H806 C818 0.950 . S
H807 C819 0.950 . S
C808 H800 0.950 . S
C808 C809 1.386 . S
C808 C810 1.391 . S
C809 C808 1.386 . S
C809 C813 1.393 . S
C810 H802 0.950 . S
C810 C808 1.391 . S
C810 C811 1.400 . S
C811 C810 1.400 . S
C811 C812 1.398 . S
C811 C817 1.491 . S
C812 H803 0.950 . S
C812 C811 1.398 . S
C812 C813 1.391 . S
C813 H801 0.950 . S
C813 C809 1.393 . S
C813 C812 1.391 . S
C814 H804 0.950 . S
C814 C815 1.386 . S
C814 C816 1.391 . S
C815 C814 1.386 . S
C815 C819 1.393 . S
C816 H805 0.950 . S
C816 C814 1.391 . S
C816 C817 1.400 . S
C817 C811 1.491 . S
C817 C816 1.400 . S
C817 C818 1.398 . S
C818 H806 0.950 . S
C818 C817 1.398 . S
C818 C819 1.391 . S
C819 H807 0.950 . S
C819 C815 1.393 . S
C819 C818 1.391 . S
H820 C828 0.950 . S
H821 C833 0.950 . S
H822 C830 0.950 . S
H823 C832 0.950 . S
H824 C834 0.950 . S
H825 C836 0.950 . S
H826 C838 0.950 . S
H827 C839 0.950 . S
C828 H820 0.950 . S
C828 C829 1.386 . S
C828 C830 1.391 . S
C829 C828 1.386 . S
C829 C833 1.393 . S
C830 H822 0.950 . S
C830 C828 1.391 . S
C830 C831 1.400 . S
C831 C830 1.400 . S
C831 C832 1.398 . S
C831 C837 1.491 . S
C832 H823 0.950 . S
C832 C831 1.398 . S
C832 C833 1.391 . S
C833 H821 0.950 . S
C833 C829 1.393 . S
C833 C832 1.391 . S
C834 H824 0.950 . S
C834 C835 1.386 . S
C834 C836 1.391 . S
C835 C834 1.386 . S
C835 C839 1.393 . S
C836 H825 0.950 . S
C836 C834 1.391 . S
C836 C837 1.400 . S
C837 C831 1.491 . S
C837 C836 1.400 . S
C837 C838 1.398 . S
C838 H826 0.950 . S
C838 C837 1.398 . S
C838 C839 1.391 . S
C839 H827 0.950 . S
C839 C835 1.393 . S
C839 C838 1.391 . S
H840 C848 0.950 . S
H841 C853 0.950 . S
H842 C850 0.950 . S
H843 C852 0.950 . S
H844 C854 0.950 . S
H845 C856 0.950 . S
H846 C858 0.950 . S
H847 C859 0.950 . S
C848 H840 0.950 . S
C848 C849 1.386 . S
C848 C850 1.391 . S
C849 C848 1.386 . S
C849 C853 1.393 1_655 S
C850 H842 0.950 . S
C850 C848 1.391 . S
C850 C851 1.400 1_655 S
C851 C850 1.400 1_455 S
C851 C852 1.398 . S
C851 C857 1.491 . S
C852 H843 0.950 . S
C852 C851 1.398 . S
C852 C853 1.391 . S
C853 H841 0.950 . S
C853 C849 1.393 1_455 S
C853 C852 1.391 . S
C854 H844 0.950 . S
C854 C855 1.386 . S
C854 C856 1.391 . S
C855 C854 1.386 . S
C855 C859 1.393 1_455 S
C856 H845 0.950 . S
C856 C854 1.391 . S
C856 C857 1.400 . S
C857 C851 1.491 . S
C857 C856 1.400 . S
C857 C858 1.398 1_455 S
C858 H846 0.950 . S
C858 C857 1.398 1_655 S
C858 C859 1.391 . S
C859 H847 0.950 . S
C859 C855 1.393 1_655 S
C859 C858 1.391 . S
H860 C868 0.950 . S
H861 C873 0.950 . S
H862 C870 0.950 . S
H863 C872 0.950 . S
H864 C874 0.951 1_545 S
H865 C876 0.950 . S
H866 C878 0.950 . S
H867 C879 0.950 1_545 S
C868 H860 0.950 . S
C868 C869 1.386 . S
C868 C870 1.391 . S
C869 C868 1.386 . S
C869 C873 1.393 . S
C870 H862 0.950 . S
C870 C868 1.391 . S
C870 C871 1.400 . S
C871 C870 1.400 . S
C871 C872 1.398 . S
C871 C877 1.491 . S
C872 H863 0.950 . S
C872 C871 1.398 . S
C872 C873 1.391 . S
C873 H861 0.950 . S
C873 C869 1.393 . S
C873 C872 1.391 . S
C874 H864 0.951 1_565 S
C874 C875 1.386 1_565 S
C874 C876 1.391 . S
C875 C874 1.386 1_545 S
C875 C879 1.393 1_545 S
C876 H865 0.950 . S
C876 C874 1.391 . S
C876 C877 1.400 . S
C877 C871 1.491 . S
C877 C876 1.400 . S
C877 C878 1.398 . S
C878 H866 0.950 . S
C878 C877 1.398 . S
C878 C879 1.391 . S
C879 H867 0.950 1_565 S
C879 C875 1.393 1_565 S
C879 C878 1.391 . S
H880 C888 0.950 1_554 S
H881 C893 0.950 . S
H882 C890 0.950 . S
H883 C892 0.950 . S
H884 C894 0.950 . S
H885 C896 0.950 . S
H886 C898 0.950 . S
H887 C899 0.950 . S
C888 H880 0.950 1_556 S
C888 C889 1.386 . S
C888 C890 1.391 . S
C889 C888 1.386 . S
C889 C893 1.393 . S
C890 H882 0.950 . S
C890 C888 1.391 . S
C890 C891 1.400 . S
C891 C890 1.400 . S
C891 C892 1.398 . S
C891 C897 1.491 . S
C892 H883 0.950 . S
C892 C891 1.398 . S
C892 C893 1.391 . S
C893 H881 0.950 . S
C893 C889 1.393 . S
C893 C892 1.391 . S
C894 H884 0.950 . S
C894 C895 1.386 . S
C894 C896 1.391 . S
C895 C894 1.386 . S
C895 C899 1.393 . S
C896 H885 0.950 . S
C896 C894 1.391 . S
C896 C897 1.400 . S
C897 C891 1.491 . S
C897 C896 1.400 . S
C897 C898 1.398 . S
C898 H886 0.950 . S
C898 C897 1.398 . S
C898 C899 1.391 . S
C899 H887 0.950 . S
C899 C895 1.393 . S
C899 C898 1.391 . S
H900 C908 0.950 1_554 S
H901 C913 0.950 . S
H902 C910 0.950 . S
H903 C912 0.950 . S
H904 C914 0.950 . S
H905 C916 0.950 . S
H906 C918 0.950 . S
H907 C919 0.950 . S
C908 H900 0.950 1_556 S
C908 C909 1.386 . S
C908 C910 1.391 . S
C909 C908 1.386 . S
C909 C913 1.393 . S
C910 H902 0.950 . S
C910 C908 1.391 . S
C910 C911 1.400 . S
C911 C910 1.400 . S
C911 C912 1.398 . S
C911 C917 1.491 . S
C912 H903 0.950 . S
C912 C911 1.398 . S
C912 C913 1.391 . S
C913 H901 0.950 . S
C913 C909 1.393 . S
C913 C912 1.391 . S
C914 H904 0.950 . S
C914 C915 1.386 . S
C914 C916 1.391 . S
C915 C914 1.386 . S
C915 C919 1.393 . S
C916 H905 0.950 . S
C916 C914 1.391 . S
C916 C917 1.400 . S
C917 C911 1.491 . S
C917 C916 1.400 . S
C917 C918 1.398 . S
C918 H906 0.950 . S
C918 C917 1.398 . S
C918 C919 1.391 . S
C919 H907 0.950 . S
C919 C915 1.393 . S
C919 C918 1.391 . S
H920 C928 0.950 . S
H921 C933 0.950 . S
H922 C930 0.950 . S
H923 C932 0.950 . S
H924 C934 0.950 . S
H925 C936 0.950 . S
H926 C938 0.950 1_556 S
H927 C939 0.950 . S
C928 H920 0.950 . S
C928 C929 1.386 . S
C928 C930 1.391 . S
C929 C928 1.386 . S
C929 C933 1.393 1_455 S
C930 H922 0.950 . S
C930 C928 1.391 . S
C930 C931 1.400 . S
C931 C930 1.400 . S
C931 C932 1.398 1_455 S
C931 C937 1.491 . S
C932 H923 0.950 . S
C932 C931 1.398 1_655 S
C932 C933 1.391 . S
C933 H921 0.950 . S
C933 C929 1.393 1_655 S
C933 C932 1.391 . S
C934 H924 0.950 . S
C934 C935 1.386 1_654 S
C934 C936 1.391 . S
C935 C934 1.386 1_456 S
C935 C939 1.393 . S
C936 H925 0.950 . S
C936 C934 1.391 . S
C936 C937 1.400 1_655 S
C937 C931 1.491 . S
C937 C936 1.400 1_455 S
C937 C938 1.398 . S
C938 H926 0.950 1_554 S
C938 C937 1.398 . S
C938 C939 1.391 1_554 S
C939 H927 0.950 . S
C939 C935 1.393 . S
C939 C938 1.391 1_556 S
H940 C948 0.950 . S
H941 C953 0.950 . S
H942 C950 0.950 . S
H943 C952 0.950 . S
H944 C954 0.946 1_556 S
H945 C956 0.950 . S
H946 C958 0.950 . S
H947 C959 0.950 . S
C948 H940 0.950 . S
C948 C949 1.386 . S
C948 C950 1.391 . S
C949 C948 1.386 . S
C949 C953 1.393 . S
C950 H942 0.950 . S
C950 C948 1.391 . S
C950 C951 1.400 . S
C951 C950 1.400 . S
C951 C952 1.398 . S
C951 C957 1.491 . S
C952 H943 0.950 . S
C952 C951 1.398 . S
C952 C953 1.391 . S
C953 H941 0.950 . S
C953 C949 1.393 . S
C953 C952 1.391 . S
C954 H944 0.946 1_554 S
C954 C955 1.386 1_554 S
C954 C956 1.391 . S
C955 C954 1.386 1_556 S
C955 C959 1.393 1_556 S
C956 H945 0.950 . S
C956 C954 1.391 . S
C956 C957 1.400 . S
C957 C951 1.491 . S
C957 C956 1.400 . S
C957 C958 1.398 . S
C958 H946 0.950 . S
C958 C957 1.398 . S
C958 C959 1.391 . S
C959 H947 0.950 . S
C959 C955 1.393 1_554 S
C959 C958 1.391 . S
H960 C968 0.950 . S
H961 C973 0.950 . S
H962 C970 0.950 . S
H963 C972 0.950 1_556 S
H964 C974 0.950 . S
H965 C976 0.950 . S
H966 C978 0.950 . S
H967 C979 0.950 . S
C968 H960 0.950 . S
C968 C969 1.386 . S
C968 C970 1.391 . S
C969 C968 1.386 . S
C969 C973 1.393 . S
C970 H962 0.950 . S
C970 C968 1.391 . S
C970 C971 1.400 . S
C971 C970 1.400 . S
C971 C972 1.398 . S
C971 C977 1.491 1_554 S
C972 H963 0.950 1_554 S
C972 C971 1.398 . S
C972 C973 1.391 . S
C973 H961 0.950 . S
C973 C969 1.393 . S
C973 C972 1.391 . S
C974 H964 0.950 . S
C974 C975 1.386 . S
C974 C976 1.391 . S
C975 C974 1.386 . S
C975 C979 1.393 . S
C976 H965 0.950 . S
C976 C974 1.391 . S
C976 C977 1.400 . S
C977 C971 1.491 1_556 S
C977 C976 1.400 . S
C977 C978 1.398 1_556 S
C978 H966 0.950 . S
C978 C977 1.398 1_554 S
C978 C979 1.391 1_554 S
C979 H967 0.950 . S
C979 C975 1.393 . S
C979 C978 1.391 1_556 S
H980 C988 0.950 . S
H981 C993 0.950 . S
H982 C990 0.950 1_556 S
H983 C992 0.950 . S
H984 C994 0.950 . S
H985 C996 0.950 . S
H986 C998 0.950 . S
H987 C999 0.950 . S
C988 H980 0.950 . S
C988 C989 1.386 . S
C988 C990 1.391 . S
C989 C988 1.386 . S
C989 C993 1.393 . S
C990 H982 0.950 1_554 S
C990 C988 1.391 . S
C990 C991 1.400 . S
C991 C990 1.400 . S
C991 C992 1.398 . S
C991 C997 1.491 1_554 S
C992 H983 0.950 . S
C992 C991 1.398 . S
C992 C993 1.391 . S
C993 H981 0.950 . S
C993 C989 1.393 . S
C993 C992 1.391 . S
C994 H984 0.950 . S
C994 C995 1.386 . S
C994 C996 1.391 1_556 S
C995 C994 1.386 . S
C995 C999 1.393 . S
C996 H985 0.950 . S
C996 C994 1.391 1_554 S
C996 C997 1.400 1_554 S
C997 C991 1.491 1_556 S
C997 C996 1.400 1_556 S
C997 C998 1.398 . S
C998 H986 0.950 . S
C998 C997 1.398 . S
C998 C999 1.391 . S
C999 H987 0.950 . S
C999 C995 1.393 . S
C999 C998 1.391 . S
H1000 C1008 0.950 . S
H1001 C1013 0.950 . S
H1002 C1010 0.950 . S
H1003 C1012 0.950 . S
H1004 C1014 0.950 . S
H1005 C1016 0.950 . S
H1006 C1018 0.950 . S
H1007 C1019 0.938 1_455 S
C1008 H1000 0.950 . S
C1008 C1009 1.386 1_455 S
C1008 C1010 1.391 . S
C1009 C1008 1.386 1_655 S
C1009 C1013 1.393 . S
C1010 H1002 0.950 . S
C1010 C1008 1.391 . S
C1010 C1011 1.400 1_455 S
C1011 C1010 1.400 1_655 S
C1011 C1012 1.398 . S
C1011 C1017 1.491 . S
C1012 H1003 0.950 . S
C1012 C1011 1.398 . S
C1012 C1013 1.391 . S
C1013 H1001 0.950 . S
C1013 C1009 1.393 . S
C1013 C1012 1.391 . S
C1014 H1004 0.950 . S
C1014 C1015 1.386 . S
C1014 C1016 1.391 . S
C1015 C1014 1.386 . S
C1015 C1019 1.406 . S
C1016 H1005 0.950 . S
C1016 C1014 1.391 . S
C1016 C1017 1.400 . S
C1017 C1011 1.491 . S
C1017 C1016 1.400 . S
C1017 C1018 1.398 1_655 S
C1018 H1006 0.950 . S
C1018 C1017 1.398 1_455 S
C1018 C1019 1.390 1_455 S
C1019 H1007 0.938 1_655 S
C1019 C1015 1.406 . S
C1019 C1018 1.390 1_655 S
H1020 C1028 0.950 . S
H1021 C1033 0.950 . S
H1022 C1030 0.950 . S
H1023 C1032 0.950 . S
H1024 C1034 0.950 . S
H1025 C1036 0.950 . S
H1026 C1038 0.950 . S
H1027 C1039 0.950 1_545 S
C1028 H1020 0.950 . S
C1028 C1029 1.386 . S
C1028 C1030 1.391 . S
C1029 C1028 1.386 . S
C1029 C1033 1.393 . S
C1030 H1022 0.950 . S
C1030 C1028 1.391 . S
C1030 C1031 1.400 . S
C1031 C1030 1.400 . S
C1031 C1032 1.398 . S
C1031 C1037 1.491 . S
C1032 H1023 0.950 . S
C1032 C1031 1.398 . S
C1032 C1033 1.391 . S
C1033 H1021 0.950 . S
C1033 C1029 1.393 . S
C1033 C1032 1.391 . S
C1034 H1024 0.950 . S
C1034 C1035 1.386 . S
C1034 C1036 1.391 . S
C1035 C1034 1.386 . S
C1035 C1039 1.393 . S
C1036 H1025 0.950 . S
C1036 C1034 1.391 . S
C1036 C1037 1.400 . S
C1037 C1031 1.491 . S
C1037 C1036 1.400 . S
C1037 C1038 1.398 . S
C1038 H1026 0.950 . S
C1038 C1037 1.398 . S
C1038 C1039 1.391 . S
C1039 H1027 0.950 1_565 S
C1039 C1035 1.393 . S
C1039 C1038 1.391 . S
H1040 C1048 0.950 . S
H1041 C1053 0.950 . S
H1042 C1050 0.950 . S
H1043 C1052 0.950 . S
H1044 C1054 0.950 . S
H1045 C1056 0.950 . S
H1046 C1058 0.950 . S
H1047 C1059 0.950 . S
C1048 H1040 0.950 . S
C1048 C1049 1.386 . S
C1048 C1050 1.391 . S
C1049 C1048 1.386 . S
C1049 C1053 1.393 . S
C1050 H1042 0.950 . S
C1050 C1048 1.391 . S
C1050 C1051 1.400 . S
C1051 C1050 1.400 . S
C1051 C1052 1.398 . S
C1051 C1057 1.491 . S
C1052 H1043 0.950 . S
C1052 C1051 1.398 . S
C1052 C1053 1.391 . S
C1053 H1041 0.950 . S
C1053 C1049 1.393 . S
C1053 C1052 1.391 . S
C1054 H1044 0.950 . S
C1054 C1055 1.386 . S
C1054 C1056 1.391 . S
C1055 C1054 1.386 . S
C1055 C1059 1.393 . S
C1056 H1045 0.950 . S
C1056 C1054 1.391 . S
C1056 C1057 1.400 . S
C1057 C1051 1.491 . S
C1057 C1056 1.400 . S
C1057 C1058 1.398 . S
C1058 H1046 0.950 . S
C1058 C1057 1.398 . S
C1058 C1059 1.391 . S
C1059 H1047 0.950 . S
C1059 C1055 1.393 . S
C1059 C1058 1.391 . S
H1060 C1068 0.950 . S
H1061 C1073 0.950 . S
H1062 C1070 0.950 . S
H1063 C1072 0.950 . S
H1064 C1074 0.950 . S
H1065 C1076 0.950 . S
H1066 C1078 0.950 . S
H1067 C1079 0.950 . S
C1068 H1060 0.950 . S
C1068 C1069 1.386 . S
C1068 C1070 1.391 . S
C1069 C1068 1.386 . S
C1069 C1073 1.393 . S
C1070 H1062 0.950 . S
C1070 C1068 1.391 . S
C1070 C1071 1.400 . S
C1071 C1070 1.400 . S
C1071 C1072 1.398 . S
C1071 C1077 1.491 . S
C1072 H1063 0.950 . S
C1072 C1071 1.398 . S
C1072 C1073 1.391 . S
C1073 H1061 0.950 . S
C1073 C1069 1.393 . S
C1073 C1072 1.391 . S
C1074 H1064 0.950 . S
C1074 C1075 1.386 . S
C1074 C1076 1.391 . S
C1075 C1074 1.386 . S
C1075 C1079 1.393 . S
C1076 H1065 0.950 . S
C1076 C1074 1.391 . S
C1076 C1077 1.400 . S
C1077 C1071 1.491 . S
C1077 C1076 1.400 . S
C1077 C1078 1.398 . S
C1078 H1066 0.950 . S
C1078 C1077 1.398 . S
C1078 C1079 1.391 . S
C1079 H1067 0.950 . S
C1079 C1075 1.393 . S
C1079 C1078 1.391 . S
C609 C391 1.891 . S
C615 C490 1.864 . S
C635 C520 1.743 . S
C629 C451 1.723 . S
C655 N554 1.756 . S
C649 C241 1.625 . S
C675 N584 1.337 . S
C669 C331 1.300 . S
C695 C481 1.870 1_565 S
C689 C121 1.802 . S
C709 C211 1.748 . S
C715 C511 1.739 . S
C729 C31 1.740 . S
C735 N546 1.742 . S
C749 C91 1.325 1_455 S
C755 N576 1.358 . S
C775 C496 0.452 . S
C769 C301 0.763 1_455 S
C795 C526 0.634 . S
C789 C380 0.628 . S
C815 C567 0.508 . S
C809 C440 0.525 . S
C829 C260 0.720 . S
C835 C597 0.619 . S
C849 C61 0.718 . S
C855 C507 0.441 . S
C875 C537 0.661 . S
C869 C140 0.686 . S
C895 C556 0.520 . S
C889 C200 0.511 . S
C909 C20 0.621 . S
C915 C586 0.582 . S
C929 C320 1.698 1_455 S
C935 N486 1.693 . S
C949 C361 1.694 . S
C955 N516 1.844 . S
C975 C541 1.895 . S
C969 C421 1.689 . S
C995 C571 2.149 . S
C989 C271 2.057 . S
C1009 C80 1.686 . S
C1015 N494 1.689 . S
C1035 N524 1.842 . S
C1029 C151 1.849 . S
C1055 C550 1.890 . S
C1049 C181 1.704 . S
C1069 C1 1.895 . S
C1075 C580 2.157 . S
