# Generated by pormake.
# Topology anh, (6,3)-cn, num edge types: 1
# Building blocks:
#     Node 0, Type 0, BuildingBlock: PAMTUU_clean_sbu_0, # of connection points: 6
#     Node 1, Type 0, BuildingBlock: PAMTUU_clean_sbu_0, # of connection points: 6
#     Node 2, Type 0, BuildingBlock: PAMTUU_clean_sbu_0, # of connection points: 6
#     Node 3, Type 1, BuildingBlock: ESEHIV_clean_linker_0, # of connection points: 3
#     Node 4, Type 1, BuildingBlock: ESEHIV_clean_linker_0, # of connection points: 3
#     Node 5, Type 1, BuildingBlock: ESEHIV_clean_linker_0, # of connection points: 3
#     Node 6, Type 1, BuildingBlock: ESEHIV_clean_linker_0, # of connection points: 3
#     Node 7, Type 1, BuildingBlock: ESEHIV_clean_linker_0, # of connection points: 3
#     Node 8, Type 1, BuildingBlock: ESEHIV_clean_linker_0, # of connection points: 3
#     Edge 9, Type (0, 1), BuildingBlock: CIFDUS_clean_linker_0, # of connection points: 2
#     Edge 10, Type (0, 1), BuildingBlock: CIFDUS_clean_linker_0, # of connection points: 2
#     Edge 11, Type (0, 1), BuildingBlock: CIFDUS_clean_linker_0, # of connection points: 2
#     Edge 12, Type (0, 1), BuildingBlock: CIFDUS_clean_linker_0, # of connection points: 2
#     Edge 13, Type (0, 1), BuildingBlock: CIFDUS_clean_linker_0, # of connection points: 2
#     Edge 14, Type (0, 1), BuildingBlock: CIFDUS_clean_linker_0, # of connection points: 2
#     Edge 15, Type (0, 1), BuildingBlock: CIFDUS_clean_linker_0, # of connection points: 2
#     Edge 16, Type (0, 1), BuildingBlock: CIFDUS_clean_linker_0, # of connection points: 2
#     Edge 17, Type (0, 1), BuildingBlock: CIFDUS_clean_linker_0, # of connection points: 2
#     Edge 18, Type (0, 1), BuildingBlock: CIFDUS_clean_linker_0, # of connection points: 2
#     Edge 19, Type (0, 1), BuildingBlock: CIFDUS_clean_linker_0, # of connection points: 2
#     Edge 20, Type (0, 1), BuildingBlock: CIFDUS_clean_linker_0, # of connection points: 2
#     Edge 21, Type (0, 1), BuildingBlock: CIFDUS_clean_linker_0, # of connection points: 2
#     Edge 22, Type (0, 1), BuildingBlock: CIFDUS_clean_linker_0, # of connection points: 2
#     Edge 23, Type (0, 1), BuildingBlock: CIFDUS_clean_linker_0, # of connection points: 2
#     Edge 24, Type (0, 1), BuildingBlock: CIFDUS_clean_linker_0, # of connection points: 2
#     Edge 25, Type (0, 1), BuildingBlock: CIFDUS_clean_linker_0, # of connection points: 2
#     Edge 26, Type (0, 1), BuildingBlock: CIFDUS_clean_linker_0, # of connection points: 2
# Relax obj value: 0.361
# Max RMSD: 0.207
# Mean RMSD: 0.170
data_MOF--net-anh--node1-PAMTUU_clean_sbu_0--node2-ESEHIV_clean_linker_0--edge1-CIFDUS_clean_linker_0
_symmetry_space_group_name_H-M    P1
_symmetry_Int_Tables_number       1
_symmetry_cell_setting            triclinic
loop_
_symmetry_equiv_pos_as_xyz
'x, y, z'
_cell_length_a     23.267369
_cell_length_b     23.292185
_cell_length_c     45.373545
_cell_angle_alpha  92.386596
_cell_angle_beta   91.603953
_cell_angle_gamma 119.52026
loop_
_atom_site_label
_atom_site_type_symbol
_atom_site_fract_x
_atom_site_fract_y
_atom_site_fract_z
_atom_type_partial_charge
Tb0 Tb 0.25117 0.7747 0.1693 0.0
Tb1 Tb 0.34933 0.71743 0.18419 0.0
C2 C 0.30892 0.72921 0.1194 0.0
C3 C 1.10177 0.78366 0.16888 0.0
C4 C 0.96831 0.69153 0.17566 0.0
C5 C 0.9864 0.73491 0.15261 0.0
C6 C 1.0528 0.78053 0.14921 0.0
C7 C 1.08322 0.74511 0.19359 0.0
C8 C 1.01695 0.69947 0.19698 0.0
C9 C 1.17058 0.81497 0.16038 0.0
O10 O 1.18301 0.66641 0.16824 0.0
O11 O 0.25204 0.63554 0.19098 0.0
O12 O 0.33912 0.76429 0.22539 0.0
O13 O 0.23439 0.74184 0.21318 0.0
O14 O 0.38035 0.67012 0.21389 0.0
O15 O 0.42333 0.6961 0.17163 0.0
O16 O 0.41784 0.82106 0.17756 0.0
O17 O 0.34633 0.86125 0.18463 0.0
O18 O 0.30286 0.7789 0.12996 0.0
O19 O 0.31312 0.68879 0.1376 0.0
C20 C 0.19267 0.62218 0.18156 0.0
O21 O 0.21566 0.83865 0.18212 0.0
O22 O 1.18191 0.77995 0.14057 0.0
C23 C 0.28137 0.75548 0.23313 0.0
C24 C 0.39546 0.59138 0.18719 0.0
C25 C 0.36069 0.46067 0.16943 0.0
C26 C 0.41717 0.50001 0.18835 0.0
C27 C 0.43446 0.56502 0.19714 0.0
C28 C 0.33699 0.5511 0.16981 0.0
C29 C 0.31973 0.48627 0.16097 0.0
C30 C 0.41532 0.66084 0.19435 0.0
C31 C 0.40697 0.87074 0.1828 0.0
H32 H 0.95014 0.72951 0.13562 0.0
H33 H 1.06624 0.80936 0.12989 0.0
H34 H 1.12021 0.74644 0.20906 0.0
H35 H 1.00435 0.66711 0.21506 0.0
H36 H 0.45042 0.48211 0.19479 0.0
H37 H 0.47937 0.59531 0.21078 0.0
H38 H 0.30589 0.57059 0.16216 0.0
H39 H 0.27612 0.45719 0.14639 0.0
Tb40 Tb 0.74233 0.17442 0.4926 0.0
Tb41 Tb 0.8954 0.24895 0.51779 0.0
C42 C 0.85286 0.22728 0.45007 0.0
C43 C 0.56441 0.12427 0.48165 0.0
C44 C 0.44435 0.12437 0.48854 0.0
C45 C 0.45522 1.07573 0.50083 0.0
C46 C 0.51433 1.07563 0.49733 0.0
C47 C 0.55607 0.17589 0.47121 0.0
C48 C 0.49651 0.17599 0.4747 0.0
C49 C 0.62248 1.11738 0.47504 0.0
O50 O 0.7599 1.09622 0.5088 0.0
O51 O 0.87353 0.14598 0.51063 0.0
O52 O 0.8325 0.19726 0.5536 0.0
O53 O 0.74567 0.20851 0.53756 0.0
O54 O 0.99583 0.28082 0.51179 0.0
O55 O 0.96444 0.30355 0.55283 0.0
O56 O 0.86692 0.32538 0.52286 0.0
O57 O 0.77133 0.27985 0.49308 0.0
O58 O 0.80045 0.17338 0.45678 0.0
O59 O 0.89202 0.27059 0.47115 0.0
C60 C 0.81485 1.09296 0.51206 0.0
O61 O 0.66948 0.16397 0.46103 0.0
O62 O 0.64573 1.09747 0.49637 0.0
C63 C 0.77543 0.19386 0.55818 0.0
C64 C 1.05159 0.39221 0.53134 0.0
C65 C 1.07102 0.51687 0.51771 0.0
C66 C 1.06535 0.49977 0.54715 0.0
C67 C 1.05584 0.43773 0.55396 0.0
C68 C 1.06642 0.41355 0.50259 0.0
C69 C 1.07545 0.47512 0.49582 0.0
C70 C 1.01365 0.32051 0.53567 0.0
C71 C 0.8193 0.33045 0.50902 0.0
H72 H 0.41623 1.03431 0.51116 0.0
H73 H 0.51952 1.03541 0.50569 0.0
H74 H 0.59429 0.21466 0.45933 0.0
H75 H 0.49006 0.21449 0.46522 0.0
H76 H 1.06264 0.5318 0.5644 0.0
H77 H 1.0451 0.42291 0.57637 0.0
H78 H 1.06459 0.38044 0.48464 0.0
H79 H 1.0815 0.48832 0.47304 0.0
Tb80 Tb 0.7403 0.52105 0.82819 0.0
Tb81 Tb 0.81335 0.67597 0.85099 0.0
C82 C 0.77996 0.63095 0.78338 0.0
C83 C 0.61185 0.34563 0.81357 0.0
C84 C 0.48736 0.23022 0.81183 0.0
C85 C 0.54494 0.22887 0.82107 0.0
C86 C 0.60667 0.28602 0.82171 0.0
C87 C 0.55376 0.34875 0.80764 0.0
C88 C 0.49196 0.29136 0.80669 0.0
C89 C 0.67772 0.4019 0.80887 0.0
O90 O 0.84707 0.55668 0.82587 0.0
O91 O 0.88974 0.64864 0.85817 0.0
O92 O 0.79072 0.62395 0.89178 0.0
O93 O 0.74198 0.51438 0.87507 0.0
O94 O 0.88309 0.77573 0.84593 0.0
O95 O 0.81974 0.74757 0.88242 0.0
O96 O 0.70847 0.64607 0.84165 0.0
O97 O 0.66414 0.53601 0.8486 0.0
O98 O 0.73321 0.57471 0.79179 0.0
O99 O 0.82431 0.67479 0.8029 0.0
C100 C 0.89611 0.60242 0.84338 0.0
O101 O 0.67902 0.45028 0.79499 0.0
O102 O 0.72118 0.42317 0.83112 0.0
C103 C 0.76264 0.56059 0.89644 0.0
C104 C 0.83377 0.84072 0.85893 0.0
C105 C 0.75438 0.8914 0.83741 0.0
C106 C 0.75093 0.87382 0.86677 0.0
C107 C 0.79076 0.84921 0.87753 0.0
C108 C 0.84195 0.86468 0.83058 0.0
C109 C 0.80252 0.88967 0.81991 0.0
C110 C 0.85909 0.79616 0.86697 0.0
C111 C 0.65809 0.58926 0.84815 0.0
H112 H 0.54331 0.18247 0.82481 0.0
H113 H 0.6507 0.28265 0.82669 0.0
H114 H 0.55617 0.39453 0.8019 0.0
H115 H 0.44844 0.29376 0.7995 0.0
H116 H 0.71505 0.87582 0.88086 0.0
H117 H 0.78417 0.83206 0.89967 0.0
H118 H 0.87509 0.85955 0.81577 0.0
H119 H 0.80629 0.90268 0.79713 0.0
H120 H 0.71996 0.1578 0.26937 0.0
H121 H 0.90206 0.34293 0.27372 0.0
H122 H 0.80341 0.24724 0.18914 0.0
C123 C 0.75836 0.1987 0.25848 0.0
C124 C 0.75425 0.19723 0.22754 0.0
C125 C 0.81138 0.25065 0.27549 0.0
C126 C 0.86211 0.30183 0.26074 0.0
C127 C 0.86039 0.30179 0.22948 0.0
C128 C 0.80584 0.24868 0.21305 0.0
H129 H 0.82902 0.8131 0.61044 0.0
H130 H 0.83974 0.6338 0.60803 0.0
H131 H 0.85233 0.73008 0.52765 0.0
C132 C 0.83333 0.7748 0.59799 0.0
C133 C 0.83995 0.77833 0.56711 0.0
C134 C 0.83293 0.72276 0.61301 0.0
C135 C 0.83886 0.67344 0.59665 0.0
C136 C 0.8455 0.67502 0.56596 0.0
C137 C 0.8464 0.72796 0.55124 0.0
H138 H 0.21051 0.64042 0.94236 0.0
H139 H 0.38663 0.62438 0.94198 0.0
H140 H 0.2891 0.62451 0.85952 0.0
C141 C 0.24733 0.63516 0.93022 0.0
C142 C 0.24241 0.63167 0.89916 0.0
C143 C 0.29894 0.63267 0.94591 0.0
C144 C 0.34593 0.62484 0.92998 0.0
C145 C 0.34358 0.62199 0.89877 0.0
C146 C 0.29124 0.62553 0.88342 0.0
H147 H 1.05851 0.70694 0.38704 0.0
H148 H 1.18054 0.9108 0.37182 0.0
H149 H 1.06707 0.85364 0.44985 0.0
C150 C 1.07434 0.7583 0.39318 0.0
C151 C 1.05794 0.77515 0.42044 0.0
C152 C 1.11762 0.80727 0.37541 0.0
C153 C 1.14384 0.87392 0.38494 0.0
C154 C 1.12683 0.89238 0.41201 0.0
C155 C 1.08103 0.84186 0.42888 0.0
H156 H 0.43765 0.99423 0.66334 0.0
H157 H 0.5827 0.93897 0.68593 0.0
H158 H 0.46927 0.95818 0.75348 0.0
C159 C 0.46007 0.9778 0.67964 0.0
C160 C 0.44162 0.97311 0.7093 0.0
C161 C 0.51404 0.97018 0.67167 0.0
C162 C 0.54203 0.94645 0.6921 0.0
C163 C 0.52688 0.94394 0.72169 0.0
C164 C 0.4759 0.95545 0.73008 0.0
H165 H 0.51967 0.32728 0.031 0.0
H166 H 0.71871 0.44951 0.06783 0.0
H167 H 0.55822 0.37955 0.12456 0.0
C168 C 0.55418 0.34848 0.0501 0.0
C169 C 0.52998 0.3436 0.07857 0.0
C170 C 0.62233 0.38753 0.04603 0.0
C171 C 0.66638 0.41771 0.07078 0.0
C172 C 0.64284 0.41456 0.09893 0.0
C173 C 0.5754 0.37679 0.10286 0.0
H174 H 0.33836 0.42786 0.11097 0.0
H175 H 0.36856 0.35834 0.19341 0.0
H176 H 0.40095 0.28619 0.16686 0.0
H177 H 0.45527 0.27492 0.12333 0.0
H178 H 0.44506 0.36528 0.04379 0.0
H179 H 0.36555 0.39148 0.0649 0.0
C180 C 0.34889 0.39455 0.12304 0.0
C181 C 0.35316 0.39976 0.1541 0.0
C182 C 0.37168 0.35683 0.10781 0.0
C183 C 0.36662 0.3562 0.16948 0.0
C184 C 0.38534 0.31516 0.15429 0.0
C185 C 0.43333 0.29787 0.11022 0.0
C186 C 0.45916 0.32179 0.08285 0.0
C187 C 0.39354 0.31969 0.1238 0.0
C188 C 0.42801 0.34814 0.06535 0.0
C189 C 0.38331 0.36451 0.0777 0.0
H190 H 0.98034 0.51379 0.47886 0.0
H191 H 1.14708 0.64663 0.53727 0.0
H192 H 1.14675 0.74181 0.51617 0.0
H193 H 1.11235 0.78507 0.4749 0.0
H194 H 0.94968 0.65122 0.41467 0.0
H195 H 0.9333 0.5581 0.44332 0.0
C196 C 1.01601 0.56373 0.48715 0.0
C197 C 1.06495 0.57389 0.50884 0.0
C198 C 1.01591 0.61759 0.47467 0.0
C199 C 1.10976 0.6382 0.52021 0.0
C200 C 1.1095 0.69234 0.50814 0.0
C201 C 1.07156 0.7359 0.46876 0.0
C202 C 1.0326 0.72466 0.44259 0.0
C203 C 1.06462 0.68252 0.4845 0.0
C204 C 0.98037 0.66071 0.43467 0.0
C205 C 0.97154 0.60754 0.45084 0.0
H206 H 0.77236 0.98578 0.80015 0.0
H207 H 0.62095 0.8214 0.84311 0.0
H208 H 0.53521 0.82556 0.81241 0.0
H209 H 0.50438 0.86802 0.76902 0.0
H210 H 0.65814 1.02925 0.72532 0.0
H211 H 0.74172 1.03354 0.76015 0.0
C212 C 0.72054 0.95135 0.80298 0.0
C213 C 0.70301 0.90299 0.82354 0.0
C214 C 0.67193 0.95253 0.78462 0.0
C215 C 0.63567 0.85942 0.82747 0.0
C216 C 0.58664 0.86124 0.80968 0.0
C217 C 0.55617 0.90409 0.76736 0.0
C218 C 0.57547 0.94678 0.74419 0.0
C219 C 0.60433 0.90619 0.78748 0.0
C220 C 0.64251 0.99434 0.74243 0.0
C221 C 0.69027 0.9973 0.76247 0.0
H222 H 0.84811 0.68097 0.1634 0.0
H223 H 0.94191 0.56562 0.18265 0.0
H224 H 0.84146 0.46456 0.16511 0.0
H225 H 0.73835 0.4135 0.13395 0.0
H226 H 0.64503 0.52841 0.11384 0.0
H227 H 0.73418 0.62516 0.14166 0.0
C228 C 0.84596 0.63349 0.16436 0.0
C229 C 0.90267 0.63093 0.17365 0.0
C230 C 0.78902 0.57575 0.15335 0.0
C231 C 0.89897 0.56904 0.17548 0.0
C232 C 0.84202 0.51127 0.16507 0.0
C233 C 0.73681 0.45923 0.13661 0.0
C234 C 0.6863 0.46475 0.12193 0.0
C235 C 0.78839 0.5146 0.15239 0.0
C236 C 0.684 0.52376 0.12519 0.0
C237 C 0.73501 0.579 0.14089 0.0
H238 H 0.38559 0.14503 0.44035 0.0
H239 H 0.34618 1.07459 0.52805 0.0
H240 H 0.23018 1.00196 0.51267 0.0
H241 H 1.15599 0.93537 0.47102 0.0
H242 H 0.19091 1.00967 0.38368 0.0
H243 H 0.29357 1.10559 0.40286 0.0
C244 C 0.35134 1.11659 0.45666 0.0
C245 C 0.3753 1.11171 0.48476 0.0
C246 C 0.28483 1.07408 0.44753 0.0
C247 C 0.32945 1.0764 0.50577 0.0
C248 C 0.2631 1.03459 0.49695 0.0
C249 C 1.18347 0.97321 0.456 0.0
C250 C 1.168 0.96171 0.42524 0.0
C251 C 0.24211 1.02877 0.46718 0.0
C252 C 0.20414 1.01412 0.40705 0.0
C253 C 0.26277 1.06958 0.41804 0.0
H254 H 0.42909 0.20924 0.75771 0.0
H255 H 0.41981 1.11065 0.83715 0.0
H256 H 0.37322 1.00476 0.80838 0.0
H257 H 0.37357 0.95189 0.7606 0.0
H258 H 0.41499 1.06494 0.68293 0.0
H259 H 0.40335 0.14868 0.71001 0.0
C260 C 0.41364 0.16411 0.76896 0.0
C261 C 0.42996 0.16786 0.79929 0.0
C262 C 0.39344 1.10508 0.75204 0.0
C263 C 0.40893 1.10897 0.81365 0.0
C264 C 0.3831 1.04858 0.79711 0.0
C265 C 0.38031 0.99484 0.74945 0.0
C266 C 0.40204 1.00403 0.72035 0.0
C267 C 0.38166 1.04764 0.76613 0.0
C268 C 0.40231 1.05644 0.70562 0.0
C269 C 0.39627 1.10573 0.72131 0.0
H270 H 0.90045 1.04245 0.50444 0.0
H271 H 0.71724 1.00029 0.54292 0.0
H272 H 0.7083 0.90076 0.56269 0.0
H273 H 0.75335 0.82601 0.57077 0.0
H274 H 0.93204 0.86182 0.53001 0.0
H275 H 0.94134 0.9617 0.50941 0.0
C276 C 0.85836 1.01123 0.51696 0.0
C277 C 0.80957 1.0296 0.522 0.0
C278 C 0.85255 0.95229 0.52798 0.0
C279 C 0.75533 0.9878 0.53827 0.0
C280 C 0.75023 0.93064 0.5498 0.0
C281 C 0.79418 0.85542 0.55723 0.0
C282 C 0.84209 0.83608 0.55215 0.0
C283 C 0.79862 0.91243 0.54501 0.0
C284 C 0.89418 0.87486 0.53423 0.0
C285 C 0.89971 0.93242 0.52255 0.0
H286 H 1.0153 0.69872 0.86919 0.0
H287 H 0.92107 0.50159 0.82749 0.0
H288 H 1.02117 0.49471 0.83819 0.0
H289 H 1.13417 0.5419 0.86299 0.0
H290 H 0.22651 0.739 0.90439 0.0
H291 H 1.12993 0.74881 0.88996 0.0
C292 C 1.01658 0.65431 0.86216 0.0
C293 C 0.95976 0.60062 0.84761 0.0
C294 C 1.07472 0.65068 0.86836 0.0
C295 C 0.96345 0.54389 0.83865 0.0
C296 C 1.02096 0.53981 0.84486 0.0
C297 C 1.13371 0.58753 0.86815 0.0
C298 C 0.18823 0.63996 0.88459 0.0
C299 C 1.07683 0.59255 0.86009 0.0
C300 C 1.18584 0.69817 0.89158 0.0
C301 C 1.13022 0.70363 0.8835 0.0
H302 H 0.53631 0.92005 0.16781 0.0
H303 H 0.40866 0.9747 0.21369 0.0
H304 H 0.50359 1.08192 0.22946 0.0
H305 H 0.62421 0.15761 0.23352 0.0
H306 H 0.75252 1.10648 0.18647 0.0
H307 H 0.65655 1.00155 0.16755 0.0
C308 C 0.52914 0.95564 0.18103 0.0
C309 C 0.46495 0.93859 0.18967 0.0
C310 C 0.58433 1.01818 0.18982 0.0
C311 C 0.45698 0.98597 0.20658 0.0
C312 C 0.51148 1.04748 0.21574 0.0
C313 C 0.63097 0.124 0.21864 0.0
C314 C 0.69558 0.14002 0.21138 0.0
C315 C 0.57549 1.06379 0.2079 0.0
C316 C 0.70347 1.09585 0.19214 0.0
C317 C 0.64852 1.03549 0.18156 0.0
H318 H 0.91703 0.45175 0.53277 0.0
H319 H 0.71622 0.35277 0.49561 0.0
H320 H 0.70839 0.45218 0.50692 0.0
H321 H 0.75545 0.56537 0.53132 0.0
H322 H 0.95582 0.66332 0.56843 0.0
H323 H 0.96704 0.5675 0.55307 0.0
C324 C 0.87164 0.45189 0.52687 0.0
C325 C 0.81713 0.39387 0.51347 0.0
C326 C 0.8674 0.50972 0.53344 0.0
C327 C 0.75911 0.39605 0.50589 0.0
C328 C 0.75449 0.45315 0.51245 0.0
C329 C 0.8021 0.56632 0.53526 0.0
C330 C 0.8551 0.62211 0.5507 0.0
C331 C 0.8079 0.5101 0.52666 0.0
C332 C 0.91466 0.62166 0.55625 0.0
C333 C 0.9209 0.5665 0.54764 0.0
H334 H 0.60401 0.66939 0.83511 0.0
H335 H 0.56863 0.49982 0.8831 0.0
H336 H 0.46858 0.4933 0.90172 0.0
H337 H 0.3922 0.53754 0.9064 0.0
H338 H 0.42129 0.7023 0.85658 0.0
H339 H 0.52052 0.70772 0.83634 0.0
C340 C 0.57419 0.63077 0.84949 0.0
C341 C 0.59472 0.58527 0.85765 0.0
C342 C 0.51489 0.62616 0.85982 0.0
C343 C 0.55462 0.53541 0.87619 0.0
C344 C 0.49711 0.53166 0.88701 0.0
C345 C 0.41988 0.57432 0.89089 0.0
C346 C 0.39889 0.61953 0.88316 0.0
C347 C 0.47689 0.57694 0.87921 0.0
C348 C 0.43552 0.66647 0.86282 0.0
C349 C 0.49289 0.67002 0.85144 0.0
H350 H 1.05947 0.55333 0.16072 0.0
H351 H 0.19759 0.54723 0.2245 0.0
H352 H 1.10962 0.44913 0.24378 0.0
H353 H 0.99317 0.36558 0.24436 0.0
H354 H 0.85243 0.36493 0.18036 0.0
H355 H 0.94172 0.46138 0.15864 0.0
C356 C 1.07035 0.53025 0.17866 0.0
C357 C 1.13596 0.55878 0.19093 0.0
C358 C 1.01879 0.47171 0.18974 0.0
C359 C 1.14837 0.52725 0.2142 0.0
C360 C 1.09774 0.47071 0.22551 0.0
C361 C 0.98143 0.38677 0.22588 0.0
C362 C 0.91533 0.35811 0.21457 0.0
C363 C 1.03269 0.44281 0.21373 0.0
C364 C 0.90241 0.38555 0.18982 0.0
C365 C 0.95345 0.44144 0.17756 0.0
H366 H 0.32692 0.63668 0.08645 0.0
H367 H 0.28728 0.79824 0.078 0.0
H368 H 0.28135 0.78278 0.02466 0.0
H369 H 0.28628 0.72409 0.97992 0.0
H370 H 0.32685 0.56327 0.98635 0.0
H371 H 0.33431 0.57829 0.04048 0.0
C372 C 0.31713 0.66852 0.07292 0.0
C373 C 0.30751 0.71855 0.08659 0.0
C374 C 0.31398 0.65967 0.04169 0.0
C375 C 0.29505 0.75936 0.06848 0.0
C376 C 0.29151 0.75059 0.03776 0.0
C377 C 0.29623 0.69186 0.99311 0.0
C378 C 0.30526 0.64216 0.97896 0.0
C379 C 0.30059 0.70088 0.02411 0.0
C380 C 0.31978 0.60204 0.99656 0.0
C381 C 0.32379 0.61047 0.02757 0.0
H382 H 0.75473 0.20224 0.41022 0.0
H383 H 0.96647 0.28835 0.41926 0.0
H384 H 0.97362 0.30581 0.36599 0.0
H385 H 0.91743 0.2901 0.31616 0.0
H386 H 0.70589 0.21245 0.31 0.0
H387 H 0.70111 0.1981 0.36267 0.0
C388 C 0.80257 0.22487 0.40056 0.0
C389 C 0.85988 0.24278 0.4185 0.0
C390 C 0.80622 0.23593 0.37031 0.0
C391 C 0.92161 0.27367 0.40583 0.0
C392 C 0.92557 0.28352 0.37538 0.0
C393 C 0.87044 0.27098 0.32638 0.0
C394 C 0.8118 0.25053 0.30861 0.0
C395 C 0.86796 0.26407 0.35726 0.0
C396 C 0.75157 0.22633 0.32259 0.0
C397 C 0.74871 0.21851 0.3529 0.0
H398 H 0.85508 0.74573 0.75415 0.0
H399 H 0.70857 0.53912 0.73897 0.0
H400 H 0.71048 0.54998 0.68616 0.0
H401 H 0.75462 0.61578 0.64351 0.0
H402 H 0.89945 0.82251 0.6566 0.0
H403 H 0.89641 0.81413 0.71035 0.0
C404 C 0.82352 0.70322 0.73928 0.0
C405 C 0.78193 0.64161 0.75097 0.0
C406 C 0.82425 0.70967 0.70827 0.0
C407 C 0.74113 0.58731 0.73108 0.0
C408 C 0.74212 0.59327 0.70061 0.0
C409 C 0.78563 0.65911 0.65809 0.0
C410 C 0.82753 0.71954 0.64587 0.0
C411 C 0.78367 0.6539 0.68891 0.0
C412 C 0.86639 0.77536 0.66527 0.0
C413 C 0.86499 0.77046 0.69609 0.0
H414 H 0.64241 1.12053 0.55802 0.0
H415 H 0.82074 0.1833 0.61266 0.0
H416 H 0.7545 1.1174 0.6522 0.0
H417 H 0.64722 1.04516 0.67101 0.0
H418 H 0.46868 0.97495 0.61538 0.0
H419 H 0.53459 1.04196 0.576 0.0
C420 C 0.66686 1.12033 0.57869 0.0
C421 C 0.73634 0.15758 0.58275 0.0
C422 C 0.62872 1.08094 0.6008 0.0
C423 C 0.76736 0.15555 0.60928 0.0
C424 C 0.72956 1.11776 0.63173 0.0
C425 C 0.62232 1.04246 0.65003 0.0
C426 C 0.5528 1.00386 0.64608 0.0
C427 C 0.66035 1.08022 0.62761 0.0
C428 C 0.52191 1.00391 0.61904 0.0
C429 C 0.55958 1.04223 0.59658 0.0
H430 H 0.69094 0.43451 0.91274 0.0
H431 H 0.80009 0.6372 0.94851 0.0
H432 H 0.76766 0.60037 0.99804 0.0
H433 H 0.70376 0.51176 0.03042 0.0
H434 H 0.59307 0.30949 0.99475 0.0
H435 H 0.63009 0.34554 0.9454 0.0
C436 C 0.70837 0.47088 0.93133 0.0
C437 C 0.74806 0.53873 0.92684 0.0
C438 C 0.68876 0.44949 0.95958 0.0
C439 C 0.76961 0.5848 0.95127 0.0
C440 C 0.75093 0.56377 0.97958 0.0
C441 C 0.68876 0.47527 0.01198 0.0
C442 C 0.64647 0.40782 0.01625 0.0
C443 C 0.70996 0.49639 0.98388 0.0
C444 C 0.62569 0.36155 0.99197 0.0
C445 C 0.64696 0.38217 0.96385 0.0
H446 H 1.1623 0.69417 0.25543 0.0
H447 H 0.36627 0.83631 0.27939 0.0
H448 H 0.33339 0.86451 0.32652 0.0
H449 H 0.24446 0.85464 0.35863 0.0
H450 H 1.04088 0.71517 0.33202 0.0
H451 H 1.07577 0.68069 0.28769 0.0
C452 C 0.19986 0.73093 0.27109 0.0
C453 C 0.26656 0.7636 0.26394 0.0
C454 C 1.18035 0.74814 0.2973 0.0
C455 C 0.3147 0.81024 0.28456 0.0
C456 C 0.29571 0.82688 0.31126 0.0
C457 C 0.20787 0.81709 0.34297 0.0
C458 C 1.14004 0.78798 0.34836 0.0
C459 C 0.22839 0.79744 0.31744 0.0
C460 C 1.09321 0.73828 0.32829 0.0
C461 C 1.11313 0.71851 0.30301 0.0
loop_
_geom_bond_atom_site_label_1
_geom_bond_atom_site_label_2
_geom_bond_distance
_geom_bond_site_symmetry_2
_ccdc_geom_bond_type
Tb0 C9 2.764 1_455 S
Tb0 O10 2.325 1_455 S
Tb0 O13 2.303 . S
Tb0 O17 2.322 . S
Tb0 O18 2.349 . S
Tb0 O21 2.415 1_455 S
Tb0 O22 2.399 1_455 S
Tb1 O11 2.322 1_455 S
Tb1 O12 2.349 . S
Tb1 O14 2.415 . S
Tb1 O15 2.399 . S
Tb1 O16 2.325 . S
Tb1 O19 2.303 . S
Tb1 C30 2.764 . S
C2 O18 1.261 . S
C2 O19 1.257 . S
C3 C6 1.358 . S
C3 C7 1.332 . S
C3 C9 1.504 . S
C4 C5 1.373 . S
C4 C8 1.308 . S
C5 C4 1.373 . S
C5 C6 1.429 . S
C5 H32 0.932 . S
C6 C3 1.358 . S
C6 C5 1.429 . S
C6 H33 0.930 . S
C7 C3 1.332 . S
C7 C8 1.394 . S
C7 H34 0.932 . S
C8 C4 1.308 . S
C8 C7 1.394 . S
C8 H35 0.929 . S
C9 Tb0 2.764 1_655 S
C9 C3 1.504 . S
C9 O21 1.239 . S
C9 O22 1.263 . S
O10 Tb0 2.325 1_655 S
O10 C20 1.236 . S
O11 Tb1 2.322 1_655 S
O11 C20 1.257 . S
O12 Tb1 2.349 . S
O12 C23 1.261 . S
O13 Tb0 2.303 . S
O13 C23 1.257 . S
O14 Tb1 2.415 . S
O14 C30 1.239 . S
O15 Tb1 2.399 . S
O15 C30 1.263 . S
O16 Tb1 2.325 . S
O16 C31 1.236 . S
O17 Tb0 2.322 . S
O17 C31 1.257 . S
O18 Tb0 2.349 . S
O18 C2 1.261 . S
O19 Tb1 2.303 . S
O19 C2 1.257 . S
C20 O10 1.236 . S
C20 O11 1.257 . S
O21 Tb0 2.415 1_655 S
O21 C9 1.239 . S
O22 Tb0 2.399 1_655 S
O22 C9 1.263 . S
C23 O12 1.261 . S
C23 O13 1.257 . S
C24 C27 1.358 . S
C24 C28 1.332 . S
C24 C30 1.504 . S
C25 C26 1.373 . S
C25 C29 1.308 . S
C26 C25 1.373 . S
C26 C27 1.429 . S
C26 H36 0.932 . S
C27 C24 1.358 . S
C27 C26 1.429 . S
C27 H37 0.930 . S
C28 C24 1.332 . S
C28 C29 1.394 . S
C28 H38 0.932 . S
C29 C25 1.308 . S
C29 C28 1.394 . S
C29 H39 0.929 . S
C30 Tb1 2.764 . S
C30 O14 1.239 . S
C30 O15 1.263 . S
C30 C24 1.504 . S
C31 O16 1.236 . S
C31 O17 1.257 . S
H32 C5 0.932 . S
H33 C6 0.930 . S
H34 C7 0.932 . S
H35 C8 0.929 . S
H36 C26 0.932 . S
H37 C27 0.930 . S
H38 C28 0.932 . S
H39 C29 0.929 . S
Tb40 C49 2.764 . S
Tb40 O50 2.325 . S
Tb40 O53 2.303 1_565 S
Tb40 O57 2.322 1_565 S
Tb40 O58 2.349 1_565 S
Tb40 O61 2.415 . S
Tb40 O62 2.399 . S
Tb41 O51 2.322 1_545 S
Tb41 O52 2.349 . S
Tb41 O54 2.415 . S
Tb41 O55 2.399 . S
Tb41 O56 2.325 . S
Tb41 O59 2.303 . S
Tb41 C70 2.764 . S
C42 O58 1.261 . S
C42 O59 1.257 . S
C43 C46 1.358 . S
C43 C47 1.332 . S
C43 C49 1.504 . S
C44 C45 1.373 . S
C44 C48 1.308 . S
C45 C44 1.373 . S
C45 C46 1.429 . S
C45 H72 0.932 . S
C46 C43 1.358 . S
C46 C45 1.429 . S
C46 H73 0.930 . S
C47 C43 1.332 . S
C47 C48 1.394 . S
C47 H74 0.932 . S
C48 C44 1.308 . S
C48 C47 1.394 . S
C48 H75 0.929 . S
C49 Tb40 2.764 . S
C49 C43 1.504 . S
C49 O61 1.239 . S
C49 O62 1.263 . S
O50 Tb40 2.325 . S
O50 C60 1.236 . S
O51 Tb41 2.322 1_565 S
O51 C60 1.257 . S
O52 Tb41 2.349 . S
O52 C63 1.261 . S
O53 Tb40 2.303 1_545 S
O53 C63 1.257 . S
O54 Tb41 2.415 . S
O54 C70 1.239 . S
O55 Tb41 2.399 . S
O55 C70 1.263 . S
O56 Tb41 2.325 . S
O56 C71 1.236 . S
O57 Tb40 2.322 1_545 S
O57 C71 1.257 . S
O58 Tb40 2.349 1_545 S
O58 C42 1.261 . S
O59 Tb41 2.303 . S
O59 C42 1.257 . S
C60 O50 1.236 . S
C60 O51 1.257 . S
O61 Tb40 2.415 . S
O61 C49 1.239 . S
O62 Tb40 2.399 . S
O62 C49 1.263 . S
C63 O52 1.261 . S
C63 O53 1.257 . S
C64 C67 1.358 . S
C64 C68 1.332 . S
C64 C70 1.504 . S
C65 C66 1.373 . S
C65 C69 1.308 . S
C66 C65 1.373 . S
C66 C67 1.429 . S
C66 H76 0.932 . S
C67 C64 1.358 . S
C67 C66 1.429 . S
C67 H77 0.930 . S
C68 C64 1.332 . S
C68 C69 1.394 . S
C68 H78 0.932 . S
C69 C65 1.308 . S
C69 C68 1.394 . S
C69 H79 0.929 . S
C70 Tb41 2.764 . S
C70 O54 1.239 . S
C70 O55 1.263 . S
C70 C64 1.504 . S
C71 O56 1.236 . S
C71 O57 1.257 . S
H72 C45 0.932 . S
H73 C46 0.930 . S
H74 C47 0.932 . S
H75 C48 0.929 . S
H76 C66 0.932 . S
H77 C67 0.930 . S
H78 C68 0.932 . S
H79 C69 0.929 . S
Tb80 C89 2.764 . S
Tb80 O90 2.325 . S
Tb80 O93 2.303 . S
Tb80 O97 2.322 . S
Tb80 O98 2.349 . S
Tb80 O101 2.415 . S
Tb80 O102 2.399 . S
Tb81 O91 2.322 . S
Tb81 O92 2.349 . S
Tb81 O94 2.415 . S
Tb81 O95 2.399 . S
Tb81 O96 2.325 . S
Tb81 O99 2.303 . S
Tb81 C110 2.764 . S
C82 O98 1.261 . S
C82 O99 1.257 . S
C83 C86 1.358 . S
C83 C87 1.332 . S
C83 C89 1.504 . S
C84 C85 1.373 . S
C84 C88 1.308 . S
C85 C84 1.373 . S
C85 C86 1.429 . S
C85 H112 0.932 . S
C86 C83 1.358 . S
C86 C85 1.429 . S
C86 H113 0.930 . S
C87 C83 1.332 . S
C87 C88 1.394 . S
C87 H114 0.932 . S
C88 C84 1.308 . S
C88 C87 1.394 . S
C88 H115 0.929 . S
C89 Tb80 2.764 . S
C89 C83 1.504 . S
C89 O101 1.239 . S
C89 O102 1.263 . S
O90 Tb80 2.325 . S
O90 C100 1.236 . S
O91 Tb81 2.322 . S
O91 C100 1.257 . S
O92 Tb81 2.349 . S
O92 C103 1.261 . S
O93 Tb80 2.303 . S
O93 C103 1.257 . S
O94 Tb81 2.415 . S
O94 C110 1.239 . S
O95 Tb81 2.399 . S
O95 C110 1.263 . S
O96 Tb81 2.325 . S
O96 C111 1.236 . S
O97 Tb80 2.322 . S
O97 C111 1.257 . S
O98 Tb80 2.349 . S
O98 C82 1.261 . S
O99 Tb81 2.303 . S
O99 C82 1.257 . S
C100 O90 1.236 . S
C100 O91 1.257 . S
O101 Tb80 2.415 . S
O101 C89 1.239 . S
O102 Tb80 2.399 . S
O102 C89 1.263 . S
C103 O92 1.261 . S
C103 O93 1.257 . S
C104 C107 1.358 . S
C104 C108 1.332 . S
C104 C110 1.504 . S
C105 C106 1.373 . S
C105 C109 1.308 . S
C106 C105 1.373 . S
C106 C107 1.429 . S
C106 H116 0.932 . S
C107 C104 1.358 . S
C107 C106 1.429 . S
C107 H117 0.930 . S
C108 C104 1.332 . S
C108 C109 1.394 . S
C108 H118 0.932 . S
C109 C105 1.308 . S
C109 C108 1.394 . S
C109 H119 0.929 . S
C110 Tb81 2.764 . S
C110 O94 1.239 . S
C110 O95 1.263 . S
C110 C104 1.504 . S
C111 O96 1.236 . S
C111 O97 1.257 . S
H112 C85 0.932 . S
H113 C86 0.930 . S
H114 C87 0.932 . S
H115 C88 0.929 . S
H116 C106 0.932 . S
H117 C107 0.930 . S
H118 C108 0.932 . S
H119 C109 0.929 . S
H120 C123 0.931 . S
H121 C126 0.928 . S
H122 C128 0.930 . S
C123 H120 0.931 . S
C123 C124 1.413 . S
C123 C125 1.360 1_565 S
C124 C123 1.413 . S
C124 C128 1.429 1_565 S
C125 C123 1.360 1_545 S
C125 C126 1.372 . S
C126 H121 0.928 . S
C126 C125 1.372 . S
C126 C127 1.404 . S
C127 C126 1.404 . S
C127 C128 1.391 . S
C128 H122 0.930 . S
C128 C124 1.429 1_545 S
C128 C127 1.391 . S
H129 C132 0.931 . S
H130 C135 0.928 . S
H131 C137 0.930 . S
C132 H129 0.931 . S
C132 C133 1.413 . S
C132 C134 1.360 . S
C133 C132 1.413 . S
C133 C137 1.429 . S
C134 C132 1.360 . S
C134 C135 1.372 . S
C135 H130 0.928 . S
C135 C134 1.372 . S
C135 C136 1.404 . S
C136 C135 1.404 . S
C136 C137 1.391 . S
C137 H131 0.930 . S
C137 C133 1.429 . S
C137 C136 1.391 . S
H138 C141 0.931 1_655 S
H139 C144 0.928 . S
H140 C146 0.930 . S
C141 H138 0.931 1_455 S
C141 C142 1.413 . S
C141 C143 1.360 . S
C142 C141 1.413 . S
C142 C146 1.429 . S
C143 C141 1.360 . S
C143 C144 1.372 . S
C144 H139 0.928 . S
C144 C143 1.372 . S
C144 C145 1.404 . S
C145 C144 1.404 . S
C145 C146 1.391 . S
C146 H140 0.930 . S
C146 C142 1.429 . S
C146 C145 1.391 . S
H147 C150 0.931 . S
H148 C153 0.928 . S
H149 C155 0.930 . S
C150 H147 0.931 . S
C150 C151 1.413 . S
C150 C152 1.360 1_655 S
C151 C150 1.413 . S
C151 C155 1.429 1_655 S
C152 C150 1.360 1_455 S
C152 C153 1.372 . S
C153 H148 0.928 . S
C153 C152 1.372 . S
C153 C154 1.404 . S
C154 C153 1.404 . S
C154 C155 1.391 . S
C155 H149 0.930 . S
C155 C151 1.429 1_455 S
C155 C154 1.391 . S
H156 C159 0.931 . S
H157 C162 0.928 . S
H158 C164 0.930 . S
C159 H156 0.931 . S
C159 C160 1.413 . S
C159 C161 1.351 1_545 S
C160 C159 1.413 . S
C160 C164 1.429 . S
C161 C159 1.351 1_565 S
C161 C162 1.381 . S
C162 H157 0.928 . S
C162 C161 1.381 . S
C162 C163 1.404 . S
C163 C162 1.404 . S
C163 C164 1.391 1_565 S
C164 H158 0.930 . S
C164 C160 1.429 . S
C164 C163 1.391 1_545 S
H165 C168 0.931 . S
H166 C171 0.928 . S
H167 C173 0.930 . S
C168 H165 0.931 . S
C168 C169 1.413 . S
C168 C170 1.360 . S
C169 C168 1.413 . S
C169 C173 1.429 . S
C170 C168 1.360 . S
C170 C171 1.372 . S
C171 H166 0.928 . S
C171 C170 1.372 . S
C171 C172 1.404 . S
C172 C171 1.404 . S
C172 C173 1.391 . S
C173 H167 0.930 . S
C173 C169 1.429 . S
C173 C172 1.391 . S
H174 C180 0.930 . S
H175 C183 0.930 . S
H176 C184 0.930 . S
H177 C185 0.930 . S
H178 C188 0.930 . S
H179 C189 0.930 . S
C180 H174 0.930 . S
C180 C181 1.355 . S
C180 C182 1.415 . S
C181 C180 1.355 . S
C181 C183 1.419 . S
C182 C180 1.415 . S
C182 C187 1.425 . S
C182 C189 1.409 . S
C183 H175 0.930 . S
C183 C181 1.419 . S
C183 C184 1.362 . S
C184 H176 0.930 . S
C184 C183 1.362 . S
C184 C187 1.409 . S
C185 H177 0.930 . S
C185 C186 1.355 . S
C185 C187 1.415 . S
C186 C185 1.355 . S
C186 C188 1.419 . S
C187 C182 1.425 . S
C187 C184 1.409 . S
C187 C185 1.415 . S
C188 H178 0.930 . S
C188 C186 1.419 . S
C188 C189 1.362 . S
C189 H179 0.930 . S
C189 C182 1.409 . S
C189 C188 1.362 . S
H190 C196 0.930 . S
H191 C199 0.930 . S
H192 C200 0.930 . S
H193 C201 0.930 . S
H194 C204 0.930 . S
H195 C205 0.930 . S
C196 H190 0.930 . S
C196 C197 1.355 . S
C196 C198 1.415 . S
C197 C196 1.355 . S
C197 C199 1.419 . S
C198 C196 1.415 . S
C198 C203 1.425 . S
C198 C205 1.409 . S
C199 H191 0.930 . S
C199 C197 1.419 . S
C199 C200 1.362 . S
C200 H192 0.930 . S
C200 C199 1.362 . S
C200 C203 1.409 . S
C201 H193 0.930 . S
C201 C202 1.355 . S
C201 C203 1.415 . S
C202 C201 1.355 . S
C202 C204 1.419 . S
C203 C198 1.425 . S
C203 C200 1.409 . S
C203 C201 1.415 . S
C204 H194 0.930 . S
C204 C202 1.419 . S
C204 C205 1.362 . S
C205 H195 0.930 . S
C205 C198 1.409 . S
C205 C204 1.362 . S
H206 C212 0.930 . S
H207 C215 0.930 . S
H208 C216 0.930 . S
H209 C217 0.930 . S
H210 C220 0.930 1_545 S
H211 C221 0.930 1_545 S
C212 H206 0.930 . S
C212 C213 1.355 . S
C212 C214 1.415 . S
C213 C212 1.355 . S
C213 C215 1.419 . S
C214 C212 1.415 . S
C214 C219 1.425 . S
C214 C221 1.409 . S
C215 H207 0.930 . S
C215 C213 1.419 . S
C215 C216 1.362 . S
C216 H208 0.930 . S
C216 C215 1.362 . S
C216 C219 1.409 . S
C217 H209 0.930 . S
C217 C218 1.355 . S
C217 C219 1.415 . S
C218 C217 1.355 . S
C218 C220 1.419 . S
C219 C214 1.425 . S
C219 C216 1.409 . S
C219 C217 1.415 . S
C220 H210 0.930 1_565 S
C220 C218 1.419 . S
C220 C221 1.362 . S
C221 H211 0.930 1_565 S
C221 C214 1.409 . S
C221 C220 1.362 . S
H222 C228 0.930 . S
H223 C231 0.930 . S
H224 C232 0.930 . S
H225 C233 0.930 . S
H226 C236 0.930 . S
H227 C237 0.930 . S
C228 H222 0.930 . S
C228 C229 1.355 . S
C228 C230 1.415 . S
C229 C228 1.355 . S
C229 C231 1.419 . S
C230 C228 1.415 . S
C230 C235 1.425 . S
C230 C237 1.409 . S
C231 H223 0.930 . S
C231 C229 1.419 . S
C231 C232 1.362 . S
C232 H224 0.930 . S
C232 C231 1.362 . S
C232 C235 1.409 . S
C233 H225 0.930 . S
C233 C234 1.355 . S
C233 C235 1.415 . S
C234 C233 1.355 . S
C234 C236 1.419 . S
C235 C230 1.425 . S
C235 C232 1.409 . S
C235 C233 1.415 . S
C236 H226 0.930 . S
C236 C234 1.419 . S
C236 C237 1.362 . S
C237 H227 0.930 . S
C237 C230 1.409 . S
C237 C236 1.362 . S
H238 C244 0.930 . S
H239 C247 0.930 . S
H240 C248 0.930 . S
H241 C249 0.930 . S
H242 C252 0.930 . S
H243 C253 0.930 . S
C244 H238 0.930 . S
C244 C245 1.355 . S
C244 C246 1.415 . S
C245 C244 1.355 . S
C245 C247 1.419 . S
C246 C244 1.415 . S
C246 C251 1.425 . S
C246 C253 1.409 . S
C247 H239 0.930 . S
C247 C245 1.419 . S
C247 C248 1.362 . S
C248 H240 0.930 . S
C248 C247 1.362 . S
C248 C251 1.409 . S
C249 H241 0.930 . S
C249 C250 1.355 . S
C249 C251 1.415 . S
C250 C249 1.355 . S
C250 C252 1.419 . S
C251 C246 1.425 . S
C251 C248 1.409 . S
C251 C249 1.415 . S
C252 H242 0.930 . S
C252 C250 1.419 . S
C252 C253 1.362 . S
C253 H243 0.930 . S
C253 C246 1.409 . S
C253 C252 1.362 . S
H254 C260 0.930 . S
H255 C263 0.930 . S
H256 C264 0.930 . S
H257 C265 0.930 . S
H258 C268 0.930 . S
H259 C269 0.930 . S
C260 H254 0.930 . S
C260 C261 1.355 . S
C260 C262 1.415 . S
C261 C260 1.355 . S
C261 C263 1.419 . S
C262 C260 1.415 . S
C262 C267 1.425 . S
C262 C269 1.409 . S
C263 H255 0.930 . S
C263 C261 1.419 . S
C263 C264 1.362 . S
C264 H256 0.930 . S
C264 C263 1.362 . S
C264 C267 1.409 . S
C265 H257 0.930 . S
C265 C266 1.355 . S
C265 C267 1.415 . S
C266 C265 1.355 . S
C266 C268 1.419 . S
C267 C262 1.425 . S
C267 C264 1.409 . S
C267 C265 1.415 . S
C268 H258 0.930 . S
C268 C266 1.419 . S
C268 C269 1.362 . S
C269 H259 0.930 . S
C269 C262 1.409 . S
C269 C268 1.362 . S
H270 C276 0.930 . S
H271 C279 0.930 . S
H272 C280 0.930 . S
H273 C281 0.930 . S
H274 C284 0.930 . S
H275 C285 0.930 . S
C276 H270 0.930 . S
C276 C277 1.355 . S
C276 C278 1.415 . S
C277 C276 1.355 . S
C277 C279 1.419 . S
C278 C276 1.415 . S
C278 C283 1.425 . S
C278 C285 1.409 . S
C279 H271 0.930 . S
C279 C277 1.419 . S
C279 C280 1.362 . S
C280 H272 0.930 . S
C280 C279 1.362 . S
C280 C283 1.409 . S
C281 H273 0.930 . S
C281 C282 1.355 . S
C281 C283 1.415 . S
C282 C281 1.355 . S
C282 C284 1.419 . S
C283 C278 1.425 . S
C283 C280 1.409 . S
C283 C281 1.415 . S
C284 H274 0.930 . S
C284 C282 1.419 . S
C284 C285 1.362 . S
C285 H275 0.930 . S
C285 C278 1.409 . S
C285 C284 1.362 . S
H286 C292 0.930 . S
H287 C295 0.930 . S
H288 C296 0.930 . S
H289 C297 0.930 . S
H290 C300 0.930 . S
H291 C301 0.930 . S
C292 H286 0.930 . S
C292 C293 1.355 . S
C292 C294 1.415 . S
C293 C292 1.355 . S
C293 C295 1.419 . S
C294 C292 1.415 . S
C294 C299 1.425 . S
C294 C301 1.409 . S
C295 H287 0.930 . S
C295 C293 1.419 . S
C295 C296 1.362 . S
C296 H288 0.930 . S
C296 C295 1.362 . S
C296 C299 1.409 . S
C297 H289 0.930 . S
C297 C298 1.355 . S
C297 C299 1.415 . S
C298 C297 1.355 . S
C298 C300 1.419 . S
C299 C294 1.425 . S
C299 C296 1.409 . S
C299 C297 1.415 . S
C300 H290 0.930 . S
C300 C298 1.419 . S
C300 C301 1.362 . S
C301 H291 0.930 . S
C301 C294 1.409 . S
C301 C300 1.362 . S
H302 C308 0.930 . S
H303 C311 0.930 . S
H304 C312 0.930 . S
H305 C313 0.930 . S
H306 C316 0.930 . S
H307 C317 0.930 . S
C308 H302 0.930 . S
C308 C309 1.355 . S
C308 C310 1.415 . S
C309 C308 1.355 . S
C309 C311 1.419 . S
C310 C308 1.415 . S
C310 C315 1.425 . S
C310 C317 1.409 . S
C311 H303 0.930 . S
C311 C309 1.419 . S
C311 C312 1.362 . S
C312 H304 0.930 . S
C312 C311 1.362 . S
C312 C315 1.409 . S
C313 H305 0.930 . S
C313 C314 1.355 . S
C313 C315 1.415 . S
C314 C313 1.355 . S
C314 C316 1.419 . S
C315 C310 1.425 . S
C315 C312 1.409 . S
C315 C313 1.415 . S
C316 H306 0.930 . S
C316 C314 1.419 . S
C316 C317 1.362 . S
C317 H307 0.930 . S
C317 C310 1.409 . S
C317 C316 1.362 . S
H318 C324 0.930 . S
H319 C327 0.930 . S
H320 C328 0.930 . S
H321 C329 0.930 . S
H322 C332 0.930 . S
H323 C333 0.930 . S
C324 H318 0.930 . S
C324 C325 1.355 . S
C324 C326 1.415 . S
C325 C324 1.355 . S
C325 C327 1.419 . S
C326 C324 1.415 . S
C326 C331 1.425 . S
C326 C333 1.409 . S
C327 H319 0.930 . S
C327 C325 1.419 . S
C327 C328 1.362 . S
C328 H320 0.930 . S
C328 C327 1.362 . S
C328 C331 1.409 . S
C329 H321 0.930 . S
C329 C330 1.355 . S
C329 C331 1.415 . S
C330 C329 1.355 . S
C330 C332 1.419 . S
C331 C326 1.425 . S
C331 C328 1.409 . S
C331 C329 1.415 . S
C332 H322 0.930 . S
C332 C330 1.419 . S
C332 C333 1.362 . S
C333 H323 0.930 . S
C333 C326 1.409 . S
C333 C332 1.362 . S
H334 C340 0.930 . S
H335 C343 0.930 . S
H336 C344 0.930 . S
H337 C345 0.930 . S
H338 C348 0.930 . S
H339 C349 0.930 . S
C340 H334 0.930 . S
C340 C341 1.355 . S
C340 C342 1.415 . S
C341 C340 1.355 . S
C341 C343 1.419 . S
C342 C340 1.415 . S
C342 C347 1.425 . S
C342 C349 1.409 . S
C343 H335 0.930 . S
C343 C341 1.419 . S
C343 C344 1.362 . S
C344 H336 0.930 . S
C344 C343 1.362 . S
C344 C347 1.409 . S
C345 H337 0.930 . S
C345 C346 1.355 . S
C345 C347 1.415 . S
C346 C345 1.355 . S
C346 C348 1.419 . S
C347 C342 1.425 . S
C347 C344 1.409 . S
C347 C345 1.415 . S
C348 H338 0.930 . S
C348 C346 1.419 . S
C348 C349 1.362 . S
C349 H339 0.930 . S
C349 C342 1.409 . S
C349 C348 1.362 . S
H350 C356 0.930 . S
H351 C359 0.930 . S
H352 C360 0.930 . S
H353 C361 0.930 . S
H354 C364 0.930 . S
H355 C365 0.930 . S
C356 H350 0.930 . S
C356 C357 1.355 . S
C356 C358 1.415 . S
C357 C356 1.355 . S
C357 C359 1.419 . S
C358 C356 1.415 . S
C358 C363 1.425 . S
C358 C365 1.409 . S
C359 H351 0.930 . S
C359 C357 1.419 . S
C359 C360 1.362 . S
C360 H352 0.930 . S
C360 C359 1.362 . S
C360 C363 1.409 . S
C361 H353 0.930 . S
C361 C362 1.355 . S
C361 C363 1.415 . S
C362 C361 1.355 . S
C362 C364 1.419 . S
C363 C358 1.425 . S
C363 C360 1.409 . S
C363 C361 1.415 . S
C364 H354 0.930 . S
C364 C362 1.419 . S
C364 C365 1.362 . S
C365 H355 0.930 . S
C365 C358 1.409 . S
C365 C364 1.362 . S
H366 C372 0.930 . S
H367 C375 0.930 . S
H368 C376 0.930 . S
H369 C377 0.930 . S
H370 C380 0.930 1_655 S
H371 C381 0.930 1_655 S
C372 H366 0.930 . S
C372 C373 1.355 . S
C372 C374 1.415 . S
C373 C372 1.355 . S
C373 C375 1.419 . S
C374 C372 1.415 . S
C374 C379 1.425 . S
C374 C381 1.409 . S
C375 H367 0.930 . S
C375 C373 1.419 . S
C375 C376 1.362 . S
C376 H368 0.930 . S
C376 C375 1.362 . S
C376 C379 1.409 . S
C377 H369 0.930 . S
C377 C378 1.355 . S
C377 C379 1.415 1_556 S
C378 C377 1.355 . S
C378 C380 1.419 . S
C379 C374 1.425 . S
C379 C376 1.409 . S
C379 C377 1.415 1_554 S
C380 H370 0.930 1_455 S
C380 C378 1.419 . S
C380 C381 1.362 1_556 S
C381 H371 0.930 1_455 S
C381 C374 1.409 . S
C381 C380 1.362 1_554 S
H382 C388 0.930 . S
H383 C391 0.930 . S
H384 C392 0.930 . S
H385 C393 0.930 . S
H386 C396 0.930 . S
H387 C397 0.930 . S
C388 H382 0.930 . S
C388 C389 1.355 . S
C388 C390 1.415 . S
C389 C388 1.355 . S
C389 C391 1.419 . S
C390 C388 1.415 . S
C390 C395 1.425 . S
C390 C397 1.409 . S
C391 H383 0.930 . S
C391 C389 1.419 . S
C391 C392 1.362 . S
C392 H384 0.930 . S
C392 C391 1.362 . S
C392 C395 1.409 . S
C393 H385 0.930 . S
C393 C394 1.355 . S
C393 C395 1.415 . S
C394 C393 1.355 . S
C394 C396 1.419 . S
C395 C390 1.425 . S
C395 C392 1.409 . S
C395 C393 1.415 . S
C396 H386 0.930 . S
C396 C394 1.419 . S
C396 C397 1.362 . S
C397 H387 0.930 . S
C397 C390 1.409 . S
C397 C396 1.362 . S
H398 C404 0.930 . S
H399 C407 0.930 . S
H400 C408 0.930 . S
H401 C409 0.930 . S
H402 C412 0.930 . S
H403 C413 0.930 . S
C404 H398 0.930 . S
C404 C405 1.355 . S
C404 C406 1.415 . S
C405 C404 1.355 . S
C405 C407 1.419 . S
C406 C404 1.415 . S
C406 C411 1.425 . S
C406 C413 1.409 . S
C407 H399 0.930 . S
C407 C405 1.419 . S
C407 C408 1.362 . S
C408 H400 0.930 . S
C408 C407 1.362 . S
C408 C411 1.409 . S
C409 H401 0.930 . S
C409 C410 1.355 . S
C409 C411 1.415 . S
C410 C409 1.355 . S
C410 C412 1.419 . S
C411 C406 1.425 . S
C411 C408 1.409 . S
C411 C409 1.415 . S
C412 H402 0.930 . S
C412 C410 1.419 . S
C412 C413 1.362 . S
C413 H403 0.930 . S
C413 C406 1.409 . S
C413 C412 1.362 . S
H414 C420 0.930 . S
H415 C423 0.930 . S
H416 C424 0.930 . S
H417 C425 0.930 . S
H418 C428 0.930 . S
H419 C429 0.930 . S
C420 H414 0.930 . S
C420 C421 1.355 1_565 S
C420 C422 1.415 . S
C421 C420 1.355 1_545 S
C421 C423 1.419 . S
C422 C420 1.415 . S
C422 C427 1.425 1_565 S
C422 C429 1.409 . S
C423 H415 0.930 . S
C423 C421 1.419 . S
C423 C424 1.362 . S
C424 H416 0.930 . S
C424 C423 1.362 . S
C424 C427 1.409 . S
C425 H417 0.930 . S
C425 C426 1.355 1_545 S
C425 C427 1.415 . S
C426 C425 1.355 1_565 S
C426 C428 1.419 . S
C427 C422 1.425 1_545 S
C427 C424 1.409 . S
C427 C425 1.415 . S
C428 H418 0.930 . S
C428 C426 1.419 . S
C428 C429 1.362 . S
C429 H419 0.930 . S
C429 C422 1.409 . S
C429 C428 1.362 . S
H430 C436 0.930 . S
H431 C439 0.930 . S
H432 C440 0.930 . S
H433 C441 0.930 . S
H434 C444 0.930 . S
H435 C445 0.930 . S
C436 H430 0.930 . S
C436 C437 1.355 . S
C436 C438 1.415 . S
C437 C436 1.355 . S
C437 C439 1.419 . S
C438 C436 1.415 . S
C438 C443 1.425 . S
C438 C445 1.409 . S
C439 H431 0.930 . S
C439 C437 1.419 . S
C439 C440 1.362 . S
C440 H432 0.930 . S
C440 C439 1.362 . S
C440 C443 1.409 . S
C441 H433 0.930 . S
C441 C442 1.355 . S
C441 C443 1.415 1_554 S
C442 C441 1.355 . S
C442 C444 1.419 . S
C443 C438 1.425 . S
C443 C440 1.409 . S
C443 C441 1.415 1_556 S
C444 H434 0.930 . S
C444 C442 1.419 . S
C444 C445 1.362 1_554 S
C445 H435 0.930 . S
C445 C438 1.409 . S
C445 C444 1.362 1_556 S
H446 C452 0.930 1_655 S
H447 C455 0.930 . S
H448 C456 0.930 . S
H449 C457 0.930 . S
H450 C460 0.930 . S
H451 C461 0.930 . S
C452 H446 0.930 1_455 S
C452 C453 1.355 . S
C452 C454 1.415 . S
C453 C452 1.355 . S
C453 C455 1.419 . S
C454 C452 1.415 . S
C454 C459 1.425 . S
C454 C461 1.409 1_455 S
C455 H447 0.930 . S
C455 C453 1.419 . S
C455 C456 1.362 . S
C456 H448 0.930 . S
C456 C455 1.362 . S
C456 C459 1.409 . S
C457 H449 0.930 . S
C457 C458 1.355 1_455 S
C457 C459 1.415 . S
C458 C457 1.355 1_655 S
C458 C460 1.419 . S
C459 C454 1.425 . S
C459 C456 1.409 . S
C459 C457 1.415 . S
C460 H450 0.930 . S
C460 C458 1.419 . S
C460 C461 1.362 . S
C461 H451 0.930 . S
C461 C454 1.409 1_655 S
C461 C460 1.362 . S
C181 C25 0.605 . S
C186 C169 0.639 . S
C197 C65 0.656 . S
C202 C151 0.644 . S
C213 C105 0.682 . S
C218 C163 0.703 . S
C229 C4 0.844 . S
C234 C172 0.792 . S
C250 C154 0.724 . S
C245 C44 0.801 . S
C266 C160 0.755 . S
C261 C84 0.735 . S
C277 C60 2.895 . S
C282 C133 2.857 . S
C293 C100 2.991 . S
C298 C142 2.955 1_655 S
C309 C31 2.978 . S
C314 C124 2.957 . S
C330 C136 2.956 . S
C325 C71 2.988 . S
C346 C145 2.897 . S
C341 C111 2.871 . S
C357 C20 2.902 . S
C362 C127 2.859 . S
C378 C143 1.826 . S
C373 C2 1.766 . S
C389 C42 1.777 . S
C394 C125 1.816 . S
C405 C82 1.732 . S
C410 C134 1.825 . S
C426 C161 0.971 . S
C421 C63 0.922 . S
C442 C170 1.014 . S
C437 C103 0.976 . S
C453 C23 0.898 . S
C458 C152 0.960 1_655 S
