# Generated by pormake.
# Topology zzz, (3,6)-cn, num edge types: 1
# Building blocks:
#     Node 0, Type 0, BuildingBlock: BELTOD_clean_linker_0, # of connection points: 3
#     Node 1, Type 0, BuildingBlock: BELTOD_clean_linker_0, # of connection points: 3
#     Node 2, Type 0, BuildingBlock: BELTOD_clean_linker_0, # of connection points: 3
#     Node 3, Type 0, BuildingBlock: BELTOD_clean_linker_0, # of connection points: 3
#     Node 4, Type 0, BuildingBlock: BELTOD_clean_linker_0, # of connection points: 3
#     Node 5, Type 0, BuildingBlock: BELTOD_clean_linker_0, # of connection points: 3
#     Node 6, Type 0, BuildingBlock: BELTOD_clean_linker_0, # of connection points: 3
#     Node 7, Type 0, BuildingBlock: BELTOD_clean_linker_0, # of connection points: 3
#     Node 8, Type 1, BuildingBlock: BETGAK_clean_sbu_0, # of connection points: 6
#     Node 9, Type 1, BuildingBlock: BETGAK_clean_sbu_0, # of connection points: 6
#     Node 10, Type 1, BuildingBlock: BETGAK_clean_sbu_0, # of connection points: 6
#     Node 11, Type 1, BuildingBlock: BETGAK_clean_sbu_0, # of connection points: 6
#     Edge 12, Type (0, 1), BuildingBlock: XIVTED_clean_linker_0, # of connection points: 2
#     Edge 13, Type (0, 1), BuildingBlock: XIVTED_clean_linker_0, # of connection points: 2
#     Edge 14, Type (0, 1), BuildingBlock: XIVTED_clean_linker_0, # of connection points: 2
#     Edge 15, Type (0, 1), BuildingBlock: XIVTED_clean_linker_0, # of connection points: 2
#     Edge 16, Type (0, 1), BuildingBlock: XIVTED_clean_linker_0, # of connection points: 2
#     Edge 17, Type (0, 1), BuildingBlock: XIVTED_clean_linker_0, # of connection points: 2
#     Edge 18, Type (0, 1), BuildingBlock: XIVTED_clean_linker_0, # of connection points: 2
#     Edge 19, Type (0, 1), BuildingBlock: XIVTED_clean_linker_0, # of connection points: 2
#     Edge 20, Type (0, 1), BuildingBlock: XIVTED_clean_linker_0, # of connection points: 2
#     Edge 21, Type (0, 1), BuildingBlock: XIVTED_clean_linker_0, # of connection points: 2
#     Edge 22, Type (0, 1), BuildingBlock: XIVTED_clean_linker_0, # of connection points: 2
#     Edge 23, Type (0, 1), BuildingBlock: XIVTED_clean_linker_0, # of connection points: 2
#     Edge 24, Type (0, 1), BuildingBlock: XIVTED_clean_linker_0, # of connection points: 2
#     Edge 25, Type (0, 1), BuildingBlock: XIVTED_clean_linker_0, # of connection points: 2
#     Edge 26, Type (0, 1), BuildingBlock: XIVTED_clean_linker_0, # of connection points: 2
#     Edge 27, Type (0, 1), BuildingBlock: XIVTED_clean_linker_0, # of connection points: 2
#     Edge 28, Type (0, 1), BuildingBlock: XIVTED_clean_linker_0, # of connection points: 2
#     Edge 29, Type (0, 1), BuildingBlock: XIVTED_clean_linker_0, # of connection points: 2
#     Edge 30, Type (0, 1), BuildingBlock: XIVTED_clean_linker_0, # of connection points: 2
#     Edge 31, Type (0, 1), BuildingBlock: XIVTED_clean_linker_0, # of connection points: 2
#     Edge 32, Type (0, 1), BuildingBlock: XIVTED_clean_linker_0, # of connection points: 2
#     Edge 33, Type (0, 1), BuildingBlock: XIVTED_clean_linker_0, # of connection points: 2
#     Edge 34, Type (0, 1), BuildingBlock: XIVTED_clean_linker_0, # of connection points: 2
#     Edge 35, Type (0, 1), BuildingBlock: XIVTED_clean_linker_0, # of connection points: 2
# Relax obj value: 0.441
# Max RMSD: 0.255
# Mean RMSD: 0.244
data_MOF--net-zzz--node1-BETGAK_clean_sbu_0--node2-BELTOD_clean_linker_0--edge1-XIVTED_clean_linker_0
_symmetry_space_group_name_H-M    P1
_symmetry_Int_Tables_number       1
_symmetry_cell_setting            triclinic
loop_
_symmetry_equiv_pos_as_xyz
'x, y, z'
_cell_length_a     56.407265
_cell_length_b     56.31673
_cell_length_c     17.233139
_cell_angle_alpha  89.725647
_cell_angle_beta   89.900472
_cell_angle_gamma 90.000877
loop_
_atom_site_label
_atom_site_type_symbol
_atom_site_fract_x
_atom_site_fract_y
_atom_site_fract_z
_atom_type_partial_charge
P0 P 0.72456 0.46975 0.3592 0.0
H1 H 0.74222 0.47574 0.51765 0.0
H2 H 0.78091 0.4872 0.56568 0.0
H3 H 0.79982 0.51292 0.33693 0.0
H4 H 0.76157 0.4997 0.2883 0.0
H5 H 0.6741 0.46067 0.34755 0.0
H6 H 0.64396 0.47419 0.25749 0.0
H7 H 0.69313 0.52563 0.16282 0.0
H8 H 0.72355 0.51146 0.25273 0.0
H9 H 0.76591 0.43961 0.37666 0.0
H10 H 0.71451 0.45454 0.19771 0.0
O11 O 0.7123 0.45378 0.43058 0.0
H12 H 0.79063 0.41919 0.28307 0.0
H13 H 0.73861 0.43307 0.10424 0.0
C14 C 0.74862 0.48713 0.39934 0.0
C15 C 0.75435 0.48453 0.47814 0.0
C16 C 0.77672 0.49114 0.50575 0.0
C17 C 0.79396 0.50073 0.45526 0.0
C18 C 0.78739 0.50508 0.37753 0.0
C19 C 0.76511 0.49811 0.34978 0.0
C20 C 0.7011 0.48524 0.30821 0.0
C21 C 0.67827 0.47539 0.30928 0.0
C22 C 0.66093 0.48319 0.25727 0.0
C23 C 0.66599 0.50102 0.20222 0.0
C24 C 0.68863 0.51165 0.20358 0.0
C25 C 0.70604 0.50376 0.25584 0.0
C26 C 0.73878 0.44934 0.29386 0.0
C27 C 0.75962 0.43794 0.31758 0.0
C28 C 0.77366 0.42598 0.26382 0.0
C29 C 0.76688 0.42481 0.18534 0.0
C30 C 0.74472 0.4342 0.16364 0.0
C31 C 0.73084 0.44648 0.21738 0.0
P32 P 0.04491 0.71283 0.37685 0.0
H33 H 0.04053 0.7312 0.53443 0.0
H34 H 0.02824 0.7696 0.58259 0.0
H35 H 0.99919 0.78691 0.35726 0.0
H36 H 0.01285 0.74867 0.30835 0.0
H37 H 0.06137 0.66617 0.33637 0.0
H38 H 0.04774 0.63618 0.24637 0.0
H39 H 0.98507 0.67799 0.19944 0.0
H40 H 0.99924 0.70839 0.28994 0.0
H41 H 0.09094 0.73485 0.40544 0.0
H42 H 0.04328 0.72557 0.21265 0.0
O43 O 0.06012 0.69978 0.44832 0.0
H44 H 0.11449 0.7628 0.32846 0.0
H45 H 0.06602 0.75387 0.13659 0.0
C46 C 0.02737 0.73667 0.41779 0.0
C47 C 0.03083 0.74285 0.49574 0.0
C48 C 0.02374 0.76507 0.52346 0.0
C49 C 0.01288 0.7818 0.47393 0.0
C50 C 0.00793 0.77485 0.39706 0.0
C51 C 0.01528 0.75264 0.3692 0.0
C52 C 0.03119 0.68941 0.32114 0.0
C53 C 0.04438 0.66869 0.30832 0.0
C54 C 0.03649 0.65144 0.25658 0.0
C55 C 0.01518 0.65446 0.21549 0.0
C56 C 1.00165 0.6751 0.22956 0.0
C57 C 0.00962 0.69245 0.28187 0.0
C58 C 0.06556 0.72791 0.31442 0.0
C59 C 0.08597 0.73826 0.34576 0.0
C60 C 0.09929 0.7544 0.30188 0.0
C61 C 0.0921 0.76075 0.22641 0.0
C62 C 0.07241 0.74916 0.19384 0.0
C63 C 0.05924 0.73296 0.23757 0.0
P64 P 0.79077 0.03222 0.36946 0.0
H65 H 0.77785 0.01492 0.52496 0.0
H66 H 0.73984 1.0021 0.57813 0.0
H67 H 0.71115 0.99869 0.346 0.0
H68 H 0.74955 0.01052 0.2934 0.0
H69 H 0.84113 0.04184 0.35856 0.0
H70 H 0.87177 0.02884 0.26968 0.0
H71 H 0.82302 0.97815 0.17035 0.0
H72 H 0.79194 0.99211 0.25886 0.0
H73 H 0.75058 0.06337 0.39352 0.0
H74 H 0.80067 0.04965 0.20963 0.0
O75 O 0.80266 0.04645 0.44469 0.0
H76 H 0.72555 0.085 0.30356 0.0
H77 H 0.77645 0.07255 0.11992 0.0
C78 C 0.76658 0.01393 0.40513 0.0
C79 C 0.76366 0.01059 0.48526 0.0
C80 C 0.74168 1.00361 0.51575 0.0
C81 C 0.72202 1.00003 0.46679 0.0
C82 C 0.72571 1.00125 0.38592 0.0
C83 C 0.74781 0.00796 0.35549 0.0
C84 C 0.81434 0.01759 0.31681 0.0
C85 C 0.83715 0.02743 0.3193 0.0
C86 C 0.85479 0.01991 0.26801 0.0
C87 C 0.85009 1.00232 0.21234 0.0
C88 C 0.82732 0.9919 0.21167 0.0
C89 C 0.80957 0.99959 0.26309 0.0
C90 C 0.77705 0.05419 0.30793 0.0
C91 C 0.75659 0.0657 0.33422 0.0
C92 C 0.74235 0.07834 0.28245 0.0
C93 C 0.74861 0.08014 0.20347 0.0
C94 C 0.77062 0.07087 0.17959 0.0
C95 C 0.78463 0.05781 0.23123 0.0
P96 P 0.47017 0.787 0.35963 0.0
H97 H 0.47552 0.76926 0.51825 0.0
H98 H 0.48822 0.73115 0.56852 0.0
H99 H 0.51608 0.71296 0.34253 0.0
H100 H 0.50187 0.75084 0.29154 0.0
H101 H 0.45485 0.83479 0.32678 0.0
H102 H 0.46759 0.86508 0.23535 0.0
H103 H 0.52682 0.82108 0.16788 0.0
H104 H 0.5137 0.79046 0.26049 0.0
H105 H 0.42455 0.76473 0.39361 0.0
H106 H 0.47063 0.7739 0.19584 0.0
O107 O 0.45528 0.8001 0.43151 0.0
H108 H 0.40089 0.73611 0.32093 0.0
H109 H 0.44777 0.74499 0.12406 0.0
C110 C 0.48799 0.76333 0.40106 0.0
C111 C 0.48502 0.75747 0.47974 0.0
C112 C 0.49236 0.7354 0.50872 0.0
C113 C 0.50303 0.7185 0.4598 0.0
C114 C 0.50749 0.72513 0.38201 0.0
C115 C 0.49984 0.74717 0.35288 0.0
C116 C 0.48352 0.81045 0.30195 0.0
C117 C 0.47097 0.83181 0.29401 0.0
C118 C 0.47831 0.84923 0.24134 0.0
C119 C 0.49836 0.84571 0.19418 0.0
C120 C 0.51123 0.82438 0.20295 0.0
C121 C 0.50388 0.8069 0.25646 0.0
C122 C 0.44918 0.77166 0.29985 0.0
C123 C 0.42913 0.76117 0.33373 0.0
C124 C 0.41573 0.74466 0.2923 0.0
C125 C 0.42249 0.73807 0.21676 0.0
C126 C 0.44172 0.74986 0.18148 0.0
C127 C 0.45497 0.76642 0.22278 0.0
P128 P 0.27246 0.46612 0.16877 0.0
H129 H 0.25639 0.44392 0.02461 0.0
H130 H 0.22417 0.45508 0.93681 0.0
H131 H 0.2224 0.52494 0.03824 0.0
H132 H 0.25475 0.51394 0.12461 0.0
H133 H 0.30206 0.43223 0.2478 0.0
H134 H 0.34103 0.43538 0.30267 0.0
H135 H 0.35294 0.5002 0.17259 0.0
H136 H 0.31269 0.49715 0.11926 0.0
H137 H 0.23542 0.45867 0.28558 0.0
H138 H 0.28808 0.51188 0.23173 0.0
O139 O 0.262 0.43859 0.18057 0.0
H140 H 0.22023 0.48358 0.38984 0.0
H141 H 0.27302 0.53676 0.33613 0.0
C142 C 0.25784 0.47783 0.08285 0.0
C143 C 0.24981 0.46198 0.02588 0.0
C144 C 0.23123 0.46835 0.97574 0.0
C145 C 0.22026 0.49071 0.98193 0.0
C146 C 0.23011 0.50739 0.03317 0.0
C147 C 0.24883 0.50109 0.08255 0.0
C148 C 0.30435 0.4643 0.1785 0.0
C149 C 0.31327 0.44667 0.22816 0.0
C150 C 0.33588 0.44855 0.26004 0.0
C151 C 0.35046 0.4682 0.24319 0.0
C152 C 0.34218 0.48501 0.18839 0.0
C153 C 0.31928 0.4831 0.15653 0.0
C154 C 0.26301 0.48327 0.2511 0.0
C155 C 0.24407 0.47543 0.29715 0.0
C156 C 0.23553 0.48962 0.3572 0.0
C157 C 0.24562 0.51202 0.37145 0.0
C158 C 0.26501 0.51954 0.3266 0.0
C159 C 0.27367 0.50524 0.26707 0.0
P160 P 0.04216 0.27386 0.11813 0.0
H161 H 0.06014 0.25742 0.96804 0.0
H162 H 0.05027 0.22199 0.8933 0.0
H163 H 0.98629 0.21332 0.02809 0.0
H164 H 0.99607 0.24869 0.10196 0.0
H165 H 0.07882 0.30947 0.14194 0.0
H166 H 0.07615 0.3483 0.20038 0.0
H167 H 1.00042 0.3484 0.16402 0.0
H168 H 1.00364 0.31003 0.09797 0.0
H169 H 0.05914 0.24207 0.24127 0.0
H170 H 0.99688 0.28454 0.19689 0.0
O171 O 0.07077 0.26621 0.11968 0.0
H172 H 0.04057 0.22651 0.35857 0.0
H173 H 0.97889 0.27008 0.31542 0.0
C174 C 0.02918 0.25572 0.04208 0.0
C175 C 0.04349 0.24851 0.97961 0.0
C176 C 0.03788 0.22805 0.93698 0.0
C177 C 0.01781 0.21433 0.95608 0.0
C178 C 1.00222 0.22307 0.01313 0.0
C179 C 0.00776 0.24358 0.05524 0.0
C180 C 0.04125 0.30612 0.11829 0.0
C181 C 0.06168 0.31811 0.14298 0.0
C182 C 0.06008 0.34033 0.17812 0.0
C183 C 0.03789 0.35098 0.19132 0.0
C184 C 0.0178 0.34055 0.1567 0.0
C185 C 0.01959 0.31845 0.11919 0.0
C186 C 0.02967 0.2648 0.21013 0.0
C187 C 0.04183 0.24865 0.25762 0.0
C188 C 0.03126 0.23996 0.32537 0.0
C189 C 0.00827 0.2472 0.34659 0.0
C190 C 0.9966 0.26416 0.30069 0.0
C191 C 0.0071 0.2727 0.23289 0.0
P192 P 0.21969 0.04529 0.04419 0.0
H193 H 0.2363 0.04092 0.88324 0.0
H194 H 0.27483 0.02985 0.83115 0.0
H195 H 0.29467 1.00132 0.05498 0.0
H196 H 0.25655 0.01352 0.10741 0.0
H197 H 0.16783 0.04787 0.04352 0.0
H198 H 0.13819 0.03612 0.13929 0.0
H199 H 0.19181 0.99788 0.26737 0.0
H200 H 0.22144 0.00981 0.17152 0.0
H201 H 0.26329 0.07255 0.02596 0.0
H202 H 0.21055 0.06239 0.2047 0.0
O203 O 0.20664 0.06191 0.97616 0.0
H204 H 0.29191 0.08434 0.12288 0.0
H205 H 0.23898 0.07498 0.30225 0.0
C206 C 0.24308 0.0278 0.99934 0.0
C207 C 0.24853 0.03149 0.92062 0.0
C208 C 0.2708 0.02518 0.89074 0.0
C209 C 0.28826 0.01502 0.93893 0.0
C210 C 0.28199 0.00957 0.01622 0.0
C211 C 0.25976 0.01599 0.04607 0.0
C212 C 0.19702 0.0296 0.09929 0.0
C213 C 0.17316 0.03625 0.09056 0.0
C214 C 0.15612 0.02955 0.14577 0.0
C215 C 0.16261 0.01629 0.21177 0.0
C216 C 0.18623 0.00836 0.21781 0.0
C217 C 0.20321 0.01488 0.16207 0.0
C218 C 0.23538 0.06489 0.1087 0.0
C219 C 0.25757 0.07368 0.08585 0.0
C220 C 0.27395 0.08072 0.14169 0.0
C221 C 0.26807 0.07951 0.22101 0.0
C222 C 0.24435 0.07507 0.24187 0.0
C223 C 0.22807 0.06773 0.18593 0.0
P224 P 0.46321 0.21849 0.02745 0.0
H225 H 0.47399 0.23414 0.86931 0.0
H226 H 0.48776 0.27248 0.82303 0.0
H227 H 0.51151 0.28965 0.05427 0.0
H228 H 0.49711 0.25116 0.10056 0.0
H229 H 0.43642 0.18012 0.09397 0.0
H230 H 0.44437 0.15074 0.19486 0.0
H231 H 0.51644 0.1759 0.21192 0.0
H232 H 0.50821 0.20578 0.11007 0.0
H233 H 0.42881 0.253 0.97204 0.0
H234 H 0.45679 0.22948 0.19215 0.0
O235 O 0.44834 0.20603 0.95455 0.0
H236 H 0.41649 0.29037 0.03117 0.0
H237 H 0.44467 0.26642 0.25101 0.0
C238 C 0.48461 0.23945 0.98856 0.0
C239 C 0.48317 0.24558 0.90963 0.0
C240 C 0.49095 0.26782 0.88312 0.0
C241 C 0.50036 0.28459 0.93501 0.0
C242 C 0.50389 0.27748 0.01273 0.0
C243 C 0.49615 0.25515 0.03911 0.0
C244 C 0.47174 0.19504 0.09398 0.0
C245 C 0.45408 0.17915 0.11843 0.0
C246 C 0.45858 0.16246 0.17664 0.0
C247 C 0.48097 0.16109 0.21185 0.0
C248 C 0.49903 0.17648 0.18558 0.0
C249 C 0.49437 0.19355 0.12747 0.0
C250 C 0.4437 0.23842 0.07755 0.0
C251 C 0.43111 0.25528 0.03395 0.0
C252 C 0.42431 0.27675 0.06759 0.0
C253 C 0.43001 0.28152 0.14533 0.0
C254 C 0.43986 0.2633 0.1911 0.0
C255 C 0.44681 0.24198 0.1573 0.0
La256 La 0.02305 0.99146 0.78289 0.0
La257 La 0.99208 1.00404 0.65512 0.0
C258 C 0.04261 0.97373 0.9011 0.0
C259 C 0.05692 0.95268 0.92003 0.0
C260 C 0.07627 0.95504 0.97026 0.0
C261 C 0.08933 0.93511 0.99282 0.0
C262 C 0.08314 0.91241 0.96582 0.0
C263 C 0.06425 0.91029 0.913 0.0
C264 C 0.05131 0.93025 0.89012 0.0
C265 C 0.04616 1.00503 0.65585 0.0
C266 C 0.00507 0.95081 0.66577 0.0
C267 C 0.97237 0.0253 0.54445 0.0
C268 C 0.96928 0.05111 0.53368 0.0
C269 C 0.94689 0.06153 0.54507 0.0
C270 C 0.94461 0.0862 0.55005 0.0
C271 C 0.96472 0.10078 0.54383 0.0
C272 C 0.98684 0.09039 0.52827 0.0
C273 C 0.98913 0.06586 0.5233 0.0
C274 C 0.96944 0.98952 0.78129 0.0
C275 C 0.00996 0.0444 0.76988 0.0
O276 O 0.05272 0.98945 0.85607 0.0
O277 O 0.0204 0.97012 0.88256 0.0
O278 O 0.05267 0.00969 0.72596 0.0
O279 O 0.02793 0.99216 0.65885 0.0
O280 O 0.01411 0.95612 0.73471 0.0
O281 O 0.99738 0.96764 0.6185 0.0
O282 O 0.96072 0.01621 0.60302 0.0
O283 O 0.99414 0.01726 0.54122 0.0
O284 O 0.96354 0.98409 0.71103 0.0
O285 O 0.98719 1.00314 0.77899 0.0
O286 O 1.00427 0.03904 0.69761 0.0
O287 O 0.01424 0.02725 0.82027 0.0
H288 H 0.08102 0.97228 0.99325 0.0
H289 H 0.10397 0.93743 0.03262 0.0
H290 H 0.05875 0.89307 0.89183 0.0
H291 H 0.03656 0.92803 0.85075 0.0
H292 H 0.93131 0.05054 0.55336 0.0
H293 H 0.9273 0.09381 0.5611 0.0
H294 H 1.00254 0.10125 0.52068 0.0
H295 H 0.00665 0.05851 0.51424 0.0
La296 La 0.5123 0.01776 0.77263 0.0
La297 La 0.49806 0.98978 0.63644 0.0
C298 C 0.53189 0.0337 0.89261 0.0
C299 C 0.55485 0.04511 0.90913 0.0
C300 C 0.5553 0.06816 0.93964 0.0
C301 C 0.57688 0.07934 0.95534 0.0
C302 C 0.59845 0.06758 0.94131 0.0
C303 C 0.5979 0.04454 0.91005 0.0
C304 C 0.57636 0.03346 0.89393 0.0
C305 C 0.49989 0.04349 0.65044 0.0
C306 C 0.55228 0.99811 0.65473 0.0
C307 C 0.47748 0.9781 0.5133 0.0
C308 C 0.45411 0.98531 0.4832 0.0
C309 C 0.43353 0.98218 0.52813 0.0
C310 C 0.41242 0.99333 0.50698 0.0
C311 C 0.4114 0.0078 0.44038 0.0
C312 C 0.43164 0.00972 0.39296 0.0
C313 C 0.45279 0.99858 0.41424 0.0
C314 C 0.51068 0.96376 0.75737 0.0
C315 C 0.45891 0.00806 0.75673 0.0
O316 O 0.51727 0.04607 0.84972 0.0
O317 O 0.53232 0.01126 0.87289 0.0
O318 O 0.49543 0.04923 0.72156 0.0
O319 O 0.51187 0.02465 0.65024 0.0
O320 O 0.54706 0.00856 0.72155 0.0
O321 O 0.53554 0.99018 0.60804 0.0
O322 O 0.47767 0.96477 0.57583 0.0
O323 O 0.49295 0.99536 0.51732 0.0
O324 O 0.51435 0.95781 0.68564 0.0
O325 O 0.49884 0.98275 0.75868 0.0
O326 O 0.46405 1.00358 0.68305 0.0
O327 O 0.47608 0.01049 0.80795 0.0
H328 H 0.53892 0.07754 0.95144 0.0
H329 H 0.57663 0.09716 0.97863 0.0
H330 H 0.61411 0.03472 0.89994 0.0
H331 H 0.57663 0.01568 0.87026 0.0
H332 H 0.43396 0.97211 0.58181 0.0
H333 H 0.39723 0.9915 0.54505 0.0
H334 H 0.4313 0.02022 0.34017 0.0
H335 H 0.46843 1.00122 0.37861 0.0
La336 La 0.49649 0.50917 0.77911 0.0
La337 La 0.5247 0.49585 0.64071 0.0
C338 C 0.47988 0.52638 0.90232 0.0
C339 C 0.46521 0.5469 0.92382 0.0
C340 C 0.4468 0.54381 0.97766 0.0
C341 C 0.43301 0.56312 1.00076 0.0
C342 C 0.4375 0.58595 0.9707 0.0
C343 C 0.45554 0.58882 0.91489 0.0
C344 C 0.46921 0.56946 0.89146 0.0
C345 C 0.47108 0.49609 0.65731 0.0
C346 C 0.514 0.54995 0.66044 0.0
C347 C 0.53557 0.4765 0.51428 0.0
C348 C 0.5223 0.4581 0.4729 0.0
C349 C 0.53177 0.44662 0.40799 0.0
C350 C 0.51827 0.4296 0.36874 0.0
C351 C 0.49511 0.42401 0.39389 0.0
C352 C 0.48578 0.43582 0.45866 0.0
C353 C 0.49932 0.4525 0.49794 0.0
C354 C 0.55072 0.509 0.76042 0.0
C355 C 0.50753 0.45625 0.76024 0.0
O356 O 0.46917 0.51004 0.86181 0.0
O357 O 0.50133 0.53078 0.87663 0.0
O358 O 0.46518 0.49177 0.72844 0.0
O359 O 0.48956 0.50844 0.65705 0.0
O360 O 0.50432 0.5445 0.72857 0.0
O361 O 0.52215 0.53341 0.61328 0.0
O362 O 0.54458 0.47005 0.58104 0.0
O363 O 0.5244 0.49675 0.51922 0.0
O364 O 0.55695 0.5118 0.68839 0.0
O365 O 0.53189 0.49701 0.76261 0.0
O366 O 0.51038 0.46181 0.68598 0.0
O367 O 0.50612 0.47325 0.81241 0.0
H368 H 0.44327 0.52645 1.00255 0.0
H369 H 0.41905 0.56022 0.04297 0.0
H370 H 0.45975 0.60618 0.89133 0.0
H371 H 0.48317 0.57224 0.84924 0.0
H372 H 0.5495 0.45078 0.38786 0.0
H373 H 0.52607 0.42059 0.31955 0.0
H374 H 0.46792 0.43233 0.47884 0.0
H375 H 0.49174 0.46121 0.54778 0.0
La376 La 1.00363 0.48657 0.75887 0.0
La377 La 0.01507 0.52135 0.6421 0.0
C378 C 0.98527 0.4621 0.86615 0.0
C379 C 0.96159 0.4522 0.8817 0.0
C380 C 0.95942 0.42841 0.90502 0.0
C381 C 0.9371 0.41867 0.92033 0.0
C382 C 0.91654 0.43262 0.91283 0.0
C383 C 0.91882 0.45639 0.88818 0.0
C384 C 0.9411 0.46605 0.87255 0.0
C385 C 0.01995 0.46802 0.62836 0.0
C386 C 0.96305 0.50553 0.64554 0.0
C387 C 0.03446 0.54625 0.53848 0.0
C388 C 0.05695 0.55918 0.54176 0.0
C389 C 0.06718 0.56422 0.61409 0.0
C390 C 0.09066 0.57183 0.61854 0.0
C391 C 0.10425 0.57447 0.55071 0.0
C392 C 0.09329 0.57123 0.4781 0.0
C393 C 0.0698 0.56353 0.47374 0.0
C394 C 0.99985 0.54007 0.77428 0.0
C395 C 0.05595 0.50247 0.75631 0.0
O396 O 0.99652 0.45298 0.80718 0.0
O397 O 0.98735 0.48523 0.86835 0.0
O398 O 0.02564 0.46097 0.69736 0.0
O399 O 0.00529 0.48485 0.6336 0.0
O400 O 0.9683 0.49724 0.71546 0.0
O401 O 0.98006 0.51275 0.59843 0.0
O402 O 0.01778 0.55412 0.58423 0.0
O403 O 0.03655 0.52315 0.54261 0.0
O404 O 0.99444 0.54778 0.70588 0.0
O405 O 0.01389 0.52286 0.76683 0.0
O406 O 0.05065 0.51189 0.68787 0.0
O407 O 0.03905 0.49392 0.80142 0.0
H408 H 0.97503 0.41738 0.9117 0.0
H409 H 0.93598 0.40026 0.93833 0.0
H410 H 0.90345 0.46781 0.88313 0.0
H411 H 0.94227 0.48444 0.85434 0.0
H412 H 0.05748 0.56092 0.6674 0.0
H413 H 0.09859 0.57431 0.67515 0.0
H414 H 0.10338 0.57277 0.42478 0.0
H415 H 0.06218 0.55957 0.41758 0.0
H416 H 0.17091 0.02074 0.36758 0.0
H417 H 0.03813 0.99117 0.50516 0.0
H418 H 0.11502 1.00464 0.20557 0.0
H419 H 0.09098 0.02314 0.65187 0.0
H420 H 0.0662 0.99303 0.39584 0.0
H421 H 0.14239 0.01787 0.47387 0.0
C422 C 0.15269 0.01627 0.35431 0.0
C423 C 0.14546 0.01283 0.2772 0.0
C424 C 0.0716 0.9997 0.45192 0.0
C425 C 0.11241 0.00986 0.39942 0.0
C426 C 0.05558 0.99868 0.51425 0.0
C427 C 0.06222 0.00702 0.58775 0.0
C428 C 0.09452 0.00889 0.46341 0.0
C429 C 0.08508 0.0165 0.5963 0.0
C430 C 0.13632 0.01488 0.41515 0.0
C431 C 0.12141 0.00758 0.26393 0.0
N432 N 0.10039 0.01705 0.5352 0.0
N433 N 0.10578 0.00621 0.32431 0.0
H434 H 0.45289 0.15498 0.33931 0.0
H435 H 0.52099 0.04117 0.50662 0.0
H436 H 0.51719 0.12879 0.2347 0.0
H437 H 0.47247 0.08322 0.64213 0.0
H438 H 0.51727 0.07002 0.39959 0.0
H439 H 0.4574 0.12604 0.44432 0.0
C440 C 0.468 0.1431 0.33849 0.0
C441 C 0.48466 0.14428 0.27794 0.0
C442 C 0.50746 0.0729 0.45277 0.0
C443 C 0.48987 0.11083 0.39825 0.0
C444 C 0.50945 0.05639 0.51364 0.0
C445 C 0.49704 0.05986 0.5834 0.0
C446 C 0.49266 0.09282 0.46137 0.0
C447 C 0.48241 0.07991 0.58947 0.0
C448 C 0.4706 0.12662 0.39864 0.0
C449 C 0.50401 0.12857 0.28042 0.0
N450 N 0.48057 0.09554 0.52932 0.0
N451 N 0.50599 0.11235 0.33922 0.0
H452 H 0.38128 0.43465 0.30405 0.0
H453 H 0.46909 0.52157 0.52182 0.0
H454 H 0.37076 0.51059 0.28984 0.0
H455 H 0.43874 0.46067 0.63732 0.0
H456 H 0.44241 0.51477 0.41101 0.0
H457 H 0.41231 0.4411 0.40041 0.0
C458 C 0.38544 0.4527 0.32047 0.0
C459 C 0.37267 0.47206 0.28951 0.0
C460 C 0.44176 0.50288 0.46056 0.0
C461 C 0.40905 0.47941 0.39809 0.0
C462 C 0.45692 0.5067 0.52356 0.0
C463 C 0.45583 0.4918 0.58903 0.0
C464 C 0.42604 0.48357 0.46216 0.0
C465 C 0.43987 0.47272 0.58831 0.0
C466 C 0.40329 0.45628 0.37532 0.0
C467 C 0.37991 0.49503 0.31136 0.0
N468 N 0.42571 0.46902 0.52561 0.0
N469 N 0.39753 0.49805 0.36449 0.0
H470 H 0.00767 0.39021 0.19152 0.0
H471 H 0.05139 0.43202 0.61273 0.0
H472 H 0.06261 0.35626 0.32636 0.0
H473 H 0.99776 0.47023 0.48533 0.0
H474 H 0.05636 0.40533 0.50323 0.0
H475 H 1.00391 0.42048 0.29353 0.0
C476 C 0.01904 0.38914 0.24198 0.0
C477 C 0.03573 0.37067 0.24926 0.0
C478 C 0.04354 0.41957 0.49855 0.0
C479 C 0.03147 0.40527 0.3663 0.0
C480 C 0.04073 0.43487 0.56129 0.0
C481 C 0.02409 0.45332 0.55835 0.0
C482 C 0.02949 0.42248 0.43184 0.0
C483 C 0.01082 0.45621 0.48993 0.0
C484 C 0.01692 0.40649 0.30009 0.0
C485 C 0.04993 0.37034 0.31635 0.0
N486 N 0.01367 0.44084 0.42948 0.0
N487 N 0.04742 0.38722 0.37172 0.0
H488 H 0.8988 1.00028 0.22862 0.0
H489 H 0.92449 0.9716 0.78158 0.0
H490 H 0.84357 0.99082 0.05825 0.0
H491 H 0.97644 1.0034 0.93216 0.0
H492 H 0.89587 0.9718 0.88849 0.0
H493 H 0.92844 0.99498 0.12658 0.0
C494 C 0.8928 0.99706 0.16997 0.0
C495 C 0.86844 0.99631 0.15245 0.0
C496 C 0.91356 0.97861 0.89834 0.0
C497 C 0.90258 0.98972 0.03519 0.0
C498 C 0.92995 0.97843 0.83742 0.0
C499 C 0.95284 0.98765 0.84787 0.0
C500 C 0.92013 0.98785 0.97075 0.0
C501 C 0.95894 0.99622 0.92155 0.0
C502 C 0.90982 0.99394 0.11175 0.0
C503 C 0.862 0.99137 0.07532 0.0
N504 N 0.94267 0.99616 0.98016 0.0
N505 N 0.87892 0.98836 0.01974 0.0
H506 H 0.49678 0.89441 0.20528 0.0
H507 H 0.52699 0.91799 0.75629 0.0
H508 H 0.51405 0.83851 0.04436 0.0
H509 H 0.49871 0.97131 0.90945 0.0
H510 H 0.52723 0.88959 0.86453 0.0
H511 H 0.50234 0.92355 0.10148 0.0
C512 C 0.50183 0.88821 0.14819 0.0
C513 C 0.50466 0.86382 0.13369 0.0
C514 C 0.5211 0.90753 0.87464 0.0
C515 C 0.51127 0.89736 0.01404 0.0
C516 C 0.521 0.92377 0.81289 0.0
C517 C 0.51268 0.94702 0.82378 0.0
C518 C 0.51292 0.91458 0.9481 0.0
C519 C 0.50519 0.95355 0.89839 0.0
C520 C 0.50506 0.90493 0.08889 0.0
C521 C 0.51177 0.85705 0.0587 0.0
N522 N 0.50541 0.93742 0.95754 0.0
N523 N 0.51465 0.87368 1.00169 0.0
H524 H 0.61723 0.50347 0.21376 0.0
H525 H 0.59664 0.52455 0.75821 0.0
H526 H 0.67424 0.51162 0.04823 0.0
H527 H 0.54204 0.49967 0.91401 0.0
H528 H 0.62437 0.52606 0.8674 0.0
H529 H 0.58869 0.50811 0.10823 0.0
C530 C 0.62382 0.50632 0.15541 0.0
C531 C 0.64833 0.50688 0.14025 0.0
C532 C 0.60629 0.5204 0.87783 0.0
C533 C 0.61553 0.51253 0.01882 0.0
C534 C 0.59044 0.51959 0.81556 0.0
C535 C 0.56705 0.51181 0.82699 0.0
C536 C 0.59868 0.51354 0.95234 0.0
C537 C 0.55995 0.50566 0.90258 0.0
C538 C 0.60745 0.50905 0.09515 0.0
C539 C 0.65562 0.51124 0.06335 0.0
N540 N 0.5757 0.50659 0.96229 0.0
N541 N 0.63933 0.51375 0.00566 0.0
H542 H 0.99457 0.66257 0.07281 0.0
H543 H 0.01679 0.53052 0.92022 0.0
H544 H 0.02016 0.60576 0.21943 0.0
H545 H 0.97949 0.58387 0.78807 0.0
H546 H 0.01722 0.55739 0.03185 0.0
H547 H 0.98753 0.63377 0.96971 0.0
C548 C 0.99838 0.64402 0.08399 0.0
C549 C 0.00821 0.63674 0.15514 0.0
C550 C 0.00875 0.56316 0.97867 0.0
C551 C 1.00062 0.60359 0.03607 0.0
C552 C 0.00849 0.5478 0.91499 0.0
C553 C 0.99821 0.55502 0.84467 0.0
C554 C 0.99883 0.58601 0.97182 0.0
C555 C 0.9877 0.57761 0.84109 0.0
C556 C 0.99451 0.62756 0.02469 0.0
C557 C 0.01306 0.6124 0.16521 0.0
N558 N 0.98847 0.59235 0.9034 0.0
N559 N 0.00943 0.5968 0.10631 0.0
H560 H 0.0246 0.23283 0.48953 0.0
H561 H 0.9316 0.13029 0.47878 0.0
H562 H 0.96239 0.23179 0.34405 0.0
H563 H 0.99382 0.13064 0.62391 0.0
H564 H 0.93508 0.17326 0.46368 0.0
H565 H 0.00656 0.20233 0.57187 0.0
C566 C 0.00693 0.22657 0.47595 0.0
C567 C 0.99531 0.23429 0.40853 0.0
C568 C 0.94767 0.16405 0.50037 0.0
C569 C 0.9747 0.19932 0.50158 0.0
C570 C 0.94562 0.13951 0.50918 0.0
C571 C 0.96297 0.12688 0.55027 0.0
C572 C 0.96739 0.17583 0.53197 0.0
C573 C 0.98061 0.13969 0.58925 0.0
C574 C 0.99659 0.20923 0.52308 0.0
C575 C 0.97217 0.22615 0.39488 0.0
N576 N 0.98272 0.16342 0.57764 0.0
N577 N 0.96287 0.20867 0.43986 0.0
H578 H 0.31111 0.10292 0.22926 0.0
H579 H 0.36516 0.99374 0.45889 0.0
H580 H 0.26946 0.04861 0.3433 0.0
H581 H 0.40771 0.05309 0.38137 0.0
H582 H 0.32959 0.01623 0.4283 0.0
H583 H 0.34621 0.0884 0.29798 0.0
C584 C 0.30919 0.08837 0.27009 0.0
C585 C 0.28733 0.0767 0.27905 0.0
C586 C 0.34669 0.02446 0.4185 0.0
C587 C 0.32737 0.05989 0.3571 0.0
C588 C 0.36707 0.01159 0.43607 0.0
C589 C 0.38954 0.0214 0.42206 0.0
C590 C 0.34868 0.04725 0.38563 0.0
C591 C 0.39078 0.04455 0.39136 0.0
C592 C 0.32924 0.08006 0.30921 0.0
C593 C 0.28582 0.05824 0.33404 0.0
N594 N 0.37064 0.0566 0.37345 0.0
N595 N 0.30564 0.05014 0.36967 0.0
H596 H 0.44547 0.32091 0.0677 0.0
H597 H 0.46605 0.39074 0.46058 0.0
H598 H 0.41758 0.29823 0.28941 0.0
H599 H 0.49147 0.41518 0.23759 0.0
H600 H 0.44345 0.35985 0.39596 0.0
H601 H 0.45657 0.35874 0.12471 0.0
C602 C 0.44094 0.32415 0.12783 0.0
C603 C 0.43074 0.30625 0.17411 0.0
C604 C 0.45378 0.37208 0.36098 0.0
C605 C 0.44419 0.34933 0.24039 0.0
C606 C 0.46667 0.38981 0.39785 0.0
C607 C 0.48082 0.40555 0.35449 0.0
C608 C 0.45517 0.36983 0.28005 0.0
C609 C 0.48118 0.40317 0.27346 0.0
C610 C 0.44759 0.34571 0.16063 0.0
C611 C 0.42574 0.3114 0.25199 0.0
N612 N 0.46868 0.38553 0.2389 0.0
N613 N 0.43285 0.33233 0.28301 0.0
H614 H 0.22951 0.50297 0.51869 0.0
H615 H 0.13453 0.60158 0.46198 0.0
H616 H 0.23431 0.55847 0.34607 0.0
H617 H 0.13358 0.55008 0.64821 0.0
H618 H 0.17678 0.59392 0.44365 0.0
H619 H 0.20107 0.527 0.59088 0.0
C620 C 0.22496 0.52047 0.49702 0.0
C621 C 0.23375 0.52852 0.42548 0.0
C622 C 0.1675 0.58476 0.49002 0.0
C623 C 0.20095 0.55592 0.50657 0.0
C624 C 0.14337 0.58914 0.50036 0.0
C625 C 0.13041 0.57596 0.55512 0.0
C626 C 0.17853 0.56676 0.53375 0.0
C627 C 0.1428 0.56047 0.60459 0.0
C628 C 0.20877 0.53424 0.53825 0.0
C629 C 0.22773 0.5515 0.40065 0.0
N630 N 0.16604 0.55583 0.59136 0.0
N631 N 0.21122 0.56416 0.44013 0.0
H632 H 0.10634 0.80262 0.29153 0.0
H633 H 0.09518 0.87103 0.89081 0.0
H634 H 0.10068 0.76743 0.07021 0.0
H635 H 0.09686 0.90436 0.11588 0.0
H636 H 0.10689 0.83349 0.95157 0.0
H637 H 0.11378 0.83987 0.22439 0.0
C638 C 0.10732 0.80251 0.22879 0.0
C639 C 0.10236 0.78184 0.18652 0.0
C640 C 0.10512 0.84915 0.98735 0.0
C641 C 0.11007 0.82486 0.10904 0.0
C642 C 0.09831 0.87055 0.95279 0.0
C643 C 0.09456 0.89081 0.99846 0.0
C644 C 0.1081 0.84798 0.06818 0.0
C645 C 0.0995 0.88929 0.07815 0.0
C646 C 0.11134 0.82395 0.19035 0.0
C647 C 0.10371 0.78305 0.10517 0.0
N648 N 0.10564 0.86817 0.11055 0.0
N649 N 0.10695 0.8043 0.069 0.0
H650 H 0.74169 0.06307 0.05621 0.0
H651 H 0.60814 0.09477 0.06928 0.0
H652 H 0.71383 0.11451 0.21786 0.0
H653 H 0.64132 0.06512 0.86553 0.0
H654 H 0.64701 0.10666 0.11639 0.0
H655 H 0.70681 0.06835 0.97631 0.0
C656 C 0.72865 0.07603 0.07417 0.0
C657 C 0.73061 0.08791 0.14546 0.0
C658 C 0.64577 0.09797 0.06062 0.0
C659 C 0.6899 0.09328 0.05474 0.0
C660 C 0.6235 0.09122 0.03344 0.0
C661 C 0.62143 0.07842 0.964 0.0
C662 C 0.66614 0.09156 0.01878 0.0
C663 C 0.64211 0.07423 0.92062 0.0
C664 C 0.70851 0.07888 0.02842 0.0
C665 C 0.71276 0.10427 0.16503 0.0
N666 N 0.66363 0.08036 0.94943 0.0
N667 N 0.69288 0.10602 0.12098 0.0
H668 H 0.40991 0.69626 0.28726 0.0
H669 H 0.42205 0.62586 0.89274 0.0
H670 H 0.41296 0.73015 0.0621 0.0
H671 H 0.42473 0.59431 0.12145 0.0
H672 H 0.4084 0.663 0.95069 0.0
H673 H 0.40366 0.6583 0.22445 0.0
C674 C 0.40857 0.69592 0.22461 0.0
C675 C 0.41252 0.71646 0.17991 0.0
C676 C 0.41156 0.64779 0.98794 0.0
C677 C 0.4062 0.67266 0.10741 0.0
C678 C 0.4195 0.62662 0.95498 0.0
C679 C 0.42505 0.60704 1.00239 0.0
C680 C 0.40924 0.64939 0.06889 0.0
C681 C 0.42074 0.60887 0.08241 0.0
C682 C 0.40525 0.67408 0.18865 0.0
C683 C 0.41073 0.71466 0.09883 0.0
N684 N 0.41346 0.62976 0.11316 0.0
N685 N 0.40821 0.69305 0.06507 0.0
H686 H 0.77368 0.44345 0.03965 0.0
H687 H 0.9058 0.40292 0.03466 0.0
H688 H 0.80062 0.38937 0.19479 0.0
H689 H 0.87335 0.4408 0.84399 0.0
H690 H 0.86653 0.393 0.08384 0.0
H691 H 0.80788 0.43777 0.95643 0.0
C692 C 0.78638 0.42986 0.05541 0.0
C693 C 0.78441 0.41726 0.12571 0.0
C694 C 0.86797 0.40311 0.03044 0.0
C695 C 0.82429 0.41132 0.03129 0.0
C696 C 0.89046 0.40873 1.00203 0.0
C697 C 0.89295 0.42317 0.93584 0.0
C698 C 0.84782 0.41227 0.99311 0.0
C699 C 0.87231 0.43027 0.89658 0.0
C700 C 0.80612 0.42678 0.00785 0.0
C701 C 0.80176 0.40009 0.14265 0.0
N702 N 0.85063 0.42512 0.92657 0.0
N703 N 0.82125 0.39802 0.09675 0.0
H704 H 0.02378 0.19879 0.80481 0.0
H705 H 0.01069 0.06124 0.91866 0.0
H706 H 0.00526 0.17376 0.03395 0.0
H707 H 0.01029 0.08527 0.68068 0.0
H708 H 0.01128 0.10254 0.96121 0.0
H709 H 0.02108 0.15775 0.75719 0.0
C710 C 0.01905 0.18473 0.84505 0.0
C711 C 0.01462 0.18988 0.92358 0.0
C712 C 0.01101 0.09885 0.89961 0.0
C713 C 0.01186 0.14275 0.86963 0.0
C714 C 0.01077 0.07519 0.87517 0.0
C715 C 0.01041 0.06965 0.79579 0.0
C716 C 0.0112 0.11734 0.84452 0.0
C717 C 0.01043 0.08865 0.74241 0.0
C718 C 0.01747 0.1613 0.81777 0.0
C719 C 0.00849 0.17084 0.9728 0.0
N720 N 0.01096 0.1116 0.76766 0.0
N721 N 0.00749 0.14825 0.94525 0.0
H722 H 0.30453 1.00265 0.79259 0.0
H723 H 0.4422 0.01354 0.90518 0.0
H724 H 0.32968 0.02152 0.02065 0.0
H725 H 0.41801 1.00521 0.66975 0.0
H726 H 0.40103 0.01425 0.94897 0.0
H727 H 0.3457 1.00107 0.74732 0.0
C728 C 0.31861 0.00643 0.83335 0.0
C729 C 0.31335 0.01218 0.91094 0.0
C730 C 0.40466 0.01224 0.88764 0.0
C731 C 0.3608 0.0102 0.85912 0.0
C732 C 0.42825 0.01186 0.86243 0.0
C733 C 0.43373 0.00916 0.78335 0.0
C734 C 0.38617 0.00983 0.83365 0.0
C735 C 0.41472 0.00706 0.73113 0.0
C736 C 0.34217 1.00546 0.80734 0.0
C737 C 0.3326 0.01655 0.96082 0.0
N738 N 0.39186 0.00739 0.7571 0.0
N739 N 0.35531 0.0155 0.93411 0.0
H740 H 0.51651 0.30181 0.79368 0.0
H741 H 0.49947 0.4389 0.90676 0.0
H742 H 0.49195 0.3255 0.01773 0.0
H743 H 0.51413 0.41571 0.67324 0.0
H744 H 0.49916 0.39754 0.94969 0.0
H745 H 0.51846 0.34324 0.75049 0.0
C746 C 0.51159 0.31564 0.83404 0.0
C747 C 0.50404 0.30989 0.90975 0.0
C748 C 0.50244 0.40143 0.88902 0.0
C749 C 0.50638 0.35767 0.8603 0.0
C750 C 0.50261 0.42513 0.86431 0.0
C751 C 0.50682 0.43093 0.78606 0.0
C752 C 0.50662 0.38317 0.83541 0.0
C753 C 0.51077 0.41216 0.73407 0.0
C754 C 0.51276 0.33936 0.80922 0.0
C755 C 0.49826 0.32883 0.95936 0.0
N756 N 0.51062 0.38918 0.75966 0.0
N757 N 0.49949 0.35173 0.93375 0.0
H758 H 0.18041 0.5092 0.04784 0.0
H759 H 0.09753 0.50732 0.67256 0.0
H760 H 0.20658 0.48225 0.83009 0.0
H761 H 0.07121 0.49786 0.90589 0.0
H762 H 0.13837 0.50604 0.72338 0.0
H763 H 0.14111 0.51366 0.99016 0.0
C764 C 0.178 0.50459 0.9874 0.0
C765 C 0.19693 0.49541 0.94375 0.0
C766 C 0.12358 0.50425 0.76315 0.0
C767 C 0.15169 0.50042 0.87723 0.0
C768 C 0.1003 0.50505 0.73433 0.0
C769 C 0.08086 0.50248 0.78494 0.0
C770 C 0.12741 0.50147 0.84329 0.0
C771 C 0.08556 0.49968 0.8645 0.0
C772 C 0.15548 0.50695 0.95474 0.0
C773 C 0.19251 0.48933 0.86596 0.0
N774 N 0.10825 0.4994 0.8911 0.0
N775 N 0.17037 0.49202 0.83503 0.0
H776 H 0.01584 0.82336 0.38872 0.0
H777 H 0.00941 0.90999 0.75315 0.0
H778 H 1.00108 0.79797 0.62081 0.0
H779 H 0.99988 0.93427 0.51744 0.0
H780 H 0.00941 0.86888 0.70671 0.0
H781 H 0.01229 0.86402 0.43511 0.0
C782 C 0.01149 0.82616 0.44918 0.0
C783 C 0.00878 0.80684 0.5006 0.0
C784 C 0.00723 0.88322 0.66525 0.0
C785 C 0.00546 0.85388 0.55478 0.0
C786 C 0.00737 0.90672 0.69168 0.0
C787 C 1.00471 0.92569 0.6392 0.0
C788 C 1.00476 0.8786 0.58555 0.0
C789 C 1.00191 0.92027 0.56018 0.0
C790 C 0.00969 0.84953 0.47578 0.0
C791 C 1.00379 0.81206 0.57887 0.0
N792 N 1.00219 0.89731 0.53579 0.0
N793 N 1.00249 0.83498 0.60354 0.0
H794 H 0.70326 0.02121 0.59675 0.0
H795 H 0.57056 0.9756 0.52657 0.0
H796 H 0.68429 0.9734 0.41178 0.0
H797 H 0.59181 0.01676 0.72533 0.0
H798 H 0.61194 0.97428 0.48399 0.0
H799 H 0.66278 0.01906 0.64542 0.0
C800 C 0.69076 0.00992 0.56681 0.0
C801 C 0.69751 0.99737 0.49986 0.0
C802 C 0.60757 0.98351 0.53711 0.0
C803 C 0.65047 0.99537 0.5549 0.0
C804 C 0.58389 0.98431 0.56153 0.0
C805 C 0.57754 0.99636 0.62976 0.0
C806 C 0.62516 0.99495 0.58084 0.0
C807 C 0.59574 0.00723 0.67247 0.0
C808 C 0.66747 0.0089 0.59447 0.0
C809 C 0.68004 0.98363 0.46294 0.0
N810 N 0.61862 0.00635 0.64716 0.0
N811 N 0.65738 0.98308 0.4907 0.0
H812 H 0.50044 0.67653 0.37783 0.0
H813 H 0.50857 0.59081 0.74642 0.0
H814 H 0.51533 0.70301 0.60759 0.0
H815 H 0.51986 0.56661 0.51208 0.0
H816 H 0.50779 0.63191 0.69818 0.0
H817 H 0.5049 0.63614 0.42679 0.0
C818 C 0.50501 0.67404 0.43829 0.0
C819 C 0.50751 0.6936 0.48823 0.0
C820 C 0.51055 0.61758 0.65748 0.0
C821 C 0.51186 0.6468 0.54548 0.0
C822 C 0.51089 0.59409 0.68494 0.0
C823 C 0.51426 0.57513 0.63336 0.0
C824 C 0.51321 0.62217 0.57764 0.0
C825 C 0.51731 0.58058 0.55423 0.0
C826 C 0.50734 0.65081 0.46639 0.0
C827 C 0.51277 0.68873 0.5667 0.0
N828 N 0.51652 0.60349 0.52885 0.0
N829 N 0.51456 0.66591 0.59289 0.0
H830 H 0.83523 0.49532 0.37085 0.0
H831 H 0.92246 0.50127 0.73307 0.0
H832 H 0.81065 0.51307 0.60106 0.0
H833 H 0.94642 0.51075 0.49703 0.0
H834 H 0.88135 0.50185 0.68708 0.0
H835 H 0.87594 0.49796 0.41671 0.0
C836 C 0.83822 0.50015 0.43074 0.0
C837 C 0.8191 0.50403 0.48177 0.0
C838 C 0.89562 0.5039 0.64546 0.0
C839 C 0.86619 0.50623 0.53542 0.0
C840 C 0.91912 0.50344 0.67161 0.0
C841 C 0.93799 0.50596 0.61888 0.0
C842 C 0.89092 0.5065 0.56581 0.0
C843 C 0.93249 0.50883 0.53988 0.0
C844 C 0.86162 0.50143 0.45704 0.0
C845 C 0.82456 0.5095 0.55945 0.0
N846 N 0.90952 0.50885 0.51576 0.0
N847 N 0.84752 0.51025 0.58391 0.0
loop_
_geom_bond_atom_site_label_1
_geom_bond_atom_site_label_2
_geom_bond_distance
_geom_bond_site_symmetry_2
_ccdc_geom_bond_type
P0 O11 1.490 . S
P0 C14 1.812 . S
P0 C20 1.803 . S
P0 C26 1.819 . S
H1 C15 0.941 . S
H2 C16 0.939 . S
H3 C18 0.940 . S
H4 C19 0.940 . S
H5 C21 0.939 . S
H6 C22 0.942 . S
H7 C24 0.940 . S
H8 C25 0.939 . S
H9 C27 0.941 . S
H10 C31 0.939 . S
O11 P0 1.490 . S
H12 C28 0.939 . S
H13 C30 0.940 . S
C14 P0 1.812 . S
C14 C15 1.389 . S
C14 C19 1.391 . S
C15 H1 0.941 . S
C15 C14 1.389 . S
C15 C16 1.397 . S
C16 H2 0.939 . S
C16 C15 1.397 . S
C16 C17 1.378 . S
C17 C16 1.378 . S
C17 C18 1.378 . S
C18 H3 0.940 . S
C18 C17 1.378 . S
C18 C19 1.396 . S
C19 H4 0.940 . S
C19 C14 1.391 . S
C19 C18 1.396 . S
C20 P0 1.803 . S
C20 C21 1.378 . S
C20 C25 1.400 . S
C21 H5 0.939 . S
C21 C20 1.378 . S
C21 C22 1.361 . S
C22 H6 0.942 . S
C22 C21 1.361 . S
C22 C23 1.369 . S
C23 C22 1.369 . S
C23 C24 1.404 . S
C24 H7 0.940 . S
C24 C23 1.404 . S
C24 C25 1.389 . S
C25 H8 0.939 . S
C25 C20 1.400 . S
C25 C24 1.389 . S
C26 P0 1.819 . S
C26 C27 1.391 . S
C26 C31 1.391 . S
C27 H9 0.941 . S
C27 C26 1.391 . S
C27 C28 1.396 . S
C28 H12 0.939 . S
C28 C27 1.396 . S
C28 C29 1.397 . S
C29 C28 1.397 . S
C29 C30 1.385 . S
C30 H13 0.940 . S
C30 C29 1.385 . S
C30 C31 1.388 . S
C31 H10 0.939 . S
C31 C26 1.391 . S
C31 C30 1.388 . S
P32 O43 1.490 . S
P32 C46 1.812 . S
P32 C52 1.803 . S
P32 C58 1.819 . S
H33 C47 0.941 . S
H34 C48 0.939 . S
H35 C50 0.940 . S
H36 C51 0.950 . S
H37 C53 0.939 . S
H38 C54 0.942 . S
H39 C56 0.940 . S
H40 C57 0.959 . S
H41 C59 0.941 . S
H42 C63 0.929 1_655 S
O43 P32 1.490 . S
H44 C60 0.939 . S
H45 C62 0.940 . S
C46 P32 1.812 . S
C46 C47 1.389 . S
C46 C51 1.375 1_455 S
C47 H33 0.941 . S
C47 C46 1.389 . S
C47 C48 1.397 . S
C48 H34 0.939 . S
C48 C47 1.397 . S
C48 C49 1.378 . S
C49 C48 1.378 . S
C49 C50 1.378 1_455 S
C50 H35 0.940 . S
C50 C49 1.378 1_655 S
C50 C51 1.403 . S
C51 H36 0.950 . S
C51 C46 1.375 1_655 S
C51 C50 1.403 . S
C52 P32 1.803 . S
C52 C53 1.378 . S
C52 C57 1.368 1_455 S
C53 H37 0.939 . S
C53 C52 1.378 . S
C53 C54 1.361 . S
C54 H38 0.942 . S
C54 C53 1.361 . S
C54 C55 1.369 . S
C55 C54 1.369 . S
C55 C56 1.404 1_455 S
C56 H39 0.940 . S
C56 C55 1.404 1_655 S
C56 C57 1.402 . S
C57 H40 0.959 . S
C57 C52 1.368 1_655 S
C57 C56 1.402 . S
C58 P32 1.819 . S
C58 C59 1.391 . S
C58 C63 1.391 . S
C59 H41 0.941 . S
C59 C58 1.391 . S
C59 C60 1.396 . S
C60 H44 0.939 . S
C60 C59 1.396 . S
C60 C61 1.397 . S
C61 C60 1.397 . S
C61 C62 1.385 1_455 S
C62 H45 0.940 . S
C62 C61 1.385 1_655 S
C62 C63 1.388 1_655 S
C63 H42 0.929 1_455 S
C63 C58 1.391 . S
C63 C62 1.388 1_455 S
P64 O75 1.490 . S
P64 C78 1.812 . S
P64 C84 1.803 . S
P64 C90 1.819 . S
H65 C79 0.941 . S
H66 C80 0.939 . S
H67 C82 0.940 . S
H68 C83 0.950 . S
H69 C85 0.939 . S
H70 C86 0.942 . S
H71 C88 0.940 . S
H72 C89 0.959 . S
H73 C91 0.941 . S
H74 C95 0.929 1_565 S
O75 P64 1.490 . S
H76 C92 0.939 . S
H77 C94 0.940 . S
C78 P64 1.812 . S
C78 C79 1.389 . S
C78 C83 1.375 1_545 S
C79 H65 0.941 . S
C79 C78 1.389 . S
C79 C80 1.397 . S
C80 H66 0.939 . S
C80 C79 1.397 . S
C80 C81 1.378 . S
C81 C80 1.378 . S
C81 C82 1.378 1_545 S
C82 H67 0.940 . S
C82 C81 1.378 1_565 S
C82 C83 1.403 . S
C83 H68 0.950 . S
C83 C78 1.375 1_565 S
C83 C82 1.403 . S
C84 P64 1.803 . S
C84 C85 1.378 . S
C84 C89 1.368 1_545 S
C85 H69 0.939 . S
C85 C84 1.378 . S
C85 C86 1.361 . S
C86 H70 0.942 . S
C86 C85 1.361 . S
C86 C87 1.369 . S
C87 C86 1.369 . S
C87 C88 1.404 1_545 S
C88 H71 0.940 . S
C88 C87 1.404 1_565 S
C88 C89 1.402 . S
C89 H72 0.959 . S
C89 C84 1.368 1_565 S
C89 C88 1.402 . S
C90 P64 1.819 . S
C90 C91 1.391 . S
C90 C95 1.391 . S
C91 H73 0.941 . S
C91 C90 1.391 . S
C91 C92 1.396 . S
C92 H76 0.939 . S
C92 C91 1.396 . S
C92 C93 1.397 . S
C93 C92 1.397 . S
C93 C94 1.385 1_545 S
C94 H77 0.940 . S
C94 C93 1.385 1_565 S
C94 C95 1.388 1_565 S
C95 H74 0.929 1_545 S
C95 C90 1.391 . S
C95 C94 1.388 1_545 S
P96 O107 1.490 . S
P96 C110 1.812 . S
P96 C116 1.803 . S
P96 C122 1.819 . S
H97 C111 0.941 . S
H98 C112 0.939 . S
H99 C114 0.940 . S
H100 C115 0.940 . S
H101 C117 0.939 . S
H102 C118 0.942 . S
H103 C120 0.940 . S
H104 C121 0.939 . S
H105 C123 0.941 . S
H106 C127 0.939 . S
O107 P96 1.490 . S
H108 C124 0.939 . S
H109 C126 0.940 . S
C110 P96 1.812 . S
C110 C111 1.389 . S
C110 C115 1.391 . S
C111 H97 0.941 . S
C111 C110 1.389 . S
C111 C112 1.397 . S
C112 H98 0.939 . S
C112 C111 1.397 . S
C112 C113 1.378 . S
C113 C112 1.378 . S
C113 C114 1.378 . S
C114 H99 0.940 . S
C114 C113 1.378 . S
C114 C115 1.396 . S
C115 H100 0.940 . S
C115 C110 1.391 . S
C115 C114 1.396 . S
C116 P96 1.803 . S
C116 C117 1.378 . S
C116 C121 1.400 . S
C117 H101 0.939 . S
C117 C116 1.378 . S
C117 C118 1.361 . S
C118 H102 0.942 . S
C118 C117 1.361 . S
C118 C119 1.369 . S
C119 C118 1.369 . S
C119 C120 1.404 . S
C120 H103 0.940 . S
C120 C119 1.404 . S
C120 C121 1.389 . S
C121 H104 0.939 . S
C121 C116 1.400 . S
C121 C120 1.389 . S
C122 P96 1.819 . S
C122 C123 1.391 . S
C122 C127 1.391 . S
C123 H105 0.941 . S
C123 C122 1.391 . S
C123 C124 1.396 . S
C124 H108 0.939 . S
C124 C123 1.396 . S
C124 C125 1.397 . S
C125 C124 1.397 . S
C125 C126 1.385 . S
C126 H109 0.940 . S
C126 C125 1.385 . S
C126 C127 1.388 . S
C127 H106 0.939 . S
C127 C122 1.391 . S
C127 C126 1.388 . S
P128 O139 1.490 . S
P128 C142 1.812 1_554 S
P128 C148 1.803 . S
P128 C154 1.819 . S
H129 C143 0.941 . S
H130 C144 0.939 . S
H131 C146 0.940 . S
H132 C147 0.940 . S
H133 C149 0.939 . S
H134 C150 0.942 . S
H135 C152 0.940 . S
H136 C153 0.939 . S
H137 C155 0.941 . S
H138 C159 0.939 . S
O139 P128 1.490 . S
H140 C156 0.939 . S
H141 C158 0.940 . S
C142 P128 1.812 1_556 S
C142 C143 1.389 . S
C142 C147 1.391 . S
C143 H129 0.941 . S
C143 C142 1.389 . S
C143 C144 1.397 . S
C144 H130 0.939 . S
C144 C143 1.397 . S
C144 C145 1.378 . S
C145 C144 1.378 . S
C145 C146 1.378 . S
C146 H131 0.940 . S
C146 C145 1.378 . S
C146 C147 1.396 . S
C147 H132 0.940 . S
C147 C142 1.391 . S
C147 C146 1.396 . S
C148 P128 1.803 . S
C148 C149 1.378 . S
C148 C153 1.400 . S
C149 H133 0.939 . S
C149 C148 1.378 . S
C149 C150 1.361 . S
C150 H134 0.942 . S
C150 C149 1.361 . S
C150 C151 1.369 . S
C151 C150 1.369 . S
C151 C152 1.404 . S
C152 H135 0.940 . S
C152 C151 1.404 . S
C152 C153 1.389 . S
C153 H136 0.939 . S
C153 C148 1.400 . S
C153 C152 1.389 . S
C154 P128 1.819 . S
C154 C155 1.391 . S
C154 C159 1.391 . S
C155 H137 0.941 . S
C155 C154 1.391 . S
C155 C156 1.396 . S
C156 H140 0.939 . S
C156 C155 1.396 . S
C156 C157 1.397 . S
C157 C156 1.397 . S
C157 C158 1.385 . S
C158 H141 0.940 . S
C158 C157 1.385 . S
C158 C159 1.388 . S
C159 H138 0.939 . S
C159 C154 1.391 . S
C159 C158 1.388 . S
P160 O171 1.490 . S
P160 C174 1.812 1_554 S
P160 C180 1.803 . S
P160 C186 1.819 . S
H161 C175 0.941 . S
H162 C176 0.939 . S
H163 C178 0.940 . S
H164 C179 0.944 . S
H165 C181 0.939 . S
H166 C182 0.942 . S
H167 C184 0.940 . S
H168 C185 0.953 . S
H169 C187 0.941 . S
H170 C191 0.933 1_655 S
O171 P160 1.490 . S
H172 C188 0.939 . S
H173 C190 0.940 . S
C174 P160 1.812 1_556 S
C174 C175 1.389 . S
C174 C179 1.385 1_455 S
C175 H161 0.941 . S
C175 C174 1.389 . S
C175 C176 1.397 . S
C176 H162 0.939 . S
C176 C175 1.397 . S
C176 C177 1.378 . S
C177 C176 1.378 . S
C177 C178 1.378 1_455 S
C178 H163 0.940 . S
C178 C177 1.378 1_655 S
C178 C179 1.399 . S
C179 H164 0.944 . S
C179 C174 1.385 1_655 S
C179 C178 1.399 . S
C180 P160 1.803 . S
C180 C181 1.378 . S
C180 C185 1.379 1_455 S
C181 H165 0.939 . S
C181 C180 1.378 . S
C181 C182 1.361 . S
C182 H166 0.942 . S
C182 C181 1.361 . S
C182 C183 1.369 . S
C183 C182 1.369 . S
C183 C184 1.404 1_455 S
C184 H167 0.940 . S
C184 C183 1.404 1_655 S
C184 C185 1.398 . S
C185 H168 0.953 . S
C185 C180 1.379 1_655 S
C185 C184 1.398 . S
C186 P160 1.819 . S
C186 C187 1.391 . S
C186 C191 1.391 . S
C187 H169 0.941 . S
C187 C186 1.391 . S
C187 C188 1.396 . S
C188 H172 0.939 . S
C188 C187 1.396 . S
C188 C189 1.397 . S
C189 C188 1.397 . S
C189 C190 1.385 1_455 S
C190 H173 0.940 . S
C190 C189 1.385 1_655 S
C190 C191 1.388 1_655 S
C191 H170 0.933 1_455 S
C191 C186 1.391 . S
C191 C190 1.388 1_455 S
P192 O203 1.490 . S
P192 C206 1.812 1_554 S
P192 C212 1.803 . S
P192 C218 1.819 . S
H193 C207 0.941 . S
H194 C208 0.939 . S
H195 C210 0.940 . S
H196 C211 0.944 . S
H197 C213 0.939 . S
H198 C214 0.942 . S
H199 C216 0.940 . S
H200 C217 0.953 . S
H201 C219 0.941 . S
H202 C223 0.933 1_565 S
O203 P192 1.490 . S
H204 C220 0.939 . S
H205 C222 0.940 . S
C206 P192 1.812 1_556 S
C206 C207 1.389 . S
C206 C211 1.385 1_545 S
C207 H193 0.941 . S
C207 C206 1.389 . S
C207 C208 1.397 . S
C208 H194 0.939 . S
C208 C207 1.397 . S
C208 C209 1.378 . S
C209 C208 1.378 . S
C209 C210 1.378 1_545 S
C210 H195 0.940 . S
C210 C209 1.378 1_565 S
C210 C211 1.399 . S
C211 H196 0.944 . S
C211 C206 1.385 1_565 S
C211 C210 1.399 . S
C212 P192 1.803 . S
C212 C213 1.378 . S
C212 C217 1.379 1_545 S
C213 H197 0.939 . S
C213 C212 1.378 . S
C213 C214 1.361 . S
C214 H198 0.942 . S
C214 C213 1.361 . S
C214 C215 1.369 . S
C215 C214 1.369 . S
C215 C216 1.404 1_545 S
C216 H199 0.940 . S
C216 C215 1.404 1_565 S
C216 C217 1.398 . S
C217 H200 0.953 . S
C217 C212 1.379 1_565 S
C217 C216 1.398 . S
C218 P192 1.819 . S
C218 C219 1.391 . S
C218 C223 1.391 . S
C219 H201 0.941 . S
C219 C218 1.391 . S
C219 C220 1.396 . S
C220 H204 0.939 . S
C220 C219 1.396 . S
C220 C221 1.397 . S
C221 C220 1.397 . S
C221 C222 1.385 1_545 S
C222 H205 0.940 . S
C222 C221 1.385 1_565 S
C222 C223 1.388 1_565 S
C223 H202 0.933 1_545 S
C223 C218 1.391 . S
C223 C222 1.388 1_545 S
P224 O235 1.490 . S
P224 C238 1.812 1_554 S
P224 C244 1.803 . S
P224 C250 1.819 . S
H225 C239 0.941 . S
H226 C240 0.939 . S
H227 C242 0.940 . S
H228 C243 0.940 . S
H229 C245 0.939 . S
H230 C246 0.942 . S
H231 C248 0.940 . S
H232 C249 0.939 . S
H233 C251 0.941 . S
H234 C255 0.939 . S
O235 P224 1.490 . S
H236 C252 0.939 . S
H237 C254 0.940 . S
C238 P224 1.812 1_556 S
C238 C239 1.389 . S
C238 C243 1.391 . S
C239 H225 0.941 . S
C239 C238 1.389 . S
C239 C240 1.397 . S
C240 H226 0.939 . S
C240 C239 1.397 . S
C240 C241 1.378 . S
C241 C240 1.378 . S
C241 C242 1.378 . S
C242 H227 0.940 . S
C242 C241 1.378 . S
C242 C243 1.396 . S
C243 H228 0.940 . S
C243 C238 1.391 . S
C243 C242 1.396 . S
C244 P224 1.803 . S
C244 C245 1.378 . S
C244 C249 1.400 . S
C245 H229 0.939 . S
C245 C244 1.378 . S
C245 C246 1.361 . S
C246 H230 0.942 . S
C246 C245 1.361 . S
C246 C247 1.369 . S
C247 C246 1.369 . S
C247 C248 1.404 . S
C248 H231 0.940 . S
C248 C247 1.404 . S
C248 C249 1.389 . S
C249 H232 0.939 . S
C249 C244 1.400 . S
C249 C248 1.389 . S
C250 P224 1.819 . S
C250 C251 1.391 . S
C250 C255 1.391 . S
C251 H233 0.941 . S
C251 C250 1.391 . S
C251 C252 1.396 . S
C252 H236 0.939 . S
C252 C251 1.396 . S
C252 C253 1.397 . S
C253 C252 1.397 . S
C253 C254 1.385 . S
C254 H237 0.940 . S
C254 C253 1.385 . S
C254 C255 1.388 . S
C255 H234 0.939 . S
C255 C250 1.391 . S
C255 C254 1.388 . S
La256 C258 2.928 . S
La256 O276 2.521 . S
La256 O277 2.628 . S
La256 O278 2.554 . S
La256 O279 2.757 1_565 S
La256 O280 2.470 . S
La256 O285 2.482 1_455 S
La256 O287 2.503 1_565 S
La257 C267 2.928 . S
La257 O279 2.482 1_655 S
La257 O281 2.503 1_545 S
La257 O282 2.521 . S
La257 O283 2.628 . S
La257 O284 2.554 . S
La257 O285 2.757 1_545 S
La257 O286 2.470 . S
C258 La256 2.928 . S
C258 C259 1.503 . S
C258 O276 1.261 . S
C258 O277 1.243 . S
C259 C258 1.503 . S
C259 C260 1.394 . S
C259 C264 1.373 . S
C260 C259 1.394 . S
C260 C261 1.380 . S
C260 H288 0.930 . S
C261 C260 1.380 . S
C261 C262 1.376 . S
C261 H289 0.930 . S
C262 C261 1.376 . S
C262 C263 1.370 . S
C263 C262 1.370 . S
C263 C264 1.396 . S
C263 H290 0.951 . S
C264 C259 1.373 . S
C264 C263 1.396 . S
C264 H291 0.929 1_455 S
C265 O278 1.240 . S
C265 O279 1.289 1_565 S
C266 O280 1.258 1_655 S
C266 O281 1.256 . S
C267 La257 2.928 . S
C267 C268 1.503 . S
C267 O282 1.261 . S
C267 O283 1.243 . S
C268 C267 1.503 . S
C268 C269 1.394 . S
C268 C273 1.373 . S
C269 C268 1.394 . S
C269 C270 1.380 . S
C269 H292 0.930 . S
C270 C269 1.380 . S
C270 C271 1.376 . S
C270 H293 0.930 . S
C271 C270 1.376 . S
C271 C272 1.370 . S
C272 C271 1.370 . S
C272 C273 1.396 . S
C272 H294 0.942 . S
C273 C268 1.373 . S
C273 C272 1.396 . S
C273 H295 0.929 1_655 S
C274 O284 1.240 . S
C274 O285 1.289 1_545 S
C275 O286 1.258 1_455 S
C275 O287 1.256 . S
O276 La256 2.521 . S
O276 C258 1.261 . S
O277 La256 2.628 . S
O277 C258 1.243 . S
O278 La256 2.554 . S
O278 C265 1.240 . S
O279 La256 2.757 1_545 S
O279 La257 2.482 1_455 S
O279 C265 1.289 1_545 S
O280 La256 2.470 . S
O280 C266 1.258 1_455 S
O281 La257 2.503 1_565 S
O281 C266 1.256 . S
O282 La257 2.521 . S
O282 C267 1.261 . S
O283 La257 2.628 . S
O283 C267 1.243 . S
O284 La257 2.554 . S
O284 C274 1.240 . S
O285 La256 2.482 1_655 S
O285 La257 2.757 1_565 S
O285 C274 1.289 1_565 S
O286 La257 2.470 . S
O286 C275 1.258 1_655 S
O287 La256 2.503 1_545 S
O287 C275 1.256 . S
H288 C260 0.930 . S
H289 C261 0.930 . S
H290 C263 0.951 . S
H291 C264 0.929 1_655 S
H292 C269 0.930 . S
H293 C270 0.930 . S
H294 C272 0.942 . S
H295 C273 0.929 1_455 S
La296 C298 2.928 . S
La296 O316 2.521 . S
La296 O317 2.628 . S
La296 O318 2.554 . S
La296 O319 2.757 . S
La296 O320 2.470 . S
La296 O325 2.482 1_545 S
La296 O327 2.503 . S
La297 C307 2.928 . S
La297 O319 2.482 1_565 S
La297 O321 2.503 . S
La297 O322 2.521 . S
La297 O323 2.628 . S
La297 O324 2.554 . S
La297 O325 2.757 . S
La297 O326 2.470 . S
C298 La296 2.928 . S
C298 C299 1.503 . S
C298 O316 1.261 . S
C298 O317 1.243 . S
C299 C298 1.503 . S
C299 C300 1.394 . S
C299 C304 1.373 . S
C300 C299 1.394 . S
C300 C301 1.380 . S
C300 H328 0.930 . S
C301 C300 1.380 . S
C301 C302 1.376 . S
C301 H329 0.930 . S
C302 C301 1.376 . S
C302 C303 1.370 . S
C303 C302 1.370 . S
C303 C304 1.396 . S
C303 H330 0.931 1_545 S
C304 C299 1.373 . S
C304 C303 1.396 . S
C304 H331 0.929 1_545 S
C305 O318 1.240 . S
C305 O319 1.289 . S
C306 O320 1.258 1_565 S
C306 O321 1.256 . S
C307 La297 2.928 . S
C307 C308 1.503 . S
C307 O322 1.261 . S
C307 O323 1.243 . S
C308 C307 1.503 . S
C308 C309 1.394 . S
C308 C313 1.373 . S
C309 C308 1.394 . S
C309 C310 1.380 . S
C309 H332 0.930 . S
C310 C309 1.380 . S
C310 C311 1.376 . S
C310 H333 0.930 . S
C311 C310 1.376 . S
C311 C312 1.370 . S
C312 C311 1.370 . S
C312 C313 1.396 . S
C312 H334 0.922 1_565 S
C313 C308 1.373 . S
C313 C312 1.396 . S
C313 H335 0.929 1_565 S
C314 O324 1.240 . S
C314 O325 1.289 . S
C315 O326 1.258 1_545 S
C315 O327 1.256 . S
O316 La296 2.521 . S
O316 C298 1.261 . S
O317 La296 2.628 . S
O317 C298 1.243 . S
O318 La296 2.554 . S
O318 C305 1.240 . S
O319 La296 2.757 . S
O319 La297 2.482 1_545 S
O319 C305 1.289 . S
O320 La296 2.470 . S
O320 C306 1.258 1_545 S
O321 La297 2.503 . S
O321 C306 1.256 . S
O322 La297 2.521 . S
O322 C307 1.261 . S
O323 La297 2.628 . S
O323 C307 1.243 . S
O324 La297 2.554 . S
O324 C314 1.240 . S
O325 La296 2.482 1_565 S
O325 La297 2.757 . S
O325 C314 1.289 . S
O326 La297 2.470 . S
O326 C315 1.258 1_565 S
O327 La296 2.503 . S
O327 C315 1.256 . S
H328 C300 0.930 . S
H329 C301 0.930 . S
H330 C303 0.931 1_565 S
H331 C304 0.929 1_565 S
H332 C309 0.930 . S
H333 C310 0.930 . S
H334 C312 0.922 1_545 S
H335 C313 0.929 1_545 S
La336 C338 2.928 . S
La336 O356 2.521 . S
La336 O357 2.628 . S
La336 O358 2.554 . S
La336 O359 2.757 . S
La336 O360 2.470 . S
La336 O365 2.482 . S
La336 O367 2.503 . S
La337 C347 2.928 . S
La337 O359 2.482 . S
La337 O361 2.503 . S
La337 O362 2.521 . S
La337 O363 2.628 . S
La337 O364 2.554 . S
La337 O365 2.757 . S
La337 O366 2.470 . S
C338 La336 2.928 . S
C338 C339 1.503 . S
C338 O356 1.261 . S
C338 O357 1.243 . S
C339 C338 1.503 . S
C339 C340 1.394 . S
C339 C344 1.373 . S
C340 C339 1.394 . S
C340 C341 1.380 . S
C340 H368 0.930 . S
C341 C340 1.380 . S
C341 C342 1.376 . S
C341 H369 0.930 . S
C342 C341 1.376 . S
C342 C343 1.370 . S
C343 C342 1.370 . S
C343 C344 1.396 . S
C343 H370 0.929 . S
C344 C339 1.373 . S
C344 C343 1.396 . S
C344 H371 0.929 . S
C345 O358 1.240 . S
C345 O359 1.289 . S
C346 O360 1.258 . S
C346 O361 1.256 . S
C347 La337 2.928 . S
C347 C348 1.503 . S
C347 O362 1.261 . S
C347 O363 1.243 . S
C348 C347 1.503 . S
C348 C349 1.394 . S
C348 C353 1.373 . S
C349 C348 1.394 . S
C349 C350 1.380 . S
C349 H372 0.930 . S
C350 C349 1.380 . S
C350 C351 1.376 . S
C350 H373 0.930 . S
C351 C350 1.376 . S
C351 C352 1.370 . S
C352 C351 1.370 . S
C352 C353 1.396 . S
C352 H374 0.929 . S
C353 C348 1.373 . S
C353 C352 1.396 . S
C353 H375 0.929 . S
C354 O364 1.240 . S
C354 O365 1.289 . S
C355 O366 1.258 . S
C355 O367 1.256 . S
O356 La336 2.521 . S
O356 C338 1.261 . S
O357 La336 2.628 . S
O357 C338 1.243 . S
O358 La336 2.554 . S
O358 C345 1.240 . S
O359 La336 2.757 . S
O359 La337 2.482 . S
O359 C345 1.289 . S
O360 La336 2.470 . S
O360 C346 1.258 . S
O361 La337 2.503 . S
O361 C346 1.256 . S
O362 La337 2.521 . S
O362 C347 1.261 . S
O363 La337 2.628 . S
O363 C347 1.243 . S
O364 La337 2.554 . S
O364 C354 1.240 . S
O365 La336 2.482 . S
O365 La337 2.757 . S
O365 C354 1.289 . S
O366 La337 2.470 . S
O366 C355 1.258 . S
O367 La336 2.503 . S
O367 C355 1.256 . S
H368 C340 0.930 . S
H369 C341 0.930 . S
H370 C343 0.929 . S
H371 C344 0.929 . S
H372 C349 0.930 . S
H373 C350 0.930 . S
H374 C352 0.929 . S
H375 C353 0.929 . S
La376 C378 2.928 . S
La376 O396 2.521 . S
La376 O397 2.628 . S
La376 O398 2.554 . S
La376 O399 2.757 1_655 S
La376 O400 2.470 . S
La376 O405 2.482 . S
La376 O407 2.503 1_655 S
La377 C387 2.928 . S
La377 O399 2.482 . S
La377 O401 2.503 1_455 S
La377 O402 2.521 . S
La377 O403 2.628 . S
La377 O404 2.554 . S
La377 O405 2.757 1_455 S
La377 O406 2.470 . S
C378 La376 2.928 . S
C378 C379 1.503 . S
C378 O396 1.261 . S
C378 O397 1.243 . S
C379 C378 1.503 . S
C379 C380 1.394 . S
C379 C384 1.373 . S
C380 C379 1.394 . S
C380 C381 1.380 . S
C380 H408 0.930 . S
C381 C380 1.380 . S
C381 C382 1.376 . S
C381 H409 0.930 . S
C382 C381 1.376 . S
C382 C383 1.370 . S
C383 C382 1.370 . S
C383 C384 1.396 . S
C383 H410 0.929 . S
C384 C379 1.373 . S
C384 C383 1.396 . S
C384 H411 0.929 . S
C385 O398 1.255 . S
C385 O399 1.281 1_655 S
C386 O400 1.258 . S
C386 O401 1.256 . S
C387 La377 2.928 . S
C387 C388 1.503 . S
C387 O402 1.261 . S
C387 O403 1.243 . S
C388 C387 1.503 . S
C388 C389 1.394 . S
C388 C393 1.373 . S
C389 C388 1.394 . S
C389 C390 1.380 . S
C389 H412 0.930 . S
C390 C389 1.380 . S
C390 C391 1.376 . S
C390 H413 0.930 . S
C391 C390 1.376 . S
C391 C392 1.370 . S
C392 C391 1.370 . S
C392 C393 1.396 . S
C392 H414 0.929 . S
C393 C388 1.373 . S
C393 C392 1.396 . S
C393 H415 0.929 . S
C394 O404 1.261 . S
C394 O405 1.277 1_455 S
C395 O406 1.258 . S
C395 O407 1.256 . S
O396 La376 2.521 . S
O396 C378 1.261 . S
O397 La376 2.628 . S
O397 C378 1.243 . S
O398 La376 2.554 . S
O398 C385 1.255 . S
O399 La376 2.757 1_455 S
O399 La377 2.482 . S
O399 C385 1.281 1_455 S
O400 La376 2.470 . S
O400 C386 1.258 . S
O401 La377 2.503 1_655 S
O401 C386 1.256 . S
O402 La377 2.521 . S
O402 C387 1.261 . S
O403 La377 2.628 . S
O403 C387 1.243 . S
O404 La377 2.554 . S
O404 C394 1.261 . S
O405 La376 2.482 . S
O405 La377 2.757 1_655 S
O405 C394 1.277 1_655 S
O406 La377 2.470 . S
O406 C395 1.258 . S
O407 La376 2.503 1_455 S
O407 C395 1.256 . S
H408 C380 0.930 . S
H409 C381 0.930 . S
H410 C383 0.929 . S
H411 C384 0.929 . S
H412 C389 0.930 . S
H413 C390 0.930 . S
H414 C392 0.929 . S
H415 C393 0.929 . S
H416 C422 0.930 . S
H417 C426 0.930 . S
H418 C431 0.929 . S
H419 C429 0.929 . S
H420 C424 0.929 . S
H421 C430 0.929 . S
C422 H416 0.930 . S
C422 C423 1.365 . S
C422 C430 1.378 . S
C423 C422 1.365 . S
C423 C431 1.435 1_565 S
C424 H420 0.929 . S
C424 C426 1.378 . S
C424 C428 1.350 . S
C425 C428 1.463 . S
C425 C430 1.348 1_545 S
C425 N433 1.429 . S
C426 H417 0.930 . S
C426 C424 1.378 . S
C426 C427 1.367 . S
C427 C426 1.367 . S
C427 C429 1.433 1_545 S
C428 C424 1.350 . S
C428 C425 1.463 . S
C428 N432 1.427 1_545 S
C429 H419 0.929 . S
C429 C427 1.433 1_565 S
C429 N432 1.384 . S
C430 H421 0.929 . S
C430 C422 1.378 . S
C430 C425 1.348 1_565 S
C431 H418 0.929 . S
C431 C423 1.435 1_545 S
C431 N433 1.384 . S
N432 C428 1.427 1_565 S
N432 C429 1.384 . S
N433 C425 1.429 . S
N433 C431 1.384 . S
H434 C440 0.930 . S
H435 C444 0.930 . S
H436 C449 0.929 . S
H437 C447 0.929 . S
H438 C442 0.929 . S
H439 C448 0.929 . S
C440 H434 0.930 . S
C440 C441 1.367 . S
C440 C448 1.378 . S
C441 C440 1.367 . S
C441 C449 1.433 . S
C442 H438 0.929 . S
C442 C444 1.378 . S
C442 C446 1.350 . S
C443 C446 1.463 . S
C443 C448 1.350 . S
C443 N451 1.427 . S
C444 H435 0.930 . S
C444 C442 1.378 . S
C444 C445 1.367 . S
C445 C444 1.367 . S
C445 C447 1.433 . S
C446 C442 1.350 . S
C446 C443 1.463 . S
C446 N450 1.427 . S
C447 H437 0.929 . S
C447 C445 1.433 . S
C447 N450 1.384 . S
C448 H439 0.929 . S
C448 C440 1.378 . S
C448 C443 1.350 . S
C449 H436 0.929 . S
C449 C441 1.433 . S
C449 N451 1.384 . S
N450 C446 1.427 . S
N450 C447 1.384 . S
N451 C443 1.427 . S
N451 C449 1.384 . S
H452 C458 0.930 . S
H453 C462 0.930 . S
H454 C467 0.929 . S
H455 C465 0.929 . S
H456 C460 0.929 . S
H457 C466 0.929 . S
C458 H452 0.930 . S
C458 C459 1.367 . S
C458 C466 1.378 . S
C459 C458 1.367 . S
C459 C467 1.433 . S
C460 H456 0.929 . S
C460 C462 1.378 . S
C460 C464 1.350 . S
C461 C464 1.463 . S
C461 C466 1.350 . S
C461 N469 1.427 . S
C462 H453 0.930 . S
C462 C460 1.378 . S
C462 C463 1.367 . S
C463 C462 1.367 . S
C463 C465 1.433 . S
C464 C460 1.350 . S
C464 C461 1.463 . S
C464 N468 1.427 . S
C465 H455 0.929 . S
C465 C463 1.433 . S
C465 N468 1.384 . S
C466 H457 0.929 . S
C466 C458 1.378 . S
C466 C461 1.350 . S
C467 H454 0.929 . S
C467 C459 1.433 . S
C467 N469 1.384 . S
N468 C464 1.427 . S
N468 C465 1.384 . S
N469 C461 1.427 . S
N469 C467 1.384 . S
H470 C476 0.930 . S
H471 C480 0.930 . S
H472 C485 0.929 . S
H473 C483 0.929 . S
H474 C478 0.929 . S
H475 C484 0.929 . S
C476 H470 0.930 . S
C476 C477 1.366 1_655 S
C476 C484 1.378 . S
C477 C476 1.366 1_455 S
C477 C485 1.434 . S
C478 H474 0.929 . S
C478 C480 1.378 . S
C478 C482 1.350 . S
C479 C482 1.464 . S
C479 C484 1.339 1_455 S
C479 N487 1.438 . S
C480 H471 0.930 . S
C480 C478 1.378 . S
C480 C481 1.367 . S
C481 C480 1.367 . S
C481 C483 1.433 1_455 S
C482 C478 1.350 . S
C482 C479 1.464 . S
C482 N486 1.427 1_455 S
C483 H473 0.929 . S
C483 C481 1.433 1_655 S
C483 N486 1.384 . S
C484 H475 0.929 . S
C484 C476 1.378 . S
C484 C479 1.339 1_655 S
C485 H472 0.929 . S
C485 C477 1.434 . S
C485 N487 1.384 . S
N486 C482 1.427 1_655 S
N486 C483 1.384 . S
N487 C479 1.438 . S
N487 C485 1.384 . S
H488 C494 0.930 . S
H489 C498 0.930 . S
H490 C503 0.929 . S
H491 C501 0.931 . S
H492 C496 0.929 . S
H493 C502 0.929 . S
C494 H488 0.930 . S
C494 C495 1.367 1_545 S
C494 C502 1.378 . S
C495 C494 1.367 1_565 S
C495 C503 1.433 . S
C496 H492 0.929 . S
C496 C498 1.378 . S
C496 C500 1.353 1_556 S
C497 C500 1.462 . S
C497 C502 1.349 1_565 S
C497 N505 1.428 . S
C498 H489 0.930 . S
C498 C496 1.378 . S
C498 C499 1.367 . S
C499 C498 1.367 . S
C499 C501 1.432 1_565 S
C500 C496 1.353 1_554 S
C500 C497 1.462 . S
C500 N504 1.425 1_565 S
C501 H491 0.931 . S
C501 C499 1.432 1_545 S
C501 N504 1.384 1_556 S
C502 H493 0.929 . S
C502 C494 1.378 . S
C502 C497 1.349 1_545 S
C503 H490 0.929 . S
C503 C495 1.433 . S
C503 N505 1.384 . S
N504 C500 1.425 1_545 S
N504 C501 1.384 1_554 S
N505 C497 1.428 . S
N505 C503 1.384 . S
H506 C512 0.930 . S
H507 C516 0.930 . S
H508 C521 0.929 . S
H509 C519 0.929 . S
H510 C514 0.929 . S
H511 C520 0.929 . S
C512 H506 0.930 . S
C512 C513 1.367 . S
C512 C520 1.378 . S
C513 C512 1.367 . S
C513 C521 1.433 . S
C514 H510 0.929 . S
C514 C516 1.378 . S
C514 C518 1.350 1_556 S
C515 C518 1.463 . S
C515 C520 1.350 . S
C515 N523 1.427 . S
C516 H507 0.930 . S
C516 C514 1.378 . S
C516 C517 1.367 . S
C517 C516 1.367 . S
C517 C519 1.433 . S
C518 C514 1.350 1_554 S
C518 C515 1.463 . S
C518 N522 1.427 . S
C519 H509 0.929 . S
C519 C517 1.433 . S
C519 N522 1.384 1_556 S
C520 H511 0.929 . S
C520 C512 1.378 . S
C520 C515 1.350 . S
C521 H508 0.929 . S
C521 C513 1.433 . S
C521 N523 1.384 . S
N522 C518 1.427 . S
N522 C519 1.384 1_554 S
N523 C515 1.427 . S
N523 C521 1.384 . S
H524 C530 0.930 . S
H525 C534 0.930 . S
H526 C539 0.929 . S
H527 C537 0.929 . S
H528 C532 0.929 . S
H529 C538 0.929 . S
C530 H524 0.930 . S
C530 C531 1.367 . S
C530 C538 1.378 . S
C531 C530 1.367 . S
C531 C539 1.433 . S
C532 H528 0.929 . S
C532 C534 1.378 . S
C532 C536 1.350 1_556 S
C533 C536 1.463 . S
C533 C538 1.350 . S
C533 N541 1.427 . S
C534 H525 0.930 . S
C534 C532 1.378 . S
C534 C535 1.367 . S
C535 C534 1.367 . S
C535 C537 1.433 . S
C536 C532 1.350 1_554 S
C536 C533 1.463 . S
C536 N540 1.427 . S
C537 H527 0.929 . S
C537 C535 1.433 . S
C537 N540 1.384 1_556 S
C538 H529 0.929 . S
C538 C530 1.378 . S
C538 C533 1.350 . S
C539 H526 0.929 . S
C539 C531 1.433 . S
C539 N541 1.384 . S
N540 C536 1.427 . S
N540 C537 1.384 1_554 S
N541 C533 1.427 . S
N541 C539 1.384 . S
H542 C548 0.930 . S
H543 C552 0.930 . S
H544 C557 0.929 . S
H545 C555 0.929 . S
H546 C550 0.929 . S
H547 C556 0.929 . S
C548 H542 0.930 . S
C548 C549 1.368 1_455 S
C548 C556 1.378 . S
C549 C548 1.368 1_655 S
C549 C557 1.432 . S
C550 H546 0.929 . S
C550 C552 1.378 1_554 S
C550 C554 1.350 . S
C551 C554 1.464 . S
C551 C556 1.339 1_655 S
C551 N559 1.438 . S
C552 H543 0.930 . S
C552 C550 1.378 1_556 S
C552 C553 1.367 . S
C553 C552 1.367 . S
C553 C555 1.433 1_655 S
C554 C550 1.350 . S
C554 C551 1.464 . S
C554 N558 1.427 1_654 S
C555 H545 0.929 . S
C555 C553 1.433 1_455 S
C555 N558 1.384 . S
C556 H547 0.929 . S
C556 C548 1.378 . S
C556 C551 1.339 1_455 S
C557 H544 0.929 . S
C557 C549 1.432 . S
C557 N559 1.384 . S
N558 C554 1.427 1_456 S
N558 C555 1.384 . S
N559 C551 1.438 . S
N559 C557 1.384 . S
H560 C566 0.930 . S
H561 C570 0.930 . S
H562 C575 0.929 . S
H563 C573 0.929 . S
H564 C568 0.929 . S
H565 C574 0.929 . S
C566 H560 0.930 . S
C566 C567 1.367 . S
C566 C574 1.378 . S
C567 C566 1.367 . S
C567 C575 1.433 1_455 S
C568 H564 0.929 . S
C568 C570 1.378 . S
C568 C572 1.350 . S
C569 C572 1.463 . S
C569 C574 1.350 1_655 S
C569 N577 1.427 . S
C570 H561 0.930 . S
C570 C568 1.378 . S
C570 C571 1.367 . S
C571 C570 1.367 . S
C571 C573 1.433 . S
C572 C568 1.350 . S
C572 C569 1.463 . S
C572 N576 1.427 . S
C573 H563 0.929 . S
C573 C571 1.433 . S
C573 N576 1.384 . S
C574 H565 0.929 . S
C574 C566 1.378 . S
C574 C569 1.350 1_455 S
C575 H562 0.929 . S
C575 C567 1.433 1_655 S
C575 N577 1.384 . S
N576 C572 1.427 . S
N576 C573 1.384 . S
N577 C569 1.427 . S
N577 C575 1.384 . S
H578 C584 0.930 . S
H579 C588 0.930 . S
H580 C593 0.929 . S
H581 C591 0.929 . S
H582 C586 0.929 . S
H583 C592 0.929 . S
C584 H578 0.930 . S
C584 C585 1.367 . S
C584 C592 1.378 . S
C585 C584 1.367 . S
C585 C593 1.433 1_545 S
C586 H582 0.929 . S
C586 C588 1.378 . S
C586 C590 1.350 . S
C587 C590 1.463 . S
C587 C592 1.350 1_565 S
C587 N595 1.427 . S
C588 H579 0.930 . S
C588 C586 1.378 . S
C588 C589 1.367 . S
C589 C588 1.367 . S
C589 C591 1.433 . S
C590 C586 1.350 . S
C590 C587 1.463 . S
C590 N594 1.427 . S
C591 H581 0.929 . S
C591 C589 1.433 . S
C591 N594 1.384 . S
C592 H583 0.929 . S
C592 C584 1.378 . S
C592 C587 1.350 1_545 S
C593 H580 0.929 . S
C593 C585 1.433 1_565 S
C593 N595 1.384 . S
N594 C590 1.427 . S
N594 C591 1.384 . S
N595 C587 1.427 . S
N595 C593 1.384 . S
H596 C602 0.930 . S
H597 C606 0.930 . S
H598 C611 0.929 . S
H599 C609 0.929 . S
H600 C604 0.929 . S
H601 C610 0.929 . S
C602 H596 0.930 . S
C602 C603 1.367 . S
C602 C610 1.378 . S
C603 C602 1.367 . S
C603 C611 1.433 . S
C604 H600 0.929 . S
C604 C606 1.378 . S
C604 C608 1.350 . S
C605 C608 1.463 . S
C605 C610 1.350 . S
C605 N613 1.427 . S
C606 H597 0.930 . S
C606 C604 1.378 . S
C606 C607 1.367 . S
C607 C606 1.367 . S
C607 C609 1.433 . S
C608 C604 1.350 . S
C608 C605 1.463 . S
C608 N612 1.427 . S
C609 H599 0.929 . S
C609 C607 1.433 . S
C609 N612 1.384 . S
C610 H601 0.929 . S
C610 C602 1.378 . S
C610 C605 1.350 . S
C611 H598 0.929 . S
C611 C603 1.433 . S
C611 N613 1.384 . S
N612 C608 1.427 . S
N612 C609 1.384 . S
N613 C605 1.427 . S
N613 C611 1.384 . S
H614 C620 0.930 . S
H615 C624 0.930 . S
H616 C629 0.929 . S
H617 C627 0.929 . S
H618 C622 0.929 . S
H619 C628 0.929 . S
C620 H614 0.930 . S
C620 C621 1.367 . S
C620 C628 1.378 . S
C621 C620 1.367 . S
C621 C629 1.433 . S
C622 H618 0.929 . S
C622 C624 1.378 . S
C622 C626 1.350 . S
C623 C626 1.463 . S
C623 C628 1.350 . S
C623 N631 1.427 . S
C624 H615 0.930 . S
C624 C622 1.378 . S
C624 C625 1.367 . S
C625 C624 1.367 . S
C625 C627 1.433 . S
C626 C622 1.350 . S
C626 C623 1.463 . S
C626 N630 1.427 . S
C627 H617 0.929 . S
C627 C625 1.433 . S
C627 N630 1.384 . S
C628 H619 0.929 . S
C628 C620 1.378 . S
C628 C623 1.350 . S
C629 H616 0.929 . S
C629 C621 1.433 . S
C629 N631 1.384 . S
N630 C626 1.427 . S
N630 C627 1.384 . S
N631 C623 1.427 . S
N631 C629 1.384 . S
H632 C638 0.930 . S
H633 C642 0.930 . S
H634 C647 0.929 . S
H635 C645 0.929 . S
H636 C640 0.929 . S
H637 C646 0.929 . S
C638 H632 0.930 . S
C638 C639 1.367 1_455 S
C638 C646 1.378 . S
C639 C638 1.367 1_655 S
C639 C647 1.433 . S
C640 H636 0.929 . S
C640 C642 1.378 . S
C640 C644 1.350 1_556 S
C641 C644 1.463 . S
C641 C646 1.350 . S
C641 N649 1.431 . S
C642 H633 0.930 . S
C642 C640 1.378 . S
C642 C643 1.367 . S
C643 C642 1.367 . S
C643 C645 1.433 1_556 S
C644 C640 1.350 1_554 S
C644 C641 1.463 . S
C644 N648 1.427 . S
C645 H635 0.929 . S
C645 C643 1.433 1_554 S
C645 N648 1.384 . S
C646 H637 0.929 . S
C646 C638 1.378 . S
C646 C641 1.350 . S
C647 H634 0.929 . S
C647 C639 1.433 . S
C647 N649 1.381 1_655 S
N648 C644 1.427 . S
N648 C645 1.384 . S
N649 C641 1.431 . S
N649 C647 1.381 1_455 S
H650 C656 0.930 . S
H651 C660 0.930 . S
H652 C665 0.929 . S
H653 C663 0.929 1_556 S
H654 C658 0.929 . S
H655 C664 0.929 . S
C656 H650 0.930 . S
C656 C657 1.367 . S
C656 C664 1.378 . S
C657 C656 1.367 . S
C657 C665 1.433 1_565 S
C658 H654 0.929 . S
C658 C660 1.378 . S
C658 C662 1.350 . S
C659 C662 1.463 . S
C659 C664 1.350 1_545 S
C659 N667 1.427 . S
C660 H651 0.930 . S
C660 C658 1.378 . S
C660 C661 1.367 1_554 S
C661 C660 1.367 1_556 S
C661 C663 1.433 1_556 S
C662 C658 1.350 . S
C662 C659 1.463 . S
C662 N666 1.427 . S
C663 H653 0.929 1_554 S
C663 C661 1.433 1_554 S
C663 N666 1.384 . S
C664 H655 0.929 . S
C664 C656 1.378 . S
C664 C659 1.350 1_565 S
C665 H652 0.929 . S
C665 C657 1.433 1_545 S
C665 N667 1.384 . S
N666 C662 1.427 . S
N666 C663 1.384 . S
N667 C659 1.427 . S
N667 C665 1.384 . S
H668 C674 0.930 . S
H669 C678 0.930 . S
H670 C683 0.929 . S
H671 C681 0.929 . S
H672 C676 0.924 1_556 S
H673 C682 0.929 . S
C674 H668 0.930 . S
C674 C675 1.367 . S
C674 C682 1.378 . S
C675 C674 1.367 . S
C675 C683 1.433 . S
C676 H672 0.924 1_554 S
C676 C678 1.372 1_554 S
C676 C680 1.361 . S
C677 C680 1.463 . S
C677 C682 1.350 . S
C677 N685 1.427 . S
C678 H669 0.930 . S
C678 C676 1.372 1_556 S
C678 C679 1.367 . S
C679 C678 1.367 . S
C679 C681 1.433 1_556 S
C680 C676 1.361 . S
C680 C677 1.463 . S
C680 N684 1.427 . S
C681 H671 0.929 . S
C681 C679 1.433 1_554 S
C681 N684 1.384 . S
C682 H673 0.929 . S
C682 C674 1.378 . S
C682 C677 1.350 . S
C683 H670 0.929 . S
C683 C675 1.433 . S
C683 N685 1.384 . S
N684 C680 1.427 . S
N684 C681 1.384 . S
N685 C677 1.427 . S
N685 C683 1.384 . S
H686 C692 0.930 . S
H687 C696 0.930 . S
H688 C701 0.929 . S
H689 C699 0.929 . S
H690 C694 0.929 . S
H691 C700 0.929 . S
C692 H686 0.930 . S
C692 C693 1.367 . S
C692 C700 1.378 . S
C693 C692 1.367 . S
C693 C701 1.433 . S
C694 H690 0.929 . S
C694 C696 1.378 . S
C694 C698 1.350 . S
C695 C698 1.463 . S
C695 C700 1.350 . S
C695 N703 1.427 . S
C696 H687 0.930 . S
C696 C694 1.378 . S
C696 C697 1.367 1_554 S
C697 C696 1.367 1_556 S
C697 C699 1.433 . S
C698 C694 1.350 . S
C698 C695 1.463 . S
C698 N702 1.427 . S
C699 H689 0.929 . S
C699 C697 1.433 . S
C699 N702 1.384 1_556 S
C700 H691 0.929 . S
C700 C692 1.378 . S
C700 C695 1.350 . S
C701 H688 0.929 . S
C701 C693 1.433 . S
C701 N703 1.384 . S
N702 C698 1.427 . S
N702 C699 1.384 1_554 S
N703 C695 1.427 . S
N703 C701 1.384 . S
H704 C710 0.930 . S
H705 C714 0.930 . S
H706 C719 0.929 . S
H707 C717 0.929 . S
H708 C712 0.929 . S
H709 C718 0.929 . S
C710 H704 0.930 . S
C710 C711 1.367 . S
C710 C718 1.378 . S
C711 C710 1.367 . S
C711 C719 1.433 1_455 S
C712 H708 0.929 . S
C712 C714 1.378 . S
C712 C716 1.350 1_655 S
C713 C716 1.463 . S
C713 C718 1.350 . S
C713 N721 1.427 1_455 S
C714 H705 0.930 . S
C714 C712 1.378 . S
C714 C715 1.367 1_655 S
C715 C714 1.367 1_455 S
C715 C717 1.433 . S
C716 C712 1.350 1_455 S
C716 C713 1.463 . S
C716 N720 1.427 . S
C717 H707 0.929 . S
C717 C715 1.433 . S
C717 N720 1.384 . S
C718 H709 0.929 . S
C718 C710 1.378 . S
C718 C713 1.350 . S
C719 H706 0.929 . S
C719 C711 1.433 1_655 S
C719 N721 1.384 . S
N720 C716 1.427 . S
N720 C717 1.384 . S
N721 C713 1.427 1_655 S
N721 C719 1.384 . S
H722 C728 0.930 . S
H723 C732 0.930 . S
H724 C737 0.929 . S
H725 C735 0.929 . S
H726 C730 0.929 . S
H727 C736 0.929 . S
C728 H722 0.930 . S
C728 C729 1.367 . S
C728 C736 1.378 . S
C729 C728 1.367 . S
C729 C737 1.433 . S
C730 H726 0.929 . S
C730 C732 1.378 . S
C730 C734 1.350 . S
C731 C734 1.463 . S
C731 C736 1.350 . S
C731 N739 1.427 . S
C732 H723 0.930 . S
C732 C730 1.378 . S
C732 C733 1.367 . S
C733 C732 1.367 . S
C733 C735 1.433 . S
C734 C730 1.350 . S
C734 C731 1.463 . S
C734 N738 1.427 . S
C735 H725 0.929 . S
C735 C733 1.433 . S
C735 N738 1.384 . S
C736 H727 0.929 . S
C736 C728 1.378 . S
C736 C731 1.350 . S
C737 H724 0.929 . S
C737 C729 1.433 . S
C737 N739 1.384 . S
N738 C734 1.427 . S
N738 C735 1.384 . S
N739 C731 1.427 . S
N739 C737 1.384 . S
H740 C746 0.930 . S
H741 C750 0.930 . S
H742 C755 0.929 . S
H743 C753 0.929 . S
H744 C748 0.929 . S
H745 C754 0.929 . S
C746 H740 0.930 . S
C746 C747 1.367 . S
C746 C754 1.378 . S
C747 C746 1.367 . S
C747 C755 1.433 . S
C748 H744 0.929 . S
C748 C750 1.378 . S
C748 C752 1.350 . S
C749 C752 1.463 . S
C749 C754 1.350 . S
C749 N757 1.427 . S
C750 H741 0.930 . S
C750 C748 1.378 . S
C750 C751 1.367 . S
C751 C750 1.367 . S
C751 C753 1.433 . S
C752 C748 1.350 . S
C752 C749 1.463 . S
C752 N756 1.427 . S
C753 H743 0.929 . S
C753 C751 1.433 . S
C753 N756 1.384 . S
C754 H745 0.929 . S
C754 C746 1.378 . S
C754 C749 1.350 . S
C755 H742 0.929 . S
C755 C747 1.433 . S
C755 N757 1.384 . S
N756 C752 1.427 . S
N756 C753 1.384 . S
N757 C749 1.427 . S
N757 C755 1.384 . S
H758 C764 0.930 . S
H759 C768 0.930 . S
H760 C773 0.929 . S
H761 C771 0.929 . S
H762 C766 0.929 . S
H763 C772 0.929 . S
C764 H758 0.930 . S
C764 C765 1.367 . S
C764 C772 1.378 . S
C765 C764 1.367 . S
C765 C773 1.433 . S
C766 H762 0.929 . S
C766 C768 1.378 . S
C766 C770 1.350 . S
C767 C770 1.463 . S
C767 C772 1.350 . S
C767 N775 1.427 . S
C768 H759 0.930 . S
C768 C766 1.378 . S
C768 C769 1.367 . S
C769 C768 1.367 . S
C769 C771 1.433 . S
C770 C766 1.350 . S
C770 C767 1.463 . S
C770 N774 1.427 . S
C771 H761 0.929 . S
C771 C769 1.433 . S
C771 N774 1.384 . S
C772 H763 0.929 . S
C772 C764 1.378 . S
C772 C767 1.350 . S
C773 H760 0.929 . S
C773 C765 1.433 . S
C773 N775 1.384 . S
N774 C770 1.427 . S
N774 C771 1.384 . S
N775 C767 1.427 . S
N775 C773 1.384 . S
H776 C782 0.930 . S
H777 C786 0.930 . S
H778 C791 0.929 . S
H779 C789 0.929 . S
H780 C784 0.929 . S
H781 C790 0.929 . S
C782 H776 0.930 . S
C782 C783 1.367 . S
C782 C790 1.378 . S
C783 C782 1.367 . S
C783 C791 1.433 . S
C784 H780 0.929 . S
C784 C786 1.378 . S
C784 C788 1.350 . S
C785 C788 1.463 . S
C785 C790 1.350 . S
C785 N793 1.427 . S
C786 H777 0.930 . S
C786 C784 1.378 . S
C786 C787 1.367 . S
C787 C786 1.367 . S
C787 C789 1.433 . S
C788 C784 1.350 . S
C788 C785 1.463 . S
C788 N792 1.427 . S
C789 H779 0.929 . S
C789 C787 1.433 . S
C789 N792 1.384 . S
C790 H781 0.929 . S
C790 C782 1.378 . S
C790 C785 1.350 . S
C791 H778 0.929 . S
C791 C783 1.433 . S
C791 N793 1.384 . S
N792 C788 1.427 . S
N792 C789 1.384 . S
N793 C785 1.427 . S
N793 C791 1.384 . S
H794 C800 0.930 . S
H795 C804 0.930 . S
H796 C809 0.929 . S
H797 C807 0.929 . S
H798 C802 0.929 . S
H799 C808 0.929 . S
C800 H794 0.930 . S
C800 C801 1.367 1_545 S
C800 C808 1.378 . S
C801 C800 1.367 1_565 S
C801 C809 1.433 . S
C802 H798 0.929 . S
C802 C804 1.378 . S
C802 C806 1.350 . S
C803 C806 1.463 . S
C803 C808 1.350 1_565 S
C803 N811 1.427 . S
C804 H795 0.930 . S
C804 C802 1.378 . S
C804 C805 1.367 . S
C805 C804 1.367 . S
C805 C807 1.433 1_565 S
C806 C802 1.350 . S
C806 C803 1.463 . S
C806 N810 1.427 1_565 S
C807 H797 0.929 . S
C807 C805 1.433 1_545 S
C807 N810 1.384 . S
C808 H799 0.929 . S
C808 C800 1.378 . S
C808 C803 1.350 1_545 S
C809 H796 0.929 . S
C809 C801 1.433 . S
C809 N811 1.384 . S
N810 C806 1.427 1_545 S
N810 C807 1.384 . S
N811 C803 1.427 . S
N811 C809 1.384 . S
H812 C818 0.930 . S
H813 C822 0.930 . S
H814 C827 0.929 . S
H815 C825 0.929 . S
H816 C820 0.929 . S
H817 C826 0.929 . S
C818 H812 0.930 . S
C818 C819 1.367 . S
C818 C826 1.378 . S
C819 C818 1.367 . S
C819 C827 1.433 . S
C820 H816 0.929 . S
C820 C822 1.378 . S
C820 C824 1.350 . S
C821 C824 1.463 . S
C821 C826 1.350 . S
C821 N829 1.427 . S
C822 H813 0.930 . S
C822 C820 1.378 . S
C822 C823 1.367 . S
C823 C822 1.367 . S
C823 C825 1.433 . S
C824 C820 1.350 . S
C824 C821 1.463 . S
C824 N828 1.427 . S
C825 H815 0.929 . S
C825 C823 1.433 . S
C825 N828 1.384 . S
C826 H817 0.929 . S
C826 C818 1.378 . S
C826 C821 1.350 . S
C827 H814 0.929 . S
C827 C819 1.433 . S
C827 N829 1.384 . S
N828 C824 1.427 . S
N828 C825 1.384 . S
N829 C821 1.427 . S
N829 C827 1.384 . S
H830 C836 0.930 . S
H831 C840 0.930 . S
H832 C845 0.929 . S
H833 C843 0.929 . S
H834 C838 0.929 . S
H835 C844 0.929 . S
C836 H830 0.930 . S
C836 C837 1.367 . S
C836 C844 1.378 . S
C837 C836 1.367 . S
C837 C845 1.433 . S
C838 H834 0.929 . S
C838 C840 1.378 . S
C838 C842 1.350 . S
C839 C842 1.463 . S
C839 C844 1.350 . S
C839 N847 1.427 . S
C840 H831 0.930 . S
C840 C838 1.378 . S
C840 C841 1.367 . S
C841 C840 1.367 . S
C841 C843 1.433 . S
C842 C838 1.350 . S
C842 C839 1.463 . S
C842 N846 1.427 . S
C843 H833 0.929 . S
C843 C841 1.433 . S
C843 N846 1.384 . S
C844 H835 0.929 . S
C844 C836 1.378 . S
C844 C839 1.350 . S
C845 H832 0.929 . S
C845 C837 1.433 . S
C845 N847 1.384 . S
N846 C842 1.427 . S
N846 C843 1.384 . S
N847 C839 1.427 . S
N847 C845 1.384 . S
C423 C215 2.018 1_565 S
C427 C265 2.189 1_545 S
C445 C305 2.198 . S
C441 C247 2.013 . S
C463 C345 2.202 . S
C459 C151 2.028 . S
C481 C385 2.194 1_455 S
C477 C183 2.032 . S
C499 C274 2.192 1_565 S
C495 C87 2.032 1_565 S
C513 C119 2.046 . S
C517 C314 2.202 . S
C531 C23 2.043 . S
C535 C354 2.206 . S
C549 C55 2.020 1_655 S
C553 C394 2.193 1_655 S
C571 C271 0.498 . S
C567 C189 0.389 . S
C589 C311 0.496 . S
C585 C221 0.402 . S
C607 C351 0.474 . S
C603 C253 0.390 . S
C621 C157 0.392 . S
C625 C391 0.486 . S
C639 C61 0.537 1_655 S
C643 C262 0.462 . S
C661 C302 0.499 . S
C657 C93 0.573 1_565 S
C679 C342 0.456 . S
C675 C125 0.523 . S
C693 C29 0.572 . S
C697 C382 0.495 . S
C711 C177 2.521 . S
C715 C275 2.819 . S
C729 C209 2.503 . S
C733 C315 2.804 . S
C751 C355 2.793 . S
C747 C241 2.487 . S
C769 C395 2.816 . S
C765 C145 2.490 . S
C783 C49 2.540 1_655 S
C787 C266 2.832 . S
C805 C306 2.808 . S
C801 C81 2.525 1_565 S
C823 C346 2.794 . S
C819 C113 2.516 . S
C837 C17 2.537 . S
C841 C386 2.821 . S
