# Generated by pormake.
# Topology ssa, (4,4)-cn, num edge types: 1
# Building blocks:
#     Node 0, Type 0, BuildingBlock: KOZSID_clean_sbu_0, # of connection points: 4
#     Node 1, Type 0, BuildingBlock: KOZSID_clean_sbu_0, # of connection points: 4
#     Node 2, Type 0, BuildingBlock: KOZSID_clean_sbu_0, # of connection points: 4
#     Node 3, Type 0, BuildingBlock: KOZSID_clean_sbu_0, # of connection points: 4
#     Node 4, Type 0, BuildingBlock: KOZSID_clean_sbu_0, # of connection points: 4
#     Node 5, Type 0, BuildingBlock: KOZSID_clean_sbu_0, # of connection points: 4
#     Node 6, Type 1, BuildingBlock: KUFVIS_clean_linker_0, # of connection points: 4
#     Node 7, Type 1, BuildingBlock: KUFVIS_clean_linker_0, # of connection points: 4
#     Node 8, Type 1, BuildingBlock: KUFVIS_clean_linker_0, # of connection points: 4
#     Node 9, Type 1, BuildingBlock: KUFVIS_clean_linker_0, # of connection points: 4
#     Node 10, Type 1, BuildingBlock: KUFVIS_clean_linker_0, # of connection points: 4
#     Node 11, Type 1, BuildingBlock: KUFVIS_clean_linker_0, # of connection points: 4
#     Edge 12, Type (0, 1), BuildingBlock: EZIPEK_clean_linker_0, # of connection points: 2
#     Edge 13, Type (0, 1), BuildingBlock: EZIPEK_clean_linker_0, # of connection points: 2
#     Edge 14, Type (0, 1), BuildingBlock: EZIPEK_clean_linker_0, # of connection points: 2
#     Edge 15, Type (0, 1), BuildingBlock: EZIPEK_clean_linker_0, # of connection points: 2
#     Edge 16, Type (0, 1), BuildingBlock: EZIPEK_clean_linker_0, # of connection points: 2
#     Edge 17, Type (0, 1), BuildingBlock: EZIPEK_clean_linker_0, # of connection points: 2
#     Edge 18, Type (0, 1), BuildingBlock: EZIPEK_clean_linker_0, # of connection points: 2
#     Edge 19, Type (0, 1), BuildingBlock: EZIPEK_clean_linker_0, # of connection points: 2
#     Edge 20, Type (0, 1), BuildingBlock: EZIPEK_clean_linker_0, # of connection points: 2
#     Edge 21, Type (0, 1), BuildingBlock: EZIPEK_clean_linker_0, # of connection points: 2
#     Edge 22, Type (0, 1), BuildingBlock: EZIPEK_clean_linker_0, # of connection points: 2
#     Edge 23, Type (0, 1), BuildingBlock: EZIPEK_clean_linker_0, # of connection points: 2
#     Edge 24, Type (0, 1), BuildingBlock: EZIPEK_clean_linker_0, # of connection points: 2
#     Edge 25, Type (0, 1), BuildingBlock: EZIPEK_clean_linker_0, # of connection points: 2
#     Edge 26, Type (0, 1), BuildingBlock: EZIPEK_clean_linker_0, # of connection points: 2
#     Edge 27, Type (0, 1), BuildingBlock: EZIPEK_clean_linker_0, # of connection points: 2
#     Edge 28, Type (0, 1), BuildingBlock: EZIPEK_clean_linker_0, # of connection points: 2
#     Edge 29, Type (0, 1), BuildingBlock: EZIPEK_clean_linker_0, # of connection points: 2
#     Edge 30, Type (0, 1), BuildingBlock: EZIPEK_clean_linker_0, # of connection points: 2
#     Edge 31, Type (0, 1), BuildingBlock: EZIPEK_clean_linker_0, # of connection points: 2
#     Edge 32, Type (0, 1), BuildingBlock: EZIPEK_clean_linker_0, # of connection points: 2
#     Edge 33, Type (0, 1), BuildingBlock: EZIPEK_clean_linker_0, # of connection points: 2
#     Edge 34, Type (0, 1), BuildingBlock: EZIPEK_clean_linker_0, # of connection points: 2
#     Edge 35, Type (0, 1), BuildingBlock: EZIPEK_clean_linker_0, # of connection points: 2
# Relax obj value: 0.007
# Max RMSD: 0.055
# Mean RMSD: 0.031
data_MOF--net-ssa--node1-KOZSID_clean_sbu_0--node2-KUFVIS_clean_linker_0--edge1-EZIPEK_clean_linker_0
_symmetry_space_group_name_H-M    P1
_symmetry_Int_Tables_number       1
_symmetry_cell_setting            triclinic
loop_
_symmetry_equiv_pos_as_xyz
'x, y, z'
_cell_length_a     44.413217
_cell_length_b     45.702896
_cell_length_c     24.927271
_cell_angle_alpha  86.518243
_cell_angle_beta   89.752576
_cell_angle_gamma 122.87476
loop_
_atom_site_label
_atom_site_type_symbol
_atom_site_fract_x
_atom_site_fract_y
_atom_site_fract_z
_atom_type_partial_charge
C0 C 0.94116 0.50428 0.02968 0.0
C1 C 0.91477 0.49553 0.06891 0.0
C2 C 0.92028 0.47884 0.11122 0.0
C3 C 0.94965 0.47842 0.09552 0.0
N4 N 0.96369 0.49435 0.04609 0.0
Co5 Co 1.00587 0.49856 0.00735 0.0
N6 N 0.01326 0.47297 0.06891 0.0
C7 C 0.99311 0.45922 0.11538 0.0
C8 C 1.00642 0.4461 0.15226 0.0
C9 C 0.03731 0.45239 0.12844 0.0
C10 C 0.04101 0.46888 0.07794 0.0
N11 N 0.04781 0.50243 0.96846 0.0
C12 C 0.0712 0.49384 0.98588 0.0
C13 C 0.09703 0.50163 0.94624 0.0
C14 C 0.0904 0.51662 0.90269 0.0
C15 C 0.06092 0.51697 0.91809 0.0
N16 N 0.99887 0.52464 0.94609 0.0
C17 C 0.01908 0.53839 0.89966 0.0
C18 C 1.00707 0.55352 0.8641 0.0
C19 C 0.97721 0.54892 0.889 0.0
C20 C 0.97269 0.53123 0.93867 0.0
N21 N 0.03947 0.5434 0.04003 0.0
C22 C 0.09207 0.60305 0.09011 0.0
C23 C 0.09547 0.60017 0.03533 0.0
C24 C 0.06874 0.5706 0.01106 0.0
C25 C 0.06123 0.57647 0.1189 0.0
C26 C 0.03555 0.54705 0.09337 0.0
N27 N 0.97231 0.45356 0.97456 0.0
C28 C 0.95035 0.42058 0.89554 0.0
C29 C 0.92195 0.39208 0.92565 0.0
C30 C 0.91946 0.39434 0.98091 0.0
C31 C 0.94496 0.425 0.00447 0.0
C32 C 0.97492 0.45075 0.92048 0.0
H33 H 0.94166 0.42514 0.04677 0.0
H34 H 0.9954 0.47165 0.89479 0.0
H35 H 0.07282 0.56992 0.96912 0.0
H36 H 0.01322 0.5272 0.118 0.0
C37 C 0.96419 0.46255 0.12557 0.0
C38 C 0.94228 0.52008 0.97634 0.0
C39 C 0.0722 0.48166 0.04106 0.0
C40 C 0.04712 0.5338 0.88856 0.0
H41 H 0.89324 0.50002 0.06657 0.0
H42 H 0.90433 0.46769 0.14854 0.0
H43 H 0.99588 0.43485 0.19271 0.0
H44 H 0.05554 0.4465 0.14706 0.0
H45 H 0.11928 0.49826 0.94945 0.0
H46 H 0.1062 0.52745 0.86521 0.0
H47 H 0.01797 0.56537 0.82401 0.0
H48 H 0.96021 0.55696 0.87192 0.0
H49 H 0.11889 0.62044 0.01154 0.0
H50 H 0.05757 0.57787 0.16146 0.0
H51 H 0.95309 0.41987 0.85249 0.0
H52 H 0.89771 0.37273 0.00562 0.0
C53 C 0.56473 0.04271 0.57906 0.0
C54 C 0.56912 0.0396 0.63375 0.0
C55 C 0.53611 0.01473 0.65637 0.0
C56 C 0.51357 1.0038 0.6143 0.0
N57 N 0.53027 0.0195 0.56608 0.0
Co58 Co 0.50668 0.01107 0.49529 0.0
N59 N 0.46029 0.97048 0.52762 0.0
C60 C 0.45104 0.96225 0.58045 0.0
C61 C 0.41716 0.93308 0.59074 0.0
C62 C 0.40417 0.9221 0.54127 0.0
C63 C 0.43106 0.94524 0.50362 0.0
N64 N 0.48308 1.00258 0.42515 0.0
C65 C 0.45246 0.97392 0.40979 0.0
C66 C 0.4467 0.97826 0.356 0.0
C67 C 0.4745 0.01086 0.3373 0.0
C68 C 0.49573 0.0245 0.3804 0.0
N69 N 0.55336 0.05214 0.46324 0.0
C70 C 0.55807 0.06806 0.41374 0.0
C71 C 0.59198 0.09706 0.40322 0.0
C72 C 0.60973 0.10044 0.44944 0.0
C73 C 0.58558 0.07318 0.48573 0.0
N74 N 0.52182 0.97883 0.47849 0.0
C75 C 0.53004 0.92543 0.44471 0.0
C76 C 0.54154 0.95578 0.41142 0.0
C77 C 0.5371 0.98193 0.42884 0.0
C78 C 0.51627 0.9233 0.49656 0.0
C79 C 0.51288 0.95041 0.51289 0.0
N80 N 0.49036 0.04253 0.51092 0.0
C81 C 0.5029 0.09607 0.54551 0.0
C82 C 0.46683 0.08514 0.54429 0.0
C83 C 0.44308 0.05346 0.52163 0.0
C84 C 0.45527 0.03235 0.50596 0.0
C85 C 0.51403 0.07502 0.52732 0.0
H86 H 0.43617 0.00773 0.4903 0.0
H87 H 0.54191 0.0853 0.52682 0.0
H88 H 0.54453 1.00383 0.40078 0.0
H89 H 0.50147 0.94748 0.55257 0.0
C90 C 0.4768 0.97865 0.61861 0.0
C91 C 0.5924 0.07201 0.54336 0.0
C92 C 0.42756 0.94291 0.44549 0.0
C93 C 0.53026 0.05463 0.37794 0.0
H94 H 0.59329 0.0552 0.65531 0.0
H95 H 0.52924 0.00622 0.69862 0.0
H96 H 0.4041 0.92038 0.62956 0.0
H97 H 0.37812 0.89946 0.5337 0.0
H98 H 0.42488 0.95977 0.33256 0.0
H99 H 0.4795 0.02251 0.2965 0.0
H100 H 0.60232 0.11422 0.36674 0.0
H101 H 0.63676 0.12161 0.4566 0.0
H102 H 0.55232 0.95852 0.37105 0.0
H103 H 0.50718 0.90035 0.52371 0.0
H104 H 0.52258 0.12087 0.5608 0.0
H105 H 0.4151 0.04449 0.51795 0.0
C106 C 0.57572 0.54316 0.93143 0.0
C107 C 0.5896 0.55823 0.87992 0.0
C108 C 0.56147 0.5533 0.85064 0.0
C109 C 0.53212 0.53587 0.88581 0.0
N110 N 0.5399 0.53005 0.93603 0.0
Co111 Co 0.50425 0.50455 0.99807 0.0
N112 N 0.4657 0.50503 0.95827 0.0
C113 C 0.46564 0.51123 0.90485 0.0
C114 C 0.435 0.50911 0.88883 0.0
C115 C 0.4145 0.5012 0.93517 0.0
C116 C 0.43403 0.49912 0.9768 0.0
N117 N 0.46875 0.47946 0.05946 0.0
C118 C 0.43784 0.47779 0.07027 0.0
C119 C 0.42243 0.45989 0.11985 0.0
C120 C 0.44434 0.44979 0.14028 0.0
C121 C 0.47196 0.46223 0.10243 0.0
N122 N 0.54306 0.50361 0.03738 0.0
C123 C 0.53788 0.48372 0.08301 0.0
C124 C 0.56853 0.48615 0.09959 0.0
C125 C 0.59464 0.50825 0.06139 0.0
C126 C 0.57844 0.51814 0.0234 0.0
N127 N 0.51816 0.5492 0.02817 0.0
C128 C 0.51958 0.60341 0.07932 0.0
C129 C 0.52527 0.57966 0.10799 0.0
C130 C 0.52438 0.55289 0.0819 0.0
C131 C 0.51588 0.60107 0.02357 0.0
C132 C 0.51576 0.57411 0.99869 0.0
N133 N 0.4887 0.45916 0.96938 0.0
C134 C 0.50411 0.42271 0.92675 0.0
C135 C 0.46796 0.39706 0.92051 0.0
C136 C 0.44216 0.40219 0.94276 0.0
C137 C 0.45306 0.43363 0.96604 0.0
C138 C 0.51358 0.45261 0.95269 0.0
H139 H 0.4326 0.43727 0.9811 0.0
H140 H 0.54105 0.47033 0.95963 0.0
H141 H 0.52668 0.53402 0.10626 0.0
H142 H 0.51168 0.57236 0.95611 0.0
C143 C 0.49716 0.52533 0.87331 0.0
C144 C 0.59626 0.53668 0.97107 0.0
C145 C 0.42195 0.49172 0.03345 0.0
C146 C 0.50429 0.46452 0.11046 0.0
H147 H 0.61686 0.56976 0.86436 0.0
H148 H 0.56223 0.56094 0.80844 0.0
H149 H 0.4291 0.51451 0.84872 0.0
H150 H 0.38857 0.49805 0.93824 0.0
H151 H 0.39822 0.45499 0.1396 0.0
H152 H 0.4415 0.43673 0.17944 0.0
H153 H 0.57147 0.47306 0.13491 0.0
H154 H 0.62211 0.51509 0.06028 0.0
H155 H 0.5287 0.5808 0.15098 0.0
H156 H 0.51193 0.61923 0.99972 0.0
H157 H 0.5251 0.41963 0.91181 0.0
H158 H 0.41382 0.3826 0.94048 0.0
C159 C 0.94738 0.44042 0.49961 0.0
C160 C 0.92034 0.42113 0.46481 0.0
C161 C 0.925 0.44364 0.42225 0.0
C162 C 0.95451 0.47524 0.43344 0.0
N163 N 0.96941 0.47423 0.48017 0.0
Co164 Co 0.01199 0.51467 0.51246 0.0
N165 N 0.01893 0.54777 0.44974 0.0
C166 C 0.99867 0.54002 0.40606 0.0
C167 C 0.01188 0.5671 0.36718 0.0
C168 C 0.04284 0.59357 0.3866 0.0
C169 C 0.04664 0.58115 0.43669 0.0
N170 N 0.05401 0.55527 0.54532 0.0
C171 C 0.07701 0.58861 0.52464 0.0
C172 C 0.10282 0.60851 0.56064 0.0
C173 C 0.09649 0.58671 0.60522 0.0
C174 C 0.06719 0.55495 0.59398 0.0
N175 N 1.00582 0.48141 0.57442 0.0
C176 C 0.0266 0.48914 0.61752 0.0
C177 C 0.01545 0.46118 0.65411 0.0
C178 C 0.98566 0.43397 0.63337 0.0
C179 C 0.98031 0.44693 0.58503 0.0
N180 N 0.04508 0.50517 0.47461 0.0
C181 C 0.0962 0.49976 0.41639 0.0
C182 C 0.10098 0.50768 0.47009 0.0
C183 C 0.07497 0.50971 0.49854 0.0
C184 C 0.06484 0.49312 0.39293 0.0
C185 C 0.03989 0.49608 0.42243 0.0
N186 N 0.97892 0.52443 0.55033 0.0
C187 C 0.95689 0.53361 0.63268 0.0
C188 C 0.93069 0.53561 0.60543 0.0
C189 C 0.92914 0.53246 0.55004 0.0
C190 C 0.95341 0.527 0.52344 0.0
C191 C 0.9805 0.52806 0.60468 0.0
H192 H 0.95075 0.52462 0.48126 0.0
H193 H 0.99951 0.52643 0.62815 0.0
H194 H 0.0801 0.51595 0.53939 0.0
H195 H 0.01705 0.49172 0.4017 0.0
C196 C 0.96916 0.50622 0.40068 0.0
C197 C 0.94971 0.42582 0.55199 0.0
C198 C 0.07784 0.60137 0.46922 0.0
C199 C 0.05418 0.52355 0.62507 0.0
H200 H 0.89907 0.39375 0.47021 0.0
H201 H 0.90862 0.43775 0.38753 0.0
H202 H 1.00111 0.5671 0.3283 0.0
H203 H 0.06102 0.61875 0.3654 0.0
H204 H 0.12492 0.63551 0.55416 0.0
H205 H 0.11245 0.59285 0.64044 0.0
H206 H 0.02688 0.46089 0.69225 0.0
H207 H 0.96925 0.40777 0.6524 0.0
H208 H 0.12491 0.51276 0.48972 0.0
H209 H 0.06018 0.48677 0.35136 0.0
H210 H 0.95882 0.53583 0.67575 0.0
H211 H 0.90905 0.53379 0.52756 0.0
C212 C 0.45452 0.97728 0.08652 0.0
C213 C 0.4481 0.98276 0.13834 0.0
C214 C 0.47866 0.01245 0.15217 0.0
C215 C 0.50188 0.02329 0.10822 0.0
N216 N 0.48782 1.00278 0.06669 0.0
Co217 Co 0.51345 0.00739 0.99706 0.0
N218 N 0.55921 0.05014 0.01805 0.0
C219 C 0.56405 0.06638 0.06381 0.0
C220 C 0.59437 0.09936 0.06173 0.0
C221 C 0.60977 0.10464 0.01166 0.0
C222 C 0.58863 0.07396 0.98637 0.0
N223 N 0.53933 0.01091 0.92886 0.0
C224 C 0.57469 0.03229 0.91489 0.0
C225 C 0.58363 0.02126 0.8702 0.0
C226 C 0.5523 0.99378 0.85308 0.0
C227 C 0.52627 0.98882 0.88916 0.0
N228 N 0.46754 0.96559 0.97471 0.0
C229 C 0.46151 0.95151 0.92664 0.0
C230 C 0.42753 0.92253 0.92347 0.0
C231 C 0.41101 0.9176 0.97256 0.0
C232 C 0.43595 0.94394 0.00296 0.0
N233 N 0.49941 0.03877 0.9636 0.0
C234 C 0.48838 0.08892 0.91339 0.0
C235 C 0.48555 0.06228 0.88478 0.0
C236 C 0.49102 0.03753 0.91055 0.0
C237 C 0.49531 0.08936 0.9678 0.0
C238 C 0.50027 0.064 0.99206 0.0
N239 N 0.5277 0.97622 0.03021 0.0
C240 C 0.53157 0.92554 0.0265 0.0
C241 C 0.54295 0.92877 0.07895 0.0
C242 C 0.54865 0.95726 0.1057 0.0
C243 C 0.54153 0.98094 0.08032 0.0
C244 C 0.52313 0.94869 0.00378 0.0
H245 H 0.5467 1.00244 0.10223 0.0
H246 H 0.51204 0.94306 0.96532 0.0
H247 H 0.48936 0.01826 0.88641 0.0
H248 H 0.50548 0.06588 0.03367 0.0
C249 C 0.5371 0.05242 0.10458 0.0
C250 C 0.42899 0.94629 0.05929 0.0
C251 C 0.59762 0.06764 0.93316 0.0
C252 C 0.48969 0.96273 0.88864 0.0
H253 H 0.42409 0.9665 0.16391 0.0
H254 H 0.48359 0.02433 0.19009 0.0
H255 H 0.60306 0.1182 0.09179 0.0
H256 H 0.63341 0.12881 0.9957 0.0
H257 H 0.60967 0.03366 0.84954 0.0
H258 H 0.54888 0.97944 0.81818 0.0
H259 H 0.41665 0.90592 0.89037 0.0
H260 H 0.38403 0.89645 0.98517 0.0
H261 H 0.48 0.06108 0.84241 0.0
H262 H 0.49732 0.10947 0.99134 0.0
H263 H 0.52717 0.90395 0.00435 0.0
H264 H 0.55809 0.96094 0.14626 0.0
C265 C 0.51634 0.57609 0.51238 0.0
C266 C 0.4977 0.58755 0.53962 0.0
C267 C 0.48055 0.56457 0.58345 0.0
C268 C 0.48841 0.53964 0.57971 0.0
N269 N 0.50994 0.5455 0.53643 0.0
Co270 Co 0.51669 0.50988 0.50488 0.0
N271 N 0.48589 0.47313 0.56341 0.0
C272 C 0.47109 0.47745 0.60724 0.0
C273 C 0.45504 0.44903 0.64399 0.0
C274 C 0.46072 0.42543 0.623 0.0
C275 C 0.47978 0.44081 0.57425 0.0
N276 N 0.52142 0.474 0.47033 0.0
C277 C 0.5093 0.44055 0.48765 0.0
C278 C 0.51802 0.42447 0.45081 0.0
C279 C 0.53707 0.44895 0.40917 0.0
C280 C 0.5387 0.47841 0.42279 0.0
N281 N 0.5498 0.54716 0.44921 0.0
C282 C 0.5696 0.54464 0.41084 0.0
C283 C 0.59518 0.57628 0.38549 0.0
C284 C 0.59079 0.60022 0.40857 0.0
C285 C 0.56194 0.58155 0.44567 0.0
N286 N 0.55905 0.52296 0.54872 0.0
C287 C 0.61612 0.53574 0.61372 0.0
C288 C 0.61456 0.52572 0.56168 0.0
C289 C 0.5862 0.51981 0.52991 0.0
C290 C 0.58947 0.54047 0.63237 0.0
C291 C 0.56133 0.53399 0.59939 0.0
N292 N 0.47417 0.49688 0.46127 0.0
C293 C 0.44902 0.49706 0.37524 0.0
C294 C 0.41719 0.48949 0.40068 0.0
C295 C 0.41348 0.48355 0.4565 0.0
C296 C 0.4419 0.48698 0.48574 0.0
C297 C 0.47691 0.50026 0.40613 0.0
H298 H 0.43738 0.48237 0.52827 0.0
H299 H 0.50104 0.5069 0.38481 0.0
H300 H 0.58649 0.51188 0.49072 0.0
H301 H 0.54138 0.53747 0.61604 0.0
C302 C 0.47238 0.50837 0.61212 0.0
C303 C 0.54079 0.59511 0.46485 0.0
C304 C 0.49276 0.42433 0.5408 0.0
C305 C 0.56195 0.51196 0.39791 0.0
H306 H 0.49557 0.60956 0.52882 0.0
H307 H 0.46267 0.56487 0.61273 0.0
H308 H 0.44141 0.44607 0.68197 0.0
H309 H 0.45239 0.40006 0.64198 0.0
H310 H 0.5127 0.39833 0.45497 0.0
H311 H 0.55021 0.44628 0.37489 0.0
H312 H 0.61382 0.58122 0.35275 0.0
H313 H 0.6049 0.62779 0.396 0.0
H314 H 0.63482 0.52184 0.54593 0.0
H315 H 0.58992 0.54827 0.67269 0.0
H316 H 0.45272 0.50141 0.33185 0.0
H317 H 0.38897 0.47706 0.47759 0.0
H318 H 0.35538 0.48858 0.20457 0.0
H319 H 0.27291 0.48616 0.29662 0.0
H320 H 0.27377 0.49221 0.1212 0.0
H321 H 0.22067 0.48064 0.12528 0.0
H322 H 0.14435 0.48905 0.21582 0.0
H323 H 0.23328 0.49826 0.29604 0.0
C324 C 0.33089 0.48851 0.20595 0.0
C325 C 0.31538 0.4896 0.15822 0.0
C326 C 0.316 0.48799 0.25534 0.0
C327 C 0.28402 0.48764 0.25727 0.0
C328 C 0.26712 0.48884 0.20913 0.0
C329 C 0.28403 0.49023 0.15943 0.0
C330 C 0.23264 0.48887 0.21063 0.0
C331 C 0.21259 0.48453 0.16365 0.0
C332 C 0.18119 0.48524 0.16553 0.0
C333 C 0.16867 0.48882 0.21433 0.0
C334 C 0.18716 0.49289 0.26104 0.0
C335 C 0.21924 0.4936 0.2592 0.0
H336 H 0.65286 0.15233 0.71241 0.0
H337 H 0.75062 0.19198 0.79605 0.0
H338 H 0.75239 0.21811 0.6268 0.0
H339 H 0.80642 0.26069 0.63273 0.0
H340 H 0.88198 0.33866 0.73168 0.0
H341 H 0.78941 0.24738 0.80701 0.0
C342 C 0.68184 0.16726 0.71332 0.0
C343 C 0.70151 0.17967 0.66442 0.0
C344 C 0.69853 0.1684 0.76148 0.0
C345 C 0.73635 0.19166 0.76096 0.0
C346 C 0.75583 0.21452 0.71468 0.0
C347 C 0.73831 0.20567 0.66497 0.0
C348 C 0.79287 0.24755 0.71921 0.0
C349 C 0.81438 0.26857 0.67284 0.0
C350 C 0.84615 0.30148 0.67757 0.0
C351 C 0.85774 0.31307 0.72831 0.0
C352 C 0.8376 0.29343 0.77467 0.0
C353 C 0.80527 0.26091 0.77034 0.0
H354 H 0.50324 0.64841 0.27512 0.0
H355 H 0.51999 0.73986 0.1911 0.0
H356 H 0.55538 0.74477 0.35366 0.0
H357 H 0.52866 0.77918 0.36293 0.0
H358 H 0.54911 0.87182 0.27261 0.0
H359 H 0.55674 0.79642 0.19168 0.0
C360 C 0.51296 0.67591 0.27531 0.0
C361 C 0.53031 0.69422 0.32035 0.0
C362 C 0.51446 0.69344 0.22689 0.0
C363 C 0.52251 0.72775 0.22792 0.0
C364 C 0.53465 0.74611 0.27561 0.0
C365 C 0.54109 0.72967 0.32027 0.0
C366 C 0.54214 0.78263 0.2773 0.0
C367 C 0.53681 0.79522 0.32534 0.0
C368 C 0.5404 0.82816 0.32388 0.0
C369 C 0.5482 0.84754 0.27462 0.0
C370 C 0.55267 0.83543 0.2273 0.0
C371 C 0.55179 0.80429 0.22902 0.0
H372 H 0.88074 0.53768 0.80906 0.0
H373 H 0.80174 0.54 0.90438 0.0
H374 H 0.80833 0.55724 0.72957 0.0
H375 H 0.75513 0.54344 0.73317 0.0
H376 H 0.68183 0.55823 0.81735 0.0
H377 H 0.76075 0.55206 0.90633 0.0
C378 C 0.85835 0.541 0.81155 0.0
C379 C 0.845 0.54655 0.76447 0.0
C380 C 0.84341 0.53942 0.86173 0.0
C381 C 0.81339 0.54252 0.86495 0.0
C382 C 0.79884 0.54827 0.81742 0.0
C383 C 0.81635 0.55131 0.76729 0.0
C384 C 0.76574 0.55069 0.81894 0.0
C385 C 0.74778 0.5489 0.77076 0.0
C386 C 0.71821 0.55227 0.77041 0.0
C387 C 0.70555 0.55693 0.81795 0.0
C388 C 0.71967 0.55533 0.86707 0.0
C389 C 0.75026 0.55302 0.86776 0.0
H390 H 0.14573 0.66679 0.28126 0.0
H391 H 0.23492 0.74937 0.18614 0.0
H392 H 0.22621 0.75458 0.35927 0.0
H393 H 0.27876 0.79832 0.35587 0.0
H394 H 0.36428 0.88469 0.26121 0.0
H395 H 0.27903 0.80165 0.18056 0.0
C396 C 0.17072 0.69228 0.27857 0.0
C397 C 0.18483 0.70923 0.32518 0.0
C398 C 0.18856 0.70705 0.22877 0.0
C399 C 0.22156 0.73966 0.22535 0.0
C400 C 0.23665 0.75845 0.27197 0.0
C401 C 0.21709 0.74234 0.32201 0.0
C402 C 0.27239 0.79392 0.26873 0.0
C403 C 0.2897 0.81032 0.3161 0.0
C404 C 0.32242 0.84303 0.31312 0.0
C405 C 0.33879 0.85965 0.26323 0.0
C406 C 0.32333 0.84444 0.2159 0.0
C407 C 0.29016 0.81201 0.21837 0.0
H408 H 0.4729 0.34815 0.72214 0.0
H409 H 0.4462 0.25243 0.80886 0.0
H410 H 0.47696 0.27146 0.6385 0.0
H411 H 0.4457 0.21247 0.64207 0.0
H412 H 0.46774 0.14174 0.72572 0.0
H413 H 0.47569 0.22456 0.80881 0.0
C414 C 0.46957 0.32276 0.72302 0.0
C415 C 0.47427 0.31119 0.6752 0.0
C416 C 0.45959 0.30202 0.77145 0.0
C417 C 0.45501 0.26885 0.77164 0.0
C418 C 0.46208 0.25731 0.72409 0.0
C419 C 0.47136 0.27898 0.67572 0.0
C420 C 0.46131 0.22374 0.72504 0.0
C421 C 0.45373 0.20471 0.67832 0.0
C422 C 0.45673 0.17546 0.67811 0.0
C423 C 0.4657 0.16439 0.72528 0.0
C424 C 0.4712 0.18114 0.7724 0.0
C425 C 0.46969 0.2111 0.77229 0.0
C426 C 0.13683 0.51548 0.07002 0.0
C427 C 0.10508 0.48296 0.06044 0.0
C428 C 0.13031 0.45166 0.10418 0.0
C429 C 0.16075 0.484 0.11719 0.0
N430 N 0.19818 0.54623 0.10001 0.0
N431 N 0.0767 0.42128 0.05244 0.0
C432 C 0.16581 0.51578 0.09521 0.0
C433 C 0.10367 0.45141 0.07203 0.0
N434 N 0.13856 0.54591 0.05756 0.0
N435 N 0.12601 0.42125 0.12516 0.0
H436 H 0.05695 0.42051 0.02885 0.0
H437 H 0.07562 0.39791 0.05552 0.0
H438 H 0.14585 0.42079 0.14676 0.0
H439 H 0.10246 0.3968 0.12308 0.0
H440 H 0.15977 0.57039 0.06675 0.0
H441 H 0.11771 0.54674 0.04027 0.0
H442 H 0.20516 0.57033 0.08188 0.0
H443 H 0.21947 0.54672 0.11854 0.0
C444 C 0.61967 0.12901 0.59012 0.0
C445 C 0.62392 0.1036 0.56706 0.0
C446 C 0.68643 0.13554 0.59533 0.0
C447 C 0.68203 0.16156 0.61569 0.0
N448 N 0.64887 0.18895 0.61359 0.0
N449 N 0.66425 0.08713 0.53824 0.0
C450 C 0.65037 0.16059 0.60492 0.0
C451 C 0.65843 0.1086 0.56598 0.0
N452 N 0.58645 0.12177 0.60383 0.0
N453 N 0.7161 0.13497 0.60711 0.0
H454 H 0.64402 0.06626 0.51854 0.0
H455 H 0.68966 0.09165 0.53148 0.0
H456 H 0.73767 0.1546 0.62665 0.0
H457 H 0.71854 0.11414 0.59977 0.0
H458 H 0.58235 0.13888 0.62356 0.0
H459 H 0.56364 0.09674 0.60437 0.0
H460 H 0.62703 0.19054 0.60328 0.0
H461 H 0.67115 0.21198 0.62588 0.0
C462 C 0.54545 0.66468 0.10856 0.0
C463 C 0.51607 0.62941 0.10863 0.0
C464 C 0.48156 0.64288 0.16881 0.0
C465 C 0.51284 0.67603 0.1764 0.0
N466 N 0.57627 0.71738 0.15622 0.0
N467 N 0.45683 0.58383 0.14358 0.0
C468 C 0.54508 0.68697 0.14613 0.0
C469 C 0.48413 0.61829 0.13967 0.0
N470 N 0.57421 0.67679 0.07346 0.0
N471 N 0.44942 0.63481 0.19056 0.0
H472 H 0.45752 0.56502 0.12298 0.0
H473 H 0.4347 0.57339 0.17032 0.0
H474 H 0.44712 0.65253 0.21186 0.0
H475 H 0.42495 0.61231 0.18311 0.0
H476 H 0.59452 0.70313 0.06708 0.0
H477 H 0.5764 0.66093 0.04751 0.0
H478 H 0.60138 0.72425 0.14123 0.0
H479 H 0.57767 0.73487 0.18248 0.0
C480 C 0.91377 0.57314 0.64953 0.0
C481 C 0.90424 0.53951 0.63603 0.0
C482 C 0.84869 0.51276 0.69233 0.0
C483 C 0.86116 0.54566 0.71249 0.0
N484 N 0.90459 0.60754 0.71041 0.0
N485 N 0.86276 0.47706 0.64318 0.0
C486 C 0.89317 0.57611 0.69038 0.0
C487 C 0.87137 0.50926 0.65634 0.0
N488 N 0.9425 0.60212 0.62313 0.0
N489 N 0.81521 0.48485 0.70822 0.0
H490 H 0.87798 0.47375 0.61521 0.0
H491 H 0.84167 0.45362 0.66157 0.0
H492 H 0.79825 0.48671 0.73488 0.0
H493 H 0.80298 0.46074 0.69187 0.0
H494 H 0.94923 0.62748 0.62737 0.0
H495 H 0.9581 0.60059 0.59339 0.0
H496 H 0.92968 0.63015 0.70105 0.0
H497 H 0.8892 0.61065 0.73843 0.0
C498 C 0.36426 0.91105 0.09473 0.0
C499 C 0.39841 0.91538 0.09141 0.0
C500 C 0.37636 0.86395 0.15474 0.0
C501 C 0.34443 0.86305 0.16465 0.0
N502 N 0.30758 0.88584 0.14558 0.0
N503 N 0.43836 0.89816 0.12203 0.0
C504 C 0.33794 0.88625 0.13432 0.0
C505 C 0.4047 0.89213 0.12192 0.0
N506 N 0.3573 0.93099 0.06055 0.0
N507 N 0.37954 0.83779 0.17726 0.0
H508 H 0.45958 0.9175 0.09681 0.0
H509 H 0.44585 0.8857 0.15014 0.0
H510 H 0.35902 0.81676 0.20138 0.0
H511 H 0.40082 0.83519 0.16789 0.0
H512 H 0.332 0.92701 0.05724 0.0
H513 H 0.37642 0.95006 0.03245 0.0
H514 H 0.30306 0.90468 0.12983 0.0
H515 H 0.2874 0.86729 0.17299 0.0
C516 C 0.45723 0.35927 0.56333 0.0
C517 C 0.49052 0.39184 0.56252 0.0
C518 C 0.51633 0.36418 0.61532 0.0
C519 C 0.48143 0.33394 0.62521 0.0
N520 N 0.41859 0.30105 0.60732 0.0
N521 N 0.55284 0.42561 0.58409 0.0
C522 C 0.45197 0.33068 0.59772 0.0
C523 C 0.52066 0.39422 0.58655 0.0
N524 N 0.43071 0.35599 0.53158 0.0
N525 N 0.54499 0.36407 0.63475 0.0
H526 H 0.55698 0.44791 0.56278 0.0
H527 H 0.57512 0.43015 0.60474 0.0
H528 H 0.54197 0.34214 0.65589 0.0
H529 H 0.57162 0.38415 0.62629 0.0
H530 H 0.40681 0.3323 0.52668 0.0
H531 H 0.43396 0.3767 0.50641 0.0
H532 H 0.39512 0.29851 0.59423 0.0
H533 H 0.41428 0.27919 0.63047 0.0
C534 C 0.55814 0.89003 0.43296 0.0
C535 C 0.52965 0.89508 0.42316 0.0
C536 C 0.50138 0.84386 0.36912 0.0
C537 C 0.53274 0.84292 0.37059 0.0
N538 N 0.59132 0.86486 0.40407 0.0
N539 N 0.47568 0.87861 0.37676 0.0
C540 C 0.56096 0.86553 0.4035 0.0
C541 C 0.50141 0.87215 0.39039 0.0
N542 N 0.58276 0.90903 0.46975 0.0
N543 N 0.47184 0.81797 0.34578 0.0
H544 H 0.47502 0.89933 0.39059 0.0
H545 H 0.45676 0.86531 0.34823 0.0
H546 H 0.47151 0.7972 0.3298 0.0
H547 H 0.44698 0.81522 0.34713 0.0
H548 H 0.60223 0.90447 0.48258 0.0
H549 H 0.5821 0.92785 0.49042 0.0
H550 H 0.61481 0.88331 0.42158 0.0
H551 H 0.59329 0.84627 0.38482 0.0
C552 C 0.66501 0.57207 0.96168 0.0
C553 C 0.63136 0.541 0.95336 0.0
C554 C 0.66373 0.51568 0.91999 0.0
C555 C 0.69607 0.54882 0.91536 0.0
N556 N 0.72834 0.60931 0.93306 0.0
N557 N 0.60114 0.4885 0.90537 0.0
C558 C 0.69712 0.5772 0.93763 0.0
C559 C 0.63115 0.51372 0.92835 0.0
N560 N 0.66618 0.59687 0.99105 0.0
N561 N 0.6639 0.48681 0.90968 0.0
H562 H 0.58012 0.49158 0.89699 0.0
H563 H 0.60029 0.46891 0.88474 0.0
H564 H 0.68776 0.48825 0.90142 0.0
H565 H 0.64097 0.4616 0.91485 0.0
H566 H 0.69007 0.61876 0.00205 0.0
H567 H 0.64309 0.59418 0.00754 0.0
H568 H 0.73026 0.63208 0.94285 0.0
H569 H 0.75206 0.61291 0.91734 0.0
C570 C 0.11014 0.66456 0.43318 0.0
C571 C 0.11083 0.63415 0.44475 0.0
C572 C 0.17019 0.66329 0.39837 0.0
C573 C 0.16541 0.68987 0.37702 0.0
N574 N 0.13257 0.71779 0.37557 0.0
N575 N 0.14272 0.60508 0.44268 0.0
C576 C 0.13625 0.69151 0.39585 0.0
C577 C 0.14163 0.63395 0.42959 0.0
N578 N 0.08427 0.6673 0.4576 0.0
N579 N 0.20177 0.66594 0.38718 0.0
H580 H 0.12216 0.58297 0.4647 0.0
H581 H 0.16313 0.60207 0.42992 0.0
H582 H 0.22278 0.68724 0.36416 0.0
H583 H 0.20854 0.64899 0.40407 0.0
H584 H 0.08381 0.68986 0.45439 0.0
H585 H 0.0649 0.6478 0.485 0.0
H586 H 0.10975 0.71836 0.38229 0.0
H587 H 0.15215 0.73857 0.35 0.0
C588 C 0.45182 0.11399 0.88651 0.0
C589 C 0.48535 0.117 0.88585 0.0
C590 C 0.5121 0.1714 0.82768 0.0
C591 C 0.47746 0.16518 0.82138 0.0
N592 N 0.41421 0.1317 0.84478 0.0
N593 N 0.54798 0.14858 0.85771 0.0
C594 C 0.44737 0.13718 0.85176 0.0
C595 C 0.51584 0.14605 0.85755 0.0
N596 N 0.42424 0.0888 0.92009 0.0
N597 N 0.54121 0.20154 0.80446 0.0
H598 H 0.55202 0.13126 0.88077 0.0
H599 H 0.57029 0.16674 0.83328 0.0
H600 H 0.53879 0.22033 0.78259 0.0
H601 H 0.56768 0.2094 0.8104 0.0
H602 H 0.40025 0.08727 0.92663 0.0
H603 H 0.42622 0.07066 0.94462 0.0
H604 H 0.39035 0.10939 0.85994 0.0
H605 H 0.41045 0.14919 0.82167 0.0
C606 C 0.39285 0.52138 0.35055 0.0
C607 C 0.38838 0.48921 0.36935 0.0
C608 C 0.32941 0.45716 0.32876 0.0
C609 C 0.33624 0.48904 0.30377 0.0
N610 N 0.37451 0.55163 0.28903 0.0
N611 N 0.35348 0.42626 0.37486 0.0
C612 C 0.36779 0.52125 0.31482 0.0
C613 C 0.35668 0.45699 0.35867 0.0
N614 N 0.42082 0.55203 0.36753 0.0
N615 N 0.29688 0.42705 0.32323 0.0
H616 H 0.37278 0.42514 0.39692 0.0
H617 H 0.33304 0.40197 0.36354 0.0
H618 H 0.27673 0.42657 0.30114 0.0
H619 H 0.28861 0.40325 0.344 0.0
H620 H 0.42374 0.57609 0.3597 0.0
H621 H 0.43987 0.55316 0.3932 0.0
H622 H 0.39904 0.57542 0.28911 0.0
H623 H 0.3558 0.55267 0.2652 0.0
C624 C 0.89759 0.33244 0.89227 0.0
C625 C 0.89402 0.36116 0.89793 0.0
C626 C 0.84256 0.33521 0.83952 0.0
C627 C 0.85019 0.31006 0.82659 0.0
N628 N 0.88344 0.28304 0.8412 0.0
N629 N 0.86329 0.39037 0.87773 0.0
C630 C 0.87684 0.30776 0.85403 0.0
C631 C 0.86609 0.36233 0.87248 0.0
N632 N 0.92109 0.3291 0.92305 0.0
N633 N 0.81303 0.3333 0.81932 0.0
H634 H 0.87941 0.41009 0.90275 0.0
H635 H 0.8465 0.39521 0.85537 0.0
H636 H 0.79562 0.31377 0.79481 0.0
H637 H 0.80395 0.34891 0.83038 0.0
H638 H 0.92295 0.30734 0.92455 0.0
H639 H 0.9371 0.34718 0.95043 0.0
H640 H 0.90516 0.28221 0.85444 0.0
H641 H 0.86749 0.26376 0.81532 0.0
C642 C 0.87904 0.49461 0.94421 0.0
C643 C 0.91198 0.52402 0.95945 0.0
C644 C 0.89229 0.56283 0.92789 0.0
C645 C 0.8606 0.53376 0.90925 0.0
N646 N 0.81883 0.47179 0.91268 0.0
N647 N 0.94548 0.5842 0.98034 0.0
C648 C 0.85224 0.49949 0.92247 0.0
C649 C 0.91699 0.55754 0.95631 0.0
N650 N 0.87419 0.46236 0.9479 0.0
N651 N 0.89963 0.59567 0.91549 0.0
H652 H 0.96398 0.58099 0.00108 0.0
H653 H 0.94919 0.60854 0.98362 0.0
H654 H 0.88118 0.59999 0.89705 0.0
H655 H 0.92418 0.61843 0.92156 0.0
H656 H 0.85222 0.44033 0.93322 0.0
H657 H 0.89316 0.45778 0.96341 0.0
H658 H 0.80947 0.44592 0.9247 0.0
H659 H 0.79918 0.47519 0.89657 0.0
C660 C 0.39246 0.88067 0.41859 0.0
C661 C 0.39469 0.91253 0.42349 0.0
C662 C 0.33917 0.89027 0.37484 0.0
C663 C 0.34093 0.86145 0.36157 0.0
N664 N 0.36765 0.82771 0.37174 0.0
N665 N 0.36532 0.94391 0.42095 0.0
C666 C 0.36657 0.85574 0.38491 0.0
C667 C 0.36626 0.91603 0.4064 0.0
N668 N 0.4147 0.87408 0.44682 0.0
N669 N 0.31243 0.89353 0.35477 0.0
H670 H 0.38442 0.96254 0.44501 0.0
H671 H 0.34496 0.94796 0.41209 0.0
H672 H 0.29154 0.87411 0.33376 0.0
H673 H 0.31059 0.91505 0.35834 0.0
H674 H 0.41183 0.84987 0.44994 0.0
H675 H 0.43464 0.89219 0.47054 0.0
H676 H 0.38839 0.82433 0.38143 0.0
H677 H 0.34827 0.80835 0.34885 0.0
C678 C 0.4741 0.34636 0.90341 0.0
C679 C 0.45826 0.36571 0.89015 0.0
C680 C 0.43012 0.32875 0.81514 0.0
C681 C 0.45336 0.31647 0.81996 0.0
N682 N 0.50028 0.31633 0.8686 0.0
N683 N 0.42488 0.3779 0.82586 0.0
C684 C 0.47574 0.32548 0.86464 0.0
C685 C 0.43663 0.35722 0.84452 0.0
N686 N 0.48748 0.34785 0.95308 0.0
N687 N 0.40264 0.31399 0.78078 0.0
H688 H 0.43122 0.40071 0.84293 0.0
H689 H 0.41213 0.37447 0.78962 0.0
H690 H 0.39726 0.29292 0.75909 0.0
H691 H 0.38328 0.32021 0.77849 0.0
H692 H 0.49675 0.33215 0.96634 0.0
H693 H 0.48552 0.36189 0.98288 0.0
H694 H 0.51988 0.32576 0.89718 0.0
H695 H 0.50292 0.30156 0.84102 0.0
C696 C 0.1271 0.47034 0.38628 0.0
C697 C 0.12454 0.50007 0.38353 0.0
C698 C 0.17359 0.52909 0.31436 0.0
C699 C 0.17205 0.49748 0.31099 0.0
N700 N 0.14718 0.43747 0.34222 0.0
N701 N 0.14359 0.55713 0.34262 0.0
C702 C 0.14923 0.46811 0.34727 0.0
C703 C 0.14762 0.52948 0.34732 0.0
N704 N 0.10796 0.44408 0.42564 0.0
N705 N 0.19985 0.55861 0.2854 0.0
H706 H 0.12511 0.55857 0.36629 0.0
H707 H 0.15669 0.57753 0.31279 0.0
H708 H 0.21916 0.55883 0.26106 0.0
H709 H 0.20461 0.58333 0.28929 0.0
H710 H 0.11139 0.42345 0.4334 0.0
H711 H 0.09029 0.44411 0.45328 0.0
H712 H 0.12791 0.4138 0.36251 0.0
H713 H 0.16388 0.43533 0.31543 0.0
C714 C 0.61463 0.09727 0.83953 0.0
C715 C 0.62464 0.09668 0.89312 0.0
C716 C 0.68343 0.1487 0.86426 0.0
C717 C 0.67526 0.14321 0.80889 0.0
N718 N 0.6366 0.09529 0.75346 0.0
N719 N 0.67584 0.11648 0.94925 0.0
C720 C 0.64178 0.1124 0.79884 0.0
C721 C 0.66134 0.12078 0.90384 0.0
N722 N 0.57971 0.08223 0.82667 0.0
N723 N 0.70969 0.1803 0.88033 0.0
H724 H 0.7031 0.13294 0.95613 0.0
H725 H 0.6613 0.0947 0.97661 0.0
H726 H 0.72188 0.20299 0.85467 0.0
H727 H 0.71483 0.18444 0.92092 0.0
H728 H 0.57256 0.08274 0.78691 0.0
H729 H 0.55912 0.07278 0.85606 0.0
H730 H 0.61242 0.0719 0.74767 0.0
H731 H 0.65762 0.10212 0.72597 0.0
C732 C 0.54456 0.65374 0.45168 0.0
C733 C 0.54051 0.62354 0.43048 0.0
C734 C 0.54947 0.65268 0.34189 0.0
C735 C 0.5406 0.67572 0.36138 0.0
N736 N 0.52493 0.69374 0.44104 0.0
N737 N 0.52757 0.59197 0.34989 0.0
C738 C 0.53709 0.67548 0.41831 0.0
C739 C 0.53945 0.62219 0.3738 0.0
N740 N 0.55688 0.66267 0.50182 0.0
N741 N 0.56629 0.65915 0.29265 0.0
H742 H 0.51607 0.56803 0.37198 0.0
H743 H 0.52538 0.59066 0.30829 0.0
H744 H 0.57601 0.68261 0.26944 0.0
H745 H 0.57356 0.64268 0.2785 0.0
H746 H 0.56212 0.68573 0.51692 0.0
H747 H 0.56491 0.64864 0.52548 0.0
H748 H 0.52031 0.69205 0.48253 0.0
H749 H 0.51584 0.70717 0.41857 0.0
C750 C 0.47421 0.14361 0.55079 0.0
C751 C 0.45529 0.10738 0.56763 0.0
C752 C 0.42409 0.11787 0.63795 0.0
C753 C 0.44996 0.15431 0.63057 0.0
N754 N 0.50073 0.20229 0.57872 0.0
N755 N 0.41358 0.06052 0.63254 0.0
C756 C 0.47486 0.16747 0.58584 0.0
C757 C 0.42984 0.09436 0.61186 0.0
N758 N 0.49182 0.15513 0.50152 0.0
N759 N 0.39501 0.10587 0.67221 0.0
H760 H 0.41831 0.04259 0.61737 0.0
H761 H 0.3979 0.0511 0.66826 0.0
H762 H 0.39067 0.12287 0.69194 0.0
H763 H 0.37378 0.07976 0.67639 0.0
H764 H 0.50375 0.18079 0.48528 0.0
H765 H 0.49106 0.13805 0.47477 0.0
H766 H 0.52218 0.21259 0.55066 0.0
H767 H 0.50199 0.22065 0.60298 0.0
C768 C 0.39209 0.52354 0.05746 0.0
C769 C 0.38946 0.49159 0.05089 0.0
C770 C 0.32843 0.45881 0.09189 0.0
C771 C 0.33403 0.49063 0.10775 0.0
N772 N 0.36822 0.55332 0.10152 0.0
N773 N 0.35121 0.42968 0.04299 0.0
C774 C 0.36457 0.52308 0.08776 0.0
C775 C 0.35613 0.4594 0.06182 0.0
N776 N 0.42073 0.55412 0.03449 0.0
N777 N 0.29759 0.42807 0.10911 0.0
H778 H 0.37105 0.42975 0.0203 0.0
H779 H 0.32695 0.40557 0.04612 0.0
H780 H 0.27648 0.42737 0.1291 0.0
H781 H 0.29301 0.40349 0.10482 0.0
H782 H 0.42294 0.578 0.0335 0.0
H783 H 0.44158 0.55533 0.01309 0.0
H784 H 0.39153 0.578 0.09444 0.0
H785 H 0.34766 0.55344 0.12175 0.0
C786 C 0.8873 0.38661 0.59505 0.0
C787 C 0.91919 0.39051 0.5742 0.0
C788 C 0.89762 0.33046 0.60862 0.0
C789 C 0.8663 0.32705 0.63067 0.0
N790 N 0.8264 0.34725 0.63214 0.0
N791 N 0.95079 0.36389 0.54873 0.0
C792 C 0.85945 0.35359 0.61907 0.0
C793 C 0.92294 0.36152 0.57669 0.0
N794 N 0.88448 0.41494 0.59486 0.0
N795 N 0.90386 0.30469 0.6205 0.0
H796 H 0.96978 0.38643 0.52544 0.0
H797 H 0.95347 0.34283 0.54506 0.0
H798 H 0.88496 0.28112 0.6417 0.0
H799 H 0.92807 0.30716 0.6114 0.0
H800 H 0.86368 0.41459 0.61492 0.0
H801 H 0.90427 0.43966 0.57796 0.0
H802 H 0.81837 0.36419 0.62047 0.0
H803 H 0.80571 0.32332 0.65022 0.0
C804 C 0.58174 0.91065 0.12319 0.0
C805 C 0.54732 0.90159 0.10679 0.0
C806 C 0.52081 0.84278 0.15107 0.0
C807 C 0.55366 0.85428 0.17601 0.0
N808 N 0.61606 0.89799 0.18504 0.0
N809 N 0.48336 0.85894 0.10585 0.0
C810 C 0.58453 0.88775 0.16109 0.0
C811 C 0.51674 0.86736 0.11989 0.0
N812 N 0.61163 0.94091 0.10194 0.0
N813 N 0.49317 0.8085 0.15822 0.0
H814 H 0.47877 0.87555 0.0822 0.0
H815 H 0.45966 0.83632 0.12076 0.0
H816 H 0.49464 0.78988 0.18217 0.0
H817 H 0.46998 0.79768 0.13646 0.0
H818 H 0.63771 0.94771 0.10868 0.0
H819 H 0.61031 0.95787 0.07352 0.0
H820 H 0.6385 0.92346 0.18137 0.0
H821 H 0.61918 0.88092 0.21055 0.0
C822 C 0.63688 0.51041 0.68547 0.0
C823 C 0.64443 0.5392 0.64964 0.0
C824 C 0.70404 0.57536 0.68659 0.0
C825 C 0.69646 0.54653 0.7222 0.0
N826 N 0.6596 0.48497 0.74844 0.0
N827 N 0.68684 0.59697 0.6089 0.0
C828 C 0.66411 0.51345 0.71908 0.0
C829 C 0.67867 0.57101 0.64779 0.0
N830 N 0.60323 0.48059 0.68871 0.0
N831 N 0.73482 0.60724 0.69164 0.0
H832 H 0.66844 0.59517 0.58125 0.0
H833 H 0.71241 0.61933 0.60165 0.0
H834 H 0.75454 0.61081 0.71802 0.0
H835 H 0.74018 0.63037 0.67172 0.0
H836 H 0.59464 0.46016 0.71813 0.0
H837 H 0.5828 0.47704 0.66397 0.0
H838 H 0.63825 0.45945 0.74448 0.0
H839 H 0.67902 0.48647 0.77365 0.0
C840 C 0.14504 0.62759 0.14955 0.0
C841 C 0.12138 0.63275 0.11824 0.0
C842 C 0.14842 0.69152 0.15015 0.0
C843 C 0.17183 0.68614 0.18149 0.0
N844 N 0.19897 0.65357 0.20086 0.0
N845 N 0.10472 0.6716 0.08054 0.0
C846 C 0.17235 0.65564 0.17742 0.0
C847 C 0.12467 0.66553 0.11556 0.0
N848 N 0.14037 0.5954 0.15467 0.0
N849 N 0.14747 0.72057 0.1559 0.0
H850 H 0.08586 0.65267 0.05658 0.0
H851 H 0.10847 0.69601 0.07247 0.0
H852 H 0.16541 0.74061 0.17923 0.0
H853 H 0.12804 0.72417 0.13978 0.0
H854 H 0.15397 0.58881 0.18162 0.0
H855 H 0.12093 0.57427 0.13461 0.0
H856 H 0.20298 0.63347 0.19572 0.0
H857 H 0.21924 0.67389 0.22143 0.0
loop_
_geom_bond_atom_site_label_1
_geom_bond_atom_site_label_2
_geom_bond_distance
_geom_bond_site_symmetry_2
_ccdc_geom_bond_type
C0 C1 1.443 1_556 S
C0 N4 1.376 1_556 S
C0 C38 1.389 . S
C1 C0 1.443 1_554 S
C1 C2 1.340 . S
C1 H41 0.951 . S
C2 C1 1.340 . S
C2 C3 1.439 . S
C2 H42 0.950 . S
C3 C2 1.439 . S
C3 N4 1.374 . S
C3 C37 1.395 . S
N4 C0 1.376 1_554 S
N4 C3 1.374 . S
N4 Co5 2.014 1_655 S
Co5 N4 2.014 1_455 S
Co5 N6 2.004 . S
Co5 N11 2.003 1_554 S
Co5 N16 1.979 1_554 S
Co5 N21 2.294 . S
Co5 N27 2.271 1_454 S
N6 Co5 2.004 . S
N6 C7 1.365 1_455 S
N6 C10 1.402 . S
C7 N6 1.365 1_655 S
C7 C8 1.446 . S
C7 C37 1.391 . S
C8 C7 1.446 . S
C8 C9 1.339 1_655 S
C8 H43 0.949 . S
C9 C8 1.339 1_455 S
C9 C10 1.439 . S
C9 H44 0.950 . S
C10 N6 1.402 . S
C10 C9 1.439 . S
C10 C39 1.392 . S
N11 Co5 2.003 1_556 S
N11 C12 1.376 1_556 S
N11 C15 1.374 . S
C12 N11 1.376 1_554 S
C12 C13 1.443 1_554 S
C12 C39 1.389 . S
C13 C12 1.443 1_556 S
C13 C14 1.340 . S
C13 H45 0.951 . S
C14 C13 1.340 . S
C14 C15 1.439 . S
C14 H46 0.950 . S
C15 N11 1.374 . S
C15 C14 1.439 . S
C15 C40 1.395 . S
N16 Co5 1.979 1_556 S
N16 C17 1.376 . S
N16 C20 1.383 1_455 S
C17 N16 1.376 . S
C17 C18 1.446 . S
C17 C40 1.391 . S
C18 C17 1.446 . S
C18 C19 1.339 1_455 S
C18 H47 0.949 . S
C19 C18 1.339 1_655 S
C19 C20 1.439 . S
C19 H48 0.950 . S
C20 N16 1.383 1_655 S
C20 C19 1.439 . S
C20 C38 1.392 . S
N21 Co5 2.294 . S
N21 C24 1.332 . S
N21 C26 1.332 . S
C22 C23 1.386 . S
C22 C25 1.388 . S
C23 C22 1.386 . S
C23 C24 1.382 . S
C23 H49 0.950 . S
C24 N21 1.332 . S
C24 C23 1.382 . S
C24 H35 0.952 1_554 S
C25 C22 1.388 . S
C25 C26 1.382 . S
C25 H50 0.950 . S
C26 N21 1.332 . S
C26 C25 1.382 . S
C26 H36 0.948 . S
N27 Co5 2.271 1_656 S
N27 C31 1.332 . S
N27 C32 1.332 . S
C28 C29 1.388 . S
C28 C32 1.382 . S
C28 H51 0.950 . S
C29 C28 1.388 . S
C29 C30 1.386 . S
C30 C29 1.386 . S
C30 C31 1.382 . S
C30 H52 0.950 . S
C31 N27 1.332 . S
C31 C30 1.382 . S
C31 H33 0.952 1_556 S
C32 N27 1.332 . S
C32 C28 1.382 . S
C32 H34 0.948 . S
H33 C31 0.952 1_554 S
H34 C32 0.948 . S
H35 C24 0.952 1_556 S
H36 C26 0.948 . S
C37 C3 1.395 . S
C37 C7 1.391 . S
C38 C0 1.389 . S
C38 C20 1.392 . S
C39 C10 1.392 . S
C39 C12 1.389 . S
C40 C15 1.395 . S
C40 C17 1.391 . S
H41 C1 0.951 . S
H42 C2 0.950 . S
H43 C8 0.949 . S
H44 C9 0.950 . S
H45 C13 0.951 . S
H46 C14 0.950 . S
H47 C18 0.949 . S
H48 C19 0.950 . S
H49 C23 0.950 . S
H50 C25 0.950 . S
H51 C28 0.950 . S
H52 C30 0.950 . S
C53 C54 1.443 . S
C53 N57 1.376 . S
C53 C91 1.389 . S
C54 C53 1.443 . S
C54 C55 1.340 1_545 S
C54 H94 0.951 . S
C55 C54 1.340 1_565 S
C55 C56 1.439 . S
C55 H95 0.950 . S
C56 C55 1.439 . S
C56 N57 1.374 1_565 S
C56 C90 1.395 . S
N57 C53 1.376 . S
N57 C56 1.374 1_545 S
N57 Co58 2.008 . S
Co58 N57 2.008 . S
Co58 N59 1.995 1_545 S
Co58 N64 2.006 . S
Co58 N69 1.995 . S
Co58 N74 2.282 1_545 S
Co58 N80 2.282 . S
N59 Co58 1.995 1_565 S
N59 C60 1.376 . S
N59 C63 1.383 . S
C60 N59 1.376 . S
C60 C61 1.446 . S
C60 C90 1.391 . S
C61 C60 1.446 . S
C61 C62 1.339 . S
C61 H96 0.949 . S
C62 C61 1.339 . S
C62 C63 1.439 . S
C62 H97 0.950 . S
C63 N59 1.383 . S
C63 C62 1.439 . S
C63 C92 1.392 . S
N64 Co58 2.006 . S
N64 C65 1.367 1_545 S
N64 C68 1.382 . S
C65 N64 1.367 1_565 S
C65 C66 1.443 . S
C65 C92 1.389 . S
C66 C65 1.443 . S
C66 C67 1.340 1_565 S
C66 H98 0.951 . S
C67 C66 1.340 1_545 S
C67 C68 1.439 . S
C67 H99 0.950 . S
C68 N64 1.382 . S
C68 C67 1.439 . S
C68 C93 1.395 . S
N69 Co58 1.995 . S
N69 C70 1.376 . S
N69 C73 1.383 . S
C70 N69 1.376 . S
C70 C71 1.446 . S
C70 C93 1.391 . S
C71 C70 1.446 . S
C71 C72 1.339 . S
C71 H100 0.949 . S
C72 C71 1.339 . S
C72 C73 1.439 . S
C72 H101 0.950 . S
C73 N69 1.383 . S
C73 C72 1.439 . S
C73 C91 1.392 . S
N74 Co58 2.282 1_565 S
N74 C77 1.332 . S
N74 C79 1.332 . S
C75 C76 1.386 . S
C75 C78 1.388 . S
C76 C75 1.386 . S
C76 C77 1.382 . S
C76 H102 0.950 . S
C77 N74 1.332 . S
C77 C76 1.382 . S
C77 H88 0.952 1_565 S
C78 C75 1.388 . S
C78 C79 1.382 . S
C78 H103 0.950 . S
C79 N74 1.332 . S
C79 C78 1.382 . S
C79 H89 0.948 . S
N80 Co58 2.282 . S
N80 C84 1.332 . S
N80 C85 1.332 . S
C81 C82 1.388 . S
C81 C85 1.382 . S
C81 H104 0.950 . S
C82 C81 1.388 . S
C82 C83 1.386 . S
C83 C82 1.386 . S
C83 C84 1.382 . S
C83 H105 0.950 . S
C84 N80 1.332 . S
C84 C83 1.382 . S
C84 H86 0.952 . S
C85 N80 1.332 . S
C85 C81 1.382 . S
C85 H87 0.948 . S
H86 C84 0.952 . S
H87 C85 0.948 . S
H88 C77 0.952 1_545 S
H89 C79 0.948 . S
C90 C56 1.395 . S
C90 C60 1.391 . S
C91 C53 1.389 . S
C91 C73 1.392 . S
C92 C63 1.392 . S
C92 C65 1.389 . S
C93 C68 1.395 . S
C93 C70 1.391 . S
H94 C54 0.951 . S
H95 C55 0.950 . S
H96 C61 0.949 . S
H97 C62 0.950 . S
H98 C66 0.951 . S
H99 C67 0.950 . S
H100 C71 0.949 . S
H101 C72 0.950 . S
H102 C76 0.950 . S
H103 C78 0.950 . S
H104 C81 0.950 . S
H105 C83 0.950 . S
C106 C107 1.443 . S
C106 N110 1.376 . S
C106 C144 1.389 . S
C107 C106 1.443 . S
C107 C108 1.340 . S
C107 H147 0.951 . S
C108 C107 1.340 . S
C108 C109 1.439 . S
C108 H148 0.950 . S
C109 C108 1.439 . S
C109 N110 1.374 . S
C109 C143 1.395 . S
N110 C106 1.376 . S
N110 C109 1.374 . S
N110 Co111 2.008 1_556 S
Co111 N110 2.008 1_554 S
Co111 N112 1.995 1_554 S
Co111 N117 2.008 . S
Co111 N122 1.995 . S
Co111 N127 2.282 . S
Co111 N133 2.282 1_554 S
N112 Co111 1.995 1_556 S
N112 C113 1.376 . S
N112 C116 1.383 1_556 S
C113 N112 1.376 . S
C113 C114 1.446 . S
C113 C143 1.391 . S
C114 C113 1.446 . S
C114 C115 1.339 . S
C114 H149 0.949 . S
C115 C114 1.339 . S
C115 C116 1.439 1_556 S
C115 H150 0.950 . S
C116 N112 1.383 1_554 S
C116 C115 1.439 1_554 S
C116 C145 1.392 . S
N117 Co111 2.008 . S
N117 C118 1.376 . S
N117 C121 1.374 . S
C118 N117 1.376 . S
C118 C119 1.443 . S
C118 C145 1.389 . S
C119 C118 1.443 . S
C119 C120 1.340 . S
C119 H151 0.951 . S
C120 C119 1.340 . S
C120 C121 1.439 . S
C120 H152 0.950 . S
C121 N117 1.374 . S
C121 C120 1.439 . S
C121 C146 1.395 . S
N122 Co111 1.995 . S
N122 C123 1.376 . S
N122 C126 1.378 1_554 S
C123 N122 1.376 . S
C123 C124 1.446 . S
C123 C146 1.391 . S
C124 C123 1.446 . S
C124 C125 1.339 . S
C124 H153 0.949 . S
C125 C124 1.339 . S
C125 C126 1.434 1_554 S
C125 H154 0.950 . S
C126 N122 1.378 1_556 S
C126 C125 1.434 1_556 S
C126 C144 1.400 . S
N127 Co111 2.282 . S
N127 C130 1.332 . S
N127 C132 1.332 . S
C128 C129 1.386 . S
C128 C131 1.388 . S
C129 C128 1.386 . S
C129 C130 1.382 . S
C129 H155 0.950 . S
C130 N127 1.332 . S
C130 C129 1.382 . S
C130 H141 0.952 . S
C131 C128 1.388 . S
C131 C132 1.382 . S
C131 H156 0.950 . S
C132 N127 1.332 . S
C132 C131 1.382 . S
C132 H142 0.948 1_554 S
N133 Co111 2.282 1_556 S
N133 C137 1.332 . S
N133 C138 1.332 . S
C134 C135 1.388 . S
C134 C138 1.382 . S
C134 H157 0.950 . S
C135 C134 1.388 . S
C135 C136 1.386 . S
C136 C135 1.386 . S
C136 C137 1.382 . S
C136 H158 0.950 . S
C137 N133 1.332 . S
C137 C136 1.382 . S
C137 H139 0.952 . S
C138 N133 1.332 . S
C138 C134 1.382 . S
C138 H140 0.948 1_556 S
H139 C137 0.952 . S
H140 C138 0.948 1_554 S
H141 C130 0.952 . S
H142 C132 0.948 1_556 S
C143 C109 1.395 . S
C143 C113 1.391 . S
C144 C106 1.389 . S
C144 C126 1.400 . S
C145 C116 1.392 . S
C145 C118 1.389 . S
C146 C121 1.395 . S
C146 C123 1.391 . S
H147 C107 0.951 . S
H148 C108 0.950 . S
H149 C114 0.949 . S
H150 C115 0.950 . S
H151 C119 0.951 . S
H152 C120 0.950 . S
H153 C124 0.949 . S
H154 C125 0.950 . S
H155 C129 0.950 . S
H156 C131 0.950 . S
H157 C134 0.950 . S
H158 C136 0.950 . S
C159 C160 1.443 . S
C159 N163 1.376 . S
C159 C197 1.389 . S
C160 C159 1.443 . S
C160 C161 1.340 . S
C160 H200 0.951 . S
C161 C160 1.340 . S
C161 C162 1.439 . S
C161 H201 0.950 . S
C162 C161 1.439 . S
C162 N163 1.374 . S
C162 C196 1.395 . S
N163 C159 1.376 . S
N163 C162 1.374 . S
N163 Co164 1.993 1_655 S
Co164 N163 1.993 1_455 S
Co164 N165 1.987 . S
Co164 N170 2.023 . S
Co164 N175 2.002 1_455 S
Co164 N180 2.302 . S
Co164 N186 2.263 1_455 S
N165 Co164 1.987 . S
N165 C166 1.376 1_455 S
N165 C169 1.383 . S
C166 N165 1.376 1_655 S
C166 C167 1.446 . S
C166 C196 1.391 . S
C167 C166 1.446 . S
C167 C168 1.339 1_655 S
C167 H202 0.949 . S
C168 C167 1.339 1_455 S
C168 C169 1.439 . S
C168 H203 0.950 . S
C169 N165 1.383 . S
C169 C168 1.439 . S
C169 C198 1.392 . S
N170 Co164 2.023 . S
N170 C171 1.376 . S
N170 C174 1.374 . S
C171 N170 1.376 . S
C171 C172 1.443 . S
C171 C198 1.389 . S
C172 C171 1.443 . S
C172 C173 1.340 . S
C172 H204 0.951 . S
C173 C172 1.340 . S
C173 C174 1.439 . S
C173 H205 0.950 . S
C174 N170 1.374 . S
C174 C173 1.439 . S
C174 C199 1.395 . S
N175 Co164 2.002 1_655 S
N175 C176 1.376 1_655 S
N175 C179 1.383 . S
C176 N175 1.376 1_455 S
C176 C177 1.446 . S
C176 C199 1.391 . S
C177 C176 1.446 . S
C177 C178 1.339 1_455 S
C177 H206 0.949 . S
C178 C177 1.339 1_655 S
C178 C179 1.439 . S
C178 H207 0.950 . S
C179 N175 1.383 . S
C179 C178 1.439 . S
C179 C197 1.392 . S
N180 Co164 2.302 . S
N180 C183 1.332 . S
N180 C185 1.332 . S
C181 C182 1.386 . S
C181 C184 1.388 . S
C182 C181 1.386 . S
C182 C183 1.382 . S
C182 H208 0.950 . S
C183 N180 1.332 . S
C183 C182 1.382 . S
C183 H194 0.952 . S
C184 C181 1.388 . S
C184 C185 1.382 . S
C184 H209 0.950 . S
C185 N180 1.332 . S
C185 C184 1.382 . S
C185 H195 0.948 . S
N186 Co164 2.263 1_655 S
N186 C190 1.332 . S
N186 C191 1.332 . S
C187 C188 1.388 . S
C187 C191 1.382 . S
C187 H210 0.950 . S
C188 C187 1.388 . S
C188 C189 1.386 . S
C189 C188 1.386 . S
C189 C190 1.382 . S
C189 H211 0.950 . S
C190 N186 1.332 . S
C190 C189 1.382 . S
C190 H192 0.952 . S
C191 N186 1.332 . S
C191 C187 1.382 . S
C191 H193 0.948 . S
H192 C190 0.952 . S
H193 C191 0.948 . S
H194 C183 0.952 . S
H195 C185 0.948 . S
C196 C162 1.395 . S
C196 C166 1.391 . S
C197 C159 1.389 . S
C197 C179 1.392 . S
C198 C169 1.392 . S
C198 C171 1.389 . S
C199 C174 1.395 . S
C199 C176 1.391 . S
H200 C160 0.951 . S
H201 C161 0.950 . S
H202 C167 0.949 . S
H203 C168 0.950 . S
H204 C172 0.951 . S
H205 C173 0.950 . S
H206 C177 0.949 . S
H207 C178 0.950 . S
H208 C182 0.950 . S
H209 C184 0.950 . S
H210 C187 0.950 . S
H211 C189 0.950 . S
C212 C213 1.443 . S
C212 N216 1.378 1_565 S
C212 C250 1.389 . S
C213 C212 1.443 . S
C213 C214 1.340 1_565 S
C213 H253 0.951 . S
C214 C213 1.340 1_545 S
C214 C215 1.439 . S
C214 H254 0.950 . S
C215 C214 1.439 . S
C215 N216 1.372 . S
C215 C249 1.395 . S
N216 C212 1.378 1_545 S
N216 C215 1.372 . S
N216 Co217 2.009 . S
Co217 N216 2.009 . S
Co217 N218 1.995 . S
Co217 N223 2.008 1_554 S
Co217 N228 1.995 1_544 S
Co217 N233 2.282 1_554 S
Co217 N239 2.282 1_545 S
N218 Co217 1.995 . S
N218 C219 1.376 . S
N218 C222 1.383 1_554 S
C219 N218 1.376 . S
C219 C220 1.446 . S
C219 C249 1.391 . S
C220 C219 1.446 . S
C220 C221 1.339 . S
C220 H255 0.949 . S
C221 C220 1.339 . S
C221 C222 1.439 1_554 S
C221 H256 0.950 1_554 S
C222 N218 1.383 1_556 S
C222 C221 1.439 1_556 S
C222 C251 1.392 . S
N223 Co217 2.008 1_556 S
N223 C224 1.376 . S
N223 C227 1.374 1_545 S
C224 N223 1.376 . S
C224 C225 1.443 . S
C224 C251 1.389 . S
C225 C224 1.443 . S
C225 C226 1.333 1_545 S
C225 H257 0.951 . S
C226 C225 1.333 1_565 S
C226 C227 1.440 . S
C226 H258 0.955 . S
C227 N223 1.374 1_565 S
C227 C226 1.440 . S
C227 C252 1.395 . S
N228 Co217 1.995 1_566 S
N228 C229 1.376 . S
N228 C232 1.383 1_556 S
C229 N228 1.376 . S
C229 C230 1.446 . S
C229 C252 1.391 . S
C230 C229 1.446 . S
C230 C231 1.326 1_556 S
C230 H259 0.949 . S
C231 C230 1.326 1_554 S
C231 C232 1.445 . S
C231 H260 0.955 . S
C232 N228 1.383 1_554 S
C232 C231 1.445 . S
C232 C250 1.392 . S
N233 Co217 2.282 1_556 S
N233 C236 1.332 . S
N233 C238 1.332 . S
C234 C235 1.386 . S
C234 C237 1.388 . S
C235 C234 1.386 . S
C235 C236 1.382 . S
C235 H261 0.950 . S
C236 N233 1.332 . S
C236 C235 1.382 . S
C236 H247 0.952 . S
C237 C234 1.388 . S
C237 C238 1.382 . S
C237 H262 0.950 . S
C238 N233 1.332 . S
C238 C237 1.382 . S
C238 H248 0.948 1_556 S
N239 Co217 2.282 1_565 S
N239 C243 1.332 . S
N239 C244 1.332 . S
C240 C241 1.388 . S
C240 C244 1.382 . S
C240 H263 0.950 . S
C241 C240 1.388 . S
C241 C242 1.386 . S
C242 C241 1.386 . S
C242 C243 1.382 . S
C242 H264 0.950 . S
C243 N239 1.332 . S
C243 C242 1.382 . S
C243 H245 0.931 1_565 S
C244 N239 1.332 . S
C244 C240 1.382 . S
C244 H246 0.948 1_554 S
H245 C243 0.931 1_545 S
H246 C244 0.948 1_556 S
H247 C236 0.952 . S
H248 C238 0.948 1_554 S
C249 C215 1.395 . S
C249 C219 1.391 . S
C250 C212 1.389 . S
C250 C232 1.392 . S
C251 C222 1.392 . S
C251 C224 1.389 . S
C252 C227 1.395 . S
C252 C229 1.391 . S
H253 C213 0.951 . S
H254 C214 0.950 . S
H255 C220 0.949 . S
H256 C221 0.950 1_556 S
H257 C225 0.951 . S
H258 C226 0.955 . S
H259 C230 0.949 . S
H260 C231 0.955 . S
H261 C235 0.950 . S
H262 C237 0.950 . S
H263 C240 0.950 . S
H264 C242 0.950 . S
C265 C266 1.443 . S
C265 N269 1.376 . S
C265 C303 1.389 . S
C266 C265 1.443 . S
C266 C267 1.340 . S
C266 H306 0.951 . S
C267 C266 1.340 . S
C267 C268 1.439 . S
C267 H307 0.950 . S
C268 C267 1.439 . S
C268 N269 1.374 . S
C268 C302 1.395 . S
N269 C265 1.376 . S
N269 C268 1.374 . S
N269 Co270 2.008 . S
Co270 N269 2.008 . S
Co270 N271 1.995 . S
Co270 N276 2.008 . S
Co270 N281 1.995 . S
Co270 N286 2.282 . S
Co270 N292 2.282 . S
N271 Co270 1.995 . S
N271 C272 1.376 . S
N271 C275 1.383 . S
C272 N271 1.376 . S
C272 C273 1.446 . S
C272 C302 1.391 . S
C273 C272 1.446 . S
C273 C274 1.339 . S
C273 H308 0.949 . S
C274 C273 1.339 . S
C274 C275 1.439 . S
C274 H309 0.950 . S
C275 N271 1.383 . S
C275 C274 1.439 . S
C275 C304 1.392 . S
N276 Co270 2.008 . S
N276 C277 1.376 . S
N276 C280 1.374 . S
C277 N276 1.376 . S
C277 C278 1.443 . S
C277 C304 1.389 . S
C278 C277 1.443 . S
C278 C279 1.340 . S
C278 H310 0.951 . S
C279 C278 1.340 . S
C279 C280 1.439 . S
C279 H311 0.950 . S
C280 N276 1.374 . S
C280 C279 1.439 . S
C280 C305 1.395 . S
N281 Co270 1.995 . S
N281 C282 1.376 . S
N281 C285 1.383 . S
C282 N281 1.376 . S
C282 C283 1.446 . S
C282 C305 1.391 . S
C283 C282 1.446 . S
C283 C284 1.339 . S
C283 H312 0.949 . S
C284 C283 1.339 . S
C284 C285 1.439 . S
C284 H313 0.950 . S
C285 N281 1.383 . S
C285 C284 1.439 . S
C285 C303 1.392 . S
N286 Co270 2.282 . S
N286 C289 1.332 . S
N286 C291 1.332 . S
C287 C288 1.386 . S
C287 C290 1.388 . S
C288 C287 1.386 . S
C288 C289 1.382 . S
C288 H314 0.950 . S
C289 N286 1.332 . S
C289 C288 1.382 . S
C289 H300 0.952 . S
C290 C287 1.388 . S
C290 C291 1.382 . S
C290 H315 0.950 . S
C291 N286 1.332 . S
C291 C290 1.382 . S
C291 H301 0.948 . S
N292 Co270 2.282 . S
N292 C296 1.332 . S
N292 C297 1.332 . S
C293 C294 1.388 . S
C293 C297 1.382 . S
C293 H316 0.950 . S
C294 C293 1.388 . S
C294 C295 1.386 . S
C295 C294 1.386 . S
C295 C296 1.382 . S
C295 H317 0.950 . S
C296 N292 1.332 . S
C296 C295 1.382 . S
C296 H298 0.952 . S
C297 N292 1.332 . S
C297 C293 1.382 . S
C297 H299 0.948 . S
H298 C296 0.952 . S
H299 C297 0.948 . S
H300 C289 0.952 . S
H301 C291 0.948 . S
C302 C268 1.395 . S
C302 C272 1.391 . S
C303 C265 1.389 . S
C303 C285 1.392 . S
C304 C275 1.392 . S
C304 C277 1.389 . S
C305 C280 1.395 . S
C305 C282 1.391 . S
H306 C266 0.951 . S
H307 C267 0.950 . S
H308 C273 0.949 . S
H309 C274 0.950 . S
H310 C278 0.951 . S
H311 C279 0.950 . S
H312 C283 0.949 . S
H313 C284 0.950 . S
H314 C288 0.950 . S
H315 C290 0.950 . S
H316 C293 0.950 . S
H317 C295 0.950 . S
H318 C324 0.930 . S
H319 C327 0.931 . S
H320 C329 0.931 . S
H321 C331 0.930 . S
H322 C333 0.930 . S
H323 C335 0.931 . S
C324 H318 0.930 . S
C324 C325 1.380 . S
C324 C326 1.394 . S
C325 C324 1.380 . S
C325 C329 1.382 . S
C326 C324 1.394 . S
C326 C327 1.400 . S
C327 H319 0.931 . S
C327 C326 1.400 . S
C327 C328 1.375 . S
C328 C327 1.375 . S
C328 C329 1.415 . S
C328 C330 1.501 . S
C329 H320 0.931 . S
C329 C325 1.382 . S
C329 C328 1.415 . S
C330 C328 1.501 . S
C330 C331 1.384 . S
C330 C335 1.408 . S
C331 H321 0.930 . S
C331 C330 1.384 . S
C331 C332 1.389 . S
C332 C331 1.389 . S
C332 C333 1.405 . S
C333 H322 0.930 . S
C333 C332 1.405 . S
C333 C334 1.364 . S
C334 C333 1.364 . S
C334 C335 1.400 . S
C335 H323 0.931 . S
C335 C330 1.408 . S
C335 C334 1.400 . S
H336 C342 0.930 . S
H337 C345 0.931 . S
H338 C347 0.931 . S
H339 C349 0.930 . S
H340 C351 0.930 . S
H341 C353 0.931 . S
C342 H336 0.930 . S
C342 C343 1.380 . S
C342 C344 1.394 . S
C343 C342 1.380 . S
C343 C347 1.382 . S
C344 C342 1.394 . S
C344 C345 1.400 . S
C345 H337 0.931 . S
C345 C344 1.400 . S
C345 C346 1.375 . S
C346 C345 1.375 . S
C346 C347 1.415 . S
C346 C348 1.501 . S
C347 H338 0.931 . S
C347 C343 1.382 . S
C347 C346 1.415 . S
C348 C346 1.501 . S
C348 C349 1.384 . S
C348 C353 1.408 . S
C349 H339 0.930 . S
C349 C348 1.384 . S
C349 C350 1.389 . S
C350 C349 1.389 . S
C350 C351 1.405 . S
C351 H340 0.930 . S
C351 C350 1.405 . S
C351 C352 1.364 . S
C352 C351 1.364 . S
C352 C353 1.400 . S
C353 H341 0.931 . S
C353 C348 1.408 . S
C353 C352 1.400 . S
H354 C360 0.930 . S
H355 C363 0.931 . S
H356 C365 0.931 . S
H357 C367 0.930 . S
H358 C369 0.930 . S
H359 C371 0.931 . S
C360 H354 0.930 . S
C360 C361 1.380 . S
C360 C362 1.394 . S
C361 C360 1.380 . S
C361 C365 1.382 . S
C362 C360 1.394 . S
C362 C363 1.400 . S
C363 H355 0.931 . S
C363 C362 1.400 . S
C363 C364 1.375 . S
C364 C363 1.375 . S
C364 C365 1.415 . S
C364 C366 1.501 . S
C365 H356 0.931 . S
C365 C361 1.382 . S
C365 C364 1.415 . S
C366 C364 1.501 . S
C366 C367 1.384 . S
C366 C371 1.408 . S
C367 H357 0.930 . S
C367 C366 1.384 . S
C367 C368 1.389 . S
C368 C367 1.389 . S
C368 C369 1.405 . S
C369 H358 0.930 . S
C369 C368 1.405 . S
C369 C370 1.364 . S
C370 C369 1.364 . S
C370 C371 1.400 . S
C371 H359 0.931 . S
C371 C366 1.408 . S
C371 C370 1.400 . S
H372 C378 0.930 . S
H373 C381 0.931 . S
H374 C383 0.931 . S
H375 C385 0.930 . S
H376 C387 0.930 . S
H377 C389 0.931 . S
C378 H372 0.930 . S
C378 C379 1.380 . S
C378 C380 1.394 . S
C379 C378 1.380 . S
C379 C383 1.382 . S
C380 C378 1.394 . S
C380 C381 1.400 . S
C381 H373 0.931 . S
C381 C380 1.400 . S
C381 C382 1.375 . S
C382 C381 1.375 . S
C382 C383 1.415 . S
C382 C384 1.501 . S
C383 H374 0.931 . S
C383 C379 1.382 . S
C383 C382 1.415 . S
C384 C382 1.501 . S
C384 C385 1.384 . S
C384 C389 1.408 . S
C385 H375 0.930 . S
C385 C384 1.384 . S
C385 C386 1.389 . S
C386 C385 1.389 . S
C386 C387 1.405 . S
C387 H376 0.930 . S
C387 C386 1.405 . S
C387 C388 1.364 . S
C388 C387 1.364 . S
C388 C389 1.400 . S
C389 H377 0.931 . S
C389 C384 1.408 . S
C389 C388 1.400 . S
H390 C396 0.930 . S
H391 C399 0.931 . S
H392 C401 0.931 . S
H393 C403 0.930 . S
H394 C405 0.930 . S
H395 C407 0.931 . S
C396 H390 0.930 . S
C396 C397 1.380 . S
C396 C398 1.394 . S
C397 C396 1.380 . S
C397 C401 1.382 . S
C398 C396 1.394 . S
C398 C399 1.400 . S
C399 H391 0.931 . S
C399 C398 1.400 . S
C399 C400 1.375 . S
C400 C399 1.375 . S
C400 C401 1.415 . S
C400 C402 1.501 . S
C401 H392 0.931 . S
C401 C397 1.382 . S
C401 C400 1.415 . S
C402 C400 1.501 . S
C402 C403 1.384 . S
C402 C407 1.408 . S
C403 H393 0.930 . S
C403 C402 1.384 . S
C403 C404 1.389 . S
C404 C403 1.389 . S
C404 C405 1.405 . S
C405 H394 0.930 . S
C405 C404 1.405 . S
C405 C406 1.364 . S
C406 C405 1.364 . S
C406 C407 1.400 . S
C407 H395 0.931 . S
C407 C402 1.408 . S
C407 C406 1.400 . S
H408 C414 0.930 . S
H409 C417 0.931 . S
H410 C419 0.931 . S
H411 C421 0.930 . S
H412 C423 0.930 . S
H413 C425 0.931 . S
C414 H408 0.930 . S
C414 C415 1.380 . S
C414 C416 1.394 . S
C415 C414 1.380 . S
C415 C419 1.382 . S
C416 C414 1.394 . S
C416 C417 1.400 . S
C417 H409 0.931 . S
C417 C416 1.400 . S
C417 C418 1.375 . S
C418 C417 1.375 . S
C418 C419 1.415 . S
C418 C420 1.501 . S
C419 H410 0.931 . S
C419 C415 1.382 . S
C419 C418 1.415 . S
C420 C418 1.501 . S
C420 C421 1.384 . S
C420 C425 1.408 . S
C421 H411 0.930 . S
C421 C420 1.384 . S
C421 C422 1.389 . S
C422 C421 1.389 . S
C422 C423 1.405 . S
C423 H412 0.930 . S
C423 C422 1.405 . S
C423 C424 1.364 . S
C424 C423 1.364 . S
C424 C425 1.400 . S
C425 H413 0.931 . S
C425 C420 1.408 . S
C425 C424 1.400 . S
C426 C427 1.363 . S
C426 C432 1.379 . S
C426 N434 1.356 . S
C427 C426 1.363 . S
C427 C433 1.363 . S
C428 C429 1.363 . S
C428 C433 1.379 . S
C428 N435 1.356 . S
C429 C428 1.363 . S
C429 C432 1.363 . S
N430 C432 1.356 . S
N430 H442 0.984 . S
N430 H443 0.985 . S
N431 C433 1.356 . S
N431 H436 0.984 . S
N431 H437 0.985 . S
C432 C426 1.379 . S
C432 C429 1.363 . S
C432 N430 1.356 . S
C433 C427 1.363 . S
C433 C428 1.379 . S
C433 N431 1.356 . S
N434 C426 1.356 . S
N434 H440 0.984 . S
N434 H441 0.984 . S
N435 C428 1.356 . S
N435 H438 0.984 . S
N435 H439 0.985 . S
H436 N431 0.984 . S
H437 N431 0.985 . S
H438 N435 0.984 . S
H439 N435 0.985 . S
H440 N434 0.984 . S
H441 N434 0.984 . S
H442 N430 0.984 . S
H443 N430 0.985 . S
C444 C445 1.363 . S
C444 C450 1.379 . S
C444 N452 1.356 . S
C445 C444 1.363 . S
C445 C451 1.363 . S
C446 C447 1.363 . S
C446 C451 1.379 . S
C446 N453 1.356 . S
C447 C446 1.363 . S
C447 C450 1.363 . S
N448 C450 1.356 . S
N448 H460 0.984 . S
N448 H461 0.985 . S
N449 C451 1.356 . S
N449 H454 0.984 . S
N449 H455 0.985 . S
C450 C444 1.379 . S
C450 C447 1.363 . S
C450 N448 1.356 . S
C451 C445 1.363 . S
C451 C446 1.379 . S
C451 N449 1.356 . S
N452 C444 1.356 . S
N452 H458 0.984 . S
N452 H459 0.984 . S
N453 C446 1.356 . S
N453 H456 0.984 . S
N453 H457 0.985 . S
H454 N449 0.984 . S
H455 N449 0.985 . S
H456 N453 0.984 . S
H457 N453 0.985 . S
H458 N452 0.984 . S
H459 N452 0.984 . S
H460 N448 0.984 . S
H461 N448 0.985 . S
C462 C463 1.363 . S
C462 C468 1.379 . S
C462 N470 1.356 . S
C463 C462 1.363 . S
C463 C469 1.363 . S
C464 C465 1.363 . S
C464 C469 1.379 . S
C464 N471 1.356 . S
C465 C464 1.363 . S
C465 C468 1.363 . S
N466 C468 1.356 . S
N466 H478 0.984 . S
N466 H479 0.985 . S
N467 C469 1.356 . S
N467 H472 0.984 . S
N467 H473 0.985 . S
C468 C462 1.379 . S
C468 C465 1.363 . S
C468 N466 1.356 . S
C469 C463 1.363 . S
C469 C464 1.379 . S
C469 N467 1.356 . S
N470 C462 1.356 . S
N470 H476 0.984 . S
N470 H477 0.984 . S
N471 C464 1.356 . S
N471 H474 0.984 . S
N471 H475 0.985 . S
H472 N467 0.984 . S
H473 N467 0.985 . S
H474 N471 0.984 . S
H475 N471 0.985 . S
H476 N470 0.984 . S
H477 N470 0.984 . S
H478 N466 0.984 . S
H479 N466 0.985 . S
C480 C481 1.363 . S
C480 C486 1.379 . S
C480 N488 1.356 . S
C481 C480 1.363 . S
C481 C487 1.363 . S
C482 C483 1.363 . S
C482 C487 1.379 . S
C482 N489 1.356 . S
C483 C482 1.363 . S
C483 C486 1.363 . S
N484 C486 1.356 . S
N484 H496 0.984 . S
N484 H497 0.985 . S
N485 C487 1.356 . S
N485 H490 0.984 . S
N485 H491 0.985 . S
C486 C480 1.379 . S
C486 C483 1.363 . S
C486 N484 1.356 . S
C487 C481 1.363 . S
C487 C482 1.379 . S
C487 N485 1.356 . S
N488 C480 1.356 . S
N488 H494 0.984 . S
N488 H495 0.984 . S
N489 C482 1.356 . S
N489 H492 0.984 . S
N489 H493 0.985 . S
H490 N485 0.984 . S
H491 N485 0.985 . S
H492 N489 0.984 . S
H493 N489 0.985 . S
H494 N488 0.984 . S
H495 N488 0.984 . S
H496 N484 0.984 . S
H497 N484 0.985 . S
C498 C499 1.363 . S
C498 C504 1.379 . S
C498 N506 1.356 . S
C499 C498 1.363 . S
C499 C505 1.363 . S
C500 C501 1.363 . S
C500 C505 1.379 . S
C500 N507 1.356 . S
C501 C500 1.363 . S
C501 C504 1.363 . S
N502 C504 1.356 . S
N502 H514 0.984 . S
N502 H515 0.985 . S
N503 C505 1.356 . S
N503 H508 0.984 . S
N503 H509 0.985 . S
C504 C498 1.379 . S
C504 C501 1.363 . S
C504 N502 1.356 . S
C505 C499 1.363 . S
C505 C500 1.379 . S
C505 N503 1.356 . S
N506 C498 1.356 . S
N506 H512 0.984 . S
N506 H513 0.984 . S
N507 C500 1.356 . S
N507 H510 0.984 . S
N507 H511 0.985 . S
H508 N503 0.984 . S
H509 N503 0.985 . S
H510 N507 0.984 . S
H511 N507 0.985 . S
H512 N506 0.984 . S
H513 N506 0.984 . S
H514 N502 0.984 . S
H515 N502 0.985 . S
C516 C517 1.363 . S
C516 C522 1.379 . S
C516 N524 1.356 . S
C517 C516 1.363 . S
C517 C523 1.363 . S
C518 C519 1.363 . S
C518 C523 1.379 . S
C518 N525 1.356 . S
C519 C518 1.363 . S
C519 C522 1.363 . S
N520 C522 1.356 . S
N520 H532 0.984 . S
N520 H533 0.985 . S
N521 C523 1.356 . S
N521 H526 0.984 . S
N521 H527 0.985 . S
C522 C516 1.379 . S
C522 C519 1.363 . S
C522 N520 1.356 . S
C523 C517 1.363 . S
C523 C518 1.379 . S
C523 N521 1.356 . S
N524 C516 1.356 . S
N524 H530 0.984 . S
N524 H531 0.984 . S
N525 C518 1.356 . S
N525 H528 0.984 . S
N525 H529 0.985 . S
H526 N521 0.984 . S
H527 N521 0.985 . S
H528 N525 0.984 . S
H529 N525 0.985 . S
H530 N524 0.984 . S
H531 N524 0.984 . S
H532 N520 0.984 . S
H533 N520 0.985 . S
C534 C535 1.363 . S
C534 C540 1.379 . S
C534 N542 1.356 . S
C535 C534 1.363 . S
C535 C541 1.363 . S
C536 C537 1.363 . S
C536 C541 1.379 . S
C536 N543 1.356 . S
C537 C536 1.363 . S
C537 C540 1.363 . S
N538 C540 1.356 . S
N538 H550 0.984 . S
N538 H551 0.985 . S
N539 C541 1.356 . S
N539 H544 0.984 . S
N539 H545 0.985 . S
C540 C534 1.379 . S
C540 C537 1.363 . S
C540 N538 1.356 . S
C541 C535 1.363 . S
C541 C536 1.379 . S
C541 N539 1.356 . S
N542 C534 1.356 . S
N542 H548 0.984 . S
N542 H549 0.984 . S
N543 C536 1.356 . S
N543 H546 0.984 . S
N543 H547 0.985 . S
H544 N539 0.984 . S
H545 N539 0.985 . S
H546 N543 0.984 . S
H547 N543 0.985 . S
H548 N542 0.984 . S
H549 N542 0.984 . S
H550 N538 0.984 . S
H551 N538 0.985 . S
C552 C553 1.363 . S
C552 C558 1.379 . S
C552 N560 1.356 . S
C553 C552 1.363 . S
C553 C559 1.363 . S
C554 C555 1.363 . S
C554 C559 1.379 . S
C554 N561 1.356 . S
C555 C554 1.363 . S
C555 C558 1.363 . S
N556 C558 1.356 . S
N556 H568 0.984 . S
N556 H569 0.985 . S
N557 C559 1.356 . S
N557 H562 0.984 . S
N557 H563 0.985 . S
C558 C552 1.379 . S
C558 C555 1.363 . S
C558 N556 1.356 . S
C559 C553 1.363 . S
C559 C554 1.379 . S
C559 N557 1.356 . S
N560 C552 1.356 . S
N560 H566 0.984 . S
N560 H567 0.984 . S
N561 C554 1.356 . S
N561 H564 0.984 . S
N561 H565 0.985 . S
H562 N557 0.984 . S
H563 N557 0.985 . S
H564 N561 0.984 . S
H565 N561 0.985 . S
H566 N560 0.984 . S
H567 N560 0.984 . S
H568 N556 0.984 . S
H569 N556 0.985 . S
C570 C571 1.363 . S
C570 C576 1.379 . S
C570 N578 1.356 . S
C571 C570 1.363 . S
C571 C577 1.363 . S
C572 C573 1.363 . S
C572 C577 1.379 . S
C572 N579 1.356 . S
C573 C572 1.363 . S
C573 C576 1.363 . S
N574 C576 1.356 . S
N574 H586 0.984 . S
N574 H587 0.985 . S
N575 C577 1.356 . S
N575 H580 0.984 . S
N575 H581 0.985 . S
C576 C570 1.379 . S
C576 C573 1.363 . S
C576 N574 1.356 . S
C577 C571 1.363 . S
C577 C572 1.379 . S
C577 N575 1.356 . S
N578 C570 1.356 . S
N578 H584 0.984 . S
N578 H585 0.984 . S
N579 C572 1.356 . S
N579 H582 0.984 . S
N579 H583 0.985 . S
H580 N575 0.984 . S
H581 N575 0.985 . S
H582 N579 0.984 . S
H583 N579 0.985 . S
H584 N578 0.984 . S
H585 N578 0.984 . S
H586 N574 0.984 . S
H587 N574 0.985 . S
C588 C589 1.363 . S
C588 C594 1.379 . S
C588 N596 1.356 . S
C589 C588 1.363 . S
C589 C595 1.363 . S
C590 C591 1.363 . S
C590 C595 1.379 . S
C590 N597 1.356 . S
C591 C590 1.363 . S
C591 C594 1.363 . S
N592 C594 1.356 . S
N592 H604 0.984 . S
N592 H605 0.985 . S
N593 C595 1.356 . S
N593 H598 0.984 . S
N593 H599 0.985 . S
C594 C588 1.379 . S
C594 C591 1.363 . S
C594 N592 1.356 . S
C595 C589 1.363 . S
C595 C590 1.379 . S
C595 N593 1.356 . S
N596 C588 1.356 . S
N596 H602 0.984 . S
N596 H603 0.984 . S
N597 C590 1.356 . S
N597 H600 0.984 . S
N597 H601 0.985 . S
H598 N593 0.984 . S
H599 N593 0.985 . S
H600 N597 0.984 . S
H601 N597 0.985 . S
H602 N596 0.984 . S
H603 N596 0.984 . S
H604 N592 0.984 . S
H605 N592 0.985 . S
C606 C607 1.363 . S
C606 C612 1.379 . S
C606 N614 1.356 . S
C607 C606 1.363 . S
C607 C613 1.363 . S
C608 C609 1.363 . S
C608 C613 1.379 . S
C608 N615 1.356 . S
C609 C608 1.363 . S
C609 C612 1.363 . S
N610 C612 1.356 . S
N610 H622 0.984 . S
N610 H623 0.985 . S
N611 C613 1.356 . S
N611 H616 0.984 . S
N611 H617 0.985 . S
C612 C606 1.379 . S
C612 C609 1.363 . S
C612 N610 1.356 . S
C613 C607 1.363 . S
C613 C608 1.379 . S
C613 N611 1.356 . S
N614 C606 1.356 . S
N614 H620 0.984 . S
N614 H621 0.984 . S
N615 C608 1.356 . S
N615 H618 0.984 . S
N615 H619 0.985 . S
H616 N611 0.984 . S
H617 N611 0.985 . S
H618 N615 0.984 . S
H619 N615 0.985 . S
H620 N614 0.984 . S
H621 N614 0.984 . S
H622 N610 0.984 . S
H623 N610 0.985 . S
C624 C625 1.363 . S
C624 C630 1.379 . S
C624 N632 1.356 . S
C625 C624 1.363 . S
C625 C631 1.363 . S
C626 C627 1.363 . S
C626 C631 1.379 . S
C626 N633 1.356 . S
C627 C626 1.363 . S
C627 C630 1.363 . S
N628 C630 1.356 . S
N628 H640 0.984 . S
N628 H641 0.985 . S
N629 C631 1.356 . S
N629 H634 0.984 . S
N629 H635 0.985 . S
C630 C624 1.379 . S
C630 C627 1.363 . S
C630 N628 1.356 . S
C631 C625 1.363 . S
C631 C626 1.379 . S
C631 N629 1.356 . S
N632 C624 1.356 . S
N632 H638 0.984 . S
N632 H639 0.984 . S
N633 C626 1.356 . S
N633 H636 0.984 . S
N633 H637 0.985 . S
H634 N629 0.984 . S
H635 N629 0.985 . S
H636 N633 0.984 . S
H637 N633 0.985 . S
H638 N632 0.984 . S
H639 N632 0.984 . S
H640 N628 0.984 . S
H641 N628 0.985 . S
C642 C643 1.363 . S
C642 C648 1.379 . S
C642 N650 1.356 . S
C643 C642 1.363 . S
C643 C649 1.363 . S
C644 C645 1.363 . S
C644 C649 1.379 . S
C644 N651 1.356 . S
C645 C644 1.363 . S
C645 C648 1.363 . S
N646 C648 1.356 . S
N646 H658 0.984 . S
N646 H659 0.985 . S
N647 C649 1.356 . S
N647 H652 0.984 . S
N647 H653 0.985 . S
C648 C642 1.379 . S
C648 C645 1.363 . S
C648 N646 1.356 . S
C649 C643 1.363 . S
C649 C644 1.379 . S
C649 N647 1.356 . S
N650 C642 1.356 . S
N650 H656 0.984 . S
N650 H657 0.984 . S
N651 C644 1.356 . S
N651 H654 0.984 . S
N651 H655 0.985 . S
H652 N647 0.984 . S
H653 N647 0.985 . S
H654 N651 0.984 . S
H655 N651 0.985 . S
H656 N650 0.984 . S
H657 N650 0.984 . S
H658 N646 0.984 . S
H659 N646 0.985 . S
C660 C661 1.363 . S
C660 C666 1.379 . S
C660 N668 1.356 . S
C661 C660 1.363 . S
C661 C667 1.363 . S
C662 C663 1.363 . S
C662 C667 1.379 . S
C662 N669 1.356 . S
C663 C662 1.363 . S
C663 C666 1.363 . S
N664 C666 1.356 . S
N664 H676 0.984 . S
N664 H677 0.985 . S
N665 C667 1.356 . S
N665 H670 0.984 . S
N665 H671 0.985 . S
C666 C660 1.379 . S
C666 C663 1.363 . S
C666 N664 1.356 . S
C667 C661 1.363 . S
C667 C662 1.379 . S
C667 N665 1.356 . S
N668 C660 1.356 . S
N668 H674 0.984 . S
N668 H675 0.984 . S
N669 C662 1.356 . S
N669 H672 0.984 . S
N669 H673 0.985 . S
H670 N665 0.984 . S
H671 N665 0.985 . S
H672 N669 0.984 . S
H673 N669 0.985 . S
H674 N668 0.984 . S
H675 N668 0.984 . S
H676 N664 0.984 . S
H677 N664 0.985 . S
C678 C679 1.363 . S
C678 C684 1.379 . S
C678 N686 1.356 . S
C679 C678 1.363 . S
C679 C685 1.363 . S
C680 C681 1.363 . S
C680 C685 1.379 . S
C680 N687 1.356 . S
C681 C680 1.363 . S
C681 C684 1.363 . S
N682 C684 1.356 . S
N682 H694 0.984 . S
N682 H695 0.985 . S
N683 C685 1.356 . S
N683 H688 0.984 . S
N683 H689 0.985 . S
C684 C678 1.379 . S
C684 C681 1.363 . S
C684 N682 1.356 . S
C685 C679 1.363 . S
C685 C680 1.379 . S
C685 N683 1.356 . S
N686 C678 1.356 . S
N686 H692 0.984 . S
N686 H693 0.984 . S
N687 C680 1.356 . S
N687 H690 0.984 . S
N687 H691 0.985 . S
H688 N683 0.984 . S
H689 N683 0.985 . S
H690 N687 0.984 . S
H691 N687 0.985 . S
H692 N686 0.984 . S
H693 N686 0.984 . S
H694 N682 0.984 . S
H695 N682 0.985 . S
C696 C697 1.363 . S
C696 C702 1.379 . S
C696 N704 1.356 . S
C697 C696 1.363 . S
C697 C703 1.363 . S
C698 C699 1.363 . S
C698 C703 1.379 . S
C698 N705 1.356 . S
C699 C698 1.363 . S
C699 C702 1.363 . S
N700 C702 1.356 . S
N700 H712 0.984 . S
N700 H713 0.985 . S
N701 C703 1.356 . S
N701 H706 0.984 . S
N701 H707 0.985 . S
C702 C696 1.379 . S
C702 C699 1.363 . S
C702 N700 1.356 . S
C703 C697 1.363 . S
C703 C698 1.379 . S
C703 N701 1.356 . S
N704 C696 1.356 . S
N704 H710 0.984 . S
N704 H711 0.984 . S
N705 C698 1.356 . S
N705 H708 0.984 . S
N705 H709 0.985 . S
H706 N701 0.984 . S
H707 N701 0.985 . S
H708 N705 0.984 . S
H709 N705 0.985 . S
H710 N704 0.984 . S
H711 N704 0.984 . S
H712 N700 0.984 . S
H713 N700 0.985 . S
C714 C715 1.363 . S
C714 C720 1.379 . S
C714 N722 1.356 . S
C715 C714 1.363 . S
C715 C721 1.363 . S
C716 C717 1.363 . S
C716 C721 1.379 . S
C716 N723 1.356 . S
C717 C716 1.363 . S
C717 C720 1.363 . S
N718 C720 1.356 . S
N718 H730 0.984 . S
N718 H731 0.985 . S
N719 C721 1.356 . S
N719 H724 0.984 . S
N719 H725 0.985 . S
C720 C714 1.379 . S
C720 C717 1.363 . S
C720 N718 1.356 . S
C721 C715 1.363 . S
C721 C716 1.379 . S
C721 N719 1.356 . S
N722 C714 1.356 . S
N722 H728 0.984 . S
N722 H729 0.984 . S
N723 C716 1.356 . S
N723 H726 0.984 . S
N723 H727 0.985 . S
H724 N719 0.984 . S
H725 N719 0.985 . S
H726 N723 0.984 . S
H727 N723 0.985 . S
H728 N722 0.984 . S
H729 N722 0.984 . S
H730 N718 0.984 . S
H731 N718 0.985 . S
C732 C733 1.363 . S
C732 C738 1.379 . S
C732 N740 1.356 . S
C733 C732 1.363 . S
C733 C739 1.363 . S
C734 C735 1.363 . S
C734 C739 1.379 . S
C734 N741 1.356 . S
C735 C734 1.363 . S
C735 C738 1.363 . S
N736 C738 1.356 . S
N736 H748 0.984 . S
N736 H749 0.985 . S
N737 C739 1.356 . S
N737 H742 0.984 . S
N737 H743 0.985 . S
C738 C732 1.379 . S
C738 C735 1.363 . S
C738 N736 1.356 . S
C739 C733 1.363 . S
C739 C734 1.379 . S
C739 N737 1.356 . S
N740 C732 1.356 . S
N740 H746 0.984 . S
N740 H747 0.984 . S
N741 C734 1.356 . S
N741 H744 0.984 . S
N741 H745 0.985 . S
H742 N737 0.984 . S
H743 N737 0.985 . S
H744 N741 0.984 . S
H745 N741 0.985 . S
H746 N740 0.984 . S
H747 N740 0.984 . S
H748 N736 0.984 . S
H749 N736 0.985 . S
C750 C751 1.363 . S
C750 C756 1.379 . S
C750 N758 1.356 . S
C751 C750 1.363 . S
C751 C757 1.363 . S
C752 C753 1.363 . S
C752 C757 1.379 . S
C752 N759 1.356 . S
C753 C752 1.363 . S
C753 C756 1.363 . S
N754 C756 1.356 . S
N754 H766 0.984 . S
N754 H767 0.985 . S
N755 C757 1.356 . S
N755 H760 0.984 . S
N755 H761 0.985 . S
C756 C750 1.379 . S
C756 C753 1.363 . S
C756 N754 1.356 . S
C757 C751 1.363 . S
C757 C752 1.379 . S
C757 N755 1.356 . S
N758 C750 1.356 . S
N758 H764 0.984 . S
N758 H765 0.984 . S
N759 C752 1.356 . S
N759 H762 0.984 . S
N759 H763 0.985 . S
H760 N755 0.984 . S
H761 N755 0.985 . S
H762 N759 0.984 . S
H763 N759 0.985 . S
H764 N758 0.984 . S
H765 N758 0.984 . S
H766 N754 0.984 . S
H767 N754 0.985 . S
C768 C769 1.363 . S
C768 C774 1.379 . S
C768 N776 1.356 . S
C769 C768 1.363 . S
C769 C775 1.363 . S
C770 C771 1.363 . S
C770 C775 1.379 . S
C770 N777 1.356 . S
C771 C770 1.363 . S
C771 C774 1.363 . S
N772 C774 1.356 . S
N772 H784 0.984 . S
N772 H785 0.985 . S
N773 C775 1.360 . S
N773 H778 0.984 1_554 S
N773 H779 0.981 1_554 S
C774 C768 1.379 . S
C774 C771 1.363 . S
C774 N772 1.356 . S
C775 C769 1.363 . S
C775 C770 1.379 . S
C775 N773 1.360 . S
N776 C768 1.356 . S
N776 H782 0.984 . S
N776 H783 0.984 . S
N777 C770 1.356 . S
N777 H780 0.984 . S
N777 H781 0.985 . S
H778 N773 0.984 1_556 S
H779 N773 0.981 1_556 S
H780 N777 0.984 . S
H781 N777 0.985 . S
H782 N776 0.984 . S
H783 N776 0.984 . S
H784 N772 0.984 . S
H785 N772 0.985 . S
C786 C787 1.363 . S
C786 C792 1.379 . S
C786 N794 1.356 . S
C787 C786 1.363 . S
C787 C793 1.363 . S
C788 C789 1.363 . S
C788 C793 1.379 . S
C788 N795 1.356 . S
C789 C788 1.363 . S
C789 C792 1.363 . S
N790 C792 1.356 . S
N790 H802 0.984 . S
N790 H803 0.985 . S
N791 C793 1.356 . S
N791 H796 0.984 . S
N791 H797 0.985 . S
C792 C786 1.379 . S
C792 C789 1.363 . S
C792 N790 1.356 . S
C793 C787 1.363 . S
C793 C788 1.379 . S
C793 N791 1.356 . S
N794 C786 1.356 . S
N794 H800 0.984 . S
N794 H801 0.984 . S
N795 C788 1.356 . S
N795 H798 0.984 . S
N795 H799 0.985 . S
H796 N791 0.984 . S
H797 N791 0.985 . S
H798 N795 0.984 . S
H799 N795 0.985 . S
H800 N794 0.984 . S
H801 N794 0.984 . S
H802 N790 0.984 . S
H803 N790 0.985 . S
C804 C805 1.363 . S
C804 C810 1.379 . S
C804 N812 1.356 . S
C805 C804 1.363 . S
C805 C811 1.363 . S
C806 C807 1.363 . S
C806 C811 1.379 . S
C806 N813 1.356 . S
C807 C806 1.363 . S
C807 C810 1.363 . S
N808 C810 1.356 . S
N808 H820 0.984 . S
N808 H821 0.985 . S
N809 C811 1.356 . S
N809 H814 0.984 . S
N809 H815 0.985 . S
C810 C804 1.379 . S
C810 C807 1.363 . S
C810 N808 1.356 . S
C811 C805 1.363 . S
C811 C806 1.379 . S
C811 N809 1.356 . S
N812 C804 1.356 . S
N812 H818 0.984 . S
N812 H819 0.984 . S
N813 C806 1.356 . S
N813 H816 0.984 . S
N813 H817 0.985 . S
H814 N809 0.984 . S
H815 N809 0.985 . S
H816 N813 0.984 . S
H817 N813 0.985 . S
H818 N812 0.984 . S
H819 N812 0.984 . S
H820 N808 0.984 . S
H821 N808 0.985 . S
C822 C823 1.363 . S
C822 C828 1.379 . S
C822 N830 1.356 . S
C823 C822 1.363 . S
C823 C829 1.363 . S
C824 C825 1.363 . S
C824 C829 1.379 . S
C824 N831 1.356 . S
C825 C824 1.363 . S
C825 C828 1.363 . S
N826 C828 1.356 . S
N826 H838 0.984 . S
N826 H839 0.985 . S
N827 C829 1.356 . S
N827 H832 0.984 . S
N827 H833 0.985 . S
C828 C822 1.379 . S
C828 C825 1.363 . S
C828 N826 1.356 . S
C829 C823 1.363 . S
C829 C824 1.379 . S
C829 N827 1.356 . S
N830 C822 1.356 . S
N830 H836 0.984 . S
N830 H837 0.984 . S
N831 C824 1.356 . S
N831 H834 0.984 . S
N831 H835 0.985 . S
H832 N827 0.984 . S
H833 N827 0.985 . S
H834 N831 0.984 . S
H835 N831 0.985 . S
H836 N830 0.984 . S
H837 N830 0.984 . S
H838 N826 0.984 . S
H839 N826 0.985 . S
C840 C841 1.363 . S
C840 C846 1.379 . S
C840 N848 1.356 . S
C841 C840 1.363 . S
C841 C847 1.363 . S
C842 C843 1.363 . S
C842 C847 1.379 . S
C842 N849 1.356 . S
C843 C842 1.363 . S
C843 C846 1.363 . S
N844 C846 1.356 . S
N844 H856 0.984 . S
N844 H857 0.985 . S
N845 C847 1.356 . S
N845 H850 0.984 . S
N845 H851 0.985 . S
C846 C840 1.379 . S
C846 C843 1.363 . S
C846 N844 1.356 . S
C847 C841 1.363 . S
C847 C842 1.379 . S
C847 N845 1.356 . S
N848 C840 1.356 . S
N848 H854 0.984 . S
N848 H855 0.984 . S
N849 C842 1.356 . S
N849 H852 0.984 . S
N849 H853 0.985 . S
H850 N845 0.984 . S
H851 N845 0.985 . S
H852 N849 0.984 . S
H853 N849 0.985 . S
H854 N848 0.984 . S
H855 N848 0.984 . S
H856 N844 0.984 . S
H857 N844 0.985 . S
C427 C39 1.682 . S
C429 C332 1.570 . S
C445 C91 1.630 . S
C447 C343 1.561 . S
C465 C362 1.440 . S
C463 C128 1.488 . S
C483 C379 1.421 . S
C481 C188 1.450 . S
C501 C406 1.504 . S
C499 C250 1.533 . S
C519 C415 1.555 . S
C517 C304 1.643 . S
C535 C75 1.572 . S
C537 C368 1.470 . S
C553 C144 1.677 . S
C555 C388 1.579 . S
C573 C397 1.527 . S
C571 C198 1.612 . S
C591 C424 1.430 . S
C589 C234 1.478 . S
C607 C294 1.434 . S
C609 C326 1.403 . S
C627 C352 1.433 . S
C625 C29 1.473 . S
C645 C380 1.609 . S
C643 C38 1.731 . S
C661 C92 1.676 . S
C663 C404 1.597 . S
C681 C416 1.477 . S
C679 C135 1.542 . S
C697 C181 1.502 . S
C699 C334 1.437 . S
C715 C251 1.581 . S
C717 C344 1.535 . S
C733 C303 1.706 . S
C735 C361 1.578 . S
C751 C82 1.629 . S
C753 C422 1.519 . S
C771 C325 1.591 . S
C769 C145 1.727 . S
C787 C197 1.662 . S
C789 C350 1.568 . S
C805 C241 1.536 . S
C807 C370 1.436 . S
C823 C287 1.481 . S
C825 C386 1.442 . S
C841 C22 1.515 . S
C843 C398 1.460 . S
