# Generated by pormake.
# Topology pyr, (3,6)-cn, num edge types: 1
# Building blocks:
#     Node 0, Type 0, BuildingBlock: BELTOD_clean_linker_0, # of connection points: 3
#     Node 1, Type 0, BuildingBlock: BELTOD_clean_linker_0, # of connection points: 3
#     Node 2, Type 0, BuildingBlock: BELTOD_clean_linker_0, # of connection points: 3
#     Node 3, Type 0, BuildingBlock: BELTOD_clean_linker_0, # of connection points: 3
#     Node 4, Type 0, BuildingBlock: BELTOD_clean_linker_0, # of connection points: 3
#     Node 5, Type 0, BuildingBlock: BELTOD_clean_linker_0, # of connection points: 3
#     Node 6, Type 0, BuildingBlock: BELTOD_clean_linker_0, # of connection points: 3
#     Node 7, Type 0, BuildingBlock: BELTOD_clean_linker_0, # of connection points: 3
#     Node 8, Type 1, BuildingBlock: MIDCAF_clean_sbu_0, # of connection points: 6
#     Node 9, Type 1, BuildingBlock: MIDCAF_clean_sbu_0, # of connection points: 6
#     Node 10, Type 1, BuildingBlock: MIDCAF_clean_sbu_0, # of connection points: 6
#     Node 11, Type 1, BuildingBlock: MIDCAF_clean_sbu_0, # of connection points: 6
#     Edge 12, Type (0, 1), BuildingBlock: OJICUG_clean_linker_0, # of connection points: 2
#     Edge 13, Type (0, 1), BuildingBlock: OJICUG_clean_linker_0, # of connection points: 2
#     Edge 14, Type (0, 1), BuildingBlock: OJICUG_clean_linker_0, # of connection points: 2
#     Edge 15, Type (0, 1), BuildingBlock: OJICUG_clean_linker_0, # of connection points: 2
#     Edge 16, Type (0, 1), BuildingBlock: OJICUG_clean_linker_0, # of connection points: 2
#     Edge 17, Type (0, 1), BuildingBlock: OJICUG_clean_linker_0, # of connection points: 2
#     Edge 18, Type (0, 1), BuildingBlock: OJICUG_clean_linker_0, # of connection points: 2
#     Edge 19, Type (0, 1), BuildingBlock: OJICUG_clean_linker_0, # of connection points: 2
#     Edge 20, Type (0, 1), BuildingBlock: OJICUG_clean_linker_0, # of connection points: 2
#     Edge 21, Type (0, 1), BuildingBlock: OJICUG_clean_linker_0, # of connection points: 2
#     Edge 22, Type (0, 1), BuildingBlock: OJICUG_clean_linker_0, # of connection points: 2
#     Edge 23, Type (0, 1), BuildingBlock: OJICUG_clean_linker_0, # of connection points: 2
#     Edge 24, Type (0, 1), BuildingBlock: OJICUG_clean_linker_0, # of connection points: 2
#     Edge 25, Type (0, 1), BuildingBlock: OJICUG_clean_linker_0, # of connection points: 2
#     Edge 26, Type (0, 1), BuildingBlock: OJICUG_clean_linker_0, # of connection points: 2
#     Edge 27, Type (0, 1), BuildingBlock: OJICUG_clean_linker_0, # of connection points: 2
#     Edge 28, Type (0, 1), BuildingBlock: OJICUG_clean_linker_0, # of connection points: 2
#     Edge 29, Type (0, 1), BuildingBlock: OJICUG_clean_linker_0, # of connection points: 2
#     Edge 30, Type (0, 1), BuildingBlock: OJICUG_clean_linker_0, # of connection points: 2
#     Edge 31, Type (0, 1), BuildingBlock: OJICUG_clean_linker_0, # of connection points: 2
#     Edge 32, Type (0, 1), BuildingBlock: OJICUG_clean_linker_0, # of connection points: 2
#     Edge 33, Type (0, 1), BuildingBlock: OJICUG_clean_linker_0, # of connection points: 2
#     Edge 34, Type (0, 1), BuildingBlock: OJICUG_clean_linker_0, # of connection points: 2
#     Edge 35, Type (0, 1), BuildingBlock: OJICUG_clean_linker_0, # of connection points: 2
# Relax obj value: 0.020
# Max RMSD: 0.063
# Mean RMSD: 0.033
data_MOF--net-pry--node1-MIDCAF_clean_sbu_0--node2-BELTOD_clean_linker_0--edge1-OJICUG_clean_linker_0
_symmetry_space_group_name_H-M    P1
_symmetry_Int_Tables_number       1
_symmetry_cell_setting            triclinic
loop_
_symmetry_equiv_pos_as_xyz
'x, y, z'
_cell_length_a     30.750099
_cell_length_b     31.033123
_cell_length_c     30.439526
_cell_angle_alpha  89.30975
_cell_angle_beta   89.936161
_cell_angle_gamma 90.419156
loop_
_atom_site_label
_atom_site_type_symbol
_atom_site_fract_x
_atom_site_fract_y
_atom_site_fract_z
_atom_type_partial_charge
P0 P 0.27333 0.26637 0.27376 0.0
H1 H 0.36143 0.28241 0.24074 0.0
H2 H 0.40839 0.24343 0.18991 0.0
H3 H 0.30812 0.14674 0.17431 0.0
H4 H 0.26107 0.18615 0.22447 0.0
H5 H 0.25055 0.35788 0.28103 0.0
H6 H 0.20312 0.40496 0.23762 0.0
H7 H 0.17545 0.29944 0.15034 0.0
H8 H 0.22158 0.25249 0.19457 0.0
H9 H 0.28437 0.17758 0.30633 0.0
H10 H 0.191 0.27935 0.32041 0.0
O11 O 0.3045 0.29592 0.30683 0.0
H12 H 0.23965 0.13019 0.35137 0.0
H13 H 0.14762 0.23346 0.36949 0.0
C14 C 0.30821 0.23656 0.23742 0.0
C15 C 0.34968 0.25263 0.2267 0.0
C16 C 0.37642 0.23047 0.19752 0.0
C17 C 0.3621 0.19178 0.17861 0.0
C18 C 0.32034 0.176 0.18909 0.0
C19 C 0.29344 0.19852 0.21775 0.0
C20 C 0.23988 0.30171 0.24086 0.0
C21 C 0.23446 0.34499 0.25238 0.0
C22 C 0.20758 0.372 0.22732 0.0
C23 C 0.18543 0.35607 0.19043 0.0
C24 C 0.19154 0.31273 0.17881 0.0
C25 C 0.2182 0.28581 0.20396 0.0
C26 C 0.2401 0.23142 0.30816 0.0
C27 C 0.25399 0.18974 0.31894 0.0
C28 C 0.22859 0.16281 0.34586 0.0
C29 C 0.18948 0.17753 0.36454 0.0
C30 C 0.17669 0.2202 0.35504 0.0
C31 C 0.20166 0.24673 0.32703 0.0
P32 P 0.30859 0.82583 0.72258 0.0
H33 H 0.37729 0.78821 0.77725 0.0
H34 H 0.40755 0.80994 0.84736 0.0
H35 H 0.30589 0.90503 0.85898 0.0
H36 H 0.27386 0.88002 0.79175 0.0
H37 H 0.32394 0.79683 0.63424 0.0
H38 H 0.3514 0.72959 0.6053 0.0
H39 H 0.34003 0.67061 0.73423 0.0
H40 H 0.31198 0.73854 0.76299 0.0
H41 H 0.27285 0.91038 0.70553 0.0
H42 H 0.2248 0.77973 0.71489 0.0
O43 O 0.3421 0.85909 0.69516 0.0
H44 H 0.20229 0.9345 0.67991 0.0
H45 H 0.15306 0.8038 0.68975 0.0
C46 C 0.32269 0.83177 0.7795 0.0
C47 C 0.36019 0.81206 0.79616 0.0
C48 C 0.37807 0.82529 0.83603 0.0
C49 C 0.35999 0.86005 0.85892 0.0
C50 C 0.32079 0.87777 0.84324 0.0
C51 C 0.30232 0.86362 0.80413 0.0
C52 C 0.31786 0.77305 0.70103 0.0
C53 C 0.32645 0.76917 0.65611 0.0
C54 C 0.34174 0.73048 0.63951 0.0
C55 C 0.34858 0.69495 0.66767 0.0
C56 C 0.33579 0.69774 0.71196 0.0
C57 C 0.32001 0.73653 0.72845 0.0
C58 C 0.25421 0.8432 0.71097 0.0
C59 C 0.24673 0.88697 0.70276 0.0
C60 C 0.20605 0.9008 0.68865 0.0
C61 C 0.17193 0.87105 0.68257 0.0
C62 C 0.17882 0.82743 0.69364 0.0
C63 C 0.21974 0.81362 0.70794 0.0
P64 P 0.77967 0.27589 0.76419 0.0
H65 H 0.85258 0.25452 0.82073 0.0
H66 H 0.89741 0.29679 0.871 0.0
H67 H 0.82485 0.41091 0.8364 0.0
H68 H 0.78025 0.36852 0.78613 0.0
H69 H 0.74188 0.19216 0.74333 0.0
H70 H 0.69649 0.14109 0.78502 0.0
H71 H 0.7007 0.22558 0.89676 0.0
H72 H 0.74648 0.27622 0.85497 0.0
H73 H 0.79642 0.32712 0.68507 0.0
H74 H 0.68703 0.29882 0.76956 0.0
O75 O 0.81256 0.24841 0.73128 0.0
H76 H 0.75133 0.37557 0.64088 0.0
H77 H 0.64136 0.3461 0.7249 0.0
C78 C 0.81326 0.30832 0.79955 0.0
C79 C 0.84656 0.28871 0.82375 0.0
C80 C 0.87205 0.31288 0.85253 0.0
C81 C 0.86471 0.35724 0.85763 0.0
C82 C 0.8317 0.37696 0.83274 0.0
C83 C 0.806 0.35264 0.80414 0.0
C84 C 0.7481 0.23763 0.79624 0.0
C85 C 0.73345 0.19942 0.77698 0.0
C86 C 0.70733 0.17035 0.8008 0.0
C87 C 0.6951 0.17911 0.84435 0.0
C88 C 0.71017 0.21742 0.86362 0.0
C89 C 0.7362 0.24654 0.83967 0.0
C90 C 0.74498 0.30896 0.73023 0.0
C91 C 0.76247 0.3308 0.69364 0.0
C92 C 0.73654 0.35832 0.66825 0.0
C93 C 0.69257 0.36469 0.67914 0.0
C94 C 0.67515 0.34233 0.71575 0.0
C95 C 0.70119 0.31496 0.74119 0.0
P96 P 0.75046 0.7842 0.24986 0.0
H97 H 0.79324 0.86658 0.2316 0.0
H98 H 0.83899 0.91384 0.27617 0.0
H99 H 0.81997 0.8287 0.38802 0.0
H100 H 0.77403 0.78199 0.34348 0.0
H101 H 0.7462 0.74299 0.16402 0.0
H102 H 0.79586 0.69503 0.12538 0.0
H103 H 0.88817 0.70652 0.23161 0.0
H104 H 0.83818 0.75358 0.27024 0.0
H105 H 0.66938 0.80165 0.2953 0.0
H106 H 0.75443 0.69316 0.27859 0.0
O107 O 0.72027 0.81243 0.21442 0.0
H108 H 0.62392 0.75869 0.34558 0.0
H109 H 0.70951 0.65028 0.32903 0.0
C110 C 0.77968 0.8212 0.28436 0.0
C111 C 0.7983 0.85857 0.26593 0.0
C112 C 0.82463 0.88539 0.29138 0.0
C113 C 0.83305 0.87508 0.33569 0.0
C114 C 0.81352 0.83799 0.35425 0.0
C115 C 0.7873 0.81115 0.32872 0.0
C116 C 0.78875 0.75232 0.21967 0.0
C117 C 0.77741 0.73563 0.17863 0.0
C118 C 0.80591 0.7084 0.1565 0.0
C119 C 0.84603 0.69702 0.17537 0.0
C120 C 0.85741 0.71438 0.2163 0.0
C121 C 0.82894 0.74158 0.23832 0.0
C122 C 0.71497 0.75053 0.28283 0.0
C123 C 0.67791 0.76841 0.30198 0.0
C124 C 0.65214 0.74391 0.3309 0.0
C125 C 0.6631 0.70105 0.34129 0.0
C126 C 0.6998 0.68295 0.32121 0.0
C127 C 0.72566 0.70757 0.29243 0.0
P128 P 0.94404 0.94639 0.94864 0.0
H129 H 0.88583 0.94146 0.02321 0.0
H130 H 0.81392 0.97044 0.03759 0.0
H131 H 0.8123 0.02893 0.90807 0.0
H132 H 0.88476 0.99958 0.89378 0.0
H133 H 0.01217 0.89716 0.99243 0.0
H134 H 0.01723 0.82208 0.01631 0.0
H135 H 0.8861 0.79907 0.97063 0.0
H136 H 0.88184 0.87425 0.94574 0.0
H137 H 0.01932 0.98666 0.90555 0.0
H138 H 0.9067 0.91265 0.8672 0.0
O139 O 0.97789 0.97588 0.97904 0.0
H140 H 0.03921 0.99713 0.8286 0.0
H141 H 0.92588 0.9239 0.78963 0.0
C142 C 0.89025 0.96742 0.95713 0.0
C143 C 0.87 0.96034 0.99778 0.0
C144 C 0.82904 0.97738 0.00611 0.0
C145 C 0.80751 0.00231 0.97405 0.0
C146 C 0.82798 0.00966 0.93328 0.0
C147 C 0.86932 0.99271 0.92506 0.0
C148 C 0.9465 0.89134 0.96777 0.0
C149 C 0.98434 0.87607 0.98798 0.0
C150 C 0.98699 0.83316 0.00207 0.0
C151 C 0.95185 0.80453 0.99594 0.0
C152 C 0.91378 0.82017 0.97585 0.0
C153 C 0.91125 0.86315 0.96165 0.0
C154 C 0.96104 0.94961 0.89201 0.0
C155 C 0.99896 0.97239 0.88057 0.0
C156 C 0.01033 0.97837 0.83648 0.0
C157 C 0.98387 0.9618 0.80291 0.0
C158 C 0.94715 0.93683 0.81464 0.0
C159 C 0.93592 0.93069 0.85891 0.0
P160 P 0.63678 0.17228 0.3792 0.0
H161 H 0.6855 0.21339 0.44875 0.0
H162 H 0.66403 0.26598 0.50373 0.0
H163 H 0.52913 0.24481 0.46962 0.0
H164 H 0.55068 0.19162 0.41631 0.0
H165 H 0.72544 0.15711 0.34913 0.0
H166 H 0.78132 0.10779 0.3734 0.0
H167 H 0.68916 0.04621 0.4622 0.0
H168 H 0.63433 0.09866 0.44 0.0
H169 H 0.56757 0.21292 0.32891 0.0
H170 H 0.60817 0.08347 0.36065 0.0
O171 O 0.6609 0.20941 0.34719 0.0
H172 H 0.51592 0.18447 0.27523 0.0
H173 H 0.55858 0.05523 0.30697 0.0
C174 C 0.61974 0.19931 0.42794 0.0
C175 C 0.65122 0.21902 0.45436 0.0
C176 C 0.63894 0.24913 0.48566 0.0
C177 C 0.59496 0.26021 0.49054 0.0
C178 C 0.56329 0.23699 0.46703 0.0
C179 C 0.57563 0.20678 0.43593 0.0
C180 C 0.67605 0.13191 0.39333 0.0
C181 C 0.71718 0.13291 0.37371 0.0
C182 C 0.74905 0.10393 0.38718 0.0
C183 C 0.74013 0.07277 0.42009 0.0
C184 C 0.6977 0.07024 0.43755 0.0
C185 C 0.6662 0.10008 0.42483 0.0
C186 C 0.59228 0.15043 0.34822 0.0
C187 C 0.56471 0.17836 0.32503 0.0
C188 C 0.53525 0.16208 0.29438 0.0
C189 C 0.53339 0.1176 0.28622 0.0
C190 C 0.55848 0.08962 0.31251 0.0
C191 C 0.5876 0.1059 0.34319 0.0
P192 P 0.44479 0.60557 0.09426 0.0
H193 H 0.38062 0.61607 0.02564 0.0
H194 H 0.30516 0.59217 0.01802 0.0
H195 H 0.30835 0.53771 0.14908 0.0
H196 H 0.38465 0.56043 0.15616 0.0
H197 H 0.5014 0.63966 0.02447 0.0
H198 H 0.51631 0.71256 0.99735 0.0
H199 H 0.42216 0.76242 0.08886 0.0
H200 H 0.40636 0.68899 0.11475 0.0
H201 H 0.5245 0.56789 0.12938 0.0
H202 H 0.41537 0.63875 0.17933 0.0
O203 O 0.471 0.57043 0.0629 0.0
H204 H 0.55197 0.55796 0.20394 0.0
H205 H 0.44206 0.628 0.25435 0.0
C206 C 0.38797 0.59119 0.09186 0.0
C207 C 0.36507 0.59937 0.05295 0.0
C208 C 0.32211 0.58539 0.04849 0.0
C209 C 0.30111 0.56305 0.08298 0.0
C210 C 0.32384 0.55511 0.12219 0.0
C211 C 0.3673 0.56845 0.12632 0.0
C212 C 0.45303 0.65899 0.07189 0.0
C213 C 0.4835 0.66617 0.0383 0.0
C214 C 0.49207 0.70795 0.02285 0.0
C215 C 0.47062 0.74346 0.04106 0.0
C216 C 0.43888 0.73586 0.07367 0.0
C217 C 0.43018 0.69394 0.08892 0.0
C218 C 0.46714 0.60287 0.14897 0.0
C219 C 0.50647 0.58148 0.15639 0.0
C220 C 0.52223 0.57587 0.19909 0.0
C221 C 0.49891 0.5916 0.23524 0.0
C222 C 0.46101 0.61566 0.22732 0.0
C223 C 0.44542 0.62146 0.18446 0.0
P224 P 0.17261 0.35912 0.67144 0.0
H225 H 0.20978 0.30659 0.60245 0.0
H226 H 0.17767 0.25782 0.54856 0.0
H227 H 0.04954 0.28993 0.5963 0.0
H228 H 0.08149 0.33891 0.64847 0.0
H229 H 0.22035 0.42911 0.71252 0.0
H230 H 0.26931 0.48481 0.68303 0.0
H231 H 0.23884 0.44326 0.55129 0.0
H232 H 0.18857 0.3902 0.58081 0.0
H233 H 0.15873 0.33933 0.76467 0.0
H234 H 0.10068 0.41984 0.66474 0.0
O235 O 0.20906 0.32852 0.69746 0.0
H236 H 0.11166 0.3704 0.8198 0.0
H237 H 0.05094 0.44921 0.71921 0.0
C238 C 0.14813 0.32646 0.62951 0.0
C239 C 0.17471 0.30353 0.60066 0.0
C240 C 0.15634 0.27567 0.56991 0.0
C241 C 0.11098 0.26999 0.56783 0.0
C242 C 0.08452 0.29415 0.59604 0.0
C243 C 0.1029 0.3221 0.62648 0.0
C244 C 0.20145 0.40497 0.64895 0.0
C245 C 0.22353 0.4329 0.67723 0.0
C246 C 0.25171 0.46457 0.6603 0.0
C247 C 0.25873 0.46839 0.61471 0.0
C248 C 0.23417 0.44197 0.58653 0.0
C249 C 0.20566 0.4108 0.60349 0.0
C250 C 0.13348 0.3777 0.71076 0.0
C251 C 0.13508 0.36307 0.7544 0.0
C252 C 0.10752 0.38052 0.78591 0.0
C253 C 0.07737 0.41262 0.77424 0.0
C254 C 0.07425 0.42524 0.72972 0.0
C255 C 0.10251 0.40838 0.69844 0.0
Zn256 Zn 0.95359 0.07522 0.56004 0.0
Zn257 Zn 0.05011 0.96876 0.47025 0.0
Zn258 Zn 0.99933 0.02129 0.51774 0.0
C259 C 0.08336 0.05161 0.45812 0.0
C260 C 0.96482 0.96093 0.43833 0.0
O261 O 0.00176 0.00263 0.5889 0.0
O262 O 0.96978 0.05796 0.62022 0.0
C263 C 0.01293 0.12565 0.51819 0.0
O264 O 0.04997 0.05973 0.48226 0.0
O265 O 0.09282 0.01319 0.44908 0.0
O266 O 0.0032 0.94927 0.42998 0.0
O267 O 0.95729 0.98704 0.47006 0.0
O268 O 0.97706 0.1306 0.53753 0.0
O269 O 0.02633 0.08741 0.50947 0.0
O270 O 0.93155 0.01671 0.49313 0.0
O271 O 0.89592 0.05718 0.5401 0.0
C272 C 0.89564 0.03226 0.50771 0.0
O273 O 0.0294 0.97568 0.56428 0.0
O274 O 0.06586 0.93151 0.52137 0.0
C275 C 0.98922 0.02244 0.62368 0.0
C276 C 0.0539 0.9426 0.55929 0.0
Zn277 Zn 0.47715 0.06856 0.96573 0.0
Zn278 Zn 0.57215 0.98153 0.07897 0.0
Zn279 Zn 0.52812 0.02262 0.02152 0.0
C280 C 0.63244 0.02543 0.02763 0.0
C281 C 0.53081 0.91833 0.0328 0.0
O282 O 0.48692 0.06916 0.05776 0.0
O283 O 0.45259 0.1098 0.00879 0.0
C284 C 0.56525 0.08026 0.9402 0.0
O285 O 0.59786 0.0326 0.00485 0.0
O286 O 0.62954 0.00735 0.06489 0.0
O287 O 0.56205 0.92215 0.05928 0.0
O288 O 0.51235 0.95224 0.01678 0.0
O289 O 0.52682 0.08767 0.92762 0.0
O290 O 0.57212 0.05733 0.97509 0.0
O291 O 0.48644 0.97623 0.98793 0.0
O292 O 0.44121 0.01722 0.9494 0.0
C293 C 0.45342 0.98042 0.96237 0.0
O294 O 0.51339 0.04672 0.08776 0.0
O295 O 0.54255 0.99916 0.13337 0.0
C296 C 0.46086 0.10034 0.04834 0.0
C297 C 0.51991 0.03235 0.12706 0.0
Zn298 Zn 0.56582 0.57904 0.5701 0.0
Zn299 Zn 0.468 0.47668 0.47299 0.0
Zn300 Zn 0.51787 0.52612 0.51778 0.0
C301 C 0.52322 0.42301 0.51906 0.0
C302 C 0.51081 0.52753 0.41173 0.0
O303 O 0.47433 0.56048 0.56301 0.0
O304 O 0.51623 0.60199 0.60413 0.0
C305 C 0.5948 0.49454 0.58458 0.0
O306 O 0.54095 0.45974 0.52736 0.0
O307 O 0.48776 0.42109 0.49837 0.0
O308 O 0.48864 0.49321 0.41382 0.0
O309 O 0.52354 0.54601 0.44726 0.0
O310 O 0.60049 0.53241 0.59826 0.0
O311 O 0.56664 0.48671 0.55427 0.0
O312 O 0.55114 0.57205 0.47328 0.0
O313 O 0.58914 0.61305 0.51866 0.0
C314 C 0.57787 0.60345 0.48 0.0
O315 O 0.44908 0.52948 0.5408 0.0
O316 O 0.40985 0.49637 0.49047 0.0
C317 C 0.47891 0.58829 0.59379 0.0
C318 C 0.41184 0.51738 0.52558 0.0
Zn319 Zn 0.06599 0.57688 0.97507 0.0
Zn320 Zn 0.9713 0.48031 0.07668 0.0
Zn321 Zn 0.02117 0.52776 0.02685 0.0
C322 C 0.05668 0.45989 0.09965 0.0
C323 C 0.95291 0.45533 0.99175 0.0
O324 O 0.99723 0.59601 0.03072 0.0
O325 O 0.03752 0.63218 0.98226 0.0
C326 C 0.12444 0.54267 0.0358 0.0
O327 O 0.06495 0.49226 0.07378 0.0
O328 O 0.01794 0.44728 0.1052 0.0
O329 O 0.93846 0.44996 0.03027 0.0
O330 O 0.98481 0.48175 0.98444 0.0
O331 O 0.12267 0.56817 0.00332 0.0
O332 O 0.08983 0.5233 0.05005 0.0
O333 O 0.01708 0.50195 0.9587 0.0
O334 O 0.05654 0.54797 0.91926 0.0
C335 C 0.03366 0.51416 0.92156 0.0
O336 O 0.97444 0.57044 0.06128 0.0
O337 O 0.94292 0.52685 0.10998 0.0
C338 C 0.00733 0.63138 0.01021 0.0
C339 C 0.94832 0.56422 0.09402 0.0
C340 C 0.11638 0.15185 0.39407 0.0
C341 C 0.1621 0.14806 0.39282 0.0
H342 H 0.05571 0.12474 0.41662 0.0
C343 C 0.18128 0.11431 0.41726 0.0
H344 H 0.09998 0.17686 0.37555 0.0
C345 C 0.15562 0.0837 0.43944 0.0
C346 C 0.11019 0.08686 0.43924 0.0
H347 H 0.21622 0.11088 0.41886 0.0
H348 H 0.17132 0.05719 0.45645 0.0
C349 C 0.09079 0.12184 0.41745 0.0
C350 C 0.43077 0.88479 0.8922 0.0
C351 C 0.38494 0.88242 0.89414 0.0
H352 H 0.48855 0.91743 0.91367 0.0
C353 C 0.36329 0.90737 0.92565 0.0
H354 H 0.44902 0.86662 0.86843 0.0
C355 C 0.3861 0.93785 0.95009 0.0
C356 C 0.43114 0.94243 0.94505 0.0
H357 H 0.32835 0.90536 0.92961 0.0
H358 H 0.36833 0.95913 0.9715 0.0
C359 C 0.45367 0.91423 0.91787 0.0
C360 C 0.66978 0.40067 0.60792 0.0
C361 C 0.66568 0.39618 0.65389 0.0
H362 H 0.65137 0.43636 0.55 0.0
C363 C 0.63693 0.4235 0.67605 0.0
H364 H 0.69154 0.38017 0.58974 0.0
C365 C 0.61336 0.45472 0.65303 0.0
C366 C 0.6177 0.45925 0.60735 0.0
H367 H 0.63353 0.42169 0.71143 0.0
H368 H 0.59201 0.4758 0.67108 0.0
C369 C 0.64617 0.43214 0.58493 0.0
C370 C 0.89356 0.632 0.17959 0.0
C371 C 0.87454 0.66485 0.15409 0.0
H372 H 0.93186 0.57474 0.18038 0.0
C373 C 0.88145 0.66534 0.10834 0.0
H374 H 0.88831 0.63018 0.21475 0.0
C375 C 0.90638 0.63324 0.0886 0.0
C376 C 0.92483 0.60026 0.11424 0.0
H377 H 0.86726 0.69024 0.08779 0.0
H378 H 0.90973 0.63323 0.05323 0.0
C379 C 0.91824 0.60003 0.15987 0.0
C380 C 0.39535 0.12377 0.15043 0.0
C381 C 0.3899 0.16862 0.14687 0.0
H382 H 0.42239 0.06701 0.12192 0.0
C383 C 0.40972 0.19102 0.11169 0.0
H384 H 0.3806 0.10573 0.17732 0.0
C385 C 0.43346 0.16885 0.08004 0.0
C386 C 0.43861 0.12403 0.08348 0.0
H387 H 0.40571 0.22551 0.10789 0.0
H388 H 0.44756 0.18669 0.05265 0.0
C389 C 0.41958 0.1017 0.11906 0.0
C390 C 0.11622 0.85998 0.62399 0.0
C391 C 0.13222 0.88494 0.65872 0.0
H392 H 0.07789 0.85876 0.5654 0.0
C393 C 0.11506 0.92634 0.66499 0.0
H394 H 0.12887 0.82812 0.61793 0.0
C395 C 0.08636 0.94414 0.63434 0.0
C396 C 0.07364 0.92054 0.59742 0.0
H397 H 0.12626 0.94616 0.69181 0.0
H398 H 0.07729 0.97757 0.6376 0.0
C399 C 0.08723 0.87766 0.59362 0.0
C400 C 0.90563 0.42385 0.88135 0.0
C401 C 0.88961 0.38212 0.89077 0.0
H402 H 0.93845 0.47997 0.906 0.0
C403 C 0.89611 0.36455 0.93297 0.0
H404 H 0.90125 0.43818 0.84905 0.0
C405 C 0.91735 0.38829 0.96522 0.0
C406 C 0.93308 0.43004 0.95602 0.0
H407 H 0.88367 0.33278 0.9415 0.0
H408 H 0.92122 0.37401 0.99763 0.0
C409 C 0.92731 0.44757 0.91371 0.0
C410 C 0.62826 0.6324 0.36972 0.0
C411 C 0.63823 0.67634 0.37523 0.0
H412 H 0.60164 0.57467 0.39887 0.0
C413 C 0.62634 0.69622 0.41466 0.0
H414 H 0.63689 0.61619 0.33966 0.0
C415 C 0.60589 0.67258 0.44817 0.0
C416 C 0.59644 0.62862 0.44292 0.0
H417 H 0.63413 0.72981 0.42025 0.0
H418 H 0.59789 0.68864 0.47851 0.0
C419 C 0.60757 0.60876 0.40331 0.0
C420 C 0.16208 0.42732 0.15657 0.0
C421 C 0.15383 0.38336 0.16577 0.0
H422 H 0.1375 0.48637 0.12891 0.0
C423 C 0.11409 0.36539 0.15221 0.0
H424 H 0.1924 0.44222 0.16654 0.0
C425 C 0.08343 0.39044 0.13027 0.0
C426 C 0.09139 0.43432 0.12116 0.0
H427 H 0.1061 0.33199 0.1594 0.0
H428 H 0.05313 0.37527 0.1206 0.0
C429 C 0.13109 0.45254 0.13439 0.0
C430 C 0.66997 0.14054 0.91352 0.0
C431 C 0.66443 0.1499 0.86849 0.0
H432 H 0.64291 0.11104 0.97167 0.0
C433 C 0.62778 0.13302 0.84693 0.0
H434 H 0.698 0.15281 0.93104 0.0
C435 C 0.59667 0.10884 0.87007 0.0
C436 C 0.60151 0.10054 0.91526 0.0
H437 H 0.62214 0.13999 0.81247 0.0
H438 H 0.56812 0.09751 0.85272 0.0
C439 C 0.63881 0.11605 0.93667 0.0
C440 C 0.85729 0.91017 0.40593 0.0
C441 C 0.8648 0.90083 0.36143 0.0
H442 H 0.88321 0.93668 0.46536 0.0
C443 C 0.90437 0.91389 0.34215 0.0
H444 H 0.82702 0.90072 0.42166 0.0
C445 C 0.93619 0.93457 0.36702 0.0
C446 C 0.92907 0.9431 0.41162 0.0
H447 H 0.91151 0.90664 0.30819 0.0
H448 H 0.9668 0.94325 0.35149 0.0
C449 C 0.88919 0.93111 0.43082 0.0
C450 C 0.41132 0.64541 0.67767 0.0
C451 C 0.37563 0.65876 0.65227 0.0
H452 H 0.47214 0.61232 0.67877 0.0
C453 C 0.37107 0.64298 0.60937 0.0
H454 H 0.41611 0.65737 0.71061 0.0
C455 C 0.40346 0.61741 0.59105 0.0
C456 C 0.44074 0.60705 0.61542 0.0
H457 H 0.34379 0.6526 0.58911 0.0
H458 H 0.40079 0.6085 0.55688 0.0
C459 C 0.44367 0.61999 0.65932 0.0
C460 C 0.98579 0.94596 0.72154 0.0
C461 C 0.99163 0.97494 0.75636 0.0
H462 H 0.98149 0.93814 0.65149 0.0
C463 C 0.00156 0.01823 0.74641 0.0
H464 H 0.97842 0.91233 0.72819 0.0
C465 C 0.00326 0.03276 0.70298 0.0
C466 C 0.99547 0.00439 0.66827 0.0
H467 H 0.00571 0.04159 0.77226 0.0
H468 H 0.00905 0.06675 0.69655 0.0
C469 C 0.98793 0.96056 0.67774 0.0
C470 C 0.49737 0.05828 0.24425 0.0
C471 C 0.51326 0.10087 0.24546 0.0
H472 H 0.48741 0.00247 0.2047 0.0
C473 C 0.51957 0.12346 0.20553 0.0
H474 H 0.49081 0.04042 0.27436 0.0
C475 C 0.51655 0.10195 0.16568 0.0
C476 C 0.5074 0.05766 0.16534 0.0
H477 H 0.53169 0.1563 0.20498 0.0
H478 H 0.526 0.11883 0.13576 0.0
C479 C 0.49522 0.03658 0.20447 0.0
C480 C 0.52193 0.53501 0.28925 0.0
C481 C 0.51075 0.57815 0.28076 0.0
H482 H 0.53136 0.48555 0.3377 0.0
C483 C 0.50638 0.60628 0.31647 0.0
H484 H 0.52508 0.51228 0.26274 0.0
C485 C 0.51023 0.59076 0.35977 0.0
C486 C 0.51817 0.54688 0.36787 0.0
H487 H 0.49823 0.6398 0.31097 0.0
H488 H 0.50416 0.61235 0.38676 0.0
C489 C 0.52539 0.51957 0.33226 0.0
C490 C 0.04254 0.417 0.84935 0.0
C491 C 0.05427 0.43688 0.80911 0.0
H492 H 0.02646 0.4261 0.91722 0.0
C493 C 0.0497 0.48178 0.80477 0.0
H494 H 0.04447 0.38237 0.85358 0.0
C495 C 0.03823 0.50648 0.84079 0.0
C496 C 0.03147 0.48706 0.88214 0.0
H497 H 0.05853 0.49858 0.77467 0.0
H498 H 0.03805 0.54125 0.83702 0.0
C499 C 0.03153 0.44194 0.88571 0.0
C500 C 0.75375 0.03509 0.02523 0.0
C501 C 0.76327 0.01889 0.98343 0.0
H502 H 0.70431 0.05079 0.07166 0.0
C503 C 0.72916 0.01385 0.95306 0.0
H504 H 0.77942 0.04041 0.04895 0.0
C505 C 0.68594 0.02051 0.96596 0.0
C506 C 0.67643 0.03219 0.00935 0.0
H507 H 0.7355 0.00153 0.92056 0.0
H508 H 0.65996 0.01293 0.94325 0.0
C509 C 0.7108 0.04143 0.03811 0.0
C510 C 0.77692 0.04152 0.48637 0.0
C511 C 0.77653 0.04833 0.4406 0.0
H512 H 0.81538 0.02929 0.54341 0.0
C513 C 0.8143 0.03864 0.41643 0.0
H514 H 0.74887 0.04857 0.50645 0.0
C515 C 0.8531 0.02877 0.43812 0.0
C516 C 0.85426 0.02707 0.48414 0.0
H517 H 0.81487 0.04203 0.381 0.0
H518 H 0.88275 0.0264 0.4191 0.0
C519 C 0.81533 0.03073 0.50781 0.0
C520 C 0.24398 0.52514 0.03978 0.0
C521 C 0.25552 0.54855 0.07723 0.0
H522 H 0.19229 0.50358 0.99823 0.0
C523 C 0.22264 0.56261 0.10567 0.0
H524 H 0.26879 0.51383 0.01748 0.0
C525 C 0.17877 0.55678 0.09454 0.0
C526 C 0.16745 0.53593 0.05546 0.0
H527 H 0.23082 0.581 0.13457 0.0
H528 H 0.15389 0.57121 0.11472 0.0
C529 C 0.20033 0.5189 0.02901 0.0
C530 C 0.33565 0.49609 0.61897 0.0
C531 C 0.29556 0.49463 0.5966 0.0
H532 H 0.40448 0.50605 0.61378 0.0
C533 C 0.29355 0.51181 0.55364 0.0
H534 H 0.33876 0.48326 0.65203 0.0
C535 C 0.33157 0.52382 0.53145 0.0
C536 C 0.37206 0.52019 0.55227 0.0
H537 H 0.26305 0.5128 0.53592 0.0
H538 H 0.32965 0.53285 0.49701 0.0
C539 C 0.37356 0.50914 0.59703 0.0
C540 C 0.98103 0.74392 0.04317 0.0
C541 C 0.95699 0.7578 0.00628 0.0
H542 H 0.01525 0.69157 0.0741 0.0
C543 C 0.94254 0.72686 0.97614 0.0
H544 H 0.99205 0.76682 0.06739 0.0
C545 C 0.95531 0.68396 0.98047 0.0
C546 C 0.98235 0.67106 0.01517 0.0
H547 H 0.92437 0.73628 0.94717 0.0
H548 H 0.94687 0.66153 0.95477 0.0
C549 C 0.9938 0.70084 0.04746 0.0
C550 C 0.45501 0.82235 0.02705 0.0
C551 C 0.48491 0.78822 0.02995 0.0
H552 H 0.44619 0.89097 0.02493 0.0
C553 C 0.52956 0.79773 0.0267 0.0
H554 H 0.42037 0.81604 0.02896 0.0
C555 C 0.5441 0.8403 0.02395 0.0
C556 C 0.51445 0.87446 0.02412 0.0
H557 H 0.55358 0.77249 0.02927 0.0
H558 H 0.57882 0.8466 0.02417 0.0
C559 C 0.4697 0.86519 0.02405 0.0
C560 C 0.04925 0.24049 0.52319 0.0
C561 C 0.09111 0.23531 0.54098 0.0
H562 H 0.99125 0.20896 0.50114 0.0
C563 C 0.11043 0.19436 0.5396 0.0
H564 H 0.03396 0.27182 0.52239 0.0
C565 C 0.08626 0.15853 0.52628 0.0
C566 C 0.04239 0.16312 0.51461 0.0
H567 H 0.14261 0.18907 0.55291 0.0
H568 H 0.10047 0.12685 0.52993 0.0
C569 C 0.02492 0.20461 0.51055 0.0
C570 C 0.60697 0.33869 0.50255 0.0
C571 C 0.58268 0.30107 0.51194 0.0
H572 H 0.60611 0.40736 0.49682 0.0
C573 C 0.54232 0.30486 0.53326 0.0
H574 H 0.63782 0.33713 0.48547 0.0
C575 C 0.52439 0.34547 0.54003 0.0
C576 C 0.5469 0.38274 0.52628 0.0
H577 H 0.5231 0.27647 0.54139 0.0
H578 H 0.4916 0.34763 0.55286 0.0
C579 C 0.58901 0.37917 0.50936 0.0
loop_
_geom_bond_atom_site_label_1
_geom_bond_atom_site_label_2
_geom_bond_distance
_geom_bond_site_symmetry_2
_ccdc_geom_bond_type
P0 O11 1.490 . S
P0 C14 1.812 . S
P0 C20 1.803 . S
P0 C26 1.819 . S
H1 C15 0.941 . S
H2 C16 0.939 . S
H3 C18 0.940 . S
H4 C19 0.940 . S
H5 C21 0.939 . S
H6 C22 0.942 . S
H7 C24 0.940 . S
H8 C25 0.939 . S
H9 C27 0.941 . S
H10 C31 0.939 . S
O11 P0 1.490 . S
H12 C28 0.939 . S
H13 C30 0.940 . S
C14 P0 1.812 . S
C14 C15 1.389 . S
C14 C19 1.391 . S
C15 H1 0.941 . S
C15 C14 1.389 . S
C15 C16 1.397 . S
C16 H2 0.939 . S
C16 C15 1.397 . S
C16 C17 1.378 . S
C17 C16 1.378 . S
C17 C18 1.378 . S
C18 H3 0.940 . S
C18 C17 1.378 . S
C18 C19 1.396 . S
C19 H4 0.940 . S
C19 C14 1.391 . S
C19 C18 1.396 . S
C20 P0 1.803 . S
C20 C21 1.378 . S
C20 C25 1.400 . S
C21 H5 0.939 . S
C21 C20 1.378 . S
C21 C22 1.361 . S
C22 H6 0.942 . S
C22 C21 1.361 . S
C22 C23 1.369 . S
C23 C22 1.369 . S
C23 C24 1.404 . S
C24 H7 0.940 . S
C24 C23 1.404 . S
C24 C25 1.389 . S
C25 H8 0.939 . S
C25 C20 1.400 . S
C25 C24 1.389 . S
C26 P0 1.819 . S
C26 C27 1.391 . S
C26 C31 1.391 . S
C27 H9 0.941 . S
C27 C26 1.391 . S
C27 C28 1.396 . S
C28 H12 0.939 . S
C28 C27 1.396 . S
C28 C29 1.397 . S
C29 C28 1.397 . S
C29 C30 1.385 . S
C30 H13 0.940 . S
C30 C29 1.385 . S
C30 C31 1.388 . S
C31 H10 0.939 . S
C31 C26 1.391 . S
C31 C30 1.388 . S
P32 O43 1.490 . S
P32 C46 1.812 . S
P32 C52 1.803 . S
P32 C58 1.819 . S
H33 C47 0.941 . S
H34 C48 0.939 . S
H35 C50 0.940 . S
H36 C51 0.940 . S
H37 C53 0.939 . S
H38 C54 0.942 . S
H39 C56 0.940 . S
H40 C57 0.939 . S
H41 C59 0.941 . S
H42 C63 0.939 . S
O43 P32 1.490 . S
H44 C60 0.939 . S
H45 C62 0.940 . S
C46 P32 1.812 . S
C46 C47 1.389 . S
C46 C51 1.391 . S
C47 H33 0.941 . S
C47 C46 1.389 . S
C47 C48 1.397 . S
C48 H34 0.939 . S
C48 C47 1.397 . S
C48 C49 1.378 . S
C49 C48 1.378 . S
C49 C50 1.378 . S
C50 H35 0.940 . S
C50 C49 1.378 . S
C50 C51 1.396 . S
C51 H36 0.940 . S
C51 C46 1.391 . S
C51 C50 1.396 . S
C52 P32 1.803 . S
C52 C53 1.378 . S
C52 C57 1.400 . S
C53 H37 0.939 . S
C53 C52 1.378 . S
C53 C54 1.361 . S
C54 H38 0.942 . S
C54 C53 1.361 . S
C54 C55 1.369 . S
C55 C54 1.369 . S
C55 C56 1.404 . S
C56 H39 0.940 . S
C56 C55 1.404 . S
C56 C57 1.389 . S
C57 H40 0.939 . S
C57 C52 1.400 . S
C57 C56 1.389 . S
C58 P32 1.819 . S
C58 C59 1.391 . S
C58 C63 1.391 . S
C59 H41 0.941 . S
C59 C58 1.391 . S
C59 C60 1.396 . S
C60 H44 0.939 . S
C60 C59 1.396 . S
C60 C61 1.397 . S
C61 C60 1.397 . S
C61 C62 1.385 . S
C62 H45 0.940 . S
C62 C61 1.385 . S
C62 C63 1.388 . S
C63 H42 0.939 . S
C63 C58 1.391 . S
C63 C62 1.388 . S
P64 O75 1.490 . S
P64 C78 1.812 . S
P64 C84 1.803 . S
P64 C90 1.819 . S
H65 C79 0.941 . S
H66 C80 0.939 . S
H67 C82 0.940 . S
H68 C83 0.940 . S
H69 C85 0.939 . S
H70 C86 0.942 . S
H71 C88 0.940 . S
H72 C89 0.939 . S
H73 C91 0.941 . S
H74 C95 0.939 . S
O75 P64 1.490 . S
H76 C92 0.939 . S
H77 C94 0.940 . S
C78 P64 1.812 . S
C78 C79 1.389 . S
C78 C83 1.391 . S
C79 H65 0.941 . S
C79 C78 1.389 . S
C79 C80 1.397 . S
C80 H66 0.939 . S
C80 C79 1.397 . S
C80 C81 1.378 . S
C81 C80 1.378 . S
C81 C82 1.378 . S
C82 H67 0.940 . S
C82 C81 1.378 . S
C82 C83 1.396 . S
C83 H68 0.940 . S
C83 C78 1.391 . S
C83 C82 1.396 . S
C84 P64 1.803 . S
C84 C85 1.378 . S
C84 C89 1.400 . S
C85 H69 0.939 . S
C85 C84 1.378 . S
C85 C86 1.361 . S
C86 H70 0.942 . S
C86 C85 1.361 . S
C86 C87 1.369 . S
C87 C86 1.369 . S
C87 C88 1.404 . S
C88 H71 0.940 . S
C88 C87 1.404 . S
C88 C89 1.389 . S
C89 H72 0.939 . S
C89 C84 1.400 . S
C89 C88 1.389 . S
C90 P64 1.819 . S
C90 C91 1.391 . S
C90 C95 1.391 . S
C91 H73 0.941 . S
C91 C90 1.391 . S
C91 C92 1.396 . S
C92 H76 0.939 . S
C92 C91 1.396 . S
C92 C93 1.397 . S
C93 C92 1.397 . S
C93 C94 1.385 . S
C94 H77 0.940 . S
C94 C93 1.385 . S
C94 C95 1.388 . S
C95 H74 0.939 . S
C95 C90 1.391 . S
C95 C94 1.388 . S
P96 O107 1.490 . S
P96 C110 1.812 . S
P96 C116 1.803 . S
P96 C122 1.819 . S
H97 C111 0.941 . S
H98 C112 0.939 . S
H99 C114 0.940 . S
H100 C115 0.940 . S
H101 C117 0.939 . S
H102 C118 0.942 . S
H103 C120 0.940 . S
H104 C121 0.939 . S
H105 C123 0.941 . S
H106 C127 0.939 . S
O107 P96 1.490 . S
H108 C124 0.939 . S
H109 C126 0.940 . S
C110 P96 1.812 . S
C110 C111 1.389 . S
C110 C115 1.391 . S
C111 H97 0.941 . S
C111 C110 1.389 . S
C111 C112 1.397 . S
C112 H98 0.939 . S
C112 C111 1.397 . S
C112 C113 1.378 . S
C113 C112 1.378 . S
C113 C114 1.378 . S
C114 H99 0.940 . S
C114 C113 1.378 . S
C114 C115 1.396 . S
C115 H100 0.940 . S
C115 C110 1.391 . S
C115 C114 1.396 . S
C116 P96 1.803 . S
C116 C117 1.378 . S
C116 C121 1.400 . S
C117 H101 0.939 . S
C117 C116 1.378 . S
C117 C118 1.361 . S
C118 H102 0.942 . S
C118 C117 1.361 . S
C118 C119 1.369 . S
C119 C118 1.369 . S
C119 C120 1.404 . S
C120 H103 0.940 . S
C120 C119 1.404 . S
C120 C121 1.389 . S
C121 H104 0.939 . S
C121 C116 1.400 . S
C121 C120 1.389 . S
C122 P96 1.819 . S
C122 C123 1.391 . S
C122 C127 1.391 . S
C123 H105 0.941 . S
C123 C122 1.391 . S
C123 C124 1.396 . S
C124 H108 0.939 . S
C124 C123 1.396 . S
C124 C125 1.397 . S
C125 C124 1.397 . S
C125 C126 1.385 . S
C126 H109 0.940 . S
C126 C125 1.385 . S
C126 C127 1.388 . S
C127 H106 0.939 . S
C127 C122 1.391 . S
C127 C126 1.388 . S
P128 O139 1.490 1_556 S
P128 C142 1.812 . S
P128 C148 1.803 . S
P128 C154 1.819 . S
H129 C143 0.941 . S
H130 C144 0.939 1_545 S
H131 C146 0.940 . S
H132 C147 0.940 . S
H133 C149 0.934 1_554 S
H134 C150 0.942 . S
H135 C152 0.940 . S
H136 C153 0.939 . S
H137 C155 0.941 . S
H138 C159 0.939 . S
O139 P128 1.490 1_554 S
H140 C156 0.939 . S
H141 C158 0.940 . S
C142 P128 1.812 . S
C142 C143 1.389 1_556 S
C142 C147 1.391 . S
C143 H129 0.941 . S
C143 C142 1.389 1_554 S
C143 C144 1.397 . S
C144 H130 0.939 1_565 S
C144 C143 1.397 . S
C144 C145 1.378 . S
C145 C144 1.378 . S
C145 C146 1.378 1_554 S
C146 H131 0.940 . S
C146 C145 1.378 1_556 S
C146 C147 1.396 . S
C147 H132 0.940 . S
C147 C142 1.391 . S
C147 C146 1.396 . S
C148 P128 1.803 . S
C148 C149 1.387 1_655 S
C148 C153 1.400 . S
C149 H133 0.934 1_556 S
C149 C148 1.387 1_455 S
C149 C150 1.358 1_556 S
C150 H134 0.942 . S
C150 C149 1.358 1_554 S
C150 C151 1.369 1_454 S
C151 C150 1.369 1_656 S
C151 C152 1.404 . S
C152 H135 0.940 . S
C152 C151 1.404 . S
C152 C153 1.389 . S
C153 H136 0.939 . S
C153 C148 1.400 . S
C153 C152 1.389 . S
C154 P128 1.819 . S
C154 C155 1.391 1_565 S
C154 C159 1.391 . S
C155 H137 0.941 . S
C155 C154 1.391 1_545 S
C155 C156 1.396 . S
C156 H140 0.939 . S
C156 C155 1.396 . S
C156 C157 1.397 . S
C157 C156 1.397 . S
C157 C158 1.385 1_545 S
C158 H141 0.940 . S
C158 C157 1.385 1_565 S
C158 C159 1.388 . S
C159 H138 0.939 . S
C159 C154 1.391 . S
C159 C158 1.388 . S
P160 O171 1.490 . S
P160 C174 1.812 . S
P160 C180 1.803 . S
P160 C186 1.819 . S
H161 C175 0.941 . S
H162 C176 0.939 . S
H163 C178 0.940 . S
H164 C179 0.940 . S
H165 C181 0.939 . S
H166 C182 0.942 . S
H167 C184 0.940 . S
H168 C185 0.939 . S
H169 C187 0.941 . S
H170 C191 0.939 . S
O171 P160 1.490 . S
H172 C188 0.939 . S
H173 C190 0.940 . S
C174 P160 1.812 . S
C174 C175 1.389 . S
C174 C179 1.391 . S
C175 H161 0.941 . S
C175 C174 1.389 . S
C175 C176 1.397 . S
C176 H162 0.939 . S
C176 C175 1.397 . S
C176 C177 1.378 . S
C177 C176 1.378 . S
C177 C178 1.378 . S
C178 H163 0.940 . S
C178 C177 1.378 . S
C178 C179 1.396 . S
C179 H164 0.940 . S
C179 C174 1.391 . S
C179 C178 1.396 . S
C180 P160 1.803 . S
C180 C181 1.378 . S
C180 C185 1.400 . S
C181 H165 0.939 . S
C181 C180 1.378 . S
C181 C182 1.361 . S
C182 H166 0.942 . S
C182 C181 1.361 . S
C182 C183 1.369 . S
C183 C182 1.369 . S
C183 C184 1.404 . S
C184 H167 0.940 . S
C184 C183 1.404 . S
C184 C185 1.389 . S
C185 H168 0.939 . S
C185 C180 1.400 . S
C185 C184 1.389 . S
C186 P160 1.819 . S
C186 C187 1.391 . S
C186 C191 1.391 . S
C187 H169 0.941 . S
C187 C186 1.391 . S
C187 C188 1.396 . S
C188 H172 0.939 . S
C188 C187 1.396 . S
C188 C189 1.397 . S
C189 C188 1.397 . S
C189 C190 1.385 . S
C190 H173 0.940 . S
C190 C189 1.385 . S
C190 C191 1.388 . S
C191 H170 0.939 . S
C191 C186 1.391 . S
C191 C190 1.388 . S
P192 O203 1.490 . S
P192 C206 1.812 . S
P192 C212 1.803 . S
P192 C218 1.819 . S
H193 C207 0.941 1_556 S
H194 C208 0.939 1_556 S
H195 C210 0.940 . S
H196 C211 0.940 . S
H197 C213 0.939 . S
H198 C214 0.942 . S
H199 C216 0.940 . S
H200 C217 0.939 . S
H201 C219 0.941 . S
H202 C223 0.939 . S
O203 P192 1.490 . S
H204 C220 0.939 . S
H205 C222 0.940 . S
C206 P192 1.812 . S
C206 C207 1.389 . S
C206 C211 1.391 . S
C207 H193 0.941 1_554 S
C207 C206 1.389 . S
C207 C208 1.397 . S
C208 H194 0.939 1_554 S
C208 C207 1.397 . S
C208 C209 1.378 . S
C209 C208 1.378 . S
C209 C210 1.378 . S
C210 H195 0.940 . S
C210 C209 1.378 . S
C210 C211 1.396 . S
C211 H196 0.940 . S
C211 C206 1.391 . S
C211 C210 1.396 . S
C212 P192 1.803 . S
C212 C213 1.378 . S
C212 C217 1.400 . S
C213 H197 0.939 . S
C213 C212 1.378 . S
C213 C214 1.361 . S
C214 H198 0.942 . S
C214 C213 1.361 . S
C214 C215 1.369 . S
C215 C214 1.369 . S
C215 C216 1.404 . S
C216 H199 0.940 . S
C216 C215 1.404 . S
C216 C217 1.389 . S
C217 H200 0.939 . S
C217 C212 1.400 . S
C217 C216 1.389 . S
C218 P192 1.819 . S
C218 C219 1.391 . S
C218 C223 1.391 . S
C219 H201 0.941 . S
C219 C218 1.391 . S
C219 C220 1.396 . S
C220 H204 0.939 . S
C220 C219 1.396 . S
C220 C221 1.397 . S
C221 C220 1.397 . S
C221 C222 1.385 . S
C222 H205 0.940 . S
C222 C221 1.385 . S
C222 C223 1.388 . S
C223 H202 0.939 . S
C223 C218 1.391 . S
C223 C222 1.388 . S
P224 O235 1.490 . S
P224 C238 1.812 . S
P224 C244 1.803 . S
P224 C250 1.819 . S
H225 C239 0.941 . S
H226 C240 0.939 . S
H227 C242 0.940 . S
H228 C243 0.940 . S
H229 C245 0.939 . S
H230 C246 0.942 . S
H231 C248 0.940 . S
H232 C249 0.939 . S
H233 C251 0.941 . S
H234 C255 0.939 . S
O235 P224 1.490 . S
H236 C252 0.939 . S
H237 C254 0.940 . S
C238 P224 1.812 . S
C238 C239 1.389 . S
C238 C243 1.391 . S
C239 H225 0.941 . S
C239 C238 1.389 . S
C239 C240 1.397 . S
C240 H226 0.939 . S
C240 C239 1.397 . S
C240 C241 1.378 . S
C241 C240 1.378 . S
C241 C242 1.378 . S
C242 H227 0.940 . S
C242 C241 1.378 . S
C242 C243 1.396 . S
C243 H228 0.940 . S
C243 C238 1.391 . S
C243 C242 1.396 . S
C244 P224 1.803 . S
C244 C245 1.378 . S
C244 C249 1.400 . S
C245 H229 0.939 . S
C245 C244 1.378 . S
C245 C246 1.361 . S
C246 H230 0.942 . S
C246 C245 1.361 . S
C246 C247 1.369 . S
C247 C246 1.369 . S
C247 C248 1.404 . S
C248 H231 0.940 . S
C248 C247 1.404 . S
C248 C249 1.389 . S
C249 H232 0.939 . S
C249 C244 1.400 . S
C249 C248 1.389 . S
C250 P224 1.819 . S
C250 C251 1.391 . S
C250 C255 1.391 . S
C251 H233 0.941 . S
C251 C250 1.391 . S
C251 C252 1.396 . S
C252 H236 0.939 . S
C252 C251 1.396 . S
C252 C253 1.397 . S
C253 C252 1.397 . S
C253 C254 1.385 . S
C254 H237 0.940 . S
C254 C253 1.385 . S
C254 C255 1.388 . S
C255 H234 0.939 . S
C255 C250 1.391 . S
C255 C254 1.388 . S
Zn256 O262 1.920 . S
Zn256 O268 1.898 . S
Zn256 O271 1.905 . S
Zn257 O265 1.905 1_565 S
Zn257 O266 1.898 . S
Zn257 O274 1.920 . S
Zn258 O261 2.080 1_455 S
Zn258 O264 2.114 . S
Zn258 O267 2.120 1_445 S
Zn258 O269 2.120 . S
Zn258 O270 2.114 1_455 S
Zn258 O273 2.080 . S
C259 O264 1.166 . S
C259 O265 1.182 . S
C260 O266 1.167 1_655 S
C260 O267 1.299 . S
O261 Zn258 2.080 1_655 S
O261 C275 1.305 . S
O262 Zn256 1.920 . S
O262 C275 1.234 . S
C263 O268 1.167 1_455 S
C263 O269 1.299 . S
O264 Zn258 2.114 . S
O264 C259 1.166 . S
O265 Zn257 1.905 1_545 S
O265 C259 1.182 . S
O266 Zn257 1.898 . S
O266 C260 1.167 1_455 S
O267 Zn258 2.120 1_665 S
O267 C260 1.299 . S
O268 Zn256 1.898 . S
O268 C263 1.167 1_655 S
O269 Zn258 2.120 . S
O269 C263 1.299 . S
O270 Zn258 2.114 1_655 S
O270 C272 1.166 . S
O271 Zn256 1.905 . S
O271 C272 1.182 . S
C272 O270 1.166 . S
C272 O271 1.182 . S
O273 Zn258 2.080 . S
O273 C276 1.305 1_545 S
O274 Zn257 1.920 . S
O274 C276 1.234 . S
C275 O261 1.305 . S
C275 O262 1.234 . S
C276 O273 1.305 1_565 S
C276 O274 1.234 . S
Zn277 O283 1.920 1_556 S
Zn277 O289 1.898 . S
Zn277 O292 1.905 . S
Zn278 O286 1.905 . S
Zn278 O287 1.898 . S
Zn278 O295 1.920 . S
Zn279 O282 2.080 . S
Zn279 O285 2.114 1_545 S
Zn279 O288 2.120 1_545 S
Zn279 O290 2.120 . S
Zn279 O291 2.114 1_544 S
Zn279 O294 2.080 . S
C280 O285 1.166 . S
C280 O286 1.182 . S
C281 O287 1.167 . S
C281 O288 1.299 . S
O282 Zn279 2.080 . S
O282 C296 1.305 . S
O283 Zn277 1.920 1_554 S
O283 C296 1.234 . S
C284 O289 1.167 . S
C284 O290 1.299 1_556 S
O285 Zn279 2.114 1_565 S
O285 C280 1.166 . S
O286 Zn278 1.905 . S
O286 C280 1.182 . S
O287 Zn278 1.898 . S
O287 C281 1.167 . S
O288 Zn279 2.120 1_565 S
O288 C281 1.299 . S
O289 Zn277 1.898 . S
O289 C284 1.167 . S
O290 Zn279 2.120 . S
O290 C284 1.299 1_554 S
O291 Zn279 2.114 1_566 S
O291 C293 1.166 . S
O292 Zn277 1.905 . S
O292 C293 1.182 1_545 S
C293 O291 1.166 . S
C293 O292 1.182 1_565 S
O294 Zn279 2.080 . S
O294 C297 1.305 . S
O295 Zn278 1.920 . S
O295 C297 1.234 1_565 S
C296 O282 1.305 . S
C296 O283 1.234 . S
C297 O294 1.305 . S
C297 O295 1.234 1_545 S
Zn298 O304 1.920 . S
Zn298 O310 1.898 . S
Zn298 O313 1.905 . S
Zn299 O307 1.905 . S
Zn299 O308 1.898 . S
Zn299 O316 1.920 . S
Zn300 O303 2.080 . S
Zn300 O306 2.114 . S
Zn300 O309 2.120 . S
Zn300 O311 2.120 . S
Zn300 O312 2.114 . S
Zn300 O315 2.080 . S
C301 O306 1.166 . S
C301 O307 1.182 . S
C302 O308 1.167 . S
C302 O309 1.299 . S
O303 Zn300 2.080 . S
O303 C317 1.305 . S
O304 Zn298 1.920 . S
O304 C317 1.234 . S
C305 O310 1.167 . S
C305 O311 1.299 . S
O306 Zn300 2.114 . S
O306 C301 1.166 . S
O307 Zn299 1.905 . S
O307 C301 1.182 . S
O308 Zn299 1.898 . S
O308 C302 1.167 . S
O309 Zn300 2.120 . S
O309 C302 1.299 . S
O310 Zn298 1.898 . S
O310 C305 1.167 . S
O311 Zn300 2.120 . S
O311 C305 1.299 . S
O312 Zn300 2.114 . S
O312 C314 1.166 . S
O313 Zn298 1.905 . S
O313 C314 1.182 . S
C314 O312 1.166 . S
C314 O313 1.182 . S
O315 Zn300 2.080 . S
O315 C318 1.305 . S
O316 Zn299 1.920 . S
O316 C318 1.234 . S
C317 O303 1.305 . S
C317 O304 1.234 . S
C318 O315 1.305 . S
C318 O316 1.234 . S
Zn319 O325 1.920 . S
Zn319 O331 1.898 . S
Zn319 O334 1.905 . S
Zn320 O328 1.905 1_655 S
Zn320 O329 1.898 . S
Zn320 O337 1.920 . S
Zn321 O324 2.080 1_554 S
Zn321 O327 2.114 . S
Zn321 O330 2.120 1_454 S
Zn321 O332 2.120 . S
Zn321 O333 2.114 1_554 S
Zn321 O336 2.080 . S
C322 O327 1.166 . S
C322 O328 1.182 . S
C323 O329 1.167 1_556 S
C323 O330 1.299 . S
O324 Zn321 2.080 1_556 S
O324 C338 1.305 . S
O325 Zn319 1.920 . S
O325 C338 1.234 . S
C326 O331 1.167 1_554 S
C326 O332 1.299 . S
O327 Zn321 2.114 . S
O327 C322 1.166 . S
O328 Zn320 1.905 1_455 S
O328 C322 1.182 . S
O329 Zn320 1.898 . S
O329 C323 1.167 1_554 S
O330 Zn321 2.120 1_656 S
O330 C323 1.299 . S
O331 Zn319 1.898 . S
O331 C326 1.167 1_556 S
O332 Zn321 2.120 . S
O332 C326 1.299 . S
O333 Zn321 2.114 1_556 S
O333 C335 1.166 . S
O334 Zn319 1.905 . S
O334 C335 1.182 . S
C335 O333 1.166 . S
C335 O334 1.182 . S
O336 Zn321 2.080 . S
O336 C339 1.305 1_455 S
O337 Zn320 1.920 . S
O337 C339 1.234 . S
C338 O324 1.305 . S
C338 O325 1.234 . S
C339 O336 1.305 1_655 S
C339 O337 1.234 . S
C340 C341 1.387 . S
C340 H344 0.950 . S
C340 C349 1.390 . S
C341 C340 1.387 . S
C341 C343 1.387 . S
H342 C349 0.950 . S
C343 C341 1.387 . S
C343 C345 1.390 . S
C343 H347 0.950 . S
H344 C340 0.950 . S
C345 C343 1.390 . S
C345 C346 1.387 . S
C345 H348 0.950 . S
C346 C345 1.387 . S
C346 C349 1.387 . S
H347 C343 0.950 . S
H348 C345 0.950 . S
C349 C340 1.390 . S
C349 H342 0.950 . S
C349 C346 1.387 . S
C350 C351 1.387 . S
C350 H354 0.950 . S
C350 C359 1.390 . S
C351 C350 1.387 . S
C351 C353 1.387 . S
H352 C359 0.950 1_545 S
C353 C351 1.387 . S
C353 C355 1.390 . S
C353 H357 0.950 . S
H354 C350 0.950 . S
C355 C353 1.390 . S
C355 C356 1.387 . S
C355 H358 0.950 . S
C356 C355 1.387 . S
C356 C359 1.387 . S
H357 C353 0.950 . S
H358 C355 0.950 . S
C359 C350 1.390 . S
C359 H352 0.950 1_565 S
C359 C356 1.387 . S
C360 C361 1.387 . S
C360 H364 0.950 . S
C360 C369 1.390 . S
C361 C360 1.387 . S
C361 C363 1.387 . S
H362 C369 0.950 . S
C363 C361 1.387 . S
C363 C365 1.390 . S
C363 H367 0.950 . S
H364 C360 0.950 . S
C365 C363 1.390 . S
C365 C366 1.387 . S
C365 H368 0.950 . S
C366 C365 1.387 . S
C366 C369 1.387 . S
H367 C363 0.950 . S
H368 C365 0.950 . S
C369 C360 1.390 . S
C369 H362 0.950 . S
C369 C366 1.387 . S
C370 C371 1.387 . S
C370 H374 0.950 . S
C370 C379 1.390 . S
C371 C370 1.387 . S
C371 C373 1.387 . S
H372 C379 0.950 . S
C373 C371 1.387 . S
C373 C375 1.390 . S
C373 H377 0.950 . S
H374 C370 0.950 . S
C375 C373 1.390 . S
C375 C376 1.387 . S
C375 H378 0.950 . S
C376 C375 1.387 . S
C376 C379 1.387 . S
H377 C373 0.950 . S
H378 C375 0.950 . S
C379 C370 1.390 . S
C379 H372 0.950 . S
C379 C376 1.387 . S
C380 C381 1.387 . S
C380 H384 0.950 . S
C380 C389 1.390 . S
C381 C380 1.387 . S
C381 C383 1.387 . S
H382 C389 0.950 . S
C383 C381 1.387 . S
C383 C385 1.390 . S
C383 H387 0.950 . S
H384 C380 0.950 . S
C385 C383 1.390 . S
C385 C386 1.387 . S
C385 H388 0.950 . S
C386 C385 1.387 . S
C386 C389 1.387 . S
H387 C383 0.950 . S
H388 C385 0.950 . S
C389 C380 1.390 . S
C389 H382 0.950 . S
C389 C386 1.387 . S
C390 C391 1.387 . S
C390 H394 0.950 . S
C390 C399 1.390 . S
C391 C390 1.387 . S
C391 C393 1.387 . S
H392 C399 0.950 . S
C393 C391 1.387 . S
C393 C395 1.390 . S
C393 H397 0.950 . S
H394 C390 0.950 . S
C395 C393 1.390 . S
C395 C396 1.387 . S
C395 H398 0.950 1_565 S
C396 C395 1.387 . S
C396 C399 1.387 . S
H397 C393 0.950 . S
H398 C395 0.950 1_545 S
C399 C390 1.390 . S
C399 H392 0.950 . S
C399 C396 1.387 . S
C400 C401 1.387 . S
C400 H404 0.950 . S
C400 C409 1.390 . S
C401 C400 1.387 . S
C401 C403 1.387 . S
H402 C409 0.950 . S
C403 C401 1.387 . S
C403 C405 1.390 . S
C403 H407 0.950 . S
H404 C400 0.950 . S
C405 C403 1.390 . S
C405 C406 1.387 . S
C405 H408 0.950 1_556 S
C406 C405 1.387 . S
C406 C409 1.387 . S
H407 C403 0.950 . S
H408 C405 0.950 1_554 S
C409 C400 1.390 . S
C409 H402 0.950 . S
C409 C406 1.387 . S
C410 C411 1.387 . S
C410 H414 0.950 . S
C410 C419 1.390 . S
C411 C410 1.387 . S
C411 C413 1.387 . S
H412 C419 0.950 . S
C413 C411 1.387 . S
C413 C415 1.390 . S
C413 H417 0.950 . S
H414 C410 0.950 . S
C415 C413 1.390 . S
C415 C416 1.387 . S
C415 H418 0.950 . S
C416 C415 1.387 . S
C416 C419 1.387 . S
H417 C413 0.950 . S
H418 C415 0.950 . S
C419 C410 1.390 . S
C419 H412 0.950 . S
C419 C416 1.387 . S
C420 C421 1.387 . S
C420 H424 0.950 . S
C420 C429 1.390 . S
C421 C420 1.387 . S
C421 C423 1.387 . S
H422 C429 0.950 . S
C423 C421 1.387 . S
C423 C425 1.390 . S
C423 H427 0.950 . S
H424 C420 0.950 . S
C425 C423 1.390 . S
C425 C426 1.387 . S
C425 H428 0.950 . S
C426 C425 1.387 . S
C426 C429 1.387 . S
H427 C423 0.950 . S
H428 C425 0.950 . S
C429 C420 1.390 . S
C429 H422 0.950 . S
C429 C426 1.387 . S
C430 C431 1.387 . S
C430 H434 0.950 . S
C430 C439 1.390 . S
C431 C430 1.387 . S
C431 C433 1.387 . S
H432 C439 0.950 1_554 S
C433 C431 1.387 . S
C433 C435 1.390 . S
C433 H437 0.950 . S
H434 C430 0.950 . S
C435 C433 1.390 . S
C435 C436 1.387 . S
C435 H438 0.950 . S
C436 C435 1.387 . S
C436 C439 1.387 . S
H437 C433 0.950 . S
H438 C435 0.950 . S
C439 C430 1.390 . S
C439 H432 0.950 1_556 S
C439 C436 1.387 . S
C440 C441 1.387 . S
C440 H444 0.950 . S
C440 C449 1.390 . S
C441 C440 1.387 . S
C441 C443 1.387 . S
H442 C449 0.950 . S
C443 C441 1.387 . S
C443 C445 1.390 . S
C443 H447 0.950 . S
H444 C440 0.950 . S
C445 C443 1.390 . S
C445 C446 1.387 . S
C445 H448 0.950 . S
C446 C445 1.387 . S
C446 C449 1.387 . S
H447 C443 0.950 . S
H448 C445 0.950 . S
C449 C440 1.390 . S
C449 H442 0.950 . S
C449 C446 1.387 . S
C450 C451 1.387 . S
C450 H454 0.950 . S
C450 C459 1.390 . S
C451 C450 1.387 . S
C451 C453 1.387 . S
H452 C459 0.950 . S
C453 C451 1.387 . S
C453 C455 1.390 . S
C453 H457 0.950 . S
H454 C450 0.950 . S
C455 C453 1.390 . S
C455 C456 1.387 . S
C455 H458 0.950 . S
C456 C455 1.387 . S
C456 C459 1.387 . S
H457 C453 0.950 . S
H458 C455 0.950 . S
C459 C450 1.390 . S
C459 H452 0.950 . S
C459 C456 1.387 . S
C460 C461 1.387 1_465 S
C460 H464 0.950 . S
C460 C469 1.390 . S
C461 C460 1.387 1_645 S
C461 C463 1.387 . S
H462 C469 0.950 . S
C463 C461 1.387 . S
C463 C465 1.390 . S
C463 H467 0.950 . S
H464 C460 0.950 . S
C465 C463 1.390 . S
C465 C466 1.387 . S
C465 H468 0.950 . S
C466 C465 1.387 . S
C466 C469 1.387 1_645 S
H467 C463 0.950 . S
H468 C465 0.950 . S
C469 C460 1.390 . S
C469 H462 0.950 . S
C469 C466 1.387 1_465 S
C470 C471 1.387 . S
C470 H474 0.950 1_545 S
C470 C479 1.390 . S
C471 C470 1.387 . S
C471 C473 1.387 . S
H472 C479 0.950 1_565 S
C473 C471 1.387 . S
C473 C475 1.390 . S
C473 H477 0.950 . S
H474 C470 0.950 1_565 S
C475 C473 1.390 . S
C475 C476 1.387 . S
C475 H478 0.950 . S
C476 C475 1.387 . S
C476 C479 1.387 . S
H477 C473 0.950 . S
H478 C475 0.950 . S
C479 C470 1.390 . S
C479 H472 0.950 1_545 S
C479 C476 1.387 . S
C480 C481 1.387 . S
C480 H484 0.950 . S
C480 C489 1.390 . S
C481 C480 1.387 . S
C481 C483 1.387 . S
H482 C489 0.950 . S
C483 C481 1.387 . S
C483 C485 1.390 . S
C483 H487 0.950 . S
H484 C480 0.950 . S
C485 C483 1.390 . S
C485 C486 1.387 . S
C485 H488 0.950 . S
C486 C485 1.387 . S
C486 C489 1.387 . S
H487 C483 0.950 . S
H488 C485 0.950 . S
C489 C480 1.390 . S
C489 H482 0.950 . S
C489 C486 1.387 . S
C490 C491 1.387 . S
C490 H494 0.950 1_455 S
C490 C499 1.390 . S
C491 C490 1.387 . S
C491 C493 1.387 . S
H492 C499 0.950 1_655 S
C493 C491 1.387 . S
C493 C495 1.390 . S
C493 H497 0.950 . S
H494 C490 0.950 1_655 S
C495 C493 1.390 . S
C495 C496 1.387 . S
C495 H498 0.950 . S
C496 C495 1.387 . S
C496 C499 1.387 . S
H497 C493 0.950 . S
H498 C495 0.950 . S
C499 C490 1.390 . S
C499 H492 0.950 1_455 S
C499 C496 1.387 . S
C500 C501 1.387 1_545 S
C500 H504 0.950 . S
C500 C509 1.390 . S
C501 C500 1.387 1_565 S
C501 C503 1.387 . S
H502 C509 0.950 . S
C503 C501 1.387 . S
C503 C505 1.390 . S
C503 H507 0.950 1_554 S
H504 C500 0.950 . S
C505 C503 1.390 . S
C505 C506 1.387 . S
C505 H508 0.950 1_554 S
C506 C505 1.387 . S
C506 C509 1.387 1_565 S
H507 C503 0.950 1_556 S
H508 C505 0.950 1_556 S
C509 C500 1.390 . S
C509 H502 0.950 . S
C509 C506 1.387 1_545 S
C510 C511 1.387 . S
C510 H514 0.950 . S
C510 C519 1.390 . S
C511 C510 1.387 . S
C511 C513 1.387 . S
H512 C519 0.950 . S
C513 C511 1.387 . S
C513 C515 1.390 . S
C513 H517 0.950 1_545 S
H514 C510 0.950 . S
C515 C513 1.390 . S
C515 C516 1.387 . S
C515 H518 0.950 1_545 S
C516 C515 1.387 . S
C516 C519 1.387 . S
H517 C513 0.950 1_565 S
H518 C515 0.950 1_565 S
C519 C510 1.390 . S
C519 H512 0.950 . S
C519 C516 1.387 . S
C520 C521 1.387 1_556 S
C520 H524 0.950 . S
C520 C529 1.390 . S
C521 C520 1.387 1_554 S
C521 C523 1.387 . S
H522 C529 0.950 . S
C523 C521 1.387 . S
C523 C525 1.390 . S
C523 H527 0.950 . S
H524 C520 0.950 . S
C525 C523 1.390 . S
C525 C526 1.387 . S
C525 H528 0.950 . S
C526 C525 1.387 . S
C526 C529 1.387 1_554 S
H527 C523 0.950 . S
H528 C525 0.950 . S
C529 C520 1.390 . S
C529 H522 0.950 . S
C529 C526 1.387 1_556 S
C530 C531 1.387 . S
C530 H534 0.950 . S
C530 C539 1.390 . S
C531 C530 1.387 . S
C531 C533 1.387 . S
H532 C539 0.950 . S
C533 C531 1.387 . S
C533 C535 1.390 . S
C533 H537 0.950 . S
H534 C530 0.950 . S
C535 C533 1.390 . S
C535 C536 1.387 . S
C535 H538 0.950 . S
C536 C535 1.387 . S
C536 C539 1.387 . S
H537 C533 0.950 . S
H538 C535 0.950 . S
C539 C530 1.390 . S
C539 H532 0.950 . S
C539 C536 1.387 . S
C540 C541 1.387 1_654 S
C540 H544 0.950 . S
C540 C549 1.390 . S
C541 C540 1.387 1_456 S
C541 C543 1.387 . S
H542 C549 0.950 . S
C543 C541 1.387 . S
C543 C545 1.390 . S
C543 H547 0.950 . S
H544 C540 0.950 . S
C545 C543 1.390 . S
C545 C546 1.387 . S
C545 H548 0.950 . S
C546 C545 1.387 . S
C546 C549 1.387 1_456 S
H547 C543 0.950 . S
H548 C545 0.950 . S
C549 C540 1.390 . S
C549 H542 0.950 . S
C549 C546 1.387 1_654 S
C550 C551 1.387 . S
C550 H554 0.950 . S
C550 C559 1.390 . S
C551 C550 1.387 . S
C551 C553 1.387 . S
H552 C559 0.950 . S
C553 C551 1.387 . S
C553 C555 1.390 . S
C553 H557 0.950 . S
H554 C550 0.950 . S
C555 C553 1.390 . S
C555 C556 1.387 . S
C555 H558 0.950 . S
C556 C555 1.387 . S
C556 C559 1.387 . S
H557 C553 0.950 . S
H558 C555 0.950 . S
C559 C550 1.390 . S
C559 H552 0.950 . S
C559 C556 1.387 . S
C560 C561 1.387 . S
C560 H564 0.950 1_455 S
C560 C569 1.390 . S
C561 C560 1.387 . S
C561 C563 1.387 . S
H562 C569 0.950 1_655 S
C563 C561 1.387 . S
C563 C565 1.390 . S
C563 H567 0.950 . S
H564 C560 0.950 1_655 S
C565 C563 1.390 . S
C565 C566 1.387 . S
C565 H568 0.950 . S
C566 C565 1.387 . S
C566 C569 1.387 . S
H567 C563 0.950 . S
H568 C565 0.950 . S
C569 C560 1.390 . S
C569 H562 0.950 1_455 S
C569 C566 1.387 . S
C570 C571 1.387 . S
C570 H574 0.950 . S
C570 C579 1.390 . S
C571 C570 1.387 . S
C571 C573 1.387 . S
H572 C579 0.950 . S
C573 C571 1.387 . S
C573 C575 1.390 . S
C573 H577 0.950 . S
H574 C570 0.950 . S
C575 C573 1.390 . S
C575 C576 1.387 . S
C575 H578 0.950 . S
C576 C575 1.387 . S
C576 C579 1.387 . S
H577 C573 0.950 . S
H578 C575 0.950 . S
C579 C570 1.390 . S
C579 H572 0.950 . S
C579 C576 1.387 . S
C341 C29 1.541 . S
C346 C259 1.470 . S
C351 C49 1.463 . S
C356 C293 1.388 . S
C366 C305 1.427 . S
C361 C93 1.499 . S
C371 C119 1.448 . S
C376 C339 1.374 . S
C386 C296 1.426 . S
C381 C17 1.486 . S
C396 C276 1.438 . S
C391 C61 1.507 . S
C406 C323 1.391 . S
C401 C81 1.453 . S
C416 C314 1.433 . S
C411 C125 1.508 . S
C421 C23 1.482 . S
C426 C322 1.402 . S
C436 C284 1.375 . S
C431 C87 1.460 . S
C441 C113 1.515 . S
C446 C260 1.441 . S
C451 C55 1.483 . S
C456 C317 1.420 . S
C466 C275 1.574 . S
C461 C157 1.718 . S
C471 C189 1.520 . S
C476 C297 1.595 . S
C481 C221 1.742 . S
C486 C302 1.592 . S
C491 C253 1.546 . S
C496 C335 1.630 . S
C501 C145 1.761 . S
C506 C280 1.639 . S
C516 C272 1.582 . S
C511 C183 1.525 . S
C526 C326 1.621 . S
C521 C209 1.749 . S
C536 C318 1.573 . S
C531 C247 1.517 . S
C541 C151 1.727 1_455 S
C546 C338 1.596 . S
C556 C281 1.600 . S
C551 C215 1.745 . S
C566 C263 1.597 . S
C561 C241 1.562 . S
C571 C177 1.577 . S
C576 C301 1.621 . S
