# Generated by pormake.
# Topology rtl, (3,6)-cn, num edge types: 1
# Building blocks:
#     Node 0, Type 0, BuildingBlock: BELTOD_clean_linker_0, # of connection points: 3
#     Node 1, Type 0, BuildingBlock: BELTOD_clean_linker_0, # of connection points: 3
#     Node 2, Type 0, BuildingBlock: BELTOD_clean_linker_0, # of connection points: 3
#     Node 3, Type 0, BuildingBlock: BELTOD_clean_linker_0, # of connection points: 3
#     Node 4, Type 1, BuildingBlock: VOLQOD_clean_sbu_1, # of connection points: 6
#     Node 5, Type 1, BuildingBlock: VOLQOD_clean_sbu_1, # of connection points: 6
#     Edge 6, Type (0, 1), BuildingBlock: XIVTED_clean_linker_0, # of connection points: 2
#     Edge 7, Type (0, 1), BuildingBlock: XIVTED_clean_linker_0, # of connection points: 2
#     Edge 8, Type (0, 1), BuildingBlock: XIVTED_clean_linker_0, # of connection points: 2
#     Edge 9, Type (0, 1), BuildingBlock: XIVTED_clean_linker_0, # of connection points: 2
#     Edge 10, Type (0, 1), BuildingBlock: XIVTED_clean_linker_0, # of connection points: 2
#     Edge 11, Type (0, 1), BuildingBlock: XIVTED_clean_linker_0, # of connection points: 2
#     Edge 12, Type (0, 1), BuildingBlock: XIVTED_clean_linker_0, # of connection points: 2
#     Edge 13, Type (0, 1), BuildingBlock: XIVTED_clean_linker_0, # of connection points: 2
#     Edge 14, Type (0, 1), BuildingBlock: XIVTED_clean_linker_0, # of connection points: 2
#     Edge 15, Type (0, 1), BuildingBlock: XIVTED_clean_linker_0, # of connection points: 2
#     Edge 16, Type (0, 1), BuildingBlock: XIVTED_clean_linker_0, # of connection points: 2
#     Edge 17, Type (0, 1), BuildingBlock: XIVTED_clean_linker_0, # of connection points: 2
# Relax obj value: 0.074
# Max RMSD: 0.154
# Mean RMSD: 0.083
data_MOF--net-rtl--node1-VOLQOD_clean_sbu_1--node2-BELTOD_clean_linker_0--edge1-XIVTED_clean_linker_0
_symmetry_space_group_name_H-M    P1
_symmetry_Int_Tables_number       1
_symmetry_cell_setting            triclinic
loop_
_symmetry_equiv_pos_as_xyz
'x, y, z'
_cell_length_a     41.904254
_cell_length_b     36.498013
_cell_length_c     26.9223
_cell_angle_alpha  89.154612
_cell_angle_beta   90.369581
_cell_angle_gamma 90.135406
loop_
_atom_site_label
_atom_site_type_symbol
_atom_site_fract_x
_atom_site_fract_y
_atom_site_fract_z
_atom_type_partial_charge
P0 P 0.15082 0.76295 0.01518 0.0
H1 H 0.16841 0.7793 0.11719 0.0
H2 H 0.13632 0.79548 0.18909 0.0
H3 H 0.05059 0.76693 0.10849 0.0
H4 H 0.08291 0.74987 0.03701 0.0
H5 H 0.20178 0.74197 0.94979 0.0
H6 H 0.23563 0.68789 0.94581 0.0
H7 H 0.18249 0.63746 0.06575 0.0
H8 H 0.14825 0.69182 0.06913 0.0
H9 H 0.10379 0.81979 -0.00254 0.0
H10 H 0.1438 0.73037 0.91531 0.0
O11 O 0.17788 0.79648 0.01789 0.0
H12 H 0.07401 0.83968 0.92365 0.0
H13 H 0.11508 0.75134 0.84079 0.0
C14 C 0.12791 0.76471 0.07134 0.0
C15 C 0.14278 0.77558 0.11548 0.0
C16 C 0.12444 0.78461 0.15661 0.0
C17 C 0.09096 0.78302 0.15392 0.0
C18 C 0.07634 0.76886 0.11117 0.0
C19 C 0.09478 0.75925 0.07033 0.0
C20 C 0.17255 0.72085 0.00961 0.0
C21 C 0.19702 0.719 0.97462 0.0
C22 C 0.21625 0.688 0.97224 0.0
C23 C 0.21162 0.65839 0.00538 0.0
C24 C 0.18661 0.65996 0.03988 0.0
C25 C 0.16703 0.69095 0.04176 0.0
C26 C 0.12582 0.77339 0.9622 0.0
C27 C 0.10569 0.80398 0.96388 0.0
C28 C 0.08865 0.81531 0.92176 0.0
C29 C 0.09219 0.79686 0.8768 0.0
C30 C 0.11193 0.76586 0.87522 0.0
C31 C 0.12844 0.754 0.9178 0.0
P32 P 0.65358 0.75193 0.49765 0.0
H33 H 0.67286 0.75326 0.39408 0.0
H34 H 0.64742 0.73083 0.31867 0.0
H35 H 0.56253 0.70432 0.40271 0.0
H36 H 0.58718 0.72942 0.47653 0.0
H37 H 0.68695 0.79039 0.57584 0.0
H38 H 0.71752 0.84739 0.57463 0.0
H39 H 0.67992 0.87321 0.42855 0.0
H40 H 0.64924 0.8163 0.43012 0.0
H41 H 0.64009 0.6786 0.53244 0.0
H42 H 0.61606 0.78845 0.57546 0.0
O43 O 0.68697 0.72717 0.49627 0.0
H44 H 0.60697 0.6537 0.59905 0.0
H45 H 0.58296 0.76351 0.64318 0.0
C46 C 0.63218 0.74251 0.44105 0.0
C47 C 0.64846 0.74348 0.39583 0.0
C48 C 0.63396 0.73019 0.35285 0.0
C49 C 0.60312 0.71479 0.35461 0.0
C50 C 0.5862 0.71603 0.39956 0.0
C51 C 0.6005 0.73008 0.44224 0.0
C52 C 0.66609 0.79889 0.50295 0.0
C53 C 0.68432 0.809 0.54437 0.0
C54 C 0.70174 0.84168 0.54366 0.0
C55 C 0.70144 0.86453 0.50118 0.0
C56 C 0.6809 0.85586 0.46152 0.0
C57 C 0.66333 0.82327 0.46242 0.0
C58 C 0.63097 0.73528 0.54975 0.0
C59 C 0.62791 0.69735 0.55668 0.0
C60 C 0.6087 0.68317 0.59434 0.0
C61 C 0.59227 0.70671 0.626 0.0
C62 C 0.59551 0.74483 0.61931 0.0
C63 C 0.61448 0.75906 0.5809 0.0
P64 P 0.91528 0.35154 0.99449 0.0
H65 H 0.94058 0.36406 0.89446 0.0
H66 H 0.95128 0.32269 0.82547 0.0
H67 H 0.91761 0.23124 0.91441 0.0
H68 H 0.90665 0.27241 0.9825 0.0
H69 H 0.87238 0.38139 0.06866 0.0
H70 H 0.81623 0.39969 0.06544 0.0
H71 H 0.81349 0.37788 0.9083 0.0
H72 H 0.86937 0.35876 0.91179 0.0
H73 H 0.97197 0.34154 0.05701 0.0
H74 H 0.87404 0.30495 0.05627 0.0
O75 O 0.93972 0.38766 0.99161 0.0
H76 H 0.98255 0.30338 0.13085 0.0
H77 H 0.8844 0.26676 0.12957 0.0
C78 C 0.92362 0.32121 0.94408 0.0
C79 C 0.9357 0.33507 0.89912 0.0
C80 C 0.94158 0.31151 0.85969 0.0
C81 C 0.93559 0.27373 0.86489 0.0
C82 C 0.923 0.26013 0.90973 0.0
C83 C 0.91676 0.28371 0.94876 0.0
C84 C 0.87474 0.36755 0.99086 0.0
C85 C 0.85966 0.38031 0.03357 0.0
C86 C 0.82765 0.39077 0.03174 0.0
C87 C 0.81055 0.38972 0.98675 0.0
C88 C 0.82618 0.37879 0.94345 0.0
C89 C 0.85806 0.36769 0.94552 0.0
C90 C 0.92205 0.32684 0.05198 0.0
C91 C 0.95263 0.32582 0.07326 0.0
C92 C 0.95868 0.30378 0.11518 0.0
C93 C 0.93425 0.28221 0.13622 0.0
C94 C 0.90355 0.28363 0.11495 0.0
C95 C 0.89759 0.30554 0.07302 0.0
P96 P 0.41645 0.15333 0.50157 0.0
H97 H 0.43371 0.13875 0.60572 0.0
H98 H 0.44096 0.17903 0.67701 0.0
H99 H 0.41999 0.27294 0.58267 0.0
H100 H 0.41177 0.23265 0.51265 0.0
H101 H 0.38379 0.08655 0.46982 0.0
H102 H 0.32728 0.06894 0.46714 0.0
H103 H 0.30172 0.17472 0.52463 0.0
H104 H 0.35785 0.19204 0.52718 0.0
H105 H 0.47345 0.19445 0.47543 0.0
H106 H 0.38385 0.16669 0.4054 0.0
O107 O 0.43937 0.11618 0.50756 0.0
H108 H 0.48619 0.23539 0.40544 0.0
H109 H 0.39672 0.20718 0.33513 0.0
C110 C 0.42298 0.18279 0.55372 0.0
C111 C 0.43087 0.16804 0.60052 0.0
C112 C 0.43506 0.1911 0.64114 0.0
C113 C 0.43113 0.22925 0.63554 0.0
C114 C 0.42285 0.24371 0.58853 0.0
C115 C 0.41859 0.22069 0.54819 0.0
C116 C 0.37507 0.14017 0.50001 0.0
C117 C 0.36599 0.10579 0.48213 0.0
C118 C 0.33373 0.0959 0.48025 0.0
C119 C 0.31014 0.12033 0.49622 0.0
C120 C 0.3194 0.15505 0.51305 0.0
C121 C 0.35154 0.16497 0.51455 0.0
C122 C 0.42754 0.17803 0.44598 0.0
C123 C 0.45676 0.19675 0.44467 0.0
C124 C 0.46393 0.22022 0.40488 0.0
C125 C 0.44225 0.22468 0.36528 0.0
C126 C 0.41383 0.20416 0.36524 0.0
C127 C 0.40644 0.1811 0.40548 0.0
O128 O 0.91451 0.0289 0.50135 0.0
Zn129 Zn 0.95639 0.05696 0.50101 0.0
O130 O 0.99299 0.02333 0.50048 0.0
Zn131 Zn 0.02056 0.03287 0.55724 0.0
Zn132 Zn 0.97818 0.97253 0.50447 0.0
Zn133 Zn 0.01753 0.0305 0.43958 0.0
O134 O 0.06417 0.04915 0.53615 0.0
O135 O 0.06344 0.04378 0.45421 0.0
O136 O 0.95782 0.08926 0.56133 0.0
O137 O 0.00213 0.0717 0.60054 0.0
O138 O 0.02676 0.98747 0.59876 0.0
O139 O 0.99321 0.94662 0.56719 0.0
O140 O 0.99448 0.94321 0.44724 0.0
O141 O 0.9569 0.09034 0.44027 0.0
O142 O 0.01775 0.98489 0.39854 0.0
O143 O -0.00085 0.07152 0.39834 0.0
C144 C 0.90838 0.99469 0.5002 0.0
C145 C 0.07815 0.05114 0.49439 0.0
C146 C 0.01388 0.95587 0.59954 0.0
C147 C 0.97741 0.09185 0.59751 0.0
C148 C 0.00875 0.95209 0.40725 0.0
C149 C 0.9754 0.09286 0.40295 0.0
O150 O 0.93046 0.97078 0.50072 0.0
O151 O 0.57108 0.48699 0.9856 0.0
Zn152 Zn 0.52994 0.51441 0.99222 0.0
O153 O 0.49347 0.48154 -0.00289 0.0
Zn154 Zn 0.46534 0.48993 0.93965 0.0
Zn155 Zn 0.50885 0.43104 -0.0029 0.0
Zn156 Zn 0.4706 0.49094 0.0591 0.0
O157 O 0.42167 0.50495 0.96214 0.0
O158 O 0.42532 0.50663 0.04445 0.0
O159 O 0.52593 0.54856 0.93396 0.0
O160 O 0.48207 0.53051 0.89463 0.0
O161 O 0.46078 0.44425 0.89891 0.0
O162 O 0.49212 0.40402 0.9379 0.0
O163 O 0.49423 0.40363 0.05787 0.0
O164 O 0.53396 0.54526 0.05248 0.0
O165 O 0.46905 0.44524 0.10245 0.0
O166 O 0.49193 0.5311 0.09872 0.0
C167 C 0.57827 0.4532 0.98905 0.0
C168 C 0.40926 0.5107 0.00439 0.0
C169 C 0.47309 0.41243 0.90252 0.0
C170 C 0.50617 0.5517 0.89813 0.0
C171 C 0.47908 0.41265 0.09662 0.0
C172 C 0.5173 0.54964 0.09123 0.0
O173 O 0.55692 0.42871 0.99525 0.0
H174 H 0.26637 0.13082 0.56923 0.0
H175 H 0.1191 0.04975 0.41507 0.0
H176 H 0.27623 0.08575 0.42288 0.0
H177 H 0.1151 0.07644 0.57068 0.0
H178 H 0.17577 0.06626 0.41485 0.0
H179 H 0.20987 0.11451 0.56807 0.0
C180 C 0.25657 0.1176 0.53674 0.0
C181 C 0.27597 0.10972 0.49602 0.0
C182 C 0.16244 0.06846 0.44899 0.0
C183 C 0.21129 0.09078 0.49449 0.0
C184 C 0.13007 0.05916 0.44913 0.0
C185 C 0.11228 0.06168 0.49298 0.0
C186 C 0.17704 0.0806 0.4929 0.0
C187 C 0.12782 0.07396 0.53602 0.0
C188 C 0.22435 0.1081 0.5362 0.0
C189 C 0.26214 0.09205 0.4552 0.0
N190 N 0.15923 0.083 0.53484 0.0
N191 N 0.23057 0.0833 0.45536 0.0
H192 H 0.23524 0.62129 0.92615 0.0
H193 H 0.37488 0.52917 0.08682 0.0
H194 H 0.24085 0.62617 0.08596 0.0
H195 H 0.36787 0.52365 0.92696 0.0
H196 H 0.32218 0.55758 0.08847 0.0
H197 H 0.27973 0.57817 0.92692 0.0
C198 C 0.24563 0.6129 0.96146 0.0
C199 C 0.23463 0.62763 0.00601 0.0
C200 C 0.33205 0.54981 0.05309 0.0
C201 C 0.28572 0.57854 0.00724 0.0
C202 C 0.36217 0.53359 0.05209 0.0
C203 C 0.37608 0.52443 0.00661 0.0
C204 C 0.31573 0.55706 0.00828 0.0
C205 C 0.35832 0.53058 0.96288 0.0
C206 C 0.271 0.58826 0.96192 0.0
C207 C 0.24858 0.61542 0.05078 0.0
N208 N 0.32924 0.54682 0.96479 0.0
N209 N 0.27373 0.59197 0.05022 0.0
H210 H 0.73903 0.87643 0.42059 0.0
H211 H 0.85486 0.02391 0.54275 0.0
H212 H 0.72176 0.91627 0.56815 0.0
H213 H 0.88639 0.93653 0.44884 0.0
H214 H 0.80017 0.99877 0.53896 0.0
H215 H 0.78683 0.91453 0.41593 0.0
C216 C 0.74476 0.89398 0.45151 0.0
C217 C 0.72644 0.89305 0.49496 0.0
C218 C 0.81914 0.98547 0.51894 0.0
C219 C 0.7814 0.93631 0.48993 0.0
C220 C 0.85016 0.99976 0.52095 0.0
C221 C 0.87506 0.98198 0.49642 0.0
C222 C 0.81311 0.95399 0.49101 0.0
C223 C 0.8679 0.95077 0.46874 0.0
C224 C 0.77224 0.9154 0.44896 0.0
C225 C 0.73544 0.91596 0.53418 0.0
N226 N 0.83757 0.93785 0.46663 0.0
N227 N 0.7625 0.93656 0.53092 0.0
H228 H 0.77986 0.43718 0.92319 0.0
H229 H 0.60569 0.38938 0.02254 0.0
H230 H 0.76353 0.36319 0.04685 0.0
H231 H 0.62802 0.49257 0.9502 0.0
H232 H 0.66238 0.37327 0.02075 0.0
H233 H 0.72273 0.45202 0.92181 0.0
C234 C 0.76417 0.42403 0.9499 0.0
C235 C 0.77627 0.39911 0.98535 0.0
C236 C 0.65478 0.3994 0.00526 0.0
C237 C 0.71126 0.41552 0.98365 0.0
C238 C 0.62247 0.40853 0.00602 0.0
C239 C 0.61217 0.44243 0.98666 0.0
C240 C 0.67681 0.42405 0.98421 0.0
C241 C 0.63497 0.46626 0.96585 0.0
C242 C 0.73172 0.43258 0.94924 0.0
C243 C 0.75509 0.38285 0.01929 0.0
N244 N 0.66624 0.45655 0.96498 0.0
N245 N 0.72353 0.39118 0.01745 0.0
H246 H 0.0443 0.83351 0.13872 0.0
H247 H 0.01809 0.87878 0.42424 0.0
H248 H 0.09495 0.77547 0.25548 0.0
H249 H 0.01541 0.96073 0.30709 0.0
H250 H 0.03311 0.83277 0.36293 0.0
H251 H 0.01928 0.87183 0.20119 0.0
C252 C 0.04951 0.82822 0.17764 0.0
C253 C 0.07173 0.80137 0.19209 0.0
C254 C 0.02894 0.8608 0.35082 0.0
C255 C 0.04344 0.8452 0.26339 0.0
C256 C 0.0203 0.88697 0.38557 0.0
C257 C 0.01576 0.92361 0.37062 0.0
C258 C 0.03225 0.87128 0.30079 0.0
C259 C 0.01902 0.93285 0.32017 0.0
C260 C 0.03549 0.85031 0.21311 0.0
C261 C 0.07805 0.79606 0.24294 0.0
N262 N 0.02698 0.90681 0.287 0.0
N263 N 0.06402 0.81793 0.27692 0.0
H264 H 0.59243 0.72512 0.72409 0.0
H265 H 0.48046 0.55655 0.80417 0.0
H266 H 0.54785 0.65211 0.61982 0.0
H267 H 0.54591 0.61089 0.90352 0.0
H268 H 0.49542 0.60011 0.73816 0.0
H269 H 0.56548 0.69241 0.7921 0.0
C270 C 0.5765 0.70264 0.71551 0.0
C271 C 0.57263 0.69093 0.66649 0.0
C272 C 0.50624 0.60263 0.77459 0.0
C273 C 0.542 0.65336 0.74374 0.0
C274 C 0.49767 0.57787 0.81228 0.0
C275 C 0.5123 0.57977 0.85919 0.0
C276 C 0.52934 0.62964 0.78412 0.0
C277 C 0.53438 0.60805 0.86768 0.0
C278 C 0.56131 0.68385 0.75426 0.0
C279 C 0.55185 0.66155 0.65729 0.0
N280 N 0.54235 0.63173 0.83044 0.0
N281 N 0.53748 0.64357 0.6956 0.0
H282 H 0.89753 0.26827 0.21846 0.0
H283 H 0.01175 0.10864 0.32133 0.0
H284 H 0.98612 0.23766 0.14965 0.0
H285 H 0.92628 0.14261 0.39661 0.0
H286 H 0.00256 0.1561 0.25844 0.0
H287 H 0.9076 0.22296 0.28455 0.0
C288 C 0.91913 0.25206 0.21732 0.0
C289 C 0.941 0.25672 0.17842 0.0
C290 C 0.98581 0.15325 0.28872 0.0
C291 C 0.95268 0.20489 0.25392 0.0
C292 C 0.99099 0.12604 0.32468 0.0
C293 C 0.96971 0.1215 0.36439 0.0
C294 C 0.95908 0.17616 0.2922 0.0
C295 C 0.94331 0.14504 0.36667 0.0
C296 C 0.92491 0.2263 0.25513 0.0
C297 C 0.96878 0.23532 0.17916 0.0
N298 N 0.93871 0.17131 0.33101 0.0
N299 N 0.97373 0.21023 0.21614 0.0
H300 H 0.47692 0.22541 0.70889 0.0
H301 H 0.42915 0.41719 0.82678 0.0
H302 H 0.39624 0.28993 0.6593 0.0
H303 H 0.49946 0.34435 0.89194 0.0
H304 H 0.41753 0.37134 0.76405 0.0
H305 H 0.48592 0.26871 0.77595 0.0
C306 C 0.4609 0.24845 0.71236 0.0
C307 C 0.4359 0.25412 0.67814 0.0
C308 C 0.43542 0.36534 0.79219 0.0
C309 C 0.4464 0.30414 0.75437 0.0
C310 C 0.44214 0.39157 0.82797 0.0
C311 C 0.46538 0.3847 0.86468 0.0
C312 C 0.4522 0.33206 0.79283 0.0
C313 C 0.48135 0.35089 0.86439 0.0
C314 C 0.46617 0.27329 0.7505 0.0
C315 C 0.41619 0.2848 0.68416 0.0
N316 N 0.47456 0.32592 0.82891 0.0
N317 N 0.42195 0.30872 0.72133 0.0
H318 H 0.63588 0.67365 0.28751 0.0
H319 H 0.48392 0.57847 0.1692 0.0
H320 H 0.54028 0.7082 0.32358 0.0
H321 H 0.57589 0.58186 0.09775 0.0
H322 H 0.50388 0.62209 0.2307 0.0
H323 H 0.61415 0.63653 0.22132 0.0
C324 C 0.61036 0.67409 0.28113 0.0
C325 C 0.58999 0.69444 0.31143 0.0
C326 C 0.51952 0.61337 0.20129 0.0
C327 C 0.56482 0.65053 0.23627 0.0
C328 C 0.50824 0.58837 0.1664 0.0
C329 C 0.52829 0.5764 0.12837 0.0
C330 C 0.55117 0.62592 0.19846 0.0
C331 C 0.55954 0.5903 0.12635 0.0
C332 C 0.59794 0.6525 0.24345 0.0
C333 C 0.55696 0.69263 0.30188 0.0
N334 N 0.57007 0.61405 0.1611 0.0
N335 N 0.54537 0.67078 0.26541 0.0
H336 H 0.91986 0.28117 0.76627 0.0
H337 H 0.00641 0.09605 0.68852 0.0
H338 H 0.9671 0.20852 0.87083 0.0
H339 H 0.93543 0.14952 0.59598 0.0
H340 H 0.99701 0.14116 0.75275 0.0
H341 H 0.93033 0.23735 0.70005 0.0
C342 C 0.9326 0.25611 0.77514 0.0
C343 C 0.94254 0.24831 0.82402 0.0
C344 C 0.98346 0.14299 0.71842 0.0
C345 C 0.95457 0.1983 0.74883 0.0
C346 C 0.98886 0.11729 0.68164 0.0
C347 C 0.97162 0.11893 0.63679 0.0
C348 C 0.96091 0.17083 0.7102 0.0
C349 C 0.94914 0.14709 0.63009 0.0
C350 C 0.93837 0.23106 0.73751 0.0
C351 C 0.95874 0.21535 0.83371 0.0
N352 N 0.94451 0.17205 0.66635 0.0
N353 N 0.96433 0.19161 0.79643 0.0
H354 H 0.45982 0.29599 0.37639 0.0
H355 H 0.48119 0.33818 0.08776 0.0
H356 H 0.43821 0.2161 0.26451 0.0
H357 H 0.46377 0.42307 0.19421 0.0
H358 H 0.47226 0.29201 0.15298 0.0
H359 H 0.46855 0.34202 0.31077 0.0
C360 C 0.45717 0.28813 0.33793 0.0
C361 C 0.44841 0.25225 0.32568 0.0
C362 C 0.47031 0.32075 0.16194 0.0
C363 C 0.45828 0.30462 0.25069 0.0
C364 C 0.47552 0.34712 0.12486 0.0
C365 C 0.47322 0.38455 0.1356 0.0
C366 C 0.46328 0.33187 0.21029 0.0
C367 C 0.46565 0.39453 0.18426 0.0
C368 C 0.4619 0.31443 0.30061 0.0
C369 C 0.44484 0.24355 0.27538 0.0
N370 N 0.46118 0.36832 0.21994 0.0
N371 N 0.44999 0.26953 0.23962 0.0
H372 H 0.02991 0.81559 0.8586 0.0
H373 H 0.07279 0.95049 0.64126 0.0
H374 H 0.12317 0.81547 0.79188 0.0
H375 H 0.97952 0.90014 0.64345 0.0
H376 H 0.09087 0.90621 0.70423 0.0
H377 H 0.00939 0.85056 0.78638 0.0
C378 C 0.04586 0.82245 0.82833 0.0
C379 C 0.0782 0.81271 0.83087 0.0
C380 C 0.0665 0.90474 0.69071 0.0
C381 C 0.05529 0.85316 0.74963 0.0
C382 C 0.0561 0.93014 0.65517 0.0
C383 C 0.0246 0.92898 0.6374 0.0
C384 C 0.04505 0.87858 0.70957 0.0
C385 C 0.00402 0.90183 0.65627 0.0
C386 C 0.03418 0.84225 0.78732 0.0
C387 C 0.09804 0.82227 0.79101 0.0
N388 N 0.01448 0.87789 0.69202 0.0
N389 N 0.08639 0.84256 0.75236 0.0
loop_
_geom_bond_atom_site_label_1
_geom_bond_atom_site_label_2
_geom_bond_distance
_geom_bond_site_symmetry_2
_ccdc_geom_bond_type
P0 O11 1.490 . S
P0 C14 1.812 . S
P0 C20 1.803 . S
P0 C26 1.819 1_554 S
H1 C15 0.941 . S
H2 C16 0.939 . S
H3 C18 0.940 . S
H4 C19 0.940 . S
H5 C21 0.939 . S
H6 C22 0.942 . S
H7 C24 0.940 . S
H8 C25 0.939 . S
H9 C27 0.941 . S
H10 C31 0.939 . S
O11 P0 1.490 . S
H12 C28 0.939 . S
H13 C30 0.940 . S
C14 P0 1.812 . S
C14 C15 1.389 . S
C14 C19 1.391 . S
C15 H1 0.941 . S
C15 C14 1.389 . S
C15 C16 1.397 . S
C16 H2 0.939 . S
C16 C15 1.397 . S
C16 C17 1.378 . S
C17 C16 1.378 . S
C17 C18 1.378 . S
C18 H3 0.940 . S
C18 C17 1.378 . S
C18 C19 1.396 . S
C19 H4 0.940 . S
C19 C14 1.391 . S
C19 C18 1.396 . S
C20 P0 1.803 . S
C20 C21 1.378 1_554 S
C20 C25 1.400 . S
C21 H5 0.939 . S
C21 C20 1.378 1_556 S
C21 C22 1.361 . S
C22 H6 0.942 . S
C22 C21 1.361 . S
C22 C23 1.369 1_556 S
C23 C22 1.369 1_554 S
C23 C24 1.404 . S
C24 H7 0.940 . S
C24 C23 1.404 . S
C24 C25 1.389 . S
C25 H8 0.939 . S
C25 C20 1.400 . S
C25 C24 1.389 . S
C26 P0 1.819 1_556 S
C26 C27 1.391 . S
C26 C31 1.391 . S
C27 H9 0.941 . S
C27 C26 1.391 . S
C27 C28 1.396 . S
C28 H12 0.939 . S
C28 C27 1.396 . S
C28 C29 1.397 . S
C29 C28 1.397 . S
C29 C30 1.385 . S
C30 H13 0.940 . S
C30 C29 1.385 . S
C30 C31 1.388 . S
C31 H10 0.939 . S
C31 C26 1.391 . S
C31 C30 1.388 . S
P32 O43 1.490 . S
P32 C46 1.812 . S
P32 C52 1.803 . S
P32 C58 1.819 . S
H33 C47 0.941 . S
H34 C48 0.939 . S
H35 C50 0.940 . S
H36 C51 0.940 . S
H37 C53 0.939 . S
H38 C54 0.942 . S
H39 C56 0.940 . S
H40 C57 0.939 . S
H41 C59 0.941 . S
H42 C63 0.939 . S
O43 P32 1.490 . S
H44 C60 0.939 . S
H45 C62 0.940 . S
C46 P32 1.812 . S
C46 C47 1.389 . S
C46 C51 1.391 . S
C47 H33 0.941 . S
C47 C46 1.389 . S
C47 C48 1.397 . S
C48 H34 0.939 . S
C48 C47 1.397 . S
C48 C49 1.378 . S
C49 C48 1.378 . S
C49 C50 1.378 . S
C50 H35 0.940 . S
C50 C49 1.378 . S
C50 C51 1.396 . S
C51 H36 0.940 . S
C51 C46 1.391 . S
C51 C50 1.396 . S
C52 P32 1.803 . S
C52 C53 1.378 . S
C52 C57 1.400 . S
C53 H37 0.939 . S
C53 C52 1.378 . S
C53 C54 1.361 . S
C54 H38 0.942 . S
C54 C53 1.361 . S
C54 C55 1.369 . S
C55 C54 1.369 . S
C55 C56 1.404 . S
C56 H39 0.940 . S
C56 C55 1.404 . S
C56 C57 1.389 . S
C57 H40 0.939 . S
C57 C52 1.400 . S
C57 C56 1.389 . S
C58 P32 1.819 . S
C58 C59 1.391 . S
C58 C63 1.391 . S
C59 H41 0.941 . S
C59 C58 1.391 . S
C59 C60 1.396 . S
C60 H44 0.939 . S
C60 C59 1.396 . S
C60 C61 1.397 . S
C61 C60 1.397 . S
C61 C62 1.385 . S
C62 H45 0.940 . S
C62 C61 1.385 . S
C62 C63 1.388 . S
C63 H42 0.939 . S
C63 C58 1.391 . S
C63 C62 1.388 . S
P64 O75 1.490 . S
P64 C78 1.812 . S
P64 C84 1.803 . S
P64 C90 1.819 1_556 S
H65 C79 0.941 . S
H66 C80 0.939 . S
H67 C82 0.940 . S
H68 C83 0.940 . S
H69 C85 0.939 . S
H70 C86 0.942 . S
H71 C88 0.940 . S
H72 C89 0.939 . S
H73 C91 0.941 . S
H74 C95 0.939 . S
O75 P64 1.490 . S
H76 C92 0.939 . S
H77 C94 0.940 . S
C78 P64 1.812 . S
C78 C79 1.389 . S
C78 C83 1.391 . S
C79 H65 0.941 . S
C79 C78 1.389 . S
C79 C80 1.397 . S
C80 H66 0.939 . S
C80 C79 1.397 . S
C80 C81 1.378 . S
C81 C80 1.378 . S
C81 C82 1.378 . S
C82 H67 0.940 . S
C82 C81 1.378 . S
C82 C83 1.396 . S
C83 H68 0.940 . S
C83 C78 1.391 . S
C83 C82 1.396 . S
C84 P64 1.803 . S
C84 C85 1.378 1_556 S
C84 C89 1.400 . S
C85 H69 0.939 . S
C85 C84 1.378 1_554 S
C85 C86 1.361 . S
C86 H70 0.942 . S
C86 C85 1.361 . S
C86 C87 1.373 . S
C87 C86 1.373 . S
C87 C88 1.400 1_554 S
C88 H71 0.940 . S
C88 C87 1.400 1_556 S
C88 C89 1.389 . S
C89 H72 0.939 . S
C89 C84 1.400 . S
C89 C88 1.389 . S
C90 P64 1.819 1_554 S
C90 C91 1.391 . S
C90 C95 1.391 . S
C91 H73 0.941 . S
C91 C90 1.391 . S
C91 C92 1.396 . S
C92 H76 0.939 . S
C92 C91 1.396 . S
C92 C93 1.397 . S
C93 C92 1.397 . S
C93 C94 1.385 . S
C94 H77 0.940 . S
C94 C93 1.385 . S
C94 C95 1.388 . S
C95 H74 0.939 . S
C95 C90 1.391 . S
C95 C94 1.388 . S
P96 O107 1.490 . S
P96 C110 1.812 . S
P96 C116 1.803 . S
P96 C122 1.819 . S
H97 C111 0.941 . S
H98 C112 0.939 . S
H99 C114 0.940 . S
H100 C115 0.940 . S
H101 C117 0.939 . S
H102 C118 0.942 . S
H103 C120 0.940 . S
H104 C121 0.939 . S
H105 C123 0.941 . S
H106 C127 0.939 . S
O107 P96 1.490 . S
H108 C124 0.939 . S
H109 C126 0.940 . S
C110 P96 1.812 . S
C110 C111 1.389 . S
C110 C115 1.391 . S
C111 H97 0.941 . S
C111 C110 1.389 . S
C111 C112 1.397 . S
C112 H98 0.939 . S
C112 C111 1.397 . S
C112 C113 1.378 . S
C113 C112 1.378 . S
C113 C114 1.378 . S
C114 H99 0.940 . S
C114 C113 1.378 . S
C114 C115 1.396 . S
C115 H100 0.940 . S
C115 C110 1.391 . S
C115 C114 1.396 . S
C116 P96 1.803 . S
C116 C117 1.378 . S
C116 C121 1.400 . S
C117 H101 0.939 . S
C117 C116 1.378 . S
C117 C118 1.361 . S
C118 H102 0.942 . S
C118 C117 1.361 . S
C118 C119 1.369 . S
C119 C118 1.369 . S
C119 C120 1.404 . S
C120 H103 0.940 . S
C120 C119 1.404 . S
C120 C121 1.389 . S
C121 H104 0.939 . S
C121 C116 1.400 . S
C121 C120 1.389 . S
C122 P96 1.819 . S
C122 C123 1.391 . S
C122 C127 1.391 . S
C123 H105 0.941 . S
C123 C122 1.391 . S
C123 C124 1.396 . S
C124 H108 0.939 . S
C124 C123 1.396 . S
C124 C125 1.397 . S
C125 C124 1.397 . S
C125 C126 1.385 . S
C126 H109 0.940 . S
C126 C125 1.385 . S
C126 C127 1.388 . S
C127 H106 0.939 . S
C127 C122 1.391 . S
C127 C126 1.388 . S
O128 Zn129 1.953 1_565 S
O128 C144 1.225 . S
Zn129 O128 1.953 1_545 S
Zn129 O130 1.949 1_655 S
Zn129 O136 1.919 . S
Zn129 O141 1.924 . S
O130 Zn129 1.949 1_455 S
O130 Zn131 1.923 . S
O130 Zn132 1.950 1_445 S
O130 Zn133 1.945 . S
Zn131 O130 1.923 . S
Zn131 O134 1.933 . S
Zn131 O137 1.941 . S
Zn131 O138 1.965 1_545 S
Zn132 O130 1.950 1_665 S
Zn132 O139 1.938 1_655 S
Zn132 O140 1.906 1_655 S
Zn132 O150 1.953 . S
Zn133 O130 1.945 . S
Zn133 O135 1.932 . S
Zn133 O142 1.977 1_545 S
Zn133 O143 1.910 1_455 S
O134 Zn131 1.933 . S
O134 C145 1.226 . S
O135 Zn133 1.932 . S
O135 C145 1.307 . S
O136 Zn129 1.919 . S
O136 C147 1.253 . S
O137 Zn131 1.941 . S
O137 C147 1.283 1_455 S
O138 Zn131 1.965 1_565 S
O138 C146 1.303 . S
O139 Zn132 1.938 1_455 S
O139 C146 1.247 . S
O140 Zn132 1.906 1_455 S
O140 C148 1.304 . S
O141 Zn129 1.924 . S
O141 C149 1.311 . S
O142 Zn133 1.977 1_565 S
O142 C148 1.272 . S
O143 Zn133 1.910 1_655 S
O143 C149 1.231 . S
C144 O128 1.225 . S
C144 O150 1.298 . S
C145 O134 1.226 . S
C145 O135 1.307 . S
C146 O138 1.303 . S
C146 O139 1.247 . S
C147 O136 1.253 . S
C147 O137 1.283 1_655 S
C148 O140 1.304 . S
C148 O142 1.272 . S
C149 O141 1.311 . S
C149 O143 1.231 . S
O150 Zn132 1.953 . S
O150 C144 1.298 . S
O151 Zn152 1.953 . S
O151 C167 1.225 1_556 S
Zn152 O151 1.953 . S
Zn152 O153 1.949 1_556 S
Zn152 O159 1.919 . S
Zn152 O164 1.924 1_556 S
O153 Zn152 1.949 1_554 S
O153 Zn154 1.923 1_554 S
O153 Zn155 1.950 . S
O153 Zn156 1.945 . S
Zn154 O153 1.923 1_556 S
Zn154 O157 1.933 . S
Zn154 O160 1.941 . S
Zn154 O161 1.965 . S
Zn155 O153 1.950 . S
Zn155 O162 1.938 1_554 S
Zn155 O163 1.906 . S
Zn155 O173 1.953 . S
Zn156 O153 1.945 . S
Zn156 O158 1.932 . S
Zn156 O165 1.977 . S
Zn156 O166 1.910 . S
O157 Zn154 1.933 . S
O157 C168 1.226 1_556 S
O158 Zn156 1.932 . S
O158 C168 1.307 . S
O159 Zn152 1.919 . S
O159 C170 1.253 . S
O160 Zn154 1.941 . S
O160 C170 1.283 . S
O161 Zn154 1.965 . S
O161 C169 1.303 . S
O162 Zn155 1.938 1_556 S
O162 C169 1.247 . S
O163 Zn155 1.906 . S
O163 C171 1.304 . S
O164 Zn152 1.924 1_554 S
O164 C172 1.311 . S
O165 Zn156 1.977 . S
O165 C171 1.272 . S
O166 Zn156 1.910 . S
O166 C172 1.231 . S
C167 O151 1.225 1_554 S
C167 O173 1.298 . S
C168 O157 1.226 1_554 S
C168 O158 1.307 . S
C169 O161 1.303 . S
C169 O162 1.247 . S
C170 O159 1.253 . S
C170 O160 1.283 . S
C171 O163 1.304 . S
C171 O165 1.272 . S
C172 O164 1.311 . S
C172 O166 1.231 . S
O173 Zn155 1.953 . S
O173 C167 1.298 . S
H174 C180 0.930 . S
H175 C184 0.930 . S
H176 C189 0.929 . S
H177 C187 0.929 . S
H178 C182 0.929 . S
H179 C188 0.929 . S
C180 H174 0.930 . S
C180 C181 1.367 . S
C180 C188 1.378 . S
C181 C180 1.367 . S
C181 C189 1.433 . S
C182 H178 0.929 . S
C182 C184 1.378 . S
C182 C186 1.350 . S
C183 C186 1.463 . S
C183 C188 1.350 . S
C183 N191 1.427 . S
C184 H175 0.930 . S
C184 C182 1.378 . S
C184 C185 1.367 . S
C185 C184 1.367 . S
C185 C187 1.433 . S
C186 C182 1.350 . S
C186 C183 1.463 . S
C186 N190 1.427 . S
C187 H177 0.929 . S
C187 C185 1.433 . S
C187 N190 1.384 . S
C188 H179 0.929 . S
C188 C180 1.378 . S
C188 C183 1.350 . S
C189 H176 0.929 . S
C189 C181 1.433 . S
C189 N191 1.384 . S
N190 C186 1.427 . S
N190 C187 1.384 . S
N191 C183 1.427 . S
N191 C189 1.384 . S
H192 C198 0.930 . S
H193 C202 0.930 . S
H194 C207 0.929 . S
H195 C205 0.929 . S
H196 C200 0.929 . S
H197 C206 0.929 . S
C198 H192 0.930 . S
C198 C199 1.367 1_556 S
C198 C206 1.378 . S
C199 C198 1.367 1_554 S
C199 C207 1.433 . S
C200 H196 0.929 . S
C200 C202 1.378 . S
C200 C204 1.350 . S
C201 C204 1.463 . S
C201 C206 1.350 1_554 S
C201 N209 1.427 . S
C202 H193 0.930 . S
C202 C200 1.378 . S
C202 C203 1.367 . S
C203 C202 1.367 . S
C203 C205 1.433 1_554 S
C204 C200 1.350 . S
C204 C201 1.463 . S
C204 N208 1.427 1_554 S
C205 H195 0.929 . S
C205 C203 1.433 1_556 S
C205 N208 1.384 . S
C206 H197 0.929 . S
C206 C198 1.378 . S
C206 C201 1.350 1_556 S
C207 H194 0.929 . S
C207 C199 1.433 . S
C207 N209 1.384 . S
N208 C204 1.427 1_556 S
N208 C205 1.384 . S
N209 C201 1.427 . S
N209 C207 1.384 . S
H210 C216 0.930 . S
H211 C220 0.930 . S
H212 C225 0.929 . S
H213 C223 0.929 . S
H214 C218 0.929 . S
H215 C224 0.929 . S
C216 H210 0.930 . S
C216 C217 1.367 . S
C216 C224 1.378 . S
C217 C216 1.367 . S
C217 C225 1.433 . S
C218 H214 0.929 . S
C218 C220 1.378 . S
C218 C222 1.350 . S
C219 C222 1.463 . S
C219 C224 1.350 . S
C219 N227 1.427 . S
C220 H211 0.930 . S
C220 C218 1.378 . S
C220 C221 1.367 . S
C221 C220 1.367 . S
C221 C223 1.433 . S
C222 C218 1.350 . S
C222 C219 1.463 . S
C222 N226 1.427 . S
C223 H213 0.929 . S
C223 C221 1.433 . S
C223 N226 1.384 . S
C224 H215 0.929 . S
C224 C216 1.378 . S
C224 C219 1.350 . S
C225 H212 0.929 . S
C225 C217 1.433 . S
C225 N227 1.384 . S
N226 C222 1.427 . S
N226 C223 1.384 . S
N227 C219 1.427 . S
N227 C225 1.384 . S
H228 C234 0.930 . S
H229 C238 0.930 . S
H230 C243 0.929 . S
H231 C241 0.929 . S
H232 C236 0.929 . S
H233 C242 0.929 . S
C234 H228 0.930 . S
C234 C235 1.367 1_556 S
C234 C242 1.378 . S
C235 C234 1.367 1_554 S
C235 C243 1.433 . S
C236 H232 0.929 . S
C236 C238 1.378 . S
C236 C240 1.350 . S
C237 C240 1.463 . S
C237 C242 1.350 1_554 S
C237 N245 1.427 . S
C238 H229 0.930 . S
C238 C236 1.378 . S
C238 C239 1.367 . S
C239 C238 1.367 . S
C239 C241 1.433 1_554 S
C240 C236 1.350 . S
C240 C237 1.463 . S
C240 N244 1.427 1_554 S
C241 H231 0.929 . S
C241 C239 1.433 1_556 S
C241 N244 1.384 . S
C242 H233 0.929 . S
C242 C234 1.378 . S
C242 C237 1.350 1_556 S
C243 H230 0.929 . S
C243 C235 1.433 . S
C243 N245 1.384 . S
N244 C240 1.427 1_556 S
N244 C241 1.384 . S
N245 C237 1.427 . S
N245 C243 1.384 . S
H246 C252 0.930 . S
H247 C256 0.930 . S
H248 C261 0.929 . S
H249 C259 0.929 . S
H250 C254 0.929 . S
H251 C260 0.929 . S
C252 H246 0.930 . S
C252 C253 1.367 . S
C252 C260 1.378 . S
C253 C252 1.367 . S
C253 C261 1.433 . S
C254 H250 0.929 . S
C254 C256 1.378 . S
C254 C258 1.350 . S
C255 C258 1.463 . S
C255 C260 1.350 . S
C255 N263 1.427 . S
C256 H247 0.930 . S
C256 C254 1.378 . S
C256 C257 1.367 . S
C257 C256 1.367 . S
C257 C259 1.433 . S
C258 C254 1.350 . S
C258 C255 1.463 . S
C258 N262 1.427 . S
C259 H249 0.929 . S
C259 C257 1.433 . S
C259 N262 1.384 . S
C260 H251 0.929 . S
C260 C252 1.378 . S
C260 C255 1.350 . S
C261 H248 0.929 . S
C261 C253 1.433 . S
C261 N263 1.384 . S
N262 C258 1.427 . S
N262 C259 1.384 . S
N263 C255 1.427 . S
N263 C261 1.384 . S
H264 C270 0.930 . S
H265 C274 0.930 . S
H266 C279 0.929 . S
H267 C277 0.929 . S
H268 C272 0.929 . S
H269 C278 0.929 . S
C270 H264 0.930 . S
C270 C271 1.367 . S
C270 C278 1.378 . S
C271 C270 1.367 . S
C271 C279 1.433 . S
C272 H268 0.929 . S
C272 C274 1.378 . S
C272 C276 1.350 . S
C273 C276 1.463 . S
C273 C278 1.350 . S
C273 N281 1.427 . S
C274 H265 0.930 . S
C274 C272 1.378 . S
C274 C275 1.367 . S
C275 C274 1.367 . S
C275 C277 1.433 . S
C276 C272 1.350 . S
C276 C273 1.463 . S
C276 N280 1.427 . S
C277 H267 0.929 . S
C277 C275 1.433 . S
C277 N280 1.384 . S
C278 H269 0.929 . S
C278 C270 1.378 . S
C278 C273 1.350 . S
C279 H266 0.929 . S
C279 C271 1.433 . S
C279 N281 1.384 . S
N280 C276 1.427 . S
N280 C277 1.384 . S
N281 C273 1.427 . S
N281 C279 1.384 . S
H282 C288 0.930 . S
H283 C292 0.930 . S
H284 C297 0.929 . S
H285 C295 0.929 . S
H286 C290 0.929 . S
H287 C296 0.929 . S
C288 H282 0.930 . S
C288 C289 1.367 . S
C288 C296 1.378 . S
C289 C288 1.367 . S
C289 C297 1.433 . S
C290 H286 0.929 . S
C290 C292 1.378 . S
C290 C294 1.350 . S
C291 C294 1.463 . S
C291 C296 1.350 . S
C291 N299 1.427 . S
C292 H283 0.930 . S
C292 C290 1.378 . S
C292 C293 1.367 . S
C293 C292 1.367 . S
C293 C295 1.433 . S
C294 C290 1.350 . S
C294 C291 1.463 . S
C294 N298 1.427 . S
C295 H285 0.929 . S
C295 C293 1.433 . S
C295 N298 1.384 . S
C296 H287 0.929 . S
C296 C288 1.378 . S
C296 C291 1.350 . S
C297 H284 0.929 . S
C297 C289 1.433 . S
C297 N299 1.384 . S
N298 C294 1.427 . S
N298 C295 1.384 . S
N299 C291 1.427 . S
N299 C297 1.384 . S
H300 C306 0.930 . S
H301 C310 0.930 . S
H302 C315 0.929 . S
H303 C313 0.929 . S
H304 C308 0.929 . S
H305 C314 0.929 . S
C306 H300 0.930 . S
C306 C307 1.367 . S
C306 C314 1.378 . S
C307 C306 1.367 . S
C307 C315 1.433 . S
C308 H304 0.929 . S
C308 C310 1.378 . S
C308 C312 1.350 . S
C309 C312 1.463 . S
C309 C314 1.350 . S
C309 N317 1.427 . S
C310 H301 0.930 . S
C310 C308 1.378 . S
C310 C311 1.367 . S
C311 C310 1.367 . S
C311 C313 1.433 . S
C312 C308 1.350 . S
C312 C309 1.463 . S
C312 N316 1.427 . S
C313 H303 0.929 . S
C313 C311 1.433 . S
C313 N316 1.384 . S
C314 H305 0.929 . S
C314 C306 1.378 . S
C314 C309 1.350 . S
C315 H302 0.929 . S
C315 C307 1.433 . S
C315 N317 1.384 . S
N316 C312 1.427 . S
N316 C313 1.384 . S
N317 C309 1.427 . S
N317 C315 1.384 . S
H318 C324 0.930 . S
H319 C328 0.930 . S
H320 C333 0.929 . S
H321 C331 0.929 . S
H322 C326 0.929 . S
H323 C332 0.929 . S
C324 H318 0.930 . S
C324 C325 1.367 . S
C324 C332 1.378 . S
C325 C324 1.367 . S
C325 C333 1.433 . S
C326 H322 0.929 . S
C326 C328 1.378 . S
C326 C330 1.350 . S
C327 C330 1.463 . S
C327 C332 1.350 . S
C327 N335 1.427 . S
C328 H319 0.930 . S
C328 C326 1.378 . S
C328 C329 1.367 . S
C329 C328 1.367 . S
C329 C331 1.433 . S
C330 C326 1.350 . S
C330 C327 1.463 . S
C330 N334 1.427 . S
C331 H321 0.929 . S
C331 C329 1.433 . S
C331 N334 1.384 . S
C332 H323 0.929 . S
C332 C324 1.378 . S
C332 C327 1.350 . S
C333 H320 0.929 . S
C333 C325 1.433 . S
C333 N335 1.384 . S
N334 C330 1.427 . S
N334 C331 1.384 . S
N335 C327 1.427 . S
N335 C333 1.384 . S
H336 C342 0.930 . S
H337 C346 0.930 1_455 S
H338 C351 0.929 . S
H339 C349 0.929 . S
H340 C344 0.929 . S
H341 C350 0.929 . S
C342 H336 0.930 . S
C342 C343 1.367 . S
C342 C350 1.378 . S
C343 C342 1.367 . S
C343 C351 1.433 . S
C344 H340 0.929 . S
C344 C346 1.378 . S
C344 C348 1.350 . S
C345 C348 1.463 . S
C345 C350 1.350 . S
C345 N353 1.427 . S
C346 H337 0.930 1_655 S
C346 C344 1.378 . S
C346 C347 1.367 . S
C347 C346 1.367 . S
C347 C349 1.433 . S
C348 C344 1.350 . S
C348 C345 1.463 . S
C348 N352 1.427 . S
C349 H339 0.929 . S
C349 C347 1.433 . S
C349 N352 1.384 . S
C350 H341 0.929 . S
C350 C342 1.378 . S
C350 C345 1.350 . S
C351 H338 0.929 . S
C351 C343 1.433 . S
C351 N353 1.384 . S
N352 C348 1.427 . S
N352 C349 1.384 . S
N353 C345 1.427 . S
N353 C351 1.384 . S
H354 C360 0.930 . S
H355 C364 0.930 . S
H356 C369 0.929 . S
H357 C367 0.929 . S
H358 C362 0.929 . S
H359 C368 0.929 . S
C360 H354 0.930 . S
C360 C361 1.367 . S
C360 C368 1.378 . S
C361 C360 1.367 . S
C361 C369 1.433 . S
C362 H358 0.929 . S
C362 C364 1.378 . S
C362 C366 1.350 . S
C363 C366 1.463 . S
C363 C368 1.350 . S
C363 N371 1.427 . S
C364 H355 0.930 . S
C364 C362 1.378 . S
C364 C365 1.367 . S
C365 C364 1.367 . S
C365 C367 1.433 . S
C366 C362 1.350 . S
C366 C363 1.463 . S
C366 N370 1.427 . S
C367 H357 0.929 . S
C367 C365 1.433 . S
C367 N370 1.384 . S
C368 H359 0.929 . S
C368 C360 1.378 . S
C368 C363 1.350 . S
C369 H356 0.929 . S
C369 C361 1.433 . S
C369 N371 1.384 . S
N370 C366 1.427 . S
N370 C367 1.384 . S
N371 C363 1.427 . S
N371 C369 1.384 . S
H372 C378 0.930 . S
H373 C382 0.930 . S
H374 C387 0.929 . S
H375 C385 0.912 1_655 S
H376 C380 0.929 . S
H377 C386 0.929 . S
C378 H372 0.930 . S
C378 C379 1.367 . S
C378 C386 1.378 . S
C379 C378 1.367 . S
C379 C387 1.433 . S
C380 H376 0.929 . S
C380 C382 1.378 . S
C380 C384 1.350 . S
C381 C384 1.463 . S
C381 C386 1.350 . S
C381 N389 1.427 . S
C382 H373 0.930 . S
C382 C380 1.378 . S
C382 C383 1.367 . S
C383 C382 1.367 . S
C383 C385 1.446 . S
C384 C380 1.350 . S
C384 C381 1.463 . S
C384 N388 1.427 . S
C385 H375 0.912 1_455 S
C385 C383 1.446 . S
C385 N388 1.389 . S
C386 H377 0.929 . S
C386 C378 1.378 . S
C386 C381 1.350 . S
C387 H374 0.929 . S
C387 C379 1.433 . S
C387 N389 1.384 . S
N388 C384 1.427 . S
N388 C385 1.389 . S
N389 C381 1.427 . S
N389 C387 1.384 . S
C185 C145 1.597 . S
C181 C119 1.606 . S
C199 C23 1.488 . S
C203 C168 1.593 . S
C217 C55 1.499 . S
C221 C144 1.610 . S
C235 C87 1.620 . S
C239 C167 1.616 . S
C257 C148 1.565 . S
C253 C17 1.508 . S
C275 C170 1.574 . S
C271 C61 1.519 . S
C289 C93 1.646 . S
C293 C149 1.567 . S
C307 C113 1.590 . S
C311 C169 1.545 . S
C329 C172 1.558 . S
C325 C49 1.513 . S
C347 C147 1.571 . S
C343 C81 1.611 . S
C365 C171 1.566 . S
C361 C125 1.632 . S
C379 C29 1.509 . S
C383 C146 1.547 . S
