# Generated by pormake.
# Topology zzz, (3,6)-cn, num edge types: 1
# Building blocks:
#     Node 0, Type 0, BuildingBlock: BELTOD_clean_linker_0, # of connection points: 3
#     Node 1, Type 0, BuildingBlock: BELTOD_clean_linker_0, # of connection points: 3
#     Node 2, Type 0, BuildingBlock: BELTOD_clean_linker_0, # of connection points: 3
#     Node 3, Type 0, BuildingBlock: BELTOD_clean_linker_0, # of connection points: 3
#     Node 4, Type 0, BuildingBlock: BELTOD_clean_linker_0, # of connection points: 3
#     Node 5, Type 0, BuildingBlock: BELTOD_clean_linker_0, # of connection points: 3
#     Node 6, Type 0, BuildingBlock: BELTOD_clean_linker_0, # of connection points: 3
#     Node 7, Type 0, BuildingBlock: BELTOD_clean_linker_0, # of connection points: 3
#     Node 8, Type 1, BuildingBlock: KUMJIN_clean_sbu_1, # of connection points: 6
#     Node 9, Type 1, BuildingBlock: KUMJIN_clean_sbu_1, # of connection points: 6
#     Node 10, Type 1, BuildingBlock: KUMJIN_clean_sbu_1, # of connection points: 6
#     Node 11, Type 1, BuildingBlock: KUMJIN_clean_sbu_1, # of connection points: 6
#     Edge 12, Type (0, 1), BuildingBlock: EZIPEK_clean_linker_0, # of connection points: 2
#     Edge 13, Type (0, 1), BuildingBlock: EZIPEK_clean_linker_0, # of connection points: 2
#     Edge 14, Type (0, 1), BuildingBlock: EZIPEK_clean_linker_0, # of connection points: 2
#     Edge 15, Type (0, 1), BuildingBlock: EZIPEK_clean_linker_0, # of connection points: 2
#     Edge 16, Type (0, 1), BuildingBlock: EZIPEK_clean_linker_0, # of connection points: 2
#     Edge 17, Type (0, 1), BuildingBlock: EZIPEK_clean_linker_0, # of connection points: 2
#     Edge 18, Type (0, 1), BuildingBlock: EZIPEK_clean_linker_0, # of connection points: 2
#     Edge 19, Type (0, 1), BuildingBlock: EZIPEK_clean_linker_0, # of connection points: 2
#     Edge 20, Type (0, 1), BuildingBlock: EZIPEK_clean_linker_0, # of connection points: 2
#     Edge 21, Type (0, 1), BuildingBlock: EZIPEK_clean_linker_0, # of connection points: 2
#     Edge 22, Type (0, 1), BuildingBlock: EZIPEK_clean_linker_0, # of connection points: 2
#     Edge 23, Type (0, 1), BuildingBlock: EZIPEK_clean_linker_0, # of connection points: 2
#     Edge 24, Type (0, 1), BuildingBlock: EZIPEK_clean_linker_0, # of connection points: 2
#     Edge 25, Type (0, 1), BuildingBlock: EZIPEK_clean_linker_0, # of connection points: 2
#     Edge 26, Type (0, 1), BuildingBlock: EZIPEK_clean_linker_0, # of connection points: 2
#     Edge 27, Type (0, 1), BuildingBlock: EZIPEK_clean_linker_0, # of connection points: 2
#     Edge 28, Type (0, 1), BuildingBlock: EZIPEK_clean_linker_0, # of connection points: 2
#     Edge 29, Type (0, 1), BuildingBlock: EZIPEK_clean_linker_0, # of connection points: 2
#     Edge 30, Type (0, 1), BuildingBlock: EZIPEK_clean_linker_0, # of connection points: 2
#     Edge 31, Type (0, 1), BuildingBlock: EZIPEK_clean_linker_0, # of connection points: 2
#     Edge 32, Type (0, 1), BuildingBlock: EZIPEK_clean_linker_0, # of connection points: 2
#     Edge 33, Type (0, 1), BuildingBlock: EZIPEK_clean_linker_0, # of connection points: 2
#     Edge 34, Type (0, 1), BuildingBlock: EZIPEK_clean_linker_0, # of connection points: 2
#     Edge 35, Type (0, 1), BuildingBlock: EZIPEK_clean_linker_0, # of connection points: 2
# Relax obj value: 0.349
# Max RMSD: 0.188
# Mean RMSD: 0.174
data_MOF--net-zzz--node1-KUMJIN_clean_sbu_1--node2-BELTOD_clean_linker_0--edge1-EZIPEK_clean_linker_0
_symmetry_space_group_name_H-M    P1
_symmetry_Int_Tables_number       1
_symmetry_cell_setting            triclinic
loop_
_symmetry_equiv_pos_as_xyz
'x, y, z'
_cell_length_a     40.321421
_cell_length_b     40.272418
_cell_length_c     15.071507
_cell_angle_alpha  89.967316
_cell_angle_beta   90.354315
_cell_angle_gamma 90.318415
loop_
_atom_site_label
_atom_site_type_symbol
_atom_site_fract_x
_atom_site_fract_y
_atom_site_fract_z
_atom_type_partial_charge
P0 P 0.72326 0.49499 0.31604 0.0
H1 H 0.75094 0.47903 0.49048 0.0
H2 H 0.805 0.48898 0.55898 0.0
H3 H 0.83072 0.55556 0.34624 0.0
H4 H 0.77595 0.5455 0.27647 0.0
H5 H 0.65134 0.50466 0.33499 0.0
H6 H 0.60943 0.51766 0.22272 0.0
H7 H 0.68587 0.55294 0.04743 0.0
H8 H 0.7282 0.53914 0.15939 0.0
H9 H 0.68966 0.45594 0.1791 0.0
H10 H 0.79077 0.47302 0.2651 0.0
O11 O 0.70174 0.47107 0.38583 0.0
H12 H 0.71008 0.42925 0.04379 0.0
H13 H 0.81076 0.44677 0.13079 0.0
C14 C 0.75865 0.51193 0.37848 0.0
C15 C 0.76749 0.4967 0.45932 0.0
C16 C 0.7987 0.50212 0.49849 0.0
C17 C 0.82226 0.52278 0.45781 0.0
C18 C 0.81305 0.53946 0.37911 0.0
C19 C 0.78155 0.53406 0.33977 0.0
C20 C 0.69333 0.5209 0.25663 0.0
C21 C 0.6593 0.51656 0.27428 0.0
C22 C 0.63514 0.52379 0.20957 0.0
C23 C 0.64435 0.53593 0.12583 0.0
C24 C 0.67803 0.5437 0.1115 0.0
C25 C 0.70227 0.53616 0.17613 0.0
C26 C 0.73859 0.46779 0.23075 0.0
C27 C 0.71615 0.45356 0.1698 0.0
C28 C 0.7277 0.43827 0.09281 0.0
C29 C 0.76187 0.4366 0.07698 0.0
C30 C 0.78426 0.4481 0.14175 0.0
C31 C 0.77273 0.46345 0.21832 0.0
P32 P 0.03354 0.73141 0.35044 0.0
H33 H 0.02557 0.74042 0.5426 0.0
H34 H 0.01904 0.79177 0.62672 0.0
H35 H 0.98663 0.8419 0.38951 0.0
H36 H 0.9928 0.79023 0.30491 0.0
H37 H 0.06528 0.70863 0.18856 0.0
H38 H 0.05161 0.66784 0.07596 0.0
H39 H 0.95853 0.64781 0.20457 0.0
H40 H 0.97167 0.69084 0.31717 0.0
H41 H 0.09159 0.76355 0.42936 0.0
H42 H 0.03776 0.76656 0.18111 0.0
O43 O 0.05344 0.70605 0.42007 0.0
H44 H 0.12132 0.81453 0.38756 0.0
H45 H 0.0688 0.81593 0.13758 0.0
C46 C 0.00954 0.76083 0.41648 0.0
C47 C 0.01528 0.76177 0.50885 0.0
C48 C 0.01195 0.79143 0.55729 0.0
C49 C 1.00271 0.82105 0.51478 0.0
C50 C 0.99376 0.81948 0.42429 0.0
C51 C 0.99685 0.78967 0.37597 0.0
C52 C 0.01872 0.70478 0.25945 0.0
C53 C 0.04107 0.69699 0.19116 0.0
C54 C 0.0335 0.67306 0.12684 0.0
C55 C 1.00382 0.65479 0.13011 0.0
C56 C 0.98136 0.66191 0.19914 0.0
C57 C 0.98877 0.68667 0.26325 0.0
C58 C 0.06337 0.76041 0.30691 0.0
C59 C 0.08749 0.77402 0.36403 0.0
C60 C 0.10428 0.80315 0.34061 0.0
C61 C 0.09737 0.81862 0.25927 0.0
C62 C 0.07473 0.80395 0.20004 0.0
C63 C 0.05736 0.77548 0.22447 0.0
P64 P 0.78736 0.01209 0.26961 0.0
H65 H 0.77773 0.04323 0.44275 0.0
H66 H 0.72898 0.04522 0.53855 0.0
H67 H 0.68596 0.9625 0.3975 0.0
H68 H 0.73388 0.96097 0.30024 0.0
H69 H 0.84934 0.04983 0.2959 0.0
H70 H 0.90095 0.04526 0.21357 0.0
H71 H 0.87384 0.94607 0.13322 0.0
H72 H 0.82322 0.94973 0.22073 0.0
H73 H 0.76659 0.05033 0.11478 0.0
H74 H 0.76912 0.94679 0.1896 0.0
O75 O 0.78735 0.05359 0.26917 0.0
H76 H 0.74044 0.03554 0.97579 0.0
H77 H 0.74404 0.93173 0.04728 0.0
C78 C 0.75999 1.00216 0.36256 0.0
C79 C 0.75854 0.02457 0.43411 0.0
C80 C 0.73052 0.02583 0.48907 0.0
C81 C 0.70357 1.0041 0.4753 0.0
C82 C 0.70634 0.97959 0.40954 0.0
C83 C 0.73414 0.97867 0.35372 0.0
C84 C 0.83103 1.00079 0.26116 0.0
C85 C 0.85489 0.0264 0.26427 0.0
C86 C 0.88447 0.02394 0.21627 0.0
C87 C 0.89082 0.99583 0.16383 0.0
C88 C 0.86934 0.96836 0.17139 0.0
C89 C 0.84007 0.9706 0.22125 0.0
C90 C 0.76901 0.9999 0.16474 0.0
C91 C 0.76186 0.02434 0.10155 0.0
C92 C 0.74742 0.01574 0.02076 0.0
C93 C 0.74008 0.98238 1.00049 0.0
C94 C 0.749 0.95763 0.06143 0.0
C95 C 0.76331 0.96635 0.14305 0.0
P96 P 0.5016 0.79915 0.26123 0.0
H97 H 0.49299 0.79193 0.45486 0.0
H98 H 0.49717 0.74268 0.5507 0.0
H99 H 0.54977 0.69124 0.34553 0.0
H100 H 0.54606 0.7401 0.25031 0.0
H101 H 0.45883 0.84865 0.1862 0.0
H102 H 0.46904 0.89781 0.09833 0.0
H103 H 0.57209 0.89629 0.17555 0.0
H104 H 0.56208 0.84451 0.26039 0.0
H105 H 0.45562 0.76722 0.13698 0.0
H106 H 0.55923 0.79476 0.14436 0.0
O107 O 0.46114 0.79738 0.28404 0.0
H108 H 0.46217 0.74654 0.98668 0.0
H109 H 0.56573 0.77436 0.99175 0.0
C110 C 0.51936 0.77058 0.34433 0.0
C111 C 0.50691 0.77076 0.4316 0.0
C112 C 0.50887 0.74229 0.48637 0.0
C113 C 0.52342 0.71274 0.45566 0.0
C114 C 0.53836 0.71347 0.37146 0.0
C115 C 0.5364 0.74187 0.31683 0.0
C116 C 0.50939 0.84279 0.23317 0.0
C117 C 0.48361 0.85912 0.18755 0.0
C118 C 0.48952 0.88728 0.13553 0.0
C119 C 0.52147 0.90091 0.12786 0.0
C120 C 0.54719 0.88618 0.17855 0.0
C121 C 0.54137 0.85693 0.2289 0.0
C122 C 0.50708 0.78187 0.15249 0.0
C123 C 0.47977 0.76894 0.10634 0.0
C124 C 0.48339 0.75776 0.01975 0.0
C125 C 0.5144 0.75929 0.97761 0.0
C126 C 0.54161 0.77313 0.02279 0.0
C127 C 0.53793 0.78437 0.10995 0.0
P128 P 0.28026 0.44848 0.11892 0.0
H129 H 0.26512 0.43608 0.92922 0.0
H130 H 0.2178 0.45299 0.83684 0.0
H131 H 0.18891 0.52293 0.03812 0.0
H132 H 0.23832 0.50882 0.125 0.0
H133 H 0.34025 0.41172 0.16046 0.0
H134 H 0.38748 0.42496 0.24841 0.0
H135 H 0.3589 0.52837 0.24537 0.0
H136 H 0.31074 0.51384 0.15859 0.0
H137 H 0.20928 0.44116 0.15816 0.0
H138 H 0.29951 0.45722 0.30891 0.0
O139 O 0.28171 0.40874 0.08792 0.0
H140 H 0.17742 0.46591 0.27897 0.0
H141 H 0.26761 0.48105 0.42885 0.0
C142 C 0.25518 0.4705 0.03578 0.0
C143 C 0.24957 0.45615 0.9519 0.0
C144 C 0.22206 0.46547 0.89956 0.0
C145 C 0.1986 0.48839 0.93137 0.0
C146 C 0.20596 0.50478 1.01184 0.0
C147 C 0.23446 0.49675 0.06167 0.0
C148 C 0.32244 0.46193 0.14722 0.0
C149 C 0.34547 0.43771 0.17285 0.0
C150 C 0.37368 0.44581 0.22367 0.0
C151 C 0.3815 0.47899 0.24794 0.0
C152 C 0.35758 0.50312 0.2219 0.0
C153 C 0.32907 0.49486 0.17161 0.0
C154 C 0.25701 0.44999 0.22104 0.0
C155 C 0.2222 0.44897 0.21788 0.0
C156 C 0.20395 0.46287 0.28684 0.0
C157 C 0.22052 0.47623 0.36075 0.0
C158 C 0.25466 0.47144 0.37103 0.0
C159 C 0.27289 0.45819 0.30147 0.0
P160 P 0.08276 0.29221 0.09558 0.0
H161 H 0.10496 0.2636 0.92679 0.0
H162 H 0.08579 0.21335 0.85109 0.0
H163 H 0.99421 0.21704 0.99567 0.0
H164 H 0.01361 0.2673 0.07319 0.0
H165 H 0.12035 0.32969 0.22341 0.0
H166 H 0.10693 0.3735 0.32793 0.0
H167 H 0.01227 0.38674 0.19853 0.0
H168 H 0.02502 0.34038 0.0965 0.0
H169 H 0.10886 0.22536 0.11873 0.0
H170 H 0.04246 0.29134 0.25684 0.0
O171 O 0.1229 0.29352 0.06924 0.0
H172 H 0.08669 0.17842 0.20486 0.0
H173 H 0.02146 0.24512 0.34243 0.0
C174 C 0.06082 0.27003 1.00619 0.0
C175 C 0.08003 0.25484 0.93974 0.0
C176 C 0.06926 0.22562 0.89682 0.0
C177 C 0.03871 0.21083 0.9182 0.0
C178 C 0.01794 0.22775 0.97785 0.0
C179 C 0.02883 0.25699 0.02116 0.0
C180 C 0.07404 0.33182 0.15034 0.0
C181 C 0.09693 0.34242 0.21542 0.0
C182 C 0.0892 0.36755 0.27596 0.0
C183 C 0.05854 0.38387 0.27234 0.0
C184 C 0.03614 0.37468 0.20358 0.0
C185 C 0.04349 0.34839 0.14445 0.0
C186 C 0.07771 0.262 0.18181 0.0
C187 C 0.09086 0.23008 0.1702 0.0
C188 C 0.07807 0.20334 0.21832 0.0
C189 C 0.05231 0.20868 0.27849 0.0
C190 C 0.04133 0.24085 0.29575 0.0
C191 C 0.05372 0.26734 0.24723 0.0
P192 P 0.237 0.09719 0.1142 0.0
H193 H 0.2466 0.10109 0.92014 0.0
H194 H 0.29443 0.08407 0.83222 0.0
H195 H 0.32819 0.02289 0.04907 0.0
H196 H 0.2789 0.03772 0.13361 0.0
H197 H 0.16987 0.12182 0.1444 0.0
H198 H 0.12654 0.10635 0.24987 0.0
H199 H 0.18513 0.02267 0.3341 0.0
H200 H 0.22714 0.03674 0.22313 0.0
H201 H 0.30499 0.12037 0.09196 0.0
H202 H 0.24125 0.0988 0.31348 0.0
O203 O 0.2254 0.13204 0.06301 0.0
H204 H 0.35177 0.09721 0.17248 0.0
H205 H 0.28886 0.078 0.39746 0.0
C206 C 0.25903 0.07113 0.03471 0.0
C207 C 0.26315 0.08254 0.94723 0.0
C208 C 0.29092 0.07318 0.89725 0.0
C209 C 0.31584 0.05303 0.93464 0.0
C210 C 0.30977 0.03873 0.01835 0.0
C211 C 0.28121 0.04694 0.06658 0.0
C212 C 0.20162 0.08014 0.17395 0.0
C213 C 0.17276 0.09924 0.18241 0.0
C214 C 0.14816 0.09069 0.24398 0.0
C215 C 0.15259 0.06372 0.30203 0.0
C216 C 0.181 0.04383 0.2911 0.0
C217 C 0.20496 0.05166 0.22696 0.0
C218 C 0.26922 0.10783 0.19316 0.0
C219 C 0.3013 0.11242 0.15988 0.0
C220 C 0.32811 0.09895 0.20583 0.0
C221 C 0.32307 0.08349 0.28826 0.0
C222 C 0.29269 0.08801 0.33157 0.0
C223 C 0.26548 0.09986 0.28332 0.0
P224 P 0.4552 0.24186 0.07191 0.0
H225 H 0.43744 0.26725 0.89459 0.0
H226 H 0.45524 0.31763 0.81753 0.0
H227 H 0.53926 0.32595 0.99363 0.0
H228 H 0.52094 0.27577 0.07298 0.0
H229 H 0.4204 0.18189 0.12684 0.0
H230 H 0.43304 0.1388 0.23372 0.0
H231 H 0.53318 0.17551 0.25694 0.0
H232 H 0.52088 0.21835 0.1441 0.0
H233 H 0.42917 0.30956 0.07458 0.0
H234 H 0.46831 0.24009 0.26685 0.0
O235 O 0.41769 0.23395 0.02916 0.0
H236 H 0.44532 0.35562 0.17251 0.0
H237 H 0.48619 0.28571 0.35961 0.0
C238 C 0.47793 0.26683 0.98988 0.0
C239 C 0.46056 0.27877 0.91486 0.0
C240 C 0.47054 0.30802 0.87089 0.0
C241 C 0.49841 0.32612 0.90001 0.0
C242 C 0.51761 0.31261 0.96963 0.0
C243 C 0.50743 0.28344 0.01423 0.0
C244 C 0.46979 0.2033 0.12419 0.0
C245 C 0.44566 0.18002 0.15083 0.0
C246 C 0.45272 0.15547 0.21399 0.0
C247 C 0.48391 0.15387 0.25568 0.0
C248 C 0.50885 0.17598 0.22618 0.0
C249 C 0.50195 0.20027 0.16059 0.0
C250 C 0.44971 0.27144 0.16008 0.0
C251 C 0.44022 0.30401 0.13853 0.0
C252 C 0.4495 0.3303 0.19398 0.0
C253 C 0.46856 0.32379 0.27007 0.0
C254 C 0.47264 0.29105 0.29897 0.0
C255 C 0.46277 0.26492 0.24477 0.0
Eu256 Eu 0.98411 0.02208 0.64633 0.0
C257 C 0.10643 0.0687 0.85617 0.0
N258 N 0.10275 0.04833 0.78461 0.0
C259 C 0.14606 0.07809 0.70949 0.0
C260 C 0.12832 0.09617 0.85401 0.0
C261 C 0.12429 0.05102 0.7154 0.0
C262 C 0.14731 0.10138 0.77791 0.0
C263 C 0.09609 0.07916 1.01228 0.0
C264 C 0.09069 0.0603 0.93475 0.0
C265 C 0.11566 0.10802 1.00814 0.0
C266 C 0.13184 0.11647 0.92928 0.0
Eu267 Eu 0.06366 1.00432 0.80144 0.0
N268 N 0.07102 0.03287 0.93625 0.0
C269 C 0.0819 0.0682 0.0918 0.0
C270 C 0.05821 0.02129 0.01402 0.0
C271 C 0.0634 0.0388 0.09291 0.0
H272 H 0.12563 0.0319 0.66569 0.0
H273 H 0.05297 0.02973 0.15429 0.0
H274 H 0.92232 0.97555 0.7264 0.0
H275 H 0.03264 0.02341 0.30544 0.0
H276 H 0.04411 0.99842 0.0155 0.0
H277 H 0.08521 0.08207 0.15268 0.0
H278 H 0.02003 0.04734 0.45033 0.0
H279 H 0.16228 0.0806 0.65291 0.0
H280 H 0.11884 0.12367 0.06595 0.0
H281 H 0.14795 0.1381 0.92816 0.0
H282 H 0.89211 0.9237 0.68773 0.0
H283 H 0.16446 0.12212 0.77365 0.0
H284 H 0.01202 0.96745 0.26622 0.0
N285 N 0.95329 0.97373 0.613 0.0
C286 C 0.95978 0.95887 0.53418 0.0
C287 C 0.91124 0.9332 0.64435 0.0
C288 C 0.94335 0.92921 0.50976 0.0
C289 C 0.9283 0.96243 0.66606 0.0
C290 C 0.91918 0.91621 0.56659 0.0
N291 N 0.9961 1.00363 0.4997 0.0
C292 C 0.01226 0.02215 0.43705 0.0
C293 C 0.98789 0.95974 0.39245 0.0
C294 C 0.98197 0.97403 0.4764 0.0
C295 C 1.00731 0.97731 0.33165 0.0
C296 C 0.01894 1.00893 0.35344 0.0
H297 H 0.90606 0.89345 0.55016 0.0
H298 H 0.93934 0.8906 0.41018 0.0
H299 H 0.97858 0.91713 0.3079 0.0
O300 O 0.94607 0.03591 0.55043 0.0
O301 O 0.99371 0.97044 0.70323 0.0
O302 O 0.04944 0.96476 0.69824 0.0
O303 O 0.94423 0.05647 0.68139 0.0
O304 O 0.03417 0.04365 0.602 0.0
O305 O 0.07167 1.00553 0.65275 0.0
O306 O 0.07392 0.9609 0.88453 0.0
O307 O 0.03336 0.05096 0.83295 0.0
O308 O 0.01204 0.06822 0.69984 0.0
O309 O 0.11412 0.9868 0.81922 0.0
O310 O 0.0146 0.99238 0.87112 0.0
O311 O 0.97008 0.01439 0.79053 0.0
C312 C 0.01963 0.95236 0.68442 0.0
C313 C 0.93211 0.09161 0.56118 0.0
C314 C 0.95988 0.13405 0.47393 0.0
C315 C 0.93515 0.1568 0.49722 0.0
C316 C 0.90759 0.11441 0.58476 0.0
C317 C 0.90903 0.14692 0.55215 0.0
C318 C 0.95777 0.10144 0.50428 0.0
C319 C 0.06284 0.02822 0.59505 0.0
C320 C 0.93303 0.05837 0.60051 0.0
C321 C 0.9511 0.91382 0.42908 0.0
C322 C 0.97343 0.92897 0.37076 0.0
C323 C 0.01962 0.07437 0.78396 0.0
C324 C 0.12494 0.96584 0.96243 0.0
C325 C 0.13687 0.94079 0.10563 0.0
C326 C 0.15838 0.96713 0.12666 0.0
C327 C 0.14642 0.99239 0.98403 0.0
C328 C 0.12075 0.94002 0.02306 0.0
C329 C 0.16314 0.99284 0.0656 0.0
C330 C 0.98329 1.00213 0.86408 0.0
C331 C 0.10601 0.96485 0.87857 0.0
H332 H 0.93623 0.18216 0.47335 0.0
H333 H 0.88777 0.10724 0.62915 0.0
H334 H 0.89015 0.16459 0.57044 0.0
H335 H 0.97698 0.08414 0.48603 0.0
H336 H 0.171 0.96798 0.19028 0.0
H337 H 0.15021 0.01282 0.93843 0.0
H338 H 0.10423 0.91949 1.00692 0.0
H339 H 0.17961 0.01328 0.08157 0.0
Eu340 Eu 0.52471 0.07611 0.7631 0.0
C341 C 0.46712 0.92542 0.74237 0.0
N342 N 0.49693 0.9391 0.72155 0.0
C343 C 0.52494 0.89266 0.78684 0.0
C344 C 0.46518 0.8956 0.79126 0.0
C345 C 0.52558 0.92226 0.73832 0.0
C346 C 0.49467 0.87983 0.81592 0.0
C347 C 0.40738 0.92467 0.7223 0.0
C348 C 0.43858 0.93972 0.70812 0.0
C349 C 0.40517 0.89611 0.77553 0.0
C350 C 0.43402 0.88163 0.81007 0.0
Eu351 Eu 0.49563 0.99013 0.6438 0.0
N352 N 0.44148 0.9674 0.65719 0.0
C353 C 0.37943 0.93835 0.68092 0.0
C354 C 0.41459 0.97959 0.61217 0.0
C355 C 0.38314 0.96567 0.62466 0.0
H356 H 0.54897 0.9319 0.71493 0.0
H357 H 0.36177 0.9761 0.59123 0.0
H358 H 0.48982 0.08046 0.96259 0.0
H359 H 0.53854 0.17602 0.51865 0.0
H360 H 0.41727 1.00116 0.57014 0.0
H361 H 0.35502 0.92759 0.69043 0.0
H362 H 0.55289 0.12367 0.59408 0.0
H363 H 0.54775 0.87966 0.80127 0.0
H364 H 0.38137 0.88448 0.78823 0.0
H365 H 0.43205 0.85895 0.84844 0.0
H366 H 0.44939 0.11538 0.04254 0.0
H367 H 0.49423 0.85701 0.85392 0.0
H368 H 0.49389 0.2114 0.57793 0.0
N369 N 0.48901 0.11035 0.84639 0.0
C370 C 0.47869 0.13897 0.80826 0.0
C371 C 0.45742 0.12233 0.97668 0.0
C372 C 0.45626 0.16004 0.85185 0.0
C373 C 0.48022 0.10264 0.93144 0.0
C374 C 0.44495 0.15089 0.936 0.0
N375 N 0.51477 0.12763 0.69039 0.0
C376 C 0.53266 0.13829 0.619 0.0
C377 C 0.48333 0.17841 0.68784 0.0
C378 C 0.4918 0.1478 0.72724 0.0
C379 C 0.4997 0.18811 0.61039 0.0
C380 C 0.52492 0.16822 0.57677 0.0
H381 H 0.42705 0.16599 0.97043 0.0
H382 H 0.42875 0.206 0.84269 0.0
H383 H 0.45277 0.22234 0.69919 0.0
O384 O 0.55922 0.06662 0.87074 0.0
O385 O 0.52469 0.0699 0.61286 0.0
O386 O 0.47832 0.03954 0.58361 0.0
O387 O 0.56026 0.11446 0.80507 0.0
O388 O 0.5653 0.05177 0.67942 0.0
O389 O 0.55181 0.99779 0.63579 0.0
O390 O 0.49167 0.94674 0.55694 0.0
O391 O 0.52931 0.98955 0.76633 0.0
O392 O 0.51229 0.03227 0.85293 0.0
O393 O 0.50827 0.9936 0.50382 0.0
O394 O 0.4534 0.0155 0.71694 0.0
O395 O 0.47015 0.064 0.78822 0.0
C396 C 0.49839 0.0643 0.56361 0.0
C397 C 0.61135 0.09201 0.85266 0.0
C398 C 0.65994 0.05676 0.85207 0.0
C399 C 0.67991 0.0846 0.87144 0.0
C400 C 0.63139 0.11962 0.87227 0.0
C401 C 0.66573 0.11601 0.87933 0.0
C402 C 0.62612 0.06117 0.83567 0.0
C403 C 0.57298 0.02292 0.64278 0.0
C404 C 0.57519 0.09454 0.8601 0.0
C405 C 0.44627 0.18967 0.81072 0.0
C406 C 0.45985 0.1989 0.72888 0.0
C407 C 0.52073 1.00099 0.84466 0.0
C408 C 0.47227 0.96114 0.41601 0.0
C409 C 0.42322 0.98393 0.34411 0.0
C410 C 0.42044 0.95502 0.29235 0.0
C411 C 0.46864 0.93192 0.36633 0.0
C412 C 0.44931 0.98683 0.40513 0.0
C413 C 0.44274 0.92896 0.30464 0.0
C414 C 0.44759 0.04133 0.76806 0.0
C415 C 0.49773 0.96373 0.48554 0.0
H416 H 0.70627 0.08182 0.8835 0.0
H417 H 0.62042 0.14367 0.88459 0.0
H418 H 0.68117 0.13727 0.89531 0.0
H419 H 0.61097 0.03968 0.81938 0.0
H420 H 0.40041 0.95224 0.24465 0.0
H421 H 0.48564 0.91144 0.37555 0.0
H422 H 0.45125 1.00903 0.44536 0.0
H423 H 0.43973 0.90638 0.26667 0.0
Eu424 Eu 0.54736 0.51311 0.60925 0.0
C425 C 0.41665 0.47021 0.78889 0.0
N426 N 0.42384 0.49313 0.7255 0.0
C427 C 0.38002 0.47095 0.63378 0.0
C428 C 0.39224 0.44545 0.77475 0.0
C429 C 0.4036 0.49559 0.65269 0.0
C430 C 0.375 0.44514 0.694 0.0
C431 C 0.42049 0.4541 0.94351 0.0
C432 C 0.43066 0.47419 0.87195 0.0
C433 C 0.39809 0.42788 0.9283 0.0
C434 C 0.38415 0.42341 0.84374 0.0
Eu435 Eu 0.4677 0.53147 0.76015 0.0
N436 N 0.45215 0.49971 0.88453 0.0
C437 C 0.43195 0.46197 0.02881 0.0
C438 C 0.46284 0.50807 0.96766 0.0
C439 C 0.45282 0.4894 0.04123 0.0
H440 H 0.40478 0.51689 0.60971 0.0
H441 H 0.46145 0.49593 0.10715 0.0
H442 H 0.60702 0.56178 0.69717 0.0
H443 H 0.50346 0.50927 0.26291 0.0
H444 H 0.47928 0.52908 0.97706 0.0
H445 H 0.42433 0.44736 0.0854 0.0
H446 H 0.51388 0.4867 0.41161 0.0
H447 H 0.36505 0.47247 0.57406 0.0
H448 H 0.3904 0.4118 0.98216 0.0
H449 H 0.36578 0.404 0.83372 0.0
H450 H 0.63623 0.61422 0.6611 0.0
H451 H 0.35613 0.42654 0.68036 0.0
H452 H 0.52498 0.56483 0.22264 0.0
N453 N 0.5781 0.56185 0.57865 0.0
C454 C 0.57286 0.57595 0.49783 0.0
C455 C 0.61831 0.60385 0.61495 0.0
C456 C 0.58916 0.60576 0.47435 0.0
C457 C 0.60177 0.57423 0.63518 0.0
C458 C 0.61157 0.61998 0.53484 0.0
N459 N 0.5374 0.53067 0.46059 0.0
C460 C 0.52195 0.51168 0.39725 0.0
C461 C 0.54754 0.57341 0.35144 0.0
C462 C 0.55196 0.56002 0.43736 0.0
C463 C 0.52891 0.55539 0.28921 0.0
C464 C 0.51663 0.52409 0.31175 0.0
H465 H 0.62441 0.64295 0.51937 0.0
H466 H 0.59503 0.64321 0.37232 0.0
H467 H 0.55866 0.6149 0.26472 0.0
O468 O 0.58311 0.49667 0.51102 0.0
O469 O 0.53626 0.56564 0.66061 0.0
O470 O 0.48048 0.56968 0.65232 0.0
O471 O 0.58885 0.48084 0.64601 0.0
O472 O 0.49731 0.49194 0.56271 0.0
O473 O 0.46192 0.53179 0.60993 0.0
O474 O 0.46641 0.57365 0.84853 0.0
O475 O 0.49658 0.48478 0.79751 0.0
O476 O 0.52119 0.46674 0.66928 0.0
O477 O 0.42047 0.55576 0.78984 0.0
O478 O 0.51759 0.53812 0.83528 0.0
O479 O 0.56313 0.52085 0.75182 0.0
C480 C 0.50988 0.58279 0.63831 0.0
C481 C 0.5968 0.44143 0.53362 0.0
C482 C 0.5662 0.39638 0.46299 0.0
C483 C 0.5931 0.37513 0.4787 0.0
C484 C 0.62351 0.42012 0.54953 0.0
C485 C 0.62157 0.38697 0.52215 0.0
C486 C 0.56817 0.42937 0.49067 0.0
C487 C 0.46929 0.50835 0.55329 0.0
C488 C 0.59752 0.47592 0.5642 0.0
C489 C 0.58313 0.62007 0.39092 0.0
C490 C 0.56242 0.60393 0.32962 0.0
C491 C 0.51214 0.46148 0.75288 0.0
C492 C 0.42616 0.61367 0.81356 0.0
C493 C 0.44659 0.67024 0.80868 0.0
C494 C 0.41446 0.68179 0.82654 0.0
C495 C 0.39413 0.62519 0.83126 0.0
C496 C 0.45126 0.63649 0.79198 0.0
C497 C 0.3881 0.65931 0.83441 0.0
C498 C 0.54964 0.53109 0.82638 0.0
C499 C 0.43495 0.57926 0.83512 0.0
H500 H 0.59214 0.34956 0.45652 0.0
H501 H 0.64561 0.42903 0.58332 0.0
H502 H 0.64221 0.37048 0.53422 0.0
H503 H 0.54728 0.44556 0.47867 0.0
H504 H 0.41011 0.7079 0.83894 0.0
H505 H 0.37431 0.60793 0.84696 0.0
H506 H 0.47605 0.62785 0.77756 0.0
H507 H 0.36351 0.66823 0.84967 0.0
Eu508 Eu 0.02441 0.556 0.62943 0.0
C509 C 0.03672 0.41784 0.84252 0.0
N510 N 0.01737 0.42548 0.77122 0.0
C511 C 0.02794 0.37183 0.7082 0.0
C512 C 0.05358 0.38725 0.84749 0.0
C513 C 0.01145 0.40227 0.70675 0.0
C514 C 0.04954 0.36449 0.77813 0.0
C515 C 0.05636 0.43182 0.99045 0.0
C516 C 0.03803 0.43976 0.91337 0.0
C517 C 0.07476 0.40236 0.99338 0.0
C518 C 0.07318 0.37998 0.92235 0.0
Eu519 Eu 0.9924 0.47884 0.7731 0.0
N520 N 0.01983 0.46798 0.90899 0.0
C521 C 0.05468 0.45316 0.06352 0.0
C522 C 0.01601 0.48742 0.98235 0.0
C523 C 0.0339 0.48075 0.06004 0.0
H524 H 0.99364 0.40692 0.6545 0.0
H525 H 0.03148 0.49675 0.11728 0.0
H526 H 0.98085 0.61565 0.72721 0.0
H527 H 0.03213 0.52789 0.27308 0.0
H528 H 0.99941 0.50829 0.98099 0.0
H529 H 0.06829 0.44789 0.12395 0.0
H530 H 0.05186 0.52902 0.42756 0.0
H531 H 0.02363 0.35386 0.65594 0.0
H532 H 0.08952 0.39621 0.05135 0.0
H533 H 0.08662 0.35681 0.92684 0.0
H534 H 0.93226 0.65122 0.69448 0.0
H535 H 0.06205 0.34075 0.77949 0.0
H536 H 0.98038 0.55671 0.23115 0.0
N537 N 0.97981 0.59224 0.60127 0.0
C538 C 0.96722 0.59232 0.51744 0.0
C539 C 0.9416 0.63449 0.64443 0.0
C540 C 0.93988 0.61241 0.49519 0.0
C541 C 0.96884 0.61427 0.66311 0.0
C542 C 0.92666 0.63312 0.56055 0.0
N543 N 0.00986 0.55532 0.47604 0.0
C544 C 0.02838 0.54041 0.41167 0.0
C545 C 0.97089 0.57395 0.36466 0.0
C546 C 0.98254 0.57318 0.45319 0.0
C547 C 0.98846 0.55662 0.29987 0.0
C548 C 0.01763 0.54025 0.3233 0.0
H549 H 0.90564 0.64891 0.54609 0.0
H550 H 0.90602 0.62689 0.39003 0.0
H551 H 0.93318 0.59321 0.27572 0.0
O552 O 0.05476 0.58789 0.54506 0.0
O553 O 0.96946 0.54637 0.65743 0.0
O554 O 0.96674 0.49083 0.64254 0.0
O555 O 0.05365 0.5969 0.68555 0.0
O556 O 0.03896 0.50599 0.56801 0.0
O557 O 1.00688 0.46443 0.63165 0.0
O558 O 0.94173 0.48726 0.81803 0.0
O559 O 0.04308 0.50052 0.81038 0.0
O560 O 0.06424 0.51993 0.67837 0.0
O561 O 0.96197 0.43775 0.82105 0.0
O562 O 0.98269 0.5303 0.83493 0.0
O563 O 0.02189 0.56669 0.77785 0.0
C564 C 0.95398 0.52001 0.62685 0.0
C565 C 0.10518 0.60193 0.61563 0.0
C566 C 0.15687 0.57479 0.5773 0.0
C567 C 0.17445 0.59755 0.63027 0.0
C568 C 0.12291 0.62467 0.66838 0.0
C569 C 0.15743 0.62235 0.67587 0.0
C570 C 0.12234 0.57678 0.57099 0.0
C571 C 0.0265 0.47547 0.56805 0.0
C572 C 0.06877 0.6031 0.61153 0.0
C573 C 0.92722 0.61188 0.40819 0.0
C574 C 0.9427 0.5927 0.3431 0.0
C575 C 0.06838 0.50877 0.75998 0.0
C576 C 0.90576 0.44294 0.78326 0.0
C577 C 0.84788 0.42628 0.78996 0.0
C578 C 0.84847 0.41785 0.6997 0.0
C579 C 0.90626 0.43457 0.69276 0.0
C580 C 0.87655 0.43883 0.83132 0.0
C581 C 0.87764 0.42218 0.65122 0.0
C582 C 1.00089 0.55771 0.8401 0.0
C583 C 0.93549 0.45575 0.82851 0.0
H584 H 0.20121 0.59624 0.63557 0.0
H585 H 0.11004 0.64392 0.70442 0.0
H586 H 0.171 0.63986 0.71688 0.0
H587 H 0.10902 0.55875 0.53071 0.0
H588 H 0.82644 0.40813 0.66717 0.0
H589 H 0.92873 0.43738 0.65456 0.0
H590 H 0.87607 0.44532 0.90117 0.0
H591 H 0.87813 0.4158 0.58149 0.0
C592 C 0.11971 0.07989 0.4415 0.0
C593 C 0.12812 0.05615 0.375 0.0
C594 C 0.10057 0.01345 0.46411 0.0
C595 C 0.08671 0.03773 0.52167 0.0
N596 N 0.08737 0.09511 0.56894 0.0
N597 N 0.11635 1.00209 0.31326 0.0
C598 C 0.09679 0.07138 0.50972 0.0
C599 C 0.11515 0.02358 0.38308 0.0
N600 N 0.13416 0.1105 0.44489 0.0
N601 N 0.10324 0.98107 0.48901 0.0
H602 H 0.12496 1.00922 0.25093 0.0
H603 H 0.10513 0.9787 0.31521 0.0
H604 H 0.0988 0.97289 0.55315 0.0
H605 H 0.11516 0.96344 0.45001 0.0
H606 H 0.1529 0.11857 0.40255 0.0
H607 H 0.1529 0.11857 0.40255 0.0
H608 H 0.09582 0.11957 0.56513 0.0
H609 H 0.07247 0.09022 0.6237 0.0
C610 C 0.47019 0.13594 0.41325 0.0
C611 C 0.48888 0.13092 0.33462 0.0
C612 C 0.51447 0.08182 0.40582 0.0
C613 C 0.49322 0.08506 0.48064 0.0
N614 N 0.44526 0.11097 0.54346 0.0
N615 N 0.52471 0.09523 0.2508 0.0
C616 C 0.46936 0.11083 0.48042 0.0
C617 C 0.51 0.10281 0.32959 0.0
N618 N 0.45366 0.16513 0.42493 0.0
N619 N 0.53915 0.05878 0.40736 0.0
H620 H 0.52198 0.10982 0.19405 0.0
H621 H 0.53725 0.07311 0.23954 0.0
H622 H 0.54251 0.04234 0.4599 0.0
H623 H 0.55777 0.05765 0.35991 0.0
H624 H 0.44212 0.17151 0.48412 0.0
H625 H 0.45433 0.18441 0.37873 0.0
H626 H 0.42541 0.1274 0.54297 0.0
H627 H 0.44314 0.09202 0.59005 0.0
C628 C 0.4171 0.52069 0.33852 0.0
C629 C 0.41082 0.48765 0.31094 0.0
C630 C 0.44482 0.46878 0.4378 0.0
C631 C 0.4468 0.5015 0.47313 0.0
N632 N 0.42344 0.55743 0.46203 0.0
N633 N 0.4429 0.43749 0.3023 0.0
C634 C 0.42984 0.52722 0.42521 0.0
C635 C 0.43122 0.4632 0.35148 0.0
N636 N 0.4158 0.54574 0.27774 0.0
N637 N 0.45371 0.44224 0.48855 0.0
H638 H 0.43956 0.43665 0.23367 0.0
H639 H 0.46036 0.42077 0.3268 0.0
H640 H 0.46096 0.44435 0.55486 0.0
H641 H 0.44907 0.418 0.46776 0.0
H642 H 0.42336 0.56996 0.29232 0.0
H643 H 0.41188 0.54092 0.21036 0.0
H644 H 0.40881 0.57505 0.42972 0.0
H645 H 0.42893 0.56403 0.52692 0.0
C646 C 0.02077 0.40333 0.39747 0.0
C647 C 0.04951 0.40837 0.34502 0.0
C648 C 0.06593 0.45348 0.44805 0.0
C649 C 0.0345 0.45214 0.4912 0.0
N650 N 0.97843 0.4293 0.48441 0.0
N651 N 0.09612 0.44413 0.3118 0.0
C652 C 0.01088 0.42812 0.45946 0.0
C653 C 0.07098 0.43535 0.36752 0.0
N654 N 1.0035 0.3741 0.39216 0.0
N655 N 0.09194 0.4701 0.4863 0.0
H656 H 0.10039 0.43202 0.25187 0.0
H657 H 0.11044 0.46551 0.32101 0.0
H658 H 0.0909 0.48049 0.54946 0.0
H659 H 0.11586 0.4696 0.46053 0.0
H660 H 0.98437 0.36808 0.43566 0.0
H661 H 0.0107 0.35436 0.3521 0.0
H662 H 0.96016 0.41427 0.45569 0.0
H663 H 0.96876 0.44746 0.52521 0.0
C664 C 0.913 0.02226 0.02562 0.0
C665 C 0.91628 0.99746 0.09114 0.0
C666 C 0.96222 0.97328 1.00594 0.0
C667 C 0.96111 1.00044 0.94465 0.0
N668 N 0.94066 0.05624 0.91697 0.0
N669 N 0.94844 0.95303 0.15338 0.0
C670 C 0.93791 0.02649 0.96013 0.0
C671 C 0.94227 0.97406 0.08427 0.0
N672 N 0.88489 0.04089 0.02568 0.0
N673 N 0.98073 0.94583 0.98792 0.0
H674 H 0.93457 0.95337 0.21159 0.0
H675 H 0.96915 0.93772 0.15627 0.0
H676 H 0.99473 0.94312 0.93081 0.0
H677 H 0.97955 0.92414 0.02548 0.0
H678 H 0.87855 0.0578 0.97604 0.0
H679 H 0.87855 0.0578 0.97604 0.0
H680 H 0.9268 0.07702 0.93394 0.0
H681 H 0.9595 0.0619 0.87265 0.0
C682 C 0.50602 0.95845 0.07282 0.0
C683 C 0.52661 0.93007 0.06514 0.0
C684 C 0.55109 0.95637 0.93314 0.0
C685 C 0.52442 0.97928 0.92692 0.0
N686 N 0.47481 1.00091 0.99695 0.0
N687 N 0.56801 0.90138 0.97889 0.0
C688 C 0.50153 0.98025 0.99888 0.0
C689 C 0.54917 0.92889 0.99302 0.0
N690 N 0.49174 0.96531 0.15243 0.0
N691 N 0.57927 0.96205 0.88607 0.0
H692 H 0.56618 0.87995 0.01726 0.0
H693 H 0.58324 0.89883 0.92372 0.0
H694 H 0.58293 0.98434 0.85219 0.0
H695 H 0.60039 0.9474 0.89197 0.0
H696 H 0.47869 0.98707 0.16498 0.0
H697 H 0.49698 0.95122 0.20872 0.0
H698 H 0.45572 0.99942 0.04313 0.0
H699 H 0.46991 0.01761 0.94615 0.0
C700 C 0.61947 0.508 0.99048 0.0
C701 C 0.61974 0.53536 0.04994 0.0
C702 C 0.5742 0.56085 0.9631 0.0
C703 C 0.57242 0.53239 0.90687 0.0
N704 N 0.58884 0.47535 0.88317 0.0
N705 N 0.59388 0.58538 0.10156 0.0
C706 C 0.59392 0.50508 0.92493 0.0
C707 C 0.59594 0.56097 0.03897 0.0
N708 N 0.64381 0.48455 0.99612 0.0
N709 N 0.55653 0.58858 0.94179 0.0
H710 H 0.61015 0.58702 0.1555 0.0
H711 H 0.57468 0.60254 0.10354 0.0
H712 H 0.54036 0.58976 0.88787 0.0
H713 H 0.56001 0.61135 0.97316 0.0
H714 H 0.64779 0.46676 0.94723 0.0
H715 H 0.66169 0.48416 0.04627 0.0
H716 H 0.60083 0.45351 0.90127 0.0
H717 H 0.57009 0.47131 0.8369 0.0
C718 C 0.02152 0.6001 0.06378 0.0
C719 C 0.99862 0.62675 0.06448 0.0
C720 C 0.97206 0.60275 0.93052 0.0
C721 C 0.9985 0.5797 0.92142 0.0
N722 N 0.05092 0.55947 0.9771 0.0
N723 N 0.95339 0.65511 0.9925 0.0
C724 C 0.02388 0.57922 0.98762 0.0
C725 C 0.97394 0.62831 0.99674 0.0
N726 N 0.04065 0.59423 0.13725 0.0
N727 N 0.94507 0.6003 0.87587 0.0
H728 H 0.95394 0.67416 0.03929 0.0
H729 H 0.93755 0.65971 0.9391 0.0
H730 H 0.94335 0.58256 0.8259 0.0
H731 H 0.92352 0.61402 0.88452 0.0
H732 H 0.05537 0.57322 0.14455 0.0
H733 H 0.03892 0.60844 0.19491 0.0
H734 H 0.07201 0.56103 0.0172 0.0
H735 H 0.05324 0.54307 0.92446 0.0
C736 C 1.0038 0.17029 0.27649 0.0
C737 C 0.03377 0.18088 0.31776 0.0
C738 C 0.01925 0.15184 0.45393 0.0
C739 C 0.98771 0.1444 0.41616 0.0
N740 N 0.95374 0.13666 0.28614 0.0
N741 N 0.07365 0.17738 0.43617 0.0
C742 C 0.98128 0.15035 0.32524 0.0
C743 C 0.04274 0.17001 0.40355 0.0
N744 N 0.99612 0.18111 0.19286 0.0
N745 N 0.02633 0.14196 0.53833 0.0
H746 H 0.09146 0.19 0.39896 0.0
H747 H 0.0825 0.17006 0.49794 0.0
H748 H 0.01303 0.12309 0.56897 0.0
H749 H 0.04556 0.15156 0.57691 0.0
H750 H 0.97316 0.17756 0.16238 0.0
H751 H 0.01251 0.19514 0.15477 0.0
H752 H 0.94884 0.13757 0.21833 0.0
H753 H 0.93708 0.1217 0.32097 0.0
C754 C 0.33889 0.02462 0.32937 0.0
C755 C 0.34769 0.05875 0.31998 0.0
C756 C 0.40627 0.04381 0.32337 0.0
C757 C 0.39747 1.01017 0.33966 0.0
N758 N 0.35538 0.97185 0.39088 0.0
N759 N 0.38944 0.10102 0.33839 0.0
C760 C 0.36376 1.0016 0.35336 0.0
C761 C 0.38133 0.0684 0.32726 0.0
N762 N 0.30764 0.01341 0.30996 0.0
N763 N 0.43775 0.05223 0.29881 0.0
H764 H 0.3716 0.11963 0.34293 0.0
H765 H 0.41346 0.10864 0.35349 0.0
H766 H 0.45651 0.03484 0.29006 0.0
H767 H 0.44405 0.07608 0.27775 0.0
H768 H 0.30165 0.9882 0.30752 0.0
H769 H 0.28854 0.02851 0.28749 0.0
H770 H 0.33113 0.96593 0.40895 0.0
H771 H 0.37299 0.95491 0.41351 0.0
C772 C 0.48239 0.35845 0.40173 0.0
C773 C 0.48896 0.34987 0.31262 0.0
C774 C 0.54099 0.38143 0.31729 0.0
C775 C 0.53727 0.38486 0.40993 0.0
N776 N 0.50284 0.38208 0.53943 0.0
N777 N 0.52557 0.35093 0.18574 0.0
C778 C 0.50729 0.37519 0.45187 0.0
C779 C 0.51818 0.36136 0.26961 0.0
N780 N 0.45219 0.35065 0.43731 0.0
N781 N 0.56629 0.39759 0.27502 0.0
H782 H 0.50995 0.33591 0.14795 0.0
H783 H 0.54842 0.35506 0.15574 0.0
H784 H 0.58353 0.41249 0.30852 0.0
H785 H 0.56824 0.399 0.20624 0.0
H786 H 0.44475 0.3571 0.50089 0.0
H787 H 0.43332 0.33931 0.4003 0.0
H788 H 0.48385 0.37243 0.57822 0.0
H789 H 0.5182 0.39862 0.57282 0.0
C790 C 0.18818 0.49131 0.49603 0.0
C791 C 0.20392 0.50111 0.41661 0.0
C792 C 0.18791 0.55897 0.44102 0.0
C793 C 0.17442 0.54963 0.52393 0.0
N794 N 0.16521 0.50835 0.63667 0.0
N795 N 0.22335 0.54445 0.31834 0.0
C796 C 0.17549 0.51613 0.55318 0.0
C797 C 0.20511 0.53502 0.39045 0.0
N798 N 0.18487 0.45832 0.51576 0.0
N799 N 0.18325 0.59043 0.40916 0.0
H800 H 0.23558 0.52769 0.2775 0.0
H801 H 0.2285 0.56911 0.30254 0.0
H802 H 0.17133 0.60898 0.445 0.0
H803 H 0.18888 0.59757 0.34456 0.0
H804 H 0.17051 0.44933 0.56777 0.0
H805 H 0.19456 0.43962 0.47582 0.0
H806 H 0.16839 0.48518 0.66602 0.0
H807 H 0.1559 0.52624 0.67926 0.0
C808 C 0.14358 0.85699 0.21287 0.0
C809 C 0.11016 0.85232 0.23967 0.0
C810 C 0.09691 0.90976 0.20076 0.0
C811 C 0.12966 0.91375 0.16913 0.0
N812 N 0.18558 0.89661 0.16087 0.0
N813 N 0.05703 0.87549 0.2784 0.0
C814 C 0.15364 0.88889 0.18185 0.0
C815 C 0.08753 0.87925 0.24026 0.0
N816 N 0.16467 0.83052 0.2115 0.0
N817 N 0.0744 0.93461 0.18827 0.0
H818 H 0.04873 0.85305 0.30494 0.0
H819 H 0.04088 0.89506 0.29002 0.0
H820 H 0.08116 0.95823 0.16599 0.0
H821 H 0.04895 0.93139 0.1956 0.0
H822 H 0.18822 0.83106 0.18385 0.0
H823 H 0.15794 0.80697 0.23411 0.0
H824 H 0.20583 0.88107 0.17095 0.0
H825 H 0.20583 0.88107 0.17095 0.0
C826 C 0.72556 0.99158 0.8442 0.0
C827 C 0.71757 0.97549 0.92436 0.0
C828 C 0.66363 1.00072 0.92767 0.0
C829 C 0.67424 0.02297 0.85953 0.0
N830 N 0.70872 0.03154 0.73152 0.0
N831 N 0.67316 0.94728 0.99749 0.0
C832 C 0.70284 0.01518 0.8091 0.0
C833 C 0.68408 0.97341 0.94816 0.0
N834 N 0.75642 0.98716 0.81012 0.0
N835 N 0.63675 1.0072 0.97949 0.0
H836 H 0.68875 0.92748 1.01296 0.0
H837 H 0.64826 0.9438 0.01357 0.0
H838 H 0.62185 0.02801 0.97278 0.0
H839 H 0.63075 0.99291 0.03484 0.0
H840 H 0.76576 1.0002 0.75604 0.0
H841 H 0.77275 0.97014 0.83895 0.0
H842 H 0.72873 0.02646 0.69062 0.0
H843 H 0.69185 0.04859 0.70532 0.0
C844 C 0.49724 0.74907 0.82306 0.0
C845 C 0.51826 0.74036 0.89437 0.0
C846 C 0.50043 0.6835 0.88867 0.0
C847 C 0.47579 0.69222 0.82422 0.0
N848 N 0.45892 0.73003 0.70837 0.0
N849 N 0.5539 0.69813 0.95159 0.0
C850 C 0.47728 0.72394 0.78287 0.0
C851 C 0.52551 0.70683 0.9084 0.0
N852 N 0.49443 0.78172 0.80087 0.0
N853 N 0.49779 0.65562 0.93999 0.0
H854 H 0.57181 0.71584 0.96883 0.0
H855 H 0.5608 0.67344 0.96077 0.0
H856 H 0.47742 0.63971 0.93937 0.0
H857 H 0.51398 0.65078 0.99256 0.0
H858 H 0.47702 0.79085 0.75589 0.0
H859 H 0.50969 0.79958 0.83082 0.0
H860 H 0.45963 0.75245 0.67406 0.0
H861 H 0.4449 0.71145 0.67734 0.0
C862 C 0.79586 0.39885 0.98172 0.0
C863 C 0.77501 0.42684 0.98919 0.0
C864 C 0.79417 0.4484 0.84652 0.0
C865 C 0.8176 0.42228 0.8439 0.0
N866 N 0.83508 0.36816 0.8917 0.0
N867 N 0.74685 0.47241 0.92428 0.0
C868 C 0.81629 0.39578 0.90573 0.0
C869 C 0.77149 0.44951 0.91839 0.0
N870 N 0.79687 0.37617 0.04912 0.0
N871 N 0.79542 0.47305 0.78415 0.0
H872 H 0.74074 0.48951 0.87503 0.0
H873 H 0.74074 0.48951 0.87503 0.0
H874 H 0.81124 0.47219 0.72972 0.0
H875 H 0.78191 0.49492 0.78709 0.0
H876 H 0.81392 0.35694 0.05328 0.0
H877 H 0.78067 0.37719 0.10281 0.0
H878 H 0.83411 0.34693 0.93094 0.0
H879 H 0.85001 0.36558 0.83581 0.0
C880 C 0.01723 0.17057 0.79962 0.0
C881 C 0.03022 0.1761 0.88615 0.0
C882 C 0.02423 0.11587 0.9154 0.0
C883 C 0.01731 0.10965 0.82382 0.0
N884 N 0.98418 0.13393 0.70837 0.0
N885 N 0.04699 0.1532 0.02701 0.0
C886 C 1.00755 0.13778 0.77291 0.0
C887 C 0.03367 0.1485 0.94437 0.0
N888 N 0.014 0.19659 0.74221 0.0
N889 N 0.01744 0.0919 0.97677 0.0
H890 H 0.05514 0.1763 0.04964 0.0
H891 H 0.05231 0.1339 0.0707 0.0
H892 H 1.00675 0.06915 0.9603 0.0
H893 H 0.01763 0.09633 0.04485 0.0
H894 H 1.008 0.1934 0.67535 0.0
H895 H 0.01945 0.22105 0.76014 0.0
H896 H 0.97308 0.15381 0.67559 0.0
H897 H 0.97257 0.11126 0.69743 0.0
C898 C 0.36328 0.0181 0.87316 0.0
C899 C 0.34933 0.04974 0.8906 0.0
C900 C 0.39729 0.07547 0.81613 0.0
C901 C 0.41348 0.04422 0.80955 0.0
N902 N 0.41398 0.98704 0.8596 0.0
N903 N 0.35935 0.10889 0.90096 0.0
C904 C 0.39703 0.0158 0.8456 0.0
C905 C 0.36815 0.07854 0.86851 0.0
N906 N 0.34425 0.99011 0.88068 0.0
N907 N 0.40865 0.10219 0.76969 0.0
H908 H 0.33966 0.11219 0.94451 0.0
H909 H 0.37403 0.13006 0.89293 0.0
H910 H 0.42908 0.10103 0.72832 0.0
H911 H 0.39568 0.12447 0.76543 0.0
H912 H 0.3525 0.96677 0.86096 0.0
H913 H 0.31922 0.99078 0.89761 0.0
H914 H 0.4039 0.96688 0.89371 0.0
H915 H 0.43919 0.98463 0.84683 0.0
C916 C 0.52196 0.36605 0.78362 0.0
C917 C 0.50521 0.36083 0.86517 0.0
C918 C 0.50515 0.42165 0.88707 0.0
C919 C 0.51531 0.427 0.79765 0.0
N920 N 0.55575 0.40426 0.69961 0.0
N921 N 0.47976 0.38473 0.99448 0.0
C922 C 0.52987 0.39915 0.75534 0.0
C923 C 0.49664 0.38897 0.91695 0.0
N924 N 0.53048 0.33946 0.73266 0.0
N925 N 0.50888 0.44653 0.94764 0.0
H926 H 0.47279 0.36147 0.01858 0.0
H927 H 0.47051 0.40444 0.03129 0.0
H928 H 0.52037 0.46902 0.93232 0.0
H929 H 0.50589 0.44289 0.01558 0.0
H930 H 0.53971 0.34197 0.66853 0.0
H931 H 0.52627 0.31497 0.75243 0.0
H932 H 0.57007 0.38511 0.67397 0.0
H933 H 0.56564 0.42781 0.6904 0.0
C934 C 0.14486 0.46658 0.86009 0.0
C935 C 0.16579 0.49394 0.88345 0.0
C936 C 0.12197 0.53168 0.82888 0.0
C937 C 0.10289 0.50423 0.79732 0.0
N938 N 0.10197 0.44617 0.76041 0.0
N939 N 0.1768 0.55259 0.86662 0.0
C940 C 0.11613 0.47186 0.80613 0.0
C941 C 0.15498 0.52658 0.86162 0.0
N942 N 0.15115 0.43567 0.89326 0.0
N943 N 0.10877 0.56274 0.82771 0.0
H944 H 0.20162 0.54966 0.88467 0.0
H945 H 0.17133 0.57628 0.84313 0.0
H946 H 0.08521 0.56744 0.80272 0.0
H947 H 0.12005 0.58313 0.85821 0.0
H948 H 0.13528 0.41552 0.88316 0.0
H949 H 0.17003 0.43097 0.93902 0.0
H950 H 0.11253 0.42263 0.75745 0.0
H951 H 0.08167 0.44942 0.71805 0.0
C952 C 0.98567 0.86396 0.63148 0.0
C953 C 1.00688 0.85411 0.56132 0.0
C954 C 0.03296 0.90933 0.56585 0.0
C955 C 0.01503 0.91815 0.64311 0.0
N956 N 0.97717 0.90043 0.75757 0.0
N957 N 0.05744 0.86494 0.48162 0.0
C958 C 0.99213 0.89444 0.67828 0.0
C959 C 0.03257 0.87603 0.53472 0.0
N960 N 0.9588 0.84473 0.65191 0.0
N961 N 0.04813 0.93326 0.51683 0.0
H962 H 0.05889 0.84037 0.46023 0.0
H963 H 0.07828 0.87935 0.46691 0.0
H964 H 0.04563 0.95832 0.53183 0.0
H965 H 0.05861 0.92852 0.45504 0.0
H966 H 0.94034 0.85227 0.69543 0.0
H967 H 0.95351 0.82244 0.61938 0.0
H968 H 0.96287 0.88283 0.79083 0.0
H969 H 0.98136 0.92202 0.79388 0.0
C970 C 0.65006 0.03573 0.49368 0.0
C971 C 0.67103 1.00954 0.52159 0.0
C972 C 0.62789 0.99116 0.62656 0.0
C973 C 0.60749 0.0189 0.60333 0.0
N974 N 0.60362 0.07124 0.52356 0.0
N975 N 0.68262 0.96582 0.62534 0.0
C976 C 0.62005 0.04235 0.54021 0.0
C977 C 0.66065 0.98824 0.59105 0.0
N978 N 0.6579 0.05346 0.41912 0.0
N979 N 0.61607 0.96722 0.68222 0.0
H980 H 0.70654 0.96295 0.60055 0.0
H981 H 0.6784 0.95233 0.68317 0.0
H982 H 0.59345 0.969 0.71389 0.0
H983 H 0.62771 0.94453 0.69276 0.0
H984 H 0.64155 0.06977 0.38807 0.0
H985 H 0.67955 0.04973 0.38305 0.0
H986 H 0.61419 0.09116 0.48963 0.0
H987 H 0.58021 0.07645 0.54714 0.0
C988 C 0.49776 0.65523 0.47184 0.0
C989 C 0.51948 0.68013 0.50572 0.0
C990 C 0.53222 0.64288 0.63268 0.0
C991 C 0.51325 0.61666 0.59334 0.0
N992 N 0.48467 0.59679 0.46286 0.0
N993 N 0.56064 0.696 0.61408 0.0
C994 C 0.49767 0.62269 0.50982 0.0
C995 C 0.53756 0.67348 0.58519 0.0
N996 N 0.47637 0.66278 0.40416 0.0
N997 N 0.54425 0.63908 0.71689 0.0
H998 H 0.56485 0.71856 0.58187 0.0
H999 H 0.57733 0.69129 0.66549 0.0
H1000 H 0.54071 0.61742 0.75338 0.0
H1001 H 0.55512 0.65825 0.75335 0.0
H1002 H 0.45743 0.64684 0.38331 0.0
H1003 H 0.47532 0.68621 0.37476 0.0
H1004 H 0.47645 0.59882 0.39741 0.0
H1005 H 0.48602 0.57243 0.48524 0.0
C1006 C 0.86235 0.54133 0.57883 0.0
C1007 C 0.85689 0.5251 0.49633 0.0
C1008 C 0.91624 0.51028 0.49329 0.0
C1009 C 0.92069 0.52276 0.5809 0.0
N1010 N 0.89583 0.5454 0.71253 0.0
N1011 N 0.87801 0.48978 0.38074 0.0
C1012 C 0.8932 0.53726 0.62487 0.0
C1013 C 0.88373 0.50852 0.45491 0.0
N1014 N 0.83814 0.56114 0.61276 0.0
N1015 N 0.94324 0.50112 0.4451 0.0
H1016 H 0.8548 0.48784 0.35027 0.0
H1017 H 0.89563 0.47398 0.3537 0.0
H1018 H 0.96732 0.50229 0.47035 0.0
H1019 H 0.94215 0.49539 0.37776 0.0
H1020 H 0.84178 0.57645 0.66769 0.0
H1021 H 0.81539 0.56468 0.58088 0.0
H1022 H 0.87578 0.55274 0.75095 0.0
H1023 H 0.91738 0.54154 0.74924 0.0
loop_
_geom_bond_atom_site_label_1
_geom_bond_atom_site_label_2
_geom_bond_distance
_geom_bond_site_symmetry_2
_ccdc_geom_bond_type
P0 O11 1.490 . S
P0 C14 1.812 . S
P0 C20 1.803 . S
P0 C26 1.819 . S
H1 C15 0.941 . S
H2 C16 0.939 . S
H3 C18 0.940 . S
H4 C19 0.940 . S
H5 C21 0.939 . S
H6 C22 0.942 . S
H7 C24 0.940 . S
H8 C25 0.939 . S
H9 C27 0.941 . S
H10 C31 0.939 . S
O11 P0 1.490 . S
H12 C28 0.939 . S
H13 C30 0.940 . S
C14 P0 1.812 . S
C14 C15 1.389 . S
C14 C19 1.391 . S
C15 H1 0.941 . S
C15 C14 1.389 . S
C15 C16 1.397 . S
C16 H2 0.939 . S
C16 C15 1.397 . S
C16 C17 1.378 . S
C17 C16 1.378 . S
C17 C18 1.378 . S
C18 H3 0.940 . S
C18 C17 1.378 . S
C18 C19 1.396 . S
C19 H4 0.940 . S
C19 C14 1.391 . S
C19 C18 1.396 . S
C20 P0 1.803 . S
C20 C21 1.378 . S
C20 C25 1.400 . S
C21 H5 0.939 . S
C21 C20 1.378 . S
C21 C22 1.361 . S
C22 H6 0.942 . S
C22 C21 1.361 . S
C22 C23 1.369 . S
C23 C22 1.369 . S
C23 C24 1.404 . S
C24 H7 0.940 . S
C24 C23 1.404 . S
C24 C25 1.389 . S
C25 H8 0.939 . S
C25 C20 1.400 . S
C25 C24 1.389 . S
C26 P0 1.819 . S
C26 C27 1.391 . S
C26 C31 1.391 . S
C27 H9 0.941 . S
C27 C26 1.391 . S
C27 C28 1.396 . S
C28 H12 0.939 . S
C28 C27 1.396 . S
C28 C29 1.397 . S
C29 C28 1.397 . S
C29 C30 1.385 . S
C30 H13 0.940 . S
C30 C29 1.385 . S
C30 C31 1.388 . S
C31 H10 0.939 . S
C31 C26 1.391 . S
C31 C30 1.388 . S
P32 O43 1.490 . S
P32 C46 1.812 . S
P32 C52 1.803 . S
P32 C58 1.819 . S
H33 C47 0.941 . S
H34 C48 0.939 . S
H35 C50 0.940 . S
H36 C51 0.940 . S
H37 C53 0.939 . S
H38 C54 0.942 . S
H39 C56 0.940 . S
H40 C57 0.939 . S
H41 C59 0.941 . S
H42 C63 0.939 . S
O43 P32 1.490 . S
H44 C60 0.939 . S
H45 C62 0.940 . S
C46 P32 1.812 . S
C46 C47 1.389 . S
C46 C51 1.391 1_455 S
C47 H33 0.941 . S
C47 C46 1.389 . S
C47 C48 1.397 . S
C48 H34 0.939 . S
C48 C47 1.397 . S
C48 C49 1.378 1_455 S
C49 C48 1.378 1_655 S
C49 C50 1.378 . S
C50 H35 0.940 . S
C50 C49 1.378 . S
C50 C51 1.396 . S
C51 H36 0.940 . S
C51 C46 1.391 1_655 S
C51 C50 1.396 . S
C52 P32 1.803 . S
C52 C53 1.378 . S
C52 C57 1.400 1_455 S
C53 H37 0.939 . S
C53 C52 1.378 . S
C53 C54 1.361 . S
C54 H38 0.942 . S
C54 C53 1.361 . S
C54 C55 1.369 1_455 S
C55 C54 1.369 1_655 S
C55 C56 1.404 . S
C56 H39 0.940 . S
C56 C55 1.404 . S
C56 C57 1.389 . S
C57 H40 0.939 . S
C57 C52 1.400 1_655 S
C57 C56 1.389 . S
C58 P32 1.819 . S
C58 C59 1.391 . S
C58 C63 1.391 1_455 S
C59 H41 0.941 . S
C59 C58 1.391 . S
C59 C60 1.396 . S
C60 H44 0.939 . S
C60 C59 1.396 . S
C60 C61 1.397 1_455 S
C61 C60 1.397 1_655 S
C61 C62 1.385 . S
C62 H45 0.940 . S
C62 C61 1.385 . S
C62 C63 1.388 . S
C63 H42 0.939 . S
C63 C58 1.391 1_655 S
C63 C62 1.388 . S
P64 O75 1.490 . S
P64 C78 1.812 . S
P64 C84 1.803 . S
P64 C90 1.819 . S
H65 C79 0.941 . S
H66 C80 0.939 . S
H67 C82 0.940 . S
H68 C83 0.940 . S
H69 C85 0.939 . S
H70 C86 0.942 . S
H71 C88 0.940 . S
H72 C89 0.939 . S
H73 C91 0.941 . S
H74 C95 0.939 . S
O75 P64 1.490 . S
H76 C92 0.939 . S
H77 C94 0.940 . S
C78 P64 1.812 . S
C78 C79 1.389 . S
C78 C83 1.391 1_545 S
C79 H65 0.941 . S
C79 C78 1.389 . S
C79 C80 1.397 . S
C80 H66 0.939 . S
C80 C79 1.397 . S
C80 C81 1.378 1_545 S
C81 C80 1.378 1_565 S
C81 C82 1.378 . S
C82 H67 0.940 . S
C82 C81 1.378 . S
C82 C83 1.396 . S
C83 H68 0.940 . S
C83 C78 1.391 1_565 S
C83 C82 1.396 . S
C84 P64 1.803 . S
C84 C85 1.378 . S
C84 C89 1.400 1_545 S
C85 H69 0.939 . S
C85 C84 1.378 . S
C85 C86 1.361 . S
C86 H70 0.942 . S
C86 C85 1.361 . S
C86 C87 1.369 1_545 S
C87 C86 1.369 1_565 S
C87 C88 1.404 . S
C88 H71 0.940 . S
C88 C87 1.404 . S
C88 C89 1.389 . S
C89 H72 0.939 . S
C89 C84 1.400 1_565 S
C89 C88 1.389 . S
C90 P64 1.819 . S
C90 C91 1.391 . S
C90 C95 1.391 1_545 S
C91 H73 0.941 . S
C91 C90 1.391 . S
C91 C92 1.396 . S
C92 H76 0.939 . S
C92 C91 1.396 . S
C92 C93 1.397 1_545 S
C93 C92 1.397 1_565 S
C93 C94 1.385 . S
C94 H77 0.940 . S
C94 C93 1.385 . S
C94 C95 1.388 . S
C95 H74 0.939 . S
C95 C90 1.391 1_565 S
C95 C94 1.388 . S
P96 O107 1.490 . S
P96 C110 1.812 . S
P96 C116 1.803 . S
P96 C122 1.819 . S
H97 C111 0.941 . S
H98 C112 0.939 . S
H99 C114 0.940 . S
H100 C115 0.940 . S
H101 C117 0.939 . S
H102 C118 0.942 . S
H103 C120 0.940 . S
H104 C121 0.939 . S
H105 C123 0.941 . S
H106 C127 0.939 . S
O107 P96 1.490 . S
H108 C124 0.939 . S
H109 C126 0.940 . S
C110 P96 1.812 . S
C110 C111 1.389 . S
C110 C115 1.391 . S
C111 H97 0.941 . S
C111 C110 1.389 . S
C111 C112 1.397 . S
C112 H98 0.939 . S
C112 C111 1.397 . S
C112 C113 1.378 . S
C113 C112 1.378 . S
C113 C114 1.378 . S
C114 H99 0.940 . S
C114 C113 1.378 . S
C114 C115 1.396 . S
C115 H100 0.940 . S
C115 C110 1.391 . S
C115 C114 1.396 . S
C116 P96 1.803 . S
C116 C117 1.378 . S
C116 C121 1.400 . S
C117 H101 0.939 . S
C117 C116 1.378 . S
C117 C118 1.361 . S
C118 H102 0.942 . S
C118 C117 1.361 . S
C118 C119 1.369 . S
C119 C118 1.369 . S
C119 C120 1.404 . S
C120 H103 0.940 . S
C120 C119 1.404 . S
C120 C121 1.389 . S
C121 H104 0.939 . S
C121 C116 1.400 . S
C121 C120 1.389 . S
C122 P96 1.819 . S
C122 C123 1.391 . S
C122 C127 1.391 . S
C123 H105 0.941 . S
C123 C122 1.391 . S
C123 C124 1.396 . S
C124 H108 0.939 . S
C124 C123 1.396 . S
C124 C125 1.397 . S
C125 C124 1.397 . S
C125 C126 1.385 . S
C126 H109 0.940 . S
C126 C125 1.385 . S
C126 C127 1.388 . S
C127 H106 0.939 . S
C127 C122 1.391 . S
C127 C126 1.388 . S
P128 O139 1.490 . S
P128 C142 1.812 1_554 S
P128 C148 1.803 . S
P128 C154 1.819 . S
H129 C143 0.941 . S
H130 C144 0.939 . S
H131 C146 0.940 . S
H132 C147 0.940 . S
H133 C149 0.939 . S
H134 C150 0.942 . S
H135 C152 0.940 . S
H136 C153 0.939 . S
H137 C155 0.941 . S
H138 C159 0.939 . S
O139 P128 1.490 . S
H140 C156 0.939 . S
H141 C158 0.940 . S
C142 P128 1.812 1_556 S
C142 C143 1.389 . S
C142 C147 1.391 . S
C143 H129 0.941 . S
C143 C142 1.389 . S
C143 C144 1.397 . S
C144 H130 0.939 . S
C144 C143 1.397 . S
C144 C145 1.378 . S
C145 C144 1.378 . S
C145 C146 1.378 . S
C146 H131 0.940 . S
C146 C145 1.378 . S
C146 C147 1.396 . S
C147 H132 0.940 . S
C147 C142 1.391 . S
C147 C146 1.396 . S
C148 P128 1.803 . S
C148 C149 1.378 . S
C148 C153 1.400 . S
C149 H133 0.939 . S
C149 C148 1.378 . S
C149 C150 1.361 . S
C150 H134 0.942 . S
C150 C149 1.361 . S
C150 C151 1.369 . S
C151 C150 1.369 . S
C151 C152 1.404 . S
C152 H135 0.940 . S
C152 C151 1.404 . S
C152 C153 1.389 . S
C153 H136 0.939 . S
C153 C148 1.400 . S
C153 C152 1.389 . S
C154 P128 1.819 . S
C154 C155 1.391 . S
C154 C159 1.391 . S
C155 H137 0.941 . S
C155 C154 1.391 . S
C155 C156 1.396 . S
C156 H140 0.939 . S
C156 C155 1.396 . S
C156 C157 1.397 . S
C157 C156 1.397 . S
C157 C158 1.385 . S
C158 H141 0.940 . S
C158 C157 1.385 . S
C158 C159 1.388 . S
C159 H138 0.939 . S
C159 C154 1.391 . S
C159 C158 1.388 . S
P160 O171 1.490 . S
P160 C174 1.812 1_554 S
P160 C180 1.803 . S
P160 C186 1.819 . S
H161 C175 0.941 . S
H162 C176 0.939 . S
H163 C178 0.940 . S
H164 C179 0.940 . S
H165 C181 0.939 . S
H166 C182 0.942 . S
H167 C184 0.940 . S
H168 C185 0.939 . S
H169 C187 0.941 . S
H170 C191 0.939 . S
O171 P160 1.490 . S
H172 C188 0.939 . S
H173 C190 0.940 . S
C174 P160 1.812 1_556 S
C174 C175 1.389 . S
C174 C179 1.391 . S
C175 H161 0.941 . S
C175 C174 1.389 . S
C175 C176 1.397 . S
C176 H162 0.939 . S
C176 C175 1.397 . S
C176 C177 1.378 . S
C177 C176 1.378 . S
C177 C178 1.378 . S
C178 H163 0.940 . S
C178 C177 1.378 . S
C178 C179 1.396 . S
C179 H164 0.940 . S
C179 C174 1.391 . S
C179 C178 1.396 . S
C180 P160 1.803 . S
C180 C181 1.378 . S
C180 C185 1.400 . S
C181 H165 0.939 . S
C181 C180 1.378 . S
C181 C182 1.361 . S
C182 H166 0.942 . S
C182 C181 1.361 . S
C182 C183 1.369 . S
C183 C182 1.369 . S
C183 C184 1.404 . S
C184 H167 0.940 . S
C184 C183 1.404 . S
C184 C185 1.389 . S
C185 H168 0.939 . S
C185 C180 1.400 . S
C185 C184 1.389 . S
C186 P160 1.819 . S
C186 C187 1.391 . S
C186 C191 1.391 . S
C187 H169 0.941 . S
C187 C186 1.391 . S
C187 C188 1.396 . S
C188 H172 0.939 . S
C188 C187 1.396 . S
C188 C189 1.397 . S
C189 C188 1.397 . S
C189 C190 1.385 . S
C190 H173 0.940 . S
C190 C189 1.385 . S
C190 C191 1.388 . S
C191 H170 0.939 . S
C191 C186 1.391 . S
C191 C190 1.388 . S
P192 O203 1.490 . S
P192 C206 1.812 1_554 S
P192 C212 1.803 . S
P192 C218 1.819 . S
H193 C207 0.941 . S
H194 C208 0.939 . S
H195 C210 0.940 . S
H196 C211 0.940 . S
H197 C213 0.939 . S
H198 C214 0.942 . S
H199 C216 0.940 . S
H200 C217 0.939 . S
H201 C219 0.941 . S
H202 C223 0.939 . S
O203 P192 1.490 . S
H204 C220 0.939 . S
H205 C222 0.940 . S
C206 P192 1.812 1_556 S
C206 C207 1.389 . S
C206 C211 1.391 . S
C207 H193 0.941 . S
C207 C206 1.389 . S
C207 C208 1.397 . S
C208 H194 0.939 . S
C208 C207 1.397 . S
C208 C209 1.378 . S
C209 C208 1.378 . S
C209 C210 1.378 . S
C210 H195 0.940 . S
C210 C209 1.378 . S
C210 C211 1.396 . S
C211 H196 0.940 . S
C211 C206 1.391 . S
C211 C210 1.396 . S
C212 P192 1.803 . S
C212 C213 1.378 . S
C212 C217 1.400 . S
C213 H197 0.939 . S
C213 C212 1.378 . S
C213 C214 1.361 . S
C214 H198 0.942 . S
C214 C213 1.361 . S
C214 C215 1.369 . S
C215 C214 1.369 . S
C215 C216 1.404 . S
C216 H199 0.940 . S
C216 C215 1.404 . S
C216 C217 1.389 . S
C217 H200 0.939 . S
C217 C212 1.400 . S
C217 C216 1.389 . S
C218 P192 1.819 . S
C218 C219 1.391 . S
C218 C223 1.391 . S
C219 H201 0.941 . S
C219 C218 1.391 . S
C219 C220 1.396 . S
C220 H204 0.939 . S
C220 C219 1.396 . S
C220 C221 1.397 . S
C221 C220 1.397 . S
C221 C222 1.385 . S
C222 H205 0.940 . S
C222 C221 1.385 . S
C222 C223 1.388 . S
C223 H202 0.939 . S
C223 C218 1.391 . S
C223 C222 1.388 . S
P224 O235 1.490 . S
P224 C238 1.812 1_554 S
P224 C244 1.803 . S
P224 C250 1.819 . S
H225 C239 0.941 . S
H226 C240 0.939 . S
H227 C242 0.940 . S
H228 C243 0.940 . S
H229 C245 0.939 . S
H230 C246 0.942 . S
H231 C248 0.940 . S
H232 C249 0.939 . S
H233 C251 0.941 . S
H234 C255 0.939 . S
O235 P224 1.490 . S
H236 C252 0.939 . S
H237 C254 0.940 . S
C238 P224 1.812 1_556 S
C238 C239 1.389 . S
C238 C243 1.391 . S
C239 H225 0.941 . S
C239 C238 1.389 . S
C239 C240 1.397 . S
C240 H226 0.939 . S
C240 C239 1.397 . S
C240 C241 1.378 . S
C241 C240 1.378 . S
C241 C242 1.378 . S
C242 H227 0.940 . S
C242 C241 1.378 . S
C242 C243 1.396 . S
C243 H228 0.940 . S
C243 C238 1.391 . S
C243 C242 1.396 . S
C244 P224 1.803 . S
C244 C245 1.378 . S
C244 C249 1.400 . S
C245 H229 0.939 . S
C245 C244 1.378 . S
C245 C246 1.361 . S
C246 H230 0.942 . S
C246 C245 1.361 . S
C246 C247 1.369 . S
C247 C246 1.369 . S
C247 C248 1.404 . S
C248 H231 0.940 . S
C248 C247 1.404 . S
C248 C249 1.389 . S
C249 H232 0.939 . S
C249 C244 1.400 . S
C249 C248 1.389 . S
C250 P224 1.819 . S
C250 C251 1.391 . S
C250 C255 1.391 . S
C251 H233 0.941 . S
C251 C250 1.391 . S
C251 C252 1.396 . S
C252 H236 0.939 . S
C252 C251 1.396 . S
C252 C253 1.397 . S
C253 C252 1.397 . S
C253 C254 1.385 . S
C254 H237 0.940 . S
C254 C253 1.385 . S
C254 C255 1.388 . S
C255 H234 0.939 . S
C255 C250 1.391 . S
C255 C254 1.388 . S
Eu256 N285 2.600 . S
Eu256 N291 2.562 . S
Eu256 O300 2.462 . S
Eu256 O301 2.373 1_545 S
Eu256 O303 2.432 . S
Eu256 O304 2.291 1_655 S
Eu256 O308 2.335 1_655 S
Eu256 O311 2.372 . S
Eu256 C320 2.787 . S
C257 N258 1.365 . S
C257 C260 1.405 . S
C257 C264 1.448 . S
N258 C257 1.365 . S
N258 C261 1.319 1_545 S
N258 Eu267 2.600 1_545 S
C259 C261 1.397 1_545 S
C259 C262 1.367 . S
C259 H279 0.931 . S
C260 C257 1.405 . S
C260 C262 1.403 . S
C260 C266 1.439 . S
C261 N258 1.319 1_565 S
C261 C259 1.397 1_565 S
C261 H272 0.930 . S
C262 C259 1.367 . S
C262 C260 1.403 . S
C262 H283 0.929 . S
C263 C264 1.430 1_554 S
C263 C265 1.387 . S
C263 C269 1.404 . S
C264 C257 1.448 . S
C264 C263 1.430 1_556 S
C264 N268 1.351 . S
C265 C263 1.387 . S
C265 C266 1.374 1_554 S
C265 H280 0.931 . S
C266 C260 1.439 . S
C266 C265 1.374 1_556 S
C266 H281 0.931 1_556 S
Eu267 N258 2.600 1_565 S
Eu267 N268 2.562 1_565 S
Eu267 O302 2.335 . S
Eu267 O305 2.372 . S
Eu267 O306 2.462 . S
Eu267 O307 2.373 1_565 S
Eu267 O309 2.432 . S
Eu267 O310 2.287 1_465 S
Eu267 C331 2.787 . S
N268 C264 1.351 . S
N268 Eu267 2.562 1_545 S
N268 C270 1.325 . S
C269 C263 1.404 . S
C269 C271 1.366 . S
C269 H277 0.930 . S
C270 N268 1.325 . S
C270 C271 1.416 1_556 S
C270 H276 0.929 . S
C271 C269 1.366 . S
C271 C270 1.416 1_554 S
C271 H273 0.930 . S
H272 C261 0.930 . S
H273 C271 0.930 . S
H274 C289 0.930 . S
H275 C296 0.930 1_455 S
H276 C270 0.929 . S
H277 C269 0.930 . S
H278 C292 0.929 1_455 S
H279 C259 0.931 . S
H280 C265 0.931 . S
H281 C266 0.931 1_554 S
H282 C287 0.931 . S
H283 C262 0.929 . S
H284 C295 0.930 . S
N285 Eu256 2.600 . S
N285 C286 1.365 1_545 S
N285 C289 1.319 . S
C286 N285 1.365 1_565 S
C286 C288 1.405 . S
C286 C294 1.448 . S
C287 H282 0.931 . S
C287 C289 1.397 . S
C287 C290 1.367 1_545 S
C288 C286 1.405 . S
C288 C290 1.403 . S
C288 C321 1.439 . S
C289 H274 0.930 . S
C289 N285 1.319 . S
C289 C287 1.397 . S
C290 C287 1.367 1_565 S
C290 C288 1.403 . S
C290 H297 0.929 . S
N291 Eu256 2.562 . S
N291 C292 1.325 . S
N291 C294 1.351 1_545 S
C292 H278 0.929 1_655 S
C292 N291 1.325 . S
C292 C296 1.416 1_545 S
C293 C294 1.430 . S
C293 C295 1.404 . S
C293 C322 1.387 . S
C294 C286 1.448 . S
C294 N291 1.351 1_565 S
C294 C293 1.430 . S
C295 H284 0.930 . S
C295 C293 1.404 . S
C295 C296 1.366 . S
C296 H275 0.930 1_655 S
C296 C292 1.416 1_565 S
C296 C295 1.366 . S
H297 C290 0.929 . S
H298 C321 0.931 . S
H299 C322 0.931 . S
O300 Eu256 2.462 . S
O300 C320 1.252 . S
O301 Eu256 2.373 1_565 S
O301 C312 1.249 . S
O302 Eu267 2.335 . S
O302 C312 1.264 1_455 S
O303 Eu256 2.432 . S
O303 C320 1.268 . S
O304 Eu256 2.291 1_455 S
O304 C319 1.255 . S
O305 Eu267 2.372 . S
O305 C319 1.257 1_565 S
O306 Eu267 2.462 . S
O306 C331 1.252 . S
O307 Eu267 2.373 1_545 S
O307 C323 1.249 . S
O308 Eu256 2.335 1_455 S
O308 C323 1.264 . S
O309 Eu267 2.432 . S
O309 C331 1.268 . S
O310 Eu267 2.287 1_645 S
O310 C330 1.258 . S
O311 Eu256 2.372 . S
O311 C330 1.257 . S
C312 O301 1.249 . S
C312 O302 1.264 1_655 S
C313 C316 1.382 . S
C313 C318 1.390 . S
C313 C320 1.506 . S
C314 C315 1.398 . S
C314 C318 1.392 . S
C315 C314 1.398 . S
C315 C317 1.372 . S
C315 H332 0.931 . S
C316 C313 1.382 . S
C316 C317 1.390 . S
C316 H333 0.931 . S
C317 C315 1.372 . S
C317 C316 1.390 . S
C317 H334 0.929 . S
C318 C313 1.390 . S
C318 C314 1.392 . S
C318 H335 0.930 1_655 S
C319 O304 1.255 . S
C319 O305 1.257 1_545 S
C320 Eu256 2.787 . S
C320 O300 1.252 . S
C320 O303 1.268 . S
C320 C313 1.506 . S
C321 C288 1.439 . S
C321 H298 0.931 . S
C321 C322 1.374 . S
C322 C293 1.387 . S
C322 H299 0.931 . S
C322 C321 1.374 . S
C323 O307 1.249 . S
C323 O308 1.264 . S
C324 C327 1.382 . S
C324 C328 1.390 . S
C324 C331 1.506 . S
C325 C326 1.398 . S
C325 C328 1.392 . S
C326 C325 1.398 . S
C326 C329 1.372 . S
C326 H336 0.931 1_556 S
C327 C324 1.382 . S
C327 C329 1.390 . S
C327 H337 0.931 . S
C328 C324 1.390 . S
C328 C325 1.392 . S
C328 H338 0.930 . S
C329 C326 1.372 . S
C329 C327 1.390 . S
C329 H339 0.929 . S
C330 O310 1.258 . S
C330 O311 1.257 . S
C331 Eu267 2.787 . S
C331 O306 1.252 . S
C331 O309 1.268 . S
C331 C324 1.506 . S
H332 C315 0.931 . S
H333 C316 0.931 . S
H334 C317 0.929 . S
H335 C318 0.930 1_455 S
H336 C326 0.931 1_554 S
H337 C327 0.931 . S
H338 C328 0.930 . S
H339 C329 0.929 . S
Eu340 N369 2.600 . S
Eu340 N375 2.562 . S
Eu340 O384 2.462 . S
Eu340 O385 2.373 . S
Eu340 O387 2.432 . S
Eu340 O388 2.291 . S
Eu340 O392 2.335 1_545 S
Eu340 O395 2.372 . S
Eu340 C404 2.787 . S
C341 N342 1.365 . S
C341 C344 1.405 . S
C341 C348 1.448 . S
N342 C341 1.365 . S
N342 C345 1.319 . S
N342 Eu351 2.600 . S
C343 C345 1.397 . S
C343 C346 1.367 . S
C343 H363 0.931 . S
C344 C341 1.405 . S
C344 C346 1.403 . S
C344 C350 1.439 . S
C345 N342 1.319 . S
C345 C343 1.397 . S
C345 H356 0.930 . S
C346 C343 1.367 . S
C346 C344 1.403 . S
C346 H367 0.929 . S
C347 C348 1.430 . S
C347 C349 1.387 . S
C347 C353 1.404 . S
C348 C341 1.448 . S
C348 C347 1.430 . S
C348 N352 1.351 . S
C349 C347 1.387 . S
C349 C350 1.374 . S
C349 H364 0.931 . S
C350 C344 1.439 . S
C350 C349 1.374 . S
C350 H365 0.931 . S
Eu351 N342 2.600 . S
Eu351 N352 2.562 . S
Eu351 O386 2.335 1_565 S
Eu351 O389 2.372 . S
Eu351 O390 2.462 . S
Eu351 O391 2.373 . S
Eu351 O393 2.432 . S
Eu351 O394 2.285 1_565 S
Eu351 C415 2.787 . S
N352 C348 1.351 . S
N352 Eu351 2.562 . S
N352 C354 1.325 . S
C353 C347 1.404 . S
C353 C355 1.366 . S
C353 H361 0.930 . S
C354 N352 1.325 . S
C354 C355 1.416 . S
C354 H360 0.929 . S
C355 C353 1.366 . S
C355 C354 1.416 . S
C355 H357 0.930 . S
H356 C345 0.930 . S
H357 C355 0.930 . S
H358 C373 0.930 . S
H359 C380 0.930 . S
H360 C354 0.929 . S
H361 C353 0.930 . S
H362 C376 0.929 . S
H363 C343 0.931 . S
H364 C349 0.931 . S
H365 C350 0.931 . S
H366 C371 0.931 . S
H367 C346 0.929 . S
H368 C379 0.930 . S
N369 Eu340 2.600 . S
N369 C370 1.365 . S
N369 C373 1.319 . S
C370 N369 1.365 . S
C370 C372 1.405 . S
C370 C378 1.448 . S
C371 H366 0.931 . S
C371 C373 1.397 . S
C371 C374 1.367 . S
C372 C370 1.405 . S
C372 C374 1.403 . S
C372 C405 1.439 . S
C373 H358 0.930 . S
C373 N369 1.319 . S
C373 C371 1.397 . S
C374 C371 1.367 . S
C374 C372 1.403 . S
C374 H381 0.929 . S
N375 Eu340 2.562 . S
N375 C376 1.325 . S
N375 C378 1.351 . S
C376 H362 0.929 . S
C376 N375 1.325 . S
C376 C380 1.416 . S
C377 C378 1.430 . S
C377 C379 1.404 . S
C377 C406 1.387 . S
C378 C370 1.448 . S
C378 N375 1.351 . S
C378 C377 1.430 . S
C379 H368 0.930 . S
C379 C377 1.404 . S
C379 C380 1.366 . S
C380 H359 0.930 . S
C380 C376 1.416 . S
C380 C379 1.366 . S
H381 C374 0.929 . S
H382 C405 0.931 . S
H383 C406 0.931 . S
O384 Eu340 2.462 . S
O384 C404 1.252 . S
O385 Eu340 2.373 . S
O385 C396 1.249 . S
O386 Eu351 2.335 1_545 S
O386 C396 1.264 . S
O387 Eu340 2.432 . S
O387 C404 1.268 . S
O388 Eu340 2.291 . S
O388 C403 1.255 1_545 S
O389 Eu351 2.372 . S
O389 C403 1.257 . S
O390 Eu351 2.462 . S
O390 C415 1.252 . S
O391 Eu351 2.373 . S
O391 C407 1.249 . S
O392 Eu340 2.335 1_565 S
O392 C407 1.264 . S
O393 Eu351 2.432 . S
O393 C415 1.268 . S
O394 Eu351 2.285 1_545 S
O394 C414 1.264 . S
O395 Eu340 2.372 . S
O395 C414 1.257 . S
C396 O385 1.249 . S
C396 O386 1.264 . S
C397 C400 1.382 1_556 S
C397 C402 1.390 . S
C397 C404 1.506 . S
C398 C399 1.398 . S
C398 C402 1.392 1_554 S
C399 C398 1.398 . S
C399 C401 1.372 . S
C399 H416 0.931 . S
C400 C397 1.382 1_554 S
C400 C401 1.390 . S
C400 H417 0.931 . S
C401 C399 1.372 . S
C401 C400 1.390 . S
C401 H418 0.929 . S
C402 C397 1.390 . S
C402 C398 1.392 1_556 S
C402 H419 0.930 . S
C403 O388 1.255 1_565 S
C403 O389 1.257 . S
C404 Eu340 2.787 . S
C404 O384 1.252 . S
C404 O387 1.268 . S
C404 C397 1.506 . S
C405 C372 1.439 . S
C405 H382 0.931 . S
C405 C406 1.374 . S
C406 C377 1.387 . S
C406 H383 0.931 . S
C406 C405 1.374 . S
C407 O391 1.249 . S
C407 O392 1.264 . S
C408 C411 1.382 . S
C408 C412 1.390 . S
C408 C415 1.506 . S
C409 C410 1.398 . S
C409 C412 1.392 . S
C410 C409 1.398 . S
C410 C413 1.372 . S
C410 H420 0.931 . S
C411 C408 1.382 . S
C411 C413 1.390 . S
C411 H421 0.931 . S
C412 C408 1.390 . S
C412 C409 1.392 . S
C412 H422 0.930 . S
C413 C410 1.372 . S
C413 C411 1.390 . S
C413 H423 0.929 . S
C414 O394 1.264 . S
C414 O395 1.257 . S
C415 Eu351 2.787 . S
C415 O390 1.252 . S
C415 O393 1.268 . S
C415 C408 1.506 . S
H416 C399 0.931 . S
H417 C400 0.931 . S
H418 C401 0.929 . S
H419 C402 0.930 . S
H420 C410 0.931 . S
H421 C411 0.931 . S
H422 C412 0.930 . S
H423 C413 0.929 . S
Eu424 N453 2.600 . S
Eu424 N459 2.562 . S
Eu424 O468 2.462 . S
Eu424 O469 2.373 . S
Eu424 O471 2.432 . S
Eu424 O472 2.291 . S
Eu424 O476 2.335 . S
Eu424 O479 2.372 . S
Eu424 C488 2.787 . S
C425 N426 1.365 . S
C425 C428 1.405 . S
C425 C432 1.448 . S
N426 C425 1.365 . S
N426 C429 1.319 . S
N426 Eu435 2.600 . S
C427 C429 1.397 . S
C427 C430 1.367 . S
C427 H447 0.931 . S
C428 C425 1.405 . S
C428 C430 1.403 . S
C428 C434 1.439 . S
C429 N426 1.319 . S
C429 C427 1.397 . S
C429 H440 0.930 . S
C430 C427 1.367 . S
C430 C428 1.403 . S
C430 H451 0.929 . S
C431 C432 1.430 1_554 S
C431 C433 1.387 . S
C431 C437 1.404 . S
C432 C425 1.448 . S
C432 C431 1.430 1_556 S
C432 N436 1.351 . S
C433 C431 1.387 . S
C433 C434 1.374 1_554 S
C433 H448 0.931 . S
C434 C428 1.439 . S
C434 C433 1.374 1_556 S
C434 H449 0.931 1_556 S
Eu435 N426 2.600 . S
Eu435 N436 2.562 . S
Eu435 O470 2.335 . S
Eu435 O473 2.372 . S
Eu435 O474 2.462 . S
Eu435 O475 2.373 . S
Eu435 O477 2.432 . S
Eu435 O478 2.291 . S
Eu435 C499 2.787 . S
N436 C432 1.351 . S
N436 Eu435 2.562 . S
N436 C438 1.325 . S
C437 C431 1.404 . S
C437 C439 1.366 . S
C437 H445 0.930 . S
C438 N436 1.325 . S
C438 C439 1.416 1_556 S
C438 H444 0.929 . S
C439 C437 1.366 . S
C439 C438 1.416 1_554 S
C439 H441 0.930 . S
H440 C429 0.930 . S
H441 C439 0.930 . S
H442 C457 0.930 . S
H443 C464 0.930 . S
H444 C438 0.929 . S
H445 C437 0.930 . S
H446 C460 0.929 . S
H447 C427 0.931 . S
H448 C433 0.931 . S
H449 C434 0.931 1_554 S
H450 C455 0.931 . S
H451 C430 0.929 . S
H452 C463 0.930 . S
N453 Eu424 2.600 . S
N453 C454 1.365 . S
N453 C457 1.319 . S
C454 N453 1.365 . S
C454 C456 1.405 . S
C454 C462 1.448 . S
C455 H450 0.931 . S
C455 C457 1.397 . S
C455 C458 1.367 . S
C456 C454 1.405 . S
C456 C458 1.403 . S
C456 C489 1.439 . S
C457 H442 0.930 . S
C457 N453 1.319 . S
C457 C455 1.397 . S
C458 C455 1.367 . S
C458 C456 1.403 . S
C458 H465 0.929 . S
N459 Eu424 2.562 . S
N459 C460 1.325 . S
N459 C462 1.351 . S
C460 H446 0.929 . S
C460 N459 1.325 . S
C460 C464 1.416 . S
C461 C462 1.430 . S
C461 C463 1.404 . S
C461 C490 1.387 . S
C462 C454 1.448 . S
C462 N459 1.351 . S
C462 C461 1.430 . S
C463 H452 0.930 . S
C463 C461 1.404 . S
C463 C464 1.366 . S
C464 H443 0.930 . S
C464 C460 1.416 . S
C464 C463 1.366 . S
H465 C458 0.929 . S
H466 C489 0.931 . S
H467 C490 0.931 . S
O468 Eu424 2.462 . S
O468 C488 1.252 . S
O469 Eu424 2.373 . S
O469 C480 1.249 . S
O470 Eu435 2.335 . S
O470 C480 1.264 . S
O471 Eu424 2.432 . S
O471 C488 1.268 . S
O472 Eu424 2.291 . S
O472 C487 1.255 . S
O473 Eu435 2.372 . S
O473 C487 1.257 . S
O474 Eu435 2.462 . S
O474 C499 1.252 . S
O475 Eu435 2.373 . S
O475 C491 1.249 . S
O476 Eu424 2.335 . S
O476 C491 1.264 . S
O477 Eu435 2.432 . S
O477 C499 1.268 . S
O478 Eu435 2.291 . S
O478 C498 1.255 . S
O479 Eu424 2.372 . S
O479 C498 1.257 . S
C480 O469 1.249 . S
C480 O470 1.264 . S
C481 C484 1.382 . S
C481 C486 1.390 . S
C481 C488 1.506 . S
C482 C483 1.398 . S
C482 C486 1.392 . S
C483 C482 1.398 . S
C483 C485 1.372 . S
C483 H500 0.931 . S
C484 C481 1.382 . S
C484 C485 1.390 . S
C484 H501 0.931 . S
C485 C483 1.372 . S
C485 C484 1.390 . S
C485 H502 0.929 . S
C486 C481 1.390 . S
C486 C482 1.392 . S
C486 H503 0.930 . S
C487 O472 1.255 . S
C487 O473 1.257 . S
C488 Eu424 2.787 . S
C488 O468 1.252 . S
C488 O471 1.268 . S
C488 C481 1.506 . S
C489 C456 1.439 . S
C489 H466 0.931 . S
C489 C490 1.374 . S
C490 C461 1.387 . S
C490 H467 0.931 . S
C490 C489 1.374 . S
C491 O475 1.249 . S
C491 O476 1.264 . S
C492 C495 1.382 . S
C492 C496 1.390 . S
C492 C499 1.506 . S
C493 C494 1.398 1_554 S
C493 C496 1.390 1_554 S
C494 C493 1.398 1_556 S
C494 C497 1.372 . S
C494 H504 0.931 1_556 S
C495 C492 1.382 . S
C495 C497 1.390 . S
C495 H505 0.931 . S
C496 C492 1.390 . S
C496 C493 1.390 1_556 S
C496 H506 0.930 . S
C497 C494 1.372 . S
C497 C495 1.390 . S
C497 H507 0.929 . S
C498 O478 1.255 . S
C498 O479 1.257 . S
C499 Eu435 2.787 . S
C499 O474 1.252 . S
C499 O477 1.268 . S
C499 C492 1.506 . S
H500 C483 0.931 . S
H501 C484 0.931 . S
H502 C485 0.929 . S
H503 C486 0.930 . S
H504 C494 0.931 1_554 S
H505 C495 0.931 . S
H506 C496 0.930 . S
H507 C497 0.929 . S
Eu508 N537 2.600 . S
Eu508 N543 2.562 . S
Eu508 O552 2.462 . S
Eu508 O553 2.373 1_455 S
Eu508 O555 2.432 . S
Eu508 O556 2.291 . S
Eu508 O560 2.335 . S
Eu508 O563 2.372 . S
Eu508 C572 2.787 . S
C509 N510 1.365 1_455 S
C509 C512 1.405 . S
C509 C516 1.448 . S
N510 C509 1.365 1_655 S
N510 C513 1.319 . S
N510 Eu519 2.600 . S
C511 C513 1.397 1_455 S
C511 C514 1.367 . S
C511 H531 0.931 . S
C512 C509 1.405 . S
C512 C514 1.403 . S
C512 C518 1.439 . S
C513 N510 1.319 . S
C513 C511 1.397 1_655 S
C513 H524 0.930 . S
C514 C511 1.367 . S
C514 C512 1.403 . S
C514 H535 0.929 . S
C515 C516 1.430 1_554 S
C515 C517 1.387 . S
C515 C521 1.404 . S
C516 C509 1.448 . S
C516 C515 1.430 1_556 S
C516 N520 1.351 . S
C517 C515 1.387 . S
C517 C518 1.374 1_554 S
C517 H532 0.931 . S
C518 C512 1.439 . S
C518 C517 1.374 1_556 S
C518 H533 0.931 1_556 S
Eu519 N510 2.600 . S
Eu519 N520 2.562 1_655 S
Eu519 O554 2.335 . S
Eu519 O557 2.372 . S
Eu519 O558 2.462 . S
Eu519 O559 2.373 1_655 S
Eu519 O561 2.432 . S
Eu519 O562 2.301 . S
Eu519 C583 2.787 . S
N520 C516 1.351 . S
N520 Eu519 2.562 1_455 S
N520 C522 1.325 . S
C521 C515 1.404 . S
C521 C523 1.366 . S
C521 H529 0.930 . S
C522 N520 1.325 . S
C522 C523 1.416 1_556 S
C522 H528 0.929 . S
C523 C521 1.366 . S
C523 C522 1.416 1_554 S
C523 H525 0.930 . S
H524 C513 0.930 . S
H525 C523 0.930 . S
H526 C541 0.930 . S
H527 C548 0.930 . S
H528 C522 0.929 . S
H529 C521 0.930 . S
H530 C544 0.929 . S
H531 C511 0.931 . S
H532 C517 0.931 . S
H533 C518 0.931 1_554 S
H534 C539 0.931 . S
H535 C514 0.929 . S
H536 C547 0.930 . S
N537 Eu508 2.600 . S
N537 C538 1.365 1_455 S
N537 C541 1.319 . S
C538 N537 1.365 1_655 S
C538 C540 1.405 . S
C538 C546 1.448 . S
C539 H534 0.931 . S
C539 C541 1.397 . S
C539 C542 1.367 1_455 S
C540 C538 1.405 . S
C540 C542 1.403 . S
C540 C573 1.439 . S
C541 H526 0.930 . S
C541 N537 1.319 . S
C541 C539 1.397 . S
C542 C539 1.367 1_655 S
C542 C540 1.403 . S
C542 H549 0.929 . S
N543 Eu508 2.562 . S
N543 C544 1.325 . S
N543 C546 1.351 1_455 S
C544 H530 0.929 . S
C544 N543 1.325 . S
C544 C548 1.416 1_455 S
C545 C546 1.430 . S
C545 C547 1.404 . S
C545 C574 1.387 . S
C546 C538 1.448 . S
C546 N543 1.351 1_655 S
C546 C545 1.430 . S
C547 H536 0.930 . S
C547 C545 1.404 . S
C547 C548 1.366 . S
C548 H527 0.930 . S
C548 C544 1.416 1_655 S
C548 C547 1.366 . S
H549 C542 0.929 . S
H550 C573 0.931 . S
H551 C574 0.931 . S
O552 Eu508 2.462 . S
O552 C572 1.252 . S
O553 Eu508 2.373 1_655 S
O553 C564 1.249 . S
O554 Eu519 2.335 . S
O554 C564 1.264 . S
O555 Eu508 2.432 . S
O555 C572 1.268 . S
O556 Eu508 2.291 . S
O556 C571 1.255 . S
O557 Eu519 2.372 . S
O557 C571 1.257 1_655 S
O558 Eu519 2.462 . S
O558 C583 1.252 . S
O559 Eu519 2.373 1_455 S
O559 C575 1.249 . S
O560 Eu508 2.335 . S
O560 C575 1.264 . S
O561 Eu519 2.432 . S
O561 C583 1.268 . S
O562 Eu519 2.301 . S
O562 C582 1.249 1_655 S
O563 Eu508 2.372 . S
O563 C582 1.257 . S
C564 O553 1.249 . S
C564 O554 1.264 . S
C565 C568 1.382 . S
C565 C570 1.390 . S
C565 C572 1.506 . S
C566 C567 1.398 . S
C566 C570 1.392 . S
C567 C566 1.398 . S
C567 C569 1.372 . S
C567 H584 0.931 . S
C568 C565 1.382 . S
C568 C569 1.390 . S
C568 H585 0.931 . S
C569 C567 1.372 . S
C569 C568 1.390 . S
C569 H586 0.929 . S
C570 C565 1.390 . S
C570 C566 1.392 . S
C570 H587 0.930 . S
C571 O556 1.255 . S
C571 O557 1.257 1_455 S
C572 Eu508 2.787 . S
C572 O552 1.252 . S
C572 O555 1.268 . S
C572 C565 1.506 . S
C573 C540 1.439 . S
C573 H550 0.931 . S
C573 C574 1.374 . S
C574 C545 1.387 . S
C574 H551 0.931 . S
C574 C573 1.374 . S
C575 O559 1.249 . S
C575 O560 1.264 . S
C576 C579 1.382 . S
C576 C580 1.390 . S
C576 C583 1.506 . S
C577 C578 1.398 . S
C577 C580 1.392 . S
C578 C577 1.398 . S
C578 C581 1.372 . S
C578 H588 0.931 1_556 S
C579 C576 1.382 . S
C579 C581 1.390 . S
C579 H589 0.931 . S
C580 C576 1.390 . S
C580 C577 1.392 . S
C580 H590 0.930 . S
C581 C578 1.372 . S
C581 C579 1.390 . S
C581 H591 0.929 . S
C582 O562 1.249 1_455 S
C582 O563 1.257 . S
C583 Eu519 2.787 . S
C583 O558 1.252 . S
C583 O561 1.268 . S
C583 C576 1.506 . S
H584 C567 0.931 . S
H585 C568 0.931 . S
H586 C569 0.929 . S
H587 C570 0.930 . S
H588 C578 0.931 1_554 S
H589 C579 0.931 . S
H590 C580 0.930 . S
H591 C581 0.929 . S
C592 C593 1.363 . S
C592 C598 1.379 . S
C592 N600 1.356 . S
C593 C592 1.363 . S
C593 C599 1.363 . S
C594 C595 1.363 . S
C594 C599 1.379 . S
C594 N601 1.356 1_545 S
C595 C594 1.363 . S
C595 C598 1.363 . S
N596 C598 1.356 . S
N596 H608 0.984 . S
N596 H609 0.985 . S
N597 C599 1.356 1_565 S
N597 H602 0.979 1_565 S
N597 H603 0.985 . S
C598 C592 1.379 . S
C598 C595 1.363 . S
C598 N596 1.356 . S
C599 C593 1.363 . S
C599 C594 1.379 . S
C599 N597 1.356 1_545 S
N600 C592 1.356 . S
N600 H606 0.984 . S
N600 H607 0.984 . S
N601 C594 1.356 1_565 S
N601 H604 0.984 . S
N601 H605 0.985 . S
H602 N597 0.979 1_545 S
H603 N597 0.985 . S
H604 N601 0.984 . S
H605 N601 0.985 . S
H606 N600 0.984 . S
H607 N600 0.984 . S
H608 N596 0.984 . S
H609 N596 0.985 . S
C610 C611 1.363 . S
C610 C616 1.379 . S
C610 N618 1.356 . S
C611 C610 1.363 . S
C611 C617 1.363 . S
C612 C613 1.363 . S
C612 C617 1.379 . S
C612 N619 1.356 . S
C613 C612 1.363 . S
C613 C616 1.363 . S
N614 C616 1.356 . S
N614 H626 0.984 . S
N614 H627 0.985 . S
N615 C617 1.356 . S
N615 H620 0.984 . S
N615 H621 0.985 . S
C616 C610 1.379 . S
C616 C613 1.363 . S
C616 N614 1.356 . S
C617 C611 1.363 . S
C617 C612 1.379 . S
C617 N615 1.356 . S
N618 C610 1.356 . S
N618 H624 0.984 . S
N618 H625 0.984 . S
N619 C612 1.356 . S
N619 H622 0.984 . S
N619 H623 0.985 . S
H620 N615 0.984 . S
H621 N615 0.985 . S
H622 N619 0.984 . S
H623 N619 0.985 . S
H624 N618 0.984 . S
H625 N618 0.984 . S
H626 N614 0.984 . S
H627 N614 0.985 . S
C628 C629 1.363 . S
C628 C634 1.379 . S
C628 N636 1.356 . S
C629 C628 1.363 . S
C629 C635 1.363 . S
C630 C631 1.363 . S
C630 C635 1.379 . S
C630 N637 1.356 . S
C631 C630 1.363 . S
C631 C634 1.363 . S
N632 C634 1.356 . S
N632 H644 0.984 . S
N632 H645 0.985 . S
N633 C635 1.356 . S
N633 H638 0.984 . S
N633 H639 0.985 . S
C634 C628 1.379 . S
C634 C631 1.363 . S
C634 N632 1.356 . S
C635 C629 1.363 . S
C635 C630 1.379 . S
C635 N633 1.356 . S
N636 C628 1.356 . S
N636 H642 0.984 . S
N636 H643 0.984 . S
N637 C630 1.356 . S
N637 H640 0.984 . S
N637 H641 0.985 . S
H638 N633 0.984 . S
H639 N633 0.985 . S
H640 N637 0.984 . S
H641 N637 0.985 . S
H642 N636 0.984 . S
H643 N636 0.984 . S
H644 N632 0.984 . S
H645 N632 0.985 . S
C646 C647 1.363 . S
C646 C652 1.379 . S
C646 N654 1.356 . S
C647 C646 1.363 . S
C647 C653 1.363 . S
C648 C649 1.363 . S
C648 C653 1.379 . S
C648 N655 1.356 . S
C649 C648 1.363 . S
C649 C652 1.363 . S
N650 C652 1.356 1_655 S
N650 H662 0.984 . S
N650 H663 0.985 . S
N651 C653 1.356 . S
N651 H656 0.984 . S
N651 H657 0.985 . S
C652 C646 1.379 . S
C652 C649 1.363 . S
C652 N650 1.356 1_455 S
C653 C647 1.363 . S
C653 C648 1.379 . S
C653 N651 1.356 . S
N654 C646 1.356 . S
N654 H660 0.985 1_455 S
N654 H661 0.984 . S
N655 C648 1.356 . S
N655 H658 0.984 . S
N655 H659 0.985 . S
H656 N651 0.984 . S
H657 N651 0.985 . S
H658 N655 0.984 . S
H659 N655 0.985 . S
H660 N654 0.985 1_655 S
H661 N654 0.984 . S
H662 N650 0.984 . S
H663 N650 0.985 . S
C664 C665 1.363 1_545 S
C664 C670 1.379 1_554 S
C664 N672 1.356 . S
C665 C664 1.363 1_565 S
C665 C671 1.363 . S
C666 C667 1.363 . S
C666 C671 1.379 1_556 S
C666 N673 1.356 . S
C667 C666 1.363 . S
C667 C670 1.363 1_565 S
N668 C670 1.356 . S
N668 H680 0.984 . S
N668 H681 0.985 . S
N669 C671 1.356 . S
N669 H674 0.984 . S
N669 H675 0.985 . S
C670 C664 1.379 1_556 S
C670 C667 1.363 1_545 S
C670 N668 1.356 . S
C671 C665 1.363 . S
C671 C666 1.379 1_554 S
C671 N669 1.356 . S
N672 C664 1.356 . S
N672 H678 0.984 . S
N672 H679 0.984 . S
N673 C666 1.356 . S
N673 H676 0.984 . S
N673 H677 0.985 . S
H674 N669 0.984 . S
H675 N669 0.985 . S
H676 N673 0.984 . S
H677 N673 0.985 . S
H678 N672 0.984 . S
H679 N672 0.984 . S
H680 N668 0.984 . S
H681 N668 0.985 . S
C682 C683 1.363 . S
C682 C688 1.379 . S
C682 N690 1.356 . S
C683 C682 1.363 . S
C683 C689 1.363 . S
C684 C685 1.363 . S
C684 C689 1.379 1_556 S
C684 N691 1.356 . S
C685 C684 1.363 . S
C685 C688 1.363 1_556 S
N686 C688 1.356 1_556 S
N686 H698 0.984 . S
N686 H699 0.985 . S
N687 C689 1.356 . S
N687 H692 0.984 . S
N687 H693 0.985 . S
C688 C682 1.379 . S
C688 C685 1.363 1_554 S
C688 N686 1.356 1_554 S
C689 C683 1.363 . S
C689 C684 1.379 1_554 S
C689 N687 1.356 . S
N690 C682 1.356 . S
N690 H696 0.984 . S
N690 H697 0.984 . S
N691 C684 1.356 . S
N691 H694 0.984 . S
N691 H695 0.985 . S
H692 N687 0.984 . S
H693 N687 0.985 . S
H694 N691 0.984 . S
H695 N691 0.985 . S
H696 N690 0.984 . S
H697 N690 0.984 . S
H698 N686 0.984 . S
H699 N686 0.985 . S
C700 C701 1.363 . S
C700 C706 1.379 1_554 S
C700 N708 1.356 . S
C701 C700 1.363 . S
C701 C707 1.363 . S
C702 C703 1.363 . S
C702 C707 1.379 1_556 S
C702 N709 1.356 . S
C703 C702 1.363 . S
C703 C706 1.363 . S
N704 C706 1.356 . S
N704 H716 0.984 . S
N704 H717 0.985 . S
N705 C707 1.356 . S
N705 H710 0.984 . S
N705 H711 0.985 . S
C706 C700 1.379 1_556 S
C706 C703 1.363 . S
C706 N704 1.356 . S
C707 C701 1.363 . S
C707 C702 1.379 1_554 S
C707 N705 1.356 . S
N708 C700 1.356 . S
N708 H714 0.984 . S
N708 H715 0.984 . S
N709 C702 1.356 . S
N709 H712 0.984 . S
N709 H713 0.985 . S
H710 N705 0.984 . S
H711 N705 0.985 . S
H712 N709 0.984 . S
H713 N709 0.985 . S
H714 N708 0.984 . S
H715 N708 0.984 . S
H716 N704 0.984 . S
H717 N704 0.985 . S
C718 C719 1.363 1_455 S
C718 C724 1.379 . S
C718 N726 1.356 . S
C719 C718 1.363 1_655 S
C719 C725 1.363 . S
C720 C721 1.363 . S
C720 C725 1.379 1_556 S
C720 N727 1.356 . S
C721 C720 1.363 . S
C721 C724 1.363 1_656 S
N722 C724 1.356 1_556 S
N722 H734 0.984 . S
N722 H735 0.985 . S
N723 C725 1.356 . S
N723 H728 0.984 . S
N723 H729 0.985 . S
C724 C718 1.379 . S
C724 C721 1.363 1_454 S
C724 N722 1.356 1_554 S
C725 C719 1.363 . S
C725 C720 1.379 1_554 S
C725 N723 1.356 . S
N726 C718 1.356 . S
N726 H732 0.984 . S
N726 H733 0.984 . S
N727 C720 1.356 . S
N727 H730 0.984 . S
N727 H731 0.985 . S
H728 N723 0.984 . S
H729 N723 0.985 . S
H730 N727 0.984 . S
H731 N727 0.985 . S
H732 N726 0.984 . S
H733 N726 0.984 . S
H734 N722 0.984 . S
H735 N722 0.985 . S
C736 C737 1.363 . S
C736 C742 1.379 1_455 S
C736 N744 1.356 . S
C737 C736 1.363 . S
C737 C743 1.363 . S
C738 C739 1.363 1_455 S
C738 C743 1.379 . S
C738 N745 1.356 . S
C739 C738 1.363 1_655 S
C739 C742 1.363 . S
N740 C742 1.356 . S
N740 H752 0.984 . S
N740 H753 0.985 . S
N741 C743 1.356 . S
N741 H746 0.984 . S
N741 H747 0.985 . S
C742 C736 1.379 1_655 S
C742 C739 1.363 . S
C742 N740 1.356 . S
C743 C737 1.363 . S
C743 C738 1.379 . S
C743 N741 1.356 . S
N744 C736 1.356 . S
N744 H750 0.984 . S
N744 H751 0.984 . S
N745 C738 1.356 . S
N745 H748 0.984 1_455 S
N745 H749 0.985 . S
H746 N741 0.984 . S
H747 N741 0.985 . S
H748 N745 0.984 1_655 S
H749 N745 0.985 . S
H750 N744 0.984 . S
H751 N744 0.984 . S
H752 N740 0.984 . S
H753 N740 0.985 . S
C754 C755 1.363 . S
C754 C760 1.379 1_545 S
C754 N762 1.356 . S
C755 C754 1.363 . S
C755 C761 1.363 . S
C756 C757 1.363 1_545 S
C756 C761 1.379 . S
C756 N763 1.356 . S
C757 C756 1.363 1_565 S
C757 C760 1.363 . S
N758 C760 1.356 . S
N758 H770 0.984 . S
N758 H771 0.985 . S
N759 C761 1.356 . S
N759 H764 0.984 . S
N759 H765 0.985 . S
C760 C754 1.379 1_565 S
C760 C757 1.363 . S
C760 N758 1.356 . S
C761 C755 1.363 . S
C761 C756 1.379 . S
C761 N759 1.356 . S
N762 C754 1.356 . S
N762 H768 0.984 1_545 S
N762 H769 0.984 . S
N763 C756 1.356 . S
N763 H766 0.984 . S
N763 H767 0.985 . S
H764 N759 0.984 . S
H765 N759 0.985 . S
H766 N763 0.984 . S
H767 N763 0.985 . S
H768 N762 0.984 1_565 S
H769 N762 0.984 . S
H770 N758 0.984 . S
H771 N758 0.985 . S
C772 C773 1.363 . S
C772 C778 1.379 . S
C772 N780 1.356 . S
C773 C772 1.363 . S
C773 C779 1.363 . S
C774 C775 1.363 . S
C774 C779 1.379 . S
C774 N781 1.356 . S
C775 C774 1.363 . S
C775 C778 1.363 . S
N776 C778 1.356 . S
N776 H788 0.984 . S
N776 H789 0.985 . S
N777 C779 1.356 . S
N777 H782 0.984 . S
N777 H783 0.985 . S
C778 C772 1.379 . S
C778 C775 1.363 . S
C778 N776 1.356 . S
C779 C773 1.363 . S
C779 C774 1.379 . S
C779 N777 1.356 . S
N780 C772 1.356 . S
N780 H786 0.984 . S
N780 H787 0.984 . S
N781 C774 1.356 . S
N781 H784 0.984 . S
N781 H785 0.985 . S
H782 N777 0.984 . S
H783 N777 0.985 . S
H784 N781 0.984 . S
H785 N781 0.985 . S
H786 N780 0.984 . S
H787 N780 0.984 . S
H788 N776 0.984 . S
H789 N776 0.985 . S
C790 C791 1.363 . S
C790 C796 1.379 . S
C790 N798 1.356 . S
C791 C790 1.363 . S
C791 C797 1.363 . S
C792 C793 1.363 . S
C792 C797 1.379 . S
C792 N799 1.356 . S
C793 C792 1.363 . S
C793 C796 1.363 . S
N794 C796 1.356 . S
N794 H806 0.984 . S
N794 H807 0.985 . S
N795 C797 1.356 . S
N795 H800 0.984 . S
N795 H801 0.985 . S
C796 C790 1.379 . S
C796 C793 1.363 . S
C796 N794 1.356 . S
C797 C791 1.363 . S
C797 C792 1.379 . S
C797 N795 1.356 . S
N798 C790 1.356 . S
N798 H804 0.984 . S
N798 H805 0.984 . S
N799 C792 1.356 . S
N799 H802 0.984 . S
N799 H803 0.985 . S
H800 N795 0.984 . S
H801 N795 0.985 . S
H802 N799 0.984 . S
H803 N799 0.985 . S
H804 N798 0.984 . S
H805 N798 0.984 . S
H806 N794 0.984 . S
H807 N794 0.985 . S
C808 C809 1.363 1_455 S
C808 C814 1.379 . S
C808 N816 1.356 . S
C809 C808 1.363 1_655 S
C809 C815 1.363 . S
C810 C811 1.363 1_655 S
C810 C815 1.379 . S
C810 N817 1.356 . S
C811 C810 1.363 1_455 S
C811 C814 1.363 . S
N812 C814 1.356 . S
N812 H824 0.984 . S
N812 H825 0.985 1_554 S
N813 C815 1.356 . S
N813 H818 0.984 . S
N813 H819 0.985 . S
C814 C808 1.379 . S
C814 C811 1.363 . S
C814 N812 1.356 . S
C815 C809 1.363 . S
C815 C810 1.379 . S
C815 N813 1.356 . S
N816 C808 1.356 . S
N816 H822 0.984 . S
N816 H823 0.984 1_455 S
N817 C810 1.356 . S
N817 H820 0.984 1_655 S
N817 H821 0.985 . S
H818 N813 0.984 . S
H819 N813 0.985 . S
H820 N817 0.984 1_455 S
H821 N817 0.985 . S
H822 N816 0.984 . S
H823 N816 0.984 1_655 S
H824 N812 0.984 . S
H825 N812 0.985 1_556 S
C826 C827 1.363 . S
C826 C832 1.379 1_564 S
C826 N834 1.356 1_554 S
C827 C826 1.363 . S
C827 C833 1.363 . S
C828 C829 1.363 . S
C828 C833 1.379 1_545 S
C828 N835 1.356 . S
C829 C828 1.363 . S
C829 C832 1.363 1_554 S
N830 C832 1.356 . S
N830 H842 0.984 . S
N830 H843 0.985 . S
N831 C833 1.356 . S
N831 H836 0.984 . S
N831 H837 0.985 . S
C832 C826 1.379 1_546 S
C832 C829 1.363 1_556 S
C832 N830 1.356 . S
C833 C827 1.363 . S
C833 C828 1.379 1_565 S
C833 N831 1.356 . S
N834 C826 1.356 1_556 S
N834 H840 0.984 . S
N834 H841 0.984 1_556 S
N835 C828 1.356 . S
N835 H838 0.984 . S
N835 H839 0.985 . S
H836 N831 0.984 . S
H837 N831 0.985 . S
H838 N835 0.984 . S
H839 N835 0.985 . S
H840 N834 0.984 . S
H841 N834 0.984 1_554 S
H842 N830 0.984 . S
H843 N830 0.985 . S
C844 C845 1.363 . S
C844 C850 1.379 . S
C844 N852 1.356 . S
C845 C844 1.363 . S
C845 C851 1.363 . S
C846 C847 1.363 . S
C846 C851 1.379 . S
C846 N853 1.356 . S
C847 C846 1.363 . S
C847 C850 1.363 . S
N848 C850 1.356 1_556 S
N848 H860 0.984 . S
N848 H861 0.985 . S
N849 C851 1.356 . S
N849 H854 0.984 . S
N849 H855 0.985 . S
C850 C844 1.379 . S
C850 C847 1.363 . S
C850 N848 1.356 1_554 S
C851 C845 1.363 . S
C851 C846 1.379 . S
C851 N849 1.356 . S
N852 C844 1.356 . S
N852 H858 0.984 1_554 S
N852 H859 0.984 . S
N853 C846 1.356 . S
N853 H856 0.984 . S
N853 H857 0.985 . S
H854 N849 0.984 . S
H855 N849 0.985 . S
H856 N853 0.984 . S
H857 N853 0.985 . S
H858 N852 0.984 1_556 S
H859 N852 0.984 . S
H860 N848 0.984 . S
H861 N848 0.985 . S
C862 C863 1.363 . S
C862 C868 1.379 . S
C862 N870 1.356 . S
C863 C862 1.363 . S
C863 C869 1.363 . S
C864 C865 1.363 . S
C864 C869 1.379 . S
C864 N871 1.356 . S
C865 C864 1.363 . S
C865 C868 1.363 . S
N866 C868 1.356 1_556 S
N866 H878 0.984 . S
N866 H879 0.985 . S
N867 C869 1.356 . S
N867 H872 0.984 . S
N867 H873 0.985 . S
C868 C862 1.379 . S
C868 C865 1.363 . S
C868 N866 1.356 1_554 S
C869 C863 1.363 . S
C869 C864 1.379 . S
C869 N867 1.356 . S
N870 C862 1.356 . S
N870 H876 0.984 . S
N870 H877 0.984 . S
N871 C864 1.356 . S
N871 H874 0.984 . S
N871 H875 0.985 . S
H872 N867 0.984 . S
H873 N867 0.985 . S
H874 N871 0.984 . S
H875 N871 0.985 . S
H876 N870 0.984 . S
H877 N870 0.984 . S
H878 N866 0.984 . S
H879 N866 0.985 . S
C880 C881 1.363 . S
C880 C886 1.379 . S
C880 N888 1.356 . S
C881 C880 1.363 . S
C881 C887 1.363 . S
C882 C883 1.363 . S
C882 C887 1.379 . S
C882 N889 1.356 . S
C883 C882 1.363 . S
C883 C886 1.363 . S
N884 C886 1.356 . S
N884 H896 0.984 1_455 S
N884 H897 0.985 . S
N885 C887 1.356 . S
N885 H890 0.984 . S
N885 H891 0.985 . S
C886 C880 1.379 . S
C886 C883 1.363 . S
C886 N884 1.356 . S
C887 C881 1.363 . S
C887 C882 1.379 . S
C887 N885 1.356 . S
N888 C880 1.356 . S
N888 H894 0.998 . S
N888 H895 0.984 . S
N889 C882 1.356 . S
N889 H892 0.984 . S
N889 H893 0.985 . S
H890 N885 0.984 . S
H891 N885 0.985 . S
H892 N889 0.984 . S
H893 N889 0.985 . S
H894 N888 0.998 . S
H895 N888 0.984 . S
H896 N884 0.984 1_655 S
H897 N884 0.985 . S
C898 C899 1.363 . S
C898 C904 1.379 . S
C898 N906 1.356 1_545 S
C899 C898 1.363 . S
C899 C905 1.363 . S
C900 C901 1.363 . S
C900 C905 1.379 . S
C900 N907 1.356 . S
C901 C900 1.363 . S
C901 C904 1.363 . S
N902 C904 1.356 1_565 S
N902 H914 0.984 . S
N902 H915 0.985 . S
N903 C905 1.356 . S
N903 H908 0.984 . S
N903 H909 0.985 . S
C904 C898 1.379 . S
C904 C901 1.363 . S
C904 N902 1.356 1_545 S
C905 C899 1.363 . S
C905 C900 1.379 . S
C905 N903 1.356 . S
N906 C898 1.356 1_565 S
N906 H912 0.984 . S
N906 H913 0.984 . S
N907 C900 1.356 . S
N907 H910 0.984 . S
N907 H911 0.985 . S
H908 N903 0.984 . S
H909 N903 0.985 . S
H910 N907 0.984 . S
H911 N907 0.985 . S
H912 N906 0.984 . S
H913 N906 0.984 . S
H914 N902 0.984 . S
H915 N902 0.985 . S
C916 C917 1.363 . S
C916 C922 1.379 . S
C916 N924 1.356 . S
C917 C916 1.363 . S
C917 C923 1.363 . S
C918 C919 1.363 . S
C918 C923 1.379 . S
C918 N925 1.356 . S
C919 C918 1.363 . S
C919 C922 1.363 . S
N920 C922 1.356 . S
N920 H932 0.984 . S
N920 H933 0.985 . S
N921 C923 1.356 . S
N921 H926 0.984 . S
N921 H927 0.985 . S
C922 C916 1.379 . S
C922 C919 1.363 . S
C922 N920 1.356 . S
C923 C917 1.363 . S
C923 C918 1.379 . S
C923 N921 1.356 . S
N924 C916 1.356 . S
N924 H930 0.984 . S
N924 H931 0.984 . S
N925 C918 1.356 . S
N925 H928 0.984 . S
N925 H929 0.985 . S
H926 N921 0.984 . S
H927 N921 0.985 . S
H928 N925 0.984 . S
H929 N925 0.985 . S
H930 N924 0.984 . S
H931 N924 0.984 . S
H932 N920 0.984 . S
H933 N920 0.985 . S
C934 C935 1.363 . S
C934 C940 1.379 . S
C934 N942 1.356 . S
C935 C934 1.363 . S
C935 C941 1.363 . S
C936 C937 1.363 . S
C936 C941 1.379 . S
C936 N943 1.356 . S
C937 C936 1.363 . S
C937 C940 1.363 . S
N938 C940 1.356 . S
N938 H950 0.984 . S
N938 H951 0.985 . S
N939 C941 1.356 . S
N939 H944 0.984 . S
N939 H945 0.985 . S
C940 C934 1.379 . S
C940 C937 1.363 . S
C940 N938 1.356 . S
C941 C935 1.363 . S
C941 C936 1.379 . S
C941 N939 1.356 . S
N942 C934 1.356 . S
N942 H948 0.984 . S
N942 H949 0.984 . S
N943 C936 1.356 . S
N943 H946 0.984 . S
N943 H947 0.985 . S
H944 N939 0.984 . S
H945 N939 0.985 . S
H946 N943 0.984 . S
H947 N943 0.985 . S
H948 N942 0.984 . S
H949 N942 0.984 . S
H950 N938 0.984 . S
H951 N938 0.985 . S
C952 C953 1.363 . S
C952 C958 1.379 . S
C952 N960 1.356 . S
C953 C952 1.363 . S
C953 C959 1.363 . S
C954 C955 1.361 1_455 S
C954 C959 1.378 1_455 S
C954 N961 1.358 . S
C955 C954 1.361 1_655 S
C955 C958 1.363 . S
N956 C958 1.356 . S
N956 H968 0.984 . S
N956 H969 0.985 . S
N957 C959 1.356 1_455 S
N957 H962 0.984 . S
N957 H963 0.985 . S
C958 C952 1.379 . S
C958 C955 1.363 . S
C958 N956 1.356 . S
C959 C953 1.363 . S
C959 C954 1.378 1_655 S
C959 N957 1.356 1_655 S
N960 C952 1.356 . S
N960 H966 0.984 . S
N960 H967 0.984 . S
N961 C954 1.358 . S
N961 H964 0.984 . S
N961 H965 0.985 . S
H962 N957 0.984 . S
H963 N957 0.985 . S
H964 N961 0.984 . S
H965 N961 0.985 . S
H966 N960 0.984 . S
H967 N960 0.984 . S
H968 N956 0.984 . S
H969 N956 0.985 . S
C970 C971 1.346 1_545 S
C970 C976 1.381 . S
C970 N978 1.367 . S
C971 C970 1.346 1_565 S
C971 C977 1.363 . S
C972 C973 1.363 . S
C972 C977 1.379 . S
C972 N979 1.356 . S
C973 C972 1.363 . S
C973 C976 1.363 1_565 S
N974 C976 1.356 . S
N974 H986 0.984 . S
N974 H987 0.985 . S
N975 C977 1.356 . S
N975 H980 0.984 . S
N975 H981 0.985 . S
C976 C970 1.381 . S
C976 C973 1.363 1_545 S
C976 N974 1.356 . S
C977 C971 1.363 . S
C977 C972 1.379 . S
C977 N975 1.356 . S
N978 C970 1.367 . S
N978 H984 0.984 . S
N978 H985 0.984 . S
N979 C972 1.356 . S
N979 H982 0.984 . S
N979 H983 0.985 . S
H980 N975 0.984 . S
H981 N975 0.985 . S
H982 N979 0.984 . S
H983 N979 0.985 . S
H984 N978 0.984 . S
H985 N978 0.984 . S
H986 N974 0.984 . S
H987 N974 0.985 . S
C988 C989 1.363 . S
C988 C994 1.379 . S
C988 N996 1.356 . S
C989 C988 1.363 . S
C989 C995 1.363 . S
C990 C991 1.363 . S
C990 C995 1.379 . S
C990 N997 1.356 . S
C991 C990 1.363 . S
C991 C994 1.363 . S
N992 C994 1.356 . S
N992 H1004 0.984 . S
N992 H1005 0.985 . S
N993 C995 1.356 . S
N993 H998 0.984 . S
N993 H999 0.985 . S
C994 C988 1.379 . S
C994 C991 1.363 . S
C994 N992 1.356 . S
C995 C989 1.363 . S
C995 C990 1.379 . S
C995 N993 1.356 . S
N996 C988 1.356 . S
N996 H1002 0.984 . S
N996 H1003 0.984 . S
N997 C990 1.356 . S
N997 H1000 0.984 . S
N997 H1001 0.985 . S
H998 N993 0.984 . S
H999 N993 0.985 . S
H1000 N997 0.984 . S
H1001 N997 0.985 . S
H1002 N996 0.984 . S
H1003 N996 0.984 . S
H1004 N992 0.984 . S
H1005 N992 0.985 . S
C1006 C1007 1.363 . S
C1006 C1012 1.379 . S
C1006 N1014 1.356 . S
C1007 C1006 1.363 . S
C1007 C1013 1.363 . S
C1008 C1009 1.363 . S
C1008 C1013 1.379 . S
C1008 N1015 1.356 . S
C1009 C1008 1.363 . S
C1009 C1012 1.363 . S
N1010 C1012 1.356 . S
N1010 H1022 0.984 . S
N1010 H1023 0.985 . S
N1011 C1013 1.356 . S
N1011 H1016 0.984 . S
N1011 H1017 0.985 . S
C1012 C1006 1.379 . S
C1012 C1009 1.363 . S
C1012 N1010 1.356 . S
C1013 C1007 1.363 . S
C1013 C1008 1.379 . S
C1013 N1011 1.356 . S
N1014 C1006 1.356 . S
N1014 H1020 0.984 . S
N1014 H1021 0.984 . S
N1015 C1008 1.356 . S
N1015 H1018 0.984 . S
N1015 H1019 0.985 . S
H1016 N1011 0.984 . S
H1017 N1011 0.985 . S
H1018 N1015 0.984 . S
H1019 N1015 0.985 . S
H1020 N1014 0.984 . S
H1021 N1014 0.984 . S
H1022 N1010 0.984 . S
H1023 N1010 0.985 . S
C593 C215 2.391 . S
C595 C319 2.579 . S
C613 C396 2.577 . S
C611 C247 2.392 . S
C631 C487 2.583 . S
C629 C151 2.393 . S
C649 C571 2.564 . S
C647 C183 2.377 . S
C667 C330 2.579 1_565 S
C665 C87 2.330 . S
C683 C119 2.330 . S
C685 C407 2.578 . S
C701 C23 2.334 . S
C703 C498 2.583 . S
C719 C55 2.317 . S
C721 C582 2.564 1_655 S
C739 C314 0.766 . S
C737 C189 0.766 . S
C757 C409 0.752 . S
C755 C221 0.752 . S
C775 C482 0.778 . S
C773 C253 0.778 . S
C791 C157 0.754 . S
C793 C566 0.754 . S
C809 C61 0.757 . S
C811 C325 0.765 1_554 S
C829 C398 0.752 . S
C827 C93 0.751 . S
C847 C493 0.779 . S
C845 C125 0.762 . S
C863 C29 0.752 . S
C865 C577 0.754 1_554 S
C881 C177 2.587 . S
C883 C323 2.894 . S
C899 C209 2.598 . S
C901 C414 2.979 . S
C919 C491 2.910 . S
C917 C241 2.602 . S
C937 C575 2.914 . S
C935 C145 2.606 . S
C953 C49 2.558 . S
C955 C312 2.894 . S
C973 C403 2.979 . S
C971 C81 2.565 . S
C991 C480 2.910 . S
C989 C113 2.570 . S
C1007 C17 2.577 . S
C1009 C564 2.913 . S
