# Generated by pormake.
# Topology pyr, (3,6)-cn, num edge types: 1
# Building blocks:
#     Node 0, Type 0, BuildingBlock: BELTOD_clean_linker_0, # of connection points: 3
#     Node 1, Type 0, BuildingBlock: BELTOD_clean_linker_0, # of connection points: 3
#     Node 2, Type 0, BuildingBlock: BELTOD_clean_linker_0, # of connection points: 3
#     Node 3, Type 0, BuildingBlock: BELTOD_clean_linker_0, # of connection points: 3
#     Node 4, Type 0, BuildingBlock: BELTOD_clean_linker_0, # of connection points: 3
#     Node 5, Type 0, BuildingBlock: BELTOD_clean_linker_0, # of connection points: 3
#     Node 6, Type 0, BuildingBlock: BELTOD_clean_linker_0, # of connection points: 3
#     Node 7, Type 0, BuildingBlock: BELTOD_clean_linker_0, # of connection points: 3
#     Node 8, Type 1, BuildingBlock: VOLQOD_clean_sbu_1, # of connection points: 6
#     Node 9, Type 1, BuildingBlock: VOLQOD_clean_sbu_1, # of connection points: 6
#     Node 10, Type 1, BuildingBlock: VOLQOD_clean_sbu_1, # of connection points: 6
#     Node 11, Type 1, BuildingBlock: VOLQOD_clean_sbu_1, # of connection points: 6
#     Edge 12, Type (0, 1), None
#     Edge 13, Type (0, 1), None
#     Edge 14, Type (0, 1), None
#     Edge 15, Type (0, 1), None
#     Edge 16, Type (0, 1), None
#     Edge 17, Type (0, 1), None
#     Edge 18, Type (0, 1), None
#     Edge 19, Type (0, 1), None
#     Edge 20, Type (0, 1), None
#     Edge 21, Type (0, 1), None
#     Edge 22, Type (0, 1), None
#     Edge 23, Type (0, 1), None
#     Edge 24, Type (0, 1), None
#     Edge 25, Type (0, 1), None
#     Edge 26, Type (0, 1), None
#     Edge 27, Type (0, 1), None
#     Edge 28, Type (0, 1), None
#     Edge 29, Type (0, 1), None
#     Edge 30, Type (0, 1), None
#     Edge 31, Type (0, 1), None
#     Edge 32, Type (0, 1), None
#     Edge 33, Type (0, 1), None
#     Edge 34, Type (0, 1), None
#     Edge 35, Type (0, 1), None
# Relax obj value: 0.037
# Max RMSD: 0.117
# Mean RMSD: 0.050
data_MOF--net-pry--node1-VOLQOD_clean_sbu_1--node2-BELTOD_clean_linker_0--edge1-none
_symmetry_space_group_name_H-M    P1
_symmetry_Int_Tables_number       1
_symmetry_cell_setting            triclinic
loop_
_symmetry_equiv_pos_as_xyz
'x, y, z'
_cell_length_a     22.406751
_cell_length_b     22.852106
_cell_length_c     22.356031
_cell_angle_alpha  89.821731
_cell_angle_beta   90.11585
_cell_angle_gamma 89.890418
loop_
_atom_site_label
_atom_site_type_symbol
_atom_site_fract_x
_atom_site_fract_y
_atom_site_fract_z
_atom_type_partial_charge
P0 P 0.16884 0.16861 0.15104 0.0
H1 H 0.23967 0.18499 0.04447 0.0
H2 H 0.31039 0.12255 -0.00631 0.0
H3 H 0.2614 0.97842 0.10932 0.0
H4 H 0.18721 0.04069 0.15763 0.0
H5 H 0.07236 0.23758 0.19938 0.0
H6 H 0.01444 0.317 0.1564 0.0
H7 H 0.08282 0.27462 0.98104 0.0
H8 H 0.13818 0.19289 0.02402 0.0
H9 H 0.21775 0.15878 0.2709 0.0
H10 H 0.06035 0.10137 0.17668 0.0
O11 O 0.2196 0.2179 0.17187 0.0
H12 H 0.1792 0.11784 0.36332 0.0
H13 H 0.02097 0.05939 0.26985 0.0
C14 C 0.20732 0.11748 0.10413 0.0
C15 C 0.24149 0.13914 0.05672 0.0
C16 C 0.28251 0.10326 0.02799 0.0
C17 C 0.29201 0.04559 0.04797 0.0
C18 C 0.25512 0.02272 0.09307 0.0
C19 C 0.2127 0.05842 0.12076 0.0
C20 C 0.1105 0.20974 0.11524 0.0
C21 C 0.07294 0.24357 0.1513 0.0
C22 C 0.04003 0.28939 0.1266 0.0
C23 C 0.04546 0.30308 0.06553 0.0
C24 C 0.07873 0.26576 0.02849 0.0
C25 C 0.11076 0.21907 0.05321 0.0
C26 C 0.14118 0.13418 0.21753 0.0
C27 C 0.17473 0.1373 0.27019 0.0
C28 C 0.15254 0.11378 0.32307 0.0
C29 C 0.09657 0.08608 0.32408 0.0
C30 C 0.06404 0.08082 0.27051 0.0
C31 C 0.08633 0.10479 0.21742 0.0
P32 P 0.43174 0.90409 0.58081 0.0
H33 H 0.53412 0.8754 0.65715 0.0
H34 H 0.55234 0.88851 0.76451 0.0
H35 H 0.38585 0.98347 0.77905 0.0
H36 H 0.36796 0.97012 0.67366 0.0
H37 H 0.43589 0.83808 0.46993 0.0
H38 H 0.44387 0.73305 0.44871 0.0
H39 H 0.44951 0.69653 0.63829 0.0
H40 H 0.43811 0.80042 0.65924 0.0
H41 H 0.37588 0.00999 0.53302 0.0
H42 H 0.32035 0.84347 0.6049 0.0
O43 O 0.47689 0.94184 0.53579 0.0
H44 H 0.27183 0.04203 0.52883 0.0
H45 H 0.21652 0.87466 0.60067 0.0
C46 C 0.4491 0.92041 0.65751 0.0
C47 C 0.50181 0.89917 0.68367 0.0
C48 C 0.51189 0.90627 0.74497 0.0
C49 C 0.46994 0.93603 0.78042 0.0
C50 C 0.41871 0.95964 0.75324 0.0
C51 C 0.40844 0.95197 0.69246 0.0
C52 C 0.43917 0.82725 0.56601 0.0
C53 C 0.43891 0.80737 0.50681 0.0
C54 C 0.4428 0.74753 0.4948 0.0
C55 C 0.44781 0.70711 0.54199 0.0
C56 C 0.44648 0.72706 0.60121 0.0
C57 C 0.44091 0.78661 0.61314 0.0
C58 C 0.35546 0.92379 0.5674 0.0
C59 C 0.34113 0.97992 0.54663 0.0
C60 C 0.28172 -0.00161 0.54512 0.0
C61 C 0.23588 0.96096 0.56474 0.0
C62 C 0.25067 0.90457 0.58523 0.0
C63 C 0.31001 0.88634 0.58689 0.0
P64 P 0.65774 0.32785 0.84813 0.0
H65 H 0.74385 0.29626 0.93849 0.0
H66 H 0.81862 0.35273 -0.00829 0.0
H67 H 0.74473 0.51262 0.91861 0.0
H68 H 0.66694 0.45589 0.86872 0.0
H69 H 0.58325 0.23632 0.80105 0.0
H70 H 0.53272 0.15375 0.84742 0.0
H71 H 0.58488 0.21632 0.02209 0.0
H72 H 0.63236 0.30127 0.97544 0.0
H73 H 0.69707 0.41381 0.7627 0.0
H74 H 0.52925 0.33765 0.81672 0.0
O75 O 0.70721 0.28986 0.80822 0.0
H76 H 0.64688 0.46487 0.68112 0.0
H77 H 0.47971 0.38517 0.73169 0.0
C78 C 0.70048 0.37163 0.89896 0.0
C79 C 0.74225 0.34359 0.93572 0.0
C80 C 0.78506 0.37603 0.96601 0.0
C81 C 0.78797 0.43704 0.95838 0.0
C82 C 0.74377 0.46557 0.92458 0.0
C83 C 0.69956 0.43301 0.89578 0.0
C84 C 0.61167 0.27472 0.88468 0.0
C85 C 0.58218 0.23335 0.84942 0.0
C86 C 0.55332 0.1862 0.876 0.0
C87 C 0.55537 0.17861 0.9383 0.0
C88 C 0.58305 0.22121 0.9739 0.0
C89 C 0.6104 0.26956 0.9472 0.0
C90 C 0.61708 0.37175 0.79547 0.0
C91 C 0.64926 0.40879 0.75753 0.0
C92 C 0.62055 0.43796 0.71107 0.0
C93 C 0.55962 0.4286 0.70044 0.0
C94 C 0.52683 0.39279 0.73932 0.0
C95 C 0.55528 0.36534 0.78749 0.0
P96 P 0.8568 0.67481 0.37394 0.0
H97 H 0.94831 0.74794 0.32503 0.0
H98 H 0.0075 0.82584 0.36844 0.0
H99 H 0.94444 0.77829 0.54457 0.0
H100 H 0.88632 0.69844 0.50069 0.0
H101 H 0.8015 0.60745 0.28033 0.0
H102 H 0.84206 0.55315 0.19574 0.0
H103 H 0.02092 0.586 0.25977 0.0
H104 H 0.98006 0.63707 0.34651 0.0
H105 H 0.77047 0.71235 0.46214 0.0
H106 H 0.83855 0.54886 0.39378 0.0
O107 O 0.8126 0.72192 0.33768 0.0
H108 H 0.68444 0.66106 0.50401 0.0
H109 H 0.75138 0.49815 0.43284 0.0
C110 C 0.91279 0.71789 0.40962 0.0
C111 C 0.94911 0.75259 0.37324 0.0
C112 C 0.98282 0.79716 0.39809 0.0
C113 C 0.97955 0.80851 0.45962 0.0
C114 C 0.94772 0.77018 0.49697 0.0
C115 C 0.91409 0.72497 0.47188 0.0
C116 C 0.88785 0.62768 0.31837 0.0
C117 C 0.84939 0.6018 0.27683 0.0
C118 C 0.87253 0.57054 0.2289 0.0
C119 C 0.93449 0.56625 0.2213 0.0
C120 C 0.97295 0.58941 0.26473 0.0
C121 C 0.94962 0.61906 0.31382 0.0
C122 C 0.80981 0.63462 0.42366 0.0
C123 C 0.7679 0.66521 0.45791 0.0
C124 C 0.71878 0.63594 0.48159 0.0
C125 C 0.7109 0.57615 0.46997 0.0
C126 C 0.75619 0.5446 0.44119 0.0
C127 C 0.80594 0.57364 0.41884 0.0
P128 P 0.93196 0.93236 0.94983 0.0
H129 H 0.86315 0.98583 0.04751 0.0
H130 H 0.75551 -0.00818 0.06671 0.0
H131 H 0.72154 0.89827 0.90232 0.0
H132 H 0.82794 0.89445 0.88266 0.0
H133 H 0.98999 0.86703 0.04754 0.0
H134 H 0.00551 0.76187 0.06416 0.0
H135 H 0.92119 0.72563 0.89418 0.0
H136 H 0.90779 0.82981 0.8772 0.0
H137 H 0.87817 0.01605 0.86552 0.0
H138 H 0.02485 0.89354 0.86746 0.0
O139 O 0.97169 0.97377 -0.00346 0.0
H140 H 0.8957 0.03552 0.75947 0.0
H141 H 0.04248 0.91226 0.76161 0.0
C142 C 0.85341 0.94007 0.96347 0.0
C143 C 0.83235 0.9671 0.01551 0.0
C144 C 0.77096 0.97015 0.02658 0.0
C145 C 0.73013 0.94503 0.98628 0.0
C146 C 0.75178 0.91736 0.93467 0.0
C147 C 0.81276 0.91528 0.92325 0.0
C148 C 0.94809 0.85614 0.96102 0.0
C149 C 0.9756 0.83635 0.01366 0.0
C150 C 0.98424 0.77636 0.02315 0.0
C151 C 0.96416 0.7356 0.98061 0.0
C152 C 0.93655 0.75587 0.92807 0.0
C153 C 0.92891 0.81556 0.91829 0.0
C154 C 0.94904 0.952 0.87378 0.0
C155 C 0.91413 -0.00669 0.8431 0.0
C156 C 0.9242 0.00435 0.78243 0.0
C157 C 0.96969 0.9745 0.75168 0.0
C158 C 0.00633 0.9352 0.78355 0.0
C159 C -0.0036 0.92451 0.84419 0.0
P160 P 0.63889 0.1111 0.35568 0.0
H161 H 0.6902 0.22626 0.36139 0.0
H162 H 0.65413 0.31931 0.39845 0.0
H163 H 0.49484 0.23492 0.46529 0.0
H164 H 0.53198 0.14062 0.42728 0.0
H165 H 0.72469 0.02057 0.32914 0.0
H166 H 0.81511 -0.01016 0.37983 0.0
H167 H 0.76711 0.09511 0.53292 0.0
H168 H 0.67481 0.12412 0.48223 0.0
H169 H 0.52553 0.1416 0.3021 0.0
H170 H 0.62499 0.98359 0.33875 0.0
O171 O 0.67662 0.13227 0.29506 0.0
H172 H 0.47533 0.09329 0.21968 0.0
H173 H 0.57581 0.93586 0.25444 0.0
C174 C 0.6128 0.17719 0.38994 0.0
C175 C 0.64748 0.22761 0.38394 0.0
C176 C 0.62668 0.28088 0.4052 0.0
C177 C 0.57094 0.28471 0.43366 0.0
C178 C 0.53766 0.23334 0.44295 0.0
C179 C 0.55866 0.17963 0.42122 0.0
C180 C 0.6929 0.07444 0.40184 0.0
C181 C 0.73209 0.035 0.37466 0.0
C182 C 0.7844 0.0181 0.40354 0.0
C183 C 0.79909 0.04125 0.45987 0.0
C184 C 0.75731 0.07694 0.48932 0.0
C185 C 0.70441 0.09347 0.46036 0.0
C186 C 0.57982 0.06665 0.32625 0.0
C187 C 0.53391 0.09543 0.2952 0.0
C188 C 0.50522 0.06784 0.24774 0.0
C189 C 0.52225 0.01125 0.23085 0.0
C190 C 0.56168 0.97942 0.26724 0.0
C191 C 0.59022 0.00705 0.31516 0.0
P192 P 0.4227 0.55752 0.06778 0.0
H193 H 0.3527 0.50976 0.96897 0.0
H194 H 0.24495 0.49876 0.95365 0.0
H195 H 0.2132 0.56427 0.13186 0.0
H196 H 0.31984 0.57323 0.1476 0.0
H197 H 0.5264 0.61761 0.01782 0.0
H198 H 0.54817 0.72157 0.00149 0.0
H199 H 0.37057 0.76596 0.06153 0.0
H200 H 0.3488 0.66306 0.07616 0.0
H201 H 0.48164 0.46128 0.13193 0.0
H202 H 0.40995 0.63194 0.17307 0.0
O203 O 0.46271 0.51342 0.02396 0.0
H204 H 0.50323 0.44548 0.23854 0.0
H205 H 0.42867 0.61515 0.27893 0.0
C206 C 0.34458 0.54156 0.05963 0.0
C207 C 0.32256 0.52052 0.00513 0.0
C208 C 0.26109 0.51456 -0.00365 0.0
C209 C 0.22094 0.5312 0.04149 0.0
C210 C 0.24318 0.55165 0.09617 0.0
C211 C 0.30445 0.55624 0.10533 0.0
C212 C 0.43576 0.63244 0.04735 0.0
C213 C 0.49185 0.64974 0.02619 0.0
C214 C 0.50428 0.70905 0.01717 0.0
C215 C 0.46116 0.75174 0.03076 0.0
C216 C 0.40484 0.73406 0.05118 0.0
C217 C 0.39217 0.67496 0.05905 0.0
C218 C 0.44451 0.54786 0.14452 0.0
C219 C 0.471 0.49544 0.16364 0.0
C220 C 0.48308 0.48638 0.22437 0.0
C221 C 0.46691 0.52895 0.26657 0.0
C222 C 0.44091 0.58148 0.24718 0.0
C223 C 0.43063 0.5912 0.18656 0.0
P224 P 0.12306 0.39591 0.64962 0.0
H225 H 0.04319 0.31607 0.71066 0.0
H226 H 0.00276 0.2215 0.67919 0.0
H227 H 0.05911 0.25688 0.49819 0.0
H228 H 0.09664 0.35241 0.52887 0.0
H229 H 0.16155 0.50771 0.59347 0.0
H230 H 0.25259 0.53119 0.53733 0.0
H231 H 0.29731 0.34722 0.53148 0.0
H232 H 0.20774 0.32444 0.58785 0.0
H233 H -0.00462 0.42233 0.66715 0.0
H234 H 0.16622 0.49778 0.71127 0.0
O235 O 0.16101 0.3645 0.70549 0.0
H236 H 0.95205 0.46678 0.75628 0.0
H237 H 0.12284 0.54226 0.79986 0.0
C238 C 0.07426 0.34019 0.62232 0.0
C239 C 0.04434 0.30457 0.6637 0.0
C240 C 0.02124 0.25076 0.64583 0.0
C241 C 0.02908 0.23222 0.58675 0.0
C242 C 0.05329 0.27058 0.54418 0.0
C243 C 0.07494 0.32492 0.56176 0.0
C244 C 0.17865 0.41444 0.59536 0.0
C245 C 0.1903 0.4725 0.57877 0.0
C246 C 0.242 0.48578 0.54633 0.0
C247 C 0.28225 0.441 0.53089 0.0
C248 C 0.2674 0.38263 0.54336 0.0
C249 C 0.21617 0.36956 0.5755 0.0
C250 C 0.08443 0.45563 0.68361 0.0
C251 C 0.02279 0.45122 0.6938 0.0
C252 C -0.00217 0.47681 0.74463 0.0
C253 C 0.03469 0.50671 0.78484 0.0
C254 C 0.09384 0.51915 0.76911 0.0
C255 C 0.11854 0.49401 0.71825 0.0
O256 O 0.976 0.1427 0.5846 0.0
Zn257 Zn 0.95484 0.05748 0.57623 0.0
O258 O 0.01646 0.01705 0.53013 0.0
Zn259 Zn 0.98602 -0.00585 0.45308 0.0
Zn260 Zn 0.08414 0.06687 0.51584 0.0
Zn261 Zn 0.04264 0.94799 0.57355 0.0
O262 O 0.99243 0.90863 0.44436 0.0
O263 O 0.01057 0.87452 0.53581 0.0
O264 O 0.87416 0.05214 0.53526 0.0
O265 O 0.8995 0.01242 0.44836 0.0
O266 O 0.02692 0.03164 0.38256 0.0
O267 O 0.098 0.08034 0.42944 0.0
O268 O 0.16057 0.03154 0.5448 0.0
O269 O 0.95057 0.02485 0.66012 0.0
O270 O 0.13192 0.94236 0.57177 0.0
O271 O 0.01654 0.95213 0.65926 0.0
C272 C 0.02365 0.17035 0.57209 0.0
C273 C -0.00227 0.86632 0.481 0.0
C274 C 0.07249 0.06462 0.38145 0.0
C275 C 0.86034 0.03359 0.48331 0.0
C276 C 0.17285 0.97959 0.56143 0.0
C277 C 0.97925 0.98427 0.68693 0.0
O278 O 0.06881 0.14554 0.5489 0.0
O279 O 0.49502 0.0943 0.93651 0.0
Zn280 Zn 0.45581 0.01803 0.95195 0.0
O281 O 0.5027 0.971 0.0061 0.0
Zn282 Zn 0.54158 0.91015 0.95978 0.0
Zn283 Zn 0.56191 0.02062 0.04353 0.0
Zn284 Zn 0.45024 0.93792 0.06708 0.0
O285 O 0.51514 0.83085 0.98849 0.0
O286 O 0.445 0.85104 0.05597 0.0
O287 O 0.44749 0.98154 0.87227 0.0
O288 O 0.52035 0.91574 0.87213 0.0
O289 O 0.6304 0.91696 0.96602 0.0
O290 O 0.64501 -0.00974 0.02937 0.0
O291 O 0.5474 0.02464 0.13082 0.0
O292 O 0.37616 0.03535 0.98568 0.0
O293 O 0.47942 0.95642 0.15113 0.0
O294 O 0.36823 0.97468 0.06288 0.0
C295 C 0.53459 0.12322 0.96428 0.0
C296 C 0.47467 0.81452 0.02483 0.0
C297 C 0.66516 0.95012 -0.00442 0.0
C298 C 0.47963 0.94437 0.84505 0.0
C299 C 0.51602 -0.0043 0.1678 0.0
C300 C 0.34663 0.01459 0.02928 0.0
O301 O 0.56172 0.10202 0.00942 0.0
O302 O 0.55083 0.50019 0.62557 0.0
Zn303 Zn 0.53874 0.54261 0.54933 0.0
O304 O 0.49995 0.49312 0.4907 0.0
Zn305 Zn 0.55604 0.47253 0.42888 0.0
Zn306 Zn 0.47307 0.42086 0.52796 0.0
Zn307 Zn 0.43337 0.53726 0.45729 0.0
O308 O 0.52402 0.49316 0.3478 0.0
O309 O 0.43788 0.53768 0.36768 0.0
O310 O 0.61995 0.56636 0.5223 0.0
O311 O 0.63378 0.51276 0.44082 0.0
O312 O 0.57272 0.38759 0.42813 0.0
O313 O 0.50485 0.34781 0.48748 0.0
O314 O 0.38463 0.41971 0.52871 0.0
O315 O 0.49459 0.6171 0.56349 0.0
O316 O 0.35496 0.50254 0.48501 0.0
O317 O 0.43535 0.62137 0.48381 0.0
C318 C 0.53351 0.45077 0.64483 0.0
C319 C 0.47659 0.51894 0.3307 0.0
C320 C 0.54809 0.34285 0.45098 0.0
C321 C 0.65253 0.54911 0.47941 0.0
C322 C 0.34348 0.45459 0.51189 0.0
C323 C 0.4587 0.64495 0.52969 0.0
O324 O 0.50223 0.41639 0.61298 0.0
O325 O 0.93 0.50493 0.13691 0.0
Zn326 Zn 0.94799 0.46556 0.06007 0.0
O327 O -0.00554 0.51488 0.00879 0.0
Zn328 Zn 0.94204 0.55022 0.94912 0.0
Zn329 Zn 0.03285 0.57384 0.05732 0.0
Zn330 Zn 0.05364 0.46622 0.97122 0.0
O331 O 0.97494 0.53874 0.866 0.0
O332 O 0.05048 0.47753 0.88351 0.0
O333 O 0.87192 0.44516 0.02095 0.0
O334 O 0.86037 0.51232 0.94979 0.0
O335 O 0.9387 0.63694 0.96126 0.0
O336 O 0.01246 0.65408 0.02585 0.0
O337 O 0.12173 0.56268 0.05954 0.0
O338 O 0.98995 0.39053 0.07647 0.0
O339 O 0.13591 0.48983 -0.00443 0.0
O340 O 0.04625 0.38136 -0.00452 0.0
C341 C 0.95811 0.54478 0.16459 0.0
C342 C 0.01889 0.50831 0.84805 0.0
C343 C 0.97192 0.67221 0.99022 0.0
C344 C 0.84132 0.46832 0.97927 0.0
C345 C 0.15614 0.52783 0.03161 0.0
C346 C 0.02399 0.36018 0.04328 0.0
O347 O 0.0016 0.57196 0.14097 0.0
loop_
_geom_bond_atom_site_label_1
_geom_bond_atom_site_label_2
_geom_bond_distance
_geom_bond_site_symmetry_2
_ccdc_geom_bond_type
P0 O11 1.490 . S
P0 C14 1.812 . S
P0 C20 1.803 . S
P0 C26 1.819 . S
H1 C15 0.941 . S
H2 C16 0.939 . S
H3 C18 0.940 . S
H4 C19 0.940 . S
H5 C21 0.939 . S
H6 C22 0.942 . S
H7 C24 0.940 . S
H8 C25 0.939 . S
H9 C27 0.941 . S
H10 C31 0.939 . S
O11 P0 1.490 . S
H12 C28 0.939 . S
H13 C30 0.940 1_655 S
C14 P0 1.812 . S
C14 C15 1.389 . S
C14 C19 1.391 . S
C15 H1 0.941 . S
C15 C14 1.389 . S
C15 C16 1.397 . S
C16 H2 0.939 . S
C16 C15 1.397 . S
C16 C17 1.378 . S
C17 C16 1.378 . S
C17 C18 1.378 . S
C18 H3 0.940 . S
C18 C17 1.378 . S
C18 C19 1.396 . S
C19 H4 0.940 . S
C19 C14 1.391 . S
C19 C18 1.396 . S
C20 P0 1.803 . S
C20 C21 1.378 . S
C20 C25 1.400 . S
C21 H5 0.939 . S
C21 C20 1.378 . S
C21 C22 1.361 . S
C22 H6 0.942 . S
C22 C21 1.361 . S
C22 C23 1.369 . S
C23 C22 1.369 . S
C23 C24 1.404 . S
C24 H7 0.940 . S
C24 C23 1.404 . S
C24 C25 1.389 . S
C25 H8 0.939 . S
C25 C20 1.400 . S
C25 C24 1.389 . S
C26 P0 1.819 . S
C26 C27 1.391 . S
C26 C31 1.391 . S
C27 H9 0.941 . S
C27 C26 1.391 . S
C27 C28 1.396 . S
C28 H12 0.939 . S
C28 C27 1.396 . S
C28 C29 1.397 . S
C29 C28 1.397 . S
C29 C30 1.385 . S
C30 H13 0.940 1_455 S
C30 C29 1.385 . S
C30 C31 1.388 . S
C31 H10 0.939 . S
C31 C26 1.391 . S
C31 C30 1.388 . S
P32 O43 1.490 . S
P32 C46 1.812 . S
P32 C52 1.803 . S
P32 C58 1.819 . S
H33 C47 0.941 . S
H34 C48 0.939 . S
H35 C50 0.940 . S
H36 C51 0.940 . S
H37 C53 0.939 . S
H38 C54 0.942 . S
H39 C56 0.940 . S
H40 C57 0.939 . S
H41 C59 0.941 1_545 S
H42 C63 0.939 . S
O43 P32 1.490 . S
H44 C60 0.939 1_545 S
H45 C62 0.940 . S
C46 P32 1.812 . S
C46 C47 1.389 . S
C46 C51 1.391 . S
C47 H33 0.941 . S
C47 C46 1.389 . S
C47 C48 1.397 . S
C48 H34 0.939 . S
C48 C47 1.397 . S
C48 C49 1.378 . S
C49 C48 1.378 . S
C49 C50 1.378 . S
C50 H35 0.940 . S
C50 C49 1.378 . S
C50 C51 1.396 . S
C51 H36 0.940 . S
C51 C46 1.391 . S
C51 C50 1.396 . S
C52 P32 1.803 . S
C52 C53 1.378 . S
C52 C57 1.400 . S
C53 H37 0.939 . S
C53 C52 1.378 . S
C53 C54 1.361 . S
C54 H38 0.942 . S
C54 C53 1.361 . S
C54 C55 1.369 . S
C55 C54 1.369 . S
C55 C56 1.404 . S
C56 H39 0.940 . S
C56 C55 1.404 . S
C56 C57 1.389 . S
C57 H40 0.939 . S
C57 C52 1.400 . S
C57 C56 1.389 . S
C58 P32 1.819 . S
C58 C59 1.391 . S
C58 C63 1.391 . S
C59 H41 0.941 1_565 S
C59 C58 1.391 . S
C59 C60 1.396 . S
C60 H44 0.939 1_565 S
C60 C59 1.396 . S
C60 C61 1.397 . S
C61 C60 1.397 . S
C61 C62 1.385 . S
C62 H45 0.940 . S
C62 C61 1.385 . S
C62 C63 1.388 . S
C63 H42 0.939 . S
C63 C58 1.391 . S
C63 C62 1.388 . S
P64 O75 1.490 . S
P64 C78 1.812 . S
P64 C84 1.803 . S
P64 C90 1.819 . S
H65 C79 0.941 . S
H66 C80 0.939 . S
H67 C82 0.940 . S
H68 C83 0.940 . S
H69 C85 0.939 . S
H70 C86 0.942 . S
H71 C88 0.940 1_554 S
H72 C89 0.939 . S
H73 C91 0.941 . S
H74 C95 0.939 . S
O75 P64 1.490 . S
H76 C92 0.939 . S
H77 C94 0.940 . S
C78 P64 1.812 . S
C78 C79 1.389 . S
C78 C83 1.391 . S
C79 H65 0.941 . S
C79 C78 1.389 . S
C79 C80 1.397 . S
C80 H66 0.939 . S
C80 C79 1.397 . S
C80 C81 1.378 . S
C81 C80 1.378 . S
C81 C82 1.378 . S
C82 H67 0.940 . S
C82 C81 1.378 . S
C82 C83 1.396 . S
C83 H68 0.940 . S
C83 C78 1.391 . S
C83 C82 1.396 . S
C84 P64 1.803 . S
C84 C85 1.378 . S
C84 C89 1.400 . S
C85 H69 0.939 . S
C85 C84 1.378 . S
C85 C86 1.361 . S
C86 H70 0.942 . S
C86 C85 1.361 . S
C86 C87 1.369 . S
C87 C86 1.369 . S
C87 C88 1.404 . S
C88 H71 0.940 1_556 S
C88 C87 1.404 . S
C88 C89 1.389 . S
C89 H72 0.939 . S
C89 C84 1.400 . S
C89 C88 1.389 . S
C90 P64 1.819 . S
C90 C91 1.391 . S
C90 C95 1.391 . S
C91 H73 0.941 . S
C91 C90 1.391 . S
C91 C92 1.396 . S
C92 H76 0.939 . S
C92 C91 1.396 . S
C92 C93 1.397 . S
C93 C92 1.397 . S
C93 C94 1.385 . S
C94 H77 0.940 . S
C94 C93 1.385 . S
C94 C95 1.388 . S
C95 H74 0.939 . S
C95 C90 1.391 . S
C95 C94 1.388 . S
P96 O107 1.490 . S
P96 C110 1.812 . S
P96 C116 1.803 . S
P96 C122 1.819 . S
H97 C111 0.941 . S
H98 C112 0.939 . S
H99 C114 0.940 . S
H100 C115 0.940 . S
H101 C117 0.939 . S
H102 C118 0.942 . S
H103 C120 0.940 1_455 S
H104 C121 0.939 . S
H105 C123 0.941 . S
H106 C127 0.939 . S
O107 P96 1.490 . S
H108 C124 0.939 . S
H109 C126 0.940 . S
C110 P96 1.812 . S
C110 C111 1.389 . S
C110 C115 1.391 . S
C111 H97 0.941 . S
C111 C110 1.389 . S
C111 C112 1.397 . S
C112 H98 0.939 . S
C112 C111 1.397 . S
C112 C113 1.378 . S
C113 C112 1.378 . S
C113 C114 1.378 . S
C114 H99 0.940 . S
C114 C113 1.378 . S
C114 C115 1.396 . S
C115 H100 0.940 . S
C115 C110 1.391 . S
C115 C114 1.396 . S
C116 P96 1.803 . S
C116 C117 1.378 . S
C116 C121 1.400 . S
C117 H101 0.939 . S
C117 C116 1.378 . S
C117 C118 1.361 . S
C118 H102 0.942 . S
C118 C117 1.361 . S
C118 C119 1.369 . S
C119 C118 1.369 . S
C119 C120 1.404 . S
C120 H103 0.940 1_655 S
C120 C119 1.404 . S
C120 C121 1.389 . S
C121 H104 0.939 . S
C121 C116 1.400 . S
C121 C120 1.389 . S
C122 P96 1.819 . S
C122 C123 1.391 . S
C122 C127 1.391 . S
C123 H105 0.941 . S
C123 C122 1.391 . S
C123 C124 1.396 . S
C124 H108 0.939 . S
C124 C123 1.396 . S
C124 C125 1.397 . S
C125 C124 1.397 . S
C125 C126 1.385 . S
C126 H109 0.940 . S
C126 C125 1.385 . S
C126 C127 1.388 . S
C127 H106 0.939 . S
C127 C122 1.391 . S
C127 C126 1.388 . S
P128 O139 1.490 1_566 S
P128 C142 1.812 . S
P128 C148 1.803 . S
P128 C154 1.819 . S
H129 C143 0.941 . S
H130 C144 0.939 . S
H131 C146 0.940 . S
H132 C147 0.940 . S
H133 C149 0.939 . S
H134 C150 0.942 . S
H135 C152 0.940 . S
H136 C153 0.939 . S
H137 C155 0.941 . S
H138 C159 0.939 . S
O139 P128 1.490 1_544 S
H140 C156 0.939 . S
H141 C158 0.940 . S
C142 P128 1.812 . S
C142 C143 1.389 1_566 S
C142 C147 1.391 . S
C143 H129 0.941 . S
C143 C142 1.389 1_544 S
C143 C144 1.397 . S
C144 H130 0.939 . S
C144 C143 1.397 . S
C144 C145 1.378 . S
C145 C144 1.378 . S
C145 C146 1.378 1_544 S
C146 H131 0.940 . S
C146 C145 1.378 1_566 S
C146 C147 1.396 . S
C147 H132 0.940 . S
C147 C142 1.391 . S
C147 C146 1.396 . S
C148 P128 1.803 . S
C148 C149 1.378 1_656 S
C148 C153 1.400 . S
C149 H133 0.939 . S
C149 C148 1.378 1_454 S
C149 C150 1.361 . S
C150 H134 0.942 . S
C150 C149 1.361 . S
C150 C151 1.369 1_455 S
C151 C150 1.369 1_655 S
C151 C152 1.404 1_554 S
C152 H135 0.940 . S
C152 C151 1.404 1_556 S
C152 C153 1.389 . S
C153 H136 0.939 . S
C153 C148 1.400 . S
C153 C152 1.389 . S
C154 P128 1.819 . S
C154 C155 1.391 1_565 S
C154 C159 1.391 . S
C155 H137 0.941 . S
C155 C154 1.391 1_545 S
C155 C156 1.396 . S
C156 H140 0.939 . S
C156 C155 1.396 . S
C156 C157 1.397 . S
C157 C156 1.397 . S
C157 C158 1.385 1_545 S
C158 H141 0.940 . S
C158 C157 1.385 1_565 S
C158 C159 1.388 . S
C159 H138 0.939 . S
C159 C154 1.391 . S
C159 C158 1.388 . S
P160 O171 1.490 . S
P160 C174 1.812 . S
P160 C180 1.803 . S
P160 C186 1.819 . S
H161 C175 0.941 . S
H162 C176 0.939 . S
H163 C178 0.940 . S
H164 C179 0.940 . S
H165 C181 0.939 . S
H166 C182 0.942 . S
H167 C184 0.940 . S
H168 C185 0.939 . S
H169 C187 0.941 . S
H170 C191 0.939 . S
O171 P160 1.490 . S
H172 C188 0.939 . S
H173 C190 0.944 . S
C174 P160 1.812 . S
C174 C175 1.389 . S
C174 C179 1.391 . S
C175 H161 0.941 . S
C175 C174 1.389 . S
C175 C176 1.397 . S
C176 H162 0.939 . S
C176 C175 1.397 . S
C176 C177 1.378 . S
C177 C176 1.378 . S
C177 C178 1.378 . S
C178 H163 0.940 . S
C178 C177 1.378 . S
C178 C179 1.396 . S
C179 H164 0.940 . S
C179 C174 1.391 . S
C179 C178 1.396 . S
C180 P160 1.803 . S
C180 C181 1.378 . S
C180 C185 1.400 . S
C181 H165 0.939 . S
C181 C180 1.378 . S
C181 C182 1.361 . S
C182 H166 0.942 . S
C182 C181 1.361 . S
C182 C183 1.369 . S
C183 C182 1.369 . S
C183 C184 1.404 . S
C184 H167 0.940 . S
C184 C183 1.404 . S
C184 C185 1.389 . S
C185 H168 0.939 . S
C185 C180 1.400 . S
C185 C184 1.389 . S
C186 P160 1.819 . S
C186 C187 1.391 . S
C186 C191 1.391 . S
C187 H169 0.941 . S
C187 C186 1.391 . S
C187 C188 1.396 . S
C188 H172 0.939 . S
C188 C187 1.396 . S
C188 C189 1.397 . S
C189 C188 1.397 . S
C189 C190 1.383 1_545 S
C190 H173 0.944 . S
C190 C189 1.383 1_565 S
C190 C191 1.386 1_565 S
C191 H170 0.939 . S
C191 C186 1.391 . S
C191 C190 1.386 1_545 S
P192 O203 1.490 . S
P192 C206 1.812 . S
P192 C212 1.803 . S
P192 C218 1.819 . S
H193 C207 0.941 . S
H194 C208 0.939 . S
H195 C210 0.940 . S
H196 C211 0.940 . S
H197 C213 0.939 . S
H198 C214 0.945 . S
H199 C216 0.940 . S
H200 C217 0.939 . S
H201 C219 0.941 . S
H202 C223 0.939 . S
O203 P192 1.490 . S
H204 C220 0.939 . S
H205 C222 0.940 . S
C206 P192 1.812 . S
C206 C207 1.389 1_554 S
C206 C211 1.391 . S
C207 H193 0.941 . S
C207 C206 1.389 1_556 S
C207 C208 1.397 . S
C208 H194 0.939 . S
C208 C207 1.397 . S
C208 C209 1.378 1_556 S
C209 C208 1.378 1_554 S
C209 C210 1.378 . S
C210 H195 0.940 . S
C210 C209 1.378 . S
C210 C211 1.396 . S
C211 H196 0.940 . S
C211 C206 1.391 . S
C211 C210 1.396 . S
C212 P192 1.803 . S
C212 C213 1.378 . S
C212 C217 1.400 . S
C213 H197 0.939 . S
C213 C212 1.378 . S
C213 C214 1.361 . S
C214 H198 0.945 . S
C214 C213 1.361 . S
C214 C215 1.369 . S
C215 C214 1.369 . S
C215 C216 1.404 . S
C216 H199 0.940 . S
C216 C215 1.404 . S
C216 C217 1.389 . S
C217 H200 0.939 . S
C217 C212 1.400 . S
C217 C216 1.389 . S
C218 P192 1.819 . S
C218 C219 1.391 . S
C218 C223 1.391 . S
C219 H201 0.941 . S
C219 C218 1.391 . S
C219 C220 1.396 . S
C220 H204 0.939 . S
C220 C219 1.396 . S
C220 C221 1.397 . S
C221 C220 1.397 . S
C221 C222 1.385 . S
C222 H205 0.940 . S
C222 C221 1.385 . S
C222 C223 1.388 . S
C223 H202 0.939 . S
C223 C218 1.391 . S
C223 C222 1.388 . S
P224 O235 1.490 . S
P224 C238 1.812 . S
P224 C244 1.803 . S
P224 C250 1.819 . S
H225 C239 0.941 . S
H226 C240 0.939 . S
H227 C242 0.940 1_655 S
H228 C243 0.940 . S
H229 C245 0.939 . S
H230 C246 0.942 . S
H231 C248 0.940 . S
H232 C249 0.939 . S
H233 C251 0.941 . S
H234 C255 0.939 . S
O235 P224 1.490 . S
H236 C252 0.939 . S
H237 C254 0.940 . S
C238 P224 1.812 . S
C238 C239 1.389 . S
C238 C243 1.391 . S
C239 H225 0.941 . S
C239 C238 1.389 . S
C239 C240 1.397 . S
C240 H226 0.939 . S
C240 C239 1.397 . S
C240 C241 1.378 . S
C241 C240 1.378 . S
C241 C242 1.378 . S
C242 H227 0.940 1_455 S
C242 C241 1.378 . S
C242 C243 1.396 . S
C243 H228 0.940 . S
C243 C238 1.391 . S
C243 C242 1.396 . S
C244 P224 1.803 . S
C244 C245 1.378 . S
C244 C249 1.400 . S
C245 H229 0.939 . S
C245 C244 1.378 . S
C245 C246 1.361 . S
C246 H230 0.942 . S
C246 C245 1.361 . S
C246 C247 1.369 . S
C247 C246 1.369 . S
C247 C248 1.404 . S
C248 H231 0.940 . S
C248 C247 1.404 . S
C248 C249 1.389 . S
C249 H232 0.939 . S
C249 C244 1.400 . S
C249 C248 1.389 . S
C250 P224 1.819 . S
C250 C251 1.391 . S
C250 C255 1.391 . S
C251 H233 0.941 . S
C251 C250 1.391 . S
C251 C252 1.396 . S
C252 H236 0.939 . S
C252 C251 1.396 . S
C252 C253 1.397 . S
C253 C252 1.397 . S
C253 C254 1.385 . S
C254 H237 0.940 . S
C254 C253 1.385 . S
C254 C255 1.388 . S
C255 H234 0.939 . S
C255 C250 1.391 . S
C255 C254 1.388 . S
O256 Zn257 1.953 . S
O256 C272 1.225 1_655 S
Zn257 O256 1.953 . S
Zn257 O258 1.949 1_655 S
Zn257 O264 1.919 . S
Zn257 O269 1.924 . S
O258 Zn257 1.949 1_455 S
O258 Zn259 1.923 1_445 S
O258 Zn260 1.950 . S
O258 Zn261 1.945 1_545 S
Zn259 O258 1.923 1_665 S
Zn259 O262 1.933 . S
Zn259 O265 1.941 1_565 S
Zn259 O266 1.965 1_665 S
Zn260 O258 1.950 . S
Zn260 O267 1.938 . S
Zn260 O268 1.906 1_545 S
Zn260 O278 1.953 . S
Zn261 O258 1.945 1_565 S
Zn261 O263 1.932 1_455 S
Zn261 O270 1.977 . S
Zn261 O271 1.910 1_455 S
O262 Zn259 1.933 . S
O262 C273 1.226 . S
O263 Zn261 1.932 1_655 S
O263 C273 1.307 . S
O264 Zn257 1.919 . S
O264 C275 1.253 . S
O265 Zn259 1.941 1_545 S
O265 C275 1.283 . S
O266 Zn259 1.965 1_445 S
O266 C274 1.303 . S
O267 Zn260 1.938 . S
O267 C274 1.247 . S
O268 Zn260 1.906 1_565 S
O268 C276 1.304 . S
O269 Zn257 1.924 . S
O269 C277 1.311 1_545 S
O270 Zn261 1.977 . S
O270 C276 1.272 . S
O271 Zn261 1.910 1_655 S
O271 C277 1.231 . S
C272 O256 1.225 1_455 S
C272 O278 1.298 . S
C273 O262 1.226 . S
C273 O263 1.307 . S
C274 O266 1.303 . S
C274 O267 1.247 . S
C275 O264 1.253 . S
C275 O265 1.283 . S
C276 O268 1.304 . S
C276 O270 1.272 . S
C277 O269 1.311 1_565 S
C277 O271 1.231 . S
O278 Zn260 1.953 . S
O278 C272 1.298 . S
O279 Zn280 1.953 . S
O279 C295 1.225 . S
Zn280 O279 1.953 . S
Zn280 O281 1.949 1_556 S
Zn280 O287 1.919 . S
Zn280 O292 1.924 . S
O281 Zn280 1.949 1_554 S
O281 Zn282 1.923 1_544 S
O281 Zn283 1.950 . S
O281 Zn284 1.945 1_545 S
Zn282 O281 1.923 1_566 S
Zn282 O285 1.933 1_556 S
Zn282 O288 1.941 . S
Zn282 O289 1.965 . S
Zn283 O281 1.950 . S
Zn283 O290 1.938 . S
Zn283 O291 1.906 . S
Zn283 O301 1.953 . S
Zn284 O281 1.945 1_565 S
Zn284 O286 1.932 . S
Zn284 O293 1.977 1_565 S
Zn284 O294 1.910 1_565 S
O285 Zn282 1.933 1_554 S
O285 C296 1.226 . S
O286 Zn284 1.932 . S
O286 C296 1.307 . S
O287 Zn280 1.919 . S
O287 C298 1.253 1_545 S
O288 Zn282 1.941 . S
O288 C298 1.283 . S
O289 Zn282 1.965 . S
O289 C297 1.303 . S
O290 Zn283 1.938 . S
O290 C297 1.247 1_544 S
O291 Zn283 1.906 . S
O291 C299 1.304 . S
O292 Zn280 1.924 . S
O292 C300 1.311 1_556 S
O293 Zn284 1.977 1_545 S
O293 C299 1.272 . S
O294 Zn284 1.910 1_545 S
O294 C300 1.231 . S
C295 O279 1.225 . S
C295 O301 1.298 1_556 S
C296 O285 1.226 . S
C296 O286 1.307 . S
C297 O289 1.303 . S
C297 O290 1.247 1_566 S
C298 O287 1.253 1_565 S
C298 O288 1.283 . S
C299 O291 1.304 . S
C299 O293 1.272 . S
C300 O292 1.311 1_554 S
C300 O294 1.231 . S
O301 Zn283 1.953 . S
O301 C295 1.298 1_554 S
O302 Zn303 1.953 . S
O302 C318 1.225 . S
Zn303 O302 1.953 . S
Zn303 O304 1.949 . S
Zn303 O310 1.919 . S
Zn303 O315 1.924 . S
O304 Zn303 1.949 . S
O304 Zn305 1.923 . S
O304 Zn306 1.950 . S
O304 Zn307 1.945 . S
Zn305 O304 1.923 . S
Zn305 O308 1.933 . S
Zn305 O311 1.941 . S
Zn305 O312 1.965 . S
Zn306 O304 1.950 . S
Zn306 O313 1.938 . S
Zn306 O314 1.906 . S
Zn306 O324 1.953 . S
Zn307 O304 1.945 . S
Zn307 O309 1.932 . S
Zn307 O316 1.977 . S
Zn307 O317 1.910 . S
O308 Zn305 1.933 . S
O308 C319 1.226 . S
O309 Zn307 1.932 . S
O309 C319 1.307 . S
O310 Zn303 1.919 . S
O310 C321 1.253 . S
O311 Zn305 1.941 . S
O311 C321 1.283 . S
O312 Zn305 1.965 . S
O312 C320 1.303 . S
O313 Zn306 1.938 . S
O313 C320 1.247 . S
O314 Zn306 1.906 . S
O314 C322 1.304 . S
O315 Zn303 1.924 . S
O315 C323 1.311 . S
O316 Zn307 1.977 . S
O316 C322 1.272 . S
O317 Zn307 1.910 . S
O317 C323 1.231 . S
C318 O302 1.225 . S
C318 O324 1.298 . S
C319 O308 1.226 . S
C319 O309 1.307 . S
C320 O312 1.303 . S
C320 O313 1.247 . S
C321 O310 1.253 . S
C321 O311 1.283 . S
C322 O314 1.304 . S
C322 O316 1.272 . S
C323 O315 1.311 . S
C323 O317 1.231 . S
O324 Zn306 1.953 . S
O324 C318 1.298 . S
O325 Zn326 1.953 . S
O325 C341 1.225 . S
Zn326 O325 1.953 . S
Zn326 O327 1.949 1_655 S
Zn326 O333 1.919 . S
Zn326 O338 1.924 . S
O327 Zn326 1.949 1_455 S
O327 Zn328 1.923 1_454 S
O327 Zn329 1.950 . S
O327 Zn330 1.945 1_554 S
Zn328 O327 1.923 1_656 S
Zn328 O331 1.933 1_655 S
Zn328 O334 1.941 . S
Zn328 O335 1.965 . S
Zn329 O327 1.950 . S
Zn329 O336 1.938 . S
Zn329 O337 1.906 . S
Zn329 O347 1.953 . S
Zn330 O327 1.945 1_556 S
Zn330 O332 1.932 . S
Zn330 O339 1.977 1_556 S
Zn330 O340 1.910 1_556 S
O331 Zn328 1.933 1_455 S
O331 C342 1.226 . S
O332 Zn330 1.932 . S
O332 C342 1.307 . S
O333 Zn326 1.919 . S
O333 C344 1.253 1_554 S
O334 Zn328 1.941 . S
O334 C344 1.283 . S
O335 Zn328 1.965 . S
O335 C343 1.303 . S
O336 Zn329 1.938 . S
O336 C343 1.247 1_454 S
O337 Zn329 1.906 . S
O337 C345 1.304 . S
O338 Zn326 1.924 . S
O338 C346 1.311 1_655 S
O339 Zn330 1.977 1_554 S
O339 C345 1.272 . S
O340 Zn330 1.910 1_554 S
O340 C346 1.231 . S
C341 O325 1.225 . S
C341 O347 1.298 1_655 S
C342 O331 1.226 . S
C342 O332 1.307 . S
C343 O335 1.303 . S
C343 O336 1.247 1_656 S
C344 O333 1.253 1_556 S
C344 O334 1.283 . S
C345 O337 1.304 . S
C345 O339 1.272 . S
C346 O338 1.311 1_455 S
C346 O340 1.231 . S
O347 Zn329 1.953 . S
O347 C341 1.298 1_455 S
C29 C274 1.634 . S
C49 C298 1.618 . S
C318 C93 1.413 . S
C119 C341 1.360 . S
C300 C17 1.666 . S
C276 C61 1.865 . S
C344 C81 1.546 . S
C321 C125 1.591 . S
C23 C346 1.293 . S
C295 C87 1.548 . S
C113 C273 1.624 . S
C55 C323 1.505 . S
C277 C157 2.192 1_565 S
C189 C299 1.645 . S
C221 C319 2.235 . S
C253 C342 1.838 . S
C145 C297 2.117 1_544 S
C275 C183 1.831 . S
C345 C209 1.881 . S
C322 C247 1.513 . S
C151 C343 2.342 1_554 S
C296 C215 2.233 . S
C272 C241 1.822 . S
C177 C320 1.952 . S
