# Generated by pormake.
# Topology zzz, (3,6)-cn, num edge types: 1
# Building blocks:
#     Node 0, Type 0, BuildingBlock: QEWDON_clean_linker_0, # of connection points: 3
#     Node 1, Type 0, BuildingBlock: QEWDON_clean_linker_0, # of connection points: 3
#     Node 2, Type 0, BuildingBlock: QEWDON_clean_linker_0, # of connection points: 3
#     Node 3, Type 0, BuildingBlock: QEWDON_clean_linker_0, # of connection points: 3
#     Node 4, Type 0, BuildingBlock: QEWDON_clean_linker_0, # of connection points: 3
#     Node 5, Type 0, BuildingBlock: QEWDON_clean_linker_0, # of connection points: 3
#     Node 6, Type 0, BuildingBlock: QEWDON_clean_linker_0, # of connection points: 3
#     Node 7, Type 0, BuildingBlock: QEWDON_clean_linker_0, # of connection points: 3
#     Node 8, Type 1, BuildingBlock: CUWYAW_clean_sbu_0, # of connection points: 6
#     Node 9, Type 1, BuildingBlock: CUWYAW_clean_sbu_0, # of connection points: 6
#     Node 10, Type 1, BuildingBlock: CUWYAW_clean_sbu_0, # of connection points: 6
#     Node 11, Type 1, BuildingBlock: CUWYAW_clean_sbu_0, # of connection points: 6
#     Edge 12, Type (0, 1), BuildingBlock: AJUNOK_clean_linker_0, # of connection points: 2
#     Edge 13, Type (0, 1), BuildingBlock: AJUNOK_clean_linker_0, # of connection points: 2
#     Edge 14, Type (0, 1), BuildingBlock: AJUNOK_clean_linker_0, # of connection points: 2
#     Edge 15, Type (0, 1), BuildingBlock: AJUNOK_clean_linker_0, # of connection points: 2
#     Edge 16, Type (0, 1), BuildingBlock: AJUNOK_clean_linker_0, # of connection points: 2
#     Edge 17, Type (0, 1), BuildingBlock: AJUNOK_clean_linker_0, # of connection points: 2
#     Edge 18, Type (0, 1), BuildingBlock: AJUNOK_clean_linker_0, # of connection points: 2
#     Edge 19, Type (0, 1), BuildingBlock: AJUNOK_clean_linker_0, # of connection points: 2
#     Edge 20, Type (0, 1), BuildingBlock: AJUNOK_clean_linker_0, # of connection points: 2
#     Edge 21, Type (0, 1), BuildingBlock: AJUNOK_clean_linker_0, # of connection points: 2
#     Edge 22, Type (0, 1), BuildingBlock: AJUNOK_clean_linker_0, # of connection points: 2
#     Edge 23, Type (0, 1), BuildingBlock: AJUNOK_clean_linker_0, # of connection points: 2
#     Edge 24, Type (0, 1), BuildingBlock: AJUNOK_clean_linker_0, # of connection points: 2
#     Edge 25, Type (0, 1), BuildingBlock: AJUNOK_clean_linker_0, # of connection points: 2
#     Edge 26, Type (0, 1), BuildingBlock: AJUNOK_clean_linker_0, # of connection points: 2
#     Edge 27, Type (0, 1), BuildingBlock: AJUNOK_clean_linker_0, # of connection points: 2
#     Edge 28, Type (0, 1), BuildingBlock: AJUNOK_clean_linker_0, # of connection points: 2
#     Edge 29, Type (0, 1), BuildingBlock: AJUNOK_clean_linker_0, # of connection points: 2
#     Edge 30, Type (0, 1), BuildingBlock: AJUNOK_clean_linker_0, # of connection points: 2
#     Edge 31, Type (0, 1), BuildingBlock: AJUNOK_clean_linker_0, # of connection points: 2
#     Edge 32, Type (0, 1), BuildingBlock: AJUNOK_clean_linker_0, # of connection points: 2
#     Edge 33, Type (0, 1), BuildingBlock: AJUNOK_clean_linker_0, # of connection points: 2
#     Edge 34, Type (0, 1), BuildingBlock: AJUNOK_clean_linker_0, # of connection points: 2
#     Edge 35, Type (0, 1), BuildingBlock: AJUNOK_clean_linker_0, # of connection points: 2
# Relax obj value: 0.233
# Max RMSD: 0.166
# Mean RMSD: 0.097
data_MOF--net-zzz--node1-CUWYAW_clean_sbu_0--node2-QEWDON_clean_linker_0--edge1-AJUNOK_clean_linker_0
_symmetry_space_group_name_H-M    P1
_symmetry_Int_Tables_number       1
_symmetry_cell_setting            triclinic
loop_
_symmetry_equiv_pos_as_xyz
'x, y, z'
_cell_length_a     40.152183
_cell_length_b     40.148586
_cell_length_c     10.581189
_cell_angle_alpha  89.932206
_cell_angle_beta   89.737612
_cell_angle_gamma 89.932882
loop_
_atom_site_label
_atom_site_type_symbol
_atom_site_fract_x
_atom_site_fract_y
_atom_site_fract_z
_atom_type_partial_charge
H0 H 0.77137 0.48932 0.26585 0.0
C1 C 0.79091 0.49901 0.3256 0.0
C2 C 0.822 0.48341 0.32204 0.0
C3 C 0.78513 0.52658 0.4053 0.0
H4 H 0.87209 0.48309 0.39302 0.0
C5 C 0.84771 0.49475 0.39961 0.0
C6 C 0.84356 0.52224 0.4786 0.0
C7 C 0.81212 0.53846 0.48099 0.0
C8 C 0.75051 0.54126 0.41199 0.0
H9 H 0.80883 0.56001 0.54113 0.0
C10 C 0.72848 0.54058 0.30664 0.0
C11 C 0.69446 0.5501 0.31819 0.0
C12 C 0.7382 0.55349 0.52742 0.0
H13 H 0.75367 0.55392 0.61088 0.0
C14 C 0.70524 0.56422 0.53848 0.0
H15 H 0.73791 0.5329 0.21535 0.0
C16 C 0.68362 0.5624 0.4358 0.0
H17 H 0.65815 0.57026 0.44979 0.0
H18 H 0.69614 0.57336 0.62846 0.0
H19 H 0.0881 0.76366 0.31224 0.0
C20 C 0.07775 0.784 0.36646 0.0
C21 C 0.09623 0.81361 0.37258 0.0
C22 C 0.04625 0.78123 0.42611 0.0
H23 H 0.09764 0.86365 0.44677 0.0
C24 C 0.08416 0.84024 0.44519 0.0
C25 C 0.05336 0.83887 0.50578 0.0
C26 C 1.03399 0.80963 0.49399 0.0
C27 C 1.02636 0.74913 0.41578 0.0
H28 H 1.00944 0.80956 0.53631 0.0
C29 C 1.03177 0.72529 0.31732 0.0
C30 C 1.01324 0.69514 0.31095 0.0
C31 C 1.00187 0.74162 0.5072 0.0
H32 H 0.9974 0.75775 0.58719 0.0
C33 C 0.98266 0.71282 0.49847 0.0
H34 H 0.05023 0.72987 0.24492 0.0
C35 C 0.9879 0.69009 0.401 0.0
H36 H 0.97162 0.6687 0.3959 0.0
H37 H 0.96346 0.70803 0.56832 0.0
H38 H 0.8261 0.08934 0.32773 0.0
C39 C 0.80589 0.0802 0.38585 0.0
C40 C 0.77645 0.09888 0.38819 0.0
C41 C 0.80872 0.05012 0.45494 0.0
H42 H 0.72638 0.10188 0.45977 0.0
C43 C 0.74979 0.08838 0.46362 0.0
C44 C 0.75135 0.05963 0.53707 0.0
C45 C 0.7806 1.03985 0.53004 0.0
C46 C 0.84079 1.02996 0.44747 0.0
H47 H 0.78102 1.01669 0.58216 0.0
C48 C 0.86398 1.03318 0.345 0.0
C49 C 0.89441 1.01499 0.34146 0.0
C50 C 0.84909 1.00771 0.54539 0.0
H51 H 0.83339 1.0049 0.62791 0.0
C52 C 0.87822 0.98877 0.54006 0.0
H53 H 0.85869 0.04974 0.2672 0.0
C54 C 0.90043 0.99205 0.43914 0.0
H55 H 0.92216 0.97611 0.43744 0.0
H56 H 0.88371 0.97136 0.61539 0.0
H57 H 0.48954 0.81943 0.29262 0.0
C58 C 0.49908 0.79972 0.3523 0.0
C59 C 0.48369 0.76861 0.34754 0.0
C60 C 0.52621 0.80529 0.43425 0.0
H61 H 0.48425 0.7181 0.41324 0.0
C62 C 0.49534 0.74262 0.42308 0.0
C63 C 0.52113 0.74694 0.50891 0.0
C64 C 0.53719 0.77838 0.51317 0.0
C65 C 0.54116 0.83971 0.44054 0.0
H66 H 0.55778 0.78178 0.57754 0.0
C67 C 0.54167 0.86132 0.33358 0.0
C68 C 0.55158 0.89521 0.34353 0.0
C69 C 0.55264 0.85223 0.5563 0.0
H70 H 0.55211 0.83709 0.64096 0.0
C71 C 0.56396 0.88497 0.56582 0.0
H72 H 0.53462 0.85161 0.24233 0.0
C73 C 0.56336 0.90619 0.46128 0.0
H74 H 0.57175 0.93148 0.47397 0.0
H75 H 0.57262 0.89423 0.65591 0.0
H76 H 0.319 0.60166 0.27045 0.0
C77 C 0.2995 0.59195 0.21053 0.0
C78 C 0.26901 0.60874 0.20808 0.0
C79 C 0.30461 0.56291 0.13809 0.0
H80 H 0.21944 0.60979 0.13209 0.0
C81 C 0.24343 0.59729 0.13001 0.0
C82 C 0.24697 0.56843 0.05792 0.0
C83 C 0.27768 0.55094 0.06252 0.0
C84 C 0.33846 0.54653 0.13968 0.0
H85 H 0.28042 0.52825 0.00824 0.0
C86 C 0.35938 0.54771 0.24812 0.0
C87 C 0.39304 0.53665 0.24383 0.0
C88 C 0.3513 0.53206 0.02896 0.0
H89 H 0.33663 0.5311 0.94346 0.0
C90 C 0.38376 0.51966 0.02532 0.0
H91 H 0.34927 0.55698 0.33615 0.0
C92 C 0.40442 0.52206 0.13071 0.0
H93 H 0.42958 0.5128 0.12213 0.0
H94 H 0.3933 0.50875 0.9389 0.0
H95 H 0.99635 0.31861 0.2862 0.0
C96 C 1.00571 0.29858 0.2275 0.0
C97 C 0.98959 0.26781 0.23305 0.0
C98 C 1.03325 0.30346 0.14635 0.0
H99 H 0.98842 0.21731 0.16525 0.0
C100 C 1.00053 0.24141 0.15721 0.0
C101 C 1.02812 0.24469 0.07768 0.0
C102 C 0.04466 0.27585 0.07224 0.0
C103 C 0.04874 0.33765 0.13707 0.0
H104 H 0.06639 0.27831 0.01205 0.0
C105 C 0.04863 0.3604 0.24066 0.0
C106 C 0.06065 0.39344 0.22688 0.0
C107 C 0.06182 0.34869 0.02085 0.0
H108 H 0.06171 0.33273 0.9385 0.0
C109 C 0.07416 0.38098 0.00738 0.0
H110 H 1.03968 0.35244 0.33241 0.0
C111 C 0.07352 0.40314 0.10877 0.0
H112 H 0.08269 0.42822 0.094 0.0
H113 H 0.08384 0.3891 0.9168 0.0
H114 H 0.2724 0.99239 0.30753 0.0
C115 C 0.29193 1.00246 0.24791 0.0
C116 C 0.32382 0.98886 0.25717 0.0
C117 C 0.28531 1.02827 0.16066 0.0
H118 H 0.37455 0.99103 0.19379 0.0
C119 C 0.34961 1.00104 0.18146 0.0
C120 C 0.34439 1.02561 0.09079 0.0
C121 C 0.31208 1.03982 0.08143 0.0
C122 C 0.25003 1.04102 0.14874 0.0
H123 H 0.30788 0.05932 0.01262 0.0
C124 C 0.22751 1.04165 0.2536 0.0
C125 C 0.19366 0.05065 0.23774 0.0
C126 C 0.23774 0.05032 0.02945 0.0
H127 H 0.25353 0.04948 0.94636 0.0
C128 C 0.20444 0.05962 0.01427 0.0
H129 H 0.23603 1.03508 0.3473 0.0
C130 C 0.18256 0.05967 0.11714 0.0
H131 H 0.15679 0.06666 0.10248 0.0
H132 H 0.19539 0.06639 0.92149 0.0
H133 H 0.59977 0.27379 0.28314 0.0
C134 C 0.58895 0.29316 0.22497 0.0
C135 C 0.60398 0.32456 0.22303 0.0
C136 C 0.56078 0.28667 0.14923 0.0
H137 H 0.60147 0.37468 0.15279 0.0
C138 C 0.59047 0.34999 0.14905 0.0
C139 C 0.56341 0.3447 0.07009 0.0
C140 C 0.54804 0.31294 0.07124 0.0
C141 C 0.54669 0.2519 0.14584 0.0
H142 H 0.52671 0.30873 0.01117 0.0
C143 C 0.54647 0.23076 0.25425 0.0
C144 C 0.5358 0.19723 0.24571 0.0
C145 C 0.53544 0.23867 0.03058 0.0
H146 H 0.53587 0.25347 0.94502 0.0
C147 C 0.52459 0.2057 0.02262 0.0
H148 H 0.55467 0.24016 0.3448 0.0
C149 C 0.52485 0.18513 0.12895 0.0
H150 H 0.51638 0.15962 0.12015 0.0
H151 H 0.51626 0.1959 0.93289 0.0
C152 C 0.97588 0.07546 0.53072 0.0
Eu153 Eu 1.01608 0.04951 0.69621 0.0
C154 C 0.95645 0.10615 0.52353 0.0
C155 C 0.9521 0.12637 0.63046 0.0
C156 C 0.94046 0.159 0.6169 0.0
C157 C 0.93354 0.17181 0.49601 0.0
C158 C 0.93474 0.15002 0.39147 0.0
C159 C 0.94606 0.11745 0.4054 0.0
C160 C 0.98928 1.0277 0.91746 0.0
C161 C 0.04515 0.11057 0.87191 0.0
C162 C 0.10959 1.00796 0.01681 0.0
Eu163 Eu 0.06676 1.03515 0.86395 0.0
C164 C 0.11936 0.97296 0.03491 0.0
C165 C 0.15314 0.96374 0.03677 0.0
C166 C 0.16225 0.93041 0.05639 0.0
C167 C 0.1376 0.90593 0.0723 0.0
C168 C 0.10388 0.91525 0.06452 0.0
C169 C 0.09488 0.94828 0.04604 0.0
C170 C 0.09163 0.05543 0.63602 0.0
C171 C 1.03627 0.97392 0.69927 0.0
O172 O 1.00819 0.07927 0.52679 0.0
O173 O 0.96646 0.05387 0.61562 0.0
O174 O 0.97979 1.0185 0.80647 0.0
O175 O 1.01362 0.04786 0.9089 0.0
O176 O 1.02901 0.10206 0.76812 0.0
O177 O 0.06021 0.08734 0.93838 0.0
O178 O 0.0793 1.01607 0.05077 0.0
O179 O 0.11786 1.02076 0.90815 0.0
O180 O 0.09954 0.06843 0.74362 0.0
O181 O 0.06833 1.03458 0.65225 0.0
O182 O 0.04943 0.98269 0.80846 0.0
O183 O 1.02515 0.99735 0.62328 0.0
H184 H 0.95991 0.11777 0.72281 0.0
H185 H 0.93979 0.17506 0.69906 0.0
H186 H 0.93046 0.15893 0.29632 0.0
H187 H 0.94924 0.102 0.32221 0.0
H188 H 0.17241 0.98244 0.02638 0.0
H189 H 0.18839 0.92394 0.06245 0.0
H190 H 0.0842 0.89718 0.07902 0.0
H191 H 0.06863 0.95449 0.0429 0.0
C192 C 0.52076 0.99491 0.48597 0.0
Eu193 Eu 0.53994 1.02341 0.693 0.0
C194 C 0.49449 0.97038 0.46332 0.0
C195 C 0.48084 0.95247 0.56535 0.0
C196 C 0.44947 0.93782 0.55458 0.0
C197 C 0.43148 0.94123 0.44221 0.0
C198 C 0.44714 0.95526 0.33549 0.0
C199 C 0.47844 0.97 0.34635 0.0
C200 C 0.54549 0.98787 0.9116 0.0
C201 C 0.47652 0.04707 0.87071 0.0
C202 C 0.57503 0.11502 0.05239 0.0
Eu203 Eu 0.55069 0.07436 0.88578 0.0
C204 C 0.60991 0.12285 0.08279 0.0
C205 C 0.62124 0.15598 0.07929 0.0
C206 C 0.65503 0.1632 0.09769 0.0
C207 C 0.67787 0.13727 0.11871 0.0
C208 C 0.66629 0.10424 0.12232 0.0
C209 C 0.6328 0.09709 0.1041 0.0
C210 C 0.53152 0.09983 0.65926 0.0
C211 C 0.61591 0.04424 0.73328 0.0
O212 O 0.50977 1.02411 0.5228 0.0
O213 O 0.54627 0.98462 0.55191 0.0
O214 O 0.54114 0.97521 0.80106 0.0
O215 O 0.54744 1.01943 0.90472 0.0
O216 O 0.48669 1.03303 0.76387 0.0
O217 O 0.49767 0.06297 0.94424 0.0
O218 O 0.5644 0.08509 0.08093 0.0
O219 O 0.56566 0.12446 0.94024 0.0
O220 O 0.51771 0.10722 0.76653 0.0
O221 O 0.55318 0.07722 0.67585 0.0
O222 O 0.6044 0.06136 0.831 0.0
O223 O 0.59535 1.02814 0.65856 0.0
H224 H 0.49288 0.95246 0.65662 0.0
H225 H 0.43791 0.92685 0.63727 0.0
H226 H 0.43364 0.95834 0.24777 0.0
H227 H 0.48862 0.98372 0.26681 0.0
H228 H 0.60398 0.1762 0.06149 0.0
H229 H 0.66328 0.18886 0.09528 0.0
H230 H 0.68315 0.08376 0.14133 0.0
H231 H 0.62498 0.07128 0.10553 0.0
C232 C 0.59157 0.51972 0.45292 0.0
Eu233 Eu 0.56653 0.53788 0.66767 0.0
C234 C 0.61616 0.49364 0.42543 0.0
C235 C 0.63571 0.48051 0.52357 0.0
C236 C 0.65221 0.45014 0.50807 0.0
C237 C 0.64941 0.43264 0.39414 0.0
C238 C 0.63257 0.44754 0.29209 0.0
C239 C 0.61587 0.47776 0.30799 0.0
C240 C 0.60241 0.54242 0.88782 0.0
C241 C 0.54211 0.47603 0.85108 0.0
C242 C 0.49225 0.57084 0.11886 0.0
Eu243 Eu 0.51747 0.55251 0.90471 0.0
C244 C 0.46841 0.59769 0.14474 0.0
C245 C 0.44918 0.61077 0.04554 0.0
C246 C 0.4346 0.64222 0.05675 0.0
C247 C 0.4391 0.66079 0.16723 0.0
C248 C 0.455 0.64598 0.27144 0.0
C249 C 0.46982 0.61466 0.25988 0.0
C250 C 0.48191 0.54746 0.68343 0.0
C251 C 0.54163 0.61444 0.72218 0.0
O252 O 0.56293 0.50854 0.49559 0.0
O253 O 0.60253 0.54545 0.51653 0.0
O254 O 0.61534 0.53657 0.77781 0.0
O255 O 0.57136 0.54582 0.87327 0.0
O256 O 0.55581 0.48562 0.74227 0.0
O257 O 0.5279 0.49723 0.93114 0.0
O258 O 0.52139 0.58122 0.07816 0.0
O259 O 0.48082 0.54554 0.05403 0.0
O260 O 0.46868 0.55351 0.79282 0.0
O261 O 0.51288 0.5444 0.69961 0.0
O262 O 0.5278 0.60479 0.83056 0.0
O263 O 0.55602 0.59332 0.64216 0.0
H264 H 0.63607 0.49229 0.61543 0.0
H265 H 0.66475 0.43901 0.58809 0.0
H266 H 0.62943 0.43424 0.20388 0.0
H267 H 0.60071 0.48738 0.23169 0.0
H268 H 0.4479 0.59812 0.95551 0.0
H269 H 0.4225 0.65323 0.97556 0.0
H270 H 0.45906 0.66004 0.35738 0.0
H271 H 0.48467 0.60504 0.33704 0.0
C272 C 0.07348 0.61106 0.50517 0.0
Eu273 Eu 0.05065 0.57084 0.67813 0.0
C274 C 0.10342 0.63149 0.49204 0.0
C275 C 0.12224 0.64041 0.59829 0.0
C276 C 0.15426 0.65352 0.58288 0.0
C277 C 0.16798 0.65706 0.46113 0.0
C278 C 0.14749 0.65121 0.35552 0.0
C279 C 0.11547 0.63853 0.37104 0.0
C280 C 1.02955 0.59745 0.90073 0.0
C281 C 0.11407 0.54632 0.85095 0.0
C282 C 1.01866 0.47848 0.02358 0.0
Eu283 Eu 1.04019 0.5203 0.85366 0.0
C284 C 0.98804 0.45906 0.03771 0.0
C285 C 0.96958 0.44903 0.93175 0.0
C286 C 0.93707 0.43712 0.94692 0.0
C287 C 0.9227 0.43539 0.06808 0.0
C288 C 0.94248 0.44284 0.17396 0.0
C289 C 0.97475 0.45478 0.15864 0.0
C290 C 0.06004 0.49528 0.62492 0.0
C291 C 0.9763 0.54508 0.68594 0.0
O292 O 0.07841 0.57887 0.5033 0.0
O293 O 0.05231 0.62012 0.59232 0.0
O294 O 1.01884 0.606 0.79047 0.0
O295 O 0.0509 0.57417 0.89068 0.0
O296 O 0.10431 0.56084 0.74503 0.0
O297 O 0.09189 0.53151 0.92324 0.0
O298 O 1.01481 0.5107 0.03231 0.0
O299 O 1.03843 0.47001 0.93103 0.0
O300 O 0.073 0.4873 0.73235 0.0
O301 O 1.03818 0.51758 0.64209 0.0
O302 O 0.98629 0.53057 0.79156 0.0
O303 O 0.99839 0.55967 0.61218 0.0
H304 H 0.11306 0.63532 0.6928 0.0
H305 H 0.16914 0.6584 0.66592 0.0
H306 H 0.15719 0.65334 0.26016 0.0
H307 H 0.1011 0.63192 0.28827 0.0
H308 H 0.97943 0.45246 0.83714 0.0
H309 H 0.92241 0.43161 0.86385 0.0
H310 H 0.93199 0.44253 0.26846 0.0
H311 H 0.98841 0.46311 0.24074 0.0
C312 C 0.16335 0.07966 0.41538 0.0
C313 C 0.16912 0.05055 0.3446 0.0
C314 C 0.1379 0.08113 0.50766 0.0
C315 C 0.11657 0.05386 0.53067 0.0
H316 H 0.17848 0.10155 0.39854 0.0
H317 H 0.13476 0.10393 0.56107 0.0
S318 S 0.12218 0.97136 0.37378 0.0
N319 N 0.1523 0.99342 0.30747 0.0
N320 N 0.10387 0.99644 0.47646 0.0
C321 C 0.12209 1.02463 0.46004 0.0
C322 C 0.14846 1.02294 0.36822 0.0
C323 C 0.56019 0.14933 0.3688 0.0
C324 C 0.5356 0.17416 0.35672 0.0
C325 C 0.55837 0.12479 0.46418 0.0
C326 C 0.53186 0.12419 0.55195 0.0
H327 H 0.58101 0.14886 0.30388 0.0
H328 H 0.57814 0.10648 0.47016 0.0
S329 S 0.46053 0.18325 0.55845 0.0
N330 N 0.4836 0.19616 0.43839 0.0
N331 N 0.48012 0.15067 0.61821 0.0
C332 C 0.50708 0.14897 0.54042 0.0
C333 C 0.50896 0.17378 0.443 0.0
C334 C 0.44198 0.51665 0.37798 0.0
C335 C 0.41668 0.54057 0.35438 0.0
C336 C 0.46455 0.51989 0.47938 0.0
C337 C 0.46246 0.54681 0.5636 0.0
H338 H 0.44399 0.49461 0.31969 0.0
H339 H 0.48272 0.50037 0.4953 0.0
S340 S 0.40399 0.61814 0.54067 0.0
N341 N 0.39402 0.59418 0.42005 0.0
N342 N 0.43455 0.59869 0.61407 0.0
C343 C 0.43797 0.57114 0.54066 0.0
C344 C 0.41559 0.56841 0.4358 0.0
C345 C 0.08811 0.43863 0.35605 0.0
C346 C 0.05997 0.41842 0.33299 0.0
C347 C 0.08775 0.46374 0.44898 0.0
C348 C 0.05898 0.47044 0.52063 0.0
H349 H 0.11082 0.43481 0.30233 0.0
H350 H 0.11018 0.4781 0.46465 0.0
S351 S 0.97899 0.42465 0.50273 0.0
N352 N 1.00276 0.40655 0.39485 0.0
N353 N 1.00195 0.45433 0.56608 0.0
C354 C 1.03074 0.45053 0.49965 0.0
C355 C 1.03129 0.42438 0.40708 0.0
C356 C 0.90856 1.0229 0.10929 0.0
C357 C 0.91945 1.01914 0.23506 0.0
C358 C 0.93125 1.02577 0.00791 0.0
C359 C 0.96598 1.02572 0.02734 0.0
H360 H 0.88221 1.02277 0.08802 0.0
H361 H 0.92141 1.02814 0.91315 0.0
S362 S 1.0085 1.01561 0.33356 0.0
N363 N 0.96845 1.01456 0.37013 0.0
N364 N 1.01034 1.02109 0.17936 0.0
C365 C 0.9774 1.02229 0.15121 0.0
C366 C 0.95442 1.01863 0.25473 0.0
C367 C 0.57268 0.94558 0.21861 0.0
C368 C 0.54911 0.91954 0.23412 0.0
C369 C 0.57054 0.96893 0.1188 0.0
C370 C 0.54516 0.96691 0.02826 0.0
H371 H 0.59354 0.94766 0.28245 0.0
H372 H 0.58968 0.98778 0.10952 0.0
S373 S 0.47525 0.90656 0.02921 0.0
N374 N 0.49741 0.89616 0.15412 0.0
N375 N 0.49504 0.93816 0.9632 0.0
C376 C 0.52121 0.94161 0.04308 0.0
C377 C 0.52279 0.91844 0.14624 0.0
C378 C 0.64398 0.57058 0.19391 0.0
C379 C 0.66989 0.5469 0.21044 0.0
C380 C 0.62061 0.56805 0.09477 0.0
C381 C 0.62237 0.54202 0.00648 0.0
H382 H 0.64213 0.59189 0.25604 0.0
H383 H 0.60207 0.58746 0.08379 0.0
S384 S 0.68201 0.47135 0.01219 0.0
N385 N 0.69285 0.49442 0.1343 0.0
N386 N 0.65041 0.49092 0.94585 0.0
C387 C 0.64734 0.51778 0.02317 0.0
C388 C 0.6707 0.51992 0.12508 0.0
C389 C 1.02589 0.67934 0.08352 0.0
C390 C 1.01934 0.66938 0.20906 0.0
C391 C 1.02967 0.65592 0.9854 0.0
C392 C 1.0278 0.62136 0.00827 0.0
H393 H 1.02703 0.70554 0.05954 0.0
H394 H 1.03393 0.66503 0.89027 0.0
S395 S 1.01071 0.58124 0.31617 0.0
N396 N 1.01077 0.62151 0.34822 0.0
N397 N 1.01881 0.57818 0.16372 0.0
C398 C 1.02192 0.61084 0.13241 0.0
C399 C 1.01739 0.6346 0.23244 0.0
C400 C 0.97723 0.25154 0.45108 0.0
C401 C 0.96482 0.26013 0.33167 0.0
C402 C 0.96248 0.2258 0.52072 0.0
C403 C 0.93498 0.20825 0.47198 0.0
H404 H 1.00131 0.26072 0.48099 0.0
H405 H 0.976 0.21641 0.60166 0.0
S406 S 0.88545 0.23209 0.19185 0.0
N407 N 0.91818 0.25699 0.18748 0.0
N408 N 0.8894 0.20947 0.32153 0.0
C409 C 0.91815 0.2222 0.36834 0.0
C410 C 0.9335 0.24799 0.29651 0.0
C411 C 0.34675 0.93406 0.30669 0.0
C412 C 0.33317 0.96404 0.35309 0.0
C413 C 0.37771 0.92274 0.35007 0.0
C414 C 0.39473 0.94039 0.44425 0.0
H415 H 0.337 0.92329 0.2206 0.0
H416 H 0.39029 0.90312 0.29824 0.0
S417 S 0.36306 1.01318 0.62379 0.0
N418 N 0.33357 1.00501 0.52029 0.0
N419 N 0.39186 0.98439 0.60156 0.0
C420 C 0.37769 0.96592 0.50878 0.0
C421 C 0.34621 0.97717 0.46473 0.0
C422 C 0.62298 0.34523 0.42535 0.0
C423 C 0.63211 0.3339 0.30473 0.0
C424 C 0.63372 0.3765 0.46696 0.0
C425 C 0.65476 0.39622 0.39093 0.0
H426 H 0.60235 0.33362 0.47495 0.0
H427 H 0.62099 0.38734 0.54717 0.0
S428 S 0.69698 0.36986 0.09662 0.0
N429 N 0.67199 0.33855 0.13274 0.0
N430 N 0.69245 0.39742 0.21129 0.0
C431 C 0.67025 0.38123 0.28656 0.0
C432 C 0.65939 0.34934 0.24484 0.0
C433 C 0.24422 0.66304 0.26611 0.0
C434 C 0.25999 0.63352 0.30517 0.0
C435 C 0.21693 0.6756 0.33396 0.0
C436 C 0.2046 0.65847 0.44058 0.0
H437 H 0.24937 0.67316 0.17309 0.0
H438 H 0.20238 0.6954 0.29163 0.0
S439 S 0.24635 0.58825 0.60491 0.0
N440 N 0.26883 0.59444 0.47625 0.0
N441 N 0.21687 0.61694 0.60211 0.0
C442 C 0.22494 0.63365 0.49452 0.0
C443 C 0.25308 0.62141 0.42661 0.0
C444 C 0.11545 0.81985 0.15256 0.0
C445 C 0.12359 0.82076 0.28166 0.0
C446 C 0.12641 0.84517 0.07131 0.0
C447 C 0.14532 0.87191 0.11839 0.0
H448 H 0.09605 0.80336 0.11911 0.0
H449 H 0.11532 0.84688 0.97832 0.0
S450 S 0.18599 0.87547 0.43153 0.0
N451 N 0.16209 0.84204 0.43813 0.0
N452 N 0.18141 0.8908 0.28773 0.0
C453 C 0.16027 0.86806 0.23728 0.0
C454 C 0.14976 0.84178 0.31873 0.0
C455 C 0.76582 0.11347 0.16831 0.0
C456 C 0.76931 0.12491 0.29284 0.0
C457 C 0.73776 0.12241 0.09811 0.0
C458 C 0.71323 0.14352 0.15025 0.0
H459 H 0.78079 0.09279 0.13471 0.0
H460 H 0.73277 0.10864 0.01246 0.0
S461 S 0.7207 0.19195 0.44622 0.0
N462 N 0.75391 0.16764 0.4441 0.0
N463 N 0.70058 0.1842 0.31364 0.0
C464 C 0.72127 0.16144 0.25979 0.0
C465 C 0.75012 0.15255 0.33019 0.0
C466 C 0.42888 0.74547 0.30158 0.0
C467 C 0.45832 0.75982 0.25321 0.0
C468 C 0.41867 0.71395 0.25996 0.0
C469 C 0.43658 0.69743 0.16446 0.0
H470 H 0.41819 0.75494 0.38865 0.0
H471 H 0.39988 0.70071 0.31392 0.0
S472 S 0.50662 0.73176 0.976 0.0
N473 N 0.49796 0.76101 0.08059 0.0
N474 N 0.47925 0.70184 0.00176 0.0
C475 C 0.46088 0.71538 0.0968 0.0
C476 C 0.47108 0.74735 0.1395 0.0
C477 C 0.84613 0.4293 0.25942 0.0
C478 C 0.83096 0.45933 0.22257 0.0
C479 C 0.87335 0.41669 0.19136 0.0
C480 C 0.8861 0.4342 0.08644 0.0
H481 H 0.8406 0.41869 0.35136 0.0
H482 H 0.8876 0.39653 0.23266 0.0
S483 S 0.84656 0.50657 0.92862 0.0
N484 N 0.82358 0.49999 0.05582 0.0
N485 N 0.87529 0.47711 0.92912 0.0
C486 C 0.86647 0.45981 0.03448 0.0
C487 C 0.8385 0.47223 0.10285 0.0
C488 C 1.02256 0.20347 0.89972 0.0
C489 C 1.03933 0.21391 0.00942 0.0
C490 C 1.02562 0.17059 0.85331 0.0
C491 C 0.04512 0.14635 0.91589 0.0
H492 H 1.00557 0.2204 0.85289 0.0
H493 H 1.01143 0.16385 0.77043 0.0
S494 S 0.09477 0.16146 0.20628 0.0
N495 N 0.07674 0.19767 0.17761 0.0
N496 N 0.08266 0.13628 0.09209 0.0
C497 C 0.06289 0.15695 0.02362 0.0
C498 C 0.0599 0.19049 0.06996 0.0
C499 C 0.39026 0.06493 0.01745 0.0
C500 C 0.37393 1.03395 0.0083 0.0
C501 C 0.42311 0.06941 0.9704 0.0
C502 C 0.44083 1.04321 0.91136 0.0
H503 H 0.37842 0.08519 0.06811 0.0
H504 H 0.43502 0.09336 0.98307 0.0
S505 S 0.41015 0.95677 0.87179 0.0
N506 N 0.3786 0.97662 0.9378 0.0
N507 N 0.43957 0.98498 0.85095 0.0
C508 C 0.4244 1.01249 0.89902 0.0
C509 C 0.39124 1.00793 0.94675 0.0
C510 C 0.52433 0.39172 0.01067 0.0
C511 C 0.55373 0.37351 0.98729 0.0
C512 C 0.52009 0.42442 0.96292 0.0
C513 C 0.545 0.44014 0.88929 0.0
H514 H 0.50547 0.38154 0.07319 0.0
H515 H 0.49758 0.4379 0.98727 0.0
S516 S 0.62734 0.40387 0.80796 0.0
N517 N 0.60818 0.374 0.88685 0.0
N518 N 0.60043 0.43487 0.799 0.0
C519 C 0.57398 0.42172 0.86219 0.0
C520 C 0.57823 0.38863 0.91036 0.0
C521 C 0.20298 0.57877 0.89447 0.0
C522 C 0.21682 0.55732 0.98592 0.0
C523 C 0.17057 0.57406 0.8469 0.0
C524 C 0.14985 0.54831 0.89212 0.0
H525 H 0.2168 0.60054 0.8643 0.0
H526 H 0.1611 0.59188 0.77906 0.0
S527 S 0.17402 0.48496 0.13157 0.0
N528 N 0.20736 0.50881 0.11784 0.0
N529 N 0.14634 0.50023 0.03195 0.0
C530 C 0.16365 0.52616 0.98177 0.0
C531 C 0.19702 0.5306 0.02788 0.0
C532 C 0.06035 0.8817 0.67633 0.0
C533 C 1.04211 0.86997 0.57192 0.0
C534 C 0.05717 0.91474 0.71993 0.0
C535 C 1.03602 0.93789 0.65984 0.0
H536 H 0.0786 0.86564 0.72068 0.0
H537 H 0.07276 0.92258 0.79755 0.0
S538 S 0.98124 0.91918 0.38668 0.0
N539 N 1.00104 0.88375 0.413 0.0
N540 N 0.99469 0.94552 0.49481 0.0
C541 C 1.01655 0.926 0.55861 0.0
C542 C 1.01968 0.89222 0.51481 0.0
C543 C 0.70135 1.02299 0.58639 0.0
C544 C 0.72062 0.05142 0.61333 0.0
C545 C 0.66795 1.02015 0.62911 0.0
C546 C 0.65245 0.04552 0.70113 0.0
H547 H 0.71137 1.00383 0.52503 0.0
H548 H 0.65381 0.99837 0.60185 0.0
S549 S 0.69181 0.12539 0.79401 0.0
N550 N 0.72159 0.10516 0.71832 0.0
N551 N 0.65942 0.10015 0.7955 0.0
C552 C 0.67194 0.07342 0.73239 0.0
C553 C 0.70577 0.07623 0.68962 0.0
C554 C 0.56011 0.70052 0.5776 0.0
C555 C 0.52938 0.71725 0.58991 0.0
C556 C 0.5644 0.66759 0.62327 0.0
C557 C 0.53825 0.65026 0.68424 0.0
H558 H 0.58026 0.71208 0.52526 0.0
H559 H 0.58808 0.65528 0.60782 0.0
S560 S 0.45241 0.6821 0.73311 0.0
N561 N 0.47235 0.71345 0.6663 0.0
N562 N 0.48036 0.65227 0.7503 0.0
C563 C 0.50782 0.66712 0.70015 0.0
C564 C 0.50346 0.70036 0.65387 0.0
C565 C 0.88846 0.5105 0.63716 0.0
C566 C 0.87361 0.53306 0.55192 0.0
C567 C 0.92084 0.51545 0.68462 0.0
C568 C 0.9405 0.54267 0.64565 0.0
H569 H 0.87542 0.48784 0.66261 0.0
H570 H 0.93116 0.49677 0.74715 0.0
S571 S 0.91349 0.60939 0.4248 0.0
N572 N 0.88104 0.58417 0.43287 0.0
N573 N 0.94196 0.5933 0.51928 0.0
C574 C 0.92572 0.56588 0.56256 0.0
C575 C 0.89239 0.56113 0.51636 0.0
loop_
_geom_bond_atom_site_label_1
_geom_bond_atom_site_label_2
_geom_bond_distance
_geom_bond_site_symmetry_2
_ccdc_geom_bond_type
H0 C1 0.949 . S
C1 H0 0.949 . S
C1 C2 1.395 . S
C1 C3 1.391 . S
C2 C1 1.395 . S
C2 C5 1.390 . S
C3 C1 1.391 . S
C3 C7 1.387 . S
C3 C8 1.491 . S
H4 C5 0.950 . S
C5 C2 1.390 . S
C5 H4 0.950 . S
C5 C6 1.378 . S
C6 C5 1.378 . S
C6 C7 1.409 . S
C7 C3 1.387 . S
C7 C6 1.409 . S
C7 H9 0.951 . S
C8 C3 1.491 . S
C8 C10 1.382 . S
C8 C12 1.404 . S
H9 C7 0.951 . S
C10 C8 1.382 . S
C10 C11 1.390 . S
C10 H15 0.949 . S
C11 C10 1.390 . S
C11 C16 1.399 . S
C12 C8 1.404 . S
C12 H13 0.950 . S
C12 C14 1.375 . S
H13 C12 0.950 . S
C14 C12 1.375 . S
C14 C16 1.382 . S
C14 H18 0.950 . S
H15 C10 0.949 . S
C16 C11 1.399 . S
C16 C14 1.382 . S
C16 H17 0.952 . S
H17 C16 0.952 . S
H18 C14 0.950 . S
H19 C20 0.949 . S
C20 H19 0.949 . S
C20 C21 1.395 . S
C20 C22 1.391 . S
C21 C20 1.395 . S
C21 C24 1.390 1_655 S
C22 C20 1.391 . S
C22 C26 1.387 . S
C22 C27 1.491 . S
H23 C24 0.950 . S
C24 C21 1.390 1_455 S
C24 H23 0.950 . S
C24 C25 1.377 1_455 S
C25 C24 1.377 1_655 S
C25 C26 1.413 . S
C26 C22 1.387 . S
C26 C25 1.413 . S
C26 H28 0.951 . S
C27 C22 1.491 . S
C27 C29 1.382 . S
C27 C31 1.404 . S
H28 C26 0.951 . S
C29 C27 1.382 . S
C29 C30 1.390 . S
C29 H34 0.949 1_655 S
C30 C29 1.390 . S
C30 C35 1.399 . S
C31 C27 1.404 . S
C31 H32 0.950 . S
C31 C33 1.375 . S
H32 C31 0.950 . S
C33 C31 1.375 . S
C33 C35 1.382 . S
C33 H37 0.950 . S
H34 C29 0.949 1_455 S
C35 C30 1.399 . S
C35 C33 1.382 . S
C35 H36 0.952 . S
H36 C35 0.952 . S
H37 C33 0.950 . S
H38 C39 0.949 . S
C39 H38 0.949 . S
C39 C40 1.395 . S
C39 C41 1.391 . S
C40 C39 1.395 . S
C40 C43 1.390 1_565 S
C41 C39 1.391 . S
C41 C45 1.387 . S
C41 C46 1.491 . S
H42 C43 0.950 . S
C43 C40 1.390 1_545 S
C43 H42 0.950 . S
C43 C44 1.377 1_545 S
C44 C43 1.377 1_565 S
C44 C45 1.413 . S
C45 C41 1.387 . S
C45 C44 1.413 . S
C45 H47 0.951 . S
C46 C41 1.491 . S
C46 C48 1.382 . S
C46 C50 1.404 . S
H47 C45 0.951 . S
C48 C46 1.382 . S
C48 C49 1.390 . S
C48 H53 0.949 1_565 S
C49 C48 1.390 . S
C49 C54 1.399 . S
C50 C46 1.404 . S
C50 H51 0.950 . S
C50 C52 1.375 . S
H51 C50 0.950 . S
C52 C50 1.375 . S
C52 C54 1.382 . S
C52 H56 0.950 . S
H53 C48 0.949 1_545 S
C54 C49 1.399 . S
C54 C52 1.382 . S
C54 H55 0.952 . S
H55 C54 0.952 . S
H56 C52 0.950 . S
H57 C58 0.949 . S
C58 H57 0.949 . S
C58 C59 1.395 . S
C58 C60 1.391 . S
C59 C58 1.395 . S
C59 C62 1.390 . S
C60 C58 1.391 . S
C60 C64 1.387 . S
C60 C65 1.491 . S
H61 C62 0.950 . S
C62 C59 1.390 . S
C62 H61 0.950 . S
C62 C63 1.378 . S
C63 C62 1.378 . S
C63 C64 1.409 . S
C64 C60 1.387 . S
C64 C63 1.409 . S
C64 H66 0.951 . S
C65 C60 1.491 . S
C65 C67 1.382 . S
C65 C69 1.404 . S
H66 C64 0.951 . S
C67 C65 1.382 . S
C67 C68 1.390 . S
C67 H72 0.949 . S
C68 C67 1.390 . S
C68 C73 1.399 . S
C69 C65 1.404 . S
C69 H70 0.950 . S
C69 C71 1.375 . S
H70 C69 0.950 . S
C71 C69 1.375 . S
C71 C73 1.382 . S
C71 H75 0.950 . S
H72 C67 0.949 . S
C73 C68 1.399 . S
C73 C71 1.382 . S
C73 H74 0.952 . S
H74 C73 0.952 . S
H75 C71 0.950 . S
H76 C77 0.949 . S
C77 H76 0.949 . S
C77 C78 1.395 . S
C77 C79 1.391 . S
C78 C77 1.395 . S
C78 C81 1.390 1_554 S
C79 C77 1.391 . S
C79 C83 1.387 1_554 S
C79 C84 1.491 . S
H80 C81 0.950 . S
C81 C78 1.390 1_556 S
C81 H80 0.950 . S
C81 C82 1.378 . S
C82 C81 1.378 . S
C82 C83 1.409 . S
C83 C79 1.387 1_556 S
C83 C82 1.409 . S
C83 H85 0.951 . S
C84 C79 1.491 . S
C84 C86 1.382 . S
C84 C88 1.404 1_554 S
H85 C83 0.951 . S
C86 C84 1.382 . S
C86 C87 1.390 . S
C86 H91 0.949 . S
C87 C86 1.390 . S
C87 C92 1.399 . S
C88 C84 1.404 1_556 S
C88 H89 0.950 . S
C88 C90 1.375 . S
H89 C88 0.950 . S
C90 C88 1.375 . S
C90 C92 1.382 1_556 S
C90 H94 0.950 . S
H91 C86 0.949 . S
C92 C87 1.399 . S
C92 C90 1.382 1_554 S
C92 H93 0.952 . S
H93 C92 0.952 . S
H94 C90 0.950 . S
H95 C96 0.949 . S
C96 H95 0.949 . S
C96 C97 1.394 . S
C96 C98 1.391 . S
C97 C96 1.394 . S
C97 C100 1.390 1_655 S
C98 C96 1.391 . S
C98 C102 1.387 1_554 S
C98 C103 1.491 . S
H99 C100 0.950 . S
C100 C97 1.390 1_455 S
C100 H99 0.950 . S
C100 C101 1.377 1_454 S
C101 C100 1.377 1_656 S
C101 C102 1.411 . S
C102 C98 1.387 1_556 S
C102 C101 1.411 . S
C102 H104 0.951 . S
C103 C98 1.491 . S
C103 C105 1.382 . S
C103 C107 1.404 1_554 S
H104 C102 0.951 . S
C105 C103 1.382 . S
C105 C106 1.390 . S
C105 H110 0.949 1_655 S
C106 C105 1.390 . S
C106 C111 1.399 . S
C107 C103 1.404 1_556 S
C107 H108 0.950 . S
C107 C109 1.375 . S
H108 C107 0.950 . S
C109 C107 1.375 . S
C109 C111 1.382 1_556 S
C109 H113 0.950 . S
H110 C105 0.949 1_455 S
C111 C106 1.399 . S
C111 C109 1.382 1_554 S
C111 H112 0.952 . S
H112 C111 0.952 . S
H113 C109 0.950 . S
H114 C115 0.949 . S
C115 H114 0.949 . S
C115 C116 1.394 . S
C115 C117 1.391 . S
C116 C115 1.394 . S
C116 C119 1.390 1_564 S
C117 C115 1.391 . S
C117 C121 1.387 1_554 S
C117 C122 1.491 . S
H118 C119 0.950 . S
C119 C116 1.390 1_546 S
C119 H118 0.950 . S
C119 C120 1.377 1_545 S
C120 C119 1.377 1_565 S
C120 C121 1.411 . S
C121 C117 1.387 1_556 S
C121 C120 1.411 . S
C121 H123 0.951 . S
C122 C117 1.491 . S
C122 C124 1.382 . S
C122 C126 1.404 1_554 S
H123 C121 0.951 . S
C124 C122 1.382 . S
C124 C125 1.390 . S
C124 H129 0.949 1_565 S
C125 C124 1.390 . S
C125 C130 1.399 . S
C126 C122 1.404 1_556 S
C126 H127 0.950 . S
C126 C128 1.375 . S
H127 C126 0.950 . S
C128 C126 1.375 . S
C128 C130 1.382 1_556 S
C128 H132 0.950 . S
H129 C124 0.949 1_545 S
C130 C125 1.399 . S
C130 C128 1.382 1_554 S
C130 H131 0.952 . S
H131 C130 0.952 . S
H132 C128 0.950 . S
H133 C134 0.949 . S
C134 H133 0.949 . S
C134 C135 1.395 . S
C134 C136 1.389 1_554 S
C135 C134 1.395 . S
C135 C138 1.390 1_554 S
C136 C134 1.389 1_556 S
C136 C140 1.390 . S
C136 C141 1.491 1_556 S
H137 C138 0.950 . S
C138 C135 1.390 1_556 S
C138 H137 0.950 . S
C138 C139 1.378 . S
C139 C138 1.378 . S
C139 C140 1.409 . S
C140 C136 1.390 . S
C140 C139 1.409 . S
C140 H142 0.951 . S
C141 C136 1.491 1_554 S
C141 C143 1.382 . S
C141 C145 1.404 1_554 S
H142 C140 0.951 . S
C143 C141 1.382 . S
C143 C144 1.390 . S
C143 H148 0.949 . S
C144 C143 1.390 . S
C144 C149 1.399 . S
C145 C141 1.404 1_556 S
C145 H146 0.950 . S
C145 C147 1.375 . S
H146 C145 0.950 . S
C147 C145 1.375 . S
C147 C149 1.382 1_556 S
C147 H151 0.950 . S
H148 C143 0.949 . S
C149 C144 1.399 . S
C149 C147 1.382 1_554 S
C149 H150 0.952 . S
H150 C149 0.952 . S
H151 C147 0.950 . S
C152 Eu153 2.835 . S
C152 C154 1.500 . S
C152 O172 1.257 . S
C152 O173 1.260 . S
Eu153 C152 2.835 . S
Eu153 O172 2.473 . S
Eu153 O173 2.480 . S
Eu153 O174 2.430 . S
Eu153 O175 2.670 1_545 S
Eu153 O176 2.394 . S
Eu153 O181 2.355 1_655 S
Eu153 O183 2.374 1_545 S
C154 C152 1.500 . S
C154 C155 1.377 . S
C154 C159 1.377 . S
C155 C154 1.377 . S
C155 C156 1.395 . S
C155 H184 0.931 . S
C156 C155 1.395 . S
C156 C157 1.383 . S
C156 H185 0.931 . S
C157 C156 1.383 . S
C157 C158 1.394 . S
C158 C157 1.394 . S
C158 C159 1.378 . S
C158 H186 0.931 1_655 S
C159 C154 1.377 . S
C159 C158 1.378 . S
C159 H187 0.931 1_655 S
C160 O174 1.259 . S
C160 O175 1.270 1_545 S
C161 O176 1.251 1_455 S
C161 O177 1.251 . S
C162 Eu163 2.835 1_554 S
C162 C164 1.500 . S
C162 O178 1.257 . S
C162 O179 1.260 . S
Eu163 C162 2.835 1_556 S
Eu163 O175 2.355 1_455 S
Eu163 O177 2.374 1_565 S
Eu163 O178 2.473 1_556 S
Eu163 O179 2.480 1_556 S
Eu163 O180 2.430 . S
Eu163 O181 2.670 1_565 S
Eu163 O182 2.394 . S
C164 C162 1.500 . S
C164 C165 1.377 . S
C164 C169 1.377 . S
C165 C164 1.377 . S
C165 C166 1.395 . S
C165 H188 0.931 . S
C166 C165 1.395 . S
C166 C167 1.383 . S
C166 H189 0.931 . S
C167 C166 1.383 . S
C167 C168 1.394 . S
C168 C167 1.394 . S
C168 C169 1.378 . S
C168 H190 0.931 1_455 S
C169 C164 1.377 . S
C169 C168 1.378 . S
C169 H191 0.931 1_455 S
C170 O180 1.259 . S
C170 O181 1.270 1_565 S
C171 O182 1.251 1_655 S
C171 O183 1.251 . S
O172 C152 1.257 . S
O172 Eu153 2.473 . S
O173 C152 1.260 . S
O173 Eu153 2.480 . S
O174 Eu153 2.430 . S
O174 C160 1.259 . S
O175 Eu153 2.670 1_565 S
O175 C160 1.270 1_565 S
O175 Eu163 2.355 1_655 S
O176 Eu153 2.394 . S
O176 C161 1.251 1_655 S
O177 C161 1.251 . S
O177 Eu163 2.374 1_545 S
O178 C162 1.257 . S
O178 Eu163 2.473 1_554 S
O179 C162 1.260 . S
O179 Eu163 2.480 1_554 S
O180 Eu163 2.430 . S
O180 C170 1.259 . S
O181 Eu153 2.355 1_455 S
O181 Eu163 2.670 1_545 S
O181 C170 1.270 1_545 S
O182 Eu163 2.394 . S
O182 C171 1.251 1_455 S
O183 Eu153 2.374 1_565 S
O183 C171 1.251 . S
H184 C155 0.931 . S
H185 C156 0.931 . S
H186 C158 0.931 1_455 S
H187 C159 0.931 1_455 S
H188 C165 0.931 . S
H189 C166 0.931 . S
H190 C168 0.931 1_655 S
H191 C169 0.931 1_655 S
C192 Eu193 2.835 . S
C192 C194 1.500 . S
C192 O212 1.257 . S
C192 O213 1.260 . S
Eu193 C192 2.835 . S
Eu193 O212 2.473 . S
Eu193 O213 2.480 . S
Eu193 O214 2.430 . S
Eu193 O215 2.670 . S
Eu193 O216 2.394 . S
Eu193 O221 2.355 1_565 S
Eu193 O223 2.374 . S
C194 C192 1.500 . S
C194 C195 1.377 . S
C194 C199 1.377 . S
C195 C194 1.377 . S
C195 C196 1.395 . S
C195 H224 0.931 . S
C196 C195 1.395 . S
C196 C197 1.383 . S
C196 H225 0.931 . S
C197 C196 1.383 . S
C197 C198 1.394 . S
C198 C197 1.394 . S
C198 C199 1.378 . S
C198 H226 0.931 1_565 S
C199 C194 1.377 . S
C199 C198 1.378 . S
C199 H227 0.931 1_565 S
C200 O214 1.259 . S
C200 O215 1.270 . S
C201 O216 1.251 1_545 S
C201 O217 1.251 . S
C202 Eu203 2.835 1_554 S
C202 C204 1.500 . S
C202 O218 1.257 . S
C202 O219 1.260 . S
Eu203 C202 2.835 1_556 S
Eu203 O215 2.355 1_545 S
Eu203 O217 2.374 . S
Eu203 O218 2.473 1_556 S
Eu203 O219 2.480 1_556 S
Eu203 O220 2.430 . S
Eu203 O221 2.670 . S
Eu203 O222 2.394 . S
C204 C202 1.500 . S
C204 C205 1.377 . S
C204 C209 1.377 . S
C205 C204 1.377 . S
C205 C206 1.395 . S
C205 H228 0.931 . S
C206 C205 1.395 . S
C206 C207 1.383 . S
C206 H229 0.931 . S
C207 C206 1.383 . S
C207 C208 1.394 . S
C208 C207 1.394 . S
C208 C209 1.378 . S
C208 H230 0.931 1_545 S
C209 C204 1.377 . S
C209 C208 1.378 . S
C209 H231 0.931 1_545 S
C210 O220 1.259 . S
C210 O221 1.270 . S
C211 O222 1.251 1_565 S
C211 O223 1.251 . S
O212 C192 1.257 . S
O212 Eu193 2.473 . S
O213 C192 1.260 . S
O213 Eu193 2.480 . S
O214 Eu193 2.430 . S
O214 C200 1.259 . S
O215 Eu193 2.670 . S
O215 C200 1.270 . S
O215 Eu203 2.355 1_565 S
O216 Eu193 2.394 . S
O216 C201 1.251 1_565 S
O217 C201 1.251 . S
O217 Eu203 2.374 . S
O218 C202 1.257 . S
O218 Eu203 2.473 1_554 S
O219 C202 1.260 . S
O219 Eu203 2.480 1_554 S
O220 Eu203 2.430 . S
O220 C210 1.259 . S
O221 Eu193 2.355 1_545 S
O221 Eu203 2.670 . S
O221 C210 1.270 . S
O222 Eu203 2.394 . S
O222 C211 1.251 1_545 S
O223 Eu193 2.374 . S
O223 C211 1.251 . S
H224 C195 0.931 . S
H225 C196 0.931 . S
H226 C198 0.931 1_545 S
H227 C199 0.931 1_545 S
H228 C205 0.931 . S
H229 C206 0.931 . S
H230 C208 0.931 1_565 S
H231 C209 0.931 1_565 S
C232 Eu233 2.835 . S
C232 C234 1.500 . S
C232 O252 1.257 . S
C232 O253 1.260 . S
Eu233 C232 2.835 . S
Eu233 O252 2.473 . S
Eu233 O253 2.480 . S
Eu233 O254 2.430 . S
Eu233 O255 2.670 . S
Eu233 O256 2.394 . S
Eu233 O261 2.355 . S
Eu233 O263 2.374 . S
C234 C232 1.500 . S
C234 C235 1.377 . S
C234 C239 1.377 . S
C235 C234 1.377 . S
C235 C236 1.395 . S
C235 H264 0.931 . S
C236 C235 1.395 . S
C236 C237 1.383 . S
C236 H265 0.931 . S
C237 C236 1.383 . S
C237 C238 1.394 . S
C238 C237 1.394 . S
C238 C239 1.378 . S
C238 H266 0.931 . S
C239 C234 1.377 . S
C239 C238 1.378 . S
C239 H267 0.931 . S
C240 O254 1.259 . S
C240 O255 1.270 . S
C241 O256 1.251 . S
C241 O257 1.251 . S
C242 Eu243 2.835 1_554 S
C242 C244 1.500 . S
C242 O258 1.257 . S
C242 O259 1.260 . S
Eu243 C242 2.835 1_556 S
Eu243 O255 2.355 . S
Eu243 O257 2.374 . S
Eu243 O258 2.473 1_556 S
Eu243 O259 2.480 1_556 S
Eu243 O260 2.430 . S
Eu243 O261 2.670 . S
Eu243 O262 2.394 . S
C244 C242 1.500 . S
C244 C245 1.377 . S
C244 C249 1.377 . S
C245 C244 1.377 . S
C245 C246 1.395 . S
C245 H268 0.931 . S
C246 C245 1.395 . S
C246 C247 1.383 . S
C246 H269 0.931 . S
C247 C246 1.383 . S
C247 C248 1.394 . S
C248 C247 1.394 . S
C248 C249 1.378 . S
C248 H270 0.931 . S
C249 C244 1.377 . S
C249 C248 1.378 . S
C249 H271 0.931 . S
C250 O260 1.259 . S
C250 O261 1.270 . S
C251 O262 1.251 . S
C251 O263 1.251 . S
O252 C232 1.257 . S
O252 Eu233 2.473 . S
O253 C232 1.260 . S
O253 Eu233 2.480 . S
O254 Eu233 2.430 . S
O254 C240 1.259 . S
O255 Eu233 2.670 . S
O255 C240 1.270 . S
O255 Eu243 2.355 . S
O256 Eu233 2.394 . S
O256 C241 1.251 . S
O257 C241 1.251 . S
O257 Eu243 2.374 . S
O258 C242 1.257 . S
O258 Eu243 2.473 1_554 S
O259 C242 1.260 . S
O259 Eu243 2.480 1_554 S
O260 Eu243 2.430 . S
O260 C250 1.259 . S
O261 Eu233 2.355 . S
O261 Eu243 2.670 . S
O261 C250 1.270 . S
O262 Eu243 2.394 . S
O262 C251 1.251 . S
O263 Eu233 2.374 . S
O263 C251 1.251 . S
H264 C235 0.931 . S
H265 C236 0.931 . S
H266 C238 0.931 . S
H267 C239 0.931 . S
H268 C245 0.931 . S
H269 C246 0.931 . S
H270 C248 0.931 . S
H271 C249 0.931 . S
C272 Eu273 2.835 . S
C272 C274 1.500 . S
C272 O292 1.257 . S
C272 O293 1.260 . S
Eu273 C272 2.835 . S
Eu273 O292 2.473 . S
Eu273 O293 2.480 . S
Eu273 O294 2.430 . S
Eu273 O295 2.670 1_455 S
Eu273 O296 2.394 . S
Eu273 O301 2.355 . S
Eu273 O303 2.374 1_455 S
C274 C272 1.500 . S
C274 C275 1.377 . S
C274 C279 1.377 . S
C275 C274 1.377 . S
C275 C276 1.395 . S
C275 H304 0.931 . S
C276 C275 1.395 . S
C276 C277 1.383 . S
C276 H305 0.931 . S
C277 C276 1.383 . S
C277 C278 1.394 . S
C278 C277 1.394 . S
C278 C279 1.378 . S
C278 H306 0.931 . S
C279 C274 1.377 . S
C279 C278 1.378 . S
C279 H307 0.931 . S
C280 O294 1.267 . S
C280 O295 1.264 1_455 S
C281 O296 1.251 . S
C281 O297 1.251 . S
C282 Eu283 2.835 1_554 S
C282 C284 1.500 . S
C282 O298 1.257 . S
C282 O299 1.260 . S
Eu283 C282 2.835 1_556 S
Eu283 O295 2.355 . S
Eu283 O297 2.374 1_655 S
Eu283 O298 2.473 1_556 S
Eu283 O299 2.480 1_556 S
Eu283 O300 2.430 . S
Eu283 O301 2.670 1_655 S
Eu283 O302 2.394 . S
C284 C282 1.500 . S
C284 C285 1.377 . S
C284 C289 1.377 . S
C285 C284 1.377 . S
C285 C286 1.395 . S
C285 H308 0.931 . S
C286 C285 1.395 . S
C286 C287 1.383 . S
C286 H309 0.931 . S
C287 C286 1.383 . S
C287 C288 1.394 . S
C288 C287 1.394 . S
C288 C289 1.378 . S
C288 H310 0.931 . S
C289 C284 1.377 . S
C289 C288 1.378 . S
C289 H311 0.931 . S
C290 O300 1.263 . S
C290 O301 1.267 1_655 S
C291 O302 1.251 . S
C291 O303 1.251 . S
O292 C272 1.257 . S
O292 Eu273 2.473 . S
O293 C272 1.260 . S
O293 Eu273 2.480 . S
O294 Eu273 2.430 . S
O294 C280 1.267 . S
O295 Eu273 2.670 1_655 S
O295 C280 1.264 1_655 S
O295 Eu283 2.355 . S
O296 Eu273 2.394 . S
O296 C281 1.251 . S
O297 C281 1.251 . S
O297 Eu283 2.374 1_455 S
O298 C282 1.257 . S
O298 Eu283 2.473 1_554 S
O299 C282 1.260 . S
O299 Eu283 2.480 1_554 S
O300 Eu283 2.430 . S
O300 C290 1.263 . S
O301 Eu273 2.355 . S
O301 Eu283 2.670 1_455 S
O301 C290 1.267 1_455 S
O302 Eu283 2.394 . S
O302 C291 1.251 . S
O303 Eu273 2.374 1_655 S
O303 C291 1.251 . S
H304 C275 0.931 . S
H305 C276 0.931 . S
H306 C278 0.931 . S
H307 C279 0.931 . S
H308 C285 0.931 . S
H309 C286 0.931 . S
H310 C288 0.931 . S
H311 C289 0.931 . S
C312 C313 1.368 . S
C312 C314 1.419 . S
C312 H316 0.930 . S
C313 C312 1.368 . S
C313 C322 1.430 1_545 S
C314 C312 1.419 . S
C314 C315 1.362 1_545 S
C314 H317 0.929 . S
C315 C314 1.362 1_565 S
C315 C321 1.429 . S
H316 C312 0.930 . S
H317 C314 0.929 . S
S318 N319 1.613 . S
S318 N320 1.610 . S
N319 S318 1.613 . S
N319 C322 1.350 . S
N320 S318 1.610 . S
N320 C321 1.351 . S
C321 C315 1.429 . S
C321 N320 1.351 . S
C321 C322 1.434 . S
C322 C313 1.430 1_565 S
C322 N319 1.350 . S
C322 C321 1.434 . S
C323 C324 1.369 . S
C323 C325 1.419 . S
C323 H327 0.930 . S
C324 C323 1.369 . S
C324 C333 1.429 . S
C325 C323 1.419 . S
C325 C326 1.363 . S
C325 H328 0.929 . S
C326 C325 1.363 . S
C326 C332 1.428 . S
H327 C323 0.930 . S
H328 C325 0.929 . S
S329 N330 1.613 . S
S329 N331 1.610 . S
N330 S329 1.613 . S
N330 C333 1.350 . S
N331 S329 1.610 . S
N331 C332 1.351 . S
C332 C326 1.428 . S
C332 N331 1.351 . S
C332 C333 1.434 . S
C333 C324 1.429 . S
C333 N330 1.350 . S
C333 C332 1.434 . S
C334 C335 1.369 . S
C334 C336 1.419 . S
C334 H338 0.930 . S
C335 C334 1.369 . S
C335 C344 1.429 . S
C336 C334 1.419 . S
C336 C337 1.363 . S
C336 H339 0.929 . S
C337 C336 1.363 . S
C337 C343 1.428 . S
H338 C334 0.930 . S
H339 C336 0.929 . S
S340 N341 1.613 . S
S340 N342 1.610 . S
N341 S340 1.613 . S
N341 C344 1.350 . S
N342 S340 1.610 . S
N342 C343 1.351 . S
C343 C337 1.428 . S
C343 N342 1.351 . S
C343 C344 1.434 . S
C344 C335 1.429 . S
C344 N341 1.350 . S
C344 C343 1.434 . S
C345 C346 1.371 . S
C345 C347 1.419 . S
C345 H349 0.930 . S
C346 C345 1.371 . S
C346 C355 1.427 1_455 S
C347 C345 1.419 . S
C347 C348 1.380 . S
C347 H350 0.929 . S
C348 C347 1.380 . S
C348 C354 1.412 1_455 S
H349 C345 0.930 . S
H350 C347 0.929 . S
S351 N352 1.613 . S
S351 N353 1.610 . S
N352 S351 1.613 . S
N352 C355 1.350 . S
N353 S351 1.610 . S
N353 C354 1.351 . S
C354 C348 1.412 1_655 S
C354 N353 1.351 . S
C354 C355 1.434 . S
C355 C346 1.427 1_655 S
C355 N352 1.350 . S
C355 C354 1.434 . S
C356 C357 1.369 1_565 S
C356 C358 1.419 1_565 S
C356 H360 0.930 . S
C357 C356 1.369 1_545 S
C357 C366 1.429 . S
C358 C356 1.419 1_545 S
C358 C359 1.363 . S
C358 H361 0.929 1_554 S
C359 C358 1.363 . S
C359 C365 1.429 . S
H360 C356 0.930 . S
H361 C358 0.929 1_556 S
S362 N363 1.613 . S
S362 N364 1.610 . S
N363 S362 1.613 . S
N363 C366 1.350 . S
N364 S362 1.610 . S
N364 C365 1.351 . S
C365 C359 1.429 . S
C365 N364 1.351 . S
C365 C366 1.434 . S
C366 C357 1.429 . S
C366 N363 1.350 . S
C366 C365 1.434 . S
C367 C368 1.369 . S
C367 C369 1.419 . S
C367 H371 0.930 . S
C368 C367 1.369 . S
C368 C377 1.429 . S
C369 C367 1.419 . S
C369 C370 1.363 . S
C369 H372 0.929 . S
C370 C369 1.363 . S
C370 C376 1.428 . S
H371 C367 0.930 . S
H372 C369 0.929 . S
S373 N374 1.613 . S
S373 N375 1.610 1_554 S
N374 S373 1.613 . S
N374 C377 1.350 . S
N375 S373 1.610 1_556 S
N375 C376 1.351 1_556 S
C376 C370 1.428 . S
C376 N375 1.351 1_554 S
C376 C377 1.434 . S
C377 C368 1.429 . S
C377 N374 1.350 . S
C377 C376 1.434 . S
C378 C379 1.369 . S
C378 C380 1.419 . S
C378 H382 0.930 . S
C379 C378 1.369 . S
C379 C388 1.429 . S
C380 C378 1.419 . S
C380 C381 1.363 . S
C380 H383 0.929 . S
C381 C380 1.363 . S
C381 C387 1.428 . S
H382 C378 0.930 . S
H383 C380 0.929 . S
S384 N385 1.613 . S
S384 N386 1.610 . S
N385 S384 1.613 . S
N385 C388 1.350 . S
N386 S384 1.610 . S
N386 C387 1.351 . S
C387 C381 1.428 . S
C387 N386 1.351 . S
C387 C388 1.434 . S
C388 C379 1.429 . S
C388 N385 1.350 . S
C388 C387 1.434 . S
C389 C390 1.371 1_655 S
C389 C391 1.419 . S
C389 H393 0.930 . S
C390 C389 1.371 1_455 S
C390 C399 1.426 . S
C391 C389 1.419 . S
C391 C392 1.374 . S
C391 H394 0.929 . S
C392 C391 1.374 . S
C392 C398 1.417 1_655 S
H393 C389 0.930 . S
H394 C391 0.929 . S
S395 N396 1.613 . S
S395 N397 1.610 . S
N396 S395 1.613 . S
N396 C399 1.350 . S
N397 S395 1.610 . S
N397 C398 1.351 . S
C398 C392 1.417 1_455 S
C398 N397 1.351 . S
C398 C399 1.434 . S
C399 C390 1.426 . S
C399 N396 1.350 . S
C399 C398 1.434 . S
C400 C401 1.369 1_655 S
C400 C402 1.426 . S
C400 H404 0.923 1_655 S
C401 C400 1.369 1_455 S
C401 C410 1.430 1_455 S
C402 C400 1.426 . S
C402 C403 1.363 . S
C402 H405 0.929 . S
C403 C402 1.363 . S
C403 C409 1.428 . S
H404 C400 0.923 1_455 S
H405 C402 0.929 . S
S406 N407 1.613 . S
S406 N408 1.610 . S
N407 S406 1.613 . S
N407 C410 1.350 . S
N408 S406 1.610 . S
N408 C409 1.351 . S
C409 C403 1.428 . S
C409 N408 1.351 . S
C409 C410 1.434 . S
C410 C401 1.430 1_655 S
C410 N407 1.350 . S
C410 C409 1.434 . S
C411 C412 1.372 1_565 S
C411 C413 1.419 . S
C411 H415 0.930 . S
C412 C411 1.372 1_545 S
C412 C421 1.428 . S
C413 C411 1.419 . S
C413 C414 1.363 . S
C413 H416 0.929 . S
C414 C413 1.363 . S
C414 C420 1.428 . S
H415 C411 0.930 . S
H416 C413 0.929 . S
S417 N418 1.613 1_556 S
S417 N419 1.610 1_546 S
N418 S417 1.613 1_554 S
N418 C421 1.350 . S
N419 S417 1.610 1_564 S
N419 C420 1.351 . S
C420 C414 1.428 . S
C420 N419 1.351 . S
C420 C421 1.434 1_565 S
C421 C412 1.428 . S
C421 N418 1.350 . S
C421 C420 1.434 1_545 S
C422 C423 1.369 . S
C422 C424 1.419 . S
C422 H426 0.930 . S
C423 C422 1.369 . S
C423 C432 1.429 . S
C424 C422 1.419 . S
C424 C425 1.363 . S
C424 H427 0.929 . S
C425 C424 1.363 . S
C425 C431 1.428 . S
H426 C422 0.930 . S
H427 C424 0.929 . S
S428 N429 1.613 . S
S428 N430 1.610 . S
N429 S428 1.613 . S
N429 C432 1.350 . S
N430 S428 1.610 . S
N430 C431 1.351 . S
C431 C425 1.428 . S
C431 N430 1.351 . S
C431 C432 1.434 . S
C432 C423 1.429 . S
C432 N429 1.350 . S
C432 C431 1.434 . S
C433 C434 1.369 . S
C433 C435 1.419 . S
C433 H437 0.930 . S
C434 C433 1.369 . S
C434 C443 1.429 . S
C435 C433 1.419 . S
C435 C436 1.363 . S
C435 H438 0.929 . S
C436 C435 1.363 . S
C436 C442 1.428 . S
H437 C433 0.930 . S
H438 C435 0.929 . S
S439 N440 1.613 . S
S439 N441 1.610 . S
N440 S439 1.613 . S
N440 C443 1.350 . S
N441 S439 1.610 . S
N441 C442 1.351 . S
C442 C436 1.428 . S
C442 N441 1.351 . S
C442 C443 1.434 . S
C443 C434 1.429 . S
C443 N440 1.350 . S
C443 C442 1.434 . S
C444 C445 1.367 1_655 S
C444 C446 1.419 1_655 S
C444 H448 0.930 . S
C445 C444 1.367 1_455 S
C445 C454 1.435 . S
C446 C444 1.419 1_455 S
C446 C447 1.363 . S
C446 H449 0.929 . S
C447 C446 1.363 . S
C447 C453 1.428 . S
H448 C444 0.930 . S
H449 C446 0.929 . S
S450 N451 1.613 . S
S450 N452 1.610 . S
N451 S450 1.613 . S
N451 C454 1.350 . S
N452 S450 1.610 . S
N452 C453 1.351 . S
C453 C447 1.428 . S
C453 N452 1.351 . S
C453 C454 1.434 . S
C454 C445 1.435 . S
C454 N451 1.350 . S
C454 C453 1.434 . S
C455 C456 1.362 1_565 S
C455 C457 1.419 1_565 S
C455 H459 0.930 . S
C456 C455 1.362 1_545 S
C456 C465 1.448 . S
C457 C455 1.419 1_545 S
C457 C458 1.363 . S
C457 H460 0.929 1_545 S
C458 C457 1.363 . S
C458 C464 1.428 . S
H459 C455 0.930 . S
H460 C457 0.929 1_565 S
S461 N462 1.613 . S
S461 N463 1.610 . S
N462 S461 1.613 . S
N462 C465 1.350 . S
N463 S461 1.610 . S
N463 C464 1.351 . S
C464 C458 1.428 . S
C464 N463 1.351 . S
C464 C465 1.434 . S
C465 C456 1.448 . S
C465 N462 1.350 . S
C465 C464 1.434 . S
C466 C467 1.369 . S
C466 C468 1.419 . S
C466 H470 0.930 . S
C467 C466 1.369 . S
C467 C476 1.429 . S
C468 C466 1.419 . S
C468 C469 1.363 . S
C468 H471 0.929 . S
C469 C468 1.363 . S
C469 C475 1.428 . S
H470 C466 0.930 . S
H471 C468 0.929 . S
S472 N473 1.613 . S
S472 N474 1.610 . S
N473 S472 1.613 . S
N473 C476 1.350 . S
N474 S472 1.610 . S
N474 C475 1.351 . S
C475 C469 1.428 . S
C475 N474 1.351 . S
C475 C476 1.434 . S
C476 C467 1.429 . S
C476 N473 1.350 . S
C476 C475 1.434 . S
C477 C478 1.369 . S
C477 C479 1.419 . S
C477 H481 0.930 . S
C478 C477 1.369 . S
C478 C487 1.429 . S
C479 C477 1.419 . S
C479 C480 1.363 . S
C479 H482 0.929 . S
C480 C479 1.363 . S
C480 C486 1.428 . S
H481 C477 0.930 . S
H482 C479 0.929 . S
S483 N484 1.613 . S
S483 N485 1.610 . S
N484 S483 1.613 . S
N484 C487 1.350 . S
N485 S483 1.610 . S
N485 C486 1.351 . S
C486 C480 1.428 . S
C486 N485 1.351 . S
C486 C487 1.434 . S
C487 C478 1.429 . S
C487 N484 1.350 . S
C487 C486 1.434 . S
C488 C489 1.369 . S
C488 C490 1.419 . S
C488 H492 0.930 . S
C489 C488 1.369 . S
C489 C498 1.429 . S
C490 C488 1.419 . S
C490 C491 1.363 . S
C490 H493 0.929 . S
C491 C490 1.363 . S
C491 C497 1.428 . S
H492 C488 0.930 . S
H493 C490 0.929 . S
S494 N495 1.614 . S
S494 N496 1.608 1_655 S
N495 S494 1.614 . S
N495 C498 1.350 1_654 S
N496 S494 1.608 1_455 S
N496 C497 1.351 1_554 S
C497 C491 1.428 . S
C497 N496 1.351 1_556 S
C497 C498 1.434 . S
C498 C489 1.429 . S
C498 N495 1.350 1_456 S
C498 C497 1.434 . S
C499 C500 1.369 . S
C499 C501 1.419 . S
C499 H503 0.930 . S
C500 C499 1.369 . S
C500 C509 1.429 1_545 S
C501 C499 1.419 . S
C501 C502 1.363 . S
C501 H504 0.929 . S
C502 C501 1.363 . S
C502 C508 1.428 1_545 S
H503 C499 0.930 . S
H504 C501 0.929 . S
S505 N506 1.613 1_554 S
S505 N507 1.610 . S
N506 S505 1.613 1_556 S
N506 C509 1.350 . S
N507 S505 1.610 . S
N507 C508 1.351 1_554 S
C508 C502 1.428 1_565 S
C508 N507 1.351 1_556 S
C508 C509 1.434 . S
C509 C500 1.429 1_565 S
C509 N506 1.350 . S
C509 C508 1.434 . S
C510 C511 1.369 . S
C510 C512 1.419 . S
C510 H514 0.930 . S
C511 C510 1.369 . S
C511 C520 1.429 . S
C512 C510 1.419 . S
C512 C513 1.363 . S
C512 H515 0.929 . S
C513 C512 1.363 . S
C513 C519 1.428 . S
H514 C510 0.930 . S
H515 C512 0.929 . S
S516 N517 1.613 1_554 S
S516 N518 1.610 . S
N517 S516 1.613 1_556 S
N517 C520 1.350 . S
N518 S516 1.610 . S
N518 C519 1.351 1_554 S
C519 C513 1.428 . S
C519 N518 1.351 1_556 S
C519 C520 1.434 . S
C520 C511 1.429 . S
C520 N517 1.350 . S
C520 C519 1.434 . S
C521 C522 1.369 . S
C521 C523 1.419 . S
C521 H525 0.930 . S
C522 C521 1.369 . S
C522 C531 1.429 . S
C523 C521 1.419 . S
C523 C524 1.363 . S
C523 H526 0.929 . S
C524 C523 1.363 . S
C524 C530 1.428 . S
H525 C521 0.930 . S
H526 C523 0.929 . S
S527 N528 1.613 . S
S527 N529 1.610 . S
N528 S527 1.613 . S
N528 C531 1.350 . S
N529 S527 1.610 . S
N529 C530 1.351 . S
C530 C524 1.428 . S
C530 N529 1.351 . S
C530 C531 1.434 . S
C531 C522 1.429 . S
C531 N528 1.350 . S
C531 C530 1.434 . S
C532 C533 1.369 1_455 S
C532 C534 1.419 . S
C532 H536 0.930 . S
C533 C532 1.369 1_655 S
C533 C542 1.429 . S
C534 C532 1.419 . S
C534 C535 1.363 1_455 S
C534 H537 0.929 . S
C535 C534 1.363 1_655 S
C535 C541 1.428 . S
H536 C532 0.930 . S
H537 C534 0.929 . S
S538 N539 1.613 . S
S538 N540 1.610 . S
N539 S538 1.613 . S
N539 C542 1.350 . S
N540 S538 1.610 . S
N540 C541 1.351 . S
C541 C535 1.428 . S
C541 N540 1.351 . S
C541 C542 1.434 . S
C542 C533 1.429 . S
C542 N539 1.350 . S
C542 C541 1.434 . S
C543 C544 1.369 . S
C543 C545 1.419 . S
C543 H547 0.930 . S
C544 C543 1.369 . S
C544 C553 1.429 1_565 S
C545 C543 1.419 . S
C545 C546 1.363 . S
C545 H548 0.929 . S
C546 C545 1.363 . S
C546 C552 1.428 1_565 S
H547 C543 0.930 . S
H548 C545 0.929 . S
S549 N550 1.613 . S
S549 N551 1.610 . S
N550 S549 1.613 . S
N550 C553 1.350 . S
N551 S549 1.610 . S
N551 C552 1.351 . S
C552 C546 1.428 1_545 S
C552 N551 1.351 . S
C552 C553 1.434 . S
C553 C544 1.429 1_545 S
C553 N550 1.350 . S
C553 C552 1.434 . S
C554 C555 1.369 . S
C554 C556 1.419 . S
C554 H558 0.930 . S
C555 C554 1.369 . S
C555 C564 1.429 . S
C556 C554 1.419 . S
C556 C557 1.363 . S
C556 H559 0.929 . S
C557 C556 1.363 . S
C557 C563 1.428 . S
H558 C554 0.930 . S
H559 C556 0.929 . S
S560 N561 1.613 . S
S560 N562 1.610 . S
N561 S560 1.613 . S
N561 C564 1.350 . S
N562 S560 1.610 . S
N562 C563 1.351 . S
C563 C557 1.428 . S
C563 N562 1.351 . S
C563 C564 1.434 . S
C564 C555 1.429 . S
C564 N561 1.350 . S
C564 C563 1.434 . S
C565 C566 1.369 . S
C565 C567 1.419 . S
C565 H569 0.930 . S
C566 C565 1.369 . S
C566 C575 1.429 . S
C567 C565 1.419 . S
C567 C568 1.363 . S
C567 H570 0.929 . S
C568 C567 1.363 . S
C568 C574 1.428 . S
H569 C565 0.930 . S
H570 C567 0.929 . S
S571 N572 1.613 . S
S571 N573 1.610 . S
N572 S571 1.613 . S
N572 C575 1.350 . S
N573 S571 1.610 . S
N573 C574 1.351 . S
C574 C568 1.428 . S
C574 N573 1.351 . S
C574 C575 1.434 . S
C575 C566 1.429 . S
C575 N572 1.350 . S
C575 C574 1.434 . S
C313 C125 2.121 1_545 S
C315 C170 2.181 . S
C326 C210 2.199 . S
C324 C144 2.150 . S
C337 C250 2.207 . S
C335 C87 2.160 . S
C348 C290 2.192 1_455 S
C346 C106 2.130 1_455 S
C359 C160 2.184 1_554 S
C357 C49 2.125 1_545 S
C368 C68 2.121 . S
C370 C200 2.200 1_554 S
C379 C11 2.132 . S
C381 C240 2.207 1_554 S
C390 C30 2.132 1_455 S
C392 C280 2.192 1_654 S
C403 C157 0.751 . S
C401 C97 0.760 1_455 S
C414 C197 0.759 . S
C412 C116 0.747 1_545 S
C425 C237 0.762 . S
C423 C135 0.744 . S
C434 C78 0.755 . S
C436 C277 0.735 . S
C445 C21 0.747 1_455 S
C447 C167 0.762 . S
C458 C207 0.766 . S
C456 C40 0.746 1_545 S
C469 C247 0.750 . S
C467 C59 0.762 . S
C478 C2 0.758 . S
C480 C287 0.741 . S
C489 C101 2.233 1_455 S
C491 C161 2.528 . S
C500 C120 2.200 1_545 S
C502 C201 2.496 . S
C513 C241 2.482 . S
C511 C139 2.188 . S
C524 C281 2.518 . S
C522 C82 2.226 . S
C533 C25 2.233 . S
C535 C171 2.537 . S
C546 C211 2.495 . S
C544 C44 2.204 . S
C557 C251 2.481 . S
C555 C63 2.194 . S
C566 C6 2.224 . S
C568 C291 2.523 . S
