# Generated by pormake.
# Topology pth, (4,4)-cn, num edge types: 1
# Building blocks:
#     Node 0, Type 0, BuildingBlock: TATPOV_clean_sbu_0, # of connection points: 4
#     Node 1, Type 0, BuildingBlock: TATPOV_clean_sbu_0, # of connection points: 4
#     Node 2, Type 0, BuildingBlock: TATPOV_clean_sbu_0, # of connection points: 4
#     Node 3, Type 1, BuildingBlock: MIFKUJ_clean_linker_1, # of connection points: 4
#     Node 4, Type 1, BuildingBlock: MIFKUJ_clean_linker_1, # of connection points: 4
#     Node 5, Type 1, BuildingBlock: MIFKUJ_clean_linker_1, # of connection points: 4
#     Edge 6, Type (0, 1), BuildingBlock: AJUNOK_clean_linker_0, # of connection points: 2
#     Edge 7, Type (0, 1), BuildingBlock: AJUNOK_clean_linker_0, # of connection points: 2
#     Edge 8, Type (0, 1), BuildingBlock: AJUNOK_clean_linker_0, # of connection points: 2
#     Edge 9, Type (0, 1), BuildingBlock: AJUNOK_clean_linker_0, # of connection points: 2
#     Edge 10, Type (0, 1), BuildingBlock: AJUNOK_clean_linker_0, # of connection points: 2
#     Edge 11, Type (0, 1), BuildingBlock: AJUNOK_clean_linker_0, # of connection points: 2
#     Edge 12, Type (0, 1), BuildingBlock: AJUNOK_clean_linker_0, # of connection points: 2
#     Edge 13, Type (0, 1), BuildingBlock: AJUNOK_clean_linker_0, # of connection points: 2
#     Edge 14, Type (0, 1), BuildingBlock: AJUNOK_clean_linker_0, # of connection points: 2
#     Edge 15, Type (0, 1), BuildingBlock: AJUNOK_clean_linker_0, # of connection points: 2
#     Edge 16, Type (0, 1), BuildingBlock: AJUNOK_clean_linker_0, # of connection points: 2
#     Edge 17, Type (0, 1), BuildingBlock: AJUNOK_clean_linker_0, # of connection points: 2
# Relax obj value: 0.039
# Max RMSD: 0.162
# Mean RMSD: 0.089
data_MOF--net-pth--node1-TATPOV_clean_sbu_0--node2-MIFKUJ_clean_linker_1--edge1-AJUNOK_clean_linker_0
_symmetry_space_group_name_H-M    P1
_symmetry_Int_Tables_number       1
_symmetry_cell_setting            triclinic
loop_
_symmetry_equiv_pos_as_xyz
'x, y, z'
_cell_length_a     23.361058
_cell_length_b     23.170562
_cell_length_c     48.376808
_cell_angle_alpha  92.83318
_cell_angle_beta   92.227851
_cell_angle_gamma 120.60787
loop_
_atom_site_label
_atom_site_type_symbol
_atom_site_fract_x
_atom_site_fract_y
_atom_site_fract_z
_atom_type_partial_charge
Zn0 Zn 0.1385 0.98764 0.00407 0.0
Zn1 Zn 0.08958 0.04246 0.03839 0.0
O2 O 0.10844 0.98218 0.06252 0.0
O3 O 0.14861 0.9364 0.03448 0.0
O4 O 0.06865 0.09474 0.06664 0.0
O5 O 0.21397 0.07725 0.99472 0.0
O6 O 0.16475 0.11982 0.01906 0.0
C7 C 0.13026 0.94232 0.05819 0.0
C8 C 0.00035 0.95125 0.98953 0.0
O9 O 0.00654 0.98594 0.01192 0.0
O10 O 0.04917 0.94658 0.98172 0.0
C11 C 0.01433 0.09406 0.06898 0.0
O12 O 0.96257 0.05424 0.05164 0.0
C13 C 0.20977 0.12747 1.00307 0.0
Zn14 Zn 0.17477 0.12109 0.34458 0.0
Zn15 Zn 0.06698 0.06645 0.37308 0.0
O16 O 0.14369 0.0831 0.40167 0.0
O17 O 0.23263 0.12847 0.37788 0.0
O18 O 0.98615 0.03847 0.39517 0.0
O19 O 0.16499 0.19865 0.33464 0.0
O20 O 0.06972 0.14573 0.35399 0.0
C21 C 0.20615 0.10691 0.40032 0.0
C22 C 0.07386 0.98347 0.32461 0.0
O23 O 0.04292 0.98623 0.34531 0.0
O24 O 0.12872 0.03448 0.31962 0.0
C25 C 0.99081 0.05633 0.42084 0.0
O26 O 0.04988 0.08924 0.4344 0.0
C27 C 0.11049 0.19384 0.34039 0.0
Zn28 Zn 0.10383 0.92669 0.73971 0.0
Zn29 Zn 0.04544 0.9687 0.7035 0.0
O30 O 0.10562 0.94888 0.67995 0.0
O31 O 0.15482 0.91506 0.70908 0.0
O32 O 0.99213 0.9854 0.67484 0.0
O33 O 0.01546 0.85099 0.74993 0.0
O34 O 0.97063 0.89369 0.72328 0.0
C35 C 0.14657 0.92905 0.68482 0.0
C36 C 0.13132 0.06424 0.75198 0.0
O37 O 0.09791 0.0548 0.72905 0.0
O38 O 0.1397 0.01811 0.76066 0.0
C39 C 0.959 0.01322 0.68106 0.0
O40 O 0.96374 0.03701 0.7068 0.0
C41 C 0.96442 0.85158 0.74056 0.0
H42 H 0.1026 0.46804 0.15396 0.0
H43 H 0.10179 0.3747 0.12778 0.0
H44 H 0.91525 0.23478 0.16031 0.0
H45 H 0.91568 0.32876 0.18642 0.0
H46 H 0.02695 0.51685 0.15042 0.0
H47 H 0.10076 0.43703 0.21699 0.0
H48 H 0.12254 0.37258 0.24938 0.0
H49 H 0.94832 0.33393 0.29159 0.0
H50 H 0.92381 0.39533 0.25767 0.0
H51 H 0.90424 0.57856 0.2365 0.0
H52 H 0.90993 0.6759 0.26203 0.0
H53 H 0.12071 0.79375 0.2506 0.0
H54 H 0.11429 0.69715 0.22474 0.0
H55 H 0.99062 0.52086 0.25064 0.0
H56 H 0.9456 0.62854 0.16951 0.0
H57 H 0.97991 0.72429 0.14105 0.0
H58 H 0.17611 0.74943 0.13922 0.0
H59 H 0.1406 0.65226 0.16648 0.0
C60 C 0.00923 0.40546 0.17219 0.0
C61 C 0.06146 0.41734 0.15551 0.0
C62 C 0.0613 0.36397 0.14076 0.0
C63 C 0.00879 0.29761 0.14229 0.0
C64 C 0.95635 0.28555 0.15888 0.0
C65 C 0.95676 0.33906 0.17386 0.0
C66 C 0.009 0.46283 0.18721 0.0
C67 C 0.01863 0.51719 0.17232 0.0
C68 C 0.00111 0.46512 0.21608 0.0
C69 C 0.0098 0.42013 0.23444 0.0
C70 C 0.06585 0.41313 0.23262 0.0
C71 C 0.07928 0.37758 0.25163 0.0
C72 C 0.03818 0.34983 0.2735 0.0
C73 C 0.9811 0.35525 0.27504 0.0
C74 C 0.96713 0.3903 0.2557 0.0
C75 C 0.00869 0.63113 0.22854 0.0
C76 C 0.9515 0.62558 0.23948 0.0
C77 C 0.9549 0.68094 0.25416 0.0
C78 C 0.01582 0.7423 0.25838 0.0
C79 C 0.07292 0.74736 0.24739 0.0
C80 C 0.0694 0.69229 0.23265 0.0
C81 C 0.00577 0.57252 0.21352 0.0
C82 C -0.00383 0.5184 0.22852 0.0
C83 C 0.01964 0.57303 0.18538 0.0
C84 C 0.0403 0.63289 0.16965 0.0
C85 C 0.99591 0.65482 0.16292 0.0
C86 C 0.01574 0.70968 0.14685 0.0
C87 C 0.08035 0.74356 0.13746 0.0
C88 C 0.12543 0.72314 0.1454 0.0
C89 C 0.10533 0.66787 0.16106 0.0
H90 H 0.69038 0.12086 0.49275 0.0
H91 H 0.78008 0.12603 0.46619 0.0
H92 H 0.74169 0.9379 0.49581 0.0
H93 H 0.65015 0.93078 0.5212 0.0
H94 H 0.56622 0.04818 0.49148 0.0
H95 H 0.72898 0.10845 0.56413 0.0
H96 H 0.8187 0.11197 0.59367 0.0
H97 H 0.68741 0.90491 0.60993 0.0
H98 H 0.59748 0.90155 0.58057 0.0
H99 H 0.40334 0.8776 0.56965 0.0
H100 H 0.31119 0.85305 0.59864 0.0
H101 H 0.36144 0.06014 0.59918 0.0
H102 H 0.45294 0.08417 0.5697 0.0
H103 H 0.53828 0.97483 0.5871 0.0
H104 H 0.37284 0.93656 0.50921 0.0
H105 H 0.29804 0.96247 0.48288 0.0
H106 H 0.45564 0.17068 0.48517 0.0
H107 H 0.53056 0.14398 0.51071 0.0
C108 C 0.66391 0.02599 0.50944 0.0
C109 C 0.70073 0.08037 0.49338 0.0
C110 C 0.75196 0.08339 0.47825 0.0
C111 C 0.76756 0.03239 0.47911 0.0
C112 C 0.73081 0.97803 0.49505 0.0
C113 C 0.67889 0.97436 0.50973 0.0
C114 C 0.60891 0.02189 0.52549 0.0
C115 C 0.56077 0.03294 0.51251 0.0
C116 C 0.60198 0.0038 0.5532 0.0
C117 C 0.65677 0.00456 0.57003 0.0
C118 C 0.7197 0.06363 0.57386 0.0
C119 C 0.7707 0.06576 0.59077 0.0
C120 C 0.75976 0.00861 0.60382 0.0
C121 C 0.69704 0.94934 0.5998 0.0
C122 C 0.64574 0.94749 0.58319 0.0
C123 C 0.43491 0.98266 0.56757 0.0
C124 C 0.39396 0.9175 0.57575 0.0
C125 C 0.34166 0.90364 0.59241 0.0
C126 C 0.32995 0.95498 0.60154 0.0
C127 C 0.3693 0.01961 0.59239 0.0
C128 C 0.42152 0.0334 0.57558 0.0
C129 C 0.49461 -0.00189 0.55261 0.0
C130 C 0.54395 0.98981 0.56601 0.0
C131 C 0.50442 0.02268 0.52601 0.0
C132 C 0.45722 0.03835 0.51181 0.0
C133 C 0.39087 0.9879 0.50433 0.0
C134 C 0.34804 0.00294 0.48952 0.0
C135 C 0.37076 0.06882 0.48217 0.0
C136 C 0.43676 0.11945 0.49043 0.0
C137 C 0.47961 0.10428 0.50497 0.0
H138 H 0.4635 0.42377 0.814 0.0
H139 H 0.37294 0.3222 0.78905 0.0
H140 H 0.23101 0.33626 0.83906 0.0
H141 H 0.32193 0.44104 0.86345 0.0
H142 H 0.49724 0.54163 0.81667 0.0
H143 H 0.43785 0.38339 0.88049 0.0
H144 H 0.37665 0.29609 0.9115 0.0
H145 H 0.35245 0.43722 0.96417 0.0
H146 H 0.40899 0.52324 0.93161 0.0
H147 H 0.58943 0.73045 0.90961 0.0
H148 H 0.69252 0.8198 0.9349 0.0
H149 H 0.79423 0.71615 0.90937 0.0
H150 H 0.69192 0.62863 0.8835 0.0
H151 H 0.53036 0.58137 0.91914 0.0
H152 H 0.63376 0.7404 0.84367 0.0
H153 H 0.72747 0.7978 0.81427 0.0
H154 H 0.70927 0.60743 0.78905 0.0
H155 H 0.61703 0.55069 0.8186 0.0
C156 C 0.3997 0.44055 0.84058 0.0
C157 C 0.4129 0.4062 0.81935 0.0
C158 C 0.36129 0.34812 0.8051 0.0
C159 C 0.29551 0.32238 0.81207 0.0
C160 C 0.28167 0.35591 0.83335 0.0
C161 C 0.33347 0.41521 0.84735 0.0
C162 C 0.45601 0.50268 0.85528 0.0
C163 C 0.50394 0.54998 0.83913 0.0
C164 C 0.46615 0.51326 0.88464 0.0
C165 C 0.4262 0.45951 0.90311 0.0
C166 C 0.41748 0.39516 0.89817 0.0
C167 C 0.38357 0.34551 0.91627 0.0
C168 C 0.35918 0.35942 0.94026 0.0
C169 C 0.36901 0.42424 0.94553 0.0
C170 C 0.40185 0.47365 0.92704 0.0
C171 C 0.63353 0.67352 0.89461 0.0
C172 C 0.63424 0.72753 0.90938 0.0
C173 C 0.69287 0.77809 0.92395 0.0
C174 C 0.75125 0.77459 0.92433 0.0
C175 C 0.75023 0.72054 0.90926 0.0
C176 C 0.69189 0.67047 0.89453 0.0
C177 C 0.57099 0.61829 0.8804 0.0
C178 C 0.52177 0.57307 0.89671 0.0
C179 C 0.56309 0.60509 0.8513 0.0
C180 C 0.61851 0.64136 0.8333 0.0
C181 C 0.64998 0.71119 0.83176 0.0
C182 C 0.70292 0.7437 0.81481 0.0
C183 C 0.72495 0.70672 0.79926 0.0
C184 C 0.69315 0.63695 0.80081 0.0
C185 C 0.64035 0.6046 0.81758 0.0
C186 C 0.95507 0.14916 0.08944 0.0
C187 C 0.01147 0.14196 0.08972 0.0
C188 C 0.95353 0.19804 0.10722 0.0
C189 C 0.00836 0.24165 0.12584 0.0
H190 H 0.91238 0.11811 0.0749 0.0
H191 H 0.91002 0.2033 0.10569 0.0
S192 S 0.16476 0.239 0.13733 0.0
N193 N 0.12141 0.17949 0.11217 0.0
N194 N 0.11801 0.27104 0.14535 0.0
C195 C 0.06379 0.23325 0.12723 0.0
C196 C 0.06543 0.18347 0.10925 0.0
C197 C 0.93092 0.04362 0.46393 0.0
C198 C 0.93136 0.04589 0.4349 0.0
C199 C 0.87716 0.03803 0.47802 0.0
C200 C 0.82264 0.03604 0.46366 0.0
H201 H 0.97252 0.04633 0.47589 0.0
H202 H 0.87884 0.03665 0.50038 0.0
S203 S 0.79871 0.03972 0.38776 0.0
N204 N 0.87148 0.04446 0.39229 0.0
N205 N 0.77128 0.03539 0.41898 0.0
C206 C 0.82208 0.03784 0.43471 0.0
C207 C 0.87617 0.04228 0.42026 0.0
C208 C 0.89361 0.76331 0.77173 0.0
C209 C 0.89953 0.80945 0.75252 0.0
C210 C 0.83646 0.72953 0.78633 0.0
C211 C 0.7831 0.74076 0.78243 0.0
H212 H 0.93415 0.75441 0.77616 0.0
H213 H 0.83487 0.69578 0.80141 0.0
S214 S 0.77005 0.85112 0.73283 0.0
N215 N 0.84432 0.86083 0.72905 0.0
N216 N 0.73702 0.79701 0.75669 0.0
C217 C 0.78695 0.78465 0.76263 0.0
C218 C 0.84501 0.81887 0.74756 0.0
C219 C 0.09788 0.8974 0.10482 0.0
C220 C 0.12627 0.89685 0.07969 0.0
C221 C 0.08461 0.84874 0.1237 0.0
C222 C 0.09944 0.79774 0.11829 0.0
H223 H 0.08378 0.93444 0.10964 0.0
H224 H 0.0617 0.85052 0.14252 0.0
S225 S 0.17625 0.77464 0.05615 0.0
N226 N 0.17142 0.842 0.05113 0.0
N227 N 0.14501 0.75008 0.08626 0.0
C228 C 0.12969 0.79771 0.09371 0.0
C229 C 0.14351 0.84735 0.07454 0.0
C230 C 0.3161 0.12958 0.42084 0.0
C231 C 0.24758 0.10354 0.42363 0.0
C232 C 0.35551 0.11973 0.4403 0.0
C233 C 0.3284 0.0836 0.46355 0.0
H234 H 0.33948 0.15611 0.40294 0.0
H235 H 0.40723 0.13849 0.43647 0.0
S236 S 0.15391 0.01158 0.48259 0.0
N237 N 0.15548 0.04425 0.45285 0.0
N238 N 0.23029 0.02676 0.48973 0.0
C239 C 0.26082 0.05994 0.46744 0.0
C240 C 0.22036 0.06987 0.4475 0.0
C241 C 0.18992 0.18953 0.75438 0.0
C242 C 0.16365 0.13013 0.76814 0.0
C243 C 0.22978 0.25254 0.76905 0.0
C244 C 0.24303 0.25802 0.79795 0.0
H245 H 0.18288 0.18718 0.732 0.0
H246 H 0.25258 0.29709 0.75762 0.0
S247 S 0.17965 0.11855 0.84401 0.0
N248 N 0.1492 0.08116 0.81256 0.0
N249 N 0.22319 0.19998 0.84007 0.0
C250 C 0.21356 0.19953 0.81215 0.0
C251 C 0.17405 0.13537 0.79723 0.0
C252 C 0.88838 0.05897 0.66435 0.0
C253 C 0.91136 0.01386 0.66011 0.0
C254 C 0.84052 0.05811 0.64564 0.0
C255 C 0.81311 0.01132 0.62232 0.0
H256 H 0.90722 0.09505 0.68233 0.0
H257 H 0.82361 0.09319 0.6498 0.0
S258 S 0.8569 0.88358 0.60119 0.0
N259 N 0.90385 0.92212 0.63018 0.0
N260 N 0.81322 0.92025 0.59538 0.0
C261 C 0.83601 0.96655 0.61758 0.0
C262 C 0.8854 0.96795 0.63636 0.0
C263 C 0.9348 0.89464 0.94462 0.0
C264 C 0.93573 0.91324 0.97284 0.0
C265 C 0.87476 0.85212 0.92886 0.0
C266 C 0.81319 0.82595 0.94072 0.0
H267 H 0.98099 0.91206 0.93468 0.0
H268 H 0.87667 0.83847 0.90731 0.0
S269 S 0.78806 0.8603 0.01364 0.0
N270 N 0.8697 0.90422 0.01181 0.0
N271 N 0.75661 0.82274 0.98231 0.0
C272 C 0.81314 0.84586 0.96869 0.0
C273 C 0.87446 0.88986 0.98472 0.0
C274 C 0.07029 0.92325 0.27995 0.0
C275 C 0.0491 0.92016 0.30695 0.0
C276 C 0.05642 0.86507 0.26395 0.0
C277 C 0.0212 0.80142 0.27435 0.0
H278 H 0.09947 0.9713 0.27131 0.0
H279 H 0.07504 0.87019 0.2435 0.0
S280 S 0.95192 0.76533 0.34333 0.0
N281 N 0.98805 0.84781 0.3429 0.0
N282 N 0.96306 0.73822 0.31294 0.0
C283 C -0.00295 0.79709 0.30083 0.0
C284 C 0.01075 0.85653 0.31711 0.0
C285 C 0.18871 0.95626 0.63748 0.0
C286 C 0.1889 0.92842 0.66273 0.0
C287 C 0.23344 0.96342 0.61754 0.0
C288 C 0.27969 0.94245 0.62191 0.0
H289 H 0.15506 0.97455 0.63333 0.0
H290 H 0.23232 0.98625 0.59866 0.0
S291 S 0.29977 0.86437 0.68388 0.0
N292 N 0.23837 0.87759 0.6904 0.0
N293 N 0.3226 0.89182 0.65306 0.0
C294 C 0.2793 0.91283 0.64664 0.0
C295 C 0.23391 0.90562 0.66699 0.0
C296 C 0.31328 0.20802 0.98136 0.0
C297 C 0.25167 0.19269 0.99123 0.0
C298 C 0.34903 0.26378 0.96603 0.0
C299 C 0.32409 0.30588 0.95952 0.0
H300 H 0.33331 0.17566 0.9849 0.0
H301 H 0.3959 0.27299 0.95861 0.0
S302 S 0.16545 0.28828 0.981 0.0
N303 N 0.16837 0.22564 0.99445 0.0
N304 N 0.23437 0.32903 0.96476 0.0
C305 C 0.26361 0.2925 0.97011 0.0
C306 C 0.22769 0.23624 0.98615 0.0
C307 C 0.02425 0.21337 0.31806 0.0
C308 C 0.0909 0.23881 0.32797 0.0
C309 C 0.00677 0.25077 0.30141 0.0
C310 C 0.05529 0.31503 0.29436 0.0
H311 H 0.98601 0.1627 0.32177 0.0
H312 H 0.95563 0.22782 0.29287 0.0
S313 S 0.23412 0.40913 0.31978 0.0
N314 N 0.20382 0.33512 0.33255 0.0
N315 N 0.17072 0.40632 0.30211 0.0
C316 C 0.12103 0.34299 0.30606 0.0
C317 C 0.1389 0.30464 0.32265 0.0
loop_
_geom_bond_atom_site_label_1
_geom_bond_atom_site_label_2
_geom_bond_distance
_geom_bond_site_symmetry_2
_ccdc_geom_bond_type
Zn0 O3 2.031 . S
Zn0 O5 2.049 1_564 S
Zn0 O10 2.067 1_554 S
Zn1 O2 1.962 . S
Zn1 O4 1.986 . S
Zn1 O6 1.996 . S
Zn1 O9 1.943 . S
O2 Zn1 1.962 . S
O2 C7 1.254 1_545 S
O3 Zn0 2.031 . S
O3 C7 1.269 . S
O4 Zn1 1.986 . S
O4 C11 1.262 . S
O5 Zn0 2.049 1_546 S
O5 C13 1.260 . S
O6 Zn1 1.996 . S
O6 C13 1.257 1_554 S
C7 O2 1.254 1_565 S
C7 O3 1.269 . S
C8 O9 1.256 1_665 S
C8 O10 1.265 1_654 S
O9 Zn1 1.943 . S
O9 C8 1.256 1_445 S
O10 Zn0 2.067 1_556 S
O10 C8 1.265 1_456 S
C11 O4 1.262 . S
C11 O12 1.232 . S
O12 C11 1.232 . S
C13 O5 1.260 . S
C13 O6 1.257 1_556 S
Zn14 O17 2.031 . S
Zn14 O19 2.049 . S
Zn14 O24 2.067 . S
Zn15 O16 1.962 . S
Zn15 O18 1.986 1_455 S
Zn15 O20 1.996 . S
Zn15 O23 1.943 1_445 S
O16 Zn15 1.962 . S
O16 C21 1.254 . S
O17 Zn14 2.031 . S
O17 C21 1.269 . S
O18 Zn15 1.986 1_655 S
O18 C25 1.262 . S
O19 Zn14 2.049 . S
O19 C27 1.260 . S
O20 Zn15 1.996 . S
O20 C27 1.257 . S
C21 O16 1.254 . S
C21 O17 1.269 . S
C22 O23 1.249 1_455 S
C22 O24 1.270 1_565 S
O23 Zn15 1.943 1_665 S
O23 C22 1.249 1_655 S
O24 Zn14 2.067 . S
O24 C22 1.270 1_545 S
C25 O18 1.262 . S
C25 O26 1.232 1_545 S
O26 C25 1.232 1_565 S
C27 O19 1.260 . S
C27 O20 1.257 . S
Zn28 O31 2.031 1_565 S
Zn28 O33 2.049 . S
Zn28 O38 2.067 1_565 S
Zn29 O30 1.962 1_545 S
Zn29 O32 1.986 1_445 S
Zn29 O34 1.996 1_445 S
Zn29 O37 1.943 . S
O30 Zn29 1.962 1_565 S
O30 C35 1.254 . S
O31 Zn28 2.031 1_545 S
O31 C35 1.269 1_545 S
O32 Zn29 1.986 1_665 S
O32 C39 1.262 1_565 S
O33 Zn28 2.049 . S
O33 C41 1.260 1_455 S
O34 Zn29 1.996 1_665 S
O34 C41 1.257 . S
C35 O30 1.254 . S
C35 O31 1.269 1_565 S
C36 O37 1.249 . S
C36 O38 1.270 . S
O37 Zn29 1.943 . S
O37 C36 1.249 . S
O38 Zn28 2.067 1_545 S
O38 C36 1.270 . S
C39 O32 1.262 1_545 S
C39 O40 1.232 1_655 S
O40 C39 1.232 1_455 S
C41 O33 1.260 1_655 S
C41 O34 1.257 . S
H42 C61 0.949 . S
H43 C62 0.950 . S
H44 C64 0.950 1_655 S
H45 C65 0.950 1_655 S
H46 C67 0.950 . S
H47 C70 0.950 . S
H48 C71 0.950 . S
H49 C73 0.951 . S
H50 C74 0.949 . S
H51 C76 0.949 . S
H52 C77 0.950 . S
H53 C79 0.950 . S
H54 C80 0.950 . S
H55 C82 0.950 . S
H56 C85 0.950 1_655 S
H57 C86 0.950 1_655 S
H58 C88 0.951 . S
H59 C89 0.949 . S
C60 C61 1.376 . S
C60 C65 1.386 . S
C60 C66 1.483 . S
C61 H42 0.949 . S
C61 C60 1.376 . S
C61 C62 1.397 . S
C62 H43 0.950 . S
C62 C61 1.397 . S
C62 C63 1.391 . S
C63 C62 1.391 . S
C63 C64 1.405 . S
C64 H44 0.950 1_455 S
C64 C63 1.405 . S
C64 C65 1.367 . S
C65 H45 0.950 1_455 S
C65 C60 1.386 . S
C65 C64 1.367 . S
C66 C60 1.483 . S
C66 C67 1.382 . S
C66 C68 1.403 . S
C67 H46 0.950 . S
C67 C66 1.382 . S
C67 C83 1.411 . S
C68 C66 1.403 . S
C68 C69 1.489 . S
C68 C82 1.411 . S
C69 C68 1.489 . S
C69 C70 1.383 . S
C69 C74 1.382 1_455 S
C70 H47 0.950 . S
C70 C69 1.383 . S
C70 C71 1.395 . S
C71 H48 0.950 . S
C71 C70 1.395 . S
C71 C72 1.288 . S
C72 C71 1.288 . S
C72 C73 1.392 1_455 S
C73 H49 0.951 . S
C73 C72 1.392 1_655 S
C73 C74 1.392 . S
C74 H50 0.949 . S
C74 C69 1.382 1_655 S
C74 C73 1.392 . S
C75 C76 1.376 1_455 S
C75 C80 1.386 . S
C75 C81 1.483 . S
C76 H51 0.949 . S
C76 C75 1.376 1_655 S
C76 C77 1.397 . S
C77 H52 0.950 . S
C77 C76 1.397 . S
C77 C78 1.391 1_655 S
C78 C77 1.391 1_455 S
C78 C79 1.405 . S
C79 H53 0.950 . S
C79 C78 1.405 . S
C79 C80 1.367 . S
C80 H54 0.950 . S
C80 C75 1.386 . S
C80 C79 1.367 . S
C81 C75 1.483 . S
C81 C82 1.382 . S
C81 C83 1.403 . S
C82 H55 0.950 . S
C82 C68 1.411 . S
C82 C81 1.382 . S
C83 C67 1.411 . S
C83 C81 1.403 . S
C83 C84 1.489 . S
C84 C83 1.489 . S
C84 C85 1.383 . S
C84 C89 1.382 . S
C85 H56 0.950 1_455 S
C85 C84 1.383 . S
C85 C86 1.395 . S
C86 H57 0.950 1_455 S
C86 C85 1.395 . S
C86 C87 1.288 . S
C87 C86 1.288 . S
C87 C88 1.392 . S
C88 H58 0.951 . S
C88 C87 1.392 . S
C88 C89 1.392 . S
C89 H59 0.949 . S
C89 C84 1.382 . S
C89 C88 1.392 . S
H90 C109 0.949 . S
H91 C110 0.950 . S
H92 C112 0.950 . S
H93 C113 0.950 . S
H94 C115 0.950 . S
H95 C118 0.950 . S
H96 C119 0.950 . S
H97 C121 0.951 . S
H98 C122 0.949 . S
H99 C124 0.949 . S
H100 C125 0.950 . S
H101 C127 0.950 . S
H102 C128 0.950 . S
H103 C130 0.950 . S
H104 C133 0.950 . S
H105 C134 0.950 1_565 S
H106 C136 0.951 . S
H107 C137 0.949 . S
C108 C109 1.376 . S
C108 C113 1.386 1_545 S
C108 C114 1.483 . S
C109 H90 0.949 . S
C109 C108 1.376 . S
C109 C110 1.397 . S
C110 H91 0.950 . S
C110 C109 1.397 . S
C110 C111 1.391 . S
C111 C110 1.391 . S
C111 C112 1.405 1_545 S
C112 H92 0.950 . S
C112 C111 1.405 1_565 S
C112 C113 1.367 . S
C113 H93 0.950 . S
C113 C108 1.386 1_565 S
C113 C112 1.367 . S
C114 C108 1.483 . S
C114 C115 1.382 . S
C114 C116 1.403 . S
C115 H94 0.950 . S
C115 C114 1.382 . S
C115 C131 1.411 . S
C116 C114 1.403 . S
C116 C117 1.489 . S
C116 C130 1.411 . S
C117 C116 1.489 . S
C117 C118 1.383 . S
C117 C122 1.382 1_545 S
C118 H95 0.950 . S
C118 C117 1.383 . S
C118 C119 1.395 . S
C119 H96 0.950 . S
C119 C118 1.395 . S
C119 C120 1.288 . S
C120 C119 1.288 . S
C120 C121 1.392 1_545 S
C121 H97 0.951 . S
C121 C120 1.392 1_565 S
C121 C122 1.392 . S
C122 H98 0.949 . S
C122 C117 1.382 1_565 S
C122 C121 1.392 . S
C123 C124 1.376 1_545 S
C123 C128 1.386 . S
C123 C129 1.483 . S
C124 H99 0.949 . S
C124 C123 1.376 1_565 S
C124 C125 1.397 . S
C125 H100 0.950 . S
C125 C124 1.397 . S
C125 C126 1.391 1_565 S
C126 C125 1.391 1_545 S
C126 C127 1.405 . S
C127 H101 0.950 . S
C127 C126 1.405 . S
C127 C128 1.367 . S
C128 H102 0.950 . S
C128 C123 1.386 . S
C128 C127 1.367 . S
C129 C123 1.483 . S
C129 C130 1.382 . S
C129 C131 1.403 . S
C130 H103 0.950 . S
C130 C116 1.411 . S
C130 C129 1.382 . S
C131 C115 1.411 . S
C131 C129 1.403 . S
C131 C132 1.489 . S
C132 C131 1.489 . S
C132 C133 1.383 1_545 S
C132 C137 1.382 . S
C133 H104 0.950 . S
C133 C132 1.383 1_565 S
C133 C134 1.395 1_565 S
C134 H105 0.950 1_545 S
C134 C133 1.395 1_545 S
C134 C135 1.288 . S
C135 C134 1.288 . S
C135 C136 1.392 . S
C136 H106 0.951 . S
C136 C135 1.392 . S
C136 C137 1.392 . S
C137 H107 0.949 . S
C137 C132 1.382 . S
C137 C136 1.392 . S
H138 C157 0.949 . S
H139 C158 0.950 . S
H140 C160 0.950 . S
H141 C161 0.950 . S
H142 C163 0.950 . S
H143 C166 0.950 . S
H144 C167 0.950 . S
H145 C169 0.951 . S
H146 C170 0.949 . S
H147 C172 0.949 . S
H148 C173 0.950 . S
H149 C175 0.950 . S
H150 C176 0.950 . S
H151 C178 0.950 . S
H152 C181 0.950 . S
H153 C182 0.950 . S
H154 C184 0.951 . S
H155 C185 0.949 . S
C156 C157 1.376 . S
C156 C161 1.386 . S
C156 C162 1.483 . S
C157 H138 0.949 . S
C157 C156 1.376 . S
C157 C158 1.397 . S
C158 H139 0.950 . S
C158 C157 1.397 . S
C158 C159 1.391 . S
C159 C158 1.391 . S
C159 C160 1.405 . S
C160 H140 0.950 . S
C160 C159 1.405 . S
C160 C161 1.367 . S
C161 H141 0.950 . S
C161 C156 1.386 . S
C161 C160 1.367 . S
C162 C156 1.483 . S
C162 C163 1.382 . S
C162 C164 1.403 . S
C163 H142 0.950 . S
C163 C162 1.382 . S
C163 C179 1.411 . S
C164 C162 1.403 . S
C164 C165 1.489 . S
C164 C178 1.411 . S
C165 C164 1.489 . S
C165 C166 1.383 . S
C165 C170 1.382 . S
C166 H143 0.950 . S
C166 C165 1.383 . S
C166 C167 1.395 . S
C167 H144 0.950 . S
C167 C166 1.395 . S
C167 C168 1.288 . S
C168 C167 1.288 . S
C168 C169 1.392 . S
C169 H145 0.951 . S
C169 C168 1.392 . S
C169 C170 1.392 . S
C170 H146 0.949 . S
C170 C165 1.382 . S
C170 C169 1.392 . S
C171 C172 1.376 . S
C171 C176 1.386 . S
C171 C177 1.483 . S
C172 H147 0.949 . S
C172 C171 1.376 . S
C172 C173 1.397 . S
C173 H148 0.950 . S
C173 C172 1.397 . S
C173 C174 1.391 . S
C174 C173 1.391 . S
C174 C175 1.405 . S
C175 H149 0.950 . S
C175 C174 1.405 . S
C175 C176 1.367 . S
C176 H150 0.950 . S
C176 C171 1.386 . S
C176 C175 1.367 . S
C177 C171 1.483 . S
C177 C178 1.382 . S
C177 C179 1.403 . S
C178 H151 0.950 . S
C178 C164 1.411 . S
C178 C177 1.382 . S
C179 C163 1.411 . S
C179 C177 1.403 . S
C179 C180 1.489 . S
C180 C179 1.489 . S
C180 C181 1.383 . S
C180 C185 1.382 . S
C181 H152 0.950 . S
C181 C180 1.383 . S
C181 C182 1.395 . S
C182 H153 0.950 . S
C182 C181 1.395 . S
C182 C183 1.288 . S
C183 C182 1.288 . S
C183 C184 1.392 . S
C184 H154 0.951 . S
C184 C183 1.392 . S
C184 C185 1.392 . S
C185 H155 0.949 . S
C185 C180 1.382 . S
C185 C184 1.392 . S
C186 C187 1.369 . S
C186 C188 1.419 . S
C186 H190 0.930 1_455 S
C187 C186 1.369 . S
C187 C196 1.429 . S
C188 C186 1.419 . S
C188 C189 1.363 . S
C188 H191 0.929 1_455 S
C189 C188 1.363 . S
C189 C195 1.428 . S
H190 C186 0.930 1_655 S
H191 C188 0.929 1_655 S
S192 N193 1.613 . S
S192 N194 1.610 . S
N193 S192 1.613 . S
N193 C196 1.350 . S
N194 S192 1.610 . S
N194 C195 1.351 . S
C195 C189 1.428 . S
C195 N194 1.351 . S
C195 C196 1.434 . S
C196 C187 1.429 . S
C196 N193 1.350 . S
C196 C195 1.434 . S
C197 C198 1.369 . S
C197 C199 1.419 . S
C197 H201 0.930 . S
C198 C197 1.369 . S
C198 C207 1.429 . S
C199 C197 1.419 . S
C199 C200 1.363 . S
C199 H202 0.929 . S
C200 C199 1.363 . S
C200 C206 1.428 . S
H201 C197 0.930 . S
H202 C199 0.929 . S
S203 N204 1.613 . S
S203 N205 1.610 . S
N204 S203 1.613 . S
N204 C207 1.350 . S
N205 S203 1.610 . S
N205 C206 1.351 . S
C206 C200 1.428 . S
C206 N205 1.351 . S
C206 C207 1.434 . S
C207 C198 1.429 . S
C207 N204 1.350 . S
C207 C206 1.434 . S
C208 C209 1.369 . S
C208 C210 1.419 . S
C208 H212 0.930 . S
C209 C208 1.369 . S
C209 C218 1.429 . S
C210 C208 1.419 . S
C210 C211 1.363 . S
C210 H213 0.929 . S
C211 C210 1.363 . S
C211 C217 1.428 . S
H212 C208 0.930 . S
H213 C210 0.929 . S
S214 N215 1.613 . S
S214 N216 1.610 . S
N215 S214 1.613 . S
N215 C218 1.350 . S
N216 S214 1.610 . S
N216 C217 1.351 . S
C217 C211 1.428 . S
C217 N216 1.351 . S
C217 C218 1.434 . S
C218 C209 1.429 . S
C218 N215 1.350 . S
C218 C217 1.434 . S
C219 C220 1.369 . S
C219 C221 1.419 . S
C219 H223 0.930 . S
C220 C219 1.369 . S
C220 C229 1.429 . S
C221 C219 1.419 . S
C221 C222 1.363 . S
C221 H224 0.929 . S
C222 C221 1.363 . S
C222 C228 1.428 . S
H223 C219 0.930 . S
H224 C221 0.929 . S
S225 N226 1.613 . S
S225 N227 1.610 . S
N226 S225 1.613 . S
N226 C229 1.350 . S
N227 S225 1.610 . S
N227 C228 1.351 . S
C228 C222 1.428 . S
C228 N227 1.351 . S
C228 C229 1.434 . S
C229 C220 1.429 . S
C229 N226 1.350 . S
C229 C228 1.434 . S
C230 C231 1.369 . S
C230 C232 1.419 . S
C230 H234 0.930 . S
C231 C230 1.369 . S
C231 C240 1.429 . S
C232 C230 1.419 . S
C232 C233 1.363 . S
C232 H235 0.929 . S
C233 C232 1.363 . S
C233 C239 1.428 . S
H234 C230 0.930 . S
H235 C232 0.929 . S
S236 N237 1.613 . S
S236 N238 1.610 . S
N237 S236 1.613 . S
N237 C240 1.350 . S
N238 S236 1.610 . S
N238 C239 1.351 . S
C239 C233 1.428 . S
C239 N238 1.351 . S
C239 C240 1.434 . S
C240 C231 1.429 . S
C240 N237 1.350 . S
C240 C239 1.434 . S
C241 C242 1.369 . S
C241 C243 1.419 . S
C241 H245 0.930 . S
C242 C241 1.369 . S
C242 C251 1.429 . S
C243 C241 1.419 . S
C243 C244 1.363 . S
C243 H246 0.929 . S
C244 C243 1.363 . S
C244 C250 1.428 . S
H245 C241 0.930 . S
H246 C243 0.929 . S
S247 N248 1.613 . S
S247 N249 1.610 . S
N248 S247 1.613 . S
N248 C251 1.350 . S
N249 S247 1.610 . S
N249 C250 1.351 . S
C250 C244 1.428 . S
C250 N249 1.351 . S
C250 C251 1.434 . S
C251 C242 1.429 . S
C251 N248 1.350 . S
C251 C250 1.434 . S
C252 C253 1.369 . S
C252 C254 1.419 . S
C252 H256 0.930 . S
C253 C252 1.369 . S
C253 C262 1.429 1_545 S
C254 C252 1.419 . S
C254 C255 1.363 . S
C254 H257 0.929 . S
C255 C254 1.363 . S
C255 C261 1.428 1_545 S
H256 C252 0.930 . S
H257 C254 0.929 . S
S258 N259 1.613 . S
S258 N260 1.610 . S
N259 S258 1.613 . S
N259 C262 1.350 . S
N260 S258 1.610 . S
N260 C261 1.351 . S
C261 C255 1.428 1_565 S
C261 N260 1.351 . S
C261 C262 1.434 . S
C262 C253 1.429 1_565 S
C262 N259 1.350 . S
C262 C261 1.434 . S
C263 C264 1.369 . S
C263 C265 1.419 . S
C263 H267 0.930 1_655 S
C264 C263 1.369 . S
C264 C273 1.429 . S
C265 C263 1.419 . S
C265 C266 1.363 . S
C265 H268 0.929 . S
C266 C265 1.363 . S
C266 C272 1.428 . S
H267 C263 0.930 1_455 S
H268 C265 0.929 . S
S269 N270 1.613 . S
S269 N271 1.610 1_554 S
N270 S269 1.613 . S
N270 C273 1.350 1_554 S
N271 S269 1.610 1_556 S
N271 C272 1.351 . S
C272 C266 1.428 . S
C272 N271 1.351 . S
C272 C273 1.434 . S
C273 C264 1.429 . S
C273 N270 1.350 1_556 S
C273 C272 1.434 . S
C274 C275 1.369 . S
C274 C276 1.419 . S
C274 H278 0.930 . S
C275 C274 1.369 . S
C275 C284 1.429 1_455 S
C276 C274 1.419 . S
C276 C277 1.363 . S
C276 H279 0.929 . S
C277 C276 1.363 . S
C277 C283 1.428 1_455 S
H278 C274 0.930 . S
H279 C276 0.929 . S
S280 N281 1.613 . S
S280 N282 1.610 . S
N281 S280 1.613 . S
N281 C284 1.350 . S
N282 S280 1.610 . S
N282 C283 1.351 . S
C283 C277 1.428 1_655 S
C283 N282 1.351 . S
C283 C284 1.434 . S
C284 C275 1.429 1_655 S
C284 N281 1.350 . S
C284 C283 1.434 . S
C285 C286 1.369 1_545 S
C285 C287 1.419 . S
C285 H289 0.930 . S
C286 C285 1.369 1_565 S
C286 C295 1.429 . S
C287 C285 1.419 . S
C287 C288 1.363 . S
C287 H290 0.929 . S
C288 C287 1.363 . S
C288 C294 1.428 1_545 S
H289 C285 0.930 . S
H290 C287 0.929 . S
S291 N292 1.613 . S
S291 N293 1.610 . S
N292 S291 1.613 . S
N292 C295 1.350 . S
N293 S291 1.610 . S
N293 C294 1.351 . S
C294 C288 1.428 1_565 S
C294 N293 1.351 . S
C294 C295 1.434 . S
C295 C286 1.429 . S
C295 N292 1.350 . S
C295 C294 1.434 . S
C296 C297 1.369 . S
C296 C298 1.419 . S
C296 H300 0.930 1_556 S
C297 C296 1.369 . S
C297 C306 1.429 . S
C298 C296 1.419 . S
C298 C299 1.363 . S
C298 H301 0.929 . S
C299 C298 1.363 . S
C299 C305 1.428 . S
H300 C296 0.930 1_554 S
H301 C298 0.929 . S
S302 N303 1.613 . S
S302 N304 1.610 . S
N303 S302 1.613 . S
N303 C306 1.350 . S
N304 S302 1.610 . S
N304 C305 1.351 . S
C305 C299 1.428 . S
C305 N304 1.351 . S
C305 C306 1.434 . S
C306 C297 1.429 . S
C306 N303 1.350 . S
C306 C305 1.434 . S
C307 C308 1.369 . S
C307 C309 1.419 . S
C307 H311 0.930 1_455 S
C308 C307 1.369 . S
C308 C317 1.429 . S
C309 C307 1.419 . S
C309 C310 1.363 . S
C309 H312 0.929 1_455 S
C310 C309 1.363 . S
C310 C316 1.428 . S
H311 C307 0.930 1_655 S
H312 C309 0.929 1_655 S
S313 N314 1.613 . S
S313 N315 1.610 . S
N314 S313 1.613 . S
N314 C317 1.350 . S
N315 S313 1.610 . S
N315 C316 1.351 . S
C316 C310 1.428 . S
C316 N315 1.351 . S
C316 C317 1.434 . S
C317 C308 1.429 . S
C317 N314 1.350 . S
C317 C316 1.434 . S
C189 C63 1.388 . S
C187 C11 1.364 . S
C198 C25 1.428 . S
C200 C111 1.449 . S
C209 C41 1.416 . S
C211 C183 1.478 . S
C220 C7 1.402 . S
C222 C87 1.392 . S
C233 C135 1.449 . S
C231 C21 1.460 . S
C242 C36 1.432 . S
C244 C159 1.518 . S
C255 C120 1.442 . S
C253 C39 1.419 . S
C264 C8 1.433 1_556 S
C266 C174 1.498 . S
C277 C78 1.531 . S
C275 C22 1.471 . S
C288 C126 1.452 . S
C286 C35 1.451 . S
C299 C168 1.463 . S
C297 C13 1.404 . S
C308 C27 1.478 . S
C310 C72 1.517 . S
