# Generated by pormake.
# Topology pto, (3,4)-cn, num edge types: 1
# Building blocks:
#     Node 0, Type 0, BuildingBlock: ESEHIV_clean_linker_0, # of connection points: 3
#     Node 1, Type 0, BuildingBlock: ESEHIV_clean_linker_0, # of connection points: 3
#     Node 2, Type 0, BuildingBlock: ESEHIV_clean_linker_0, # of connection points: 3
#     Node 3, Type 0, BuildingBlock: ESEHIV_clean_linker_0, # of connection points: 3
#     Node 4, Type 0, BuildingBlock: ESEHIV_clean_linker_0, # of connection points: 3
#     Node 5, Type 0, BuildingBlock: ESEHIV_clean_linker_0, # of connection points: 3
#     Node 6, Type 0, BuildingBlock: ESEHIV_clean_linker_0, # of connection points: 3
#     Node 7, Type 0, BuildingBlock: ESEHIV_clean_linker_0, # of connection points: 3
#     Node 8, Type 1, BuildingBlock: NAWXER_clean_sbu_0, # of connection points: 4
#     Node 9, Type 1, BuildingBlock: NAWXER_clean_sbu_0, # of connection points: 4
#     Node 10, Type 1, BuildingBlock: NAWXER_clean_sbu_0, # of connection points: 4
#     Node 11, Type 1, BuildingBlock: NAWXER_clean_sbu_0, # of connection points: 4
#     Node 12, Type 1, BuildingBlock: NAWXER_clean_sbu_0, # of connection points: 4
#     Node 13, Type 1, BuildingBlock: NAWXER_clean_sbu_0, # of connection points: 4
#     Edge 14, Type (0, 1), BuildingBlock: MIFKUJ_clean_linker_0, # of connection points: 2
#     Edge 15, Type (0, 1), BuildingBlock: MIFKUJ_clean_linker_0, # of connection points: 2
#     Edge 16, Type (0, 1), BuildingBlock: MIFKUJ_clean_linker_0, # of connection points: 2
#     Edge 17, Type (0, 1), BuildingBlock: MIFKUJ_clean_linker_0, # of connection points: 2
#     Edge 18, Type (0, 1), BuildingBlock: MIFKUJ_clean_linker_0, # of connection points: 2
#     Edge 19, Type (0, 1), BuildingBlock: MIFKUJ_clean_linker_0, # of connection points: 2
#     Edge 20, Type (0, 1), BuildingBlock: MIFKUJ_clean_linker_0, # of connection points: 2
#     Edge 21, Type (0, 1), BuildingBlock: MIFKUJ_clean_linker_0, # of connection points: 2
#     Edge 22, Type (0, 1), BuildingBlock: MIFKUJ_clean_linker_0, # of connection points: 2
#     Edge 23, Type (0, 1), BuildingBlock: MIFKUJ_clean_linker_0, # of connection points: 2
#     Edge 24, Type (0, 1), BuildingBlock: MIFKUJ_clean_linker_0, # of connection points: 2
#     Edge 25, Type (0, 1), BuildingBlock: MIFKUJ_clean_linker_0, # of connection points: 2
#     Edge 26, Type (0, 1), BuildingBlock: MIFKUJ_clean_linker_0, # of connection points: 2
#     Edge 27, Type (0, 1), BuildingBlock: MIFKUJ_clean_linker_0, # of connection points: 2
#     Edge 28, Type (0, 1), BuildingBlock: MIFKUJ_clean_linker_0, # of connection points: 2
#     Edge 29, Type (0, 1), BuildingBlock: MIFKUJ_clean_linker_0, # of connection points: 2
#     Edge 30, Type (0, 1), BuildingBlock: MIFKUJ_clean_linker_0, # of connection points: 2
#     Edge 31, Type (0, 1), BuildingBlock: MIFKUJ_clean_linker_0, # of connection points: 2
#     Edge 32, Type (0, 1), BuildingBlock: MIFKUJ_clean_linker_0, # of connection points: 2
#     Edge 33, Type (0, 1), BuildingBlock: MIFKUJ_clean_linker_0, # of connection points: 2
#     Edge 34, Type (0, 1), BuildingBlock: MIFKUJ_clean_linker_0, # of connection points: 2
#     Edge 35, Type (0, 1), BuildingBlock: MIFKUJ_clean_linker_0, # of connection points: 2
#     Edge 36, Type (0, 1), BuildingBlock: MIFKUJ_clean_linker_0, # of connection points: 2
#     Edge 37, Type (0, 1), BuildingBlock: MIFKUJ_clean_linker_0, # of connection points: 2
# Relax obj value: 0.000
# Max RMSD: 0.005
# Mean RMSD: 0.003
data_MOF--net-pto--node1-NAWXER_clean_sbu_0--node2-ESEHIV_clean_linker_0--edge1-MIFKUJ_clean_linker_0
_symmetry_space_group_name_H-M    P1
_symmetry_Int_Tables_number       1
_symmetry_cell_setting            triclinic
loop_
_symmetry_equiv_pos_as_xyz
'x, y, z'
_cell_length_a     54.544417
_cell_length_b     51.270512
_cell_length_c     47.883684
_cell_angle_alpha  90.390452
_cell_angle_beta   89.998658
_cell_angle_gamma 90.121748
loop_
_atom_site_label
_atom_site_type_symbol
_atom_site_fract_x
_atom_site_fract_y
_atom_site_fract_z
_atom_type_partial_charge
H0 H 0.2429 0.30223 0.21808 0.0
H1 H 0.27176 0.23127 0.25265 0.0
H2 H 0.19755 0.25501 0.27031 0.0
C3 C 0.24066 0.2847 0.23033 0.0
C4 C 0.21817 0.28036 0.24363 0.0
C5 C 0.26004 0.26676 0.23264 0.0
C6 C 0.25684 0.2449 0.25008 0.0
C7 C 0.23457 0.24063 0.26444 0.0
C8 C 0.21509 0.2582 0.26026 0.0
H9 H 0.24261 0.70515 0.79618 0.0
H10 H 0.26886 0.77847 0.76411 0.0
H11 H 0.19804 0.74914 0.73976 0.0
C12 C 0.24005 0.72242 0.78362 0.0
C13 C 0.21805 0.72524 0.76876 0.0
C14 C 0.25859 0.74154 0.78245 0.0
C15 C 0.25489 0.7635 0.76538 0.0
C16 C 0.23331 0.76616 0.74952 0.0
C17 C 0.21484 0.74709 0.75162 0.0
H18 H 0.71251 0.77163 0.24161 0.0
H19 H 0.78487 0.75257 0.27067 0.0
H20 H 0.75103 0.70589 0.20671 0.0
C21 C 0.72838 0.75899 0.24102 0.0
C22 C 0.7292 0.73815 0.22168 0.0
C23 C 0.74818 0.76418 0.25915 0.0
C24 C 0.7694 0.74863 0.2571 0.0
C25 C 0.77081 0.72801 0.23762 0.0
C26 C 0.75043 0.72264 0.22058 0.0
H27 H 0.70933 0.23494 0.76632 0.0
H28 H 0.78066 0.25554 0.73523 0.0
H29 H 0.74836 0.30043 0.80165 0.0
C30 C 0.72525 0.24758 0.76704 0.0
C31 C 0.72642 0.26807 0.7868 0.0
C32 C 0.74448 0.24331 0.74793 0.0
C33 C 0.76546 0.2593 0.74927 0.0
C34 C 0.7673 0.27946 0.76923 0.0
C35 C 0.74748 0.28399 0.78737 0.0
H36 H 0.74544 0.78027 0.76051 0.0
H37 H 0.76555 0.7035 0.7882 0.0
H38 H 0.80531 0.74012 0.72124 0.0
C39 C 0.7571 0.76322 0.75889 0.0
C40 C 0.77583 0.76257 0.73889 0.0
C41 C 0.75317 0.74194 0.77664 0.0
C42 C 0.76857 0.72002 0.77461 0.0
C43 C 0.78721 0.71901 0.75428 0.0
C44 C 0.79061 0.74038 0.73649 0.0
H45 H 0.74575 0.22655 0.24962 0.0
H46 H 0.76803 0.30237 0.22053 0.0
H47 H 0.80518 0.26705 0.28979 0.0
C48 C 0.75773 0.2434 0.25101 0.0
C49 C 0.77602 0.24418 0.27161 0.0
C50 C 0.75458 0.26428 0.23244 0.0
C51 C 0.77015 0.28616 0.23473 0.0
C52 C 0.78835 0.28728 0.25551 0.0
C53 C 0.79116 0.26622 0.27375 0.0
H54 H 0.23912 0.26618 0.72057 0.0
H55 H 0.30118 0.23629 0.76479 0.0
H56 H 0.2651 0.30598 0.7943 0.0
C57 C 0.25207 0.26779 0.73769 0.0
C58 C 0.24968 0.2881 0.75732 0.0
C59 C 0.27073 0.24924 0.74025 0.0
C60 C 0.28718 0.25109 0.76261 0.0
C61 C 0.28564 0.27163 0.78215 0.0
C62 C 0.26675 0.29017 0.7793 0.0
H63 H 0.23601 0.74585 0.28799 0.0
H64 H 0.25976 0.7101 0.21088 0.0
H65 H 0.29698 0.77781 0.24351 0.0
C66 C 0.24804 0.74534 0.26999 0.0
C67 C 0.26679 0.76394 0.26801 0.0
C68 C 0.24499 0.72594 0.24934 0.0
C69 C 0.26173 0.72497 0.22688 0.0
C70 C 0.28102 0.74322 0.22493 0.0
C71 C 0.28304 0.76283 0.24544 0.0
C72 C 0.97442 0.48415 0.26722 0.0
C73 C 0.04127 0.54788 0.26436 0.0
O74 O 0.9848 0.49471 0.28827 0.0
Zn75 Zn 0.00709 0.51712 0.26728 0.0
O76 O 0.98091 0.49079 0.24258 0.0
Zn77 Zn 0.00601 0.51605 0.22228 0.0
O78 O 0.02568 0.49059 0.20175 0.0
O79 O 0.03103 0.48939 0.24754 0.0
O80 O 0.03387 0.54043 0.24017 0.0
O81 O 0.03034 0.53992 0.28619 0.0
O82 O 0.98261 0.54429 0.24901 0.0
O83 O 0.98424 0.54052 0.2032 0.0
C84 C 0.0364 0.48105 0.22298 0.0
C85 C 0.97533 0.55149 0.22484 0.0
C86 C 0.97346 0.45544 0.78463 0.0
C87 C 0.03685 0.52333 0.79208 0.0
O88 O 0.9821 0.46527 0.80705 0.0
Zn89 Zn 0.00513 0.48946 0.78984 0.0
O90 O 0.98164 0.46332 0.76103 0.0
Zn91 Zn 0.00758 0.49078 0.74501 0.0
O92 O 0.031 0.46866 0.72558 0.0
O93 O 0.03173 0.46396 0.7714 0.0
O94 O 0.03185 0.51652 0.76693 0.0
O95 O 0.02537 0.51303 0.81235 0.0
O96 O 0.9812 0.51636 0.77029 0.0
O97 O 0.98649 0.51487 0.72466 0.0
C98 C 0.03998 0.45787 0.74714 0.0
C99 C 0.97562 0.52445 0.74588 0.0
C100 C 0.23148 0.96973 0.54342 0.0
C101 C 0.2308 0.03662 0.47029 0.0
O102 O 0.21278 0.98068 0.53285 0.0
Zn103 Zn 0.23028 0.00369 0.50746 0.0
O104 O 0.25297 0.97659 0.53538 0.0
Zn105 Zn 0.26937 0.00364 0.50669 0.0
O106 O 0.28745 0.02733 0.53076 0.0
O107 O 0.24735 0.03024 0.53581 0.0
O108 O 0.25243 0.02934 0.4772 0.0
O109 O 0.21235 0.02713 0.48293 0.0
O110 O 0.24702 0.97677 0.47858 0.0
O111 O 0.28727 0.98051 0.48243 0.0
C112 C 0.269 0.03753 0.54275 0.0
C113 C 0.26867 0.96984 0.47109 0.0
C114 C 0.53144 0.70634 0.02819 0.0
C115 C 0.47616 0.71089 0.94787 0.0
O116 O 0.52257 0.68721 0.0145 0.0
Zn117 Zn 0.50433 0.70759 0.98726 0.0
O118 O 0.52666 0.72969 0.02067 0.0
Zn119 Zn 0.50676 0.74925 0.9888 0.0
O120 O 0.4836 0.76937 0.01091 0.0
O121 O 0.47668 0.72683 0.0115 0.0
O122 O 0.48355 0.73335 0.9564 0.0
O123 O 0.48385 0.69035 0.95978 0.0
O124 O 0.53304 0.72398 0.96263 0.0
O125 O 0.53273 0.76672 0.96832 0.0
C126 C 0.4707 0.75006 0.01875 0.0
C127 C 0.5422 0.74645 0.95735 0.0
C128 C 0.7832 0.96909 0.54127 0.0
C129 C 0.7821 0.03787 0.47165 0.0
O130 O 0.76147 0.97553 0.53377 0.0
Zn131 Zn 0.74415 1.00216 0.50572 0.0
O132 O 0.80161 0.98045 0.53045 0.0
Zn133 Zn 0.78332 1.00329 0.50632 0.0
O134 O 0.76569 0.02864 0.53599 0.0
O135 O 0.72563 0.02488 0.53093 0.0
O136 O 0.80085 0.02756 0.48281 0.0
O137 O 0.76064 0.02995 0.47848 0.0
O138 O 0.72743 0.97855 0.47978 0.0
O139 O 0.76769 0.97658 0.47649 0.0
C140 C 0.74393 0.03522 0.54327 0.0
C141 C 0.74645 0.96886 0.46838 0.0
C142 C 0.54131 0.26077 0.05595 0.0
C143 C 0.46965 0.25939 0.9945 0.0
O144 O 0.53104 0.24073 0.04535 0.0
Zn145 Zn 0.50568 0.25895 0.02466 0.0
O146 O 0.53291 0.28348 0.0504 0.0
Zn147 Zn 0.50463 0.30075 0.02599 0.0
O148 O 0.48473 0.31861 0.05366 0.0
O149 O 0.4832 0.27564 0.05709 0.0
O150 O 0.47648 0.2824 1.0017 0.0
O151 O 0.48178 0.23965 1.00254 0.0
O152 O 0.5263 0.27778 0.99274 0.0
O153 O 0.52354 0.32041 0.99865 0.0
C154 C 0.47656 0.29831 0.06569 0.0
C155 C 0.53184 0.30093 0.98509 0.0
H156 H 0.17225 0.27195 0.22264 0.0
H157 H 0.13958 0.30442 0.21594 0.0
H158 H 0.18621 0.36398 0.2515 0.0
H159 H 0.21906 0.33183 0.25743 0.0
H160 H 0.13301 0.35745 0.27322 0.0
H161 H 0.18358 0.36798 0.18954 0.0
H162 H 0.20348 0.35103 0.14691 0.0
H163 H 0.13358 0.32618 0.11504 0.0
H164 H 0.11331 0.34264 0.15773 0.0
H165 H 0.07789 0.47701 0.25323 0.0
H166 H 0.10728 0.4413 0.25338 0.0
H167 H 0.06637 0.40228 0.18814 0.0
H168 H 0.03742 0.43905 0.18698 0.0
H169 H 0.11286 0.39362 0.1801 0.0
H170 H 0.06076 0.3844 0.25845 0.0
H171 H 0.03807 0.39775 0.30069 0.0
H172 H 0.10589 0.4146 0.34269 0.0
H173 H 0.12901 0.40168 0.30056 0.0
C174 C 0.1754 0.29198 0.22904 0.0
C175 C 0.19807 0.2995 0.24052 0.0
C176 C 0.15684 0.31045 0.22514 0.0
C177 C 0.16058 0.33654 0.23317 0.0
C178 C 0.18304 0.34393 0.24515 0.0
C179 C 0.20175 0.32563 0.24848 0.0
C180 C 0.14111 0.35627 0.22931 0.0
C181 C 0.12869 0.36556 0.25294 0.0
C182 C 0.13481 0.3659 0.20267 0.0
C183 C 0.14698 0.35624 0.17696 0.0
C184 C 0.17249 0.35866 0.17357 0.0
C185 C 0.18383 0.3492 0.14937 0.0
C186 C 0.16982 0.33745 0.12832 0.0
C187 C 0.14442 0.33523 0.13139 0.0
C188 C 0.133 0.34464 0.15557 0.0
C189 C 0.07532 0.46095 0.23868 0.0
C190 C 0.0553 0.46062 0.22026 0.0
C191 C 0.09202 0.44042 0.23892 0.0
C192 C 0.08865 0.4186 0.22144 0.0
C193 C 0.06926 0.41876 0.20203 0.0
C194 C 0.05276 0.43974 0.20133 0.0
C195 C 0.10511 0.39559 0.22424 0.0
C196 C 0.11692 0.38549 0.20044 0.0
C197 C 0.1104 0.38466 0.25072 0.0
C198 C 0.09661 0.39223 0.27625 0.0
C199 C 0.07084 0.3911 0.27664 0.0
C200 C 0.0579 0.39857 0.30057 0.0
C201 C 0.07053 0.40707 0.32435 0.0
C202 C 0.09613 0.40803 0.32426 0.0
C203 C 0.10917 0.40059 0.30036 0.0
H204 H 0.06048 0.41287 0.34285 0.0
H205 H 0.17863 0.33014 0.10959 0.0
H206 H 0.2225 0.67249 0.763 0.0
H207 H 0.19067 0.63927 0.76941 0.0
H208 H 0.13779 0.69944 0.78756 0.0
H209 H 0.16961 0.73287 0.78089 0.0
H210 H 0.13828 0.65546 0.82634 0.0
H211 H 0.13361 0.67344 0.72781 0.0
H212 H 0.15061 0.67891 0.68049 0.0
H213 H 0.17615 0.59974 0.6809 0.0
H214 H 0.15961 0.59393 0.72842 0.0
H215 H 0.03334 0.57049 0.81867 0.0
H216 H 0.06355 0.60602 0.81731 0.0
H217 H 0.11422 0.55528 0.77399 0.0
H218 H 0.08345 0.5206 0.77382 0.0
H219 H 0.11345 0.59728 0.74812 0.0
H220 H 0.12085 0.57828 0.8459 0.0
H221 H 0.10643 0.57164 0.89415 0.0
H222 H 0.0789 0.65002 0.89688 0.0
H223 H 0.09289 0.65702 0.8485 0.0
C224 C 0.20407 0.67862 0.76831 0.0
C225 C 0.19848 0.70523 0.77139 0.0
C226 C 0.18593 0.65966 0.77193 0.0
C227 C 0.1619 0.66692 0.77897 0.0
C228 C 0.15625 0.69347 0.78219 0.0
C229 C 0.17434 0.7125 0.77815 0.0
C230 C 0.14273 0.64665 0.78264 0.0
C231 C 0.13253 0.64289 0.80922 0.0
C232 C 0.13578 0.62993 0.76044 0.0
C233 C 0.14556 0.63333 0.73177 0.0
C234 C 0.14302 0.65727 0.7179 0.0
C235 C 0.15254 0.66042 0.69103 0.0
C236 C 0.1645 0.6397 0.67772 0.0
C237 C 0.1669 0.61578 0.69124 0.0
C238 C 0.15744 0.61254 0.71814 0.0
C239 C 0.05118 0.5669 0.80948 0.0
C240 C 0.05627 0.54288 0.79656 0.0
C241 C 0.06848 0.58717 0.8087 0.0
C242 C 0.09138 0.58344 0.79565 0.0
C243 C 0.09672 0.55886 0.78399 0.0
C244 C 0.07924 0.53895 0.78411 0.0
C245 C 0.10915 0.60539 0.79216 0.0
C246 C 0.11907 0.60966 0.76544 0.0
C247 C 0.11612 0.62225 0.8144 0.0
C248 C 0.10768 0.61808 0.84347 0.0
C249 C 0.11155 0.59403 0.85671 0.0
C250 C 0.10349 0.59021 0.8841 0.0
C251 C 0.0917 0.61037 0.89854 0.0
C252 C 0.088 0.63441 0.88565 0.0
C253 C 0.09601 0.63832 0.85826 0.0
H254 H 0.08547 0.60737 0.91974 0.0
H255 H 0.17186 0.64218 0.65692 0.0
H256 H 0.79228 0.71027 0.18945 0.0
H257 H 0.82822 0.6823 0.18452 0.0
H258 H 0.83713 0.68178 0.27399 0.0
H259 H 0.80086 0.70949 0.27918 0.0
H260 H 0.88097 0.68858 0.24661 0.0
H261 H 0.8118 0.63029 0.24111 0.0
H262 H 0.77228 0.61433 0.22266 0.0
H263 H 0.80415 0.60526 0.14118 0.0
H264 H 0.84381 0.62154 0.15907 0.0
H265 H 0.95524 0.57909 0.26779 0.0
H266 H 0.92252 0.61107 0.26617 0.0
H267 H 0.91871 0.60272 0.17659 0.0
H268 H 0.95158 0.56999 0.17805 0.0
H269 H 0.87348 0.60223 0.19988 0.0
H270 H 0.94363 0.65745 0.20612 0.0
H271 H 0.98318 0.67321 0.22467 0.0
H272 H 0.9498 0.68824 0.30436 0.0
H273 H 0.91011 0.67222 0.28642 0.0
C274 C 0.80174 0.70406 0.20815 0.0
C275 C 0.79348 0.71195 0.23476 0.0
C276 C 0.82235 0.68813 0.20525 0.0
C277 C 0.83521 0.67967 0.22889 0.0
C278 C 0.82748 0.68807 0.25545 0.0
C279 C 0.80678 0.70398 0.25838 0.0
C280 C 0.85648 0.66176 0.22591 0.0
C281 C 0.87929 0.6696 0.23664 0.0
C282 C 0.85448 0.63732 0.21212 0.0
C283 C 0.83069 0.6274 0.20136 0.0
C284 C 0.81033 0.6251 0.2192 0.0
C285 C 0.78792 0.61596 0.20886 0.0
C286 C 0.78569 0.60886 0.18075 0.0
C287 C 0.8059 0.61081 0.16294 0.0
C288 C 0.82835 0.61998 0.17318 0.0
C289 C 0.94764 0.58406 0.24762 0.0
C290 C 0.95615 0.57194 0.223 0.0
C291 C 0.92894 0.60254 0.24675 0.0
C292 C 0.91834 0.60963 0.22124 0.0
C293 C 0.92671 0.59764 0.19652 0.0
C294 C 0.94555 0.57902 0.19736 0.0
C295 C 0.89796 0.6289 0.22089 0.0
C296 C 0.87528 0.62133 0.20957 0.0
C297 C 0.9001 0.65363 0.23411 0.0
C298 C 0.92391 0.66345 0.24496 0.0
C299 C 0.94475 0.66394 0.22766 0.0
C300 C 0.9672 0.67295 0.23806 0.0
C301 C 0.96902 0.68168 0.26569 0.0
C302 C 0.94837 0.68147 0.28296 0.0
C303 C 0.92588 0.67246 0.27267 0.0
H304 H 0.98641 0.68864 0.2737 0.0
H305 H 0.76832 0.60178 0.17278 0.0
H306 H 0.79045 0.29591 0.8169 0.0
H307 H 0.82641 0.32411 0.82111 0.0
H308 H 0.8317 0.32792 0.73137 0.0
H309 H 0.79549 0.2998 0.72696 0.0
H310 H 0.87647 0.32114 0.75542 0.0
H311 H 0.8075 0.37817 0.76844 0.0
H312 H 0.76877 0.39278 0.78995 0.0
H313 H 0.8041 0.39817 0.86992 0.0
H314 H 0.84298 0.38322 0.84895 0.0
H315 H 0.95174 0.43175 0.73991 0.0
H316 H 0.91835 0.40026 0.73972 0.0
H317 H 0.91647 0.4021 0.82976 0.0
H318 H 0.94992 0.43425 0.83015 0.0
H319 H 0.87091 0.40461 0.80812 0.0
H320 H 0.94058 0.34973 0.79462 0.0
H321 H 0.97932 0.33539 0.77295 0.0
H322 H 0.94291 0.32594 0.69402 0.0
H323 H 0.904 0.34059 0.71512 0.0
C324 C 0.79913 0.30289 0.79802 0.0
C325 C 0.78989 0.29579 0.77157 0.0
C326 C 0.81975 0.31897 0.80048 0.0
C327 C 0.83158 0.32845 0.77657 0.0
C328 C 0.82285 0.32086 0.75012 0.0
C329 C 0.80218 0.30474 0.74763 0.0
C330 C 0.85286 0.34652 0.7792 0.0
C331 C 0.87518 0.33953 0.76668 0.0
C332 C 0.8514 0.37018 0.79456 0.0
C333 C 0.82808 0.37931 0.80718 0.0
C334 C 0.80696 0.38227 0.79066 0.0
C335 C 0.78499 0.39065 0.80274 0.0
C336 C 0.78395 0.39633 0.8313 0.0
C337 C 0.80492 0.39372 0.84781 0.0
C338 C 0.82693 0.38531 0.83583 0.0
C339 C 0.94439 0.42544 0.75977 0.0
C340 C 0.95364 0.43552 0.78509 0.0
C341 C 0.92531 0.40727 0.75959 0.0
C342 C 0.91509 0.39847 0.78471 0.0
C343 C 0.92415 0.40852 0.8101 0.0
C344 C 0.94332 0.42683 0.8103 0.0
C345 C 0.89451 0.37935 0.78417 0.0
C346 C 0.87228 0.38614 0.79705 0.0
C347 C 0.89607 0.35549 0.76915 0.0
C348 C 0.9194 0.34646 0.75642 0.0
C349 C 0.94086 0.34477 0.77259 0.0
C350 C 0.96285 0.33656 0.76042 0.0
C351 C 0.96359 0.32981 0.73212 0.0
C352 C 0.94232 0.33119 0.71594 0.0
C353 C 0.92028 0.33942 0.728 0.0
H354 H 0.98064 0.32347 0.72273 0.0
H355 H 0.76692 0.40281 0.84061 0.0
H356 H 0.20859 0.23969 0.3137 0.0
H357 H 0.20453 0.2042 0.34673 0.0
H358 H 0.25189 0.15634 0.2957 0.0
H359 H 0.25435 0.19105 0.26119 0.0
H360 H 0.21838 0.12687 0.3152 0.0
H361 H 0.27159 0.18965 0.35764 0.0
H362 H 0.28489 0.23287 0.37481 0.0
H363 H 0.22425 0.23492 0.43195 0.0
H364 H 0.21039 0.19184 0.41486 0.0
H365 H 0.2616 0.04514 0.42666 0.0
H366 H 0.25849 0.07855 0.39058 0.0
H367 H 0.19108 0.10611 0.42719 0.0
H368 H 0.19368 0.07206 0.46306 0.0
H369 H 0.23283 0.14525 0.41574 0.0
H370 H 0.18212 0.07908 0.37251 0.0
H371 H 0.17301 0.03453 0.35574 0.0
H372 H 0.2349 0.0377 0.30044 0.0
H373 H 0.2446 0.08216 0.3172 0.0
C374 C 0.21777 0.22149 0.30902 0.0
C375 C 0.23188 0.2185 0.28455 0.0
C376 C 0.21576 0.20124 0.32832 0.0
C377 C 0.22836 0.17766 0.3242 0.0
C378 C 0.24209 0.17436 0.29958 0.0
C379 C 0.24375 0.19446 0.27996 0.0
C380 C 0.22737 0.15661 0.34563 0.0
C381 C 0.22179 0.13096 0.33712 0.0
C382 C 0.23153 0.16173 0.37442 0.0
C383 C 0.2398 0.18764 0.38475 0.0
C384 C 0.26098 0.19941 0.37372 0.0
C385 C 0.26864 0.22386 0.38346 0.0
C386 C 0.25538 0.23667 0.4044 0.0
C387 C 0.23447 0.225 0.4157 0.0
C388 C 0.22672 0.20056 0.40601 0.0
C389 C 0.24599 0.05817 0.42692 0.0
C390 C 0.22788 0.05601 0.44772 0.0
C391 C 0.24423 0.07719 0.40626 0.0
C392 C 0.22458 0.09477 0.40624 0.0
C393 C 0.20637 0.09267 0.42686 0.0
C394 C 0.20782 0.07319 0.44724 0.0
C395 C 0.22376 0.11587 0.3852 0.0
C396 C 0.2292 0.14141 0.39381 0.0
C397 C 0.22005 0.11055 0.3565 0.0
C398 C 0.21421 0.08386 0.34631 0.0
C399 C 0.19393 0.07019 0.35697 0.0
C400 C 0.18863 0.04497 0.34742 0.0
C401 C 0.20339 0.03327 0.32707 0.0
C402 C 0.22348 0.04678 0.31621 0.0
C403 C 0.22888 0.072 0.32571 0.0
H404 H 0.19922 0.01377 0.31968 0.0
H405 H 0.26135 0.2556 0.41192 0.0
H406 H 0.30562 0.7565 0.76824 0.0
H407 H 0.34321 0.75027 0.79473 0.0
H408 H 0.30241 0.7107 0.85905 0.0
H409 H 0.26449 0.71916 0.83414 0.0
H410 H 0.33383 0.73755 0.8834 0.0
H411 H 0.33967 0.67836 0.80642 0.0
H412 H 0.33952 0.66412 0.75712 0.0
H413 H 0.40074 0.71436 0.74012 0.0
H414 H 0.40106 0.72916 0.78926 0.0
H415 H 0.43898 0.67541 0.94315 0.0
H416 H 0.40299 0.67832 0.91251 0.0
H417 H 0.43377 0.74644 0.87345 0.0
H418 H 0.46937 0.74418 0.9046 0.0
H419 H 0.4083 0.70311 0.83652 0.0
H420 H 0.39901 0.76223 0.91678 0.0
H421 H 0.39912 0.7711 0.96748 0.0
H422 H 0.34292 0.71343 0.9792 0.0
H423 H 0.34287 0.70383 0.9286 0.0
C424 C 0.30446 0.74693 0.78827 0.0
C425 C 0.28178 0.73817 0.79876 0.0
C426 C 0.32617 0.74291 0.80322 0.0
C427 C 0.32591 0.72935 0.82865 0.0
C428 C 0.30328 0.72102 0.83941 0.0
C429 C 0.28153 0.72557 0.82483 0.0
C430 C 0.34908 0.72408 0.84426 0.0
C431 C 0.34992 0.72969 0.87305 0.0
C432 C 0.37035 0.71391 0.83103 0.0
C433 C 0.37023 0.70506 0.80146 0.0
C434 C 0.35299 0.68651 0.79212 0.0
C435 C 0.35289 0.67832 0.76422 0.0
C436 C 0.37006 0.68838 0.74549 0.0
C437 C 0.38742 0.70661 0.75464 0.0
C438 C 0.38758 0.71489 0.78252 0.0
C439 C 0.43832 0.69062 0.92758 0.0
C440 C 0.45691 0.70959 0.92622 0.0
C441 C 0.41775 0.69231 0.9102 0.0
C442 C 0.41579 0.71263 0.89084 0.0
C443 C 0.43505 0.73059 0.88823 0.0
C444 C 0.4553 0.7293 0.90604 0.0
C445 C 0.39272 0.71666 0.87518 0.0
C446 C 0.39202 0.71085 0.84657 0.0
C447 C 0.3714 0.726 0.88864 0.0
C448 C 0.37114 0.73211 0.91896 0.0
C449 C 0.38686 0.75126 0.9302 0.0
C450 C 0.38688 0.75645 0.95891 0.0
C451 C 0.37106 0.74281 0.97654 0.0
C452 C 0.35518 0.72396 0.96551 0.0
C453 C 0.35515 0.71864 0.93682 0.0
H454 H 0.37103 0.74693 0.99873 0.0
H455 H 0.36996 0.68201 0.72389 0.0
H456 H 0.7843 0.79874 0.27511 0.0
H457 H 0.78201 0.83309 0.31063 0.0
H458 H 0.70633 0.8136 0.32613 0.0
H459 H 0.70855 0.77881 0.29101 0.0
H460 H 0.71353 0.86671 0.32346 0.0
H461 H 0.74941 0.7941 0.37097 0.0
H462 H 0.77905 0.75846 0.37778 0.0
H463 H 0.8382 0.81383 0.37982 0.0
H464 H 0.80894 0.8498 0.37261 0.0
H465 H 0.70563 0.94164 0.45053 0.0
H466 H 0.70389 0.90694 0.41505 0.0
H467 H 0.78145 0.91593 0.40015 0.0
H468 H 0.78341 0.94993 0.43581 0.0
H469 H 0.77118 0.86659 0.40357 0.0
H470 H 0.73631 0.93898 0.35414 0.0
H471 H 0.70731 0.97502 0.34625 0.0
H472 H 0.6471 0.92093 0.34693 0.0
H473 H 0.67574 0.88459 0.35519 0.0
C474 C 0.76721 0.80153 0.28622 0.0
C475 C 0.74666 0.78579 0.28022 0.0
C476 C 0.7659 0.82129 0.30648 0.0
C477 C 0.74406 0.82579 0.32127 0.0
C478 C 0.72337 0.81053 0.31497 0.0
C479 C 0.72467 0.79068 0.29478 0.0
C480 C 0.74297 0.84617 0.34357 0.0
C481 C 0.7259 0.86652 0.34121 0.0
C482 C 0.75938 0.8462 0.36648 0.0
C483 C 0.777 0.82462 0.371 0.0
C484 C 0.76876 0.79866 0.37266 0.0
C485 C 0.78548 0.7784 0.37663 0.0
C486 C 0.81049 0.78387 0.37916 0.0
C487 C 0.81882 0.80962 0.37782 0.0
C488 C 0.80217 0.82996 0.37382 0.0
C489 C 0.72227 0.93629 0.43958 0.0
C490 C 0.74466 0.94858 0.4461 0.0
C491 C 0.72125 0.91649 0.41921 0.0
C492 C 0.74252 0.90884 0.40469 0.0
C493 C 0.76479 0.92131 0.41106 0.0
C494 C 0.76585 0.94087 0.43148 0.0
C495 C 0.742 0.88749 0.38332 0.0
C496 C 0.75874 0.86684 0.3859 0.0
C497 C 0.72538 0.88731 0.36056 0.0
C498 C 0.70814 0.90912 0.3556 0.0
C499 C 0.71687 0.9348 0.35284 0.0
C500 C 0.7005 0.95528 0.34826 0.0
C501 C 0.67537 0.95028 0.34618 0.0
C502 C 0.66657 0.92478 0.3486 0.0
C503 C 0.68286 0.90423 0.35321 0.0
H504 H 0.66273 0.96616 0.34262 0.0
H505 H 0.82342 0.76815 0.38223 0.0
H506 H 0.6767 0.26114 0.77834 0.0
H507 H 0.64339 0.26967 0.81092 0.0
H508 H 0.69542 0.29736 0.87225 0.0
H509 H 0.72895 0.28635 0.84098 0.0
H510 H 0.66409 0.27252 0.89833 0.0
H511 H 0.65644 0.33911 0.83014 0.0
H512 H 0.6529 0.35817 0.78317 0.0
H513 H 0.58513 0.31714 0.76999 0.0
H514 H 0.58843 0.29755 0.81675 0.0
H515 H 0.57022 0.33505 0.98066 0.0
H516 H 0.60287 0.33397 0.94516 0.0
H517 H 0.56448 0.27275 0.90105 0.0
H518 H 0.53241 0.27306 0.93689 0.0
H519 H 0.58903 0.31858 0.86734 0.0
H520 H 0.60174 0.2498 0.9372 0.0
H521 H 0.60592 0.23566 0.98611 0.0
H522 H 0.66648 0.28831 0.9976 0.0
H523 H 0.66233 0.30309 0.94886 0.0
C524 C 0.68121 0.26857 0.79891 0.0
C525 C 0.70575 0.27317 0.80672 0.0
C526 C 0.66198 0.27397 0.81743 0.0
C527 C 0.66668 0.28489 0.84393 0.0
C528 C 0.69114 0.28918 0.85191 0.0
C529 C 0.71039 0.28317 0.83371 0.0
C530 C 0.64623 0.29129 0.86358 0.0
C531 C 0.64793 0.28297 0.89146 0.0
C532 C 0.6249 0.3049 0.85498 0.0
C533 C 0.6228 0.31668 0.82686 0.0
C534 C 0.64087 0.33401 0.81715 0.0
C535 C 0.63889 0.34493 0.79057 0.0
C536 C 0.61884 0.33882 0.77358 0.0
C537 C 0.60067 0.32183 0.78316 0.0
C538 C 0.60257 0.31083 0.80971 0.0
C539 C 0.56852 0.32185 0.963 0.0
C540 C 0.54888 0.30414 0.96143 0.0
C541 C 0.58715 0.32119 0.94285 0.0
C542 C 0.58601 0.30326 0.92056 0.0
C543 C 0.56559 0.28678 0.91803 0.0
C544 C 0.54736 0.28695 0.93851 0.0
C545 C 0.60713 0.29965 0.9015 0.0
C546 C 0.60544 0.30841 0.87392 0.0
C547 C 0.62872 0.28708 0.91047 0.0
C548 C 0.63153 0.27777 0.93953 0.0
C549 C 0.6158 0.25852 0.95024 0.0
C550 C 0.61818 0.25036 0.97791 0.0
C551 C 0.6364 0.26114 0.99499 0.0
C552 C 0.65234 0.28002 0.98438 0.0
C553 C 0.64998 0.28829 0.95673 0.0
H554 H 0.63821 0.25482 0.01641 0.0
H555 H 0.61734 0.3473 0.75301 0.0
H556 H 0.24049 0.81815 0.76032 0.0
H557 H 0.23648 0.85459 0.7278 0.0
H558 H 0.21696 0.80055 0.66189 0.0
H559 H 0.21999 0.76435 0.69465 0.0
H560 H 0.25965 0.8681 0.6849 0.0
H561 H 0.18201 0.82758 0.61282 0.0
H562 H 0.14466 0.80064 0.61684 0.0
H563 H 0.13874 0.82101 0.7037 0.0
H564 H 0.17583 0.84836 0.70012 0.0
H565 H 0.26513 0.93301 0.55746 0.0
H566 H 0.26234 0.90018 0.59385 0.0
H567 H 0.18997 0.92753 0.61547 0.0
H568 H 0.19229 0.95988 0.57799 0.0
H569 H 0.19 0.87764 0.61916 0.0
H570 H 0.24249 0.94345 0.65539 0.0
H571 H 0.27706 0.97453 0.65588 0.0
H572 H 0.32802 0.91106 0.6494 0.0
H573 H 0.29374 0.8796 0.64847 0.0
C574 C 0.23517 0.81414 0.73892 0.0
C575 C 0.23039 0.78844 0.73006 0.0
C576 C 0.23291 0.83496 0.72031 0.0
C577 C 0.22607 0.83052 0.69234 0.0
C578 C 0.22157 0.80474 0.68346 0.0
C579 C 0.22341 0.784 0.70217 0.0
C580 C 0.22459 0.85263 0.67222 0.0
C581 C 0.24434 0.87018 0.67064 0.0
C582 C 0.20436 0.856 0.65398 0.0
C583 C 0.18184 0.83984 0.65623 0.0
C584 C 0.17267 0.82641 0.63274 0.0
C585 C 0.15156 0.81105 0.63495 0.0
C586 C 0.13938 0.80905 0.66053 0.0
C587 C 0.14824 0.8225 0.68393 0.0
C588 C 0.16932 0.83791 0.68182 0.0
C589 C 0.24857 0.93204 0.5699 0.0
C590 C 0.229 0.94922 0.56498 0.0
C591 C 0.24705 0.91331 0.59088 0.0
C592 C 0.2262 0.9117 0.60802 0.0
C593 C 0.20633 0.92842 0.60269 0.0
C594 C 0.20767 0.94693 0.58128 0.0
C595 C 0.22536 0.89258 0.63141 0.0
C596 C 0.2052 0.87562 0.63358 0.0
C597 C 0.2448 0.89035 0.65091 0.0
C598 C 0.26552 0.90918 0.65166 0.0
C599 C 0.26106 0.93613 0.6539 0.0
C600 C 0.2806 0.95381 0.65427 0.0
C601 C 0.30471 0.94478 0.65262 0.0
C602 C 0.30933 0.91803 0.65066 0.0
C603 C 0.28985 0.90026 0.65024 0.0
H604 H 0.31982 0.95851 0.6529 0.0
H605 H 0.12305 0.79713 0.6622 0.0
H606 H 0.67969 0.74474 0.23162 0.0
H607 H 0.64566 0.73582 0.20009 0.0
H608 H 0.69628 0.70752 0.13766 0.0
H609 H 0.7305 0.71895 0.16781 0.0
H610 H 0.66473 0.73237 0.11222 0.0
H611 H 0.65768 0.66624 0.18105 0.0
H612 H 0.65481 0.64745 0.2282 0.0
H613 H 0.58769 0.68901 0.24273 0.0
H614 H 0.59033 0.70833 0.19578 0.0
H615 H 0.56885 0.67118 0.03213 0.0
H616 H 0.60183 0.67142 0.06722 0.0
H617 H 0.56525 0.73327 0.11207 0.0
H618 H 0.53287 0.73379 0.07663 0.0
H619 H 0.58974 0.68714 0.14535 0.0
H620 H 0.60217 0.7558 0.07503 0.0
H621 H 0.60533 0.76953 0.02588 0.0
H622 H 0.66442 0.71562 0.01272 0.0
H623 H 0.66127 0.70124 0.06171 0.0
C624 C 0.68373 0.73707 0.21102 0.0
C625 C 0.70808 0.73248 0.20255 0.0
C626 C 0.66409 0.73144 0.19312 0.0
C627 C 0.66819 0.72029 0.16661 0.0
C628 C 0.69246 0.7159 0.15802 0.0
C629 C 0.71211 0.72214 0.17559 0.0
C630 C 0.64733 0.7139 0.14751 0.0
C631 C 0.64859 0.72208 0.11956 0.0
C632 C 0.62602 0.70052 0.15673 0.0
C633 C 0.62432 0.68891 0.18498 0.0
C634 C 0.64239 0.67151 0.19437 0.0
C635 C 0.6408 0.66075 0.22105 0.0
C636 C 0.62111 0.66708 0.23848 0.0
C637 C 0.60294 0.68414 0.22922 0.0
C638 C 0.60447 0.69499 0.20256 0.0
C639 C 0.56758 0.68431 0.04989 0.0
C640 C 0.54841 0.70248 0.05176 0.0
C641 C 0.5864 0.68448 0.06982 0.0
C642 C 0.58589 0.70238 0.09216 0.0
C643 C 0.56586 0.71925 0.09506 0.0
C644 C 0.54745 0.71956 0.0748 0.0
C645 C 0.60742 0.70575 0.11066 0.0
C646 C 0.60616 0.69711 0.13831 0.0
C647 C 0.62897 0.71808 0.10107 0.0
C648 C 0.6313 0.72725 0.0719 0.0
C649 C 0.6157 0.74674 0.06159 0.0
C650 C 0.6175 0.75465 0.03378 0.0
C651 C 0.63501 0.7434 0.01616 0.0
C652 C 0.65083 0.72429 0.02637 0.0
C653 C 0.64905 0.71625 0.05415 0.0
H654 H 0.63636 0.74952 0.99462 0.0
H655 H 0.61991 0.65872 0.25913 0.0
H656 H 0.75465 0.24638 0.69216 0.0
H657 H 0.7514 0.21191 0.65677 0.0
H658 H 0.72772 0.15781 0.72 0.0
H659 H 0.73027 0.19249 0.75526 0.0
H660 H 0.77387 0.16948 0.64846 0.0
H661 H 0.69144 0.11056 0.69302 0.0
H662 H 0.6533 0.11874 0.71934 0.0
H663 H 0.65207 0.19769 0.69004 0.0
H664 H 0.68998 0.18989 0.66325 0.0
H665 H 0.7755 0.0466 0.58548 0.0
H666 H 0.7727 0.08163 0.62 0.0
H667 H 0.70314 0.10503 0.58542 0.0
H668 H 0.7054 0.06898 0.55145 0.0
H669 H 0.70135 0.11151 0.63904 0.0
H670 H 0.7584 0.13728 0.56932 0.0
H671 H 0.79419 0.13303 0.53815 0.0
H672 H 0.84186 0.12802 0.60926 0.0
H673 H 0.80631 0.13188 0.64087 0.0
C674 C 0.74874 0.22712 0.69848 0.0
C675 C 0.74265 0.22219 0.72649 0.0
C676 C 0.74686 0.2074 0.67823 0.0
C677 C 0.73901 0.1822 0.6855 0.0
C678 C 0.73323 0.17717 0.71359 0.0
C679 C 0.73479 0.197 0.73379 0.0
C680 C 0.7376 0.16109 0.66386 0.0
C681 C 0.75796 0.15688 0.64645 0.0
C682 C 0.71666 0.14491 0.66054 0.0
C683 C 0.6937 0.14969 0.67636 0.0
C684 C 0.68298 0.12963 0.69211 0.0
C685 C 0.6614 0.13421 0.70712 0.0
C686 C 0.65032 0.15874 0.70644 0.0
C687 C 0.66073 0.17873 0.69065 0.0
C688 C 0.68227 0.17425 0.67557 0.0
C689 C 0.75949 0.05906 0.58534 0.0
C690 C 0.74078 0.05519 0.56554 0.0
C691 C 0.75797 0.07922 0.60503 0.0
C692 C 0.73804 0.09655 0.60492 0.0
C693 C 0.7188 0.09208 0.58587 0.0
C694 C 0.7201 0.07149 0.56644 0.0
C695 C 0.73782 0.11962 0.62417 0.0
C696 C 0.7172 0.12419 0.64107 0.0
C697 C 0.75819 0.13676 0.62638 0.0
C698 C 0.77966 0.13467 0.60745 0.0
C699 C 0.7765 0.13513 0.57831 0.0
C700 C 0.79675 0.1328 0.56056 0.0
C701 C 0.82028 0.1302 0.57172 0.0
C702 C 0.82362 0.13001 0.60065 0.0
C703 C 0.80343 0.13229 0.61849 0.0
H704 H 0.83593 0.12839 0.55795 0.0
H705 H 0.63363 0.16225 0.71809 0.0
H706 H 0.30753 0.25389 0.24776 0.0
H707 H 0.34507 0.26071 0.22134 0.0
H708 H 0.30379 0.29852 0.15631 0.0
H709 H 0.26599 0.28918 0.18098 0.0
H710 H 0.33527 0.27256 0.13217 0.0
H711 H 0.34137 0.33203 0.20891 0.0
H712 H 0.34149 0.34652 0.25812 0.0
H713 H 0.40294 0.29683 0.27492 0.0
H714 H 0.403 0.28178 0.22586 0.0
H715 H 0.44 0.33434 0.07089 0.0
H716 H 0.40444 0.33206 0.1023 0.0
H717 H 0.43497 0.26398 0.14142 0.0
H718 H 0.47009 0.26562 0.10954 0.0
H719 H 0.40991 0.3076 0.17845 0.0
H720 H 0.39984 0.24803 0.09827 0.0
H721 H 0.40031 0.23996 0.04742 0.0
H722 H 0.34494 0.29835 0.03611 0.0
H723 H 0.34453 0.30713 0.08688 0.0
C724 C 0.30625 0.2632 0.22761 0.0
C725 C 0.28342 0.27111 0.21682 0.0
C726 C 0.32795 0.2676 0.21269 0.0
C727 C 0.32756 0.2808 0.18702 0.0
C728 C 0.30481 0.28847 0.1761 0.0
C729 C 0.28309 0.28344 0.19059 0.0
C730 C 0.35066 0.28622 0.17123 0.0
C731 C 0.35137 0.28056 0.14242 0.0
C732 C 0.37199 0.2966 0.18426 0.0
C733 C 0.37202 0.30559 0.21377 0.0
C734 C 0.3548 0.32405 0.22314 0.0
C735 C 0.35485 0.33239 0.251 0.0
C736 C 0.37217 0.32255 0.26965 0.0
C737 C 0.38952 0.3044 0.26046 0.0
C738 C 0.38953 0.29598 0.23262 0.0
C739 C 0.4394 0.3193 0.08665 0.0
C740 C 0.45774 0.30013 0.08779 0.0
C741 C 0.41909 0.31798 0.10449 0.0
C742 C 0.41715 0.29783 0.12409 0.0
C743 C 0.43623 0.27972 0.1265 0.0
C744 C 0.45621 0.28065 0.10825 0.0
C745 C 0.39414 0.29388 0.13994 0.0
C746 C 0.39358 0.29975 0.16854 0.0
C747 C 0.37275 0.2844 0.12666 0.0
C748 C 0.37234 0.27841 0.09631 0.0
C749 C 0.3879 0.25927 0.08491 0.0
C750 C 0.38815 0.25456 0.05611 0.0
C751 C 0.37271 0.26868 0.03854 0.0
C752 C 0.35691 0.28745 0.04975 0.0
C753 C 0.35666 0.2923 0.07853 0.0
H754 H 0.37295 0.26503 0.01624 0.0
H755 H 0.37218 0.32903 0.29121 0.0
H756 H 0.81051 0.69283 0.79613 0.0
H757 H 0.84154 0.65863 0.79118 0.0
H758 H 0.83265 0.65989 0.70169 0.0
H759 H 0.80134 0.69377 0.70653 0.0
H760 H 0.83842 0.60972 0.72183 0.0
H761 H 0.8785 0.69268 0.72916 0.0
H762 H 0.8874 0.73569 0.75018 0.0
H763 H 0.91186 0.69878 0.82541 0.0
H764 H 0.90275 0.65553 0.80497 0.0
H765 H 0.953 0.54262 0.69822 0.0
H766 H 0.92023 0.57542 0.69566 0.0
H767 H 0.92231 0.58441 0.78527 0.0
H768 H 0.95478 0.55224 0.788 0.0
H769 H 0.92072 0.63092 0.76 0.0
H770 H 0.87809 0.54822 0.75379 0.0
H771 H 0.86874 0.50516 0.73307 0.0
H772 H 0.84921 0.54156 0.65571 0.0
H773 H 0.85877 0.58483 0.67588 0.0
C774 C 0.81482 0.68544 0.77546 0.0
C775 C 0.8037 0.69614 0.75171 0.0
C776 C 0.83266 0.66606 0.77263 0.0
C777 C 0.83964 0.65704 0.74602 0.0
C778 C 0.82762 0.66667 0.72238 0.0
C779 C 0.80987 0.68613 0.72518 0.0
C780 C 0.86047 0.63872 0.74281 0.0
C781 C 0.85651 0.61445 0.72982 0.0
C782 C 0.88402 0.6449 0.75335 0.0
C783 C 0.88974 0.67087 0.76562 0.0
C784 C 0.88561 0.69374 0.75026 0.0
C785 C 0.89071 0.71816 0.76206 0.0
C786 C 0.90014 0.71997 0.78914 0.0
C787 C 0.90454 0.69735 0.80444 0.0
C788 C 0.89942 0.67287 0.79276 0.0
C789 C 0.94651 0.55171 0.7173 0.0
C790 C 0.95646 0.54473 0.7433 0.0
C791 C 0.92774 0.57034 0.71584 0.0
C792 C 0.91874 0.58223 0.74032 0.0
C793 C 0.92898 0.57554 0.76612 0.0
C794 C 0.94752 0.557 0.76761 0.0
C795 C 0.89858 0.6016 0.73963 0.0
C796 C 0.90269 0.6262 0.7518 0.0
C797 C 0.87522 0.59569 0.72834 0.0
C798 C 0.86944 0.56971 0.71622 0.0
C799 C 0.87201 0.54701 0.73228 0.0
C800 C 0.86663 0.52258 0.72065 0.0
C801 C 0.85846 0.52062 0.69306 0.0
C802 C 0.85559 0.5431 0.67706 0.0
C803 C 0.86098 0.56759 0.68858 0.0
H804 H 0.8543 0.50169 0.6841 0.0
H805 H 0.90408 0.7389 0.79824 0.0
H806 H 0.79919 0.31469 0.30291 0.0
H807 H 0.82987 0.34928 0.30868 0.0
H808 H 0.84577 0.34563 0.2205 0.0
H809 H 0.81507 0.31096 0.21463 0.0
H810 H 0.88742 0.34252 0.25442 0.0
H811 H 0.8154 0.39607 0.24546 0.0
H812 H 0.77372 0.41094 0.25743 0.0
H813 H 0.79738 0.42948 0.34077 0.0
H814 H 0.83916 0.41436 0.32941 0.0
H815 H 0.955 0.45407 0.22601 0.0
H816 H 0.9231 0.42123 0.22946 0.0
H817 H 0.91763 0.4352 0.31815 0.0
H818 H 0.94998 0.46867 0.31491 0.0
H819 H 0.8716 0.43195 0.29035 0.0
H820 H 0.94441 0.38194 0.29849 0.0
H821 H 0.9863 0.3678 0.28651 0.0
H822 H 0.96147 0.34223 0.20573 0.0
H823 H 0.91949 0.35665 0.21703 0.0
C824 C 0.80909 0.32148 0.28473 0.0
C825 C 0.80485 0.31015 0.25832 0.0
C826 C 0.82651 0.34126 0.28804 0.0
C827 C 0.84008 0.34997 0.26503 0.0
C828 C 0.83548 0.33912 0.23852 0.0
C829 C 0.81786 0.3195 0.23514 0.0
C830 C 0.8599 0.36949 0.26881 0.0
C831 C 0.88394 0.36215 0.26202 0.0
C832 C 0.85544 0.39473 0.27981 0.0
C833 C 0.83033 0.40379 0.28668 0.0
C834 C 0.81166 0.40307 0.26643 0.0
C835 C 0.78803 0.4116 0.27308 0.0
C836 C 0.78289 0.42107 0.29987 0.0
C837 C 0.80138 0.42209 0.32004 0.0
C838 C 0.82504 0.41356 0.3135 0.0
C839 C 0.94712 0.45029 0.24636 0.0
C840 C 0.95511 0.46401 0.27024 0.0
C841 C 0.9289 0.43138 0.24826 0.0
C842 C 0.91819 0.4256 0.27407 0.0
C843 C 0.92578 0.43937 0.29804 0.0
C844 C 0.94429 0.45836 0.29618 0.0
C845 C 0.89901 0.40513 0.27535 0.0
C846 C 0.87512 0.41221 0.28311 0.0
C847 C 0.9036 0.37955 0.26539 0.0
C848 C 0.9288 0.37056 0.25856 0.0
C849 C 0.9479 0.37348 0.27809 0.0
C850 C 0.97166 0.36539 0.27143 0.0
C851 C 0.97655 0.35416 0.24536 0.0
C852 C 0.95766 0.35094 0.22592 0.0
C853 C 0.93386 0.35905 0.23245 0.0
H854 H 0.99496 0.34792 0.24024 0.0
H855 H 0.76458 0.42767 0.30498 0.0
H856 H 0.25042 0.34152 0.7606 0.0
H857 H 0.21558 0.37136 0.7559 0.0
H858 H 0.16692 0.30558 0.74497 0.0
H859 H 0.20165 0.27589 0.74901 0.0
H860 H 0.15474 0.34143 0.70965 0.0
H861 H 0.17217 0.3397 0.80811 0.0
H862 H 0.19792 0.34432 0.85021 0.0
H863 H 0.21077 0.42491 0.83112 0.0
H864 H 0.18534 0.42066 0.78869 0.0
H865 H 0.05535 0.42409 0.78688 0.0
H866 H 0.0911 0.3958 0.78578 0.0
H867 H 0.10794 0.42176 0.7024 0.0
H868 H 0.07154 0.44981 0.70311 0.0
H869 H 0.13717 0.40732 0.78322 0.0
H870 H 0.13952 0.37336 0.66794 0.0
H871 H 0.11091 0.36481 0.62899 0.0
H872 H 0.05314 0.34884 0.6874 0.0
H873 H 0.08148 0.35697 0.72665 0.0
C874 C 0.23225 0.33351 0.7573 0.0
C875 C 0.22873 0.30641 0.75517 0.0
C876 C 0.21236 0.35054 0.75459 0.0
C877 C 0.18854 0.34073 0.75025 0.0
C878 C 0.18509 0.31366 0.74809 0.0
C879 C 0.20495 0.2967 0.75047 0.0
C880 C 0.16704 0.35845 0.7485 0.0
C881 C 0.15097 0.35593 0.72569 0.0
C882 C 0.16186 0.37716 0.76955 0.0
C883 C 0.17708 0.37978 0.79508 0.0
C884 C 0.18063 0.35835 0.81279 0.0
C885 C 0.19515 0.36091 0.83672 0.0
C886 C 0.20603 0.38487 0.84329 0.0
C887 C 0.20237 0.40635 0.82598 0.0
C888 C 0.1879 0.40388 0.80199 0.0
C889 C 0.0665 0.42366 0.76816 0.0
C890 C 0.06061 0.43923 0.74507 0.0
C891 C 0.08704 0.40752 0.76763 0.0
C892 C 0.1023 0.40663 0.74406 0.0
C893 C 0.0963 0.42187 0.72072 0.0
C894 C 0.0755 0.4379 0.72114 0.0
C895 C 0.1247 0.39012 0.74453 0.0
C896 C 0.14103 0.39299 0.76704 0.0
C897 C 0.12971 0.37122 0.72363 0.0
C898 C 0.11256 0.36608 0.7002 0.0
C899 C 0.12073 0.36796 0.67245 0.0
C900 C 0.10456 0.36319 0.65032 0.0
C901 C 0.0802 0.35638 0.65572 0.0
C902 C 0.07198 0.35423 0.68325 0.0
C903 C 0.08808 0.35895 0.70544 0.0
H904 H 0.06771 0.35272 0.63856 0.0
H905 H 0.21726 0.38682 0.86183 0.0
H906 H 0.24405 0.67393 0.23407 0.0
H907 H 0.20972 0.64333 0.23788 0.0
H908 H 0.1651 0.70367 0.27464 0.0
H909 H 0.19851 0.73489 0.2693 0.0
H910 H 0.16823 0.64942 0.30345 0.0
H911 H 0.15049 0.69471 0.21647 0.0
H912 H 0.16139 0.71029 0.16946 0.0
H913 H 0.17567 0.6316 0.14291 0.0
H914 H 0.16521 0.61562 0.18995 0.0
H915 H 0.05044 0.58816 0.30092 0.0
H916 H 0.08563 0.61807 0.30017 0.0
H917 H 0.11705 0.57405 0.23179 0.0
H918 H 0.08133 0.54543 0.23144 0.0
H919 H 0.12158 0.62077 0.21975 0.0
H920 H 0.13932 0.57353 0.30314 0.0
H921 H 0.13159 0.55525 0.34984 0.0
H922 H 0.1214 0.6324 0.38324 0.0
H923 H 0.12877 0.65114 0.33665 0.0
C924 C 0.22686 0.6809 0.24255 0.0
C925 C 0.22424 0.707 0.25146 0.0
C926 C 0.20736 0.66328 0.24499 0.0
C927 C 0.18505 0.67128 0.25676 0.0
C928 C 0.18233 0.69712 0.26582 0.0
C929 C 0.20157 0.71488 0.26286 0.0
C930 C 0.16424 0.65289 0.25896 0.0
C931 C 0.15779 0.64324 0.28528 0.0
C932 C 0.15124 0.64443 0.23509 0.0
C933 C 0.15736 0.65402 0.2068 0.0
C934 C 0.1562 0.68077 0.20069 0.0
C935 C 0.16224 0.68966 0.17402 0.0
C936 C 0.1693 0.67196 0.15323 0.0
C937 C 0.17025 0.6453 0.15905 0.0
C938 C 0.16426 0.63632 0.1857 0.0
C939 C 0.06502 0.58488 0.28594 0.0
C940 C 0.0632 0.56466 0.26615 0.0
C941 C 0.08519 0.60186 0.28558 0.0
C942 C 0.10424 0.59828 0.26605 0.0
C943 C 0.10261 0.57748 0.24691 0.0
C944 C 0.08222 0.56105 0.24677 0.0
C945 C 0.12534 0.61675 0.26443 0.0
C946 C 0.13191 0.62662 0.23812 0.0
C947 C 0.13879 0.6249 0.28831 0.0
C948 C 0.13435 0.61371 0.31635 0.0
C949 C 0.13525 0.58658 0.3204 0.0
C950 C 0.13096 0.57615 0.34686 0.0
C951 C 0.12594 0.59265 0.36947 0.0
C952 C 0.12526 0.61964 0.36569 0.0
C953 C 0.12951 0.63018 0.33927 0.0
H954 H 0.12263 0.58453 0.38994 0.0
H955 H 0.17396 0.67888 0.1326 0.0
H956 H 0.77813 0.76242 0.68218 0.0
H957 H 0.78453 0.79973 0.65147 0.0
H958 H 0.79045 0.85052 0.72351 0.0
H959 H 0.78291 0.81327 0.75416 0.0
H960 H 0.76415 0.87304 0.68778 0.0
H961 H 0.8417 0.83187 0.68232 0.0
H962 H 0.87098 0.79572 0.67607 0.0
H963 H 0.84657 0.78491 0.59153 0.0
H964 H 0.81688 0.82074 0.59738 0.0
H965 H 0.82547 0.95441 0.56819 0.0
H966 H 0.82943 0.92176 0.60518 0.0
H967 H 0.75209 0.90491 0.59891 0.0
H968 H 0.74789 0.93755 0.56266 0.0
H969 H 0.82129 0.87032 0.60717 0.0
H970 H 0.72791 0.89386 0.66125 0.0
H971 H 0.70176 0.9322 0.67018 0.0
H972 H 0.76439 0.98262 0.66331 0.0
H973 H 0.79098 0.94458 0.65478 0.0
C974 C 0.78091 0.78157 0.69136 0.0
C975 C 0.78005 0.78509 0.72043 0.0
C976 C 0.78476 0.80285 0.67387 0.0
C977 C 0.78848 0.82792 0.68516 0.0
C978 C 0.78769 0.83139 0.71428 0.0
C979 C 0.78336 0.81017 0.73177 0.0
C980 C 0.79195 0.85065 0.66649 0.0
C981 C 0.77679 0.87248 0.67031 0.0
C982 C 0.80895 0.85035 0.6441 0.0
C983 C 0.82696 0.82892 0.64036 0.0
C984 C 0.84248 0.82169 0.66244 0.0
C985 C 0.85916 0.80126 0.65897 0.0
C986 C 0.86061 0.78801 0.63343 0.0
C987 C 0.84543 0.7952 0.6113 0.0
C988 C 0.82869 0.81559 0.61467 0.0
C989 C 0.80935 0.94371 0.57472 0.0
C990 C 0.78633 0.94874 0.56269 0.0
C991 C 0.81164 0.92507 0.5958 0.0
C992 C 0.79097 0.91128 0.60513 0.0
C993 C 0.76818 0.91576 0.59251 0.0
C994 C 0.76584 0.93439 0.57167 0.0
C995 C 0.79284 0.89205 0.62798 0.0
C996 C 0.80896 0.87095 0.62493 0.0
C997 C 0.77727 0.89335 0.65159 0.0
C998 C 0.76142 0.91633 0.65719 0.0
C999 C 0.73614 0.9131 0.66182 0.0
C1000 C 0.72122 0.9348 0.66678 0.0
C1001 C 0.73139 0.95983 0.66725 0.0
C1002 C 0.75652 0.96323 0.66286 0.0
C1003 C 0.77151 0.9416 0.65793 0.0
H1004 H 0.71981 0.9766 0.67105 0.0
H1005 H 0.87353 0.77218 0.63079 0.0
H1006 H 0.74008 0.22285 0.19988 0.0
H1007 H 0.70447 0.22018 0.16904 0.0
H1008 H 0.68807 0.30098 0.18627 0.0
H1009 H 0.72316 0.30352 0.21797 0.0
H1010 H 0.64806 0.27166 0.19121 0.0
H1011 H 0.71217 0.28069 0.1231 0.0
H1012 H 0.75097 0.26953 0.09949 0.0
H1013 H 0.72286 0.19338 0.07944 0.0
H1014 H 0.684 0.20396 0.10328 0.0
H1015 H 0.56335 0.29968 0.08561 0.0
H1016 H 0.59984 0.29723 0.11464 0.0
H1017 H 0.6058 0.21492 0.09681 0.0
H1018 H 0.56902 0.21721 0.06727 0.0
H1019 H 0.65049 0.24131 0.09263 0.0
H1020 H 0.58552 0.23338 0.15899 0.0
H1021 H 0.54655 0.24526 0.18181 0.0
H1022 H 0.57639 0.31994 0.20478 0.0
H1023 H 0.61544 0.30866 0.18173 0.0
C1024 C 0.7289 0.24007 0.1971 0.0
C1025 C 0.73442 0.26338 0.21151 0.0
C1026 C 0.70867 0.23857 0.17924 0.0
C1027 C 0.69365 0.26041 0.17519 0.0
C1028 C 0.69941 0.28387 0.18907 0.0
C1029 C 0.71962 0.28537 0.20698 0.0
C1030 C 0.67128 0.25854 0.15756 0.0
C1031 C 0.64867 0.26533 0.16956 0.0
C1032 C 0.67191 0.24942 0.12957 0.0
C1033 C 0.69527 0.24302 0.11525 0.0
C1034 C 0.71434 0.26148 0.11388 0.0
C1035 C 0.73633 0.25528 0.10041 0.0
C1036 C 0.73941 0.23074 0.08805 0.0
C1037 C 0.72047 0.21237 0.08907 0.0
C1038 C 0.69845 0.21846 0.10254 0.0
C1039 C 0.57229 0.28097 0.08784 0.0
C1040 C 0.56315 0.25859 0.07419 0.0
C1041 C 0.59315 0.27962 0.10455 0.0
C1042 C 0.60538 0.25586 0.10814 0.0
C1043 C 0.59655 0.23344 0.09438 0.0
C1044 C 0.57549 0.23475 0.07764 0.0
C1045 C 0.62745 0.25483 0.12621 0.0
C1046 C 0.64994 0.24746 0.11434 0.0
C1047 C 0.62676 0.26345 0.15434 0.0
C1048 C 0.60336 0.27024 0.16844 0.0
C1049 C 0.58372 0.25241 0.16873 0.0
C1050 C 0.56162 0.25902 0.18174 0.0
C1051 C 0.55898 0.28336 0.19469 0.0
C1052 C 0.57846 0.3011 0.19472 0.0
C1053 C 0.60059 0.2946 0.18172 0.0
H1054 H 0.54185 0.28844 0.20474 0.0
H1055 H 0.75644 0.22597 0.07762 0.0
H1056 H 0.27073 0.25231 0.68342 0.0
H1057 H 0.27367 0.21632 0.64971 0.0
H1058 H 0.27796 0.16142 0.71748 0.0
H1059 H 0.27559 0.19741 0.75118 0.0
H1060 H 0.30865 0.14752 0.67791 0.0
H1061 H 0.22395 0.17236 0.68208 0.0
H1062 H 0.18892 0.2026 0.67978 0.0
H1063 H 0.20624 0.21977 0.59437 0.0
H1064 H 0.24161 0.18989 0.59629 0.0
H1065 H 0.23488 0.05343 0.58033 0.0
H1066 H 0.23808 0.08869 0.61438 0.0
H1067 H 0.31232 0.10392 0.58775 0.0
H1068 H 0.30944 0.06789 0.55391 0.0
H1069 H 0.24339 0.13806 0.60638 0.0
H1070 H 0.34433 0.13095 0.64277 0.0
H1071 H 0.37635 0.09756 0.64905 0.0
H1072 H 0.32101 0.03884 0.66016 0.0
H1073 H 0.28869 0.07193 0.65433 0.0
C1074 C 0.27228 0.23253 0.69104 0.0
C1075 C 0.2728 0.22756 0.71984 0.0
C1076 C 0.274 0.21202 0.67182 0.0
C1077 C 0.27575 0.18615 0.68109 0.0
C1078 C 0.27671 0.18122 0.70986 0.0
C1079 C 0.27529 0.20176 0.72908 0.0
C1080 C 0.27565 0.16412 0.66087 0.0
C1081 C 0.29444 0.14547 0.66219 0.0
C1082 C 0.25688 0.16121 0.64068 0.0
C1083 C 0.23557 0.17911 0.63943 0.0
C1084 C 0.22039 0.18273 0.66287 0.0
C1085 C 0.20047 0.19979 0.66163 0.0
C1086 C 0.1954 0.21316 0.63697 0.0
C1087 C 0.21022 0.20944 0.61348 0.0
C1088 C 0.2302 0.19244 0.61462 0.0
C1089 C 0.25198 0.06414 0.58179 0.0
C1090 C 0.2719 0.05797 0.56436 0.0
C1091 C 0.25375 0.08435 0.60125 0.0
C1092 C 0.27541 0.09899 0.60362 0.0
C1093 C 0.29552 0.09268 0.58651 0.0
C1094 C 0.29385 0.07215 0.56716 0.0
C1095 C 0.27634 0.12132 0.62344 0.0
C1096 C 0.25773 0.14014 0.62195 0.0
C1097 C 0.29484 0.1239 0.64399 0.0
C1098 C 0.31412 0.10387 0.64778 0.0
C1099 C 0.33901 0.11092 0.64663 0.0
C1100 C 0.35721 0.09205 0.6501 0.0
C1101 C 0.35071 0.06608 0.6549 0.0
C1102 C 0.32601 0.05894 0.65633 0.0
C1103 C 0.30775 0.07774 0.6529 0.0
H1104 H 0.36483 0.0515 0.65756 0.0
H1105 H 0.17996 0.22635 0.63605 0.0
H1106 H 0.33024 0.75344 0.22734 0.0
H1107 H 0.35917 0.75635 0.18869 0.0
H1108 H 0.30258 0.73265 0.13103 0.0
H1109 H 0.27288 0.73109 0.16946 0.0
H1110 H 0.35419 0.70605 0.12931 0.0
H1111 H 0.3119 0.78897 0.12567 0.0
H1112 H 0.29566 0.82941 0.14673 0.0
H1113 H 0.36817 0.85143 0.17279 0.0
H1114 H 0.38479 0.81089 0.15227 0.0
H1115 H 0.42677 0.72677 0.01118 0.0
H1116 H 0.39152 0.72761 0.04263 0.0
H1117 H 0.43025 0.7807 0.0975 0.0
H1118 H 0.46508 0.781 0.06499 0.0
H1119 H 0.38477 0.79262 0.09895 0.0
H1120 H 0.42777 0.71177 0.1078 0.0
H1121 H 0.4467 0.67075 0.0915 0.0
H1122 H 0.37687 0.64383 0.06139 0.0
H1123 H 0.35759 0.68486 0.07719 0.0
C1124 C 0.32374 0.74913 0.20644 0.0
C1125 C 0.29904 0.74242 0.20154 0.0
C1126 C 0.34039 0.75063 0.18443 0.0
C1127 C 0.33288 0.74497 0.1571 0.0
C1128 C 0.30861 0.73716 0.15208 0.0
C1129 C 0.29174 0.7361 0.17409 0.0
C1130 C 0.35058 0.74759 0.13393 0.0
C1131 C 0.36057 0.72493 0.12217 0.0
C1132 C 0.35946 0.77225 0.1256 0.0
C1133 C 0.34955 0.79678 0.13766 0.0
C1134 C 0.32435 0.80232 0.13611 0.0
C1135 C 0.31508 0.82529 0.14791 0.0
C1136 C 0.33086 0.84295 0.16115 0.0
C1137 C 0.35596 0.83772 0.16255 0.0
C1138 C 0.36532 0.81476 0.15082 0.0
C1139 C 0.42754 0.73894 0.02976 0.0
C1140 C 0.4486 0.75365 0.03593 0.0
C1141 C 0.40748 0.73928 0.04781 0.0
C1142 C 0.40846 0.75356 0.07292 0.0
C1143 C 0.42908 0.76937 0.07836 0.0
C1144 C 0.44896 0.76957 0.05985 0.0
C1145 C 0.38858 0.75098 0.09402 0.0
C1146 C 0.37826 0.77366 0.10565 0.0
C1147 C 0.3798 0.72625 0.10276 0.0
C1148 C 0.3913 0.70148 0.09343 0.0
C1149 C 0.41649 0.69716 0.09755 0.0
C1150 C 0.42728 0.67391 0.08842 0.0
C1151 C 0.41301 0.65473 0.07535 0.0
C1152 C 0.38791 0.65873 0.07147 0.0
C1153 C 0.37703 0.68196 0.08053 0.0
H1154 H 0.42139 0.63674 0.06829 0.0
H1155 H 0.32365 0.86072 0.17027 0.0
H1156 H 0.74009 0.21779 0.29942 0.0
H1157 H 0.74513 0.18303 0.33359 0.0
H1158 H 0.82364 0.18694 0.32346 0.0
H1159 H 0.8187 0.22131 0.28863 0.0
H1160 H 0.80715 0.13657 0.32565 0.0
H1161 H 0.79823 0.21479 0.3793 0.0
H1162 H 0.77912 0.25628 0.39369 0.0
H1163 H 0.71327 0.21556 0.41637 0.0
H1164 H 0.73186 0.17384 0.40171 0.0
H1165 H 0.82424 0.0586 0.44916 0.0
H1166 H 0.82723 0.09433 0.41543 0.0
H1167 H 0.7484 0.10073 0.41435 0.0
H1168 H 0.74522 0.06548 0.44786 0.0
H1169 H 0.77045 0.14799 0.41976 0.0
H1170 H 0.77815 0.07062 0.36187 0.0
H1171 H 0.79706 0.02912 0.34705 0.0
H1172 H 0.86542 0.06849 0.33263 0.0
H1173 H 0.84698 0.11019 0.34774 0.0
C1174 C 0.75841 0.21102 0.30419 0.0
C1175 C 0.77901 0.22234 0.29145 0.0
C1176 C 0.76128 0.19134 0.32389 0.0
C1177 C 0.78479 0.18271 0.33133 0.0
C1178 C 0.80536 0.19345 0.31811 0.0
C1179 C 0.80251 0.21318 0.2984 0.0
C1180 C 0.78775 0.16272 0.35323 0.0
C1181 C 0.79952 0.13921 0.3464 0.0
C1182 C 0.7776 0.16615 0.38018 0.0
C1183 C 0.76639 0.1912 0.3892 0.0
C1184 C 0.77961 0.21469 0.38716 0.0
C1185 C 0.76888 0.23826 0.3954 0.0
C1186 C 0.74498 0.23856 0.40589 0.0
C1187 C 0.73178 0.21529 0.40822 0.0
C1188 C 0.74242 0.19168 0.39998 0.0
C1189 C 0.80758 0.06764 0.4417 0.0
C1190 C 0.78451 0.05917 0.45117 0.0
C1191 C 0.80932 0.08798 0.42241 0.0
C1192 C 0.78801 0.10008 0.41237 0.0
C1193 C 0.76505 0.09171 0.42191 0.0
C1194 C 0.76329 0.07144 0.44101 0.0
C1195 C 0.78926 0.12158 0.39196 0.0
C1196 C 0.77835 0.14546 0.39912 0.0
C1197 C 0.80021 0.11847 0.36537 0.0
C1198 C 0.81128 0.09344 0.35626 0.0
C1199 C 0.79728 0.07038 0.35578 0.0
C1200 C 0.8079 0.04684 0.34728 0.0
C1201 C 0.83245 0.04616 0.339 0.0
C1202 C 0.84642 0.06904 0.33912 0.0
C1203 C 0.83589 0.09263 0.34763 0.0
H1204 H 0.84064 0.02791 0.33241 0.0
H1205 H 0.7367 0.25683 0.41225 0.0
H1206 H 0.33465 0.26 0.78097 0.0
H1207 H 0.36274 0.25682 0.82042 0.0
H1208 H 0.30616 0.28422 0.87602 0.0
H1209 H 0.27722 0.28602 0.83689 0.0
H1210 H 0.36148 0.30788 0.87644 0.0
H1211 H 0.31051 0.23018 0.88581 0.0
H1212 H 0.29048 0.19068 0.8669 0.0
H1213 H 0.36052 0.16015 0.84224 0.0
H1214 H 0.38093 0.19971 0.86061 0.0
H1215 H 0.42744 0.28651 0.99907 0.0
H1216 H 0.3932 0.28711 0.96623 0.0
H1217 H 0.42887 0.22801 0.91615 0.0
H1218 H 0.46269 0.22647 0.94998 0.0
H1219 H 0.38184 0.22047 0.91388 0.0
H1220 H 0.43357 0.29469 0.90125 0.0
H1221 H 0.45662 0.33412 0.91516 0.0
H1222 H 0.38962 0.37146 0.94005 0.0
H1223 H 0.36619 0.33208 0.92665 0.0
C1224 C 0.32797 0.26512 0.80158 0.0
C1225 C 0.30346 0.27285 0.80573 0.0
C1226 C 0.34416 0.26346 0.82404 0.0
C1227 C 0.33637 0.27002 0.85103 0.0
C1228 C 0.31238 0.27901 0.85525 0.0
C1229 C 0.29596 0.2802 0.83281 0.0
C1230 C 0.35339 0.26686 0.87475 0.0
C1231 C 0.36562 0.28889 0.88513 0.0
C1232 C 0.3594 0.24192 0.88505 0.0
C1233 C 0.3472 0.21801 0.87431 0.0
C1234 C 0.32161 0.21516 0.8761 0.0
C1235 C 0.31019 0.19274 0.86554 0.0
C1236 C 0.32421 0.17295 0.8533 0.0
C1237 C 0.34968 0.17551 0.85169 0.0
C1238 C 0.36118 0.19791 0.86219 0.0
C1239 C 0.42774 0.27335 0.98126 0.0
C1240 C 0.44774 0.25664 0.97678 0.0
C1241 C 0.40826 0.27381 0.96242 0.0
C1242 C 0.40879 0.25821 0.93821 0.0
C1243 C 0.42813 0.24038 0.93455 0.0
C1244 C 0.44742 0.23947 0.95384 0.0
C1245 C 0.38994 0.26162 0.91609 0.0
C1246 C 0.37753 0.23959 0.90568 0.0
C1247 C 0.38416 0.28658 0.90527 0.0
C1248 C 0.39816 0.31034 0.91322 0.0
C1249 C 0.42377 0.31124 0.90988 0.0
C1250 C 0.4369 0.33359 0.91764 0.0
C1251 C 0.4246 0.35525 0.92855 0.0
C1252 C 0.39913 0.35464 0.93164 0.0
C1253 C 0.38591 0.33232 0.92395 0.0
H1254 H 0.43479 0.37253 0.93455 0.0
H1255 H 0.31534 0.1556 0.84513 0.0
H1256 H 0.30855 0.78134 0.29369 0.0
H1257 H 0.31248 0.81727 0.32738 0.0
H1258 H 0.23436 0.82984 0.32379 0.0
H1259 H 0.23036 0.79423 0.28978 0.0
H1260 H 0.26094 0.87545 0.31937 0.0
H1261 H 0.25875 0.79938 0.37836 0.0
H1262 H 0.2726 0.75632 0.39461 0.0
H1263 H 0.34404 0.78776 0.41207 0.0
H1264 H 0.3307 0.83095 0.39555 0.0
H1265 H 0.23274 0.94796 0.43921 0.0
H1266 H 0.23689 0.91422 0.40356 0.0
H1267 H 0.31496 0.9118 0.4176 0.0
H1268 H 0.31099 0.94576 0.45369 0.0
H1269 H 0.29373 0.86267 0.41498 0.0
H1270 H 0.29524 0.93954 0.36022 0.0
H1271 H 0.28177 0.9828 0.34421 0.0
H1272 H 0.21264 0.95045 0.31851 0.0
H1273 H 0.22554 0.90701 0.33475 0.0
C1274 C 0.29224 0.79183 0.30006 0.0
C1275 C 0.26914 0.785 0.28919 0.0
C1276 C 0.2945 0.81221 0.31938 0.0
C1277 C 0.27369 0.82608 0.32812 0.0
C1278 C 0.25062 0.81933 0.31727 0.0
C1279 C 0.24834 0.79888 0.29807 0.0
C1280 C 0.27588 0.84782 0.34843 0.0
C1281 C 0.26791 0.87264 0.34036 0.0
C1282 C 0.2858 0.84425 0.37543 0.0
C1283 C 0.29382 0.81831 0.38541 0.0
C1284 C 0.27748 0.79705 0.38542 0.0
C1285 C 0.28522 0.77263 0.39473 0.0
C1286 C 0.30921 0.76928 0.40428 0.0
C1287 C 0.32548 0.79037 0.40462 0.0
C1288 C 0.31784 0.81483 0.3953 0.0
C1289 C 0.25085 0.94035 0.43476 0.0
C1290 C 0.27156 0.94957 0.44927 0.0
C1291 C 0.25318 0.92114 0.41426 0.0
C1292 C 0.27625 0.91076 0.40776 0.0
C1293 C 0.29701 0.91969 0.42229 0.0
C1294 C 0.29471 0.9391 0.44281 0.0
C1295 C 0.27828 0.89017 0.38612 0.0
C1296 C 0.28705 0.86557 0.39389 0.0
C1297 C 0.26919 0.89396 0.35878 0.0
C1298 C 0.26131 0.92003 0.34889 0.0
C1299 C 0.27709 0.94167 0.35136 0.0
C1300 C 0.26957 0.96622 0.34221 0.0
C1301 C 0.24636 0.96936 0.33039 0.0
C1302 C 0.23062 0.94796 0.32768 0.0
C1303 C 0.23804 0.92336 0.33682 0.0
H1304 H 0.24063 0.98837 0.32325 0.0
H1305 H 0.31516 0.75036 0.41149 0.0
H1306 H 0.75423 0.73369 0.83301 0.0
H1307 H 0.71982 0.73673 0.86589 0.0
H1308 H 0.67095 0.75386 0.7975 0.0
H1309 H 0.70545 0.75196 0.765 0.0
H1310 H 0.65961 0.78373 0.83808 0.0
H1311 H 0.67527 0.69159 0.82995 0.0
H1312 H 0.70021 0.65157 0.83207 0.0
H1313 H 0.71397 0.66536 0.91924 0.0
H1314 H 0.68935 0.70565 0.91754 0.0
H1315 H 0.5587 0.70958 0.92102 0.0
H1316 H 0.59539 0.71082 0.89212 0.0
H1317 H 0.61265 0.78755 0.92423 0.0
H1318 H 0.57527 0.78674 0.95272 0.0
H1319 H 0.64124 0.71227 0.90418 0.0
H1320 H 0.64495 0.82135 0.87503 0.0
H1321 H 0.61682 0.85841 0.86819 0.0
H1322 H 0.5585 0.80538 0.84727 0.0
H1323 H 0.58636 0.76805 0.85365 0.0
C1324 C 0.73609 0.738 0.82512 0.0
C1325 C 0.73241 0.74256 0.79655 0.0
C1326 C 0.71643 0.73971 0.84386 0.0
C1327 C 0.69265 0.74529 0.8342 0.0
C1328 C 0.68907 0.7497 0.80557 0.0
C1329 C 0.70875 0.7485 0.78698 0.0
C1330 C 0.67136 0.74641 0.85364 0.0
C1331 C 0.65568 0.76811 0.85259 0.0
C1332 C 0.66596 0.726 0.87246 0.0
C1333 C 0.68071 0.70176 0.87354 0.0
C1334 C 0.68377 0.68617 0.84952 0.0
C1335 C 0.69782 0.66343 0.85065 0.0
C1336 C 0.70873 0.65597 0.87575 0.0
C1337 C 0.70555 0.67119 0.8998 0.0
C1338 C 0.69154 0.69397 0.89876 0.0
C1339 C 0.5702 0.72683 0.92185 0.0
C1340 C 0.56402 0.74813 0.93908 0.0
C1341 C 0.59127 0.72745 0.90539 0.0
C1342 C 0.60682 0.74928 0.90587 0.0
C1343 C 0.60077 0.77063 0.92315 0.0
C1344 C 0.57941 0.77016 0.93943 0.0
C1345 C 0.62928 0.74935 0.88824 0.0
C1346 C 0.64529 0.72797 0.88981 0.0
C1347 C 0.63453 0.76964 0.86924 0.0
C1348 C 0.61766 0.79193 0.86516 0.0
C1349 C 0.62613 0.81762 0.86892 0.0
C1350 C 0.61024 0.83867 0.86513 0.0
C1351 C 0.58586 0.83425 0.85741 0.0
C1352 C 0.57736 0.80877 0.85337 0.0
C1353 C 0.59318 0.78767 0.8571 0.0
H1354 H 0.57359 0.85056 0.8545 0.0
H1355 H 0.71961 0.63836 0.87659 0.0
loop_
_geom_bond_atom_site_label_1
_geom_bond_atom_site_label_2
_geom_bond_distance
_geom_bond_site_symmetry_2
_ccdc_geom_bond_type
H0 C3 0.931 . S
H1 C6 0.928 . S
H2 C8 0.930 . S
C3 H0 0.931 . S
C3 C4 1.413 . S
C3 C5 1.360 . S
C4 C3 1.413 . S
C4 C8 1.429 . S
C5 C3 1.360 . S
C5 C6 1.372 . S
C6 H1 0.928 . S
C6 C5 1.372 . S
C6 C7 1.404 . S
C7 C6 1.404 . S
C7 C8 1.391 . S
C8 H2 0.930 . S
C8 C4 1.429 . S
C8 C7 1.391 . S
H9 C12 0.931 . S
H10 C15 0.928 . S
H11 C17 0.930 . S
C12 H9 0.931 . S
C12 C13 1.413 . S
C12 C14 1.360 . S
C13 C12 1.413 . S
C13 C17 1.429 . S
C14 C12 1.360 . S
C14 C15 1.372 . S
C15 H10 0.928 . S
C15 C14 1.372 . S
C15 C16 1.404 . S
C16 C15 1.404 . S
C16 C17 1.391 . S
C17 H11 0.930 . S
C17 C13 1.429 . S
C17 C16 1.391 . S
H18 C21 0.931 . S
H19 C24 0.928 . S
H20 C26 0.930 . S
C21 H18 0.931 . S
C21 C22 1.413 . S
C21 C23 1.360 . S
C22 C21 1.413 . S
C22 C26 1.429 . S
C23 C21 1.360 . S
C23 C24 1.372 . S
C24 H19 0.928 . S
C24 C23 1.372 . S
C24 C25 1.404 . S
C25 C24 1.404 . S
C25 C26 1.391 . S
C26 H20 0.930 . S
C26 C22 1.429 . S
C26 C25 1.391 . S
H27 C30 0.931 . S
H28 C33 0.928 . S
H29 C35 0.930 . S
C30 H27 0.931 . S
C30 C31 1.413 . S
C30 C32 1.360 . S
C31 C30 1.413 . S
C31 C35 1.429 . S
C32 C30 1.360 . S
C32 C33 1.372 . S
C33 H28 0.928 . S
C33 C32 1.372 . S
C33 C34 1.404 . S
C34 C33 1.404 . S
C34 C35 1.391 . S
C35 H29 0.930 . S
C35 C31 1.429 . S
C35 C34 1.391 . S
H36 C39 0.931 . S
H37 C42 0.928 . S
H38 C44 0.930 . S
C39 H36 0.931 . S
C39 C40 1.413 . S
C39 C41 1.360 . S
C40 C39 1.413 . S
C40 C44 1.429 . S
C41 C39 1.360 . S
C41 C42 1.372 . S
C42 H37 0.928 . S
C42 C41 1.372 . S
C42 C43 1.404 . S
C43 C42 1.404 . S
C43 C44 1.391 . S
C44 H38 0.930 . S
C44 C40 1.429 . S
C44 C43 1.391 . S
H45 C48 0.931 . S
H46 C51 0.928 . S
H47 C53 0.930 . S
C48 H45 0.931 . S
C48 C49 1.413 . S
C48 C50 1.360 . S
C49 C48 1.413 . S
C49 C53 1.429 . S
C50 C48 1.360 . S
C50 C51 1.372 . S
C51 H46 0.928 . S
C51 C50 1.372 . S
C51 C52 1.404 . S
C52 C51 1.404 . S
C52 C53 1.391 . S
C53 H47 0.930 . S
C53 C49 1.429 . S
C53 C52 1.391 . S
H54 C57 0.931 . S
H55 C60 0.928 . S
H56 C62 0.930 . S
C57 H54 0.931 . S
C57 C58 1.413 . S
C57 C59 1.360 . S
C58 C57 1.413 . S
C58 C62 1.429 . S
C59 C57 1.360 . S
C59 C60 1.372 . S
C60 H55 0.928 . S
C60 C59 1.372 . S
C60 C61 1.404 . S
C61 C60 1.404 . S
C61 C62 1.391 . S
C62 H56 0.930 . S
C62 C58 1.429 . S
C62 C61 1.391 . S
H63 C66 0.931 . S
H64 C69 0.928 . S
H65 C71 0.930 . S
C66 H63 0.931 . S
C66 C67 1.413 . S
C66 C68 1.360 . S
C67 C66 1.413 . S
C67 C71 1.429 . S
C68 C66 1.360 . S
C68 C69 1.372 . S
C69 H64 0.928 . S
C69 C68 1.372 . S
C69 C70 1.404 . S
C70 C69 1.404 . S
C70 C71 1.391 . S
C71 H65 0.930 . S
C71 C67 1.429 . S
C71 C70 1.391 . S
C72 O74 1.247 . S
C72 O76 1.258 . S
C73 O80 1.247 . S
C73 O81 1.258 . S
O74 C72 1.247 . S
O74 Zn75 2.028 1_655 S
Zn75 O74 2.028 1_455 S
Zn75 O79 2.035 . S
Zn75 O81 2.035 . S
Zn75 O82 2.028 1_455 S
O76 C72 1.258 . S
O76 Zn77 2.035 1_655 S
Zn77 O76 2.035 1_455 S
Zn77 O78 2.028 . S
Zn77 O80 2.028 . S
Zn77 O83 2.035 1_455 S
O78 Zn77 2.028 . S
O78 C84 1.247 . S
O79 Zn75 2.035 . S
O79 C84 1.258 . S
O80 C73 1.247 . S
O80 Zn77 2.028 . S
O81 C73 1.258 . S
O81 Zn75 2.035 . S
O82 Zn75 2.028 1_655 S
O82 C85 1.247 . S
O83 Zn77 2.035 1_655 S
O83 C85 1.258 . S
C84 O78 1.247 . S
C84 O79 1.258 . S
C85 O82 1.247 . S
C85 O83 1.258 . S
C86 O88 1.247 . S
C86 O90 1.258 . S
C87 O94 1.247 . S
C87 O95 1.258 . S
O88 C86 1.247 . S
O88 Zn89 2.028 1_655 S
Zn89 O88 2.028 1_455 S
Zn89 O93 2.035 . S
Zn89 O95 2.035 . S
Zn89 O96 2.028 1_455 S
O90 C86 1.258 . S
O90 Zn91 2.035 1_655 S
Zn91 O90 2.035 1_455 S
Zn91 O92 2.028 . S
Zn91 O94 2.028 . S
Zn91 O97 2.035 1_455 S
O92 Zn91 2.028 . S
O92 C98 1.247 . S
O93 Zn89 2.035 . S
O93 C98 1.258 . S
O94 C87 1.247 . S
O94 Zn91 2.028 . S
O95 C87 1.258 . S
O95 Zn89 2.035 . S
O96 Zn89 2.028 1_655 S
O96 C99 1.247 . S
O97 Zn91 2.035 1_655 S
O97 C99 1.258 . S
C98 O92 1.247 . S
C98 O93 1.258 . S
C99 O96 1.247 . S
C99 O97 1.258 . S
C100 O102 1.247 . S
C100 O104 1.258 . S
C101 O108 1.247 . S
C101 O109 1.258 . S
O102 C100 1.247 . S
O102 Zn103 2.017 1_565 S
Zn103 O102 2.017 1_545 S
Zn103 O107 2.046 . S
Zn103 O109 2.046 . S
Zn103 O110 2.017 1_545 S
O104 C100 1.258 . S
O104 Zn105 2.008 1_565 S
Zn105 O104 2.008 1_545 S
Zn105 O106 2.054 . S
Zn105 O108 2.055 . S
Zn105 O111 2.009 1_545 S
O106 Zn105 2.054 . S
O106 C112 1.247 . S
O107 Zn103 2.046 . S
O107 C112 1.258 . S
O108 C101 1.247 . S
O108 Zn105 2.055 . S
O109 C101 1.258 . S
O109 Zn103 2.046 . S
O110 Zn103 2.017 1_565 S
O110 C113 1.247 . S
O111 Zn105 2.009 1_565 S
O111 C113 1.258 . S
C112 O106 1.247 . S
C112 O107 1.258 . S
C113 O110 1.247 . S
C113 O111 1.258 . S
C114 O116 1.247 . S
C114 O118 1.258 . S
C115 O122 1.247 . S
C115 O123 1.258 . S
O116 C114 1.247 . S
O116 Zn117 2.027 . S
Zn117 O116 2.027 . S
Zn117 O121 2.034 . S
Zn117 O123 2.036 1_554 S
Zn117 O124 2.029 1_554 S
O118 C114 1.258 . S
O118 Zn119 2.048 . S
Zn119 O118 2.048 . S
Zn119 O120 2.041 . S
Zn119 O122 2.015 1_554 S
Zn119 O125 2.023 1_554 S
O120 Zn119 2.041 . S
O120 C126 1.247 . S
O121 Zn117 2.034 . S
O121 C126 1.258 . S
O122 C115 1.247 . S
O122 Zn119 2.015 1_556 S
O123 C115 1.258 . S
O123 Zn117 2.036 1_556 S
O124 Zn117 2.029 1_556 S
O124 C127 1.247 . S
O125 Zn119 2.023 1_556 S
O125 C127 1.258 . S
C126 O120 1.247 . S
C126 O121 1.258 . S
C127 O124 1.247 . S
C127 O125 1.258 . S
C128 O130 1.247 . S
C128 O132 1.258 . S
C129 O136 1.247 . S
C129 O137 1.258 . S
O130 C128 1.247 . S
O130 Zn131 2.028 1_565 S
Zn131 O130 2.028 1_545 S
Zn131 O135 2.035 . S
Zn131 O137 2.035 . S
Zn131 O138 2.028 1_545 S
O132 C128 1.258 . S
O132 Zn133 2.019 1_565 S
Zn133 O132 2.019 1_545 S
Zn133 O134 2.044 . S
Zn133 O136 2.044 . S
Zn133 O139 2.019 1_545 S
O134 Zn133 2.044 . S
O134 C140 1.247 . S
O135 Zn131 2.035 . S
O135 C140 1.258 . S
O136 C129 1.247 . S
O136 Zn133 2.044 . S
O137 C129 1.258 . S
O137 Zn131 2.035 . S
O138 Zn131 2.028 1_565 S
O138 C141 1.247 . S
O139 Zn133 2.019 1_565 S
O139 C141 1.258 . S
C140 O134 1.247 . S
C140 O135 1.258 . S
C141 O138 1.247 . S
C141 O139 1.258 . S
C142 O144 1.247 . S
C142 O146 1.258 . S
C143 O150 1.247 . S
C143 O151 1.258 . S
O144 C142 1.247 . S
O144 Zn145 2.028 . S
Zn145 O144 2.028 . S
Zn145 O149 2.035 . S
Zn145 O151 2.035 1_554 S
Zn145 O152 2.028 1_554 S
O146 C142 1.258 . S
O146 Zn147 2.035 . S
Zn147 O146 2.035 . S
Zn147 O148 2.028 . S
Zn147 O150 2.028 1_554 S
Zn147 O153 2.035 1_554 S
O148 Zn147 2.028 . S
O148 C154 1.247 . S
O149 Zn145 2.035 . S
O149 C154 1.258 . S
O150 C143 1.247 . S
O150 Zn147 2.028 1_556 S
O151 C143 1.258 . S
O151 Zn145 2.035 1_556 S
O152 Zn145 2.028 1_556 S
O152 C155 1.247 . S
O153 Zn147 2.035 1_556 S
O153 C155 1.258 . S
C154 O148 1.247 . S
C154 O149 1.258 . S
C155 O152 1.247 . S
C155 O153 1.258 . S
H156 C174 0.951 . S
H157 C176 0.951 . S
H158 C178 0.950 . S
H159 C179 0.950 . S
H160 C181 0.950 . S
H161 C184 0.950 . S
H162 C185 0.950 . S
H163 C187 0.950 . S
H164 C188 0.950 . S
H165 C189 0.951 . S
H166 C191 0.951 . S
H167 C193 0.950 . S
H168 C194 0.950 . S
H169 C196 0.950 . S
H170 C199 0.950 . S
H171 C200 0.950 . S
H172 C202 0.950 . S
H173 C203 0.950 . S
C174 H156 0.951 . S
C174 C175 1.366 . S
C174 C176 1.388 . S
C175 C174 1.366 . S
C175 C179 1.385 . S
C176 H157 0.951 . S
C176 C174 1.388 . S
C176 C177 1.366 . S
C177 C176 1.366 . S
C177 C178 1.414 . S
C177 C180 1.499 . S
C178 H158 0.950 . S
C178 C177 1.414 . S
C178 C179 1.374 . S
C179 H159 0.950 . S
C179 C175 1.385 . S
C179 C178 1.374 . S
C180 C177 1.499 . S
C180 C181 1.373 . S
C180 C182 1.389 . S
C181 H160 0.950 . S
C181 C180 1.373 . S
C181 C197 1.377 . S
C182 C180 1.389 . S
C182 C183 1.524 . S
C182 C196 1.377 . S
C183 C182 1.524 . S
C183 C184 1.397 . S
C183 C188 1.363 . S
C184 H161 0.950 . S
C184 C183 1.397 . S
C184 C185 1.334 . S
C185 H162 0.950 . S
C185 C184 1.334 . S
C185 C186 1.287 . S
C186 C185 1.287 . S
C186 C187 1.524 . S
C186 H205 0.913 . S
C187 H163 0.950 . S
C187 C186 1.524 . S
C187 C188 1.415 . S
C188 H164 0.950 . S
C188 C183 1.363 . S
C188 C187 1.415 . S
C189 H165 0.951 . S
C189 C190 1.366 . S
C189 C191 1.388 . S
C190 C189 1.366 . S
C190 C194 1.385 . S
C191 H166 0.951 . S
C191 C189 1.388 . S
C191 C192 1.366 . S
C192 C191 1.366 . S
C192 C193 1.414 . S
C192 C195 1.499 . S
C193 H167 0.950 . S
C193 C192 1.414 . S
C193 C194 1.374 . S
C194 H168 0.950 . S
C194 C190 1.385 . S
C194 C193 1.374 . S
C195 C192 1.499 . S
C195 C196 1.373 . S
C195 C197 1.389 . S
C196 H169 0.950 . S
C196 C182 1.377 . S
C196 C195 1.373 . S
C197 C181 1.377 . S
C197 C195 1.389 . S
C197 C198 1.524 . S
C198 C197 1.524 . S
C198 C199 1.397 . S
C198 C203 1.363 . S
C199 H170 0.950 . S
C199 C198 1.397 . S
C199 C200 1.334 . S
C200 H171 0.950 . S
C200 C199 1.334 . S
C200 C201 1.287 . S
C201 C200 1.287 . S
C201 C202 1.524 . S
C201 H204 0.999 . S
C202 H172 0.950 . S
C202 C201 1.524 . S
C202 C203 1.415 . S
C203 H173 0.950 . S
C203 C198 1.363 . S
C203 C202 1.415 . S
H204 C201 0.999 . S
H205 C186 0.913 . S
H206 C224 0.951 . S
H207 C226 0.951 . S
H208 C228 0.950 . S
H209 C229 0.950 . S
H210 C231 0.950 . S
H211 C234 0.950 . S
H212 C235 0.950 . S
H213 C237 0.950 . S
H214 C238 0.950 . S
H215 C239 0.951 . S
H216 C241 0.951 . S
H217 C243 0.950 . S
H218 C244 0.950 . S
H219 C246 0.950 . S
H220 C249 0.950 . S
H221 C250 0.950 . S
H222 C252 0.950 . S
H223 C253 0.950 . S
C224 H206 0.951 . S
C224 C225 1.366 . S
C224 C226 1.388 . S
C225 C224 1.366 . S
C225 C229 1.385 . S
C226 H207 0.951 . S
C226 C224 1.388 . S
C226 C227 1.366 . S
C227 C226 1.366 . S
C227 C228 1.414 . S
C227 C230 1.499 . S
C228 H208 0.950 . S
C228 C227 1.414 . S
C228 C229 1.374 . S
C229 H209 0.950 . S
C229 C225 1.385 . S
C229 C228 1.374 . S
C230 C227 1.499 . S
C230 C231 1.373 . S
C230 C232 1.389 . S
C231 H210 0.950 . S
C231 C230 1.373 . S
C231 C247 1.377 . S
C232 C230 1.389 . S
C232 C233 1.524 . S
C232 C246 1.377 . S
C233 C232 1.524 . S
C233 C234 1.397 . S
C233 C238 1.363 . S
C234 H211 0.950 . S
C234 C233 1.397 . S
C234 C235 1.334 . S
C235 H212 0.950 . S
C235 C234 1.334 . S
C235 C236 1.287 . S
C236 C235 1.287 . S
C236 C237 1.524 . S
C236 H255 0.913 . S
C237 H213 0.950 . S
C237 C236 1.524 . S
C237 C238 1.415 . S
C238 H214 0.950 . S
C238 C233 1.363 . S
C238 C237 1.415 . S
C239 H215 0.951 . S
C239 C240 1.366 . S
C239 C241 1.388 . S
C240 C239 1.366 . S
C240 C244 1.385 . S
C241 H216 0.951 . S
C241 C239 1.388 . S
C241 C242 1.366 . S
C242 C241 1.366 . S
C242 C243 1.414 . S
C242 C245 1.499 . S
C243 H217 0.950 . S
C243 C242 1.414 . S
C243 C244 1.374 . S
C244 H218 0.950 . S
C244 C240 1.385 . S
C244 C243 1.374 . S
C245 C242 1.499 . S
C245 C246 1.373 . S
C245 C247 1.389 . S
C246 H219 0.950 . S
C246 C232 1.377 . S
C246 C245 1.373 . S
C247 C231 1.377 . S
C247 C245 1.389 . S
C247 C248 1.524 . S
C248 C247 1.524 . S
C248 C249 1.397 . S
C248 C253 1.363 . S
C249 H220 0.950 . S
C249 C248 1.397 . S
C249 C250 1.334 . S
C250 H221 0.950 . S
C250 C249 1.334 . S
C250 C251 1.287 . S
C251 C250 1.287 . S
C251 C252 1.524 . S
C251 H254 0.999 . S
C252 H222 0.950 . S
C252 C251 1.524 . S
C252 C253 1.415 . S
C253 H223 0.950 . S
C253 C248 1.363 . S
C253 C252 1.415 . S
H254 C251 0.999 . S
H255 C236 0.913 . S
H256 C274 0.951 . S
H257 C276 0.951 . S
H258 C278 0.950 . S
H259 C279 0.950 . S
H260 C281 0.950 . S
H261 C284 0.950 . S
H262 C285 0.950 . S
H263 C287 0.950 . S
H264 C288 0.950 . S
H265 C289 0.951 . S
H266 C291 0.951 . S
H267 C293 0.950 . S
H268 C294 0.950 . S
H269 C296 0.950 . S
H270 C299 0.950 . S
H271 C300 0.950 . S
H272 C302 0.950 . S
H273 C303 0.950 . S
C274 H256 0.951 . S
C274 C275 1.366 . S
C274 C276 1.388 . S
C275 C274 1.366 . S
C275 C279 1.385 . S
C276 H257 0.951 . S
C276 C274 1.388 . S
C276 C277 1.366 . S
C277 C276 1.366 . S
C277 C278 1.414 . S
C277 C280 1.499 . S
C278 H258 0.950 . S
C278 C277 1.414 . S
C278 C279 1.374 . S
C279 H259 0.950 . S
C279 C275 1.385 . S
C279 C278 1.374 . S
C280 C277 1.499 . S
C280 C281 1.373 . S
C280 C282 1.389 . S
C281 H260 0.950 . S
C281 C280 1.373 . S
C281 C297 1.377 . S
C282 C280 1.389 . S
C282 C283 1.524 . S
C282 C296 1.377 . S
C283 C282 1.524 . S
C283 C284 1.397 . S
C283 C288 1.363 . S
C284 H261 0.950 . S
C284 C283 1.397 . S
C284 C285 1.334 . S
C285 H262 0.950 . S
C285 C284 1.334 . S
C285 C286 1.287 . S
C286 C285 1.287 . S
C286 C287 1.524 . S
C286 H305 0.913 . S
C287 H263 0.950 . S
C287 C286 1.524 . S
C287 C288 1.415 . S
C288 H264 0.950 . S
C288 C283 1.363 . S
C288 C287 1.415 . S
C289 H265 0.951 . S
C289 C290 1.366 . S
C289 C291 1.388 . S
C290 C289 1.366 . S
C290 C294 1.385 . S
C291 H266 0.951 . S
C291 C289 1.388 . S
C291 C292 1.366 . S
C292 C291 1.366 . S
C292 C293 1.414 . S
C292 C295 1.499 . S
C293 H267 0.950 . S
C293 C292 1.414 . S
C293 C294 1.374 . S
C294 H268 0.950 . S
C294 C290 1.385 . S
C294 C293 1.374 . S
C295 C292 1.499 . S
C295 C296 1.373 . S
C295 C297 1.389 . S
C296 H269 0.950 . S
C296 C282 1.377 . S
C296 C295 1.373 . S
C297 C281 1.377 . S
C297 C295 1.389 . S
C297 C298 1.524 . S
C298 C297 1.524 . S
C298 C299 1.397 . S
C298 C303 1.363 . S
C299 H270 0.950 . S
C299 C298 1.397 . S
C299 C300 1.334 . S
C300 H271 0.950 . S
C300 C299 1.334 . S
C300 C301 1.287 . S
C301 C300 1.287 . S
C301 C302 1.524 . S
C301 H304 0.999 . S
C302 H272 0.950 . S
C302 C301 1.524 . S
C302 C303 1.415 . S
C303 H273 0.950 . S
C303 C298 1.363 . S
C303 C302 1.415 . S
H304 C301 0.999 . S
H305 C286 0.913 . S
H306 C324 0.951 . S
H307 C326 0.951 . S
H308 C328 0.950 . S
H309 C329 0.950 . S
H310 C331 0.950 . S
H311 C334 0.950 . S
H312 C335 0.950 . S
H313 C337 0.950 . S
H314 C338 0.950 . S
H315 C339 0.951 . S
H316 C341 0.951 . S
H317 C343 0.950 . S
H318 C344 0.950 . S
H319 C346 0.950 . S
H320 C349 0.950 . S
H321 C350 0.950 . S
H322 C352 0.950 . S
H323 C353 0.950 . S
C324 H306 0.951 . S
C324 C325 1.366 . S
C324 C326 1.388 . S
C325 C324 1.366 . S
C325 C329 1.385 . S
C326 H307 0.951 . S
C326 C324 1.388 . S
C326 C327 1.366 . S
C327 C326 1.366 . S
C327 C328 1.414 . S
C327 C330 1.499 . S
C328 H308 0.950 . S
C328 C327 1.414 . S
C328 C329 1.374 . S
C329 H309 0.950 . S
C329 C325 1.385 . S
C329 C328 1.374 . S
C330 C327 1.499 . S
C330 C331 1.373 . S
C330 C332 1.389 . S
C331 H310 0.950 . S
C331 C330 1.373 . S
C331 C347 1.377 . S
C332 C330 1.389 . S
C332 C333 1.524 . S
C332 C346 1.377 . S
C333 C332 1.524 . S
C333 C334 1.397 . S
C333 C338 1.363 . S
C334 H311 0.950 . S
C334 C333 1.397 . S
C334 C335 1.334 . S
C335 H312 0.950 . S
C335 C334 1.334 . S
C335 C336 1.287 . S
C336 C335 1.287 . S
C336 C337 1.524 . S
C336 H355 0.913 . S
C337 H313 0.950 . S
C337 C336 1.524 . S
C337 C338 1.415 . S
C338 H314 0.950 . S
C338 C333 1.363 . S
C338 C337 1.415 . S
C339 H315 0.951 . S
C339 C340 1.366 . S
C339 C341 1.388 . S
C340 C339 1.366 . S
C340 C344 1.385 . S
C341 H316 0.951 . S
C341 C339 1.388 . S
C341 C342 1.366 . S
C342 C341 1.366 . S
C342 C343 1.414 . S
C342 C345 1.499 . S
C343 H317 0.950 . S
C343 C342 1.414 . S
C343 C344 1.374 . S
C344 H318 0.950 . S
C344 C340 1.385 . S
C344 C343 1.374 . S
C345 C342 1.499 . S
C345 C346 1.373 . S
C345 C347 1.389 . S
C346 H319 0.950 . S
C346 C332 1.377 . S
C346 C345 1.373 . S
C347 C331 1.377 . S
C347 C345 1.389 . S
C347 C348 1.524 . S
C348 C347 1.524 . S
C348 C349 1.397 . S
C348 C353 1.363 . S
C349 H320 0.950 . S
C349 C348 1.397 . S
C349 C350 1.334 . S
C350 H321 0.950 . S
C350 C349 1.334 . S
C350 C351 1.287 . S
C351 C350 1.287 . S
C351 C352 1.524 . S
C351 H354 0.999 . S
C352 H322 0.950 . S
C352 C351 1.524 . S
C352 C353 1.415 . S
C353 H323 0.950 . S
C353 C348 1.363 . S
C353 C352 1.415 . S
H354 C351 0.999 . S
H355 C336 0.913 . S
H356 C374 0.951 . S
H357 C376 0.951 . S
H358 C378 0.950 . S
H359 C379 0.950 . S
H360 C381 0.950 . S
H361 C384 0.950 . S
H362 C385 0.950 . S
H363 C387 0.950 . S
H364 C388 0.950 . S
H365 C389 0.951 . S
H366 C391 0.951 . S
H367 C393 0.950 . S
H368 C394 0.950 . S
H369 C396 0.950 . S
H370 C399 0.950 . S
H371 C400 0.950 . S
H372 C402 0.950 . S
H373 C403 0.950 . S
C374 H356 0.951 . S
C374 C375 1.366 . S
C374 C376 1.388 . S
C375 C374 1.366 . S
C375 C379 1.385 . S
C376 H357 0.951 . S
C376 C374 1.388 . S
C376 C377 1.366 . S
C377 C376 1.366 . S
C377 C378 1.414 . S
C377 C380 1.499 . S
C378 H358 0.950 . S
C378 C377 1.414 . S
C378 C379 1.374 . S
C379 H359 0.950 . S
C379 C375 1.385 . S
C379 C378 1.374 . S
C380 C377 1.499 . S
C380 C381 1.373 . S
C380 C382 1.389 . S
C381 H360 0.950 . S
C381 C380 1.373 . S
C381 C397 1.377 . S
C382 C380 1.389 . S
C382 C383 1.524 . S
C382 C396 1.377 . S
C383 C382 1.524 . S
C383 C384 1.397 . S
C383 C388 1.363 . S
C384 H361 0.950 . S
C384 C383 1.397 . S
C384 C385 1.334 . S
C385 H362 0.950 . S
C385 C384 1.334 . S
C385 C386 1.287 . S
C386 C385 1.287 . S
C386 C387 1.524 . S
C386 H405 0.913 . S
C387 H363 0.950 . S
C387 C386 1.524 . S
C387 C388 1.415 . S
C388 H364 0.950 . S
C388 C383 1.363 . S
C388 C387 1.415 . S
C389 H365 0.951 . S
C389 C390 1.366 . S
C389 C391 1.388 . S
C390 C389 1.366 . S
C390 C394 1.385 . S
C391 H366 0.951 . S
C391 C389 1.388 . S
C391 C392 1.366 . S
C392 C391 1.366 . S
C392 C393 1.414 . S
C392 C395 1.499 . S
C393 H367 0.950 . S
C393 C392 1.414 . S
C393 C394 1.374 . S
C394 H368 0.950 . S
C394 C390 1.385 . S
C394 C393 1.374 . S
C395 C392 1.499 . S
C395 C396 1.373 . S
C395 C397 1.389 . S
C396 H369 0.950 . S
C396 C382 1.377 . S
C396 C395 1.373 . S
C397 C381 1.377 . S
C397 C395 1.389 . S
C397 C398 1.524 . S
C398 C397 1.524 . S
C398 C399 1.397 . S
C398 C403 1.363 . S
C399 H370 0.950 . S
C399 C398 1.397 . S
C399 C400 1.334 . S
C400 H371 0.950 . S
C400 C399 1.334 . S
C400 C401 1.287 . S
C401 C400 1.287 . S
C401 C402 1.524 . S
C401 H404 0.999 . S
C402 H372 0.950 . S
C402 C401 1.524 . S
C402 C403 1.415 . S
C403 H373 0.950 . S
C403 C398 1.363 . S
C403 C402 1.415 . S
H404 C401 0.999 . S
H405 C386 0.913 . S
H406 C424 0.951 . S
H407 C426 0.951 . S
H408 C428 0.950 . S
H409 C429 0.950 . S
H410 C431 0.950 . S
H411 C434 0.950 . S
H412 C435 0.950 . S
H413 C437 0.950 . S
H414 C438 0.950 . S
H415 C439 0.951 . S
H416 C441 0.951 . S
H417 C443 0.950 . S
H418 C444 0.950 . S
H419 C446 0.950 . S
H420 C449 0.950 . S
H421 C450 0.950 . S
H422 C452 0.950 . S
H423 C453 0.950 . S
C424 H406 0.951 . S
C424 C425 1.366 . S
C424 C426 1.388 . S
C425 C424 1.366 . S
C425 C429 1.385 . S
C426 H407 0.951 . S
C426 C424 1.388 . S
C426 C427 1.366 . S
C427 C426 1.366 . S
C427 C428 1.414 . S
C427 C430 1.499 . S
C428 H408 0.950 . S
C428 C427 1.414 . S
C428 C429 1.374 . S
C429 H409 0.950 . S
C429 C425 1.385 . S
C429 C428 1.374 . S
C430 C427 1.499 . S
C430 C431 1.373 . S
C430 C432 1.389 . S
C431 H410 0.950 . S
C431 C430 1.373 . S
C431 C447 1.377 . S
C432 C430 1.389 . S
C432 C433 1.524 . S
C432 C446 1.377 . S
C433 C432 1.524 . S
C433 C434 1.397 . S
C433 C438 1.363 . S
C434 H411 0.950 . S
C434 C433 1.397 . S
C434 C435 1.334 . S
C435 H412 0.950 . S
C435 C434 1.334 . S
C435 C436 1.287 . S
C436 C435 1.287 . S
C436 C437 1.524 . S
C436 H455 0.913 . S
C437 H413 0.950 . S
C437 C436 1.524 . S
C437 C438 1.415 . S
C438 H414 0.950 . S
C438 C433 1.363 . S
C438 C437 1.415 . S
C439 H415 0.951 . S
C439 C440 1.366 . S
C439 C441 1.388 . S
C440 C439 1.366 . S
C440 C444 1.385 . S
C441 H416 0.951 . S
C441 C439 1.388 . S
C441 C442 1.366 . S
C442 C441 1.366 . S
C442 C443 1.414 . S
C442 C445 1.499 . S
C443 H417 0.950 . S
C443 C442 1.414 . S
C443 C444 1.374 . S
C444 H418 0.950 . S
C444 C440 1.385 . S
C444 C443 1.374 . S
C445 C442 1.499 . S
C445 C446 1.373 . S
C445 C447 1.389 . S
C446 H419 0.950 . S
C446 C432 1.377 . S
C446 C445 1.373 . S
C447 C431 1.377 . S
C447 C445 1.389 . S
C447 C448 1.524 . S
C448 C447 1.524 . S
C448 C449 1.397 . S
C448 C453 1.363 . S
C449 H420 0.950 . S
C449 C448 1.397 . S
C449 C450 1.334 . S
C450 H421 0.950 . S
C450 C449 1.334 . S
C450 C451 1.287 . S
C451 C450 1.287 . S
C451 C452 1.524 . S
C451 H454 0.999 . S
C452 H422 0.950 . S
C452 C451 1.524 . S
C452 C453 1.415 . S
C453 H423 0.950 . S
C453 C448 1.363 . S
C453 C452 1.415 . S
H454 C451 0.999 . S
H455 C436 0.913 . S
H456 C474 0.951 . S
H457 C476 0.951 . S
H458 C478 0.950 . S
H459 C479 0.950 . S
H460 C481 0.950 . S
H461 C484 0.950 . S
H462 C485 0.950 . S
H463 C487 0.950 . S
H464 C488 0.950 . S
H465 C489 0.951 . S
H466 C491 0.951 . S
H467 C493 0.950 . S
H468 C494 0.950 . S
H469 C496 0.950 . S
H470 C499 0.950 . S
H471 C500 0.950 . S
H472 C502 0.950 . S
H473 C503 0.950 . S
C474 H456 0.951 . S
C474 C475 1.366 . S
C474 C476 1.388 . S
C475 C474 1.366 . S
C475 C479 1.385 . S
C476 H457 0.951 . S
C476 C474 1.388 . S
C476 C477 1.366 . S
C477 C476 1.366 . S
C477 C478 1.414 . S
C477 C480 1.499 . S
C478 H458 0.950 . S
C478 C477 1.414 . S
C478 C479 1.374 . S
C479 H459 0.950 . S
C479 C475 1.385 . S
C479 C478 1.374 . S
C480 C477 1.499 . S
C480 C481 1.373 . S
C480 C482 1.389 . S
C481 H460 0.950 . S
C481 C480 1.373 . S
C481 C497 1.377 . S
C482 C480 1.389 . S
C482 C483 1.524 . S
C482 C496 1.377 . S
C483 C482 1.524 . S
C483 C484 1.397 . S
C483 C488 1.363 . S
C484 H461 0.950 . S
C484 C483 1.397 . S
C484 C485 1.334 . S
C485 H462 0.950 . S
C485 C484 1.334 . S
C485 C486 1.287 . S
C486 C485 1.287 . S
C486 C487 1.524 . S
C486 H505 0.913 . S
C487 H463 0.950 . S
C487 C486 1.524 . S
C487 C488 1.415 . S
C488 H464 0.950 . S
C488 C483 1.363 . S
C488 C487 1.415 . S
C489 H465 0.951 . S
C489 C490 1.366 . S
C489 C491 1.388 . S
C490 C489 1.366 . S
C490 C494 1.385 . S
C491 H466 0.951 . S
C491 C489 1.388 . S
C491 C492 1.366 . S
C492 C491 1.366 . S
C492 C493 1.414 . S
C492 C495 1.499 . S
C493 H467 0.950 . S
C493 C492 1.414 . S
C493 C494 1.374 . S
C494 H468 0.950 . S
C494 C490 1.385 . S
C494 C493 1.374 . S
C495 C492 1.499 . S
C495 C496 1.373 . S
C495 C497 1.389 . S
C496 H469 0.950 . S
C496 C482 1.377 . S
C496 C495 1.373 . S
C497 C481 1.377 . S
C497 C495 1.389 . S
C497 C498 1.524 . S
C498 C497 1.524 . S
C498 C499 1.397 . S
C498 C503 1.363 . S
C499 H470 0.950 . S
C499 C498 1.397 . S
C499 C500 1.334 . S
C500 H471 0.950 . S
C500 C499 1.334 . S
C500 C501 1.287 . S
C501 C500 1.287 . S
C501 C502 1.524 . S
C501 H504 0.999 . S
C502 H472 0.950 . S
C502 C501 1.524 . S
C502 C503 1.415 . S
C503 H473 0.950 . S
C503 C498 1.363 . S
C503 C502 1.415 . S
H504 C501 0.999 . S
H505 C486 0.913 . S
H506 C524 0.951 . S
H507 C526 0.951 . S
H508 C528 0.950 . S
H509 C529 0.950 . S
H510 C531 0.950 . S
H511 C534 0.950 . S
H512 C535 0.950 . S
H513 C537 0.950 . S
H514 C538 0.950 . S
H515 C539 0.951 . S
H516 C541 0.951 . S
H517 C543 0.950 . S
H518 C544 0.950 . S
H519 C546 0.950 . S
H520 C549 0.950 . S
H521 C550 0.950 . S
H522 C552 0.950 . S
H523 C553 0.950 . S
C524 H506 0.951 . S
C524 C525 1.366 . S
C524 C526 1.388 . S
C525 C524 1.366 . S
C525 C529 1.385 . S
C526 H507 0.951 . S
C526 C524 1.388 . S
C526 C527 1.366 . S
C527 C526 1.366 . S
C527 C528 1.414 . S
C527 C530 1.499 . S
C528 H508 0.950 . S
C528 C527 1.414 . S
C528 C529 1.374 . S
C529 H509 0.950 . S
C529 C525 1.385 . S
C529 C528 1.374 . S
C530 C527 1.499 . S
C530 C531 1.373 . S
C530 C532 1.389 . S
C531 H510 0.950 . S
C531 C530 1.373 . S
C531 C547 1.377 . S
C532 C530 1.389 . S
C532 C533 1.524 . S
C532 C546 1.377 . S
C533 C532 1.524 . S
C533 C534 1.397 . S
C533 C538 1.363 . S
C534 H511 0.950 . S
C534 C533 1.397 . S
C534 C535 1.334 . S
C535 H512 0.950 . S
C535 C534 1.334 . S
C535 C536 1.287 . S
C536 C535 1.287 . S
C536 C537 1.524 . S
C536 H555 0.913 . S
C537 H513 0.950 . S
C537 C536 1.524 . S
C537 C538 1.415 . S
C538 H514 0.950 . S
C538 C533 1.363 . S
C538 C537 1.415 . S
C539 H515 0.951 . S
C539 C540 1.366 . S
C539 C541 1.388 . S
C540 C539 1.366 . S
C540 C544 1.385 . S
C541 H516 0.951 . S
C541 C539 1.388 . S
C541 C542 1.366 . S
C542 C541 1.366 . S
C542 C543 1.414 . S
C542 C545 1.499 . S
C543 H517 0.950 . S
C543 C542 1.414 . S
C543 C544 1.374 . S
C544 H518 0.950 . S
C544 C540 1.385 . S
C544 C543 1.374 . S
C545 C542 1.499 . S
C545 C546 1.373 . S
C545 C547 1.389 . S
C546 H519 0.950 . S
C546 C532 1.377 . S
C546 C545 1.373 . S
C547 C531 1.377 . S
C547 C545 1.389 . S
C547 C548 1.524 . S
C548 C547 1.524 . S
C548 C549 1.397 . S
C548 C553 1.363 . S
C549 H520 0.950 . S
C549 C548 1.397 . S
C549 C550 1.334 . S
C550 H521 0.950 . S
C550 C549 1.334 . S
C550 C551 1.287 . S
C551 C550 1.287 . S
C551 C552 1.524 . S
C551 H554 1.016 . S
C552 H522 0.950 . S
C552 C551 1.524 . S
C552 C553 1.415 . S
C553 H523 0.950 . S
C553 C548 1.363 . S
C553 C552 1.415 . S
H554 C551 1.016 . S
H555 C536 0.913 . S
H556 C574 0.951 . S
H557 C576 0.951 . S
H558 C578 0.950 . S
H559 C579 0.950 . S
H560 C581 0.950 . S
H561 C584 0.950 . S
H562 C585 0.950 . S
H563 C587 0.950 . S
H564 C588 0.950 . S
H565 C589 0.951 . S
H566 C591 0.951 . S
H567 C593 0.950 . S
H568 C594 0.950 . S
H569 C596 0.950 . S
H570 C599 0.950 . S
H571 C600 0.950 . S
H572 C602 0.950 . S
H573 C603 0.950 . S
C574 H556 0.951 . S
C574 C575 1.366 . S
C574 C576 1.388 . S
C575 C574 1.366 . S
C575 C579 1.385 . S
C576 H557 0.951 . S
C576 C574 1.388 . S
C576 C577 1.366 . S
C577 C576 1.366 . S
C577 C578 1.414 . S
C577 C580 1.499 . S
C578 H558 0.950 . S
C578 C577 1.414 . S
C578 C579 1.374 . S
C579 H559 0.950 . S
C579 C575 1.385 . S
C579 C578 1.374 . S
C580 C577 1.499 . S
C580 C581 1.373 . S
C580 C582 1.389 . S
C581 H560 0.950 . S
C581 C580 1.373 . S
C581 C597 1.377 . S
C582 C580 1.389 . S
C582 C583 1.524 . S
C582 C596 1.377 . S
C583 C582 1.524 . S
C583 C584 1.397 . S
C583 C588 1.363 . S
C584 H561 0.950 . S
C584 C583 1.397 . S
C584 C585 1.334 . S
C585 H562 0.950 . S
C585 C584 1.334 . S
C585 C586 1.287 . S
C586 C585 1.287 . S
C586 C587 1.524 . S
C586 H605 0.913 . S
C587 H563 0.950 . S
C587 C586 1.524 . S
C587 C588 1.415 . S
C588 H564 0.950 . S
C588 C583 1.363 . S
C588 C587 1.415 . S
C589 H565 0.951 . S
C589 C590 1.366 . S
C589 C591 1.388 . S
C590 C589 1.366 . S
C590 C594 1.385 . S
C591 H566 0.951 . S
C591 C589 1.388 . S
C591 C592 1.366 . S
C592 C591 1.366 . S
C592 C593 1.414 . S
C592 C595 1.499 . S
C593 H567 0.950 . S
C593 C592 1.414 . S
C593 C594 1.374 . S
C594 H568 0.950 . S
C594 C590 1.385 . S
C594 C593 1.374 . S
C595 C592 1.499 . S
C595 C596 1.373 . S
C595 C597 1.389 . S
C596 H569 0.950 . S
C596 C582 1.377 . S
C596 C595 1.373 . S
C597 C581 1.377 . S
C597 C595 1.389 . S
C597 C598 1.524 . S
C598 C597 1.524 . S
C598 C599 1.397 . S
C598 C603 1.363 . S
C599 H570 0.950 . S
C599 C598 1.397 . S
C599 C600 1.334 . S
C600 H571 0.950 . S
C600 C599 1.334 . S
C600 C601 1.287 . S
C601 C600 1.287 . S
C601 C602 1.524 . S
C601 H604 0.999 . S
C602 H572 0.950 . S
C602 C601 1.524 . S
C602 C603 1.415 . S
C603 H573 0.950 . S
C603 C598 1.363 . S
C603 C602 1.415 . S
H604 C601 0.999 . S
H605 C586 0.913 . S
H606 C624 0.951 . S
H607 C626 0.951 . S
H608 C628 0.950 . S
H609 C629 0.950 . S
H610 C631 0.950 . S
H611 C634 0.950 . S
H612 C635 0.950 . S
H613 C637 0.950 . S
H614 C638 0.950 . S
H615 C639 0.951 . S
H616 C641 0.951 . S
H617 C643 0.950 . S
H618 C644 0.950 . S
H619 C646 0.950 . S
H620 C649 0.950 . S
H621 C650 0.950 . S
H622 C652 0.950 . S
H623 C653 0.950 . S
C624 H606 0.951 . S
C624 C625 1.366 . S
C624 C626 1.388 . S
C625 C624 1.366 . S
C625 C629 1.385 . S
C626 H607 0.951 . S
C626 C624 1.388 . S
C626 C627 1.366 . S
C627 C626 1.366 . S
C627 C628 1.414 . S
C627 C630 1.499 . S
C628 H608 0.950 . S
C628 C627 1.414 . S
C628 C629 1.374 . S
C629 H609 0.950 . S
C629 C625 1.385 . S
C629 C628 1.374 . S
C630 C627 1.499 . S
C630 C631 1.373 . S
C630 C632 1.389 . S
C631 H610 0.950 . S
C631 C630 1.373 . S
C631 C647 1.377 . S
C632 C630 1.389 . S
C632 C633 1.524 . S
C632 C646 1.377 . S
C633 C632 1.524 . S
C633 C634 1.397 . S
C633 C638 1.363 . S
C634 H611 0.950 . S
C634 C633 1.397 . S
C634 C635 1.334 . S
C635 H612 0.950 . S
C635 C634 1.334 . S
C635 C636 1.287 . S
C636 C635 1.287 . S
C636 C637 1.524 . S
C636 H655 0.913 . S
C637 H613 0.950 . S
C637 C636 1.524 . S
C637 C638 1.415 . S
C638 H614 0.950 . S
C638 C633 1.363 . S
C638 C637 1.415 . S
C639 H615 0.951 . S
C639 C640 1.366 . S
C639 C641 1.388 . S
C640 C639 1.366 . S
C640 C644 1.385 . S
C641 H616 0.951 . S
C641 C639 1.388 . S
C641 C642 1.366 . S
C642 C641 1.366 . S
C642 C643 1.414 . S
C642 C645 1.499 . S
C643 H617 0.950 . S
C643 C642 1.414 . S
C643 C644 1.374 . S
C644 H618 0.950 . S
C644 C640 1.385 . S
C644 C643 1.374 . S
C645 C642 1.499 . S
C645 C646 1.373 . S
C645 C647 1.389 . S
C646 H619 0.950 . S
C646 C632 1.377 . S
C646 C645 1.373 . S
C647 C631 1.377 . S
C647 C645 1.389 . S
C647 C648 1.524 . S
C648 C647 1.524 . S
C648 C649 1.397 . S
C648 C653 1.363 . S
C649 H620 0.950 . S
C649 C648 1.397 . S
C649 C650 1.334 . S
C650 H621 0.950 . S
C650 C649 1.334 . S
C650 C651 1.287 . S
C651 C650 1.287 . S
C651 C652 1.524 . S
C651 H654 0.999 . S
C652 H622 0.950 . S
C652 C651 1.524 . S
C652 C653 1.415 . S
C653 H623 0.950 . S
C653 C648 1.363 . S
C653 C652 1.415 . S
H654 C651 0.999 . S
H655 C636 0.913 . S
H656 C674 0.951 . S
H657 C676 0.951 . S
H658 C678 0.950 . S
H659 C679 0.950 . S
H660 C681 0.950 . S
H661 C684 0.950 . S
H662 C685 0.950 . S
H663 C687 0.950 . S
H664 C688 0.950 . S
H665 C689 0.951 . S
H666 C691 0.951 . S
H667 C693 0.950 . S
H668 C694 0.950 . S
H669 C696 0.950 . S
H670 C699 0.950 . S
H671 C700 0.950 . S
H672 C702 0.950 . S
H673 C703 0.950 . S
C674 H656 0.951 . S
C674 C675 1.366 . S
C674 C676 1.388 . S
C675 C674 1.366 . S
C675 C679 1.385 . S
C676 H657 0.951 . S
C676 C674 1.388 . S
C676 C677 1.366 . S
C677 C676 1.366 . S
C677 C678 1.414 . S
C677 C680 1.499 . S
C678 H658 0.950 . S
C678 C677 1.414 . S
C678 C679 1.374 . S
C679 H659 0.950 . S
C679 C675 1.385 . S
C679 C678 1.374 . S
C680 C677 1.499 . S
C680 C681 1.373 . S
C680 C682 1.389 . S
C681 H660 0.950 . S
C681 C680 1.373 . S
C681 C697 1.377 . S
C682 C680 1.389 . S
C682 C683 1.524 . S
C682 C696 1.377 . S
C683 C682 1.524 . S
C683 C684 1.397 . S
C683 C688 1.363 . S
C684 H661 0.950 . S
C684 C683 1.397 . S
C684 C685 1.334 . S
C685 H662 0.950 . S
C685 C684 1.334 . S
C685 C686 1.287 . S
C686 C685 1.287 . S
C686 C687 1.524 . S
C686 H705 0.913 . S
C687 H663 0.950 . S
C687 C686 1.524 . S
C687 C688 1.415 . S
C688 H664 0.950 . S
C688 C683 1.363 . S
C688 C687 1.415 . S
C689 H665 0.951 . S
C689 C690 1.366 . S
C689 C691 1.388 . S
C690 C689 1.366 . S
C690 C694 1.385 . S
C691 H666 0.951 . S
C691 C689 1.388 . S
C691 C692 1.366 . S
C692 C691 1.366 . S
C692 C693 1.414 . S
C692 C695 1.499 . S
C693 H667 0.950 . S
C693 C692 1.414 . S
C693 C694 1.374 . S
C694 H668 0.950 . S
C694 C690 1.385 . S
C694 C693 1.374 . S
C695 C692 1.499 . S
C695 C696 1.373 . S
C695 C697 1.389 . S
C696 H669 0.950 . S
C696 C682 1.377 . S
C696 C695 1.373 . S
C697 C681 1.377 . S
C697 C695 1.389 . S
C697 C698 1.524 . S
C698 C697 1.524 . S
C698 C699 1.397 . S
C698 C703 1.363 . S
C699 H670 0.950 . S
C699 C698 1.397 . S
C699 C700 1.334 . S
C700 H671 0.950 . S
C700 C699 1.334 . S
C700 C701 1.287 . S
C701 C700 1.287 . S
C701 C702 1.524 . S
C701 H704 0.999 . S
C702 H672 0.950 . S
C702 C701 1.524 . S
C702 C703 1.415 . S
C703 H673 0.950 . S
C703 C698 1.363 . S
C703 C702 1.415 . S
H704 C701 0.999 . S
H705 C686 0.913 . S
H706 C724 0.951 . S
H707 C726 0.951 . S
H708 C728 0.950 . S
H709 C729 0.950 . S
H710 C731 0.950 . S
H711 C734 0.950 . S
H712 C735 0.950 . S
H713 C737 0.950 . S
H714 C738 0.950 . S
H715 C739 0.951 . S
H716 C741 0.951 . S
H717 C743 0.950 . S
H718 C744 0.950 . S
H719 C746 0.950 . S
H720 C749 0.950 . S
H721 C750 0.950 . S
H722 C752 0.950 . S
H723 C753 0.950 . S
C724 H706 0.951 . S
C724 C725 1.366 . S
C724 C726 1.388 . S
C725 C724 1.366 . S
C725 C729 1.385 . S
C726 H707 0.951 . S
C726 C724 1.388 . S
C726 C727 1.366 . S
C727 C726 1.366 . S
C727 C728 1.414 . S
C727 C730 1.499 . S
C728 H708 0.950 . S
C728 C727 1.414 . S
C728 C729 1.374 . S
C729 H709 0.950 . S
C729 C725 1.385 . S
C729 C728 1.374 . S
C730 C727 1.499 . S
C730 C731 1.373 . S
C730 C732 1.389 . S
C731 H710 0.950 . S
C731 C730 1.373 . S
C731 C747 1.377 . S
C732 C730 1.389 . S
C732 C733 1.524 . S
C732 C746 1.377 . S
C733 C732 1.524 . S
C733 C734 1.397 . S
C733 C738 1.363 . S
C734 H711 0.950 . S
C734 C733 1.397 . S
C734 C735 1.334 . S
C735 H712 0.950 . S
C735 C734 1.334 . S
C735 C736 1.287 . S
C736 C735 1.287 . S
C736 C737 1.524 . S
C736 H755 0.913 . S
C737 H713 0.950 . S
C737 C736 1.524 . S
C737 C738 1.415 . S
C738 H714 0.950 . S
C738 C733 1.363 . S
C738 C737 1.415 . S
C739 H715 0.951 . S
C739 C740 1.366 . S
C739 C741 1.388 . S
C740 C739 1.366 . S
C740 C744 1.385 . S
C741 H716 0.951 . S
C741 C739 1.388 . S
C741 C742 1.366 . S
C742 C741 1.366 . S
C742 C743 1.414 . S
C742 C745 1.499 . S
C743 H717 0.950 . S
C743 C742 1.414 . S
C743 C744 1.374 . S
C744 H718 0.950 . S
C744 C740 1.385 . S
C744 C743 1.374 . S
C745 C742 1.499 . S
C745 C746 1.373 . S
C745 C747 1.389 . S
C746 H719 0.950 . S
C746 C732 1.377 . S
C746 C745 1.373 . S
C747 C731 1.377 . S
C747 C745 1.389 . S
C747 C748 1.524 . S
C748 C747 1.524 . S
C748 C749 1.397 . S
C748 C753 1.363 . S
C749 H720 0.950 . S
C749 C748 1.397 . S
C749 C750 1.334 . S
C750 H721 0.950 . S
C750 C749 1.334 . S
C750 C751 1.287 . S
C751 C750 1.287 . S
C751 C752 1.524 . S
C751 H754 0.999 . S
C752 H722 0.950 . S
C752 C751 1.524 . S
C752 C753 1.415 . S
C753 H723 0.950 . S
C753 C748 1.363 . S
C753 C752 1.415 . S
H754 C751 0.999 . S
H755 C736 0.913 . S
H756 C774 0.951 . S
H757 C776 0.951 . S
H758 C778 0.950 . S
H759 C779 0.950 . S
H760 C781 0.950 . S
H761 C784 0.950 . S
H762 C785 0.950 . S
H763 C787 0.950 . S
H764 C788 0.950 . S
H765 C789 0.951 . S
H766 C791 0.951 . S
H767 C793 0.950 . S
H768 C794 0.950 . S
H769 C796 0.950 . S
H770 C799 0.950 . S
H771 C800 0.950 . S
H772 C802 0.950 . S
H773 C803 0.950 . S
C774 H756 0.951 . S
C774 C775 1.366 . S
C774 C776 1.388 . S
C775 C774 1.366 . S
C775 C779 1.385 . S
C776 H757 0.951 . S
C776 C774 1.388 . S
C776 C777 1.366 . S
C777 C776 1.366 . S
C777 C778 1.414 . S
C777 C780 1.499 . S
C778 H758 0.950 . S
C778 C777 1.414 . S
C778 C779 1.374 . S
C779 H759 0.950 . S
C779 C775 1.385 . S
C779 C778 1.374 . S
C780 C777 1.499 . S
C780 C781 1.373 . S
C780 C782 1.389 . S
C781 H760 0.950 . S
C781 C780 1.373 . S
C781 C797 1.377 . S
C782 C780 1.389 . S
C782 C783 1.524 . S
C782 C796 1.377 . S
C783 C782 1.524 . S
C783 C784 1.397 . S
C783 C788 1.363 . S
C784 H761 0.950 . S
C784 C783 1.397 . S
C784 C785 1.334 . S
C785 H762 0.950 . S
C785 C784 1.334 . S
C785 C786 1.287 . S
C786 C785 1.287 . S
C786 C787 1.524 . S
C786 H805 0.913 . S
C787 H763 0.950 . S
C787 C786 1.524 . S
C787 C788 1.415 . S
C788 H764 0.950 . S
C788 C783 1.363 . S
C788 C787 1.415 . S
C789 H765 0.951 . S
C789 C790 1.366 . S
C789 C791 1.388 . S
C790 C789 1.366 . S
C790 C794 1.385 . S
C791 H766 0.951 . S
C791 C789 1.388 . S
C791 C792 1.366 . S
C792 C791 1.366 . S
C792 C793 1.414 . S
C792 C795 1.499 . S
C793 H767 0.950 . S
C793 C792 1.414 . S
C793 C794 1.374 . S
C794 H768 0.950 . S
C794 C790 1.385 . S
C794 C793 1.374 . S
C795 C792 1.499 . S
C795 C796 1.373 . S
C795 C797 1.389 . S
C796 H769 0.950 . S
C796 C782 1.377 . S
C796 C795 1.373 . S
C797 C781 1.377 . S
C797 C795 1.389 . S
C797 C798 1.524 . S
C798 C797 1.524 . S
C798 C799 1.397 . S
C798 C803 1.363 . S
C799 H770 0.950 . S
C799 C798 1.397 . S
C799 C800 1.334 . S
C800 H771 0.950 . S
C800 C799 1.334 . S
C800 C801 1.287 . S
C801 C800 1.287 . S
C801 C802 1.524 . S
C801 H804 0.999 . S
C802 H772 0.950 . S
C802 C801 1.524 . S
C802 C803 1.415 . S
C803 H773 0.950 . S
C803 C798 1.363 . S
C803 C802 1.415 . S
H804 C801 0.999 . S
H805 C786 0.913 . S
H806 C824 0.951 . S
H807 C826 0.951 . S
H808 C828 0.950 . S
H809 C829 0.950 . S
H810 C831 0.950 . S
H811 C834 0.950 . S
H812 C835 0.950 . S
H813 C837 0.950 . S
H814 C838 0.950 . S
H815 C839 0.951 . S
H816 C841 0.951 . S
H817 C843 0.950 . S
H818 C844 0.950 . S
H819 C846 0.950 . S
H820 C849 0.950 . S
H821 C850 0.950 . S
H822 C852 0.950 . S
H823 C853 0.950 . S
C824 H806 0.951 . S
C824 C825 1.366 . S
C824 C826 1.388 . S
C825 C824 1.366 . S
C825 C829 1.385 . S
C826 H807 0.951 . S
C826 C824 1.388 . S
C826 C827 1.366 . S
C827 C826 1.366 . S
C827 C828 1.414 . S
C827 C830 1.499 . S
C828 H808 0.950 . S
C828 C827 1.414 . S
C828 C829 1.374 . S
C829 H809 0.950 . S
C829 C825 1.385 . S
C829 C828 1.374 . S
C830 C827 1.499 . S
C830 C831 1.373 . S
C830 C832 1.389 . S
C831 H810 0.950 . S
C831 C830 1.373 . S
C831 C847 1.377 . S
C832 C830 1.389 . S
C832 C833 1.524 . S
C832 C846 1.377 . S
C833 C832 1.524 . S
C833 C834 1.397 . S
C833 C838 1.363 . S
C834 H811 0.950 . S
C834 C833 1.397 . S
C834 C835 1.334 . S
C835 H812 0.950 . S
C835 C834 1.334 . S
C835 C836 1.287 . S
C836 C835 1.287 . S
C836 C837 1.524 . S
C836 H855 0.913 . S
C837 H813 0.950 . S
C837 C836 1.524 . S
C837 C838 1.415 . S
C838 H814 0.950 . S
C838 C833 1.363 . S
C838 C837 1.415 . S
C839 H815 0.951 . S
C839 C840 1.366 . S
C839 C841 1.388 . S
C840 C839 1.366 . S
C840 C844 1.385 . S
C841 H816 0.951 . S
C841 C839 1.388 . S
C841 C842 1.366 . S
C842 C841 1.366 . S
C842 C843 1.414 . S
C842 C845 1.499 . S
C843 H817 0.950 . S
C843 C842 1.414 . S
C843 C844 1.374 . S
C844 H818 0.950 . S
C844 C840 1.385 . S
C844 C843 1.374 . S
C845 C842 1.499 . S
C845 C846 1.373 . S
C845 C847 1.389 . S
C846 H819 0.950 . S
C846 C832 1.377 . S
C846 C845 1.373 . S
C847 C831 1.377 . S
C847 C845 1.389 . S
C847 C848 1.524 . S
C848 C847 1.524 . S
C848 C849 1.397 . S
C848 C853 1.363 . S
C849 H820 0.950 . S
C849 C848 1.397 . S
C849 C850 1.334 . S
C850 H821 0.950 . S
C850 C849 1.334 . S
C850 C851 1.287 . S
C851 C850 1.287 . S
C851 C852 1.524 . S
C851 H854 0.999 . S
C852 H822 0.950 . S
C852 C851 1.524 . S
C852 C853 1.415 . S
C853 H823 0.950 . S
C853 C848 1.363 . S
C853 C852 1.415 . S
H854 C851 0.999 . S
H855 C836 0.913 . S
H856 C874 0.951 . S
H857 C876 0.951 . S
H858 C878 0.950 . S
H859 C879 0.950 . S
H860 C881 0.950 . S
H861 C884 0.950 . S
H862 C885 0.950 . S
H863 C887 0.950 . S
H864 C888 0.950 . S
H865 C889 0.951 . S
H866 C891 0.951 . S
H867 C893 0.950 . S
H868 C894 0.950 . S
H869 C896 0.950 . S
H870 C899 0.950 . S
H871 C900 0.950 . S
H872 C902 0.950 . S
H873 C903 0.950 . S
C874 H856 0.951 . S
C874 C875 1.366 . S
C874 C876 1.388 . S
C875 C874 1.366 . S
C875 C879 1.385 . S
C876 H857 0.951 . S
C876 C874 1.388 . S
C876 C877 1.366 . S
C877 C876 1.366 . S
C877 C878 1.414 . S
C877 C880 1.499 . S
C878 H858 0.950 . S
C878 C877 1.414 . S
C878 C879 1.374 . S
C879 H859 0.950 . S
C879 C875 1.385 . S
C879 C878 1.374 . S
C880 C877 1.499 . S
C880 C881 1.373 . S
C880 C882 1.389 . S
C881 H860 0.950 . S
C881 C880 1.373 . S
C881 C897 1.377 . S
C882 C880 1.389 . S
C882 C883 1.524 . S
C882 C896 1.377 . S
C883 C882 1.524 . S
C883 C884 1.397 . S
C883 C888 1.363 . S
C884 H861 0.950 . S
C884 C883 1.397 . S
C884 C885 1.334 . S
C885 H862 0.950 . S
C885 C884 1.334 . S
C885 C886 1.287 . S
C886 C885 1.287 . S
C886 C887 1.524 . S
C886 H905 0.913 . S
C887 H863 0.950 . S
C887 C886 1.524 . S
C887 C888 1.415 . S
C888 H864 0.950 . S
C888 C883 1.363 . S
C888 C887 1.415 . S
C889 H865 0.951 . S
C889 C890 1.366 . S
C889 C891 1.388 . S
C890 C889 1.366 . S
C890 C894 1.385 . S
C891 H866 0.951 . S
C891 C889 1.388 . S
C891 C892 1.366 . S
C892 C891 1.366 . S
C892 C893 1.414 . S
C892 C895 1.499 . S
C893 H867 0.950 . S
C893 C892 1.414 . S
C893 C894 1.374 . S
C894 H868 0.950 . S
C894 C890 1.385 . S
C894 C893 1.374 . S
C895 C892 1.499 . S
C895 C896 1.373 . S
C895 C897 1.389 . S
C896 H869 0.950 . S
C896 C882 1.377 . S
C896 C895 1.373 . S
C897 C881 1.377 . S
C897 C895 1.389 . S
C897 C898 1.524 . S
C898 C897 1.524 . S
C898 C899 1.397 . S
C898 C903 1.363 . S
C899 H870 0.950 . S
C899 C898 1.397 . S
C899 C900 1.334 . S
C900 H871 0.950 . S
C900 C899 1.334 . S
C900 C901 1.287 . S
C901 C900 1.287 . S
C901 C902 1.524 . S
C901 H904 0.999 . S
C902 H872 0.950 . S
C902 C901 1.524 . S
C902 C903 1.415 . S
C903 H873 0.950 . S
C903 C898 1.363 . S
C903 C902 1.415 . S
H904 C901 0.999 . S
H905 C886 0.913 . S
H906 C924 0.951 . S
H907 C926 0.951 . S
H908 C928 0.950 . S
H909 C929 0.950 . S
H910 C931 0.950 . S
H911 C934 0.950 . S
H912 C935 0.950 . S
H913 C937 0.950 . S
H914 C938 0.950 . S
H915 C939 0.951 . S
H916 C941 0.951 . S
H917 C943 0.950 . S
H918 C944 0.950 . S
H919 C946 0.950 . S
H920 C949 0.950 . S
H921 C950 0.950 . S
H922 C952 0.950 . S
H923 C953 0.950 . S
C924 H906 0.951 . S
C924 C925 1.366 . S
C924 C926 1.388 . S
C925 C924 1.366 . S
C925 C929 1.385 . S
C926 H907 0.951 . S
C926 C924 1.388 . S
C926 C927 1.366 . S
C927 C926 1.366 . S
C927 C928 1.414 . S
C927 C930 1.499 . S
C928 H908 0.950 . S
C928 C927 1.414 . S
C928 C929 1.374 . S
C929 H909 0.950 . S
C929 C925 1.385 . S
C929 C928 1.374 . S
C930 C927 1.499 . S
C930 C931 1.373 . S
C930 C932 1.389 . S
C931 H910 0.950 . S
C931 C930 1.373 . S
C931 C947 1.377 . S
C932 C930 1.389 . S
C932 C933 1.524 . S
C932 C946 1.377 . S
C933 C932 1.524 . S
C933 C934 1.397 . S
C933 C938 1.363 . S
C934 H911 0.950 . S
C934 C933 1.397 . S
C934 C935 1.334 . S
C935 H912 0.950 . S
C935 C934 1.334 . S
C935 C936 1.287 . S
C936 C935 1.287 . S
C936 C937 1.524 . S
C936 H955 0.913 . S
C937 H913 0.950 . S
C937 C936 1.524 . S
C937 C938 1.415 . S
C938 H914 0.950 . S
C938 C933 1.363 . S
C938 C937 1.415 . S
C939 H915 0.951 . S
C939 C940 1.366 . S
C939 C941 1.388 . S
C940 C939 1.366 . S
C940 C944 1.385 . S
C941 H916 0.951 . S
C941 C939 1.388 . S
C941 C942 1.366 . S
C942 C941 1.366 . S
C942 C943 1.414 . S
C942 C945 1.499 . S
C943 H917 0.950 . S
C943 C942 1.414 . S
C943 C944 1.374 . S
C944 H918 0.950 . S
C944 C940 1.385 . S
C944 C943 1.374 . S
C945 C942 1.499 . S
C945 C946 1.373 . S
C945 C947 1.389 . S
C946 H919 0.950 . S
C946 C932 1.377 . S
C946 C945 1.373 . S
C947 C931 1.377 . S
C947 C945 1.389 . S
C947 C948 1.524 . S
C948 C947 1.524 . S
C948 C949 1.397 . S
C948 C953 1.363 . S
C949 H920 0.950 . S
C949 C948 1.397 . S
C949 C950 1.334 . S
C950 H921 0.950 . S
C950 C949 1.334 . S
C950 C951 1.287 . S
C951 C950 1.287 . S
C951 C952 1.524 . S
C951 H954 0.999 . S
C952 H922 0.950 . S
C952 C951 1.524 . S
C952 C953 1.415 . S
C953 H923 0.950 . S
C953 C948 1.363 . S
C953 C952 1.415 . S
H954 C951 0.999 . S
H955 C936 0.913 . S
H956 C974 0.951 . S
H957 C976 0.951 . S
H958 C978 0.950 . S
H959 C979 0.950 . S
H960 C981 0.950 . S
H961 C984 0.950 . S
H962 C985 0.950 . S
H963 C987 0.950 . S
H964 C988 0.950 . S
H965 C989 0.951 . S
H966 C991 0.951 . S
H967 C993 0.950 . S
H968 C994 0.950 . S
H969 C996 0.950 . S
H970 C999 0.950 . S
H971 C1000 0.950 . S
H972 C1002 0.950 . S
H973 C1003 0.950 . S
C974 H956 0.951 . S
C974 C975 1.366 . S
C974 C976 1.388 . S
C975 C974 1.366 . S
C975 C979 1.385 . S
C976 H957 0.951 . S
C976 C974 1.388 . S
C976 C977 1.366 . S
C977 C976 1.366 . S
C977 C978 1.414 . S
C977 C980 1.499 . S
C978 H958 0.950 . S
C978 C977 1.414 . S
C978 C979 1.374 . S
C979 H959 0.950 . S
C979 C975 1.385 . S
C979 C978 1.374 . S
C980 C977 1.499 . S
C980 C981 1.373 . S
C980 C982 1.389 . S
C981 H960 0.950 . S
C981 C980 1.373 . S
C981 C997 1.377 . S
C982 C980 1.389 . S
C982 C983 1.524 . S
C982 C996 1.377 . S
C983 C982 1.524 . S
C983 C984 1.397 . S
C983 C988 1.363 . S
C984 H961 0.950 . S
C984 C983 1.397 . S
C984 C985 1.334 . S
C985 H962 0.950 . S
C985 C984 1.334 . S
C985 C986 1.287 . S
C986 C985 1.287 . S
C986 C987 1.524 . S
C986 H1005 0.913 . S
C987 H963 0.950 . S
C987 C986 1.524 . S
C987 C988 1.415 . S
C988 H964 0.950 . S
C988 C983 1.363 . S
C988 C987 1.415 . S
C989 H965 0.951 . S
C989 C990 1.366 . S
C989 C991 1.388 . S
C990 C989 1.366 . S
C990 C994 1.385 . S
C991 H966 0.951 . S
C991 C989 1.388 . S
C991 C992 1.366 . S
C992 C991 1.366 . S
C992 C993 1.414 . S
C992 C995 1.499 . S
C993 H967 0.950 . S
C993 C992 1.414 . S
C993 C994 1.374 . S
C994 H968 0.950 . S
C994 C990 1.385 . S
C994 C993 1.374 . S
C995 C992 1.499 . S
C995 C996 1.373 . S
C995 C997 1.389 . S
C996 H969 0.950 . S
C996 C982 1.377 . S
C996 C995 1.373 . S
C997 C981 1.377 . S
C997 C995 1.389 . S
C997 C998 1.524 . S
C998 C997 1.524 . S
C998 C999 1.397 . S
C998 C1003 1.363 . S
C999 H970 0.950 . S
C999 C998 1.397 . S
C999 C1000 1.334 . S
C1000 H971 0.950 . S
C1000 C999 1.334 . S
C1000 C1001 1.287 . S
C1001 C1000 1.287 . S
C1001 C1002 1.524 . S
C1001 H1004 0.999 . S
C1002 H972 0.950 . S
C1002 C1001 1.524 . S
C1002 C1003 1.415 . S
C1003 H973 0.950 . S
C1003 C998 1.363 . S
C1003 C1002 1.415 . S
H1004 C1001 0.999 . S
H1005 C986 0.913 . S
H1006 C1024 0.951 . S
H1007 C1026 0.951 . S
H1008 C1028 0.950 . S
H1009 C1029 0.950 . S
H1010 C1031 0.950 . S
H1011 C1034 0.950 . S
H1012 C1035 0.950 . S
H1013 C1037 0.950 . S
H1014 C1038 0.950 . S
H1015 C1039 0.951 . S
H1016 C1041 0.951 . S
H1017 C1043 0.950 . S
H1018 C1044 0.950 . S
H1019 C1046 0.950 . S
H1020 C1049 0.950 . S
H1021 C1050 0.950 . S
H1022 C1052 0.950 . S
H1023 C1053 0.950 . S
C1024 H1006 0.951 . S
C1024 C1025 1.366 . S
C1024 C1026 1.388 . S
C1025 C1024 1.366 . S
C1025 C1029 1.385 . S
C1026 H1007 0.951 . S
C1026 C1024 1.388 . S
C1026 C1027 1.366 . S
C1027 C1026 1.366 . S
C1027 C1028 1.414 . S
C1027 C1030 1.499 . S
C1028 H1008 0.950 . S
C1028 C1027 1.414 . S
C1028 C1029 1.374 . S
C1029 H1009 0.950 . S
C1029 C1025 1.385 . S
C1029 C1028 1.374 . S
C1030 C1027 1.499 . S
C1030 C1031 1.373 . S
C1030 C1032 1.389 . S
C1031 H1010 0.950 . S
C1031 C1030 1.373 . S
C1031 C1047 1.377 . S
C1032 C1030 1.389 . S
C1032 C1033 1.524 . S
C1032 C1046 1.377 . S
C1033 C1032 1.524 . S
C1033 C1034 1.397 . S
C1033 C1038 1.363 . S
C1034 H1011 0.950 . S
C1034 C1033 1.397 . S
C1034 C1035 1.334 . S
C1035 H1012 0.950 . S
C1035 C1034 1.334 . S
C1035 C1036 1.287 . S
C1036 C1035 1.287 . S
C1036 C1037 1.524 . S
C1036 H1055 0.913 . S
C1037 H1013 0.950 . S
C1037 C1036 1.524 . S
C1037 C1038 1.415 . S
C1038 H1014 0.950 . S
C1038 C1033 1.363 . S
C1038 C1037 1.415 . S
C1039 H1015 0.951 . S
C1039 C1040 1.366 . S
C1039 C1041 1.388 . S
C1040 C1039 1.366 . S
C1040 C1044 1.385 . S
C1041 H1016 0.951 . S
C1041 C1039 1.388 . S
C1041 C1042 1.366 . S
C1042 C1041 1.366 . S
C1042 C1043 1.414 . S
C1042 C1045 1.499 . S
C1043 H1017 0.950 . S
C1043 C1042 1.414 . S
C1043 C1044 1.374 . S
C1044 H1018 0.950 . S
C1044 C1040 1.385 . S
C1044 C1043 1.374 . S
C1045 C1042 1.499 . S
C1045 C1046 1.373 . S
C1045 C1047 1.389 . S
C1046 H1019 0.950 . S
C1046 C1032 1.377 . S
C1046 C1045 1.373 . S
C1047 C1031 1.377 . S
C1047 C1045 1.389 . S
C1047 C1048 1.524 . S
C1048 C1047 1.524 . S
C1048 C1049 1.397 . S
C1048 C1053 1.363 . S
C1049 H1020 0.950 . S
C1049 C1048 1.397 . S
C1049 C1050 1.334 . S
C1050 H1021 0.950 . S
C1050 C1049 1.334 . S
C1050 C1051 1.287 . S
C1051 C1050 1.287 . S
C1051 C1052 1.524 . S
C1051 H1054 0.999 . S
C1052 H1022 0.950 . S
C1052 C1051 1.524 . S
C1052 C1053 1.415 . S
C1053 H1023 0.950 . S
C1053 C1048 1.363 . S
C1053 C1052 1.415 . S
H1054 C1051 0.999 . S
H1055 C1036 0.913 . S
H1056 C1074 0.951 . S
H1057 C1076 0.951 . S
H1058 C1078 0.950 . S
H1059 C1079 0.950 . S
H1060 C1081 0.950 . S
H1061 C1084 0.950 . S
H1062 C1085 0.950 . S
H1063 C1087 0.950 . S
H1064 C1088 0.950 . S
H1065 C1089 0.951 . S
H1066 C1091 0.951 . S
H1067 C1093 0.950 . S
H1068 C1094 0.950 . S
H1069 C1096 0.950 . S
H1070 C1099 0.950 . S
H1071 C1100 0.950 . S
H1072 C1102 0.950 . S
H1073 C1103 0.950 . S
C1074 H1056 0.951 . S
C1074 C1075 1.366 . S
C1074 C1076 1.388 . S
C1075 C1074 1.366 . S
C1075 C1079 1.385 . S
C1076 H1057 0.951 . S
C1076 C1074 1.388 . S
C1076 C1077 1.366 . S
C1077 C1076 1.366 . S
C1077 C1078 1.414 . S
C1077 C1080 1.499 . S
C1078 H1058 0.950 . S
C1078 C1077 1.414 . S
C1078 C1079 1.374 . S
C1079 H1059 0.950 . S
C1079 C1075 1.385 . S
C1079 C1078 1.374 . S
C1080 C1077 1.499 . S
C1080 C1081 1.373 . S
C1080 C1082 1.389 . S
C1081 H1060 0.950 . S
C1081 C1080 1.373 . S
C1081 C1097 1.377 . S
C1082 C1080 1.389 . S
C1082 C1083 1.524 . S
C1082 C1096 1.377 . S
C1083 C1082 1.524 . S
C1083 C1084 1.397 . S
C1083 C1088 1.363 . S
C1084 H1061 0.950 . S
C1084 C1083 1.397 . S
C1084 C1085 1.334 . S
C1085 H1062 0.950 . S
C1085 C1084 1.334 . S
C1085 C1086 1.287 . S
C1086 C1085 1.287 . S
C1086 C1087 1.524 . S
C1086 H1105 0.913 . S
C1087 H1063 0.950 . S
C1087 C1086 1.524 . S
C1087 C1088 1.415 . S
C1088 H1064 0.950 . S
C1088 C1083 1.363 . S
C1088 C1087 1.415 . S
C1089 H1065 0.951 . S
C1089 C1090 1.366 . S
C1089 C1091 1.388 . S
C1090 C1089 1.366 . S
C1090 C1094 1.385 . S
C1091 H1066 0.951 . S
C1091 C1089 1.388 . S
C1091 C1092 1.366 . S
C1092 C1091 1.366 . S
C1092 C1093 1.414 . S
C1092 C1095 1.499 . S
C1093 H1067 0.950 . S
C1093 C1092 1.414 . S
C1093 C1094 1.374 . S
C1094 H1068 0.950 . S
C1094 C1090 1.385 . S
C1094 C1093 1.374 . S
C1095 C1092 1.499 . S
C1095 C1096 1.373 . S
C1095 C1097 1.389 . S
C1096 H1069 0.950 . S
C1096 C1082 1.377 . S
C1096 C1095 1.373 . S
C1097 C1081 1.377 . S
C1097 C1095 1.389 . S
C1097 C1098 1.524 . S
C1098 C1097 1.524 . S
C1098 C1099 1.397 . S
C1098 C1103 1.363 . S
C1099 H1070 0.950 . S
C1099 C1098 1.397 . S
C1099 C1100 1.334 . S
C1100 H1071 0.950 . S
C1100 C1099 1.334 . S
C1100 C1101 1.287 . S
C1101 C1100 1.287 . S
C1101 C1102 1.524 . S
C1101 H1104 0.999 . S
C1102 H1072 0.950 . S
C1102 C1101 1.524 . S
C1102 C1103 1.415 . S
C1103 H1073 0.950 . S
C1103 C1098 1.363 . S
C1103 C1102 1.415 . S
H1104 C1101 0.999 . S
H1105 C1086 0.913 . S
H1106 C1124 0.951 . S
H1107 C1126 0.951 . S
H1108 C1128 0.950 . S
H1109 C1129 0.950 . S
H1110 C1131 0.950 . S
H1111 C1134 0.950 . S
H1112 C1135 0.950 . S
H1113 C1137 0.950 . S
H1114 C1138 0.950 . S
H1115 C1139 0.951 . S
H1116 C1141 0.951 . S
H1117 C1143 0.950 . S
H1118 C1144 0.950 . S
H1119 C1146 0.950 . S
H1120 C1149 0.950 . S
H1121 C1150 0.950 . S
H1122 C1152 0.950 . S
H1123 C1153 0.950 . S
C1124 H1106 0.951 . S
C1124 C1125 1.366 . S
C1124 C1126 1.388 . S
C1125 C1124 1.366 . S
C1125 C1129 1.385 . S
C1126 H1107 0.951 . S
C1126 C1124 1.388 . S
C1126 C1127 1.366 . S
C1127 C1126 1.366 . S
C1127 C1128 1.414 . S
C1127 C1130 1.499 . S
C1128 H1108 0.950 . S
C1128 C1127 1.414 . S
C1128 C1129 1.374 . S
C1129 H1109 0.950 . S
C1129 C1125 1.385 . S
C1129 C1128 1.374 . S
C1130 C1127 1.499 . S
C1130 C1131 1.373 . S
C1130 C1132 1.389 . S
C1131 H1110 0.950 . S
C1131 C1130 1.373 . S
C1131 C1147 1.377 . S
C1132 C1130 1.389 . S
C1132 C1133 1.524 . S
C1132 C1146 1.377 . S
C1133 C1132 1.524 . S
C1133 C1134 1.397 . S
C1133 C1138 1.363 . S
C1134 H1111 0.950 . S
C1134 C1133 1.397 . S
C1134 C1135 1.334 . S
C1135 H1112 0.950 . S
C1135 C1134 1.334 . S
C1135 C1136 1.287 . S
C1136 C1135 1.287 . S
C1136 C1137 1.524 . S
C1136 H1155 0.913 . S
C1137 H1113 0.950 . S
C1137 C1136 1.524 . S
C1137 C1138 1.415 . S
C1138 H1114 0.950 . S
C1138 C1133 1.363 . S
C1138 C1137 1.415 . S
C1139 H1115 0.951 . S
C1139 C1140 1.366 . S
C1139 C1141 1.388 . S
C1140 C1139 1.366 . S
C1140 C1144 1.385 . S
C1141 H1116 0.951 . S
C1141 C1139 1.388 . S
C1141 C1142 1.366 . S
C1142 C1141 1.366 . S
C1142 C1143 1.414 . S
C1142 C1145 1.499 . S
C1143 H1117 0.950 . S
C1143 C1142 1.414 . S
C1143 C1144 1.374 . S
C1144 H1118 0.950 . S
C1144 C1140 1.385 . S
C1144 C1143 1.374 . S
C1145 C1142 1.499 . S
C1145 C1146 1.373 . S
C1145 C1147 1.389 . S
C1146 H1119 0.950 . S
C1146 C1132 1.377 . S
C1146 C1145 1.373 . S
C1147 C1131 1.377 . S
C1147 C1145 1.389 . S
C1147 C1148 1.524 . S
C1148 C1147 1.524 . S
C1148 C1149 1.397 . S
C1148 C1153 1.363 . S
C1149 H1120 0.950 . S
C1149 C1148 1.397 . S
C1149 C1150 1.334 . S
C1150 H1121 0.950 . S
C1150 C1149 1.334 . S
C1150 C1151 1.287 . S
C1151 C1150 1.287 . S
C1151 C1152 1.524 . S
C1151 H1154 0.999 . S
C1152 H1122 0.950 . S
C1152 C1151 1.524 . S
C1152 C1153 1.415 . S
C1153 H1123 0.950 . S
C1153 C1148 1.363 . S
C1153 C1152 1.415 . S
H1154 C1151 0.999 . S
H1155 C1136 0.913 . S
H1156 C1174 0.951 . S
H1157 C1176 0.951 . S
H1158 C1178 0.950 . S
H1159 C1179 0.950 . S
H1160 C1181 0.950 . S
H1161 C1184 0.950 . S
H1162 C1185 0.950 . S
H1163 C1187 0.950 . S
H1164 C1188 0.950 . S
H1165 C1189 0.951 . S
H1166 C1191 0.951 . S
H1167 C1193 0.950 . S
H1168 C1194 0.950 . S
H1169 C1196 0.950 . S
H1170 C1199 0.950 . S
H1171 C1200 0.950 . S
H1172 C1202 0.950 . S
H1173 C1203 0.950 . S
C1174 H1156 0.951 . S
C1174 C1175 1.366 . S
C1174 C1176 1.388 . S
C1175 C1174 1.366 . S
C1175 C1179 1.385 . S
C1176 H1157 0.951 . S
C1176 C1174 1.388 . S
C1176 C1177 1.366 . S
C1177 C1176 1.366 . S
C1177 C1178 1.414 . S
C1177 C1180 1.499 . S
C1178 H1158 0.950 . S
C1178 C1177 1.414 . S
C1178 C1179 1.374 . S
C1179 H1159 0.950 . S
C1179 C1175 1.385 . S
C1179 C1178 1.374 . S
C1180 C1177 1.499 . S
C1180 C1181 1.373 . S
C1180 C1182 1.389 . S
C1181 H1160 0.950 . S
C1181 C1180 1.373 . S
C1181 C1197 1.377 . S
C1182 C1180 1.389 . S
C1182 C1183 1.524 . S
C1182 C1196 1.377 . S
C1183 C1182 1.524 . S
C1183 C1184 1.397 . S
C1183 C1188 1.363 . S
C1184 H1161 0.950 . S
C1184 C1183 1.397 . S
C1184 C1185 1.334 . S
C1185 H1162 0.950 . S
C1185 C1184 1.334 . S
C1185 C1186 1.287 . S
C1186 C1185 1.287 . S
C1186 C1187 1.524 . S
C1186 H1205 0.913 . S
C1187 H1163 0.950 . S
C1187 C1186 1.524 . S
C1187 C1188 1.415 . S
C1188 H1164 0.950 . S
C1188 C1183 1.363 . S
C1188 C1187 1.415 . S
C1189 H1165 0.951 . S
C1189 C1190 1.366 . S
C1189 C1191 1.388 . S
C1190 C1189 1.366 . S
C1190 C1194 1.385 . S
C1191 H1166 0.951 . S
C1191 C1189 1.388 . S
C1191 C1192 1.366 . S
C1192 C1191 1.366 . S
C1192 C1193 1.414 . S
C1192 C1195 1.499 . S
C1193 H1167 0.950 . S
C1193 C1192 1.414 . S
C1193 C1194 1.374 . S
C1194 H1168 0.950 . S
C1194 C1190 1.385 . S
C1194 C1193 1.374 . S
C1195 C1192 1.499 . S
C1195 C1196 1.373 . S
C1195 C1197 1.389 . S
C1196 H1169 0.950 . S
C1196 C1182 1.377 . S
C1196 C1195 1.373 . S
C1197 C1181 1.377 . S
C1197 C1195 1.389 . S
C1197 C1198 1.524 . S
C1198 C1197 1.524 . S
C1198 C1199 1.397 . S
C1198 C1203 1.363 . S
C1199 H1170 0.950 . S
C1199 C1198 1.397 . S
C1199 C1200 1.334 . S
C1200 H1171 0.950 . S
C1200 C1199 1.334 . S
C1200 C1201 1.287 . S
C1201 C1200 1.287 . S
C1201 C1202 1.524 . S
C1201 H1204 0.999 . S
C1202 H1172 0.950 . S
C1202 C1201 1.524 . S
C1202 C1203 1.415 . S
C1203 H1173 0.950 . S
C1203 C1198 1.363 . S
C1203 C1202 1.415 . S
H1204 C1201 0.999 . S
H1205 C1186 0.913 . S
H1206 C1224 0.951 . S
H1207 C1226 0.951 . S
H1208 C1228 0.950 . S
H1209 C1229 0.950 . S
H1210 C1231 0.950 . S
H1211 C1234 0.950 . S
H1212 C1235 0.950 . S
H1213 C1237 0.950 . S
H1214 C1238 0.950 . S
H1215 C1239 0.951 . S
H1216 C1241 0.951 . S
H1217 C1243 0.950 . S
H1218 C1244 0.950 . S
H1219 C1246 0.950 . S
H1220 C1249 0.950 . S
H1221 C1250 0.950 . S
H1222 C1252 0.950 . S
H1223 C1253 0.950 . S
C1224 H1206 0.951 . S
C1224 C1225 1.366 . S
C1224 C1226 1.388 . S
C1225 C1224 1.366 . S
C1225 C1229 1.385 . S
C1226 H1207 0.951 . S
C1226 C1224 1.388 . S
C1226 C1227 1.366 . S
C1227 C1226 1.366 . S
C1227 C1228 1.414 . S
C1227 C1230 1.499 . S
C1228 H1208 0.950 . S
C1228 C1227 1.414 . S
C1228 C1229 1.374 . S
C1229 H1209 0.950 . S
C1229 C1225 1.385 . S
C1229 C1228 1.374 . S
C1230 C1227 1.499 . S
C1230 C1231 1.373 . S
C1230 C1232 1.389 . S
C1231 H1210 0.950 . S
C1231 C1230 1.373 . S
C1231 C1247 1.377 . S
C1232 C1230 1.389 . S
C1232 C1233 1.524 . S
C1232 C1246 1.377 . S
C1233 C1232 1.524 . S
C1233 C1234 1.397 . S
C1233 C1238 1.363 . S
C1234 H1211 0.950 . S
C1234 C1233 1.397 . S
C1234 C1235 1.334 . S
C1235 H1212 0.950 . S
C1235 C1234 1.334 . S
C1235 C1236 1.287 . S
C1236 C1235 1.287 . S
C1236 C1237 1.524 . S
C1236 H1255 0.913 . S
C1237 H1213 0.950 . S
C1237 C1236 1.524 . S
C1237 C1238 1.415 . S
C1238 H1214 0.950 . S
C1238 C1233 1.363 . S
C1238 C1237 1.415 . S
C1239 H1215 0.951 . S
C1239 C1240 1.366 . S
C1239 C1241 1.388 . S
C1240 C1239 1.366 . S
C1240 C1244 1.385 . S
C1241 H1216 0.951 . S
C1241 C1239 1.388 . S
C1241 C1242 1.366 . S
C1242 C1241 1.366 . S
C1242 C1243 1.414 . S
C1242 C1245 1.499 . S
C1243 H1217 0.950 . S
C1243 C1242 1.414 . S
C1243 C1244 1.374 . S
C1244 H1218 0.950 . S
C1244 C1240 1.385 . S
C1244 C1243 1.374 . S
C1245 C1242 1.499 . S
C1245 C1246 1.373 . S
C1245 C1247 1.389 . S
C1246 H1219 0.950 . S
C1246 C1232 1.377 . S
C1246 C1245 1.373 . S
C1247 C1231 1.377 . S
C1247 C1245 1.389 . S
C1247 C1248 1.524 . S
C1248 C1247 1.524 . S
C1248 C1249 1.397 . S
C1248 C1253 1.363 . S
C1249 H1220 0.950 . S
C1249 C1248 1.397 . S
C1249 C1250 1.334 . S
C1250 H1221 0.950 . S
C1250 C1249 1.334 . S
C1250 C1251 1.287 . S
C1251 C1250 1.287 . S
C1251 C1252 1.524 . S
C1251 H1254 0.999 . S
C1252 H1222 0.950 . S
C1252 C1251 1.524 . S
C1252 C1253 1.415 . S
C1253 H1223 0.950 . S
C1253 C1248 1.363 . S
C1253 C1252 1.415 . S
H1254 C1251 0.999 . S
H1255 C1236 0.913 . S
H1256 C1274 0.951 . S
H1257 C1276 0.951 . S
H1258 C1278 0.950 . S
H1259 C1279 0.950 . S
H1260 C1281 0.950 . S
H1261 C1284 0.950 . S
H1262 C1285 0.950 . S
H1263 C1287 0.950 . S
H1264 C1288 0.950 . S
H1265 C1289 0.951 . S
H1266 C1291 0.951 . S
H1267 C1293 0.950 . S
H1268 C1294 0.950 . S
H1269 C1296 0.950 . S
H1270 C1299 0.950 . S
H1271 C1300 0.950 . S
H1272 C1302 0.950 . S
H1273 C1303 0.950 . S
C1274 H1256 0.951 . S
C1274 C1275 1.366 . S
C1274 C1276 1.388 . S
C1275 C1274 1.366 . S
C1275 C1279 1.385 . S
C1276 H1257 0.951 . S
C1276 C1274 1.388 . S
C1276 C1277 1.366 . S
C1277 C1276 1.366 . S
C1277 C1278 1.414 . S
C1277 C1280 1.499 . S
C1278 H1258 0.950 . S
C1278 C1277 1.414 . S
C1278 C1279 1.374 . S
C1279 H1259 0.950 . S
C1279 C1275 1.385 . S
C1279 C1278 1.374 . S
C1280 C1277 1.499 . S
C1280 C1281 1.373 . S
C1280 C1282 1.389 . S
C1281 H1260 0.950 . S
C1281 C1280 1.373 . S
C1281 C1297 1.377 . S
C1282 C1280 1.389 . S
C1282 C1283 1.524 . S
C1282 C1296 1.377 . S
C1283 C1282 1.524 . S
C1283 C1284 1.397 . S
C1283 C1288 1.363 . S
C1284 H1261 0.950 . S
C1284 C1283 1.397 . S
C1284 C1285 1.334 . S
C1285 H1262 0.950 . S
C1285 C1284 1.334 . S
C1285 C1286 1.287 . S
C1286 C1285 1.287 . S
C1286 C1287 1.524 . S
C1286 H1305 0.913 . S
C1287 H1263 0.950 . S
C1287 C1286 1.524 . S
C1287 C1288 1.415 . S
C1288 H1264 0.950 . S
C1288 C1283 1.363 . S
C1288 C1287 1.415 . S
C1289 H1265 0.951 . S
C1289 C1290 1.366 . S
C1289 C1291 1.388 . S
C1290 C1289 1.366 . S
C1290 C1294 1.385 . S
C1291 H1266 0.951 . S
C1291 C1289 1.388 . S
C1291 C1292 1.366 . S
C1292 C1291 1.366 . S
C1292 C1293 1.414 . S
C1292 C1295 1.499 . S
C1293 H1267 0.950 . S
C1293 C1292 1.414 . S
C1293 C1294 1.374 . S
C1294 H1268 0.950 . S
C1294 C1290 1.385 . S
C1294 C1293 1.374 . S
C1295 C1292 1.499 . S
C1295 C1296 1.373 . S
C1295 C1297 1.389 . S
C1296 H1269 0.950 . S
C1296 C1282 1.377 . S
C1296 C1295 1.373 . S
C1297 C1281 1.377 . S
C1297 C1295 1.389 . S
C1297 C1298 1.524 . S
C1298 C1297 1.524 . S
C1298 C1299 1.397 . S
C1298 C1303 1.363 . S
C1299 H1270 0.950 . S
C1299 C1298 1.397 . S
C1299 C1300 1.334 . S
C1300 H1271 0.950 . S
C1300 C1299 1.334 . S
C1300 C1301 1.287 . S
C1301 C1300 1.287 . S
C1301 C1302 1.524 . S
C1301 H1304 0.999 . S
C1302 H1272 0.950 . S
C1302 C1301 1.524 . S
C1302 C1303 1.415 . S
C1303 H1273 0.950 . S
C1303 C1298 1.363 . S
C1303 C1302 1.415 . S
H1304 C1301 0.999 . S
H1305 C1286 0.913 . S
H1306 C1324 0.951 . S
H1307 C1326 0.951 . S
H1308 C1328 0.950 . S
H1309 C1329 0.950 . S
H1310 C1331 0.950 . S
H1311 C1334 0.950 . S
H1312 C1335 0.950 . S
H1313 C1337 0.950 . S
H1314 C1338 0.950 . S
H1315 C1339 0.951 . S
H1316 C1341 0.951 . S
H1317 C1343 0.950 . S
H1318 C1344 0.950 . S
H1319 C1346 0.950 . S
H1320 C1349 0.950 . S
H1321 C1350 0.950 . S
H1322 C1352 0.950 . S
H1323 C1353 0.950 . S
C1324 H1306 0.951 . S
C1324 C1325 1.366 . S
C1324 C1326 1.388 . S
C1325 C1324 1.366 . S
C1325 C1329 1.385 . S
C1326 H1307 0.951 . S
C1326 C1324 1.388 . S
C1326 C1327 1.366 . S
C1327 C1326 1.366 . S
C1327 C1328 1.414 . S
C1327 C1330 1.499 . S
C1328 H1308 0.950 . S
C1328 C1327 1.414 . S
C1328 C1329 1.374 . S
C1329 H1309 0.950 . S
C1329 C1325 1.385 . S
C1329 C1328 1.374 . S
C1330 C1327 1.499 . S
C1330 C1331 1.373 . S
C1330 C1332 1.389 . S
C1331 H1310 0.950 . S
C1331 C1330 1.373 . S
C1331 C1347 1.377 . S
C1332 C1330 1.389 . S
C1332 C1333 1.524 . S
C1332 C1346 1.377 . S
C1333 C1332 1.524 . S
C1333 C1334 1.397 . S
C1333 C1338 1.363 . S
C1334 H1311 0.950 . S
C1334 C1333 1.397 . S
C1334 C1335 1.334 . S
C1335 H1312 0.950 . S
C1335 C1334 1.334 . S
C1335 C1336 1.287 . S
C1336 C1335 1.287 . S
C1336 C1337 1.524 . S
C1336 H1355 0.913 . S
C1337 H1313 0.950 . S
C1337 C1336 1.524 . S
C1337 C1338 1.415 . S
C1338 H1314 0.950 . S
C1338 C1333 1.363 . S
C1338 C1337 1.415 . S
C1339 H1315 0.951 . S
C1339 C1340 1.366 . S
C1339 C1341 1.388 . S
C1340 C1339 1.366 . S
C1340 C1344 1.385 . S
C1341 H1316 0.951 . S
C1341 C1339 1.388 . S
C1341 C1342 1.366 . S
C1342 C1341 1.366 . S
C1342 C1343 1.414 . S
C1342 C1345 1.499 . S
C1343 H1317 0.950 . S
C1343 C1342 1.414 . S
C1343 C1344 1.374 . S
C1344 H1318 0.950 . S
C1344 C1340 1.385 . S
C1344 C1343 1.374 . S
C1345 C1342 1.499 . S
C1345 C1346 1.373 . S
C1345 C1347 1.389 . S
C1346 H1319 0.950 . S
C1346 C1332 1.377 . S
C1346 C1345 1.373 . S
C1347 C1331 1.377 . S
C1347 C1345 1.389 . S
C1347 C1348 1.524 . S
C1348 C1347 1.524 . S
C1348 C1349 1.397 . S
C1348 C1353 1.363 . S
C1349 H1320 0.950 . S
C1349 C1348 1.397 . S
C1349 C1350 1.334 . S
C1350 H1321 0.950 . S
C1350 C1349 1.334 . S
C1350 C1351 1.287 . S
C1351 C1350 1.287 . S
C1351 C1352 1.524 . S
C1351 H1354 0.999 . S
C1352 H1322 0.950 . S
C1352 C1351 1.524 . S
C1352 C1353 1.415 . S
C1353 H1323 0.950 . S
C1353 C1348 1.363 . S
C1353 C1352 1.415 . S
H1354 C1351 0.999 . S
H1355 C1336 0.913 . S
C190 C84 1.504 . S
C175 C4 1.505 . S
C240 C87 1.502 . S
C225 C13 1.503 . S
C290 C85 1.506 . S
C275 C25 1.507 . S
C340 C86 1.504 . S
C325 C34 1.505 . S
C390 C101 1.494 . S
C375 C7 1.496 . S
C440 C115 1.508 . S
C425 C14 1.510 . S
C475 C23 1.504 . S
C490 C141 1.503 . S
C540 C155 1.511 . S
C525 C31 1.513 . S
C590 C100 1.494 . S
C575 C16 1.495 . S
C625 C22 1.515 . S
C640 C114 1.513 . S
C690 C140 1.502 . S
C675 C32 1.503 . S
C740 C154 1.508 . S
C725 C5 1.510 . S
C775 C43 1.509 . S
C790 C99 1.507 . S
C840 C72 1.509 . S
C825 C52 1.510 . S
C875 C58 1.504 . S
C890 C98 1.502 . S
C925 C68 1.506 . S
C940 C73 1.504 . S
C990 C128 1.511 . S
C975 C40 1.512 . S
C1040 C142 1.504 . S
C1025 C50 1.506 . S
C1090 C112 1.502 . S
C1075 C59 1.503 . S
C1125 C70 1.501 . S
C1140 C126 1.498 . S
C1190 C129 1.511 . S
C1175 C49 1.512 . S
C1240 C143 1.497 . S
C1225 C61 1.499 . S
C1290 C113 1.502 . S
C1275 C67 1.504 . S
C1325 C41 1.506 . S
C1340 C127 1.505 . S
