# Generated by pormake.
# Topology zzz, (3,6)-cn, num edge types: 1
# Building blocks:
#     Node 0, Type 0, BuildingBlock: PAMTOO_clean_linker_0, # of connection points: 3
#     Node 1, Type 0, BuildingBlock: PAMTOO_clean_linker_0, # of connection points: 3
#     Node 2, Type 0, BuildingBlock: PAMTOO_clean_linker_0, # of connection points: 3
#     Node 3, Type 0, BuildingBlock: PAMTOO_clean_linker_0, # of connection points: 3
#     Node 4, Type 0, BuildingBlock: PAMTOO_clean_linker_0, # of connection points: 3
#     Node 5, Type 0, BuildingBlock: PAMTOO_clean_linker_0, # of connection points: 3
#     Node 6, Type 0, BuildingBlock: PAMTOO_clean_linker_0, # of connection points: 3
#     Node 7, Type 0, BuildingBlock: PAMTOO_clean_linker_0, # of connection points: 3
#     Node 8, Type 1, BuildingBlock: NUHQIS_clean_sbu_0, # of connection points: 6
#     Node 9, Type 1, BuildingBlock: NUHQIS_clean_sbu_0, # of connection points: 6
#     Node 10, Type 1, BuildingBlock: NUHQIS_clean_sbu_0, # of connection points: 6
#     Node 11, Type 1, BuildingBlock: NUHQIS_clean_sbu_0, # of connection points: 6
#     Edge 12, Type (0, 1), None
#     Edge 13, Type (0, 1), None
#     Edge 14, Type (0, 1), None
#     Edge 15, Type (0, 1), None
#     Edge 16, Type (0, 1), None
#     Edge 17, Type (0, 1), None
#     Edge 18, Type (0, 1), None
#     Edge 19, Type (0, 1), None
#     Edge 20, Type (0, 1), None
#     Edge 21, Type (0, 1), None
#     Edge 22, Type (0, 1), None
#     Edge 23, Type (0, 1), None
#     Edge 24, Type (0, 1), None
#     Edge 25, Type (0, 1), None
#     Edge 26, Type (0, 1), None
#     Edge 27, Type (0, 1), None
#     Edge 28, Type (0, 1), None
#     Edge 29, Type (0, 1), None
#     Edge 30, Type (0, 1), None
#     Edge 31, Type (0, 1), None
#     Edge 32, Type (0, 1), None
#     Edge 33, Type (0, 1), None
#     Edge 34, Type (0, 1), None
#     Edge 35, Type (0, 1), None
# Relax obj value: 0.620
# Max RMSD: 0.222
# Mean RMSD: 0.129
data_MOF--net-zzz--node1-NUHQIS_clean_sbu_0--node2-PAMTOO_clean_linker_0--edge1-none
_symmetry_space_group_name_H-M    P1
_symmetry_Int_Tables_number       1
_symmetry_cell_setting            triclinic
loop_
_symmetry_equiv_pos_as_xyz
'x, y, z'
_cell_length_a     22.37089
_cell_length_b     22.481755
_cell_length_c     6.8065027
_cell_angle_alpha  89.630844
_cell_angle_beta   90.019667
_cell_angle_gamma 89.839687
loop_
_atom_site_label
_atom_site_type_symbol
_atom_site_fract_x
_atom_site_fract_y
_atom_site_fract_z
_atom_type_partial_charge
H0 H 0.89468 0.52445 0.4944 0.0
H1 H 0.7607 0.51576 0.15583 0.0
H2 H 0.8358 0.64081 0.56857 0.0
H3 H 0.67232 0.66096 0.39929 0.0
C4 C 0.68526 0.61586 0.3492 0.0
O5 O 0.74591 0.61825 0.29372 0.0
H6 H 0.6808 0.58667 0.47839 0.0
C7 C 0.8881 0.49465 0.42301 0.0
C8 C 0.88999 0.55444 0.53873 0.0
C9 C 0.84081 0.4848 0.29258 0.0
C10 C 0.79477 0.52607 0.26323 0.0
C11 C 0.79109 0.58088 0.35896 0.0
C12 C 0.83736 0.59788 0.49786 0.0
H13 H 0.08327 0.89363 0.48952 0.0
H14 H 0.10454 0.74979 0.2106 0.0
H15 H 0.98564 0.81976 0.65622 0.0
H16 H 0.97584 0.71955 0.16749 0.0
C17 C 0.98684 0.68882 0.29103 0.0
O18 O 1.01925 0.72045 0.43532 0.0
H19 H 0.94349 0.67488 0.35539 0.0
C20 C 0.11068 0.88902 0.40562 0.0
C21 C 1.05693 0.88625 0.55142 0.0
C22 C 0.12393 0.83892 0.2929 0.0
C23 C 0.09016 0.78673 0.30029 0.0
C24 C 1.04063 0.77839 0.42375 0.0
C25 C 1.02199 0.82643 0.55377 0.0
H26 H 0.72053 0.0814 0.48689 0.0
H27 H 0.86686 0.102 0.21534 0.0
H28 H 0.79347 0.98328 0.65715 0.0
H29 H 0.8956 0.9722 0.1736 0.0
C30 C 0.92621 0.98414 0.29583 0.0
O31 O 0.89436 1.01614 0.44046 0.0
H32 H 0.94109 0.94142 0.36254 0.0
C33 C 0.72588 0.10869 0.40293 0.0
C34 C 0.72759 1.05496 0.54919 0.0
C35 C 0.77677 0.12151 0.29151 0.0
C36 C 0.82916 0.08781 0.30305 0.0
C37 C 0.83654 1.03828 0.42716 0.0
C38 C 0.7875 1.01974 0.55454 0.0
H39 H 0.52456 0.72058 0.49551 0.0
H40 H 0.50822 0.86552 0.21419 0.0
H41 H 0.62541 0.79023 0.65886 0.0
H42 H 0.63733 0.89114 0.17163 0.0
C43 C 0.62689 0.92218 0.29357 0.0
O44 O 0.59424 0.89135 0.43985 0.0
H45 H 0.67049 0.93569 0.35687 0.0
C46 C 0.49734 0.72635 0.41185 0.0
C47 C 0.55128 0.7269 0.55706 0.0
C48 C 0.4861 0.77691 0.29705 0.0
C49 C 0.52126 0.82802 0.30497 0.0
C50 C 0.57089 0.83435 0.42896 0.0
C51 C 0.58829 0.78535 0.55844 0.0
H52 H 0.22136 0.58622 0.31278 0.0
H53 H 0.35602 0.59492 0.64879 0.0
H54 H 0.27958 0.46938 0.24073 0.0
H55 H 0.44247 0.44722 0.41625 0.0
C56 C 0.42993 0.49311 0.45923 0.0
O57 O 0.36947 0.4919 0.51678 0.0
H58 H 0.43341 0.5209 0.32631 0.0
C59 C 0.22819 0.61608 0.38391 0.0
C60 C 0.22593 0.55614 0.26895 0.0
C61 C 0.27587 0.62589 0.51283 0.0
C62 C 0.32164 0.58448 0.54259 0.0
C63 C 0.32462 0.52934 0.44954 0.0
C64 C 0.27827 0.51241 0.31079 0.0
H65 H 1.03346 0.2173 0.31905 0.0
H66 H 1.01234 0.3611 0.59982 0.0
H67 H 0.13002 0.29201 0.14958 0.0
H68 H 0.17302 0.4351 0.4537 0.0
C69 C 0.12955 0.42202 0.5192 0.0
O70 O 0.09696 0.39084 0.37439 0.0
H71 H 0.1404 0.39154 0.64356 0.0
C72 C 1.00622 0.22185 0.40382 0.0
C73 C 0.05957 0.22493 0.25648 0.0
C74 C 0.99299 0.27194 0.51677 0.0
C75 C 1.02666 0.32419 0.50966 0.0
C76 C 0.07576 0.33282 0.38501 0.0
C77 C 0.09412 0.285 0.25349 0.0
H78 H 0.39351 1.02947 0.31059 0.0
H79 H 0.24792 1.00965 0.58795 0.0
H80 H 0.31971 0.12686 0.13938 0.0
H81 H 0.17644 0.1715 0.44821 0.0
C82 C 0.18941 0.12757 0.51053 0.0
O83 O 0.21986 0.09522 0.36367 0.0
H84 H 0.22079 0.13678 0.63332 0.0
C85 C 0.38854 1.00249 0.39593 0.0
C86 C 0.38605 0.05562 0.24736 0.0
C87 C 0.33774 0.98978 0.50801 0.0
C88 C 0.28537 1.02353 0.49817 0.0
C89 C 0.27761 0.07273 0.37338 0.0
C90 C 0.32607 0.09068 0.24287 0.0
H91 H 0.5926 0.3882 0.30427 0.0
H92 H 0.59821 0.25373 0.6413 0.0
H93 H 0.47469 0.33285 0.22497 0.0
H94 H 0.4515 0.16942 0.39225 0.0
C95 C 0.49683 0.18091 0.4459 0.0
O96 O 0.49542 0.2415 0.49874 0.0
H97 H 0.52723 0.17545 0.32107 0.0
C98 C 0.62232 0.38062 0.37673 0.0
C99 C 0.56256 0.38448 0.25877 0.0
C100 C 0.63092 0.33287 0.50661 0.0
C101 C 0.58875 0.28789 0.53305 0.0
C102 C 0.53392 0.28569 0.43465 0.0
C103 C 0.51788 0.33286 0.29645 0.0
Tb104 Tb 0.10651 1.03045 0.99823 0.0
Eu105 Eu 1.00591 0.08279 0.80251 0.0
C106 C 0.13271 0.09769 0.60214 0.0
C107 C 0.07503 0.16902 0.09859 0.0
C108 C 0.23357 0.93873 1.00206 0.0
C109 C 0.16207 0.86093 0.96484 0.0
C110 C 0.19491 0.90715 0.87915 0.0
C111 C 0.263 0.90585 0.14405 0.0
C112 C 0.23102 0.86071 0.23596 0.0
C113 C 0.17501 0.8443 0.15879 0.0
C114 C 0.20862 0.99414 0.07916 0.0
O115 O 1.03127 0.98632 0.15903 0.0
O116 O 0.97564 0.06723 0.11871 0.0
O117 O 1.01901 0.99351 0.6341 0.0
O118 O 0.07088 0.94677 0.87031 0.0
C119 C 0.98197 1.01572 0.20443 0.0
O120 O 0.91007 0.07972 0.85945 0.0
O121 O 0.94404 0.12583 0.60105 0.0
O122 O 0.08341 0.12804 0.63642 0.0
O123 O 0.13696 1.04639 0.69255 0.0
O124 O 0.09344 0.11638 0.16592 0.0
O125 O 1.04572 0.16808 0.93175 0.0
C126 C 1.04056 0.94286 0.7052 0.0
O127 O 0.19908 1.03548 0.94894 0.0
O128 O 0.16321 0.98765 0.19895 0.0
C129 C 0.87692 0.17681 0.80392 0.0
C130 C 0.94075 0.26746 0.64599 0.0
C131 C 0.95156 0.2517 0.84198 0.0
C132 C 0.9167 0.20697 0.9273 0.0
C133 C 0.84962 0.21035 0.65909 0.0
C134 C 0.88494 0.25241 0.56394 0.0
C135 C 0.90005 0.12059 0.72767 0.0
H136 H 0.12144 0.84588 0.89494 0.0
H137 H 0.17871 0.92744 0.74478 0.0
H138 H 0.29982 0.92624 0.21751 0.0
H139 H 0.24477 0.84879 0.38161 0.0
H140 H 0.99209 0.26591 0.91439 0.0
H141 H 0.93203 0.18631 0.06229 0.0
H142 H 0.81263 0.19054 0.58424 0.0
H143 H 0.87384 0.26264 0.4141 0.0
Tb144 Tb 0.58268 0.10367 1.00277 0.0
Eu145 Eu 0.52935 1.00499 0.79669 0.0
C146 C 0.51446 0.1347 0.60869 0.0
C147 C 0.44292 0.07167 0.09281 0.0
C148 C 0.67447 0.22948 1.00793 0.0
C149 C 0.75237 0.15794 0.96232 0.0
C150 C 0.70498 0.19082 0.8817 0.0
C151 C 0.70969 0.25915 0.1419 0.0
C152 C 0.7569 0.22792 0.22634 0.0
C153 C 0.7717 0.17151 0.15254 0.0
C154 C 0.61998 0.20416 0.09471 0.0
O155 O 0.62576 1.02753 0.16154 0.0
O156 O 0.54473 0.97271 0.11196 0.0
O157 O 0.61936 1.01778 0.62904 0.0
O158 O 0.66592 0.06833 0.86676 0.0
C159 C 0.59601 0.97816 0.20058 0.0
O160 O 0.53237 0.90932 0.85144 0.0
O161 O 0.48497 0.94437 0.59721 0.0
O162 O 0.48691 0.08301 0.62369 0.0
O163 O 0.56491 0.13938 0.70446 0.0
O164 O 0.4962 0.08558 0.16499 0.0
O165 O 0.44357 1.04631 0.92034 0.0
C166 C 0.66999 1.03882 0.70102 0.0
O167 O 0.57599 0.19676 0.97307 0.0
O168 O 0.6285 0.15687 0.20432 0.0
C169 C 0.43448 0.87724 0.80304 0.0
C170 C 0.34225 0.93916 0.64375 0.0
C171 C 0.35907 0.95185 0.83698 0.0
C172 C 0.40432 0.9177 0.92383 0.0
C173 C 0.40027 0.84879 0.66346 0.0
C174 C 0.357 0.88284 0.56824 0.0
C175 C 0.49063 0.9001 0.72261 0.0
H176 H 0.76686 0.1173 0.89243 0.0
H177 H 0.6833 0.17493 0.75016 0.0
H178 H 0.69172 0.29732 0.21315 0.0
H179 H 0.77248 0.24298 0.36559 0.0
H180 H 0.34491 0.99286 0.90522 0.0
H181 H 0.42549 0.93395 0.05581 0.0
H182 H 0.41907 0.81068 0.59261 0.0
H183 H 0.34533 0.87012 0.42186 0.0
Tb184 Tb 0.50826 0.57529 1.01683 0.0
Eu185 Eu 0.60942 0.53352 0.78371 0.0
C186 C 0.47727 0.51485 0.61195 0.0
C187 C 0.54613 0.44231 0.10875 0.0
C188 C 0.38325 0.6729 1.01987 0.0
C189 C 0.45191 0.75243 0.96863 0.0
C190 C 0.42111 0.7038 0.89177 0.0
C191 C 0.35211 0.70675 0.1537 0.0
C192 C 0.38026 0.75632 0.23086 0.0
C193 C 0.43665 0.77239 0.15676 0.0
C194 C 0.40795 0.61762 0.10192 0.0
O195 O 0.58218 0.58482 0.23637 0.0
O196 O 0.65359 0.59415 1.00649 0.0
O197 O 0.59018 0.62003 0.61821 0.0
O198 O 0.54123 0.6598 0.87108 0.0
C199 C 0.6387 0.5966 0.19074 0.0
O200 O 0.70627 0.53342 0.81812 0.0
O201 O 0.66561 0.48268 0.58411 0.0
O202 O 0.53303 0.52558 0.55867 0.0
O203 O 0.46588 0.51567 0.79998 0.0
O204 O 0.52419 0.49154 0.18279 0.0
O205 O 0.57542 0.4478 0.94165 0.0
C206 C 0.56865 0.66784 0.70095 0.0
O207 O 0.41535 0.57573 0.97469 0.0
O208 O 0.45513 0.62369 0.21397 0.0
C209 C 0.73769 0.43539 0.78208 0.0
C210 C 0.68163 0.33784 0.64214 0.0
C211 C 0.66767 0.357 0.83276 0.0
C212 C 0.69916 0.40516 0.90972 0.0
C213 C 0.76821 0.40087 0.64878 0.0
C214 C 0.73778 0.35359 0.56507 0.0
C215 C 0.71287 0.48998 0.69558 0.0
H216 H 0.49299 0.76691 0.89973 0.0
H217 H 0.43784 0.68207 0.76165 0.0
H218 H 0.31575 0.68665 0.22963 0.0
H219 H 0.36443 0.77187 0.36979 0.0
H220 H 0.62658 0.34316 0.90329 0.0
H221 H 0.68226 0.42735 1.03883 0.0
H222 H 0.80531 0.42044 0.57571 0.0
H223 H 0.75193 0.33966 0.42194 0.0
Tb224 Tb 1.03261 0.50731 1.00193 0.0
Eu225 Eu 0.08544 0.60713 0.80009 0.0
C226 C 0.09957 0.47915 0.6072 0.0
C227 C 0.17083 0.53998 0.1089 0.0
C228 C 0.94413 0.37813 1.01021 0.0
C229 C 0.86316 0.44625 0.96631 0.0
C230 C 0.91108 0.41504 0.88407 0.0
C231 C 0.91172 0.34776 0.15074 0.0
C232 C 0.86512 0.37818 0.2404 0.0
C233 C 0.8469 0.43341 0.16126 0.0
C234 C 0.99786 0.40581 0.09155 0.0
O235 O 0.98906 0.58338 0.15982 0.0
O236 O 0.06969 0.63914 0.11323 0.0
O237 O 0.99615 0.59445 0.6288 0.0
O238 O 0.94931 0.5402 0.85996 0.0
C239 C 1.01831 0.63299 0.20015 0.0
O240 O 0.08046 0.70287 0.84669 0.0
O241 O 0.12996 0.66746 0.59828 0.0
O242 O 0.13006 0.52838 0.63865 0.0
O243 O 1.04843 0.47517 0.69899 0.0
O244 O 0.11824 0.5206 0.17291 0.0
O245 O 0.17042 0.56944 0.94185 0.0
C246 C 0.94578 0.57119 0.69546 0.0
O247 O 1.04083 0.41483 0.96683 0.0
O248 O 0.98822 0.45227 0.20257 0.0
C249 C 0.17758 0.73749 0.79803 0.0
C250 C 0.27112 0.6778 0.64181 0.0
C251 C 0.25567 0.66598 0.83814 0.0
C252 C 0.20932 0.69887 0.92229 0.0
C253 C 0.21054 0.76641 0.65565 0.0
C254 C 0.25438 0.73329 0.56112 0.0
C255 C 0.12247 0.71232 0.71857 0.0
H256 H 0.84741 0.48639 0.89412 0.0
H257 H 0.93127 0.43166 0.75046 0.0
H258 H 0.93304 0.31146 0.22473 0.0
H259 H 0.8536 0.36426 0.38626 0.0
H260 H 0.27045 0.62548 0.91035 0.0
H261 H 0.18874 0.68248 0.05568 0.0
H262 H 0.18977 0.80321 0.58253 0.0
H263 H 0.26464 0.74552 0.41222 0.0
loop_
_geom_bond_atom_site_label_1
_geom_bond_atom_site_label_2
_geom_bond_distance
_geom_bond_site_symmetry_2
_ccdc_geom_bond_type
H0 C7 0.929 . S
H1 C10 0.930 . S
H2 C12 0.929 . S
H3 C4 0.969 . S
C4 H3 0.969 . S
C4 O5 1.550 . S
C4 H6 0.973 . S
O5 C4 1.550 . S
O5 C11 1.412 . S
H6 C4 0.973 . S
C7 H0 0.929 . S
C7 C8 1.400 . S
C7 C9 1.364 . S
C8 C7 1.400 . S
C8 C12 1.377 . S
C9 C7 1.364 . S
C9 C10 1.374 . S
C10 H1 0.930 . S
C10 C9 1.374 . S
C10 C11 1.383 . S
C11 O5 1.412 . S
C11 C10 1.383 . S
C11 C12 1.394 . S
C12 H2 0.929 . S
C12 C8 1.377 . S
C12 C11 1.394 . S
H13 C20 0.928 1_655 S
H14 C23 0.931 . S
H15 C25 0.929 1_655 S
H16 C17 0.969 . S
C17 H16 0.969 . S
C17 O18 1.550 1_455 S
C17 H19 0.973 1_455 S
O18 C17 1.550 1_655 S
O18 C24 1.412 1_655 S
H19 C17 0.973 1_655 S
C20 H13 0.928 1_455 S
C20 C21 1.399 . S
C20 C22 1.364 . S
C21 C20 1.399 . S
C21 C25 1.377 . S
C22 C20 1.364 . S
C22 C23 1.374 1_455 S
C23 H14 0.931 . S
C23 C22 1.374 1_655 S
C23 C24 1.383 1_655 S
C24 O18 1.412 1_455 S
C24 C23 1.383 1_455 S
C24 C25 1.394 . S
C25 H15 0.929 1_455 S
C25 C21 1.377 . S
C25 C24 1.394 . S
H26 C33 0.928 1_565 S
H27 C36 0.931 . S
H28 C38 0.929 1_565 S
H29 C30 0.969 . S
C30 H29 0.969 . S
C30 O31 1.550 1_545 S
C30 H32 0.973 1_545 S
O31 C30 1.550 1_565 S
O31 C37 1.412 1_565 S
H32 C30 0.973 1_565 S
C33 H26 0.928 1_545 S
C33 C34 1.399 . S
C33 C35 1.364 . S
C34 C33 1.399 . S
C34 C38 1.377 . S
C35 C33 1.364 . S
C35 C36 1.374 1_545 S
C36 H27 0.931 . S
C36 C35 1.374 1_565 S
C36 C37 1.383 1_565 S
C37 O31 1.412 1_545 S
C37 C36 1.383 1_545 S
C37 C38 1.394 . S
C38 H28 0.929 1_545 S
C38 C34 1.377 . S
C38 C37 1.394 . S
H39 C46 0.929 . S
H40 C49 0.930 . S
H41 C51 0.929 . S
H42 C43 0.969 . S
C43 H42 0.969 . S
C43 O44 1.550 . S
C43 H45 0.973 . S
O44 C43 1.550 . S
O44 C50 1.412 . S
H45 C43 0.973 . S
C46 H39 0.929 . S
C46 C47 1.400 . S
C46 C48 1.364 . S
C47 C46 1.400 . S
C47 C51 1.377 . S
C48 C46 1.364 . S
C48 C49 1.374 . S
C49 H40 0.930 . S
C49 C48 1.374 . S
C49 C50 1.383 . S
C50 O44 1.412 . S
C50 C49 1.383 . S
C50 C51 1.394 . S
C51 H41 0.929 . S
C51 C47 1.377 . S
C51 C50 1.394 . S
H52 C59 0.928 1_556 S
H53 C62 0.930 . S
H54 C64 0.929 . S
H55 C56 0.969 . S
C56 H55 0.969 . S
C56 O57 1.550 . S
C56 H58 0.973 . S
O57 C56 1.550 . S
O57 C63 1.412 . S
H58 C56 0.973 . S
C59 H52 0.928 1_554 S
C59 C60 1.398 1_554 S
C59 C61 1.366 . S
C60 C59 1.398 1_556 S
C60 C64 1.377 . S
C61 C59 1.366 . S
C61 C62 1.374 . S
C62 H53 0.930 . S
C62 C61 1.374 . S
C62 C63 1.383 . S
C63 O57 1.412 . S
C63 C62 1.383 . S
C63 C64 1.394 1_554 S
C64 H54 0.929 . S
C64 C60 1.377 . S
C64 C63 1.394 1_556 S
H65 C72 0.928 1_656 S
H66 C75 0.931 . S
H67 C77 0.928 1_655 S
H68 C69 0.969 . S
C69 H68 0.969 . S
C69 O70 1.550 1_455 S
C69 H71 0.973 1_455 S
O70 C69 1.550 1_655 S
O70 C76 1.412 1_655 S
H71 C69 0.973 1_655 S
C72 H65 0.928 1_454 S
C72 C73 1.400 1_554 S
C72 C74 1.364 . S
C73 C72 1.400 1_556 S
C73 C77 1.377 . S
C74 C72 1.364 . S
C74 C75 1.374 1_455 S
C75 H66 0.931 . S
C75 C74 1.374 1_655 S
C75 C76 1.383 1_655 S
C76 O70 1.412 1_455 S
C76 C75 1.383 1_455 S
C76 C77 1.395 1_554 S
C77 H67 0.928 1_455 S
C77 C73 1.377 . S
C77 C76 1.395 1_556 S
H78 C85 0.928 1_566 S
H79 C88 0.931 . S
H80 C90 0.928 1_565 S
H81 C82 0.969 . S
C82 H81 0.969 . S
C82 O83 1.550 1_545 S
C82 H84 0.973 1_545 S
O83 C82 1.550 1_565 S
O83 C89 1.412 1_565 S
H84 C82 0.973 1_565 S
C85 H78 0.928 1_544 S
C85 C86 1.395 1_554 S
C85 C87 1.369 . S
C86 C85 1.395 1_556 S
C86 C90 1.377 . S
C87 C85 1.369 . S
C87 C88 1.374 1_545 S
C88 H79 0.931 . S
C88 C87 1.374 1_565 S
C88 C89 1.383 1_565 S
C89 O83 1.412 1_545 S
C89 C88 1.383 1_545 S
C89 C90 1.395 1_554 S
C90 H80 0.928 1_545 S
C90 C86 1.377 . S
C90 C89 1.395 1_556 S
H91 C98 0.929 . S
H92 C101 0.930 . S
H93 C103 0.929 . S
H94 C95 0.969 . S
C95 H94 0.969 . S
C95 O96 1.550 . S
C95 H97 0.973 . S
O96 C95 1.550 . S
O96 C102 1.412 . S
H97 C95 0.973 . S
C98 H91 0.929 . S
C98 C99 1.400 . S
C98 C100 1.364 1_556 S
C99 C98 1.400 . S
C99 C103 1.377 . S
C100 C98 1.364 1_554 S
C100 C101 1.374 . S
C101 H92 0.930 . S
C101 C100 1.374 . S
C101 C102 1.383 . S
C102 O96 1.412 . S
C102 C101 1.383 . S
C102 C103 1.394 1_554 S
C103 H93 0.929 . S
C103 C99 1.377 . S
C103 C102 1.394 1_556 S
Tb104 C114 2.825 . S
Tb104 O115 2.347 1_455 S
Tb104 O118 2.366 1_554 S
Tb104 O123 2.418 1_554 S
Tb104 O124 2.384 1_565 S
Tb104 O127 2.479 . S
Tb104 O128 2.471 . S
Eu105 O116 2.418 . S
Eu105 O117 2.384 1_545 S
Eu105 O120 2.479 . S
Eu105 O121 2.471 . S
Eu105 O122 2.347 1_655 S
Eu105 O125 2.366 . S
Eu105 C135 2.825 . S
C106 O122 1.259 1_565 S
C106 O123 1.265 . S
C107 O124 1.255 1_556 S
C107 O125 1.265 1_455 S
C108 C110 1.380 . S
C108 C111 1.374 . S
C108 C114 1.507 . S
C109 C110 1.384 . S
C109 C113 1.387 . S
C109 H136 0.930 . S
C110 C108 1.380 . S
C110 C109 1.384 . S
C110 H137 0.931 . S
C111 C108 1.374 . S
C111 C112 1.390 . S
C111 H138 0.930 . S
C112 C111 1.390 . S
C112 C113 1.391 . S
C112 H139 0.930 . S
C113 C109 1.387 . S
C113 C112 1.391 . S
C114 Tb104 2.825 . S
C114 C108 1.507 . S
C114 O127 1.238 . S
C114 O128 1.247 . S
O115 Tb104 2.347 1_655 S
O115 C119 1.259 1_565 S
O116 Eu105 2.418 . S
O116 C119 1.265 1_556 S
O117 Eu105 2.384 1_565 S
O117 C126 1.255 . S
O118 Tb104 2.366 1_556 S
O118 C126 1.265 1_455 S
C119 O115 1.259 1_545 S
C119 O116 1.265 1_554 S
O120 Eu105 2.479 . S
O120 C135 1.238 . S
O121 Eu105 2.471 . S
O121 C135 1.247 . S
O122 Eu105 2.347 1_455 S
O122 C106 1.259 1_545 S
O123 Tb104 2.418 1_556 S
O123 C106 1.265 . S
O124 Tb104 2.384 1_545 S
O124 C107 1.255 1_554 S
O125 Eu105 2.366 . S
O125 C107 1.265 1_655 S
C126 O117 1.255 . S
C126 O118 1.265 1_655 S
O127 Tb104 2.479 . S
O127 C114 1.238 . S
O128 Tb104 2.471 . S
O128 C114 1.247 . S
C129 C132 1.380 . S
C129 C133 1.374 . S
C129 C135 1.507 . S
C130 C131 1.387 . S
C130 C134 1.391 . S
C131 C130 1.387 . S
C131 C132 1.384 . S
C131 H140 0.930 . S
C132 C129 1.380 . S
C132 C131 1.384 . S
C132 H141 0.931 . S
C133 C129 1.374 . S
C133 C134 1.390 . S
C133 H142 0.947 . S
C134 C130 1.391 . S
C134 C133 1.390 . S
C134 H143 0.930 . S
C135 Eu105 2.825 . S
C135 O120 1.238 . S
C135 O121 1.247 . S
C135 C129 1.507 . S
H136 C109 0.930 . S
H137 C110 0.931 . S
H138 C111 0.930 . S
H139 C112 0.930 . S
H140 C131 0.930 . S
H141 C132 0.931 . S
H142 C133 0.947 . S
H143 C134 0.930 . S
Tb144 C154 2.825 . S
Tb144 O155 2.347 1_545 S
Tb144 O158 2.366 1_554 S
Tb144 O163 2.418 1_554 S
Tb144 O164 2.384 . S
Tb144 O167 2.479 . S
Tb144 O168 2.471 . S
Eu145 O156 2.418 . S
Eu145 O157 2.384 . S
Eu145 O160 2.479 . S
Eu145 O161 2.471 . S
Eu145 O162 2.347 1_565 S
Eu145 O165 2.366 . S
Eu145 C175 2.825 . S
C146 O162 1.259 . S
C146 O163 1.265 . S
C147 O164 1.255 1_556 S
C147 O165 1.265 1_545 S
C148 C150 1.380 . S
C148 C151 1.374 . S
C148 C154 1.507 . S
C149 C150 1.384 . S
C149 C153 1.387 . S
C149 H176 0.930 . S
C150 C148 1.380 . S
C150 C149 1.384 . S
C150 H177 0.931 . S
C151 C148 1.374 . S
C151 C152 1.390 . S
C151 H178 0.930 1_545 S
C152 C151 1.390 . S
C152 C153 1.391 . S
C152 H179 0.930 . S
C153 C149 1.387 . S
C153 C152 1.391 . S
C154 Tb144 2.825 . S
C154 C148 1.507 . S
C154 O167 1.238 . S
C154 O168 1.247 . S
O155 Tb144 2.347 1_565 S
O155 C159 1.259 . S
O156 Eu145 2.418 . S
O156 C159 1.265 1_556 S
O157 Eu145 2.384 . S
O157 C166 1.255 . S
O158 Tb144 2.366 1_556 S
O158 C166 1.265 1_545 S
C159 O155 1.259 . S
C159 O156 1.265 1_554 S
O160 Eu145 2.479 . S
O160 C175 1.238 . S
O161 Eu145 2.471 . S
O161 C175 1.247 . S
O162 Eu145 2.347 1_545 S
O162 C146 1.259 . S
O163 Tb144 2.418 1_556 S
O163 C146 1.265 . S
O164 Tb144 2.384 . S
O164 C147 1.255 1_554 S
O165 Eu145 2.366 . S
O165 C147 1.265 1_565 S
C166 O157 1.255 . S
C166 O158 1.265 1_565 S
O167 Tb144 2.479 . S
O167 C154 1.238 . S
O168 Tb144 2.471 . S
O168 C154 1.247 . S
C169 C172 1.380 . S
C169 C173 1.374 . S
C169 C175 1.507 . S
C170 C171 1.387 . S
C170 C174 1.391 . S
C171 C170 1.387 . S
C171 C172 1.384 . S
C171 H180 0.930 . S
C172 C169 1.380 . S
C172 C171 1.384 . S
C172 H181 0.931 . S
C173 C169 1.374 . S
C173 C174 1.390 . S
C173 H182 0.930 1_565 S
C174 C170 1.391 . S
C174 C173 1.390 . S
C174 H183 0.930 . S
C175 Eu145 2.825 . S
C175 O160 1.238 . S
C175 O161 1.247 . S
C175 C169 1.507 . S
H176 C149 0.930 . S
H177 C150 0.931 . S
H178 C151 0.930 1_565 S
H179 C152 0.930 . S
H180 C171 0.930 . S
H181 C172 0.931 . S
H182 C173 0.930 1_545 S
H183 C174 0.930 . S
Tb184 C194 2.825 . S
Tb184 O195 2.347 . S
Tb184 O198 2.366 1_554 S
Tb184 O203 2.418 1_554 S
Tb184 O204 2.384 . S
Tb184 O207 2.479 . S
Tb184 O208 2.471 . S
Eu185 O196 2.418 . S
Eu185 O197 2.384 . S
Eu185 O200 2.479 . S
Eu185 O201 2.471 . S
Eu185 O202 2.347 . S
Eu185 O205 2.366 . S
Eu185 C215 2.825 . S
C186 O202 1.259 . S
C186 O203 1.265 . S
C187 O204 1.255 1_556 S
C187 O205 1.265 . S
C188 C190 1.380 . S
C188 C191 1.374 . S
C188 C194 1.507 . S
C189 C190 1.384 . S
C189 C193 1.387 . S
C189 H216 0.930 . S
C190 C188 1.380 . S
C190 C189 1.384 . S
C190 H217 0.931 . S
C191 C188 1.374 . S
C191 C192 1.390 . S
C191 H218 0.930 . S
C192 C191 1.390 . S
C192 C193 1.391 . S
C192 H219 0.930 . S
C193 C189 1.387 . S
C193 C192 1.391 . S
C194 Tb184 2.825 . S
C194 C188 1.507 . S
C194 O207 1.238 . S
C194 O208 1.247 . S
O195 Tb184 2.347 . S
O195 C199 1.259 . S
O196 Eu185 2.418 . S
O196 C199 1.265 1_556 S
O197 Eu185 2.384 . S
O197 C206 1.255 . S
O198 Tb184 2.366 1_556 S
O198 C206 1.265 . S
C199 O195 1.259 . S
C199 O196 1.265 1_554 S
O200 Eu185 2.479 . S
O200 C215 1.238 . S
O201 Eu185 2.471 . S
O201 C215 1.247 . S
O202 Eu185 2.347 . S
O202 C186 1.259 . S
O203 Tb184 2.418 1_556 S
O203 C186 1.265 . S
O204 Tb184 2.384 . S
O204 C187 1.255 1_554 S
O205 Eu185 2.366 . S
O205 C187 1.265 . S
C206 O197 1.255 . S
C206 O198 1.265 . S
O207 Tb184 2.479 . S
O207 C194 1.238 . S
O208 Tb184 2.471 . S
O208 C194 1.247 . S
C209 C212 1.380 . S
C209 C213 1.374 . S
C209 C215 1.507 . S
C210 C211 1.387 . S
C210 C214 1.391 . S
C211 C210 1.387 . S
C211 C212 1.384 . S
C211 H220 0.930 . S
C212 C209 1.380 . S
C212 C211 1.384 . S
C212 H221 0.931 . S
C213 C209 1.374 . S
C213 C214 1.390 . S
C213 H222 0.930 . S
C214 C210 1.391 . S
C214 C213 1.390 . S
C214 H223 0.930 . S
C215 Eu185 2.825 . S
C215 O200 1.238 . S
C215 O201 1.247 . S
C215 C209 1.507 . S
H216 C189 0.930 . S
H217 C190 0.931 . S
H218 C191 0.930 . S
H219 C192 0.930 . S
H220 C211 0.930 . S
H221 C212 0.931 . S
H222 C213 0.930 . S
H223 C214 0.930 . S
Tb224 C234 2.825 . S
Tb224 O235 2.347 . S
Tb224 O238 2.366 1_554 S
Tb224 O243 2.418 1_554 S
Tb224 O244 2.384 1_655 S
Tb224 O247 2.479 . S
Tb224 O248 2.471 . S
Eu225 O236 2.418 . S
Eu225 O237 2.384 1_455 S
Eu225 O240 2.479 . S
Eu225 O241 2.471 . S
Eu225 O242 2.347 . S
Eu225 O245 2.366 . S
Eu225 C255 2.825 . S
C226 O242 1.259 1_655 S
C226 O243 1.265 . S
C227 O244 1.255 1_556 S
C227 O245 1.265 . S
C228 C230 1.380 . S
C228 C231 1.374 . S
C228 C234 1.507 . S
C229 C230 1.384 . S
C229 C233 1.387 . S
C229 H256 0.930 . S
C230 C228 1.380 . S
C230 C229 1.384 . S
C230 H257 0.931 . S
C231 C228 1.374 . S
C231 C232 1.390 . S
C231 H258 0.930 . S
C232 C231 1.390 . S
C232 C233 1.391 . S
C232 H259 0.930 . S
C233 C229 1.387 . S
C233 C232 1.391 . S
C234 Tb224 2.825 . S
C234 C228 1.507 . S
C234 O247 1.238 . S
C234 O248 1.247 . S
O235 Tb224 2.347 . S
O235 C239 1.259 1_655 S
O236 Eu225 2.418 . S
O236 C239 1.265 1_556 S
O237 Eu225 2.384 1_655 S
O237 C246 1.255 . S
O238 Tb224 2.366 1_556 S
O238 C246 1.265 . S
C239 O235 1.259 1_455 S
C239 O236 1.265 1_554 S
O240 Eu225 2.479 . S
O240 C255 1.238 . S
O241 Eu225 2.471 . S
O241 C255 1.247 . S
O242 Eu225 2.347 . S
O242 C226 1.259 1_455 S
O243 Tb224 2.418 1_556 S
O243 C226 1.265 . S
O244 Tb224 2.384 1_455 S
O244 C227 1.255 1_554 S
O245 Eu225 2.366 . S
O245 C227 1.265 . S
C246 O237 1.255 . S
C246 O238 1.265 . S
O247 Tb224 2.479 . S
O247 C234 1.238 . S
O248 Tb224 2.471 . S
O248 C234 1.247 . S
C249 C252 1.380 . S
C249 C253 1.374 . S
C249 C255 1.507 . S
C250 C251 1.387 . S
C250 C254 1.391 . S
C251 C250 1.387 . S
C251 C252 1.384 . S
C251 H260 0.930 . S
C252 C249 1.380 . S
C252 C251 1.384 . S
C252 H261 0.931 . S
C253 C249 1.374 . S
C253 C254 1.390 . S
C253 H262 0.930 . S
C254 C250 1.391 . S
C254 C253 1.390 . S
C254 H263 0.930 . S
C255 Eu225 2.825 . S
C255 O240 1.238 . S
C255 O241 1.247 . S
C255 C249 1.507 . S
H256 C229 0.930 . S
H257 C230 0.931 . S
H258 C231 0.930 . S
H259 C232 0.930 . S
H260 C251 0.930 . S
H261 C252 0.931 . S
H262 C253 0.930 . S
H263 C254 0.930 . S
C82 C106 3.351 1_545 S
C146 C95 3.345 . S
C186 C56 3.366 . S
C226 C69 3.361 1_655 S
C119 C30 3.328 . S
C43 C159 3.389 . S
C4 C199 3.424 . S
C17 C239 3.353 . S
C130 C74 2.342 1_655 S
C170 C87 2.181 1_565 S
C210 C100 2.052 . S
C61 C250 2.186 . S
C22 C113 2.341 . S
C153 C35 2.181 . S
C193 C48 2.030 . S
C9 C233 2.164 . S
C73 C107 3.957 . S
C86 C147 3.879 . S
C187 C99 3.879 . S
C227 C60 3.954 . S
C21 C126 3.961 1_455 S
C166 C34 3.879 1_565 S
C206 C47 3.891 . S
C8 C246 3.970 . S
