# Generated by pormake.
# Topology apo, (3,6)-cn, num edge types: 1
# Building blocks:
#     Node 0, Type 0, BuildingBlock: MIDCAF_clean_linker_0, # of connection points: 3
#     Node 1, Type 0, BuildingBlock: MIDCAF_clean_linker_0, # of connection points: 3
#     Node 2, Type 0, BuildingBlock: MIDCAF_clean_linker_0, # of connection points: 3
#     Node 3, Type 0, BuildingBlock: MIDCAF_clean_linker_0, # of connection points: 3
#     Node 4, Type 0, BuildingBlock: MIDCAF_clean_linker_0, # of connection points: 3
#     Node 5, Type 0, BuildingBlock: MIDCAF_clean_linker_0, # of connection points: 3
#     Node 6, Type 0, BuildingBlock: MIDCAF_clean_linker_0, # of connection points: 3
#     Node 7, Type 0, BuildingBlock: MIDCAF_clean_linker_0, # of connection points: 3
#     Node 8, Type 1, BuildingBlock: KUMBUR_clean_sbu_1, # of connection points: 6
#     Node 9, Type 1, BuildingBlock: KUMBUR_clean_sbu_1, # of connection points: 6
#     Node 10, Type 1, BuildingBlock: KUMBUR_clean_sbu_1, # of connection points: 6
#     Node 11, Type 1, BuildingBlock: KUMBUR_clean_sbu_1, # of connection points: 6
#     Edge 12, Type (0, 1), BuildingBlock: MIFKUJ_clean_linker_0, # of connection points: 2
#     Edge 13, Type (0, 1), BuildingBlock: MIFKUJ_clean_linker_0, # of connection points: 2
#     Edge 14, Type (0, 1), BuildingBlock: MIFKUJ_clean_linker_0, # of connection points: 2
#     Edge 15, Type (0, 1), BuildingBlock: MIFKUJ_clean_linker_0, # of connection points: 2
#     Edge 16, Type (0, 1), BuildingBlock: MIFKUJ_clean_linker_0, # of connection points: 2
#     Edge 17, Type (0, 1), BuildingBlock: MIFKUJ_clean_linker_0, # of connection points: 2
#     Edge 18, Type (0, 1), BuildingBlock: MIFKUJ_clean_linker_0, # of connection points: 2
#     Edge 19, Type (0, 1), BuildingBlock: MIFKUJ_clean_linker_0, # of connection points: 2
#     Edge 20, Type (0, 1), BuildingBlock: MIFKUJ_clean_linker_0, # of connection points: 2
#     Edge 21, Type (0, 1), BuildingBlock: MIFKUJ_clean_linker_0, # of connection points: 2
#     Edge 22, Type (0, 1), BuildingBlock: MIFKUJ_clean_linker_0, # of connection points: 2
#     Edge 23, Type (0, 1), BuildingBlock: MIFKUJ_clean_linker_0, # of connection points: 2
#     Edge 24, Type (0, 1), BuildingBlock: MIFKUJ_clean_linker_0, # of connection points: 2
#     Edge 25, Type (0, 1), BuildingBlock: MIFKUJ_clean_linker_0, # of connection points: 2
#     Edge 26, Type (0, 1), BuildingBlock: MIFKUJ_clean_linker_0, # of connection points: 2
#     Edge 27, Type (0, 1), BuildingBlock: MIFKUJ_clean_linker_0, # of connection points: 2
#     Edge 28, Type (0, 1), BuildingBlock: MIFKUJ_clean_linker_0, # of connection points: 2
#     Edge 29, Type (0, 1), BuildingBlock: MIFKUJ_clean_linker_0, # of connection points: 2
#     Edge 30, Type (0, 1), BuildingBlock: MIFKUJ_clean_linker_0, # of connection points: 2
#     Edge 31, Type (0, 1), BuildingBlock: MIFKUJ_clean_linker_0, # of connection points: 2
#     Edge 32, Type (0, 1), BuildingBlock: MIFKUJ_clean_linker_0, # of connection points: 2
#     Edge 33, Type (0, 1), BuildingBlock: MIFKUJ_clean_linker_0, # of connection points: 2
#     Edge 34, Type (0, 1), BuildingBlock: MIFKUJ_clean_linker_0, # of connection points: 2
#     Edge 35, Type (0, 1), BuildingBlock: MIFKUJ_clean_linker_0, # of connection points: 2
# Relax obj value: 0.010
# Max RMSD: 0.083
# Mean RMSD: 0.068
data_MOF--net-apo--node1-KUMBUR_clean_sbu_1--node2-MIDCAF_clean_linker_0--edge1-MIFKUJ_clean_linker_0
_symmetry_space_group_name_H-M    P1
_symmetry_Int_Tables_number       1
_symmetry_cell_setting            triclinic
loop_
_symmetry_equiv_pos_as_xyz
'x, y, z'
_cell_length_a     35.969319
_cell_length_b     65.100245
_cell_length_c     77.515743
_cell_angle_alpha  89.977533
_cell_angle_beta   89.914436
_cell_angle_gamma 90.426443
loop_
_atom_site_label
_atom_site_type_symbol
_atom_site_fract_x
_atom_site_fract_y
_atom_site_fract_z
_atom_type_partial_charge
C0 C 0.31523 0.39528 0.47919 0.0
C1 C 0.31399 0.37639 0.48793 0.0
C2 C 0.30186 0.35878 0.47902 0.0
C3 C 0.29073 0.36012 0.46175 0.0
H4 H 0.23576 0.32842 0.42162 0.0
H5 H 0.20214 0.30101 0.40666 0.0
H6 H 0.17904 0.34236 0.36453 0.0
H7 H 0.21233 0.36978 0.37941 0.0
H8 H 0.24967 0.41608 0.37964 0.0
H9 H 0.27176 0.44542 0.36292 0.0
H10 H 0.36534 0.45206 0.39754 0.0
H11 H 0.34196 0.4236 0.4147 0.0
H12 H 0.30596 0.41143 0.45565 0.0
H13 H 0.32479 0.40907 0.48569 0.0
H14 H 0.30045 0.34405 0.48549 0.0
H15 H 0.28136 0.34631 0.45523 0.0
N16 N 0.25995 0.36581 0.42699 0.0
N17 N 0.2597 0.38472 0.40117 0.0
N18 N 0.29138 0.39745 0.42533 0.0
C19 C 0.24913 0.36775 0.41024 0.0
C20 C 0.28101 0.39956 0.40861 0.0
C21 C 0.28084 0.38073 0.43465 0.0
C22 C 0.22698 0.35132 0.4017 0.0
C23 C 0.22326 0.33175 0.40923 0.0
C24 C 0.20416 0.31599 0.40063 0.0
C25 C 0.18799 0.31951 0.3844 0.0
C26 C 0.19086 0.33921 0.37709 0.0
C27 C 0.21023 0.35489 0.38559 0.0
C28 C 0.29401 0.41753 0.3985 0.0
C29 C 0.27485 0.42392 0.38369 0.0
C30 C 0.28773 0.44069 0.37403 0.0
C31 C 0.32052 0.45123 0.37876 0.0
C32 C 0.33959 0.44473 0.39362 0.0
C33 C 0.32631 0.42825 0.40344 0.0
C34 C 0.29211 0.37904 0.45299 0.0
C35 C 0.30461 0.39658 0.46193 0.0
C36 C 0.2018 0.10525 0.98064 0.0
C37 C 0.19979 0.12461 0.98855 0.0
C38 C 0.20715 0.14226 0.97862 0.0
C39 C 0.21657 0.14054 0.96114 0.0
H40 H 0.30169 0.16139 0.92139 0.0
H41 H 0.33586 0.18756 0.90519 0.0
H42 H 0.28044 0.16792 0.85844 0.0
H43 H 0.2484 0.14117 0.87445 0.0
H44 H 0.24873 0.0855 0.8779 0.0
H45 H 0.22615 0.05591 0.86154 0.0
H46 H 0.1437 0.04379 0.90082 0.0
H47 H 0.16646 0.0733 0.91736 0.0
H48 H 0.21149 0.08838 0.9574 0.0
H49 H 0.19599 0.09141 0.98795 0.0
H50 H 0.20595 0.15737 0.98444 0.0
H51 H 0.22204 0.15441 0.95382 0.0
N52 N 0.24532 0.13438 0.92593 0.0
N53 N 0.24101 0.11547 0.90021 0.0
N54 N 0.21515 0.10222 0.92568 0.0
C55 C 0.25262 0.13257 0.90876 0.0
C56 C 0.22232 0.10022 0.90855 0.0
C57 C 0.22656 0.11921 0.93447 0.0
C58 C 0.27251 0.1491 0.89921 0.0
C59 C 0.29695 0.1627 0.90764 0.0
C60 C 0.31642 0.17781 0.89831 0.0
C61 C 0.31134 0.17996 0.88035 0.0
C62 C 0.28617 0.16653 0.87209 0.0
C63 C 0.2674 0.15121 0.88133 0.0
C64 C 0.20934 0.08182 0.89893 0.0
C65 C 0.22586 0.07651 0.8831 0.0
C66 C 0.2131 0.05949 0.87377 0.0
C67 C 0.18314 0.04758 0.87989 0.0
C68 C 0.16669 0.0528 0.89574 0.0
C69 C 0.17987 0.06962 0.90524 0.0
C70 C 0.21804 0.12116 0.95315 0.0
C71 C 0.2105 0.10355 0.96311 0.0
C72 C 0.81954 0.10568 0.5303 0.0
C73 C 0.8151 0.12426 0.52135 0.0
C74 C 0.80009 0.14118 0.53015 0.0
C75 C 0.78997 0.13959 0.54755 0.0
H76 H 0.74568 0.17288 0.59001 0.0
H77 H 0.71384 0.2 0.60605 0.0
H78 H 0.68983 0.15708 0.64712 0.0
H79 H 0.72119 0.13011 0.63125 0.0
H80 H 0.77201 0.0918 0.63515 0.0
H81 H 0.79374 0.06284 0.65202 0.0
H82 H 0.8528 0.03983 0.60757 0.0
H83 H 0.83036 0.0686 0.59048 0.0
H84 H 0.81379 0.08957 0.55419 0.0
H85 H 0.83134 0.09243 0.52394 0.0
H86 H 0.79596 0.15565 0.52355 0.0
H87 H 0.77864 0.15296 0.55392 0.0
N88 N 0.76595 0.1346 0.58327 0.0
N89 N 0.76762 0.11592 0.60913 0.0
N90 N 0.79556 0.10257 0.58432 0.0
C91 C 0.75694 0.13288 0.60027 0.0
C92 C 0.78701 0.10073 0.60132 0.0
C93 C 0.7851 0.11939 0.57517 0.0
C94 C 0.73618 0.14931 0.60935 0.0
C95 C 0.73335 0.1692 0.6024 0.0
C96 C 0.71531 0.18477 0.61162 0.0
C97 C 0.69929 0.18068 0.62785 0.0
C98 C 0.70149 0.16069 0.63458 0.0
C99 C 0.71978 0.14525 0.6255 0.0
C100 C 0.79947 0.08265 0.61142 0.0
C101 C 0.78952 0.08057 0.62889 0.0
C102 C 0.80219 0.06399 0.63864 0.0
C103 C 0.82523 0.04904 0.6312 0.0
C104 C 0.83478 0.05093 0.61367 0.0
C105 C 0.82204 0.06752 0.60388 0.0
C106 C 0.79488 0.12107 0.55658 0.0
C107 C 0.80968 0.10412 0.54771 0.0
C108 C 0.68925 0.39464 0.03136 0.0
C109 C 0.69567 0.37662 0.02188 0.0
C110 C 0.71284 0.35995 0.03015 0.0
C111 C 0.72304 0.36123 0.04753 0.0
H112 H 0.76321 0.32663 0.09035 0.0
H113 H 0.79494 0.29926 0.10611 0.0
H114 H 0.82175 0.34202 0.14687 0.0
H115 H 0.79033 0.36923 0.13129 0.0
H116 H 0.72549 0.40384 0.13688 0.0
H117 H 0.70248 0.43255 0.15362 0.0
H118 H 0.67215 0.4639 0.10658 0.0
H119 H 0.69399 0.43477 0.08979 0.0
H120 H 0.69375 0.41006 0.05554 0.0
H121 H 0.67668 0.4079 0.02533 0.0
H122 H 0.71781 0.34575 0.02329 0.0
H123 H 0.7359 0.34804 0.05352 0.0
N124 N 0.74483 0.3652 0.0836 0.0
N125 N 0.74298 0.38356 0.10962 0.0
N126 N 0.71576 0.39734 0.08485 0.0
C127 C 0.75359 0.36668 0.10063 0.0
C128 C 0.72402 0.39893 0.10186 0.0
C129 C 0.72602 0.38058 0.0756 0.0
C130 C 0.77409 0.35012 0.10957 0.0
C131 C 0.7761 0.3302 0.10261 0.0
C132 C 0.79407 0.31451 0.11167 0.0
C133 C 0.81085 0.31852 0.12771 0.0
C134 C 0.80943 0.3385 0.13446 0.0
C135 C 0.79115 0.35407 0.12556 0.0
C136 C 0.71152 0.41692 0.11197 0.0
C137 C 0.71406 0.41686 0.13006 0.0
C138 C 0.70104 0.43344 0.13969 0.0
C139 C 0.68546 0.4506 0.13148 0.0
C140 C 0.68343 0.4508 0.11336 0.0
C141 C 0.69618 0.43413 0.10372 0.0
C142 C 0.71618 0.37919 0.05705 0.0
C143 C 0.69929 0.3959 0.04871 0.0
C144 C 0.69323 0.60456 0.52809 0.0
C145 C 0.70022 0.62286 0.51897 0.0
C146 C 0.71975 0.63881 0.52729 0.0
C147 C 0.73141 0.63664 0.54441 0.0
H148 H 0.78884 0.66662 0.58431 0.0
H149 H 0.81953 0.69436 0.60026 0.0
H150 H 0.81322 0.65821 0.6469 0.0
H151 H 0.78242 0.63074 0.63123 0.0
H152 H 0.72283 0.59518 0.63315 0.0
H153 H 0.69847 0.56664 0.64986 0.0
H154 H 0.68513 0.53112 0.6031 0.0
H155 H 0.70787 0.56024 0.58625 0.0
H156 H 0.69857 0.5881 0.55176 0.0
H157 H 0.67893 0.5918 0.52199 0.0
H158 H 0.72535 0.65318 0.5207 0.0
H159 H 0.74589 0.64936 0.55048 0.0
N160 N 0.75386 0.63153 0.58022 0.0
N161 N 0.75046 0.61306 0.60614 0.0
N162 N 0.72305 0.5996 0.58119 0.0
C163 C 0.76223 0.62989 0.59728 0.0
C164 C 0.73098 0.59785 0.59824 0.0
C165 C 0.73429 0.6164 0.57207 0.0
C166 C 0.78274 0.64647 0.60648 0.0
C167 C 0.79413 0.66455 0.59795 0.0
C168 C 0.81188 0.68042 0.60706 0.0
C169 C 0.81843 0.67855 0.62488 0.0
C170 C 0.80794 0.66028 0.63325 0.0
C171 C 0.79038 0.64447 0.6242 0.0
C172 C 0.7173 0.58002 0.60835 0.0
C173 C 0.71482 0.58127 0.62641 0.0
C174 C 0.70102 0.56477 0.63604 0.0
C175 C 0.6899 0.54641 0.62791 0.0
C176 C 0.6928 0.54509 0.60983 0.0
C177 C 0.70608 0.56175 0.60015 0.0
C178 C 0.72374 0.61847 0.55363 0.0
C179 C 0.70477 0.6024 0.54518 0.0
C180 C 0.80458 0.89656 0.02842 0.0
C181 C 0.80452 0.87722 0.0204 0.0
C182 C 0.79344 0.85988 0.02995 0.0
C183 C 0.7826 0.86186 0.04721 0.0
H184 H 0.7242 0.83178 0.08695 0.0
H185 H 0.69297 0.80428 0.10294 0.0
H186 H 0.68936 0.84299 0.14815 0.0
H187 H 0.72105 0.87015 0.13246 0.0
H188 H 0.78442 0.90503 0.13467 0.0
H189 H 0.80824 0.93381 0.15119 0.0
H190 H 0.82059 0.96916 0.10424 0.0
H191 H 0.79839 0.93979 0.08758 0.0
H192 H 0.79492 0.91364 0.05152 0.0
H193 H 0.81328 0.91017 0.02139 0.0
H194 H 0.79289 0.84481 0.02403 0.0
H195 H 0.77436 0.84818 0.05424 0.0
N196 N 0.75437 0.86798 0.08211 0.0
N197 N 0.75728 0.88674 0.10788 0.0
N198 N 0.78399 0.90028 0.08273 0.0
C199 C 0.74601 0.86972 0.09917 0.0
C200 C 0.77623 0.90206 0.09981 0.0
C201 C 0.77327 0.88326 0.0738 0.0
C202 C 0.72554 0.85316 0.10842 0.0
C203 C 0.71667 0.83444 0.10029 0.0
C204 C 0.69858 0.8187 0.10943 0.0
C205 C 0.68898 0.82136 0.12689 0.0
C206 C 0.69705 0.84025 0.13484 0.0
C207 C 0.71512 0.85591 0.12576 0.0
C208 C 0.78949 0.92008 0.10979 0.0
C209 C 0.79208 0.91895 0.12784 0.0
C210 C 0.80556 0.93559 0.13737 0.0
C211 C 0.81626 0.95398 0.12914 0.0
C212 C 0.81324 0.95518 0.11105 0.0
C213 C 0.80027 0.93837 0.10147 0.0
C214 C 0.78318 0.88118 0.05532 0.0
C215 C 0.79424 0.89851 0.04571 0.0
C216 C 0.17793 0.89034 0.47587 0.0
C217 C 0.19745 0.87781 0.48747 0.0
C218 C 0.22845 0.86687 0.48131 0.0
C219 C 0.23938 0.86836 0.464 0.0
H220 H 0.29082 0.83403 0.422 0.0
H221 H 0.32028 0.80639 0.40542 0.0
H222 H 0.30043 0.83985 0.35829 0.0
H223 H 0.27137 0.86711 0.37445 0.0
H224 H 0.21119 0.90122 0.37376 0.0
H225 H 0.18788 0.92936 0.35655 0.0
H226 H 0.19134 0.96897 0.40136 0.0
H227 H 0.2126 0.94017 0.41884 0.0
H228 H 0.17332 0.90187 0.45021 0.0
H229 H 0.1534 0.8986 0.47989 0.0
H230 H 0.24461 0.85732 0.48987 0.0
H231 H 0.2633 0.85977 0.45965 0.0
N232 N 0.25075 0.86787 0.4262 0.0
N233 N 0.24677 0.88593 0.40011 0.0
N234 N 0.21966 0.89953 0.42496 0.0
C235 C 0.25872 0.86934 0.40905 0.0
C236 C 0.2275 0.90108 0.40792 0.0
C237 C 0.23105 0.88297 0.4342 0.0
C238 C 0.27838 0.85277 0.39961 0.0
C239 C 0.29289 0.83549 0.40811 0.0
C240 C 0.30987 0.81972 0.39865 0.0
C241 C 0.31218 0.8209 0.38056 0.0
C242 C 0.29846 0.83835 0.37219 0.0
C243 C 0.28191 0.85406 0.38155 0.0
C244 C 0.21381 0.91853 0.39763 0.0
C245 C 0.20702 0.91596 0.37994 0.0
C246 C 0.1939 0.93221 0.37002 0.0
C247 C 0.18802 0.95164 0.37745 0.0
C248 C 0.19498 0.95421 0.3952 0.0
C249 C 0.20738 0.93775 0.40523 0.0
C250 C 0.21999 0.8811 0.45255 0.0
C251 C 0.18925 0.89211 0.45872 0.0
C252 C 0.3108 0.60308 0.97915 0.0
C253 C 0.31196 0.62231 0.98733 0.0
C254 C 0.30234 0.6399 0.97787 0.0
C255 C 0.29175 0.6383 0.96056 0.0
H256 H 0.2453 0.67141 0.91784 0.0
H257 H 0.21487 0.69851 0.90138 0.0
H258 H 0.17998 0.65369 0.86346 0.0
H259 H 0.21153 0.62699 0.87944 0.0
H260 H 0.26663 0.58989 0.87394 0.0
H261 H 0.29022 0.56198 0.85642 0.0
H262 H 0.35259 0.53942 0.89998 0.0
H263 H 0.32836 0.56722 0.91775 0.0
H264 H 0.3005 0.58645 0.95582 0.0
H265 H 0.31831 0.58929 0.9861 0.0
H266 H 0.30278 0.65491 0.98392 0.0
H267 H 0.28459 0.65216 0.95361 0.0
N268 N 0.26172 0.63253 0.92578 0.0
N269 N 0.26292 0.61384 0.89994 0.0
N270 N 0.29157 0.60055 0.92458 0.0
C271 C 0.25226 0.63074 0.90885 0.0
C272 C 0.28271 0.59872 0.90761 0.0
C273 C 0.28111 0.61735 0.93377 0.0
C274 C 0.23126 0.64708 0.89986 0.0
C275 C 0.23094 0.66738 0.90603 0.0
C276 C 0.21333 0.6829 0.89661 0.0
C277 C 0.19528 0.67841 0.88091 0.0
C278 C 0.19444 0.65792 0.87519 0.0
C279 C 0.21238 0.64252 0.88445 0.0
C280 C 0.2957 0.58095 0.89729 0.0
C281 C 0.28524 0.57898 0.87988 0.0
C282 C 0.29897 0.56301 0.86976 0.0
C283 C 0.3236 0.54857 0.87673 0.0
C284 C 0.33345 0.5502 0.89423 0.0
C285 C 0.31965 0.56621 0.90441 0.0
C286 C 0.29118 0.61909 0.95226 0.0
C287 C 0.30081 0.6015 0.96177 0.0
Tb288 Tb 0.04913 0.13867 0.23769 0.0
C289 C 0.88427 0.12645 0.25368 0.0
N290 N 0.90553 0.14351 0.25635 0.0
C291 C 0.85813 0.16431 0.24348 0.0
C292 C 0.84973 0.12755 0.24516 0.0
C293 C 0.89168 0.16247 0.25242 0.0
C294 C 0.83734 0.14675 0.23955 0.0
C295 C 0.87323 0.09037 0.2598 0.0
C296 C 0.89581 0.10809 0.26077 0.0
C297 C 0.83967 0.09111 0.25059 0.0
C298 C 0.82801 0.10966 0.24322 0.0
Tb299 Tb 0.96099 0.13803 0.2702 0.0
N300 N 0.9287 0.10787 0.2693 0.0
C301 C 0.88459 0.07267 0.26856 0.0
C302 C 0.93889 0.09111 0.27876 0.0
C303 C 0.91723 0.07318 0.27834 0.0
H304 H 0.90608 0.17632 0.25629 0.0
H305 H 0.92568 0.05978 0.28553 0.0
H306 H 0.10922 0.11127 0.26016 0.0
H307 H 0.05579 0.216 0.21176 0.0
H308 H 0.96399 0.09158 0.2864 0.0
H309 H 0.86793 0.05875 0.26822 0.0
H310 H 0.0288 0.18166 0.21544 0.0
H311 H 0.84803 0.17932 0.23991 0.0
H312 H 0.82209 0.07759 0.24948 0.0
H313 H 0.80154 0.11016 0.23658 0.0
H314 H 0.1705 0.1166 0.27358 0.0
H315 H 0.81102 0.14827 0.23291 0.0
H316 H 0.11628 0.22458 0.22513 0.0
N317 N 0.10444 0.14217 0.25157 0.0
C318 C 0.12195 0.16056 0.24947 0.0
C319 C 0.15698 0.12917 0.26701 0.0
C320 C 0.15765 0.16408 0.2564 0.0
C321 C 0.12187 0.12629 0.25964 0.0
C322 C 0.17488 0.14819 0.26547 0.0
N323 N 0.07002 0.17157 0.23325 0.0
C324 C 0.05342 0.18553 0.22263 0.0
C325 C 0.12176 0.19488 0.2374 0.0
C326 C 0.10398 0.17581 0.24021 0.0
C327 C 0.1036 0.20969 0.22751 0.0
C328 C 0.06937 0.20494 0.22002 0.0
H329 H 0.2023 0.15029 0.271 0.0
H330 H 0.20299 0.18597 0.25863 0.0
H331 H 0.17215 0.21257 0.24133 0.0
O332 O 0.07665 0.14276 0.2139 0.0
O333 O 0.05424 0.15156 0.264 0.0
O334 O 0.99691 0.16531 0.27004 0.0
O335 O 0.07413 0.11312 0.22591 0.0
O336 O 0.99779 0.15351 0.22885 0.0
O337 O 0.96862 0.16531 0.25366 0.0
O338 O 0.96963 0.13409 0.29686 0.0
O339 O 0.96948 0.11267 0.2519 0.0
O340 O 0.99515 0.12799 0.22805 0.0
O341 O 0.91981 0.14805 0.28748 0.0
O342 O 0.01286 0.12362 0.27824 0.0
O343 O 0.04215 0.11111 0.25377 0.0
C344 C 0.0334 0.16563 0.27134 0.0
C345 C 0.07198 0.1144 0.19526 0.0
C346 C 0.07577 0.11425 0.16373 0.0
C347 C 0.04706 0.09954 0.16326 0.0
C348 C 0.04387 0.09934 0.19442 0.0
C349 C 0.03142 0.09211 0.17851 0.0
C350 C 0.08833 0.12161 0.17982 0.0
C351 C 0.97478 0.16598 0.23689 0.0
C352 C 0.08318 0.12331 0.21204 0.0
C353 C 0.17531 0.18308 0.25366 0.0
C354 C 0.15758 0.19832 0.244 0.0
C355 C 0.97402 0.11379 0.23513 0.0
C356 C 0.93894 0.15676 0.31569 0.0
C357 C 0.92978 0.16249 0.3466 0.0
C358 C 0.93655 0.18361 0.34385 0.0
C359 C 0.9461 0.17774 0.31331 0.0
C360 C 0.93122 0.14916 0.3323 0.0
C361 C 0.94492 0.19108 0.32738 0.0
C362 C 0.03337 0.10987 0.2703 0.0
C363 C 0.93828 0.14247 0.30105 0.0
H364 H 0.03709 0.09356 0.15106 0.0
H365 H 0.0312 0.0933 0.20605 0.0
H366 H 0.0094 0.08076 0.178 0.0
H367 H 0.11018 0.13315 0.18029 0.0
H368 H 0.93478 0.1945 0.35436 0.0
H369 H 0.95212 0.18379 0.30058 0.0
H370 H 0.92643 0.13283 0.334 0.0
H371 H 0.95008 0.20733 0.32549 0.0
Tb372 Tb 0.46861 0.36127 0.73648 0.0
C373 C 0.62976 0.37754 0.75925 0.0
N374 N 0.6093 0.35985 0.75986 0.0
C375 C 0.66095 0.34126 0.74803 0.0
C376 C 0.66618 0.37784 0.75248 0.0
C377 C 0.62538 0.34162 0.75532 0.0
C378 C 0.68125 0.3595 0.74635 0.0
C379 C 0.63612 0.41352 0.76718 0.0
C380 C 0.6151 0.39518 0.76652 0.0
C381 C 0.67191 0.41403 0.75995 0.0
C382 C 0.68694 0.39622 0.75269 0.0
Tb383 Tb 0.55154 0.36304 0.77226 0.0
N384 N 0.58017 0.39426 0.77318 0.0
C385 C 0.62074 0.43064 0.7754 0.0
C386 C 0.56579 0.41051 0.78205 0.0
C387 C 0.58557 0.42906 0.78303 0.0
H388 H 0.61166 0.32711 0.7577 0.0
H389 H 0.57381 0.44206 0.78974 0.0
H390 H 0.40756 0.39401 0.7534 0.0
H391 H 0.45477 0.28211 0.71609 0.0
H392 H 0.53895 0.40915 0.78823 0.0
H393 H 0.63603 0.44501 0.7762 0.0
H394 H 0.48635 0.31553 0.71869 0.0
H395 H 0.67306 0.32682 0.7441 0.0
H396 H 0.68849 0.42799 0.76025 0.0
H397 H 0.71511 0.39666 0.74775 0.0
H398 H 0.34401 0.39256 0.76479 0.0
H399 H 0.70908 0.3591 0.74099 0.0
H400 H 0.39084 0.27754 0.72734 0.0
N401 N 0.40971 0.36207 0.74745 0.0
C402 C 0.38982 0.34432 0.74598 0.0
C403 C 0.35672 0.3788 0.75977 0.0
C404 C 0.35281 0.34296 0.75191 0.0
C405 C 0.39329 0.37942 0.75367 0.0
C406 C 0.33645 0.36046 0.75903 0.0
N407 N 0.44253 0.32944 0.73288 0.0
C408 C 0.45936 0.31359 0.72448 0.0
C409 C 0.38714 0.30876 0.73676 0.0
C410 C 0.4068 0.32746 0.7385 0.0
C411 C 0.40494 0.29219 0.72888 0.0
C412 C 0.44111 0.29467 0.72261 0.0
H413 H 0.30803 0.36008 0.76368 0.0
H414 H 0.30485 0.32293 0.75492 0.0
H415 H 0.33493 0.29296 0.74171 0.0
O416 O 0.45498 0.35622 0.71049 0.0
O417 O 0.45838 0.34645 0.76174 0.0
O418 O 0.51578 0.33576 0.77207 0.0
O419 O 0.44795 0.38606 0.72188 0.0
O420 O 0.52006 0.34464 0.73052 0.0
O421 O 0.54846 0.33491 0.7563 0.0
O422 O 0.54085 0.36704 0.79877 0.0
O423 O 0.54638 0.38817 0.75346 0.0
O424 O 0.52563 0.3701 0.73049 0.0
O425 O 0.59136 0.35306 0.79012 0.0
O426 O 0.49696 0.37577 0.77829 0.0
O427 O 0.47345 0.38884 0.75278 0.0
C428 C 0.47924 0.33474 0.77163 0.0
C429 C 0.40916 0.37697 0.69809 0.0
C430 C 0.37853 0.37837 0.66995 0.0
C431 C 0.34406 0.37999 0.67843 0.0
C432 C 0.3745 0.37864 0.70623 0.0
C433 C 0.34215 0.38013 0.69642 0.0
C434 C 0.41105 0.37675 0.67995 0.0
C435 C 0.54125 0.33232 0.73972 0.0
C436 C 0.44373 0.37488 0.70805 0.0
C437 C 0.33329 0.32429 0.7504 0.0
C438 C 0.35042 0.30723 0.74287 0.0
C439 C 0.54162 0.38644 0.7368 0.0
C440 C 0.56994 0.34392 0.81776 0.0
C441 C 0.58184 0.33683 0.84809 0.0
C442 C 0.57231 0.31613 0.84531 0.0
C443 C 0.56009 0.32327 0.81516 0.0
C444 C 0.58027 0.3507 0.83425 0.0
C445 C 0.56119 0.30946 0.82895 0.0
C446 C 0.47765 0.38945 0.7697 0.0
C447 C 0.57179 0.35852 0.8034 0.0
H448 H 0.31844 0.38091 0.67116 0.0
H449 H 0.37229 0.37876 0.72009 0.0
H450 H 0.31545 0.38133 0.70278 0.0
H451 H 0.43789 0.37555 0.67366 0.0
H452 H 0.57331 0.30517 0.85582 0.0
H453 H 0.55209 0.31782 0.80248 0.0
H454 H 0.58821 0.36664 0.83621 0.0
H455 H 0.5539 0.2935 0.82692 0.0
Tb456 Tb 0.0451 0.85857 0.7379 0.0
C457 C 0.87703 0.84877 0.76258 0.0
N458 N 0.89893 0.86586 0.76182 0.0
C459 C 0.84737 0.88566 0.75174 0.0
C460 C 0.8393 0.84945 0.75776 0.0
C461 C 0.88461 0.88426 0.7567 0.0
C462 C 0.82463 0.86818 0.75219 0.0
C463 C 0.87108 0.81231 0.7687 0.0
C464 C 0.89282 0.83039 0.76789 0.0
C465 C 0.83333 0.81297 0.76411 0.0
C466 C 0.81753 0.83147 0.75859 0.0
Tb467 Tb 0.9584 0.86145 0.77109 0.0
N468 N 0.92998 0.83005 0.77129 0.0
C469 C 0.88822 0.79399 0.77362 0.0
C470 C 0.94651 0.81237 0.77663 0.0
C471 C 0.92605 0.79405 0.77764 0.0
H472 H 0.90143 0.89804 0.757 0.0
H473 H 0.93944 0.78001 0.78164 0.0
H474 H 0.1045 0.82397 0.75254 0.0
H475 H 0.06193 0.93881 0.7214 0.0
H476 H 0.97516 0.81226 0.78041 0.0
H477 H 0.87253 0.77974 0.77435 0.0
H478 H 0.02848 0.90594 0.72341 0.0
H479 H 0.83612 0.9003 0.7478 0.0
H480 H 0.81623 0.79921 0.76457 0.0
H481 H 0.78847 0.83169 0.75494 0.0
H482 H 0.16928 0.82334 0.76282 0.0
H483 H 0.79577 0.86934 0.74835 0.0
H484 H 0.1272 0.94136 0.73115 0.0
N485 N 0.10465 0.85609 0.74772 0.0
C486 C 0.12525 0.87364 0.74713 0.0
C487 C 0.15714 0.83764 0.75859 0.0
C488 C 0.16273 0.87392 0.7524 0.0
C489 C 0.12017 0.83811 0.75305 0.0
C490 C 0.17849 0.85565 0.75834 0.0
N491 N 0.07241 0.89035 0.73606 0.0
C492 C 0.05594 0.907 0.72871 0.0
C493 C 0.12941 0.90971 0.73957 0.0
C494 C 0.10873 0.89131 0.74091 0.0
C495 C 0.11211 0.92703 0.73269 0.0
C496 C 0.07525 0.92564 0.72718 0.0
H497 H 0.20723 0.8552 0.76249 0.0
H498 H 0.21224 0.89279 0.75522 0.0
H499 H 0.18329 0.92398 0.74368 0.0
O500 O 0.04337 0.86294 0.71088 0.0
O501 O 0.05364 0.87557 0.76222 0.0
O502 O 0.99597 0.88815 0.77014 0.0
O503 O 0.0767 0.83921 0.72212 0.0
O504 O 0.99323 0.87347 0.72953 0.0
O505 O 0.96657 0.8877 0.75395 0.0
O506 O 0.96177 0.85531 0.79774 0.0
O507 O 0.94898 0.84445 0.74677 0.0
O508 O 0.00701 0.83271 0.74021 0.0
O509 O 0.92218 0.87684 0.78786 0.0
O510 O 0.01036 0.84722 0.77981 0.0
O511 O 0.03774 0.83278 0.75574 0.0
C512 C 0.03263 0.88879 0.77051 0.0
C513 C 0.09901 0.85402 0.69626 0.0
C514 C 0.12255 0.85805 0.66693 0.0
C515 C 0.15868 0.86044 0.67347 0.0
C516 C 0.13542 0.85653 0.70255 0.0
C517 C 0.16497 0.85985 0.6912 0.0
C518 C 0.09263 0.85506 0.67837 0.0
C519 C 0.97117 0.88682 0.73711 0.0
C520 C 0.06806 0.84881 0.70802 0.0
C521 C 0.18334 0.89227 0.7513 0.0
C522 C 0.16679 0.91008 0.7448 0.0
C523 C 0.97132 0.83329 0.73722 0.0
C524 C 0.94303 0.88212 0.81624 0.0
C525 C 0.9336 0.89048 0.84654 0.0
C526 C 0.95164 0.90944 0.8439 0.0
C527 C 0.96105 0.90106 0.81382 0.0
C528 C 0.92977 0.87673 0.83268 0.0
C529 C 0.9656 0.91459 0.82763 0.0
C530 C 0.0332 0.83405 0.77258 0.0
C531 C 0.93582 0.86837 0.8016 0.0
H532 H 0.18202 0.86278 0.66482 0.0
H533 H 0.14131 0.85547 0.71616 0.0
H534 H 0.19292 0.86165 0.69615 0.0
H535 H 0.06475 0.85293 0.67334 0.0
H536 H 0.95494 0.92022 0.85445 0.0
H537 H 0.97083 0.90545 0.80118 0.0
H538 H 0.91539 0.8622 0.83456 0.0
H539 H 0.97946 0.92923 0.82567 0.0
Tb540 Tb 0.45713 0.63751 0.23782 0.0
C541 C 0.62087 0.66063 0.25979 0.0
N542 N 0.60304 0.64237 0.25765 0.0
C543 C 0.65615 0.62897 0.24278 0.0
C544 C 0.65664 0.66407 0.25285 0.0
C545 C 0.62067 0.62637 0.24987 0.0
C546 C 0.67411 0.64797 0.24414 0.0
C547 C 0.6208 0.695 0.27171 0.0
C548 C 0.60318 0.67581 0.26914 0.0
C549 C 0.65607 0.69872 0.26446 0.0
C550 C 0.67399 0.68326 0.2551 0.0
Tb551 Tb 0.54617 0.63934 0.27046 0.0
N552 N 0.56886 0.67172 0.27579 0.0
C553 C 0.60241 0.70987 0.28146 0.0
C554 C 0.55191 0.6858 0.28616 0.0
C555 C 0.56799 0.70516 0.28885 0.0
H556 H 0.60799 0.61143 0.24947 0.0
H557 H 0.55411 0.71632 0.29691 0.0
H558 H 0.39939 0.67393 0.25281 0.0
H559 H 0.42753 0.55887 0.2213 0.0
H560 H 0.52673 0.68204 0.29295 0.0
H561 H 0.61489 0.72484 0.28366 0.0
H562 H 0.46326 0.59155 0.22086 0.0
H563 H 0.66984 0.61623 0.23652 0.0
H564 H 0.66989 0.71342 0.26619 0.0
H565 H 0.70142 0.68623 0.24983 0.0
H566 H 0.34182 0.67514 0.26977 0.0
H567 H 0.70177 0.64987 0.23881 0.0
H568 H 0.36998 0.55612 0.23878 0.0
N569 N 0.40189 0.64121 0.25242 0.0
C570 C 0.38192 0.62361 0.25481 0.0
C571 C 0.35319 0.66047 0.26601 0.0
C572 C 0.34763 0.62362 0.26366 0.0
C573 C 0.3866 0.65967 0.25679 0.0
C574 C 0.33398 0.64231 0.2698 0.0
N575 N 0.42709 0.6066 0.23834 0.0
C576 C 0.43839 0.59032 0.22858 0.0
C577 C 0.37314 0.58757 0.24781 0.0
C578 C 0.39441 0.60581 0.24709 0.0
C579 C 0.38558 0.57041 0.23862 0.0
C580 C 0.41809 0.5719 0.22875 0.0
H581 H 0.30774 0.643 0.27664 0.0
H582 H 0.30108 0.60488 0.27225 0.0
H583 H 0.32341 0.57329 0.2583 0.0
O584 O 0.4636 0.63323 0.21106 0.0
O585 O 0.46716 0.6121 0.25591 0.0
O586 O 0.49126 0.62912 0.279 0.0
O587 O 0.41519 0.64798 0.22113 0.0
O588 O 0.51025 0.6246 0.22949 0.0
O589 O 0.54073 0.61228 0.25367 0.0
O590 O 0.56919 0.64228 0.29543 0.0
O591 O 0.55175 0.6537 0.24477 0.0
O592 O 0.49266 0.66484 0.23737 0.0
O593 O 0.56871 0.61283 0.28195 0.0
O594 O 0.49458 0.65429 0.2787 0.0
O595 O 0.46304 0.66523 0.2542 0.0
C596 C 0.47391 0.61322 0.2725 0.0
C597 C 0.43321 0.65639 0.19262 0.0
C598 C 0.42597 0.66193 0.16158 0.0
C599 C 0.43378 0.68294 0.16416 0.0
C600 C 0.44066 0.67737 0.1949 0.0
C601 C 0.44117 0.69053 0.18068 0.0
C602 C 0.42598 0.64874 0.17599 0.0
C603 C 0.53158 0.61106 0.2372 0.0
C604 C 0.43249 0.64211 0.2073 0.0
C605 C 0.32728 0.60521 0.26534 0.0
C606 C 0.33993 0.58723 0.25736 0.0
C607 C 0.5291 0.66569 0.23604 0.0
C608 C 0.59602 0.61321 0.31078 0.0
C609 C 0.61363 0.61304 0.34119 0.0
C610 C 0.63055 0.5939 0.33884 0.0
C611 C 0.61298 0.594 0.30875 0.0
C612 C 0.59636 0.62274 0.32714 0.0
C613 C 0.63018 0.58446 0.3227 0.0
C614 C 0.47171 0.66692 0.27073 0.0
C615 C 0.57756 0.6229 0.29589 0.0
H616 H 0.43347 0.69364 0.15346 0.0
H617 H 0.44628 0.6835 0.20763 0.0
H618 H 0.44703 0.70672 0.18248 0.0
H619 H 0.42055 0.63245 0.17432 0.0
H620 H 0.64384 0.58621 0.34957 0.0
H621 H 0.61304 0.58634 0.29634 0.0
H622 H 0.58309 0.63748 0.32899 0.0
H623 H 0.6432 0.56965 0.32102 0.0
H624 H 0.20383 0.95979 0.34342 0.0
H625 H 0.17741 0.98621 0.32518 0.0
H626 H 0.11737 0.0105 0.3688 0.0
H627 H 0.14082 0.98281 0.38683 0.0
H628 H 0.07381 0.01008 0.34329 0.0
H629 H 0.19889 0.03424 0.35011 0.0
H630 H 0.26735 0.03246 0.34965 0.0
H631 H 0.26524 0.02013 0.29524 0.0
H632 H 0.19672 0.02158 0.29542 0.0
H633 H 0.03013 0.10565 0.30527 0.0
H634 H 0.05646 0.07849 0.32288 0.0
H635 H 0.09804 0.04866 0.27716 0.0
H636 H 0.07164 0.07594 0.25925 0.0
H637 H 0.15069 0.05207 0.30323 0.0
H638 H 0.02389 0.02724 0.29769 0.0
H639 H 0.95568 0.03039 0.29907 0.0
H640 H 0.96262 0.04715 0.35255 0.0
H641 H 0.03092 0.04384 0.35153 0.0
C642 C 0.18459 0.97052 0.34917 0.0
C643 C 0.1743 0.96894 0.36665 0.0
C644 C 0.17002 0.98594 0.33873 0.0
C645 C 0.14584 0.00063 0.34564 0.0
C646 C 0.13606 0.99938 0.36316 0.0
C647 C 0.14993 0.98365 0.37353 0.0
C648 C 0.12952 0.01674 0.33443 0.0
C649 C 0.09082 0.01945 0.33475 0.0
C650 C 0.15144 0.02873 0.32295 0.0
C651 C 0.19265 0.02784 0.32281 0.0
C652 C 0.21301 0.031 0.33807 0.0
C653 C 0.25183 0.03008 0.33785 0.0
C654 C 0.27062 0.02614 0.32243 0.0
C655 C 0.25064 0.02316 0.30718 0.0
C656 C 0.21182 0.02406 0.30733 0.0
C657 C 0.04466 0.09329 0.29887 0.0
C658 C 0.04886 0.09302 0.28082 0.0
C659 C 0.0596 0.07773 0.30899 0.0
C660 C 0.07888 0.0615 0.3013 0.0
C661 C 0.08319 0.06109 0.28331 0.0
C662 C 0.0681 0.07667 0.27312 0.0
C663 C 0.09531 0.04528 0.3122 0.0
C664 C 0.13393 0.04262 0.31181 0.0
C665 C 0.07348 0.03357 0.32381 0.0
C666 C 0.03246 0.03542 0.3245 0.0
C667 C 0.01085 0.03168 0.30972 0.0
C668 C 0.97218 0.03348 0.31044 0.0
C669 C 0.95482 0.03913 0.32585 0.0
C670 C 0.9761 0.04281 0.34062 0.0
C671 C 0.01477 0.04087 0.34 0.0
H672 H 0.92489 0.04058 0.32636 0.0
H673 H 0.30068 0.02543 0.32229 0.0
H674 H 0.33476 0.50802 0.8848 0.0
H675 H 0.36049 0.48119 0.86628 0.0
H676 H 0.37369 0.52512 0.82501 0.0
H677 H 0.34832 0.55202 0.84345 0.0
H678 H 0.34324 0.48975 0.8135 0.0
H679 H 0.44817 0.50919 0.84864 0.0
H680 H 0.48154 0.51544 0.87593 0.0
H681 H 0.46449 0.45249 0.89071 0.0
H682 H 0.43056 0.44594 0.8636 0.0
H683 H 0.45759 0.42799 0.75911 0.0
H684 H 0.43021 0.45523 0.77676 0.0
H685 H 0.42748 0.41429 0.82058 0.0
H686 H 0.45595 0.38745 0.80323 0.0
H687 H 0.45298 0.44887 0.83059 0.0
H688 H 0.34439 0.42943 0.79765 0.0
H689 H 0.30707 0.42264 0.77154 0.0
H690 H 0.32913 0.48385 0.7534 0.0
H691 H 0.36612 0.4911 0.77953 0.0
C692 C 0.34348 0.51201 0.87184 0.0
C693 C 0.33943 0.53217 0.86562 0.0
C694 C 0.35813 0.49666 0.86126 0.0
C695 C 0.36929 0.50119 0.8443 0.0
C696 C 0.36515 0.52126 0.83803 0.0
C697 C 0.35051 0.5366 0.84859 0.0
C698 C 0.38494 0.48501 0.83297 0.0
C699 C 0.36753 0.48097 0.81713 0.0
C700 C 0.41605 0.47321 0.83789 0.0
C701 C 0.43652 0.47713 0.85417 0.0
C702 C 0.45129 0.49673 0.85777 0.0
C703 C 0.47035 0.50031 0.87319 0.0
C704 C 0.47505 0.48439 0.88506 0.0
C705 C 0.46078 0.46482 0.88151 0.0
C706 C 0.44166 0.46116 0.86612 0.0
C707 C 0.45082 0.42482 0.77247 0.0
C708 C 0.45896 0.40564 0.7798 0.0
C709 C 0.43499 0.44034 0.78254 0.0
C710 C 0.42636 0.4368 0.80001 0.0
C711 C 0.43397 0.41749 0.80719 0.0
C712 C 0.45023 0.40213 0.79724 0.0
C713 C 0.41105 0.45337 0.81112 0.0
C714 C 0.42864 0.45758 0.82692 0.0
C715 C 0.37986 0.46517 0.80626 0.0
C716 C 0.3583 0.46072 0.79042 0.0
C717 C 0.3415 0.44137 0.78802 0.0
C718 C 0.32035 0.43746 0.77325 0.0
C719 C 0.31602 0.45273 0.76075 0.0
C720 C 0.3326 0.47201 0.76306 0.0
C721 C 0.3535 0.47607 0.77788 0.0
H722 H 0.29968 0.44965 0.74932 0.0
H723 H 0.48982 0.48719 0.897 0.0
H724 H 0.63464 0.51885 0.61918 0.0
H725 H 0.60963 0.49073 0.63652 0.0
H726 H 0.68401 0.507 0.67803 0.0
H727 H 0.71131 0.53403 0.66028 0.0
H728 H 0.68112 0.46801 0.67615 0.0
H729 H 0.58776 0.52029 0.677 0.0
H730 H 0.54359 0.54504 0.6646 0.0
H731 H 0.485 0.4958 0.63943 0.0
H732 H 0.52912 0.47079 0.65149 0.0
H733 H 0.57471 0.42309 0.7452 0.0
H734 H 0.60024 0.44896 0.72561 0.0
H735 H 0.56026 0.41411 0.68208 0.0
H736 H 0.53661 0.38743 0.70159 0.0
H737 H 0.54477 0.46118 0.68452 0.0
H738 H 0.64003 0.40918 0.68455 0.0
H739 H 0.68439 0.38534 0.69796 0.0
H740 H 0.73857 0.43584 0.72346 0.0
H741 H 0.69405 0.45997 0.71042 0.0
C742 C 0.64624 0.51626 0.63187 0.0
C743 C 0.67492 0.52892 0.63832 0.0
C744 C 0.63143 0.50033 0.6419 0.0
C745 C 0.64427 0.497 0.65877 0.0
C746 C 0.67336 0.50932 0.66512 0.0
C747 C 0.68866 0.525 0.65499 0.0
C748 C 0.62756 0.48068 0.66985 0.0
C749 C 0.65132 0.46674 0.67809 0.0
C750 C 0.58859 0.47869 0.67223 0.0
C751 C 0.56197 0.4937 0.665 0.0
C752 C 0.56561 0.51476 0.66872 0.0
C753 C 0.54056 0.52883 0.66177 0.0
C754 C 0.51157 0.522 0.65119 0.0
C755 C 0.5075 0.50108 0.64759 0.0
C756 C 0.53251 0.48694 0.65449 0.0
C757 C 0.57204 0.42065 0.7315 0.0
C758 C 0.55471 0.40286 0.725 0.0
C759 C 0.58625 0.43558 0.72032 0.0
C760 C 0.58234 0.43328 0.70245 0.0
C761 C 0.56364 0.41603 0.69587 0.0
C762 C 0.55024 0.40082 0.70705 0.0
C763 C 0.59839 0.44881 0.69068 0.0
C764 C 0.57452 0.46257 0.68243 0.0
C765 C 0.6372 0.45084 0.68847 0.0
C766 C 0.66352 0.43636 0.69662 0.0
C767 C 0.6611 0.41518 0.69318 0.0
C768 C 0.68636 0.40162 0.70066 0.0
C769 C 0.7144 0.40909 0.71147 0.0
C770 C 0.71695 0.4301 0.715 0.0
C771 C 0.6917 0.44372 0.70758 0.0
H772 H 0.73416 0.39858 0.71709 0.0
H773 H 0.49221 0.53292 0.64583 0.0
H774 H 0.7952 0.96626 0.16163 0.0
H775 H 0.82214 0.99349 0.17915 0.0
H776 H 0.89575 0.01008 0.13732 0.0
H777 H 0.87112 0.9817 0.12018 0.0
H778 H 0.93302 0.01091 0.1652 0.0
H779 H 0.8151 0.03891 0.14931 0.0
H780 H 0.74691 0.03986 0.14616 0.0
H781 H 0.73401 0.03475 0.20107 0.0
H782 H 0.80212 0.0335 0.20454 0.0
H783 H 0.96204 0.11538 0.2003 0.0
H784 H 0.936 0.08824 0.18186 0.0
H785 H 0.9201 0.04954 0.22641 0.0
H786 H 0.94881 0.07579 0.24463 0.0
H787 H 0.85483 0.06084 0.19685 0.0
H788 H 0.97589 0.03216 0.21149 0.0
H789 H 0.04422 0.03299 0.21321 0.0
H790 H 0.05125 0.04057 0.15828 0.0
H791 H 0.9828 0.04058 0.15631 0.0
C792 C 0.81744 0.97549 0.15616 0.0
C793 C 0.83099 0.97161 0.13943 0.0
C794 C 0.83243 0.99135 0.16615 0.0
C795 C 0.8606 0.00415 0.1595 0.0
C796 C 0.87393 0.00049 0.14275 0.0
C797 C 0.85944 0.98437 0.13285 0.0
C798 C 0.87697 0.02089 0.1702 0.0
C799 C 0.91584 0.02198 0.17191 0.0
C800 C 0.85468 0.03521 0.17922 0.0
C801 C 0.8137 0.03592 0.17716 0.0
C802 C 0.79771 0.03783 0.1607 0.0
C803 C 0.75907 0.03845 0.15886 0.0
C804 C 0.73614 0.03732 0.1734 0.0
C805 C 0.7518 0.0356 0.18982 0.0
C806 C 0.79042 0.03496 0.19173 0.0
C807 C 0.95325 0.10103 0.20615 0.0
C808 C 0.95713 0.09781 0.224 0.0
C809 C 0.93836 0.0856 0.19561 0.0
C810 C 0.92661 0.06689 0.20281 0.0
C811 C 0.92937 0.06386 0.22064 0.0
C812 C 0.94525 0.079 0.23108 0.0
C813 C 0.91049 0.05066 0.19177 0.0
C814 C 0.87177 0.04975 0.19003 0.0
C815 C 0.93292 0.03668 0.18257 0.0
C816 C 0.9741 0.03697 0.18382 0.0
C817 C 0.9919 0.03456 0.19983 0.0
C818 C 0.03071 0.03475 0.20084 0.0
C819 C 0.05208 0.03697 0.18588 0.0
C820 C 0.03467 0.03892 0.16987 0.0
C821 C 0.99585 0.03889 0.16881 0.0
H822 H 0.08211 0.03708 0.18669 0.0
H823 H 0.70624 0.03781 0.17195 0.0
H824 H 0.85026 0.05044 0.66453 0.0
H825 H 0.87348 0.02222 0.68207 0.0
H826 H 0.85774 0.98049 0.63944 0.0
H827 H 0.83292 0.00856 0.62199 0.0
H828 H 0.83518 0.96288 0.66848 0.0
H829 H 0.94432 0.99848 0.65014 0.0
H830 H 0.98629 0.02804 0.64533 0.0
H831 H 0.99193 0.03863 0.69994 0.0
H832 H 0.94951 0.00929 0.70507 0.0
H833 H 0.95271 0.88431 0.70304 0.0
H834 H 0.92629 0.91133 0.68486 0.0
H835 H 0.92482 0.95246 0.72846 0.0
H836 H 0.95111 0.92552 0.7467 0.0
H837 H 0.9567 0.96953 0.69827 0.0
H838 H 0.84507 0.93292 0.7156 0.0
H839 H 0.80597 0.90187 0.71904 0.0
H840 H 0.80963 0.89144 0.66441 0.0
H841 H 0.84876 0.92243 0.6606 0.0
C842 C 0.8513 0.03523 0.65891 0.0
C843 C 0.83969 0.0318 0.64182 0.0
C844 C 0.86499 0.01913 0.66891 0.0
C845 C 0.86785 0.99926 0.66201 0.0
C846 C 0.85593 0.9957 0.64503 0.0
C847 C 0.84208 0.01181 0.63501 0.0
C848 C 0.88325 0.98226 0.67257 0.0
C849 C 0.86198 0.96426 0.6748 0.0
C850 C 0.91806 0.98407 0.68099 0.0
C851 C 0.94341 0.00181 0.67798 0.0
C852 C 0.95422 0.00723 0.66112 0.0
C853 C 0.97815 0.02392 0.65834 0.0
C854 C 0.99169 0.03525 0.67232 0.0
C855 C 0.98137 0.02987 0.68912 0.0
C856 C 0.9574 0.0132 0.69198 0.0
C857 C 0.94655 0.89908 0.70875 0.0
C858 C 0.9537 0.90278 0.7263 0.0
C859 C 0.93137 0.91446 0.69838 0.0
C860 C 0.92343 0.93383 0.70536 0.0
C861 C 0.93066 0.93758 0.72286 0.0
C862 C 0.94544 0.92215 0.73327 0.0
C863 C 0.90846 0.95039 0.6943 0.0
C864 C 0.92989 0.96825 0.69195 0.0
C865 C 0.87413 0.94832 0.68558 0.0
C866 C 0.8501 0.92989 0.68783 0.0
C867 C 0.83771 0.92394 0.70433 0.0
C868 C 0.81553 0.90637 0.70635 0.0
C869 C 0.80553 0.89463 0.69198 0.0
C870 C 0.81746 0.90053 0.67553 0.0
C871 C 0.83953 0.91813 0.67343 0.0
H872 H 0.78844 0.88101 0.69358 0.0
H873 H 0.01024 0.04816 0.67014 0.0
H874 H 0.62298 0.47346 0.12542 0.0
H875 H 0.59804 0.50129 0.14304 0.0
H876 H 0.68854 0.49445 0.17893 0.0
H877 H 0.71453 0.46712 0.16112 0.0
H878 H 0.61594 0.49511 0.19418 0.0
H879 H 0.69038 0.53368 0.15263 0.0
H880 H 0.70855 0.54384 0.12312 0.0
H881 H 0.59737 0.56423 0.11315 0.0
H882 H 0.57842 0.55392 0.14252 0.0
H883 H 0.57845 0.58009 0.24732 0.0
H884 H 0.60711 0.55419 0.22921 0.0
H885 H 0.5437 0.57565 0.18556 0.0
H886 H 0.51929 0.60342 0.20299 0.0
H887 H 0.60353 0.56693 0.1738 0.0
H888 H 0.52476 0.52849 0.21212 0.0
H889 H 0.4997 0.51693 0.24016 0.0
H890 H 0.60707 0.49406 0.25437 0.0
H891 H 0.63288 0.50573 0.22651 0.0
C892 C 0.63801 0.47809 0.13688 0.0
C893 C 0.67079 0.46799 0.14184 0.0
C894 C 0.62356 0.49392 0.14698 0.0
C895 C 0.64152 0.49988 0.16224 0.0
C896 C 0.67423 0.48996 0.16722 0.0
C897 C 0.6889 0.47427 0.15706 0.0
C898 C 0.62574 0.51618 0.17327 0.0
C899 C 0.61349 0.5109 0.18986 0.0
C900 C 0.62133 0.53651 0.1673 0.0
C901 C 0.63293 0.54287 0.14972 0.0
C902 C 0.66976 0.54019 0.1441 0.0
C903 C 0.6802 0.546 0.12741 0.0
C904 C 0.65411 0.55463 0.11626 0.0
C905 C 0.61754 0.55753 0.12179 0.0
C906 C 0.60695 0.55172 0.13846 0.0
C907 C 0.57125 0.57964 0.23377 0.0
C908 C 0.54708 0.5942 0.2266 0.0
C909 C 0.58706 0.56442 0.22346 0.0
C910 C 0.57709 0.56249 0.20599 0.0
C911 C 0.55219 0.57673 0.19894 0.0
C912 C 0.53789 0.59257 0.20902 0.0
C913 C 0.59302 0.546 0.19492 0.0
C914 C 0.60553 0.55119 0.17826 0.0
C915 C 0.59638 0.52537 0.20062 0.0
C916 C 0.5808 0.51813 0.21729 0.0
C917 C 0.54305 0.52108 0.22126 0.0
C918 C 0.52872 0.51451 0.23712 0.0
C919 C 0.5518 0.50481 0.24905 0.0
C920 C 0.58924 0.50159 0.24512 0.0
C921 C 0.60372 0.50816 0.2293 0.0
H922 H 0.54066 0.49975 0.26133 0.0
H923 H 0.66225 0.55911 0.10334 0.0
H924 H 0.3168 0.45619 0.34352 0.0
H925 H 0.34193 0.48423 0.32622 0.0
H926 H 0.38555 0.51299 0.37214 0.0
H927 H 0.35766 0.48597 0.38973 0.0
H928 H 0.3595 0.54102 0.35219 0.0
H929 H 0.44046 0.48296 0.3426 0.0
H930 H 0.45449 0.44728 0.33421 0.0
H931 H 0.40997 0.45821 0.28369 0.0
H932 H 0.39531 0.49387 0.29184 0.0
H933 H 0.47722 0.61152 0.30786 0.0
H934 H 0.4538 0.58417 0.32664 0.0
H935 H 0.4159 0.55043 0.28195 0.0
H936 H 0.44348 0.57632 0.26336 0.0
H937 H 0.44036 0.52493 0.30222 0.0
H938 H 0.35734 0.58254 0.31161 0.0
H939 H 0.34175 0.61804 0.31995 0.0
H940 H 0.3881 0.60804 0.37027 0.0
H941 H 0.40433 0.57259 0.36216 0.0
C942 C 0.33104 0.46864 0.35006 0.0
C943 C 0.33529 0.46859 0.36812 0.0
C944 C 0.34602 0.48455 0.34006 0.0
C945 C 0.36654 0.5005 0.3478 0.0
C946 C 0.37016 0.50076 0.36582 0.0
C947 C 0.35455 0.48509 0.37587 0.0
C948 C 0.3843 0.5169 0.33717 0.0
C949 C 0.3775 0.53751 0.34136 0.0
C950 C 0.40723 0.51238 0.32282 0.0
C951 C 0.41657 0.49102 0.31787 0.0
C952 C 0.43353 0.47771 0.32973 0.0
C953 C 0.4416 0.4575 0.32501 0.0
C954 C 0.43306 0.45047 0.30844 0.0
C955 C 0.41655 0.46366 0.29653 0.0
C956 C 0.40841 0.48388 0.30117 0.0
C957 C 0.46406 0.5982 0.30206 0.0
C958 C 0.4608 0.59652 0.28404 0.0
C959 C 0.45022 0.58266 0.31283 0.0
C960 C 0.4317 0.56547 0.30582 0.0
C961 C 0.4295 0.56358 0.28781 0.0
C962 C 0.44459 0.57869 0.2771 0.0
C963 C 0.41512 0.54918 0.31703 0.0
C964 C 0.42226 0.52853 0.313 0.0
C965 C 0.39224 0.55368 0.33143 0.0
C966 C 0.38226 0.57498 0.33624 0.0
C967 C 0.36434 0.58796 0.32442 0.0
C968 C 0.35539 0.60807 0.32911 0.0
C969 C 0.36397 0.61528 0.34563 0.0
C970 C 0.38148 0.60242 0.35748 0.0
C971 C 0.39053 0.58233 0.35285 0.0
H972 H 0.35701 0.6308 0.34931 0.0
H973 H 0.43929 0.43481 0.30483 0.0
H974 H 0.11099 0.03926 0.87138 0.0
H975 H 0.08732 0.01154 0.85308 0.0
H976 H 0.19879 0.98843 0.84705 0.0
H977 H 0.22262 0.01668 0.86481 0.0
H978 H 0.16782 0.98773 0.81771 0.0
H979 H 0.1279 0.96459 0.87334 0.0
H980 H 0.09702 0.96624 0.90172 0.0
H981 H 0.99173 0.9756 0.87701 0.0
H982 H 0.02205 0.97432 0.84848 0.0
H983 H 0.1046 0.89089 0.78217 0.0
H984 H 0.13265 0.91772 0.80024 0.0
H985 H 0.02989 0.95138 0.79925 0.0
H986 H 0.00237 0.92528 0.78047 0.0
H987 H 0.05799 0.94483 0.8328 0.0
H988 H 0.09918 0.97199 0.77804 0.0
H989 H 0.13015 0.97212 0.74966 0.0
H990 H 0.23259 0.95385 0.77335 0.0
H991 H 0.20224 0.95394 0.80195 0.0
C992 C 0.13034 0.02812 0.86628 0.0
C993 C 0.16862 0.03008 0.86955 0.0
C994 C 0.11679 0.0122 0.85588 0.0
C995 C 0.14111 0.99757 0.84887 0.0
C996 C 0.17937 0.99945 0.85228 0.0
C997 C 0.193 0.01559 0.86244 0.0
C998 C 0.12695 0.98092 0.83734 0.0
C999 C 0.14426 0.9781 0.82125 0.0
C1000 C 0.09559 0.96857 0.84161 0.0
C1001 C 0.07734 0.96956 0.85877 0.0
C1002 C 0.09822 0.96719 0.87396 0.0
C1003 C 0.0808 0.96803 0.89007 0.0
C1004 C 0.04246 0.97107 0.89117 0.0
C1005 C 0.02144 0.97327 0.87615 0.0
C1006 C 0.03872 0.97248 0.86 0.0
C1007 C 0.08815 0.90415 0.78558 0.0
C1008 C 0.05088 0.90566 0.78027 0.0
C1009 C 0.1042 0.91944 0.79594 0.0
C1010 C 0.08318 0.93642 0.80125 0.0
C1011 C 0.04644 0.93828 0.79548 0.0
C1012 C 0.03067 0.92324 0.78487 0.0
C1013 C 0.09885 0.95187 0.81335 0.0
C1014 C 0.08181 0.95438 0.82949 0.0
C1015 C 0.13053 0.96383 0.80922 0.0
C1016 C 0.1484 0.96279 0.79206 0.0
C1017 C 0.12821 0.96781 0.77716 0.0
C1018 C 0.1457 0.96796 0.76106 0.0
C1019 C 0.18331 0.96297 0.75969 0.0
C1020 C 0.20348 0.95776 0.77443 0.0
C1021 C 0.1862 0.95779 0.7906 0.0
H1022 H 0.1968 0.96312 0.7472 0.0
H1023 H 0.02902 0.97169 0.90366 0.0
H1024 H 0.22993 0.10389 0.01565 0.0
H1025 H 0.2121 0.10564 0.04604 0.0
H1026 H 0.12788 0.15015 0.03356 0.0
H1027 H 0.14704 0.14911 1.00322 0.0
H1028 H 0.1553 0.16074 0.06213 0.0
H1029 H 0.10829 0.09708 0.04165 0.0
H1030 H 0.10825 0.06309 0.02762 0.0
H1031 H 0.18739 0.04128 0.06465 0.0
H1032 H 0.18828 0.07524 0.07877 0.0
H1033 H 0.04079 0.13232 0.13663 0.0
H1034 H 0.06608 0.13863 0.10765 0.0
H1035 H 0.17314 0.11704 0.12439 0.0
H1036 H 0.14814 0.11123 0.15356 0.0
H1037 H 0.13413 0.09582 0.0943 0.0
H1038 H 0.1734 0.16266 0.11544 0.0
H1039 H 0.16363 0.19659 0.12877 0.0
H1040 H 0.08513 0.21183 0.08918 0.0
H1041 H 0.09404 0.17788 0.07575 0.0
C1042 C 0.20768 0.11408 0.01943 0.0
C1043 C 0.1897 0.12627 0.00708 0.0
C1044 C 0.19731 0.115 0.0368 0.0
C1045 C 0.16796 0.12767 0.04215 0.0
C1046 C 0.15052 0.14021 0.02984 0.0
C1047 C 0.16143 0.1396 0.01249 0.0
C1048 C 0.15531 0.12765 0.06051 0.0
C1049 C 0.15032 0.1465 0.06905 0.0
C1050 C 0.14871 0.10915 0.06973 0.0
C1051 C 0.14867 0.08877 0.06115 0.0
C1052 C 0.12595 0.08509 0.04671 0.0
C1053 C 0.12572 0.06582 0.03876 0.0
C1054 C 0.14789 0.05006 0.04521 0.0
C1055 C 0.17029 0.05352 0.05964 0.0
C1056 C 0.17066 0.07277 0.06763 0.0
C1057 C 0.06996 0.12944 0.13421 0.0
C1058 C 0.09259 0.12132 0.14728 0.0
C1059 C 0.08435 0.13307 0.1177 0.0
C1060 C 0.12144 0.12831 0.11392 0.0
C1061 C 0.14448 0.1209 0.12712 0.0
C1062 C 0.13027 0.11767 0.14374 0.0
C1063 C 0.13479 0.12879 0.09581 0.0
C1064 C 0.1395 0.10999 0.08732 0.0
C1065 C 0.13971 0.1473 0.08652 0.0
C1066 C 0.13409 0.16763 0.0947 0.0
C1067 C 0.15373 0.17315 0.10969 0.0
C1068 C 0.14843 0.19242 0.11723 0.0
C1069 C 0.12369 0.20633 0.10986 0.0
C1070 C 0.10424 0.20103 0.0949 0.0
C1071 C 0.10943 0.18178 0.08731 0.0
H1072 H 0.11967 0.22125 0.1157 0.0
H1073 H 0.14763 0.03514 0.03905 0.0
H1074 H 0.29267 0.40169 0.51403 0.0
H1075 H 0.31228 0.40086 0.54413 0.0
H1076 H 0.38074 0.34816 0.5335 0.0
H1077 H 0.36017 0.34861 0.50333 0.0
H1078 H 0.34834 0.34274 0.56284 0.0
H1079 H 0.41877 0.39743 0.53907 0.0
H1080 H 0.43104 0.42911 0.52252 0.0
H1081 H 0.36137 0.46312 0.55711 0.0
H1082 H 0.34821 0.43157 0.57373 0.0
H1083 H 0.42075 0.35399 0.64865 0.0
H1084 H 0.4198 0.35284 0.61702 0.0
H1085 H 0.33838 0.40116 0.61637 0.0
H1086 H 0.34014 0.40286 0.64777 0.0
H1087 H 0.38956 0.407 0.59166 0.0
H1088 H 0.31508 0.34879 0.61292 0.0
H1089 H 0.30673 0.31626 0.62887 0.0
H1090 H 0.39169 0.28818 0.59807 0.0
H1091 H 0.40083 0.32063 0.58209 0.0
C1092 C 0.31199 0.38996 0.5181 0.0
C1093 C 0.32513 0.37531 0.50632 0.0
C1094 C 0.32336 0.38955 0.5353 0.0
C1095 C 0.34877 0.37476 0.54104 0.0
C1096 C 0.36133 0.35981 0.52937 0.0
C1097 C 0.34952 0.36005 0.51216 0.0
C1098 C 0.36148 0.37482 0.5593 0.0
C1099 C 0.35804 0.35672 0.56904 0.0
C1100 C 0.37433 0.393 0.56747 0.0
C1101 C 0.38232 0.41209 0.55759 0.0
C1102 C 0.40587 0.41164 0.54309 0.0
C1103 C 0.41301 0.42958 0.5337 0.0
C1104 C 0.39695 0.44811 0.53874 0.0
C1105 C 0.37378 0.44875 0.55321 0.0
C1106 C 0.36651 0.43084 0.56264 0.0
C1107 C 0.40307 0.36457 0.64174 0.0
C1108 C 0.38015 0.37836 0.65075 0.0
C1109 C 0.40232 0.36377 0.62367 0.0
C1110 C 0.37855 0.37668 0.61432 0.0
C1111 C 0.35678 0.39095 0.62329 0.0
C1112 C 0.35755 0.39178 0.64127 0.0
C1113 C 0.37503 0.37515 0.59526 0.0
C1114 C 0.38037 0.39298 0.58535 0.0
C1115 C 0.36465 0.35664 0.58689 0.0
C1116 C 0.35892 0.33717 0.59646 0.0
C1117 C 0.33214 0.33571 0.60964 0.0
C1118 C 0.32724 0.31729 0.61867 0.0
C1119 C 0.34875 0.30018 0.61452 0.0
C1120 C 0.37511 0.30145 0.6013 0.0
C1121 C 0.38015 0.31984 0.59225 0.0
H1122 H 0.34491 0.28594 0.62153 0.0
H1123 H 0.4025 0.46198 0.53145 0.0
H1124 H 0.73307 0.3587 0.99505 0.0
H1125 H 0.71321 0.35569 0.96506 0.0
H1126 H 0.61314 0.38904 0.9769 0.0
H1127 H 0.63197 0.39125 0.0071 0.0
H1128 H 0.59633 0.35772 0.9578 0.0
H1129 H 0.68446 0.41146 0.95394 0.0
H1130 H 0.74376 0.42991 0.95834 0.0
H1131 H 0.80104 0.38411 0.92888 0.0
H1132 H 0.74213 0.36518 0.92451 0.0
H1133 H 0.55371 0.36808 0.86745 0.0
H1134 H 0.57322 0.3787 0.89653 0.0
H1135 H 0.6584 0.33243 0.8961 0.0
H1136 H 0.63844 0.32148 0.86725 0.0
H1137 H 0.68016 0.37445 0.90878 0.0
H1138 H 0.5869 0.32003 0.91575 0.0
H1139 H 0.5248 0.30481 0.91092 0.0
H1140 H 0.47397 0.35739 0.93433 0.0
H1141 H 0.53583 0.37307 0.93904 0.0
C1142 C 0.7067 0.36526 0.99132 0.0
C1143 C 0.68414 0.37522 1.0035 0.0
C1144 C 0.69559 0.36376 0.9741 0.0
C1145 C 0.66191 0.3724 0.96865 0.0
C1146 C 0.63932 0.38235 0.98078 0.0
C1147 C 0.65031 0.38375 0.99802 0.0
C1148 C 0.64968 0.37031 0.95044 0.0
C1149 C 0.61449 0.36174 0.94711 0.0
C1150 C 0.67326 0.37554 0.93643 0.0
C1151 C 0.70888 0.3868 0.93902 0.0
C1152 C 0.70974 0.40522 0.94852 0.0
C1153 C 0.74328 0.41578 0.95098 0.0
C1154 C 0.77616 0.40816 0.94392 0.0
C1155 C 0.77555 0.38998 0.93435 0.0
C1156 C 0.74207 0.37933 0.93186 0.0
C1157 C 0.57669 0.36029 0.87358 0.0
C1158 C 0.5944 0.34385 0.86528 0.0
C1159 C 0.5878 0.36636 0.8901 0.0
C1160 C 0.6172 0.35631 0.89838 0.0
C1161 C 0.63572 0.34037 0.88986 0.0
C1162 C 0.62415 0.33404 0.8735 0.0
C1163 C 0.62738 0.36152 0.91633 0.0
C1164 C 0.66208 0.37068 0.91955 0.0
C1165 C 0.60302 0.35733 0.93023 0.0
C1166 C 0.56593 0.34782 0.92755 0.0
C1167 C 0.56247 0.32843 0.91971 0.0
C1168 C 0.52732 0.3197 0.91703 0.0
C1169 C 0.49545 0.33016 0.92226 0.0
C1170 C 0.49867 0.34933 0.93025 0.0
C1171 C 0.53376 0.35814 0.93293 0.0
H1172 H 0.46826 0.32338 0.92018 0.0
H1173 H 0.80211 0.41637 0.94584 0.0
H1174 H 0.80305 0.09687 0.49504 0.0
H1175 H 0.82241 0.10006 0.46486 0.0
H1176 H 0.87341 0.15874 0.47614 0.0
H1177 H 0.85363 0.15576 0.50618 0.0
H1178 H 0.83583 0.16153 0.44777 0.0
H1179 H 0.92428 0.11297 0.47007 0.0
H1180 H 0.9437 0.08102 0.48447 0.0
H1181 H 0.88793 0.04529 0.44567 0.0
H1182 H 0.86776 0.07705 0.43115 0.0
H1183 H 0.9569 0.17598 0.37774 0.0
H1184 H 0.9368 0.16581 0.40657 0.0
H1185 H 0.86335 0.12019 0.38477 0.0
H1186 H 0.88169 0.13094 0.3557 0.0
H1187 H 0.90859 0.10838 0.41697 0.0
H1188 H 0.82068 0.15734 0.39485 0.0
H1189 H 0.80351 0.18951 0.38019 0.0
H1190 H 0.86054 0.2245 0.4191 0.0
H1191 H 0.87851 0.19246 0.43385 0.0
C1192 C 0.8186 0.11039 0.49108 0.0
C1193 C 0.82677 0.12608 0.503 0.0
C1194 C 0.82974 0.11217 0.47383 0.0
C1195 C 0.84979 0.12954 0.46822 0.0
C1196 C 0.85791 0.14521 0.48012 0.0
C1197 C 0.8465 0.14352 0.49729 0.0
C1198 C 0.86155 0.13182 0.44989 0.0
C1199 C 0.85203 0.14993 0.44117 0.0
C1200 C 0.88184 0.11649 0.44099 0.0
C1201 C 0.8942 0.09739 0.44962 0.0
C1202 C 0.91594 0.0983 0.46467 0.0
C1203 C 0.92712 0.08023 0.47285 0.0
C1204 C 0.91697 0.06114 0.46602 0.0
C1205 C 0.89572 0.06008 0.45096 0.0
C1206 C 0.88444 0.07812 0.44274 0.0
C1207 C 0.93628 0.16387 0.37895 0.0
C1208 C 0.9205 0.15462 0.36424 0.0
C1209 C 0.92521 0.15789 0.39549 0.0
C1210 C 0.89854 0.14232 0.39776 0.0
C1211 C 0.88414 0.13219 0.38325 0.0
C1212 C 0.89479 0.13837 0.36663 0.0
C1213 C 0.88339 0.13818 0.41522 0.0
C1214 C 0.89218 0.1198 0.42368 0.0
C1215 C 0.86253 0.15324 0.42398 0.0
C1216 C 0.8512 0.17253 0.41535 0.0
C1217 C 0.82978 0.17189 0.40021 0.0
C1218 C 0.81987 0.1901 0.39189 0.0
C1219 C 0.831 0.20904 0.39869 0.0
C1220 C 0.85196 0.20981 0.41385 0.0
C1221 C 0.86198 0.19164 0.4222 0.0
H1222 H 0.82333 0.22312 0.39223 0.0
H1223 H 0.92564 0.04716 0.47237 0.0
H1224 H 0.78292 0.90059 0.99305 0.0
H1225 H 0.80389 0.89811 0.96308 0.0
H1226 H 0.87385 0.84704 0.97655 0.0
H1227 H 0.85295 0.84948 0.00664 0.0
H1228 H 0.91031 0.87681 0.95666 0.0
H1229 H 0.79975 0.83683 0.95465 0.0
H1230 H 0.73375 0.82837 0.95972 0.0
H1231 H 0.70116 0.87933 0.92813 0.0
H1232 H 0.76704 0.88832 0.92309 0.0
H1233 H 0.94979 0.85776 0.86714 0.0
H1234 H 0.92649 0.85109 0.8965 0.0
H1235 H 0.85803 0.90508 0.89338 0.0
H1236 H 0.88189 0.91202 0.86428 0.0
H1237 H 0.82187 0.86889 0.90796 0.0
H1238 H 0.93354 0.91051 0.91304 0.0
H1239 H 0.99983 0.91834 0.90797 0.0
H1240 H 0.03038 0.86269 0.93394 0.0
H1241 H 0.96414 0.85437 0.93891 0.0
C1242 C 0.80275 0.88883 0.98962 0.0
C1243 C 0.81631 0.87522 1.00215 0.0
C1244 C 0.81453 0.88735 0.9725 0.0
C1245 C 0.84022 0.8723 0.9676 0.0
C1246 C 0.85392 0.85871 0.98008 0.0
C1247 C 0.84181 0.86004 0.9972 0.0
C1248 C 0.85327 0.87122 0.94949 0.0
C1249 C 0.8911 0.87466 0.94602 0.0
C1250 C 0.8281 0.86865 0.93564 0.0
C1251 C 0.78838 0.86336 0.93861 0.0
C1252 C 0.77853 0.84636 0.94891 0.0
C1253 C 0.74113 0.84144 0.95176 0.0
C1254 C 0.71328 0.85334 0.94428 0.0
C1255 C 0.72278 0.87015 0.93392 0.0
C1256 C 0.76016 0.87515 0.93105 0.0
C1257 C 0.92955 0.86805 0.87274 0.0
C1258 C 0.91777 0.88548 0.86363 0.0
C1259 C 0.91632 0.86425 0.88943 0.0
C1260 C 0.89067 0.87765 0.89707 0.0
C1261 C 0.87778 0.89458 0.88768 0.0
C1262 C 0.89153 0.89859 0.87116 0.0
C1263 C 0.87871 0.87481 0.91518 0.0
C1264 C 0.8411 0.87071 0.91863 0.0
C1265 C 0.9041 0.87664 0.92902 0.0
C1266 C 0.9439 0.88167 0.92613 0.0
C1267 C 0.95438 0.89983 0.91751 0.0
C1268 C 0.99194 0.90439 0.91469 0.0
C1269 C 0.0193 0.89098 0.92058 0.0
C1270 C 0.00914 0.87303 0.92935 0.0
C1271 C 0.9716 0.86839 0.93217 0.0
H1272 H 0.04837 0.89454 0.91839 0.0
H1273 H 0.68433 0.8495 0.94649 0.0
H1274 H 0.73642 0.64093 0.49164 0.0
H1275 H 0.71478 0.644 0.46188 0.0
H1276 H 0.61239 0.61313 0.47559 0.0
H1277 H 0.63367 0.61015 0.50538 0.0
H1278 H 0.64013 0.59733 0.44701 0.0
H1279 H 0.61439 0.66462 0.46735 0.0
H1280 H 0.6277 0.6977 0.48159 0.0
H1281 H 0.71157 0.71128 0.44371 0.0
H1282 H 0.69917 0.6781 0.42938 0.0
H1283 H 0.55963 0.6105 0.36559 0.0
H1284 H 0.56687 0.61771 0.39651 0.0
H1285 H 0.67689 0.64201 0.38695 0.0
H1286 H 0.66954 0.63482 0.35605 0.0
H1287 H 0.63959 0.66266 0.41398 0.0
H1288 H 0.66773 0.59319 0.39573 0.0
H1289 H 0.65257 0.56025 0.38161 0.0
H1290 H 0.56106 0.55115 0.41651 0.0
H1291 H 0.57529 0.58427 0.43062 0.0
C1292 C 0.70908 0.63505 0.48839 0.0
C1293 C 0.68684 0.62526 0.50092 0.0
C1294 C 0.69673 0.63682 0.47135 0.0
C1295 C 0.66179 0.62896 0.46651 0.0
C1296 C 0.63947 0.61928 0.479 0.0
C1297 C 0.65178 0.6175 0.49602 0.0
C1298 C 0.64919 0.63005 0.44828 0.0
C1299 C 0.63936 0.61169 0.43992 0.0
C1300 C 0.64868 0.64873 0.4389 0.0
C1301 C 0.65606 0.66878 0.44737 0.0
C1302 C 0.63587 0.67459 0.46212 0.0
C1303 C 0.64322 0.69337 0.47021 0.0
C1304 C 0.67052 0.70657 0.46358 0.0
C1305 C 0.69046 0.70103 0.44883 0.0
C1306 C 0.68325 0.68224 0.44071 0.0
C1307 C 0.58474 0.61807 0.37008 0.0
C1308 C 0.61401 0.62222 0.35859 0.0
C1309 C 0.58895 0.62209 0.3877 0.0
C1310 C 0.62263 0.63015 0.39404 0.0
C1311 C 0.6507 0.63583 0.38233 0.0
C1312 C 0.64652 0.63173 0.36473 0.0
C1313 C 0.63068 0.62996 0.41283 0.0
C1314 C 0.63989 0.6484 0.42122 0.0
C1315 C 0.63038 0.61138 0.42233 0.0
C1316 C 0.62231 0.59129 0.41409 0.0
C1317 C 0.64423 0.58422 0.40031 0.0
C1318 C 0.63581 0.56552 0.39232 0.0
C1319 C 0.6058 0.55364 0.39813 0.0
C1320 C 0.58424 0.5604 0.41199 0.0
C1321 C 0.59246 0.57913 0.41999 0.0
H1322 H 0.59931 0.53917 0.39192 0.0
H1323 H 0.67618 0.7211 0.46986 0.0
H1324 H 0.36324 0.64874 1.00094 0.0
H1325 H 0.38346 0.65134 0.03104 0.0
H1326 H 0.30757 0.6025 0.04506 0.0
H1327 H 0.28747 0.5997 0.01488 0.0
H1328 H 0.30494 0.63762 0.06706 0.0
H1329 H 0.39273 0.59066 0.04405 0.0
H1330 H 0.43892 0.57783 0.02324 0.0
H1331 H 0.51012 0.62943 0.03414 0.0
H1332 H 0.46403 0.64276 0.05484 0.0
H1333 H 0.37373 0.63282 0.15251 0.0
H1334 H 0.35619 0.62175 0.12351 0.0
H1335 H 0.43879 0.66259 0.10175 0.0
H1336 H 0.45776 0.67298 0.1307 0.0
H1337 H 0.43658 0.62764 0.08403 0.0
H1338 H 0.34574 0.67604 0.105 0.0
H1339 H 0.29898 0.68898 0.12553 0.0
H1340 H 0.23299 0.63446 0.11812 0.0
H1341 H 0.27965 0.62108 0.09772 0.0
C1342 C 0.35081 0.63861 0.01046 0.0
C1343 C 0.3238 0.62403 0.0056 0.0
C1344 C 0.36252 0.64002 0.0276 0.0
C1345 C 0.34716 0.62701 0.04023 0.0
C1346 C 0.31982 0.61262 0.03548 0.0
C1347 C 0.3085 0.61099 0.01827 0.0
C1348 C 0.3594 0.62878 0.05843 0.0
C1349 C 0.33357 0.63509 0.07086 0.0
C1350 C 0.39686 0.62577 0.06327 0.0
C1351 C 0.42475 0.61782 0.05088 0.0
C1352 C 0.41808 0.59938 0.0419 0.0
C1353 C 0.44427 0.592 0.03014 0.0
C1354 C 0.47739 0.60284 0.02734 0.0
C1355 C 0.48442 0.62107 0.03632 0.0
C1356 C 0.45828 0.62854 0.04807 0.0
C1357 C 0.38871 0.63918 0.14159 0.0
C1358 C 0.4169 0.65403 0.14399 0.0
C1359 C 0.37836 0.63297 0.12498 0.0
C1360 C 0.39563 0.64165 0.1104 0.0
C1361 C 0.42484 0.65578 0.11277 0.0
C1362 C 0.43537 0.66189 0.12936 0.0
C1363 C 0.38224 0.63684 0.09269 0.0
C1364 C 0.40787 0.62998 0.08031 0.0
C1365 C 0.34454 0.63936 0.08787 0.0
C1366 C 0.31635 0.64747 0.1 0.0
C1367 C 0.32137 0.66676 0.10785 0.0
C1368 C 0.29488 0.67418 0.11944 0.0
C1369 C 0.26308 0.66252 0.12317 0.0
C1370 C 0.25766 0.64345 0.11525 0.0
C1371 C 0.28411 0.63595 0.10367 0.0
H1372 H 0.24261 0.66829 0.13215 0.0
H1373 H 0.49765 0.5971 0.01823 0.0
H1374 H 0.16622 0.90766 0.50791 0.0
H1375 H 0.1434 0.90438 0.5373 0.0
H1376 H 0.18045 0.84152 0.53882 0.0
H1377 H 0.20027 0.84405 0.50882 0.0
H1378 H 0.11672 0.84351 0.5537 0.0
H1379 H 0.22949 0.88435 0.55813 0.0
H1380 H 0.27083 0.9138 0.55174 0.0
H1381 H 0.1877 0.95541 0.57022 0.0
H1382 H 0.14572 0.92621 0.57654 0.0
H1383 H 0.14651 0.82996 0.64379 0.0
H1384 H 0.1476 0.83334 0.61231 0.0
H1385 H 0.08945 0.89088 0.61626 0.0
H1386 H 0.08786 0.8873 0.64786 0.0
H1387 H 0.15604 0.89369 0.59833 0.0
H1388 H 0.04671 0.85247 0.59724 0.0
H1389 H 0.00538 0.8231 0.60377 0.0
H1390 H 0.08219 0.78208 0.57938 0.0
H1391 H 0.12431 0.81116 0.57295 0.0
C1392 C 0.16902 0.89298 0.51431 0.0
C1393 C 0.18517 0.87611 0.50583 0.0
C1394 C 0.15643 0.89125 0.5313 0.0
C1395 C 0.16078 0.87282 0.54046 0.0
C1396 C 0.17688 0.85595 0.53207 0.0
C1397 C 0.18875 0.85752 0.51494 0.0
C1398 C 0.14857 0.87102 0.55874 0.0
C1399 C 0.12571 0.85435 0.5635 0.0
C1400 C 0.15908 0.88558 0.57146 0.0
C1401 C 0.18435 0.90312 0.56765 0.0
C1402 C 0.21995 0.89979 0.56072 0.0
C1403 C 0.2435 0.91643 0.55713 0.0
C1404 C 0.23186 0.93646 0.56053 0.0
C1405 C 0.19667 0.93989 0.56757 0.0
C1406 C 0.173 0.9233 0.57117 0.0
C1407 C 0.13308 0.84302 0.63785 0.0
C1408 C 0.11702 0.85836 0.64809 0.0
C1409 C 0.13363 0.84493 0.61991 0.0
C1410 C 0.11852 0.86234 0.61196 0.0
C1411 C 0.1011 0.87729 0.62216 0.0
C1412 C 0.10006 0.87522 0.64013 0.0
C1413 C 0.125 0.86593 0.59331 0.0
C1414 C 0.14681 0.88294 0.5885 0.0
C1415 C 0.11373 0.85163 0.5806 0.0
C1416 C 0.08886 0.834 0.58476 0.0
C1417 C 0.05502 0.83716 0.59345 0.0
C1418 C 0.0314 0.82057 0.59709 0.0
C1419 C 0.0412 0.80073 0.59203 0.0
C1420 C 0.07466 0.79745 0.58332 0.0
C1421 C 0.09841 0.81399 0.57966 0.0
H1422 H 0.02282 0.78791 0.59483 0.0
H1423 H 0.25014 0.94933 0.55774 0.0
H1424 H 0.1222 0.32044 0.36661 0.0
H1425 H 0.09483 0.29314 0.34883 0.0
H1426 H 0.18509 0.25304 0.36241 0.0
H1427 H 0.21275 0.28028 0.38006 0.0
H1428 H 0.17323 0.2556 0.32737 0.0
H1429 H 0.10014 0.24436 0.37852 0.0
H1430 H 0.05813 0.25415 0.40224 0.0
H1431 H 0.97451 0.27129 0.36558 0.0
H1432 H 0.01626 0.26192 0.34162 0.0
H1433 H 0.10267 0.16569 0.28622 0.0
H1434 H 0.12907 0.19144 0.30571 0.0
H1435 H 0.02933 0.22747 0.30109 0.0
H1436 H 0.00284 0.20176 0.28174 0.0
H1437 H 0.04617 0.22625 0.33278 0.0
H1438 H 0.11776 0.24603 0.283 0.0
H1439 H 0.16043 0.24433 0.25815 0.0
H1440 H 0.24326 0.2159 0.28988 0.0
H1441 H 0.20135 0.21805 0.31508 0.0
C1442 C 0.13606 0.30575 0.36589 0.0
C1443 C 0.16965 0.30252 0.37473 0.0
C1444 C 0.12024 0.29012 0.35584 0.0
C1445 C 0.13778 0.271 0.3544 0.0
C1446 C 0.17099 0.26764 0.36342 0.0
C1447 C 0.18665 0.28318 0.37358 0.0
C1448 C 0.12308 0.25504 0.34249 0.0
C1449 C 0.14569 0.24886 0.32874 0.0
C1450 C 0.0866 0.24693 0.34387 0.0
C1451 C 0.0615 0.25262 0.35827 0.0
C1452 C 0.07294 0.2504 0.37551 0.0
C1453 C 0.04914 0.25584 0.389 0.0
C1454 C 0.01371 0.26339 0.38542 0.0
C1455 C 0.00198 0.26547 0.36834 0.0
C1456 C 0.02569 0.26009 0.3548 0.0
C1457 C 0.08665 0.17927 0.28912 0.0
C1458 C 0.05068 0.18167 0.28238 0.0
C1459 C 0.1018 0.19404 0.30027 0.0
C1460 C 0.0814 0.21159 0.30483 0.0
C1461 C 0.04567 0.21409 0.29788 0.0
C1462 C 0.03052 0.19933 0.2868 0.0
C1463 C 0.09634 0.22682 0.31748 0.0
C1464 C 0.07382 0.23284 0.33143 0.0
C1465 C 0.13262 0.23522 0.3161 0.0
C1466 C 0.15634 0.23194 0.30079 0.0
C1467 C 0.1449 0.23918 0.2846 0.0
C1468 C 0.16911 0.23836 0.27052 0.0
C1469 C 0.20455 0.22999 0.27243 0.0
C1470 C 0.21583 0.22239 0.28843 0.0
C1471 C 0.19196 0.22352 0.30263 0.0
H1472 H 0.22324 0.22934 0.26149 0.0
H1473 H 0.99532 0.26758 0.39589 0.0
H1474 H 0.33424 0.21861 0.89089 0.0
H1475 H 0.36614 0.24491 0.874 0.0
H1476 H 0.36432 0.20514 0.8295 0.0
H1477 H 0.33586 0.17806 0.84669 0.0
H1478 H 0.42555 0.22411 0.829 0.0
H1479 H 0.29955 0.24711 0.83734 0.0
H1480 H 0.24418 0.25671 0.85424 0.0
H1481 H 0.30691 0.3042 0.87964 0.0
H1482 H 0.36277 0.29472 0.86303 0.0
H1483 H 0.4415 0.29992 0.76307 0.0
H1484 H 0.41432 0.27436 0.78278 0.0
H1485 H 0.45094 0.31044 0.82632 0.0
H1486 H 0.47798 0.33605 0.80651 0.0
H1487 H 0.37447 0.29469 0.8283 0.0
H1488 H 0.49931 0.27235 0.81809 0.0
H1489 H 0.55292 0.26349 0.79976 0.0
H1490 H 0.4895 0.2148 0.77637 0.0
H1491 H 0.4353 0.22365 0.79438 0.0
C1492 C 0.34123 0.2152 0.87762 0.0
C1493 C 0.33178 0.1961 0.87021 0.0
C1494 C 0.359 0.23049 0.86784 0.0
C1495 C 0.3668 0.22735 0.85026 0.0
C1496 C 0.35836 0.20814 0.84296 0.0
C1497 C 0.34143 0.19269 0.85282 0.0
C1498 C 0.38332 0.24402 0.83934 0.0
C1499 C 0.41397 0.23944 0.82876 0.0
C1500 C 0.369 0.26429 0.83916 0.0
C1501 C 0.33539 0.27007 0.84907 0.0
C1502 C 0.30157 0.25952 0.8466 0.0
C1503 C 0.2701 0.26495 0.85612 0.0
C1504 C 0.27205 0.28102 0.86804 0.0
C1505 C 0.30545 0.29174 0.87043 0.0
C1506 C 0.33701 0.28635 0.86095 0.0
C1507 C 0.4429 0.30256 0.77682 0.0
C1508 C 0.46104 0.32002 0.78334 0.0
C1509 C 0.42779 0.2879 0.78807 0.0
C1510 C 0.4306 0.29053 0.80601 0.0
C1511 C 0.44828 0.30819 0.81253 0.0
C1512 C 0.46374 0.32273 0.80126 0.0
C1513 C 0.41597 0.27455 0.81793 0.0
C1514 C 0.38587 0.27931 0.82866 0.0
C1515 C 0.43045 0.25442 0.8181 0.0
C1516 C 0.46317 0.2488 0.80747 0.0
C1517 C 0.49674 0.25987 0.80895 0.0
C1518 C 0.52723 0.25483 0.79862 0.0
C1519 C 0.52459 0.23862 0.78687 0.0
C1520 C 0.49149 0.22737 0.78547 0.0
C1521 C 0.46088 0.23238 0.79574 0.0
H1522 H 0.54822 0.23475 0.77888 0.0
H1523 H 0.24766 0.28519 0.87541 0.0
H1524 H 0.63368 0.17865 0.64568 0.0
H1525 H 0.6069 0.20472 0.66459 0.0
H1526 H 0.69737 0.24606 0.65225 0.0
H1527 H 0.72465 0.21987 0.63349 0.0
H1528 H 0.68562 0.24465 0.6865 0.0
H1529 H 0.61206 0.25461 0.63643 0.0
H1530 H 0.57115 0.24575 0.61202 0.0
H1531 H 0.48699 0.22458 0.64727 0.0
H1532 H 0.52767 0.23302 0.6719 0.0
H1533 H 0.59301 0.33754 0.71488 0.0
H1534 H 0.62061 0.31093 0.69652 0.0
H1535 H 0.55819 0.26438 0.72388 0.0
H1536 H 0.53178 0.291 0.74282 0.0
H1537 H 0.55532 0.26869 0.68244 0.0
H1538 H 0.63327 0.25876 0.73268 0.0
H1539 H 0.67386 0.27149 0.756 0.0
H1540 H 0.75011 0.29613 0.71853 0.0
H1541 H 0.70954 0.28385 0.69496 0.0
C1542 C 0.64781 0.19332 0.64694 0.0
C1543 C 0.68134 0.19718 0.63811 0.0
C1544 C 0.63234 0.20826 0.65767 0.0
C1545 C 0.65004 0.22739 0.65981 0.0
C1546 C 0.68323 0.23141 0.6508 0.0
C1547 C 0.69862 0.2165 0.63997 0.0
C1548 C 0.63463 0.24282 0.67195 0.0
C1549 C 0.65723 0.25001 0.68547 0.0
C1550 C 0.59743 0.24971 0.67079 0.0
C1551 C 0.57314 0.2442 0.65601 0.0
C1552 C 0.58502 0.24782 0.63898 0.0
C1553 C 0.56182 0.24294 0.6251 0.0
C1554 C 0.52654 0.23454 0.62809 0.0
C1555 C 0.51437 0.23103 0.64497 0.0
C1556 C 0.53749 0.23587 0.6589 0.0
C1557 C 0.58585 0.32156 0.71714 0.0
C1558 C 0.56076 0.31612 0.73026 0.0
C1559 C 0.60141 0.30645 0.70665 0.0
C1560 C 0.59127 0.28578 0.70885 0.0
C1561 C 0.56633 0.28029 0.72206 0.0
C1562 C 0.55157 0.29538 0.7329 0.0
C1563 C 0.60615 0.27009 0.69696 0.0
C1564 C 0.58355 0.26306 0.68346 0.0
C1565 C 0.64339 0.26355 0.69799 0.0
C1566 C 0.66818 0.27059 0.71208 0.0
C1567 C 0.65851 0.26706 0.72942 0.0
C1568 C 0.68154 0.27416 0.74268 0.0
C1569 C 0.7145 0.28466 0.73875 0.0
C1570 C 0.72454 0.28802 0.72155 0.0
C1571 C 0.70156 0.28098 0.70823 0.0
H1572 H 0.73228 0.29016 0.74903 0.0
H1573 H 0.50859 0.2308 0.61733 0.0
H1574 H 0.87806 0.3199 0.14404 0.0
H1575 H 0.90584 0.29347 0.16231 0.0
H1576 H 0.81229 0.25336 0.15245 0.0
H1577 H 0.7842 0.27984 0.13423 0.0
H1578 H 0.82939 0.25558 0.187 0.0
H1579 H 0.89278 0.24351 0.13376 0.0
H1580 H 0.92999 0.25208 0.10798 0.0
H1581 H 0.02102 0.27108 0.14016 0.0
H1582 H 0.98411 0.26291 0.16616 0.0
H1583 H 0.93992 0.16045 0.20633 0.0
H1584 H 0.91113 0.1868 0.18813 0.0
H1585 H 0.94139 0.23325 0.2253 0.0
H1586 H 0.96858 0.20675 0.24394 0.0
H1587 H 0.95544 0.22728 0.17727 0.0
H1588 H 0.88043 0.24685 0.23034 0.0
H1589 H 0.84225 0.23582 0.25519 0.0
H1590 H 0.77246 0.20019 0.22148 0.0
H1591 H 0.81099 0.21062 0.1965 0.0
C1592 C 0.86349 0.30542 0.14572 0.0
C1593 C 0.82896 0.30193 0.13772 0.0
C1594 C 0.87947 0.2903 0.15608 0.0
C1595 C 0.86118 0.27144 0.15869 0.0
C1596 C 0.82686 0.26782 0.15059 0.0
C1597 C 0.811 0.28288 0.14009 0.0
C1598 C 0.87741 0.25575 0.17028 0.0
C1599 C 0.85693 0.24941 0.1848 0.0
C1600 C 0.91338 0.24768 0.16751 0.0
C1601 C 0.9355 0.25283 0.15191 0.0
C1602 C 0.92058 0.24973 0.13535 0.0
C1603 C 0.94165 0.25446 0.12069 0.0
C1604 C 0.9778 0.26218 0.12243 0.0
C1605 C 0.99298 0.26514 0.13883 0.0
C1606 C 0.972 0.26045 0.15353 0.0
C1607 C 0.93991 0.17627 0.21066 0.0
C1608 C 0.95602 0.18168 0.22651 0.0
C1609 C 0.92354 0.19124 0.20031 0.0
C1610 C 0.92365 0.21186 0.20554 0.0
C1611 C 0.94013 0.21733 0.2213 0.0
C1612 C 0.95569 0.20226 0.23188 0.0
C1613 C 0.9078 0.22766 0.19407 0.0
C1614 C 0.92815 0.23378 0.17949 0.0
C1615 C 0.87182 0.23555 0.19675 0.0
C1616 C 0.84891 0.22918 0.21168 0.0
C1617 C 0.8573 0.23641 0.2283 0.0
C1618 C 0.83553 0.23033 0.24238 0.0
C1619 C 0.80497 0.21728 0.23992 0.0
C1620 C 0.79617 0.21026 0.22337 0.0
C1621 C 0.81804 0.21619 0.20926 0.0
H1622 H 0.78811 0.21261 0.25083 0.0
H1623 H 0.99409 0.26581 0.11106 0.0
H1624 H 0.87797 0.70323 0.6163 0.0
H1625 H 0.90528 0.73117 0.63348 0.0
H1626 H 0.82373 0.72035 0.67338 0.0
H1627 H 0.79599 0.69283 0.65622 0.0
H1628 H 0.83226 0.76121 0.6661 0.0
H1629 H 0.91185 0.70259 0.67727 0.0
H1630 H 0.95437 0.67471 0.66898 0.0
H1631 H 0.02944 0.71871 0.64635 0.0
H1632 H 0.98713 0.74683 0.65432 0.0
H1633 H 0.90229 0.81526 0.73682 0.0
H1634 H 0.87878 0.78958 0.71703 0.0
H1635 H 0.97953 0.79497 0.68689 0.0
H1636 H 0.00497 0.8188 0.70825 0.0
H1637 H 0.9627 0.75841 0.68654 0.0
H1638 H 0.88699 0.81748 0.67582 0.0
H1639 H 0.84623 0.8462 0.68406 0.0
H1640 H 0.76531 0.80348 0.70391 0.0
H1641 H 0.80573 0.77453 0.69597 0.0
C1642 C 0.86574 0.70694 0.62867 0.0
C1643 C 0.83497 0.69574 0.63495 0.0
C1644 C 0.88151 0.72278 0.63852 0.0
C1645 C 0.8667 0.72771 0.65477 0.0
C1646 C 0.83564 0.71678 0.6609 0.0
C1647 C 0.82002 0.70094 0.65113 0.0
C1648 C 0.88333 0.74421 0.66555 0.0
C1649 C 0.86075 0.76061 0.67065 0.0
C1650 C 0.9208 0.74372 0.67102 0.0
C1651 C 0.94612 0.72678 0.66621 0.0
C1652 C 0.93726 0.7063 0.67039 0.0
C1653 C 0.96136 0.69046 0.66578 0.0
C1654 C 0.99452 0.69493 0.6571 0.0
C1655 C 0.00371 0.71526 0.65304 0.0
C1656 C 0.97969 0.73115 0.65761 0.0
C1657 C 0.91966 0.8108 0.72622 0.0
C1658 C 0.95566 0.81888 0.72435 0.0
C1659 C 0.90587 0.79632 0.71457 0.0
C1660 C 0.92677 0.79063 0.70002 0.0
C1661 C 0.96265 0.79901 0.69795 0.0
C1662 C 0.97714 0.81275 0.71012 0.0
C1663 C 0.91161 0.77557 0.68729 0.0
C1664 C 0.93439 0.75936 0.68182 0.0
C1665 C 0.87446 0.77646 0.68119 0.0
C1666 C 0.84948 0.79384 0.68536 0.0
C1667 C 0.8605 0.81422 0.68195 0.0
C1668 C 0.83748 0.83054 0.68658 0.0
C1669 C 0.80324 0.82667 0.69452 0.0
C1670 C 0.79184 0.80646 0.69775 0.0
C1671 C 0.81474 0.79008 0.69315 0.0
H1672 H 0.78553 0.83932 0.69816 0.0
H1673 H 0.01315 0.68265 0.65355 0.0
H1674 H 0.63423 0.79428 0.11669 0.0
H1675 H 0.60574 0.76661 0.13372 0.0
H1676 H 0.67499 0.78295 0.17707 0.0
H1677 H 0.70449 0.80997 0.15999 0.0
H1678 H 0.67352 0.74299 0.17338 0.0
H1679 H 0.58258 0.7964 0.1748 0.0
H1680 H 0.53922 0.82185 0.16284 0.0
H1681 H 0.47799 0.77369 0.13756 0.0
H1682 H 0.52136 0.74796 0.14916 0.0
H1683 H 0.57668 0.69718 0.24296 0.0
H1684 H 0.60305 0.72208 0.22271 0.0
H1685 H 0.54017 0.69418 0.18142 0.0
H1686 H 0.5155 0.66844 0.20176 0.0
H1687 H 0.53708 0.73793 0.18219 0.0
H1688 H 0.62813 0.68436 0.18327 0.0
H1689 H 0.67075 0.66 0.19726 0.0
H1690 H 0.73124 0.71021 0.21998 0.0
H1691 H 0.68854 0.73489 0.20641 0.0
C1692 C 0.6436 0.79184 0.1298 0.0
C1693 C 0.67149 0.80443 0.13701 0.0
C1694 C 0.62703 0.77616 0.13957 0.0
C1695 C 0.63791 0.77285 0.15675 0.0
C1696 C 0.66604 0.78524 0.16387 0.0
C1697 C 0.68264 0.80083 0.15413 0.0
C1698 C 0.62047 0.75638 0.16737 0.0
C1699 C 0.64371 0.74203 0.1754 0.0
C1700 C 0.58147 0.75483 0.16976 0.0
C1701 C 0.55553 0.77028 0.16266 0.0
C1702 C 0.56011 0.79126 0.16654 0.0
C1703 C 0.53548 0.80573 0.15986 0.0
C1704 C 0.50595 0.7994 0.14939 0.0
C1705 C 0.50094 0.77858 0.14563 0.0
C1706 C 0.52553 0.76404 0.15225 0.0
C1707 C 0.56953 0.69596 0.22953 0.0
C1708 C 0.54494 0.68066 0.22382 0.0
C1709 C 0.58404 0.71038 0.21799 0.0
C1710 C 0.57382 0.70984 0.20052 0.0
C1711 C 0.54843 0.69484 0.19484 0.0
C1712 C 0.5343 0.68024 0.20642 0.0
C1713 C 0.59024 0.72484 0.18827 0.0
C1714 C 0.56684 0.73886 0.17998 0.0
C1715 C 0.62912 0.72628 0.1858 0.0
C1716 C 0.65503 0.71147 0.19387 0.0
C1717 C 0.65037 0.69021 0.19135 0.0
C1718 C 0.67456 0.67635 0.19919 0.0
C1719 C 0.70376 0.68357 0.20944 0.0
C1720 C 0.70869 0.70466 0.21197 0.0
C1721 C 0.68451 0.71859 0.20421 0.0
H1722 H 0.72264 0.67284 0.21539 0.0
H1723 H 0.48689 0.81063 0.14425 0.0
H1724 H 0.37762 0.80029 0.38547 0.0
H1725 H 0.40482 0.77398 0.36664 0.0
H1726 H 0.30931 0.77741 0.33319 0.0
H1727 H 0.282 0.80338 0.35197 0.0
H1728 H 0.32895 0.73809 0.33873 0.0
H1729 H 0.38865 0.80149 0.32245 0.0
H1730 H 0.42494 0.83332 0.32697 0.0
H1731 H 0.51815 0.798 0.3442 0.0
H1732 H 0.48219 0.76596 0.34004 0.0
H1733 H 0.44156 0.70365 0.26037 0.0
H1734 H 0.41348 0.73005 0.2789 0.0
H1735 H 0.43514 0.69283 0.32371 0.0
H1736 H 0.4615 0.6662 0.30545 0.0
H1737 H 0.45222 0.74951 0.31129 0.0
H1738 H 0.37272 0.68885 0.33801 0.0
H1739 H 0.33634 0.65768 0.33089 0.0
H1740 H 0.28109 0.69007 0.29021 0.0
H1741 H 0.31776 0.72134 0.29689 0.0
C1742 C 0.36234 0.79521 0.37421 0.0
C1743 C 0.32784 0.80395 0.37011 0.0
C1744 C 0.37798 0.78034 0.3634 0.0
C1745 C 0.35924 0.77392 0.34841 0.0
C1746 C 0.3243 0.78218 0.34464 0.0
C1747 C 0.30883 0.79708 0.35533 0.0
C1748 C 0.37594 0.75874 0.33647 0.0
C1749 C 0.35592 0.74067 0.33279 0.0
C1750 C 0.41098 0.76209 0.32852 0.0
C1751 C 0.43257 0.78134 0.33113 0.0
C1752 C 0.41676 0.80052 0.32737 0.0
C1753 C 0.43729 0.8186 0.32983 0.0
C1754 C 0.47379 0.81768 0.33592 0.0
C1755 C 0.48985 0.79868 0.33952 0.0
C1756 C 0.46941 0.78056 0.33711 0.0
C1757 C 0.43977 0.701 0.27414 0.0
C1758 C 0.45353 0.6828 0.28143 0.0
C1759 C 0.42406 0.71612 0.28469 0.0
C1760 C 0.42207 0.71324 0.30262 0.0
C1761 C 0.43596 0.69519 0.30988 0.0
C1762 C 0.45119 0.68004 0.2994 0.0
C1763 C 0.40543 0.72897 0.31392 0.0
C1764 C 0.42538 0.74706 0.31739 0.0
C1765 C 0.37036 0.7258 0.32166 0.0
C1766 C 0.34795 0.70727 0.31787 0.0
C1767 C 0.35286 0.68925 0.32752 0.0
C1768 C 0.33231 0.67158 0.32354 0.0
C1769 C 0.30648 0.67187 0.31011 0.0
C1770 C 0.30114 0.68986 0.30061 0.0
C1771 C 0.32189 0.70753 0.30443 0.0
H1772 H 0.29056 0.65817 0.30708 0.0
H1773 H 0.48965 0.83169 0.3378 0.0
H1774 H 0.19432 0.68155 0.84564 0.0
H1775 H 0.16612 0.70808 0.82802 0.0
H1776 H 0.13181 0.74026 0.87393 0.0
H1777 H 0.15794 0.71294 0.89177 0.0
H1778 H 0.07815 0.74139 0.85112 0.0
H1779 H 0.20864 0.75588 0.84922 0.0
H1780 H 0.2751 0.74838 0.84492 0.0
H1781 H 0.25419 0.73313 0.79191 0.0
H1782 H 0.18748 0.74028 0.79595 0.0
H1783 H 0.04182 0.83555 0.80756 0.0
H1784 H 0.06941 0.80961 0.82631 0.0
H1785 H 0.09212 0.77161 0.78203 0.0
H1786 H 0.06393 0.79727 0.7632 0.0
H1787 H 0.15207 0.77456 0.80458 0.0
H1788 H 0.02059 0.75986 0.80725 0.0
H1789 H 0.95482 0.76881 0.81187 0.0
H1790 H 0.97903 0.78636 0.86406 0.0
H1791 H 0.04506 0.77767 0.85972 0.0
C1792 C 0.18028 0.69405 0.85208 0.0
C1793 C 0.17841 0.69498 0.87021 0.0
C1794 C 0.1646 0.70943 0.84193 0.0
C1795 C 0.14739 0.72642 0.84961 0.0
C1796 C 0.14512 0.72737 0.86769 0.0
C1797 C 0.16046 0.71182 0.87789 0.0
C1798 C 0.13178 0.7431 0.83871 0.0
C1799 C 0.09454 0.74884 0.84113 0.0
C1800 C 0.15286 0.75266 0.82544 0.0
C1801 C 0.193 0.74845 0.82294 0.0
C1802 C 0.21817 0.75079 0.83668 0.0
C1803 C 0.25589 0.74662 0.83428 0.0
C1804 C 0.26885 0.74024 0.81817 0.0
C1805 C 0.24411 0.73806 0.8044 0.0
C1806 C 0.20635 0.74219 0.80672 0.0
C1807 C 0.0527 0.82168 0.80179 0.0
C1808 C 0.05104 0.8186 0.78385 0.0
C1809 C 0.06842 0.80687 0.81254 0.0
C1810 C 0.08268 0.78865 0.80557 0.0
C1811 C 0.08144 0.78561 0.78766 0.0
C1812 C 0.06547 0.80035 0.77691 0.0
C1813 C 0.0986 0.77268 0.81697 0.0
C1814 C 0.13584 0.76711 0.81462 0.0
C1815 C 0.07765 0.76343 0.83038 0.0
C1816 C 0.03783 0.76828 0.83311 0.0
C1817 C 0.01194 0.76574 0.81968 0.0
C1818 C 0.97461 0.77076 0.82225 0.0
C1819 C 0.96279 0.77823 0.83822 0.0
C1820 C 0.98824 0.78059 0.85169 0.0
C1821 C 0.0256 0.77559 0.84919 0.0
H1822 H 0.93389 0.78213 0.84017 0.0
H1823 H 0.29807 0.73702 0.81634 0.0
loop_
_geom_bond_atom_site_label_1
_geom_bond_atom_site_label_2
_geom_bond_distance
_geom_bond_site_symmetry_2
_ccdc_geom_bond_type
C0 C1 1.384 . S
C0 H13 0.947 . S
C0 C35 1.382 . S
C1 C0 1.384 . S
C1 C2 1.378 . S
C2 C1 1.378 . S
C2 C3 1.378 . S
C2 H14 0.952 . S
C3 C2 1.378 . S
C3 H15 0.950 . S
C3 C34 1.383 . S
H4 C23 0.947 . S
H5 C24 0.946 . S
H6 C26 0.953 . S
H7 C27 0.945 . S
H8 C29 0.952 . S
H9 C30 0.949 . S
H10 C32 0.950 . S
H11 C33 0.948 . S
H12 C35 0.951 . S
H13 C0 0.947 . S
H14 C2 0.952 . S
H15 C3 0.950 . S
N16 C19 1.382 . S
N16 C21 1.363 . S
N17 C19 1.371 . S
N17 C20 1.372 . S
N18 C20 1.361 . S
N18 C21 1.377 . S
C19 N16 1.382 . S
C19 N17 1.371 . S
C19 C22 1.480 . S
C20 N17 1.372 . S
C20 N18 1.361 . S
C20 C28 1.457 . S
C21 N16 1.363 . S
C21 N18 1.377 . S
C21 C34 1.479 . S
C22 C19 1.480 . S
C22 C23 1.383 . S
C22 C27 1.385 . S
C23 H4 0.947 . S
C23 C22 1.383 . S
C23 C24 1.388 . S
C24 H5 0.946 . S
C24 C23 1.388 . S
C24 C25 1.384 . S
C25 C24 1.384 . S
C25 C26 1.377 . S
C26 H6 0.953 . S
C26 C25 1.377 . S
C26 C27 1.369 . S
C27 H7 0.945 . S
C27 C22 1.385 . S
C27 C26 1.369 . S
C28 C20 1.457 . S
C28 C29 1.372 . S
C28 C33 1.364 . S
C29 H8 0.952 . S
C29 C28 1.372 . S
C29 C30 1.389 . S
C30 H9 0.949 . S
C30 C29 1.389 . S
C30 C31 1.387 . S
C31 C30 1.387 . S
C31 C32 1.372 . S
C32 H10 0.950 . S
C32 C31 1.372 . S
C32 C33 1.379 . S
C33 H11 0.948 . S
C33 C28 1.364 . S
C33 C32 1.379 . S
C34 C3 1.383 . S
C34 C21 1.479 . S
C34 C35 1.398 . S
C35 C0 1.382 . S
C35 H12 0.951 . S
C35 C34 1.398 . S
C36 C37 1.384 . S
C36 H49 0.947 . S
C36 C71 1.382 . S
C37 C36 1.384 . S
C37 C38 1.378 . S
C38 C37 1.378 . S
C38 C39 1.378 . S
C38 H50 0.952 . S
C39 C38 1.378 . S
C39 H51 0.950 . S
C39 C70 1.383 . S
H40 C59 0.947 . S
H41 C60 0.946 . S
H42 C62 0.953 . S
H43 C63 0.945 . S
H44 C65 0.952 . S
H45 C66 0.949 . S
H46 C68 0.950 . S
H47 C69 0.948 . S
H48 C71 0.951 . S
H49 C36 0.947 . S
H50 C38 0.952 . S
H51 C39 0.950 . S
N52 C55 1.382 . S
N52 C57 1.363 . S
N53 C55 1.371 . S
N53 C56 1.372 . S
N54 C56 1.361 . S
N54 C57 1.377 . S
C55 N52 1.382 . S
C55 N53 1.371 . S
C55 C58 1.480 . S
C56 N53 1.372 . S
C56 N54 1.361 . S
C56 C64 1.457 . S
C57 N52 1.363 . S
C57 N54 1.377 . S
C57 C70 1.479 . S
C58 C55 1.480 . S
C58 C59 1.383 . S
C58 C63 1.385 . S
C59 H40 0.947 . S
C59 C58 1.383 . S
C59 C60 1.388 . S
C60 H41 0.946 . S
C60 C59 1.388 . S
C60 C61 1.384 . S
C61 C60 1.384 . S
C61 C62 1.377 . S
C62 H42 0.953 . S
C62 C61 1.377 . S
C62 C63 1.369 . S
C63 H43 0.945 . S
C63 C58 1.385 . S
C63 C62 1.369 . S
C64 C56 1.457 . S
C64 C65 1.372 . S
C64 C69 1.364 . S
C65 H44 0.952 . S
C65 C64 1.372 . S
C65 C66 1.389 . S
C66 H45 0.949 . S
C66 C65 1.389 . S
C66 C67 1.387 . S
C67 C66 1.387 . S
C67 C68 1.372 . S
C68 H46 0.950 . S
C68 C67 1.372 . S
C68 C69 1.379 . S
C69 H47 0.948 . S
C69 C64 1.364 . S
C69 C68 1.379 . S
C70 C39 1.383 . S
C70 C57 1.479 . S
C70 C71 1.398 . S
C71 C36 1.382 . S
C71 H48 0.951 . S
C71 C70 1.398 . S
C72 C73 1.384 . S
C72 H85 0.947 . S
C72 C107 1.382 . S
C73 C72 1.384 . S
C73 C74 1.378 . S
C74 C73 1.378 . S
C74 C75 1.378 . S
C74 H86 0.952 . S
C75 C74 1.378 . S
C75 H87 0.950 . S
C75 C106 1.383 . S
H76 C95 0.947 . S
H77 C96 0.946 . S
H78 C98 0.953 . S
H79 C99 0.945 . S
H80 C101 0.952 . S
H81 C102 0.949 . S
H82 C104 0.950 . S
H83 C105 0.948 . S
H84 C107 0.951 . S
H85 C72 0.947 . S
H86 C74 0.952 . S
H87 C75 0.950 . S
N88 C91 1.382 . S
N88 C93 1.363 . S
N89 C91 1.371 . S
N89 C92 1.372 . S
N90 C92 1.361 . S
N90 C93 1.377 . S
C91 N88 1.382 . S
C91 N89 1.371 . S
C91 C94 1.480 . S
C92 N89 1.372 . S
C92 N90 1.361 . S
C92 C100 1.457 . S
C93 N88 1.363 . S
C93 N90 1.377 . S
C93 C106 1.479 . S
C94 C91 1.480 . S
C94 C95 1.383 . S
C94 C99 1.385 . S
C95 H76 0.947 . S
C95 C94 1.383 . S
C95 C96 1.388 . S
C96 H77 0.946 . S
C96 C95 1.388 . S
C96 C97 1.384 . S
C97 C96 1.384 . S
C97 C98 1.377 . S
C98 H78 0.953 . S
C98 C97 1.377 . S
C98 C99 1.369 . S
C99 H79 0.945 . S
C99 C94 1.385 . S
C99 C98 1.369 . S
C100 C92 1.457 . S
C100 C101 1.372 . S
C100 C105 1.364 . S
C101 H80 0.952 . S
C101 C100 1.372 . S
C101 C102 1.389 . S
C102 H81 0.949 . S
C102 C101 1.389 . S
C102 C103 1.387 . S
C103 C102 1.387 . S
C103 C104 1.372 . S
C104 H82 0.950 . S
C104 C103 1.372 . S
C104 C105 1.379 . S
C105 H83 0.948 . S
C105 C100 1.364 . S
C105 C104 1.379 . S
C106 C75 1.383 . S
C106 C93 1.479 . S
C106 C107 1.398 . S
C107 C72 1.382 . S
C107 H84 0.951 . S
C107 C106 1.398 . S
C108 C109 1.384 . S
C108 H121 0.947 . S
C108 C143 1.382 . S
C109 C108 1.384 . S
C109 C110 1.378 . S
C110 C109 1.378 . S
C110 C111 1.378 . S
C110 H122 0.952 . S
C111 C110 1.378 . S
C111 H123 0.950 . S
C111 C142 1.383 . S
H112 C131 0.947 . S
H113 C132 0.946 . S
H114 C134 0.953 . S
H115 C135 0.945 . S
H116 C137 0.952 . S
H117 C138 0.949 . S
H118 C140 0.950 . S
H119 C141 0.948 . S
H120 C143 0.951 . S
H121 C108 0.947 . S
H122 C110 0.952 . S
H123 C111 0.950 . S
N124 C127 1.382 . S
N124 C129 1.363 . S
N125 C127 1.371 . S
N125 C128 1.372 . S
N126 C128 1.361 . S
N126 C129 1.377 . S
C127 N124 1.382 . S
C127 N125 1.371 . S
C127 C130 1.480 . S
C128 N125 1.372 . S
C128 N126 1.361 . S
C128 C136 1.457 . S
C129 N124 1.363 . S
C129 N126 1.377 . S
C129 C142 1.479 . S
C130 C127 1.480 . S
C130 C131 1.383 . S
C130 C135 1.385 . S
C131 H112 0.947 . S
C131 C130 1.383 . S
C131 C132 1.388 . S
C132 H113 0.946 . S
C132 C131 1.388 . S
C132 C133 1.384 . S
C133 C132 1.384 . S
C133 C134 1.377 . S
C134 H114 0.953 . S
C134 C133 1.377 . S
C134 C135 1.369 . S
C135 H115 0.945 . S
C135 C130 1.385 . S
C135 C134 1.369 . S
C136 C128 1.457 . S
C136 C137 1.372 . S
C136 C141 1.364 . S
C137 H116 0.952 . S
C137 C136 1.372 . S
C137 C138 1.389 . S
C138 H117 0.949 . S
C138 C137 1.389 . S
C138 C139 1.387 . S
C139 C138 1.387 . S
C139 C140 1.372 . S
C140 H118 0.950 . S
C140 C139 1.372 . S
C140 C141 1.379 . S
C141 H119 0.948 . S
C141 C136 1.364 . S
C141 C140 1.379 . S
C142 C111 1.383 . S
C142 C129 1.479 . S
C142 C143 1.398 . S
C143 C108 1.382 . S
C143 H120 0.951 . S
C143 C142 1.398 . S
C144 C145 1.384 . S
C144 H157 0.947 . S
C144 C179 1.382 . S
C145 C144 1.384 . S
C145 C146 1.378 . S
C146 C145 1.378 . S
C146 C147 1.378 . S
C146 H158 0.952 . S
C147 C146 1.378 . S
C147 H159 0.950 . S
C147 C178 1.383 . S
H148 C167 0.947 . S
H149 C168 0.946 . S
H150 C170 0.953 . S
H151 C171 0.945 . S
H152 C173 0.952 . S
H153 C174 0.949 . S
H154 C176 0.950 . S
H155 C177 0.948 . S
H156 C179 0.951 . S
H157 C144 0.947 . S
H158 C146 0.952 . S
H159 C147 0.950 . S
N160 C163 1.382 . S
N160 C165 1.363 . S
N161 C163 1.371 . S
N161 C164 1.372 . S
N162 C164 1.361 . S
N162 C165 1.377 . S
C163 N160 1.382 . S
C163 N161 1.371 . S
C163 C166 1.480 . S
C164 N161 1.372 . S
C164 N162 1.361 . S
C164 C172 1.457 . S
C165 N160 1.363 . S
C165 N162 1.377 . S
C165 C178 1.479 . S
C166 C163 1.480 . S
C166 C167 1.383 . S
C166 C171 1.385 . S
C167 H148 0.947 . S
C167 C166 1.383 . S
C167 C168 1.388 . S
C168 H149 0.946 . S
C168 C167 1.388 . S
C168 C169 1.384 . S
C169 C168 1.384 . S
C169 C170 1.377 . S
C170 H150 0.953 . S
C170 C169 1.377 . S
C170 C171 1.369 . S
C171 H151 0.945 . S
C171 C166 1.385 . S
C171 C170 1.369 . S
C172 C164 1.457 . S
C172 C173 1.372 . S
C172 C177 1.364 . S
C173 H152 0.952 . S
C173 C172 1.372 . S
C173 C174 1.389 . S
C174 H153 0.949 . S
C174 C173 1.389 . S
C174 C175 1.387 . S
C175 C174 1.387 . S
C175 C176 1.372 . S
C176 H154 0.950 . S
C176 C175 1.372 . S
C176 C177 1.379 . S
C177 H155 0.948 . S
C177 C172 1.364 . S
C177 C176 1.379 . S
C178 C147 1.383 . S
C178 C165 1.479 . S
C178 C179 1.398 . S
C179 C144 1.382 . S
C179 H156 0.951 . S
C179 C178 1.398 . S
C180 C181 1.384 . S
C180 H193 0.947 . S
C180 C215 1.382 . S
C181 C180 1.384 . S
C181 C182 1.378 . S
C182 C181 1.378 . S
C182 C183 1.378 . S
C182 H194 0.952 . S
C183 C182 1.378 . S
C183 H195 0.950 . S
C183 C214 1.383 . S
H184 C203 0.947 . S
H185 C204 0.946 . S
H186 C206 0.953 . S
H187 C207 0.945 . S
H188 C209 0.952 . S
H189 C210 0.949 . S
H190 C212 0.950 . S
H191 C213 0.948 . S
H192 C215 0.951 . S
H193 C180 0.947 . S
H194 C182 0.952 . S
H195 C183 0.950 . S
N196 C199 1.382 . S
N196 C201 1.363 . S
N197 C199 1.371 . S
N197 C200 1.372 . S
N198 C200 1.361 . S
N198 C201 1.377 . S
C199 N196 1.382 . S
C199 N197 1.371 . S
C199 C202 1.480 . S
C200 N197 1.372 . S
C200 N198 1.361 . S
C200 C208 1.457 . S
C201 N196 1.363 . S
C201 N198 1.377 . S
C201 C214 1.479 . S
C202 C199 1.480 . S
C202 C203 1.383 . S
C202 C207 1.385 . S
C203 H184 0.947 . S
C203 C202 1.383 . S
C203 C204 1.388 . S
C204 H185 0.946 . S
C204 C203 1.388 . S
C204 C205 1.384 . S
C205 C204 1.384 . S
C205 C206 1.377 . S
C206 H186 0.953 . S
C206 C205 1.377 . S
C206 C207 1.369 . S
C207 H187 0.945 . S
C207 C202 1.385 . S
C207 C206 1.369 . S
C208 C200 1.457 . S
C208 C209 1.372 . S
C208 C213 1.364 . S
C209 H188 0.952 . S
C209 C208 1.372 . S
C209 C210 1.389 . S
C210 H189 0.949 . S
C210 C209 1.389 . S
C210 C211 1.387 . S
C211 C210 1.387 . S
C211 C212 1.372 . S
C212 H190 0.950 . S
C212 C211 1.372 . S
C212 C213 1.379 . S
C213 H191 0.948 . S
C213 C208 1.364 . S
C213 C212 1.379 . S
C214 C183 1.383 . S
C214 C201 1.479 . S
C214 C215 1.398 . S
C215 C180 1.382 . S
C215 H192 0.951 . S
C215 C214 1.398 . S
C216 C217 1.384 . S
C216 H229 0.947 . S
C216 C251 1.382 . S
C217 C216 1.384 . S
C217 C218 1.378 . S
C218 C217 1.378 . S
C218 C219 1.378 . S
C218 H230 0.952 . S
C219 C218 1.378 . S
C219 H231 0.950 . S
C219 C250 1.383 . S
H220 C239 0.947 . S
H221 C240 0.946 . S
H222 C242 0.953 . S
H223 C243 0.945 . S
H224 C245 0.952 . S
H225 C246 0.949 . S
H226 C248 0.950 . S
H227 C249 0.948 . S
H228 C251 0.951 . S
H229 C216 0.947 . S
H230 C218 0.952 . S
H231 C219 0.950 . S
N232 C235 1.382 . S
N232 C237 1.363 . S
N233 C235 1.371 . S
N233 C236 1.372 . S
N234 C236 1.361 . S
N234 C237 1.377 . S
C235 N232 1.382 . S
C235 N233 1.371 . S
C235 C238 1.480 . S
C236 N233 1.372 . S
C236 N234 1.361 . S
C236 C244 1.457 . S
C237 N232 1.363 . S
C237 N234 1.377 . S
C237 C250 1.479 . S
C238 C235 1.480 . S
C238 C239 1.383 . S
C238 C243 1.385 . S
C239 H220 0.947 . S
C239 C238 1.383 . S
C239 C240 1.388 . S
C240 H221 0.946 . S
C240 C239 1.388 . S
C240 C241 1.384 . S
C241 C240 1.384 . S
C241 C242 1.377 . S
C242 H222 0.953 . S
C242 C241 1.377 . S
C242 C243 1.369 . S
C243 H223 0.945 . S
C243 C238 1.385 . S
C243 C242 1.369 . S
C244 C236 1.457 . S
C244 C245 1.372 . S
C244 C249 1.364 . S
C245 H224 0.952 . S
C245 C244 1.372 . S
C245 C246 1.389 . S
C246 H225 0.949 . S
C246 C245 1.389 . S
C246 C247 1.387 . S
C247 C246 1.387 . S
C247 C248 1.372 . S
C248 H226 0.950 . S
C248 C247 1.372 . S
C248 C249 1.379 . S
C249 H227 0.948 . S
C249 C244 1.364 . S
C249 C248 1.379 . S
C250 C219 1.383 . S
C250 C237 1.479 . S
C250 C251 1.398 . S
C251 C216 1.382 . S
C251 H228 0.951 . S
C251 C250 1.398 . S
C252 C253 1.384 . S
C252 H265 0.947 . S
C252 C287 1.382 . S
C253 C252 1.384 . S
C253 C254 1.378 . S
C254 C253 1.378 . S
C254 C255 1.378 . S
C254 H266 0.952 . S
C255 C254 1.378 . S
C255 H267 0.950 . S
C255 C286 1.383 . S
H256 C275 0.947 . S
H257 C276 0.946 . S
H258 C278 0.953 . S
H259 C279 0.945 . S
H260 C281 0.952 . S
H261 C282 0.949 . S
H262 C284 0.950 . S
H263 C285 0.948 . S
H264 C287 0.951 . S
H265 C252 0.947 . S
H266 C254 0.952 . S
H267 C255 0.950 . S
N268 C271 1.382 . S
N268 C273 1.363 . S
N269 C271 1.371 . S
N269 C272 1.372 . S
N270 C272 1.361 . S
N270 C273 1.377 . S
C271 N268 1.382 . S
C271 N269 1.371 . S
C271 C274 1.480 . S
C272 N269 1.372 . S
C272 N270 1.361 . S
C272 C280 1.457 . S
C273 N268 1.363 . S
C273 N270 1.377 . S
C273 C286 1.479 . S
C274 C271 1.480 . S
C274 C275 1.383 . S
C274 C279 1.385 . S
C275 H256 0.947 . S
C275 C274 1.383 . S
C275 C276 1.388 . S
C276 H257 0.946 . S
C276 C275 1.388 . S
C276 C277 1.384 . S
C277 C276 1.384 . S
C277 C278 1.377 . S
C278 H258 0.953 . S
C278 C277 1.377 . S
C278 C279 1.369 . S
C279 H259 0.945 . S
C279 C274 1.385 . S
C279 C278 1.369 . S
C280 C272 1.457 . S
C280 C281 1.372 . S
C280 C285 1.364 . S
C281 H260 0.952 . S
C281 C280 1.372 . S
C281 C282 1.389 . S
C282 H261 0.949 . S
C282 C281 1.389 . S
C282 C283 1.387 . S
C283 C282 1.387 . S
C283 C284 1.372 . S
C284 H262 0.950 . S
C284 C283 1.372 . S
C284 C285 1.379 . S
C285 H263 0.948 . S
C285 C280 1.364 . S
C285 C284 1.379 . S
C286 C255 1.383 . S
C286 C273 1.479 . S
C286 C287 1.398 . S
C287 C252 1.382 . S
C287 H264 0.951 . S
C287 C286 1.398 . S
Tb288 N317 2.617 . S
Tb288 N323 2.572 . S
Tb288 O332 2.465 . S
Tb288 O333 2.387 . S
Tb288 O335 2.428 . S
Tb288 O336 2.308 . S
Tb288 O340 2.349 . S
Tb288 O343 2.393 . S
Tb288 C352 2.802 . S
C289 N290 1.379 . S
C289 C292 1.416 . S
C289 C296 1.424 . S
N290 C289 1.379 . S
N290 C293 1.334 . S
N290 Tb299 2.617 . S
C291 C293 1.390 . S
C291 C294 1.339 . S
C291 H311 0.930 . S
C292 C289 1.416 . S
C292 C294 1.416 . S
C292 C298 1.448 . S
C293 N290 1.334 . S
C293 C291 1.390 . S
C293 H304 0.930 . S
C294 C291 1.339 . S
C294 C292 1.416 . S
C294 H315 0.930 . S
C295 C296 1.413 . S
C295 C297 1.427 . S
C295 C301 1.416 . S
C296 C289 1.424 . S
C296 C295 1.413 . S
C296 N300 1.361 . S
C297 C295 1.427 . S
C297 C298 1.328 . S
C297 H312 0.929 . S
C298 C292 1.448 . S
C298 C297 1.328 . S
C298 H313 0.930 . S
Tb299 N290 2.617 . S
Tb299 N300 2.572 . S
Tb299 O334 2.349 1_655 S
Tb299 O337 2.393 . S
Tb299 O338 2.465 . S
Tb299 O339 2.387 . S
Tb299 O341 2.428 . S
Tb299 O342 2.308 1_655 S
Tb299 C363 2.802 . S
N300 C296 1.361 . S
N300 Tb299 2.572 . S
N300 C302 1.340 . S
C301 C295 1.416 . S
C301 C303 1.332 . S
C301 H309 0.931 . S
C302 N300 1.340 . S
C302 C303 1.407 . S
C302 H308 0.930 . S
C303 C301 1.332 . S
C303 C302 1.407 . S
C303 H305 0.929 . S
H304 C293 0.930 . S
H305 C303 0.929 . S
H306 C321 0.930 . S
H307 C328 0.929 . S
H308 C302 0.930 . S
H309 C301 0.931 . S
H310 C324 0.930 . S
H311 C291 0.930 . S
H312 C297 0.929 . S
H313 C298 0.930 . S
H314 C319 0.930 . S
H315 C294 0.930 . S
H316 C327 0.931 . S
N317 Tb288 2.617 . S
N317 C318 1.379 . S
N317 C321 1.334 . S
C318 N317 1.379 . S
C318 C320 1.416 . S
C318 C326 1.424 . S
C319 H314 0.930 . S
C319 C321 1.390 . S
C319 C322 1.339 . S
C320 C318 1.416 . S
C320 C322 1.416 . S
C320 C353 1.448 . S
C321 H306 0.930 . S
C321 N317 1.334 . S
C321 C319 1.390 . S
C322 C319 1.339 . S
C322 C320 1.416 . S
C322 H329 0.930 . S
N323 Tb288 2.572 . S
N323 C324 1.340 . S
N323 C326 1.361 . S
C324 H310 0.930 . S
C324 N323 1.340 . S
C324 C328 1.407 . S
C325 C326 1.413 . S
C325 C327 1.416 . S
C325 C354 1.427 . S
C326 C318 1.424 . S
C326 N323 1.361 . S
C326 C325 1.413 . S
C327 H316 0.931 . S
C327 C325 1.416 . S
C327 C328 1.332 . S
C328 H307 0.929 . S
C328 C324 1.407 . S
C328 C327 1.332 . S
H329 C322 0.930 . S
H330 C353 0.930 . S
H331 C354 0.929 . S
O332 Tb288 2.465 . S
O332 C352 1.264 . S
O333 Tb288 2.387 . S
O333 C344 1.264 . S
O334 Tb299 2.349 1_455 S
O334 C344 1.243 . S
O335 Tb288 2.428 . S
O335 C352 1.256 . S
O336 Tb288 2.308 . S
O336 C351 1.266 1_455 S
O337 Tb299 2.393 . S
O337 C351 1.248 . S
O338 Tb299 2.465 . S
O338 C363 1.264 . S
O339 Tb299 2.387 . S
O339 C355 1.264 . S
O340 Tb288 2.349 . S
O340 C355 1.243 1_455 S
O341 Tb299 2.428 . S
O341 C363 1.256 . S
O342 Tb299 2.308 1_455 S
O342 C362 1.266 . S
O343 Tb288 2.393 . S
O343 C362 1.248 . S
C344 O333 1.264 . S
C344 O334 1.243 . S
C345 C348 1.399 . S
C345 C350 1.383 . S
C345 C352 1.496 . S
C346 C347 1.399 . S
C346 C350 1.389 . S
C347 C346 1.399 . S
C347 C349 1.380 . S
C347 H364 0.929 . S
C348 C345 1.399 . S
C348 C349 1.392 . S
C348 H365 0.929 . S
C349 C347 1.380 . S
C349 C348 1.392 . S
C349 H366 0.929 . S
C350 C345 1.383 . S
C350 C346 1.389 . S
C350 H367 0.931 . S
C351 O336 1.266 1_655 S
C351 O337 1.248 . S
C352 Tb288 2.802 . S
C352 O332 1.264 . S
C352 O335 1.256 . S
C352 C345 1.496 . S
C353 C320 1.448 . S
C353 H330 0.930 . S
C353 C354 1.328 . S
C354 C325 1.427 . S
C354 H331 0.929 . S
C354 C353 1.328 . S
C355 O339 1.264 . S
C355 O340 1.243 1_655 S
C356 C359 1.399 . S
C356 C360 1.383 . S
C356 C363 1.496 . S
C357 C358 1.399 . S
C357 C360 1.389 . S
C358 C357 1.399 . S
C358 C361 1.380 . S
C358 H368 0.929 . S
C359 C356 1.399 . S
C359 C361 1.392 . S
C359 H369 0.929 . S
C360 C356 1.383 . S
C360 C357 1.389 . S
C360 H370 0.931 . S
C361 C358 1.380 . S
C361 C359 1.392 . S
C361 H371 0.929 . S
C362 O342 1.266 . S
C362 O343 1.248 . S
C363 Tb299 2.802 . S
C363 O338 1.264 . S
C363 O341 1.256 . S
C363 C356 1.496 . S
H364 C347 0.929 . S
H365 C348 0.929 . S
H366 C349 0.929 . S
H367 C350 0.931 . S
H368 C358 0.929 . S
H369 C359 0.929 . S
H370 C360 0.931 . S
H371 C361 0.929 . S
Tb372 N401 2.617 . S
Tb372 N407 2.572 . S
Tb372 O416 2.465 . S
Tb372 O417 2.387 . S
Tb372 O419 2.428 . S
Tb372 O420 2.308 . S
Tb372 O424 2.349 . S
Tb372 O427 2.393 . S
Tb372 C436 2.802 . S
C373 N374 1.379 . S
C373 C376 1.416 . S
C373 C380 1.424 . S
N374 C373 1.379 . S
N374 C377 1.334 . S
N374 Tb383 2.617 . S
C375 C377 1.390 . S
C375 C378 1.339 . S
C375 H395 0.930 . S
C376 C373 1.416 . S
C376 C378 1.416 . S
C376 C382 1.448 . S
C377 N374 1.334 . S
C377 C375 1.390 . S
C377 H388 0.930 . S
C378 C375 1.339 . S
C378 C376 1.416 . S
C378 H399 0.930 . S
C379 C380 1.413 . S
C379 C381 1.427 . S
C379 C385 1.416 . S
C380 C373 1.424 . S
C380 C379 1.413 . S
C380 N384 1.361 . S
C381 C379 1.427 . S
C381 C382 1.328 . S
C381 H396 0.929 . S
C382 C376 1.448 . S
C382 C381 1.328 . S
C382 H397 0.930 . S
Tb383 N374 2.617 . S
Tb383 N384 2.572 . S
Tb383 O418 2.349 . S
Tb383 O421 2.393 . S
Tb383 O422 2.465 . S
Tb383 O423 2.387 . S
Tb383 O425 2.428 . S
Tb383 O426 2.308 . S
Tb383 C447 2.802 . S
N384 C380 1.361 . S
N384 Tb383 2.572 . S
N384 C386 1.340 . S
C385 C379 1.416 . S
C385 C387 1.332 . S
C385 H393 0.931 . S
C386 N384 1.340 . S
C386 C387 1.407 . S
C386 H392 0.930 . S
C387 C385 1.332 . S
C387 C386 1.407 . S
C387 H389 0.929 . S
H388 C377 0.930 . S
H389 C387 0.929 . S
H390 C405 0.930 . S
H391 C412 0.929 . S
H392 C386 0.930 . S
H393 C385 0.931 . S
H394 C408 0.930 . S
H395 C375 0.930 . S
H396 C381 0.929 . S
H397 C382 0.930 . S
H398 C403 0.930 . S
H399 C378 0.930 . S
H400 C411 0.931 . S
N401 Tb372 2.617 . S
N401 C402 1.379 . S
N401 C405 1.334 . S
C402 N401 1.379 . S
C402 C404 1.416 . S
C402 C410 1.424 . S
C403 H398 0.930 . S
C403 C405 1.390 . S
C403 C406 1.339 . S
C404 C402 1.416 . S
C404 C406 1.416 . S
C404 C437 1.448 . S
C405 H390 0.930 . S
C405 N401 1.334 . S
C405 C403 1.390 . S
C406 C403 1.339 . S
C406 C404 1.416 . S
C406 H413 0.930 . S
N407 Tb372 2.572 . S
N407 C408 1.340 . S
N407 C410 1.361 . S
C408 H394 0.930 . S
C408 N407 1.340 . S
C408 C412 1.407 . S
C409 C410 1.413 . S
C409 C411 1.416 . S
C409 C438 1.427 . S
C410 C402 1.424 . S
C410 N407 1.361 . S
C410 C409 1.413 . S
C411 H400 0.931 . S
C411 C409 1.416 . S
C411 C412 1.332 . S
C412 H391 0.929 . S
C412 C408 1.407 . S
C412 C411 1.332 . S
H413 C406 0.930 . S
H414 C437 0.930 . S
H415 C438 0.929 . S
O416 Tb372 2.465 . S
O416 C436 1.264 . S
O417 Tb372 2.387 . S
O417 C428 1.264 . S
O418 Tb383 2.349 . S
O418 C428 1.243 . S
O419 Tb372 2.428 . S
O419 C436 1.256 . S
O420 Tb372 2.308 . S
O420 C435 1.266 . S
O421 Tb383 2.393 . S
O421 C435 1.248 . S
O422 Tb383 2.465 . S
O422 C447 1.264 . S
O423 Tb383 2.387 . S
O423 C439 1.264 . S
O424 Tb372 2.349 . S
O424 C439 1.243 . S
O425 Tb383 2.428 . S
O425 C447 1.256 . S
O426 Tb383 2.308 . S
O426 C446 1.266 . S
O427 Tb372 2.393 . S
O427 C446 1.248 . S
C428 O417 1.264 . S
C428 O418 1.243 . S
C429 C432 1.399 . S
C429 C434 1.383 . S
C429 C436 1.496 . S
C430 C431 1.399 . S
C430 C434 1.389 . S
C431 C430 1.399 . S
C431 C433 1.380 . S
C431 H448 0.929 . S
C432 C429 1.399 . S
C432 C433 1.392 . S
C432 H449 0.929 . S
C433 C431 1.380 . S
C433 C432 1.392 . S
C433 H450 0.929 . S
C434 C429 1.383 . S
C434 C430 1.389 . S
C434 H451 0.931 . S
C435 O420 1.266 . S
C435 O421 1.248 . S
C436 Tb372 2.802 . S
C436 O416 1.264 . S
C436 O419 1.256 . S
C436 C429 1.496 . S
C437 C404 1.448 . S
C437 H414 0.930 . S
C437 C438 1.328 . S
C438 C409 1.427 . S
C438 H415 0.929 . S
C438 C437 1.328 . S
C439 O423 1.264 . S
C439 O424 1.243 . S
C440 C443 1.399 . S
C440 C444 1.383 . S
C440 C447 1.496 . S
C441 C442 1.399 . S
C441 C444 1.389 . S
C442 C441 1.399 . S
C442 C445 1.380 . S
C442 H452 0.929 . S
C443 C440 1.399 . S
C443 C445 1.392 . S
C443 H453 0.929 . S
C444 C440 1.383 . S
C444 C441 1.389 . S
C444 H454 0.931 . S
C445 C442 1.380 . S
C445 C443 1.392 . S
C445 H455 0.929 . S
C446 O426 1.266 . S
C446 O427 1.248 . S
C447 Tb383 2.802 . S
C447 O422 1.264 . S
C447 O425 1.256 . S
C447 C440 1.496 . S
H448 C431 0.929 . S
H449 C432 0.929 . S
H450 C433 0.929 . S
H451 C434 0.931 . S
H452 C442 0.929 . S
H453 C443 0.929 . S
H454 C444 0.931 . S
H455 C445 0.929 . S
Tb456 N485 2.617 . S
Tb456 N491 2.572 . S
Tb456 O500 2.465 . S
Tb456 O501 2.387 . S
Tb456 O503 2.428 . S
Tb456 O504 2.308 . S
Tb456 O508 2.349 . S
Tb456 O511 2.393 . S
Tb456 C520 2.802 . S
C457 N458 1.379 . S
C457 C460 1.416 . S
C457 C464 1.424 . S
N458 C457 1.379 . S
N458 C461 1.334 . S
N458 Tb467 2.617 . S
C459 C461 1.390 . S
C459 C462 1.339 . S
C459 H479 0.930 . S
C460 C457 1.416 . S
C460 C462 1.416 . S
C460 C466 1.448 . S
C461 N458 1.334 . S
C461 C459 1.390 . S
C461 H472 0.930 . S
C462 C459 1.339 . S
C462 C460 1.416 . S
C462 H483 0.930 . S
C463 C464 1.413 . S
C463 C465 1.427 . S
C463 C469 1.416 . S
C464 C457 1.424 . S
C464 C463 1.413 . S
C464 N468 1.361 . S
C465 C463 1.427 . S
C465 C466 1.328 . S
C465 H480 0.929 . S
C466 C460 1.448 . S
C466 C465 1.328 . S
C466 H481 0.930 . S
Tb467 N458 2.617 . S
Tb467 N468 2.572 . S
Tb467 O502 2.349 1_655 S
Tb467 O505 2.393 . S
Tb467 O506 2.465 . S
Tb467 O507 2.387 . S
Tb467 O509 2.428 . S
Tb467 O510 2.308 1_655 S
Tb467 C531 2.802 . S
N468 C464 1.361 . S
N468 Tb467 2.572 . S
N468 C470 1.340 . S
C469 C463 1.416 . S
C469 C471 1.332 . S
C469 H477 0.931 . S
C470 N468 1.340 . S
C470 C471 1.407 . S
C470 H476 0.930 . S
C471 C469 1.332 . S
C471 C470 1.407 . S
C471 H473 0.929 . S
H472 C461 0.930 . S
H473 C471 0.929 . S
H474 C489 0.930 . S
H475 C496 0.929 . S
H476 C470 0.930 . S
H477 C469 0.931 . S
H478 C492 0.930 . S
H479 C459 0.930 . S
H480 C465 0.929 . S
H481 C466 0.930 . S
H482 C487 0.930 . S
H483 C462 0.930 . S
H484 C495 0.931 . S
N485 Tb456 2.617 . S
N485 C486 1.379 . S
N485 C489 1.334 . S
C486 N485 1.379 . S
C486 C488 1.416 . S
C486 C494 1.424 . S
C487 H482 0.930 . S
C487 C489 1.390 . S
C487 C490 1.339 . S
C488 C486 1.416 . S
C488 C490 1.416 . S
C488 C521 1.448 . S
C489 H474 0.930 . S
C489 N485 1.334 . S
C489 C487 1.390 . S
C490 C487 1.339 . S
C490 C488 1.416 . S
C490 H497 0.930 . S
N491 Tb456 2.572 . S
N491 C492 1.340 . S
N491 C494 1.361 . S
C492 H478 0.930 . S
C492 N491 1.340 . S
C492 C496 1.407 . S
C493 C494 1.413 . S
C493 C495 1.416 . S
C493 C522 1.427 . S
C494 C486 1.424 . S
C494 N491 1.361 . S
C494 C493 1.413 . S
C495 H484 0.931 . S
C495 C493 1.416 . S
C495 C496 1.332 . S
C496 H475 0.929 . S
C496 C492 1.407 . S
C496 C495 1.332 . S
H497 C490 0.930 . S
H498 C521 0.930 . S
H499 C522 0.929 . S
O500 Tb456 2.465 . S
O500 C520 1.264 . S
O501 Tb456 2.387 . S
O501 C512 1.264 . S
O502 Tb467 2.349 1_455 S
O502 C512 1.243 . S
O503 Tb456 2.428 . S
O503 C520 1.256 . S
O504 Tb456 2.308 . S
O504 C519 1.266 1_455 S
O505 Tb467 2.393 . S
O505 C519 1.248 . S
O506 Tb467 2.465 . S
O506 C531 1.264 . S
O507 Tb467 2.387 . S
O507 C523 1.264 . S
O508 Tb456 2.349 . S
O508 C523 1.243 1_455 S
O509 Tb467 2.428 . S
O509 C531 1.256 . S
O510 Tb467 2.308 1_455 S
O510 C530 1.266 . S
O511 Tb456 2.393 . S
O511 C530 1.248 . S
C512 O501 1.264 . S
C512 O502 1.243 . S
C513 C516 1.399 . S
C513 C518 1.383 . S
C513 C520 1.496 . S
C514 C515 1.399 . S
C514 C518 1.389 . S
C515 C514 1.399 . S
C515 C517 1.380 . S
C515 H532 0.929 . S
C516 C513 1.399 . S
C516 C517 1.392 . S
C516 H533 0.929 . S
C517 C515 1.380 . S
C517 C516 1.392 . S
C517 H534 0.929 . S
C518 C513 1.383 . S
C518 C514 1.389 . S
C518 H535 0.931 . S
C519 O504 1.266 1_655 S
C519 O505 1.248 . S
C520 Tb456 2.802 . S
C520 O500 1.264 . S
C520 O503 1.256 . S
C520 C513 1.496 . S
C521 C488 1.448 . S
C521 H498 0.930 . S
C521 C522 1.328 . S
C522 C493 1.427 . S
C522 H499 0.929 . S
C522 C521 1.328 . S
C523 O507 1.264 . S
C523 O508 1.243 1_655 S
C524 C527 1.399 . S
C524 C528 1.383 . S
C524 C531 1.496 . S
C525 C526 1.399 . S
C525 C528 1.389 . S
C526 C525 1.399 . S
C526 C529 1.380 . S
C526 H536 0.929 . S
C527 C524 1.399 . S
C527 C529 1.392 . S
C527 H537 0.929 . S
C528 C524 1.383 . S
C528 C525 1.389 . S
C528 H538 0.931 . S
C529 C526 1.380 . S
C529 C527 1.392 . S
C529 H539 0.929 . S
C530 O510 1.266 . S
C530 O511 1.248 . S
C531 Tb467 2.802 . S
C531 O506 1.264 . S
C531 O509 1.256 . S
C531 C524 1.496 . S
H532 C515 0.929 . S
H533 C516 0.929 . S
H534 C517 0.929 . S
H535 C518 0.931 . S
H536 C526 0.929 . S
H537 C527 0.929 . S
H538 C528 0.931 . S
H539 C529 0.929 . S
Tb540 N569 2.617 . S
Tb540 N575 2.572 . S
Tb540 O584 2.465 . S
Tb540 O585 2.387 . S
Tb540 O587 2.428 . S
Tb540 O588 2.308 . S
Tb540 O592 2.349 . S
Tb540 O595 2.393 . S
Tb540 C604 2.802 . S
C541 N542 1.379 . S
C541 C544 1.416 . S
C541 C548 1.424 . S
N542 C541 1.379 . S
N542 C545 1.334 . S
N542 Tb551 2.617 . S
C543 C545 1.390 . S
C543 C546 1.339 . S
C543 H563 0.930 . S
C544 C541 1.416 . S
C544 C546 1.416 . S
C544 C550 1.448 . S
C545 N542 1.334 . S
C545 C543 1.390 . S
C545 H556 0.930 . S
C546 C543 1.339 . S
C546 C544 1.416 . S
C546 H567 0.930 . S
C547 C548 1.413 . S
C547 C549 1.427 . S
C547 C553 1.416 . S
C548 C541 1.424 . S
C548 C547 1.413 . S
C548 N552 1.361 . S
C549 C547 1.427 . S
C549 C550 1.328 . S
C549 H564 0.929 . S
C550 C544 1.448 . S
C550 C549 1.328 . S
C550 H565 0.930 . S
Tb551 N542 2.617 . S
Tb551 N552 2.572 . S
Tb551 O586 2.349 . S
Tb551 O589 2.393 . S
Tb551 O590 2.465 . S
Tb551 O591 2.387 . S
Tb551 O593 2.428 . S
Tb551 O594 2.308 . S
Tb551 C615 2.802 . S
N552 C548 1.361 . S
N552 Tb551 2.572 . S
N552 C554 1.340 . S
C553 C547 1.416 . S
C553 C555 1.332 . S
C553 H561 0.931 . S
C554 N552 1.340 . S
C554 C555 1.407 . S
C554 H560 0.930 . S
C555 C553 1.332 . S
C555 C554 1.407 . S
C555 H557 0.929 . S
H556 C545 0.930 . S
H557 C555 0.929 . S
H558 C573 0.930 . S
H559 C580 0.929 . S
H560 C554 0.930 . S
H561 C553 0.931 . S
H562 C576 0.930 . S
H563 C543 0.930 . S
H564 C549 0.929 . S
H565 C550 0.930 . S
H566 C571 0.930 . S
H567 C546 0.930 . S
H568 C579 0.931 . S
N569 Tb540 2.617 . S
N569 C570 1.379 . S
N569 C573 1.334 . S
C570 N569 1.379 . S
C570 C572 1.416 . S
C570 C578 1.424 . S
C571 H566 0.930 . S
C571 C573 1.390 . S
C571 C574 1.339 . S
C572 C570 1.416 . S
C572 C574 1.416 . S
C572 C605 1.448 . S
C573 H558 0.930 . S
C573 N569 1.334 . S
C573 C571 1.390 . S
C574 C571 1.339 . S
C574 C572 1.416 . S
C574 H581 0.930 . S
N575 Tb540 2.572 . S
N575 C576 1.340 . S
N575 C578 1.361 . S
C576 H562 0.930 . S
C576 N575 1.340 . S
C576 C580 1.407 . S
C577 C578 1.413 . S
C577 C579 1.416 . S
C577 C606 1.427 . S
C578 C570 1.424 . S
C578 N575 1.361 . S
C578 C577 1.413 . S
C579 H568 0.931 . S
C579 C577 1.416 . S
C579 C580 1.332 . S
C580 H559 0.929 . S
C580 C576 1.407 . S
C580 C579 1.332 . S
H581 C574 0.930 . S
H582 C605 0.930 . S
H583 C606 0.929 . S
O584 Tb540 2.465 . S
O584 C604 1.264 . S
O585 Tb540 2.387 . S
O585 C596 1.264 . S
O586 Tb551 2.349 . S
O586 C596 1.243 . S
O587 Tb540 2.428 . S
O587 C604 1.256 . S
O588 Tb540 2.308 . S
O588 C603 1.266 . S
O589 Tb551 2.393 . S
O589 C603 1.248 . S
O590 Tb551 2.465 . S
O590 C615 1.264 . S
O591 Tb551 2.387 . S
O591 C607 1.264 . S
O592 Tb540 2.349 . S
O592 C607 1.243 . S
O593 Tb551 2.428 . S
O593 C615 1.256 . S
O594 Tb551 2.308 . S
O594 C614 1.266 . S
O595 Tb540 2.393 . S
O595 C614 1.248 . S
C596 O585 1.264 . S
C596 O586 1.243 . S
C597 C600 1.399 . S
C597 C602 1.383 . S
C597 C604 1.496 . S
C598 C599 1.399 . S
C598 C602 1.389 . S
C599 C598 1.399 . S
C599 C601 1.380 . S
C599 H616 0.929 . S
C600 C597 1.399 . S
C600 C601 1.392 . S
C600 H617 0.929 . S
C601 C599 1.380 . S
C601 C600 1.392 . S
C601 H618 0.929 . S
C602 C597 1.383 . S
C602 C598 1.389 . S
C602 H619 0.931 . S
C603 O588 1.266 . S
C603 O589 1.248 . S
C604 Tb540 2.802 . S
C604 O584 1.264 . S
C604 O587 1.256 . S
C604 C597 1.496 . S
C605 C572 1.448 . S
C605 H582 0.930 . S
C605 C606 1.328 . S
C606 C577 1.427 . S
C606 H583 0.929 . S
C606 C605 1.328 . S
C607 O591 1.264 . S
C607 O592 1.243 . S
C608 C611 1.399 . S
C608 C612 1.383 . S
C608 C615 1.496 . S
C609 C610 1.399 . S
C609 C612 1.389 . S
C610 C609 1.399 . S
C610 C613 1.380 . S
C610 H620 0.929 . S
C611 C608 1.399 . S
C611 C613 1.392 . S
C611 H621 0.929 . S
C612 C608 1.383 . S
C612 C609 1.389 . S
C612 H622 0.931 . S
C613 C610 1.380 . S
C613 C611 1.392 . S
C613 H623 0.929 . S
C614 O594 1.266 . S
C614 O595 1.248 . S
C615 Tb551 2.802 . S
C615 O590 1.264 . S
C615 O593 1.256 . S
C615 C608 1.496 . S
H616 C599 0.929 . S
H617 C600 0.929 . S
H618 C601 0.929 . S
H619 C602 0.931 . S
H620 C610 0.929 . S
H621 C611 0.929 . S
H622 C612 0.931 . S
H623 C613 0.929 . S
H624 C642 0.951 . S
H625 C644 0.951 . S
H626 C646 0.910 1_545 S
H627 C647 0.950 . S
H628 C649 0.950 . S
H629 C652 0.950 . S
H630 C653 0.950 . S
H631 C655 0.950 . S
H632 C656 0.950 . S
H633 C657 0.951 . S
H634 C659 0.951 . S
H635 C661 0.950 . S
H636 C662 0.950 . S
H637 C664 0.950 . S
H638 C667 0.950 . S
H639 C668 0.950 . S
H640 C670 0.950 . S
H641 C671 0.950 . S
C642 H624 0.951 . S
C642 C643 1.366 . S
C642 C644 1.388 . S
C643 C642 1.366 . S
C643 C647 1.385 . S
C644 H625 0.951 . S
C644 C642 1.388 . S
C644 C645 1.385 . S
C645 C644 1.385 . S
C645 C646 1.414 . S
C645 C648 1.480 1_565 S
C646 H626 0.910 1_565 S
C646 C645 1.414 . S
C646 C647 1.417 . S
C647 H627 0.950 . S
C647 C643 1.385 . S
C647 C646 1.417 . S
C648 C645 1.480 1_545 S
C648 C649 1.373 . S
C648 C650 1.389 . S
C649 H628 0.950 . S
C649 C648 1.373 . S
C649 C665 1.377 . S
C650 C648 1.389 . S
C650 C651 1.524 . S
C650 C664 1.377 . S
C651 C650 1.524 . S
C651 C652 1.397 . S
C651 C656 1.363 . S
C652 H629 0.950 . S
C652 C651 1.397 . S
C652 C653 1.334 . S
C653 H630 0.950 . S
C653 C652 1.334 . S
C653 C654 1.287 . S
C654 C653 1.287 . S
C654 C655 1.524 . S
C654 H673 0.913 . S
C655 H631 0.950 . S
C655 C654 1.524 . S
C655 C656 1.415 . S
C656 H632 0.950 . S
C656 C651 1.363 . S
C656 C655 1.415 . S
C657 H633 0.951 . S
C657 C658 1.366 . S
C657 C659 1.388 . S
C658 C657 1.366 . S
C658 C662 1.385 . S
C659 H634 0.951 . S
C659 C657 1.388 . S
C659 C660 1.366 . S
C660 C659 1.366 . S
C660 C661 1.414 . S
C660 C663 1.499 . S
C661 H635 0.950 . S
C661 C660 1.414 . S
C661 C662 1.374 . S
C662 H636 0.950 . S
C662 C658 1.385 . S
C662 C661 1.374 . S
C663 C660 1.499 . S
C663 C664 1.373 . S
C663 C665 1.389 . S
C664 H637 0.950 . S
C664 C650 1.377 . S
C664 C663 1.373 . S
C665 C649 1.377 . S
C665 C663 1.389 . S
C665 C666 1.524 . S
C666 C665 1.524 . S
C666 C667 1.397 . S
C666 C671 1.363 . S
C667 H638 0.950 . S
C667 C666 1.397 . S
C667 C668 1.334 1_455 S
C668 H639 0.950 . S
C668 C667 1.334 1_655 S
C668 C669 1.287 . S
C669 C668 1.287 . S
C669 C670 1.524 . S
C669 H672 0.999 . S
C670 H640 0.950 . S
C670 C669 1.524 . S
C670 C671 1.415 1_655 S
C671 H641 0.950 . S
C671 C666 1.363 . S
C671 C670 1.415 1_455 S
H672 C669 0.999 . S
H673 C654 0.913 . S
H674 C692 0.951 . S
H675 C694 0.951 . S
H676 C696 0.950 . S
H677 C697 0.950 . S
H678 C699 0.950 . S
H679 C702 0.950 . S
H680 C703 0.950 . S
H681 C705 0.950 . S
H682 C706 0.950 . S
H683 C707 0.951 . S
H684 C709 0.951 . S
H685 C711 0.950 . S
H686 C712 0.950 . S
H687 C714 0.950 . S
H688 C717 0.950 . S
H689 C718 0.950 . S
H690 C720 0.950 . S
H691 C721 0.950 . S
C692 H674 0.951 . S
C692 C693 1.366 . S
C692 C694 1.388 . S
C693 C692 1.366 . S
C693 C697 1.385 . S
C694 H675 0.951 . S
C694 C692 1.388 . S
C694 C695 1.366 . S
C695 C694 1.366 . S
C695 C696 1.414 . S
C695 C698 1.499 . S
C696 H676 0.950 . S
C696 C695 1.414 . S
C696 C697 1.374 . S
C697 H677 0.950 . S
C697 C693 1.385 . S
C697 C696 1.374 . S
C698 C695 1.499 . S
C698 C699 1.373 . S
C698 C700 1.389 . S
C699 H678 0.950 . S
C699 C698 1.373 . S
C699 C715 1.377 . S
C700 C698 1.389 . S
C700 C701 1.524 . S
C700 C714 1.377 . S
C701 C700 1.524 . S
C701 C702 1.397 . S
C701 C706 1.363 . S
C702 H679 0.950 . S
C702 C701 1.397 . S
C702 C703 1.334 . S
C703 H680 0.950 . S
C703 C702 1.334 . S
C703 C704 1.287 . S
C704 C703 1.287 . S
C704 C705 1.524 . S
C704 H723 0.913 . S
C705 H681 0.950 . S
C705 C704 1.524 . S
C705 C706 1.415 . S
C706 H682 0.950 . S
C706 C701 1.363 . S
C706 C705 1.415 . S
C707 H683 0.951 . S
C707 C708 1.366 . S
C707 C709 1.388 . S
C708 C707 1.366 . S
C708 C712 1.385 . S
C709 H684 0.951 . S
C709 C707 1.388 . S
C709 C710 1.366 . S
C710 C709 1.366 . S
C710 C711 1.414 . S
C710 C713 1.499 . S
C711 H685 0.950 . S
C711 C710 1.414 . S
C711 C712 1.374 . S
C712 H686 0.950 . S
C712 C708 1.385 . S
C712 C711 1.374 . S
C713 C710 1.499 . S
C713 C714 1.373 . S
C713 C715 1.389 . S
C714 H687 0.950 . S
C714 C700 1.377 . S
C714 C713 1.373 . S
C715 C699 1.377 . S
C715 C713 1.389 . S
C715 C716 1.524 . S
C716 C715 1.524 . S
C716 C717 1.397 . S
C716 C721 1.363 . S
C717 H688 0.950 . S
C717 C716 1.397 . S
C717 C718 1.334 . S
C718 H689 0.950 . S
C718 C717 1.334 . S
C718 C719 1.287 . S
C719 C718 1.287 . S
C719 C720 1.524 . S
C719 H722 0.999 . S
C720 H690 0.950 . S
C720 C719 1.524 . S
C720 C721 1.415 . S
C721 H691 0.950 . S
C721 C716 1.363 . S
C721 C720 1.415 . S
H722 C719 0.999 . S
H723 C704 0.913 . S
H724 C742 0.951 . S
H725 C744 0.951 . S
H726 C746 0.950 . S
H727 C747 0.950 . S
H728 C749 0.950 . S
H729 C752 0.950 . S
H730 C753 0.950 . S
H731 C755 0.950 . S
H732 C756 0.950 . S
H733 C757 0.951 . S
H734 C759 0.951 . S
H735 C761 0.950 . S
H736 C762 0.950 . S
H737 C764 0.950 . S
H738 C767 0.950 . S
H739 C768 0.950 . S
H740 C770 0.950 . S
H741 C771 0.950 . S
C742 H724 0.951 . S
C742 C743 1.366 . S
C742 C744 1.388 . S
C743 C742 1.366 . S
C743 C747 1.385 . S
C744 H725 0.951 . S
C744 C742 1.388 . S
C744 C745 1.366 . S
C745 C744 1.366 . S
C745 C746 1.414 . S
C745 C748 1.499 . S
C746 H726 0.950 . S
C746 C745 1.414 . S
C746 C747 1.374 . S
C747 H727 0.950 . S
C747 C743 1.385 . S
C747 C746 1.374 . S
C748 C745 1.499 . S
C748 C749 1.373 . S
C748 C750 1.389 . S
C749 H728 0.950 . S
C749 C748 1.373 . S
C749 C765 1.377 . S
C750 C748 1.389 . S
C750 C751 1.524 . S
C750 C764 1.377 . S
C751 C750 1.524 . S
C751 C752 1.397 . S
C751 C756 1.363 . S
C752 H729 0.950 . S
C752 C751 1.397 . S
C752 C753 1.334 . S
C753 H730 0.950 . S
C753 C752 1.334 . S
C753 C754 1.287 . S
C754 C753 1.287 . S
C754 C755 1.524 . S
C754 H773 0.913 . S
C755 H731 0.950 . S
C755 C754 1.524 . S
C755 C756 1.415 . S
C756 H732 0.950 . S
C756 C751 1.363 . S
C756 C755 1.415 . S
C757 H733 0.951 . S
C757 C758 1.366 . S
C757 C759 1.388 . S
C758 C757 1.366 . S
C758 C762 1.385 . S
C759 H734 0.951 . S
C759 C757 1.388 . S
C759 C760 1.366 . S
C760 C759 1.366 . S
C760 C761 1.414 . S
C760 C763 1.499 . S
C761 H735 0.950 . S
C761 C760 1.414 . S
C761 C762 1.374 . S
C762 H736 0.950 . S
C762 C758 1.385 . S
C762 C761 1.374 . S
C763 C760 1.499 . S
C763 C764 1.373 . S
C763 C765 1.389 . S
C764 H737 0.950 . S
C764 C750 1.377 . S
C764 C763 1.373 . S
C765 C749 1.377 . S
C765 C763 1.389 . S
C765 C766 1.524 . S
C766 C765 1.524 . S
C766 C767 1.397 . S
C766 C771 1.363 . S
C767 H738 0.950 . S
C767 C766 1.397 . S
C767 C768 1.334 . S
C768 H739 0.950 . S
C768 C767 1.334 . S
C768 C769 1.287 . S
C769 C768 1.287 . S
C769 C770 1.524 . S
C769 H772 0.999 . S
C770 H740 0.950 . S
C770 C769 1.524 . S
C770 C771 1.415 . S
C771 H741 0.950 . S
C771 C766 1.363 . S
C771 C770 1.415 . S
H772 C769 0.999 . S
H773 C754 0.913 . S
H774 C792 0.951 . S
H775 C794 0.951 . S
H776 C796 0.923 1_545 S
H777 C797 0.950 . S
H778 C799 0.950 . S
H779 C802 0.950 . S
H780 C803 0.950 . S
H781 C805 0.950 . S
H782 C806 0.950 . S
H783 C807 0.951 . S
H784 C809 0.951 . S
H785 C811 0.950 . S
H786 C812 0.950 . S
H787 C814 0.950 . S
H788 C817 0.950 . S
H789 C818 0.950 . S
H790 C820 0.950 . S
H791 C821 0.950 . S
C792 H774 0.951 . S
C792 C793 1.366 . S
C792 C794 1.388 . S
C793 C792 1.366 . S
C793 C797 1.385 . S
C794 H775 0.951 . S
C794 C792 1.388 . S
C794 C795 1.366 1_565 S
C795 C794 1.366 1_545 S
C795 C796 1.410 1_545 S
C795 C798 1.499 . S
C796 H776 0.923 1_565 S
C796 C795 1.410 1_565 S
C796 C797 1.406 . S
C797 H777 0.950 . S
C797 C793 1.385 . S
C797 C796 1.406 . S
C798 C795 1.499 . S
C798 C799 1.373 . S
C798 C800 1.389 . S
C799 H778 0.950 . S
C799 C798 1.373 . S
C799 C815 1.377 . S
C800 C798 1.389 . S
C800 C801 1.524 . S
C800 C814 1.377 . S
C801 C800 1.524 . S
C801 C802 1.397 . S
C801 C806 1.363 . S
C802 H779 0.950 . S
C802 C801 1.397 . S
C802 C803 1.334 . S
C803 H780 0.950 . S
C803 C802 1.334 . S
C803 C804 1.287 . S
C804 C803 1.287 . S
C804 C805 1.524 . S
C804 H823 0.913 . S
C805 H781 0.950 . S
C805 C804 1.524 . S
C805 C806 1.415 . S
C806 H782 0.950 . S
C806 C801 1.363 . S
C806 C805 1.415 . S
C807 H783 0.951 . S
C807 C808 1.366 . S
C807 C809 1.388 . S
C808 C807 1.366 . S
C808 C812 1.385 . S
C809 H784 0.951 . S
C809 C807 1.388 . S
C809 C810 1.366 . S
C810 C809 1.366 . S
C810 C811 1.414 . S
C810 C813 1.499 . S
C811 H785 0.950 . S
C811 C810 1.414 . S
C811 C812 1.374 . S
C812 H786 0.950 . S
C812 C808 1.385 . S
C812 C811 1.374 . S
C813 C810 1.499 . S
C813 C814 1.373 . S
C813 C815 1.389 . S
C814 H787 0.950 . S
C814 C800 1.377 . S
C814 C813 1.373 . S
C815 C799 1.377 . S
C815 C813 1.389 . S
C815 C816 1.524 . S
C816 C815 1.524 . S
C816 C817 1.397 . S
C816 C821 1.363 . S
C817 H788 0.950 . S
C817 C816 1.397 . S
C817 C818 1.334 1_655 S
C818 H789 0.950 . S
C818 C817 1.334 1_455 S
C818 C819 1.287 . S
C819 C818 1.287 . S
C819 C820 1.524 . S
C819 H822 0.999 . S
C820 H790 0.950 . S
C820 C819 1.524 . S
C820 C821 1.415 1_455 S
C821 H791 0.950 . S
C821 C816 1.363 . S
C821 C820 1.415 1_655 S
H822 C819 0.999 . S
H823 C804 0.913 . S
H824 C842 0.951 . S
H825 C844 0.951 . S
H826 C846 0.950 . S
H827 C847 0.950 . S
H828 C849 0.950 . S
H829 C852 0.966 . S
H830 C853 0.950 . S
H831 C855 0.950 . S
H832 C856 0.950 . S
H833 C857 0.951 . S
H834 C859 0.951 . S
H835 C861 0.950 . S
H836 C862 0.950 . S
H837 C864 0.950 . S
H838 C867 0.950 . S
H839 C868 0.950 . S
H840 C870 0.950 . S
H841 C871 0.950 . S
C842 H824 0.951 . S
C842 C843 1.366 . S
C842 C844 1.388 . S
C843 C842 1.366 . S
C843 C847 1.385 . S
C844 H825 0.951 . S
C844 C842 1.388 . S
C844 C845 1.366 . S
C845 C844 1.366 . S
C845 C846 1.414 1_545 S
C845 C848 1.499 1_545 S
C846 H826 0.950 . S
C846 C845 1.414 1_565 S
C846 C847 1.374 1_565 S
C847 H827 0.950 . S
C847 C843 1.385 . S
C847 C846 1.374 1_545 S
C848 C845 1.499 1_565 S
C848 C849 1.373 . S
C848 C850 1.389 . S
C849 H828 0.950 . S
C849 C848 1.373 . S
C849 C865 1.377 . S
C850 C848 1.389 . S
C850 C851 1.524 1_565 S
C850 C864 1.377 . S
C851 C850 1.524 1_545 S
C851 C852 1.397 . S
C851 C856 1.363 . S
C852 H829 0.966 . S
C852 C851 1.397 . S
C852 C853 1.334 . S
C853 H830 0.950 . S
C853 C852 1.334 . S
C853 C854 1.287 . S
C854 C853 1.287 . S
C854 C855 1.524 . S
C854 H873 0.913 1_655 S
C855 H831 0.950 . S
C855 C854 1.524 . S
C855 C856 1.415 . S
C856 H832 0.950 . S
C856 C851 1.363 . S
C856 C855 1.415 . S
C857 H833 0.951 . S
C857 C858 1.366 . S
C857 C859 1.388 . S
C858 C857 1.366 . S
C858 C862 1.385 . S
C859 H834 0.951 . S
C859 C857 1.388 . S
C859 C860 1.366 . S
C860 C859 1.366 . S
C860 C861 1.414 . S
C860 C863 1.499 . S
C861 H835 0.950 . S
C861 C860 1.414 . S
C861 C862 1.374 . S
C862 H836 0.950 . S
C862 C858 1.385 . S
C862 C861 1.374 . S
C863 C860 1.499 . S
C863 C864 1.373 . S
C863 C865 1.389 . S
C864 H837 0.950 . S
C864 C850 1.377 . S
C864 C863 1.373 . S
C865 C849 1.377 . S
C865 C863 1.389 . S
C865 C866 1.524 . S
C866 C865 1.524 . S
C866 C867 1.397 . S
C866 C871 1.363 . S
C867 H838 0.950 . S
C867 C866 1.397 . S
C867 C868 1.334 . S
C868 H839 0.950 . S
C868 C867 1.334 . S
C868 C869 1.287 . S
C869 C868 1.287 . S
C869 C870 1.524 . S
C869 H872 0.999 . S
C870 H840 0.950 . S
C870 C869 1.524 . S
C870 C871 1.415 . S
C871 H841 0.950 . S
C871 C866 1.363 . S
C871 C870 1.415 . S
H872 C869 0.999 . S
H873 C854 0.913 1_455 S
H874 C892 0.951 . S
H875 C894 0.951 . S
H876 C896 0.950 . S
H877 C897 0.950 . S
H878 C899 0.950 . S
H879 C902 0.950 . S
H880 C903 0.950 . S
H881 C905 0.950 . S
H882 C906 0.950 . S
H883 C907 0.951 . S
H884 C909 0.951 . S
H885 C911 0.950 . S
H886 C912 0.950 . S
H887 C914 0.950 . S
H888 C917 0.950 . S
H889 C918 0.950 . S
H890 C920 0.950 . S
H891 C921 0.950 . S
C892 H874 0.951 . S
C892 C893 1.366 . S
C892 C894 1.388 . S
C893 C892 1.366 . S
C893 C897 1.385 . S
C894 H875 0.951 . S
C894 C892 1.388 . S
C894 C895 1.366 . S
C895 C894 1.366 . S
C895 C896 1.414 . S
C895 C898 1.499 . S
C896 H876 0.950 . S
C896 C895 1.414 . S
C896 C897 1.374 . S
C897 H877 0.950 . S
C897 C893 1.385 . S
C897 C896 1.374 . S
C898 C895 1.499 . S
C898 C899 1.373 . S
C898 C900 1.389 . S
C899 H878 0.950 . S
C899 C898 1.373 . S
C899 C915 1.377 . S
C900 C898 1.389 . S
C900 C901 1.524 . S
C900 C914 1.377 . S
C901 C900 1.524 . S
C901 C902 1.397 . S
C901 C906 1.363 . S
C902 H879 0.950 . S
C902 C901 1.397 . S
C902 C903 1.334 . S
C903 H880 0.950 . S
C903 C902 1.334 . S
C903 C904 1.287 . S
C904 C903 1.287 . S
C904 C905 1.524 . S
C904 H923 0.913 . S
C905 H881 0.950 . S
C905 C904 1.524 . S
C905 C906 1.415 . S
C906 H882 0.950 . S
C906 C901 1.363 . S
C906 C905 1.415 . S
C907 H883 0.951 . S
C907 C908 1.366 . S
C907 C909 1.388 . S
C908 C907 1.366 . S
C908 C912 1.385 . S
C909 H884 0.951 . S
C909 C907 1.388 . S
C909 C910 1.366 . S
C910 C909 1.366 . S
C910 C911 1.414 . S
C910 C913 1.499 . S
C911 H885 0.950 . S
C911 C910 1.414 . S
C911 C912 1.374 . S
C912 H886 0.950 . S
C912 C908 1.385 . S
C912 C911 1.374 . S
C913 C910 1.499 . S
C913 C914 1.373 . S
C913 C915 1.389 . S
C914 H887 0.950 . S
C914 C900 1.377 . S
C914 C913 1.373 . S
C915 C899 1.377 . S
C915 C913 1.389 . S
C915 C916 1.524 . S
C916 C915 1.524 . S
C916 C917 1.397 . S
C916 C921 1.363 . S
C917 H888 0.950 . S
C917 C916 1.397 . S
C917 C918 1.334 . S
C918 H889 0.950 . S
C918 C917 1.334 . S
C918 C919 1.287 . S
C919 C918 1.287 . S
C919 C920 1.524 . S
C919 H922 0.999 . S
C920 H890 0.950 . S
C920 C919 1.524 . S
C920 C921 1.415 . S
C921 H891 0.950 . S
C921 C916 1.363 . S
C921 C920 1.415 . S
H922 C919 0.999 . S
H923 C904 0.913 . S
H924 C942 0.951 . S
H925 C944 0.951 . S
H926 C946 0.950 . S
H927 C947 0.950 . S
H928 C949 0.950 . S
H929 C952 0.950 . S
H930 C953 0.950 . S
H931 C955 0.950 . S
H932 C956 0.950 . S
H933 C957 0.951 . S
H934 C959 0.951 . S
H935 C961 0.950 . S
H936 C962 0.950 . S
H937 C964 0.950 . S
H938 C967 0.950 . S
H939 C968 0.950 . S
H940 C970 0.950 . S
H941 C971 0.950 . S
C942 H924 0.951 . S
C942 C943 1.366 . S
C942 C944 1.388 . S
C943 C942 1.366 . S
C943 C947 1.385 . S
C944 H925 0.951 . S
C944 C942 1.388 . S
C944 C945 1.366 . S
C945 C944 1.366 . S
C945 C946 1.414 . S
C945 C948 1.499 . S
C946 H926 0.950 . S
C946 C945 1.414 . S
C946 C947 1.374 . S
C947 H927 0.950 . S
C947 C943 1.385 . S
C947 C946 1.374 . S
C948 C945 1.499 . S
C948 C949 1.373 . S
C948 C950 1.389 . S
C949 H928 0.950 . S
C949 C948 1.373 . S
C949 C965 1.377 . S
C950 C948 1.389 . S
C950 C951 1.524 . S
C950 C964 1.377 . S
C951 C950 1.524 . S
C951 C952 1.397 . S
C951 C956 1.363 . S
C952 H929 0.950 . S
C952 C951 1.397 . S
C952 C953 1.334 . S
C953 H930 0.950 . S
C953 C952 1.334 . S
C953 C954 1.287 . S
C954 C953 1.287 . S
C954 C955 1.524 . S
C954 H973 0.913 . S
C955 H931 0.950 . S
C955 C954 1.524 . S
C955 C956 1.415 . S
C956 H932 0.950 . S
C956 C951 1.363 . S
C956 C955 1.415 . S
C957 H933 0.951 . S
C957 C958 1.366 . S
C957 C959 1.388 . S
C958 C957 1.366 . S
C958 C962 1.385 . S
C959 H934 0.951 . S
C959 C957 1.388 . S
C959 C960 1.366 . S
C960 C959 1.366 . S
C960 C961 1.414 . S
C960 C963 1.499 . S
C961 H935 0.950 . S
C961 C960 1.414 . S
C961 C962 1.374 . S
C962 H936 0.950 . S
C962 C958 1.385 . S
C962 C961 1.374 . S
C963 C960 1.499 . S
C963 C964 1.373 . S
C963 C965 1.389 . S
C964 H937 0.950 . S
C964 C950 1.377 . S
C964 C963 1.373 . S
C965 C949 1.377 . S
C965 C963 1.389 . S
C965 C966 1.524 . S
C966 C965 1.524 . S
C966 C967 1.397 . S
C966 C971 1.363 . S
C967 H938 0.950 . S
C967 C966 1.397 . S
C967 C968 1.334 . S
C968 H939 0.950 . S
C968 C967 1.334 . S
C968 C969 1.287 . S
C969 C968 1.287 . S
C969 C970 1.524 . S
C969 H972 0.999 . S
C970 H940 0.950 . S
C970 C969 1.524 . S
C970 C971 1.415 . S
C971 H941 0.950 . S
C971 C966 1.363 . S
C971 C970 1.415 . S
H972 C969 0.999 . S
H973 C954 0.913 . S
H974 C992 0.951 . S
H975 C994 0.951 . S
H976 C996 0.950 . S
H977 C997 0.950 . S
H978 C999 0.950 . S
H979 C1002 0.950 . S
H980 C1003 0.950 . S
H981 C1005 0.950 1_655 S
H982 C1006 0.950 . S
H983 C1007 0.951 . S
H984 C1009 0.951 . S
H985 C1011 0.950 . S
H986 C1012 0.950 . S
H987 C1014 0.950 . S
H988 C1017 0.950 . S
H989 C1018 0.950 . S
H990 C1020 0.950 . S
H991 C1021 0.950 . S
C992 H974 0.951 . S
C992 C993 1.366 . S
C992 C994 1.388 . S
C993 C992 1.366 . S
C993 C997 1.385 . S
C994 H975 0.951 . S
C994 C992 1.388 . S
C994 C995 1.366 1_545 S
C995 C994 1.366 1_565 S
C995 C996 1.414 . S
C995 C998 1.499 . S
C996 H976 0.950 . S
C996 C995 1.414 . S
C996 C997 1.374 1_565 S
C997 H977 0.950 . S
C997 C993 1.385 . S
C997 C996 1.374 1_545 S
C998 C995 1.499 . S
C998 C999 1.373 . S
C998 C1000 1.389 . S
C999 H978 0.950 . S
C999 C998 1.373 . S
C999 C1015 1.377 . S
C1000 C998 1.389 . S
C1000 C1001 1.524 . S
C1000 C1014 1.377 . S
C1001 C1000 1.524 . S
C1001 C1002 1.397 . S
C1001 C1006 1.363 . S
C1002 H979 0.950 . S
C1002 C1001 1.397 . S
C1002 C1003 1.334 . S
C1003 H980 0.950 . S
C1003 C1002 1.334 . S
C1003 C1004 1.287 . S
C1004 C1003 1.287 . S
C1004 C1005 1.524 . S
C1004 H1023 0.913 . S
C1005 H981 0.950 1_455 S
C1005 C1004 1.524 . S
C1005 C1006 1.415 . S
C1006 H982 0.950 . S
C1006 C1001 1.363 . S
C1006 C1005 1.415 . S
C1007 H983 0.951 . S
C1007 C1008 1.366 . S
C1007 C1009 1.388 . S
C1008 C1007 1.366 . S
C1008 C1012 1.385 . S
C1009 H984 0.951 . S
C1009 C1007 1.388 . S
C1009 C1010 1.366 . S
C1010 C1009 1.366 . S
C1010 C1011 1.414 . S
C1010 C1013 1.499 . S
C1011 H985 0.950 . S
C1011 C1010 1.414 . S
C1011 C1012 1.374 . S
C1012 H986 0.950 . S
C1012 C1008 1.385 . S
C1012 C1011 1.374 . S
C1013 C1010 1.499 . S
C1013 C1014 1.373 . S
C1013 C1015 1.389 . S
C1014 H987 0.950 . S
C1014 C1000 1.377 . S
C1014 C1013 1.373 . S
C1015 C999 1.377 . S
C1015 C1013 1.389 . S
C1015 C1016 1.524 . S
C1016 C1015 1.524 . S
C1016 C1017 1.397 . S
C1016 C1021 1.363 . S
C1017 H988 0.950 . S
C1017 C1016 1.397 . S
C1017 C1018 1.334 . S
C1018 H989 0.950 . S
C1018 C1017 1.334 . S
C1018 C1019 1.287 . S
C1019 C1018 1.287 . S
C1019 C1020 1.524 . S
C1019 H1022 0.999 . S
C1020 H990 0.950 . S
C1020 C1019 1.524 . S
C1020 C1021 1.415 . S
C1021 H991 0.950 . S
C1021 C1016 1.363 . S
C1021 C1020 1.415 . S
H1022 C1019 0.999 . S
H1023 C1004 0.913 . S
H1024 C1042 0.951 . S
H1025 C1044 0.951 . S
H1026 C1046 0.950 . S
H1027 C1047 0.950 1_556 S
H1028 C1049 0.950 . S
H1029 C1052 0.950 . S
H1030 C1053 0.950 . S
H1031 C1055 0.950 . S
H1032 C1056 0.950 . S
H1033 C1057 0.951 . S
H1034 C1059 0.951 . S
H1035 C1061 0.950 . S
H1036 C1062 0.950 . S
H1037 C1064 0.950 . S
H1038 C1067 0.950 . S
H1039 C1068 0.950 . S
H1040 C1070 0.950 . S
H1041 C1071 0.950 . S
C1042 H1024 0.951 . S
C1042 C1043 1.366 . S
C1042 C1044 1.388 . S
C1043 C1042 1.366 . S
C1043 C1047 1.385 . S
C1044 H1025 0.951 . S
C1044 C1042 1.388 . S
C1044 C1045 1.366 . S
C1045 C1044 1.366 . S
C1045 C1046 1.414 . S
C1045 C1048 1.499 . S
C1046 H1026 0.950 . S
C1046 C1045 1.414 . S
C1046 C1047 1.374 . S
C1047 H1027 0.950 1_554 S
C1047 C1043 1.385 . S
C1047 C1046 1.374 . S
C1048 C1045 1.499 . S
C1048 C1049 1.373 . S
C1048 C1050 1.389 . S
C1049 H1028 0.950 . S
C1049 C1048 1.373 . S
C1049 C1065 1.377 . S
C1050 C1048 1.389 . S
C1050 C1051 1.524 . S
C1050 C1064 1.377 . S
C1051 C1050 1.524 . S
C1051 C1052 1.397 . S
C1051 C1056 1.363 . S
C1052 H1029 0.950 . S
C1052 C1051 1.397 . S
C1052 C1053 1.334 . S
C1053 H1030 0.950 . S
C1053 C1052 1.334 . S
C1053 C1054 1.287 . S
C1054 C1053 1.287 . S
C1054 C1055 1.524 . S
C1054 H1073 0.913 . S
C1055 H1031 0.950 . S
C1055 C1054 1.524 . S
C1055 C1056 1.415 . S
C1056 H1032 0.950 . S
C1056 C1051 1.363 . S
C1056 C1055 1.415 . S
C1057 H1033 0.951 . S
C1057 C1058 1.366 . S
C1057 C1059 1.388 . S
C1058 C1057 1.366 . S
C1058 C1062 1.385 . S
C1059 H1034 0.951 . S
C1059 C1057 1.388 . S
C1059 C1060 1.366 . S
C1060 C1059 1.366 . S
C1060 C1061 1.414 . S
C1060 C1063 1.499 . S
C1061 H1035 0.950 . S
C1061 C1060 1.414 . S
C1061 C1062 1.374 . S
C1062 H1036 0.950 . S
C1062 C1058 1.385 . S
C1062 C1061 1.374 . S
C1063 C1060 1.499 . S
C1063 C1064 1.373 . S
C1063 C1065 1.389 . S
C1064 H1037 0.950 . S
C1064 C1050 1.377 . S
C1064 C1063 1.373 . S
C1065 C1049 1.377 . S
C1065 C1063 1.389 . S
C1065 C1066 1.524 . S
C1066 C1065 1.524 . S
C1066 C1067 1.397 . S
C1066 C1071 1.363 . S
C1067 H1038 0.950 . S
C1067 C1066 1.397 . S
C1067 C1068 1.334 . S
C1068 H1039 0.950 . S
C1068 C1067 1.334 . S
C1068 C1069 1.287 . S
C1069 C1068 1.287 . S
C1069 C1070 1.524 . S
C1069 H1072 0.999 . S
C1070 H1040 0.950 . S
C1070 C1069 1.524 . S
C1070 C1071 1.415 . S
C1071 H1041 0.950 . S
C1071 C1066 1.363 . S
C1071 C1070 1.415 . S
H1072 C1069 0.999 . S
H1073 C1054 0.913 . S
H1074 C1092 0.951 . S
H1075 C1094 0.951 . S
H1076 C1096 0.950 . S
H1077 C1097 0.950 . S
H1078 C1099 0.950 . S
H1079 C1102 0.950 . S
H1080 C1103 0.950 . S
H1081 C1105 0.950 . S
H1082 C1106 0.950 . S
H1083 C1107 0.951 . S
H1084 C1109 0.951 . S
H1085 C1111 0.950 . S
H1086 C1112 0.950 . S
H1087 C1114 0.950 . S
H1088 C1117 0.950 . S
H1089 C1118 0.950 . S
H1090 C1120 0.950 . S
H1091 C1121 0.950 . S
C1092 H1074 0.951 . S
C1092 C1093 1.366 . S
C1092 C1094 1.388 . S
C1093 C1092 1.366 . S
C1093 C1097 1.385 . S
C1094 H1075 0.951 . S
C1094 C1092 1.388 . S
C1094 C1095 1.366 . S
C1095 C1094 1.366 . S
C1095 C1096 1.414 . S
C1095 C1098 1.499 . S
C1096 H1076 0.950 . S
C1096 C1095 1.414 . S
C1096 C1097 1.374 . S
C1097 H1077 0.950 . S
C1097 C1093 1.385 . S
C1097 C1096 1.374 . S
C1098 C1095 1.499 . S
C1098 C1099 1.373 . S
C1098 C1100 1.389 . S
C1099 H1078 0.950 . S
C1099 C1098 1.373 . S
C1099 C1115 1.377 . S
C1100 C1098 1.389 . S
C1100 C1101 1.524 . S
C1100 C1114 1.377 . S
C1101 C1100 1.524 . S
C1101 C1102 1.397 . S
C1101 C1106 1.363 . S
C1102 H1079 0.950 . S
C1102 C1101 1.397 . S
C1102 C1103 1.334 . S
C1103 H1080 0.950 . S
C1103 C1102 1.334 . S
C1103 C1104 1.287 . S
C1104 C1103 1.287 . S
C1104 C1105 1.524 . S
C1104 H1123 0.913 . S
C1105 H1081 0.950 . S
C1105 C1104 1.524 . S
C1105 C1106 1.415 . S
C1106 H1082 0.950 . S
C1106 C1101 1.363 . S
C1106 C1105 1.415 . S
C1107 H1083 0.951 . S
C1107 C1108 1.366 . S
C1107 C1109 1.388 . S
C1108 C1107 1.366 . S
C1108 C1112 1.385 . S
C1109 H1084 0.951 . S
C1109 C1107 1.388 . S
C1109 C1110 1.366 . S
C1110 C1109 1.366 . S
C1110 C1111 1.414 . S
C1110 C1113 1.499 . S
C1111 H1085 0.950 . S
C1111 C1110 1.414 . S
C1111 C1112 1.374 . S
C1112 H1086 0.950 . S
C1112 C1108 1.385 . S
C1112 C1111 1.374 . S
C1113 C1110 1.499 . S
C1113 C1114 1.373 . S
C1113 C1115 1.389 . S
C1114 H1087 0.950 . S
C1114 C1100 1.377 . S
C1114 C1113 1.373 . S
C1115 C1099 1.377 . S
C1115 C1113 1.389 . S
C1115 C1116 1.524 . S
C1116 C1115 1.524 . S
C1116 C1117 1.397 . S
C1116 C1121 1.363 . S
C1117 H1088 0.950 . S
C1117 C1116 1.397 . S
C1117 C1118 1.334 . S
C1118 H1089 0.950 . S
C1118 C1117 1.334 . S
C1118 C1119 1.287 . S
C1119 C1118 1.287 . S
C1119 C1120 1.524 . S
C1119 H1122 0.999 . S
C1120 H1090 0.950 . S
C1120 C1119 1.524 . S
C1120 C1121 1.415 . S
C1121 H1091 0.950 . S
C1121 C1116 1.363 . S
C1121 C1120 1.415 . S
H1122 C1119 0.999 . S
H1123 C1104 0.913 . S
H1124 C1142 0.951 . S
H1125 C1144 0.951 . S
H1126 C1146 0.950 . S
H1127 C1147 0.950 1_554 S
H1128 C1149 0.950 . S
H1129 C1152 0.950 . S
H1130 C1153 0.950 . S
H1131 C1155 0.950 . S
H1132 C1156 0.950 . S
H1133 C1157 0.951 . S
H1134 C1159 0.951 . S
H1135 C1161 0.950 . S
H1136 C1162 0.950 . S
H1137 C1164 0.950 . S
H1138 C1167 0.950 . S
H1139 C1168 0.950 . S
H1140 C1170 0.950 . S
H1141 C1171 0.950 . S
C1142 H1124 0.951 . S
C1142 C1143 1.366 1_556 S
C1142 C1144 1.388 . S
C1143 C1142 1.366 1_554 S
C1143 C1147 1.385 1_554 S
C1144 H1125 0.951 . S
C1144 C1142 1.388 . S
C1144 C1145 1.366 . S
C1145 C1144 1.366 . S
C1145 C1146 1.414 . S
C1145 C1148 1.499 . S
C1146 H1126 0.950 . S
C1146 C1145 1.414 . S
C1146 C1147 1.374 . S
C1147 H1127 0.950 1_556 S
C1147 C1143 1.385 1_556 S
C1147 C1146 1.374 . S
C1148 C1145 1.499 . S
C1148 C1149 1.373 . S
C1148 C1150 1.389 . S
C1149 H1128 0.950 . S
C1149 C1148 1.373 . S
C1149 C1165 1.377 . S
C1150 C1148 1.389 . S
C1150 C1151 1.524 . S
C1150 C1164 1.377 . S
C1151 C1150 1.524 . S
C1151 C1152 1.397 . S
C1151 C1156 1.363 . S
C1152 H1129 0.950 . S
C1152 C1151 1.397 . S
C1152 C1153 1.334 . S
C1153 H1130 0.950 . S
C1153 C1152 1.334 . S
C1153 C1154 1.287 . S
C1154 C1153 1.287 . S
C1154 C1155 1.524 . S
C1154 H1173 0.913 . S
C1155 H1131 0.950 . S
C1155 C1154 1.524 . S
C1155 C1156 1.415 . S
C1156 H1132 0.950 . S
C1156 C1151 1.363 . S
C1156 C1155 1.415 . S
C1157 H1133 0.951 . S
C1157 C1158 1.366 . S
C1157 C1159 1.388 . S
C1158 C1157 1.366 . S
C1158 C1162 1.385 . S
C1159 H1134 0.951 . S
C1159 C1157 1.388 . S
C1159 C1160 1.366 . S
C1160 C1159 1.366 . S
C1160 C1161 1.414 . S
C1160 C1163 1.499 . S
C1161 H1135 0.950 . S
C1161 C1160 1.414 . S
C1161 C1162 1.374 . S
C1162 H1136 0.950 . S
C1162 C1158 1.385 . S
C1162 C1161 1.374 . S
C1163 C1160 1.499 . S
C1163 C1164 1.373 . S
C1163 C1165 1.389 . S
C1164 H1137 0.950 . S
C1164 C1150 1.377 . S
C1164 C1163 1.373 . S
C1165 C1149 1.377 . S
C1165 C1163 1.389 . S
C1165 C1166 1.524 . S
C1166 C1165 1.524 . S
C1166 C1167 1.397 . S
C1166 C1171 1.363 . S
C1167 H1138 0.950 . S
C1167 C1166 1.397 . S
C1167 C1168 1.334 . S
C1168 H1139 0.950 . S
C1168 C1167 1.334 . S
C1168 C1169 1.287 . S
C1169 C1168 1.287 . S
C1169 C1170 1.524 . S
C1169 H1172 0.999 . S
C1170 H1140 0.950 . S
C1170 C1169 1.524 . S
C1170 C1171 1.415 . S
C1171 H1141 0.950 . S
C1171 C1166 1.363 . S
C1171 C1170 1.415 . S
H1172 C1169 0.999 . S
H1173 C1154 0.913 . S
H1174 C1192 0.951 . S
H1175 C1194 0.951 . S
H1176 C1196 0.950 . S
H1177 C1197 0.950 . S
H1178 C1199 0.950 . S
H1179 C1202 0.950 . S
H1180 C1203 0.950 . S
H1181 C1205 0.950 . S
H1182 C1206 0.950 . S
H1183 C1207 0.951 . S
H1184 C1209 0.951 . S
H1185 C1211 0.950 . S
H1186 C1212 0.950 . S
H1187 C1214 0.950 . S
H1188 C1217 0.950 . S
H1189 C1218 0.950 . S
H1190 C1220 0.950 . S
H1191 C1221 0.950 . S
C1192 H1174 0.951 . S
C1192 C1193 1.366 . S
C1192 C1194 1.388 . S
C1193 C1192 1.366 . S
C1193 C1197 1.385 . S
C1194 H1175 0.951 . S
C1194 C1192 1.388 . S
C1194 C1195 1.366 . S
C1195 C1194 1.366 . S
C1195 C1196 1.414 . S
C1195 C1198 1.499 . S
C1196 H1176 0.950 . S
C1196 C1195 1.414 . S
C1196 C1197 1.374 . S
C1197 H1177 0.950 . S
C1197 C1193 1.385 . S
C1197 C1196 1.374 . S
C1198 C1195 1.499 . S
C1198 C1199 1.373 . S
C1198 C1200 1.389 . S
C1199 H1178 0.950 . S
C1199 C1198 1.373 . S
C1199 C1215 1.377 . S
C1200 C1198 1.389 . S
C1200 C1201 1.524 . S
C1200 C1214 1.377 . S
C1201 C1200 1.524 . S
C1201 C1202 1.397 . S
C1201 C1206 1.363 . S
C1202 H1179 0.950 . S
C1202 C1201 1.397 . S
C1202 C1203 1.334 . S
C1203 H1180 0.950 . S
C1203 C1202 1.334 . S
C1203 C1204 1.287 . S
C1204 C1203 1.287 . S
C1204 C1205 1.524 . S
C1204 H1223 0.913 . S
C1205 H1181 0.950 . S
C1205 C1204 1.524 . S
C1205 C1206 1.415 . S
C1206 H1182 0.950 . S
C1206 C1201 1.363 . S
C1206 C1205 1.415 . S
C1207 H1183 0.951 . S
C1207 C1208 1.366 . S
C1207 C1209 1.388 . S
C1208 C1207 1.366 . S
C1208 C1212 1.385 . S
C1209 H1184 0.951 . S
C1209 C1207 1.388 . S
C1209 C1210 1.366 . S
C1210 C1209 1.366 . S
C1210 C1211 1.414 . S
C1210 C1213 1.499 . S
C1211 H1185 0.950 . S
C1211 C1210 1.414 . S
C1211 C1212 1.374 . S
C1212 H1186 0.950 . S
C1212 C1208 1.385 . S
C1212 C1211 1.374 . S
C1213 C1210 1.499 . S
C1213 C1214 1.373 . S
C1213 C1215 1.389 . S
C1214 H1187 0.950 . S
C1214 C1200 1.377 . S
C1214 C1213 1.373 . S
C1215 C1199 1.377 . S
C1215 C1213 1.389 . S
C1215 C1216 1.524 . S
C1216 C1215 1.524 . S
C1216 C1217 1.397 . S
C1216 C1221 1.363 . S
C1217 H1188 0.950 . S
C1217 C1216 1.397 . S
C1217 C1218 1.334 . S
C1218 H1189 0.950 . S
C1218 C1217 1.334 . S
C1218 C1219 1.287 . S
C1219 C1218 1.287 . S
C1219 C1220 1.524 . S
C1219 H1222 0.999 . S
C1220 H1190 0.950 . S
C1220 C1219 1.524 . S
C1220 C1221 1.415 . S
C1221 H1191 0.950 . S
C1221 C1216 1.363 . S
C1221 C1220 1.415 . S
H1222 C1219 0.999 . S
H1223 C1204 0.913 . S
H1224 C1242 0.951 . S
H1225 C1244 0.951 . S
H1226 C1246 0.950 . S
H1227 C1247 0.950 1_554 S
H1228 C1249 0.950 . S
H1229 C1252 0.950 . S
H1230 C1253 0.950 . S
H1231 C1255 0.950 . S
H1232 C1256 0.950 . S
H1233 C1257 0.951 . S
H1234 C1259 0.951 . S
H1235 C1261 0.950 . S
H1236 C1262 0.950 . S
H1237 C1264 0.950 . S
H1238 C1267 0.950 . S
H1239 C1268 0.950 1_455 S
H1240 C1270 0.950 . S
H1241 C1271 0.950 . S
C1242 H1224 0.951 . S
C1242 C1243 1.366 . S
C1242 C1244 1.388 . S
C1243 C1242 1.366 . S
C1243 C1247 1.385 . S
C1244 H1225 0.951 . S
C1244 C1242 1.388 . S
C1244 C1245 1.366 . S
C1245 C1244 1.366 . S
C1245 C1246 1.414 . S
C1245 C1248 1.499 . S
C1246 H1226 0.950 . S
C1246 C1245 1.414 . S
C1246 C1247 1.374 . S
C1247 H1227 0.950 1_556 S
C1247 C1243 1.385 . S
C1247 C1246 1.374 . S
C1248 C1245 1.499 . S
C1248 C1249 1.373 . S
C1248 C1250 1.389 . S
C1249 H1228 0.950 . S
C1249 C1248 1.373 . S
C1249 C1265 1.377 . S
C1250 C1248 1.389 . S
C1250 C1251 1.524 . S
C1250 C1264 1.377 . S
C1251 C1250 1.524 . S
C1251 C1252 1.397 . S
C1251 C1256 1.363 . S
C1252 H1229 0.950 . S
C1252 C1251 1.397 . S
C1252 C1253 1.334 . S
C1253 H1230 0.950 . S
C1253 C1252 1.334 . S
C1253 C1254 1.287 . S
C1254 C1253 1.287 . S
C1254 C1255 1.524 . S
C1254 H1273 0.913 . S
C1255 H1231 0.950 . S
C1255 C1254 1.524 . S
C1255 C1256 1.415 . S
C1256 H1232 0.950 . S
C1256 C1251 1.363 . S
C1256 C1255 1.415 . S
C1257 H1233 0.951 . S
C1257 C1258 1.366 . S
C1257 C1259 1.388 . S
C1258 C1257 1.366 . S
C1258 C1262 1.385 . S
C1259 H1234 0.951 . S
C1259 C1257 1.388 . S
C1259 C1260 1.366 . S
C1260 C1259 1.366 . S
C1260 C1261 1.414 . S
C1260 C1263 1.499 . S
C1261 H1235 0.950 . S
C1261 C1260 1.414 . S
C1261 C1262 1.374 . S
C1262 H1236 0.950 . S
C1262 C1258 1.385 . S
C1262 C1261 1.374 . S
C1263 C1260 1.499 . S
C1263 C1264 1.373 . S
C1263 C1265 1.389 . S
C1264 H1237 0.950 . S
C1264 C1250 1.377 . S
C1264 C1263 1.373 . S
C1265 C1249 1.377 . S
C1265 C1263 1.389 . S
C1265 C1266 1.524 . S
C1266 C1265 1.524 . S
C1266 C1267 1.397 . S
C1266 C1271 1.363 . S
C1267 H1238 0.950 . S
C1267 C1266 1.397 . S
C1267 C1268 1.334 . S
C1268 H1239 0.950 1_655 S
C1268 C1267 1.334 . S
C1268 C1269 1.287 1_655 S
C1269 C1268 1.287 1_455 S
C1269 C1270 1.524 . S
C1269 H1272 0.999 . S
C1270 H1240 0.950 . S
C1270 C1269 1.524 . S
C1270 C1271 1.415 1_455 S
C1271 H1241 0.950 . S
C1271 C1266 1.363 . S
C1271 C1270 1.415 1_655 S
H1272 C1269 0.999 . S
H1273 C1254 0.913 . S
H1274 C1292 0.951 . S
H1275 C1294 0.951 . S
H1276 C1296 0.950 . S
H1277 C1297 0.950 . S
H1278 C1299 0.950 . S
H1279 C1302 0.950 . S
H1280 C1303 0.950 . S
H1281 C1305 0.950 . S
H1282 C1306 0.950 . S
H1283 C1307 0.951 . S
H1284 C1309 0.951 . S
H1285 C1311 0.950 . S
H1286 C1312 0.950 . S
H1287 C1314 0.950 . S
H1288 C1317 0.950 . S
H1289 C1318 0.950 . S
H1290 C1320 0.950 . S
H1291 C1321 0.950 . S
C1292 H1274 0.951 . S
C1292 C1293 1.366 . S
C1292 C1294 1.388 . S
C1293 C1292 1.366 . S
C1293 C1297 1.385 . S
C1294 H1275 0.951 . S
C1294 C1292 1.388 . S
C1294 C1295 1.366 . S
C1295 C1294 1.366 . S
C1295 C1296 1.414 . S
C1295 C1298 1.499 . S
C1296 H1276 0.950 . S
C1296 C1295 1.414 . S
C1296 C1297 1.374 . S
C1297 H1277 0.950 . S
C1297 C1293 1.385 . S
C1297 C1296 1.374 . S
C1298 C1295 1.499 . S
C1298 C1299 1.373 . S
C1298 C1300 1.389 . S
C1299 H1278 0.950 . S
C1299 C1298 1.373 . S
C1299 C1315 1.377 . S
C1300 C1298 1.389 . S
C1300 C1301 1.524 . S
C1300 C1314 1.377 . S
C1301 C1300 1.524 . S
C1301 C1302 1.397 . S
C1301 C1306 1.363 . S
C1302 H1279 0.950 . S
C1302 C1301 1.397 . S
C1302 C1303 1.334 . S
C1303 H1280 0.950 . S
C1303 C1302 1.334 . S
C1303 C1304 1.287 . S
C1304 C1303 1.287 . S
C1304 C1305 1.524 . S
C1304 H1323 0.913 . S
C1305 H1281 0.950 . S
C1305 C1304 1.524 . S
C1305 C1306 1.415 . S
C1306 H1282 0.950 . S
C1306 C1301 1.363 . S
C1306 C1305 1.415 . S
C1307 H1283 0.951 . S
C1307 C1308 1.366 . S
C1307 C1309 1.388 . S
C1308 C1307 1.366 . S
C1308 C1312 1.385 . S
C1309 H1284 0.951 . S
C1309 C1307 1.388 . S
C1309 C1310 1.366 . S
C1310 C1309 1.366 . S
C1310 C1311 1.414 . S
C1310 C1313 1.499 . S
C1311 H1285 0.950 . S
C1311 C1310 1.414 . S
C1311 C1312 1.374 . S
C1312 H1286 0.950 . S
C1312 C1308 1.385 . S
C1312 C1311 1.374 . S
C1313 C1310 1.499 . S
C1313 C1314 1.373 . S
C1313 C1315 1.389 . S
C1314 H1287 0.950 . S
C1314 C1300 1.377 . S
C1314 C1313 1.373 . S
C1315 C1299 1.377 . S
C1315 C1313 1.389 . S
C1315 C1316 1.524 . S
C1316 C1315 1.524 . S
C1316 C1317 1.397 . S
C1316 C1321 1.363 . S
C1317 H1288 0.950 . S
C1317 C1316 1.397 . S
C1317 C1318 1.334 . S
C1318 H1289 0.950 . S
C1318 C1317 1.334 . S
C1318 C1319 1.287 . S
C1319 C1318 1.287 . S
C1319 C1320 1.524 . S
C1319 H1322 0.999 . S
C1320 H1290 0.950 . S
C1320 C1319 1.524 . S
C1320 C1321 1.415 . S
C1321 H1291 0.950 . S
C1321 C1316 1.363 . S
C1321 C1320 1.415 . S
H1322 C1319 0.999 . S
H1323 C1304 0.913 . S
H1324 C1342 0.951 1_556 S
H1325 C1344 0.951 . S
H1326 C1346 0.950 . S
H1327 C1347 0.950 . S
H1328 C1349 0.950 . S
H1329 C1352 0.950 . S
H1330 C1353 0.950 . S
H1331 C1355 0.950 . S
H1332 C1356 0.950 . S
H1333 C1357 0.951 . S
H1334 C1359 0.951 . S
H1335 C1361 0.950 . S
H1336 C1362 0.950 . S
H1337 C1364 0.950 . S
H1338 C1367 0.950 . S
H1339 C1368 0.950 . S
H1340 C1370 0.950 . S
H1341 C1371 0.950 . S
C1342 H1324 0.951 1_554 S
C1342 C1343 1.366 1_554 S
C1342 C1344 1.388 . S
C1343 C1342 1.366 1_556 S
C1343 C1347 1.385 1_556 S
C1344 H1325 0.951 . S
C1344 C1342 1.388 . S
C1344 C1345 1.366 . S
C1345 C1344 1.366 . S
C1345 C1346 1.414 . S
C1345 C1348 1.499 . S
C1346 H1326 0.950 . S
C1346 C1345 1.414 . S
C1346 C1347 1.374 . S
C1347 H1327 0.950 . S
C1347 C1343 1.385 1_554 S
C1347 C1346 1.374 . S
C1348 C1345 1.499 . S
C1348 C1349 1.373 . S
C1348 C1350 1.389 . S
C1349 H1328 0.950 . S
C1349 C1348 1.373 . S
C1349 C1365 1.377 . S
C1350 C1348 1.389 . S
C1350 C1351 1.524 . S
C1350 C1364 1.377 . S
C1351 C1350 1.524 . S
C1351 C1352 1.397 . S
C1351 C1356 1.363 . S
C1352 H1329 0.950 . S
C1352 C1351 1.397 . S
C1352 C1353 1.334 . S
C1353 H1330 0.950 . S
C1353 C1352 1.334 . S
C1353 C1354 1.287 . S
C1354 C1353 1.287 . S
C1354 C1355 1.524 . S
C1354 H1373 0.913 . S
C1355 H1331 0.950 . S
C1355 C1354 1.524 . S
C1355 C1356 1.415 . S
C1356 H1332 0.950 . S
C1356 C1351 1.363 . S
C1356 C1355 1.415 . S
C1357 H1333 0.951 . S
C1357 C1358 1.366 . S
C1357 C1359 1.388 . S
C1358 C1357 1.366 . S
C1358 C1362 1.385 . S
C1359 H1334 0.951 . S
C1359 C1357 1.388 . S
C1359 C1360 1.366 . S
C1360 C1359 1.366 . S
C1360 C1361 1.414 . S
C1360 C1363 1.499 . S
C1361 H1335 0.950 . S
C1361 C1360 1.414 . S
C1361 C1362 1.374 . S
C1362 H1336 0.950 . S
C1362 C1358 1.385 . S
C1362 C1361 1.374 . S
C1363 C1360 1.499 . S
C1363 C1364 1.373 . S
C1363 C1365 1.389 . S
C1364 H1337 0.950 . S
C1364 C1350 1.377 . S
C1364 C1363 1.373 . S
C1365 C1349 1.377 . S
C1365 C1363 1.389 . S
C1365 C1366 1.524 . S
C1366 C1365 1.524 . S
C1366 C1367 1.397 . S
C1366 C1371 1.363 . S
C1367 H1338 0.950 . S
C1367 C1366 1.397 . S
C1367 C1368 1.334 . S
C1368 H1339 0.950 . S
C1368 C1367 1.334 . S
C1368 C1369 1.287 . S
C1369 C1368 1.287 . S
C1369 C1370 1.524 . S
C1369 H1372 0.999 . S
C1370 H1340 0.950 . S
C1370 C1369 1.524 . S
C1370 C1371 1.415 . S
C1371 H1341 0.950 . S
C1371 C1366 1.363 . S
C1371 C1370 1.415 . S
H1372 C1369 0.999 . S
H1373 C1354 0.913 . S
H1374 C1392 0.951 . S
H1375 C1394 0.951 . S
H1376 C1396 0.950 . S
H1377 C1397 0.950 . S
H1378 C1399 0.950 . S
H1379 C1402 0.950 . S
H1380 C1403 0.950 . S
H1381 C1405 0.950 . S
H1382 C1406 0.950 . S
H1383 C1407 0.951 . S
H1384 C1409 0.951 . S
H1385 C1411 0.950 . S
H1386 C1412 0.950 . S
H1387 C1414 0.950 . S
H1388 C1417 0.950 . S
H1389 C1418 0.950 . S
H1390 C1420 0.950 . S
H1391 C1421 0.950 . S
C1392 H1374 0.951 . S
C1392 C1393 1.366 . S
C1392 C1394 1.388 . S
C1393 C1392 1.366 . S
C1393 C1397 1.385 . S
C1394 H1375 0.951 . S
C1394 C1392 1.388 . S
C1394 C1395 1.366 . S
C1395 C1394 1.366 . S
C1395 C1396 1.414 . S
C1395 C1398 1.499 . S
C1396 H1376 0.950 . S
C1396 C1395 1.414 . S
C1396 C1397 1.374 . S
C1397 H1377 0.950 . S
C1397 C1393 1.385 . S
C1397 C1396 1.374 . S
C1398 C1395 1.499 . S
C1398 C1399 1.373 . S
C1398 C1400 1.389 . S
C1399 H1378 0.950 . S
C1399 C1398 1.373 . S
C1399 C1415 1.377 . S
C1400 C1398 1.389 . S
C1400 C1401 1.524 . S
C1400 C1414 1.377 . S
C1401 C1400 1.524 . S
C1401 C1402 1.397 . S
C1401 C1406 1.363 . S
C1402 H1379 0.950 . S
C1402 C1401 1.397 . S
C1402 C1403 1.334 . S
C1403 H1380 0.950 . S
C1403 C1402 1.334 . S
C1403 C1404 1.287 . S
C1404 C1403 1.287 . S
C1404 C1405 1.524 . S
C1404 H1423 0.913 . S
C1405 H1381 0.950 . S
C1405 C1404 1.524 . S
C1405 C1406 1.415 . S
C1406 H1382 0.950 . S
C1406 C1401 1.363 . S
C1406 C1405 1.415 . S
C1407 H1383 0.951 . S
C1407 C1408 1.366 . S
C1407 C1409 1.388 . S
C1408 C1407 1.366 . S
C1408 C1412 1.385 . S
C1409 H1384 0.951 . S
C1409 C1407 1.388 . S
C1409 C1410 1.366 . S
C1410 C1409 1.366 . S
C1410 C1411 1.414 . S
C1410 C1413 1.499 . S
C1411 H1385 0.950 . S
C1411 C1410 1.414 . S
C1411 C1412 1.374 . S
C1412 H1386 0.950 . S
C1412 C1408 1.385 . S
C1412 C1411 1.374 . S
C1413 C1410 1.499 . S
C1413 C1414 1.373 . S
C1413 C1415 1.389 . S
C1414 H1387 0.950 . S
C1414 C1400 1.377 . S
C1414 C1413 1.373 . S
C1415 C1399 1.377 . S
C1415 C1413 1.389 . S
C1415 C1416 1.524 . S
C1416 C1415 1.524 . S
C1416 C1417 1.397 . S
C1416 C1421 1.363 . S
C1417 H1388 0.950 . S
C1417 C1416 1.397 . S
C1417 C1418 1.334 . S
C1418 H1389 0.950 . S
C1418 C1417 1.334 . S
C1418 C1419 1.287 . S
C1419 C1418 1.287 . S
C1419 C1420 1.524 . S
C1419 H1422 0.999 . S
C1420 H1390 0.950 . S
C1420 C1419 1.524 . S
C1420 C1421 1.415 . S
C1421 H1391 0.950 . S
C1421 C1416 1.363 . S
C1421 C1420 1.415 . S
H1422 C1419 0.999 . S
H1423 C1404 0.913 . S
H1424 C1442 0.951 . S
H1425 C1444 0.951 . S
H1426 C1446 0.950 . S
H1427 C1447 0.950 . S
H1428 C1449 0.950 . S
H1429 C1452 0.950 . S
H1430 C1453 0.950 . S
H1431 C1455 0.950 1_655 S
H1432 C1456 0.950 . S
H1433 C1457 0.951 . S
H1434 C1459 0.951 . S
H1435 C1461 0.950 . S
H1436 C1462 0.950 . S
H1437 C1464 0.950 . S
H1438 C1467 0.950 . S
H1439 C1468 0.950 . S
H1440 C1470 0.950 . S
H1441 C1471 0.950 . S
C1442 H1424 0.951 . S
C1442 C1443 1.366 . S
C1442 C1444 1.388 . S
C1443 C1442 1.366 . S
C1443 C1447 1.385 . S
C1444 H1425 0.951 . S
C1444 C1442 1.388 . S
C1444 C1445 1.366 . S
C1445 C1444 1.366 . S
C1445 C1446 1.414 . S
C1445 C1448 1.499 . S
C1446 H1426 0.950 . S
C1446 C1445 1.414 . S
C1446 C1447 1.374 . S
C1447 H1427 0.950 . S
C1447 C1443 1.385 . S
C1447 C1446 1.374 . S
C1448 C1445 1.499 . S
C1448 C1449 1.373 . S
C1448 C1450 1.389 . S
C1449 H1428 0.950 . S
C1449 C1448 1.373 . S
C1449 C1465 1.377 . S
C1450 C1448 1.389 . S
C1450 C1451 1.524 . S
C1450 C1464 1.377 . S
C1451 C1450 1.524 . S
C1451 C1452 1.397 . S
C1451 C1456 1.363 . S
C1452 H1429 0.950 . S
C1452 C1451 1.397 . S
C1452 C1453 1.334 . S
C1453 H1430 0.950 . S
C1453 C1452 1.334 . S
C1453 C1454 1.287 . S
C1454 C1453 1.287 . S
C1454 C1455 1.524 . S
C1454 H1473 0.913 . S
C1455 H1431 0.950 1_455 S
C1455 C1454 1.524 . S
C1455 C1456 1.415 . S
C1456 H1432 0.950 . S
C1456 C1451 1.363 . S
C1456 C1455 1.415 . S
C1457 H1433 0.951 . S
C1457 C1458 1.366 . S
C1457 C1459 1.388 . S
C1458 C1457 1.366 . S
C1458 C1462 1.385 . S
C1459 H1434 0.951 . S
C1459 C1457 1.388 . S
C1459 C1460 1.366 . S
C1460 C1459 1.366 . S
C1460 C1461 1.414 . S
C1460 C1463 1.499 . S
C1461 H1435 0.950 . S
C1461 C1460 1.414 . S
C1461 C1462 1.374 . S
C1462 H1436 0.950 . S
C1462 C1458 1.385 . S
C1462 C1461 1.374 . S
C1463 C1460 1.499 . S
C1463 C1464 1.373 . S
C1463 C1465 1.389 . S
C1464 H1437 0.950 . S
C1464 C1450 1.377 . S
C1464 C1463 1.373 . S
C1465 C1449 1.377 . S
C1465 C1463 1.389 . S
C1465 C1466 1.524 . S
C1466 C1465 1.524 . S
C1466 C1467 1.397 . S
C1466 C1471 1.363 . S
C1467 H1438 0.950 . S
C1467 C1466 1.397 . S
C1467 C1468 1.334 . S
C1468 H1439 0.950 . S
C1468 C1467 1.334 . S
C1468 C1469 1.287 . S
C1469 C1468 1.287 . S
C1469 C1470 1.524 . S
C1469 H1472 0.999 . S
C1470 H1440 0.950 . S
C1470 C1469 1.524 . S
C1470 C1471 1.415 . S
C1471 H1441 0.950 . S
C1471 C1466 1.363 . S
C1471 C1470 1.415 . S
H1472 C1469 0.999 . S
H1473 C1454 0.913 . S
H1474 C1492 0.951 . S
H1475 C1494 0.951 . S
H1476 C1496 0.950 . S
H1477 C1497 0.950 . S
H1478 C1499 0.950 . S
H1479 C1502 0.950 . S
H1480 C1503 0.950 . S
H1481 C1505 0.950 . S
H1482 C1506 0.950 . S
H1483 C1507 0.951 . S
H1484 C1509 0.951 . S
H1485 C1511 0.950 . S
H1486 C1512 0.950 . S
H1487 C1514 0.950 . S
H1488 C1517 0.950 . S
H1489 C1518 0.950 . S
H1490 C1520 0.950 . S
H1491 C1521 0.950 . S
C1492 H1474 0.951 . S
C1492 C1493 1.366 . S
C1492 C1494 1.388 . S
C1493 C1492 1.366 . S
C1493 C1497 1.385 . S
C1494 H1475 0.951 . S
C1494 C1492 1.388 . S
C1494 C1495 1.366 . S
C1495 C1494 1.366 . S
C1495 C1496 1.414 . S
C1495 C1498 1.499 . S
C1496 H1476 0.950 . S
C1496 C1495 1.414 . S
C1496 C1497 1.374 . S
C1497 H1477 0.950 . S
C1497 C1493 1.385 . S
C1497 C1496 1.374 . S
C1498 C1495 1.499 . S
C1498 C1499 1.373 . S
C1498 C1500 1.389 . S
C1499 H1478 0.950 . S
C1499 C1498 1.373 . S
C1499 C1515 1.377 . S
C1500 C1498 1.389 . S
C1500 C1501 1.524 . S
C1500 C1514 1.377 . S
C1501 C1500 1.524 . S
C1501 C1502 1.397 . S
C1501 C1506 1.363 . S
C1502 H1479 0.950 . S
C1502 C1501 1.397 . S
C1502 C1503 1.334 . S
C1503 H1480 0.950 . S
C1503 C1502 1.334 . S
C1503 C1504 1.287 . S
C1504 C1503 1.287 . S
C1504 C1505 1.524 . S
C1504 H1523 0.913 . S
C1505 H1481 0.950 . S
C1505 C1504 1.524 . S
C1505 C1506 1.415 . S
C1506 H1482 0.950 . S
C1506 C1501 1.363 . S
C1506 C1505 1.415 . S
C1507 H1483 0.951 . S
C1507 C1508 1.366 . S
C1507 C1509 1.388 . S
C1508 C1507 1.366 . S
C1508 C1512 1.385 . S
C1509 H1484 0.951 . S
C1509 C1507 1.388 . S
C1509 C1510 1.366 . S
C1510 C1509 1.366 . S
C1510 C1511 1.414 . S
C1510 C1513 1.499 . S
C1511 H1485 0.950 . S
C1511 C1510 1.414 . S
C1511 C1512 1.374 . S
C1512 H1486 0.950 . S
C1512 C1508 1.385 . S
C1512 C1511 1.374 . S
C1513 C1510 1.499 . S
C1513 C1514 1.373 . S
C1513 C1515 1.389 . S
C1514 H1487 0.950 . S
C1514 C1500 1.377 . S
C1514 C1513 1.373 . S
C1515 C1499 1.377 . S
C1515 C1513 1.389 . S
C1515 C1516 1.524 . S
C1516 C1515 1.524 . S
C1516 C1517 1.397 . S
C1516 C1521 1.363 . S
C1517 H1488 0.950 . S
C1517 C1516 1.397 . S
C1517 C1518 1.334 . S
C1518 H1489 0.950 . S
C1518 C1517 1.334 . S
C1518 C1519 1.287 . S
C1519 C1518 1.287 . S
C1519 C1520 1.524 . S
C1519 H1522 0.999 . S
C1520 H1490 0.950 . S
C1520 C1519 1.524 . S
C1520 C1521 1.415 . S
C1521 H1491 0.950 . S
C1521 C1516 1.363 . S
C1521 C1520 1.415 . S
H1522 C1519 0.999 . S
H1523 C1504 0.913 . S
H1524 C1542 0.951 . S
H1525 C1544 0.951 . S
H1526 C1546 0.950 . S
H1527 C1547 0.950 . S
H1528 C1549 0.950 . S
H1529 C1552 0.950 . S
H1530 C1553 0.950 . S
H1531 C1555 0.950 . S
H1532 C1556 0.950 . S
H1533 C1557 0.951 . S
H1534 C1559 0.951 . S
H1535 C1561 0.950 . S
H1536 C1562 0.950 . S
H1537 C1564 0.950 . S
H1538 C1567 0.950 . S
H1539 C1568 0.950 . S
H1540 C1570 0.950 . S
H1541 C1571 0.950 . S
C1542 H1524 0.951 . S
C1542 C1543 1.366 . S
C1542 C1544 1.388 . S
C1543 C1542 1.366 . S
C1543 C1547 1.385 . S
C1544 H1525 0.951 . S
C1544 C1542 1.388 . S
C1544 C1545 1.366 . S
C1545 C1544 1.366 . S
C1545 C1546 1.414 . S
C1545 C1548 1.499 . S
C1546 H1526 0.950 . S
C1546 C1545 1.414 . S
C1546 C1547 1.374 . S
C1547 H1527 0.950 . S
C1547 C1543 1.385 . S
C1547 C1546 1.374 . S
C1548 C1545 1.499 . S
C1548 C1549 1.373 . S
C1548 C1550 1.389 . S
C1549 H1528 0.950 . S
C1549 C1548 1.373 . S
C1549 C1565 1.377 . S
C1550 C1548 1.389 . S
C1550 C1551 1.524 . S
C1550 C1564 1.377 . S
C1551 C1550 1.524 . S
C1551 C1552 1.397 . S
C1551 C1556 1.363 . S
C1552 H1529 0.950 . S
C1552 C1551 1.397 . S
C1552 C1553 1.334 . S
C1553 H1530 0.950 . S
C1553 C1552 1.334 . S
C1553 C1554 1.287 . S
C1554 C1553 1.287 . S
C1554 C1555 1.524 . S
C1554 H1573 0.913 . S
C1555 H1531 0.950 . S
C1555 C1554 1.524 . S
C1555 C1556 1.415 . S
C1556 H1532 0.950 . S
C1556 C1551 1.363 . S
C1556 C1555 1.415 . S
C1557 H1533 0.951 . S
C1557 C1558 1.366 . S
C1557 C1559 1.388 . S
C1558 C1557 1.366 . S
C1558 C1562 1.385 . S
C1559 H1534 0.951 . S
C1559 C1557 1.388 . S
C1559 C1560 1.366 . S
C1560 C1559 1.366 . S
C1560 C1561 1.414 . S
C1560 C1563 1.499 . S
C1561 H1535 0.950 . S
C1561 C1560 1.414 . S
C1561 C1562 1.374 . S
C1562 H1536 0.950 . S
C1562 C1558 1.385 . S
C1562 C1561 1.374 . S
C1563 C1560 1.499 . S
C1563 C1564 1.373 . S
C1563 C1565 1.389 . S
C1564 H1537 0.950 . S
C1564 C1550 1.377 . S
C1564 C1563 1.373 . S
C1565 C1549 1.377 . S
C1565 C1563 1.389 . S
C1565 C1566 1.524 . S
C1566 C1565 1.524 . S
C1566 C1567 1.397 . S
C1566 C1571 1.363 . S
C1567 H1538 0.950 . S
C1567 C1566 1.397 . S
C1567 C1568 1.334 . S
C1568 H1539 0.950 . S
C1568 C1567 1.334 . S
C1568 C1569 1.287 . S
C1569 C1568 1.287 . S
C1569 C1570 1.524 . S
C1569 H1572 0.999 . S
C1570 H1540 0.950 . S
C1570 C1569 1.524 . S
C1570 C1571 1.415 . S
C1571 H1541 0.950 . S
C1571 C1566 1.363 . S
C1571 C1570 1.415 . S
H1572 C1569 0.999 . S
H1573 C1554 0.913 . S
H1574 C1592 0.951 . S
H1575 C1594 0.951 . S
H1576 C1596 0.950 . S
H1577 C1597 0.950 . S
H1578 C1599 0.950 . S
H1579 C1602 0.950 . S
H1580 C1603 0.950 . S
H1581 C1605 0.950 1_455 S
H1582 C1606 0.950 . S
H1583 C1607 0.951 . S
H1584 C1609 0.951 . S
H1585 C1611 0.950 . S
H1586 C1612 0.950 1_455 S
H1587 C1614 0.950 . S
H1588 C1617 0.950 . S
H1589 C1618 0.950 . S
H1590 C1620 0.950 . S
H1591 C1621 0.950 . S
C1592 H1574 0.951 . S
C1592 C1593 1.366 . S
C1592 C1594 1.388 . S
C1593 C1592 1.366 . S
C1593 C1597 1.385 . S
C1594 H1575 0.951 . S
C1594 C1592 1.388 . S
C1594 C1595 1.366 . S
C1595 C1594 1.366 . S
C1595 C1596 1.414 . S
C1595 C1598 1.499 . S
C1596 H1576 0.950 . S
C1596 C1595 1.414 . S
C1596 C1597 1.374 . S
C1597 H1577 0.950 . S
C1597 C1593 1.385 . S
C1597 C1596 1.374 . S
C1598 C1595 1.499 . S
C1598 C1599 1.373 . S
C1598 C1600 1.389 . S
C1599 H1578 0.950 . S
C1599 C1598 1.373 . S
C1599 C1615 1.377 . S
C1600 C1598 1.389 . S
C1600 C1601 1.524 . S
C1600 C1614 1.377 . S
C1601 C1600 1.524 . S
C1601 C1602 1.397 . S
C1601 C1606 1.363 . S
C1602 H1579 0.950 . S
C1602 C1601 1.397 . S
C1602 C1603 1.334 . S
C1603 H1580 0.950 . S
C1603 C1602 1.334 . S
C1603 C1604 1.287 . S
C1604 C1603 1.287 . S
C1604 C1605 1.524 . S
C1604 H1623 0.913 . S
C1605 H1581 0.950 1_655 S
C1605 C1604 1.524 . S
C1605 C1606 1.415 . S
C1606 H1582 0.950 . S
C1606 C1601 1.363 . S
C1606 C1605 1.415 . S
C1607 H1583 0.951 . S
C1607 C1608 1.366 . S
C1607 C1609 1.388 . S
C1608 C1607 1.366 . S
C1608 C1612 1.385 . S
C1609 H1584 0.951 . S
C1609 C1607 1.388 . S
C1609 C1610 1.366 . S
C1610 C1609 1.366 . S
C1610 C1611 1.414 . S
C1610 C1613 1.499 . S
C1611 H1585 0.950 . S
C1611 C1610 1.414 . S
C1611 C1612 1.374 . S
C1612 H1586 0.950 1_655 S
C1612 C1608 1.385 . S
C1612 C1611 1.374 . S
C1613 C1610 1.499 . S
C1613 C1614 1.373 . S
C1613 C1615 1.389 . S
C1614 H1587 0.950 . S
C1614 C1600 1.377 . S
C1614 C1613 1.373 . S
C1615 C1599 1.377 . S
C1615 C1613 1.389 . S
C1615 C1616 1.524 . S
C1616 C1615 1.524 . S
C1616 C1617 1.397 . S
C1616 C1621 1.363 . S
C1617 H1588 0.950 . S
C1617 C1616 1.397 . S
C1617 C1618 1.334 . S
C1618 H1589 0.950 . S
C1618 C1617 1.334 . S
C1618 C1619 1.287 . S
C1619 C1618 1.287 . S
C1619 C1620 1.524 . S
C1619 H1622 0.999 . S
C1620 H1590 0.950 . S
C1620 C1619 1.524 . S
C1620 C1621 1.415 . S
C1621 H1591 0.950 . S
C1621 C1616 1.363 . S
C1621 C1620 1.415 . S
H1622 C1619 0.999 . S
H1623 C1604 0.913 . S
H1624 C1642 0.951 . S
H1625 C1644 0.951 . S
H1626 C1646 0.950 . S
H1627 C1647 0.950 . S
H1628 C1649 0.950 . S
H1629 C1652 0.950 . S
H1630 C1653 0.950 . S
H1631 C1655 0.950 . S
H1632 C1656 0.950 . S
H1633 C1657 0.951 . S
H1634 C1659 0.951 . S
H1635 C1661 0.950 . S
H1636 C1662 0.950 . S
H1637 C1664 0.950 . S
H1638 C1667 0.950 . S
H1639 C1668 0.950 . S
H1640 C1670 0.950 . S
H1641 C1671 0.950 . S
C1642 H1624 0.951 . S
C1642 C1643 1.366 . S
C1642 C1644 1.388 . S
C1643 C1642 1.366 . S
C1643 C1647 1.385 . S
C1644 H1625 0.951 . S
C1644 C1642 1.388 . S
C1644 C1645 1.366 . S
C1645 C1644 1.366 . S
C1645 C1646 1.414 . S
C1645 C1648 1.499 . S
C1646 H1626 0.950 . S
C1646 C1645 1.414 . S
C1646 C1647 1.374 . S
C1647 H1627 0.950 . S
C1647 C1643 1.385 . S
C1647 C1646 1.374 . S
C1648 C1645 1.499 . S
C1648 C1649 1.373 . S
C1648 C1650 1.389 . S
C1649 H1628 0.950 . S
C1649 C1648 1.373 . S
C1649 C1665 1.377 . S
C1650 C1648 1.389 . S
C1650 C1651 1.524 . S
C1650 C1664 1.377 . S
C1651 C1650 1.524 . S
C1651 C1652 1.397 . S
C1651 C1656 1.363 . S
C1652 H1629 0.950 . S
C1652 C1651 1.397 . S
C1652 C1653 1.334 . S
C1653 H1630 0.950 . S
C1653 C1652 1.334 . S
C1653 C1654 1.287 . S
C1654 C1653 1.287 . S
C1654 C1655 1.524 1_655 S
C1654 H1673 0.913 1_655 S
C1655 H1631 0.950 . S
C1655 C1654 1.524 1_455 S
C1655 C1656 1.415 1_455 S
C1656 H1632 0.950 . S
C1656 C1651 1.363 . S
C1656 C1655 1.415 1_655 S
C1657 H1633 0.951 . S
C1657 C1658 1.366 . S
C1657 C1659 1.388 . S
C1658 C1657 1.366 . S
C1658 C1662 1.385 . S
C1659 H1634 0.951 . S
C1659 C1657 1.388 . S
C1659 C1660 1.366 . S
C1660 C1659 1.366 . S
C1660 C1661 1.414 . S
C1660 C1663 1.499 . S
C1661 H1635 0.950 . S
C1661 C1660 1.414 . S
C1661 C1662 1.374 . S
C1662 H1636 0.950 . S
C1662 C1658 1.385 . S
C1662 C1661 1.374 . S
C1663 C1660 1.499 . S
C1663 C1664 1.373 . S
C1663 C1665 1.389 . S
C1664 H1637 0.950 . S
C1664 C1650 1.377 . S
C1664 C1663 1.373 . S
C1665 C1649 1.377 . S
C1665 C1663 1.389 . S
C1665 C1666 1.524 . S
C1666 C1665 1.524 . S
C1666 C1667 1.397 . S
C1666 C1671 1.363 . S
C1667 H1638 0.950 . S
C1667 C1666 1.397 . S
C1667 C1668 1.334 . S
C1668 H1639 0.950 . S
C1668 C1667 1.334 . S
C1668 C1669 1.287 . S
C1669 C1668 1.287 . S
C1669 C1670 1.524 . S
C1669 H1672 0.999 . S
C1670 H1640 0.950 . S
C1670 C1669 1.524 . S
C1670 C1671 1.415 . S
C1671 H1641 0.950 . S
C1671 C1666 1.363 . S
C1671 C1670 1.415 . S
H1672 C1669 0.999 . S
H1673 C1654 0.913 1_455 S
H1674 C1692 0.951 . S
H1675 C1694 0.951 . S
H1676 C1696 0.950 . S
H1677 C1697 0.950 . S
H1678 C1699 0.950 . S
H1679 C1702 0.950 . S
H1680 C1703 0.950 . S
H1681 C1705 0.950 . S
H1682 C1706 0.950 . S
H1683 C1707 0.951 . S
H1684 C1709 0.951 . S
H1685 C1711 0.950 . S
H1686 C1712 0.950 . S
H1687 C1714 0.950 . S
H1688 C1717 0.950 . S
H1689 C1718 0.950 . S
H1690 C1720 0.950 . S
H1691 C1721 0.950 . S
C1692 H1674 0.951 . S
C1692 C1693 1.366 . S
C1692 C1694 1.388 . S
C1693 C1692 1.366 . S
C1693 C1697 1.385 . S
C1694 H1675 0.951 . S
C1694 C1692 1.388 . S
C1694 C1695 1.366 . S
C1695 C1694 1.366 . S
C1695 C1696 1.414 . S
C1695 C1698 1.499 . S
C1696 H1676 0.950 . S
C1696 C1695 1.414 . S
C1696 C1697 1.374 . S
C1697 H1677 0.950 . S
C1697 C1693 1.385 . S
C1697 C1696 1.374 . S
C1698 C1695 1.499 . S
C1698 C1699 1.373 . S
C1698 C1700 1.389 . S
C1699 H1678 0.950 . S
C1699 C1698 1.373 . S
C1699 C1715 1.377 . S
C1700 C1698 1.389 . S
C1700 C1701 1.524 . S
C1700 C1714 1.377 . S
C1701 C1700 1.524 . S
C1701 C1702 1.397 . S
C1701 C1706 1.363 . S
C1702 H1679 0.950 . S
C1702 C1701 1.397 . S
C1702 C1703 1.334 . S
C1703 H1680 0.950 . S
C1703 C1702 1.334 . S
C1703 C1704 1.287 . S
C1704 C1703 1.287 . S
C1704 C1705 1.524 . S
C1704 H1723 0.913 . S
C1705 H1681 0.950 . S
C1705 C1704 1.524 . S
C1705 C1706 1.415 . S
C1706 H1682 0.950 . S
C1706 C1701 1.363 . S
C1706 C1705 1.415 . S
C1707 H1683 0.951 . S
C1707 C1708 1.366 . S
C1707 C1709 1.388 . S
C1708 C1707 1.366 . S
C1708 C1712 1.385 . S
C1709 H1684 0.951 . S
C1709 C1707 1.388 . S
C1709 C1710 1.366 . S
C1710 C1709 1.366 . S
C1710 C1711 1.414 . S
C1710 C1713 1.499 . S
C1711 H1685 0.950 . S
C1711 C1710 1.414 . S
C1711 C1712 1.374 . S
C1712 H1686 0.950 . S
C1712 C1708 1.385 . S
C1712 C1711 1.374 . S
C1713 C1710 1.499 . S
C1713 C1714 1.373 . S
C1713 C1715 1.389 . S
C1714 H1687 0.950 . S
C1714 C1700 1.377 . S
C1714 C1713 1.373 . S
C1715 C1699 1.377 . S
C1715 C1713 1.389 . S
C1715 C1716 1.524 . S
C1716 C1715 1.524 . S
C1716 C1717 1.397 . S
C1716 C1721 1.363 . S
C1717 H1688 0.950 . S
C1717 C1716 1.397 . S
C1717 C1718 1.334 . S
C1718 H1689 0.950 . S
C1718 C1717 1.334 . S
C1718 C1719 1.287 . S
C1719 C1718 1.287 . S
C1719 C1720 1.524 . S
C1719 H1722 0.999 . S
C1720 H1690 0.950 . S
C1720 C1719 1.524 . S
C1720 C1721 1.415 . S
C1721 H1691 0.950 . S
C1721 C1716 1.363 . S
C1721 C1720 1.415 . S
H1722 C1719 0.999 . S
H1723 C1704 0.913 . S
H1724 C1742 0.951 . S
H1725 C1744 0.951 . S
H1726 C1746 0.950 . S
H1727 C1747 0.950 . S
H1728 C1749 0.950 . S
H1729 C1752 0.950 . S
H1730 C1753 0.950 . S
H1731 C1755 0.950 . S
H1732 C1756 0.950 . S
H1733 C1757 0.951 . S
H1734 C1759 0.951 . S
H1735 C1761 0.950 . S
H1736 C1762 0.950 . S
H1737 C1764 0.950 . S
H1738 C1767 0.950 . S
H1739 C1768 0.950 . S
H1740 C1770 0.950 . S
H1741 C1771 0.950 . S
C1742 H1724 0.951 . S
C1742 C1743 1.366 . S
C1742 C1744 1.388 . S
C1743 C1742 1.366 . S
C1743 C1747 1.385 . S
C1744 H1725 0.951 . S
C1744 C1742 1.388 . S
C1744 C1745 1.366 . S
C1745 C1744 1.366 . S
C1745 C1746 1.414 . S
C1745 C1748 1.499 . S
C1746 H1726 0.950 . S
C1746 C1745 1.414 . S
C1746 C1747 1.374 . S
C1747 H1727 0.950 . S
C1747 C1743 1.385 . S
C1747 C1746 1.374 . S
C1748 C1745 1.499 . S
C1748 C1749 1.373 . S
C1748 C1750 1.389 . S
C1749 H1728 0.950 . S
C1749 C1748 1.373 . S
C1749 C1765 1.377 . S
C1750 C1748 1.389 . S
C1750 C1751 1.524 . S
C1750 C1764 1.377 . S
C1751 C1750 1.524 . S
C1751 C1752 1.397 . S
C1751 C1756 1.363 . S
C1752 H1729 0.950 . S
C1752 C1751 1.397 . S
C1752 C1753 1.334 . S
C1753 H1730 0.950 . S
C1753 C1752 1.334 . S
C1753 C1754 1.287 . S
C1754 C1753 1.287 . S
C1754 C1755 1.524 . S
C1754 H1773 0.913 . S
C1755 H1731 0.950 . S
C1755 C1754 1.524 . S
C1755 C1756 1.415 . S
C1756 H1732 0.950 . S
C1756 C1751 1.363 . S
C1756 C1755 1.415 . S
C1757 H1733 0.951 . S
C1757 C1758 1.366 . S
C1757 C1759 1.388 . S
C1758 C1757 1.366 . S
C1758 C1762 1.385 . S
C1759 H1734 0.951 . S
C1759 C1757 1.388 . S
C1759 C1760 1.366 . S
C1760 C1759 1.366 . S
C1760 C1761 1.414 . S
C1760 C1763 1.499 . S
C1761 H1735 0.950 . S
C1761 C1760 1.414 . S
C1761 C1762 1.374 . S
C1762 H1736 0.950 . S
C1762 C1758 1.385 . S
C1762 C1761 1.374 . S
C1763 C1760 1.499 . S
C1763 C1764 1.373 . S
C1763 C1765 1.389 . S
C1764 H1737 0.950 . S
C1764 C1750 1.377 . S
C1764 C1763 1.373 . S
C1765 C1749 1.377 . S
C1765 C1763 1.389 . S
C1765 C1766 1.524 . S
C1766 C1765 1.524 . S
C1766 C1767 1.397 . S
C1766 C1771 1.363 . S
C1767 H1738 0.950 . S
C1767 C1766 1.397 . S
C1767 C1768 1.334 . S
C1768 H1739 0.950 . S
C1768 C1767 1.334 . S
C1768 C1769 1.287 . S
C1769 C1768 1.287 . S
C1769 C1770 1.524 . S
C1769 H1772 0.999 . S
C1770 H1740 0.950 . S
C1770 C1769 1.524 . S
C1770 C1771 1.415 . S
C1771 H1741 0.950 . S
C1771 C1766 1.363 . S
C1771 C1770 1.415 . S
H1772 C1769 0.999 . S
H1773 C1754 0.913 . S
H1774 C1792 0.951 . S
H1775 C1794 0.951 . S
H1776 C1796 0.950 . S
H1777 C1797 0.950 . S
H1778 C1799 0.950 . S
H1779 C1802 0.950 . S
H1780 C1803 0.950 . S
H1781 C1805 0.950 . S
H1782 C1806 0.950 . S
H1783 C1807 0.951 . S
H1784 C1809 0.951 . S
H1785 C1811 0.950 . S
H1786 C1812 0.950 . S
H1787 C1814 0.950 . S
H1788 C1817 0.950 . S
H1789 C1818 0.950 . S
H1790 C1820 0.950 . S
H1791 C1821 0.950 . S
C1792 H1774 0.951 . S
C1792 C1793 1.366 . S
C1792 C1794 1.388 . S
C1793 C1792 1.366 . S
C1793 C1797 1.385 . S
C1794 H1775 0.951 . S
C1794 C1792 1.388 . S
C1794 C1795 1.366 . S
C1795 C1794 1.366 . S
C1795 C1796 1.414 . S
C1795 C1798 1.499 . S
C1796 H1776 0.950 . S
C1796 C1795 1.414 . S
C1796 C1797 1.374 . S
C1797 H1777 0.950 . S
C1797 C1793 1.385 . S
C1797 C1796 1.374 . S
C1798 C1795 1.499 . S
C1798 C1799 1.373 . S
C1798 C1800 1.389 . S
C1799 H1778 0.950 . S
C1799 C1798 1.373 . S
C1799 C1815 1.377 . S
C1800 C1798 1.389 . S
C1800 C1801 1.524 . S
C1800 C1814 1.377 . S
C1801 C1800 1.524 . S
C1801 C1802 1.397 . S
C1801 C1806 1.363 . S
C1802 H1779 0.950 . S
C1802 C1801 1.397 . S
C1802 C1803 1.334 . S
C1803 H1780 0.950 . S
C1803 C1802 1.334 . S
C1803 C1804 1.287 . S
C1804 C1803 1.287 . S
C1804 C1805 1.524 . S
C1804 H1823 0.913 . S
C1805 H1781 0.950 . S
C1805 C1804 1.524 . S
C1805 C1806 1.415 . S
C1806 H1782 0.950 . S
C1806 C1801 1.363 . S
C1806 C1805 1.415 . S
C1807 H1783 0.951 . S
C1807 C1808 1.366 . S
C1807 C1809 1.388 . S
C1808 C1807 1.366 . S
C1808 C1812 1.385 . S
C1809 H1784 0.951 . S
C1809 C1807 1.388 . S
C1809 C1810 1.366 . S
C1810 C1809 1.366 . S
C1810 C1811 1.414 . S
C1810 C1813 1.499 . S
C1811 H1785 0.950 . S
C1811 C1810 1.414 . S
C1811 C1812 1.374 . S
C1812 H1786 0.950 . S
C1812 C1808 1.385 . S
C1812 C1811 1.374 . S
C1813 C1810 1.499 . S
C1813 C1814 1.373 . S
C1813 C1815 1.389 . S
C1814 H1787 0.950 . S
C1814 C1800 1.377 . S
C1814 C1813 1.373 . S
C1815 C1799 1.377 . S
C1815 C1813 1.389 . S
C1815 C1816 1.524 . S
C1816 C1815 1.524 . S
C1816 C1817 1.397 . S
C1816 C1821 1.363 . S
C1817 H1788 0.950 . S
C1817 C1816 1.397 . S
C1817 C1818 1.334 1_455 S
C1818 H1789 0.950 . S
C1818 C1817 1.334 1_655 S
C1818 C1819 1.287 . S
C1819 C1818 1.287 . S
C1819 C1820 1.524 . S
C1819 H1822 0.999 . S
C1820 H1790 0.950 . S
C1820 C1819 1.524 . S
C1820 C1821 1.415 1_655 S
C1821 H1791 0.950 . S
C1821 C1816 1.363 . S
C1821 C1820 1.415 1_455 S
H1822 C1819 0.999 . S
H1823 C1804 0.913 . S
C643 C247 1.473 . S
C658 C362 1.453 . S
C708 C446 1.452 . S
C693 C283 1.473 . S
C758 C439 1.459 . S
C743 C175 1.463 . S
C793 C211 1.463 . S
C808 C355 1.458 . S
C858 C519 1.453 . S
C843 C103 1.461 . S
C908 C603 1.452 . S
C893 C139 1.460 . S
C943 C31 1.450 . S
C958 C596 1.459 . S
C993 C67 1.449 . S
C1008 C512 1.459 . S
C1058 C346 1.344 . S
C1043 C37 1.509 1_554 S
C1108 C430 1.344 . S
C1093 C1 1.509 . S
C1158 C441 1.407 . S
C1143 C109 1.535 . S
C1208 C357 1.408 . S
C1193 C73 1.535 . S
C1258 C525 1.344 . S
C1243 C181 1.520 1_556 S
C1293 C145 1.521 . S
C1308 C609 1.346 . S
C1358 C598 1.408 . S
C1343 C253 1.545 . S
C1393 C217 1.545 . S
C1408 C514 1.407 . S
C1458 C344 1.590 . S
C1443 C25 1.568 . S
C1508 C428 1.590 . S
C1493 C61 1.569 . S
C1543 C97 1.558 . S
C1558 C435 1.564 . S
C1608 C351 1.563 . S
C1593 C133 1.557 . S
C1658 C523 1.590 . S
C1643 C169 1.586 . S
C1693 C205 1.585 . S
C1708 C607 1.590 . S
C1743 C241 1.573 . S
C1758 C614 1.563 . S
C1793 C277 1.573 . S
C1808 C530 1.563 . S
