# Generated by pormake.
# Topology rtl, (3,6)-cn, num edge types: 1
# Building blocks:
#     Node 0, Type 0, BuildingBlock: QEWDON_clean_linker_0, # of connection points: 3
#     Node 1, Type 0, BuildingBlock: QEWDON_clean_linker_0, # of connection points: 3
#     Node 2, Type 0, BuildingBlock: QEWDON_clean_linker_0, # of connection points: 3
#     Node 3, Type 0, BuildingBlock: QEWDON_clean_linker_0, # of connection points: 3
#     Node 4, Type 1, BuildingBlock: KUMBOL_clean_sbu_1, # of connection points: 6
#     Node 5, Type 1, BuildingBlock: KUMBOL_clean_sbu_1, # of connection points: 6
#     Edge 6, Type (0, 1), BuildingBlock: OJICUG_clean_linker_0, # of connection points: 2
#     Edge 7, Type (0, 1), BuildingBlock: OJICUG_clean_linker_0, # of connection points: 2
#     Edge 8, Type (0, 1), BuildingBlock: OJICUG_clean_linker_0, # of connection points: 2
#     Edge 9, Type (0, 1), BuildingBlock: OJICUG_clean_linker_0, # of connection points: 2
#     Edge 10, Type (0, 1), BuildingBlock: OJICUG_clean_linker_0, # of connection points: 2
#     Edge 11, Type (0, 1), BuildingBlock: OJICUG_clean_linker_0, # of connection points: 2
#     Edge 12, Type (0, 1), BuildingBlock: OJICUG_clean_linker_0, # of connection points: 2
#     Edge 13, Type (0, 1), BuildingBlock: OJICUG_clean_linker_0, # of connection points: 2
#     Edge 14, Type (0, 1), BuildingBlock: OJICUG_clean_linker_0, # of connection points: 2
#     Edge 15, Type (0, 1), BuildingBlock: OJICUG_clean_linker_0, # of connection points: 2
#     Edge 16, Type (0, 1), BuildingBlock: OJICUG_clean_linker_0, # of connection points: 2
#     Edge 17, Type (0, 1), BuildingBlock: OJICUG_clean_linker_0, # of connection points: 2
# Relax obj value: 0.087
# Max RMSD: 0.289
# Mean RMSD: 0.218
data_MOF--net-rtl--node1-KUMBOL_clean_sbu_1--node2-QEWDON_clean_linker_0--edge1-OJICUG_clean_linker_0
_symmetry_space_group_name_H-M    P1
_symmetry_Int_Tables_number       1
_symmetry_cell_setting            triclinic
loop_
_symmetry_equiv_pos_as_xyz
'x, y, z'
_cell_length_a     27.881164
_cell_length_b     28.200269
_cell_length_c     20.481463
_cell_angle_alpha  75.088467
_cell_angle_beta   100.34391
_cell_angle_gamma 91.758256
loop_
_atom_site_label
_atom_site_type_symbol
_atom_site_fract_x
_atom_site_fract_y
_atom_site_fract_z
_atom_type_partial_charge
H0 H 0.2466 0.85257 0.13321 0.0
C1 C 0.22926 0.86071 0.07969 0.0
C2 C 0.18371 0.88533 0.05892 0.0
C3 C 0.254 0.84932 0.03088 0.0
H4 H 0.12748 0.916 0.97233 0.0
C5 C 0.16258 0.89706 0.98928 0.0
C6 C 0.18685 0.88694 0.94029 0.0
C7 C 0.23241 0.86265 0.96091 0.0
C8 C 0.30559 0.83168 0.05184 0.0
H9 H 0.25199 0.85655 0.92252 0.0
C10 C 0.32155 0.78739 0.04133 0.0
C11 C 0.37093 0.77179 0.06434 0.0
C12 C 0.33958 0.86058 0.08296 0.0
H13 H 0.32834 0.89486 0.09079 0.0
C14 C 0.38838 0.8461 0.10349 0.0
H15 H 0.29555 0.76454 0.01803 0.0
C16 C 0.40394 0.80215 0.09451 0.0
H17 H 0.4421 0.79167 0.1116 0.0
H18 H 0.41425 0.86891 0.12698 0.0
H19 H 0.74672 0.72121 0.60836 0.0
C20 C 0.72274 0.70642 0.64462 0.0
C21 C 0.68293 0.67759 0.62591 0.0
C22 C 0.73385 0.71327 0.71126 0.0
H23 H 0.6233 0.63344 0.66094 0.0
C24 C 0.65383 0.65577 0.67487 0.0
C25 C 0.66336 0.66323 0.74134 0.0
C26 C 0.703 0.69252 0.75855 0.0
C27 C 0.78047 0.73688 0.73444 0.0
H28 H 0.71099 0.69759 0.81008 0.0
C29 C 0.79853 0.77976 0.69307 0.0
C30 C 0.84274 0.80071 0.71788 0.0
C31 C 0.80819 0.71485 0.79925 0.0
H32 H 0.79644 0.68134 0.83147 0.0
C33 C 0.85198 0.73489 0.82306 0.0
H34 H 0.77777 0.79742 0.64309 0.0
C35 C 0.86907 0.77737 0.78303 0.0
H36 H 0.90344 0.79187 0.80302 0.0
H37 H 0.87292 0.71729 0.87289 0.0
H38 H 0.78928 0.18374 0.2033 0.0
C39 C 0.80942 0.17632 0.16631 0.0
C40 C 0.85436 0.15078 0.18922 0.0
C41 C 0.78914 0.18917 0.09572 0.0
H42 H 0.91408 0.11968 0.16039 0.0
C43 C 0.87937 0.13925 0.14188 0.0
C44 C 0.85989 0.15123 0.07175 0.0
C45 C 0.815 0.17683 0.04875 0.0
C46 C 0.7382 0.2086 0.07131 0.0
H47 H 0.79908 0.18529 0.99465 0.0
C48 C 0.72241 0.25257 0.08286 0.0
C49 C 0.67433 0.27075 0.05464 0.0
C50 C 0.70492 0.18253 0.03406 0.0
H51 H 0.71585 0.14847 0.02525 0.0
C52 C 0.65729 0.19979 0.00791 0.0
H53 H 0.74771 0.27332 0.11098 0.0
C54 C 0.64217 0.24367 0.01762 0.0
H55 H 0.60509 0.25668 0.99593 0.0
H56 H 0.63208 0.1793 0.97934 0.0
H57 H 0.34449 0.3064 0.5523 0.0
C58 C 0.35628 0.32479 0.50462 0.0
C59 C 0.38097 0.3697 0.49938 0.0
C60 C 0.35082 0.30161 0.45029 0.0
H61 H 0.41673 0.42691 0.43389 0.0
C62 C 0.3977 0.39239 0.43821 0.0
C63 C 0.3924 0.37013 0.38377 0.0
C64 C 0.36923 0.32472 0.3901 0.0
C65 C 0.33289 0.25032 0.45901 0.0
H66 H 0.36626 0.30691 0.34853 0.0
C67 C 0.28637 0.23603 0.47549 0.0
C68 C 0.2702 0.18753 0.47795 0.0
C69 C 0.36316 0.21517 0.4481 0.0
H70 H 0.39911 0.22486 0.43628 0.0
C71 C 0.34765 0.16728 0.45216 0.0
H72 H 0.26242 0.26269 0.48361 0.0
C73 C 0.3015 0.15363 0.46642 0.0
H74 H 0.29008 0.11626 0.46848 0.0
H75 H 0.37139 0.14069 0.44354 0.0
C76 C 0.95786 0.17807 0.51609 0.0
C77 C 0.87262 0.16817 0.47028 0.0
C78 C 0.91744 0.14822 0.51044 0.0
C79 C 0.86903 0.21825 0.4359 0.0
C80 C 0.95432 0.22839 0.48162 0.0
C81 C 0.90974 0.24826 0.44156 0.0
N82 N 1.00088 0.15769 0.55394 0.0
C83 C 0.04122 0.18575 0.56147 0.0
C84 C 0.99584 0.2572 0.48804 0.0
C85 C 0.03941 0.2358 0.52838 0.0
Gd86 Gd 0.05101 0.97551 0.52272 0.0
Gd87 Gd 1.00011 0.07355 0.60688 0.0
N88 N 0.92242 0.09942 0.54239 0.0
C89 C 0.83279 0.13709 0.46539 0.0
C90 C 0.88308 0.0695 0.54023 0.0
C91 C 0.83796 0.08767 0.50103 0.0
H92 H 0.88578 0.03179 0.56918 0.0
H93 H 0.80706 0.06358 0.49876 0.0
H94 H 0.16374 0.02563 0.52726 0.0
H95 H 0.0746 0.16979 0.59413 0.0
H96 H 0.24569 1.00792 0.59616 0.0
H97 H 0.79779 0.15098 0.43491 0.0
H98 H 0.83494 0.23412 0.40462 0.0
H99 H 0.98927 0.87154 0.55758 0.0
H100 H 0.99459 0.29599 0.46236 0.0
H101 H 0.07155 0.2579 0.53433 0.0
H102 H 0.23487 0.84443 0.73595 0.0
H103 H 0.90639 0.2868 0.41458 0.0
H104 H 0.08269 0.76213 0.70527 0.0
H105 H 1.00196 0.78745 0.63294 0.0
N106 N 0.06102 0.89401 0.58913 0.0
C107 C 0.10614 0.88037 0.62646 0.0
C108 C 0.02414 0.8611 0.59003 0.0
C109 C 0.07716 0.79911 0.67252 0.0
C110 C 0.03149 0.81331 0.63201 0.0
C111 C 0.11527 0.83267 0.66987 0.0
H112 H 0.1694 0.78385 0.74373 0.0
N113 N 0.13262 0.96076 0.58069 0.0
C114 C 0.14286 0.91485 0.62261 0.0
C115 C 0.22683 0.93666 0.65348 0.0
C116 C 0.18997 0.90197 0.66127 0.0
C117 C 0.16963 0.99269 0.56806 0.0
C118 C 0.21683 0.98184 0.60549 0.0
O119 O 0.99056 0.09047 0.49104 0.0
O120 O 0.98164 0.0162 0.46355 0.0
O121 O 0.09099 0.9827 0.43909 0.0
O122 O 0.03823 0.92541 0.45665 0.0
O123 O 0.9678 0.99708 0.62647 0.0
O124 O 0.97198 0.963 0.53563 0.0
O125 O 0.05405 0.9578 0.63747 0.0
O126 O 0.06895 0.03119 0.66494 0.0
O127 O 0.95834 0.05956 0.68939 0.0
O128 O 1.00913 0.11937 0.67871 0.0
O129 O 0.07822 0.05458 0.4988 0.0
O130 O 0.07944 0.08088 0.59691 0.0
C131 C 0.97137 0.06326 0.45021 0.0
C132 C 0.95341 0.96506 0.58992 0.0
C133 C 0.05315 0.95561 0.34339 0.0
C134 C 0.06994 0.94913 0.23288 0.0
C135 C 0.99628 0.9911 0.2389 0.0
C136 C 1.00976 0.98157 0.31012 0.0
C137 C 0.02607 0.97509 0.20044 0.0
C138 C 0.08301 0.93934 0.30478 0.0
C139 C 0.06895 0.94667 0.41794 0.0
C140 C 0.19903 0.85476 0.70542 0.0
C141 C 0.16179 0.82019 0.70967 0.0
H142 H 0.26349 0.92823 0.68218 0.0
C143 C 0.07523 0.98344 0.67913 0.0
C144 C 0.09553 0.08313 0.53957 0.0
C145 C 0.99314 0.08267 0.78975 0.0
C146 C 0.9757 0.08676 0.90085 0.0
C147 C 0.04797 0.04288 0.89422 0.0
C148 C 0.03541 0.05469 0.82272 0.0
C149 C 1.01843 0.05874 0.93314 0.0
C150 C 0.96349 0.09861 0.82877 0.0
C151 C 0.97844 0.0947 0.71487 0.0
H152 H 0.96273 1.01113 0.21335 0.0
H153 H 0.98656 0.99461 0.33914 0.0
H154 H 1.01457 0.9828 0.1453 0.0
H155 H 0.11698 0.9201 0.33067 0.0
H156 H 0.08067 0.02131 0.91958 0.0
H157 H 0.05849 0.04195 0.79327 0.0
H158 H 0.02929 0.04941 0.98847 0.0
H159 H 0.93037 0.11944 0.8029 0.0
C160 C 0.67224 0.57039 0.05876 0.0
C161 C 0.67121 0.65914 0.01691 0.0
C162 C 0.6496 0.61538 0.0484 0.0
C163 C 0.71468 0.65673 0.99222 0.0
C164 C 0.71716 0.56799 0.03709 0.0
C165 C 0.73749 0.61121 1.00201 0.0
N166 N 0.65206 0.52947 0.09418 0.0
C167 C 0.67787 0.48619 0.11627 0.0
C168 C 0.74126 0.52253 0.05381 0.0
C169 C 0.72199 0.48165 0.09481 0.0
Gd170 Gd 0.46653 0.49735 0.99241 0.0
Gd171 Gd 0.57573 0.54075 0.12335 0.0
N172 N 0.60695 0.61639 0.07126 0.0
C173 C 0.64866 0.70397 0.01189 0.0
C174 C 0.58583 0.6599 0.06926 0.0
C175 C 0.6061 0.70434 0.03896 0.0
H176 H 0.55312 0.66013 0.0906 0.0
H177 H 0.5889 0.7388 0.03644 0.0
H178 H 0.51126 0.38807 0.9863 0.0
H179 H 0.66515 0.45521 0.15164 0.0
H180 H 0.50219 0.30037 0.03993 0.0
H181 H 0.66417 0.73843 0.98817 0.0
H182 H 0.73142 0.68987 0.9667 0.0
H183 H 0.3677 0.55435 0.00649 0.0
H184 H 0.7758 0.51909 0.03808 0.0
H185 H 0.74157 0.44685 0.11106 0.0
H186 H 0.36511 0.29628 0.15322 0.0
H187 H 0.77165 0.60999 0.98422 0.0
H188 H 0.27981 0.44819 0.12006 0.0
H189 H 0.29396 0.53408 0.05951 0.0
N190 N 0.39471 0.48088 0.03794 0.0
C191 C 0.38639 0.43318 0.0677 0.0
C192 C 0.36149 0.51682 0.03267 0.0
C193 C 0.31194 0.45686 0.09661 0.0
C194 C 0.31983 0.50543 0.06254 0.0
C195 C 0.34519 0.41994 0.099 0.0
H196 H 0.30731 0.35957 0.15631 0.0
N197 N 0.45754 0.41185 0.03329 0.0
C198 C 0.41932 0.39771 0.06647 0.0
C199 C 0.44281 0.31254 0.08834 0.0
C200 C 0.41136 0.34774 0.09583 0.0
C201 C 0.4852 0.37739 0.02019 0.0
C202 C 0.47923 0.32741 0.04903 0.0
O203 O 0.55697 0.58234 0.00997 0.0
O204 O 0.53681 0.52181 0.95515 0.0
O205 O 0.43026 0.46511 0.91115 0.0
O206 O 0.42799 0.54353 0.89646 0.0
O207 O 0.50206 0.57758 0.10822 0.0
O208 O 0.45921 0.57653 0.99957 0.0
O209 O 0.45821 0.49686 0.10048 0.0
O210 O 0.53317 0.47304 0.16486 0.0
O211 O 0.56639 0.57169 0.2079 0.0
O212 O 0.63171 0.53085 0.21451 0.0
O213 O 0.54249 0.46441 0.00693 0.0
O214 O 0.57768 0.46094 0.11906 0.0
C215 C 0.55754 0.56382 0.95738 0.0
C216 C 0.46845 0.59557 0.05341 0.0
C217 C 0.43488 0.51336 0.8001 0.0
C218 C 0.43607 0.48382 0.69772 0.0
C219 C 0.48418 0.55433 0.71627 0.0
C220 C 0.46773 0.55025 0.77778 0.0
C221 C 0.46858 0.5215 0.67655 0.0
C222 C 0.41883 0.48037 0.75947 0.0
C223 C 0.41961 0.50732 0.86737 0.0
C224 C 0.37144 0.33444 0.12962 0.0
C225 C 0.33841 0.37046 0.13116 0.0
H226 H 0.43795 0.27377 0.1101 0.0
C227 C 0.48539 0.47129 0.15672 0.0
C228 C 0.5734 0.44446 0.06368 0.0
C229 C 0.63983 0.5963 0.2679 0.0
C230 C 0.66562 0.64137 0.35586 0.0
C231 C 0.70297 0.65743 0.25365 0.0
C232 C 0.67389 0.6222 0.22996 0.0
C233 C 0.69908 0.6669 0.31601 0.0
C234 C 0.63583 0.60593 0.33106 0.0
C235 C 0.60977 0.55832 0.2426 0.0
H236 H 0.50947 0.58287 0.69955 0.0
H237 H 0.48116 0.57576 0.80809 0.0
H238 H 0.48193 0.52576 0.62889 0.0
H239 H 0.3942 0.45128 0.77695 0.0
H240 H 0.72926 0.67697 0.22401 0.0
H241 H 0.67871 0.61467 0.18249 0.0
H242 H 0.72333 0.69348 0.33378 0.0
H243 H 0.6097 0.58588 0.36063 0.0
C244 C 0.18958 0.15297 0.43995 0.0
C245 C 0.22068 0.17066 0.49017 0.0
H246 H 0.12568 0.11238 0.41566 0.0
C247 C 0.20785 0.16347 0.55525 0.0
H248 H 0.19889 0.15755 0.38957 0.0
C249 C 0.16608 0.13675 0.57077 0.0
C250 C 0.13623 0.1169 0.52138 0.0
H251 H 0.23165 0.17589 0.59527 0.0
H252 H 0.15854 0.12969 0.62244 0.0
C253 C 0.14782 0.12672 0.45517 0.0
C254 C 0.38338 0.70858 0.99972 0.0
C255 C 0.38928 0.72332 0.06131 0.0
H256 H 0.40396 0.65667 0.94823 0.0
C257 C 0.41788 0.69359 0.12033 0.0
H258 H 0.36169 0.73085 0.95332 0.0
C259 C 0.44214 0.65184 0.11747 0.0
C260 C 0.4386 0.63812 0.05542 0.0
H261 H 0.42266 0.70347 0.16882 0.0
H262 H 0.46457 0.63087 0.16418 0.0
C263 C 0.40786 0.66631 0.99678 0.0
C264 C 0.87984 0.88326 0.71255 0.0
C265 C 0.86267 0.84701 0.67852 0.0
H266 H 0.92124 0.94812 0.71189 0.0
C267 C 0.87059 0.85298 0.61093 0.0
H268 H 0.87377 0.88023 0.76426 0.0
C269 C 0.89801 0.89263 0.58016 0.0
C270 C 0.91836 0.92677 0.61662 0.0
H271 H 0.85779 0.82575 0.58328 0.0
H272 H 0.90467 0.89549 0.52883 0.0
C273 C 0.90718 0.9224 0.68223 0.0
C274 C 0.63889 0.35459 0.99905 0.0
C275 C 0.65659 0.31868 0.05965 0.0
H276 H 0.59965 0.42242 0.95302 0.0
C277 C 0.65016 0.32616 0.1228 0.0
H278 H 0.64319 0.34964 0.94967 0.0
C279 C 0.62432 0.36772 0.12477 0.0
C280 C 0.60472 0.40256 0.06362 0.0
H281 H 0.66286 0.29868 0.17015 0.0
H282 H 0.61812 0.37163 0.17384 0.0
C283 C 0.61357 0.39606 1.00101 0.0
C284 C 0.15301 0.87127 0.17117 0.0
C285 C 0.15883 0.90243 0.10755 0.0
H286 H 0.11971 0.86122 0.26043 0.0
C287 C 0.13786 0.9499 0.08794 0.0
H288 H 0.1686 0.8345 0.18758 0.0
C289 C 0.10984 0.96506 0.1291 0.0
C290 C 0.10221 0.93335 0.1914 0.0
H291 H 0.14262 0.97533 0.04002 0.0
H292 H 0.094 1.00174 0.11189 0.0
C293 C 0.12494 0.88659 0.21272 0.0
C294 C 0.62313 0.58827 0.80445 0.0
C295 C 0.63367 0.6385 0.79412 0.0
H296 H 0.59158 0.52533 0.86435 0.0
C297 C 0.61695 0.66444 0.8361 0.0
H298 H 0.63561 0.56711 0.77327 0.0
C299 C 0.59096 0.64061 0.88759 0.0
C300 C 0.58231 0.58999 0.89988 0.0
H301 H 0.62377 0.7033 0.82889 0.0
H302 H 0.57774 0.66184 0.91799 0.0
C303 C 0.59795 0.56429 0.85681 0.0
C304 C 0.90724 0.15998 0.29663 0.0
C305 C 0.87517 0.13137 0.26246 0.0
H306 H 0.96381 0.16059 0.38216 0.0
C307 C 0.87287 0.08076 0.2921 0.0
H308 H 0.9106 0.1988 0.27355 0.0
C309 C 0.90347 0.0587 0.35381 0.0
C310 C 0.93713 0.08688 0.38678 0.0
H311 H 0.84924 0.05787 0.26547 0.0
H312 H 0.90161 0.01943 0.37476 0.0
C313 C 0.93798 0.13792 0.35831 0.0
C314 C 0.3592 0.40685 0.59052 0.0
C315 C 0.39452 0.39161 0.55879 0.0
H316 H 0.34453 0.44845 0.65957 0.0
C317 C 0.44366 0.40217 0.57904 0.0
H318 H 0.32105 0.39923 0.57567 0.0
C319 C 0.45705 0.42992 0.62661 0.0
C320 C 0.42164 0.44821 0.65515 0.0
H321 H 0.47174 0.39028 0.55612 0.0
H322 H 0.4952 0.43831 0.63961 0.0
C323 C 0.37267 0.43499 0.6384 0.0
C324 C 0.66443 0.62116 0.54708 0.0
C325 C 0.6734 0.66869 0.55602 0.0
H326 H 0.65533 0.57503 0.47731 0.0
C327 C 0.6754 0.70754 0.49782 0.0
H328 H 0.66293 0.59036 0.59096 0.0
C329 C 0.67044 0.6989 0.4327 0.0
C330 C 0.66396 0.65103 0.42393 0.0
H331 H 0.68132 0.74471 0.50274 0.0
H332 H 0.67257 0.72981 0.38923 0.0
C333 C 0.65988 0.61239 0.48182 0.0
C334 C 0.89343 0.16559 0.96192 0.0
C335 C 0.88598 0.1341 0.02448 0.0
H336 H 0.92843 0.17579 0.87435 0.0
C337 C 0.90625 0.08634 0.04419 0.0
H338 H 0.87853 0.20265 0.9456 0.0
C339 C 0.93477 0.07099 1.00378 0.0
C340 C 0.9437 0.10289 0.94231 0.0
H341 H 0.90035 0.06077 0.09142 0.0
H342 H 0.9498 0.03398 0.02077 0.0
C343 C 0.92208 0.15017 0.92127 0.0
C344 C 0.39483 0.43821 0.27847 0.0
C345 C 0.41417 0.39364 0.32251 0.0
H346 H 0.40227 0.49756 0.19152 0.0
C347 C 0.45709 0.37433 0.31161 0.0
H348 H 0.36207 0.45401 0.28632 0.0
C349 C 0.48077 0.39975 0.25822 0.0
C350 C 0.46141 0.44443 0.2142 0.0
H351 H 0.47296 0.34028 0.34556 0.0
H352 H 0.51398 0.38435 0.25106 0.0
C353 C 0.41795 0.46311 0.2245 0.0
C354 C 0.17522 0.95635 0.83588 0.0
C355 C 0.16543 0.90756 0.86766 0.0
H356 H 0.15382 0.01902 0.75115 0.0
C357 C 0.12705 0.88337 0.83613 0.0
H358 H 0.20386 0.97601 0.86062 0.0
C359 C 0.09807 0.90802 0.77437 0.0
C360 C 0.1068 0.95738 0.74349 0.0
H361 H 0.11806 0.84623 0.86095 0.0
H362 H 0.06777 0.88894 0.75197 0.0
C363 C 0.14608 0.98114 0.77422 0.0
loop_
_geom_bond_atom_site_label_1
_geom_bond_atom_site_label_2
_geom_bond_distance
_geom_bond_site_symmetry_2
_ccdc_geom_bond_type
H0 C1 0.949 . S
C1 H0 0.949 . S
C1 C2 1.395 . S
C1 C3 1.391 . S
C2 C1 1.395 . S
C2 C5 1.390 . S
C3 C1 1.391 . S
C3 C7 1.387 1_554 S
C3 C8 1.491 . S
H4 C5 0.950 . S
C5 C2 1.390 . S
C5 H4 0.950 . S
C5 C6 1.378 1_554 S
C6 C5 1.378 1_556 S
C6 C7 1.409 . S
C7 C3 1.387 1_556 S
C7 C6 1.409 . S
C7 H9 0.951 . S
C8 C3 1.491 . S
C8 C10 1.382 . S
C8 C12 1.404 1_554 S
H9 C7 0.951 . S
C10 C8 1.382 . S
C10 C11 1.390 . S
C10 H15 0.949 . S
C11 C10 1.390 . S
C11 C16 1.399 . S
C12 C8 1.404 1_556 S
C12 H13 0.950 . S
C12 C14 1.375 . S
H13 C12 0.950 . S
C14 C12 1.375 . S
C14 C16 1.382 1_556 S
C14 H18 0.950 . S
H15 C10 0.949 . S
C16 C11 1.399 . S
C16 C14 1.382 1_554 S
C16 H17 0.952 . S
H17 C16 0.952 . S
H18 C14 0.950 . S
H19 C20 0.949 . S
C20 H19 0.949 . S
C20 C21 1.395 . S
C20 C22 1.391 . S
C21 C20 1.395 . S
C21 C24 1.390 . S
C22 C20 1.391 . S
C22 C26 1.387 . S
C22 C27 1.491 . S
H23 C24 0.950 . S
C24 C21 1.390 . S
C24 H23 0.950 . S
C24 C25 1.378 . S
C25 C24 1.378 . S
C25 C26 1.409 . S
C26 C22 1.387 . S
C26 C25 1.409 . S
C26 H28 0.951 . S
C27 C22 1.491 . S
C27 C29 1.382 . S
C27 C31 1.404 . S
H28 C26 0.951 . S
C29 C27 1.382 . S
C29 C30 1.390 . S
C29 H34 0.949 . S
C30 C29 1.390 . S
C30 C35 1.399 . S
C31 C27 1.404 . S
C31 H32 0.950 . S
C31 C33 1.375 . S
H32 C31 0.950 . S
C33 C31 1.375 . S
C33 C35 1.382 . S
C33 H37 0.950 . S
H34 C29 0.949 . S
C35 C30 1.399 . S
C35 C33 1.382 . S
C35 H36 0.952 . S
H36 C35 0.952 . S
H37 C33 0.950 . S
H38 C39 0.949 . S
C39 H38 0.949 . S
C39 C40 1.395 . S
C39 C41 1.391 . S
C40 C39 1.395 . S
C40 C43 1.390 . S
C41 C39 1.391 . S
C41 C45 1.387 . S
C41 C46 1.491 . S
H42 C43 0.950 . S
C43 C40 1.390 . S
C43 H42 0.950 . S
C43 C44 1.378 . S
C44 C43 1.378 . S
C44 C45 1.409 . S
C45 C41 1.387 . S
C45 C44 1.409 . S
C45 H47 0.951 1_554 S
C46 C41 1.491 . S
C46 C48 1.382 . S
C46 C50 1.404 1_554 S
H47 C45 0.951 1_556 S
C48 C46 1.382 . S
C48 C49 1.390 . S
C48 H53 0.949 . S
C49 C48 1.390 . S
C49 C54 1.399 . S
C50 C46 1.404 1_556 S
C50 H51 0.950 . S
C50 C52 1.375 . S
H51 C50 0.950 . S
C52 C50 1.375 . S
C52 C54 1.382 1_556 S
C52 H56 0.950 . S
H53 C48 0.949 . S
C54 C49 1.399 . S
C54 C52 1.382 1_554 S
C54 H55 0.952 1_554 S
H55 C54 0.952 1_556 S
H56 C52 0.950 . S
H57 C58 0.949 . S
C58 H57 0.949 . S
C58 C59 1.395 . S
C58 C60 1.391 . S
C59 C58 1.395 . S
C59 C62 1.390 . S
C60 C58 1.391 . S
C60 C64 1.387 . S
C60 C65 1.491 . S
H61 C62 0.950 . S
C62 C59 1.390 . S
C62 H61 0.950 . S
C62 C63 1.378 . S
C63 C62 1.378 . S
C63 C64 1.409 . S
C64 C60 1.387 . S
C64 C63 1.409 . S
C64 H66 0.951 . S
C65 C60 1.491 . S
C65 C67 1.382 . S
C65 C69 1.404 . S
H66 C64 0.951 . S
C67 C65 1.382 . S
C67 C68 1.390 . S
C67 H72 0.949 . S
C68 C67 1.390 . S
C68 C73 1.399 . S
C69 C65 1.404 . S
C69 H70 0.950 . S
C69 C71 1.375 . S
H70 C69 0.950 . S
C71 C69 1.375 . S
C71 C73 1.382 . S
C71 H75 0.950 . S
H72 C67 0.949 . S
C73 C68 1.399 . S
C73 C71 1.382 . S
C73 H74 0.952 . S
H74 C73 0.952 . S
H75 C71 0.950 . S
C76 C78 1.422 . S
C76 C80 1.415 . S
C76 N82 1.369 . S
C77 C78 1.421 . S
C77 C79 1.417 . S
C77 C89 1.422 . S
C78 C76 1.422 . S
C78 C77 1.421 . S
C78 N88 1.359 . S
C79 C77 1.417 . S
C79 C81 1.329 . S
C79 H98 0.930 . S
C80 C76 1.415 . S
C80 C81 1.437 . S
C80 C84 1.413 . S
C81 C79 1.329 . S
C81 C80 1.437 . S
C81 H103 0.929 . S
N82 C76 1.369 . S
N82 C83 1.338 1_655 S
N82 Gd87 2.622 . S
C83 N82 1.338 1_455 S
C83 C85 1.378 . S
C83 H95 0.929 . S
C84 C80 1.413 . S
C84 C85 1.348 1_655 S
C84 H100 0.931 . S
C85 C83 1.378 . S
C85 C84 1.348 1_455 S
C85 H101 0.930 . S
Gd86 N106 2.622 . S
Gd86 N113 2.570 . S
Gd86 O120 2.353 1_465 S
Gd86 O121 2.468 . S
Gd86 O122 2.427 . S
Gd86 O124 2.388 1_455 S
Gd86 O125 2.386 . S
Gd86 O129 2.307 1_565 S
Gd86 C139 2.805 . S
Gd87 N82 2.622 . S
Gd87 N88 2.570 . S
Gd87 O119 2.386 . S
Gd87 O123 2.307 1_545 S
Gd87 O126 2.353 1_655 S
Gd87 O127 2.468 . S
Gd87 O128 2.427 . S
Gd87 O130 2.388 1_655 S
Gd87 C151 2.805 . S
N88 C78 1.359 . S
N88 Gd87 2.570 . S
N88 C90 1.343 . S
C89 C77 1.422 . S
C89 C91 1.321 . S
C89 H97 0.931 . S
C90 N88 1.343 . S
C90 C91 1.390 . S
C90 H92 0.931 . S
C91 C89 1.321 . S
C91 C90 1.390 . S
C91 H93 0.930 . S
H92 C90 0.931 . S
H93 C91 0.930 . S
H94 C117 0.931 . S
H95 C83 0.929 . S
H96 C118 0.930 . S
H97 C89 0.931 . S
H98 C79 0.930 . S
H99 C108 0.929 1_655 S
H100 C84 0.931 . S
H101 C85 0.930 . S
H102 C140 0.930 . S
H103 C81 0.929 . S
H104 C109 0.931 . S
H105 C110 0.930 1_655 S
N106 Gd86 2.622 . S
N106 C107 1.369 . S
N106 C108 1.338 . S
C107 N106 1.369 . S
C107 C111 1.415 . S
C107 C114 1.422 . S
C108 H99 0.929 1_455 S
C108 N106 1.338 . S
C108 C110 1.378 . S
C109 H104 0.931 . S
C109 C110 1.348 . S
C109 C111 1.413 . S
C110 H105 0.930 1_455 S
C110 C108 1.378 . S
C110 C109 1.348 . S
C111 C107 1.415 . S
C111 C109 1.413 . S
C111 C141 1.437 . S
H112 C141 0.929 . S
N113 Gd86 2.570 . S
N113 C114 1.359 . S
N113 C117 1.343 . S
C114 C107 1.422 . S
C114 N113 1.359 . S
C114 C116 1.421 . S
C115 C116 1.422 . S
C115 C118 1.321 . S
C115 H142 0.931 . S
C116 C114 1.421 . S
C116 C115 1.422 . S
C116 C140 1.417 . S
C117 H94 0.931 . S
C117 N113 1.343 . S
C117 C118 1.390 . S
C118 H96 0.930 . S
C118 C115 1.321 . S
C118 C117 1.390 . S
O119 Gd87 2.386 . S
O119 C131 1.265 . S
O120 Gd86 2.353 1_645 S
O120 C131 1.242 . S
O121 Gd86 2.468 . S
O121 C139 1.263 . S
O122 Gd86 2.427 . S
O122 C139 1.252 . S
O123 Gd87 2.307 1_565 S
O123 C132 1.261 . S
O124 Gd86 2.388 1_655 S
O124 C132 1.252 . S
O125 Gd86 2.386 . S
O125 C143 1.265 . S
O126 Gd87 2.353 1_455 S
O126 C143 1.242 1_545 S
O127 Gd87 2.468 . S
O127 C151 1.263 . S
O128 Gd87 2.427 . S
O128 C151 1.252 . S
O129 Gd86 2.307 1_545 S
O129 C144 1.261 . S
O130 Gd87 2.388 1_455 S
O130 C144 1.252 . S
C131 O119 1.265 . S
C131 O120 1.242 . S
C132 O123 1.261 . S
C132 O124 1.252 . S
C133 C136 1.394 . S
C133 C138 1.370 . S
C133 C139 1.500 . S
C134 C137 1.383 . S
C134 C138 1.395 . S
C135 C136 1.396 . S
C135 C137 1.365 . S
C135 H152 0.929 . S
C136 C133 1.394 . S
C136 C135 1.396 . S
C136 H153 0.930 . S
C137 C134 1.383 . S
C137 C135 1.365 . S
C137 H154 0.931 . S
C138 C133 1.370 . S
C138 C134 1.395 . S
C138 H155 0.930 . S
C139 Gd86 2.805 . S
C139 O121 1.263 . S
C139 O122 1.252 . S
C139 C133 1.500 . S
C140 H102 0.930 . S
C140 C116 1.417 . S
C140 C141 1.329 . S
C141 C111 1.437 . S
C141 H112 0.929 . S
C141 C140 1.329 . S
H142 C115 0.931 . S
C143 O125 1.265 . S
C143 O126 1.242 1_565 S
C144 O129 1.261 . S
C144 O130 1.252 . S
C145 C148 1.394 . S
C145 C150 1.370 . S
C145 C151 1.500 . S
C146 C149 1.383 . S
C146 C150 1.395 . S
C147 C148 1.396 . S
C147 C149 1.365 . S
C147 H156 0.929 . S
C148 C145 1.394 . S
C148 C147 1.396 . S
C148 H157 0.930 . S
C149 C146 1.383 . S
C149 C147 1.365 . S
C149 H158 0.931 . S
C150 C145 1.370 . S
C150 C146 1.395 . S
C150 H159 0.930 . S
C151 Gd87 2.805 . S
C151 O127 1.263 . S
C151 O128 1.252 . S
C151 C145 1.500 . S
H152 C135 0.929 . S
H153 C136 0.930 . S
H154 C137 0.931 . S
H155 C138 0.930 . S
H156 C147 0.929 . S
H157 C148 0.930 . S
H158 C149 0.931 . S
H159 C150 0.930 . S
C160 C162 1.422 . S
C160 C164 1.415 . S
C160 N166 1.369 . S
C161 C162 1.421 . S
C161 C163 1.417 . S
C161 C173 1.422 . S
C162 C160 1.422 . S
C162 C161 1.421 . S
C162 N172 1.359 . S
C163 C161 1.417 . S
C163 C165 1.329 . S
C163 H182 0.930 . S
C164 C160 1.415 . S
C164 C165 1.437 . S
C164 C168 1.413 . S
C165 C163 1.329 . S
C165 C164 1.437 . S
C165 H187 0.929 . S
N166 C160 1.369 . S
N166 C167 1.338 . S
N166 Gd171 2.622 . S
C167 N166 1.338 . S
C167 C169 1.378 . S
C167 H179 0.929 . S
C168 C164 1.413 . S
C168 C169 1.348 . S
C168 H184 0.931 . S
C169 C167 1.378 . S
C169 C168 1.348 . S
C169 H185 0.930 . S
Gd170 N190 2.622 . S
Gd170 N197 2.570 . S
Gd170 O204 2.353 1_554 S
Gd170 O205 2.468 1_554 S
Gd170 O206 2.427 1_554 S
Gd170 O208 2.388 . S
Gd170 O209 2.386 . S
Gd170 O213 2.307 . S
Gd170 C223 2.805 1_554 S
Gd171 N166 2.622 . S
Gd171 N172 2.570 . S
Gd171 O203 2.386 . S
Gd171 O207 2.307 . S
Gd171 O210 2.353 . S
Gd171 O211 2.468 . S
Gd171 O212 2.427 . S
Gd171 O214 2.388 . S
Gd171 C235 2.805 . S
N172 C162 1.359 . S
N172 Gd171 2.570 . S
N172 C174 1.343 . S
C173 C161 1.422 . S
C173 C175 1.321 . S
C173 H181 0.931 . S
C174 N172 1.343 . S
C174 C175 1.390 . S
C174 H176 0.931 . S
C175 C173 1.321 . S
C175 C174 1.390 . S
C175 H177 0.930 . S
H176 C174 0.931 . S
H177 C175 0.930 . S
H178 C201 0.931 . S
H179 C167 0.929 . S
H180 C202 0.930 . S
H181 C173 0.931 . S
H182 C163 0.930 . S
H183 C192 0.929 . S
H184 C168 0.931 . S
H185 C169 0.930 . S
H186 C224 0.930 . S
H187 C165 0.929 . S
H188 C193 0.931 . S
H189 C194 0.930 . S
N190 Gd170 2.622 . S
N190 C191 1.369 . S
N190 C192 1.338 1_554 S
C191 N190 1.369 . S
C191 C195 1.415 . S
C191 C198 1.422 . S
C192 H183 0.929 . S
C192 N190 1.338 1_556 S
C192 C194 1.378 . S
C193 H188 0.931 . S
C193 C194 1.348 1_554 S
C193 C195 1.413 . S
C194 H189 0.930 . S
C194 C192 1.378 . S
C194 C193 1.348 1_556 S
C195 C191 1.415 . S
C195 C193 1.413 . S
C195 C225 1.437 . S
H196 C225 0.929 . S
N197 Gd170 2.570 . S
N197 C198 1.359 . S
N197 C201 1.343 . S
C198 C191 1.422 . S
C198 N197 1.359 . S
C198 C200 1.421 . S
C199 C200 1.422 . S
C199 C202 1.321 . S
C199 H226 0.931 . S
C200 C198 1.421 . S
C200 C199 1.422 . S
C200 C224 1.417 . S
C201 H178 0.931 . S
C201 N197 1.343 . S
C201 C202 1.390 . S
C202 H180 0.930 . S
C202 C199 1.321 . S
C202 C201 1.390 . S
O203 Gd171 2.386 . S
O203 C215 1.265 1_554 S
O204 Gd170 2.353 1_556 S
O204 C215 1.242 . S
O205 Gd170 2.468 1_556 S
O205 C223 1.263 . S
O206 Gd170 2.427 1_556 S
O206 C223 1.252 . S
O207 Gd171 2.307 . S
O207 C216 1.261 . S
O208 Gd170 2.388 . S
O208 C216 1.252 . S
O209 Gd170 2.386 . S
O209 C227 1.265 . S
O210 Gd171 2.353 . S
O210 C227 1.242 . S
O211 Gd171 2.468 . S
O211 C235 1.263 . S
O212 Gd171 2.427 . S
O212 C235 1.252 . S
O213 Gd170 2.307 . S
O213 C228 1.261 . S
O214 Gd171 2.388 . S
O214 C228 1.252 . S
C215 O203 1.265 1_556 S
C215 O204 1.242 . S
C216 O207 1.261 . S
C216 O208 1.252 . S
C217 C220 1.394 . S
C217 C222 1.370 . S
C217 C223 1.500 . S
C218 C221 1.383 . S
C218 C222 1.395 . S
C219 C220 1.396 . S
C219 C221 1.365 . S
C219 H236 0.929 . S
C220 C217 1.394 . S
C220 C219 1.396 . S
C220 H237 0.930 . S
C221 C218 1.383 . S
C221 C219 1.365 . S
C221 H238 0.931 . S
C222 C217 1.370 . S
C222 C218 1.395 . S
C222 H239 0.930 . S
C223 Gd170 2.805 1_556 S
C223 O205 1.263 . S
C223 O206 1.252 . S
C223 C217 1.500 . S
C224 H186 0.930 . S
C224 C200 1.417 . S
C224 C225 1.329 . S
C225 C195 1.437 . S
C225 H196 0.929 . S
C225 C224 1.329 . S
H226 C199 0.931 . S
C227 O209 1.265 . S
C227 O210 1.242 . S
C228 O213 1.261 . S
C228 O214 1.252 . S
C229 C232 1.394 . S
C229 C234 1.370 . S
C229 C235 1.500 . S
C230 C233 1.383 . S
C230 C234 1.395 . S
C231 C232 1.396 . S
C231 C233 1.365 . S
C231 H240 0.929 . S
C232 C229 1.394 . S
C232 C231 1.396 . S
C232 H241 0.930 . S
C233 C230 1.383 . S
C233 C231 1.365 . S
C233 H242 0.931 . S
C234 C229 1.370 . S
C234 C230 1.395 . S
C234 H243 0.930 . S
C235 Gd171 2.805 . S
C235 O211 1.263 . S
C235 O212 1.252 . S
C235 C229 1.500 . S
H236 C219 0.929 . S
H237 C220 0.930 . S
H238 C221 0.931 . S
H239 C222 0.930 . S
H240 C231 0.929 . S
H241 C232 0.930 . S
H242 C233 0.931 . S
H243 C234 0.930 . S
C244 C245 1.387 . S
C244 H248 0.950 . S
C244 C253 1.390 . S
C245 C244 1.387 . S
C245 C247 1.387 . S
H246 C253 0.950 . S
C247 C245 1.387 . S
C247 C249 1.390 . S
C247 H251 0.950 . S
H248 C244 0.950 . S
C249 C247 1.390 . S
C249 C250 1.387 . S
C249 H252 0.950 . S
C250 C249 1.387 . S
C250 C253 1.387 . S
H251 C247 0.950 . S
H252 C249 0.950 . S
C253 C244 1.390 . S
C253 H246 0.950 . S
C253 C250 1.387 . S
C254 C255 1.387 . S
C254 H258 0.950 1_554 S
C254 C263 1.390 . S
C255 C254 1.387 . S
C255 C257 1.387 . S
H256 C263 0.950 1_556 S
C257 C255 1.387 . S
C257 C259 1.390 . S
C257 H261 0.950 . S
H258 C254 0.950 1_556 S
C259 C257 1.390 . S
C259 C260 1.387 . S
C259 H262 0.950 . S
C260 C259 1.387 . S
C260 C263 1.387 . S
H261 C257 0.950 . S
H262 C259 0.950 . S
C263 C254 1.390 . S
C263 H256 0.950 1_554 S
C263 C260 1.387 . S
C264 C265 1.387 . S
C264 H268 0.950 . S
C264 C273 1.390 . S
C265 C264 1.387 . S
C265 C267 1.387 . S
H266 C273 0.950 . S
C267 C265 1.387 . S
C267 C269 1.390 . S
C267 H271 0.950 . S
H268 C264 0.950 . S
C269 C267 1.390 . S
C269 C270 1.387 . S
C269 H272 0.950 . S
C270 C269 1.387 . S
C270 C273 1.387 . S
H271 C267 0.950 . S
H272 C269 0.950 . S
C273 C264 1.390 . S
C273 H266 0.950 . S
C273 C270 1.387 . S
C274 C275 1.387 . S
C274 H278 0.950 1_554 S
C274 C283 1.390 . S
C275 C274 1.387 . S
C275 C277 1.387 . S
H276 C283 0.950 1_556 S
C277 C275 1.387 . S
C277 C279 1.390 . S
C277 H281 0.950 . S
H278 C274 0.950 1_556 S
C279 C277 1.390 . S
C279 C280 1.387 . S
C279 H282 0.950 . S
C280 C279 1.387 . S
C280 C283 1.387 . S
H281 C277 0.950 . S
H282 C279 0.950 . S
C283 C274 1.390 . S
C283 H276 0.950 1_554 S
C283 C280 1.387 . S
C284 C285 1.387 . S
C284 H288 0.950 . S
C284 C293 1.390 . S
C285 C284 1.387 . S
C285 C287 1.387 . S
H286 C293 0.950 . S
C287 C285 1.387 . S
C287 C289 1.390 . S
C287 H291 0.950 . S
H288 C284 0.950 . S
C289 C287 1.390 . S
C289 C290 1.387 . S
C289 H292 0.950 1_565 S
C290 C289 1.387 . S
C290 C293 1.387 . S
H291 C287 0.950 . S
H292 C289 0.950 1_545 S
C293 C284 1.390 . S
C293 H286 0.950 . S
C293 C290 1.387 . S
C294 C295 1.387 . S
C294 H298 0.950 . S
C294 C303 1.390 . S
C295 C294 1.387 . S
C295 C297 1.387 . S
H296 C303 0.950 . S
C297 C295 1.387 . S
C297 C299 1.390 . S
C297 H301 0.950 . S
H298 C294 0.950 . S
C299 C297 1.390 . S
C299 C300 1.387 . S
C299 H302 0.950 . S
C300 C299 1.387 . S
C300 C303 1.387 . S
H301 C297 0.950 . S
H302 C299 0.950 . S
C303 C294 1.390 . S
C303 H296 0.950 . S
C303 C300 1.387 . S
C304 C305 1.387 . S
C304 H308 0.950 . S
C304 C313 1.390 . S
C305 C304 1.387 . S
C305 C307 1.387 . S
H306 C313 0.950 . S
C307 C305 1.387 . S
C307 C309 1.390 . S
C307 H311 0.950 . S
H308 C304 0.950 . S
C309 C307 1.390 . S
C309 C310 1.387 . S
C309 H312 0.950 . S
C310 C309 1.387 . S
C310 C313 1.387 . S
H311 C307 0.950 . S
H312 C309 0.950 . S
C313 C304 1.390 . S
C313 H306 0.950 . S
C313 C310 1.387 . S
C314 C315 1.387 . S
C314 H318 0.950 . S
C314 C323 1.390 . S
C315 C314 1.387 . S
C315 C317 1.387 . S
H316 C323 0.950 . S
C317 C315 1.387 . S
C317 C319 1.390 . S
C317 H321 0.950 . S
H318 C314 0.950 . S
C319 C317 1.390 . S
C319 C320 1.387 . S
C319 H322 0.950 . S
C320 C319 1.387 . S
C320 C323 1.387 . S
H321 C317 0.950 . S
H322 C319 0.950 . S
C323 C314 1.390 . S
C323 H316 0.950 . S
C323 C320 1.387 . S
C324 C325 1.387 . S
C324 H328 0.950 . S
C324 C333 1.390 . S
C325 C324 1.387 . S
C325 C327 1.387 . S
H326 C333 0.950 . S
C327 C325 1.387 . S
C327 C329 1.390 . S
C327 H331 0.950 . S
H328 C324 0.950 . S
C329 C327 1.390 . S
C329 C330 1.387 . S
C329 H332 0.950 . S
C330 C329 1.387 . S
C330 C333 1.387 . S
H331 C327 0.950 . S
H332 C329 0.950 . S
C333 C324 1.390 . S
C333 H326 0.950 . S
C333 C330 1.387 . S
C334 C335 1.387 . S
C334 H338 0.950 . S
C334 C343 1.390 . S
C335 C334 1.387 . S
C335 C337 1.387 . S
H336 C343 0.950 . S
C337 C335 1.387 . S
C337 C339 1.390 . S
C337 H341 0.950 1_556 S
H338 C334 0.950 . S
C339 C337 1.390 . S
C339 C340 1.387 . S
C339 H342 0.950 . S
C340 C339 1.387 . S
C340 C343 1.387 . S
H341 C337 0.950 1_554 S
H342 C339 0.950 . S
C343 C334 1.390 . S
C343 H336 0.950 . S
C343 C340 1.387 . S
C344 C345 1.387 . S
C344 H348 0.950 . S
C344 C353 1.390 . S
C345 C344 1.387 . S
C345 C347 1.387 . S
H346 C353 0.950 . S
C347 C345 1.387 . S
C347 C349 1.390 . S
C347 H351 0.950 . S
H348 C344 0.950 . S
C349 C347 1.390 . S
C349 C350 1.387 . S
C349 H352 0.950 . S
C350 C349 1.387 . S
C350 C353 1.387 . S
H351 C347 0.950 . S
H352 C349 0.950 . S
C353 C344 1.390 . S
C353 H346 0.950 . S
C353 C350 1.387 . S
C354 C355 1.387 . S
C354 H358 0.950 . S
C354 C363 1.390 . S
C355 C354 1.387 . S
C355 C357 1.387 . S
H356 C363 0.950 1_545 S
C357 C355 1.387 . S
C357 C359 1.390 . S
C357 H361 0.950 . S
H358 C354 0.950 . S
C359 C357 1.390 . S
C359 C360 1.387 . S
C359 H362 0.950 . S
C360 C359 1.387 . S
C360 C363 1.387 . S
H361 C357 0.950 . S
H362 C359 0.950 . S
C363 C354 1.390 . S
C363 H356 0.950 1_565 S
C363 C360 1.387 . S
C250 C144 1.661 . S
C245 C68 1.634 . S
C255 C11 1.533 . S
C260 C216 1.699 . S
C265 C30 1.599 . S
C270 C132 1.692 . S
C275 C49 1.594 . S
C280 C228 1.639 . S
C290 C134 1.472 . S
C285 C2 1.647 . S
C300 C215 1.761 . S
C295 C25 1.755 . S
C305 C40 1.675 . S
C310 C131 1.706 . S
C315 C59 1.650 . S
C320 C218 1.484 . S
C330 C230 1.438 . S
C325 C21 1.600 . S
C340 C146 1.386 . S
C335 C44 1.590 1_556 S
C350 C227 1.661 . S
C345 C63 1.659 . S
C355 C6 1.634 . S
C360 C143 1.649 . S
