# Generated by pormake.
# Topology zzz, (3,6)-cn, num edge types: 1
# Building blocks:
#     Node 0, Type 0, BuildingBlock: MIDCAF_clean_linker_0, # of connection points: 3
#     Node 1, Type 0, BuildingBlock: MIDCAF_clean_linker_0, # of connection points: 3
#     Node 2, Type 0, BuildingBlock: MIDCAF_clean_linker_0, # of connection points: 3
#     Node 3, Type 0, BuildingBlock: MIDCAF_clean_linker_0, # of connection points: 3
#     Node 4, Type 0, BuildingBlock: MIDCAF_clean_linker_0, # of connection points: 3
#     Node 5, Type 0, BuildingBlock: MIDCAF_clean_linker_0, # of connection points: 3
#     Node 6, Type 0, BuildingBlock: MIDCAF_clean_linker_0, # of connection points: 3
#     Node 7, Type 0, BuildingBlock: MIDCAF_clean_linker_0, # of connection points: 3
#     Node 8, Type 1, BuildingBlock: LEVNOQ01_clean_sbu_1, # of connection points: 6
#     Node 9, Type 1, BuildingBlock: LEVNOQ01_clean_sbu_1, # of connection points: 6
#     Node 10, Type 1, BuildingBlock: LEVNOQ01_clean_sbu_1, # of connection points: 6
#     Node 11, Type 1, BuildingBlock: LEVNOQ01_clean_sbu_1, # of connection points: 6
#     Edge 12, Type (0, 1), None
#     Edge 13, Type (0, 1), None
#     Edge 14, Type (0, 1), None
#     Edge 15, Type (0, 1), None
#     Edge 16, Type (0, 1), None
#     Edge 17, Type (0, 1), None
#     Edge 18, Type (0, 1), None
#     Edge 19, Type (0, 1), None
#     Edge 20, Type (0, 1), None
#     Edge 21, Type (0, 1), None
#     Edge 22, Type (0, 1), None
#     Edge 23, Type (0, 1), None
#     Edge 24, Type (0, 1), None
#     Edge 25, Type (0, 1), None
#     Edge 26, Type (0, 1), None
#     Edge 27, Type (0, 1), None
#     Edge 28, Type (0, 1), None
#     Edge 29, Type (0, 1), None
#     Edge 30, Type (0, 1), None
#     Edge 31, Type (0, 1), None
#     Edge 32, Type (0, 1), None
#     Edge 33, Type (0, 1), None
#     Edge 34, Type (0, 1), None
#     Edge 35, Type (0, 1), None
# Relax obj value: 0.311
# Max RMSD: 0.221
# Mean RMSD: 0.207
data_MOF--net-zzz--node1-LEVNOQ01_clean_sbu_1--node2-MIDCAF_clean_linker_0--edge1-none
_symmetry_space_group_name_H-M    P1
_symmetry_Int_Tables_number       1
_symmetry_cell_setting            triclinic
loop_
_symmetry_equiv_pos_as_xyz
'x, y, z'
_cell_length_a     29.324131
_cell_length_b     31.003371
_cell_length_c     11.47105
_cell_angle_alpha  89.694619
_cell_angle_beta   89.917904
_cell_angle_gamma 88.36198
loop_
_atom_site_label
_atom_site_type_symbol
_atom_site_fract_x
_atom_site_fract_y
_atom_site_fract_z
_atom_type_partial_charge
C0 C 0.88596 0.6004 0.48312 0.0
C1 C 0.86742 0.56472 0.5399 0.0
C2 C 0.82081 0.55653 0.52251 0.0
C3 C 0.79512 0.57974 0.43902 0.0
H4 H 0.67624 0.57378 0.23415 0.0
H5 H 0.61431 0.53298 0.15173 0.0
H6 H 0.63582 0.59217 0.81581 0.0
H7 H 0.69833 0.63301 0.89787 0.0
H8 H 0.80016 0.56064 0.87798 0.0
H9 H 0.84992 0.49934 0.83379 0.0
H10 H 0.96079 0.55941 0.01182 0.0
H11 H 0.91041 0.62087 0.05996 0.0
H12 H 0.87705 0.6481 0.34881 0.0
H13 H 0.92146 0.608 0.49523 0.0
H14 H 0.80506 0.52984 0.56684 0.0
H15 H 0.76097 0.56948 0.41943 0.0
N16 N 0.75271 0.61799 0.22338 0.0
N17 N 0.77254 0.61644 0.02483 0.0
N18 N 0.82924 0.6211 0.16558 0.0
C19 C 0.73979 0.61755 0.10856 0.0
C20 C 0.81737 0.61726 0.05247 0.0
C21 C 0.79779 0.62139 0.25195 0.0
C22 C 0.69298 0.60597 0.0723 0.0
C23 C 0.66673 0.57958 0.14409 0.0
C24 C 0.63141 0.55592 0.0964 0.0
C25 C 0.62101 0.55872 0.97663 0.0
C26 C 0.6432 0.58923 0.90807 0.0
C27 C 0.67906 0.61252 0.95543 0.0
C28 C 0.85094 0.59512 0.97588 0.0
C29 C 0.83558 0.56188 0.90406 0.0
C30 C 0.86392 0.52613 0.88066 0.0
C31 C 0.90878 0.52404 0.92335 0.0
C32 C 0.92608 0.56009 0.97979 0.0
C33 C 0.89744 0.59552 0.00557 0.0
C34 C 0.81561 0.61149 0.37073 0.0
C35 C 0.86028 0.62355 0.39946 0.0
C36 C 0.94276 0.86311 0.49809 0.0
C37 C 0.98502 0.86128 0.55552 0.0
C38 C 0.01039 0.822 0.55508 0.0
C39 C 0.99786 0.78821 0.48234 0.0
H40 H 0.01648 0.66332 0.18598 0.0
H41 H 0.0391 0.60372 0.05602 0.0
H42 H 0.98119 0.67346 0.76347 0.0
H43 H 0.95957 0.73332 0.89211 0.0
H44 H 0.07531 0.81563 0.94955 0.0
H45 H 0.10942 0.87811 0.85868 0.0
H46 H 0.03378 0.96268 0.09142 0.0
H47 H 1.00055 0.90031 0.18471 0.0
H48 H 0.90164 0.83456 0.36708 0.0
H49 H 0.92185 0.89248 0.49865 0.0
H50 H 0.04244 0.81894 0.60173 0.0
H51 H 0.02189 0.76136 0.47058 0.0
N52 N 0.97109 0.74743 0.22731 0.0
N53 N 0.00711 0.77826 0.06344 0.0
N54 N 0.99256 0.81984 0.22818 0.0
C55 C 0.98707 0.74391 0.11514 0.0
C56 C 0.01025 0.8162 0.12068 0.0
C57 C 0.9729 0.78642 0.28213 0.0
C58 C 0.9864 0.70295 0.04906 0.0
C59 C 0.00651 0.66494 0.09514 0.0
C60 C 0.0193 0.63079 0.02079 0.0
C61 C 0.01101 0.63369 0.90012 0.0
C62 C 0.98687 0.6699 0.8564 0.0
C63 C 0.97482 0.70426 0.93004 0.0
C64 C 0.03427 0.85317 0.07146 0.0
C65 C 0.06685 0.84747 0.98312 0.0
C66 C 0.08739 0.88323 0.93356 0.0
C67 C 0.07456 0.92526 0.96926 0.0
C68 C 0.04489 0.93065 0.06411 0.0
C69 C 0.02512 0.89489 0.11531 0.0
C70 C 0.96122 0.79419 0.40489 0.0
C71 C 0.93054 0.82925 0.42472 0.0
C72 C 0.63488 0.91813 0.50347 0.0
C73 C 0.64732 0.9598 0.53517 0.0
C74 C 0.69157 0.97323 0.50633 0.0
C75 C 0.72086 0.94737 0.43773 0.0
H76 H 0.83533 0.95463 0.221 0.0
H77 H 0.88519 0.9994 0.10401 0.0
H78 H 0.87181 0.91353 0.81292 0.0
H79 H 0.82155 0.86858 0.92919 0.0
H80 H 0.71285 0.93315 0.90124 0.0
H81 H 0.66284 0.99494 0.86407 0.0
H82 H 0.55878 0.94043 0.08045 0.0
H83 H 0.60978 0.8783 0.12329 0.0
H84 H 0.65227 0.8614 0.40596 0.0
H85 H 0.6017 0.9062 0.52673 0.0
H86 H 0.70278 0.00486 0.53119 0.0
H87 H 0.75265 0.96056 0.4078 0.0
N88 N 0.76898 0.8981 0.24876 0.0
N89 N 0.7465 0.88485 0.05614 0.0
N90 N 0.69377 0.88033 0.20641 0.0
C91 C 0.78021 0.8927 0.13357 0.0
C92 C 0.70269 0.88081 0.09129 0.0
C93 C 0.72561 0.89013 0.28597 0.0
C94 C 0.82374 0.90839 0.08411 0.0
C95 C 0.84487 0.94382 0.13448 0.0
C96 C 0.87348 0.96956 0.06725 0.0
C97 C 0.88228 0.95987 0.94954 0.0
C98 C 0.86612 0.92139 0.90381 0.0
C99 C 0.83709 0.89583 0.97059 0.0
C100 C 0.66627 0.90147 0.01976 0.0
C101 C 0.67917 0.93357 0.94025 0.0
C102 C 0.65125 0.96999 0.92264 0.0
C103 C 0.60882 0.97413 0.97881 0.0
C104 C 0.5928 0.93919 0.0435 0.0
C105 C 0.62127 0.90299 0.06375 0.0
C106 C 0.70664 0.90738 0.39681 0.0
C107 C 0.6644 0.89207 0.43631 0.0
C108 C 0.4439 0.59342 0.03784 0.0
C109 C 0.42024 0.6006 0.9333 0.0
C110 C 0.41339 0.64314 0.89224 0.0
C111 C 0.43491 0.67722 0.94664 0.0
H112 H 0.55857 0.78327 0.87426 0.0
H113 H 0.53743 0.84056 0.73531 0.0
H114 H 0.46767 0.91051 0.00895 0.0
H115 H 0.48893 0.85308 0.14861 0.0
H116 H 0.49651 0.75007 0.45239 0.0
H117 H 0.47857 0.6924 0.58781 0.0
H118 H 0.5882 0.61321 0.44587 0.0
H119 H 0.60583 0.67123 0.30935 0.0
H120 H 0.48522 0.6202 0.1698 0.0
H121 H 0.45034 0.56085 0.06982 0.0
H122 H 0.39609 0.64944 0.81022 0.0
H123 H 0.43189 0.70918 0.90833 0.0
N124 N 0.4966 0.74155 0.03892 0.0
N125 N 0.54098 0.7658 0.19646 0.0
N126 N 0.51079 0.69635 0.19786 0.0
C127 C 0.52188 0.77277 0.08839 0.0
C128 C 0.53601 0.72648 0.24949 0.0
C129 C 0.49052 0.70345 0.09435 0.0
C130 C 0.52569 0.81384 0.02256 0.0
C131 C 0.54096 0.81205 0.90624 0.0
C132 C 0.5289 0.84485 0.82652 0.0
C133 C 0.50141 0.88017 0.86154 0.0
C134 C 0.48985 0.88408 0.98027 0.0
C135 C 0.50209 0.85126 0.06043 0.0
C136 C 0.55171 0.71487 0.36779 0.0
C137 C 0.51919 0.72186 0.45597 0.0
C138 C 0.50815 0.68817 0.53183 0.0
C139 C 0.53085 0.64759 0.5241 0.0
C140 C 0.56969 0.64383 0.45298 0.0
C141 C 0.58038 0.6776 0.37615 0.0
C142 C 0.46256 0.66929 0.04451 0.0
C143 C 0.46474 0.62747 0.09329 0.0
C144 C 0.1288 0.41042 0.92074 0.0
C145 C 0.14631 0.44585 0.86065 0.0
C146 C 0.19296 0.45468 0.87438 0.0
C147 C 0.21978 0.43246 0.95745 0.0
H148 H 0.33709 0.44983 0.16749 0.0
H149 H 0.39619 0.49267 0.25669 0.0
H150 H 0.38372 0.42066 0.57686 0.0
H151 H 0.32387 0.37827 0.48886 0.0
H152 H 0.21575 0.4548 0.52129 0.0
H153 H 0.16309 0.51391 0.56648 0.0
H154 H 0.05507 0.44892 0.38957 0.0
H155 H 0.10843 0.39011 0.3397 0.0
H156 H 0.13971 0.36383 0.05701 0.0
H157 H 0.09329 0.40237 0.91158 0.0
H158 H 0.20791 0.4812 0.82744 0.0
H159 H 0.25395 0.4433 0.97412 0.0
N160 N 0.2646 0.39735 0.17352 0.0
N161 N 0.24591 0.39982 0.37291 0.0
N162 N 0.18869 0.3921 0.23483 0.0
C163 C 0.27819 0.39889 0.28774 0.0
C164 C 0.20099 0.39722 0.34711 0.0
C165 C 0.21951 0.39236 0.14714 0.0
C166 C 0.32507 0.4112 0.32163 0.0
C167 C 0.34853 0.44148 0.25469 0.0
C168 C 0.38254 0.46603 0.30589 0.0
C169 C 0.3945 0.46008 0.42388 0.0
C170 C 0.37574 0.42562 0.48547 0.0
C171 C 0.34112 0.40157 0.43503 0.0
C172 C 0.16663 0.41818 0.42397 0.0
C173 C 0.18042 0.45204 0.4957 0.0
C174 C 0.15036 0.48652 0.51967 0.0
C175 C 0.10539 0.4867 0.47739 0.0
C176 C 0.08981 0.44989 0.42111 0.0
C177 C 0.12018 0.41585 0.39459 0.0
C178 C 0.20044 0.40102 0.02892 0.0
C179 C 0.15565 0.38819 0.00386 0.0
C180 C 0.99091 0.18241 0.90087 0.0
C181 C 0.01647 0.14453 0.87333 0.0
C182 C 0.06233 0.14167 0.90786 0.0
C183 C 0.07995 0.17292 0.98243 0.0
H184 H 0.99195 0.33389 0.22658 0.0
H185 H 0.95794 0.391 0.3488 0.0
H186 H 0.05243 0.35812 0.62462 0.0
H187 H 0.08597 0.30054 0.50377 0.0
H188 H 0.99721 0.20107 0.53439 0.0
H189 H 0.94472 0.14716 0.60291 0.0
H190 H 1.00371 0.05456 0.3618 0.0
H191 H 0.05569 0.10857 0.29134 0.0
H192 H 0.98597 0.23934 0.0059 0.0
H193 H 0.95566 0.18617 0.87358 0.0
H194 H 0.08311 0.11326 0.88742 0.0
H195 H 0.1134 0.16685 0.0202 0.0
N196 N 0.05288 0.26215 0.1859 0.0
N197 N 0.04784 0.23534 0.37812 0.0
N198 N 0.05658 0.18766 0.22365 0.0
C199 C 0.05041 0.26944 0.30389 0.0
C200 C 0.05017 0.19439 0.33838 0.0
C201 C 0.05808 0.22057 0.14653 0.0
C202 C 0.04169 0.31277 0.35524 0.0
C203 C 0.00704 0.34027 0.31067 0.0
C204 C 0.98745 0.37279 0.38098 0.0
C205 C 1.0029 0.37906 0.49567 0.0
C206 C 0.04043 0.35443 0.53603 0.0
C207 C 0.05951 0.32148 0.46664 0.0
C208 C 0.03044 0.1592 0.40669 0.0
C209 C 0.99982 0.16895 0.49781 0.0
C210 C 0.96896 0.1384 0.53513 0.0
C211 C 0.96905 0.09733 0.48391 0.0
C212 C 1.0022 0.08643 0.40024 0.0
C213 C 0.03248 0.11711 0.36163 0.0
C214 C 0.05209 0.20749 0.02378 0.0
C215 C 0.00865 0.2137 0.97462 0.0
C216 C 0.38088 0.09961 0.92483 0.0
C217 C 0.36812 0.05985 0.8793 0.0
C218 C 0.32261 0.04717 0.89536 0.0
C219 C 0.29218 0.07129 0.96521 0.0
H220 H 0.17643 0.05202 0.17521 0.0
H221 H 0.1219 0.00751 0.27868 0.0
H222 H 0.12209 0.09506 0.56908 0.0
H223 H 0.17732 0.1394 0.46673 0.0
H224 H 0.29279 0.06512 0.4956 0.0
H225 H 0.35006 0.00901 0.53205 0.0
H226 H 0.4521 0.08557 0.36546 0.0
H227 H 0.39428 0.14234 0.3258 0.0
H228 H 0.36242 0.1529 0.03439 0.0
H229 H 0.4151 0.11103 0.91187 0.0
H230 H 0.31104 0.01719 0.85938 0.0
H231 H 0.25912 0.05827 0.98466 0.0
N232 N 0.24055 0.11316 0.16016 0.0
N233 N 0.25832 0.12128 0.35848 0.0
N234 N 0.31417 0.13095 0.21771 0.0
C235 C 0.22661 0.11525 0.27426 0.0
C236 C 0.30259 0.12763 0.33086 0.0
C237 C 0.28455 0.12262 0.13151 0.0
C238 C 0.18176 0.09896 0.31317 0.0
C239 C 0.16318 0.06309 0.25836 0.0
C240 C 0.13195 0.03749 0.31789 0.0
C241 C 0.11778 0.04785 0.43192 0.0
C242 C 0.13194 0.08659 0.48086 0.0
C243 C 0.16375 0.11185 0.42215 0.0
C244 C 0.33859 0.10791 0.40495 0.0
C245 C 0.32755 0.07082 0.4688 0.0
C246 C 0.35996 0.03772 0.48524 0.0
C247 C 0.40456 0.04164 0.44256 0.0
C248 C 0.41723 0.08092 0.39268 0.0
C249 C 0.38455 0.11392 0.37426 0.0
C250 C 0.30645 0.10878 0.02044 0.0
C251 C 0.35024 0.12401 0.99338 0.0
C252 C 0.57604 0.41419 0.40537 0.0
C253 C 0.58613 0.40499 0.52271 0.0
C254 C 0.5957 0.36198 0.55609 0.0
C255 C 0.58748 0.32847 0.479 0.0
H256 H 0.46144 0.23403 0.51293 0.0
H257 H 0.47959 0.1805 0.66474 0.0
H258 H 0.55378 0.10323 0.41351 0.0
H259 H 0.53613 0.15712 0.26172 0.0
H260 H 0.41691 0.33679 0.15532 0.0
H261 H 0.41105 0.40338 0.04144 0.0
H262 H 0.51475 0.35417 0.80726 0.0
H263 H 0.52212 0.28843 0.9246 0.0
H264 H 0.55592 0.38898 0.24144 0.0
H265 H 0.56949 0.44708 0.37615 0.0
H266 H 0.60459 0.35385 0.64532 0.0
H267 H 0.59061 0.29557 0.51092 0.0
N268 N 0.53551 0.26659 0.3553 0.0
N269 N 0.48419 0.25029 0.2045 0.0
N270 N 0.52484 0.31477 0.20117 0.0
C271 C 0.5057 0.23918 0.30708 0.0
C272 C 0.49465 0.28844 0.15086 0.0
C273 C 0.54544 0.30434 0.30286 0.0
C274 C 0.49667 0.19946 0.37467 0.0
C275 C 0.47903 0.20423 0.48831 0.0
C276 C 0.48961 0.17369 0.57563 0.0
C277 C 0.51754 0.13747 0.55065 0.0
C278 C 0.5312 0.13038 0.43448 0.0
C279 C 0.52081 0.16108 0.34712 0.0
C280 C 0.47005 0.30721 0.04937 0.0
C281 C 0.43592 0.33864 0.07442 0.0
C282 C 0.43285 0.37718 0.00969 0.0
C283 C 0.46247 0.38411 0.91555 0.0
C284 C 0.49089 0.34954 0.87818 0.0
C285 C 0.49482 0.31147 0.94497 0.0
C286 C 0.57001 0.33761 0.36735 0.0
C287 C 0.56811 0.3807 0.32805 0.0
O288 O 0.11 0.95903 0.81201 0.0
Mg289 Mg 0.08349 0.95868 0.6428 0.0
O290 O 0.03809 0.97446 0.84849 0.0
Mg291 Mg 0.99855 0.00481 0.6948 0.0
O292 O 0.06287 0.01719 0.56901 0.0
O293 O 0.12624 0.97881 0.51807 0.0
O294 O 0.95467 0.02752 0.54279 0.0
O295 O 0.01403 0.07561 0.77229 0.0
Mg296 Mg 0.91277 0.05781 0.76127 0.0
O297 O 0.93326 0.99518 0.81182 0.0
O298 O 0.90356 0.07662 0.58461 0.0
O299 O 0.95025 0.10467 0.84433 0.0
O300 O 0.86648 0.02772 0.86137 0.0
C301 C 0.00652 0.90112 0.59782 0.0
C302 C 0.07684 0.95982 0.88229 0.0
C303 C 0.1007 0.0132 0.50831 0.0
C304 C 0.93728 0.06452 0.523 0.0
C305 C 0.99268 0.10655 0.82565 0.0
C306 C 0.89495 0.99531 0.8704 0.0
O307 O 0.0496 0.902 0.59915 0.0
O308 O 0.98282 0.93504 0.6233 0.0
O309 O 0.38582 0.99764 0.76802 0.0
Mg310 Mg 0.41924 0.94908 0.66525 0.0
O311 O 0.44401 0.04002 0.81027 0.0
Mg312 Mg 0.50831 0.01011 0.70945 0.0
O313 O 0.48168 0.94314 0.74059 0.0
O314 O 0.43644 0.88789 0.73779 0.0
O315 O 0.57251 0.98034 0.60864 0.0
O316 O 0.54803 0.99512 0.87047 0.0
Mg317 Mg 0.59869 0.0705 0.75247 0.0
O318 O 0.53564 0.07659 0.67986 0.0
O319 O 0.63126 0.02289 0.64459 0.0
O320 O 0.59362 0.04629 0.92642 0.0
O321 O 0.58055 0.13196 0.68142 0.0
C322 C 0.43937 0.00955 0.47902 0.0
C323 C 0.40138 0.03111 0.81616 0.0
C324 C 0.47379 0.90417 0.77343 0.0
C325 C 0.61502 0.98927 0.59876 0.0
C326 C 0.57765 0.00885 0.93977 0.0
C327 C 0.54338 0.11537 0.6455 0.0
O328 O 0.42742 0.97067 0.49061 0.0
O329 O 0.46798 0.02523 0.5482 0.0
O330 O 0.49747 0.44843 0.96185 0.0
Mg331 Mg 0.5514 0.46832 0.85388 0.0
O332 O 0.47902 0.44177 0.78057 0.0
Mg333 Mg 0.50521 0.51019 0.70148 0.0
O334 O 0.56441 0.53211 0.83927 0.0
O335 O 0.6007 0.48571 0.96229 0.0
O336 O 0.52918 0.57553 0.60917 0.0
O337 O 0.45947 0.54855 0.82785 0.0
Mg338 Mg 0.42681 0.55566 0.61165 0.0
O339 O 0.44671 0.4933 0.56222 0.0
O340 O 0.4646 0.60893 0.56071 0.0
O341 O 0.39081 0.56655 0.76771 0.0
O342 O 0.38938 0.533 0.48054 0.0
C343 C 0.57497 0.43739 0.61282 0.0
C344 C 0.47548 0.42876 0.88592 0.0
C345 C 0.59391 0.52438 0.92315 0.0
C346 C 0.50754 0.60884 0.56881 0.0
C347 C 0.42048 0.56594 0.84728 0.0
C348 C 0.41237 0.49704 0.48924 0.0
O349 O 0.57694 0.42649 0.71953 0.0
O350 O 0.55388 0.47216 0.58326 0.0
O351 O 0.91837 0.45042 0.87836 0.0
Mg352 Mg 0.91818 0.44282 0.69471 0.0
O353 O 0.97861 0.4896 0.88195 0.0
Mg354 Mg 0.00638 0.50466 0.70105 0.0
O355 O 0.98353 0.43935 0.62498 0.0
O356 O 0.93371 0.38729 0.60193 0.0
O357 O 0.03425 0.51865 0.51916 0.0
O358 O 0.07483 0.46839 0.76934 0.0
Mg359 Mg 0.09275 0.56623 0.70456 0.0
O360 O 0.02801 0.57094 0.77706 0.0
O361 O 0.09276 0.55997 0.52139 0.0
O362 O 0.12951 0.51595 0.78919 0.0
O363 O 0.07926 0.62248 0.79307 0.0
C364 C 0.89729 0.5321 0.6009 0.0
C365 C 0.93747 0.48446 0.91125 0.0
C366 C 0.97312 0.40269 0.57896 0.0
C367 C 0.07504 0.52524 0.48901 0.0
C368 C 0.11553 0.47779 0.79999 0.0
C369 C 0.03984 0.60784 0.81965 0.0
O370 O 0.88267 0.49409 0.61023 0.0
O371 O 0.93803 0.54087 0.63275 0.0
loop_
_geom_bond_atom_site_label_1
_geom_bond_atom_site_label_2
_geom_bond_distance
_geom_bond_site_symmetry_2
_ccdc_geom_bond_type
C0 C1 1.384 . S
C0 H13 0.947 . S
C0 C35 1.382 . S
C1 C0 1.384 . S
C1 C2 1.378 . S
C2 C1 1.378 . S
C2 C3 1.378 . S
C2 H14 0.952 . S
C3 C2 1.378 . S
C3 H15 0.950 . S
C3 C34 1.383 . S
H4 C23 0.947 . S
H5 C24 0.946 . S
H6 C26 0.953 . S
H7 C27 0.945 . S
H8 C29 0.952 . S
H9 C30 0.949 . S
H10 C32 0.950 . S
H11 C33 0.948 1_554 S
H12 C35 0.951 . S
H13 C0 0.947 . S
H14 C2 0.952 . S
H15 C3 0.950 . S
N16 C19 1.382 . S
N16 C21 1.363 . S
N17 C19 1.371 1_556 S
N17 C20 1.372 . S
N18 C20 1.361 1_554 S
N18 C21 1.377 . S
C19 N16 1.382 . S
C19 N17 1.371 1_554 S
C19 C22 1.480 . S
C20 N17 1.372 . S
C20 N18 1.361 1_556 S
C20 C28 1.457 . S
C21 N16 1.363 . S
C21 N18 1.377 . S
C21 C34 1.479 . S
C22 C19 1.480 . S
C22 C23 1.383 . S
C22 C27 1.385 1_554 S
C23 H4 0.947 . S
C23 C22 1.383 . S
C23 C24 1.388 . S
C24 H5 0.946 . S
C24 C23 1.388 . S
C24 C25 1.384 1_554 S
C25 C24 1.384 1_556 S
C25 C26 1.377 . S
C26 H6 0.953 . S
C26 C25 1.377 . S
C26 C27 1.369 . S
C27 H7 0.945 . S
C27 C22 1.385 1_556 S
C27 C26 1.369 . S
C28 C20 1.457 . S
C28 C29 1.372 . S
C28 C33 1.364 . S
C29 H8 0.952 . S
C29 C28 1.372 . S
C29 C30 1.389 . S
C30 H9 0.949 . S
C30 C29 1.389 . S
C30 C31 1.387 . S
C31 C30 1.387 . S
C31 C32 1.372 . S
C32 H10 0.950 . S
C32 C31 1.372 . S
C32 C33 1.379 . S
C33 H11 0.948 1_556 S
C33 C28 1.364 . S
C33 C32 1.379 . S
C34 C3 1.383 . S
C34 C21 1.479 . S
C34 C35 1.398 . S
C35 C0 1.382 . S
C35 H12 0.951 . S
C35 C34 1.398 . S
C36 C37 1.384 1_655 S
C36 H49 0.947 . S
C36 C71 1.382 1_655 S
C37 C36 1.384 1_455 S
C37 C38 1.378 . S
C38 C37 1.378 . S
C38 C39 1.378 . S
C38 H50 0.952 . S
C39 C38 1.378 . S
C39 H51 0.950 . S
C39 C70 1.383 . S
H40 C59 0.947 . S
H41 C60 0.946 . S
H42 C62 0.953 . S
H43 C63 0.945 . S
H44 C65 0.952 1_655 S
H45 C66 0.949 . S
H46 C68 0.950 . S
H47 C69 0.948 1_554 S
H48 C71 0.951 1_655 S
H49 C36 0.947 . S
H50 C38 0.952 . S
H51 C39 0.950 . S
N52 C55 1.382 . S
N52 C57 1.363 . S
N53 C55 1.371 1_556 S
N53 C56 1.372 1_556 S
N54 C56 1.361 . S
N54 C57 1.377 . S
C55 N52 1.382 . S
C55 N53 1.371 1_554 S
C55 C58 1.480 . S
C56 N53 1.372 1_554 S
C56 N54 1.361 . S
C56 C64 1.457 1_554 S
C57 N52 1.363 . S
C57 N54 1.377 . S
C57 C70 1.479 . S
C58 C55 1.480 . S
C58 C59 1.383 . S
C58 C63 1.385 1_554 S
C59 H40 0.947 . S
C59 C58 1.383 . S
C59 C60 1.388 1_455 S
C60 H41 0.946 . S
C60 C59 1.388 1_655 S
C60 C61 1.384 1_654 S
C61 C60 1.384 1_456 S
C61 C62 1.377 . S
C62 H42 0.953 . S
C62 C61 1.377 . S
C62 C63 1.369 . S
C63 H43 0.945 . S
C63 C58 1.385 1_556 S
C63 C62 1.369 . S
C64 C56 1.457 1_556 S
C64 C65 1.372 . S
C64 C69 1.364 . S
C65 H44 0.952 1_455 S
C65 C64 1.372 . S
C65 C66 1.389 1_455 S
C66 H45 0.949 . S
C66 C65 1.389 1_655 S
C66 C67 1.387 1_655 S
C67 C66 1.387 1_455 S
C67 C68 1.372 . S
C68 H46 0.950 . S
C68 C67 1.372 . S
C68 C69 1.379 . S
C69 H47 0.948 1_556 S
C69 C64 1.364 . S
C69 C68 1.379 . S
C70 C39 1.383 . S
C70 C57 1.479 . S
C70 C71 1.399 . S
C71 C36 1.382 1_455 S
C71 H48 0.951 1_455 S
C71 C70 1.399 . S
C72 C73 1.384 . S
C72 H85 0.947 . S
C72 C107 1.382 . S
C73 C72 1.384 . S
C73 C74 1.378 . S
C74 C73 1.378 . S
C74 C75 1.378 . S
C74 H86 0.952 . S
C75 C74 1.378 . S
C75 H87 0.950 . S
C75 C106 1.383 . S
H76 C95 0.947 . S
H77 C96 0.946 . S
H78 C98 0.953 . S
H79 C99 0.945 . S
H80 C101 0.952 . S
H81 C102 0.949 . S
H82 C104 0.950 . S
H83 C105 0.948 1_554 S
H84 C107 0.951 . S
H85 C72 0.947 . S
H86 C74 0.952 . S
H87 C75 0.950 . S
N88 C91 1.382 . S
N88 C93 1.363 . S
N89 C91 1.371 1_556 S
N89 C92 1.372 1_556 S
N90 C92 1.361 . S
N90 C93 1.377 . S
C91 N88 1.382 . S
C91 N89 1.371 1_554 S
C91 C94 1.480 . S
C92 N89 1.372 1_554 S
C92 N90 1.361 . S
C92 C100 1.457 1_554 S
C93 N88 1.363 . S
C93 N90 1.377 . S
C93 C106 1.479 . S
C94 C91 1.480 . S
C94 C95 1.383 . S
C94 C99 1.385 1_554 S
C95 H76 0.947 . S
C95 C94 1.383 . S
C95 C96 1.388 . S
C96 H77 0.946 . S
C96 C95 1.388 . S
C96 C97 1.384 1_554 S
C97 C96 1.384 1_556 S
C97 C98 1.377 . S
C98 H78 0.953 . S
C98 C97 1.377 . S
C98 C99 1.369 . S
C99 H79 0.945 . S
C99 C94 1.385 1_556 S
C99 C98 1.369 . S
C100 C92 1.457 1_556 S
C100 C101 1.372 . S
C100 C105 1.364 . S
C101 H80 0.952 . S
C101 C100 1.372 . S
C101 C102 1.389 . S
C102 H81 0.949 . S
C102 C101 1.389 . S
C102 C103 1.387 . S
C103 C102 1.387 . S
C103 C104 1.372 . S
C104 H82 0.950 . S
C104 C103 1.372 . S
C104 C105 1.379 . S
C105 H83 0.948 1_556 S
C105 C100 1.364 . S
C105 C104 1.379 . S
C106 C75 1.383 . S
C106 C93 1.479 . S
C106 C107 1.398 . S
C107 C72 1.382 . S
C107 H84 0.951 . S
C107 C106 1.398 . S
C108 C109 1.384 . S
C108 H121 0.947 . S
C108 C143 1.382 . S
C109 C108 1.384 . S
C109 C110 1.378 . S
C110 C109 1.378 . S
C110 C111 1.378 . S
C110 H122 0.952 . S
C111 C110 1.378 . S
C111 H123 0.950 . S
C111 C142 1.383 . S
H112 C131 0.947 . S
H113 C132 0.946 . S
H114 C134 0.953 . S
H115 C135 0.945 . S
H116 C137 0.952 . S
H117 C138 0.949 . S
H118 C140 0.950 . S
H119 C141 0.948 . S
H120 C143 0.951 1_554 S
H121 C108 0.947 . S
H122 C110 0.952 . S
H123 C111 0.950 . S
N124 C127 1.382 . S
N124 C129 1.363 . S
N125 C127 1.371 . S
N125 C128 1.372 . S
N126 C128 1.361 . S
N126 C129 1.377 . S
C127 N124 1.382 . S
C127 N125 1.371 . S
C127 C130 1.480 . S
C128 N125 1.372 . S
C128 N126 1.361 . S
C128 C136 1.457 . S
C129 N124 1.363 . S
C129 N126 1.377 . S
C129 C142 1.479 1_554 S
C130 C127 1.480 . S
C130 C131 1.383 1_554 S
C130 C135 1.385 . S
C131 H112 0.947 . S
C131 C130 1.383 1_556 S
C131 C132 1.388 . S
C132 H113 0.946 . S
C132 C131 1.388 . S
C132 C133 1.384 1_556 S
C133 C132 1.384 1_554 S
C133 C134 1.377 . S
C134 H114 0.953 . S
C134 C133 1.377 . S
C134 C135 1.369 . S
C135 H115 0.945 . S
C135 C130 1.385 . S
C135 C134 1.369 . S
C136 C128 1.457 . S
C136 C137 1.372 . S
C136 C141 1.364 . S
C137 H116 0.952 . S
C137 C136 1.372 . S
C137 C138 1.389 . S
C138 H117 0.949 . S
C138 C137 1.389 . S
C138 C139 1.387 . S
C139 C138 1.387 . S
C139 C140 1.372 . S
C140 H118 0.950 . S
C140 C139 1.372 . S
C140 C141 1.379 . S
C141 H119 0.948 . S
C141 C136 1.364 . S
C141 C140 1.379 . S
C142 C111 1.383 . S
C142 C129 1.479 1_556 S
C142 C143 1.398 . S
C143 C108 1.382 . S
C143 H120 0.951 1_556 S
C143 C142 1.398 . S
C144 C145 1.384 . S
C144 H157 0.947 . S
C144 C179 1.382 1_556 S
C145 C144 1.384 . S
C145 C146 1.378 . S
C146 C145 1.378 . S
C146 C147 1.378 1_556 S
C146 H158 0.952 . S
C147 C146 1.378 1_554 S
C147 H159 0.950 . S
C147 C178 1.383 . S
H148 C167 0.947 . S
H149 C168 0.946 . S
H150 C170 0.953 . S
H151 C171 0.945 . S
H152 C173 0.952 . S
H153 C174 0.949 . S
H154 C176 0.950 . S
H155 C177 0.948 . S
H156 C179 0.951 . S
H157 C144 0.947 . S
H158 C146 0.952 . S
H159 C147 0.950 . S
N160 C163 1.382 . S
N160 C165 1.363 . S
N161 C163 1.371 . S
N161 C164 1.372 . S
N162 C164 1.361 . S
N162 C165 1.377 . S
C163 N160 1.382 . S
C163 N161 1.371 . S
C163 C166 1.480 . S
C164 N161 1.372 . S
C164 N162 1.361 . S
C164 C172 1.457 . S
C165 N160 1.363 . S
C165 N162 1.377 . S
C165 C178 1.479 . S
C166 C163 1.480 . S
C166 C167 1.383 . S
C166 C171 1.385 . S
C167 H148 0.947 . S
C167 C166 1.383 . S
C167 C168 1.388 . S
C168 H149 0.946 . S
C168 C167 1.388 . S
C168 C169 1.384 . S
C169 C168 1.384 . S
C169 C170 1.377 . S
C170 H150 0.953 . S
C170 C169 1.377 . S
C170 C171 1.369 . S
C171 H151 0.945 . S
C171 C166 1.385 . S
C171 C170 1.369 . S
C172 C164 1.457 . S
C172 C173 1.372 . S
C172 C177 1.364 . S
C173 H152 0.952 . S
C173 C172 1.372 . S
C173 C174 1.389 . S
C174 H153 0.949 . S
C174 C173 1.389 . S
C174 C175 1.387 . S
C175 C174 1.387 . S
C175 C176 1.372 . S
C176 H154 0.950 . S
C176 C175 1.372 . S
C176 C177 1.379 . S
C177 H155 0.948 . S
C177 C172 1.364 . S
C177 C176 1.379 . S
C178 C147 1.383 . S
C178 C165 1.479 . S
C178 C179 1.398 . S
C179 C144 1.382 1_554 S
C179 H156 0.951 . S
C179 C178 1.398 . S
C180 C181 1.384 . S
C180 H193 0.947 1_455 S
C180 C215 1.382 1_556 S
C181 C180 1.384 . S
C181 C182 1.378 . S
C182 C181 1.378 . S
C182 C183 1.378 . S
C182 H194 0.952 . S
C183 C182 1.378 . S
C183 H195 0.949 1_556 S
C183 C214 1.383 1_556 S
H184 C203 0.947 . S
H185 C204 0.946 . S
H186 C206 0.953 . S
H187 C207 0.945 . S
H188 C209 0.952 1_655 S
H189 C210 0.949 . S
H190 C212 0.950 . S
H191 C213 0.948 . S
H192 C215 0.950 1_655 S
H193 C180 0.947 1_655 S
H194 C182 0.952 . S
H195 C183 0.949 1_554 S
N196 C199 1.382 . S
N196 C201 1.363 . S
N197 C199 1.371 . S
N197 C200 1.372 . S
N198 C200 1.361 . S
N198 C201 1.377 . S
C199 N196 1.382 . S
C199 N197 1.371 . S
C199 C202 1.480 . S
C200 N197 1.372 . S
C200 N198 1.361 . S
C200 C208 1.457 . S
C201 N196 1.363 . S
C201 N198 1.377 . S
C201 C214 1.479 . S
C202 C199 1.480 . S
C202 C203 1.383 . S
C202 C207 1.385 . S
C203 H184 0.947 . S
C203 C202 1.383 . S
C203 C204 1.388 1_455 S
C204 H185 0.946 . S
C204 C203 1.388 1_655 S
C204 C205 1.384 1_655 S
C205 C204 1.384 1_455 S
C205 C206 1.377 . S
C206 H186 0.953 . S
C206 C205 1.377 . S
C206 C207 1.369 . S
C207 H187 0.945 . S
C207 C202 1.385 . S
C207 C206 1.369 . S
C208 C200 1.457 . S
C208 C209 1.372 . S
C208 C213 1.364 . S
C209 H188 0.952 1_455 S
C209 C208 1.372 . S
C209 C210 1.389 1_455 S
C210 H189 0.949 . S
C210 C209 1.389 1_655 S
C210 C211 1.387 1_655 S
C211 C210 1.387 1_455 S
C211 C212 1.372 . S
C212 H190 0.950 . S
C212 C211 1.372 . S
C212 C213 1.379 . S
C213 H191 0.948 . S
C213 C208 1.364 . S
C213 C212 1.379 . S
C214 C183 1.383 1_554 S
C214 C201 1.479 . S
C214 C215 1.400 . S
C215 C180 1.382 1_554 S
C215 H192 0.950 1_455 S
C215 C214 1.400 . S
C216 C217 1.384 . S
C216 H229 0.947 . S
C216 C251 1.382 1_556 S
C217 C216 1.384 . S
C217 C218 1.378 . S
C218 C217 1.378 . S
C218 C219 1.378 . S
C218 H230 0.952 . S
C219 C218 1.378 . S
C219 H231 0.950 1_556 S
C219 C250 1.383 1_556 S
H220 C239 0.947 . S
H221 C240 0.946 . S
H222 C242 0.953 . S
H223 C243 0.945 . S
H224 C245 0.952 . S
H225 C246 0.949 . S
H226 C248 0.950 . S
H227 C249 0.948 . S
H228 C251 0.951 . S
H229 C216 0.947 . S
H230 C218 0.952 . S
H231 C219 0.950 1_554 S
N232 C235 1.382 . S
N232 C237 1.363 . S
N233 C235 1.371 . S
N233 C236 1.372 . S
N234 C236 1.361 . S
N234 C237 1.377 . S
C235 N232 1.382 . S
C235 N233 1.371 . S
C235 C238 1.480 . S
C236 N233 1.372 . S
C236 N234 1.361 . S
C236 C244 1.457 . S
C237 N232 1.363 . S
C237 N234 1.377 . S
C237 C250 1.479 . S
C238 C235 1.480 . S
C238 C239 1.383 . S
C238 C243 1.385 . S
C239 H220 0.947 . S
C239 C238 1.383 . S
C239 C240 1.388 . S
C240 H221 0.946 . S
C240 C239 1.388 . S
C240 C241 1.384 . S
C241 C240 1.384 . S
C241 C242 1.377 . S
C242 H222 0.953 . S
C242 C241 1.377 . S
C242 C243 1.369 . S
C243 H223 0.945 . S
C243 C238 1.385 . S
C243 C242 1.369 . S
C244 C236 1.457 . S
C244 C245 1.372 . S
C244 C249 1.364 . S
C245 H224 0.952 . S
C245 C244 1.372 . S
C245 C246 1.389 . S
C246 H225 0.949 . S
C246 C245 1.389 . S
C246 C247 1.387 . S
C247 C246 1.387 . S
C247 C248 1.372 . S
C248 H226 0.950 . S
C248 C247 1.372 . S
C248 C249 1.379 . S
C249 H227 0.948 . S
C249 C244 1.364 . S
C249 C248 1.379 . S
C250 C219 1.383 1_554 S
C250 C237 1.479 . S
C250 C251 1.398 . S
C251 C216 1.382 1_554 S
C251 H228 0.951 . S
C251 C250 1.398 . S
C252 C253 1.384 . S
C252 H265 0.947 . S
C252 C287 1.382 . S
C253 C252 1.384 . S
C253 C254 1.378 . S
C254 C253 1.378 . S
C254 C255 1.378 . S
C254 H266 0.952 . S
C255 C254 1.378 . S
C255 H267 0.950 . S
C255 C286 1.383 . S
H256 C275 0.947 . S
H257 C276 0.946 . S
H258 C278 0.953 . S
H259 C279 0.945 . S
H260 C281 0.952 1_554 S
H261 C282 0.949 . S
H262 C284 0.950 . S
H263 C285 0.948 . S
H264 C287 0.951 . S
H265 C252 0.947 . S
H266 C254 0.952 . S
H267 C255 0.950 . S
N268 C271 1.382 . S
N268 C273 1.363 . S
N269 C271 1.371 . S
N269 C272 1.372 . S
N270 C272 1.361 . S
N270 C273 1.377 . S
C271 N268 1.382 . S
C271 N269 1.371 . S
C271 C274 1.480 . S
C272 N269 1.372 . S
C272 N270 1.361 . S
C272 C280 1.457 . S
C273 N268 1.363 . S
C273 N270 1.377 . S
C273 C286 1.479 . S
C274 C271 1.480 . S
C274 C275 1.383 . S
C274 C279 1.385 . S
C275 H256 0.947 . S
C275 C274 1.383 . S
C275 C276 1.388 . S
C276 H257 0.946 . S
C276 C275 1.388 . S
C276 C277 1.384 . S
C277 C276 1.384 . S
C277 C278 1.377 . S
C278 H258 0.953 . S
C278 C277 1.377 . S
C278 C279 1.369 . S
C279 H259 0.945 . S
C279 C274 1.385 . S
C279 C278 1.369 . S
C280 C272 1.457 . S
C280 C281 1.372 1_554 S
C280 C285 1.364 . S
C281 H260 0.952 1_556 S
C281 C280 1.372 1_556 S
C281 C282 1.389 . S
C282 H261 0.949 . S
C282 C281 1.389 . S
C282 C283 1.387 . S
C283 C282 1.387 . S
C283 C284 1.372 . S
C284 H262 0.950 . S
C284 C283 1.372 . S
C284 C285 1.379 1_556 S
C285 H263 0.948 . S
C285 C280 1.364 . S
C285 C284 1.379 1_554 S
C286 C255 1.383 . S
C286 C273 1.479 . S
C286 C287 1.398 . S
C287 C252 1.382 . S
C287 H264 0.951 . S
C287 C286 1.398 . S
O288 Mg289 1.990 . S
O288 C302 1.253 . S
Mg289 O288 1.990 . S
Mg289 O292 2.180 1_565 S
Mg289 O293 2.117 . S
Mg289 O307 2.030 . S
O290 Mg291 2.072 1_465 S
O290 C302 1.260 . S
Mg291 O290 2.072 1_645 S
Mg291 O292 2.099 1_655 S
Mg291 O294 2.079 . S
Mg291 O295 2.072 1_655 S
Mg291 O297 2.099 . S
Mg291 O308 2.079 1_545 S
O292 Mg289 2.180 1_545 S
O292 Mg291 2.099 1_455 S
O292 C303 1.279 . S
O293 Mg289 2.117 . S
O293 C303 1.250 1_565 S
O294 Mg291 2.079 . S
O294 C304 1.264 . S
O295 Mg291 2.072 1_455 S
O295 C305 1.260 . S
Mg296 O297 2.180 . S
Mg296 O298 2.030 . S
Mg296 O299 1.990 . S
Mg296 O300 2.117 . S
O297 Mg291 2.099 . S
O297 Mg296 2.180 . S
O297 C306 1.279 . S
O298 Mg296 2.030 . S
O298 C304 1.248 . S
O299 Mg296 1.990 . S
O299 C305 1.253 1_655 S
O300 Mg296 2.117 . S
O300 C306 1.250 . S
C301 O307 1.248 1_655 S
C301 O308 1.264 . S
C302 O288 1.253 . S
C302 O290 1.260 . S
C303 O292 1.279 . S
C303 O293 1.250 1_545 S
C304 O294 1.264 . S
C304 O298 1.248 . S
C305 O295 1.260 . S
C305 O299 1.253 1_455 S
C306 O297 1.279 . S
C306 O300 1.250 . S
O307 Mg289 2.030 . S
O307 C301 1.248 1_455 S
O308 Mg291 2.079 1_565 S
O308 C301 1.264 . S
O309 Mg310 1.990 1_545 S
O309 C323 1.253 . S
Mg310 O309 1.990 1_565 S
Mg310 O313 2.180 . S
Mg310 O314 2.117 . S
Mg310 O328 2.030 1_565 S
O311 Mg312 2.072 . S
O311 C323 1.260 . S
Mg312 O311 2.072 . S
Mg312 O313 2.099 1_545 S
Mg312 O315 2.079 1_545 S
Mg312 O316 2.072 1_545 S
Mg312 O318 2.099 . S
Mg312 O329 2.079 . S
O313 Mg310 2.180 . S
O313 Mg312 2.099 1_565 S
O313 C324 1.279 . S
O314 Mg310 2.117 . S
O314 C324 1.250 . S
O315 Mg312 2.079 1_565 S
O315 C325 1.264 . S
O316 Mg312 2.072 1_565 S
O316 C326 1.260 1_565 S
Mg317 O318 2.180 . S
Mg317 O319 2.030 1_545 S
Mg317 O320 1.990 . S
Mg317 O321 2.117 . S
O318 Mg312 2.099 . S
O318 Mg317 2.180 . S
O318 C327 1.279 . S
O319 Mg317 2.030 1_565 S
O319 C325 1.248 . S
O320 Mg317 1.990 . S
O320 C326 1.253 . S
O321 Mg317 2.117 . S
O321 C327 1.250 . S
C322 O328 1.248 . S
C322 O329 1.264 . S
C323 O309 1.253 . S
C323 O311 1.260 . S
C324 O313 1.279 . S
C324 O314 1.250 . S
C325 O315 1.264 . S
C325 O319 1.248 . S
C326 O316 1.260 1_545 S
C326 O320 1.253 . S
C327 O318 1.279 . S
C327 O321 1.250 . S
O328 Mg310 2.030 1_545 S
O328 C322 1.248 . S
O329 Mg312 2.079 . S
O329 C322 1.264 . S
O330 Mg331 1.990 . S
O330 C344 1.253 . S
Mg331 O330 1.990 . S
Mg331 O334 2.180 . S
Mg331 O335 2.117 . S
Mg331 O349 2.030 . S
O332 Mg333 2.072 . S
O332 C344 1.260 . S
Mg333 O332 2.072 . S
Mg333 O334 2.099 . S
Mg333 O336 2.079 . S
Mg333 O337 2.072 . S
Mg333 O339 2.099 . S
Mg333 O350 2.079 . S
O334 Mg331 2.180 . S
O334 Mg333 2.099 . S
O334 C345 1.279 . S
O335 Mg331 2.117 . S
O335 C345 1.250 . S
O336 Mg333 2.079 . S
O336 C346 1.264 . S
O337 Mg333 2.072 . S
O337 C347 1.260 . S
Mg338 O339 2.180 . S
Mg338 O340 2.030 . S
Mg338 O341 1.990 . S
Mg338 O342 2.117 . S
O339 Mg333 2.099 . S
O339 Mg338 2.180 . S
O339 C348 1.279 . S
O340 Mg338 2.030 . S
O340 C346 1.248 . S
O341 Mg338 1.990 . S
O341 C347 1.253 . S
O342 Mg338 2.117 . S
O342 C348 1.250 . S
C343 O349 1.248 . S
C343 O350 1.264 . S
C344 O330 1.253 . S
C344 O332 1.260 . S
C345 O334 1.279 . S
C345 O335 1.250 . S
C346 O336 1.264 . S
C346 O340 1.248 . S
C347 O337 1.260 . S
C347 O341 1.253 . S
C348 O339 1.279 . S
C348 O342 1.250 . S
O349 Mg331 2.030 . S
O349 C343 1.248 . S
O350 Mg333 2.079 . S
O350 C343 1.264 . S
O351 Mg352 1.990 . S
O351 C365 1.253 . S
Mg352 O351 1.990 . S
Mg352 O355 2.180 . S
Mg352 O356 2.117 . S
Mg352 O370 2.030 . S
O353 Mg354 2.072 1_655 S
O353 C365 1.260 . S
Mg354 O353 2.072 1_455 S
Mg354 O355 2.099 1_455 S
Mg354 O357 2.079 . S
Mg354 O358 2.072 . S
Mg354 O360 2.099 . S
Mg354 O371 2.079 1_455 S
O355 Mg352 2.180 . S
O355 Mg354 2.099 1_655 S
O355 C366 1.279 . S
O356 Mg352 2.117 . S
O356 C366 1.250 . S
O357 Mg354 2.079 . S
O357 C367 1.264 . S
O358 Mg354 2.072 . S
O358 C368 1.260 . S
Mg359 O360 2.180 . S
Mg359 O361 2.030 . S
Mg359 O362 1.990 . S
Mg359 O363 2.117 . S
O360 Mg354 2.099 . S
O360 Mg359 2.180 . S
O360 C369 1.279 . S
O361 Mg359 2.030 . S
O361 C367 1.248 . S
O362 Mg359 1.990 . S
O362 C368 1.253 . S
O363 Mg359 2.117 . S
O363 C369 1.250 . S
C364 O370 1.248 . S
C364 O371 1.264 . S
C365 O351 1.253 . S
C365 O353 1.260 . S
C366 O355 1.279 . S
C366 O356 1.250 . S
C367 O357 1.264 . S
C367 O361 1.248 . S
C368 O358 1.260 . S
C368 O362 1.253 . S
C369 O360 1.279 . S
C369 O363 1.250 . S
O370 Mg352 2.030 . S
O370 C364 1.248 . S
O371 Mg354 2.079 1_655 S
O371 C364 1.264 . S
C241 C303 3.873 . S
C327 C277 2.814 . S
C348 C169 3.777 . S
C366 C205 2.830 1_655 S
C306 C97 3.288 1_545 S
C133 C324 2.225 1_554 S
C25 C345 3.196 . S
C61 C369 2.142 . S
C304 C211 1.537 1_655 S
C322 C247 3.048 . S
C343 C253 1.307 . S
C175 C367 3.115 . S
C67 C302 1.444 . S
C326 C103 2.882 1_545 S
C347 C109 1.429 . S
C31 C365 2.944 . S
C181 C305 3.347 . S
C217 C323 3.684 . S
C344 C283 3.273 . S
C368 C145 3.687 . S
C37 C301 3.146 1_455 S
C325 C73 3.400 . S
C346 C139 3.044 . S
C1 C364 3.407 . S
