# Generated by pormake.
# Topology apo, (3,6)-cn, num edge types: 1
# Building blocks:
#     Node 0, Type 0, BuildingBlock: MIDCAF_clean_linker_0, # of connection points: 3
#     Node 1, Type 0, BuildingBlock: MIDCAF_clean_linker_0, # of connection points: 3
#     Node 2, Type 0, BuildingBlock: MIDCAF_clean_linker_0, # of connection points: 3
#     Node 3, Type 0, BuildingBlock: MIDCAF_clean_linker_0, # of connection points: 3
#     Node 4, Type 0, BuildingBlock: MIDCAF_clean_linker_0, # of connection points: 3
#     Node 5, Type 0, BuildingBlock: MIDCAF_clean_linker_0, # of connection points: 3
#     Node 6, Type 0, BuildingBlock: MIDCAF_clean_linker_0, # of connection points: 3
#     Node 7, Type 0, BuildingBlock: MIDCAF_clean_linker_0, # of connection points: 3
#     Node 8, Type 1, BuildingBlock: KUMJIN_clean_sbu_1, # of connection points: 6
#     Node 9, Type 1, BuildingBlock: KUMJIN_clean_sbu_1, # of connection points: 6
#     Node 10, Type 1, BuildingBlock: KUMJIN_clean_sbu_1, # of connection points: 6
#     Node 11, Type 1, BuildingBlock: KUMJIN_clean_sbu_1, # of connection points: 6
#     Edge 12, Type (0, 1), BuildingBlock: AJUNOK_clean_linker_0, # of connection points: 2
#     Edge 13, Type (0, 1), BuildingBlock: AJUNOK_clean_linker_0, # of connection points: 2
#     Edge 14, Type (0, 1), BuildingBlock: AJUNOK_clean_linker_0, # of connection points: 2
#     Edge 15, Type (0, 1), BuildingBlock: AJUNOK_clean_linker_0, # of connection points: 2
#     Edge 16, Type (0, 1), BuildingBlock: AJUNOK_clean_linker_0, # of connection points: 2
#     Edge 17, Type (0, 1), BuildingBlock: AJUNOK_clean_linker_0, # of connection points: 2
#     Edge 18, Type (0, 1), BuildingBlock: AJUNOK_clean_linker_0, # of connection points: 2
#     Edge 19, Type (0, 1), BuildingBlock: AJUNOK_clean_linker_0, # of connection points: 2
#     Edge 20, Type (0, 1), BuildingBlock: AJUNOK_clean_linker_0, # of connection points: 2
#     Edge 21, Type (0, 1), BuildingBlock: AJUNOK_clean_linker_0, # of connection points: 2
#     Edge 22, Type (0, 1), BuildingBlock: AJUNOK_clean_linker_0, # of connection points: 2
#     Edge 23, Type (0, 1), BuildingBlock: AJUNOK_clean_linker_0, # of connection points: 2
#     Edge 24, Type (0, 1), BuildingBlock: AJUNOK_clean_linker_0, # of connection points: 2
#     Edge 25, Type (0, 1), BuildingBlock: AJUNOK_clean_linker_0, # of connection points: 2
#     Edge 26, Type (0, 1), BuildingBlock: AJUNOK_clean_linker_0, # of connection points: 2
#     Edge 27, Type (0, 1), BuildingBlock: AJUNOK_clean_linker_0, # of connection points: 2
#     Edge 28, Type (0, 1), BuildingBlock: AJUNOK_clean_linker_0, # of connection points: 2
#     Edge 29, Type (0, 1), BuildingBlock: AJUNOK_clean_linker_0, # of connection points: 2
#     Edge 30, Type (0, 1), BuildingBlock: AJUNOK_clean_linker_0, # of connection points: 2
#     Edge 31, Type (0, 1), BuildingBlock: AJUNOK_clean_linker_0, # of connection points: 2
#     Edge 32, Type (0, 1), BuildingBlock: AJUNOK_clean_linker_0, # of connection points: 2
#     Edge 33, Type (0, 1), BuildingBlock: AJUNOK_clean_linker_0, # of connection points: 2
#     Edge 34, Type (0, 1), BuildingBlock: AJUNOK_clean_linker_0, # of connection points: 2
#     Edge 35, Type (0, 1), BuildingBlock: AJUNOK_clean_linker_0, # of connection points: 2
# Relax obj value: 0.008
# Max RMSD: 0.109
# Mean RMSD: 0.085
data_MOF--net-apo--node1-KUMJIN_clean_sbu_1--node2-MIDCAF_clean_linker_0--edge1-AJUNOK_clean_linker_0
_symmetry_space_group_name_H-M    P1
_symmetry_Int_Tables_number       1
_symmetry_cell_setting            triclinic
loop_
_symmetry_equiv_pos_as_xyz
'x, y, z'
_cell_length_a     22.97731
_cell_length_b     40.49159
_cell_length_c     51.651313
_cell_angle_alpha  90.2371
_cell_angle_beta   89.918932
_cell_angle_gamma 90.100146
loop_
_atom_site_label
_atom_site_type_symbol
_atom_site_fract_x
_atom_site_fract_y
_atom_site_fract_z
_atom_type_partial_charge
C0 C 0.34304 0.40274 0.50013 0.0
C1 C 0.30901 0.38042 0.51452 0.0
C2 C 0.26783 0.36093 0.50133 0.0
C3 C 0.26121 0.36331 0.47451 0.0
H4 H 0.1772 0.31761 0.41181 0.0
H5 H 0.12707 0.27318 0.3883 0.0
H6 H 0.21724 0.30043 0.31827 0.0
H7 H 0.26682 0.34496 0.3414 0.0
H8 H 0.33135 0.41249 0.33915 0.0
H9 H 0.37087 0.45723 0.31304 0.0
H10 H 0.38357 0.51893 0.38104 0.0
H11 H 0.34408 0.47397 0.40758 0.0
H12 H 0.36345 0.42249 0.4627 0.0
H13 H 0.37594 0.41769 0.50956 0.0
H14 H 0.24038 0.34378 0.51181 0.0
H15 H 0.22913 0.3477 0.46516 0.0
N16 N 0.26064 0.36208 0.41863 0.0
N17 N 0.2809 0.38717 0.37888 0.0
N18 N 0.31347 0.41185 0.41743 0.0
C19 C 0.25636 0.36209 0.39241 0.0
C20 C 0.30915 0.41224 0.39111 0.0
C21 C 0.2894 0.38671 0.43134 0.0
C22 C 0.22597 0.33493 0.3785 0.0
C23 C 0.18632 0.31416 0.3914 0.0
C24 C 0.15738 0.28887 0.37797 0.0
C25 C 0.16824 0.28359 0.35151 0.0
C26 C 0.2082 0.30405 0.33869 0.0
C27 C 0.23638 0.3296 0.35195 0.0
C28 C 0.33459 0.43953 0.37556 0.0
C29 C 0.34252 0.43551 0.34869 0.0
C30 C 0.36536 0.46107 0.33368 0.0
C31 C 0.38039 0.49139 0.34508 0.0
C32 C 0.37215 0.49573 0.37184 0.0
C33 C 0.34991 0.46994 0.387 0.0
C34 C 0.29535 0.38544 0.46003 0.0
C35 C 0.33605 0.40536 0.47322 0.0
C36 C 0.17133 0.10044 1.00351 0.0
C37 C 0.20634 0.12189 0.01831 0.0
C38 C 0.24712 0.14191 1.00543 0.0
C39 C 0.25255 0.14075 0.97849 0.0
H40 H 0.33402 0.18858 0.91392 0.0
H41 H 0.3812 0.2332 0.88946 0.0
H42 H 0.27546 0.2098 0.82299 0.0
H43 H 0.22912 0.1649 0.84691 0.0
H44 H 0.19103 0.09067 0.84211 0.0
H45 H 0.15378 0.04537 0.81588 0.0
H46 H 0.12911 0.98665 0.8845 0.0
H47 H 0.16675 0.03212 0.9112 0.0
H48 H 0.14933 0.08236 0.9657 0.0
H49 H 0.13853 0.08524 0.0127 0.0
H50 H 0.27525 0.15845 0.01622 0.0
H51 H 0.2844 0.15662 0.96932 0.0
N52 N 0.24835 0.14459 0.92248 0.0
N53 N 0.22926 0.1193 0.88254 0.0
N54 N 0.20094 0.09308 0.92093 0.0
C55 C 0.25136 0.14503 0.89621 0.0
C56 C 0.20443 0.09313 0.89461 0.0
C57 C 0.22276 0.11881 0.935 0.0
C58 C 0.27806 0.17314 0.88231 0.0
C59 C 0.32062 0.19309 0.89415 0.0
C60 C 0.34767 0.21847 0.88023 0.0
C61 C 0.3316 0.22465 0.85451 0.0
C62 C 0.28827 0.20534 0.84285 0.0
C63 C 0.26204 0.17965 0.85654 0.0
C64 C 0.18161 0.0652 0.87889 0.0
C65 C 0.17784 0.06818 0.85179 0.0
C66 C 0.15635 0.04229 0.83668 0.0
C67 C 0.13826 0.01274 0.84824 0.0
C68 C 0.14292 0.00928 0.8752 0.0
C69 C 0.16408 0.03537 0.89044 0.0
C70 C 0.21775 0.11926 0.96368 0.0
C71 C 0.1773 0.09894 0.97652 0.0
C72 C 0.85577 0.11968 0.51641 0.0
C73 C 0.83747 0.149 0.50449 0.0
C74 C 0.8082 0.17281 0.51945 0.0
C75 C 0.79729 0.16751 0.54569 0.0
H76 H 0.69054 0.20026 0.60806 0.0
H77 H 0.63786 0.24102 0.63392 0.0
H78 H 0.7192 0.2037 0.70324 0.0
H79 H 0.76941 0.16194 0.6776 0.0
H80 H 0.76466 0.07389 0.6674 0.0
H81 H 0.79708 0.02534 0.69081 0.0
H82 H 0.9311 0.00893 0.63346 0.0
H83 H 0.89695 0.05696 0.60932 0.0
H84 H 0.85971 0.09151 0.55139 0.0
H85 H 0.87907 0.10107 0.50543 0.0
H86 H 0.79308 0.19553 0.51074 0.0
H87 H 0.77443 0.1865 0.55644 0.0
N88 N 0.77498 0.1564 0.59975 0.0
N89 N 0.78185 0.1238 0.63694 0.0
N90 N 0.82123 0.10474 0.59771 0.0
C91 C 0.76427 0.15207 0.62538 0.0
C92 C 0.81008 0.09999 0.6233 0.0
C93 C 0.80361 0.13292 0.58575 0.0
C94 C 0.73405 0.17782 0.64077 0.0
C95 C 0.69736 0.20089 0.62881 0.0
C96 C 0.66755 0.22445 0.64363 0.0
C97 C 0.67484 0.22594 0.67066 0.0
C98 C 0.71217 0.20308 0.68251 0.0
C99 C 0.74109 0.17919 0.66778 0.0
C100 C 0.82842 0.06938 0.63654 0.0
C101 C 0.80077 0.05981 0.65962 0.0
C102 C 0.8194 0.032 0.67309 0.0
C103 C 0.86661 0.01322 0.66401 0.0
C104 C 0.89381 0.02244 0.6407 0.0
C105 C 0.87453 0.05009 0.62696 0.0
C106 C 0.81545 0.13822 0.55776 0.0
C107 C 0.8449 0.11433 0.54278 0.0
C108 C 0.67608 0.39174 0.01837 0.0
C109 C 0.68593 0.3619 1.0051 0.0
C110 C 0.69714 0.33324 0.01947 0.0
C111 C 0.70079 0.33462 0.04645 0.0
H112 H 0.79615 0.2918 0.10773 0.0
H113 H 0.85128 0.25067 0.13184 0.0
H114 H 0.77526 0.28612 0.20322 0.0
H115 H 0.72167 0.32789 0.17933 0.0
H116 H 0.64654 0.39871 0.17704 0.0
H117 H 0.62299 0.44807 0.20197 0.0
H118 H 0.67793 0.50893 0.13783 0.0
H119 H 0.69771 0.45925 0.11226 0.0
H120 H 0.67271 0.41667 0.05497 0.0
H121 H 0.6674 0.41423 1.00777 0.0
H122 H 0.70348 0.30972 0.00982 0.0
H123 H 0.71023 0.31207 0.05682 0.0
N124 N 0.72114 0.33995 0.10142 0.0
N125 N 0.71057 0.36846 0.14069 0.0
N126 N 0.68378 0.39391 0.10177 0.0
C127 C 0.72707 0.34092 0.12758 0.0
C128 C 0.68917 0.39505 0.12798 0.0
C129 C 0.69899 0.36619 0.08837 0.0
C130 C 0.75487 0.31333 0.14162 0.0
C131 C 0.79052 0.29051 0.12852 0.0
C132 C 0.82191 0.2668 0.14232 0.0
C133 C 0.8176 0.26516 0.16943 0.0
C134 C 0.78002 0.28706 0.18236 0.0
C135 C 0.7492 0.31094 0.16865 0.0
C136 C 0.67393 0.42517 0.14272 0.0
C137 C 0.65354 0.42267 0.16828 0.0
C138 C 0.64085 0.45101 0.18271 0.0
C139 C 0.65001 0.4826 0.17221 0.0
C140 C 0.6703 0.48502 0.14654 0.0
C141 C 0.6816 0.45661 0.13187 0.0
C142 C 0.69272 0.36466 0.05977 0.0
C143 C 0.6794 0.39313 0.04541 0.0
C144 C 0.65976 0.58819 0.5192 0.0
C145 C 0.67451 0.61444 0.50282 0.0
C146 C 0.70145 0.64259 0.51354 0.0
C147 C 0.71392 0.64416 0.54012 0.0
H148 H 0.77863 0.70549 0.60425 0.0
H149 H 0.83019 0.74976 0.62753 0.0
H150 H 0.86203 0.68339 0.69106 0.0
H151 H 0.81166 0.63947 0.66817 0.0
H152 H 0.75187 0.56947 0.67099 0.0
H153 H 0.71542 0.52393 0.69765 0.0
H154 H 0.57891 0.50561 0.6422 0.0
H155 H 0.61552 0.55055 0.61518 0.0
H156 H 0.65999 0.56875 0.55737 0.0
H157 H 0.63953 0.56604 0.51153 0.0
H158 H 0.71247 0.66347 0.50144 0.0
H159 H 0.73483 0.66608 0.54782 0.0
N160 N 0.74409 0.64318 0.5957 0.0
N161 N 0.73905 0.61608 0.63582 0.0
N162 N 0.69452 0.59265 0.59953 0.0
C163 C 0.75737 0.64214 0.62144 0.0
C164 C 0.70743 0.59138 0.62505 0.0
C165 C 0.71282 0.61819 0.5846 0.0
C166 C 0.79097 0.66889 0.63429 0.0
C167 C 0.79722 0.7003 0.62305 0.0
C168 C 0.82639 0.72564 0.63638 0.0
C169 C 0.85055 0.7198 0.66093 0.0
C170 C 0.84474 0.6884 0.67197 0.0
C171 C 0.8154 0.66329 0.65885 0.0
C172 C 0.68651 0.56359 0.641 0.0
C173 C 0.71422 0.55566 0.66443 0.0
C174 C 0.6937 0.52961 0.67961 0.0
C175 C 0.64464 0.51154 0.67179 0.0
C176 C 0.61689 0.51936 0.64847 0.0
C177 C 0.63797 0.54496 0.63306 0.0
C178 C 0.69934 0.61767 0.55646 0.0
C179 C 0.67185 0.58978 0.54559 0.0
C180 C 0.84608 0.90443 0.01143 0.0
C181 C 0.82369 0.87789 0.9969 0.0
C182 C 0.79774 0.85135 0.01007 0.0
C183 C 0.79257 0.85182 0.03708 0.0
H184 H 0.78213 0.79425 0.12025 0.0
H185 H 0.73315 0.75278 0.14701 0.0
H186 H 0.60671 0.82601 0.17052 0.0
H187 H 0.65901 0.86774 0.14572 0.0
H188 H 0.77202 0.93013 0.16804 0.0
H189 H 0.80934 0.97573 0.19414 0.0
H190 H 0.9212 0.00517 0.13116 0.0
H191 H 0.88431 0.95937 0.10485 0.0
H192 H 0.85724 0.92627 0.04887 0.0
H193 H 0.86527 0.92557 1.00186 0.0
H194 H 0.7802 0.83052 0.99939 0.0
H195 H 0.77106 0.83126 0.04644 0.0
N196 N 0.77175 0.85683 0.09232 0.0
N197 N 0.77432 0.88746 0.13098 0.0
N198 N 0.8189 0.90836 0.09363 0.0
C199 C 0.75776 0.86 0.11778 0.0
C200 C 0.80548 0.91163 0.11918 0.0
C201 C 0.80187 0.88114 0.07998 0.0
C202 C 0.72455 0.8341 0.13127 0.0
C203 C 0.74382 0.80126 0.13121 0.0
C204 C 0.71564 0.77758 0.14648 0.0
C205 C 0.66683 0.78617 0.16161 0.0
C206 C 0.64572 0.81875 0.16023 0.0
C207 C 0.67506 0.84259 0.1457 0.0
C208 C 0.82549 0.94079 0.13435 0.0
C209 C 0.80442 0.94631 0.15961 0.0
C210 C 0.82552 0.97254 0.17458 0.0
C211 C 0.86855 0.99372 0.16477 0.0
C212 C 0.88862 0.98887 0.13932 0.0
C213 C 0.86721 0.96273 0.12423 0.0
C214 C 0.81296 0.87896 0.0516 0.0
C215 C 0.84093 0.90493 0.03844 0.0
C216 C 0.16845 0.88351 0.50716 0.0
C217 C 0.18717 0.85392 0.51852 0.0
C218 C 0.21592 0.8305 0.50298 0.0
C219 C 0.22436 0.83604 0.47656 0.0
H220 H 0.32249 0.80432 0.41033 0.0
H221 H 0.37616 0.76598 0.38252 0.0
H222 H 0.27867 0.79981 0.31633 0.0
H223 H 0.22697 0.83895 0.34378 0.0
H224 H 0.13655 0.90256 0.35253 0.0
H225 H 0.10376 0.95079 0.32871 0.0
H226 H 0.1663 0.01409 0.39032 0.0
H227 H 0.1955 0.96533 0.41493 0.0
H228 H 0.16094 0.91194 0.47243 0.0
H229 H 0.14649 0.90209 0.51872 0.0
H230 H 0.23223 0.80782 0.51131 0.0
H231 H 0.24619 0.81717 0.46527 0.0
N232 N 0.23751 0.84664 0.42168 0.0
N233 N 0.21766 0.87702 0.38427 0.0
N234 N 0.18881 0.89754 0.42485 0.0
C235 C 0.24102 0.84996 0.39554 0.0
C236 C 0.19196 0.90094 0.3987 0.0
C237 C 0.21097 0.87016 0.4365 0.0
C238 C 0.27086 0.82493 0.37926 0.0
C239 C 0.3125 0.80352 0.38985 0.0
C240 C 0.34322 0.78155 0.37391 0.0
C241 C 0.33256 0.78031 0.34709 0.0
C242 C 0.28945 0.80092 0.33671 0.0
C243 C 0.25939 0.82317 0.35254 0.0
C244 C 0.16828 0.93028 0.38559 0.0
C245 C 0.14244 0.92679 0.36113 0.0
C246 C 0.12408 0.95446 0.34741 0.0
C247 C 0.13234 0.98642 0.35753 0.0
C248 C 0.15784 0.98988 0.38219 0.0
C249 C 0.17489 0.962 0.39625 0.0
C250 C 0.20441 0.86526 0.46492 0.0
C251 C 0.17674 0.88908 0.48062 0.0
C252 C 0.32902 0.61824 1.00696 0.0
C253 C 0.28765 0.63709 0.0207 0.0
C254 C 0.24203 0.65179 1.00678 0.0
C255 C 0.23825 0.64824 0.97993 0.0
H256 H 0.16833 0.6966 0.91505 0.0
H257 H 0.11873 0.7385 0.88931 0.0
H258 H 0.21095 0.70525 0.82111 0.0
H259 H 0.25853 0.66268 0.84647 0.0
H260 H 0.26055 0.57832 0.85008 0.0
H261 H 0.29545 0.53154 0.82507 0.0
H262 H 0.40925 0.50433 0.88791 0.0
H263 H 0.37255 0.55087 0.91358 0.0
H264 H 0.35733 0.59974 0.97 0.0
H265 H 0.36566 0.60727 0.01686 0.0
H266 H 0.20894 0.66611 0.01667 0.0
H267 H 0.20263 0.66012 0.96991 0.0
N268 N 0.24905 0.65118 0.924 0.0
N269 N 0.2668 0.62269 0.88533 0.0
N270 N 0.29787 0.60011 0.92471 0.0
C271 C 0.24506 0.64945 0.89782 0.0
C272 C 0.29287 0.59784 0.89847 0.0
C273 C 0.27565 0.62676 0.9376 0.0
C274 C 0.21713 0.67617 0.8828 0.0
C275 C 0.17825 0.6984 0.8946 0.0
C276 C 0.15015 0.72257 0.87988 0.0
C277 C 0.16116 0.72535 0.85317 0.0
C278 C 0.201 0.70354 0.84157 0.0
C279 C 0.22838 0.67916 0.85615 0.0
C280 C 0.3139 0.56849 0.88388 0.0
C281 C 0.29288 0.56238 0.85873 0.0
C282 C 0.31297 0.53553 0.84429 0.0
C283 C 0.35501 0.51411 0.85445 0.0
C284 C 0.37592 0.51997 0.87969 0.0
C285 C 0.35522 0.54676 0.89435 0.0
C286 C 0.27944 0.6294 0.96621 0.0
C287 C 0.32455 0.61411 0.98005 0.0
Eu288 Eu 0.08062 0.13385 0.23753 0.0
C289 C 0.81424 0.11459 0.26696 0.0
N290 N 0.84526 0.14315 0.26557 0.0
C291 C 0.76708 0.16943 0.24302 0.0
C292 C 0.75831 0.11227 0.25587 0.0
C293 C 0.82232 0.17057 0.25428 0.0
C294 C 0.73498 0.14013 0.24374 0.0
C295 C 0.80859 0.05709 0.27991 0.0
C296 C 0.8394 0.08722 0.27872 0.0
C297 C 0.75282 0.05475 0.26895 0.0
C298 C 0.72779 0.08224 0.25696 0.0
Eu299 Eu 0.93831 0.14258 0.28466 0.0
N300 N 0.89426 0.08989 0.28855 0.0
C301 C 0.8347 0.03016 0.29214 0.0
C302 C 0.91862 0.06413 0.30151 0.0
C303 C 0.88969 0.03382 0.30321 0.0
H304 H 0.84624 0.19352 0.2544 0.0
H305 H 0.90962 0.01339 0.31331 0.0
H306 H 0.1795 0.08449 0.26447 0.0
H307 H 0.09522 0.26514 0.21207 0.0
H308 H 0.95959 0.06685 0.31114 0.0
H309 H 0.81243 0.00662 0.29349 0.0
H310 H 0.05022 0.21037 0.21333 0.0
H311 H 0.74919 0.1912 0.23392 0.0
H312 H 0.72866 0.03177 0.26964 0.0
H313 H 0.68482 0.07997 0.24851 0.0
H314 H 0.27965 0.0882 0.28174 0.0
H315 H 0.6922 0.1393 0.23495 0.0
H316 H 0.19371 0.27367 0.23008 0.0
N317 N 0.17576 0.13508 0.2542 0.0
C318 C 0.20397 0.16458 0.25314 0.0
C319 C 0.25881 0.10987 0.27383 0.0
C320 C 0.26122 0.16781 0.26266 0.0
C321 C 0.20206 0.10786 0.26424 0.0
C322 C 0.28854 0.13998 0.27305 0.0
N323 N 0.11927 0.18809 0.23437 0.0
C324 C 0.09162 0.21371 0.22253 0.0
C325 C 0.20321 0.22276 0.24197 0.0
C326 C 0.17499 0.19181 0.243 0.0
C327 C 0.17352 0.24951 0.23123 0.0
C328 C 0.11778 0.24485 0.2212 0.0
H329 H 0.33248 0.14147 0.28056 0.0
H330 H 0.33299 0.20163 0.26906 0.0
H331 H 0.28234 0.24967 0.25091 0.0
O332 O 0.07962 0.13397 0.19518 0.0
O333 O 0.09372 0.16059 0.27606 0.0
O334 O 0.00445 0.18384 0.28152 0.0
O335 O 0.14063 0.10287 0.21521 0.0
O336 O 0.99902 0.15805 0.22114 0.0
O337 O 0.95919 0.18355 0.25676 0.0
O338 O 0.93057 0.14295 0.32753 0.0
O339 O 0.92686 0.11385 0.24676 0.0
O340 O 0.01732 0.09174 0.2425 0.0
O341 O 0.87929 0.17654 0.30364 0.0
O342 O 0.01775 0.11629 0.30117 0.0
O343 O 0.06769 0.09248 0.26665 0.0
C344 C 0.05926 0.18141 0.28814 0.0
C345 C 0.17029 0.12544 0.17494 0.0
C346 C 0.20521 0.13369 0.13072 0.0
C347 C 0.25455 0.14992 0.14057 0.0
C348 C 0.22047 0.14127 0.18432 0.0
C349 C 0.2622 0.15348 0.16721 0.0
C350 C 0.16305 0.12143 0.14804 0.0
C351 C 0.96202 0.17892 0.23166 0.0
C352 C 0.12424 0.1144 0.1929 0.0
C353 C 0.28908 0.19867 0.26178 0.0
C354 C 0.26017 0.22604 0.25149 0.0
C355 C 0.96274 0.09302 0.23549 0.0
C356 C 0.86489 0.1822 0.34974 0.0
C357 C 0.84758 0.18564 0.39637 0.0
C358 C 0.81494 0.21452 0.39248 0.0
C359 C 0.83184 0.21109 0.34645 0.0
C360 C 0.87252 0.1694 0.37485 0.0
C361 C 0.8071 0.22705 0.36768 0.0
C362 C 0.05543 0.09479 0.29166 0.0
C363 C 0.89237 0.16675 0.32681 0.0
H364 H 0.28757 0.15951 0.12761 0.0
H365 H 0.22748 0.14431 0.20482 0.0
H366 H 0.30059 0.1658 0.17465 0.0
H367 H 0.12435 0.10934 0.1406 0.0
H368 H 0.79499 0.22727 0.40869 0.0
H369 H 0.82548 0.22165 0.32743 0.0
H370 H 0.89826 0.14731 0.37771 0.0
H371 H 0.78183 0.2493 0.36491 0.0
Eu372 Eu 0.42757 0.36666 0.73673 0.0
C373 C 0.69263 0.38197 0.76776 0.0
N374 N 0.65978 0.35405 0.76916 0.0
C375 C 0.7385 0.32196 0.75204 0.0
C376 C 0.75018 0.38084 0.7583 0.0
C377 C 0.68184 0.32422 0.76179 0.0
C378 C 0.77282 0.35038 0.75027 0.0
C379 C 0.7014 0.44121 0.77438 0.0
C380 C 0.6685 0.41185 0.77579 0.0
C381 C 0.75871 0.44014 0.76492 0.0
C382 C 0.78307 0.41005 0.75698 0.0
Eu383 Eu 0.56503 0.36042 0.78588 0.0
N384 N 0.61247 0.41225 0.78448 0.0
C385 C 0.67571 0.47079 0.78255 0.0
C386 C 0.58807 0.44077 0.7934 0.0
C387 C 0.61897 0.47051 0.79227 0.0
H388 H 0.65604 0.30207 0.76378 0.0
H389 H 0.59917 0.49316 0.79911 0.0
H390 H 0.33155 0.42215 0.75868 0.0
H391 H 0.40409 0.23323 0.72172 0.0
H392 H 0.54518 0.44075 0.8017 0.0
H393 H 0.69953 0.49388 0.78174 0.0
H394 H 0.45372 0.28687 0.71962 0.0
H395 H 0.7558 0.29827 0.74609 0.0
H396 H 0.78459 0.46247 0.76368 0.0
H397 H 0.82731 0.40967 0.7497 0.0
H398 H 0.23019 0.42329 0.77483 0.0
H399 H 0.81676 0.34852 0.74278 0.0
H400 H 0.30354 0.22973 0.73861 0.0
N401 N 0.33133 0.37035 0.752 0.0
C402 C 0.30072 0.34161 0.75289 0.0
C403 C 0.24953 0.40018 0.76873 0.0
C404 C 0.24271 0.34117 0.76181 0.0
C405 C 0.30692 0.39944 0.75973 0.0
C406 C 0.21723 0.37094 0.76974 0.0
N407 N 0.38435 0.31352 0.73713 0.0
C408 C 0.41101 0.28574 0.728 0.0
C409 C 0.29732 0.28221 0.74628 0.0
C410 C 0.32792 0.3124 0.74528 0.0
C411 C 0.32557 0.2534 0.73814 0.0
C412 C 0.38244 0.25525 0.72872 0.0
H413 H 0.17281 0.37159 0.77679 0.0
H414 H 0.16777 0.31026 0.76978 0.0
H415 H 0.21546 0.25872 0.75615 0.0
O416 O 0.43405 0.3612 0.69466 0.0
O417 O 0.4126 0.34229 0.77589 0.0
O418 O 0.50058 0.31833 0.78414 0.0
O419 O 0.37043 0.39444 0.71088 0.0
O420 O 0.50982 0.34018 0.72314 0.0
O421 O 0.54859 0.31655 0.75979 0.0
O422 O 0.56417 0.36843 0.82784 0.0
O423 O 0.57792 0.38668 0.74721 0.0
O424 O 0.48881 0.40986 0.73995 0.0
O425 O 0.62049 0.33127 0.81135 0.0
O426 O 0.48449 0.38812 0.79996 0.0
O427 O 0.4399 0.41048 0.76377 0.0
C428 C 0.44485 0.32141 0.78888 0.0
C429 C 0.3471 0.36817 0.67109 0.0
C430 C 0.3138 0.3614 0.62638 0.0
C431 C 0.26713 0.34209 0.63539 0.0
C432 C 0.29988 0.34903 0.67955 0.0
C433 C 0.26019 0.3361 0.66179 0.0
C434 C 0.35381 0.37449 0.64442 0.0
C435 C 0.54501 0.3191 0.73449 0.0
C436 C 0.39036 0.38068 0.68983 0.0
C437 C 0.21231 0.31109 0.7629 0.0
C438 C 0.23954 0.28172 0.75519 0.0
C439 C 0.54475 0.40828 0.73543 0.0
C440 C 0.65335 0.35865 0.84918 0.0
C441 C 0.69401 0.36623 0.89248 0.0
C442 C 0.74422 0.38014 0.88138 0.0
C443 C 0.70436 0.37209 0.83857 0.0
C444 C 0.64816 0.35593 0.87624 0.0
C445 C 0.74929 0.38297 0.85459 0.0
C446 C 0.44837 0.40913 0.78903 0.0
C447 C 0.60565 0.34728 0.83225 0.0
H448 H 0.23564 0.33187 0.62197 0.0
H449 H 0.29367 0.34399 0.69984 0.0
H450 H 0.22395 0.32132 0.66852 0.0
H451 H 0.39047 0.38903 0.63772 0.0
H452 H 0.77956 0.38891 0.89346 0.0
H453 H 0.70979 0.37405 0.81794 0.0
H454 H 0.6091 0.34531 0.88458 0.0
H455 H 0.78828 0.3935 0.84619 0.0
Eu456 Eu 0.07193 0.8598 0.73645 0.0
C457 C 0.8134 0.82384 0.7562 0.0
N458 N 0.83636 0.8548 0.75538 0.0
C459 C 0.75853 0.87294 0.72817 0.0
C460 C 0.76214 0.81612 0.74246 0.0
C461 C 0.80974 0.87939 0.74189 0.0
C462 C 0.73469 0.84116 0.7284 0.0
C463 C 0.82012 0.76711 0.77084 0.0
C464 C 0.84273 0.79953 0.77 0.0
C465 C 0.76933 0.75929 0.75699 0.0
C466 C 0.74045 0.78371 0.74284 0.0
Eu467 Eu 0.92289 0.8635 0.77877 0.0
N468 N 0.89248 0.80765 0.78295 0.0
C469 C 0.84851 0.74363 0.78604 0.0
C470 C 0.91698 0.78556 0.79959 0.0
C471 C 0.89648 0.75308 0.80085 0.0
H472 H 0.82812 0.90397 0.74176 0.0
H473 H 0.91697 0.73554 0.81369 0.0
H474 H 0.16327 0.81425 0.77168 0.0
H475 H 0.09061 0.98902 0.70573 0.0
H476 H 0.95095 0.79287 0.81272 0.0
H477 H 0.83247 0.7185 0.78723 0.0
H478 H 0.05111 0.93274 0.70483 0.0
H479 H 0.73757 0.89243 0.71738 0.0
H480 H 0.75167 0.73446 0.75731 0.0
H481 H 0.70128 0.77727 0.73229 0.0
H482 H 0.25269 0.822 0.79762 0.0
H483 H 0.69524 0.83619 0.71758 0.0
H484 H 0.17637 0.00201 0.73281 0.0
N485 N 0.15926 0.86439 0.76004 0.0
C486 C 0.18513 0.89463 0.76036 0.0
C487 C 0.23401 0.84265 0.78732 0.0
C488 C 0.23615 0.90018 0.77488 0.0
C489 C 0.18321 0.83837 0.77283 0.0
C490 C 0.26047 0.87372 0.78846 0.0
N491 N 0.10892 0.91445 0.73355 0.0
C492 C 0.08618 0.93823 0.71791 0.0
C493 C 0.18427 0.95218 0.74741 0.0
C494 C 0.15895 0.92041 0.74697 0.0
C495 C 0.15826 0.97729 0.73297 0.0
C496 C 0.10961 0.97012 0.71782 0.0
H497 H 0.29964 0.877 0.79985 0.0
H498 H 0.29985 0.9367 0.7868 0.0
H499 H 0.2547 0.98214 0.76265 0.0
O500 O 0.08757 0.85985 0.69415 0.0
O501 O 0.0744 0.88421 0.77628 0.0
O502 O 0.98385 0.90738 0.78074 0.0
O503 O 0.13963 0.82883 0.71973 0.0
O504 O 0.99394 0.88606 0.71857 0.0
O505 O 0.94095 0.90745 0.75305 0.0
O506 O 0.90376 0.86315 0.82073 0.0
O507 O 0.91922 0.84149 0.73806 0.0
O508 O 0.0083 0.81729 0.7356 0.0
O509 O 0.85289 0.89383 0.79451 0.0
O510 O 0.00323 0.84013 0.797 0.0
O511 O 0.05027 0.81638 0.76213 0.0
C512 C 0.03999 0.90735 0.78529 0.0
C513 C 0.16292 0.82497 0.67398 0.0
C514 C 0.18398 0.82157 0.62762 0.0
C515 C 0.22418 0.79629 0.63252 0.0
C516 C 0.20368 0.79972 0.67831 0.0
C517 C 0.23408 0.78558 0.65771 0.0
C518 C 0.15359 0.83614 0.64845 0.0
C519 C 0.95599 0.90713 0.72842 0.0
C520 C 0.12921 0.83818 0.69615 0.0
C521 C 0.26078 0.93192 0.77566 0.0
C522 C 0.23494 0.95783 0.76197 0.0
C523 C 0.95437 0.81959 0.72779 0.0
C524 C 0.82545 0.89663 0.83992 0.0
C525 C 0.80113 0.89926 0.88607 0.0
C526 C 0.75547 0.92106 0.88027 0.0
C527 C 0.77952 0.91851 0.83477 0.0
C528 C 0.83626 0.88708 0.86573 0.0
C529 C 0.74489 0.9306 0.85483 0.0
C530 C 0.04052 0.8188 0.78714 0.0
C531 C 0.86144 0.88424 0.81816 0.0
H532 H 0.24811 0.7849 0.61676 0.0
H533 H 0.21175 0.79056 0.69765 0.0
H534 H 0.26518 0.76608 0.66128 0.0
H535 H 0.12218 0.85548 0.64471 0.0
H536 H 0.72817 0.93101 0.89553 0.0
H537 H 0.77019 0.92635 0.81519 0.0
H538 H 0.87125 0.87004 0.86995 0.0
H539 H 0.7097 0.94748 0.85064 0.0
Eu540 Eu 0.45005 0.64221 0.23154 0.0
C541 C 0.70024 0.68397 0.26212 0.0
N542 N 0.67539 0.65341 0.2608 0.0
C543 C 0.75747 0.63349 0.23652 0.0
C544 C 0.75404 0.69058 0.24994 0.0
C545 C 0.70453 0.62798 0.24917 0.0
C546 C 0.782 0.665 0.23661 0.0
C547 C 0.69868 0.73998 0.27924 0.0
C548 C 0.67287 0.70855 0.27644 0.0
C549 C 0.75146 0.74679 0.26664 0.0
C550 C 0.77894 0.7222 0.25193 0.0
Eu551 Eu 0.58441 0.64776 0.28248 0.0
N552 N 0.62081 0.70171 0.2877 0.0
C553 C 0.6708 0.76354 0.29481 0.0
C554 C 0.59399 0.72423 0.30336 0.0
C555 C 0.61836 0.75556 0.30703 0.0
H556 H 0.68842 0.60314 0.25 0.0
H557 H 0.59674 0.7735 0.31928 0.0
H558 H 0.35009 0.69512 0.25504 0.0
H559 H 0.43378 0.50888 0.21426 0.0
H560 H 0.55397 0.71792 0.31315 0.0
H561 H 0.68942 0.78791 0.29757 0.0
H562 H 0.47795 0.56394 0.21098 0.0
H563 H 0.77982 0.61324 0.22706 0.0
H564 H 0.77168 0.77089 0.26835 0.0
H565 H 0.82004 0.72771 0.24257 0.0
H566 H 0.25287 0.69295 0.27512 0.0
H567 H 0.82332 0.66909 0.227 0.0
H568 H 0.33762 0.50216 0.23515 0.0
N569 N 0.35615 0.64307 0.24997 0.0
C570 C 0.32817 0.6135 0.25138 0.0
C571 C 0.2738 0.67039 0.26879 0.0
C572 C 0.27225 0.61119 0.26253 0.0
C573 C 0.32933 0.67146 0.25775 0.0
C574 C 0.24532 0.6401 0.27141 0.0
N575 N 0.40997 0.58827 0.2313 0.0
C576 C 0.43713 0.56143 0.22085 0.0
C577 C 0.32836 0.55427 0.24376 0.0
C578 C 0.35589 0.58535 0.24193 0.0
C579 C 0.35725 0.52647 0.23404 0.0
C580 C 0.41163 0.53013 0.22233 0.0
H581 H 0.20232 0.63934 0.28003 0.0
H582 H 0.20214 0.57799 0.27307 0.0
H583 H 0.25135 0.52818 0.2568 0.0
O584 O 0.42044 0.63105 0.19232 0.0
O585 O 0.44068 0.619 0.27152 0.0
O586 O 0.53257 0.60023 0.2802 0.0
O587 O 0.41103 0.68069 0.2076 0.0
O588 O 0.53184 0.615 0.21904 0.0
O589 O 0.58682 0.60263 0.25563 0.0
O590 O 0.57457 0.65067 0.32439 0.0
O591 O 0.56864 0.69002 0.25468 0.0
O592 O 0.5392 0.66069 0.21959 0.0
O593 O 0.65218 0.62888 0.30814 0.0
O594 O 0.49547 0.66673 0.2945 0.0
O595 O 0.456 0.68807 0.25698 0.0
C596 C 0.47587 0.5975 0.28218 0.0
C597 C 0.34662 0.66386 0.17369 0.0
C598 C 0.29551 0.6607 0.1323 0.0
C599 C 0.24486 0.67238 0.14449 0.0
C600 C 0.29544 0.67515 0.18562 0.0
C601 C 0.2448 0.67928 0.17103 0.0
C602 C 0.34622 0.65634 0.14707 0.0
C603 C 0.57184 0.59755 0.23118 0.0
C604 C 0.40167 0.66083 0.18805 0.0
C605 C 0.24499 0.58024 0.26446 0.0
C606 C 0.27301 0.55187 0.25518 0.0
C607 C 0.56351 0.68699 0.22957 0.0
C608 C 0.6189 0.60894 0.3485 0.0
C609 C 0.62488 0.59197 0.39363 0.0
C610 C 0.60364 0.56061 0.38657 0.0
C611 C 0.59829 0.57747 0.3417 0.0
C612 C 0.63232 0.61607 0.37441 0.0
C613 C 0.5907 0.55341 0.36071 0.0
C614 C 0.46244 0.6882 0.28235 0.0
C615 C 0.62297 0.63529 0.3292 0.0
H616 H 0.20531 0.67599 0.13347 0.0
H617 H 0.29468 0.68111 0.20604 0.0
H618 H 0.2055 0.68815 0.18029 0.0
H619 H 0.38579 0.64788 0.1377 0.0
H620 H 0.59743 0.54164 0.40104 0.0
H621 H 0.58758 0.57168 0.3218 0.0
H622 H 0.64715 0.64063 0.3797 0.0
H623 H 0.57441 0.52921 0.35541 0.0
C624 C 0.12757 0.01591 0.315 0.0
C625 C 0.11572 0.01569 0.34175 0.0
C626 C 0.10916 0.04184 0.29917 0.0
C627 C 0.0789 0.06913 0.30942 0.0
H628 H 0.15079 0.99559 0.30604 0.0
H629 H 0.1177 0.03992 0.27861 0.0
S630 S 0.03861 0.08132 0.37858 0.0
N631 N 0.07184 0.04523 0.3779 0.0
N632 N 0.04019 0.09496 0.34854 0.0
C633 C 0.06866 0.06988 0.33639 0.0
C634 C 0.0864 0.04302 0.35243 0.0
C635 C 0.39247 0.49232 0.81204 0.0
C636 C 0.37794 0.48655 0.83816 0.0
C637 C 0.41386 0.46698 0.7961 0.0
C638 C 0.42223 0.43494 0.80572 0.0
H639 H 0.38811 0.51679 0.80389 0.0
H640 H 0.42531 0.47277 0.77627 0.0
S641 S 0.38637 0.40592 0.87188 0.0
N642 N 0.36977 0.4456 0.87231 0.0
N643 N 0.41144 0.3982 0.8425 0.0
C644 C 0.40717 0.42861 0.83163 0.0
C645 C 0.38478 0.45434 0.84782 0.0
C646 C 0.5652 0.48848 0.69899 0.0
C647 C 0.62103 0.48512 0.68829 0.0
C648 C 0.54116 0.46353 0.71431 0.0
C649 C 0.57192 0.43418 0.71928 0.0
H650 H 0.54009 0.51066 0.69556 0.0
H651 H 0.49814 0.46742 0.72237 0.0
S652 S 0.7182 0.41269 0.69368 0.0
N653 N 0.70586 0.45026 0.68268 0.0
N654 N 0.66014 0.40264 0.71083 0.0
C655 C 0.62766 0.43042 0.7083 0.0
C656 C 0.65237 0.45609 0.69296 0.0
C657 C 0.85704 0.04227 0.19466 0.0
C658 C 0.89368 0.01998 0.18155 0.0
C659 C 0.87976 0.06622 0.21158 0.0
C660 C 0.93994 0.06837 0.21656 0.0
H661 H 0.81038 0.04122 0.19177 0.0
H662 H 0.84966 0.08294 0.22091 0.0
S663 S 0.05449 0.0159 0.18649 0.0
N664 N 0.99299 0.00186 0.17414 0.0
N665 N 0.0359 0.04644 0.20606 0.0
C666 C 0.9771 0.04642 0.20319 0.0
C667 C 0.95394 0.02235 0.18572 0.0
C668 C 0.89547 0.9894 0.70671 0.0
C669 C 0.88894 0.98532 0.67978 0.0
C670 C 0.91624 0.96381 0.72225 0.0
C671 C 0.93217 0.93319 0.71149 0.0
H672 H 0.88512 0.01278 0.71588 0.0
H673 H 0.92078 0.96832 0.74282 0.0
S674 S 0.91977 0.90883 0.64241 0.0
N675 N 0.89698 0.94749 0.64325 0.0
N676 N 0.93767 0.89957 0.67246 0.0
C677 C 0.9255 0.92856 0.68466 0.0
C678 C 0.90363 0.95457 0.66881 0.0
C679 C 0.60605 0.53905 0.17554 0.0
C680 C 0.63567 0.51287 0.18747 0.0
C681 C 0.58819 0.5668 0.18967 0.0
C682 C 0.59801 0.56944 0.21654 0.0
H683 H 0.59484 0.53774 0.1552 0.0
H684 H 0.56472 0.58588 0.17942 0.0
S685 S 0.67962 0.50921 0.25659 0.0
N686 N 0.67977 0.49292 0.22725 0.0
N687 N 0.64297 0.54407 0.25422 0.0
C688 C 0.62947 0.54394 0.22861 0.0
C689 C 0.6488 0.5159 0.21403 0.0
C690 C 0.37752 0.54915 0.32763 0.0
C691 C 0.40519 0.51824 0.32896 0.0
C692 C 0.39983 0.57451 0.31195 0.0
C693 C 0.45125 0.56999 0.29752 0.0
H694 H 0.33804 0.55363 0.33857 0.0
H695 H 0.37728 0.59797 0.31151 0.0
S696 S 0.53889 0.49328 0.29379 0.0
N697 N 0.48567 0.48429 0.3141 0.0
N698 N 0.52775 0.53184 0.28482 0.0
C699 C 0.4789 0.53909 0.29854 0.0
C700 C 0.45585 0.51324 0.31422 0.0
C701 C 0.13721 0.95419 0.83221 0.0
C702 C 0.11294 0.98605 0.8321 0.0
C703 C 0.11401 0.92889 0.81666 0.0
C704 C 0.06515 0.93451 0.80087 0.0
H705 H 0.17469 0.94892 0.8442 0.0
H706 H 0.1339 0.90467 0.81732 0.0
S707 S 0.98645 0.01383 0.79344 0.0
N708 N 0.0382 0.02199 0.81468 0.0
N709 N 0.99435 0.97451 0.78566 0.0
C710 C 0.04075 0.96631 0.80058 0.0
C711 C 0.06474 0.99207 0.81612 0.0
C712 C 0.20109 0.15514 0.05936 0.0
C713 C 0.20049 0.12401 0.04706 0.0
C714 C 0.20057 0.15804 0.08641 0.0
C715 C 0.19866 0.12995 0.10229 0.0
H716 H 0.20278 0.17754 0.04799 0.0
H717 H 0.20258 0.18246 0.09502 0.0
S718 S 0.19596 0.04281 0.0802 0.0
N719 N 0.19782 0.06443 0.05316 0.0
N720 N 0.19525 0.07012 0.10404 0.0
C721 C 0.1961 0.09874 0.0904 0.0
C722 C 0.19733 0.0957 0.0628 0.0
C723 C 0.31745 0.3448 0.55399 0.0
C724 C 0.31639 0.37664 0.5431 0.0
C725 C 0.31889 0.3402 0.58087 0.0
C726 C 0.31986 0.36721 0.59807 0.0
H727 H 0.31624 0.32314 0.54162 0.0
H728 H 0.31818 0.31521 0.5883 0.0
S729 S 0.31882 0.45566 0.57984 0.0
N730 N 0.31723 0.43573 0.55188 0.0
N731 N 0.32098 0.42692 0.60243 0.0
C732 C 0.32096 0.39917 0.58756 0.0
C733 C 0.31903 0.40392 0.5601 0.0
C734 C 0.64152 0.37558 0.96199 0.0
C735 C 0.68678 0.36101 0.97631 0.0
C736 C 0.64301 0.37619 0.9348 0.0
C737 C 0.69016 0.36264 0.92102 0.0
H738 H 0.60483 0.38671 0.97189 0.0
H739 H 0.60789 0.3882 0.92453 0.0
S740 S 0.81868 0.32083 0.94923 0.0
N741 N 0.77958 0.33229 0.97455 0.0
N742 N 0.78187 0.33305 0.92358 0.0
C743 C 0.73501 0.34742 0.93508 0.0
C744 C 0.73343 0.34669 0.96267 0.0
C745 C 0.87057 0.18617 0.46885 0.0
C746 C 0.84826 0.15535 0.47655 0.0
C747 C 0.87352 0.19492 0.4427 0.0
C748 C 0.85445 0.17318 0.42316 0.0
H749 H 0.88418 0.20412 0.48325 0.0
H750 H 0.88889 0.21941 0.43774 0.0
S751 S 0.79553 0.08886 0.4328 0.0
N752 N 0.80932 0.10239 0.46238 0.0
N753 N 0.81529 0.1189 0.41308 0.0
C754 C 0.83503 0.14162 0.4304 0.0
C755 C 0.83183 0.13268 0.45714 0.0
C756 C 0.76868 0.87391 0.95525 0.0
C757 C 0.82176 0.87952 0.9681 0.0
C758 C 0.76326 0.87898 0.92855 0.0
C759 C 0.81077 0.88967 0.91351 0.0
H760 H 0.73023 0.86687 0.96608 0.0
H761 H 0.72102 0.87533 0.91968 0.0
S762 S 0.96062 0.9051 0.93729 0.0
N763 N 0.92395 0.89409 0.96341 0.0
N764 N 0.91354 0.90393 0.91315 0.0
C765 C 0.86481 0.89392 0.92583 0.0
C766 C 0.8703 0.88889 0.95314 0.0
C767 C 0.60718 0.59962 0.46646 0.0
C768 C 0.66171 0.61169 0.47465 0.0
C769 C 0.59553 0.59363 0.44024 0.0
C770 C 0.63776 0.59971 0.42114 0.0
H771 H 0.57334 0.59441 0.48049 0.0
H772 H 0.55312 0.5841 0.43487 0.0
S773 S 0.78756 0.63087 0.43218 0.0
N774 N 0.75856 0.62916 0.46142 0.0
N775 N 0.73619 0.6184 0.41204 0.0
C776 C 0.69203 0.61239 0.42891 0.0
C777 C 0.70409 0.6183 0.45567 0.0
C778 C 0.2808 0.67393 0.05988 0.0
C779 C 0.29218 0.64242 0.0493 0.0
C780 C 0.2821 0.67958 0.08668 0.0
C781 C 0.29573 0.65412 0.10401 0.0
H782 H 0.27084 0.69453 0.04735 0.0
H783 H 0.27269 0.70416 0.09392 0.0
S784 S 0.32756 0.56706 0.0869 0.0
N785 N 0.31586 0.58512 0.05877 0.0
N786 N 0.32036 0.59627 0.10907 0.0
C787 C 0.308 0.62266 0.09388 0.0
C788 C 0.30583 0.61669 0.06657 0.0
C789 C 0.19556 0.87061 0.56538 0.0
C790 C 0.17788 0.84737 0.54657 0.0
C791 C 0.19399 0.86298 0.59193 0.0
C792 C 0.17459 0.83193 0.60047 0.0
H793 H 0.21333 0.89421 0.55948 0.0
H794 H 0.21081 0.8808 0.60574 0.0
S795 S 0.11536 0.7645 0.55953 0.0
N796 N 0.13393 0.79358 0.53874 0.0
N797 N 0.13194 0.77921 0.58847 0.0
C798 C 0.15359 0.80933 0.58203 0.0
C799 C 0.15498 0.81706 0.55512 0.0
C800 C 0.1724 0.23261 0.32422 0.0
C801 C 0.13889 0.25656 0.3371 0.0
C802 C 0.1461 0.20776 0.30934 0.0
C803 C 0.08532 0.20648 0.30589 0.0
H804 H 0.21943 0.23307 0.32572 0.0
H805 H 0.17402 0.18966 0.30032 0.0
S806 S 0.97792 0.26246 0.33723 0.0
N807 N 0.04178 0.27649 0.34702 0.0
N808 N 0.99208 0.23044 0.31837 0.0
C809 C 0.05117 0.22986 0.31937 0.0
C810 C 0.07803 0.25476 0.33504 0.0
C811 C 0.41721 0.24504 0.8296 0.0
C812 C 0.36101 0.25054 0.83933 0.0
C813 C 0.44433 0.26831 0.81355 0.0
C814 C 0.41614 0.29791 0.80677 0.0
H815 H 0.43979 0.22227 0.83397 0.0
H816 H 0.48724 0.26269 0.80603 0.0
S817 S 0.27062 0.32505 0.82984 0.0
N818 N 0.27912 0.28799 0.84251 0.0
N819 N 0.3305 0.33243 0.8131 0.0
C820 C 0.36052 0.30406 0.81723 0.0
C821 C 0.33281 0.28017 0.83332 0.0
C822 C 0.61622 0.24054 0.71014 0.0
C823 C 0.64239 0.25045 0.68671 0.0
C824 C 0.58521 0.26294 0.72562 0.0
C825 C 0.57837 0.29597 0.71807 0.0
H826 H 0.61906 0.21512 0.71645 0.0
H827 H 0.56557 0.25419 0.74341 0.0
S828 S 0.64172 0.33539 0.65984 0.0
N829 N 0.66256 0.29645 0.65782 0.0
N830 N 0.6021 0.3381 0.68646 0.0
C831 C 0.60442 0.30638 0.69489 0.0
C832 C 0.63692 0.28375 0.67932 0.0
C833 C 0.88493 0.25451 0.20641 0.0
C834 C 0.85502 0.24241 0.18455 0.0
C835 C 0.92017 0.23387 0.22131 0.0
C836 C 0.92745 0.20046 0.21474 0.0
H837 H 0.8813 0.28023 0.21202 0.0
H838 H 0.94201 0.24416 0.2381 0.0
S839 S 0.85676 0.15593 0.16045 0.0
N840 N 0.8333 0.19432 0.15781 0.0
N841 N 0.901 0.15572 0.18562 0.0
C842 C 0.89835 0.18796 0.19293 0.0
C843 C 0.86178 0.20889 0.17788 0.0
C844 C 0.85156 0.77627 0.68095 0.0
C845 C 0.88031 0.74637 0.67571 0.0
C846 C 0.87644 0.80013 0.69734 0.0
C847 C 0.93085 0.7949 0.70919 0.0
H848 H 0.80874 0.78083 0.67298 0.0
H849 H 0.85251 0.82269 0.70092 0.0
S850 S 0.02621 0.72186 0.69937 0.0
N851 N 0.96787 0.71386 0.6818 0.0
N852 N 0.01446 0.75827 0.71284 0.0
C853 C 0.96105 0.7656 0.70316 0.0
C854 C 0.93574 0.74142 0.68645 0.0
C855 C 0.63092 0.72854 0.17081 0.0
C856 C 0.63901 0.76143 0.17913 0.0
C857 C 0.6058 0.70474 0.18709 0.0
C858 C 0.58783 0.71282 0.21238 0.0
H859 H 0.64378 0.7211 0.15147 0.0
H860 H 0.60116 0.67971 0.17989 0.0
S861 S 0.59598 0.79561 0.24324 0.0
N862 N 0.62632 0.80066 0.21456 0.0
N863 N 0.57632 0.75644 0.24441 0.0
C864 C 0.59443 0.74567 0.22079 0.0
C865 C 0.6206 0.76983 0.20437 0.0
C866 C 0.37544 0.72451 0.3379 0.0
C867 C 0.36593 0.75732 0.33007 0.0
C868 C 0.40673 0.70236 0.32231 0.0
C869 C 0.42907 0.71203 0.29815 0.0
H870 H 0.35809 0.71574 0.35614 0.0
H871 H 0.41281 0.67732 0.3291 0.0
S872 S 0.42036 0.7955 0.26937 0.0
N873 N 0.38489 0.79881 0.29709 0.0
N874 N 0.44193 0.75669 0.26748 0.0
C875 C 0.4202 0.74465 0.29004 0.0
C876 C 0.38907 0.7674 0.30607 0.0
C877 C 0.1067 0.74008 0.81288 0.0
C878 C 0.12975 0.74987 0.837 0.0
C879 C 0.07792 0.76258 0.79688 0.0
C880 C 0.0702 0.79556 0.80458 0.0
H881 H 0.11064 0.71474 0.80633 0.0
H882 H 0.06097 0.75398 0.77848 0.0
S883 S 0.12501 0.83453 0.86481 0.0
N884 N 0.14541 0.79553 0.86701 0.0
N885 N 0.08931 0.83749 0.8372 0.0
C886 C 0.09267 0.80581 0.82855 0.0
C887 C 0.12288 0.78303 0.84472 0.0
loop_
_geom_bond_atom_site_label_1
_geom_bond_atom_site_label_2
_geom_bond_distance
_geom_bond_site_symmetry_2
_ccdc_geom_bond_type
C0 C1 1.384 . S
C0 H13 0.947 . S
C0 C35 1.382 . S
C1 C0 1.384 . S
C1 C2 1.378 . S
C2 C1 1.378 . S
C2 C3 1.378 . S
C2 H14 0.952 . S
C3 C2 1.378 . S
C3 H15 0.950 . S
C3 C34 1.383 . S
H4 C23 0.947 . S
H5 C24 0.946 . S
H6 C26 0.953 . S
H7 C27 0.945 . S
H8 C29 0.952 . S
H9 C30 0.949 . S
H10 C32 0.950 . S
H11 C33 0.948 . S
H12 C35 0.951 . S
H13 C0 0.947 . S
H14 C2 0.952 . S
H15 C3 0.950 . S
N16 C19 1.382 . S
N16 C21 1.363 . S
N17 C19 1.371 . S
N17 C20 1.372 . S
N18 C20 1.361 . S
N18 C21 1.377 . S
C19 N16 1.382 . S
C19 N17 1.371 . S
C19 C22 1.480 . S
C20 N17 1.372 . S
C20 N18 1.361 . S
C20 C28 1.457 . S
C21 N16 1.363 . S
C21 N18 1.377 . S
C21 C34 1.479 . S
C22 C19 1.480 . S
C22 C23 1.383 . S
C22 C27 1.385 . S
C23 H4 0.947 . S
C23 C22 1.383 . S
C23 C24 1.388 . S
C24 H5 0.946 . S
C24 C23 1.388 . S
C24 C25 1.384 . S
C25 C24 1.384 . S
C25 C26 1.377 . S
C26 H6 0.953 . S
C26 C25 1.377 . S
C26 C27 1.369 . S
C27 H7 0.945 . S
C27 C22 1.385 . S
C27 C26 1.369 . S
C28 C20 1.457 . S
C28 C29 1.372 . S
C28 C33 1.364 . S
C29 H8 0.952 . S
C29 C28 1.372 . S
C29 C30 1.389 . S
C30 H9 0.949 . S
C30 C29 1.389 . S
C30 C31 1.387 . S
C31 C30 1.387 . S
C31 C32 1.372 . S
C32 H10 0.950 . S
C32 C31 1.372 . S
C32 C33 1.379 . S
C33 H11 0.948 . S
C33 C28 1.364 . S
C33 C32 1.379 . S
C34 C3 1.383 . S
C34 C21 1.479 . S
C34 C35 1.398 . S
C35 C0 1.382 . S
C35 H12 0.951 . S
C35 C34 1.398 . S
C36 C37 1.384 1_556 S
C36 H49 0.947 . S
C36 C71 1.382 . S
C37 C36 1.384 1_554 S
C37 C38 1.378 1_554 S
C38 C37 1.378 1_556 S
C38 C39 1.378 . S
C38 H50 0.950 1_556 S
C39 C38 1.378 . S
C39 H51 0.950 . S
C39 C70 1.383 . S
H40 C59 0.947 . S
H41 C60 0.946 . S
H42 C62 0.953 . S
H43 C63 0.945 . S
H44 C65 0.952 . S
H45 C66 0.949 . S
H46 C68 0.950 1_565 S
H47 C69 0.948 . S
H48 C71 0.951 . S
H49 C36 0.947 . S
H50 C38 0.950 1_554 S
H51 C39 0.950 . S
N52 C55 1.382 . S
N52 C57 1.363 . S
N53 C55 1.371 . S
N53 C56 1.372 . S
N54 C56 1.361 . S
N54 C57 1.377 . S
C55 N52 1.382 . S
C55 N53 1.371 . S
C55 C58 1.480 . S
C56 N53 1.372 . S
C56 N54 1.361 . S
C56 C64 1.457 . S
C57 N52 1.363 . S
C57 N54 1.377 . S
C57 C70 1.479 . S
C58 C55 1.480 . S
C58 C59 1.383 . S
C58 C63 1.385 . S
C59 H40 0.947 . S
C59 C58 1.383 . S
C59 C60 1.388 . S
C60 H41 0.946 . S
C60 C59 1.388 . S
C60 C61 1.384 . S
C61 C60 1.384 . S
C61 C62 1.377 . S
C62 H42 0.953 . S
C62 C61 1.377 . S
C62 C63 1.369 . S
C63 H43 0.945 . S
C63 C58 1.385 . S
C63 C62 1.369 . S
C64 C56 1.457 . S
C64 C65 1.372 . S
C64 C69 1.364 . S
C65 H44 0.952 . S
C65 C64 1.372 . S
C65 C66 1.389 . S
C66 H45 0.949 . S
C66 C65 1.389 . S
C66 C67 1.387 . S
C67 C66 1.387 . S
C67 C68 1.372 . S
C68 H46 0.950 1_545 S
C68 C67 1.372 . S
C68 C69 1.379 . S
C69 H47 0.948 . S
C69 C64 1.364 . S
C69 C68 1.379 . S
C70 C39 1.383 . S
C70 C57 1.479 . S
C70 C71 1.398 . S
C71 C36 1.382 . S
C71 H48 0.951 . S
C71 C70 1.398 . S
C72 C73 1.384 . S
C72 H85 0.947 . S
C72 C107 1.382 . S
C73 C72 1.384 . S
C73 C74 1.378 . S
C74 C73 1.378 . S
C74 C75 1.378 . S
C74 H86 0.952 . S
C75 C74 1.378 . S
C75 H87 0.950 . S
C75 C106 1.383 . S
H76 C95 0.947 . S
H77 C96 0.946 . S
H78 C98 0.953 . S
H79 C99 0.945 . S
H80 C101 0.952 . S
H81 C102 0.949 . S
H82 C104 0.950 1_565 S
H83 C105 0.948 . S
H84 C107 0.951 . S
H85 C72 0.947 . S
H86 C74 0.952 . S
H87 C75 0.950 . S
N88 C91 1.382 . S
N88 C93 1.363 . S
N89 C91 1.371 . S
N89 C92 1.372 . S
N90 C92 1.361 . S
N90 C93 1.377 . S
C91 N88 1.382 . S
C91 N89 1.371 . S
C91 C94 1.480 . S
C92 N89 1.372 . S
C92 N90 1.361 . S
C92 C100 1.457 . S
C93 N88 1.363 . S
C93 N90 1.377 . S
C93 C106 1.479 . S
C94 C91 1.480 . S
C94 C95 1.383 . S
C94 C99 1.385 . S
C95 H76 0.947 . S
C95 C94 1.383 . S
C95 C96 1.388 . S
C96 H77 0.946 . S
C96 C95 1.388 . S
C96 C97 1.384 . S
C97 C96 1.384 . S
C97 C98 1.377 . S
C98 H78 0.953 . S
C98 C97 1.377 . S
C98 C99 1.369 . S
C99 H79 0.945 . S
C99 C94 1.385 . S
C99 C98 1.369 . S
C100 C92 1.457 . S
C100 C101 1.372 . S
C100 C105 1.364 . S
C101 H80 0.952 . S
C101 C100 1.372 . S
C101 C102 1.389 . S
C102 H81 0.949 . S
C102 C101 1.389 . S
C102 C103 1.387 . S
C103 C102 1.387 . S
C103 C104 1.372 . S
C104 H82 0.950 1_545 S
C104 C103 1.372 . S
C104 C105 1.379 . S
C105 H83 0.948 . S
C105 C100 1.364 . S
C105 C104 1.379 . S
C106 C75 1.383 . S
C106 C93 1.479 . S
C106 C107 1.398 . S
C107 C72 1.382 . S
C107 H84 0.951 . S
C107 C106 1.398 . S
C108 C109 1.383 1_554 S
C108 H121 0.947 . S
C108 C143 1.382 . S
C109 C108 1.383 1_556 S
C109 C110 1.378 1_556 S
C110 C109 1.378 1_554 S
C110 C111 1.378 . S
C110 H122 0.952 . S
C111 C110 1.378 . S
C111 H123 0.950 . S
C111 C142 1.383 . S
H112 C131 0.947 . S
H113 C132 0.946 . S
H114 C134 0.953 . S
H115 C135 0.945 . S
H116 C137 0.952 . S
H117 C138 0.949 . S
H118 C140 0.950 . S
H119 C141 0.948 . S
H120 C143 0.951 . S
H121 C108 0.947 . S
H122 C110 0.952 . S
H123 C111 0.950 . S
N124 C127 1.382 . S
N124 C129 1.363 . S
N125 C127 1.371 . S
N125 C128 1.372 . S
N126 C128 1.361 . S
N126 C129 1.377 . S
C127 N124 1.382 . S
C127 N125 1.371 . S
C127 C130 1.480 . S
C128 N125 1.372 . S
C128 N126 1.361 . S
C128 C136 1.457 . S
C129 N124 1.363 . S
C129 N126 1.377 . S
C129 C142 1.479 . S
C130 C127 1.480 . S
C130 C131 1.383 . S
C130 C135 1.385 . S
C131 H112 0.947 . S
C131 C130 1.383 . S
C131 C132 1.388 . S
C132 H113 0.946 . S
C132 C131 1.388 . S
C132 C133 1.384 . S
C133 C132 1.384 . S
C133 C134 1.377 . S
C134 H114 0.953 . S
C134 C133 1.377 . S
C134 C135 1.369 . S
C135 H115 0.945 . S
C135 C130 1.385 . S
C135 C134 1.369 . S
C136 C128 1.457 . S
C136 C137 1.372 . S
C136 C141 1.364 . S
C137 H116 0.952 . S
C137 C136 1.372 . S
C137 C138 1.389 . S
C138 H117 0.949 . S
C138 C137 1.389 . S
C138 C139 1.387 . S
C139 C138 1.387 . S
C139 C140 1.372 . S
C140 H118 0.950 . S
C140 C139 1.372 . S
C140 C141 1.379 . S
C141 H119 0.948 . S
C141 C136 1.364 . S
C141 C140 1.379 . S
C142 C111 1.383 . S
C142 C129 1.479 . S
C142 C143 1.398 . S
C143 C108 1.382 . S
C143 H120 0.951 . S
C143 C142 1.398 . S
C144 C145 1.384 . S
C144 H157 0.947 . S
C144 C179 1.382 . S
C145 C144 1.384 . S
C145 C146 1.378 . S
C146 C145 1.378 . S
C146 C147 1.378 . S
C146 H158 0.952 . S
C147 C146 1.378 . S
C147 H159 0.950 . S
C147 C178 1.383 . S
H148 C167 0.947 . S
H149 C168 0.946 . S
H150 C170 0.953 . S
H151 C171 0.945 . S
H152 C173 0.952 . S
H153 C174 0.949 . S
H154 C176 0.950 . S
H155 C177 0.948 . S
H156 C179 0.951 . S
H157 C144 0.947 . S
H158 C146 0.952 . S
H159 C147 0.950 . S
N160 C163 1.382 . S
N160 C165 1.363 . S
N161 C163 1.371 . S
N161 C164 1.372 . S
N162 C164 1.361 . S
N162 C165 1.377 . S
C163 N160 1.382 . S
C163 N161 1.371 . S
C163 C166 1.480 . S
C164 N161 1.372 . S
C164 N162 1.361 . S
C164 C172 1.457 . S
C165 N160 1.363 . S
C165 N162 1.377 . S
C165 C178 1.479 . S
C166 C163 1.480 . S
C166 C167 1.383 . S
C166 C171 1.385 . S
C167 H148 0.947 . S
C167 C166 1.383 . S
C167 C168 1.388 . S
C168 H149 0.946 . S
C168 C167 1.388 . S
C168 C169 1.384 . S
C169 C168 1.384 . S
C169 C170 1.377 . S
C170 H150 0.953 . S
C170 C169 1.377 . S
C170 C171 1.369 . S
C171 H151 0.945 . S
C171 C166 1.385 . S
C171 C170 1.369 . S
C172 C164 1.457 . S
C172 C173 1.372 . S
C172 C177 1.364 . S
C173 H152 0.952 . S
C173 C172 1.372 . S
C173 C174 1.389 . S
C174 H153 0.949 . S
C174 C173 1.389 . S
C174 C175 1.387 . S
C175 C174 1.387 . S
C175 C176 1.372 . S
C176 H154 0.950 . S
C176 C175 1.372 . S
C176 C177 1.379 . S
C177 H155 0.948 . S
C177 C172 1.364 . S
C177 C176 1.379 . S
C178 C147 1.383 . S
C178 C165 1.479 . S
C178 C179 1.398 . S
C179 C144 1.382 . S
C179 H156 0.951 . S
C179 C178 1.398 . S
C180 C181 1.384 1_554 S
C180 H193 0.947 . S
C180 C215 1.382 . S
C181 C180 1.384 1_556 S
C181 C182 1.378 1_556 S
C182 C181 1.378 1_554 S
C182 C183 1.378 . S
C182 H194 0.952 1_554 S
C183 C182 1.378 . S
C183 H195 0.950 . S
C183 C214 1.383 . S
H184 C203 0.947 . S
H185 C204 0.946 . S
H186 C206 0.953 . S
H187 C207 0.945 . S
H188 C209 0.952 . S
H189 C210 0.949 . S
H190 C212 0.950 1_545 S
H191 C213 0.948 . S
H192 C215 0.951 . S
H193 C180 0.947 . S
H194 C182 0.952 1_556 S
H195 C183 0.950 . S
N196 C199 1.382 . S
N196 C201 1.363 . S
N197 C199 1.371 . S
N197 C200 1.372 . S
N198 C200 1.361 . S
N198 C201 1.377 . S
C199 N196 1.382 . S
C199 N197 1.371 . S
C199 C202 1.480 . S
C200 N197 1.372 . S
C200 N198 1.361 . S
C200 C208 1.457 . S
C201 N196 1.363 . S
C201 N198 1.377 . S
C201 C214 1.479 . S
C202 C199 1.480 . S
C202 C203 1.383 . S
C202 C207 1.385 . S
C203 H184 0.947 . S
C203 C202 1.383 . S
C203 C204 1.388 . S
C204 H185 0.946 . S
C204 C203 1.388 . S
C204 C205 1.384 . S
C205 C204 1.384 . S
C205 C206 1.377 . S
C206 H186 0.953 . S
C206 C205 1.377 . S
C206 C207 1.369 . S
C207 H187 0.945 . S
C207 C202 1.385 . S
C207 C206 1.369 . S
C208 C200 1.457 . S
C208 C209 1.372 . S
C208 C213 1.364 . S
C209 H188 0.952 . S
C209 C208 1.372 . S
C209 C210 1.389 . S
C210 H189 0.949 . S
C210 C209 1.389 . S
C210 C211 1.387 . S
C211 C210 1.387 . S
C211 C212 1.372 . S
C212 H190 0.950 1_565 S
C212 C211 1.372 . S
C212 C213 1.379 . S
C213 H191 0.948 . S
C213 C208 1.364 . S
C213 C212 1.379 . S
C214 C183 1.383 . S
C214 C201 1.479 . S
C214 C215 1.398 . S
C215 C180 1.382 . S
C215 H192 0.951 . S
C215 C214 1.398 . S
C216 C217 1.384 . S
C216 H229 0.947 . S
C216 C251 1.382 . S
C217 C216 1.384 . S
C217 C218 1.378 . S
C218 C217 1.378 . S
C218 C219 1.378 . S
C218 H230 0.952 . S
C219 C218 1.378 . S
C219 H231 0.950 . S
C219 C250 1.383 . S
H220 C239 0.947 . S
H221 C240 0.946 . S
H222 C242 0.953 . S
H223 C243 0.945 . S
H224 C245 0.952 . S
H225 C246 0.949 . S
H226 C248 0.950 1_545 S
H227 C249 0.948 . S
H228 C251 0.951 . S
H229 C216 0.947 . S
H230 C218 0.952 . S
H231 C219 0.950 . S
N232 C235 1.382 . S
N232 C237 1.363 . S
N233 C235 1.371 . S
N233 C236 1.372 . S
N234 C236 1.361 . S
N234 C237 1.377 . S
C235 N232 1.382 . S
C235 N233 1.371 . S
C235 C238 1.480 . S
C236 N233 1.372 . S
C236 N234 1.361 . S
C236 C244 1.457 . S
C237 N232 1.363 . S
C237 N234 1.377 . S
C237 C250 1.479 . S
C238 C235 1.480 . S
C238 C239 1.383 . S
C238 C243 1.385 . S
C239 H220 0.947 . S
C239 C238 1.383 . S
C239 C240 1.388 . S
C240 H221 0.946 . S
C240 C239 1.388 . S
C240 C241 1.384 . S
C241 C240 1.384 . S
C241 C242 1.377 . S
C242 H222 0.953 . S
C242 C241 1.377 . S
C242 C243 1.369 . S
C243 H223 0.945 . S
C243 C238 1.385 . S
C243 C242 1.369 . S
C244 C236 1.457 . S
C244 C245 1.372 . S
C244 C249 1.364 . S
C245 H224 0.952 . S
C245 C244 1.372 . S
C245 C246 1.389 . S
C246 H225 0.949 . S
C246 C245 1.389 . S
C246 C247 1.387 . S
C247 C246 1.387 . S
C247 C248 1.372 . S
C248 H226 0.950 1_565 S
C248 C247 1.372 . S
C248 C249 1.379 . S
C249 H227 0.948 . S
C249 C244 1.364 . S
C249 C248 1.379 . S
C250 C219 1.383 . S
C250 C237 1.479 . S
C250 C251 1.398 . S
C251 C216 1.382 . S
C251 H228 0.951 . S
C251 C250 1.398 . S
C252 C253 1.364 1_556 S
C252 H265 0.947 . S
C252 C287 1.382 . S
C253 C252 1.364 1_554 S
C253 C254 1.363 1_554 S
C254 C253 1.363 1_556 S
C254 C255 1.378 . S
C254 H266 0.971 . S
C255 C254 1.378 . S
C255 H267 0.950 . S
C255 C286 1.383 . S
H256 C275 0.947 . S
H257 C276 0.946 . S
H258 C278 0.953 . S
H259 C279 0.945 . S
H260 C281 0.952 . S
H261 C282 0.949 . S
H262 C284 0.950 . S
H263 C285 0.948 . S
H264 C287 0.951 . S
H265 C252 0.947 . S
H266 C254 0.971 . S
H267 C255 0.950 . S
N268 C271 1.382 . S
N268 C273 1.363 . S
N269 C271 1.371 . S
N269 C272 1.372 . S
N270 C272 1.361 . S
N270 C273 1.377 . S
C271 N268 1.382 . S
C271 N269 1.371 . S
C271 C274 1.480 . S
C272 N269 1.372 . S
C272 N270 1.361 . S
C272 C280 1.457 . S
C273 N268 1.363 . S
C273 N270 1.377 . S
C273 C286 1.479 . S
C274 C271 1.480 . S
C274 C275 1.383 . S
C274 C279 1.385 . S
C275 H256 0.947 . S
C275 C274 1.383 . S
C275 C276 1.388 . S
C276 H257 0.946 . S
C276 C275 1.388 . S
C276 C277 1.384 . S
C277 C276 1.384 . S
C277 C278 1.377 . S
C278 H258 0.953 . S
C278 C277 1.377 . S
C278 C279 1.369 . S
C279 H259 0.945 . S
C279 C274 1.385 . S
C279 C278 1.369 . S
C280 C272 1.457 . S
C280 C281 1.372 . S
C280 C285 1.364 . S
C281 H260 0.952 . S
C281 C280 1.372 . S
C281 C282 1.389 . S
C282 H261 0.949 . S
C282 C281 1.389 . S
C282 C283 1.387 . S
C283 C282 1.387 . S
C283 C284 1.372 . S
C284 H262 0.950 . S
C284 C283 1.372 . S
C284 C285 1.379 . S
C285 H263 0.948 . S
C285 C280 1.364 . S
C285 C284 1.379 . S
C286 C255 1.383 . S
C286 C273 1.479 . S
C286 C287 1.398 . S
C287 C252 1.382 . S
C287 H264 0.951 . S
C287 C286 1.398 . S
Eu288 N317 2.600 . S
Eu288 N323 2.562 . S
Eu288 O332 2.462 . S
Eu288 O333 2.373 . S
Eu288 O335 2.432 . S
Eu288 O336 2.306 . S
Eu288 O340 2.335 . S
Eu288 O343 2.372 . S
Eu288 C352 2.787 . S
C289 N290 1.365 . S
C289 C292 1.405 . S
C289 C296 1.448 . S
N290 C289 1.365 . S
N290 C293 1.319 . S
N290 Eu299 2.600 . S
C291 C293 1.397 . S
C291 C294 1.367 . S
C291 H311 0.931 . S
C292 C289 1.405 . S
C292 C294 1.403 . S
C292 C298 1.439 . S
C293 N290 1.319 . S
C293 C291 1.397 . S
C293 H304 0.930 . S
C294 C291 1.367 . S
C294 C292 1.403 . S
C294 H315 0.929 . S
C295 C296 1.430 . S
C295 C297 1.387 . S
C295 C301 1.404 . S
C296 C289 1.448 . S
C296 C295 1.430 . S
C296 N300 1.351 . S
C297 C295 1.387 . S
C297 C298 1.374 . S
C297 H312 0.931 . S
C298 C292 1.439 . S
C298 C297 1.374 . S
C298 H313 0.931 . S
Eu299 N290 2.600 . S
Eu299 N300 2.562 . S
Eu299 O334 2.335 1_655 S
Eu299 O337 2.372 . S
Eu299 O338 2.462 . S
Eu299 O339 2.373 . S
Eu299 O341 2.432 . S
Eu299 O342 2.291 1_655 S
Eu299 C363 2.787 . S
N300 C296 1.351 . S
N300 Eu299 2.562 . S
N300 C302 1.325 . S
C301 C295 1.404 . S
C301 C303 1.366 . S
C301 H309 0.930 . S
C302 N300 1.325 . S
C302 C303 1.416 . S
C302 H308 0.929 . S
C303 C301 1.366 . S
C303 C302 1.416 . S
C303 H305 0.930 . S
H304 C293 0.930 . S
H305 C303 0.930 . S
H306 C321 0.930 . S
H307 C328 0.930 . S
H308 C302 0.929 . S
H309 C301 0.930 . S
H310 C324 0.929 . S
H311 C291 0.931 . S
H312 C297 0.931 . S
H313 C298 0.931 . S
H314 C319 0.931 . S
H315 C294 0.929 . S
H316 C327 0.930 . S
N317 Eu288 2.600 . S
N317 C318 1.365 . S
N317 C321 1.319 . S
C318 N317 1.365 . S
C318 C320 1.405 . S
C318 C326 1.448 . S
C319 H314 0.931 . S
C319 C321 1.397 . S
C319 C322 1.367 . S
C320 C318 1.405 . S
C320 C322 1.403 . S
C320 C353 1.439 . S
C321 H306 0.930 . S
C321 N317 1.319 . S
C321 C319 1.397 . S
C322 C319 1.367 . S
C322 C320 1.403 . S
C322 H329 0.929 . S
N323 Eu288 2.562 . S
N323 C324 1.325 . S
N323 C326 1.351 . S
C324 H310 0.929 . S
C324 N323 1.325 . S
C324 C328 1.416 . S
C325 C326 1.430 . S
C325 C327 1.404 . S
C325 C354 1.387 . S
C326 C318 1.448 . S
C326 N323 1.351 . S
C326 C325 1.430 . S
C327 H316 0.930 . S
C327 C325 1.404 . S
C327 C328 1.366 . S
C328 H307 0.930 . S
C328 C324 1.416 . S
C328 C327 1.366 . S
H329 C322 0.929 . S
H330 C353 0.931 . S
H331 C354 0.931 . S
O332 Eu288 2.462 . S
O332 C352 1.252 . S
O333 Eu288 2.373 . S
O333 C344 1.249 . S
O334 Eu299 2.335 1_455 S
O334 C344 1.264 . S
O335 Eu288 2.432 . S
O335 C352 1.268 . S
O336 Eu288 2.306 . S
O336 C351 1.237 1_455 S
O337 Eu299 2.372 . S
O337 C351 1.257 . S
O338 Eu299 2.462 . S
O338 C363 1.252 . S
O339 Eu299 2.373 . S
O339 C355 1.249 . S
O340 Eu288 2.335 . S
O340 C355 1.264 1_455 S
O341 Eu299 2.432 . S
O341 C363 1.268 . S
O342 Eu299 2.291 1_455 S
O342 C362 1.255 . S
O343 Eu288 2.372 . S
O343 C362 1.257 . S
C344 O333 1.249 . S
C344 O334 1.264 . S
C345 C348 1.382 . S
C345 C350 1.390 . S
C345 C352 1.506 . S
C346 C347 1.398 . S
C346 C350 1.392 . S
C347 C346 1.398 . S
C347 C349 1.372 . S
C347 H364 0.931 . S
C348 C345 1.382 . S
C348 C349 1.390 . S
C348 H365 0.931 . S
C349 C347 1.372 . S
C349 C348 1.390 . S
C349 H366 0.929 . S
C350 C345 1.390 . S
C350 C346 1.392 . S
C350 H367 0.930 . S
C351 O336 1.237 1_655 S
C351 O337 1.257 . S
C352 Eu288 2.787 . S
C352 O332 1.252 . S
C352 O335 1.268 . S
C352 C345 1.506 . S
C353 C320 1.439 . S
C353 H330 0.931 . S
C353 C354 1.374 . S
C354 C325 1.387 . S
C354 H331 0.931 . S
C354 C353 1.374 . S
C355 O339 1.249 . S
C355 O340 1.264 1_655 S
C356 C359 1.382 . S
C356 C360 1.390 . S
C356 C363 1.506 . S
C357 C358 1.398 . S
C357 C360 1.392 . S
C358 C357 1.398 . S
C358 C361 1.372 . S
C358 H368 0.931 . S
C359 C356 1.382 . S
C359 C361 1.390 . S
C359 H369 0.931 . S
C360 C356 1.390 . S
C360 C357 1.392 . S
C360 H370 0.930 . S
C361 C358 1.372 . S
C361 C359 1.390 . S
C361 H371 0.929 . S
C362 O342 1.255 . S
C362 O343 1.257 . S
C363 Eu299 2.787 . S
C363 O338 1.252 . S
C363 O341 1.268 . S
C363 C356 1.506 . S
H364 C347 0.931 . S
H365 C348 0.931 . S
H366 C349 0.929 . S
H367 C350 0.930 . S
H368 C358 0.931 . S
H369 C359 0.931 . S
H370 C360 0.930 . S
H371 C361 0.929 . S
Eu372 N401 2.600 . S
Eu372 N407 2.562 . S
Eu372 O416 2.462 . S
Eu372 O417 2.373 . S
Eu372 O419 2.432 . S
Eu372 O420 2.291 . S
Eu372 O424 2.335 . S
Eu372 O427 2.372 . S
Eu372 C436 2.787 . S
C373 N374 1.365 . S
C373 C376 1.405 . S
C373 C380 1.448 . S
N374 C373 1.365 . S
N374 C377 1.319 . S
N374 Eu383 2.600 . S
C375 C377 1.397 . S
C375 C378 1.367 . S
C375 H395 0.931 . S
C376 C373 1.405 . S
C376 C378 1.403 . S
C376 C382 1.439 . S
C377 N374 1.319 . S
C377 C375 1.397 . S
C377 H388 0.930 . S
C378 C375 1.367 . S
C378 C376 1.403 . S
C378 H399 0.929 . S
C379 C380 1.430 . S
C379 C381 1.387 . S
C379 C385 1.404 . S
C380 C373 1.448 . S
C380 C379 1.430 . S
C380 N384 1.351 . S
C381 C379 1.387 . S
C381 C382 1.374 . S
C381 H396 0.931 . S
C382 C376 1.439 . S
C382 C381 1.374 . S
C382 H397 0.931 . S
Eu383 N374 2.600 . S
Eu383 N384 2.562 . S
Eu383 O418 2.335 . S
Eu383 O421 2.372 . S
Eu383 O422 2.462 . S
Eu383 O423 2.373 . S
Eu383 O425 2.432 . S
Eu383 O426 2.291 . S
Eu383 C447 2.787 . S
N384 C380 1.351 . S
N384 Eu383 2.562 . S
N384 C386 1.325 . S
C385 C379 1.404 . S
C385 C387 1.366 . S
C385 H393 0.930 . S
C386 N384 1.325 . S
C386 C387 1.416 . S
C386 H392 0.929 . S
C387 C385 1.366 . S
C387 C386 1.416 . S
C387 H389 0.930 . S
H388 C377 0.930 . S
H389 C387 0.930 . S
H390 C405 0.930 . S
H391 C412 0.930 . S
H392 C386 0.929 . S
H393 C385 0.930 . S
H394 C408 0.929 . S
H395 C375 0.931 . S
H396 C381 0.931 . S
H397 C382 0.931 . S
H398 C403 0.931 . S
H399 C378 0.929 . S
H400 C411 0.930 . S
N401 Eu372 2.600 . S
N401 C402 1.365 . S
N401 C405 1.319 . S
C402 N401 1.365 . S
C402 C404 1.405 . S
C402 C410 1.448 . S
C403 H398 0.931 . S
C403 C405 1.397 . S
C403 C406 1.367 . S
C404 C402 1.405 . S
C404 C406 1.403 . S
C404 C437 1.439 . S
C405 H390 0.930 . S
C405 N401 1.319 . S
C405 C403 1.397 . S
C406 C403 1.367 . S
C406 C404 1.403 . S
C406 H413 0.929 . S
N407 Eu372 2.562 . S
N407 C408 1.325 . S
N407 C410 1.351 . S
C408 H394 0.929 . S
C408 N407 1.325 . S
C408 C412 1.416 . S
C409 C410 1.430 . S
C409 C411 1.404 . S
C409 C438 1.387 . S
C410 C402 1.448 . S
C410 N407 1.351 . S
C410 C409 1.430 . S
C411 H400 0.930 . S
C411 C409 1.404 . S
C411 C412 1.366 . S
C412 H391 0.930 . S
C412 C408 1.416 . S
C412 C411 1.366 . S
H413 C406 0.929 . S
H414 C437 0.931 . S
H415 C438 0.931 . S
O416 Eu372 2.462 . S
O416 C436 1.252 . S
O417 Eu372 2.373 . S
O417 C428 1.249 . S
O418 Eu383 2.335 . S
O418 C428 1.264 . S
O419 Eu372 2.432 . S
O419 C436 1.268 . S
O420 Eu372 2.291 . S
O420 C435 1.255 . S
O421 Eu383 2.372 . S
O421 C435 1.257 . S
O422 Eu383 2.462 . S
O422 C447 1.252 . S
O423 Eu383 2.373 . S
O423 C439 1.249 . S
O424 Eu372 2.335 . S
O424 C439 1.264 . S
O425 Eu383 2.432 . S
O425 C447 1.268 . S
O426 Eu383 2.291 . S
O426 C446 1.255 . S
O427 Eu372 2.372 . S
O427 C446 1.257 . S
C428 O417 1.249 . S
C428 O418 1.264 . S
C429 C432 1.382 . S
C429 C434 1.390 . S
C429 C436 1.506 . S
C430 C431 1.398 . S
C430 C434 1.392 . S
C431 C430 1.398 . S
C431 C433 1.372 . S
C431 H448 0.931 . S
C432 C429 1.382 . S
C432 C433 1.390 . S
C432 H449 0.931 . S
C433 C431 1.372 . S
C433 C432 1.390 . S
C433 H450 0.929 . S
C434 C429 1.390 . S
C434 C430 1.392 . S
C434 H451 0.930 . S
C435 O420 1.255 . S
C435 O421 1.257 . S
C436 Eu372 2.787 . S
C436 O416 1.252 . S
C436 O419 1.268 . S
C436 C429 1.506 . S
C437 C404 1.439 . S
C437 H414 0.931 . S
C437 C438 1.374 . S
C438 C409 1.387 . S
C438 H415 0.931 . S
C438 C437 1.374 . S
C439 O423 1.249 . S
C439 O424 1.264 . S
C440 C443 1.382 . S
C440 C444 1.390 . S
C440 C447 1.506 . S
C441 C442 1.398 . S
C441 C444 1.392 . S
C442 C441 1.398 . S
C442 C445 1.372 . S
C442 H452 0.931 . S
C443 C440 1.382 . S
C443 C445 1.390 . S
C443 H453 0.931 . S
C444 C440 1.390 . S
C444 C441 1.392 . S
C444 H454 0.930 . S
C445 C442 1.372 . S
C445 C443 1.390 . S
C445 H455 0.929 . S
C446 O426 1.255 . S
C446 O427 1.257 . S
C447 Eu383 2.787 . S
C447 O422 1.252 . S
C447 O425 1.268 . S
C447 C440 1.506 . S
H448 C431 0.931 . S
H449 C432 0.931 . S
H450 C433 0.929 . S
H451 C434 0.930 . S
H452 C442 0.931 . S
H453 C443 0.931 . S
H454 C444 0.930 . S
H455 C445 0.929 . S
Eu456 N485 2.600 . S
Eu456 N491 2.562 . S
Eu456 O500 2.462 . S
Eu456 O501 2.373 . S
Eu456 O503 2.432 . S
Eu456 O504 2.291 . S
Eu456 O508 2.335 . S
Eu456 O511 2.372 . S
Eu456 C520 2.787 . S
C457 N458 1.365 . S
C457 C460 1.405 . S
C457 C464 1.448 . S
N458 C457 1.365 . S
N458 C461 1.319 . S
N458 Eu467 2.600 . S
C459 C461 1.397 . S
C459 C462 1.367 . S
C459 H479 0.931 . S
C460 C457 1.405 . S
C460 C462 1.403 . S
C460 C466 1.439 . S
C461 N458 1.319 . S
C461 C459 1.397 . S
C461 H472 0.930 . S
C462 C459 1.367 . S
C462 C460 1.403 . S
C462 H483 0.929 . S
C463 C464 1.430 . S
C463 C465 1.387 . S
C463 C469 1.404 . S
C464 C457 1.448 . S
C464 C463 1.430 . S
C464 N468 1.351 . S
C465 C463 1.387 . S
C465 C466 1.374 . S
C465 H480 0.931 . S
C466 C460 1.439 . S
C466 C465 1.374 . S
C466 H481 0.931 . S
Eu467 N458 2.600 . S
Eu467 N468 2.562 . S
Eu467 O502 2.335 1_655 S
Eu467 O505 2.372 . S
Eu467 O506 2.462 . S
Eu467 O507 2.373 . S
Eu467 O509 2.432 . S
Eu467 O510 2.291 1_655 S
Eu467 C531 2.787 . S
N468 C464 1.351 . S
N468 Eu467 2.562 . S
N468 C470 1.325 . S
C469 C463 1.404 . S
C469 C471 1.366 . S
C469 H477 0.930 . S
C470 N468 1.325 . S
C470 C471 1.416 . S
C470 H476 0.929 . S
C471 C469 1.366 . S
C471 C470 1.416 . S
C471 H473 0.930 . S
H472 C461 0.930 . S
H473 C471 0.930 . S
H474 C489 0.930 . S
H475 C496 0.930 . S
H476 C470 0.929 . S
H477 C469 0.930 . S
H478 C492 0.929 . S
H479 C459 0.931 . S
H480 C465 0.931 . S
H481 C466 0.931 . S
H482 C487 0.931 . S
H483 C462 0.929 . S
H484 C495 0.930 . S
N485 Eu456 2.600 . S
N485 C486 1.365 . S
N485 C489 1.319 . S
C486 N485 1.365 . S
C486 C488 1.405 . S
C486 C494 1.448 . S
C487 H482 0.931 . S
C487 C489 1.397 . S
C487 C490 1.367 . S
C488 C486 1.405 . S
C488 C490 1.403 . S
C488 C521 1.439 . S
C489 H474 0.930 . S
C489 N485 1.319 . S
C489 C487 1.397 . S
C490 C487 1.367 . S
C490 C488 1.403 . S
C490 H497 0.929 . S
N491 Eu456 2.562 . S
N491 C492 1.325 . S
N491 C494 1.351 . S
C492 H478 0.929 . S
C492 N491 1.325 . S
C492 C496 1.416 . S
C493 C494 1.430 . S
C493 C495 1.404 . S
C493 C522 1.387 . S
C494 C486 1.448 . S
C494 N491 1.351 . S
C494 C493 1.430 . S
C495 H484 0.930 . S
C495 C493 1.404 . S
C495 C496 1.366 . S
C496 H475 0.930 . S
C496 C492 1.416 . S
C496 C495 1.366 . S
H497 C490 0.929 . S
H498 C521 0.931 . S
H499 C522 0.931 . S
O500 Eu456 2.462 . S
O500 C520 1.252 . S
O501 Eu456 2.373 . S
O501 C512 1.249 . S
O502 Eu467 2.335 1_455 S
O502 C512 1.264 . S
O503 Eu456 2.432 . S
O503 C520 1.268 . S
O504 Eu456 2.291 . S
O504 C519 1.255 1_455 S
O505 Eu467 2.372 . S
O505 C519 1.257 . S
O506 Eu467 2.462 . S
O506 C531 1.252 . S
O507 Eu467 2.373 . S
O507 C523 1.249 . S
O508 Eu456 2.335 . S
O508 C523 1.264 1_455 S
O509 Eu467 2.432 . S
O509 C531 1.268 . S
O510 Eu467 2.291 1_455 S
O510 C530 1.255 . S
O511 Eu456 2.372 . S
O511 C530 1.257 . S
C512 O501 1.249 . S
C512 O502 1.264 . S
C513 C516 1.382 . S
C513 C518 1.390 . S
C513 C520 1.506 . S
C514 C515 1.398 . S
C514 C518 1.392 . S
C515 C514 1.398 . S
C515 C517 1.372 . S
C515 H532 0.931 . S
C516 C513 1.382 . S
C516 C517 1.390 . S
C516 H533 0.931 . S
C517 C515 1.372 . S
C517 C516 1.390 . S
C517 H534 0.929 . S
C518 C513 1.390 . S
C518 C514 1.392 . S
C518 H535 0.930 . S
C519 O504 1.255 1_655 S
C519 O505 1.257 . S
C520 Eu456 2.787 . S
C520 O500 1.252 . S
C520 O503 1.268 . S
C520 C513 1.506 . S
C521 C488 1.439 . S
C521 H498 0.931 . S
C521 C522 1.374 . S
C522 C493 1.387 . S
C522 H499 0.931 . S
C522 C521 1.374 . S
C523 O507 1.249 . S
C523 O508 1.264 1_655 S
C524 C527 1.382 . S
C524 C528 1.390 . S
C524 C531 1.506 . S
C525 C526 1.398 . S
C525 C528 1.392 . S
C526 C525 1.398 . S
C526 C529 1.372 . S
C526 H536 0.931 . S
C527 C524 1.382 . S
C527 C529 1.390 . S
C527 H537 0.931 . S
C528 C524 1.390 . S
C528 C525 1.392 . S
C528 H538 0.930 . S
C529 C526 1.372 . S
C529 C527 1.390 . S
C529 H539 0.929 . S
C530 O510 1.255 . S
C530 O511 1.257 . S
C531 Eu467 2.787 . S
C531 O506 1.252 . S
C531 O509 1.268 . S
C531 C524 1.506 . S
H532 C515 0.931 . S
H533 C516 0.931 . S
H534 C517 0.929 . S
H535 C518 0.930 . S
H536 C526 0.931 . S
H537 C527 0.931 . S
H538 C528 0.930 . S
H539 C529 0.929 . S
Eu540 N569 2.600 . S
Eu540 N575 2.562 . S
Eu540 O584 2.462 . S
Eu540 O585 2.373 . S
Eu540 O587 2.432 . S
Eu540 O588 2.291 . S
Eu540 O592 2.335 . S
Eu540 O595 2.372 . S
Eu540 C604 2.787 . S
C541 N542 1.365 . S
C541 C544 1.405 . S
C541 C548 1.448 . S
N542 C541 1.365 . S
N542 C545 1.319 . S
N542 Eu551 2.600 . S
C543 C545 1.397 . S
C543 C546 1.367 . S
C543 H563 0.931 . S
C544 C541 1.405 . S
C544 C546 1.403 . S
C544 C550 1.439 . S
C545 N542 1.319 . S
C545 C543 1.397 . S
C545 H556 0.930 . S
C546 C543 1.367 . S
C546 C544 1.403 . S
C546 H567 0.929 . S
C547 C548 1.430 . S
C547 C549 1.387 . S
C547 C553 1.404 . S
C548 C541 1.448 . S
C548 C547 1.430 . S
C548 N552 1.351 . S
C549 C547 1.387 . S
C549 C550 1.374 . S
C549 H564 0.931 . S
C550 C544 1.439 . S
C550 C549 1.374 . S
C550 H565 0.931 . S
Eu551 N542 2.600 . S
Eu551 N552 2.562 . S
Eu551 O586 2.335 . S
Eu551 O589 2.372 . S
Eu551 O590 2.462 . S
Eu551 O591 2.373 . S
Eu551 O593 2.432 . S
Eu551 O594 2.291 . S
Eu551 C615 2.787 . S
N552 C548 1.351 . S
N552 Eu551 2.562 . S
N552 C554 1.325 . S
C553 C547 1.404 . S
C553 C555 1.366 . S
C553 H561 0.930 . S
C554 N552 1.325 . S
C554 C555 1.416 . S
C554 H560 0.929 . S
C555 C553 1.366 . S
C555 C554 1.416 . S
C555 H557 0.930 . S
H556 C545 0.930 . S
H557 C555 0.930 . S
H558 C573 0.930 . S
H559 C580 0.930 . S
H560 C554 0.929 . S
H561 C553 0.930 . S
H562 C576 0.929 . S
H563 C543 0.931 . S
H564 C549 0.931 . S
H565 C550 0.931 . S
H566 C571 0.931 . S
H567 C546 0.929 . S
H568 C579 0.930 . S
N569 Eu540 2.600 . S
N569 C570 1.365 . S
N569 C573 1.319 . S
C570 N569 1.365 . S
C570 C572 1.405 . S
C570 C578 1.448 . S
C571 H566 0.931 . S
C571 C573 1.397 . S
C571 C574 1.367 . S
C572 C570 1.405 . S
C572 C574 1.403 . S
C572 C605 1.439 . S
C573 H558 0.930 . S
C573 N569 1.319 . S
C573 C571 1.397 . S
C574 C571 1.367 . S
C574 C572 1.403 . S
C574 H581 0.929 . S
N575 Eu540 2.562 . S
N575 C576 1.325 . S
N575 C578 1.351 . S
C576 H562 0.929 . S
C576 N575 1.325 . S
C576 C580 1.416 . S
C577 C578 1.430 . S
C577 C579 1.404 . S
C577 C606 1.387 . S
C578 C570 1.448 . S
C578 N575 1.351 . S
C578 C577 1.430 . S
C579 H568 0.930 . S
C579 C577 1.404 . S
C579 C580 1.366 . S
C580 H559 0.930 . S
C580 C576 1.416 . S
C580 C579 1.366 . S
H581 C574 0.929 . S
H582 C605 0.931 . S
H583 C606 0.931 . S
O584 Eu540 2.462 . S
O584 C604 1.252 . S
O585 Eu540 2.373 . S
O585 C596 1.249 . S
O586 Eu551 2.335 . S
O586 C596 1.264 . S
O587 Eu540 2.432 . S
O587 C604 1.268 . S
O588 Eu540 2.291 . S
O588 C603 1.255 . S
O589 Eu551 2.372 . S
O589 C603 1.257 . S
O590 Eu551 2.462 . S
O590 C615 1.252 . S
O591 Eu551 2.373 . S
O591 C607 1.249 . S
O592 Eu540 2.335 . S
O592 C607 1.264 . S
O593 Eu551 2.432 . S
O593 C615 1.268 . S
O594 Eu551 2.291 . S
O594 C614 1.255 . S
O595 Eu540 2.372 . S
O595 C614 1.257 . S
C596 O585 1.249 . S
C596 O586 1.264 . S
C597 C600 1.382 . S
C597 C602 1.390 . S
C597 C604 1.506 . S
C598 C599 1.398 . S
C598 C602 1.392 . S
C599 C598 1.398 . S
C599 C601 1.372 . S
C599 H616 0.931 . S
C600 C597 1.382 . S
C600 C601 1.390 . S
C600 H617 0.931 . S
C601 C599 1.372 . S
C601 C600 1.390 . S
C601 H618 0.929 . S
C602 C597 1.390 . S
C602 C598 1.392 . S
C602 H619 0.930 . S
C603 O588 1.255 . S
C603 O589 1.257 . S
C604 Eu540 2.787 . S
C604 O584 1.252 . S
C604 O587 1.268 . S
C604 C597 1.506 . S
C605 C572 1.439 . S
C605 H582 0.931 . S
C605 C606 1.374 . S
C606 C577 1.387 . S
C606 H583 0.931 . S
C606 C605 1.374 . S
C607 O591 1.249 . S
C607 O592 1.264 . S
C608 C611 1.382 . S
C608 C612 1.390 . S
C608 C615 1.506 . S
C609 C610 1.398 . S
C609 C612 1.392 . S
C610 C609 1.398 . S
C610 C613 1.372 . S
C610 H620 0.931 . S
C611 C608 1.382 . S
C611 C613 1.390 . S
C611 H621 0.931 . S
C612 C608 1.390 . S
C612 C609 1.392 . S
C612 H622 0.930 . S
C613 C610 1.372 . S
C613 C611 1.390 . S
C613 H623 0.929 . S
C614 O594 1.255 . S
C614 O595 1.257 . S
C615 Eu551 2.787 . S
C615 O590 1.252 . S
C615 O593 1.268 . S
C615 C608 1.506 . S
H616 C599 0.931 . S
H617 C600 0.931 . S
H618 C601 0.929 . S
H619 C602 0.930 . S
H620 C610 0.931 . S
H621 C611 0.931 . S
H622 C612 0.930 . S
H623 C613 0.929 . S
C624 C625 1.369 . S
C624 C626 1.419 . S
C624 H628 0.930 . S
C625 C624 1.369 . S
C625 C634 1.429 . S
C626 C624 1.419 . S
C626 C627 1.363 . S
C626 H629 0.929 . S
C627 C626 1.363 . S
C627 C633 1.428 . S
H628 C624 0.930 . S
H629 C626 0.929 . S
S630 N631 1.613 1_655 S
S630 N632 1.610 1_655 S
N631 S630 1.613 1_455 S
N631 C634 1.350 . S
N632 S630 1.610 1_455 S
N632 C633 1.351 . S
C633 C627 1.428 . S
C633 N632 1.351 . S
C633 C634 1.434 . S
C634 C625 1.429 . S
C634 N631 1.350 . S
C634 C633 1.434 . S
C635 C636 1.369 . S
C635 C637 1.419 . S
C635 H639 0.930 . S
C636 C635 1.369 . S
C636 C645 1.429 . S
C637 C635 1.419 . S
C637 C638 1.363 . S
C637 H640 0.929 . S
C638 C637 1.363 . S
C638 C644 1.428 . S
H639 C635 0.930 . S
H640 C637 0.929 . S
S641 N642 1.613 . S
S641 N643 1.610 . S
N642 S641 1.613 . S
N642 C645 1.350 . S
N643 S641 1.610 . S
N643 C644 1.351 . S
C644 C638 1.428 . S
C644 N643 1.351 . S
C644 C645 1.434 . S
C645 C636 1.429 . S
C645 N642 1.350 . S
C645 C644 1.434 . S
C646 C647 1.369 . S
C646 C648 1.419 . S
C646 H650 0.930 . S
C647 C646 1.369 . S
C647 C656 1.429 . S
C648 C646 1.419 . S
C648 C649 1.363 . S
C648 H651 0.929 . S
C649 C648 1.363 . S
C649 C655 1.428 . S
H650 C646 0.930 . S
H651 C648 0.929 . S
S652 N653 1.613 . S
S652 N654 1.610 . S
N653 S652 1.613 . S
N653 C656 1.350 . S
N654 S652 1.610 . S
N654 C655 1.351 . S
C655 C649 1.428 . S
C655 N654 1.351 . S
C655 C656 1.434 . S
C656 C647 1.429 . S
C656 N653 1.350 . S
C656 C655 1.434 . S
C657 C658 1.369 . S
C657 C659 1.419 . S
C657 H661 0.930 . S
C658 C657 1.369 . S
C658 C667 1.429 . S
C659 C657 1.419 . S
C659 C660 1.363 . S
C659 H662 0.929 . S
C660 C659 1.363 . S
C660 C666 1.428 . S
H661 C657 0.930 . S
H662 C659 0.929 . S
S663 N664 1.613 1_455 S
S663 N665 1.610 1_565 S
N664 S663 1.613 1_655 S
N664 C667 1.350 1_565 S
N665 S663 1.610 1_545 S
N665 C666 1.351 1_455 S
C666 C660 1.428 . S
C666 N665 1.351 1_655 S
C666 C667 1.434 . S
C667 C658 1.429 . S
C667 N664 1.350 1_545 S
C667 C666 1.434 . S
C668 C669 1.369 . S
C668 C670 1.419 . S
C668 H672 0.930 1_565 S
C669 C668 1.369 . S
C669 C678 1.429 . S
C670 C668 1.419 . S
C670 C671 1.363 . S
C670 H673 0.929 . S
C671 C670 1.363 . S
C671 C677 1.428 . S
H672 C668 0.930 1_545 S
H673 C670 0.929 . S
S674 N675 1.613 . S
S674 N676 1.610 . S
N675 S674 1.613 . S
N675 C678 1.350 . S
N676 S674 1.610 . S
N676 C677 1.351 . S
C677 C671 1.428 . S
C677 N676 1.351 . S
C677 C678 1.434 . S
C678 C669 1.429 . S
C678 N675 1.350 . S
C678 C677 1.434 . S
C679 C680 1.369 . S
C679 C681 1.419 . S
C679 H683 0.930 . S
C680 C679 1.369 . S
C680 C689 1.429 . S
C681 C679 1.419 . S
C681 C682 1.363 . S
C681 H684 0.929 . S
C682 C681 1.363 . S
C682 C688 1.428 . S
H683 C679 0.930 . S
H684 C681 0.929 . S
S685 N686 1.613 . S
S685 N687 1.610 . S
N686 S685 1.613 . S
N686 C689 1.350 . S
N687 S685 1.610 . S
N687 C688 1.351 . S
C688 C682 1.428 . S
C688 N687 1.351 . S
C688 C689 1.434 . S
C689 C680 1.429 . S
C689 N686 1.350 . S
C689 C688 1.434 . S
C690 C691 1.369 . S
C690 C692 1.419 . S
C690 H694 0.930 . S
C691 C690 1.369 . S
C691 C700 1.429 . S
C692 C690 1.419 . S
C692 C693 1.363 . S
C692 H695 0.929 . S
C693 C692 1.363 . S
C693 C699 1.428 . S
H694 C690 0.930 . S
H695 C692 0.929 . S
S696 N697 1.613 . S
S696 N698 1.610 . S
N697 S696 1.613 . S
N697 C700 1.350 . S
N698 S696 1.610 . S
N698 C699 1.351 . S
C699 C693 1.428 . S
C699 N698 1.351 . S
C699 C700 1.434 . S
C700 C691 1.429 . S
C700 N697 1.350 . S
C700 C699 1.434 . S
C701 C702 1.369 . S
C701 C703 1.419 . S
C701 H705 0.930 . S
C702 C701 1.369 . S
C702 C711 1.429 . S
C703 C701 1.419 . S
C703 C704 1.363 . S
C703 H706 0.929 . S
C704 C703 1.363 . S
C704 C710 1.428 . S
H705 C701 0.930 . S
H706 C703 0.929 . S
S707 N708 1.613 . S
S707 N709 1.610 1_545 S
N708 S707 1.613 . S
N708 C711 1.350 1_545 S
N709 S707 1.610 1_565 S
N709 C710 1.351 . S
C710 C704 1.428 . S
C710 N709 1.351 . S
C710 C711 1.434 . S
C711 C702 1.429 . S
C711 N708 1.350 1_565 S
C711 C710 1.434 . S
C712 C713 1.369 . S
C712 C714 1.419 . S
C712 H716 0.930 . S
C713 C712 1.369 . S
C713 C722 1.429 . S
C714 C712 1.419 . S
C714 C715 1.363 . S
C714 H717 0.929 . S
C715 C714 1.363 . S
C715 C721 1.428 . S
H716 C712 0.930 . S
H717 C714 0.929 . S
S718 N719 1.613 . S
S718 N720 1.610 . S
N719 S718 1.613 . S
N719 C722 1.350 . S
N720 S718 1.610 . S
N720 C721 1.351 . S
C721 C715 1.428 . S
C721 N720 1.351 . S
C721 C722 1.434 . S
C722 C713 1.429 . S
C722 N719 1.350 . S
C722 C721 1.434 . S
C723 C724 1.369 . S
C723 C725 1.419 . S
C723 H727 0.930 . S
C724 C723 1.369 . S
C724 C733 1.429 . S
C725 C723 1.419 . S
C725 C726 1.363 . S
C725 H728 0.929 . S
C726 C725 1.363 . S
C726 C732 1.428 . S
H727 C723 0.930 . S
H728 C725 0.929 . S
S729 N730 1.613 . S
S729 N731 1.610 . S
N730 S729 1.613 . S
N730 C733 1.350 . S
N731 S729 1.610 . S
N731 C732 1.351 . S
C732 C726 1.428 . S
C732 N731 1.351 . S
C732 C733 1.434 . S
C733 C724 1.429 . S
C733 N730 1.350 . S
C733 C732 1.434 . S
C734 C735 1.369 . S
C734 C736 1.419 . S
C734 H738 0.930 . S
C735 C734 1.369 . S
C735 C744 1.429 . S
C736 C734 1.419 . S
C736 C737 1.363 . S
C736 H739 0.929 . S
C737 C736 1.363 . S
C737 C743 1.428 . S
H738 C734 0.930 . S
H739 C736 0.929 . S
S740 N741 1.613 . S
S740 N742 1.610 . S
N741 S740 1.613 . S
N741 C744 1.350 . S
N742 S740 1.610 . S
N742 C743 1.351 . S
C743 C737 1.428 . S
C743 N742 1.351 . S
C743 C744 1.434 . S
C744 C735 1.429 . S
C744 N741 1.350 . S
C744 C743 1.434 . S
C745 C746 1.369 . S
C745 C747 1.419 . S
C745 H749 0.930 . S
C746 C745 1.369 . S
C746 C755 1.429 . S
C747 C745 1.419 . S
C747 C748 1.363 . S
C747 H750 0.929 . S
C748 C747 1.363 . S
C748 C754 1.428 . S
H749 C745 0.930 . S
H750 C747 0.929 . S
S751 N752 1.613 . S
S751 N753 1.610 . S
N752 S751 1.613 . S
N752 C755 1.350 . S
N753 S751 1.610 . S
N753 C754 1.351 . S
C754 C748 1.428 . S
C754 N753 1.351 . S
C754 C755 1.434 . S
C755 C746 1.429 . S
C755 N752 1.350 . S
C755 C754 1.434 . S
C756 C757 1.369 . S
C756 C758 1.419 . S
C756 H760 0.930 . S
C757 C756 1.369 . S
C757 C766 1.429 . S
C758 C756 1.419 . S
C758 C759 1.363 . S
C758 H761 0.929 . S
C759 C758 1.363 . S
C759 C765 1.428 . S
H760 C756 0.930 . S
H761 C758 0.929 . S
S762 N763 1.613 . S
S762 N764 1.610 . S
N763 S762 1.613 . S
N763 C766 1.350 . S
N764 S762 1.610 . S
N764 C765 1.351 . S
C765 C759 1.428 . S
C765 N764 1.351 . S
C765 C766 1.434 . S
C766 C757 1.429 . S
C766 N763 1.350 . S
C766 C765 1.434 . S
C767 C768 1.369 . S
C767 C769 1.419 . S
C767 H771 0.930 . S
C768 C767 1.369 . S
C768 C777 1.429 . S
C769 C767 1.419 . S
C769 C770 1.363 . S
C769 H772 0.929 . S
C770 C769 1.363 . S
C770 C776 1.428 . S
H771 C767 0.930 . S
H772 C769 0.929 . S
S773 N774 1.613 . S
S773 N775 1.610 . S
N774 S773 1.613 . S
N774 C777 1.350 . S
N775 S773 1.610 . S
N775 C776 1.351 . S
C776 C770 1.428 . S
C776 N775 1.351 . S
C776 C777 1.434 . S
C777 C768 1.429 . S
C777 N774 1.350 . S
C777 C776 1.434 . S
C778 C779 1.369 . S
C778 C780 1.419 . S
C778 H782 0.930 . S
C779 C778 1.369 . S
C779 C788 1.429 . S
C780 C778 1.419 . S
C780 C781 1.363 . S
C780 H783 0.929 . S
C781 C780 1.363 . S
C781 C787 1.428 . S
H782 C778 0.930 . S
H783 C780 0.929 . S
S784 N785 1.613 . S
S784 N786 1.610 . S
N785 S784 1.613 . S
N785 C788 1.350 . S
N786 S784 1.610 . S
N786 C787 1.351 . S
C787 C781 1.428 . S
C787 N786 1.351 . S
C787 C788 1.434 . S
C788 C779 1.429 . S
C788 N785 1.350 . S
C788 C787 1.434 . S
C789 C790 1.369 . S
C789 C791 1.419 . S
C789 H793 0.930 . S
C790 C789 1.369 . S
C790 C799 1.429 . S
C791 C789 1.419 . S
C791 C792 1.363 . S
C791 H794 0.929 . S
C792 C791 1.363 . S
C792 C798 1.428 . S
H793 C789 0.930 . S
H794 C791 0.929 . S
S795 N796 1.613 . S
S795 N797 1.610 . S
N796 S795 1.613 . S
N796 C799 1.350 . S
N797 S795 1.610 . S
N797 C798 1.351 . S
C798 C792 1.428 . S
C798 N797 1.351 . S
C798 C799 1.434 . S
C799 C790 1.429 . S
C799 N796 1.350 . S
C799 C798 1.434 . S
C800 C801 1.369 . S
C800 C802 1.419 . S
C800 H804 0.930 . S
C801 C800 1.369 . S
C801 C810 1.429 . S
C802 C800 1.419 . S
C802 C803 1.363 . S
C802 H805 0.929 . S
C803 C802 1.363 . S
C803 C809 1.428 . S
H804 C800 0.930 . S
H805 C802 0.929 . S
S806 N807 1.613 . S
S806 N808 1.610 . S
N807 S806 1.613 . S
N807 C810 1.350 . S
N808 S806 1.610 . S
N808 C809 1.351 . S
C809 C803 1.428 . S
C809 N808 1.351 . S
C809 C810 1.434 . S
C810 C801 1.429 . S
C810 N807 1.350 . S
C810 C809 1.434 . S
C811 C812 1.369 . S
C811 C813 1.419 . S
C811 H815 0.930 . S
C812 C811 1.369 . S
C812 C821 1.429 . S
C813 C811 1.419 . S
C813 C814 1.363 . S
C813 H816 0.929 . S
C814 C813 1.363 . S
C814 C820 1.428 . S
H815 C811 0.930 . S
H816 C813 0.929 . S
S817 N818 1.613 . S
S817 N819 1.610 . S
N818 S817 1.613 . S
N818 C821 1.350 . S
N819 S817 1.610 . S
N819 C820 1.351 . S
C820 C814 1.428 . S
C820 N819 1.351 . S
C820 C821 1.434 . S
C821 C812 1.429 . S
C821 N818 1.350 . S
C821 C820 1.434 . S
C822 C823 1.369 . S
C822 C824 1.419 . S
C822 H826 0.930 . S
C823 C822 1.369 . S
C823 C832 1.429 . S
C824 C822 1.419 . S
C824 C825 1.363 . S
C824 H827 0.929 . S
C825 C824 1.363 . S
C825 C831 1.428 . S
H826 C822 0.930 . S
H827 C824 0.929 . S
S828 N829 1.613 . S
S828 N830 1.610 . S
N829 S828 1.613 . S
N829 C832 1.350 . S
N830 S828 1.610 . S
N830 C831 1.351 . S
C831 C825 1.428 . S
C831 N830 1.351 . S
C831 C832 1.434 . S
C832 C823 1.429 . S
C832 N829 1.350 . S
C832 C831 1.434 . S
C833 C834 1.369 . S
C833 C835 1.419 . S
C833 H837 0.930 . S
C834 C833 1.369 . S
C834 C843 1.429 . S
C835 C833 1.419 . S
C835 C836 1.363 . S
C835 H838 0.929 1_655 S
C836 C835 1.363 . S
C836 C842 1.428 . S
H837 C833 0.930 . S
H838 C835 0.929 1_455 S
S839 N840 1.613 . S
S839 N841 1.610 . S
N840 S839 1.613 . S
N840 C843 1.350 . S
N841 S839 1.610 . S
N841 C842 1.351 . S
C842 C836 1.428 . S
C842 N841 1.351 . S
C842 C843 1.434 . S
C843 C834 1.429 . S
C843 N840 1.350 . S
C843 C842 1.434 . S
C844 C845 1.369 . S
C844 C846 1.419 . S
C844 H848 0.930 . S
C845 C844 1.369 . S
C845 C854 1.429 . S
C846 C844 1.419 . S
C846 C847 1.363 . S
C846 H849 0.929 . S
C847 C846 1.363 . S
C847 C853 1.428 . S
H848 C844 0.930 . S
H849 C846 0.929 . S
S850 N851 1.613 1_455 S
S850 N852 1.610 . S
N851 S850 1.613 1_655 S
N851 C854 1.350 . S
N852 S850 1.610 . S
N852 C853 1.351 1_455 S
C853 C847 1.428 . S
C853 N852 1.351 1_655 S
C853 C854 1.434 . S
C854 C845 1.429 . S
C854 N851 1.350 . S
C854 C853 1.434 . S
C855 C856 1.369 . S
C855 C857 1.419 . S
C855 H859 0.930 . S
C856 C855 1.369 . S
C856 C865 1.429 . S
C857 C855 1.419 . S
C857 C858 1.363 . S
C857 H860 0.929 . S
C858 C857 1.363 . S
C858 C864 1.428 . S
H859 C855 0.930 . S
H860 C857 0.929 . S
S861 N862 1.613 . S
S861 N863 1.610 . S
N862 S861 1.613 . S
N862 C865 1.350 . S
N863 S861 1.610 . S
N863 C864 1.351 . S
C864 C858 1.428 . S
C864 N863 1.351 . S
C864 C865 1.434 . S
C865 C856 1.429 . S
C865 N862 1.350 . S
C865 C864 1.434 . S
C866 C867 1.369 . S
C866 C868 1.419 . S
C866 H870 0.930 . S
C867 C866 1.369 . S
C867 C876 1.429 . S
C868 C866 1.419 . S
C868 C869 1.363 . S
C868 H871 0.929 . S
C869 C868 1.363 . S
C869 C875 1.428 . S
H870 C866 0.930 . S
H871 C868 0.929 . S
S872 N873 1.613 . S
S872 N874 1.610 . S
N873 S872 1.613 . S
N873 C876 1.350 . S
N874 S872 1.610 . S
N874 C875 1.351 . S
C875 C869 1.428 . S
C875 N874 1.351 . S
C875 C876 1.434 . S
C876 C867 1.429 . S
C876 N873 1.350 . S
C876 C875 1.434 . S
C877 C878 1.369 . S
C877 C879 1.419 . S
C877 H881 0.930 . S
C878 C877 1.369 . S
C878 C887 1.429 . S
C879 C877 1.419 . S
C879 C880 1.363 . S
C879 H882 0.929 . S
C880 C879 1.363 . S
C880 C886 1.428 . S
H881 C877 0.930 . S
H882 C879 0.929 . S
S883 N884 1.613 . S
S883 N885 1.610 . S
N884 S883 1.613 . S
N884 C887 1.350 . S
N885 S883 1.610 . S
N885 C886 1.351 . S
C886 C880 1.428 . S
C886 N885 1.351 . S
C886 C887 1.434 . S
C887 C878 1.429 . S
C887 N884 1.350 . S
C887 C886 1.434 . S
C625 C247 1.488 1_545 S
C627 C362 1.473 . S
C638 C446 1.473 . S
C636 C283 1.489 . S
C649 C439 1.476 . S
C647 C175 1.487 . S
C658 C211 1.486 1_545 S
C660 C355 1.479 . S
C671 C519 1.473 . S
C669 C103 1.474 1_565 S
C682 C603 1.470 . S
C680 C139 1.473 . S
C691 C31 1.464 . S
C693 C596 1.479 . S
C702 C67 1.463 1_565 S
C704 C512 1.479 . S
C715 C346 1.319 . S
C713 C37 1.511 . S
C726 C430 1.318 . S
C724 C1 1.511 . S
C737 C441 1.395 . S
C735 C109 1.527 . S
C748 C357 1.403 . S
C746 C73 1.526 . S
C759 C525 1.322 . S
C757 C181 1.528 . S
C768 C145 1.527 . S
C770 C609 1.321 . S
C781 C598 1.405 . S
C779 C253 1.574 . S
C790 C217 1.539 . S
C792 C514 1.404 . S
C803 C344 1.573 . S
C801 C25 1.543 . S
C814 C428 1.576 . S
C812 C61 1.539 . S
C823 C97 1.534 . S
C825 C435 1.563 . S
C836 C351 1.562 . S
C834 C133 1.532 . S
C847 C523 1.575 . S
C845 C169 1.566 . S
C856 C205 1.565 . S
C858 C607 1.576 . S
C867 C241 1.555 . S
C869 C614 1.560 . S
C878 C277 1.559 . S
C880 C530 1.563 . S
