# Generated by pormake.
# Topology zzz, (3,6)-cn, num edge types: 1
# Building blocks:
#     Node 0, Type 0, BuildingBlock: QEWDON_clean_linker_0, # of connection points: 3
#     Node 1, Type 0, BuildingBlock: QEWDON_clean_linker_0, # of connection points: 3
#     Node 2, Type 0, BuildingBlock: QEWDON_clean_linker_0, # of connection points: 3
#     Node 3, Type 0, BuildingBlock: QEWDON_clean_linker_0, # of connection points: 3
#     Node 4, Type 0, BuildingBlock: QEWDON_clean_linker_0, # of connection points: 3
#     Node 5, Type 0, BuildingBlock: QEWDON_clean_linker_0, # of connection points: 3
#     Node 6, Type 0, BuildingBlock: QEWDON_clean_linker_0, # of connection points: 3
#     Node 7, Type 0, BuildingBlock: QEWDON_clean_linker_0, # of connection points: 3
#     Node 8, Type 1, BuildingBlock: GEDQOX_clean_sbu_0, # of connection points: 6
#     Node 9, Type 1, BuildingBlock: GEDQOX_clean_sbu_0, # of connection points: 6
#     Node 10, Type 1, BuildingBlock: GEDQOX_clean_sbu_0, # of connection points: 6
#     Node 11, Type 1, BuildingBlock: GEDQOX_clean_sbu_0, # of connection points: 6
#     Edge 12, Type (0, 1), BuildingBlock: OJICUG_clean_linker_0, # of connection points: 2
#     Edge 13, Type (0, 1), BuildingBlock: OJICUG_clean_linker_0, # of connection points: 2
#     Edge 14, Type (0, 1), BuildingBlock: OJICUG_clean_linker_0, # of connection points: 2
#     Edge 15, Type (0, 1), BuildingBlock: OJICUG_clean_linker_0, # of connection points: 2
#     Edge 16, Type (0, 1), BuildingBlock: OJICUG_clean_linker_0, # of connection points: 2
#     Edge 17, Type (0, 1), BuildingBlock: OJICUG_clean_linker_0, # of connection points: 2
#     Edge 18, Type (0, 1), BuildingBlock: OJICUG_clean_linker_0, # of connection points: 2
#     Edge 19, Type (0, 1), BuildingBlock: OJICUG_clean_linker_0, # of connection points: 2
#     Edge 20, Type (0, 1), BuildingBlock: OJICUG_clean_linker_0, # of connection points: 2
#     Edge 21, Type (0, 1), BuildingBlock: OJICUG_clean_linker_0, # of connection points: 2
#     Edge 22, Type (0, 1), BuildingBlock: OJICUG_clean_linker_0, # of connection points: 2
#     Edge 23, Type (0, 1), BuildingBlock: OJICUG_clean_linker_0, # of connection points: 2
#     Edge 24, Type (0, 1), BuildingBlock: OJICUG_clean_linker_0, # of connection points: 2
#     Edge 25, Type (0, 1), BuildingBlock: OJICUG_clean_linker_0, # of connection points: 2
#     Edge 26, Type (0, 1), BuildingBlock: OJICUG_clean_linker_0, # of connection points: 2
#     Edge 27, Type (0, 1), BuildingBlock: OJICUG_clean_linker_0, # of connection points: 2
#     Edge 28, Type (0, 1), BuildingBlock: OJICUG_clean_linker_0, # of connection points: 2
#     Edge 29, Type (0, 1), BuildingBlock: OJICUG_clean_linker_0, # of connection points: 2
#     Edge 30, Type (0, 1), BuildingBlock: OJICUG_clean_linker_0, # of connection points: 2
#     Edge 31, Type (0, 1), BuildingBlock: OJICUG_clean_linker_0, # of connection points: 2
#     Edge 32, Type (0, 1), BuildingBlock: OJICUG_clean_linker_0, # of connection points: 2
#     Edge 33, Type (0, 1), BuildingBlock: OJICUG_clean_linker_0, # of connection points: 2
#     Edge 34, Type (0, 1), BuildingBlock: OJICUG_clean_linker_0, # of connection points: 2
#     Edge 35, Type (0, 1), BuildingBlock: OJICUG_clean_linker_0, # of connection points: 2
# Relax obj value: 0.081
# Max RMSD: 0.188
# Mean RMSD: 0.070
data_MOF--net-zzz--node1-GEDQOX_clean_sbu_0--node2-QEWDON_clean_linker_0--edge1-OJICUG_clean_linker_0
_symmetry_space_group_name_H-M    P1
_symmetry_Int_Tables_number       1
_symmetry_cell_setting            triclinic
loop_
_symmetry_equiv_pos_as_xyz
'x, y, z'
_cell_length_a     42.550935
_cell_length_b     41.308433
_cell_length_c     13.694095
_cell_angle_alpha  78.202832
_cell_angle_beta   88.909798
_cell_angle_gamma 99.744678
loop_
_atom_site_label
_atom_site_type_symbol
_atom_site_fract_x
_atom_site_fract_y
_atom_site_fract_z
_atom_type_partial_charge
H0 H 0.82758 0.5606 0.056 0.0
C1 C 0.82922 0.56068 0.13485 0.0
C2 C 0.85459 0.54842 0.18657 0.0
C3 C 0.80756 0.57578 0.18229 0.0
H4 H 0.87794 0.54336 0.32498 0.0
C5 C 0.8573 0.5506 0.28674 0.0
C6 C 0.83733 0.56731 0.33321 0.0
C7 C 0.81215 0.57951 0.28124 0.0
C8 C 0.78618 0.59563 0.12124 0.0
H9 H 0.79775 0.59406 0.31484 0.0
C10 C 0.75264 0.58513 0.12438 0.0
C11 C 0.73339 0.60562 0.06571 0.0
C12 C 0.80013 0.6266 0.06086 0.0
H13 H 0.82573 0.63513 0.05803 0.0
C14 C 0.7813 0.64717 0.00531 0.0
H15 H 0.74187 0.56106 0.17027 0.0
C16 C 0.74833 0.63697 0.00799 0.0
H17 H 0.73447 0.65395 0.96482 0.0
H18 H 0.7923 0.67126 0.9601 0.0
H19 H 0.04638 0.82948 0.15284 0.0
C20 C 0.04464 0.83157 0.23031 0.0
C21 C 0.05586 0.86265 0.2562 0.0
C22 C 0.02848 0.80412 0.30287 0.0
H23 H 0.05966 0.88957 0.37549 0.0
C24 C 0.05236 0.86534 0.35578 0.0
C25 C 0.03476 0.83935 0.42734 0.0
C26 C 1.02263 0.80865 0.40095 0.0
C27 C 1.01223 0.77335 0.27139 0.0
H28 H 1.00773 0.78892 0.45501 0.0
C29 C 0.02931 0.75151 0.23348 0.0
C30 C 1.0127 0.72332 0.20038 0.0
C31 C 0.97872 0.76651 0.27644 0.0
H32 H 0.96514 0.78291 0.30471 0.0
C33 C 0.96236 0.73894 0.24332 0.0
H34 H 0.05518 0.75639 0.22989 0.0
C35 C 0.97913 0.7176 0.20532 0.0
H36 H 0.96575 0.69605 0.18171 0.0
H37 H 0.93651 0.73404 0.2473 0.0
H38 H 0.77223 0.07843 0.00202 0.0
C39 C 0.76627 0.0694 0.08136 0.0
C40 C 0.73955 0.07806 0.12503 0.0
C41 C 0.78392 0.04692 0.13749 0.0
H42 H 0.71031 0.06996 0.26127 0.0
C43 C 0.7318 0.06517 0.22714 0.0
C44 C 0.74888 0.04249 0.28364 0.0
C45 C 0.77517 0.03351 0.23913 0.0
C46 C 0.80737 0.03302 0.08468 0.0
H47 H 0.78731 1.01457 0.28125 0.0
C48 C 0.84018 0.03915 0.10152 0.0
C49 C 0.86212 1.02765 0.04414 0.0
C50 C 0.7966 1.01436 0.01308 0.0
H51 H 0.77142 1.00932 -0.00063 0.0
C52 C 0.81815 1.00215 0.95837 0.0
H53 H 0.84867 0.05401 0.15553 0.0
C54 C 0.85071 1.00891 0.97316 0.0
H55 H 0.8671 0.9996 0.92875 0.0
H56 H 0.80962 0.98777 0.90339 0.0
H57 H 0.54075 0.82503 0.33048 0.0
C58 C 0.54242 0.8088 0.40245 0.0
C59 C 0.52296 0.77694 0.42573 0.0
C60 C 0.5655 0.81868 0.46815 0.0
H61 H 0.51225 0.72986 0.53221 0.0
C62 C 0.52608 0.75514 0.51637 0.0
C63 C 0.54954 0.76363 0.58116 0.0
C64 C 0.56919 0.7955 0.55737 0.0
C65 C 0.58755 0.85177 0.4382 0.0
H66 H 0.58742 0.8019 0.60774 0.0
C67 C 0.57679 0.88066 0.38482 0.0
C68 C 0.59816 0.91135 0.35255 0.0
C69 C 0.62004 0.85427 0.45876 0.0
H70 H 0.62943 0.83262 0.49707 0.0
C71 C 0.64122 0.88452 0.42701 0.0
H72 H 0.55177 0.87945 0.36969 0.0
C73 C 0.63049 0.91274 0.37395 0.0
H74 H 0.64769 0.93559 0.34801 0.0
H75 H 0.66622 0.88597 0.44236 0.0
H76 H 0.27547 0.60806 0.84094 0.0
C77 C 0.26883 0.59213 0.78812 0.0
C78 C 0.23642 0.58173 0.77484 0.0
C79 C 0.29267 0.5835 0.72966 0.0
H80 H 0.20247 0.55378 0.69627 0.0
C81 C 0.22767 0.56141 0.70677 0.0
C82 C 0.25056 0.5521 0.64855 0.0
C83 C 0.28328 0.56339 0.65929 0.0
C84 C 0.32665 0.59966 0.7336 0.0
H85 H 0.30111 0.55768 0.611 0.0
C86 C 0.35218 0.58135 0.74507 0.0
C87 C 0.38384 0.59827 0.74938 0.0
C88 C 0.33342 0.63466 0.7261 0.0
H89 H 0.31452 0.64943 0.71601 0.0
C90 C 0.36454 0.65119 0.73035 0.0
H91 H 0.3475 0.55441 0.75065 0.0
C92 C 0.38954 0.63321 0.74186 0.0
H93 H 0.41358 0.64667 0.74487 0.0
H94 H 0.36933 0.67813 0.72438 0.0
H95 H 0.03129 0.30182 0.77204 0.0
C96 C 0.04277 0.30024 0.70225 0.0
C97 C 0.05267 0.27023 0.69276 0.0
C98 C 0.04538 0.32721 0.6186 0.0
H99 H 0.07365 0.24418 0.59583 0.0
C100 C 0.06661 0.26778 0.60239 0.0
C101 C 0.06836 0.29339 0.51763 0.0
C102 C 0.05737 0.32315 0.52514 0.0
C103 C 0.03055 0.35696 0.62505 0.0
H104 H 0.05748 0.34263 0.4587 0.0
C105 C 0.04038 0.3781 0.69257 0.0
C106 C 0.02423 0.40487 0.70025 0.0
C107 C 1.00489 0.36321 0.56535 0.0
H108 H 0.99678 0.34731 0.51365 0.0
C109 C 0.98884 0.38937 0.57346 0.0
H110 H 0.06033 0.37376 0.7385 0.0
C111 C 0.99829 0.40992 0.64053 0.0
H112 H 0.98567 0.43037 0.64427 0.0
H113 H 0.96895 0.39375 0.52745 0.0
H114 H 0.32944 1.0211 0.87621 0.0
C115 C 0.33604 0.03842 0.80507 0.0
C116 C 0.36823 0.05138 0.77839 0.0
C117 C 0.31244 0.04656 0.73816 0.0
H118 H 0.40205 0.08232 0.66532 0.0
C119 C 0.37688 0.07318 0.68617 0.0
C120 C 0.3539 0.0816 0.6181 0.0
C121 C 0.32145 0.06814 0.64425 0.0
C122 C 0.27906 0.0293 0.76373 0.0
H123 H 0.30354 0.0734 0.59086 0.0
C124 C 0.25436 0.04723 0.77568 0.0
C125 C 0.2236 0.02969 0.81124 0.0
C126 C 0.27242 0.99402 0.78352 0.0
H127 H 0.2911 0.97982 0.7746 0.0
C128 C 0.24179 0.97673 0.816 0.0
H129 H 0.25937 0.07444 0.7619 0.0
C130 C 0.21757 0.99438 0.83066 0.0
H131 H 0.194 0.98044 0.85721 0.0
H132 H 0.2369 0.94954 0.83121 0.0
H133 H 0.59058 0.3107 0.48685 0.0
C134 C 0.58046 0.32705 0.42852 0.0
C135 C 0.58773 0.36169 0.42317 0.0
C136 C 0.56126 0.314 0.35748 0.0
H137 H 0.58167 0.41061 0.34398 0.0
C138 C 0.5761 0.38375 0.34709 0.0
C139 C 0.55694 0.37189 0.27605 0.0
C140 C 0.54933 0.33702 0.2812 0.0
C141 C 0.5552 0.27681 0.36073 0.0
H142 H 0.53394 0.32817 0.22661 0.0
C143 C 0.55595 0.25289 0.45114 0.0
C144 C 0.55417 0.21851 0.45082 0.0
C145 C 0.55085 0.26493 0.27158 0.0
H146 H 0.55094 0.282 0.20023 0.0
C147 C 0.54764 0.23073 0.27207 0.0
H148 H 0.55888 0.26079 0.52153 0.0
C149 C 0.54963 0.20772 0.36059 0.0
H150 H 0.54803 0.18141 0.35846 0.0
H151 H 0.54457 0.22212 0.20275 0.0
Nd152 Nd 0.04007 0.05697 0.87701 0.0
Nd153 Nd 0.06441 0.07551 0.06837 0.0
C154 C 1.00933 1.02392 0.75106 0.0
C155 C 1.01111 0.99164 0.72137 0.0
C156 C 0.98353 0.96698 0.72872 0.0
C157 C 0.98491 0.93613 0.70249 0.0
C158 C 1.01395 0.92922 0.6679 0.0
C159 C 0.0416 0.95394 0.66184 0.0
C160 C 0.04023 0.98462 0.68868 0.0
C161 C 0.10576 0.07337 0.87386 0.0
C162 C 0.0596 0.99828 0.0579 0.0
C163 C 0.09317 0.10897 0.19648 0.0
C164 C 0.09059 0.1416 0.22332 0.0
C165 C 0.11676 0.16825 0.20413 0.0
C166 C 0.1146 0.19925 0.22819 0.0
C167 C 0.08621 0.20439 0.27248 0.0
C168 C 0.0599 0.17775 0.29025 0.0
C169 C 0.06202 0.14686 0.2658 0.0
C170 C 0.99909 0.05774 0.06829 0.0
C171 C 0.04684 0.13445 0.88696 0.0
O172 O 0.99844 1.02157 0.84271 0.0
O173 O 0.03352 0.04866 0.72309 0.0
O174 O 0.08899 0.08141 0.79718 0.0
O175 O 0.08768 0.05652 0.94727 0.0
O176 O 0.04117 1.00577 0.98297 0.0
O177 O 0.07558 1.02205 0.09864 0.0
O178 O 0.1055 0.11068 0.10689 0.0
O179 O 0.06888 0.08424 0.22253 0.0
O180 O 1.01508 0.04985 0.14681 0.0
O181 O 1.01723 0.07574 0.99725 0.0
O182 O 0.06531 0.12654 0.96113 0.0
O183 O 0.03002 0.11094 0.84711 0.0
H184 H 0.96083 0.9716 0.7548 0.0
H185 H 0.96317 0.91773 0.7092 0.0
H186 H 0.06431 0.95008 0.63361 0.0
H187 H 0.06202 1.00292 0.68302 0.0
H188 H 0.13901 0.16505 0.17069 0.0
H189 H 0.1353 0.21914 0.21255 0.0
H190 H 0.03782 0.1803 0.32614 0.0
H191 H 0.04127 0.12701 0.28119 0.0
Nd192 Nd 0.56332 0.04621 0.88885 0.0
Nd193 Nd 0.54837 0.09256 0.01635 0.0
C194 C 0.57916 0.9988 0.80465 0.0
C195 C 0.60841 0.99903 0.74543 0.0
C196 C 0.61405 0.97031 0.71345 0.0
C197 C 0.64169 0.97161 0.65423 0.0
C198 C 0.66399 1.00179 0.62551 0.0
C199 C 0.6584 0.03013 0.6608 0.0
C200 C 0.63111 0.02866 0.72052 0.0
C201 C 0.56992 0.11216 0.78468 0.0
C202 C 0.62167 0.09327 0.96612 0.0
C203 C 0.52311 0.13456 0.10405 0.0
C204 C 0.49152 0.13229 0.15354 0.0
C205 C 0.48152 0.161 0.17376 0.0
C206 C 0.45291 0.15806 0.23008 0.0
C207 C 0.43386 0.1263 0.26716 0.0
C208 C 0.44341 0.09785 0.24225 0.0
C209 C 0.47188 0.10084 0.18624 0.0
C210 C 0.56352 0.0335 0.12235 0.0
C211 C 0.4884 0.04461 0.94026 0.0
O212 O 0.58323 0.99951 0.89875 0.0
O213 O 0.56089 1.01971 0.76311 0.0
O214 O 0.58929 0.09196 0.77413 0.0
O215 O 0.54773 0.09725 0.84888 0.0
O216 O 0.61103 0.06292 0.95142 0.0
O217 O 0.60177 0.11375 0.97735 0.0
O218 O 0.52401 0.13673 0.00752 0.0
O219 O 0.54047 0.11351 0.14929 0.0
O220 O 0.5736 0.06277 0.14191 0.0
O221 O 0.54556 0.0358 0.04974 0.0
O222 O 0.49781 0.06521 8e-05 0.0
O223 O 0.509 0.03355 0.88786 0.0
H224 H 0.59695 0.94708 0.73314 0.0
H225 H 0.64529 0.94912 0.62978 0.0
H226 H 0.67437 0.05405 0.63911 0.0
H227 H 0.62738 0.051 0.74551 0.0
H228 H 0.49626 0.18553 0.14857 0.0
H229 H 0.4462 0.18054 0.24695 0.0
H230 H 0.42991 0.0729 0.27083 0.0
H231 H 0.47921 0.07829 0.17209 0.0
Nd232 Nd 0.53013 0.57117 0.01784 0.0
Nd233 Nd 0.57044 0.56222 0.84382 0.0
C234 C 0.48749 0.58749 0.13362 0.0
C235 C 0.48063 0.61888 0.15676 0.0
C236 C 0.47211 0.61968 0.25531 0.0
C237 C 0.47003 0.6502 0.28155 0.0
C238 C 0.4765 0.68051 0.20948 0.0
C239 C 0.483 0.67929 0.10941 0.0
C240 C 0.4851 0.64872 0.08335 0.0
C241 C 0.59511 0.57807 0.04404 0.0
C242 C 0.55757 0.63709 0.83635 0.0
C243 C 0.61525 0.54743 0.73284 0.0
C244 C 0.62315 0.51694 0.70634 0.0
C245 C 0.62006 0.48664 0.77747 0.0
C246 C 0.62332 0.45689 0.74788 0.0
C247 C 0.62967 0.45701 0.64666 0.0
C248 C 0.6347 0.48788 0.57694 0.0
C249 C 0.63148 0.51753 0.60664 0.0
C250 C 0.50684 0.55926 0.80715 0.0
C251 C 0.5412 0.49586 0.02388 0.0
O252 O 0.48225 0.58311 0.04309 0.0
O253 O 0.5142 0.57869 0.16559 0.0
O254 O 0.57371 0.56339 0.11532 0.0
O255 O 0.58185 0.58951 0.96644 0.0
O256 O 0.53517 0.62277 0.90776 0.0
O257 O 0.57822 0.61987 0.80759 0.0
O258 O 0.61862 0.55019 0.82569 0.0
O259 O 0.58914 0.55675 0.69693 0.0
O260 O 0.53 0.57191 0.73991 0.0
O261 O 0.5175 0.54614 0.88893 0.0
O262 O 0.56304 0.50955 0.95018 0.0
O263 O 0.52196 0.51381 0.05611 0.0
H264 H 0.46859 0.59691 0.31296 0.0
H265 H 0.4655 0.65019 0.35966 0.0
H266 H 0.48787 0.70212 0.0521 0.0
H267 H 0.49148 0.6486 0.00667 0.0
H268 H 0.61396 0.48571 0.85517 0.0
H269 H 0.61957 0.43361 0.80346 0.0
H270 H 0.63905 0.48894 0.49808 0.0
H271 H 0.63399 0.54069 0.55078 0.0
Nd272 Nd 0.04236 0.58483 0.87899 0.0
Nd273 Nd 0.05463 0.5417 0.08612 0.0
C274 C 1.01787 0.62099 0.72577 0.0
C275 C 0.98557 0.61853 0.6876 0.0
C276 C 0.97995 0.63881 0.59668 0.0
C277 C 0.95001 0.63368 0.55569 0.0
C278 C 0.92501 0.6084 0.60575 0.0
C279 C 0.93052 0.58945 0.69947 0.0
C280 C 0.9606 0.59396 0.73849 0.0
C281 C 0.0521 0.52049 0.87699 0.0
C282 C 0.98115 0.5453 0.04071 0.0
C283 C 0.07812 0.49684 0.21642 0.0
C284 C 0.10765 0.5007 0.27093 0.0
C285 C 0.11895 0.47265 0.32442 0.0
C286 C 0.14736 0.47682 0.37456 0.0
C287 C 0.165 0.50918 0.37209 0.0
C288 C 0.15367 0.5371 0.31649 0.0
C289 C 0.12545 0.53288 0.26631 0.0
C290 C 0.05605 0.6078 0.10531 0.0
C291 C 0.11481 0.58826 0.93455 0.0
O292 O 1.02117 0.62947 0.81242 0.0
O293 O 0.03244 0.59614 0.71842 0.0
O294 O 0.06482 0.54712 0.81165 0.0
O295 O 0.03514 0.52838 0.9427 0.0
O296 O 0.99266 0.56827 0.96037 0.0
O297 O 0.99982 0.52819 0.09925 0.0
O298 O 0.08264 0.50057 0.11958 0.0
O299 O 0.05574 0.51252 0.24092 0.0
O300 O 0.06006 0.58371 0.17852 0.0
O301 O 0.05204 0.59589 0.02799 0.0
O302 O 0.104 0.561 0.00361 0.0
O303 O 0.0953 0.6062 0.88338 0.0
H304 H 0.99905 0.65766 0.55543 0.0
H305 H 0.94712 0.64842 0.48248 0.0
H306 H 0.91196 0.57014 0.74141 0.0
H307 H 0.96459 0.57727 0.80666 0.0
H308 H 0.10578 0.44756 0.32766 0.0
H309 H 0.1554 0.45469 0.41561 0.0
H310 H 0.16599 0.56244 0.31412 0.0
H311 H 0.11733 0.55488 0.22448 0.0
C312 C 0.18165 0.03904 0.92641 0.0
C313 C 0.19742 0.04731 0.8313 0.0
H314 H 0.14068 0.04174 0.01508 0.0
C315 C 0.18529 0.06868 0.75356 0.0
H316 H 0.19071 1.02273 0.98762 0.0
C317 C 0.15633 0.07934 0.76886 0.0
C318 C 0.13933 0.06893 0.86233 0.0
H319 H 0.19705 0.07527 0.67954 0.0
H320 H 0.1464 0.09407 0.70618 0.0
C321 C 0.15303 0.04996 0.94201 0.0
C322 C 0.58442 0.17554 0.53906 0.0
C323 C 0.55961 0.19389 0.54181 0.0
H324 H 0.60751 0.13613 0.6141 0.0
C325 C 0.53943 0.18698 0.62883 0.0
H326 H 0.60046 0.18053 0.4732 0.0
C327 C 0.54317 0.16103 0.70976 0.0
C328 C 0.56747 0.14198 0.70534 0.0
H329 H 0.52009 0.20076 0.63267 0.0
H330 H 0.52664 0.15534 0.77458 0.0
C331 C 0.58847 0.15014 0.61999 0.0
C332 C 0.43594 0.59028 0.68149 0.0
C333 C 0.41198 0.58107 0.75884 0.0
H334 H 0.48427 0.59039 0.63625 0.0
C335 C 0.41828 0.56129 0.85044 0.0
H336 H 0.43186 0.60587 0.61064 0.0
C337 C 0.44867 0.5525 0.86576 0.0
C338 C 0.47322 0.56363 0.78993 0.0
H339 H 0.40037 0.55436 0.91185 0.0
H340 H 0.45333 0.53828 0.93801 0.0
C341 C 0.46608 0.5816 0.69666 0.0
C342 C 0.0641 0.45128 0.74329 0.0
C343 C 0.03465 0.42932 0.7648 0.0
H344 H 0.09262 0.49744 0.76235 0.0
C345 C 1.01284 0.43516 0.8352 0.0
H346 H 0.08114 0.44773 0.68834 0.0
C347 C 1.01956 0.46337 0.87884 0.0
C348 C 0.04794 0.48678 0.85109 0.0
H349 H 0.98981 0.41882 0.8524 0.0
H350 H 1.00157 0.46809 0.92862 0.0
C351 C 0.07055 0.47984 0.78531 0.0
C352 C 0.91087 0.02959 0.14568 0.0
C353 C 0.89704 0.03645 0.05299 0.0
H354 H 0.95436 0.03038 0.22325 0.0
C355 C 0.91695 0.05076 0.96663 0.0
H356 H 0.89599 1.01841 0.21321 0.0
C357 C 0.95 0.05787 0.97239 0.0
C358 C 0.96398 0.05038 0.06445 0.0
H359 H 0.90688 0.05653 0.89436 0.0
H360 H 0.96464 0.06897 0.90432 0.0
C361 C 0.94416 0.03624 0.15126 0.0
C362 C 0.599 0.9736 0.3186 0.0
C363 C 0.58735 0.94213 0.29632 0.0
H364 H 0.6007 1.02674 0.28127 0.0
C365 C 0.56674 0.94078 0.21739 0.0
H366 H 0.61447 0.97557 0.37977 0.0
C367 C 0.55868 0.97035 0.16069 0.0
C368 C 0.57095 1.00177 0.18226 0.0
H369 H 0.55754 0.91699 0.19775 0.0
H370 H 0.54318 0.96867 0.09944 0.0
C371 C 0.59097 1.00297 0.26231 0.0
C372 C 0.67814 0.5789 0.14716 0.0
C373 C 0.69797 0.5952 0.06148 0.0
H374 H 0.62993 0.56062 0.20944 0.0
C375 C 0.68341 0.6038 0.97052 0.0
H376 H 0.6884 0.57198 0.21855 0.0
C377 C 0.65025 0.59809 0.966 0.0
C378 C 0.63037 0.58272 0.05159 0.0
H379 H 0.69768 0.61554 0.90219 0.0
H380 H 0.64018 0.60612 0.89492 0.0
C381 C 0.64464 0.57264 0.14216 0.0
C382 C 1.02114 0.68778 0.07626 0.0
C383 C 0.0293 0.69828 0.16561 0.0
H384 H 0.02367 0.65135 0.98595 0.0
C385 C 0.04946 0.68099 0.22848 0.0
H386 H 1.0055 0.70054 0.0265 0.0
C387 C 0.05943 0.65251 0.2059 0.0
C388 C 0.04994 0.64103 0.11911 0.0
H389 H 0.05582 0.68816 0.2983 0.0
H390 H 0.07357 0.63865 0.25854 0.0
C391 C 0.03158 0.65965 0.05284 0.0
C392 C 0.06791 0.22948 0.83542 0.0
C393 C 0.04496 0.23867 0.76829 0.0
H394 H 0.08649 0.18914 0.92578 0.0
C395 C 1.02044 0.21369 0.74923 0.0
H396 H 0.08753 0.2482 0.84881 0.0
C397 C 1.02042 0.17978 0.78988 0.0
C398 C 0.04473 0.17031 0.85138 0.0
H399 H 1.00297 0.22022 0.69546 0.0
H400 H 1.00216 0.16098 0.7698 0.0
C401 C 0.06761 0.19558 0.87753 0.0
C402 C 0.40246 0.05599 0.92198 0.0
C403 C 0.39389 0.04091 0.84134 0.0
H404 H 0.43933 0.06842 0.01885 0.0
C405 C 0.4141 1.02157 0.80713 0.0
H406 H 0.38723 0.07125 0.94866 0.0
C407 C 0.44391 1.01995 0.84661 0.0
C408 C 0.45409 0.03799 0.92026 0.0
H409 H 0.40784 1.00989 0.74446 0.0
H410 H 0.45985 1.00677 0.81372 0.0
C411 C 0.43237 0.05445 0.96155 0.0
C412 C 0.63421 0.39878 0.47118 0.0
C413 C 0.60552 0.3761 0.49975 0.0
H414 H 0.66543 0.44187 0.49886 0.0
C415 C 0.58944 0.37513 0.59078 0.0
H416 H 0.64684 0.3999 0.40076 0.0
C417 C 0.59956 0.39959 0.6458 0.0
C418 C 0.62596 0.42518 0.61028 0.0
H419 H 0.56705 0.35802 0.61329 0.0
H420 H 0.58463 0.40049 0.70977 0.0
C421 C 0.64455 0.42299 0.52666 0.0
C422 C 0.19081 0.61238 0.77041 0.0
C423 C 0.21059 0.59255 0.82692 0.0
H424 H 0.14493 0.62721 0.76089 0.0
C425 C 0.20088 0.57663 0.92582 0.0
H426 H 0.1978 0.62459 0.6934 0.0
C427 C 0.17049 0.57783 0.96435 0.0
C428 C 0.14935 0.59493 0.90435 0.0
H429 H 0.21558 0.56089 0.9702 0.0
H430 H 0.16276 0.56334 0.03868 0.0
C431 C 0.16051 0.61376 0.80898 0.0
C432 C 0.04134 0.90313 0.11024 0.0
C433 C 0.0637 0.89474 0.18095 0.0
H434 H 1.02228 0.94251 0.0168 0.0
C435 C 0.08784 0.92045 0.1985 0.0
H436 H 1.02225 0.88404 0.09576 0.0
C437 C 0.08721 0.95412 0.15609 0.0
C438 C 0.06285 0.96269 0.09341 0.0
H439 H 0.10551 0.91469 0.25231 0.0
H440 H 0.10497 0.97344 0.17585 0.0
C441 C 0.04099 0.93678 0.0666 0.0
C442 C 0.69609 0.11319 0.10022 0.0
C443 C 0.71536 0.09337 0.06259 0.0
H444 H 0.65057 0.12919 0.09782 0.0
C445 C 0.70656 0.08182 0.97563 0.0
H446 H 0.70255 0.1231 0.16588 0.0
C447 C 0.67716 0.08575 0.93627 0.0
C448 C 0.65595 0.10123 0.98294 0.0
H449 H 0.72056 0.06647 0.94414 0.0
H450 H 0.66972 0.07373 0.8751 0.0
C451 C 0.66645 0.11701 0.0608 0.0
C452 C 0.52068 0.76156 0.25989 0.0
C453 C 0.50455 0.76266 0.34916 0.0
H454 H 0.52433 0.73422 0.14509 0.0
C455 C 0.47451 0.74215 0.37605 0.0
H456 H 0.54394 0.77698 0.23759 0.0
C457 C 0.46319 0.71745 0.32302 0.0
C458 C 0.48178 0.71299 0.24246 0.0
H459 H 0.46147 0.74282 0.44413 0.0
H460 H 0.44137 0.69998 0.35051 0.0
C461 C 0.50941 0.73684 0.20696 0.0
C462 C 0.89696 0.56401 0.04806 0.0
C463 C 0.88279 0.54109 0.13393 0.0
H464 H 0.93891 0.58382 0.95347 0.0
C465 C 0.89983 0.51626 0.18103 0.0
H466 H 0.88494 0.58384 0.01085 0.0
C467 C 0.93134 0.51636 0.14843 0.0
C468 C 0.94637 0.54111 0.06745 0.0
H469 H 0.88952 0.4981 0.24728 0.0
H470 H 0.94433 0.49806 0.1895 0.0
C471 C 0.92829 0.56409 0.01557 0.0
C472 C 0.10685 0.27512 0.41146 0.0
C473 C 0.07693 0.28452 0.42223 0.0
H474 H 0.13315 0.24204 0.35758 0.0
C475 C 0.05213 0.27276 0.36526 0.0
H476 H 0.12618 0.2833 0.45615 0.0
C477 C 0.05595 0.24874 0.30897 0.0
C478 C 0.08465 0.23597 0.30879 0.0
H479 H 0.02868 0.27913 0.37339 0.0
H480 H 0.03565 0.23844 0.27151 0.0
C481 C 0.11067 0.25106 0.35561 0.0
C482 C 0.3599 0.08515 0.43443 0.0
C483 C 0.36566 0.10049 0.51633 0.0
H484 H 0.37661 0.08197 0.28876 0.0
C485 C 0.38947 0.12927 0.50551 0.0
H486 H 0.34176 0.06288 0.44083 0.0
C487 C 0.40991 0.13975 0.41971 0.0
C488 C 0.4068 0.12178 0.34252 0.0
H489 H 0.39433 0.14158 0.56768 0.0
H490 H 0.42995 0.15986 0.41866 0.0
C491 C 0.38025 0.09578 0.34803 0.0
C492 C 0.52368 0.41598 0.22538 0.0
C493 C 0.54586 0.39736 0.19802 0.0
H494 H 0.50448 0.46139 0.1916 0.0
C495 C 0.56343 0.40926 0.10617 0.0
H496 H 0.51038 0.40768 0.29695 0.0
C497 C 0.56048 0.44037 0.04607 0.0
C498 C 0.54001 0.46029 0.077 0.0
H499 H 0.58122 0.39575 0.08454 0.0
H500 H 0.57555 0.44956 0.97822 0.0
C501 C 0.52062 0.44697 0.16533 0.0
C502 C 0.24086 0.5515 0.47005 0.0
C503 C 0.23826 0.5341 0.57001 0.0
H504 H 0.22014 0.55681 0.32755 0.0
C505 C 0.21546 0.50449 0.59814 0.0
H506 H 0.25796 0.5746 0.44665 0.0
C507 C 0.19315 0.4948 0.53118 0.0
C508 C 0.1933 0.5144 0.43413 0.0
H509 H 0.21271 0.49086 0.67521 0.0
H510 H 0.17413 0.47371 0.55883 0.0
C511 C 0.21866 0.54166 0.40257 0.0
C512 C 0.04745 0.85907 0.58394 0.0
C513 C 0.02425 0.84897 0.51946 0.0
H514 H 0.06209 0.89166 0.68396 0.0
C515 C 0.995 0.86039 0.52034 0.0
H516 H 0.07042 0.8511 0.58334 0.0
C517 C 0.99059 0.88465 0.57495 0.0
C518 C 1.01529 0.89777 0.63061 0.0
H519 H 0.97705 0.85365 0.46943 0.0
H520 H 0.96898 0.89526 0.56576 0.0
C521 C 0.04292 0.88302 0.63952 0.0
C522 C 0.70818 0.9984 0.38657 0.0
C523 C 0.7345 1.02427 0.38248 0.0
H524 H 0.66513 0.97112 0.46633 0.0
C525 C 0.74074 0.03826 0.4665 0.0
H526 H 0.70267 0.98774 0.32156 0.0
C527 C 0.71936 0.02848 0.55049 0.0
C528 C 0.69094 1.00522 0.55049 0.0
H529 H 0.76073 0.05855 0.46422 0.0
H530 H 0.7241 0.0408 0.61261 0.0
C531 C 0.68659 0.98898 0.46968 0.0
C532 C 0.58302 0.72231 0.66082 0.0
C533 C 0.55538 0.73651 0.66463 0.0
H534 H 0.60543 0.67953 0.71172 0.0
C535 C 0.53015 0.71953 0.7336 0.0
H536 H 0.60253 0.73456 0.60678 0.0
C537 C 0.53167 0.68806 0.79319 0.0
C538 C 0.55833 0.67261 0.78448 0.0
H539 H 0.50834 0.72965 0.73663 0.0
H540 H 0.51102 0.675 0.84132 0.0
C541 C 0.58444 0.69058 0.7199 0.0
C542 C 0.85797 0.55467 0.5027 0.0
C543 C 0.84876 0.5783 0.42468 0.0
H544 H 0.88981 0.54532 0.61866 0.0
C545 C 0.85978 0.61264 0.42022 0.0
H546 H 0.84997 0.52803 0.50719 0.0
C547 C 0.88271 0.62285 0.48497 0.0
C548 C 0.8951 0.59887 0.55488 0.0
H549 H 0.85324 0.6314 0.36025 0.0
H550 H 0.89221 0.64939 0.47564 0.0
C551 C 0.88105 0.56476 0.56656 0.0
loop_
_geom_bond_atom_site_label_1
_geom_bond_atom_site_label_2
_geom_bond_distance
_geom_bond_site_symmetry_2
_ccdc_geom_bond_type
H0 C1 0.949 . S
C1 H0 0.949 . S
C1 C2 1.395 . S
C1 C3 1.391 1_556 S
C2 C1 1.395 . S
C2 C5 1.390 1_556 S
C3 C1 1.391 1_554 S
C3 C7 1.387 . S
C3 C8 1.491 . S
H4 C5 0.950 . S
C5 C2 1.390 1_554 S
C5 H4 0.950 . S
C5 C6 1.378 . S
C6 C5 1.378 . S
C6 C7 1.409 . S
C7 C3 1.387 . S
C7 C6 1.409 . S
C7 H9 0.951 . S
C8 C3 1.491 . S
C8 C10 1.382 1_554 S
C8 C12 1.404 . S
H9 C7 0.951 . S
C10 C8 1.382 1_556 S
C10 C11 1.390 . S
C10 H15 0.949 . S
C11 C10 1.390 . S
C11 C16 1.399 . S
C12 C8 1.404 . S
C12 H13 0.950 . S
C12 C14 1.375 . S
H13 C12 0.950 . S
C14 C12 1.375 . S
C14 C16 1.382 1_554 S
C14 H18 0.950 . S
H15 C10 0.949 . S
C16 C11 1.399 . S
C16 C14 1.382 1_556 S
C16 H17 0.952 . S
H17 C16 0.952 . S
H18 C14 0.950 . S
H19 C20 0.949 1_556 S
C20 H19 0.949 1_554 S
C20 C21 1.395 . S
C20 C22 1.391 . S
C21 C20 1.395 . S
C21 C24 1.390 . S
C22 C20 1.391 . S
C22 C26 1.387 . S
C22 C27 1.491 . S
H23 C24 0.950 . S
C24 C21 1.390 . S
C24 H23 0.950 . S
C24 C25 1.378 . S
C25 C24 1.378 . S
C25 C26 1.409 . S
C26 C22 1.387 . S
C26 C25 1.409 . S
C26 H28 0.951 . S
C27 C22 1.491 . S
C27 C29 1.382 . S
C27 C31 1.404 . S
H28 C26 0.951 . S
C29 C27 1.382 . S
C29 C30 1.390 . S
C29 H34 0.958 . S
C30 C29 1.390 . S
C30 C35 1.399 . S
C31 C27 1.404 . S
C31 H32 0.950 . S
C31 C33 1.375 . S
H32 C31 0.950 . S
C33 C31 1.375 . S
C33 C35 1.382 . S
C33 H37 0.950 . S
H34 C29 0.958 . S
C35 C30 1.399 . S
C35 C33 1.382 . S
C35 H36 0.952 . S
H36 C35 0.952 . S
H37 C33 0.950 . S
H38 C39 0.949 1_556 S
C39 H38 0.949 1_554 S
C39 C40 1.395 . S
C39 C41 1.391 . S
C40 C39 1.395 . S
C40 C43 1.390 . S
C41 C39 1.391 . S
C41 C45 1.387 . S
C41 C46 1.491 . S
H42 C43 0.950 . S
C43 C40 1.390 . S
C43 H42 0.950 . S
C43 C44 1.378 . S
C44 C43 1.378 . S
C44 C45 1.409 . S
C45 C41 1.387 . S
C45 C44 1.409 . S
C45 H47 0.951 . S
C46 C41 1.491 . S
C46 C48 1.382 . S
C46 C50 1.404 . S
H47 C45 0.951 . S
C48 C46 1.382 . S
C48 C49 1.390 . S
C48 H53 0.949 1_554 S
C49 C48 1.390 . S
C49 C54 1.399 . S
C50 C46 1.404 . S
C50 H51 0.950 . S
C50 C52 1.375 . S
H51 C50 0.950 . S
C52 C50 1.375 . S
C52 C54 1.382 . S
C52 H56 0.950 . S
H53 C48 0.949 1_556 S
C54 C49 1.399 . S
C54 C52 1.382 . S
C54 H55 0.952 . S
H55 C54 0.952 . S
H56 C52 0.950 . S
H57 C58 0.949 . S
C58 H57 0.949 . S
C58 C59 1.395 . S
C58 C60 1.391 . S
C59 C58 1.395 . S
C59 C62 1.390 . S
C60 C58 1.391 . S
C60 C64 1.387 . S
C60 C65 1.491 . S
H61 C62 0.950 . S
C62 C59 1.390 . S
C62 H61 0.950 . S
C62 C63 1.378 . S
C63 C62 1.378 . S
C63 C64 1.409 . S
C64 C60 1.387 . S
C64 C63 1.409 . S
C64 H66 0.951 . S
C65 C60 1.491 . S
C65 C67 1.382 . S
C65 C69 1.404 . S
H66 C64 0.951 . S
C67 C65 1.382 . S
C67 C68 1.390 . S
C67 H72 0.949 . S
C68 C67 1.390 . S
C68 C73 1.399 . S
C69 C65 1.404 . S
C69 H70 0.950 . S
C69 C71 1.375 . S
H70 C69 0.950 . S
C71 C69 1.375 . S
C71 C73 1.382 . S
C71 H75 0.950 . S
H72 C67 0.949 . S
C73 C68 1.399 . S
C73 C71 1.382 . S
C73 H74 0.952 . S
H74 C73 0.952 . S
H75 C71 0.950 . S
H76 C77 0.949 1_554 S
C77 H76 0.949 1_556 S
C77 C78 1.395 . S
C77 C79 1.391 . S
C78 C77 1.395 . S
C78 C81 1.390 . S
C79 C77 1.391 . S
C79 C83 1.387 . S
C79 C84 1.491 . S
H80 C81 0.950 . S
C81 C78 1.390 . S
C81 H80 0.950 . S
C81 C82 1.378 . S
C82 C81 1.378 . S
C82 C83 1.409 . S
C83 C79 1.387 . S
C83 C82 1.409 . S
C83 H85 0.951 . S
C84 C79 1.491 . S
C84 C86 1.382 . S
C84 C88 1.404 . S
H85 C83 0.951 . S
C86 C84 1.382 . S
C86 C87 1.390 . S
C86 H91 0.949 . S
C87 C86 1.390 . S
C87 C92 1.399 . S
C88 C84 1.404 . S
C88 H89 0.950 . S
C88 C90 1.375 . S
H89 C88 0.950 . S
C90 C88 1.375 . S
C90 C92 1.382 . S
C90 H94 0.950 . S
H91 C86 0.949 . S
C92 C87 1.399 . S
C92 C90 1.382 . S
C92 H93 0.952 . S
H93 C92 0.952 . S
H94 C90 0.950 . S
H95 C96 0.949 . S
C96 H95 0.949 . S
C96 C97 1.395 . S
C96 C98 1.391 . S
C97 C96 1.395 . S
C97 C100 1.390 . S
C98 C96 1.391 . S
C98 C102 1.387 . S
C98 C103 1.491 . S
H99 C100 0.950 . S
C100 C97 1.390 . S
C100 H99 0.950 . S
C100 C101 1.378 . S
C101 C100 1.378 . S
C101 C102 1.409 . S
C102 C98 1.387 . S
C102 C101 1.409 . S
C102 H104 0.951 . S
C103 C98 1.491 . S
C103 C105 1.382 . S
C103 C107 1.404 . S
H104 C102 0.951 . S
C105 C103 1.382 . S
C105 C106 1.390 . S
C105 H110 0.949 . S
C106 C105 1.390 . S
C106 C111 1.399 . S
C107 C103 1.404 . S
C107 H108 0.950 . S
C107 C109 1.375 . S
H108 C107 0.950 . S
C109 C107 1.375 . S
C109 C111 1.382 . S
C109 H113 0.950 . S
H110 C105 0.949 . S
C111 C106 1.399 . S
C111 C109 1.382 . S
C111 H112 0.952 . S
H112 C111 0.952 . S
H113 C109 0.950 . S
H114 C115 0.949 . S
C115 H114 0.949 . S
C115 C116 1.395 . S
C115 C117 1.391 . S
C116 C115 1.395 . S
C116 C119 1.390 . S
C117 C115 1.391 . S
C117 C121 1.387 . S
C117 C122 1.491 . S
H118 C119 0.950 . S
C119 C116 1.390 . S
C119 H118 0.950 . S
C119 C120 1.378 . S
C120 C119 1.378 . S
C120 C121 1.409 . S
C121 C117 1.387 . S
C121 C120 1.409 . S
C121 H123 0.951 . S
C122 C117 1.491 . S
C122 C124 1.382 . S
C122 C126 1.404 . S
H123 C121 0.951 . S
C124 C122 1.382 . S
C124 C125 1.390 . S
C124 H129 0.949 . S
C125 C124 1.390 . S
C125 C130 1.399 . S
C126 C122 1.404 . S
C126 H127 0.950 . S
C126 C128 1.375 . S
H127 C126 0.950 . S
C128 C126 1.375 . S
C128 C130 1.382 . S
C128 H132 0.950 . S
H129 C124 0.949 . S
C130 C125 1.399 . S
C130 C128 1.382 . S
C130 H131 0.952 . S
H131 C130 0.952 . S
H132 C128 0.950 . S
H133 C134 0.949 . S
C134 H133 0.949 . S
C134 C135 1.395 . S
C134 C136 1.391 . S
C135 C134 1.395 . S
C135 C138 1.390 . S
C136 C134 1.391 . S
C136 C140 1.387 . S
C136 C141 1.491 . S
H137 C138 0.950 . S
C138 C135 1.390 . S
C138 H137 0.950 . S
C138 C139 1.378 . S
C139 C138 1.378 . S
C139 C140 1.409 . S
C140 C136 1.387 . S
C140 C139 1.409 . S
C140 H142 0.951 . S
C141 C136 1.491 . S
C141 C143 1.382 . S
C141 C145 1.404 . S
H142 C140 0.951 . S
C143 C141 1.382 . S
C143 C144 1.390 . S
C143 H148 0.949 . S
C144 C143 1.390 . S
C144 C149 1.399 . S
C145 C141 1.404 . S
C145 H146 0.950 . S
C145 C147 1.375 . S
H146 C145 0.950 . S
C147 C145 1.375 . S
C147 C149 1.382 . S
C147 H151 0.950 . S
H148 C143 0.949 . S
C149 C144 1.399 . S
C149 C147 1.382 . S
C149 H150 0.952 . S
H150 C149 0.952 . S
H151 C147 0.950 . S
Nd152 C154 2.836 1_545 S
Nd152 O172 2.500 1_445 S
Nd152 O173 2.492 . S
Nd152 O174 2.487 . S
Nd152 O175 2.682 . S
Nd152 O176 2.410 1_545 S
Nd152 O181 2.414 1_455 S
Nd152 O183 2.424 . S
Nd153 C163 2.836 . S
Nd153 O175 2.414 1_554 S
Nd153 O177 2.424 1_545 S
Nd153 O178 2.500 . S
Nd153 O179 2.492 . S
Nd153 O180 2.487 1_455 S
Nd153 O181 2.682 1_454 S
Nd153 O182 2.410 1_554 S
C154 Nd152 2.836 1_565 S
C154 C155 1.498 . S
C154 O172 1.258 1_455 S
C154 O173 1.239 1_565 S
C155 C154 1.498 . S
C155 C156 1.366 1_455 S
C155 C160 1.407 . S
C156 C155 1.366 1_655 S
C156 C157 1.392 . S
C156 H184 0.930 . S
C157 C156 1.392 . S
C157 C158 1.396 1_655 S
C157 H185 0.929 . S
C158 C157 1.396 1_455 S
C158 C159 1.354 . S
C159 C158 1.354 . S
C159 C160 1.384 . S
C159 H186 0.930 . S
C160 C155 1.407 . S
C160 C159 1.384 . S
C160 H187 0.929 . S
C161 O174 1.241 . S
C161 O175 1.273 . S
C162 O176 1.261 . S
C162 O177 1.257 1_556 S
C163 Nd153 2.836 . S
C163 C164 1.498 . S
C163 O178 1.258 . S
C163 O179 1.239 . S
C164 C163 1.498 . S
C164 C165 1.366 . S
C164 C169 1.407 . S
C165 C164 1.366 . S
C165 C166 1.392 . S
C165 H188 0.930 . S
C166 C165 1.392 . S
C166 C167 1.398 . S
C166 H189 0.929 . S
C167 C166 1.398 . S
C167 C168 1.352 . S
C168 C167 1.352 . S
C168 C169 1.384 . S
C168 H190 0.930 . S
C169 C164 1.407 . S
C169 C168 1.384 . S
C169 H191 0.948 . S
C170 O180 1.241 1_556 S
C170 O181 1.273 . S
C171 O182 1.251 . S
C171 O183 1.268 . S
O172 Nd152 2.500 1_665 S
O172 C154 1.258 1_655 S
O173 Nd152 2.492 . S
O173 C154 1.239 1_545 S
O174 Nd152 2.487 . S
O174 C161 1.241 . S
O175 Nd152 2.682 . S
O175 Nd153 2.414 1_556 S
O175 C161 1.273 . S
O176 Nd152 2.410 1_565 S
O176 C162 1.261 . S
O177 Nd153 2.424 1_565 S
O177 C162 1.257 1_554 S
O178 Nd153 2.500 . S
O178 C163 1.258 . S
O179 Nd153 2.492 . S
O179 C163 1.239 . S
O180 Nd153 2.487 1_655 S
O180 C170 1.241 1_554 S
O181 Nd152 2.414 1_655 S
O181 Nd153 2.682 1_656 S
O181 C170 1.273 . S
O182 Nd153 2.410 1_556 S
O182 C171 1.251 . S
O183 Nd152 2.424 . S
O183 C171 1.268 . S
H184 C156 0.930 . S
H185 C157 0.929 . S
H186 C159 0.930 . S
H187 C160 0.929 . S
H188 C165 0.930 . S
H189 C166 0.929 . S
H190 C168 0.930 . S
H191 C169 0.948 . S
Nd192 C194 2.836 . S
Nd192 O212 2.500 1_545 S
Nd192 O213 2.492 . S
Nd192 O214 2.487 . S
Nd192 O215 2.682 . S
Nd192 O216 2.410 . S
Nd192 O221 2.422 . S
Nd192 O223 2.424 . S
Nd193 C203 2.836 . S
Nd193 O215 2.414 1_554 S
Nd193 O217 2.424 . S
Nd193 O218 2.500 . S
Nd193 O219 2.492 . S
Nd193 O220 2.487 1_545 S
Nd193 O221 2.714 1_554 S
Nd193 O222 2.410 . S
C194 Nd192 2.836 . S
C194 C195 1.498 1_545 S
C194 O212 1.258 1_545 S
C194 O213 1.239 . S
C195 C194 1.498 1_565 S
C195 C196 1.366 . S
C195 C200 1.407 1_565 S
C196 C195 1.366 . S
C196 C197 1.392 . S
C196 H224 0.930 . S
C197 C196 1.392 . S
C197 C198 1.398 . S
C197 H225 0.929 . S
C198 C197 1.398 . S
C198 C199 1.352 1_565 S
C199 C198 1.352 1_545 S
C199 C200 1.384 . S
C199 H226 0.930 . S
C200 C195 1.407 1_545 S
C200 C199 1.384 . S
C200 H227 0.929 . S
C201 O214 1.241 . S
C201 O215 1.273 . S
C202 O216 1.251 . S
C202 O217 1.268 1_556 S
C203 Nd193 2.836 . S
C203 C204 1.498 . S
C203 O218 1.258 . S
C203 O219 1.239 . S
C204 C203 1.498 . S
C204 C205 1.366 . S
C204 C209 1.407 . S
C205 C204 1.366 . S
C205 C206 1.392 . S
C205 H228 0.930 . S
C206 C205 1.392 . S
C206 C207 1.398 . S
C206 H229 0.929 . S
C207 C206 1.398 . S
C207 C208 1.352 . S
C208 C207 1.352 . S
C208 C209 1.384 . S
C208 H230 0.930 . S
C209 C204 1.407 . S
C209 C208 1.384 . S
C209 H231 0.929 . S
C210 O220 1.241 . S
C210 O221 1.259 1_564 S
C211 O222 1.251 1_556 S
C211 O223 1.268 . S
O212 Nd192 2.500 1_565 S
O212 C194 1.258 1_565 S
O213 Nd192 2.492 . S
O213 C194 1.239 . S
O214 Nd192 2.487 . S
O214 C201 1.241 . S
O215 Nd192 2.682 . S
O215 Nd193 2.414 1_556 S
O215 C201 1.273 . S
O216 Nd192 2.410 . S
O216 C202 1.251 . S
O217 Nd193 2.424 . S
O217 C202 1.268 1_554 S
O218 Nd193 2.500 . S
O218 C203 1.258 . S
O219 Nd193 2.492 . S
O219 C203 1.239 . S
O220 Nd193 2.487 1_565 S
O220 C210 1.241 . S
O221 Nd192 2.422 . S
O221 Nd193 2.714 1_556 S
O221 C210 1.259 1_546 S
O222 Nd193 2.410 . S
O222 C211 1.251 1_554 S
O223 Nd192 2.424 . S
O223 C211 1.268 . S
H224 C196 0.930 . S
H225 C197 0.929 . S
H226 C199 0.930 . S
H227 C200 0.929 . S
H228 C205 0.930 . S
H229 C206 0.929 . S
H230 C208 0.930 . S
H231 C209 0.929 . S
Nd232 C234 2.836 . S
Nd232 O252 2.500 . S
Nd232 O253 2.492 . S
Nd232 O254 2.487 . S
Nd232 O255 2.682 1_554 S
Nd232 O256 2.410 1_554 S
Nd232 O261 2.414 1_554 S
Nd232 O263 2.424 . S
Nd233 C243 2.836 . S
Nd233 O255 2.414 . S
Nd233 O257 2.424 . S
Nd233 O258 2.500 . S
Nd233 O259 2.492 . S
Nd233 O260 2.487 . S
Nd233 O261 2.682 . S
Nd233 O262 2.410 . S
C234 Nd232 2.836 . S
C234 C235 1.498 . S
C234 O252 1.258 . S
C234 O253 1.239 . S
C235 C234 1.498 . S
C235 C236 1.366 . S
C235 C240 1.407 . S
C236 C235 1.366 . S
C236 C237 1.392 . S
C236 H264 0.930 . S
C237 C236 1.392 . S
C237 C238 1.398 . S
C237 H265 0.929 . S
C238 C237 1.398 . S
C238 C239 1.352 . S
C239 C238 1.352 . S
C239 C240 1.384 . S
C239 H266 0.930 . S
C240 C235 1.407 . S
C240 C239 1.384 . S
C240 H267 0.929 . S
C241 O254 1.241 1_556 S
C241 O255 1.273 . S
C242 O256 1.251 . S
C242 O257 1.268 . S
C243 Nd233 2.836 . S
C243 C244 1.498 . S
C243 O258 1.258 . S
C243 O259 1.239 . S
C244 C243 1.498 . S
C244 C245 1.366 . S
C244 C249 1.407 . S
C245 C244 1.366 . S
C245 C246 1.392 . S
C245 H268 0.930 . S
C246 C245 1.392 . S
C246 C247 1.398 . S
C246 H269 0.929 . S
C247 C246 1.398 . S
C247 C248 1.352 . S
C248 C247 1.352 . S
C248 C249 1.384 . S
C248 H270 0.930 . S
C249 C244 1.407 . S
C249 C248 1.384 . S
C249 H271 0.929 . S
C250 O260 1.241 . S
C250 O261 1.273 . S
C251 O262 1.251 1_554 S
C251 O263 1.268 . S
O252 Nd232 2.500 . S
O252 C234 1.258 . S
O253 Nd232 2.492 . S
O253 C234 1.239 . S
O254 Nd232 2.487 . S
O254 C241 1.241 1_554 S
O255 Nd232 2.682 1_556 S
O255 Nd233 2.414 . S
O255 C241 1.273 . S
O256 Nd232 2.410 1_556 S
O256 C242 1.251 . S
O257 Nd233 2.424 . S
O257 C242 1.268 . S
O258 Nd233 2.500 . S
O258 C243 1.258 . S
O259 Nd233 2.492 . S
O259 C243 1.239 . S
O260 Nd233 2.487 . S
O260 C250 1.241 . S
O261 Nd232 2.414 1_556 S
O261 Nd233 2.682 . S
O261 C250 1.273 . S
O262 Nd233 2.410 . S
O262 C251 1.251 1_556 S
O263 Nd232 2.424 . S
O263 C251 1.268 . S
H264 C236 0.930 . S
H265 C237 0.929 . S
H266 C239 0.930 . S
H267 C240 0.929 . S
H268 C245 0.930 . S
H269 C246 0.929 . S
H270 C248 0.930 . S
H271 C249 0.929 . S
Nd272 C274 2.836 1_455 S
Nd272 O292 2.500 1_455 S
Nd272 O293 2.492 1_455 S
Nd272 O294 2.487 . S
Nd272 O295 2.682 . S
Nd272 O296 2.410 1_455 S
Nd272 O301 2.414 . S
Nd272 O303 2.424 . S
Nd273 C283 2.836 . S
Nd273 O295 2.414 1_554 S
Nd273 O297 2.424 1_455 S
Nd273 O298 2.500 . S
Nd273 O299 2.492 . S
Nd273 O300 2.487 . S
Nd273 O301 2.682 1_554 S
Nd273 O302 2.410 . S
C274 Nd272 2.836 1_655 S
C274 C275 1.498 . S
C274 O292 1.258 . S
C274 O293 1.239 . S
C275 C274 1.498 . S
C275 C276 1.366 . S
C275 C280 1.407 . S
C276 C275 1.366 . S
C276 C277 1.392 . S
C276 H304 0.930 . S
C277 C276 1.392 . S
C277 C278 1.398 . S
C277 H305 0.929 . S
C278 C277 1.398 . S
C278 C279 1.352 . S
C279 C278 1.352 . S
C279 C280 1.384 . S
C279 H306 0.930 . S
C280 C275 1.407 . S
C280 C279 1.384 . S
C280 H307 0.929 . S
C281 O294 1.241 . S
C281 O295 1.273 . S
C282 O296 1.251 . S
C282 O297 1.268 1_556 S
C283 Nd273 2.836 . S
C283 C284 1.498 . S
C283 O298 1.258 . S
C283 O299 1.239 . S
C284 C283 1.498 . S
C284 C285 1.366 . S
C284 C289 1.407 . S
C285 C284 1.366 . S
C285 C286 1.392 . S
C285 H308 0.930 . S
C286 C285 1.392 . S
C286 C287 1.398 . S
C286 H309 0.929 . S
C287 C286 1.398 . S
C287 C288 1.352 . S
C288 C287 1.352 . S
C288 C289 1.384 . S
C288 H310 0.930 . S
C289 C284 1.407 . S
C289 C288 1.384 . S
C289 H311 0.929 . S
C290 O300 1.241 1_556 S
C290 O301 1.273 . S
C291 O302 1.251 1_556 S
C291 O303 1.268 . S
O292 Nd272 2.500 1_655 S
O292 C274 1.258 . S
O293 Nd272 2.492 1_655 S
O293 C274 1.239 . S
O294 Nd272 2.487 . S
O294 C281 1.241 . S
O295 Nd272 2.682 . S
O295 Nd273 2.414 1_556 S
O295 C281 1.273 . S
O296 Nd272 2.410 1_655 S
O296 C282 1.251 . S
O297 Nd273 2.424 1_655 S
O297 C282 1.268 1_554 S
O298 Nd273 2.500 . S
O298 C283 1.258 . S
O299 Nd273 2.492 . S
O299 C283 1.239 . S
O300 Nd273 2.487 . S
O300 C290 1.241 1_554 S
O301 Nd272 2.414 . S
O301 Nd273 2.682 1_556 S
O301 C290 1.273 . S
O302 Nd273 2.410 . S
O302 C291 1.251 1_554 S
O303 Nd272 2.424 . S
O303 C291 1.268 . S
H304 C276 0.930 . S
H305 C277 0.929 . S
H306 C279 0.930 . S
H307 C280 0.929 . S
H308 C285 0.930 . S
H309 C286 0.929 . S
H310 C288 0.930 . S
H311 C289 0.929 . S
C312 C313 1.387 1_554 S
C312 H316 0.950 . S
C312 C321 1.390 . S
C313 C312 1.387 1_556 S
C313 C315 1.387 . S
H314 C321 0.950 . S
C315 C313 1.387 . S
C315 C317 1.390 . S
C315 H319 0.950 . S
H316 C312 0.950 . S
C317 C315 1.390 . S
C317 C318 1.387 . S
C317 H320 0.950 . S
C318 C317 1.387 . S
C318 C321 1.387 1_556 S
H319 C315 0.950 . S
H320 C317 0.950 . S
C321 C312 1.390 . S
C321 H314 0.950 . S
C321 C318 1.387 1_554 S
C322 C323 1.387 . S
C322 H326 0.950 . S
C322 C331 1.390 . S
C323 C322 1.387 . S
C323 C325 1.387 . S
H324 C331 0.950 . S
C325 C323 1.387 . S
C325 C327 1.390 . S
C325 H329 0.950 . S
H326 C322 0.950 . S
C327 C325 1.390 . S
C327 C328 1.387 . S
C327 H330 0.950 . S
C328 C327 1.387 . S
C328 C331 1.387 . S
H329 C325 0.950 . S
H330 C327 0.950 . S
C331 C322 1.390 . S
C331 H324 0.950 . S
C331 C328 1.387 . S
C332 C333 1.387 . S
C332 H336 0.950 1_556 S
C332 C341 1.390 . S
C333 C332 1.387 . S
C333 C335 1.387 . S
H334 C341 0.950 . S
C335 C333 1.387 . S
C335 C337 1.390 . S
C335 H339 0.950 . S
H336 C332 0.950 1_554 S
C337 C335 1.390 . S
C337 C338 1.387 . S
C337 H340 0.950 . S
C338 C337 1.387 . S
C338 C341 1.387 . S
H339 C335 0.950 . S
H340 C337 0.950 . S
C341 C332 1.390 . S
C341 H334 0.950 . S
C341 C338 1.387 . S
C342 C343 1.387 . S
C342 H346 0.950 . S
C342 C351 1.390 . S
C343 C342 1.387 . S
C343 C345 1.387 . S
H344 C351 0.950 . S
C345 C343 1.387 . S
C345 C347 1.390 1_556 S
C345 H349 0.950 1_556 S
H346 C342 0.950 . S
C347 C345 1.390 1_554 S
C347 C348 1.388 1_554 S
C347 H350 0.949 . S
C348 C347 1.388 1_556 S
C348 C351 1.387 . S
H349 C345 0.950 1_554 S
H350 C347 0.949 . S
C351 C342 1.390 . S
C351 H344 0.950 . S
C351 C348 1.387 . S
C352 C353 1.387 1_554 S
C352 H356 0.950 . S
C352 C361 1.390 . S
C353 C352 1.387 1_556 S
C353 C355 1.387 1_565 S
H354 C361 0.950 . S
C355 C353 1.387 1_545 S
C355 C357 1.390 . S
C355 H359 0.950 . S
H356 C352 0.950 . S
C357 C355 1.390 . S
C357 C358 1.387 . S
C357 H360 0.950 . S
C358 C357 1.387 . S
C358 C361 1.387 1_546 S
H359 C355 0.950 . S
H360 C357 0.950 . S
C361 C352 1.390 . S
C361 H354 0.950 . S
C361 C358 1.387 1_564 S
C362 C363 1.387 . S
C362 H366 0.950 . S
C362 C371 1.390 . S
C363 C362 1.387 . S
C363 C365 1.387 . S
H364 C371 0.950 . S
C365 C363 1.387 . S
C365 C367 1.390 . S
C365 H369 0.950 . S
H366 C362 0.950 . S
C367 C365 1.390 . S
C367 C368 1.387 . S
C367 H370 0.950 . S
C368 C367 1.387 . S
C368 C371 1.387 . S
H369 C365 0.950 . S
H370 C367 0.950 . S
C371 C362 1.390 . S
C371 H364 0.950 . S
C371 C368 1.387 . S
C372 C373 1.387 . S
C372 H376 0.950 . S
C372 C381 1.390 . S
C373 C372 1.387 . S
C373 C375 1.387 . S
H374 C381 0.950 . S
C375 C373 1.387 . S
C375 C377 1.390 . S
C375 H379 0.950 . S
H376 C372 0.950 . S
C377 C375 1.390 . S
C377 C378 1.387 . S
C377 H380 0.950 1_556 S
C378 C377 1.387 . S
C378 C381 1.387 . S
H379 C375 0.950 . S
H380 C377 0.950 1_554 S
C381 C372 1.390 . S
C381 H374 0.950 . S
C381 C378 1.387 . S
C382 C383 1.387 1_556 S
C382 H386 0.950 . S
C382 C391 1.390 1_655 S
C383 C382 1.387 1_554 S
C383 C385 1.387 1_655 S
H384 C391 0.950 . S
C385 C383 1.387 1_455 S
C385 C387 1.390 . S
C385 H389 0.950 . S
H386 C382 0.950 . S
C387 C385 1.390 . S
C387 C388 1.387 1_554 S
C387 H390 0.950 . S
C388 C387 1.387 1_556 S
C388 C391 1.387 . S
H389 C385 0.950 . S
H390 C387 0.950 . S
C391 C382 1.390 1_455 S
C391 H384 0.950 . S
C391 C388 1.387 . S
C392 C393 1.387 . S
C392 H396 0.950 . S
C392 C401 1.390 . S
C393 C392 1.387 . S
C393 C395 1.387 . S
H394 C401 0.950 . S
C395 C393 1.387 . S
C395 C397 1.390 . S
C395 H399 0.950 1_556 S
H396 C392 0.950 . S
C397 C395 1.390 . S
C397 C398 1.387 . S
C397 H400 0.950 1_556 S
C398 C397 1.387 . S
C398 C401 1.387 . S
H399 C395 0.950 1_554 S
H400 C397 0.950 1_554 S
C401 C392 1.390 . S
C401 H394 0.950 . S
C401 C398 1.387 . S
C402 C403 1.387 1_554 S
C402 H406 0.950 . S
C402 C411 1.390 . S
C403 C402 1.387 1_556 S
C403 C405 1.387 . S
H404 C411 0.950 . S
C405 C403 1.387 . S
C405 C407 1.390 . S
C405 H409 0.950 . S
H406 C402 0.950 . S
C407 C405 1.390 . S
C407 C408 1.387 . S
C407 H410 0.950 . S
C408 C407 1.387 . S
C408 C411 1.387 1_556 S
H409 C405 0.950 . S
H410 C407 0.950 . S
C411 C402 1.390 . S
C411 H404 0.950 . S
C411 C408 1.387 1_554 S
C412 C413 1.387 . S
C412 H416 0.950 . S
C412 C421 1.390 . S
C413 C412 1.387 . S
C413 C415 1.387 . S
H414 C421 0.950 . S
C415 C413 1.387 . S
C415 C417 1.390 . S
C415 H419 0.950 . S
H416 C412 0.950 . S
C417 C415 1.390 . S
C417 C418 1.387 . S
C417 H420 0.950 . S
C418 C417 1.387 . S
C418 C421 1.387 . S
H419 C415 0.950 . S
H420 C417 0.950 . S
C421 C412 1.390 . S
C421 H414 0.950 . S
C421 C418 1.387 . S
C422 C423 1.387 . S
C422 H426 0.950 . S
C422 C431 1.390 . S
C423 C422 1.387 . S
C423 C425 1.387 1_556 S
H424 C431 0.950 . S
C425 C423 1.387 1_554 S
C425 C427 1.390 . S
C425 H429 0.950 . S
H426 C422 0.950 . S
C427 C425 1.390 . S
C427 C428 1.387 1_554 S
C427 H430 0.950 . S
C428 C427 1.387 1_556 S
C428 C431 1.387 . S
H429 C425 0.950 . S
H430 C427 0.950 . S
C431 C422 1.390 . S
C431 H424 0.950 . S
C431 C428 1.387 . S
C432 C433 1.386 . S
C432 H436 0.950 . S
C432 C441 1.393 . S
C433 C432 1.386 . S
C433 C435 1.388 1_654 S
H434 C441 0.953 . S
C435 C433 1.388 1_456 S
C435 C437 1.390 . S
C435 H439 0.950 . S
H436 C432 0.950 . S
C437 C435 1.390 . S
C437 C438 1.387 1_556 S
C437 H440 0.950 . S
C438 C437 1.387 1_554 S
C438 C441 1.382 1_455 S
H439 C435 0.950 . S
H440 C437 0.950 . S
C441 C432 1.393 . S
C441 H434 0.953 . S
C441 C438 1.382 1_655 S
C442 C443 1.387 1_545 S
C442 H446 0.950 . S
C442 C451 1.390 . S
C443 C442 1.387 1_565 S
C443 C445 1.387 1_556 S
H444 C451 0.950 . S
C445 C443 1.387 1_554 S
C445 C447 1.390 1_565 S
C445 H449 0.950 . S
H446 C442 0.950 . S
C447 C445 1.390 1_545 S
C447 C448 1.387 1_554 S
C447 H450 0.950 . S
C448 C447 1.387 1_556 S
C448 C451 1.387 . S
H449 C445 0.950 . S
H450 C447 0.950 . S
C451 C442 1.390 . S
C451 H444 0.950 . S
C451 C448 1.387 . S
C452 C453 1.387 . S
C452 H456 0.950 . S
C452 C461 1.390 . S
C453 C452 1.387 . S
C453 C455 1.387 . S
H454 C461 0.950 . S
C455 C453 1.387 . S
C455 C457 1.390 . S
C455 H459 0.950 . S
H456 C452 0.950 . S
C457 C455 1.390 . S
C457 C458 1.387 . S
C457 H460 0.950 . S
C458 C457 1.387 . S
C458 C461 1.387 . S
H459 C455 0.950 . S
H460 C457 0.950 . S
C461 C452 1.390 . S
C461 H454 0.950 . S
C461 C458 1.387 . S
C462 C463 1.387 . S
C462 H466 0.950 1_556 S
C462 C471 1.390 1_556 S
C463 C462 1.387 . S
C463 C465 1.387 . S
H464 C471 0.950 . S
C465 C463 1.387 . S
C465 C467 1.390 . S
C465 H469 0.950 . S
H466 C462 0.950 1_554 S
C467 C465 1.390 . S
C467 C468 1.387 . S
C467 H470 0.950 . S
C468 C467 1.387 . S
C468 C471 1.387 1_556 S
H469 C465 0.950 . S
H470 C467 0.950 . S
C471 C462 1.390 1_554 S
C471 H464 0.950 . S
C471 C468 1.387 1_554 S
C472 C473 1.387 . S
C472 H476 0.950 . S
C472 C481 1.390 . S
C473 C472 1.387 . S
C473 C475 1.387 . S
H474 C481 0.950 . S
C475 C473 1.387 . S
C475 C477 1.390 . S
C475 H479 0.950 . S
H476 C472 0.950 . S
C477 C475 1.390 . S
C477 C478 1.387 . S
C477 H480 0.950 . S
C478 C477 1.387 . S
C478 C481 1.387 . S
H479 C475 0.950 . S
H480 C477 0.950 . S
C481 C472 1.390 . S
C481 H474 0.950 . S
C481 C478 1.387 . S
C482 C483 1.387 . S
C482 H486 0.950 . S
C482 C491 1.390 . S
C483 C482 1.387 . S
C483 C485 1.387 . S
H484 C491 0.950 . S
C485 C483 1.387 . S
C485 C487 1.390 . S
C485 H489 0.950 . S
H486 C482 0.950 . S
C487 C485 1.390 . S
C487 C488 1.387 . S
C487 H490 0.950 . S
C488 C487 1.387 . S
C488 C491 1.387 . S
H489 C485 0.950 . S
H490 C487 0.950 . S
C491 C482 1.390 . S
C491 H484 0.950 . S
C491 C488 1.387 . S
C492 C493 1.387 . S
C492 H496 0.950 . S
C492 C501 1.390 . S
C493 C492 1.387 . S
C493 C495 1.387 . S
H494 C501 0.950 . S
C495 C493 1.387 . S
C495 C497 1.390 . S
C495 H499 0.950 . S
H496 C492 0.950 . S
C497 C495 1.390 . S
C497 C498 1.387 . S
C497 H500 0.950 . S
C498 C497 1.387 . S
C498 C501 1.387 . S
H499 C495 0.950 . S
H500 C497 0.950 . S
C501 C492 1.390 . S
C501 H494 0.950 . S
C501 C498 1.387 . S
C502 C503 1.387 . S
C502 H506 0.950 . S
C502 C511 1.390 . S
C503 C502 1.387 . S
C503 C505 1.387 . S
H504 C511 0.950 . S
C505 C503 1.387 . S
C505 C507 1.390 . S
C505 H509 0.950 . S
H506 C502 0.950 . S
C507 C505 1.390 . S
C507 C508 1.387 . S
C507 H510 0.950 . S
C508 C507 1.387 . S
C508 C511 1.387 . S
H509 C505 0.950 . S
H510 C507 0.950 . S
C511 C502 1.390 . S
C511 H504 0.950 . S
C511 C508 1.387 . S
C512 C513 1.387 1_455 S
C512 H516 0.950 . S
C512 C521 1.390 . S
C513 C512 1.387 1_655 S
C513 C515 1.387 . S
H514 C521 0.950 . S
C515 C513 1.387 . S
C515 C517 1.390 . S
C515 H519 0.950 . S
H516 C512 0.950 . S
C517 C515 1.390 . S
C517 C518 1.387 . S
C517 H520 0.950 . S
C518 C517 1.387 . S
C518 C521 1.387 1_655 S
H519 C515 0.950 . S
H520 C517 0.950 . S
C521 C512 1.390 . S
C521 H514 0.950 . S
C521 C518 1.387 1_455 S
C522 C523 1.387 . S
C522 H526 0.950 . S
C522 C531 1.390 . S
C523 C522 1.387 . S
C523 C525 1.387 1_565 S
H524 C531 0.950 . S
C525 C523 1.387 1_545 S
C525 C527 1.390 . S
C525 H529 0.950 . S
H526 C522 0.950 . S
C527 C525 1.390 . S
C527 C528 1.387 1_545 S
C527 H530 0.950 . S
C528 C527 1.387 1_565 S
C528 C531 1.387 . S
H529 C525 0.950 . S
H530 C527 0.950 . S
C531 C522 1.390 . S
C531 H524 0.950 . S
C531 C528 1.387 . S
C532 C533 1.387 . S
C532 H536 0.950 . S
C532 C541 1.390 . S
C533 C532 1.387 . S
C533 C535 1.387 . S
H534 C541 0.950 . S
C535 C533 1.387 . S
C535 C537 1.390 . S
C535 H539 0.950 . S
H536 C532 0.950 . S
C537 C535 1.390 . S
C537 C538 1.387 . S
C537 H540 0.950 . S
C538 C537 1.387 . S
C538 C541 1.387 . S
H539 C535 0.950 . S
H540 C537 0.950 . S
C541 C532 1.390 . S
C541 H534 0.950 . S
C541 C538 1.387 . S
C542 C543 1.387 . S
C542 H546 0.950 . S
C542 C551 1.390 . S
C543 C542 1.387 . S
C543 C545 1.387 . S
H544 C551 0.950 . S
C545 C543 1.387 . S
C545 C547 1.390 . S
C545 H549 0.950 . S
H546 C542 0.950 . S
C547 C545 1.390 . S
C547 C548 1.387 . S
C547 H550 0.950 . S
C548 C547 1.387 . S
C548 C551 1.387 . S
H549 C545 0.950 . S
H550 C547 0.950 . S
C551 C542 1.390 . S
C551 H544 0.950 . S
C551 C548 1.387 . S
C313 C125 1.406 . S
C318 C161 1.725 . S
C328 C201 1.372 . S
C323 C144 1.525 . S
C338 C250 1.547 . S
C333 C87 1.338 . S
C348 C281 1.850 . S
C343 C106 1.733 . S
C358 C170 1.725 . S
C353 C49 1.574 1_556 S
C363 C68 1.579 . S
C368 C210 1.370 . S
C373 C11 1.363 . S
C378 C241 1.547 . S
C383 C30 1.873 . S
C388 C290 1.851 . S
C398 C171 1.399 . S
C393 C97 1.183 . S
C408 C211 1.808 . S
C403 C116 1.537 . S
C418 C247 1.006 . S
C413 C135 1.023 . S
C423 C78 1.371 . S
C428 C291 1.617 . S
C433 C21 1.187 . S
C438 C162 1.401 1_554 S
C448 C202 1.807 . S
C443 C40 1.539 1_556 S
C458 C238 1.007 . S
C453 C59 1.023 . S
C463 C2 1.375 . S
C468 C282 1.618 . S
C473 C101 1.622 . S
C478 C167 1.646 . S
C483 C120 1.473 . S
C488 C207 1.433 . S
C498 C251 2.002 . S
C493 C139 1.843 . S
C508 C287 1.433 . S
C503 C82 1.469 . S
C513 C25 1.624 . S
C518 C158 1.646 1_655 S
C528 C198 1.432 . S
C523 C44 1.471 . S
C538 C242 2.002 . S
C533 C63 1.840 . S
C543 C6 1.465 . S
C548 C278 1.431 . S
