# Generated by pormake.
# Topology anh, (6,3)-cn, num edge types: 1
# Building blocks:
#     Node 0, Type 0, BuildingBlock: NUHQIS_clean_sbu_0, # of connection points: 6
#     Node 1, Type 0, BuildingBlock: NUHQIS_clean_sbu_0, # of connection points: 6
#     Node 2, Type 0, BuildingBlock: NUHQIS_clean_sbu_0, # of connection points: 6
#     Node 3, Type 1, BuildingBlock: BETDIP_clean_linker_0, # of connection points: 3
#     Node 4, Type 1, BuildingBlock: BETDIP_clean_linker_0, # of connection points: 3
#     Node 5, Type 1, BuildingBlock: BETDIP_clean_linker_0, # of connection points: 3
#     Node 6, Type 1, BuildingBlock: BETDIP_clean_linker_0, # of connection points: 3
#     Node 7, Type 1, BuildingBlock: BETDIP_clean_linker_0, # of connection points: 3
#     Node 8, Type 1, BuildingBlock: BETDIP_clean_linker_0, # of connection points: 3
#     Edge 9, Type (0, 1), BuildingBlock: AJUNOK_clean_linker_0, # of connection points: 2
#     Edge 10, Type (0, 1), BuildingBlock: AJUNOK_clean_linker_0, # of connection points: 2
#     Edge 11, Type (0, 1), BuildingBlock: AJUNOK_clean_linker_0, # of connection points: 2
#     Edge 12, Type (0, 1), BuildingBlock: AJUNOK_clean_linker_0, # of connection points: 2
#     Edge 13, Type (0, 1), BuildingBlock: AJUNOK_clean_linker_0, # of connection points: 2
#     Edge 14, Type (0, 1), BuildingBlock: AJUNOK_clean_linker_0, # of connection points: 2
#     Edge 15, Type (0, 1), BuildingBlock: AJUNOK_clean_linker_0, # of connection points: 2
#     Edge 16, Type (0, 1), BuildingBlock: AJUNOK_clean_linker_0, # of connection points: 2
#     Edge 17, Type (0, 1), BuildingBlock: AJUNOK_clean_linker_0, # of connection points: 2
#     Edge 18, Type (0, 1), BuildingBlock: AJUNOK_clean_linker_0, # of connection points: 2
#     Edge 19, Type (0, 1), BuildingBlock: AJUNOK_clean_linker_0, # of connection points: 2
#     Edge 20, Type (0, 1), BuildingBlock: AJUNOK_clean_linker_0, # of connection points: 2
#     Edge 21, Type (0, 1), BuildingBlock: AJUNOK_clean_linker_0, # of connection points: 2
#     Edge 22, Type (0, 1), BuildingBlock: AJUNOK_clean_linker_0, # of connection points: 2
#     Edge 23, Type (0, 1), BuildingBlock: AJUNOK_clean_linker_0, # of connection points: 2
#     Edge 24, Type (0, 1), BuildingBlock: AJUNOK_clean_linker_0, # of connection points: 2
#     Edge 25, Type (0, 1), BuildingBlock: AJUNOK_clean_linker_0, # of connection points: 2
#     Edge 26, Type (0, 1), BuildingBlock: AJUNOK_clean_linker_0, # of connection points: 2
# Relax obj value: 0.372
# Max RMSD: 0.174
# Mean RMSD: 0.132
data_MOF--net-anh--node1-NUHQIS_clean_sbu_0--node2-BETDIP_clean_linker_0--edge1-AJUNOK_clean_linker_0
_symmetry_space_group_name_H-M    P1
_symmetry_Int_Tables_number       1
_symmetry_cell_setting            triclinic
loop_
_symmetry_equiv_pos_as_xyz
'x, y, z'
_cell_length_a     21.868321
_cell_length_b     21.3987
_cell_length_c     37.036393
_cell_angle_alpha  89.62102
_cell_angle_beta   96.365122
_cell_angle_gamma 119.96869
loop_
_atom_site_label
_atom_site_type_symbol
_atom_site_fract_x
_atom_site_fract_y
_atom_site_fract_z
_atom_type_partial_charge
Tb0 Tb 0.2991 0.7206 0.16203 0.0
Eu1 Eu 0.22875 0.82181 0.1644 0.0
C2 C 0.2806 0.77071 0.23504 0.0
C3 C 1.13352 0.64913 0.1655 0.0
C4 C 0.39344 0.61969 0.14403 0.0
C5 C 0.44681 0.54547 0.13867 0.0
C6 C 0.40707 0.5659 0.1572 0.0
C7 C 0.42013 0.65361 0.11233 0.0
C8 C 0.45992 0.63311 0.09371 0.0
C9 C 0.47328 0.57874 0.10676 0.0
C10 C 0.34526 0.63391 0.16174 0.0
O11 O 0.30862 0.76598 0.1093 0.0
O12 O 1.20722 0.77191 0.10705 0.0
O13 O 0.34251 0.9006 0.15605 0.0
O14 O 0.39117 0.83061 0.1753 0.0
C15 C 0.2552 0.76743 0.09048 0.0
O16 O 1.17858 0.87874 0.13708 0.0
O17 O 1.19482 0.88246 0.19569 0.0
O18 O 0.28572 0.82853 0.22026 0.0
O19 O 0.26605 0.71413 0.21508 0.0
O20 O 1.1839 0.64687 0.15026 0.0
O21 O 1.14308 0.71082 0.17838 0.0
C22 C 0.39832 0.89423 0.16732 0.0
O23 O 0.37338 0.69098 0.18401 0.0
O24 O 0.29016 0.62635 0.14051 0.0
C25 C 1.0829 0.86017 0.16882 0.0
C26 C 0.9434 0.7507 0.17541 0.0
C27 C 0.96546 0.77041 0.14082 0.0
C28 C 1.03458 0.82497 0.13753 0.0
C29 C 1.05704 0.84898 0.20285 0.0
C30 C 0.98759 0.79437 0.20613 0.0
C31 C 1.16006 0.89178 0.16725 0.0
H32 H 0.4574 0.50411 0.1494 0.0
H33 H 0.38598 0.5389 0.18149 0.0
H34 H 0.40898 0.69468 0.1017 0.0
H35 H 0.47969 0.65912 0.06902 0.0
H36 H 0.93231 0.73847 0.11648 0.0
H37 H 1.05209 0.83356 0.11078 0.0
H38 H 1.09257 0.87686 0.2274 0.0
H39 H 0.97086 0.7821 0.23298 0.0
Tb40 Tb 0.7856 0.29058 0.50384 0.0
Eu41 Eu 0.6145 0.23253 0.48885 0.0
C42 C 0.6891 0.23488 0.56646 0.0
C43 C 0.67445 1.12142 0.49847 0.0
C44 C 0.99016 0.37815 0.51546 0.0
C45 C 1.11185 0.40449 0.53006 0.0
C46 C 1.0411 0.36786 0.53676 0.0
C47 C 1.01104 0.42797 0.48823 0.0
C48 C 1.08232 0.46546 0.48173 0.0
C49 C 1.13317 0.45293 0.50215 0.0
C50 C 0.91533 0.32902 0.5196 0.0
O51 O 0.76943 0.31068 0.4465 0.0
O52 O 0.64974 0.2289 0.43463 0.0
O53 O 0.66745 0.35148 0.48023 0.0
O54 O 0.77212 0.38396 0.51612 0.0
C55 C 0.71167 0.2716 0.42345 0.0
O56 O 0.5098 0.16918 0.45763 0.0
O57 O 0.52189 0.23237 0.50597 0.0
O58 O 0.65072 0.2588 0.5486 0.0
O59 O 0.73988 0.23358 0.55144 0.0
O60 O 0.7357 0.17393 0.49006 0.0
O61 O 0.62265 1.13364 0.50375 0.0
C62 C 0.7251 0.40051 0.50025 0.0
O63 O 0.88227 0.35181 0.53814 0.0
O64 O 0.8749 0.28735 0.4913 0.0
C65 C 0.42193 1.1147 0.49611 0.0
C66 C 0.3476 0.96802 0.51071 0.0
C67 C 0.32591 0.99282 0.47928 0.0
C68 C 0.36297 1.06586 0.47205 0.0
C69 C 0.43638 1.09186 0.53004 0.0
C70 C 0.39876 1.01901 0.5375 0.0
C71 C 0.47736 0.18083 0.482 0.0
H72 H 1.149 0.39203 0.5456 0.0
H73 H 1.02548 0.32869 0.55754 0.0
H74 H 0.97206 0.43594 0.47132 0.0
H75 H 1.09736 0.50274 0.46011 0.0
H76 H 0.28715 0.95509 0.45791 0.0
H77 H 0.35101 1.08242 0.44574 0.0
H78 H 0.48164 1.12847 0.54913 0.0
H79 H 0.41621 1.00145 0.56204 0.0
Tb80 Tb 0.81797 0.78777 0.84548 0.0
Eu81 Eu 0.72185 0.61518 0.83244 0.0
C82 C 0.81126 0.68835 0.90735 0.0
C83 C 0.89577 0.69852 0.83318 0.0
C84 C 0.81855 0.95066 0.84863 0.0
C85 C 0.69437 0.91334 0.85072 0.0
C86 C 0.75915 0.9241 0.86793 0.0
C87 C 0.81629 0.98244 0.81558 0.0
C88 C 0.75165 0.97345 0.79877 0.0
C89 C 0.68847 0.93092 0.81441 0.0
C90 C 0.86652 0.92045 0.8552 0.0
O91 O 0.76912 0.76875 0.78827 0.0
O92 O 0.74352 0.65263 0.77687 0.0
O93 O 0.64369 0.65613 0.82344 0.0
O94 O 0.71268 0.75256 0.86299 0.0
C95 C 0.75189 0.71388 0.7654 0.0
O96 O 0.67579 0.51111 0.80291 0.0
O97 O 0.64789 0.51651 0.85674 0.0
O98 O 0.74644 0.64713 0.89176 0.0
O99 O 0.85528 0.74611 0.89177 0.0
O100 O 0.89702 0.76088 0.83074 0.0
O101 O 0.8365 0.63797 0.83777 0.0
C102 C 0.65008 0.70817 0.84481 0.0
O103 O 0.85432 0.87757 0.88205 0.0
O104 O 0.87422 0.89203 0.82614 0.0
C105 C 0.652 0.41253 0.8399 0.0
C106 C 0.64207 0.27694 0.84547 0.0
C107 C 0.69382 0.33087 0.82624 0.0
C108 C 0.69893 0.39819 0.8236 0.0
C109 C 0.60654 0.36235 0.86277 0.0
C110 C 0.60212 0.29518 0.86587 0.0
C111 C 0.64396 0.4749 0.83005 0.0
H112 H 0.64797 0.88443 0.86469 0.0
H113 H 0.75945 0.90186 0.89426 0.0
H114 H 0.86189 1.00578 0.80058 0.0
H115 H 0.75029 0.99404 0.7721 0.0
H116 H 0.72504 0.31893 0.80977 0.0
H117 H 0.73573 0.43663 0.80644 0.0
H118 H 0.57078 0.373 0.87614 0.0
H119 H 0.56243 0.25505 0.88125 0.0
H120 H 0.71404 0.21009 0.16332 0.0
H121 H 0.81564 0.34485 0.26239 0.0
H122 H 0.62509 1.13938 0.26391 0.0
H123 H 0.91471 0.35558 0.23401 0.0
C124 C 0.90165 0.3754 0.20895 0.0
C125 C 0.7158 0.21948 0.19221 0.0
C126 C 0.66233 0.16664 0.21155 0.0
C127 C 0.77326 0.28319 0.21067 0.0
C128 C 0.77392 0.29504 0.24822 0.0
C129 C 0.71993 0.24429 0.26744 0.0
C130 C 0.66565 0.17984 0.249 0.0
N131 N 0.82974 0.33528 0.19168 0.0
H132 H 0.72229 0.71629 0.50167 0.0
H133 H 0.71836 0.81522 0.60186 0.0
H134 H 0.74574 0.6303 0.60464 0.0
H135 H 0.62979 0.82201 0.56174 0.0
C136 C 0.66415 0.85103 0.54125 0.0
C137 C 0.72533 0.71803 0.53106 0.0
C138 C 0.73517 0.66604 0.5509 0.0
C139 C 0.71821 0.77179 0.54918 0.0
C140 C 0.7228 0.77403 0.58748 0.0
C141 C 0.73193 0.72284 0.60752 0.0
C142 C 0.73882 0.66989 0.58907 0.0
N143 N 0.70613 0.82303 0.52904 0.0
H144 H 0.21474 0.69635 0.8272 0.0
H145 H 0.32697 0.71741 0.93414 0.0
H146 H 1.13388 0.72589 0.92235 0.0
H147 H 0.42306 0.77451 0.90422 0.0
C148 C 0.40836 0.73912 0.88007 0.0
C149 C 0.21958 0.70371 0.85648 0.0
C150 C 1.16546 0.70761 0.87263 0.0
C151 C 0.28047 0.71021 0.87842 0.0
C152 C 0.28374 0.71709 0.91669 0.0
C153 C 0.23063 0.72167 0.93293 0.0
C154 C 1.17329 0.71883 0.91044 0.0
N155 N 0.33665 0.70807 0.86216 0.0
H156 H 0.3972 0.69043 0.48227 0.0
H157 H 0.3951 0.66069 0.36728 0.0
H158 H 0.29262 0.76939 0.40601 0.0
H159 H 0.45802 0.56747 0.4726 0.0
C160 C 0.41693 0.57742 0.45964 0.0
C161 C 0.37918 0.69493 0.45444 0.0
C162 C 0.34 0.73017 0.44761 0.0
C163 C 0.39724 0.6677 0.42544 0.0
C164 C 0.37949 0.67981 0.38961 0.0
C165 C 0.34012 0.715 0.38261 0.0
C166 C 0.31969 0.73885 0.41158 0.0
N167 N 0.4334 0.62824 0.43214 0.0
H168 H 0.45899 0.94968 0.76294 0.0
H169 H 0.48789 0.95379 0.64989 0.0
H170 H 0.63128 1.13604 0.72357 0.0
H171 H 0.36604 0.76422 0.7274 0.0
C172 C 0.41487 0.81526 0.72652 0.0
C173 C 0.4901 0.97598 0.74105 0.0
C174 C 0.55026 1.04447 0.74781 0.0
C175 C 0.47035 0.94089 0.7063 0.0
C176 C 0.50535 0.97911 0.67712 0.0
C177 C 0.56342 1.04984 0.68349 0.0
C178 C 0.58704 1.08107 0.71891 0.0
N179 N 0.4172 0.86659 0.70112 0.0
H180 H 0.64381 0.42978 0.09993 0.0
H181 H 0.84444 0.50625 0.05871 0.0
H182 H 0.69131 0.5599 0.00752 0.0
H183 H 0.75399 0.41006 0.1684 0.0
C184 C 0.75908 0.45028 0.14911 0.0
C185 C 0.67799 0.45614 0.07905 0.0
C186 C 0.66079 0.49531 0.05373 0.0
C187 C 0.74517 0.46208 0.08194 0.0
C188 C 0.79193 0.50028 0.05625 0.0
C189 C 0.77183 0.53491 0.02897 0.0
C190 C 0.70547 0.53027 0.0274 0.0
N191 N 0.76829 0.4366 0.11296 0.0
C192 C 0.49434 0.48558 0.07994 0.0
C193 C 0.5178 0.55874 0.0884 0.0
C194 C 0.53958 0.46493 0.06675 0.0
C195 C 0.60924 0.517 0.06148 0.0
H196 H 0.44138 0.44401 0.08454 0.0
H197 H 0.52088 0.40802 0.06172 0.0
S198 S 0.69656 0.71518 0.08095 0.0
N199 N 0.61493 0.68289 0.0912 0.0
N200 N 0.70013 0.6445 0.06641 0.0
C201 C 0.63264 0.59047 0.06909 0.0
C202 C 0.58676 0.61129 0.08252 0.0
C203 C 0.21673 0.48327 0.45552 0.0
C204 C 1.20654 0.48494 0.49228 0.0
C205 C 0.28488 0.51071 0.44531 0.0
C206 C 0.34523 0.54032 0.47148 0.0
H207 H 1.17166 0.46007 0.43443 0.0
H208 H 0.29053 0.50954 0.41666 0.0
S209 S 0.34869 0.56026 0.57092 0.0
N210 N 0.26349 0.52105 0.55481 0.0
N211 N 0.39158 0.57074 0.53532 0.0
C212 C 0.33618 0.54137 0.50825 0.0
C213 C 0.26683 0.51439 0.51873 0.0
C214 C 0.556 0.88324 0.80761 0.0
C215 C 0.61722 0.89666 0.79198 0.0
C216 C 0.48846 0.84894 0.78721 0.0
C217 C 0.48028 0.82999 0.7501 0.0
H218 H 0.56015 0.90093 0.83553 0.0
H219 H 0.44333 0.84241 0.7998 0.0
S220 S 0.61871 0.84031 0.69731 0.0
N221 N 0.66114 0.87529 0.7382 0.0
N222 N 0.53541 0.81865 0.69929 0.0
C223 C 0.53946 0.83931 0.73452 0.0
C224 C 0.6077 0.87124 0.75551 0.0
C225 C 0.82152 0.65029 0.15352 0.0
C226 C 0.8829 0.67715 0.17885 0.0
C227 C 0.77635 0.57597 0.14651 0.0
C228 C 0.79145 0.52594 0.16418 0.0
H229 H 0.81136 0.68689 0.13701 0.0
H230 H 0.73128 0.55887 0.12619 0.0
S231 S 0.93073 0.5682 0.24191 0.0
N232 N 0.94669 0.64781 0.22796 0.0
N233 N 0.85947 0.50788 0.21537 0.0
C234 C 0.84535 0.55187 0.19379 0.0
C235 C 0.89199 0.6277 0.20088 0.0
C236 C 0.39782 0.88713 0.51166 0.0
C237 C 0.33668 0.89388 0.50892 0.0
C238 C 0.39609 0.8269 0.49627 0.0
C239 C 0.33325 0.77198 0.47687 0.0
H240 H 0.44931 0.93265 0.52126 0.0
H241 H 0.44616 0.82832 0.49542 0.0
S242 S 1.15487 0.75404 0.47037 0.0
N243 N 1.20857 0.83316 0.49243 0.0
N244 N 1.20548 0.71987 0.46236 0.0
C245 C 0.26977 0.77294 0.47833 0.0
C246 C 0.27145 0.83415 0.49451 0.0
C247 C 0.54334 0.15624 0.82208 0.0
C248 C 0.61616 0.20023 0.83492 0.0
C249 C 0.5203 1.09857 0.79671 0.0
C250 C 0.56934 1.0832 0.7836 0.0
H251 H 0.50498 0.17162 0.82781 0.0
H252 H 0.46543 1.07157 0.78427 0.0
S253 S 0.76031 0.16463 0.8182 0.0
N254 N 0.73322 0.21148 0.84022 0.0
N255 N 0.68962 1.10326 0.7917 0.0
C256 C 0.63975 1.11867 0.80056 0.0
C257 C 0.66322 0.1771 0.82666 0.0
C258 C 0.70846 1.02489 0.49151 0.0
C259 C 0.66793 1.04982 0.50724 0.0
C260 C 0.7068 0.96019 0.50174 0.0
C261 C 0.66526 0.91835 0.52853 0.0
H262 H 0.7421 1.05584 0.47123 0.0
H263 H 0.73892 0.94351 0.48894 0.0
S264 S 0.55461 0.96231 0.58052 0.0
N265 N 0.58766 1.02805 0.55233 0.0
N266 N 0.58535 0.90846 0.57162 0.0
C267 C 0.62516 0.94305 0.54458 0.0
C268 C 0.62622 1.00807 0.53397 0.0
C269 C 0.96793 0.63606 0.8464 0.0
C270 C 0.96508 0.69811 0.83559 0.0
C271 C 1.03324 0.63747 0.85471 0.0
C272 C 1.09897 0.7005 0.85205 0.0
H273 H 0.91956 0.5868 0.85051 0.0
H274 H 1.0325 0.58998 0.86556 0.0
S275 S 1.1226 0.87594 0.82209 0.0
N276 N 1.03549 0.82347 0.82019 0.0
N277 N 1.15705 0.82532 0.83599 0.0
C278 C 1.09701 0.76154 0.83931 0.0
C279 C 1.0306 0.7605 0.83099 0.0
C280 C 0.4791 1.02942 0.16321 0.0
C281 C 0.4703 0.96213 0.1741 0.0
C282 C 0.54326 1.09513 0.17296 0.0
C283 C 0.60168 1.09675 0.19408 0.0
H284 H 0.43519 1.03188 0.14799 0.0
H285 H 0.54586 1.14535 0.16548 0.0
S286 S 0.60984 0.93719 0.22787 0.0
N287 N 0.52896 0.9025 0.20571 0.0
N288 N 0.64806 1.02542 0.22416 0.0
C289 C 0.5949 1.03011 0.20391 0.0
C290 C 0.5299 0.96315 0.19385 0.0
C291 C 0.78721 0.52261 0.53492 0.0
C292 C 0.73264 0.47325 0.50855 0.0
C293 C 0.7898 0.58648 0.54686 0.0
C294 C 0.73825 0.60472 0.53295 0.0
H295 H 0.82703 0.5107 0.54758 0.0
H296 H 0.83159 0.621 0.5681 0.0
S297 S 0.58682 0.49753 0.46158 0.0
N298 N 0.6279 0.45043 0.46719 0.0
N299 N 0.6328 0.56941 0.48998 0.0
C300 C 0.68542 0.55786 0.50534 0.0
C301 C 0.68256 0.4926 0.49315 0.0
C302 C 0.58646 0.74414 0.88561 0.0
C303 C 0.58573 0.71277 0.85214 0.0
C304 C 0.52866 0.75121 0.89365 0.0
C305 C 0.46626 0.72691 0.86892 0.0
H306 H 0.63254 0.76401 0.90599 0.0
H307 H 0.53317 0.77641 0.91985 0.0
S308 S 0.43685 0.64269 0.77665 0.0
N309 N 0.51686 0.65838 0.79337 0.0
N310 N 0.40804 0.6709 0.80879 0.0
C311 C 0.46415 0.69498 0.83528 0.0
C312 C 0.52367 0.68803 0.8269 0.0
C313 C 1.00477 0.546 0.15566 0.0
C314 C 1.07334 0.57948 0.17553 0.0
C315 C 0.9493 0.47875 0.16535 0.0
C316 C 0.96011 0.44358 0.19574 0.0
H317 H 0.99404 0.57167 0.13246 0.0
H318 H 0.89753 0.45503 0.14942 0.0
S319 S 1.13071 0.5085 0.25581 0.0
N320 N 1.1491 0.57097 0.22585 0.0
N321 N 1.04595 0.44772 0.24479 0.0
C322 C 1.02882 0.47677 0.21534 0.0
C323 C 1.08496 0.5439 0.20515 0.0
C324 C 0.30698 0.79068 0.03168 0.0
C325 C 0.24679 0.75736 0.05038 0.0
C326 C 0.30136 0.7787 -0.00608 0.0
C327 C 0.23551 0.73144 0.9734 0.0
H328 H 0.35888 0.8269 0.04635 0.0
H329 H 0.349 0.80742 0.98069 0.0
S330 S 1.06306 0.62427 0.0107 0.0
N331 N 1.12003 0.67267 0.04628 0.0
N332 N 1.10952 0.64634 0.97583 0.0
C333 C 1.17512 0.69608 -0.0078 0.0
C334 C 1.18073 0.70997 0.0305 0.0
C335 C 0.77878 0.28685 0.36977 0.0
C336 C 0.71571 0.2725 0.38352 0.0
C337 C 0.78057 0.27966 0.33215 0.0
C338 C 0.71942 0.25806 0.30689 0.0
H339 H 0.82639 0.30109 0.38826 0.0
H340 H 0.82949 0.28868 0.32291 0.0
S341 S 0.54421 0.22512 0.32827 0.0
N342 N 0.59272 0.24298 0.36831 0.0
N343 N 0.59655 0.23054 0.29807 0.0
C344 C 0.65728 0.24741 0.32018 0.0
C345 C 0.65532 0.25436 0.35831 0.0
C346 C 0.78147 0.78363 0.7086 0.0
C347 C 0.74021 0.71904 0.72545 0.0
C348 C 0.77736 0.78533 0.67036 0.0
C349 C 0.73171 0.72257 0.64778 0.0
H350 H 0.81932 0.83227 0.72499 0.0
H351 H 0.81194 0.8354 0.65844 0.0
S352 S 0.6032 0.54357 0.67841 0.0
N353 N 0.64585 0.59332 0.71645 0.0
N354 N 0.63786 0.59695 0.64511 0.0
C355 C 0.68704 0.65912 0.66438 0.0
C356 C 0.69133 0.65727 0.70304 0.0
C357 C 0.59973 0.18336 0.61059 0.0
C358 C 0.66278 0.19267 0.59885 0.0
C359 C 0.56686 1.13515 0.63722 0.0
C360 C 0.59616 1.09507 0.65341 0.0
H361 H 0.5744 0.21232 0.59861 0.0
H362 H 0.51836 1.12948 0.64542 0.0
S363 S 0.76151 1.10097 0.63461 0.0
N364 N 0.75418 0.15831 0.60688 0.0
N365 N 0.69254 1.06915 0.65777 0.0
C366 C 0.66009 1.10518 0.64318 0.0
C367 C 0.69345 0.15372 0.61572 0.0
C368 C 0.84776 0.69513 0.97401 0.0
C369 C 0.83437 0.6611 0.93951 0.0
C370 C 0.84057 0.65597 0.00541 0.0
C371 C 0.81901 0.58181 0.00291 0.0
H372 H 0.85557 0.74913 0.9765 0.0
H373 H 0.84217 0.68093 0.03114 0.0
S374 S 0.79404 0.47389 0.9194 0.0
N375 N 0.81219 0.55396 0.90513 0.0
N376 N 0.79764 0.48053 0.96409 0.0
C377 C 0.81581 0.55085 0.96912 0.0
C378 C 0.82326 0.59049 0.93728 0.0
C379 C 0.36529 0.79182 0.28962 0.0
C380 C 0.29514 0.76808 0.27421 0.0
C381 C 0.3795 0.77386 0.32477 0.0
C382 C 0.32384 0.7317 0.34534 0.0
H383 H 0.40907 0.82173 0.27383 0.0
H384 H 0.4342 0.79262 0.33584 0.0
S385 S 1.13105 0.65636 0.31664 0.0
N386 N 1.16972 0.70044 0.28149 0.0
N387 N 1.19621 0.66742 0.34795 0.0
C388 C 0.25357 0.70897 0.33037 0.0
C389 C 0.23923 0.72688 0.29458 0.0
loop_
_geom_bond_atom_site_label_1
_geom_bond_atom_site_label_2
_geom_bond_distance
_geom_bond_site_symmetry_2
_ccdc_geom_bond_type
Tb0 C10 2.825 . S
Tb0 O11 2.347 . S
Tb0 O14 2.366 . S
Tb0 O19 2.418 . S
Tb0 O20 2.384 1_455 S
Tb0 O23 2.479 . S
Tb0 O24 2.471 . S
Eu1 O12 2.418 . S
Eu1 O13 2.384 . S
Eu1 O16 2.479 1_455 S
Eu1 O17 2.471 1_455 S
Eu1 O18 2.347 . S
Eu1 O21 2.366 1_455 S
Eu1 C31 2.825 1_455 S
C2 O18 1.259 . S
C2 O19 1.265 . S
C3 O20 1.255 . S
C3 O21 1.265 . S
C4 C6 1.380 . S
C4 C7 1.374 . S
C4 C10 1.507 . S
C5 C6 1.384 . S
C5 C9 1.387 . S
C5 H32 0.930 . S
C6 C4 1.380 . S
C6 C5 1.384 . S
C6 H33 0.931 . S
C7 C4 1.374 . S
C7 C8 1.390 . S
C7 H34 0.930 . S
C8 C7 1.390 . S
C8 C9 1.391 . S
C8 H35 0.930 . S
C9 C5 1.387 . S
C9 C8 1.391 . S
C10 Tb0 2.825 . S
C10 C4 1.507 . S
C10 O23 1.238 . S
C10 O24 1.247 . S
O11 Tb0 2.347 . S
O11 C15 1.259 . S
O12 Eu1 2.418 . S
O12 C15 1.265 . S
O13 Eu1 2.384 . S
O13 C22 1.255 . S
O14 Tb0 2.366 . S
O14 C22 1.265 . S
C15 O11 1.259 . S
C15 O12 1.265 . S
O16 Eu1 2.479 1_655 S
O16 C31 1.238 . S
O17 Eu1 2.471 1_655 S
O17 C31 1.247 . S
O18 Eu1 2.347 . S
O18 C2 1.259 . S
O19 Tb0 2.418 . S
O19 C2 1.265 . S
O20 Tb0 2.384 1_655 S
O20 C3 1.255 . S
O21 Eu1 2.366 1_655 S
O21 C3 1.265 . S
C22 O13 1.255 . S
C22 O14 1.265 . S
O23 Tb0 2.479 . S
O23 C10 1.238 . S
O24 Tb0 2.471 . S
O24 C10 1.247 . S
C25 C28 1.380 . S
C25 C29 1.374 . S
C25 C31 1.507 . S
C26 C27 1.387 . S
C26 C30 1.391 . S
C27 C26 1.387 . S
C27 C28 1.384 . S
C27 H36 0.930 . S
C28 C25 1.380 . S
C28 C27 1.384 . S
C28 H37 0.931 . S
C29 C25 1.374 . S
C29 C30 1.390 . S
C29 H38 0.930 . S
C30 C26 1.391 . S
C30 C29 1.390 . S
C30 H39 0.930 . S
C31 Eu1 2.825 1_655 S
C31 O16 1.238 . S
C31 O17 1.247 . S
C31 C25 1.507 . S
H32 C5 0.930 . S
H33 C6 0.931 . S
H34 C7 0.930 . S
H35 C8 0.930 . S
H36 C27 0.930 . S
H37 C28 0.931 . S
H38 C29 0.930 . S
H39 C30 0.930 . S
Tb40 C50 2.825 . S
Tb40 O51 2.347 . S
Tb40 O54 2.366 . S
Tb40 O59 2.418 . S
Tb40 O60 2.384 1_545 S
Tb40 O63 2.479 . S
Tb40 O64 2.471 . S
Eu41 O52 2.418 . S
Eu41 O53 2.384 . S
Eu41 O56 2.479 1_545 S
Eu41 O57 2.471 1_545 S
Eu41 O58 2.347 . S
Eu41 O61 2.366 1_545 S
Eu41 C71 2.825 1_545 S
C42 O58 1.259 . S
C42 O59 1.265 . S
C43 O60 1.255 . S
C43 O61 1.265 . S
C44 C46 1.380 . S
C44 C47 1.374 . S
C44 C50 1.507 . S
C45 C46 1.384 . S
C45 C49 1.387 . S
C45 H72 0.930 . S
C46 C44 1.380 . S
C46 C45 1.384 . S
C46 H73 0.931 . S
C47 C44 1.374 . S
C47 C48 1.390 . S
C47 H74 0.930 . S
C48 C47 1.390 . S
C48 C49 1.391 . S
C48 H75 0.930 . S
C49 C45 1.387 . S
C49 C48 1.391 . S
C50 Tb40 2.825 . S
C50 C44 1.507 . S
C50 O63 1.238 . S
C50 O64 1.247 . S
O51 Tb40 2.347 . S
O51 C55 1.259 . S
O52 Eu41 2.418 . S
O52 C55 1.265 . S
O53 Eu41 2.384 . S
O53 C62 1.255 . S
O54 Tb40 2.366 . S
O54 C62 1.265 . S
C55 O51 1.259 . S
C55 O52 1.265 . S
O56 Eu41 2.479 1_565 S
O56 C71 1.238 . S
O57 Eu41 2.471 1_565 S
O57 C71 1.247 . S
O58 Eu41 2.347 . S
O58 C42 1.259 . S
O59 Tb40 2.418 . S
O59 C42 1.265 . S
O60 Tb40 2.384 1_565 S
O60 C43 1.255 . S
O61 Eu41 2.366 1_565 S
O61 C43 1.265 . S
C62 O53 1.255 . S
C62 O54 1.265 . S
O63 Tb40 2.479 . S
O63 C50 1.238 . S
O64 Tb40 2.471 . S
O64 C50 1.247 . S
C65 C68 1.380 . S
C65 C69 1.374 . S
C65 C71 1.507 . S
C66 C67 1.387 . S
C66 C70 1.391 . S
C67 C66 1.387 . S
C67 C68 1.384 . S
C67 H76 0.930 . S
C68 C65 1.380 . S
C68 C67 1.384 . S
C68 H77 0.931 . S
C69 C65 1.374 . S
C69 C70 1.390 . S
C69 H78 0.930 . S
C70 C66 1.391 . S
C70 C69 1.390 . S
C70 H79 0.930 . S
C71 Eu41 2.825 1_565 S
C71 O56 1.238 . S
C71 O57 1.247 . S
C71 C65 1.507 . S
H72 C45 0.930 . S
H73 C46 0.931 . S
H74 C47 0.930 . S
H75 C48 0.930 . S
H76 C67 0.930 . S
H77 C68 0.931 . S
H78 C69 0.930 . S
H79 C70 0.930 . S
Tb80 C90 2.825 . S
Tb80 O91 2.347 . S
Tb80 O94 2.366 . S
Tb80 O99 2.418 . S
Tb80 O100 2.384 . S
Tb80 O103 2.479 . S
Tb80 O104 2.471 . S
Eu81 O92 2.418 . S
Eu81 O93 2.384 . S
Eu81 O96 2.479 . S
Eu81 O97 2.471 . S
Eu81 O98 2.347 . S
Eu81 O101 2.366 . S
Eu81 C111 2.825 . S
C82 O98 1.259 . S
C82 O99 1.265 . S
C83 O100 1.255 . S
C83 O101 1.265 . S
C84 C86 1.380 . S
C84 C87 1.374 . S
C84 C90 1.507 . S
C85 C86 1.384 . S
C85 C89 1.387 . S
C85 H112 0.930 . S
C86 C84 1.380 . S
C86 C85 1.384 . S
C86 H113 0.931 . S
C87 C84 1.374 . S
C87 C88 1.390 . S
C87 H114 0.930 . S
C88 C87 1.390 . S
C88 C89 1.391 . S
C88 H115 0.930 . S
C89 C85 1.387 . S
C89 C88 1.391 . S
C90 Tb80 2.825 . S
C90 C84 1.507 . S
C90 O103 1.238 . S
C90 O104 1.247 . S
O91 Tb80 2.347 . S
O91 C95 1.259 . S
O92 Eu81 2.418 . S
O92 C95 1.265 . S
O93 Eu81 2.384 . S
O93 C102 1.255 . S
O94 Tb80 2.366 . S
O94 C102 1.265 . S
C95 O91 1.259 . S
C95 O92 1.265 . S
O96 Eu81 2.479 . S
O96 C111 1.238 . S
O97 Eu81 2.471 . S
O97 C111 1.247 . S
O98 Eu81 2.347 . S
O98 C82 1.259 . S
O99 Tb80 2.418 . S
O99 C82 1.265 . S
O100 Tb80 2.384 . S
O100 C83 1.255 . S
O101 Eu81 2.366 . S
O101 C83 1.265 . S
C102 O93 1.255 . S
C102 O94 1.265 . S
O103 Tb80 2.479 . S
O103 C90 1.238 . S
O104 Tb80 2.471 . S
O104 C90 1.247 . S
C105 C108 1.380 . S
C105 C109 1.374 . S
C105 C111 1.507 . S
C106 C107 1.387 . S
C106 C110 1.391 . S
C107 C106 1.387 . S
C107 C108 1.384 . S
C107 H116 0.930 . S
C108 C105 1.380 . S
C108 C107 1.384 . S
C108 H117 0.931 . S
C109 C105 1.374 . S
C109 C110 1.390 . S
C109 H118 0.930 . S
C110 C106 1.391 . S
C110 C109 1.390 . S
C110 H119 0.930 . S
C111 Eu81 2.825 . S
C111 O96 1.238 . S
C111 O97 1.247 . S
C111 C105 1.507 . S
H112 C85 0.930 . S
H113 C86 0.931 . S
H114 C87 0.930 . S
H115 C88 0.930 . S
H116 C107 0.930 . S
H117 C108 0.931 . S
H118 C109 0.930 . S
H119 C110 0.930 . S
H120 C125 0.930 . S
H121 C128 0.930 . S
H122 C130 0.930 . S
H123 C124 1.016 . S
C124 H123 1.016 . S
C124 N131 1.286 . S
C125 H120 0.930 . S
C125 C126 1.397 1_545 S
C125 C127 1.361 . S
C126 C125 1.397 1_565 S
C126 C130 1.390 . S
C127 C125 1.361 . S
C127 C128 1.393 . S
C127 N131 1.413 . S
C128 H121 0.930 . S
C128 C127 1.393 . S
C128 C129 1.399 . S
C129 C128 1.399 . S
C129 C130 1.381 1_545 S
C130 H122 0.930 . S
C130 C126 1.390 . S
C130 C129 1.381 1_565 S
N131 C124 1.286 . S
N131 C127 1.413 . S
H132 C137 0.930 . S
H133 C140 0.930 . S
H134 C142 0.930 . S
H135 C136 1.016 . S
C136 H135 1.016 . S
C136 N143 1.286 . S
C137 H132 0.930 . S
C137 C138 1.397 . S
C137 C139 1.361 . S
C138 C137 1.397 . S
C138 C142 1.390 . S
C139 C137 1.361 . S
C139 C140 1.393 . S
C139 N143 1.413 . S
C140 H133 0.930 . S
C140 C139 1.393 . S
C140 C141 1.399 . S
C141 C140 1.399 . S
C141 C142 1.381 . S
C142 H134 0.930 . S
C142 C138 1.390 . S
C142 C141 1.381 . S
N143 C136 1.286 . S
N143 C139 1.413 . S
H144 C149 0.930 . S
H145 C152 0.930 . S
H146 C154 0.930 . S
H147 C148 1.016 . S
C148 H147 1.016 . S
C148 N155 1.286 . S
C149 H144 0.930 . S
C149 C150 1.397 . S
C149 C151 1.361 1_655 S
C150 C149 1.397 . S
C150 C154 1.390 . S
C151 C149 1.361 1_455 S
C151 C152 1.393 . S
C151 N155 1.413 . S
C152 H145 0.930 . S
C152 C151 1.393 . S
C152 C153 1.399 . S
C153 C152 1.399 . S
C153 C154 1.381 1_455 S
C154 H146 0.930 . S
C154 C150 1.390 . S
C154 C153 1.381 1_655 S
N155 C148 1.286 . S
N155 C151 1.413 . S
H156 C161 0.930 . S
H157 C164 0.930 . S
H158 C166 0.930 . S
H159 C160 1.016 . S
C160 H159 1.016 . S
C160 N167 1.286 . S
C161 H156 0.930 . S
C161 C162 1.397 . S
C161 C163 1.361 . S
C162 C161 1.397 . S
C162 C166 1.390 . S
C163 C161 1.361 . S
C163 C164 1.393 1_455 S
C163 N167 1.413 1_455 S
C164 H157 0.930 . S
C164 C163 1.393 1_655 S
C164 C165 1.399 1_655 S
C165 C164 1.399 1_455 S
C165 C166 1.381 . S
C166 H158 0.930 . S
C166 C162 1.390 . S
C166 C165 1.381 . S
N167 C160 1.286 . S
N167 C163 1.413 1_655 S
H168 C173 0.930 . S
H169 C176 0.930 . S
H170 C178 0.930 . S
H171 C172 1.016 . S
C172 H171 1.016 . S
C172 N179 1.286 . S
C173 H168 0.930 . S
C173 C174 1.397 . S
C173 C175 1.364 1_545 S
C174 C173 1.397 . S
C174 C178 1.390 . S
C175 C173 1.364 1_565 S
C175 C176 1.393 . S
C175 N179 1.411 . S
C176 H169 0.930 . S
C176 C175 1.393 . S
C176 C177 1.399 1_565 S
C177 C176 1.399 1_545 S
C177 C178 1.381 . S
C178 H170 0.930 . S
C178 C174 1.390 . S
C178 C177 1.381 . S
N179 C172 1.286 . S
N179 C175 1.411 . S
H180 C185 0.930 . S
H181 C188 0.930 . S
H182 C190 0.930 . S
H183 C184 1.016 . S
C184 H183 1.016 . S
C184 N191 1.286 . S
C185 H180 0.930 . S
C185 C186 1.397 . S
C185 C187 1.361 . S
C186 C185 1.397 . S
C186 C190 1.390 . S
C187 C185 1.361 . S
C187 C188 1.393 . S
C187 N191 1.413 . S
C188 H181 0.930 . S
C188 C187 1.393 . S
C188 C189 1.399 . S
C189 C188 1.399 . S
C189 C190 1.381 . S
C190 H182 0.930 . S
C190 C186 1.390 . S
C190 C189 1.381 . S
N191 C184 1.286 . S
N191 C187 1.413 . S
C192 C193 1.369 . S
C192 C194 1.419 . S
C192 H196 0.930 . S
C193 C192 1.369 . S
C193 C202 1.429 . S
C194 C192 1.419 . S
C194 C195 1.363 . S
C194 H197 0.929 . S
C195 C194 1.363 . S
C195 C201 1.428 . S
H196 C192 0.930 . S
H197 C194 0.929 . S
S198 N199 1.613 . S
S198 N200 1.610 . S
N199 S198 1.613 . S
N199 C202 1.350 . S
N200 S198 1.610 . S
N200 C201 1.351 . S
C201 C195 1.428 . S
C201 N200 1.351 . S
C201 C202 1.434 . S
C202 C193 1.429 . S
C202 N199 1.350 . S
C202 C201 1.434 . S
C203 C204 1.369 . S
C203 C205 1.419 . S
C203 H207 0.930 . S
C204 C203 1.369 . S
C204 C213 1.429 . S
C205 C203 1.419 . S
C205 C206 1.363 . S
C205 H208 0.929 . S
C206 C205 1.363 . S
C206 C212 1.428 . S
H207 C203 0.930 . S
H208 C205 0.929 . S
S209 N210 1.613 . S
S209 N211 1.610 . S
N210 S209 1.613 . S
N210 C213 1.350 . S
N211 S209 1.610 . S
N211 C212 1.351 . S
C212 C206 1.428 . S
C212 N211 1.351 . S
C212 C213 1.434 . S
C213 C204 1.429 . S
C213 N210 1.350 . S
C213 C212 1.434 . S
C214 C215 1.369 . S
C214 C216 1.419 . S
C214 H218 0.930 . S
C215 C214 1.369 . S
C215 C224 1.429 . S
C216 C214 1.419 . S
C216 C217 1.363 . S
C216 H219 0.929 . S
C217 C216 1.363 . S
C217 C223 1.428 . S
H218 C214 0.930 . S
H219 C216 0.929 . S
S220 N221 1.613 . S
S220 N222 1.610 . S
N221 S220 1.613 . S
N221 C224 1.350 . S
N222 S220 1.610 . S
N222 C223 1.351 . S
C223 C217 1.428 . S
C223 N222 1.351 . S
C223 C224 1.434 . S
C224 C215 1.429 . S
C224 N221 1.350 . S
C224 C223 1.434 . S
C225 C226 1.369 . S
C225 C227 1.419 . S
C225 H229 0.930 . S
C226 C225 1.369 . S
C226 C235 1.429 . S
C227 C225 1.419 . S
C227 C228 1.363 . S
C227 H230 0.929 . S
C228 C227 1.363 . S
C228 C234 1.428 . S
H229 C225 0.930 . S
H230 C227 0.929 . S
S231 N232 1.613 . S
S231 N233 1.610 . S
N232 S231 1.613 . S
N232 C235 1.350 . S
N233 S231 1.610 . S
N233 C234 1.351 . S
C234 C228 1.428 . S
C234 N233 1.351 . S
C234 C235 1.434 . S
C235 C226 1.429 . S
C235 N232 1.350 . S
C235 C234 1.434 . S
C236 C237 1.369 . S
C236 C238 1.419 . S
C236 H240 0.930 . S
C237 C236 1.369 . S
C237 C246 1.429 . S
C238 C236 1.419 . S
C238 C239 1.363 . S
C238 H241 0.929 . S
C239 C238 1.363 . S
C239 C245 1.428 . S
H240 C236 0.930 . S
H241 C238 0.929 . S
S242 N243 1.613 . S
S242 N244 1.610 . S
N243 S242 1.613 . S
N243 C246 1.350 . S
N244 S242 1.610 . S
N244 C245 1.351 . S
C245 C239 1.428 . S
C245 N244 1.351 . S
C245 C246 1.434 . S
C246 C237 1.429 . S
C246 N243 1.350 . S
C246 C245 1.434 . S
C247 C248 1.369 . S
C247 C249 1.419 . S
C247 H251 0.930 . S
C248 C247 1.369 . S
C248 C257 1.429 . S
C249 C247 1.419 . S
C249 C250 1.363 . S
C249 H252 0.929 . S
C250 C249 1.363 . S
C250 C256 1.428 . S
H251 C247 0.930 . S
H252 C249 0.929 . S
S253 N254 1.613 . S
S253 N255 1.610 . S
N254 S253 1.613 . S
N254 C257 1.350 . S
N255 S253 1.610 . S
N255 C256 1.351 . S
C256 C250 1.428 . S
C256 N255 1.351 . S
C256 C257 1.434 . S
C257 C248 1.429 . S
C257 N254 1.350 . S
C257 C256 1.434 . S
C258 C259 1.369 . S
C258 C260 1.419 . S
C258 H262 0.930 . S
C259 C258 1.369 . S
C259 C268 1.429 . S
C260 C258 1.419 . S
C260 C261 1.363 . S
C260 H263 0.929 . S
C261 C260 1.363 . S
C261 C267 1.428 . S
H262 C258 0.930 . S
H263 C260 0.929 . S
S264 N265 1.613 . S
S264 N266 1.610 . S
N265 S264 1.613 . S
N265 C268 1.350 . S
N266 S264 1.610 . S
N266 C267 1.351 . S
C267 C261 1.428 . S
C267 N266 1.351 . S
C267 C268 1.434 . S
C268 C259 1.429 . S
C268 N265 1.350 . S
C268 C267 1.434 . S
C269 C270 1.369 . S
C269 C271 1.419 . S
C269 H273 0.930 . S
C270 C269 1.369 . S
C270 C279 1.429 . S
C271 C269 1.419 . S
C271 C272 1.363 . S
C271 H274 0.929 . S
C272 C271 1.363 . S
C272 C278 1.428 . S
H273 C269 0.930 . S
H274 C271 0.929 . S
S275 N276 1.613 . S
S275 N277 1.610 . S
N276 S275 1.613 . S
N276 C279 1.350 . S
N277 S275 1.610 . S
N277 C278 1.351 . S
C278 C272 1.428 . S
C278 N277 1.351 . S
C278 C279 1.434 . S
C279 C270 1.429 . S
C279 N276 1.350 . S
C279 C278 1.434 . S
C280 C281 1.369 . S
C280 C282 1.419 . S
C280 H284 0.930 . S
C281 C280 1.369 . S
C281 C290 1.429 . S
C282 C280 1.419 . S
C282 C283 1.363 . S
C282 H285 0.929 . S
C283 C282 1.363 . S
C283 C289 1.428 . S
H284 C280 0.930 . S
H285 C282 0.929 . S
S286 N287 1.613 . S
S286 N288 1.610 . S
N287 S286 1.613 . S
N287 C290 1.350 . S
N288 S286 1.610 . S
N288 C289 1.351 . S
C289 C283 1.428 . S
C289 N288 1.351 . S
C289 C290 1.434 . S
C290 C281 1.429 . S
C290 N287 1.350 . S
C290 C289 1.434 . S
C291 C292 1.369 . S
C291 C293 1.419 . S
C291 H295 0.930 . S
C292 C291 1.369 . S
C292 C301 1.429 . S
C293 C291 1.419 . S
C293 C294 1.363 . S
C293 H296 0.929 . S
C294 C293 1.363 . S
C294 C300 1.428 . S
H295 C291 0.930 . S
H296 C293 0.929 . S
S297 N298 1.613 . S
S297 N299 1.610 . S
N298 S297 1.613 . S
N298 C301 1.350 . S
N299 S297 1.610 . S
N299 C300 1.351 . S
C300 C294 1.428 . S
C300 N299 1.351 . S
C300 C301 1.434 . S
C301 C292 1.429 . S
C301 N298 1.350 . S
C301 C300 1.434 . S
C302 C303 1.369 . S
C302 C304 1.419 . S
C302 H306 0.930 . S
C303 C302 1.369 . S
C303 C312 1.429 . S
C304 C302 1.419 . S
C304 C305 1.363 . S
C304 H307 0.929 . S
C305 C304 1.363 . S
C305 C311 1.428 . S
H306 C302 0.930 . S
H307 C304 0.929 . S
S308 N309 1.613 . S
S308 N310 1.610 . S
N309 S308 1.613 . S
N309 C312 1.350 . S
N310 S308 1.610 . S
N310 C311 1.351 . S
C311 C305 1.428 . S
C311 N310 1.351 . S
C311 C312 1.434 . S
C312 C303 1.429 . S
C312 N309 1.350 . S
C312 C311 1.434 . S
C313 C314 1.369 . S
C313 C315 1.419 . S
C313 H317 0.930 . S
C314 C313 1.369 . S
C314 C323 1.429 . S
C315 C313 1.419 . S
C315 C316 1.363 . S
C315 H318 0.929 . S
C316 C315 1.363 . S
C316 C322 1.428 . S
H317 C313 0.930 . S
H318 C315 0.929 . S
S319 N320 1.613 . S
S319 N321 1.610 . S
N320 S319 1.613 . S
N320 C323 1.350 . S
N321 S319 1.610 . S
N321 C322 1.351 . S
C322 C316 1.428 . S
C322 N321 1.351 . S
C322 C323 1.434 . S
C323 C314 1.429 . S
C323 N320 1.350 . S
C323 C322 1.434 . S
C324 C325 1.369 . S
C324 C326 1.419 1_554 S
C324 H328 0.930 . S
C325 C324 1.369 . S
C325 C334 1.429 1_455 S
C326 C324 1.419 1_556 S
C326 C327 1.363 . S
C326 H329 0.929 . S
C327 C326 1.363 . S
C327 C333 1.428 1_456 S
H328 C324 0.930 . S
H329 C326 0.929 . S
S330 N331 1.613 . S
S330 N332 1.610 1_554 S
N331 S330 1.613 . S
N331 C334 1.350 . S
N332 S330 1.610 1_556 S
N332 C333 1.351 1_556 S
C333 C327 1.428 1_654 S
C333 N332 1.351 1_554 S
C333 C334 1.434 . S
C334 C325 1.429 1_655 S
C334 N331 1.350 . S
C334 C333 1.434 . S
C335 C336 1.369 . S
C335 C337 1.419 . S
C335 H339 0.930 . S
C336 C335 1.369 . S
C336 C345 1.429 . S
C337 C335 1.419 . S
C337 C338 1.363 . S
C337 H340 0.929 . S
C338 C337 1.363 . S
C338 C344 1.428 . S
H339 C335 0.930 . S
H340 C337 0.929 . S
S341 N342 1.613 . S
S341 N343 1.610 . S
N342 S341 1.613 . S
N342 C345 1.350 1_565 S
N343 S341 1.610 . S
N343 C344 1.351 1_565 S
C344 C338 1.428 . S
C344 N343 1.351 1_545 S
C344 C345 1.434 . S
C345 C336 1.429 . S
C345 N342 1.350 1_545 S
C345 C344 1.434 . S
C346 C347 1.369 . S
C346 C348 1.419 . S
C346 H350 0.930 . S
C347 C346 1.369 . S
C347 C356 1.429 . S
C348 C346 1.419 . S
C348 C349 1.363 . S
C348 H351 0.929 . S
C349 C348 1.363 . S
C349 C355 1.428 . S
H350 C346 0.930 . S
H351 C348 0.929 . S
S352 N353 1.613 . S
S352 N354 1.610 . S
N353 S352 1.613 . S
N353 C356 1.350 . S
N354 S352 1.610 . S
N354 C355 1.351 . S
C355 C349 1.428 . S
C355 N354 1.351 . S
C355 C356 1.434 . S
C356 C347 1.429 . S
C356 N353 1.350 . S
C356 C355 1.434 . S
C357 C358 1.369 . S
C357 C359 1.419 1_545 S
C357 H361 0.930 1_545 S
C358 C357 1.369 . S
C358 C367 1.429 . S
C359 C357 1.419 1_565 S
C359 C360 1.363 1_565 S
C359 H362 0.929 . S
C360 C359 1.363 1_545 S
C360 C366 1.428 . S
H361 C357 0.930 1_565 S
H362 C359 0.929 . S
S363 N364 1.613 . S
S363 N365 1.610 . S
N364 S363 1.613 . S
N364 C367 1.350 . S
N365 S363 1.610 . S
N365 C366 1.351 . S
C366 C360 1.428 . S
C366 N365 1.351 . S
C366 C367 1.434 . S
C367 C358 1.429 . S
C367 N364 1.350 . S
C367 C366 1.434 . S
C368 C369 1.369 . S
C368 C370 1.419 1_556 S
C368 H372 0.930 . S
C369 C368 1.369 . S
C369 C378 1.429 . S
C370 C368 1.419 1_554 S
C370 C371 1.363 . S
C370 H373 0.929 . S
C371 C370 1.363 . S
C371 C377 1.428 1_554 S
H372 C368 0.930 . S
H373 C370 0.929 . S
S374 N375 1.613 . S
S374 N376 1.610 1_556 S
N375 S374 1.613 . S
N375 C378 1.350 . S
N376 S374 1.610 1_554 S
N376 C377 1.351 1_554 S
C377 C371 1.428 1_556 S
C377 N376 1.351 1_556 S
C377 C378 1.434 . S
C378 C369 1.429 . S
C378 N375 1.350 . S
C378 C377 1.434 . S
C379 C380 1.369 . S
C379 C381 1.419 . S
C379 H383 0.930 . S
C380 C379 1.369 . S
C380 C389 1.429 . S
C381 C379 1.419 . S
C381 C382 1.363 . S
C381 H384 0.929 . S
C382 C381 1.363 . S
C382 C388 1.428 1_455 S
H383 C379 0.930 . S
H384 C381 0.929 . S
S385 N386 1.613 . S
S385 N387 1.610 . S
N386 S385 1.613 . S
N386 C389 1.350 1_655 S
N387 S385 1.610 . S
N387 C388 1.351 . S
C388 C382 1.428 1_655 S
C388 N387 1.351 . S
C388 C389 1.434 1_655 S
C389 C380 1.429 . S
C389 N386 1.350 1_455 S
C389 C388 1.434 1_455 S
C193 C9 0.881 . S
C195 C186 0.934 . S
C204 C49 0.677 . S
C206 C160 0.610 . S
C215 C89 0.600 . S
C217 C172 0.548 . S
C226 C26 0.648 . S
C228 C184 0.524 . S
C239 C162 0.515 . S
C237 C66 0.656 . S
C250 C174 0.564 . S
C248 C106 0.676 . S
C259 C43 3.082 . S
C261 C136 2.995 . S
C270 C83 3.303 . S
C272 C150 3.282 . S
C281 C22 3.083 . S
C283 C126 3.026 . S
C294 C138 3.030 . S
C292 C62 3.084 . S
C305 C148 2.767 . S
C303 C102 2.900 . S
C314 C3 3.084 . S
C316 C124 3.003 . S
C327 C153 1.831 . S
C325 C15 1.739 . S
C336 C55 1.771 . S
C338 C129 1.792 . S
C347 C95 1.750 . S
C349 C141 1.776 . S
C360 C177 1.127 . S
C358 C42 1.104 . S
C371 C189 1.162 . S
C369 C82 1.153 . S
C380 C2 1.104 . S
C382 C165 1.112 . S
