# Generated by pormake.
# Topology pyr, (3,6)-cn, num edge types: 1
# Building blocks:
#     Node 0, Type 0, BuildingBlock: KAKCAD_clean_linker_0, # of connection points: 3
#     Node 1, Type 0, BuildingBlock: KAKCAD_clean_linker_0, # of connection points: 3
#     Node 2, Type 0, BuildingBlock: KAKCAD_clean_linker_0, # of connection points: 3
#     Node 3, Type 0, BuildingBlock: KAKCAD_clean_linker_0, # of connection points: 3
#     Node 4, Type 0, BuildingBlock: KAKCAD_clean_linker_0, # of connection points: 3
#     Node 5, Type 0, BuildingBlock: KAKCAD_clean_linker_0, # of connection points: 3
#     Node 6, Type 0, BuildingBlock: KAKCAD_clean_linker_0, # of connection points: 3
#     Node 7, Type 0, BuildingBlock: KAKCAD_clean_linker_0, # of connection points: 3
#     Node 8, Type 1, BuildingBlock: VOLQOD_clean_sbu_1, # of connection points: 6
#     Node 9, Type 1, BuildingBlock: VOLQOD_clean_sbu_1, # of connection points: 6
#     Node 10, Type 1, BuildingBlock: VOLQOD_clean_sbu_1, # of connection points: 6
#     Node 11, Type 1, BuildingBlock: VOLQOD_clean_sbu_1, # of connection points: 6
#     Edge 12, Type (0, 1), BuildingBlock: UVAHIK_clean_linker_0, # of connection points: 2
#     Edge 13, Type (0, 1), BuildingBlock: UVAHIK_clean_linker_0, # of connection points: 2
#     Edge 14, Type (0, 1), BuildingBlock: UVAHIK_clean_linker_0, # of connection points: 2
#     Edge 15, Type (0, 1), BuildingBlock: UVAHIK_clean_linker_0, # of connection points: 2
#     Edge 16, Type (0, 1), BuildingBlock: UVAHIK_clean_linker_0, # of connection points: 2
#     Edge 17, Type (0, 1), BuildingBlock: UVAHIK_clean_linker_0, # of connection points: 2
#     Edge 18, Type (0, 1), BuildingBlock: UVAHIK_clean_linker_0, # of connection points: 2
#     Edge 19, Type (0, 1), BuildingBlock: UVAHIK_clean_linker_0, # of connection points: 2
#     Edge 20, Type (0, 1), BuildingBlock: UVAHIK_clean_linker_0, # of connection points: 2
#     Edge 21, Type (0, 1), BuildingBlock: UVAHIK_clean_linker_0, # of connection points: 2
#     Edge 22, Type (0, 1), BuildingBlock: UVAHIK_clean_linker_0, # of connection points: 2
#     Edge 23, Type (0, 1), BuildingBlock: UVAHIK_clean_linker_0, # of connection points: 2
#     Edge 24, Type (0, 1), BuildingBlock: UVAHIK_clean_linker_0, # of connection points: 2
#     Edge 25, Type (0, 1), BuildingBlock: UVAHIK_clean_linker_0, # of connection points: 2
#     Edge 26, Type (0, 1), BuildingBlock: UVAHIK_clean_linker_0, # of connection points: 2
#     Edge 27, Type (0, 1), BuildingBlock: UVAHIK_clean_linker_0, # of connection points: 2
#     Edge 28, Type (0, 1), BuildingBlock: UVAHIK_clean_linker_0, # of connection points: 2
#     Edge 29, Type (0, 1), BuildingBlock: UVAHIK_clean_linker_0, # of connection points: 2
#     Edge 30, Type (0, 1), BuildingBlock: UVAHIK_clean_linker_0, # of connection points: 2
#     Edge 31, Type (0, 1), BuildingBlock: UVAHIK_clean_linker_0, # of connection points: 2
#     Edge 32, Type (0, 1), BuildingBlock: UVAHIK_clean_linker_0, # of connection points: 2
#     Edge 33, Type (0, 1), BuildingBlock: UVAHIK_clean_linker_0, # of connection points: 2
#     Edge 34, Type (0, 1), BuildingBlock: UVAHIK_clean_linker_0, # of connection points: 2
#     Edge 35, Type (0, 1), BuildingBlock: UVAHIK_clean_linker_0, # of connection points: 2
# Relax obj value: 0.035
# Max RMSD: 0.119
# Mean RMSD: 0.043
data_MOF--net-pry--node1-VOLQOD_clean_sbu_1--node2-KAKCAD_clean_linker_0--edge1-UVAHIK_clean_linker_0
_symmetry_space_group_name_H-M    P1
_symmetry_Int_Tables_number       1
_symmetry_cell_setting            triclinic
loop_
_symmetry_equiv_pos_as_xyz
'x, y, z'
_cell_length_a     56.118257
_cell_length_b     56.015916
_cell_length_c     56.273837
_cell_angle_alpha  90.369096
_cell_angle_beta   89.88686
_cell_angle_gamma 90.306362
loop_
_atom_site_label
_atom_site_type_symbol
_atom_site_fract_x
_atom_site_fract_y
_atom_site_fract_z
_atom_type_partial_charge
C0 C 0.07589 0.11616 0.20596 0.0
C1 C 0.09121 0.10963 0.22453 0.0
C2 C 0.08512 0.12454 0.18445 0.0
C3 C 0.10988 0.12654 0.18104 0.0
C4 C 0.12517 0.11989 0.19959 0.0
C5 C 0.11595 0.1115 0.22103 0.0
C6 C 0.11984 0.13576 0.15838 0.0
C7 C 0.10946 0.15545 0.14711 0.0
C8 C 0.11942 0.16488 0.12623 0.0
C9 C 0.13994 0.15429 0.11653 0.0
C10 C 0.15056 0.13462 0.12755 0.0
C11 C 0.14029 0.12539 0.14835 0.0
C12 C 0.17279 0.12411 0.11779 0.0
C13 C 0.17556 0.12036 0.09322 0.0
C14 C 0.19154 0.11799 0.13307 0.0
C15 C 0.21258 0.10833 0.12401 0.0
C16 C 0.21538 0.10452 0.09945 0.0
C17 C 0.10892 0.18633 0.11505 0.0
C18 C 0.0841 0.18854 0.11271 0.0
C19 C 0.12369 0.20493 0.10697 0.0
C20 C 0.11387 0.22533 0.09686 0.0
C21 C 0.08905 0.22761 0.09455 0.0
C22 C 0.07427 0.20895 0.10255 0.0
C23 C 0.19662 0.11064 0.08415 0.0
H24 H 0.05673 0.11515 0.20815 0.0
H25 H 0.07287 0.12932 0.17044 0.0
H26 H 0.14432 0.12148 0.19768 0.0
H27 H 0.12827 0.10634 0.23485 0.0
H28 H 0.09413 0.16404 0.15511 0.0
H29 H 0.14813 0.10989 0.15663 0.0
H30 H 0.14784 0.16158 0.10054 0.0
H31 H 0.16132 0.12465 0.08103 0.0
H32 H 0.19012 0.12107 0.15204 0.0
H33 H 0.22684 0.10423 0.13624 0.0
H34 H 0.07228 0.17438 0.11852 0.0
H35 H 0.14286 0.20395 0.10891 0.0
H36 H 0.1981 0.10765 0.06517 0.0
H37 H 0.05509 0.21002 0.10075 0.0
H38 H 0.12575 0.23955 0.0913 0.0
C39 C 0.39223 0.91168 0.71797 0.0
C40 C 0.41693 0.91331 0.72166 0.0
C41 C 0.3832 0.90258 0.69665 0.0
C42 C 0.39867 0.895 0.67846 0.0
C43 C 0.42341 0.89654 0.68218 0.0
C44 C 0.43244 0.90557 0.70358 0.0
C45 C 0.38898 0.88552 0.6557 0.0
C46 C 0.36905 0.89618 0.64523 0.0
C47 C 0.35923 0.88694 0.62417 0.0
C48 C 0.37 0.8672 0.61313 0.0
C49 C 0.38981 0.85599 0.62346 0.0
C50 C 0.39914 0.86536 0.64479 0.0
C51 C 0.3999 0.83379 0.61279 0.0
C52 C 0.38491 0.81678 0.60186 0.0
C53 C 0.42444 0.82896 0.61416 0.0
C54 C 0.43361 0.80744 0.60548 0.0
C55 C 0.41854 0.79031 0.59483 0.0
C56 C 0.3368 0.89694 0.61463 0.0
C57 C 0.31764 0.90167 0.63004 0.0
C58 C 0.33399 0.90101 0.59018 0.0
C59 C 0.31236 0.90946 0.58131 0.0
C60 C 0.29309 0.91374 0.59672 0.0
C61 C 0.29603 0.90993 0.62119 0.0
C62 C 0.39414 0.7955 0.59278 0.0
H63 H 0.37983 0.9171 0.73173 0.0
H64 H 0.36406 0.90119 0.69455 0.0
H65 H 0.4358 0.8911 0.66842 0.0
H66 H 0.45157 0.90684 0.70583 0.0
H67 H 0.36113 0.91181 0.65343 0.0
H68 H 0.41376 0.85642 0.6535 0.0
H69 H 0.36248 0.86021 0.59678 0.0
H70 H 0.36587 0.81956 0.60074 0.0
H71 H 0.43664 0.84175 0.62208 0.0
H72 H 0.45245 0.80407 0.60765 0.0
H73 H 0.31918 0.89847 0.64894 0.0
H74 H 0.34851 0.89763 0.57791 0.0
H75 H 0.38199 0.78307 0.58426 0.0
H76 H 0.28157 0.91332 0.63352 0.0
H77 H 0.31054 0.91213 0.56236 0.0
C78 C 0.69112 0.44999 0.91822 0.0
C79 C 0.71006 0.43589 0.92628 0.0
C80 C 0.6699 0.43936 0.91044 0.0
C81 C 0.6672 0.41438 0.91048 0.0
C82 C 0.68611 0.40032 0.91873 0.0
C83 C 0.70726 0.41095 0.92657 0.0
C84 C 0.64506 0.40293 0.90133 0.0
C85 C 0.63416 0.41144 0.88059 0.0
C86 C 0.61393 0.40001 0.87111 0.0
C87 C 0.60447 0.37995 0.88274 0.0
C88 C 0.61515 0.37112 0.90343 0.0
C89 C 0.63532 0.38282 0.91268 0.0
C90 C 0.60588 0.34901 0.91465 0.0
C91 C 0.58124 0.34518 0.91724 0.0
C92 C 0.62166 0.33112 0.92198 0.0
C93 C 0.613 0.3097 0.93126 0.0
C94 C 0.58834 0.30566 0.93348 0.0
C95 C 0.60343 0.40829 0.84842 0.0
C96 C 0.6007 0.43277 0.8439 0.0
C97 C 0.59655 0.39169 0.83085 0.0
C98 C 0.5873 0.39939 0.80923 0.0
C99 C 0.5847 0.42387 0.80462 0.0
C100 C 0.59144 0.44049 0.82224 0.0
C101 C 0.57257 0.32375 0.92657 0.0
H102 H 0.69264 0.46928 0.91806 0.0
H103 H 0.65556 0.45071 0.90449 0.0
H104 H 0.6848 0.38102 0.91859 0.0
H105 H 0.72166 0.39957 0.9323 0.0
H106 H 0.64205 0.42637 0.87123 0.0
H107 H 0.64339 0.37631 0.92886 0.0
H108 H 0.58902 0.37089 0.87538 0.0
H109 H 0.56865 0.35876 0.91203 0.0
H110 H 0.64073 0.33338 0.91987 0.0
H111 H 0.62564 0.29601 0.93604 0.0
H112 H 0.60559 0.44598 0.85719 0.0
H113 H 0.59884 0.37272 0.83359 0.0
H114 H 0.55349 0.32137 0.9284 0.0
H115 H 0.58939 0.45946 0.81934 0.0
H116 H 0.58269 0.38614 0.79588 0.0
C117 C 0.90473 0.5879 0.30588 0.0
C118 C 0.92942 0.58827 0.30165 0.0
C119 C 0.89556 0.59488 0.32792 0.0
C120 C 0.91088 0.60239 0.34626 0.0
C121 C 0.93559 0.60262 0.34211 0.0
C122 C 0.94476 0.59564 0.32004 0.0
C123 C 0.90103 0.61042 0.36946 0.0
C124 C 0.88197 0.59807 0.37999 0.0
C125 C 0.87179 0.60618 0.40135 0.0
C126 C 0.88134 0.62657 0.41256 0.0
C127 C 0.90034 0.63933 0.40222 0.0
C128 C 0.91002 0.63105 0.38063 0.0
C129 C 0.90923 0.66201 0.41312 0.0
C130 C 0.89337 0.67801 0.4242 0.0
C131 C 0.9335 0.66839 0.41158 0.0
C132 C 0.94149 0.6905 0.4201 0.0
C133 C 0.92552 0.7065 0.43077 0.0
C134 C 0.85027 0.59418 0.41114 0.0
C135 C 0.83163 0.58726 0.3959 0.0
C136 C 0.84777 0.59031 0.43568 0.0
C137 C 0.82694 0.58001 0.44478 0.0
C138 C 0.80817 0.57339 0.42954 0.0
C139 C 0.81084 0.577 0.40498 0.0
C140 C 0.90148 0.69992 0.43311 0.0
H141 H 0.8924 0.58271 0.29196 0.0
H142 H 0.87642 0.59489 0.33041 0.0
H143 H 0.94786 0.60804 0.35599 0.0
H144 H 0.96389 0.59582 0.31744 0.0
H145 H 0.87505 0.58204 0.37155 0.0
H146 H 0.92395 0.64121 0.3719 0.0
H147 H 0.87354 0.63282 0.42907 0.0
H148 H 0.87451 0.67403 0.42534 0.0
H149 H 0.94635 0.65638 0.40364 0.0
H150 H 0.96018 0.69514 0.41831 0.0
H151 H 0.8328 0.5904 0.37696 0.0
H152 H 0.86194 0.59521 0.44784 0.0
H153 H 0.88879 0.71211 0.44107 0.0
H154 H 0.79657 0.57254 0.39278 0.0
H155 H 0.82554 0.5772 0.46376 0.0
C156 C 0.94483 0.93146 0.83394 0.0
C157 C 0.93808 0.95418 0.82604 0.0
C158 C 0.93958 0.92409 0.85696 0.0
C159 C 0.92796 0.93943 0.87307 0.0
C160 C 0.92204 0.96256 0.86551 0.0
C161 C 0.92693 0.96981 0.84223 0.0
C162 C 0.9208 0.93054 0.89698 0.0
C163 C 0.9348 0.9135 0.90863 0.0
C164 C 0.92626 0.90147 0.92875 0.0
C165 C 0.90426 0.90822 0.93857 0.0
C166 C 0.8904 0.92597 0.92785 0.0
C167 C 0.89874 0.93692 0.90699 0.0
C168 C 0.86623 0.93156 0.93708 0.0
C169 C 0.85077 0.91312 0.9442 0.0
C170 C 0.85808 0.95524 0.9379 0.0
C171 C 0.83486 0.96031 0.94532 0.0
C172 C 0.81926 0.9418 0.95201 0.0
C173 C 0.9388 0.87991 0.93748 0.0
C174 C 0.94842 0.86356 0.92104 0.0
C175 C 0.93971 0.87447 0.96183 0.0
C176 C 0.94942 0.85285 0.96945 0.0
C177 C 0.95851 0.83634 0.95287 0.0
C178 C 0.9582 0.84213 0.92863 0.0
C179 C 0.82758 0.91818 0.95161 0.0
H180 H 0.95397 0.9191 0.82224 0.0
H181 H 0.94406 0.90598 0.86177 0.0
H182 H 0.91336 0.975 0.87747 0.0
H183 H 0.92137 0.98742 0.83677 0.0
H184 H 0.95211 0.90884 0.90148 0.0
H185 H 0.88731 0.94931 0.89778 0.0
H186 H 0.89744 0.89898 0.95403 0.0
H187 H 0.85636 0.89465 0.94349 0.0
H188 H 0.86964 0.96985 0.93266 0.0
H189 H 0.82893 0.97868 0.94524 0.0
H190 H 0.94751 0.8668 0.90211 0.0
H191 H 0.93265 0.88676 0.97497 0.0
H192 H 0.81611 0.90354 0.95693 0.0
H193 H 0.96459 0.82961 0.91536 0.0
H194 H 0.94961 0.84895 0.98827 0.0
C195 C 0.57997 0.04219 0.34371 0.0
C196 C 0.57697 0.05905 0.32558 0.0
C197 C 0.58425 0.0497 0.36711 0.0
C198 C 0.58521 0.07416 0.37276 0.0
C199 C 0.58183 0.09093 0.35463 0.0
C200 C 0.57779 0.08346 0.33133 0.0
C201 C 0.59071 0.08257 0.39717 0.0
C202 C 0.6103 0.07338 0.40948 0.0
C203 C 0.61779 0.08375 0.43106 0.0
C204 C 0.60508 0.10327 0.44042 0.0
C205 C 0.58547 0.11272 0.42825 0.0
C206 C 0.57809 0.10181 0.40696 0.0
C207 C 0.57441 0.13548 0.4362 0.0
C208 C 0.57083 0.14059 0.46045 0.0
C209 C 0.56853 0.15293 0.41936 0.0
C210 C 0.55953 0.17496 0.42653 0.0
C211 C 0.55634 0.18024 0.45074 0.0
C212 C 0.64038 0.0759 0.44226 0.0
C213 C 0.64654 0.0516 0.44283 0.0
C214 C 0.65672 0.0929 0.45103 0.0
C215 C 0.67888 0.08585 0.45963 0.0
C216 C 0.68532 0.06166 0.45953 0.0
C217 C 0.66881 0.04456 0.45132 0.0
C218 C 0.56195 0.1628 0.46766 0.0
H219 H 0.57949 0.02325 0.3397 0.0
H220 H 0.5868 0.03642 0.38077 0.0
H221 H 0.58281 0.10991 0.35837 0.0
H222 H 0.57527 0.09685 0.31776 0.0
H223 H 0.6207 0.05923 0.4014 0.0
H224 H 0.56285 0.10879 0.39751 0.0
H225 H 0.61114 0.11179 0.45667 0.0
H226 H 0.57499 0.12748 0.47386 0.0
H227 H 0.57163 0.14992 0.40058 0.0
H228 H 0.55585 0.1882 0.4131 0.0
H229 H 0.63425 0.03805 0.43645 0.0
H230 H 0.65283 0.1118 0.4504 0.0
H231 H 0.55951 0.16636 0.48645 0.0
H232 H 0.6732 0.02575 0.45128 0.0
H233 H 0.69136 0.09949 0.46546 0.0
C234 C 0.32739 0.56423 0.08782 0.0
C235 C 0.32247 0.57 0.06414 0.0
C236 C 0.34894 0.57111 0.0982 0.0
C237 C 0.36632 0.58352 0.08496 0.0
C238 C 0.3616 0.58849 0.06091 0.0
C239 C 0.33978 0.58205 0.0507 0.0
C240 C 0.38857 0.59236 0.09662 0.0
C241 C 0.39903 0.5795 0.11526 0.0
C242 C 0.41826 0.58904 0.12822 0.0
C243 C 0.42794 0.61117 0.12152 0.0
C244 C 0.41811 0.62412 0.10267 0.0
C245 C 0.39838 0.61463 0.09043 0.0
C246 C 0.42728 0.6483 0.09678 0.0
C247 C 0.4329 0.66473 0.11494 0.0
C248 C 0.42968 0.65545 0.07299 0.0
C249 C 0.43718 0.6786 0.06749 0.0
C250 C 0.4424 0.69514 0.08567 0.0
C251 C 0.4266 0.57716 0.15021 0.0
C252 C 0.4099 0.56794 0.16644 0.0
C253 C 0.45093 0.57659 0.1561 0.0
C254 C 0.45829 0.56785 0.17812 0.0
C255 C 0.44144 0.55961 0.19472 0.0
C256 C 0.41724 0.55925 0.1884 0.0
C257 C 0.44038 0.68786 0.10945 0.0
H258 H 0.31414 0.5552 0.09859 0.0
H259 H 0.35153 0.56741 0.11686 0.0
H260 H 0.37465 0.59758 0.04998 0.0
H261 H 0.33636 0.58655 0.03233 0.0
H262 H 0.39197 0.56215 0.12004 0.0
H263 H 0.38994 0.62528 0.07687 0.0
H264 H 0.44267 0.61874 0.13152 0.0
H265 H 0.43096 0.65991 0.13345 0.0
H266 H 0.42567 0.64314 0.0586 0.0
H267 H 0.43835 0.6837 0.04899 0.0
H268 H 0.391 0.56833 0.16261 0.0
H269 H 0.46424 0.58337 0.14388 0.0
H270 H 0.44454 0.70007 0.12387 0.0
H271 H 0.40386 0.55271 0.20068 0.0
H272 H 0.47707 0.56843 0.18252 0.0
C273 C 0.08928 0.3249 0.57401 0.0
C274 C 0.06454 0.32093 0.57355 0.0
C275 C 0.09853 0.34718 0.58031 0.0
C276 C 0.0833 0.36609 0.5864 0.0
C277 C 0.05855 0.36218 0.58616 0.0
C278 C 0.04924 0.33981 0.57974 0.0
C279 C 0.09356 0.38952 0.59353 0.0
C280 C 0.11306 0.39894 0.58099 0.0
C281 C 0.12508 0.41942 0.58917 0.0
C282 C 0.1167 0.43111 0.60967 0.0
C283 C 0.09703 0.4221 0.62237 0.0
C284 C 0.08542 0.40138 0.61402 0.0
C285 C 0.09009 0.43293 0.64554 0.0
C286 C 0.1077 0.44001 0.66189 0.0
C287 C 0.06598 0.43526 0.65196 0.0
C288 C 0.05966 0.44406 0.67442 0.0
C289 C 0.07733 0.45063 0.69093 0.0
C290 C 0.14766 0.42714 0.57764 0.0
C291 C 0.16444 0.41 0.57041 0.0
C292 C 0.15322 0.45147 0.57483 0.0
C293 C 0.17525 0.45846 0.56538 0.0
C294 C 0.19209 0.44125 0.55848 0.0
C295 C 0.18633 0.41696 0.56091 0.0
C296 C 0.1014 0.4488 0.68427 0.0
H297 H 0.10161 0.31063 0.56994 0.0
H298 H 0.11771 0.34946 0.58088 0.0
H299 H 0.0464 0.37647 0.59071 0.0
H300 H 0.03009 0.33738 0.5794 0.0
H301 H 0.11922 0.38996 0.56503 0.0
H302 H 0.07099 0.39364 0.62428 0.0
H303 H 0.12608 0.44674 0.61629 0.0
H304 H 0.12644 0.43815 0.65769 0.0
H305 H 0.052 0.4301 0.63969 0.0
H306 H 0.04096 0.44512 0.67907 0.0
H307 H 0.161 0.39112 0.57281 0.0
H308 H 0.14059 0.46511 0.58001 0.0
H309 H 0.11545 0.45401 0.69644 0.0
H310 H 0.19909 0.40327 0.55621 0.0
H311 H 0.17912 0.47732 0.56352 0.0
O312 O 0.98971 0.06455 0.5361 0.0
Zn313 Zn 0.9773 0.03087 0.53482 0.0
O314 O 0.99771 0.01039 0.51541 0.0
Zn315 Zn 0.98076 5e-05 0.4867 0.0
Zn316 Zn 0.0263 0.02824 0.50647 0.0
Zn317 Zn 0.00642 0.9824 0.53387 0.0
O318 O 0.98043 0.96414 0.48379 0.0
O319 O 0.99443 0.95206 0.51859 0.0
O320 O 0.944 0.03129 0.52177 0.0
O321 O 0.94639 0.01042 0.48816 0.0
O322 O 0.9959 0.01358 0.45701 0.0
O323 O 0.02844 0.03135 0.47105 0.0
O324 O 0.05615 0.01203 0.51795 0.0
O325 O 0.97543 0.01936 0.56857 0.0
O326 O 0.04206 0.97992 0.53632 0.0
O327 O 0.9936 0.98428 0.56724 0.0
C328 C 0.00932 0.07409 0.52971 0.0
C329 C 0.98545 0.94753 0.49828 0.0
C330 C 0.01513 0.02532 0.45371 0.0
C331 C 0.93435 0.0225 0.50318 0.0
C332 C 0.0595 0.9928 0.52943 0.0
C333 C 0.98224 0.0003 0.57863 0.0
O334 O 0.02531 0.062 0.51905 0.0
O335 O 0.50363 0.05676 0.99215 0.0
Zn336 Zn 0.48951 0.02377 0.99557 0.0
O337 O 0.50919 0.00379 0.01604 0.0
Zn338 Zn 0.52132 0.97654 0.99784 0.0
Zn339 Zn 0.53596 0.02271 0.02818 0.0
Zn340 Zn 0.49001 0.99213 0.04266 0.0
O341 O 0.51079 0.94532 0.01222 0.0
O342 O 0.48763 0.95629 0.04232 0.0
O343 O 0.48622 0.00922 0.96287 0.0
O344 O 0.50897 0.97696 0.96433 0.0
O345 O 0.55719 0.97683 0.99645 0.0
O346 O 0.56728 0.0089 0.01758 0.0
O347 O 0.5361 0.02351 0.06392 0.0
O348 O 0.45654 0.02772 0.00925 0.0
O349 O 0.50463 0.00161 0.07397 0.0
O350 O 0.45681 0.00557 0.04181 0.0
C351 C 0.52132 0.06733 0.0018 0.0
C352 C 0.49714 0.94008 0.02954 0.0
C353 C 0.573 0.99075 0.00513 0.0
C354 C 0.4951 0.99075 0.95302 0.0
C355 C 0.52276 0.01413 0.07967 0.0
C356 C 0.44611 0.01947 0.02759 0.0
O357 O 0.53483 0.05652 0.01631 0.0
O358 O 0.52673 0.50179 0.55587 0.0
Zn359 Zn 0.52528 0.51457 0.52246 0.0
O360 O 0.50493 0.49438 0.50232 0.0
Zn361 Zn 0.52396 0.48033 0.47655 0.0
Zn362 Zn 0.49056 0.46909 0.52146 0.0
Zn363 Zn 0.47955 0.51367 0.48887 0.0
O364 O 0.51191 0.49065 0.44436 0.0
O365 O 0.4821 0.51502 0.45332 0.0
O366 O 0.55879 0.51578 0.5098 0.0
O367 O 0.55828 0.49108 0.47879 0.0
O368 O 0.52314 0.44428 0.47789 0.0
O369 O 0.49995 0.43684 0.50902 0.0
O370 O 0.45466 0.47047 0.52111 0.0
O371 O 0.51285 0.5483 0.52455 0.0
O372 O 0.44718 0.50057 0.4969 0.0
O373 O 0.48049 0.54707 0.50191 0.0
C374 C 0.51615 0.48466 0.56639 0.0
C375 C 0.49541 0.50479 0.43803 0.0
C376 C 0.51285 0.4296 0.49182 0.0
C377 C 0.56939 0.50535 0.49264 0.0
C378 C 0.43998 0.48372 0.5102 0.0
C379 C 0.49465 0.55835 0.51566 0.0
O380 O 0.50158 0.47107 0.55538 0.0
O381 O 0.98855 0.51661 0.05089 0.0
Zn382 Zn 0.99008 0.50333 0.01761 0.0
O383 O 0.01151 0.52232 0.9977 0.0
Zn384 Zn 0.9935 0.53662 0.97158 0.0
Zn385 Zn 0.02622 0.54758 0.01691 0.0
Zn386 Zn 0.03643 0.50167 0.98489 0.0
O387 O 0.00679 0.5264 0.93972 0.0
O388 O 0.03563 0.50122 0.9492 0.0
O389 O 0.95685 0.50275 0.00421 0.0
O390 O 0.95905 0.52608 0.97253 0.0
O391 O 0.99434 0.5727 0.97351 0.0
O392 O 0.01712 0.57988 0.00498 0.0
O393 O 0.06206 0.54569 0.01619 0.0
O394 O 0.00124 0.46929 0.02013 0.0
O395 O 0.06904 0.51304 0.99477 0.0
O396 O 0.03294 0.46797 0.99657 0.0
C397 C -0.00013 0.53317 0.0617 0.0
C398 C 0.02329 0.51202 0.93368 0.0
C399 C 0.00446 0.58727 0.98782 0.0
C400 C 0.94714 0.5126 0.98637 0.0
C401 C 0.07647 0.53083 0.00689 0.0
C402 C 0.01837 0.45781 0.01068 0.0
O403 O 0.01524 0.54598 0.05096 0.0
C404 C 0.09205 0.10857 0.26906 0.0
C405 C 0.08152 0.10114 0.24759 0.0
C406 C 0.08332 0.10036 0.29078 0.0
C407 C 0.04798 0.05169 0.31759 0.0
H408 H 0.046 0.0949 0.37167 0.0
C409 C 0.00837 0.02587 0.40953 0.0
C410 C 0.02188 0.03293 0.42943 0.0
C411 C 0.01447 0.03389 0.38679 0.0
C412 C 0.0466 0.08258 0.35676 0.0
H413 H 0.05351 0.07923 0.23215 0.0
H414 H 0.0379 0.06528 0.27017 0.0
H415 H 0.05833 0.10983 0.33298 0.0
H416 H 0.05259 0.05374 0.44091 0.0
H417 H 0.06313 0.06759 0.40142 0.0
H418 H 0.03622 0.02443 0.34155 0.0
C419 C 0.05312 0.07725 0.27015 0.0
C420 C 0.0537 0.09112 0.3346 0.0
C421 C 0.06189 0.08546 0.24838 0.0
C422 C 0.04173 0.04797 0.42603 0.0
C423 C 0.04771 0.05607 0.4034 0.0
C424 C 0.04077 0.04316 0.33979 0.0
C425 C 0.06377 0.08459 0.2916 0.0
C426 C 0.0548 0.07572 0.31481 0.0
C427 C 0.03407 0.04928 0.38356 0.0
C428 C 0.04034 0.05845 0.35967 0.0
H429 H 0.107 0.12088 0.26913 0.0
H430 H 0.09215 0.10614 0.30693 0.0
H431 H 0.04887 0.03929 0.30277 0.0
H432 H 0.99299 0.01429 0.4115 0.0
H433 H 0.00357 0.02846 0.37182 0.0
C434 C 0.44542 0.91171 0.75593 0.0
C435 C 0.42641 0.92297 0.74438 0.0
C436 C 0.45377 0.92038 0.77773 0.0
C437 C 0.43509 0.95704 0.82916 0.0
H438 H 0.50255 0.95729 0.84397 0.0
C439 C 0.47178 0.9984 0.91586 0.0
C440 C 0.48871 0.98479 0.92814 0.0
C441 C 0.46499 0.99209 0.89277 0.0
C442 C 0.48365 0.95717 0.84013 0.0
H443 H 0.40177 0.95261 0.74622 0.0
H444 H 0.41644 0.96786 0.78416 0.0
H445 H 0.48922 0.94402 0.80477 0.0
H446 H 0.51211 0.95413 0.92552 0.0
H447 H 0.50018 0.94314 0.88532 0.0
H448 H 0.42952 0.97011 0.86453 0.0
C449 C 0.42458 0.95203 0.77663 0.0
C450 C 0.476 0.94954 0.8177 0.0
C451 C 0.41619 0.94332 0.75489 0.0
C452 C 0.49902 0.96501 0.91661 0.0
C453 C 0.49229 0.95878 0.8935 0.0
C454 C 0.44274 0.96473 0.85154 0.0
C455 C 0.44334 0.94055 0.78841 0.0
C456 C 0.45162 0.94927 0.812 0.0
C457 C 0.47505 0.97211 0.88142 0.0
C458 C 0.46709 0.96476 0.85732 0.0
H459 H 0.45346 0.89583 0.7484 0.0
H460 H 0.46802 0.91091 0.78649 0.0
H461 H 0.41615 0.95667 0.82551 0.0
H462 H 0.46353 0.01378 0.92416 0.0
H463 H 0.45187 0.00288 0.88379 0.0
C464 C 0.58614 0.45136 0.76955 0.0
C465 C 0.57551 0.43194 0.78129 0.0
C466 C 0.57828 0.45814 0.74704 0.0
C467 C 0.5474 0.43396 0.69447 0.0
H468 H 0.54185 0.50047 0.67669 0.0
C469 C 0.50936 0.46161 0.60386 0.0
C470 C 0.5213 0.48004 0.59177 0.0
C471 C 0.51481 0.4566 0.6275 0.0
C472 C 0.54352 0.48182 0.68132 0.0
H473 H 0.54768 0.40501 0.77899 0.0
H474 H 0.534 0.41682 0.73971 0.0
H475 H 0.55335 0.49026 0.71718 0.0
H476 H 0.54813 0.50789 0.59526 0.0
H477 H 0.55783 0.49893 0.63643 0.0
H478 H 0.53785 0.42547 0.65863 0.0
C479 C 0.54868 0.42655 0.74774 0.0
C480 C 0.55009 0.47598 0.70452 0.0
C481 C 0.55652 0.41978 0.77024 0.0
C482 C 0.53856 0.49359 0.60402 0.0
C483 C 0.54403 0.48855 0.62768 0.0
C484 C 0.54086 0.43979 0.67131 0.0
C485 C 0.55964 0.44564 0.73577 0.0
C486 C 0.55214 0.45198 0.71133 0.0
C487 C 0.53236 0.46986 0.63963 0.0
C488 C 0.53889 0.46378 0.66444 0.0
H489 H 0.601 0.4609 0.77745 0.0
H490 H 0.58729 0.47274 0.73817 0.0
H491 H 0.54923 0.41531 0.69902 0.0
H492 H 0.49586 0.45089 0.59504 0.0
H493 H 0.50522 0.44233 0.63631 0.0
C494 C 0.92944 0.56183 0.26547 0.0
C495 C 0.93902 0.58144 0.27798 0.0
C496 C 0.93781 0.55597 0.2428 0.0
C497 C 0.96825 0.58235 0.1912 0.0
H498 H 0.97622 0.51634 0.1717 0.0
C499 C 0.00649 0.55646 0.09937 0.0
C500 C 0.99475 0.53787 0.08714 0.0
C501 C 0.00116 0.5613 0.12318 0.0
C502 C 0.97389 0.53485 0.17683 0.0
H503 H 0.96505 0.61016 0.27652 0.0
H504 H 0.97996 0.59966 0.23709 0.0
H505 H 0.96443 0.52558 0.21248 0.0
H506 H 0.96835 0.50961 0.09051 0.0
H507 H 0.95895 0.5182 0.13193 0.0
H508 H 0.97748 0.59162 0.15552 0.0
C509 C 0.96579 0.58898 0.24475 0.0
C510 C 0.96715 0.54014 0.20018 0.0
C511 C 0.95743 0.59482 0.26744 0.0
C512 C 0.97777 0.52405 0.09937 0.0
C513 C 0.97247 0.52887 0.12317 0.0
C514 C 0.975 0.57706 0.16786 0.0
C515 C 0.95595 0.56959 0.2321 0.0
C516 C 0.96408 0.56395 0.20758 0.0
C517 C 0.98401 0.54763 0.13531 0.0
C518 C 0.97774 0.55325 0.16037 0.0
H519 H 0.91542 0.551 0.27321 0.0
H520 H 0.92969 0.54106 0.23345 0.0
H521 H 0.96568 0.60086 0.19623 0.0
H522 H 0.01973 0.56742 0.09054 0.0
H523 H 0.01057 0.57569 0.13212 0.0
C524 C 0.24945 0.07578 0.10185 0.0
C525 C 0.23789 0.09439 0.0899 0.0
C526 C 0.27104 0.06679 0.09339 0.0
C527 C 0.32255 0.08314 0.05604 0.0
H528 H 0.33628 0.01544 0.05906 0.0
C529 C 0.40958 0.04333 0.01838 0.0
C530 C 0.42126 0.02668 0.03283 0.0
C531 C 0.38649 0.05082 0.02387 0.0
C532 C 0.33276 0.03442 0.05826 0.0
H533 H 0.23993 0.11802 0.05957 0.0
H534 H 0.2774 0.10198 0.04453 0.0
H535 H 0.29712 0.0299 0.07112 0.0
H536 H 0.41759 0.00459 0.0642 0.0
H537 H 0.37741 0.01777 0.07379 0.0
H538 H 0.35824 0.08767 0.04332 0.0
C539 C 0.26988 0.09454 0.06061 0.0
C540 C 0.31034 0.0427 0.06518 0.0
C541 C 0.24827 0.10355 0.06909 0.0
C542 C 0.40915 0.01742 0.05267 0.0
C543 C 0.38604 0.02487 0.0581 0.0
C544 C 0.34494 0.07485 0.04906 0.0
C545 C 0.2816 0.07617 0.07276 0.0
C546 C 0.30504 0.06719 0.06435 0.0
C547 C 0.37452 0.04179 0.04388 0.0
C548 C 0.35037 0.05042 0.05028 0.0
H549 H 0.24179 0.06813 0.11777 0.0
H550 H 0.27971 0.05281 0.10332 0.0
H551 H 0.31918 0.10215 0.05551 0.0
H552 H 0.41833 0.05079 0.00292 0.0
H553 H 0.37797 0.06367 0.01241 0.0
C554 C 0.26838 0.94 0.57055 0.0
C555 C 0.26975 0.92165 0.58741 0.0
C556 C 0.24622 0.94778 0.56238 0.0
C557 C 0.1834 0.92911 0.55681 0.0
H558 H 0.1703 0.99699 0.55518 0.0
C559 C 0.08804 0.96491 0.54897 0.0
C560 C 0.08412 0.98506 0.53476 0.0
C561 C 0.11116 0.95736 0.55388 0.0
C562 C 0.17377 0.97799 0.55518 0.0
H563 H 0.24911 0.89664 0.60842 0.0
H564 H 0.21052 0.91026 0.59426 0.0
H565 H 0.21003 0.98324 0.56595 0.0
H566 H 0.10154 0.01305 0.51454 0.0
H567 H 0.14193 -0.00037 0.52289 0.0
H568 H 0.14723 0.92376 0.54611 0.0
C569 C 0.22651 0.91862 0.58733 0.0
C570 C 0.19652 0.97013 0.56137 0.0
C571 C 0.24859 0.91099 0.59562 0.0
C572 C 0.10391 0.99751 0.52562 0.0
C573 C 0.12708 0.98988 0.53049 0.0
C574 C 0.16072 0.93695 0.55052 0.0
C575 C 0.22507 0.93717 0.57072 0.0
C576 C 0.20147 0.9456 0.56256 0.0
C577 C 0.13096 0.96967 0.54464 0.0
C578 C 0.15552 0.96147 0.54997 0.0
H579 H 0.2844 0.94862 0.56402 0.0
H580 H 0.24564 0.96201 0.54945 0.0
H581 H 0.18681 0.9101 0.55719 0.0
H582 H 0.07325 0.95496 0.55643 0.0
H583 H 0.1135 0.94199 0.56521 0.0
C584 C 0.745 0.43865 0.95395 0.0
C585 C 0.73292 0.44702 0.93382 0.0
C586 C 0.7671 0.44827 0.96037 0.0
C587 C 0.81886 0.47936 0.9349 0.0
H588 H 0.83565 0.49059 0.00086 0.0
C589 C 0.91029 0.51858 0.9619 0.0
C590 C 0.92163 0.5078 0.98131 0.0
C591 C 0.88649 0.51331 0.95665 0.0
C592 C 0.83129 0.48737 0.98237 0.0
H593 H 0.73447 0.47225 0.90478 0.0
H594 H 0.77297 0.48926 0.91615 0.0
H595 H 0.79533 0.47759 0.99078 0.0
H596 H 0.91664 0.48325 0.01062 0.0
H597 H 0.87533 0.47386 0.00127 0.0
H598 H 0.85489 0.48869 0.92648 0.0
C599 C 0.7654 0.47511 0.92686 0.0
C600 C 0.80819 0.47995 0.9766 0.0
C601 C 0.74324 0.46555 0.9205 0.0
C602 C 0.90849 0.49193 0.99556 0.0
C603 C 0.88472 0.48664 0.99029 0.0
C604 C 0.84197 0.48673 0.94067 0.0
C605 C 0.77767 0.46644 0.94675 0.0
C606 C 0.80178 0.47564 0.95282 0.0
C607 C 0.87348 0.49714 0.97068 0.0
C608 C 0.84853 0.4906 0.96449 0.0
H609 H 0.7374 0.42456 0.96472 0.0
H610 H 0.77618 0.44105 0.97566 0.0
H611 H 0.81458 0.47587 0.91644 0.0
H612 H 0.91983 0.53099 0.95061 0.0
H613 H 0.87827 0.52195 0.94161 0.0
C614 C 0.77511 0.57356 0.45967 0.0
C615 C 0.78546 0.56363 0.43912 0.0
C616 C 0.75283 0.56568 0.46761 0.0
C617 C 0.70857 0.51657 0.46159 0.0
H618 H 0.66361 0.56558 0.48032 0.0
C619 C 0.60721 0.49931 0.4695 0.0
C620 C 0.59502 0.5103 0.48846 0.0
C621 C 0.63117 0.50463 0.46513 0.0
C622 C 0.67603 0.55163 0.47547 0.0
H623 H 0.78097 0.53688 0.41142 0.0
H624 H 0.7419 0.52349 0.42497 0.0
H625 H 0.70431 0.57674 0.47012 0.0
H626 H 0.59873 0.53518 0.51799 0.0
H627 H 0.64051 0.54432 0.51041 0.0
H628 H 0.68006 0.49151 0.46659 0.0
C629 C 0.75107 0.53725 0.43506 0.0
C630 C 0.69939 0.55803 0.46965 0.0
C631 C 0.77335 0.54513 0.42713 0.0
C632 C 0.60749 0.52646 0.50316 0.0
C633 C 0.63143 0.5318 0.49876 0.0
C634 C 0.68516 0.51017 0.46739 0.0
C635 C 0.74038 0.54769 0.45519 0.0
C636 C 0.71591 0.5406 0.4625 0.0
C637 C 0.64349 0.5211 0.47959 0.0
C638 C 0.6686 0.52765 0.47425 0.0
H639 H 0.78387 0.58797 0.46922 0.0
H640 H 0.74523 0.57386 0.48336 0.0
H641 H 0.72094 0.50268 0.45647 0.0
H642 H 0.59817 0.48678 0.45781 0.0
H643 H 0.63989 0.49628 0.45006 0.0
C644 C 0.08947 0.26052 0.06447 0.0
C645 C 0.07869 0.24956 0.08419 0.0
C646 C 0.08038 0.28173 0.05535 0.0
C647 C 0.04422 0.33368 0.07273 0.0
H648 H 0.04386 0.3459 0.00498 0.0
C649 C 0.00773 0.42139 0.03427 0.0
C650 C 0.02211 0.43247 0.01702 0.0
C651 C 0.01232 0.398 0.04138 0.0
C652 C 0.04396 0.34278 0.02395 0.0
H653 H 0.0497 0.2522 0.10962 0.0
H654 H 0.03355 0.28897 0.09339 0.0
H655 H 0.05602 0.30684 0.01945 0.0
H656 H 0.05218 0.42732 0.99323 0.0
H657 H 0.0602 0.38664 0.00574 0.0
H658 H 0.03245 0.36969 0.07725 0.0
C659 C 0.04922 0.28129 0.08516 0.0
C660 C 0.05095 0.32043 0.03225 0.0
C661 C 0.05832 0.26007 0.09429 0.0
C662 C 0.04075 0.41938 0.00658 0.0
C663 C 0.04528 0.39598 0.01364 0.0
C664 C 0.03719 0.356 0.06443 0.0
C665 C 0.06027 0.29248 0.06571 0.0
C666 C 0.05143 0.31571 0.05675 0.0
C667 C 0.03131 0.38514 0.03134 0.0
C668 C 0.03724 0.36089 0.03997 0.0
H669 H 0.10501 0.25273 0.05609 0.0
H670 H 0.08948 0.29 0.04052 0.0
H671 H 0.04472 0.33077 0.09173 0.0
H672 H 0.99316 0.4309 0.04263 0.0
H673 H 0.00105 0.39002 0.05485 0.0
C674 C 0.59059 0.27055 0.96096 0.0
C675 C 0.57919 0.28235 0.9422 0.0
C676 C 0.58274 0.24805 0.9683 0.0
C677 C 0.54923 0.19542 0.94672 0.0
H678 H 0.54888 0.17783 0.01326 0.0
C679 C 0.5127 0.10461 0.97889 0.0
C680 C 0.52645 0.0926 0.99588 0.0
C681 C 0.51789 0.12827 0.97297 0.0
C682 C 0.54906 0.18243 0.9946 0.0
H683 H 0.55039 0.2798 0.91662 0.0
H684 H 0.53636 0.24083 0.9298 0.0
H685 H 0.5599 0.21841 0.00198 0.0
H686 H 0.55631 0.09623 0.02013 0.0
H687 H 0.56539 0.13741 0.00968 0.0
H688 H 0.5385 0.15942 0.93934 0.0
C689 C 0.55159 0.24884 0.93863 0.0
C690 C 0.55538 0.20567 0.98813 0.0
C691 C 0.55945 0.27132 0.93128 0.0
C692 C 0.54534 0.10491 0.00698 0.0
C693 C 0.55046 0.12858 0.00111 0.0
C694 C 0.54285 0.17221 0.9532 0.0
C695 C 0.56328 0.23683 0.95707 0.0
C696 C 0.55569 0.2124 0.9641 0.0
C697 C 0.53688 0.14049 0.98395 0.0
C698 C 0.54284 0.16541 0.97719 0.0
H699 H 0.60567 0.27866 0.96994 0.0
H700 H 0.5923 0.23922 0.98241 0.0
H701 H 0.54966 0.19987 0.92803 0.0
H702 H 0.49798 0.09571 0.97004 0.0
H703 H 0.50692 0.13705 0.95988 0.0
C704 C 0.9286 0.73897 0.46143 0.0
C705 C 0.93363 0.73049 0.43844 0.0
C706 C 0.93551 0.76202 0.46826 0.0
C707 C 0.94553 0.82097 0.44473 0.0
H708 H 0.98342 0.8332 0.50108 0.0
C709 C 0.97897 0.91579 0.46744 0.0
C710 C 0.98052 0.92246 0.49148 0.0
C711 C 0.97421 0.8921 0.46102 0.0
C712 C 0.97249 0.83021 0.4855 0.0
H713 H 0.94961 0.73927 0.40451 0.0
H714 H 0.96116 0.7799 0.41628 0.0
H715 H 0.97295 0.79222 0.49022 0.0
H716 H 0.97801 0.90967 0.52767 0.0
H717 H 0.96861 0.86865 0.51659 0.0
H718 H 0.94404 0.85874 0.44035 0.0
C719 C 0.95217 0.76858 0.42906 0.0
C720 C 0.96666 0.8067 0.47925 0.0
C721 C 0.94571 0.74538 0.4224 0.0
C722 C 0.97713 0.905 0.50898 0.0
C723 C 0.97189 0.88141 0.50258 0.0
C724 C 0.95094 0.84449 0.45121 0.0
C725 C 0.94708 0.7771 0.45201 0.0
C726 C 0.95324 0.80191 0.45875 0.0
C727 C 0.97038 0.8746 0.4785 0.0
C728 C 0.9646 0.84946 0.47164 0.0
H729 H 0.91933 0.72775 0.47409 0.0
H730 H 0.93131 0.76829 0.48602 0.0
H731 H 0.93491 0.81768 0.42898 0.0
H732 H 0.98175 0.92882 0.45355 0.0
H733 H 0.97375 0.88754 0.44231 0.0
C734 C 0.41408 0.74605 0.58843 0.0
C735 C 0.42803 0.76688 0.5865 0.0
C736 C 0.4228 0.72405 0.5807 0.0
C737 C 0.47044 0.69647 0.54349 0.0
H738 H 0.44977 0.63921 0.57619 0.0
C739 C 0.50678 0.59879 0.53099 0.0
C740 C 0.48898 0.5832 0.52246 0.0
C741 C 0.50096 0.62194 0.53839 0.0
C742 C 0.45568 0.65511 0.56699 0.0
H743 H 0.4623 0.78064 0.57474 0.0
H744 H 0.47801 0.74209 0.56259 0.0
H745 H 0.43713 0.67814 0.59091 0.0
H746 H 0.45119 0.57961 0.51497 0.0
H747 H 0.44104 0.61979 0.52864 0.0
H748 H 0.48964 0.67297 0.52005 0.0
C749 C 0.46 0.74287 0.56947 0.0
C750 C 0.4483 0.67743 0.57522 0.0
C751 C 0.4511 0.765 0.57682 0.0
C752 C 0.46532 0.59124 0.52133 0.0
C753 C 0.45946 0.61414 0.5292 0.0
C754 C 0.47823 0.6741 0.53557 0.0
C755 C 0.44595 0.72208 0.57128 0.0
C756 C 0.45518 0.69842 0.56333 0.0
C757 C 0.4772 0.62958 0.53785 0.0
C758 C 0.47057 0.6533 0.54707 0.0
H759 H 0.39642 0.74657 0.59616 0.0
H760 H 0.41119 0.70862 0.58198 0.0
H761 H 0.47589 0.71211 0.53365 0.0
H762 H 0.52516 0.59308 0.532 0.0
H763 H 0.51485 0.63366 0.54508 0.0
C764 C 0.93994 0.94374 0.78265 0.0
C765 C 0.94212 0.96101 0.80081 0.0
C766 C 0.94467 0.94958 0.75908 0.0
C767 C 0.94482 0.99696 0.71621 0.0
H768 H 0.9911 0.95823 0.68248 0.0
C769 C 0.97233 0.01653 0.61902 0.0
C770 C 0.97729 0.99689 0.60419 0.0
C771 C 0.96851 0.01335 0.64335 0.0
C772 C 0.97786 0.96901 0.69146 0.0
H773 H 0.95039 0.99828 0.80807 0.0
H774 H 0.95777 0.00862 0.76646 0.0
H775 H 0.98307 0.95068 0.7243 0.0
H776 H 0.98145 0.95845 0.60308 0.0
H777 H 0.97381 0.95273 0.64518 0.0
H778 H 0.93874 0.01467 0.68324 0.0
C779 C 0.95268 0.99048 0.77083 0.0
C780 C 0.97344 0.96478 0.71546 0.0
C781 C 0.94835 0.98455 0.79459 0.0
C782 C 0.97791 0.97397 0.61409 0.0
C783 C 0.97371 0.97074 0.63832 0.0
C784 C 0.94893 0.00096 0.69203 0.0
C785 C 0.95121 0.97292 0.75298 0.0
C786 C 0.95677 0.97858 0.72798 0.0
C787 C 0.96921 0.9904 0.65334 0.0
C788 C 0.96535 0.98687 0.67928 0.0
H789 H 0.93446 0.92562 0.78657 0.0
H790 H 0.94304 0.93584 0.74552 0.0
H791 H 0.93176 0.0077 0.72553 0.0
H792 H 0.9719 0.03446 0.61192 0.0
H793 H 0.96544 0.02896 0.65436 0.0
C794 C 0.55617 0.03396 0.29478 0.0
C795 C 0.57316 0.05154 0.3006 0.0
C796 C 0.55124 0.02854 0.27097 0.0
C797 C 0.55593 0.05538 0.21139 0.0
H798 H 0.54299 0.99108 0.18882 0.0
C799 C 0.54744 0.03285 0.1119 0.0
C800 C 0.52858 0.01769 0.10511 0.0
C801 C 0.55297 0.03622 0.13587 0.0
C802 C 0.54636 0.00915 0.19494 0.0
H803 H 0.59932 0.07616 0.28627 0.0
H804 H 0.59106 0.06648 0.24486 0.0
H805 H 0.55304 0.9978 0.23059 0.0
H806 H 0.50084 0.99401 0.11826 0.0
H807 H 0.51051 -1e-05 0.16013 0.0
H808 H 0.54937 0.06675 0.17581 0.0
C809 C 0.581 0.05737 0.25855 0.0
C810 C 0.5521 0.013 0.21884 0.0
C811 C 0.5858 0.06286 0.28226 0.0
C812 C 0.51547 0.00585 0.12286 0.0
C813 C 0.52109 0.00913 0.14685 0.0
C814 C 0.5503 0.05153 0.18755 0.0
C815 C 0.56333 0.04051 0.2526 0.0
C816 C 0.55706 0.03617 0.2273 0.0
C817 C 0.53983 0.02443 0.15359 0.0
C818 C 0.54554 0.02838 0.17903 0.0
H819 H 0.54608 0.02506 0.30859 0.0
H820 H 0.53741 0.01558 0.26698 0.0
H821 H 0.55911 0.07352 0.21742 0.0
H822 H 0.55797 0.0422 0.09872 0.0
H823 H 0.5677 0.0479 0.14053 0.0
C824 C 0.46911 0.539 0.22309 0.0
C825 C 0.44877 0.55296 0.21911 0.0
C826 C 0.47603 0.53334 0.24627 0.0
C827 C 0.46951 0.55427 0.30812 0.0
H828 H 0.4865 0.48964 0.32532 0.0
C829 C 0.47304 0.52474 0.40532 0.0
C830 C 0.49161 0.50967 0.41246 0.0
C831 C 0.4695 0.52975 0.38134 0.0
C832 C 0.48213 0.50784 0.32073 0.0
H833 H 0.41998 0.5722 0.2363 0.0
H834 H 0.43185 0.56214 0.27653 0.0
H835 H 0.4775 0.49893 0.28389 0.0
H836 H 0.52095 0.48788 0.39983 0.0
H837 H 0.51485 0.49685 0.35785 0.0
H838 H 0.47395 0.56325 0.34481 0.0
C839 C 0.44252 0.55563 0.26182 0.0
C840 C 0.47697 0.51315 0.29702 0.0
C841 C 0.43555 0.56115 0.23874 0.0
C842 C 0.50647 0.49956 0.39496 0.0
C843 C 0.50292 0.5046 0.3709 0.0
C844 C 0.47471 0.549 0.33173 0.0
C845 C 0.46288 0.54177 0.26587 0.0
C846 C 0.47019 0.53634 0.29057 0.0
C847 C 0.48447 0.51989 0.36385 0.0
C848 C 0.48066 0.52565 0.3384 0.0
H849 H 0.47957 0.53235 0.2083 0.0
H850 H 0.49186 0.5227 0.24888 0.0
H851 H 0.46483 0.57242 0.30361 0.0
H852 H 0.46113 0.53273 0.41825 0.0
H853 H 0.45484 0.54123 0.3765 0.0
C854 C 0.05178 0.47428 0.71929 0.0
C855 C 0.07088 0.4586 0.71533 0.0
C856 C 0.04607 0.48184 0.74235 0.0
C857 C 0.07205 0.48755 0.80244 0.0
H858 H 0.00632 0.48923 0.82375 0.0
C859 C 0.04717 0.49271 0.90129 0.0
C860 C 0.02829 0.50765 0.90815 0.0
C861 C 0.05198 0.48843 0.87731 0.0
C862 C 0.02474 0.48917 0.81797 0.0
H863 H 0.09842 0.43793 0.73255 0.0
H864 H 0.08852 0.45109 0.7726 0.0
H865 H 0.01532 0.47863 0.78252 0.0
H866 H -0.00039 0.52981 0.89505 0.0
H867 H 0.00812 0.52235 0.85307 0.0
H868 H 0.08153 0.49778 0.83786 0.0
C869 C 0.07826 0.45798 0.75789 0.0
C870 C 0.02989 0.4831 0.79436 0.0
C871 C 0.08394 0.45044 0.73492 0.0
C872 C 0.01429 0.5182 0.8904 0.0
C873 C 0.01908 0.51384 0.86635 0.0
C874 C 0.06692 0.49359 0.82598 0.0
C875 C 0.05936 0.47387 0.76189 0.0
C876 C 0.05364 0.48187 0.78645 0.0
C877 C 0.03802 0.49896 0.85956 0.0
C878 C 0.04324 0.49412 0.83411 0.0
H879 H 0.0415 0.48103 0.70454 0.0
H880 H 0.03152 0.49424 0.74485 0.0
H881 H 0.09051 0.48726 0.79677 0.0
H882 H 0.05829 0.48422 0.91445 0.0
H883 H 0.06647 0.47657 0.87268 0.0
C884 C 0.78857 0.96678 0.97305 0.0
C885 C 0.79419 0.94696 0.95869 0.0
C886 C 0.76489 0.97164 0.97908 0.0
C887 C 0.70539 0.94331 0.98295 0.0
H888 H 0.68237 0.00839 0.98047 0.0
C889 C 0.60537 0.96586 0.98694 0.0
C890 C 0.59853 0.98577 0.00062 0.0
C891 C 0.62943 0.96121 0.98264 0.0
C892 C 0.68859 0.99016 0.98153 0.0
H893 H 0.7793 0.917 0.93901 0.0
H894 H 0.7381 0.92544 0.94953 0.0
H895 H 0.72412 0.00015 0.97169 0.0
H896 H 0.61173 0.01638 0.02059 0.0
H897 H 0.65368 0.00813 0.01322 0.0
H898 H 0.66986 0.93328 0.99267 0.0
C899 C 0.752 0.93698 0.9565 0.0
C900 C 0.71251 0.98544 0.97651 0.0
C901 C 0.77562 0.93214 0.95048 0.0
C902 C 0.61634 0.00091 0.00992 0.0
C903 C 0.6404 0.99627 0.0056 0.0
C904 C 0.68149 0.94802 0.98797 0.0
C905 C 0.74634 0.95678 0.97087 0.0
C906 C 0.72114 0.96194 0.97701 0.0
C907 C 0.64722 0.97637 0.99191 0.0
C908 C 0.67278 0.97147 0.98717 0.0
H909 H 0.80249 0.97837 0.97989 0.0
H910 H 0.76113 0.98686 0.99041 0.0
H911 H 0.71158 0.92506 0.98389 0.0
H912 H 0.59215 0.95385 0.97944 0.0
H913 H 0.63409 0.94592 0.97175 0.0
C914 C 0.72281 0.03847 0.45266 0.0
C915 C 0.70972 0.05462 0.46665 0.0
C916 C 0.7466 0.03365 0.45798 0.0
C917 C 0.7982 0.06062 0.48856 0.0
H918 H 0.82587 0.99779 0.48045 0.0
C919 C 0.89506 0.03995 0.51519 0.0
C920 C 0.9085 0.02595 0.4993 0.0
C921 C 0.8706 0.04284 0.51186 0.0
C922 C 0.81842 0.01548 0.48259 0.0
H923 H 0.7109 0.07745 0.49788 0.0
H924 H 0.75237 0.06885 0.50734 0.0
H925 H 0.78318 0.00321 0.47432 0.0
H926 H 0.90667 0.00404 0.46739 0.0
H927 H 0.86397 0.00925 0.46153 0.0
H928 H 0.83341 0.07291 0.49676 0.0
C929 C 0.74442 0.06032 0.49193 0.0
C930 C 0.79398 0.01858 0.4791 0.0
C931 C 0.72066 0.0652 0.48657 0.0
C932 C 0.89688 0.01495 0.47997 0.0
C933 C 0.87238 0.01778 0.4767 0.0
C934 C 0.8226 0.0575 0.49211 0.0
C935 C 0.7578 0.04483 0.47744 0.0
C936 C 0.7836 0.04121 0.48197 0.0
C937 C 0.85898 0.03176 0.49261 0.0
C938 C 0.83299 0.03493 0.48908 0.0
H939 H 0.71496 0.03027 0.43702 0.0
H940 H 0.75647 0.02185 0.44629 0.0
H941 H 0.79088 0.07838 0.49048 0.0
H942 H 0.90339 0.04864 0.53031 0.0
H943 H 0.86071 0.05352 0.52457 0.0
C944 C 0.2847 0.58305 0.045 0.0
C945 C 0.29875 0.56461 0.05406 0.0
C946 C 0.26134 0.57849 0.03767 0.0
C947 C 0.2127 0.53359 0.04497 0.0
H948 H 0.18248 0.57114 0.99594 0.0
C949 C 0.11791 0.51465 0.00856 0.0
C950 C 0.10237 0.53419 0.01035 0.0
C951 C 0.14233 0.5177 0.01242 0.0
C952 C 0.19077 0.56057 0.00967 0.0
H953 H 0.30006 0.52684 0.06166 0.0
H954 H 0.25971 0.51846 0.04772 0.0
H955 H 0.22481 0.57689 0.0042 0.0
H956 H 0.10026 0.57231 0.01698 0.0
H957 H 0.14314 0.5777 0.02308 0.0
H958 H 0.17861 0.51687 0.04981 0.0
C959 C 0.26623 0.53667 0.04708 0.0
C960 C 0.21497 0.56392 0.01455 0.0
C961 C 0.28943 0.54136 0.05487 0.0
C962 C 0.11179 0.55691 0.01561 0.0
C963 C 0.13628 0.56004 0.01896 0.0
C964 C 0.18864 0.52992 0.03972 0.0
C965 C 0.25166 0.55527 0.03884 0.0
C966 C 0.22623 0.5507 0.0325 0.0
C967 C 0.1517 0.54042 0.0176 0.0
C968 C 0.17743 0.54357 0.02225 0.0
H969 H 0.29148 0.60119 0.04449 0.0
H970 H 0.25067 0.59339 0.03188 0.0
H971 H 0.22046 0.52341 0.05925 0.0
H972 H 0.11115 0.49692 0.0046 0.0
H973 H 0.15393 0.50234 0.01125 0.0
C974 C 0.22695 0.43595 0.53103 0.0
C975 C 0.21611 0.44836 0.54991 0.0
C976 C 0.25047 0.44094 0.52455 0.0
C977 C 0.29913 0.48539 0.5309 0.0
H978 H 0.33976 0.4305 0.52033 0.0
C979 C 0.40548 0.46119 0.52773 0.0
C980 C 0.41404 0.47971 0.51322 0.0
C981 C 0.38101 0.45769 0.53083 0.0
C982 C 0.32867 0.44601 0.52334 0.0
H983 H 0.22124 0.4762 0.57639 0.0
H984 H 0.26233 0.48493 0.56508 0.0
H985 H 0.2974 0.42456 0.52793 0.0
H986 H 0.40348 0.50895 0.49044 0.0
H987 H 0.36083 0.50268 0.49576 0.0
H988 H 0.33059 0.50679 0.52694 0.0
C989 C 0.25256 0.4715 0.55512 0.0
C990 C 0.30434 0.44262 0.5274 0.0
C991 C 0.229 0.46651 0.56159 0.0
C992 C 0.39754 0.49455 0.5018 0.0
C993 C 0.37307 0.49106 0.50494 0.0
C994 C 0.32348 0.48878 0.52679 0.0
C995 C 0.26369 0.45845 0.53682 0.0
C996 C 0.28932 0.46226 0.53137 0.0
C997 C 0.36453 0.47263 0.51953 0.0
C998 C 0.33855 0.4691 0.52314 0.0
H999 H 0.21732 0.42213 0.52143 0.0
H1000 H 0.2584 0.4309 0.51008 0.0
H1001 H 0.28799 0.50088 0.53372 0.0
H1002 H 0.41767 0.44946 0.53683 0.0
H1003 H 0.375 0.44351 0.54242 0.0
C1004 C 0.9869 0.80207 0.94956 0.0
C1005 C 0.9668 0.81243 0.96032 0.0
C1006 C 0.99285 0.77837 0.95411 0.0
C1007 C 0.98213 0.72788 0.99486 0.0
H1008 H 0.997 0.68946 0.93922 0.0
C1009 C 0.0114 0.62948 0.00119 0.0
C1010 C 0.00126 0.61331 0.98481 0.0
C1011 C 0.00811 0.65403 -0.00127 0.0
C1012 C 0.99276 0.69992 0.95491 0.0
H1013 H 0.93772 0.80632 0.98501 0.0
H1014 H 0.94818 0.76494 0.99305 0.0
H1015 H 0.99015 0.73214 0.93493 0.0
H1016 H 0.97977 0.61038 0.95289 0.0
H1017 H 0.97398 0.65327 0.94866 0.0
H1018 H 0.98423 0.69551 0.01475 0.0
C1019 C 0.95943 0.77521 0.98121 0.0
C1020 C 0.98913 0.72442 0.9525 0.0
C1021 C 0.95346 0.79893 0.97664 0.0
C1022 C 0.98787 0.62231 0.9658 0.0
C1023 C 0.98465 0.6469 0.96331 0.0
C1024 C 0.98584 0.70337 0.99728 0.0
C1025 C 0.97885 0.76451 0.96955 0.0
C1026 C 0.98368 0.73867 0.97243 0.0
C1027 C 0.99467 0.66301 0.97979 0.0
C1028 C 0.99108 0.6891 0.9773 0.0
H1029 H 0.99777 0.81215 0.93721 0.0
H1030 H 0.00822 0.77077 0.94524 0.0
H1031 H 0.97808 0.73841 0.01055 0.0
H1032 H 0.02186 0.62322 0.01603 0.0
H1033 H 0.01632 0.666 0.01154 0.0
C1034 C 0.43997 0.73925 0.09315 0.0
C1035 C 0.44929 0.72009 0.0799 0.0
C1036 C 0.44613 0.76276 0.08764 0.0
C1037 C 0.46903 0.80021 0.03901 0.0
H1038 H 0.48141 0.84568 0.08981 0.0
C1039 C 0.50267 0.89632 0.02141 0.0
C1040 C 0.49232 0.91467 0.03507 0.0
C1041 C 0.49818 0.87237 0.02676 0.0
C1042 C 0.47778 0.83326 0.07543 0.0
H1043 H 0.47267 0.71062 0.05063 0.0
H1044 H 0.48342 0.75173 0.04097 0.0
H1045 H 0.47239 0.80424 0.09941 0.0
H1046 H 0.46901 0.92213 0.06502 0.0
H1047 H 0.46104 0.88045 0.07415 0.0
H1048 H 0.47428 0.82929 0.01503 0.0
C1049 C 0.4711 0.74854 0.05546 0.0
C1050 C 0.47262 0.80951 0.08092 0.0
C1051 C 0.46494 0.725 0.06099 0.0
C1052 C 0.47735 0.90849 0.05416 0.0
C1053 C 0.47289 0.88457 0.05951 0.0
C1054 C 0.47419 0.82398 0.0335 0.0
C1055 C 0.46176 0.76768 0.06873 0.0
C1056 C 0.46803 0.79274 0.06279 0.0
C1057 C 0.48327 0.86623 0.0459 0.0
C1058 C 0.47846 0.84081 0.05166 0.0
H1059 H 0.42752 0.73613 0.10755 0.0
H1060 H 0.43829 0.77711 0.09795 0.0
H1061 H 0.46528 0.7878 0.02464 0.0
H1062 H 0.51433 0.90041 0.00661 0.0
H1063 H 0.50665 0.85866 0.01609 0.0
C1064 C 0.03592 0.28682 0.57975 0.0
C1065 C 0.05503 0.29696 0.56709 0.0
C1066 C 0.02833 0.26349 0.57481 0.0
C1067 C 0.03315 0.21461 0.52991 0.0
H1068 H 0.01946 0.17385 0.58374 0.0
C1069 C 0.03237 0.11194 0.52322 0.0
C1070 C 0.01331 0.09987 0.53419 0.0
C1071 C 0.03568 0.13642 0.52683 0.0
C1072 C 0.02298 0.18508 0.56853 0.0
H1073 H 0.08035 0.29094 0.53852 0.0
H1074 H 0.06771 0.25017 0.53046 0.0
H1075 H 0.02773 0.21616 0.5903 0.0
H1076 H 0.98297 0.10406 0.55782 0.0
H1077 H 0.98899 0.1468 0.56431 0.0
H1078 H 0.02908 0.18328 0.50825 0.0
C1079 C 0.05835 0.26023 0.54403 0.0
C1080 C 0.02762 0.20935 0.57225 0.0
C1081 C 0.06583 0.28354 0.54888 0.0
C1082 C 0.99782 0.1128 0.54908 0.0
C1083 C 0.00129 0.13725 0.55288 0.0
C1084 C 0.02871 0.19031 0.52622 0.0
C1085 C 0.03971 0.24978 0.55713 0.0
C1086 C 0.03302 0.22437 0.553 0.0
C1087 C 0.02017 0.14932 0.54167 0.0
C1088 C 0.02382 0.17527 0.54551 0.0
H1089 H 0.02729 0.29662 0.59398 0.0
H1090 H 0.01369 0.25611 0.58501 0.0
H1091 H 0.03678 0.22572 0.51463 0.0
H1092 H 0.04461 0.10254 0.51161 0.0
H1093 H 0.05056 0.14523 0.51819 0.0
C1094 C 0.53007 0.21584 0.44557 0.0
C1095 C 0.54836 0.2044 0.45806 0.0
C1096 C 0.5244 0.23959 0.45054 0.0
C1097 C 0.53211 0.28831 0.4947 0.0
H1098 H 0.52323 0.32887 0.43984 0.0
C1099 C 0.50453 0.38718 0.50321 0.0
C1100 C 0.51602 0.40359 0.48816 0.0
C1101 C 0.50763 0.36265 0.49999 0.0
C1102 C 0.52582 0.31782 0.45534 0.0
H1103 H 0.57453 0.2086 0.48607 0.0
H1104 H 0.56469 0.25014 0.49473 0.0
H1105 H 0.52974 0.28628 0.43415 0.0
H1106 H 0.53981 0.407 0.45791 0.0
H1107 H 0.54538 0.36419 0.45245 0.0
H1108 H 0.52882 0.32003 0.51584 0.0
C1109 C 0.55455 0.24068 0.48126 0.0
C1110 C 0.52923 0.29335 0.4521 0.0
C1111 C 0.56019 0.21688 0.47632 0.0
C1112 C 0.53063 0.39488 0.46977 0.0
C1113 C 0.53373 0.37033 0.46656 0.0
C1114 C 0.52869 0.31282 0.49794 0.0
C1115 C 0.53693 0.25244 0.46807 0.0
C1116 C 0.53248 0.27831 0.47173 0.0
C1117 C 0.52228 0.35394 0.48165 0.0
C1118 C 0.5256 0.32786 0.47828 0.0
H1119 H 0.52038 0.20653 0.43166 0.0
H1120 H 0.51038 0.24798 0.44042 0.0
H1121 H 0.5344 0.27719 0.51019 0.0
H1122 H 0.49308 0.39323 0.51752 0.0
H1123 H 0.49831 0.3505 0.51172 0.0
loop_
_geom_bond_atom_site_label_1
_geom_bond_atom_site_label_2
_geom_bond_distance
_geom_bond_site_symmetry_2
_ccdc_geom_bond_type
C0 C1 1.386 . S
C0 C2 1.397 . S
C0 H24 0.931 . S
C1 C0 1.386 . S
C1 C5 1.397 . S
C2 C0 1.397 . S
C2 C3 1.384 . S
C2 H25 0.930 . S
C3 C2 1.384 . S
C3 C4 1.377 . S
C3 C6 1.481 . S
C4 C3 1.377 . S
C4 C5 1.389 . S
C4 H26 0.929 . S
C5 C1 1.397 . S
C5 C4 1.389 . S
C5 H27 0.931 . S
C6 C3 1.481 . S
C6 C7 1.387 . S
C6 C11 1.390 . S
C7 C6 1.387 . S
C7 C8 1.401 . S
C7 H28 0.930 . S
C8 C7 1.401 . S
C8 C9 1.376 . S
C8 C17 1.511 . S
C9 C8 1.376 . S
C9 C10 1.392 . S
C9 H30 0.931 . S
C10 C9 1.392 . S
C10 C11 1.361 . S
C10 C12 1.500 . S
C11 C6 1.390 . S
C11 C10 1.361 . S
C11 H29 0.931 . S
C12 C10 1.500 . S
C12 C13 1.371 . S
C12 C14 1.365 . S
C13 C12 1.371 . S
C13 C23 1.386 . S
C13 H31 0.931 . S
C14 C12 1.365 . S
C14 C15 1.409 . S
C14 H32 0.929 . S
C15 C14 1.409 . S
C15 C16 1.380 . S
C15 H33 0.930 . S
C16 C15 1.380 . S
C16 C23 1.357 . S
C17 C8 1.511 . S
C17 C18 1.341 . S
C17 C19 1.371 . S
C18 C17 1.341 . S
C18 C22 1.394 . S
C18 H34 0.930 . S
C19 C17 1.371 . S
C19 C20 1.392 . S
C19 H35 0.931 . S
C20 C19 1.392 . S
C20 C21 1.331 . S
C20 H38 0.932 . S
C21 C20 1.331 . S
C21 C22 1.336 . S
C22 C18 1.394 . S
C22 C21 1.336 . S
C22 H37 0.929 . S
C23 C13 1.386 . S
C23 C16 1.357 . S
C23 H36 0.928 . S
H24 C0 0.931 . S
H25 C2 0.930 . S
H26 C4 0.929 . S
H27 C5 0.931 . S
H28 C7 0.930 . S
H29 C11 0.931 . S
H30 C9 0.931 . S
H31 C13 0.931 . S
H32 C14 0.929 . S
H33 C15 0.930 . S
H34 C18 0.930 . S
H35 C19 0.931 . S
H36 C23 0.928 . S
H37 C22 0.929 . S
H38 C20 0.932 . S
C39 C40 1.386 . S
C39 C41 1.397 . S
C39 H63 0.931 . S
C40 C39 1.386 . S
C40 C44 1.397 . S
C41 C39 1.397 . S
C41 C42 1.384 . S
C41 H64 0.930 . S
C42 C41 1.384 . S
C42 C43 1.377 . S
C42 C45 1.481 . S
C43 C42 1.377 . S
C43 C44 1.389 . S
C43 H65 0.929 . S
C44 C40 1.397 . S
C44 C43 1.389 . S
C44 H66 0.931 . S
C45 C42 1.481 . S
C45 C46 1.387 . S
C45 C50 1.390 . S
C46 C45 1.387 . S
C46 C47 1.401 . S
C46 H67 0.930 . S
C47 C46 1.401 . S
C47 C48 1.376 . S
C47 C56 1.511 . S
C48 C47 1.376 . S
C48 C49 1.392 . S
C48 H69 0.931 . S
C49 C48 1.392 . S
C49 C50 1.361 . S
C49 C51 1.500 . S
C50 C45 1.390 . S
C50 C49 1.361 . S
C50 H68 0.931 . S
C51 C49 1.500 . S
C51 C52 1.371 . S
C51 C53 1.365 . S
C52 C51 1.371 . S
C52 C62 1.386 . S
C52 H70 0.931 . S
C53 C51 1.365 . S
C53 C54 1.409 . S
C53 H71 0.929 . S
C54 C53 1.409 . S
C54 C55 1.380 . S
C54 H72 0.930 . S
C55 C54 1.380 . S
C55 C62 1.357 . S
C56 C47 1.511 . S
C56 C57 1.341 . S
C56 C58 1.371 . S
C57 C56 1.341 . S
C57 C61 1.394 . S
C57 H73 0.930 . S
C58 C56 1.371 . S
C58 C59 1.392 . S
C58 H74 0.931 . S
C59 C58 1.392 . S
C59 C60 1.331 . S
C59 H77 0.932 . S
C60 C59 1.331 . S
C60 C61 1.336 . S
C61 C57 1.394 . S
C61 C60 1.336 . S
C61 H76 0.929 . S
C62 C52 1.386 . S
C62 C55 1.357 . S
C62 H75 0.928 . S
H63 C39 0.931 . S
H64 C41 0.930 . S
H65 C43 0.929 . S
H66 C44 0.931 . S
H67 C46 0.930 . S
H68 C50 0.931 . S
H69 C48 0.931 . S
H70 C52 0.931 . S
H71 C53 0.929 . S
H72 C54 0.930 . S
H73 C57 0.930 . S
H74 C58 0.931 . S
H75 C62 0.928 . S
H76 C61 0.929 . S
H77 C59 0.932 . S
C78 C79 1.386 . S
C78 C80 1.397 . S
C78 H102 0.931 . S
C79 C78 1.386 . S
C79 C83 1.397 . S
C80 C78 1.397 . S
C80 C81 1.384 . S
C80 H103 0.930 . S
C81 C80 1.384 . S
C81 C82 1.377 . S
C81 C84 1.481 . S
C82 C81 1.377 . S
C82 C83 1.389 . S
C82 H104 0.929 . S
C83 C79 1.397 . S
C83 C82 1.389 . S
C83 H105 0.931 . S
C84 C81 1.481 . S
C84 C85 1.387 . S
C84 C89 1.390 . S
C85 C84 1.387 . S
C85 C86 1.401 . S
C85 H106 0.930 . S
C86 C85 1.401 . S
C86 C87 1.376 . S
C86 C95 1.511 . S
C87 C86 1.376 . S
C87 C88 1.392 . S
C87 H108 0.931 . S
C88 C87 1.392 . S
C88 C89 1.361 . S
C88 C90 1.500 . S
C89 C84 1.390 . S
C89 C88 1.361 . S
C89 H107 0.931 . S
C90 C88 1.500 . S
C90 C91 1.371 . S
C90 C92 1.365 . S
C91 C90 1.371 . S
C91 C101 1.386 . S
C91 H109 0.931 . S
C92 C90 1.365 . S
C92 C93 1.409 . S
C92 H110 0.929 . S
C93 C92 1.409 . S
C93 C94 1.380 . S
C93 H111 0.930 . S
C94 C93 1.380 . S
C94 C101 1.357 . S
C95 C86 1.511 . S
C95 C96 1.341 . S
C95 C97 1.371 . S
C96 C95 1.341 . S
C96 C100 1.394 . S
C96 H112 0.930 . S
C97 C95 1.371 . S
C97 C98 1.392 . S
C97 H113 0.931 . S
C98 C97 1.392 . S
C98 C99 1.331 . S
C98 H116 0.932 . S
C99 C98 1.331 . S
C99 C100 1.336 . S
C100 C96 1.394 . S
C100 C99 1.336 . S
C100 H115 0.929 . S
C101 C91 1.386 . S
C101 C94 1.357 . S
C101 H114 0.928 . S
H102 C78 0.931 . S
H103 C80 0.930 . S
H104 C82 0.929 . S
H105 C83 0.931 . S
H106 C85 0.930 . S
H107 C89 0.931 . S
H108 C87 0.931 . S
H109 C91 0.931 . S
H110 C92 0.929 . S
H111 C93 0.930 . S
H112 C96 0.930 . S
H113 C97 0.931 . S
H114 C101 0.928 . S
H115 C100 0.929 . S
H116 C98 0.932 . S
C117 C118 1.386 . S
C117 C119 1.397 . S
C117 H141 0.931 . S
C118 C117 1.386 . S
C118 C122 1.397 . S
C119 C117 1.397 . S
C119 C120 1.384 . S
C119 H142 0.930 . S
C120 C119 1.384 . S
C120 C121 1.377 . S
C120 C123 1.481 . S
C121 C120 1.377 . S
C121 C122 1.389 . S
C121 H143 0.929 . S
C122 C118 1.397 . S
C122 C121 1.389 . S
C122 H144 0.931 . S
C123 C120 1.481 . S
C123 C124 1.387 . S
C123 C128 1.390 . S
C124 C123 1.387 . S
C124 C125 1.401 . S
C124 H145 0.930 . S
C125 C124 1.401 . S
C125 C126 1.376 . S
C125 C134 1.511 . S
C126 C125 1.376 . S
C126 C127 1.392 . S
C126 H147 0.931 . S
C127 C126 1.392 . S
C127 C128 1.361 . S
C127 C129 1.500 . S
C128 C123 1.390 . S
C128 C127 1.361 . S
C128 H146 0.931 . S
C129 C127 1.500 . S
C129 C130 1.371 . S
C129 C131 1.365 . S
C130 C129 1.371 . S
C130 C140 1.386 . S
C130 H148 0.931 . S
C131 C129 1.365 . S
C131 C132 1.409 . S
C131 H149 0.929 . S
C132 C131 1.409 . S
C132 C133 1.380 . S
C132 H150 0.930 . S
C133 C132 1.380 . S
C133 C140 1.357 . S
C134 C125 1.511 . S
C134 C135 1.341 . S
C134 C136 1.371 . S
C135 C134 1.341 . S
C135 C139 1.394 . S
C135 H151 0.930 . S
C136 C134 1.371 . S
C136 C137 1.392 . S
C136 H152 0.931 . S
C137 C136 1.392 . S
C137 C138 1.331 . S
C137 H155 0.932 . S
C138 C137 1.331 . S
C138 C139 1.336 . S
C139 C135 1.394 . S
C139 C138 1.336 . S
C139 H154 0.929 . S
C140 C130 1.386 . S
C140 C133 1.357 . S
C140 H153 0.928 . S
H141 C117 0.931 . S
H142 C119 0.930 . S
H143 C121 0.929 . S
H144 C122 0.931 . S
H145 C124 0.930 . S
H146 C128 0.931 . S
H147 C126 0.931 . S
H148 C130 0.931 . S
H149 C131 0.929 . S
H150 C132 0.930 . S
H151 C135 0.930 . S
H152 C136 0.931 . S
H153 C140 0.928 . S
H154 C139 0.929 . S
H155 C137 0.932 . S
C156 C157 1.386 . S
C156 C158 1.397 . S
C156 H180 0.931 . S
C157 C156 1.386 . S
C157 C161 1.397 . S
C158 C156 1.397 . S
C158 C159 1.384 . S
C158 H181 0.930 . S
C159 C158 1.384 . S
C159 C160 1.377 . S
C159 C162 1.481 . S
C160 C159 1.377 . S
C160 C161 1.389 . S
C160 H182 0.929 . S
C161 C157 1.397 . S
C161 C160 1.389 . S
C161 H183 0.933 . S
C162 C159 1.481 . S
C162 C163 1.387 . S
C162 C167 1.390 . S
C163 C162 1.387 . S
C163 C164 1.401 . S
C163 H184 0.930 . S
C164 C163 1.401 . S
C164 C165 1.376 . S
C164 C173 1.511 . S
C165 C164 1.376 . S
C165 C166 1.392 . S
C165 H186 0.931 . S
C166 C165 1.392 . S
C166 C167 1.361 . S
C166 C168 1.500 . S
C167 C162 1.390 . S
C167 C166 1.361 . S
C167 H185 0.931 . S
C168 C166 1.500 . S
C168 C169 1.371 . S
C168 C170 1.365 . S
C169 C168 1.371 . S
C169 C179 1.386 . S
C169 H187 0.931 . S
C170 C168 1.365 . S
C170 C171 1.409 . S
C170 H188 0.929 . S
C171 C170 1.409 . S
C171 C172 1.380 . S
C171 H189 0.935 . S
C172 C171 1.380 . S
C172 C179 1.357 . S
C173 C164 1.511 . S
C173 C174 1.341 . S
C173 C175 1.371 . S
C174 C173 1.341 . S
C174 C178 1.394 . S
C174 H190 0.930 . S
C175 C173 1.371 . S
C175 C176 1.392 . S
C175 H191 0.931 . S
C176 C175 1.392 . S
C176 C177 1.331 . S
C176 H194 0.932 . S
C177 C176 1.331 . S
C177 C178 1.336 . S
C178 C174 1.394 . S
C178 C177 1.336 . S
C178 H193 0.929 . S
C179 C169 1.386 . S
C179 C172 1.357 . S
C179 H192 0.928 . S
H180 C156 0.931 . S
H181 C158 0.930 . S
H182 C160 0.929 . S
H183 C161 0.933 . S
H184 C163 0.930 . S
H185 C167 0.931 . S
H186 C165 0.931 . S
H187 C169 0.931 . S
H188 C170 0.929 . S
H189 C171 0.935 . S
H190 C174 0.930 . S
H191 C175 0.931 . S
H192 C179 0.928 . S
H193 C178 0.929 . S
H194 C176 0.932 . S
C195 C196 1.386 . S
C195 C197 1.397 . S
C195 H219 0.931 . S
C196 C195 1.386 . S
C196 C200 1.397 . S
C197 C195 1.397 . S
C197 C198 1.384 . S
C197 H220 0.930 . S
C198 C197 1.384 . S
C198 C199 1.377 . S
C198 C201 1.481 . S
C199 C198 1.377 . S
C199 C200 1.389 . S
C199 H221 0.929 . S
C200 C196 1.397 . S
C200 C199 1.389 . S
C200 H222 0.931 . S
C201 C198 1.481 . S
C201 C202 1.387 . S
C201 C206 1.390 . S
C202 C201 1.387 . S
C202 C203 1.401 . S
C202 H223 0.930 . S
C203 C202 1.401 . S
C203 C204 1.376 . S
C203 C212 1.511 . S
C204 C203 1.376 . S
C204 C205 1.392 . S
C204 H225 0.931 . S
C205 C204 1.392 . S
C205 C206 1.361 . S
C205 C207 1.500 . S
C206 C201 1.390 . S
C206 C205 1.361 . S
C206 H224 0.931 . S
C207 C205 1.500 . S
C207 C208 1.371 . S
C207 C209 1.365 . S
C208 C207 1.371 . S
C208 C218 1.386 . S
C208 H226 0.931 . S
C209 C207 1.365 . S
C209 C210 1.409 . S
C209 H227 0.929 . S
C210 C209 1.409 . S
C210 C211 1.380 . S
C210 H228 0.930 . S
C211 C210 1.380 . S
C211 C218 1.357 . S
C212 C203 1.511 . S
C212 C213 1.341 . S
C212 C214 1.371 . S
C213 C212 1.341 . S
C213 C217 1.394 . S
C213 H229 0.930 . S
C214 C212 1.371 . S
C214 C215 1.392 . S
C214 H230 0.931 . S
C215 C214 1.392 . S
C215 C216 1.331 . S
C215 H233 0.932 . S
C216 C215 1.331 . S
C216 C217 1.336 . S
C217 C213 1.394 . S
C217 C216 1.336 . S
C217 H232 0.929 . S
C218 C208 1.386 . S
C218 C211 1.357 . S
C218 H231 0.928 . S
H219 C195 0.931 . S
H220 C197 0.930 . S
H221 C199 0.929 . S
H222 C200 0.931 . S
H223 C202 0.930 . S
H224 C206 0.931 . S
H225 C204 0.931 . S
H226 C208 0.931 . S
H227 C209 0.929 . S
H228 C210 0.930 . S
H229 C213 0.930 . S
H230 C214 0.931 . S
H231 C218 0.928 . S
H232 C217 0.929 . S
H233 C215 0.932 . S
C234 C235 1.386 . S
C234 C236 1.397 . S
C234 H258 0.931 . S
C235 C234 1.386 . S
C235 C239 1.397 . S
C236 C234 1.397 . S
C236 C237 1.384 . S
C236 H259 0.930 . S
C237 C236 1.384 . S
C237 C238 1.377 . S
C237 C240 1.481 . S
C238 C237 1.377 . S
C238 C239 1.389 . S
C238 H260 0.929 . S
C239 C235 1.397 . S
C239 C238 1.389 . S
C239 H261 0.931 . S
C240 C237 1.481 . S
C240 C241 1.387 . S
C240 C245 1.390 . S
C241 C240 1.387 . S
C241 C242 1.401 . S
C241 H262 0.930 . S
C242 C241 1.401 . S
C242 C243 1.376 . S
C242 C251 1.511 . S
C243 C242 1.376 . S
C243 C244 1.392 . S
C243 H264 0.931 . S
C244 C243 1.392 . S
C244 C245 1.361 . S
C244 C246 1.500 . S
C245 C240 1.390 . S
C245 C244 1.361 . S
C245 H263 0.931 . S
C246 C244 1.500 . S
C246 C247 1.371 . S
C246 C248 1.365 . S
C247 C246 1.371 . S
C247 C257 1.386 . S
C247 H265 0.931 . S
C248 C246 1.365 . S
C248 C249 1.409 . S
C248 H266 0.929 . S
C249 C248 1.409 . S
C249 C250 1.380 . S
C249 H267 0.930 . S
C250 C249 1.380 . S
C250 C257 1.357 . S
C251 C242 1.511 . S
C251 C252 1.341 . S
C251 C253 1.371 . S
C252 C251 1.341 . S
C252 C256 1.394 . S
C252 H268 0.930 . S
C253 C251 1.371 . S
C253 C254 1.392 . S
C253 H269 0.931 . S
C254 C253 1.392 . S
C254 C255 1.331 . S
C254 H272 0.932 . S
C255 C254 1.331 . S
C255 C256 1.336 . S
C256 C252 1.394 . S
C256 C255 1.336 . S
C256 H271 0.929 . S
C257 C247 1.386 . S
C257 C250 1.357 . S
C257 H270 0.928 . S
H258 C234 0.931 . S
H259 C236 0.930 . S
H260 C238 0.929 . S
H261 C239 0.931 . S
H262 C241 0.930 . S
H263 C245 0.931 . S
H264 C243 0.931 . S
H265 C247 0.931 . S
H266 C248 0.929 . S
H267 C249 0.930 . S
H268 C252 0.930 . S
H269 C253 0.931 . S
H270 C257 0.928 . S
H271 C256 0.929 . S
H272 C254 0.932 . S
C273 C274 1.386 . S
C273 C275 1.397 . S
C273 H297 0.931 . S
C274 C273 1.386 . S
C274 C278 1.397 . S
C275 C273 1.397 . S
C275 C276 1.384 . S
C275 H298 0.930 . S
C276 C275 1.384 . S
C276 C277 1.377 . S
C276 C279 1.481 . S
C277 C276 1.377 . S
C277 C278 1.389 . S
C277 H299 0.929 . S
C278 C274 1.397 . S
C278 C277 1.389 . S
C278 H300 0.931 . S
C279 C276 1.481 . S
C279 C280 1.387 . S
C279 C284 1.390 . S
C280 C279 1.387 . S
C280 C281 1.401 . S
C280 H301 0.930 . S
C281 C280 1.401 . S
C281 C282 1.376 . S
C281 C290 1.511 . S
C282 C281 1.376 . S
C282 C283 1.392 . S
C282 H303 0.931 . S
C283 C282 1.392 . S
C283 C284 1.361 . S
C283 C285 1.500 . S
C284 C279 1.390 . S
C284 C283 1.361 . S
C284 H302 0.931 . S
C285 C283 1.500 . S
C285 C286 1.371 . S
C285 C287 1.365 . S
C286 C285 1.371 . S
C286 C296 1.386 . S
C286 H304 0.931 . S
C287 C285 1.365 . S
C287 C288 1.409 . S
C287 H305 0.929 . S
C288 C287 1.409 . S
C288 C289 1.380 . S
C288 H306 0.930 . S
C289 C288 1.380 . S
C289 C296 1.357 . S
C290 C281 1.511 . S
C290 C291 1.341 . S
C290 C292 1.371 . S
C291 C290 1.341 . S
C291 C295 1.394 . S
C291 H307 0.930 . S
C292 C290 1.371 . S
C292 C293 1.392 . S
C292 H308 0.931 . S
C293 C292 1.392 . S
C293 C294 1.331 . S
C293 H311 0.932 . S
C294 C293 1.331 . S
C294 C295 1.336 . S
C295 C291 1.394 . S
C295 C294 1.336 . S
C295 H310 0.929 . S
C296 C286 1.386 . S
C296 C289 1.357 . S
C296 H309 0.928 . S
H297 C273 0.931 . S
H298 C275 0.930 . S
H299 C277 0.929 . S
H300 C278 0.931 . S
H301 C280 0.930 . S
H302 C284 0.931 . S
H303 C282 0.931 . S
H304 C286 0.931 . S
H305 C287 0.929 . S
H306 C288 0.930 . S
H307 C291 0.930 . S
H308 C292 0.931 . S
H309 C296 0.928 . S
H310 C295 0.929 . S
H311 C293 0.932 . S
O312 Zn313 1.953 . S
O312 C328 1.225 1_655 S
Zn313 O312 1.953 . S
Zn313 O314 1.949 1_655 S
Zn313 O320 1.919 . S
Zn313 O325 1.924 . S
O314 Zn313 1.949 1_455 S
O314 Zn315 1.923 1_445 S
O314 Zn316 1.950 . S
O314 Zn317 1.945 1_545 S
Zn315 O314 1.923 1_665 S
Zn315 O318 1.933 . S
Zn315 O321 1.941 1_565 S
Zn315 O322 1.965 1_665 S
Zn316 O314 1.950 . S
Zn316 O323 1.938 . S
Zn316 O324 1.906 . S
Zn316 O334 1.953 . S
Zn317 O314 1.945 1_565 S
Zn317 O319 1.932 1_455 S
Zn317 O326 1.977 . S
Zn317 O327 1.910 1_455 S
O318 Zn315 1.933 . S
O318 C329 1.226 . S
O319 Zn317 1.932 1_655 S
O319 C329 1.307 . S
O320 Zn313 1.919 . S
O320 C331 1.253 . S
O321 Zn315 1.941 1_545 S
O321 C331 1.283 . S
O322 Zn315 1.965 1_445 S
O322 C330 1.303 . S
O323 Zn316 1.938 . S
O323 C330 1.247 . S
O324 Zn316 1.906 . S
O324 C332 1.304 1_545 S
O325 Zn313 1.924 . S
O325 C333 1.311 . S
O326 Zn317 1.977 . S
O326 C332 1.272 . S
O327 Zn317 1.910 1_655 S
O327 C333 1.231 1_565 S
C328 O312 1.225 1_455 S
C328 O334 1.298 . S
C329 O318 1.226 . S
C329 O319 1.307 . S
C330 O322 1.303 . S
C330 O323 1.247 . S
C331 O320 1.253 . S
C331 O321 1.283 . S
C332 O324 1.304 1_565 S
C332 O326 1.272 . S
C333 O325 1.311 . S
C333 O327 1.231 1_545 S
O334 Zn316 1.953 . S
O334 C328 1.298 . S
O335 Zn336 1.953 . S
O335 C351 1.225 . S
Zn336 O335 1.953 . S
Zn336 O337 1.949 1_556 S
Zn336 O343 1.919 . S
Zn336 O348 1.924 1_556 S
O337 Zn336 1.949 1_554 S
O337 Zn338 1.923 1_545 S
O337 Zn339 1.950 . S
O337 Zn340 1.950 . S
Zn338 O337 1.923 1_565 S
Zn338 O341 1.933 . S
Zn338 O344 1.941 1_554 S
Zn338 O345 1.965 . S
Zn339 O337 1.950 . S
Zn339 O346 1.938 . S
Zn339 O347 1.906 . S
Zn339 O357 1.953 . S
Zn340 O337 1.950 . S
Zn340 O342 1.910 1_545 S
Zn340 O349 1.983 . S
Zn340 O350 1.923 . S
O341 Zn338 1.933 . S
O341 C352 1.226 . S
O342 Zn340 1.910 1_565 S
O342 C352 1.307 . S
O343 Zn336 1.919 . S
O343 C354 1.253 1_545 S
O344 Zn338 1.941 1_556 S
O344 C354 1.283 . S
O345 Zn338 1.965 . S
O345 C353 1.303 . S
O346 Zn339 1.938 . S
O346 C353 1.247 1_545 S
O347 Zn339 1.906 . S
O347 C355 1.304 . S
O348 Zn336 1.924 1_554 S
O348 C356 1.311 . S
O349 Zn340 1.983 . S
O349 C355 1.272 . S
O350 Zn340 1.923 . S
O350 C356 1.231 . S
C351 O335 1.225 . S
C351 O357 1.298 1_556 S
C352 O341 1.226 . S
C352 O342 1.307 . S
C353 O345 1.303 . S
C353 O346 1.247 1_565 S
C354 O343 1.253 1_565 S
C354 O344 1.283 . S
C355 O347 1.304 . S
C355 O349 1.272 . S
C356 O348 1.311 . S
C356 O350 1.231 . S
O357 Zn339 1.953 . S
O357 C351 1.298 1_554 S
O358 Zn359 1.953 . S
O358 C374 1.225 . S
Zn359 O358 1.953 . S
Zn359 O360 1.949 . S
Zn359 O366 1.919 . S
Zn359 O371 1.924 . S
O360 Zn359 1.949 . S
O360 Zn361 1.923 . S
O360 Zn362 1.950 . S
O360 Zn363 1.945 . S
Zn361 O360 1.923 . S
Zn361 O364 1.933 . S
Zn361 O367 1.941 . S
Zn361 O368 1.965 . S
Zn362 O360 1.950 . S
Zn362 O369 1.938 . S
Zn362 O370 1.906 . S
Zn362 O380 1.953 . S
Zn363 O360 1.945 . S
Zn363 O365 1.932 . S
Zn363 O372 1.977 . S
Zn363 O373 1.910 . S
O364 Zn361 1.933 . S
O364 C375 1.226 . S
O365 Zn363 1.932 . S
O365 C375 1.307 . S
O366 Zn359 1.919 . S
O366 C377 1.253 . S
O367 Zn361 1.941 . S
O367 C377 1.283 . S
O368 Zn361 1.965 . S
O368 C376 1.303 . S
O369 Zn362 1.938 . S
O369 C376 1.247 . S
O370 Zn362 1.906 . S
O370 C378 1.304 . S
O371 Zn359 1.924 . S
O371 C379 1.311 . S
O372 Zn363 1.977 . S
O372 C378 1.272 . S
O373 Zn363 1.910 . S
O373 C379 1.231 . S
C374 O358 1.225 . S
C374 O380 1.298 . S
C375 O364 1.226 . S
C375 O365 1.307 . S
C376 O368 1.303 . S
C376 O369 1.247 . S
C377 O366 1.253 . S
C377 O367 1.283 . S
C378 O370 1.304 . S
C378 O372 1.272 . S
C379 O371 1.311 . S
C379 O373 1.231 . S
O380 Zn362 1.953 . S
O380 C374 1.298 . S
O381 Zn382 1.953 . S
O381 C397 1.225 . S
Zn382 O381 1.953 . S
Zn382 O383 1.949 1_655 S
Zn382 O389 1.919 . S
Zn382 O394 1.924 . S
O383 Zn382 1.949 1_455 S
O383 Zn384 1.923 1_454 S
O383 Zn385 1.950 . S
O383 Zn386 1.945 1_554 S
Zn384 O383 1.923 1_656 S
Zn384 O387 1.933 1_655 S
Zn384 O390 1.941 . S
Zn384 O391 1.965 . S
Zn385 O383 1.950 . S
Zn385 O392 1.938 . S
Zn385 O393 1.906 . S
Zn385 O403 1.953 . S
Zn386 O383 1.945 1_556 S
Zn386 O388 1.932 . S
Zn386 O395 1.977 1_556 S
Zn386 O396 1.910 1_556 S
O387 Zn384 1.933 1_455 S
O387 C398 1.226 . S
O388 Zn386 1.932 . S
O388 C398 1.307 . S
O389 Zn382 1.919 . S
O389 C400 1.253 1_554 S
O390 Zn384 1.941 . S
O390 C400 1.283 . S
O391 Zn384 1.965 . S
O391 C399 1.303 . S
O392 Zn385 1.938 . S
O392 C399 1.247 1_454 S
O393 Zn385 1.906 . S
O393 C401 1.304 . S
O394 Zn382 1.924 . S
O394 C402 1.311 1_655 S
O395 Zn386 1.977 1_554 S
O395 C401 1.272 . S
O396 Zn386 1.910 1_554 S
O396 C402 1.231 . S
C397 O381 1.225 . S
C397 O403 1.298 1_655 S
C398 O387 1.226 . S
C398 O388 1.307 . S
C399 O391 1.303 . S
C399 O392 1.247 1_656 S
C400 O389 1.253 1_556 S
C400 O390 1.283 . S
C401 O393 1.304 . S
C401 O395 1.272 . S
C402 O394 1.311 1_455 S
C402 O396 1.231 . S
O403 Zn385 1.953 . S
O403 C397 1.298 1_455 S
C404 C405 1.349 . S
C404 C406 1.327 . S
C404 H429 0.950 . S
C405 C404 1.349 . S
C405 C421 1.349 . S
C406 C404 1.327 . S
C406 C425 1.429 . S
C406 H430 0.950 . S
C407 C424 1.574 . S
C407 C426 1.368 . S
C407 H431 0.949 . S
H408 C412 0.949 . S
C409 C410 1.349 . S
C409 C411 1.327 . S
C409 H432 0.950 . S
C410 C409 1.349 . S
C410 C422 1.349 . S
C411 C409 1.327 . S
C411 C427 1.429 . S
C411 H433 0.950 . S
C412 H408 0.949 . S
C412 C420 1.574 . S
C412 C428 1.368 . S
H413 C421 0.950 . S
H414 C419 0.950 . S
H415 C420 0.949 . S
H416 C422 0.950 . S
H417 C423 0.950 . S
H418 C424 0.949 . S
C419 H414 0.950 . S
C419 C421 1.327 . S
C419 C425 1.429 . S
C420 C412 1.574 . S
C420 H415 0.949 . S
C420 C426 1.368 . S
C421 C405 1.349 . S
C421 H413 0.950 . S
C421 C419 1.327 . S
C422 C410 1.349 . S
C422 H416 0.950 . S
C422 C423 1.327 . S
C423 H417 0.950 . S
C423 C422 1.327 . S
C423 C427 1.429 . S
C424 C407 1.574 . S
C424 H418 0.949 . S
C424 C428 1.368 . S
C425 C406 1.429 . S
C425 C419 1.429 . S
C425 C426 1.523 . S
C426 C407 1.368 . S
C426 C420 1.368 . S
C426 C425 1.523 . S
C427 C411 1.429 . S
C427 C423 1.429 . S
C427 C428 1.523 . S
C428 C412 1.368 . S
C428 C424 1.368 . S
C428 C427 1.523 . S
H429 C404 0.950 . S
H430 C406 0.950 . S
H431 C407 0.949 . S
H432 C409 0.950 . S
H433 C411 0.950 . S
C434 C435 1.349 . S
C434 C436 1.327 . S
C434 H459 0.950 . S
C435 C434 1.349 . S
C435 C451 1.349 . S
C436 C434 1.327 . S
C436 C455 1.429 . S
C436 H460 0.950 . S
C437 C454 1.574 . S
C437 C456 1.368 . S
C437 H461 0.949 . S
H438 C442 0.949 . S
C439 C440 1.349 . S
C439 C441 1.327 . S
C439 H462 0.950 . S
C440 C439 1.349 . S
C440 C452 1.349 . S
C441 C439 1.327 . S
C441 C457 1.429 . S
C441 H463 0.950 . S
C442 H438 0.949 . S
C442 C450 1.574 . S
C442 C458 1.368 . S
H443 C451 0.950 . S
H444 C449 0.950 . S
H445 C450 0.949 . S
H446 C452 0.950 . S
H447 C453 0.950 . S
H448 C454 0.949 . S
C449 H444 0.950 . S
C449 C451 1.327 . S
C449 C455 1.429 . S
C450 C442 1.574 . S
C450 H445 0.949 . S
C450 C456 1.368 . S
C451 C435 1.349 . S
C451 H443 0.950 . S
C451 C449 1.327 . S
C452 C440 1.349 . S
C452 H446 0.950 . S
C452 C453 1.327 . S
C453 H447 0.950 . S
C453 C452 1.327 . S
C453 C457 1.429 . S
C454 C437 1.574 . S
C454 H448 0.949 . S
C454 C458 1.368 . S
C455 C436 1.429 . S
C455 C449 1.429 . S
C455 C456 1.523 . S
C456 C437 1.368 . S
C456 C450 1.368 . S
C456 C455 1.523 . S
C457 C441 1.429 . S
C457 C453 1.429 . S
C457 C458 1.523 . S
C458 C442 1.368 . S
C458 C454 1.368 . S
C458 C457 1.523 . S
H459 C434 0.950 . S
H460 C436 0.950 . S
H461 C437 0.949 . S
H462 C439 0.950 . S
H463 C441 0.950 . S
C464 C465 1.349 . S
C464 C466 1.327 . S
C464 H489 0.950 . S
C465 C464 1.349 . S
C465 C481 1.349 . S
C466 C464 1.327 . S
C466 C485 1.429 . S
C466 H490 0.950 . S
C467 C484 1.574 . S
C467 C486 1.368 . S
C467 H491 0.949 . S
H468 C472 0.949 . S
C469 C470 1.349 . S
C469 C471 1.327 . S
C469 H492 0.950 . S
C470 C469 1.349 . S
C470 C482 1.349 . S
C471 C469 1.327 . S
C471 C487 1.429 . S
C471 H493 0.950 . S
C472 H468 0.949 . S
C472 C480 1.574 . S
C472 C488 1.368 . S
H473 C481 0.950 . S
H474 C479 0.950 . S
H475 C480 0.949 . S
H476 C482 0.950 . S
H477 C483 0.950 . S
H478 C484 0.949 . S
C479 H474 0.950 . S
C479 C481 1.327 . S
C479 C485 1.429 . S
C480 C472 1.574 . S
C480 H475 0.949 . S
C480 C486 1.368 . S
C481 C465 1.349 . S
C481 H473 0.950 . S
C481 C479 1.327 . S
C482 C470 1.349 . S
C482 H476 0.950 . S
C482 C483 1.327 . S
C483 H477 0.950 . S
C483 C482 1.327 . S
C483 C487 1.429 . S
C484 C467 1.574 . S
C484 H478 0.949 . S
C484 C488 1.368 . S
C485 C466 1.429 . S
C485 C479 1.429 . S
C485 C486 1.523 . S
C486 C467 1.368 . S
C486 C480 1.368 . S
C486 C485 1.523 . S
C487 C471 1.429 . S
C487 C483 1.429 . S
C487 C488 1.523 . S
C488 C472 1.368 . S
C488 C484 1.368 . S
C488 C487 1.523 . S
H489 C464 0.950 . S
H490 C466 0.950 . S
H491 C467 0.949 . S
H492 C469 0.950 . S
H493 C471 0.950 . S
C494 C495 1.349 . S
C494 C496 1.327 . S
C494 H519 0.950 . S
C495 C494 1.349 . S
C495 C511 1.349 . S
C496 C494 1.327 . S
C496 C515 1.429 . S
C496 H520 0.950 . S
C497 C514 1.574 . S
C497 C516 1.368 . S
C497 H521 0.949 . S
H498 C502 0.949 . S
C499 C500 1.349 . S
C499 C501 1.327 . S
C499 H522 0.950 1_655 S
C500 C499 1.349 . S
C500 C512 1.349 . S
C501 C499 1.327 . S
C501 C517 1.429 . S
C501 H523 0.950 . S
C502 H498 0.949 . S
C502 C510 1.574 . S
C502 C518 1.368 . S
H503 C511 0.950 . S
H504 C509 0.950 . S
H505 C510 0.949 . S
H506 C512 0.950 . S
H507 C513 0.950 . S
H508 C514 0.949 . S
C509 H504 0.950 . S
C509 C511 1.327 . S
C509 C515 1.429 . S
C510 C502 1.574 . S
C510 H505 0.949 . S
C510 C516 1.368 . S
C511 C495 1.349 . S
C511 H503 0.950 . S
C511 C509 1.327 . S
C512 C500 1.349 . S
C512 H506 0.950 . S
C512 C513 1.327 . S
C513 H507 0.950 . S
C513 C512 1.327 . S
C513 C517 1.429 . S
C514 C497 1.574 . S
C514 H508 0.949 . S
C514 C518 1.368 . S
C515 C496 1.429 . S
C515 C509 1.429 . S
C515 C516 1.523 . S
C516 C497 1.368 . S
C516 C510 1.368 . S
C516 C515 1.523 . S
C517 C501 1.429 . S
C517 C513 1.429 . S
C517 C518 1.523 . S
C518 C502 1.368 . S
C518 C514 1.368 . S
C518 C517 1.523 . S
H519 C494 0.950 . S
H520 C496 0.950 . S
H521 C497 0.949 . S
H522 C499 0.950 1_455 S
H523 C501 0.950 . S
C524 C525 1.349 . S
C524 C526 1.327 . S
C524 H549 0.950 . S
C525 C524 1.349 . S
C525 C541 1.349 . S
C526 C524 1.327 . S
C526 C545 1.429 . S
C526 H550 0.950 . S
C527 C544 1.574 . S
C527 C546 1.368 . S
C527 H551 0.949 . S
H528 C532 0.949 . S
C529 C530 1.349 . S
C529 C531 1.327 . S
C529 H552 0.950 . S
C530 C529 1.349 . S
C530 C542 1.349 . S
C531 C529 1.327 . S
C531 C547 1.429 . S
C531 H553 0.950 . S
C532 H528 0.949 . S
C532 C540 1.574 . S
C532 C548 1.368 . S
H533 C541 0.950 . S
H534 C539 0.950 . S
H535 C540 0.949 . S
H536 C542 0.950 . S
H537 C543 0.950 . S
H538 C544 0.949 . S
C539 H534 0.950 . S
C539 C541 1.327 . S
C539 C545 1.429 . S
C540 C532 1.574 . S
C540 H535 0.949 . S
C540 C546 1.368 . S
C541 C525 1.349 . S
C541 H533 0.950 . S
C541 C539 1.327 . S
C542 C530 1.349 . S
C542 H536 0.950 . S
C542 C543 1.327 . S
C543 H537 0.950 . S
C543 C542 1.327 . S
C543 C547 1.429 . S
C544 C527 1.574 . S
C544 H538 0.949 . S
C544 C548 1.368 . S
C545 C526 1.429 . S
C545 C539 1.429 . S
C545 C546 1.523 . S
C546 C527 1.368 . S
C546 C540 1.368 . S
C546 C545 1.523 . S
C547 C531 1.429 . S
C547 C543 1.429 . S
C547 C548 1.523 . S
C548 C532 1.368 . S
C548 C544 1.368 . S
C548 C547 1.523 . S
H549 C524 0.950 . S
H550 C526 0.950 . S
H551 C527 0.949 . S
H552 C529 0.950 . S
H553 C531 0.950 . S
C554 C555 1.349 . S
C554 C556 1.327 . S
C554 H579 0.950 . S
C555 C554 1.349 . S
C555 C571 1.349 . S
C556 C554 1.327 . S
C556 C575 1.429 . S
C556 H580 0.950 . S
C557 C574 1.574 . S
C557 C576 1.368 . S
C557 H581 0.949 . S
H558 C562 0.949 . S
C559 C560 1.349 . S
C559 C561 1.327 . S
C559 H582 0.950 . S
C560 C559 1.349 . S
C560 C572 1.349 . S
C561 C559 1.327 . S
C561 C577 1.429 . S
C561 H583 0.950 . S
C562 H558 0.949 . S
C562 C570 1.574 . S
C562 C578 1.368 . S
H563 C571 0.950 . S
H564 C569 0.950 . S
H565 C570 0.949 . S
H566 C572 0.950 . S
H567 C573 0.950 . S
H568 C574 0.949 . S
C569 H564 0.950 . S
C569 C571 1.327 . S
C569 C575 1.429 . S
C570 C562 1.574 . S
C570 H565 0.949 . S
C570 C576 1.368 . S
C571 C555 1.349 . S
C571 H563 0.950 . S
C571 C569 1.327 . S
C572 C560 1.349 . S
C572 H566 0.950 . S
C572 C573 1.327 . S
C573 H567 0.950 . S
C573 C572 1.327 . S
C573 C577 1.429 . S
C574 C557 1.574 . S
C574 H568 0.949 . S
C574 C578 1.368 . S
C575 C556 1.429 . S
C575 C569 1.429 . S
C575 C576 1.523 . S
C576 C557 1.368 . S
C576 C570 1.368 . S
C576 C575 1.523 . S
C577 C561 1.429 . S
C577 C573 1.429 . S
C577 C578 1.523 . S
C578 C562 1.368 . S
C578 C574 1.368 . S
C578 C577 1.523 . S
H579 C554 0.950 . S
H580 C556 0.950 . S
H581 C557 0.949 . S
H582 C559 0.950 . S
H583 C561 0.950 . S
C584 C585 1.349 . S
C584 C586 1.327 . S
C584 H609 0.950 . S
C585 C584 1.349 . S
C585 C601 1.349 . S
C586 C584 1.327 . S
C586 C605 1.429 . S
C586 H610 0.950 . S
C587 C604 1.574 . S
C587 C606 1.368 . S
C587 H611 0.949 . S
H588 C592 0.949 . S
C589 C590 1.349 . S
C589 C591 1.327 . S
C589 H612 0.950 . S
C590 C589 1.349 . S
C590 C602 1.349 . S
C591 C589 1.327 . S
C591 C607 1.429 . S
C591 H613 0.950 . S
C592 H588 0.949 . S
C592 C600 1.574 . S
C592 C608 1.368 . S
H593 C601 0.950 . S
H594 C599 0.950 . S
H595 C600 0.949 . S
H596 C602 0.950 1_554 S
H597 C603 0.950 . S
H598 C604 0.949 . S
C599 H594 0.950 . S
C599 C601 1.327 . S
C599 C605 1.429 . S
C600 C592 1.574 . S
C600 H595 0.949 . S
C600 C606 1.368 . S
C601 C585 1.349 . S
C601 H593 0.950 . S
C601 C599 1.327 . S
C602 C590 1.349 . S
C602 H596 0.950 1_556 S
C602 C603 1.327 . S
C603 H597 0.950 . S
C603 C602 1.327 . S
C603 C607 1.429 . S
C604 C587 1.574 . S
C604 H598 0.949 . S
C604 C608 1.368 . S
C605 C586 1.429 . S
C605 C599 1.429 . S
C605 C606 1.523 . S
C606 C587 1.368 . S
C606 C600 1.368 . S
C606 C605 1.523 . S
C607 C591 1.429 . S
C607 C603 1.429 . S
C607 C608 1.523 . S
C608 C592 1.368 . S
C608 C604 1.368 . S
C608 C607 1.523 . S
H609 C584 0.950 . S
H610 C586 0.950 . S
H611 C587 0.949 . S
H612 C589 0.950 . S
H613 C591 0.950 . S
C614 C615 1.349 . S
C614 C616 1.327 . S
C614 H639 0.950 . S
C615 C614 1.349 . S
C615 C631 1.349 . S
C616 C614 1.327 . S
C616 C635 1.429 . S
C616 H640 0.950 . S
C617 C634 1.574 . S
C617 C636 1.368 . S
C617 H641 0.949 . S
H618 C622 0.949 . S
C619 C620 1.349 . S
C619 C621 1.327 . S
C619 H642 0.950 . S
C620 C619 1.349 . S
C620 C632 1.349 . S
C621 C619 1.327 . S
C621 C637 1.429 . S
C621 H643 0.950 . S
C622 H618 0.949 . S
C622 C630 1.574 . S
C622 C638 1.368 . S
H623 C631 0.950 . S
H624 C629 0.950 . S
H625 C630 0.949 . S
H626 C632 0.950 . S
H627 C633 0.950 . S
H628 C634 0.949 . S
C629 H624 0.950 . S
C629 C631 1.327 . S
C629 C635 1.429 . S
C630 C622 1.574 . S
C630 H625 0.949 . S
C630 C636 1.368 . S
C631 C615 1.349 . S
C631 H623 0.950 . S
C631 C629 1.327 . S
C632 C620 1.349 . S
C632 H626 0.950 . S
C632 C633 1.327 . S
C633 H627 0.950 . S
C633 C632 1.327 . S
C633 C637 1.429 . S
C634 C617 1.574 . S
C634 H628 0.949 . S
C634 C638 1.368 . S
C635 C616 1.429 . S
C635 C629 1.429 . S
C635 C636 1.523 . S
C636 C617 1.368 . S
C636 C630 1.368 . S
C636 C635 1.523 . S
C637 C621 1.429 . S
C637 C633 1.429 . S
C637 C638 1.523 . S
C638 C622 1.368 . S
C638 C634 1.368 . S
C638 C637 1.523 . S
H639 C614 0.950 . S
H640 C616 0.950 . S
H641 C617 0.949 . S
H642 C619 0.950 . S
H643 C621 0.950 . S
C644 C645 1.349 . S
C644 C646 1.327 . S
C644 H669 0.950 . S
C645 C644 1.349 . S
C645 C661 1.349 . S
C646 C644 1.327 . S
C646 C665 1.429 . S
C646 H670 0.950 . S
C647 C664 1.574 . S
C647 C666 1.368 . S
C647 H671 0.949 . S
H648 C652 0.949 . S
C649 C650 1.349 . S
C649 C651 1.327 . S
C649 H672 0.950 . S
C650 C649 1.349 . S
C650 C662 1.349 . S
C651 C649 1.327 . S
C651 C667 1.429 . S
C651 H673 0.950 . S
C652 H648 0.949 . S
C652 C660 1.574 . S
C652 C668 1.368 . S
H653 C661 0.950 . S
H654 C659 0.950 . S
H655 C660 0.949 . S
H656 C662 0.950 . S
H657 C663 0.950 . S
H658 C664 0.949 . S
C659 H654 0.950 . S
C659 C661 1.327 . S
C659 C665 1.429 . S
C660 C652 1.574 . S
C660 H655 0.949 . S
C660 C666 1.368 . S
C661 C645 1.349 . S
C661 H653 0.950 . S
C661 C659 1.327 . S
C662 C650 1.349 . S
C662 H656 0.950 . S
C662 C663 1.327 . S
C663 H657 0.950 . S
C663 C662 1.327 . S
C663 C667 1.429 . S
C664 C647 1.574 . S
C664 H658 0.949 . S
C664 C668 1.368 . S
C665 C646 1.429 . S
C665 C659 1.429 . S
C665 C666 1.523 . S
C666 C647 1.368 . S
C666 C660 1.368 . S
C666 C665 1.523 . S
C667 C651 1.429 . S
C667 C663 1.429 . S
C667 C668 1.523 . S
C668 C652 1.368 . S
C668 C664 1.368 . S
C668 C667 1.523 . S
H669 C644 0.950 . S
H670 C646 0.950 . S
H671 C647 0.949 . S
H672 C649 0.950 . S
H673 C651 0.950 . S
C674 C675 1.349 . S
C674 C676 1.327 . S
C674 H699 0.950 . S
C675 C674 1.349 . S
C675 C691 1.349 . S
C676 C674 1.327 . S
C676 C695 1.429 . S
C676 H700 0.950 . S
C677 C694 1.574 . S
C677 C696 1.368 . S
C677 H701 0.949 . S
H678 C682 0.986 . S
C679 C680 1.349 . S
C679 C681 1.327 . S
C679 H702 0.950 . S
C680 C679 1.349 . S
C680 C692 1.349 1_556 S
C681 C679 1.327 . S
C681 C697 1.429 . S
C681 H703 0.950 . S
C682 H678 0.986 . S
C682 C690 1.574 . S
C682 C698 1.368 . S
H683 C691 0.950 . S
H684 C689 0.950 . S
H685 C690 0.949 . S
H686 C692 0.950 . S
H687 C693 0.950 1_554 S
H688 C694 0.949 . S
C689 H684 0.950 . S
C689 C691 1.327 . S
C689 C695 1.429 . S
C690 C682 1.574 . S
C690 H685 0.949 . S
C690 C696 1.368 . S
C691 C675 1.349 . S
C691 H683 0.950 . S
C691 C689 1.327 . S
C692 C680 1.349 1_554 S
C692 H686 0.950 . S
C692 C693 1.327 1_554 S
C693 H687 0.950 1_556 S
C693 C692 1.327 1_556 S
C693 C697 1.429 . S
C694 C677 1.574 . S
C694 H688 0.949 . S
C694 C698 1.368 . S
C695 C676 1.429 . S
C695 C689 1.429 . S
C695 C696 1.523 . S
C696 C677 1.368 . S
C696 C690 1.368 . S
C696 C695 1.523 . S
C697 C681 1.429 . S
C697 C693 1.429 . S
C697 C698 1.523 . S
C698 C682 1.368 . S
C698 C694 1.368 . S
C698 C697 1.523 . S
H699 C674 0.950 . S
H700 C676 0.950 . S
H701 C677 0.949 . S
H702 C679 0.950 . S
H703 C681 0.950 . S
C704 C705 1.349 . S
C704 C706 1.327 . S
C704 H729 0.950 . S
C705 C704 1.349 . S
C705 C721 1.349 . S
C706 C704 1.327 . S
C706 C725 1.429 . S
C706 H730 0.950 . S
C707 C724 1.574 . S
C707 C726 1.368 . S
C707 H731 0.949 . S
H708 C712 0.949 . S
C709 C710 1.349 . S
C709 C711 1.327 . S
C709 H732 0.950 . S
C710 C709 1.349 . S
C710 C722 1.349 . S
C711 C709 1.327 . S
C711 C727 1.429 . S
C711 H733 0.950 . S
C712 H708 0.949 . S
C712 C720 1.574 . S
C712 C728 1.368 . S
H713 C721 0.950 . S
H714 C719 0.950 . S
H715 C720 0.949 . S
H716 C722 0.950 . S
H717 C723 0.950 . S
H718 C724 0.949 . S
C719 H714 0.950 . S
C719 C721 1.327 . S
C719 C725 1.429 . S
C720 C712 1.574 . S
C720 H715 0.949 . S
C720 C726 1.368 . S
C721 C705 1.349 . S
C721 H713 0.950 . S
C721 C719 1.327 . S
C722 C710 1.349 . S
C722 H716 0.950 . S
C722 C723 1.327 . S
C723 H717 0.950 . S
C723 C722 1.327 . S
C723 C727 1.429 . S
C724 C707 1.574 . S
C724 H718 0.949 . S
C724 C728 1.368 . S
C725 C706 1.429 . S
C725 C719 1.429 . S
C725 C726 1.523 . S
C726 C707 1.368 . S
C726 C720 1.368 . S
C726 C725 1.523 . S
C727 C711 1.429 . S
C727 C723 1.429 . S
C727 C728 1.523 . S
C728 C712 1.368 . S
C728 C724 1.368 . S
C728 C727 1.523 . S
H729 C704 0.950 . S
H730 C706 0.950 . S
H731 C707 0.949 . S
H732 C709 0.950 . S
H733 C711 0.950 . S
C734 C735 1.349 . S
C734 C736 1.327 . S
C734 H759 0.950 . S
C735 C734 1.349 . S
C735 C751 1.349 . S
C736 C734 1.327 . S
C736 C755 1.429 . S
C736 H760 0.950 . S
C737 C754 1.574 . S
C737 C756 1.368 . S
C737 H761 0.949 . S
H738 C742 0.949 . S
C739 C740 1.349 . S
C739 C741 1.327 . S
C739 H762 0.950 . S
C740 C739 1.349 . S
C740 C752 1.349 . S
C741 C739 1.327 . S
C741 C757 1.429 . S
C741 H763 0.950 . S
C742 H738 0.949 . S
C742 C750 1.574 . S
C742 C758 1.368 . S
H743 C751 0.950 . S
H744 C749 0.950 . S
H745 C750 0.949 . S
H746 C752 0.950 . S
H747 C753 0.950 . S
H748 C754 0.949 . S
C749 H744 0.950 . S
C749 C751 1.327 . S
C749 C755 1.429 . S
C750 C742 1.574 . S
C750 H745 0.949 . S
C750 C756 1.368 . S
C751 C735 1.349 . S
C751 H743 0.950 . S
C751 C749 1.327 . S
C752 C740 1.349 . S
C752 H746 0.950 . S
C752 C753 1.327 . S
C753 H747 0.950 . S
C753 C752 1.327 . S
C753 C757 1.429 . S
C754 C737 1.574 . S
C754 H748 0.949 . S
C754 C758 1.368 . S
C755 C736 1.429 . S
C755 C749 1.429 . S
C755 C756 1.523 . S
C756 C737 1.368 . S
C756 C750 1.368 . S
C756 C755 1.523 . S
C757 C741 1.429 . S
C757 C753 1.429 . S
C757 C758 1.523 . S
C758 C742 1.368 . S
C758 C754 1.368 . S
C758 C757 1.523 . S
H759 C734 0.950 . S
H760 C736 0.950 . S
H761 C737 0.949 . S
H762 C739 0.950 . S
H763 C741 0.950 . S
C764 C765 1.349 . S
C764 C766 1.327 . S
C764 H789 0.950 . S
C765 C764 1.349 . S
C765 C781 1.349 . S
C766 C764 1.327 . S
C766 C785 1.429 . S
C766 H790 0.950 . S
C767 C784 1.574 . S
C767 C786 1.368 1_545 S
C767 H791 0.949 . S
H768 C772 0.949 . S
C769 C770 1.349 . S
C769 C771 1.327 . S
C769 H792 0.950 1_655 S
C770 C769 1.349 . S
C770 C782 1.349 1_545 S
C771 C769 1.327 . S
C771 C787 1.429 1_545 S
C771 H793 0.950 . S
C772 H768 0.949 . S
C772 C780 1.574 . S
C772 C788 1.368 . S
H773 C781 0.950 1_545 S
H774 C779 0.922 1_545 S
H775 C780 0.949 . S
H776 C782 0.950 . S
H777 C783 0.950 . S
H778 C784 0.949 . S
C779 H774 0.922 1_565 S
C779 C781 1.333 . S
C779 C785 1.451 . S
C780 C772 1.574 . S
C780 H775 0.949 . S
C780 C786 1.368 . S
C781 C765 1.349 . S
C781 H773 0.950 1_565 S
C781 C779 1.333 . S
C782 C770 1.349 1_565 S
C782 H776 0.950 . S
C782 C783 1.327 . S
C783 H777 0.950 . S
C783 C782 1.327 . S
C783 C787 1.429 . S
C784 C767 1.574 . S
C784 H778 0.949 . S
C784 C788 1.368 1_545 S
C785 C766 1.429 . S
C785 C779 1.451 . S
C785 C786 1.523 . S
C786 C767 1.368 1_565 S
C786 C780 1.368 . S
C786 C785 1.523 . S
C787 C771 1.429 1_565 S
C787 C783 1.429 . S
C787 C788 1.523 . S
C788 C772 1.368 . S
C788 C784 1.368 1_565 S
C788 C787 1.523 . S
H789 C764 0.950 . S
H790 C766 0.950 . S
H791 C767 0.949 . S
H792 C769 0.950 1_455 S
H793 C771 0.950 . S
C794 C795 1.349 . S
C794 C796 1.327 . S
C794 H819 0.950 . S
C795 C794 1.349 . S
C795 C811 1.349 . S
C796 C794 1.327 . S
C796 C815 1.429 . S
C796 H820 0.950 . S
C797 C814 1.574 . S
C797 C816 1.368 . S
C797 H821 0.949 . S
H798 C802 0.949 1_565 S
C799 C800 1.349 . S
C799 C801 1.327 . S
C799 H822 0.950 . S
C800 C799 1.349 . S
C800 C812 1.363 . S
C801 C799 1.327 . S
C801 C817 1.429 . S
C801 H823 0.950 . S
C802 H798 0.949 1_545 S
C802 C810 1.574 . S
C802 C818 1.368 . S
H803 C811 0.950 . S
H804 C809 0.950 . S
H805 C810 0.949 . S
H806 C812 0.933 1_565 S
H807 C813 0.950 1_565 S
H808 C814 0.949 . S
C809 H804 0.950 . S
C809 C811 1.327 . S
C809 C815 1.429 . S
C810 C802 1.574 . S
C810 H805 0.949 . S
C810 C816 1.368 . S
C811 C795 1.349 . S
C811 H803 0.950 . S
C811 C809 1.327 . S
C812 C800 1.363 . S
C812 H806 0.933 1_545 S
C812 C813 1.330 . S
C813 H807 0.950 1_545 S
C813 C812 1.330 . S
C813 C817 1.429 . S
C814 C797 1.574 . S
C814 H808 0.949 . S
C814 C818 1.368 . S
C815 C796 1.429 . S
C815 C809 1.429 . S
C815 C816 1.523 . S
C816 C797 1.368 . S
C816 C810 1.368 . S
C816 C815 1.523 . S
C817 C801 1.429 . S
C817 C813 1.429 . S
C817 C818 1.523 . S
C818 C802 1.368 . S
C818 C814 1.368 . S
C818 C817 1.523 . S
H819 C794 0.950 . S
H820 C796 0.950 . S
H821 C797 0.949 . S
H822 C799 0.950 . S
H823 C801 0.950 . S
C824 C825 1.349 . S
C824 C826 1.327 . S
C824 H849 0.950 . S
C825 C824 1.349 . S
C825 C841 1.349 . S
C826 C824 1.327 . S
C826 C845 1.429 . S
C826 H850 0.950 . S
C827 C844 1.574 . S
C827 C846 1.368 . S
C827 H851 0.949 . S
H828 C832 0.949 . S
C829 C830 1.349 . S
C829 C831 1.327 . S
C829 H852 0.950 . S
C830 C829 1.349 . S
C830 C842 1.349 . S
C831 C829 1.327 . S
C831 C847 1.429 . S
C831 H853 0.950 . S
C832 H828 0.949 . S
C832 C840 1.574 . S
C832 C848 1.368 . S
H833 C841 0.950 . S
H834 C839 0.950 . S
H835 C840 0.949 . S
H836 C842 0.950 . S
H837 C843 0.950 . S
H838 C844 0.949 . S
C839 H834 0.950 . S
C839 C841 1.327 . S
C839 C845 1.429 . S
C840 C832 1.574 . S
C840 H835 0.949 . S
C840 C846 1.368 . S
C841 C825 1.349 . S
C841 H833 0.950 . S
C841 C839 1.327 . S
C842 C830 1.349 . S
C842 H836 0.950 . S
C842 C843 1.327 . S
C843 H837 0.950 . S
C843 C842 1.327 . S
C843 C847 1.429 . S
C844 C827 1.574 . S
C844 H838 0.949 . S
C844 C848 1.368 . S
C845 C826 1.429 . S
C845 C839 1.429 . S
C845 C846 1.523 . S
C846 C827 1.368 . S
C846 C840 1.368 . S
C846 C845 1.523 . S
C847 C831 1.429 . S
C847 C843 1.429 . S
C847 C848 1.523 . S
C848 C832 1.368 . S
C848 C844 1.368 . S
C848 C847 1.523 . S
H849 C824 0.950 . S
H850 C826 0.950 . S
H851 C827 0.949 . S
H852 C829 0.950 . S
H853 C831 0.950 . S
C854 C855 1.349 . S
C854 C856 1.327 . S
C854 H879 0.950 . S
C855 C854 1.349 . S
C855 C871 1.349 . S
C856 C854 1.327 . S
C856 C875 1.429 . S
C856 H880 0.950 . S
C857 C874 1.574 . S
C857 C876 1.368 . S
C857 H881 0.949 . S
H858 C862 0.949 . S
C859 C860 1.349 . S
C859 C861 1.327 . S
C859 H882 0.950 . S
C860 C859 1.349 . S
C860 C872 1.349 . S
C861 C859 1.327 . S
C861 C877 1.429 . S
C861 H883 0.950 . S
C862 H858 0.949 . S
C862 C870 1.574 . S
C862 C878 1.368 . S
H863 C871 0.950 . S
H864 C869 0.950 . S
H865 C870 0.949 . S
H866 C872 0.950 . S
H867 C873 0.950 . S
H868 C874 0.949 . S
C869 H864 0.950 . S
C869 C871 1.327 . S
C869 C875 1.429 . S
C870 C862 1.574 . S
C870 H865 0.949 . S
C870 C876 1.368 . S
C871 C855 1.349 . S
C871 H863 0.950 . S
C871 C869 1.327 . S
C872 C860 1.349 . S
C872 H866 0.950 . S
C872 C873 1.327 . S
C873 H867 0.950 . S
C873 C872 1.327 . S
C873 C877 1.429 . S
C874 C857 1.574 . S
C874 H868 0.949 . S
C874 C878 1.368 . S
C875 C856 1.429 . S
C875 C869 1.429 . S
C875 C876 1.523 . S
C876 C857 1.368 . S
C876 C870 1.368 . S
C876 C875 1.523 . S
C877 C861 1.429 . S
C877 C873 1.429 . S
C877 C878 1.523 . S
C878 C862 1.368 . S
C878 C874 1.368 . S
C878 C877 1.523 . S
H879 C854 0.950 . S
H880 C856 0.950 . S
H881 C857 0.949 . S
H882 C859 0.950 . S
H883 C861 0.950 . S
C884 C885 1.349 . S
C884 C886 1.327 . S
C884 H909 0.950 1_565 S
C885 C884 1.349 . S
C885 C901 1.349 . S
C886 C884 1.327 . S
C886 C905 1.429 . S
C886 H910 0.950 1_565 S
C887 C904 1.574 . S
C887 C906 1.368 . S
C887 H911 0.949 . S
H888 C892 0.949 1_554 S
C889 C890 1.349 . S
C889 C891 1.327 . S
C889 H912 0.950 . S
C890 C889 1.349 . S
C890 C902 1.349 1_566 S
C891 C889 1.327 . S
C891 C907 1.429 . S
C891 H913 0.950 . S
C892 H888 0.949 1_556 S
C892 C900 1.574 . S
C892 C908 1.368 1_545 S
H893 C901 0.950 . S
H894 C899 0.950 . S
H895 C900 0.949 . S
H896 C902 0.950 . S
H897 C903 0.950 . S
H898 C904 0.949 . S
C899 H894 0.950 . S
C899 C901 1.327 . S
C899 C905 1.429 . S
C900 C892 1.574 . S
C900 H895 0.949 . S
C900 C906 1.368 1_545 S
C901 C885 1.349 . S
C901 H893 0.950 . S
C901 C899 1.327 . S
C902 C890 1.349 1_544 S
C902 H896 0.950 . S
C902 C903 1.327 . S
C903 H897 0.950 . S
C903 C902 1.327 . S
C903 C907 1.428 1_544 S
C904 C887 1.574 . S
C904 H898 0.949 . S
C904 C908 1.368 . S
C905 C886 1.429 . S
C905 C899 1.429 . S
C905 C906 1.523 . S
C906 C887 1.368 . S
C906 C900 1.368 1_565 S
C906 C905 1.523 . S
C907 C891 1.429 . S
C907 C903 1.428 1_566 S
C907 C908 1.523 . S
C908 C892 1.368 1_565 S
C908 C904 1.368 . S
C908 C907 1.523 . S
H909 C884 0.950 1_545 S
H910 C886 0.950 1_545 S
H911 C887 0.949 . S
H912 C889 0.950 . S
H913 C891 0.950 . S
C914 C915 1.349 . S
C914 C916 1.327 . S
C914 H939 0.950 . S
C915 C914 1.349 . S
C915 C931 1.349 . S
C916 C914 1.327 . S
C916 C935 1.429 . S
C916 H940 0.950 . S
C917 C934 1.574 . S
C917 C936 1.368 . S
C917 H941 0.949 . S
H918 C922 0.949 . S
C919 C920 1.349 . S
C919 C921 1.327 . S
C919 H942 0.950 . S
C920 C919 1.349 . S
C920 C932 1.349 . S
C921 C919 1.327 . S
C921 C937 1.429 . S
C921 H943 0.950 . S
C922 H918 0.949 . S
C922 C930 1.574 . S
C922 C938 1.368 . S
H923 C931 0.950 . S
H924 C929 0.950 . S
H925 C930 0.949 . S
H926 C932 0.948 . S
H927 C933 0.950 . S
H928 C934 0.949 . S
C929 H924 0.950 . S
C929 C931 1.327 . S
C929 C935 1.429 . S
C930 C922 1.574 . S
C930 H925 0.949 . S
C930 C936 1.368 . S
C931 C915 1.349 . S
C931 H923 0.950 . S
C931 C929 1.327 . S
C932 C920 1.349 . S
C932 H926 0.948 . S
C932 C933 1.327 . S
C933 H927 0.950 . S
C933 C932 1.327 . S
C933 C937 1.429 . S
C934 C917 1.574 . S
C934 H928 0.949 . S
C934 C938 1.368 . S
C935 C916 1.429 . S
C935 C929 1.429 . S
C935 C936 1.523 . S
C936 C917 1.368 . S
C936 C930 1.368 . S
C936 C935 1.523 . S
C937 C921 1.429 . S
C937 C933 1.429 . S
C937 C938 1.523 . S
C938 C922 1.368 . S
C938 C934 1.368 . S
C938 C937 1.523 . S
H939 C914 0.950 . S
H940 C916 0.950 . S
H941 C917 0.949 . S
H942 C919 0.950 . S
H943 C921 0.950 . S
C944 C945 1.349 . S
C944 C946 1.327 . S
C944 H969 0.950 . S
C945 C944 1.349 . S
C945 C961 1.349 . S
C946 C944 1.327 . S
C946 C965 1.429 . S
C946 H970 0.950 . S
C947 C964 1.574 . S
C947 C966 1.368 . S
C947 H971 0.949 . S
H948 C952 0.949 . S
C949 C950 1.349 . S
C949 C951 1.327 . S
C949 H972 0.950 . S
C950 C949 1.349 . S
C950 C962 1.349 1_554 S
C951 C949 1.327 . S
C951 C967 1.429 . S
C951 H973 0.950 . S
C952 H948 0.949 . S
C952 C960 1.574 . S
C952 C968 1.368 . S
H953 C961 0.950 . S
H954 C959 0.950 . S
H955 C960 0.949 . S
H956 C962 0.950 . S
H957 C963 0.950 1_556 S
H958 C964 0.949 . S
C959 H954 0.950 . S
C959 C961 1.327 . S
C959 C965 1.429 . S
C960 C952 1.574 . S
C960 H955 0.949 . S
C960 C966 1.368 . S
C961 C945 1.349 . S
C961 H953 0.950 . S
C961 C959 1.327 . S
C962 C950 1.349 1_556 S
C962 H956 0.950 . S
C962 C963 1.327 1_556 S
C963 H957 0.950 1_554 S
C963 C962 1.327 1_554 S
C963 C967 1.429 . S
C964 C947 1.574 . S
C964 H958 0.949 . S
C964 C968 1.368 . S
C965 C946 1.429 . S
C965 C959 1.429 . S
C965 C966 1.523 . S
C966 C947 1.368 . S
C966 C960 1.368 . S
C966 C965 1.523 . S
C967 C951 1.429 . S
C967 C963 1.429 . S
C967 C968 1.523 . S
C968 C952 1.368 . S
C968 C964 1.368 . S
C968 C967 1.523 . S
H969 C944 0.950 . S
H970 C946 0.950 . S
H971 C947 0.949 . S
H972 C949 0.950 . S
H973 C951 0.950 . S
C974 C975 1.349 . S
C974 C976 1.327 . S
C974 H999 0.950 . S
C975 C974 1.349 . S
C975 C991 1.349 . S
C976 C974 1.327 . S
C976 C995 1.429 . S
C976 H1000 0.950 . S
C977 C994 1.574 . S
C977 C996 1.368 . S
C977 H1001 0.949 . S
H978 C982 0.949 . S
C979 C980 1.349 . S
C979 C981 1.327 . S
C979 H1002 0.950 . S
C980 C979 1.349 . S
C980 C992 1.349 . S
C981 C979 1.327 . S
C981 C997 1.429 . S
C981 H1003 0.950 . S
C982 H978 0.949 . S
C982 C990 1.574 . S
C982 C998 1.368 . S
H983 C991 0.950 . S
H984 C989 0.950 . S
H985 C990 0.949 . S
H986 C992 0.950 . S
H987 C993 0.950 . S
H988 C994 0.949 . S
C989 H984 0.950 . S
C989 C991 1.327 . S
C989 C995 1.429 . S
C990 C982 1.574 . S
C990 H985 0.949 . S
C990 C996 1.368 . S
C991 C975 1.349 . S
C991 H983 0.950 . S
C991 C989 1.327 . S
C992 C980 1.349 . S
C992 H986 0.950 . S
C992 C993 1.327 . S
C993 H987 0.950 . S
C993 C992 1.327 . S
C993 C997 1.429 . S
C994 C977 1.574 . S
C994 H988 0.949 . S
C994 C998 1.368 . S
C995 C976 1.429 . S
C995 C989 1.429 . S
C995 C996 1.523 . S
C996 C977 1.368 . S
C996 C990 1.368 . S
C996 C995 1.523 . S
C997 C981 1.429 . S
C997 C993 1.429 . S
C997 C998 1.523 . S
C998 C982 1.368 . S
C998 C994 1.368 . S
C998 C997 1.523 . S
H999 C974 0.950 . S
H1000 C976 0.950 . S
H1001 C977 0.949 . S
H1002 C979 0.950 . S
H1003 C981 0.950 . S
C1004 C1005 1.349 . S
C1004 C1006 1.327 . S
C1004 H1029 0.950 . S
C1005 C1004 1.349 . S
C1005 C1021 1.349 . S
C1006 C1004 1.327 . S
C1006 C1025 1.429 . S
C1006 H1030 0.950 . S
C1007 C1024 1.574 . S
C1007 C1026 1.368 . S
C1007 H1031 0.949 1_556 S
H1008 C1012 0.949 . S
C1009 C1010 1.349 1_554 S
C1009 C1011 1.327 . S
C1009 H1032 0.950 . S
C1010 C1009 1.349 1_556 S
C1010 C1022 1.349 . S
C1011 C1009 1.327 . S
C1011 C1027 1.429 1_554 S
C1011 H1033 0.950 . S
C1012 H1008 0.949 . S
C1012 C1020 1.574 . S
C1012 C1028 1.368 . S
H1013 C1021 0.950 . S
H1014 C1019 0.976 . S
H1015 C1020 0.949 . S
H1016 C1022 0.963 . S
H1017 C1023 0.950 . S
H1018 C1024 0.949 1_554 S
C1019 H1014 0.976 . S
C1019 C1021 1.327 . S
C1019 C1025 1.429 . S
C1020 C1012 1.574 . S
C1020 H1015 0.949 . S
C1020 C1026 1.368 . S
C1021 C1005 1.349 . S
C1021 H1013 0.950 . S
C1021 C1019 1.327 . S
C1022 C1010 1.349 . S
C1022 H1016 0.963 . S
C1022 C1023 1.327 . S
C1023 H1017 0.950 . S
C1023 C1022 1.327 . S
C1023 C1027 1.429 . S
C1024 C1007 1.574 . S
C1024 H1018 0.949 1_556 S
C1024 C1028 1.368 . S
C1025 C1006 1.429 . S
C1025 C1019 1.429 . S
C1025 C1026 1.523 . S
C1026 C1007 1.368 . S
C1026 C1020 1.368 . S
C1026 C1025 1.523 . S
C1027 C1011 1.429 1_556 S
C1027 C1023 1.429 . S
C1027 C1028 1.523 . S
C1028 C1012 1.368 . S
C1028 C1024 1.368 . S
C1028 C1027 1.523 . S
H1029 C1004 0.950 . S
H1030 C1006 0.950 . S
H1031 C1007 0.949 1_554 S
H1032 C1009 0.950 . S
H1033 C1011 0.950 . S
C1034 C1035 1.349 . S
C1034 C1036 1.327 . S
C1034 H1059 0.950 . S
C1035 C1034 1.349 . S
C1035 C1051 1.349 . S
C1036 C1034 1.327 . S
C1036 C1055 1.429 . S
C1036 H1060 0.950 . S
C1037 C1054 1.574 . S
C1037 C1056 1.368 . S
C1037 H1061 0.949 . S
H1038 C1042 0.949 . S
C1039 C1040 1.349 . S
C1039 C1041 1.327 . S
C1039 H1062 0.950 . S
C1040 C1039 1.349 . S
C1040 C1052 1.349 . S
C1041 C1039 1.327 . S
C1041 C1057 1.429 . S
C1041 H1063 0.950 . S
C1042 H1038 0.949 . S
C1042 C1050 1.574 . S
C1042 C1058 1.368 . S
H1043 C1051 0.950 . S
H1044 C1049 0.950 . S
H1045 C1050 0.949 . S
H1046 C1052 0.950 . S
H1047 C1053 0.950 . S
H1048 C1054 0.949 . S
C1049 H1044 0.950 . S
C1049 C1051 1.327 . S
C1049 C1055 1.429 . S
C1050 C1042 1.574 . S
C1050 H1045 0.949 . S
C1050 C1056 1.368 . S
C1051 C1035 1.349 . S
C1051 H1043 0.950 . S
C1051 C1049 1.327 . S
C1052 C1040 1.349 . S
C1052 H1046 0.950 . S
C1052 C1053 1.327 . S
C1053 H1047 0.950 . S
C1053 C1052 1.327 . S
C1053 C1057 1.429 . S
C1054 C1037 1.574 . S
C1054 H1048 0.949 . S
C1054 C1058 1.368 . S
C1055 C1036 1.429 . S
C1055 C1049 1.429 . S
C1055 C1056 1.523 . S
C1056 C1037 1.368 . S
C1056 C1050 1.368 . S
C1056 C1055 1.523 . S
C1057 C1041 1.429 . S
C1057 C1053 1.429 . S
C1057 C1058 1.523 . S
C1058 C1042 1.368 . S
C1058 C1054 1.368 . S
C1058 C1057 1.523 . S
H1059 C1034 0.950 . S
H1060 C1036 0.950 . S
H1061 C1037 0.949 . S
H1062 C1039 0.950 . S
H1063 C1041 0.950 . S
C1064 C1065 1.349 . S
C1064 C1066 1.327 . S
C1064 H1089 0.950 . S
C1065 C1064 1.349 . S
C1065 C1081 1.349 . S
C1066 C1064 1.327 . S
C1066 C1085 1.429 . S
C1066 H1090 0.950 . S
C1067 C1084 1.574 . S
C1067 C1086 1.368 . S
C1067 H1091 0.949 . S
H1068 C1072 0.949 . S
C1069 C1070 1.349 . S
C1069 C1071 1.327 . S
C1069 H1092 0.950 . S
C1070 C1069 1.349 . S
C1070 C1082 1.349 . S
C1071 C1069 1.327 . S
C1071 C1087 1.429 . S
C1071 H1093 0.950 . S
C1072 H1068 0.949 . S
C1072 C1080 1.574 . S
C1072 C1088 1.368 . S
H1073 C1081 0.950 . S
H1074 C1079 0.950 . S
H1075 C1080 0.949 . S
H1076 C1082 0.950 . S
H1077 C1083 0.950 . S
H1078 C1084 0.949 . S
C1079 H1074 0.950 . S
C1079 C1081 1.327 . S
C1079 C1085 1.429 . S
C1080 C1072 1.574 . S
C1080 H1075 0.949 . S
C1080 C1086 1.368 . S
C1081 C1065 1.349 . S
C1081 H1073 0.950 . S
C1081 C1079 1.327 . S
C1082 C1070 1.349 . S
C1082 H1076 0.950 . S
C1082 C1083 1.327 . S
C1083 H1077 0.950 . S
C1083 C1082 1.327 . S
C1083 C1087 1.429 . S
C1084 C1067 1.574 . S
C1084 H1078 0.949 . S
C1084 C1088 1.368 . S
C1085 C1066 1.429 . S
C1085 C1079 1.429 . S
C1085 C1086 1.523 . S
C1086 C1067 1.368 . S
C1086 C1080 1.368 . S
C1086 C1085 1.523 . S
C1087 C1071 1.429 . S
C1087 C1083 1.429 . S
C1087 C1088 1.523 . S
C1088 C1072 1.368 . S
C1088 C1084 1.368 . S
C1088 C1087 1.523 . S
H1089 C1064 0.950 . S
H1090 C1066 0.950 . S
H1091 C1067 0.949 . S
H1092 C1069 0.950 . S
H1093 C1071 0.950 . S
C1094 C1095 1.349 . S
C1094 C1096 1.327 . S
C1094 H1119 0.950 . S
C1095 C1094 1.349 . S
C1095 C1111 1.349 . S
C1096 C1094 1.327 . S
C1096 C1115 1.429 . S
C1096 H1120 0.950 . S
C1097 C1114 1.574 . S
C1097 C1116 1.368 . S
C1097 H1121 0.949 . S
H1098 C1102 0.949 . S
C1099 C1100 1.349 . S
C1099 C1101 1.327 . S
C1099 H1122 0.950 . S
C1100 C1099 1.349 . S
C1100 C1112 1.349 . S
C1101 C1099 1.327 . S
C1101 C1117 1.429 . S
C1101 H1123 0.950 . S
C1102 H1098 0.949 . S
C1102 C1110 1.574 . S
C1102 C1118 1.368 . S
H1103 C1111 0.950 . S
H1104 C1109 0.950 . S
H1105 C1110 0.949 . S
H1106 C1112 0.950 . S
H1107 C1113 0.950 . S
H1108 C1114 0.949 . S
C1109 H1104 0.950 . S
C1109 C1111 1.327 . S
C1109 C1115 1.429 . S
C1110 C1102 1.574 . S
C1110 H1105 0.949 . S
C1110 C1116 1.368 . S
C1111 C1095 1.349 . S
C1111 H1103 0.950 . S
C1111 C1109 1.327 . S
C1112 C1100 1.349 . S
C1112 H1106 0.950 . S
C1112 C1113 1.327 . S
C1113 H1107 0.950 . S
C1113 C1112 1.327 . S
C1113 C1117 1.429 . S
C1114 C1097 1.574 . S
C1114 H1108 0.949 . S
C1114 C1118 1.368 . S
C1115 C1096 1.429 . S
C1115 C1109 1.429 . S
C1115 C1116 1.523 . S
C1116 C1097 1.368 . S
C1116 C1110 1.368 . S
C1116 C1115 1.523 . S
C1117 C1101 1.429 . S
C1117 C1113 1.429 . S
C1117 C1118 1.523 . S
C1118 C1102 1.368 . S
C1118 C1114 1.368 . S
C1118 C1117 1.523 . S
H1119 C1094 0.950 . S
H1120 C1096 0.950 . S
H1121 C1097 0.949 . S
H1122 C1099 0.950 . S
H1123 C1101 0.950 . S
C405 C1 1.622 . S
C410 C330 1.600 . S
C435 C40 1.604 . S
C440 C354 1.578 . S
C470 C374 1.408 . S
C465 C99 1.399 . S
C495 C118 1.401 . S
C500 C397 1.416 . S
C530 C356 1.708 . S
C525 C16 1.745 . S
C560 C332 1.683 . S
C555 C60 1.720 . S
C590 C400 1.602 . S
C585 C79 1.641 . S
C620 C377 1.546 . S
C615 C138 1.579 . S
C645 C21 1.354 . S
C650 C402 1.323 . S
C680 C351 1.685 . S
C675 C94 1.671 . S
C705 C133 1.637 . S
C710 C329 1.649 . S
C735 C55 1.338 . S
C740 C379 1.308 . S
C770 C333 1.710 . S
C765 C157 1.688 . S
C795 C196 1.640 . S
C800 C355 1.641 . S
C825 C255 1.821 . S
C830 C375 1.852 . S
C855 C289 1.823 . S
C860 C398 1.847 . S
C885 C172 1.593 . S
C890 C353 1.578 1_556 S
C920 C331 1.594 . S
C915 C216 1.578 . S
C950 C401 1.498 . S
C945 C235 1.517 . S
C980 C378 1.500 . S
C975 C294 1.515 . S
C1005 C177 1.961 . S
C1010 C399 1.948 . S
C1040 C352 1.598 . S
C1035 C250 1.577 . S
C1070 C328 1.581 . S
C1065 C274 1.556 . S
C1095 C211 1.936 . S
C1100 C376 1.919 . S
