# Generated by pormake.
# Topology anh, (6,3)-cn, num edge types: 1
# Building blocks:
#     Node 0, Type 0, BuildingBlock: PAMTOO_clean_sbu_0, # of connection points: 6
#     Node 1, Type 0, BuildingBlock: PAMTOO_clean_sbu_0, # of connection points: 6
#     Node 2, Type 0, BuildingBlock: PAMTOO_clean_sbu_0, # of connection points: 6
#     Node 3, Type 1, BuildingBlock: KAKCAD_clean_linker_0, # of connection points: 3
#     Node 4, Type 1, BuildingBlock: KAKCAD_clean_linker_0, # of connection points: 3
#     Node 5, Type 1, BuildingBlock: KAKCAD_clean_linker_0, # of connection points: 3
#     Node 6, Type 1, BuildingBlock: KAKCAD_clean_linker_0, # of connection points: 3
#     Node 7, Type 1, BuildingBlock: KAKCAD_clean_linker_0, # of connection points: 3
#     Node 8, Type 1, BuildingBlock: KAKCAD_clean_linker_0, # of connection points: 3
#     Edge 9, Type (0, 1), BuildingBlock: MIFKUJ_clean_linker_0, # of connection points: 2
#     Edge 10, Type (0, 1), BuildingBlock: MIFKUJ_clean_linker_0, # of connection points: 2
#     Edge 11, Type (0, 1), BuildingBlock: MIFKUJ_clean_linker_0, # of connection points: 2
#     Edge 12, Type (0, 1), BuildingBlock: MIFKUJ_clean_linker_0, # of connection points: 2
#     Edge 13, Type (0, 1), BuildingBlock: MIFKUJ_clean_linker_0, # of connection points: 2
#     Edge 14, Type (0, 1), BuildingBlock: MIFKUJ_clean_linker_0, # of connection points: 2
#     Edge 15, Type (0, 1), BuildingBlock: MIFKUJ_clean_linker_0, # of connection points: 2
#     Edge 16, Type (0, 1), BuildingBlock: MIFKUJ_clean_linker_0, # of connection points: 2
#     Edge 17, Type (0, 1), BuildingBlock: MIFKUJ_clean_linker_0, # of connection points: 2
#     Edge 18, Type (0, 1), BuildingBlock: MIFKUJ_clean_linker_0, # of connection points: 2
#     Edge 19, Type (0, 1), BuildingBlock: MIFKUJ_clean_linker_0, # of connection points: 2
#     Edge 20, Type (0, 1), BuildingBlock: MIFKUJ_clean_linker_0, # of connection points: 2
#     Edge 21, Type (0, 1), BuildingBlock: MIFKUJ_clean_linker_0, # of connection points: 2
#     Edge 22, Type (0, 1), BuildingBlock: MIFKUJ_clean_linker_0, # of connection points: 2
#     Edge 23, Type (0, 1), BuildingBlock: MIFKUJ_clean_linker_0, # of connection points: 2
#     Edge 24, Type (0, 1), BuildingBlock: MIFKUJ_clean_linker_0, # of connection points: 2
#     Edge 25, Type (0, 1), BuildingBlock: MIFKUJ_clean_linker_0, # of connection points: 2
#     Edge 26, Type (0, 1), BuildingBlock: MIFKUJ_clean_linker_0, # of connection points: 2
# Relax obj value: 0.160
# Max RMSD: 0.187
# Mean RMSD: 0.150
data_MOF--net-anh--node1-PAMTOO_clean_sbu_0--node2-KAKCAD_clean_linker_0--edge1-MIFKUJ_clean_linker_0
_symmetry_space_group_name_H-M    P1
_symmetry_Int_Tables_number       1
_symmetry_cell_setting            triclinic
loop_
_symmetry_equiv_pos_as_xyz
'x, y, z'
_cell_length_a     45.690353
_cell_length_b     44.141575
_cell_length_c     83.97157
_cell_angle_alpha  91.042438
_cell_angle_beta   94.547453
_cell_angle_gamma 108.5382
loop_
_atom_site_label
_atom_site_type_symbol
_atom_site_fract_x
_atom_site_fract_y
_atom_site_fract_z
_atom_type_partial_charge
Dy0 Dy 0.05615 0.58659 0.14152 0.0
Dy1 Dy 1.03002 0.50801 0.13692 0.0
C2 C 0.0414 0.55222 0.10732 0.0
O3 O 1.00484 0.57478 0.14397 0.0
O4 O 0.98696 0.52256 0.13393 0.0
O5 O 0.07702 0.63234 0.13166 0.0
O6 O 0.06519 0.63007 0.1562 0.0
O7 O 1.02387 0.52118 0.16189 0.0
O8 O 0.06555 0.56646 0.16482 0.0
O9 O 0.08198 0.51965 0.14144 0.0
O10 O 0.09812 0.57313 0.13617 0.0
O11 O 1.0279 0.46174 0.14566 0.0
O12 O 1.00236 0.46512 0.12325 0.0
C13 C 0.98184 0.54882 0.13888 0.0
O14 O 1.03595 0.57396 0.11637 0.0
O15 O 0.04593 0.52683 0.11349 0.0
C16 C 0.10994 0.6717 0.15026 0.0
C17 C 0.16779 0.71854 0.15909 0.0
C18 C 0.16597 0.69131 0.14961 0.0
C19 C 0.13734 0.668 0.14531 0.0
C20 C 0.11174 0.69865 0.15987 0.0
C21 C 0.1404 0.72181 0.1643 0.0
C22 C 0.07938 0.64819 0.14522 0.0
C23 C 0.04507 0.54285 0.17108 0.0
C24 C 0.10412 0.54619 0.13864 0.0
C25 C 0.97908 0.42291 0.13949 0.0
C26 C 0.9252 0.37784 0.14935 0.0
C27 C 0.93365 0.41028 0.15447 0.0
C28 C 0.96031 0.43261 0.14955 0.0
C29 C 0.97082 0.39073 0.13431 0.0
C30 C 0.94412 0.36837 0.13918 0.0
C31 C 1.00708 0.44631 0.13427 0.0
H32 H 0.18673 0.68794 0.14559 0.0
H33 H 0.13662 0.64725 0.138 0.0
H34 H 0.09089 0.70195 0.16381 0.0
H35 H 0.14107 0.74264 0.17152 0.0
H36 H 0.9199 0.41838 0.16245 0.0
H37 H 0.96635 0.45744 0.15365 0.0
H38 H 0.98497 0.38289 0.12646 0.0
H39 H 0.9381 0.34373 0.13482 0.0
Dy40 Dy 0.53988 0.02446 0.50776 0.0
Dy41 Dy 0.61625 0.04919 0.51243 0.0
C42 C 0.57653 0.03443 0.54185 0.0
O43 O 0.55343 0.07699 0.50422 0.0
O44 O 0.60198 0.09206 0.51772 0.0
O45 O 0.49623 0.00469 0.51782 0.0
O46 O 0.49689 0.01637 0.49289 0.0
O47 O 0.60145 0.05955 0.48777 0.0
O48 O 0.55749 0.01665 0.48449 0.0
O49 O 0.6031 0.99645 0.50696 0.0
O50 O 0.55231 0.98055 0.513 0.0
O51 O 0.66001 0.0518 0.5036 0.0
O52 O 0.65905 0.07574 0.52622 0.0
C53 C 0.57787 0.09902 0.51127 0.0
O54 O 0.55531 0.04249 0.5331 0.0
O55 O 0.59928 0.02837 0.53527 0.0
C56 C 0.45662 0.97111 0.49973 0.0
C57 C 0.41053 0.91146 0.49211 0.0
C58 C 0.43946 0.91303 0.4999 0.0
C59 C 0.46232 0.94256 0.50362 0.0
C60 C 0.42811 0.9697 0.49173 0.0
C61 C 0.40531 0.94019 0.48791 0.0
C62 C 0.47997 0.00244 0.50412 0.0
C63 C 0.5798 0.03872 0.4784 0.0
C64 C 0.57751 0.97403 0.51001 0.0
C65 C 0.69845 0.10135 0.51001 0.0
C66 C 0.74149 0.15754 0.50005 0.0
C67 C 0.70988 0.14919 0.49464 0.0
C68 C 0.68854 0.12138 0.49961 0.0
C69 C 0.72984 0.10962 0.51554 0.0
C70 C 0.75121 0.13752 0.51062 0.0
C71 C 0.67612 0.07192 0.5151 0.0
H72 H 0.44426 0.8915 0.50346 0.0
H73 H 0.48429 0.9431 0.50972 0.0
H74 H 0.42341 0.99147 0.48851 0.0
H75 H 0.38362 0.93992 0.4816 0.0
H76 H 0.7016 0.1643 0.48666 0.0
H77 H 0.66429 0.11545 0.49532 0.0
H78 H 0.73785 0.09442 0.52358 0.0
H79 H 0.77543 0.14312 0.51487 0.0
Dy80 Dy 0.55724 0.49922 0.83747 0.0
Dy81 Dy 0.48179 0.47131 0.8305 0.0
C82 C 0.52577 0.48717 0.80248 0.0
O83 O 0.54344 0.54215 0.83135 0.0
O84 O 0.49157 0.52383 0.8351 0.0
O85 O 0.60097 0.5317 0.83189 0.0
O86 O 0.59945 0.49916 0.8511 0.0
O87 O 0.49308 0.46532 0.85649 0.0
O88 O 0.53724 0.5084 0.85967 0.0
O89 O 0.4969 0.42837 0.82773 0.0
O90 O 0.5455 0.4468 0.84103 0.0
O91 O 0.43546 0.46536 0.83677 0.0
O92 O 0.44245 0.44374 0.81461 0.0
C93 C 0.51697 0.54723 0.83292 0.0
O94 O 0.54694 0.48099 0.81209 0.0
O95 O 0.50167 0.49208 0.80815 0.0
C96 C 0.6413 0.50987 0.83512 0.0
C97 C 0.68993 0.49795 0.82042 0.0
C98 C 0.65943 0.48592 0.81324 0.0
C99 C 0.63521 0.49168 0.8206 0.0
C100 C 0.6714 0.52075 0.84261 0.0
C101 C 0.69554 0.51481 0.83534 0.0
C102 C 0.61689 0.51946 0.84192 0.0
C103 C 0.51383 0.48763 0.86569 0.0
C104 C 0.52181 0.42337 0.8344 0.0
C105 C 0.40339 0.46738 0.81382 0.0
C106 C 0.36676 0.49827 0.79642 0.0
C107 C 0.39568 0.51602 0.80427 0.0
C108 C 0.41386 0.5007 0.81276 0.0
C109 C 0.37509 0.44934 0.80566 0.0
C110 C 0.3569 0.46466 0.79698 0.0
C111 C 0.42282 0.4517 0.82287 0.0
H112 H 0.6545 0.47296 0.80174 0.0
H113 H 0.61193 0.48297 0.81471 0.0
H114 H 0.67644 0.53488 0.85378 0.0
H115 H 0.71889 0.52504 0.841 0.0
H116 H 0.40387 0.5419 0.80442 0.0
H117 H 0.43594 0.51499 0.81874 0.0
H118 H 0.367 0.42351 0.80609 0.0
H119 H 0.33494 0.45024 0.79091 0.0
C120 C 0.58076 0.08705 0.29939 0.0
C121 C 0.57488 0.05819 0.30732 0.0
C122 C 0.579 0.08698 0.28267 0.0
C123 C 0.57133 0.05806 0.27354 0.0
C124 C 0.56611 0.02933 0.2815 0.0
C125 C 0.56786 0.0294 0.29817 0.0
C126 C 0.56807 0.05753 0.25577 0.0
C127 C 0.58958 0.08005 0.24735 0.0
C128 C 0.58686 0.07897 0.23052 0.0
C129 C 0.56217 0.05489 0.22211 0.0
C130 C 0.54029 0.03224 0.23038 0.0
C131 C 0.5434 0.03403 0.24719 0.0
C132 C 0.51378 0.00678 0.22176 0.0
C133 C 0.49672 0.01356 0.20839 0.0
C134 C 0.50413 0.97578 0.22757 0.0
C135 C 0.47722 0.9527 0.22078 0.0
C136 C 0.45943 0.95986 0.20788 0.0
C137 C 0.61036 0.10269 0.22189 0.0
C138 C 0.62065 0.1352 0.22694 0.0
C139 C 0.62363 0.09292 0.20901 0.0
C140 C 0.64726 0.11504 0.20164 0.0
C141 C 0.65794 0.14745 0.20689 0.0
C142 C 0.64408 0.15733 0.2195 0.0
C143 C 0.46983 0.99026 0.20148 0.0
H144 H 0.58597 0.10961 0.30609 0.0
H145 H 0.5829 0.10948 0.27688 0.0
H146 H 0.56077 0.00671 0.27483 0.0
H147 H 0.56387 0.00683 0.3039 0.0
H148 H 0.60904 0.09788 0.2539 0.0
H149 H 0.52612 0.01738 0.25367 0.0
H150 H 0.56003 0.05378 0.20915 0.0
H151 H 0.5034 0.03722 0.20367 0.0
H152 H 0.51713 0.96947 0.2376 0.0
H153 H 0.4701 0.92926 0.22575 0.0
H154 H 0.61068 0.14351 0.23673 0.0
H155 H 0.61635 0.06801 0.20492 0.0
H156 H 0.45649 0.99645 0.19156 0.0
H157 H 0.65193 0.18206 0.22392 0.0
H158 H 0.65727 0.10674 0.19186 0.0
C159 C 0.54461 0.54061 0.62526 0.0
C160 C 0.5623 0.52521 0.63444 0.0
C161 C 0.547 0.54338 0.60882 0.0
C162 C 0.56736 0.53111 0.60114 0.0
C163 C 0.58542 0.51616 0.61036 0.0
C164 C 0.58283 0.51314 0.62678 0.0
C165 C 0.56921 0.5333 0.58354 0.0
C166 C 0.56727 0.56063 0.57579 0.0
C167 C 0.56772 0.56248 0.55908 0.0
C168 C 0.57067 0.53652 0.55008 0.0
C169 C 0.57327 0.50934 0.55773 0.0
C170 C 0.5724 0.50785 0.57436 0.0
C171 C 0.57666 0.48185 0.54867 0.0
C172 C 0.55114 0.46053 0.53955 0.0
C173 C 0.60432 0.47449 0.55094 0.0
C174 C 0.60613 0.44564 0.54472 0.0
C175 C 0.58005 0.42316 0.5364 0.0
C176 C 0.56562 0.59193 0.55136 0.0
C177 C 0.54557 0.60763 0.55671 0.0
C178 C 0.58483 0.6057 0.53935 0.0
C179 C 0.58492 0.63518 0.53337 0.0
C180 C 0.56591 0.65151 0.53933 0.0
C181 C 0.5458 0.63707 0.55082 0.0
C182 C 0.55277 0.43137 0.53351 0.0
H183 H 0.5289 0.55064 0.63076 0.0
H184 H 0.53244 0.55471 0.60211 0.0
H185 H 0.60166 0.5068 0.60491 0.0
H186 H 0.5966 0.50083 0.63339 0.0
H187 H 0.56606 0.5809 0.58287 0.0
H188 H 0.5735 0.48634 0.58005 0.0
H189 H 0.57094 0.53736 0.5372 0.0
H190 H 0.52946 0.46564 0.53786 0.0
H191 H 0.62424 0.49066 0.55799 0.0
H192 H 0.62776 0.44058 0.54687 0.0
H193 H 0.52993 0.59735 0.56567 0.0
H194 H 0.60069 0.59437 0.53503 0.0
H195 H 0.53212 0.41462 0.52731 0.0
H196 H 0.53042 0.64874 0.55541 0.0
H197 H 0.60077 0.6458 0.52456 0.0
C198 C 0.11306 0.65549 0.93942 0.0
C199 C 0.08734 0.63109 0.94409 0.0
C200 C 0.11384 0.6649 0.92357 0.0
C201 C 0.08862 0.6505 0.91226 0.0
C202 C 0.06302 0.62605 0.91695 0.0
C203 C 0.06246 0.61634 0.93267 0.0
C204 C 0.0887 0.66034 0.89549 0.0
C205 C 0.11309 0.66007 0.88634 0.0
C206 C 0.11057 0.66416 0.8698 0.0
C207 C 0.08422 0.66991 0.86262 0.0
C208 C 0.05967 0.67029 0.87154 0.0
C209 C 0.06239 0.66608 0.88807 0.0
C210 C 1.02966 0.66958 0.86301 0.0
C211 C 1.02888 0.68648 0.84899 0.0
C212 C 1.0018 0.64823 0.8675 0.0
C213 C 0.97433 0.64236 0.8577 0.0
C214 C 0.97413 0.65742 0.84313 0.0
C215 C 0.13273 0.65762 0.85942 0.0
C216 C 0.16479 0.67308 0.86223 0.0
C217 C 0.12129 0.6357 0.84629 0.0
C218 C 0.14137 0.62946 0.83607 0.0
C219 C 0.17341 0.64494 0.83874 0.0
C220 C 0.18503 0.66696 0.85185 0.0
C221 C 1.00142 0.68014 0.83903 0.0
H222 H 0.13259 0.66715 0.94801 0.0
H223 H 0.13386 0.68373 0.92021 0.0
H224 H 0.04345 0.61425 0.90841 0.0
H225 H 0.04224 0.59768 0.93597 0.0
H226 H 0.13278 0.65417 0.89181 0.0
H227 H 0.0435 0.66601 0.89512 0.0
H228 H 0.08199 0.67177 0.84976 0.0
H229 H 0.0498 0.70354 0.84533 0.0
H230 H 1.00146 0.63432 0.87801 0.0
H231 H 0.95363 0.62442 0.86105 0.0
H232 H 0.17407 0.69006 0.87228 0.0
H233 H 0.09668 0.62315 0.84397 0.0
H234 H 1.0017 0.69225 0.82791 0.0
H235 H 0.20972 0.67894 0.85423 0.0
H236 H 0.1318 0.61251 0.82602 0.0
C237 C 1.02216 0.52469 0.35061 0.0
C238 C 0.04912 0.53111 0.34253 0.0
C239 C 1.02388 0.52403 0.3673 0.0
C240 C 0.05259 0.52962 0.37627 0.0
C241 C 0.07947 0.53564 0.36812 0.0
C242 C 0.07776 0.53647 0.35147 0.0
C243 C 0.05468 0.52944 0.39405 0.0
C244 C 1.03229 0.50671 0.40194 0.0
C245 C 1.03445 0.50617 0.41874 0.0
C246 C 0.05962 0.52869 0.42767 0.0
C247 C 0.08231 0.55158 0.41996 0.0
C248 C 0.07941 0.5519 0.40319 0.0
C249 C 0.10916 0.57536 0.42924 0.0
C250 C 0.1052 0.59147 0.44309 0.0
C251 C 0.1389 0.58307 0.42384 0.0
C252 C 0.16386 0.60702 0.43177 0.0
C253 C 0.15981 0.62382 0.44535 0.0
C254 C 1.01068 0.48154 0.4268 0.0
C255 C 0.9791 0.47364 0.42144 0.0
C256 C 1.01937 0.46495 0.4395 0.0
C257 C 0.99706 0.44046 0.44639 0.0
C258 C 0.96556 0.43203 0.44076 0.0
C259 C 0.95683 0.44921 0.42834 0.0
C260 C 0.13024 0.61548 0.45105 0.0
H261 H 0.99979 0.52077 0.34404 0.0
H262 H 1.00278 0.51972 0.37319 0.0
H263 H 0.10188 0.53939 0.37461 0.0
H264 H 0.09887 0.54092 0.34557 0.0
H265 H 1.01359 0.48873 0.39498 0.0
H266 H 0.09624 0.57016 0.39722 0.0
H267 H 0.06161 0.52833 0.4406 0.0
H268 H 0.08256 0.58619 0.44751 0.0
H269 H 0.14285 0.5708 0.41334 0.0
H270 H 0.18617 0.613 0.42692 0.0
H271 H 0.97159 0.48634 0.41187 0.0
H272 H 0.04353 0.47022 0.44378 0.0
H273 H 0.12639 0.6277 0.46159 0.0
H274 H 0.93271 0.44378 0.42392 0.0
H275 H 1.00464 0.42748 0.45581 0.0
C276 C 0.52809 0.97148 0.71619 0.0
C277 C 0.54744 0.9998 0.71039 0.0
C278 C 0.52468 0.96884 0.73257 0.0
C279 C 0.54102 0.99427 0.74353 0.0
C280 C 0.56096 0.02233 0.73762 0.0
C281 C 0.56384 0.02517 0.72123 0.0
C282 C 0.53704 0.99186 0.76099 0.0
C283 C 0.53222 0.96261 0.76844 0.0
C284 C 0.52845 0.96032 0.78488 0.0
C285 C 0.52991 0.98788 0.79405 0.0
C286 C 0.53485 0.01736 0.7868 0.0
C287 C 0.53803 0.01897 0.77032 0.0
C288 C 0.5364 0.04687 0.79609 0.0
C289 C 0.51262 0.0475 0.80559 0.0
C290 C 0.56046 0.07544 0.79427 0.0
C291 C 0.56017 0.10428 0.80125 0.0
C292 C 0.53567 0.10531 0.81014 0.0
C293 C 0.52354 0.92899 0.79229 0.0
C294 C 0.5011 0.90136 0.78518 0.0
C295 C 0.5425 0.92605 0.80579 0.0
C296 C 0.53987 0.89588 0.81168 0.0
C297 C 0.51787 0.86816 0.80433 0.0
C298 C 0.49815 0.87132 0.7912 0.0
C299 C 0.51214 0.07651 0.81246 0.0
H300 H 0.51505 0.95168 0.70801 0.0
H301 H 0.50873 0.94707 0.73656 0.0
H302 H 0.57456 0.04214 0.74564 0.0
H303 H 0.57919 0.04711 0.71703 0.0
H304 H 0.53216 0.9416 0.76154 0.0
H305 H 0.54061 0.04146 0.7647 0.0
H306 H 0.52724 0.98639 0.80675 0.0
H307 H 0.49371 0.02584 0.80711 0.0
H308 H 0.57916 0.07559 0.78707 0.0
H309 H 0.57848 0.12602 0.79909 0.0
H310 H 0.48611 0.90298 0.77479 0.0
H311 H 0.5601 0.94694 0.81143 0.0
H312 H 0.49309 0.07652 0.81936 0.0
H313 H 0.48115 0.8504 0.78522 0.0
H314 H 0.55525 0.89416 0.82187 0.0
C315 C 0.52974 0.4992 0.04613 0.0
C316 C 0.51716 0.51895 0.03681 0.0
C317 C 0.53382 0.50348 0.06279 0.0
C318 C 0.52512 0.5274 0.07051 0.0
C319 C 0.51217 0.5469 0.06121 0.0
C320 C 0.50841 0.54285 0.04453 0.0
C321 C 0.52974 0.53202 0.0882 0.0
C322 C 0.55796 0.5329 0.09638 0.0
C323 C 0.56287 0.53655 0.11315 0.0
C324 C 0.53839 0.53975 0.12188 0.0
C325 C 0.5094 0.53838 0.11368 0.0
C326 C 0.50577 0.53483 0.09692 0.0
C327 C 0.48139 0.5388 0.12179 0.0
C328 C 0.45537 0.51098 0.12098 0.0
C329 C 0.47749 0.56781 0.12671 0.0
C330 C 0.44814 0.56907 0.1302 0.0
C331 C 0.4217 0.54136 0.12878 0.0
C332 C 0.59368 0.53573 0.12066 0.0
C333 C 0.60465 0.51071 0.1161 0.0
C334 C 0.61446 0.56184 0.12986 0.0
C335 C 0.64567 0.56343 0.1337 0.0
C336 C 0.65702 0.53893 0.12848 0.0
C337 C 0.63559 0.51227 0.11988 0.0
C338 C 0.42614 0.51218 0.12448 0.0
H339 H 0.53695 0.48077 0.04051 0.0
H340 H 0.54362 0.48792 0.06965 0.0
H341 H 0.5054 0.56561 0.06685 0.0
H342 H 0.49849 0.5583 0.03765 0.0
H343 H 0.57652 0.531 0.08954 0.0
H344 H 0.48371 0.5335 0.0906 0.0
H345 H 0.54146 0.54214 0.13481 0.0
H346 H 0.45732 0.48841 0.11677 0.0
H347 H 0.4968 0.58982 0.12703 0.0
H348 H 0.44609 0.592 0.13366 0.0
H349 H 0.58947 0.49033 0.10888 0.0
H350 H 0.60703 0.58175 0.1334 0.0
H351 H 0.40667 0.4903 0.12296 0.0
H352 H 0.64293 0.493 0.11534 0.0
H353 H 0.66101 0.58421 0.14055 0.0
H354 H 0.15513 0.59427 0.1302 0.0
H355 H 0.20826 0.59365 0.12899 0.0
H356 H 0.18146 0.49696 0.14459 0.0
H357 H 0.12814 0.49739 0.14584 0.0
H358 H 0.23686 0.53206 0.15993 0.0
H359 H 0.19373 0.51348 0.10533 0.0
H360 H 0.16705 0.52466 0.08054 0.0
H361 H 0.23858 0.61498 0.07846 0.0
H362 H 0.26548 0.60453 0.10338 0.0
H363 H 0.37244 0.49646 0.14123 0.0
H364 H 0.31972 0.4975 0.14303 0.0
H365 H 0.34442 0.59094 0.12346 0.0
H366 H 0.39692 0.58948 0.12094 0.0
H367 H 0.28987 0.55768 0.11024 0.0
H368 H 0.33306 0.57715 0.16464 0.0
H369 H 0.35972 0.56717 0.18971 0.0
H370 H 0.28852 0.47688 0.19255 0.0
H371 H 0.26162 0.48614 0.16736 0.0
C372 C 0.16038 0.57278 0.13338 0.0
C373 C 0.13692 0.54582 0.13807 0.0
C374 C 0.19096 0.57242 0.13262 0.0
C375 C 0.19922 0.54513 0.13652 0.0
C376 C 0.17598 0.51837 0.14146 0.0
C377 C 0.1453 0.51861 0.14212 0.0
C378 C 0.23192 0.54454 0.13545 0.0
C379 C 0.24823 0.53724 0.14898 0.0
C380 C 0.24748 0.55208 0.12134 0.0
C381 C 0.23146 0.55835 0.10631 0.0
C382 C 0.20365 0.53583 0.09965 0.0
C383 C 0.1885 0.54202 0.08557 0.0
C384 C 0.20106 0.57055 0.07795 0.0
C385 C 0.22885 0.59291 0.08439 0.0
C386 C 0.24407 0.58686 0.09848 0.0
C387 C 0.36682 0.51727 0.1372 0.0
C388 C 0.38952 0.5429 0.13093 0.0
C389 C 0.33646 0.51799 0.13843 0.0
C390 C 0.32766 0.5445 0.13359 0.0
C391 C 0.35025 0.57015 0.12736 0.0
C392 C 0.38061 0.56942 0.12609 0.0
C393 C 0.29494 0.54522 0.13475 0.0
C394 C 0.27858 0.55252 0.12122 0.0
C395 C 0.27939 0.53785 0.14889 0.0
C396 C 0.29549 0.5322 0.16403 0.0
C397 C 0.32321 0.55505 0.17054 0.0
C398 C 0.33835 0.54955 0.18479 0.0
C399 C 0.32587 0.52137 0.19269 0.0
C400 C 0.29818 0.49867 0.18639 0.0
C401 C 0.28296 0.50405 0.17214 0.0
H402 H 0.33762 0.51715 0.20372 0.0
H403 H 0.1893 0.57529 0.06705 0.0
H404 H 0.74511 0.17912 0.46972 0.0
H405 H 0.78314 0.22662 0.46045 0.0
H406 H 0.82781 0.24921 0.50836 0.0
H407 H 0.78943 0.20199 0.5178 0.0
H408 H 0.82132 0.30236 0.49368 0.0
H409 H 0.85956 0.21599 0.48157 0.0
H410 H 0.85654 0.16311 0.47015 0.0
H411 H 0.83666 0.1921 0.42308 0.0
H412 H 0.83912 0.24503 0.43426 0.0
H413 H 0.96096 0.41605 0.47214 0.0
H414 H 0.92296 0.37019 0.48279 0.0
H415 H 0.87855 0.34093 0.43521 0.0
H416 H 0.917 0.38601 0.42442 0.0
H417 H 0.88569 0.2911 0.45047 0.0
H418 H 0.84658 0.377 0.46236 0.0
H419 H 0.84884 0.42977 0.47361 0.0
H420 H 0.86968 0.40188 0.52078 0.0
H421 H 0.86797 0.34906 0.50978 0.0
C422 C 0.76284 0.19436 0.47832 0.0
C423 C 0.76431 0.18673 0.49449 0.0
C424 C 0.7847 0.22136 0.47298 0.0
C425 C 0.8085 0.24126 0.48369 0.0
C426 C 0.8097 0.2341 0.49989 0.0
C427 C 0.78791 0.20699 0.50523 0.0
C428 C 0.8323 0.26932 0.47789 0.0
C429 C 0.83573 0.2999 0.48439 0.0
C430 C 0.85061 0.26613 0.46554 0.0
C431 C 0.84923 0.23437 0.45878 0.0
C432 C 0.8543 0.211 0.4688 0.0
C433 C 0.85273 0.18104 0.46237 0.0
C434 C 0.84634 0.17422 0.4459 0.0
C435 C 0.84157 0.1974 0.43583 0.0
C436 C 0.84307 0.22739 0.44221 0.0
C437 C 0.9432 0.39976 0.46393 0.0
C438 C 0.94199 0.40478 0.44742 0.0
C439 C 0.92131 0.37372 0.47006 0.0
C440 C 0.89769 0.35228 0.45981 0.0
C441 C 0.89649 0.3572 0.44334 0.0
C442 C 0.91834 0.38318 0.43722 0.0
C443 C 0.87461 0.32427 0.46615 0.0
C444 C 0.87135 0.29363 0.45977 0.0
C445 C 0.85642 0.32746 0.47858 0.0
C446 C 0.85748 0.3592 0.48522 0.0
C447 C 0.85192 0.38222 0.47512 0.0
C448 C 0.85304 0.41211 0.48145 0.0
C449 C 0.85949 0.4192 0.49789 0.0
C450 C 0.86474 0.39637 0.50804 0.0
C451 C 0.86368 0.36644 0.50177 0.0
H452 H 0.86033 0.44236 0.50277 0.0
H453 H 0.84514 0.15101 0.44094 0.0
H454 H 0.56483 0.60206 0.82925 0.0
H455 H 0.56258 0.65622 0.82654 0.0
H456 H 0.46428 0.62213 0.83124 0.0
H457 H 0.46622 0.56767 0.83386 0.0
H458 H 0.47764 0.66162 0.80682 0.0
H459 H 0.51456 0.6647 0.86187 0.0
H460 H 0.54851 0.65748 0.8848 0.0
H461 H 0.62724 0.72445 0.86613 0.0
H462 H 0.59383 0.73173 0.84295 0.0
H463 H 0.46652 0.81842 0.81007 0.0
H464 H 0.46411 0.76418 0.81718 0.0
H465 H 0.56353 0.79043 0.81717 0.0
H466 H 0.56604 0.84489 0.81058 0.0
H467 H 0.54627 0.75393 0.84079 0.0
H468 H 0.51018 0.74753 0.78475 0.0
H469 H 0.47652 0.7542 0.76154 0.0
H470 H 0.39654 0.69307 0.78189 0.0
H471 H 0.4297 0.68635 0.80532 0.0
C472 C 0.5427 0.60599 0.82979 0.0
C473 C 0.5157 0.58037 0.83179 0.0
C474 C 0.5415 0.63708 0.82831 0.0
C475 C 0.51332 0.64336 0.82886 0.0
C476 C 0.4863 0.61788 0.83082 0.0
C477 C 0.48748 0.58674 0.83235 0.0
C478 C 0.51205 0.67639 0.82692 0.0
C479 C 0.49227 0.68175 0.81442 0.0
C480 C 0.53155 0.70277 0.83663 0.0
C481 C 0.55171 0.69855 0.8506 0.0
C482 C 0.53915 0.67771 0.86258 0.0
C483 C 0.55829 0.67363 0.87564 0.0
C484 C 0.59002 0.69045 0.8769 0.0
C485 C 0.60266 0.71142 0.86513 0.0
C486 C 0.58363 0.71555 0.85204 0.0
C487 C 0.48784 0.8126 0.81167 0.0
C488 C 0.51646 0.83586 0.80972 0.0
C489 C 0.48645 0.78155 0.81567 0.0
C490 C 0.51358 0.77289 0.81741 0.0
C491 C 0.54225 0.7964 0.81588 0.0
C492 C 0.54369 0.82756 0.81214 0.0
C493 C 0.51222 0.73931 0.8205 0.0
C494 C 0.53149 0.73382 0.83324 0.0
C495 C 0.4923 0.71279 0.81097 0.0
C496 C 0.47238 0.71671 0.79686 0.0
C497 C 0.48539 0.73569 0.78432 0.0
C498 C 0.46641 0.73945 0.77112 0.0
C499 C 0.43441 0.72414 0.77026 0.0
C500 C 0.42132 0.70496 0.78258 0.0
C501 C 0.4402 0.70114 0.79582 0.0
H502 H 0.41975 0.72709 0.76003 0.0
H503 H 0.6048 0.68726 0.88702 0.0
H504 H 0.92829 0.49728 0.13621 0.0
H505 H 0.87467 0.49692 0.13544 0.0
H506 H 0.90609 0.6 0.13961 0.0
H507 H 0.96003 0.60037 0.14106 0.0
H508 H 0.85968 0.58095 0.15619 0.0
H509 H 0.87266 0.55293 0.10265 0.0
H510 H 0.8867 0.5228 0.08114 0.0
H511 H 0.81906 0.43625 0.09381 0.0
H512 H 0.80487 0.46581 0.11553 0.0
H513 H 0.70932 0.59295 0.12977 0.0
H514 H 0.76395 0.59603 0.13244 0.0
H515 H 0.73726 0.49369 0.13548 0.0
H516 H 0.68277 0.4904 0.13333 0.0
H517 H 0.78134 0.51407 0.11472 0.0
H518 H 0.76874 0.54467 0.16846 0.0
H519 H 0.755 0.5769 0.18913 0.0
H520 H 0.8224 0.66175 0.17456 0.0
H521 H 0.83627 0.63007 0.15366 0.0
C522 C 0.92392 0.51996 0.13694 0.0
C523 C 0.94883 0.54888 0.13857 0.0
C524 C 0.89298 0.51975 0.13639 0.0
C525 C 0.8857 0.54847 0.13706 0.0
C526 C 0.91061 0.57738 0.13898 0.0
C527 C 0.94165 0.57759 0.13978 0.0
C528 C 0.85233 0.54825 0.13579 0.0
C529 C 0.84278 0.56664 0.14694 0.0
C530 C 0.82958 0.52937 0.12391 0.0
C531 C 0.83791 0.51154 0.11081 0.0
C532 C 0.86091 0.52744 0.10091 0.0
C533 C 0.86888 0.51047 0.08868 0.0
C534 C 0.85383 0.47761 0.08614 0.0
C535 C 0.83072 0.46169 0.0958 0.0
C536 C 0.82268 0.47854 0.10807 0.0
C537 C 0.71488 0.57105 0.13132 0.0
C538 C 0.69098 0.54137 0.13123 0.0
C539 C 0.74639 0.57287 0.13277 0.0
C540 C 0.75516 0.5451 0.13417 0.0
C541 C 0.73144 0.51555 0.13428 0.0
C542 C 0.70001 0.51372 0.13297 0.0
C543 C 0.78878 0.54655 0.13517 0.0
C544 C 0.79833 0.52841 0.12394 0.0
C545 C 0.81157 0.566 0.14681 0.0
C546 C 0.80331 0.58504 0.15939 0.0
C547 C 0.78045 0.57024 0.16958 0.0
C548 C 0.77268 0.5884 0.18136 0.0
C549 C 0.78776 0.62136 0.18313 0.0
C550 C 0.81071 0.63622 0.17316 0.0
C551 C 0.81855 0.61817 0.16136 0.0
H552 H 0.7817 0.63538 0.19225 0.0
H553 H 0.86004 0.46451 0.07666 0.0
H554 H 0.34803 0.89766 0.4939 0.0
H555 H 0.30725 0.84679 0.48766 0.0
H556 H 0.37571 0.80271 0.47703 0.0
H557 H 0.41663 0.85408 0.48243 0.0
H558 H 0.32863 0.78451 0.45514 0.0
H559 H 0.33886 0.78929 0.51218 0.0
H560 H 0.34192 0.81311 0.53929 0.0
H561 H 0.24978 0.81802 0.53012 0.0
H562 H 0.24631 0.79463 0.50286 0.0
H563 H 0.22087 0.62751 0.45085 0.0
H564 H 0.26466 0.6741 0.46072 0.0
H565 H 0.20218 0.72794 0.4671 0.0
H566 H 0.1583 0.68167 0.45699 0.0
H567 H 0.24813 0.73865 0.49222 0.0
H568 H 0.24019 0.73682 0.43447 0.0
H569 H 0.23754 0.71229 0.40755 0.0
H570 H 0.32668 0.70085 0.41871 0.0
H571 H 0.32964 0.72491 0.4458 0.0
C572 C 0.35449 0.8773 0.49006 0.0
C573 C 0.38571 0.88011 0.48862 0.0
C574 C 0.33111 0.84804 0.48672 0.0
C575 C 0.3384 0.82073 0.48213 0.0
C576 C 0.36951 0.8234 0.48065 0.0
C577 C 0.39293 0.85276 0.48387 0.0
C578 C 0.31339 0.78973 0.47837 0.0
C579 C 0.31139 0.77421 0.46339 0.0
C580 C 0.2905 0.77649 0.489 0.0
C581 C 0.29243 0.79043 0.50542 0.0
C582 C 0.31933 0.79565 0.5159 0.0
C583 C 0.32112 0.80905 0.5313 0.0
C584 C 0.29609 0.81713 0.53642 0.0
C585 C 0.26917 0.81177 0.52614 0.0
C586 C 0.26726 0.79841 0.51072 0.0
C587 C 0.21641 0.64925 0.45435 0.0
C588 C 0.18606 0.65091 0.45297 0.0
C589 C 0.24146 0.67581 0.46005 0.0
C590 C 0.23669 0.70458 0.46445 0.0
C591 C 0.20635 0.70594 0.46377 0.0
C592 C 0.18128 0.6794 0.45804 0.0
C593 C 0.26339 0.73374 0.469 0.0
C594 C 0.26562 0.74888 0.48409 0.0
C595 C 0.28663 0.74655 0.45853 0.0
C596 C 0.28498 0.73234 0.44221 0.0
C597 C 0.25912 0.72885 0.43122 0.0
C598 C 0.25757 0.71506 0.41593 0.0
C599 C 0.28189 0.70494 0.41144 0.0
C600 C 0.30784 0.70866 0.42222 0.0
C601 C 0.30947 0.72238 0.43754 0.0
H602 H 0.28065 0.69427 0.39959 0.0
H603 H 0.29753 0.82751 0.54835 0.0
H604 H 0.47579 0.368 0.8242 0.0
H605 H 0.47898 0.31387 0.82276 0.0
H606 H 0.57443 0.34933 0.84231 0.0
H607 H 0.57158 0.40374 0.84371 0.0
H608 H 0.56656 0.30913 0.81623 0.0
H609 H 0.51896 0.30778 0.86514 0.0
H610 H 0.48037 0.31538 0.88237 0.0
H611 H 0.40749 0.24632 0.85299 0.0
H612 H 0.44561 0.23863 0.83544 0.0
H613 H 0.58231 0.15596 0.82479 0.0
H614 H 0.58046 0.20945 0.83152 0.0
H615 H 0.48332 0.17936 0.81489 0.0
H616 H 0.48498 0.12575 0.80832 0.0
H617 H 0.49376 0.21745 0.84102 0.0
H618 H 0.53971 0.22115 0.79125 0.0
H619 H 0.57724 0.21396 0.7732 0.0
H620 H 0.65202 0.27904 0.8033 0.0
H621 H 0.61494 0.28626 0.82167 0.0
C622 C 0.49746 0.36436 0.82828 0.0
C623 C 0.52342 0.3903 0.8341 0.0
C624 C 0.49918 0.33331 0.82752 0.0
C625 C 0.52685 0.32748 0.83257 0.0
C626 C 0.55282 0.35327 0.83839 0.0
C627 C 0.55109 0.38435 0.83923 0.0
C628 C 0.52892 0.2946 0.83126 0.0
C629 C 0.55102 0.28917 0.82189 0.0
C630 C 0.50809 0.26842 0.8383 0.0
C631 C 0.48513 0.27283 0.84889 0.0
C632 C 0.49468 0.29438 0.86228 0.0
C633 C 0.47289 0.29868 0.87212 0.0
C634 C 0.44149 0.2814 0.86876 0.0
C635 C 0.43182 0.25971 0.85557 0.0
C636 C 0.45351 0.25535 0.84568 0.0
C637 C 0.56052 0.1607 0.82267 0.0
C638 C 0.53384 0.13666 0.81592 0.0
C639 C 0.55949 0.1913 0.82649 0.0
C640 C 0.53188 0.19865 0.82343 0.0
C641 C 0.5049 0.17431 0.81734 0.0
C642 C 0.50586 0.14362 0.81363 0.0
C643 C 0.53136 0.23194 0.82594 0.0
C644 C 0.5095 0.23744 0.83548 0.0
C645 C 0.55227 0.25821 0.81897 0.0
C646 C 0.57459 0.25396 0.80793 0.0
C647 C 0.56418 0.23372 0.79409 0.0
C648 C 0.58537 0.22968 0.78379 0.0
C649 C 0.61701 0.24596 0.78712 0.0
C650 C 0.62751 0.2664 0.80074 0.0
C651 C 0.60642 0.27048 0.8111 0.0
H652 H 0.63337 0.24281 0.77913 0.0
H653 H 0.42466 0.28477 0.87639 0.0
H654 H 0.6226 0.94895 0.50214 0.0
H655 H 0.6219 0.89342 0.50379 0.0
H656 H 0.53139 0.86764 0.52137 0.0
H657 H 0.53155 0.92264 0.5194 0.0
H658 H 0.62021 0.85759 0.52852 0.0
H659 H 0.48981 0.79214 0.51083 0.0
H660 H 0.44686 0.80013 0.49354 0.0
H661 H 0.51182 0.85721 0.46298 0.0
H662 H 0.55513 0.84933 0.47999 0.0
H663 H 0.5692 0.70333 0.55837 0.0
H664 H 0.5729 0.75725 0.55037 0.0
H665 H 0.57154 0.72798 0.50097 0.0
H666 H 0.56762 0.6736 0.50892 0.0
H667 H 0.53228 0.76465 0.50577 0.0
H668 H 0.63783 0.77096 0.51891 0.0
H669 H 0.68179 0.76363 0.53557 0.0
H670 H 0.66911 0.82505 0.5728 0.0
H671 H 0.62476 0.83237 0.55646 0.0
C672 C 0.60244 0.93141 0.50624 0.0
C673 C 0.5771 0.94031 0.51058 0.0
C674 C 0.6021 0.89967 0.5072 0.0
C675 C 0.57643 0.8762 0.5125 0.0
C676 C 0.55118 0.88509 0.51689 0.0
C677 C 0.5514 0.91669 0.51584 0.0
C678 C 0.57647 0.8427 0.5141 0.0
C679 C 0.60106 0.83732 0.52344 0.0
C680 C 0.55169 0.81614 0.50732 0.0
C681 C 0.52573 0.82027 0.49675 0.0
C682 C 0.49492 0.80621 0.50036 0.0
C683 C 0.47051 0.81078 0.49063 0.0
C684 C 0.47662 0.8292 0.47719 0.0
C685 C 0.50713 0.84302 0.47342 0.0
C686 C 0.53162 0.83854 0.48311 0.0
C687 C 0.56944 0.70826 0.54579 0.0
C688 C 0.56802 0.68418 0.53427 0.0
C689 C 0.57177 0.73915 0.54125 0.0
C690 C 0.57269 0.74667 0.5251 0.0
C691 C 0.57091 0.72265 0.51351 0.0
C692 C 0.56886 0.69171 0.51807 0.0
C693 C 0.57563 0.77974 0.52048 0.0
C694 C 0.55157 0.785 0.51065 0.0
C695 C 0.60104 0.80621 0.52666 0.0
C696 C 0.62782 0.80202 0.5365 0.0
C697 C 0.64426 0.78271 0.5307 0.0
C698 C 0.66928 0.77859 0.54008 0.0
C699 C 0.6782 0.79381 0.55524 0.0
C700 C 0.66216 0.81325 0.56105 0.0
C701 C 0.63711 0.81743 0.55173 0.0
H702 H 0.69758 0.79059 0.56248 0.0
H703 H 0.4577 0.83273 0.46968 0.0
H704 H 0.74136 0.48385 0.83192 0.0
H705 H 0.79185 0.50422 0.82157 0.0
H706 H 0.74961 0.53081 0.7786 0.0
H707 H 0.69905 0.51157 0.78923 0.0
H708 H 0.829 0.50964 0.79752 0.0
H709 H 0.7846 0.60715 0.77509 0.0
H710 H 0.73849 0.62485 0.77553 0.0
H711 H 0.72483 0.59083 0.82286 0.0
H712 H 0.77106 0.57336 0.82272 0.0
H713 H 0.97047 0.63847 0.81173 0.0
H714 H 0.92316 0.60953 0.79476 0.0
H715 H 0.86794 0.62181 0.83224 0.0
H716 H 0.91491 0.65089 0.84905 0.0
H717 H 0.83971 0.62491 0.80316 0.0
H718 H 0.8935 0.55707 0.83042 0.0
H719 H 0.93808 0.53731 0.83539 0.0
H720 H 0.9319 0.51018 0.78555 0.0
H721 H 0.88748 0.53017 0.78028 0.0
C722 C 0.74267 0.4929 0.82 0.0
C723 C 0.71659 0.49732 0.81165 0.0
C724 C 0.77153 0.50423 0.81398 0.0
C725 C 0.77458 0.52005 0.79955 0.0
C726 C 0.74777 0.51921 0.7899 0.0
C727 C 0.71883 0.50812 0.796 0.0
C728 C 0.8048 0.54428 0.79739 0.0
C729 C 0.83145 0.53492 0.79815 0.0
C730 C 0.80803 0.5773 0.79843 0.0
C731 C 0.781 0.58878 0.79882 0.0
C732 C 0.77181 0.60366 0.7856 0.0
C733 C 0.74567 0.61361 0.78579 0.0
C734 C 0.72871 0.60892 0.7992 0.0
C735 C 0.73797 0.59447 0.81248 0.0
C736 C 0.76416 0.58461 0.81237 0.0
C737 C 0.94814 0.63591 0.81608 0.0
C738 C 0.94618 0.64663 0.83171 0.0
C739 C 0.92122 0.61926 0.80642 0.0
C740 C 0.89212 0.61326 0.81231 0.0
C741 C 0.89018 0.62624 0.82744 0.0
C742 C 0.91697 0.64268 0.83707 0.0
C743 C 0.86381 0.59017 0.80404 0.0
C744 C 0.83753 0.59984 0.80136 0.0
C745 C 0.86093 0.55743 0.80177 0.0
C746 C 0.88755 0.54549 0.80493 0.0
C747 C 0.90183 0.5471 0.82052 0.0
C748 C 0.92702 0.53584 0.82339 0.0
C749 C 0.93789 0.52261 0.81078 0.0
C750 C 0.92352 0.52054 0.79529 0.0
C751 C 0.89837 0.53184 0.79235 0.0
H752 H 0.95738 0.51387 0.81303 0.0
H753 H 0.70841 0.61651 0.79929 0.0
H754 H 0.19082 0.74836 0.18835 0.0
H755 H 0.24034 0.79034 0.19526 0.0
H756 H 0.26247 0.78794 0.14633 0.0
H757 H 0.2132 0.74539 0.13946 0.0
H758 H 0.31166 0.79239 0.16537 0.0
H759 H 0.23809 0.84868 0.16213 0.0
H760 H 0.19063 0.86058 0.16776 0.0
H761 H 0.22247 0.87645 0.21766 0.0
H762 H 0.26994 0.86419 0.21235 0.0
H763 H 0.4373 0.94106 0.1767 0.0
H764 H 0.38763 0.90102 0.16699 0.0
H765 H 0.3642 0.88548 0.2156 0.0
H766 H 0.41357 0.92528 0.22532 0.0
H767 H 0.31582 0.89235 0.19482 0.0
H768 H 0.38876 0.83321 0.1973 0.0
H769 H 0.43625 0.8223 0.19082 0.0
H770 H 0.40525 0.81382 0.14081 0.0
H771 H 0.35774 0.82514 0.147 0.0
C772 C 0.2062 0.75689 0.17906 0.0
C773 C 0.19808 0.74369 0.16335 0.0
C774 C 0.23447 0.78096 0.183 0.0
C775 C 0.25496 0.79278 0.17126 0.0
C776 C 0.24707 0.77929 0.1556 0.0
C777 C 0.21893 0.75495 0.15169 0.0
C778 C 0.2847 0.81899 0.17537 0.0
C779 C 0.31246 0.81446 0.17157 0.0
C780 C 0.28593 0.84773 0.18362 0.0
C781 C 0.25746 0.85524 0.18686 0.0
C782 C 0.23487 0.85448 0.17432 0.0
C783 C 0.20798 0.86133 0.17745 0.0
C784 C 0.20351 0.8692 0.19306 0.0
C785 C 0.22595 0.87032 0.20557 0.0
C786 C 0.25287 0.86346 0.20251 0.0
C787 C 0.42145 0.92915 0.18528 0.0
C788 C 0.42936 0.93609 0.20177 0.0
C789 C 0.39321 0.90624 0.17974 0.0
C790 C 0.37235 0.89018 0.1906 0.0
C791 C 0.37999 0.89756 0.20703 0.0
C792 C 0.40828 0.92012 0.21256 0.0
C793 C 0.34256 0.86548 0.18497 0.0
C794 C 0.31485 0.87035 0.18849 0.0
C795 C 0.34137 0.83727 0.17631 0.0
C796 C 0.36988 0.8304 0.1726 0.0
C797 C 0.3922 0.82931 0.18491 0.0
C798 C 0.4191 0.823 0.1813 0.0
C799 C 0.42382 0.81747 0.16541 0.0
C800 C 0.4016 0.81817 0.15311 0.0
C801 C 0.37467 0.82452 0.15666 0.0
H802 H 0.44465 0.81257 0.16263 0.0
H803 H 0.18267 0.87449 0.19546 0.0
H804 H 0.54177 0.12701 0.49322 0.0
H805 H 0.54171 0.18247 0.49568 0.0
H806 H 0.61366 0.20198 0.53453 0.0
H807 H 0.61427 0.14692 0.53201 0.0
H808 H 0.56099 0.22148 0.5406 0.0
H809 H 0.63399 0.22988 0.50102 0.0
H810 H 0.65056 0.21507 0.4756 0.0
H811 H 0.57776 0.2405 0.44949 0.0
H812 H 0.56045 0.25502 0.47481 0.0
H813 H 0.60913 0.38687 0.55337 0.0
H814 H 0.60824 0.33265 0.54706 0.0
H815 H 0.54977 0.3295 0.50373 0.0
H816 H 0.55195 0.38482 0.50952 0.0
H817 H 0.59145 0.30025 0.49856 0.0
H818 H 0.5191 0.29389 0.53721 0.0
H819 H 0.50023 0.30724 0.56225 0.0
H820 H 0.56791 0.27599 0.58958 0.0
H821 H 0.58751 0.26287 0.5647 0.0
C822 C 0.55763 0.14315 0.50226 0.0
C823 C 0.578 0.13257 0.51244 0.0
C824 C 0.55763 0.17481 0.5036 0.0
C825 C 0.57772 0.19626 0.51527 0.0
C826 C 0.598 0.18576 0.52545 0.0
C827 C 0.59837 0.15432 0.52395 0.0
C828 C 0.57718 0.22951 0.51719 0.0
C829 C 0.56795 0.23884 0.5315 0.0
C830 C 0.58522 0.25169 0.50505 0.0
C831 C 0.59572 0.24321 0.48982 0.0
C832 C 0.62134 0.23204 0.48987 0.0
C833 C 0.6309 0.22376 0.47548 0.0
C834 C 0.61518 0.22678 0.46094 0.0
C835 C 0.5899 0.23815 0.46077 0.0
C836 C 0.58021 0.24643 0.47513 0.0
C837 C 0.59661 0.37509 0.5423 0.0
C838 C 0.58061 0.39044 0.53196 0.0
C839 C 0.59577 0.34378 0.53882 0.0
C840 C 0.57842 0.32669 0.52509 0.0
C841 C 0.56313 0.34212 0.51447 0.0
C842 C 0.56417 0.37367 0.51787 0.0
C843 C 0.57582 0.29255 0.52217 0.0
C844 C 0.58431 0.28293 0.50766 0.0
C845 C 0.56672 0.26988 0.53407 0.0
C846 C 0.55495 0.27765 0.54908 0.0
C847 C 0.53012 0.29008 0.54856 0.0
C848 C 0.51927 0.29758 0.56273 0.0
C849 C 0.53291 0.29253 0.5775 0.0
C850 C 0.55739 0.27991 0.57813 0.0
C851 C 0.56836 0.27241 0.564 0.0
H852 H 0.52447 0.29835 0.58845 0.0
H853 H 0.62264 0.22038 0.44981 0.0
H854 H 0.30411 0.48197 0.79746 0.0
H855 H 0.27234 0.51598 0.79218 0.0
H856 H 0.35006 0.58817 0.77507 0.0
H857 H 0.38205 0.55353 0.77981 0.0
H858 H 0.32942 0.6091 0.80085 0.0
H859 H 0.28384 0.56235 0.75068 0.0
H860 H 0.26034 0.51975 0.72975 0.0
H861 H 0.18249 0.4804 0.75704 0.0
H862 H 0.20568 0.52242 0.77826 0.0
H863 H 0.2214 0.68585 0.82427 0.0
H864 H 0.25532 0.6713 0.80634 0.0
H865 H 0.2063 0.57131 0.81168 0.0
H866 H 0.17239 0.58567 0.8292 0.0
H867 H 0.21835 0.5813 0.78143 0.0
H868 H 0.27553 0.61455 0.83452 0.0
H869 H 0.30035 0.65398 0.85675 0.0
H870 H 0.35726 0.71568 0.82439 0.0
H871 H 0.33245 0.67674 0.80194 0.0
C872 C 0.31422 0.50436 0.79186 0.0
C873 C 0.34585 0.51524 0.78937 0.0
C874 C 0.29591 0.52389 0.78882 0.0
C875 C 0.30886 0.55468 0.78326 0.0
C876 C 0.33966 0.5645 0.77937 0.0
C877 C 0.35795 0.54479 0.78225 0.0
C878 C 0.29214 0.57811 0.78494 0.0
C879 C 0.30542 0.60377 0.79613 0.0
C880 C 0.26088 0.57107 0.77884 0.0
C881 C 0.24656 0.54567 0.76609 0.0
C882 C 0.26178 0.54453 0.75227 0.0
C883 C 0.24849 0.52048 0.74034 0.0
C884 C 0.21993 0.4974 0.74206 0.0
C885 C 0.20458 0.49835 0.75571 0.0
C886 C 0.21776 0.52235 0.76768 0.0
C887 C 0.21801 0.66082 0.82156 0.0
C888 C 0.19438 0.63685 0.8281 0.0
C889 C 0.2372 0.65255 0.81127 0.0
C890 C 0.2333 0.62021 0.80765 0.0
C891 C 0.20949 0.59641 0.8141 0.0
C892 C 0.19023 0.60462 0.82419 0.0
C893 C 0.25507 0.61031 0.79824 0.0
C894 C 0.24273 0.58748 0.78554 0.0
C895 C 0.28716 0.61962 0.80308 0.0
C896 C 0.30178 0.64306 0.81654 0.0
C897 C 0.29313 0.63668 0.83214 0.0
C898 C 0.30722 0.6589 0.84477 0.0
C899 C 0.33026 0.68739 0.84197 0.0
C900 C 0.33931 0.69368 0.82654 0.0
C901 C 0.32523 0.67157 0.81385 0.0
H902 H 0.34117 0.70455 0.85177 0.0
H903 H 0.20969 0.47879 0.73281 0.0
H904 H 0.86853 0.3852 0.15269 0.0
H905 H 0.82244 0.34626 0.1618 0.0
H906 H 0.87127 0.27743 0.16684 0.0
H907 H 0.91763 0.31636 0.15799 0.0
H908 H 0.81287 0.25078 0.15204 0.0
H909 H 0.86032 0.31685 0.19934 0.0
H910 H 0.88253 0.36777 0.21519 0.0
H911 H 0.79597 0.3866 0.20776 0.0
H912 H 0.77336 0.33596 0.19167 0.0
H913 H 0.7121 0.1393 0.19924 0.0
H914 H 0.75611 0.17836 0.1885 0.0
H915 H 0.70719 0.24744 0.18752 0.0
H916 H 0.66317 0.2085 0.19844 0.0
H917 H 0.7648 0.27467 0.19963 0.0
H918 H 0.71661 0.20864 0.15289 0.0
H919 H 0.69401 0.15822 0.13667 0.0
H920 H 0.78096 0.13984 0.14244 0.0
H921 H 0.80398 0.18995 0.15889 0.0
C922 C 0.86961 0.3619 0.15588 0.0
C923 C 0.8969 0.354 0.15465 0.0
C924 C 0.84318 0.33962 0.16104 0.0
C925 C 0.84349 0.30901 0.16513 0.0
C926 C 0.87049 0.30088 0.16371 0.0
C927 C 0.89695 0.32315 0.15859 0.0
C928 C 0.8157 0.28548 0.17094 0.0
C929 C 0.80255 0.25582 0.16256 0.0
C930 C 0.80176 0.29242 0.1844 0.0
C931 C 0.81525 0.32277 0.19416 0.0
C932 C 0.84609 0.33197 0.20098 0.0
C933 C 0.85874 0.36076 0.21003 0.0
C934 C 0.8407 0.38045 0.21244 0.0
C935 C 0.80994 0.37134 0.20586 0.0
C936 C 0.79718 0.34259 0.19678 0.0
C937 C 0.71054 0.16266 0.19653 0.0
C938 C 0.68409 0.17076 0.19964 0.0
C939 C 0.73574 0.185 0.19039 0.0
C940 C 0.73488 0.21579 0.18701 0.0
C941 C 0.70843 0.22388 0.19005 0.0
C942 C 0.6833 0.20161 0.19629 0.0
C943 C 0.76192 0.2398 0.18076 0.0
C944 C 0.77498 0.26959 0.18907 0.0
C945 C 0.77568 0.23303 0.16717 0.0
C946 C 0.76193 0.20292 0.15725 0.0
C947 C 0.73085 0.19373 0.1508 0.0
C948 C 0.71797 0.16522 0.14155 0.0
C949 C 0.73602 0.1458 0.13856 0.0
C950 C 0.767 0.15489 0.14478 0.0
C951 C 0.77999 0.18336 0.15406 0.0
H952 H 0.72601 0.12374 0.13139 0.0
H953 H 0.85054 0.40274 0.21945 0.0
H954 H 0.04884 0.60808 0.09243 0.0
H955 H 0.05635 0.61834 0.06444 0.0
H956 H 0.04772 0.51926 0.05506 0.0
H957 H 0.04135 0.50906 0.08339 0.0
H958 H 0.09314 0.55501 0.04031 0.0
H959 H 0.98851 0.5508 0.04309 0.0
H960 H 0.94458 0.5632 0.05366 0.0
H961 H 0.9854 0.66217 0.04385 0.0
H962 H 1.02983 0.65046 0.03343 0.0
H963 H 0.07159 0.57064 0.95504 0.0
H964 H 0.06441 0.55481 0.98268 0.0
H965 H 0.09131 0.65409 -0.00142 0.0
H966 H 0.09868 0.67006 0.97098 0.0
H967 H 1.03418 0.61437 0.00908 0.0
H968 H 0.14008 0.61568 0.00668 0.0
H969 H 0.18176 0.60009 -0.00453 0.0
H970 H 0.13414 0.50148 0.0034 0.0
H971 H 0.09193 0.51644 0.01444 0.0
C972 C 0.04826 0.58834 0.08442 0.0
C973 C 0.04425 0.55767 0.09011 0.0
C974 C 0.05246 0.59424 0.06836 0.0
C975 C 0.05202 0.56946 0.05753 0.0
C976 C 0.04803 0.53875 0.06317 0.0
C977 C 0.04428 0.53292 0.07934 0.0
C978 C 0.05653 0.57605 0.04045 0.0
C979 C 0.07985 0.5675 0.03341 0.0
C980 C 0.03943 0.59262 0.03143 0.0
C981 C 1.01264 0.59977 0.03759 0.0
C982 C 0.98823 0.57525 0.04328 0.0
C983 C 0.96323 0.58215 0.04924 0.0
C984 C 0.96223 0.61347 0.04945 0.0
C985 C 0.98621 0.63793 0.04368 0.0
C986 C 1.0113 0.63117 0.03773 0.0
C987 C 0.07621 0.58906 0.96447 0.0
C988 C 0.08568 0.62157 0.96091 0.0
C989 C 0.07221 0.58 0.98022 0.0
C990 C 0.07736 0.60331 -0.00737 0.0
C991 C 0.08726 0.63579 0.98914 0.0
C992 C 0.09165 0.64487 0.97343 0.0
C993 C 0.07104 0.59382 0.00916 0.0
C994 C 0.04729 0.60174 0.01602 0.0
C995 C 0.08729 0.57613 0.01786 0.0
C996 C 0.11267 0.56715 0.01122 0.0
C997 C 0.13834 0.59064 0.00589 0.0
C998 C 0.1621 0.58193 -0.0004 0.0
C999 C 0.16056 0.54981 -0.00132 0.0
C1000 C 0.13529 0.52634 0.00409 0.0
C1001 C 0.11145 0.53493 0.01038 0.0
H1002 H 0.17898 0.54311 -0.00619 0.0
H1003 H 0.94286 0.61876 0.05407 0.0
H1004 H 0.6212 0.08273 0.4618 0.0
H1005 H 0.62105 0.0869 0.43283 0.0
H1006 H 0.53904 0.00403 0.42625 0.0
H1007 H 0.53914 0.99946 0.45523 0.0
H1008 H 0.58146 0.00144 0.40591 0.0
H1009 H 0.53363 0.07795 0.42208 0.0
H1010 H 0.52978 0.12392 0.4379 0.0
H1011 H 0.61231 0.18494 0.41963 0.0
H1012 H 0.6169 0.13918 0.40385 0.0
H1013 H 0.53444 0.01639 0.32525 0.0
H1014 H 0.53657 0.01436 0.35434 0.0
H1015 H 0.61866 0.09728 0.35868 0.0
H1016 H 0.61679 0.09939 0.32949 0.0
H1017 H 0.57798 0.10078 0.38023 0.0
H1018 H 0.62491 0.02403 0.36351 0.0
H1019 H 0.6283 0.97777 0.34775 0.0
H1020 H 0.54706 0.91694 0.3672 0.0
H1021 H 0.54292 0.96295 0.3829 0.0
C1022 C 0.60313 0.06533 0.45421 0.0
C1023 C 0.5801 0.0408 0.46084 0.0
C1024 C 0.60302 0.06784 0.43765 0.0
C1025 C 0.57983 0.046 0.42739 0.0
C1026 C 0.55712 0.02118 0.43395 0.0
C1027 C 0.55718 0.01865 0.45052 0.0
C1028 C 0.57927 0.04898 0.40982 0.0
C1029 C 0.58031 0.02301 0.40027 0.0
C1030 C 0.57855 0.07744 0.40252 0.0
C1031 C 0.57577 0.10507 0.4119 0.0
C1032 C 0.5511 0.10111 0.42153 0.0
C1033 C 0.54876 0.12714 0.43047 0.0
C1034 C 0.57082 0.15731 0.42979 0.0
C1035 C 0.59525 0.16154 0.42015 0.0
C1036 C 0.59772 0.13557 0.41119 0.0
C1037 C 0.5531 0.03408 0.33238 0.0
C1038 C 0.57564 0.05786 0.32504 0.0
C1039 C 0.55423 0.03293 0.349 0.0
C1040 C 0.57803 0.05538 0.35867 0.0
C1041 C 0.60012 0.07969 0.35144 0.0
C1042 C 0.59898 0.08089 0.33477 0.0
C1043 C 0.57995 0.05313 0.37631 0.0
C1044 C 0.57922 0.07925 0.38587 0.0
C1045 C 0.58091 0.02478 0.38363 0.0
C1046 C 0.58345 0.99701 0.37427 0.0
C1047 C 0.60763 0.00084 0.36433 0.0
C1048 C 0.60971 0.97465 0.35542 0.0
C1049 C 0.58787 0.94445 0.35644 0.0
C1050 C 0.56394 0.94036 0.36641 0.0
C1051 C 0.56174 0.96648 0.37533 0.0
H1052 H 0.58951 0.92421 0.34953 0.0
H1053 H 0.5689 0.17742 0.43669 0.0
H1054 H 0.4832 0.49087 0.77847 0.0
H1055 H 0.49023 0.4966 0.74998 0.0
H1056 H 0.58432 0.49605 0.7589 0.0
H1057 H 0.57752 0.49021 0.78743 0.0
H1058 H 0.57843 0.54509 0.73934 0.0
H1059 H 0.53218 0.43138 0.74264 0.0
H1060 H 0.49279 0.38226 0.7501 0.0
H1061 H 0.42235 0.40637 0.72113 0.0
H1062 H 0.46127 0.4559 0.71367 0.0
H1063 H 0.60785 0.52912 0.65856 0.0
H1064 H 0.60206 0.52165 0.68699 0.0
H1065 H 0.50402 0.50682 0.67845 0.0
H1066 H 0.50927 0.51233 0.64988 0.0
H1067 H 0.51264 0.46514 0.69815 0.0
H1068 H 0.55684 0.57867 0.69512 0.0
H1069 H 0.59472 0.62916 0.688 0.0
H1070 H 0.66704 0.6075 0.7166 0.0
H1071 H 0.62965 0.55664 0.72373 0.0
C1072 C 0.50538 0.49189 0.77438 0.0
C1073 C 0.52977 0.48999 0.7852 0.0
C1074 C 0.50932 0.49508 0.75809 0.0
C1075 C 0.53773 0.49656 0.75235 0.0
C1076 C 0.56221 0.49492 0.76312 0.0
C1077 C 0.55821 0.49143 0.77939 0.0
C1078 C 0.54194 0.50006 0.73509 0.0
C1079 C 0.56439 0.52743 0.73032 0.0
C1080 C 0.523 0.47739 0.72335 0.0
C1081 C 0.4996 0.4475 0.72772 0.0
C1082 C 0.50825 0.42634 0.73796 0.0
C1083 C 0.48601 0.3984 0.74217 0.0
C1084 C 0.45507 0.39124 0.73612 0.0
C1085 C 0.44632 0.41197 0.72582 0.0
C1086 C 0.46846 0.43996 0.72158 0.0
C1087 C 0.58497 0.52391 0.66267 0.0
C1088 C 0.55904 0.52143 0.65187 0.0
C1089 C 0.58176 0.52005 0.67899 0.0
C1090 C 0.55267 0.51416 0.68493 0.0
C1091 C 0.52674 0.51149 0.67418 0.0
C1092 C 0.52986 0.51502 0.65784 0.0
C1093 C 0.54913 0.51034 0.7023 0.0
C1094 C 0.52678 0.48287 0.70712 0.0
C1095 C 0.56796 0.53311 0.71408 0.0
C1096 C 0.5905 0.56369 0.70982 0.0
C1097 C 0.58087 0.58455 0.69979 0.0
C1098 C 0.60225 0.61326 0.69577 0.0
C1099 C 0.63329 0.62149 0.70181 0.0
C1100 C 0.643 0.60106 0.71191 0.0
C1101 C 0.62172 0.57231 0.71596 0.0
H1102 H 0.6498 0.64373 0.69868 0.0
H1103 H 0.43789 0.3696 0.7394 0.0
H1104 H 0.54541 0.06175 0.56105 0.0
H1105 H 0.54136 0.05613 0.58986 0.0
H1106 H 0.59788 0.99429 0.59063 0.0
H1107 H 0.60262 0.0003 0.5619 0.0
H1108 H 0.53885 0.97173 0.60623 0.0
H1109 H 0.63199 0.0627 0.60484 0.0
H1110 H 0.66179 0.11595 0.59626 0.0
H1111 H 0.59967 0.15705 0.61734 0.0
H1112 H 0.56921 0.10392 0.62585 0.0
H1113 H 0.56369 0.96072 0.68982 0.0
H1114 H 0.56941 0.96687 0.66121 0.0
H1115 H 0.54195 0.05179 0.66326 0.0
H1116 H 0.53788 0.0465 0.69205 0.0
H1117 H 0.58615 0.0627 0.64566 0.0
H1118 H 0.49233 0.9755 0.64695 0.0
H1119 H 0.45839 0.92328 0.65468 0.0
H1120 H 0.51527 0.87613 0.63304 0.0
H1121 H 0.54981 0.92813 0.62536 0.0
C1122 C 0.55704 0.04703 0.56737 0.0
C1123 C 0.5744 0.03153 0.55925 0.0
C1124 C 0.55473 0.04389 0.5838 0.0
C1125 C 0.56935 0.02483 0.5923 0.0
C1126 C 0.58646 0.0091 0.58422 0.0
C1127 C 0.58925 0.01269 0.56786 0.0
C1128 C 0.56666 0.02122 0.60965 0.0
C1129 C 0.54949 0.99142 0.61493 0.0
C1130 C 0.57968 0.04729 0.62081 0.0
C1131 C 0.59815 0.07928 0.61583 0.0
C1132 C 0.62453 0.08304 0.60752 0.0
C1133 C 0.64157 0.11321 0.6027 0.0
C1134 C 0.63258 0.13985 0.60621 0.0
C1135 C 0.60658 0.13639 0.61461 0.0
C1136 C 0.58944 0.10626 0.61945 0.0
C1137 C 0.55884 0.98061 0.6841 0.0
C1138 C 0.55027 0.00309 0.69304 0.0
C1139 C 0.56193 0.98405 0.66774 0.0
C1140 C 0.55555 0.00949 0.65994 0.0
C1141 C 0.54702 0.03198 0.66895 0.0
C1142 C 0.54462 0.02893 0.68537 0.0
C1143 C 0.55822 0.01299 0.64246 0.0
C1144 C 0.5754 0.04283 0.63707 0.0
C1145 C 0.54457 0.98708 0.63115 0.0
C1146 C 0.52383 0.95575 0.63572 0.0
C1147 C 0.49773 0.95402 0.64394 0.0
C1148 C 0.47836 0.92445 0.6483 0.0
C1149 C 0.48471 0.89641 0.6444 0.0
C1150 C 0.5104 0.89787 0.63608 0.0
C1151 C 0.52987 0.92738 0.63171 0.0
H1152 H 0.46969 0.87355 0.64778 0.0
H1153 H 0.6458 0.16319 0.60246 0.0
H1154 H 0.48135 0.44106 0.88471 0.0
H1155 H 0.47953 0.44494 0.91374 0.0
H1156 H 0.53747 0.54372 0.91474 0.0
H1157 H 0.54037 0.53955 0.88599 0.0
H1158 H 0.55766 0.51691 0.93771 0.0
H1159 H 0.4564 0.51887 0.91897 0.0
H1160 H 0.405 0.49954 0.90378 0.0
H1161 H 0.38235 0.41295 0.92938 0.0
H1162 H 0.4338 0.43159 0.94459 0.0
H1163 H 0.53346 0.56559 0.0152 0.0
H1164 H 0.53017 0.55882 0.98602 0.0
H1165 H 0.49028 0.45675 0.98921 0.0
H1166 H 0.49344 0.46335 0.01843 0.0
H1167 H 0.46029 0.48326 0.9646 0.0
H1168 H 0.56304 0.48437 0.98378 0.0
H1169 H 0.61401 0.50669 -0.00083 0.0
H1170 H 0.63303 0.59185 0.97249 0.0
H1171 H 0.58195 0.57022 0.9571 0.0
C1172 C 0.49354 0.46362 0.89114 0.0
C1173 C 0.51108 0.48995 0.88308 0.0
C1174 C 0.49238 0.46588 0.90773 0.0
C1175 C 0.50814 0.49475 0.91649 0.0
C1176 C 0.52524 0.52114 0.90834 0.0
C1177 C 0.52683 0.51873 0.89186 0.0
C1178 C 0.50781 0.49744 0.93418 0.0
C1179 C 0.53627 0.50992 0.94351 0.0
C1180 C 0.48003 0.48774 0.9419 0.0
C1181 C 0.44907 0.47648 0.93279 0.0
C1182 C 0.44055 0.4956 0.92127 0.0
C1183 C 0.41139 0.48479 0.91267 0.0
C1184 C 0.39046 0.455 0.91558 0.0
C1185 C 0.39861 0.43599 0.92712 0.0
C1186 C 0.42775 0.44668 0.93574 0.0
C1187 C 0.52368 0.54174 0.00967 0.0
C1188 C 0.51382 0.51498 0.01909 0.0
C1189 C 0.52195 0.5379 -0.00697 0.0
C1190 C 0.51017 0.50726 0.98549 0.0
C1191 C 0.49948 0.48058 -0.00519 0.0
C1192 C 0.5015 0.48437 0.01148 0.0
C1193 C 0.51 0.50306 0.96792 0.0
C1194 C 0.48155 0.49022 0.95869 0.0
C1195 C 0.53772 0.51287 0.96024 0.0
C1196 C 0.56855 0.52579 0.9694 0.0
C1197 C 0.57799 0.50796 0.98128 0.0
C1198 C 0.60692 0.52047 0.98999 0.0
C1199 C 0.62671 0.5507 0.98684 0.0
C1200 C 0.61765 0.56845 0.97494 0.0
C1201 C 0.58873 0.55607 0.96621 0.0
H1202 H 0.6491 0.56035 -0.00641 0.0
H1203 H 0.3679 0.44667 0.90891 0.0
H1204 H 1.00655 0.49705 0.18818 0.0
H1205 H 1.00672 0.49456 0.21723 0.0
H1206 H 0.08423 0.58186 0.22291 0.0
H1207 H 0.08453 0.58436 0.19386 0.0
H1208 H 0.09234 0.5378 0.24307 0.0
H1209 H 1.01093 0.58192 0.22803 0.0
H1210 H 0.96284 0.58321 0.21291 0.0
H1211 H 0.91223 0.49433 0.23226 0.0
H1212 H 0.96014 0.4923 0.24734 0.0
H1213 H 0.08713 0.57538 0.32463 0.0
H1214 H 0.08561 0.57665 0.2955 0.0
H1215 H 1.00619 0.49096 0.29126 0.0
H1216 H 1.00743 0.48977 0.32046 0.0
H1217 H 0.99851 0.53288 0.27028 0.0
H1218 H 0.07916 0.48862 0.28551 0.0
H1219 H 0.12707 0.48651 0.3005 0.0
H1220 H 0.17887 0.57434 0.28064 0.0
H1221 H 0.13117 0.57721 0.2657 0.0
C1222 C 1.02368 0.51573 0.19559 0.0
C1223 C 0.04547 0.54098 0.18868 0.0
C1224 C 1.02365 0.51433 0.2122 0.0
C1225 C 0.04525 0.53824 0.22223 0.0
C1226 C 0.06732 0.56319 0.21539 0.0
C1227 C 0.0674 0.56461 0.19877 0.0
C1228 C 0.04493 0.53722 0.23988 0.0
C1229 C 0.07195 0.53714 0.24904 0.0
C1230 C 1.01806 0.53548 0.24763 0.0
C1231 C 0.98918 0.53681 0.23869 0.0
C1232 C 0.98959 0.56254 0.22897 0.0
C1233 C 0.96236 0.56342 0.22043 0.0
C1234 C 0.93452 0.53882 0.2216 0.0
C1235 C 0.93383 0.51334 0.23136 0.0
C1236 C 0.961 0.51233 0.23991 0.0
C1237 C 0.06944 0.55671 0.31749 0.0
C1238 C 0.04755 0.53233 0.32483 0.0
C1239 C 0.06859 0.55746 0.30084 0.0
C1240 C 0.0461 0.53359 0.29119 0.0
C1241 C 1.02379 0.50959 0.29848 0.0
C1242 C 1.02449 0.50896 0.31515 0.0
C1243 C 0.046 0.53364 0.27349 0.0
C1244 C 1.01889 0.5335 0.26432 0.0
C1245 C 0.07277 0.53505 0.26571 0.0
C1246 C 0.10153 0.53327 0.2746 0.0
C1247 C 0.10073 0.5076 0.28443 0.0
C1248 C 0.12785 0.50625 0.2929 0.0
C1249 C 0.15598 0.53032 0.29155 0.0
C1250 C 0.15706 0.55574 0.28169 0.0
C1251 C 0.12999 0.55722 0.27321 0.0
H1252 H 0.17695 0.52923 0.29813 0.0
H1253 H 0.91346 0.53954 0.21497 0.0
loop_
_geom_bond_atom_site_label_1
_geom_bond_atom_site_label_2
_geom_bond_distance
_geom_bond_site_symmetry_2
_ccdc_geom_bond_type
Dy0 O3 2.307 1_455 S
Dy0 O5 2.395 . S
Dy0 O6 2.379 . S
Dy0 O8 2.339 . S
Dy0 O10 2.298 . S
Dy0 O14 2.275 . S
Dy0 C22 2.738 . S
Dy1 O4 2.298 . S
Dy1 O7 2.275 1_655 S
Dy1 O9 2.307 1_655 S
Dy1 O11 2.395 . S
Dy1 O12 2.379 . S
Dy1 O15 2.339 . S
Dy1 C31 2.738 . S
C2 O14 1.254 . S
C2 O15 1.257 1_455 S
O3 Dy0 2.307 1_655 S
O3 C13 1.266 . S
O4 Dy1 2.298 . S
O4 C13 1.236 . S
O5 Dy0 2.395 . S
O5 C22 1.255 . S
O6 Dy0 2.379 . S
O6 C22 1.249 . S
O7 Dy1 2.275 1_455 S
O7 C23 1.254 . S
O8 Dy0 2.339 . S
O8 C23 1.257 . S
O9 Dy1 2.307 1_455 S
O9 C24 1.266 . S
O10 Dy0 2.298 . S
O10 C24 1.236 . S
O11 Dy1 2.395 . S
O11 C31 1.255 . S
O12 Dy1 2.379 . S
O12 C31 1.249 . S
C13 O3 1.266 . S
C13 O4 1.236 . S
O14 Dy0 2.275 . S
O14 C2 1.254 . S
O15 Dy1 2.339 . S
O15 C2 1.257 1_655 S
C16 C19 1.344 . S
C16 C20 1.328 . S
C16 C22 1.516 . S
C17 C18 1.304 . S
C17 C21 1.323 . S
C18 C17 1.304 . S
C18 C19 1.371 . S
C18 H32 0.930 . S
C19 C16 1.344 . S
C19 C18 1.371 . S
C19 H33 0.931 . S
C20 C16 1.328 . S
C20 C21 1.433 . S
C20 H34 0.931 . S
C21 C17 1.323 . S
C21 C20 1.433 . S
C21 H35 0.933 . S
C22 Dy0 2.738 . S
C22 O5 1.255 . S
C22 O6 1.249 . S
C22 C16 1.516 . S
C23 O7 1.254 . S
C23 O8 1.257 . S
C24 O9 1.266 . S
C24 O10 1.236 . S
C25 C28 1.344 . S
C25 C29 1.328 . S
C25 C31 1.516 . S
C26 C27 1.304 . S
C26 C30 1.323 . S
C27 C26 1.304 . S
C27 C28 1.371 . S
C27 H36 0.930 . S
C28 C25 1.344 . S
C28 C27 1.371 . S
C28 H37 0.931 . S
C29 C25 1.328 . S
C29 C30 1.433 . S
C29 H38 0.931 . S
C30 C26 1.323 . S
C30 C29 1.433 . S
C30 H39 0.933 . S
C31 Dy1 2.738 . S
C31 O11 1.255 . S
C31 O12 1.249 . S
C31 C25 1.516 . S
H32 C18 0.930 . S
H33 C19 0.931 . S
H34 C20 0.931 . S
H35 C21 0.933 . S
H36 C27 0.930 . S
H37 C28 0.931 . S
H38 C29 0.931 . S
H39 C30 0.933 . S
Dy40 O43 2.307 . S
Dy40 O45 2.395 1_545 S
Dy40 O46 2.379 1_545 S
Dy40 O48 2.339 . S
Dy40 O50 2.298 1_545 S
Dy40 O54 2.275 . S
Dy40 C62 2.738 1_545 S
Dy41 O44 2.298 . S
Dy41 O47 2.275 . S
Dy41 O49 2.307 1_545 S
Dy41 O51 2.395 . S
Dy41 O52 2.379 . S
Dy41 O55 2.339 . S
Dy41 C71 2.738 . S
C42 O54 1.254 . S
C42 O55 1.257 . S
O43 Dy40 2.307 . S
O43 C53 1.266 . S
O44 Dy41 2.298 . S
O44 C53 1.236 . S
O45 Dy40 2.395 1_565 S
O45 C62 1.255 . S
O46 Dy40 2.379 1_565 S
O46 C62 1.249 . S
O47 Dy41 2.275 . S
O47 C63 1.254 . S
O48 Dy40 2.339 . S
O48 C63 1.257 . S
O49 Dy41 2.307 1_565 S
O49 C64 1.266 . S
O50 Dy40 2.298 1_565 S
O50 C64 1.236 . S
O51 Dy41 2.395 . S
O51 C71 1.255 . S
O52 Dy41 2.379 . S
O52 C71 1.249 . S
C53 O43 1.266 . S
C53 O44 1.236 . S
O54 Dy40 2.275 . S
O54 C42 1.254 . S
O55 Dy41 2.339 . S
O55 C42 1.257 . S
C56 C59 1.344 . S
C56 C60 1.328 . S
C56 C62 1.516 . S
C57 C58 1.304 . S
C57 C61 1.323 . S
C58 C57 1.304 . S
C58 C59 1.371 . S
C58 H72 0.930 . S
C59 C56 1.344 . S
C59 C58 1.371 . S
C59 H73 0.931 . S
C60 C56 1.328 . S
C60 C61 1.433 . S
C60 H74 0.931 . S
C61 C57 1.323 . S
C61 C60 1.433 . S
C61 H75 0.933 . S
C62 Dy40 2.738 1_565 S
C62 O45 1.255 . S
C62 O46 1.249 . S
C62 C56 1.516 . S
C63 O47 1.254 . S
C63 O48 1.257 . S
C64 O49 1.266 . S
C64 O50 1.236 . S
C65 C68 1.344 . S
C65 C69 1.328 . S
C65 C71 1.516 . S
C66 C67 1.304 . S
C66 C70 1.323 . S
C67 C66 1.304 . S
C67 C68 1.371 . S
C67 H76 0.930 . S
C68 C65 1.344 . S
C68 C67 1.371 . S
C68 H77 0.931 . S
C69 C65 1.328 . S
C69 C70 1.433 . S
C69 H78 0.931 . S
C70 C66 1.323 . S
C70 C69 1.433 . S
C70 H79 0.933 . S
C71 Dy41 2.738 . S
C71 O51 1.255 . S
C71 O52 1.249 . S
C71 C65 1.516 . S
H72 C58 0.930 . S
H73 C59 0.931 . S
H74 C60 0.931 . S
H75 C61 0.933 . S
H76 C67 0.930 . S
H77 C68 0.931 . S
H78 C69 0.931 . S
H79 C70 0.933 . S
Dy80 O83 2.307 . S
Dy80 O85 2.395 . S
Dy80 O86 2.379 . S
Dy80 O88 2.339 . S
Dy80 O90 2.298 . S
Dy80 O94 2.275 . S
Dy80 C102 2.738 . S
Dy81 O84 2.298 . S
Dy81 O87 2.275 . S
Dy81 O89 2.307 . S
Dy81 O91 2.395 . S
Dy81 O92 2.379 . S
Dy81 O95 2.339 . S
Dy81 C111 2.738 . S
C82 O94 1.254 . S
C82 O95 1.257 . S
O83 Dy80 2.307 . S
O83 C93 1.266 . S
O84 Dy81 2.298 . S
O84 C93 1.236 . S
O85 Dy80 2.395 . S
O85 C102 1.255 . S
O86 Dy80 2.379 . S
O86 C102 1.249 . S
O87 Dy81 2.275 . S
O87 C103 1.254 . S
O88 Dy80 2.339 . S
O88 C103 1.257 . S
O89 Dy81 2.307 . S
O89 C104 1.266 . S
O90 Dy80 2.298 . S
O90 C104 1.236 . S
O91 Dy81 2.395 . S
O91 C111 1.255 . S
O92 Dy81 2.379 . S
O92 C111 1.249 . S
C93 O83 1.266 . S
C93 O84 1.236 . S
O94 Dy80 2.275 . S
O94 C82 1.254 . S
O95 Dy81 2.339 . S
O95 C82 1.257 . S
C96 C99 1.344 . S
C96 C100 1.328 . S
C96 C102 1.516 . S
C97 C98 1.304 . S
C97 C101 1.323 . S
C98 C97 1.304 . S
C98 C99 1.371 . S
C98 H112 0.930 . S
C99 C96 1.344 . S
C99 C98 1.371 . S
C99 H113 0.931 . S
C100 C96 1.328 . S
C100 C101 1.433 . S
C100 H114 0.931 . S
C101 C97 1.323 . S
C101 C100 1.433 . S
C101 H115 0.933 . S
C102 Dy80 2.738 . S
C102 O85 1.255 . S
C102 O86 1.249 . S
C102 C96 1.516 . S
C103 O87 1.254 . S
C103 O88 1.257 . S
C104 O89 1.266 . S
C104 O90 1.236 . S
C105 C108 1.344 . S
C105 C109 1.328 . S
C105 C111 1.516 . S
C106 C107 1.304 . S
C106 C110 1.323 . S
C107 C106 1.304 . S
C107 C108 1.371 . S
C107 H116 0.930 . S
C108 C105 1.344 . S
C108 C107 1.371 . S
C108 H117 0.931 . S
C109 C105 1.328 . S
C109 C110 1.433 . S
C109 H118 0.931 . S
C110 C106 1.323 . S
C110 C109 1.433 . S
C110 H119 0.933 . S
C111 Dy81 2.738 . S
C111 O91 1.255 . S
C111 O92 1.249 . S
C111 C105 1.516 . S
H112 C98 0.930 . S
H113 C99 0.931 . S
H114 C100 0.931 . S
H115 C101 0.933 . S
H116 C107 0.930 . S
H117 C108 0.931 . S
H118 C109 0.931 . S
H119 C110 0.933 . S
C120 C121 1.386 . S
C120 C122 1.397 . S
C120 H144 0.931 . S
C121 C120 1.386 . S
C121 C125 1.397 . S
C122 C120 1.397 . S
C122 C123 1.384 . S
C122 H145 0.930 . S
C123 C122 1.384 . S
C123 C124 1.377 . S
C123 C126 1.481 . S
C124 C123 1.377 . S
C124 C125 1.389 . S
C124 H146 0.929 . S
C125 C121 1.397 . S
C125 C124 1.389 . S
C125 H147 0.931 . S
C126 C123 1.481 . S
C126 C127 1.387 . S
C126 C131 1.390 . S
C127 C126 1.387 . S
C127 C128 1.401 . S
C127 H148 0.930 . S
C128 C127 1.401 . S
C128 C129 1.376 . S
C128 C137 1.511 . S
C129 C128 1.376 . S
C129 C130 1.392 . S
C129 H150 0.931 . S
C130 C129 1.392 . S
C130 C131 1.361 . S
C130 C132 1.500 . S
C131 C126 1.390 . S
C131 C130 1.361 . S
C131 H149 0.931 . S
C132 C130 1.500 . S
C132 C133 1.371 . S
C132 C134 1.365 1_545 S
C133 C132 1.371 . S
C133 C143 1.386 1_545 S
C133 H151 0.931 . S
C134 C132 1.365 1_565 S
C134 C135 1.409 . S
C134 H152 0.929 . S
C135 C134 1.409 . S
C135 C136 1.380 . S
C135 H153 0.930 . S
C136 C135 1.380 . S
C136 C143 1.357 . S
C137 C128 1.511 . S
C137 C138 1.341 . S
C137 C139 1.371 . S
C138 C137 1.341 . S
C138 C142 1.394 . S
C138 H154 0.930 . S
C139 C137 1.371 . S
C139 C140 1.392 . S
C139 H155 0.931 . S
C140 C139 1.392 . S
C140 C141 1.331 . S
C140 H158 0.932 . S
C141 C140 1.331 . S
C141 C142 1.336 . S
C142 C138 1.394 . S
C142 C141 1.336 . S
C142 H157 0.929 . S
C143 C133 1.386 1_565 S
C143 C136 1.357 . S
C143 H156 0.928 1_565 S
H144 C120 0.931 . S
H145 C122 0.930 . S
H146 C124 0.929 . S
H147 C125 0.931 . S
H148 C127 0.930 . S
H149 C131 0.931 . S
H150 C129 0.931 . S
H151 C133 0.931 . S
H152 C134 0.929 . S
H153 C135 0.930 . S
H154 C138 0.930 . S
H155 C139 0.931 . S
H156 C143 0.928 1_545 S
H157 C142 0.929 . S
H158 C140 0.932 . S
C159 C160 1.386 . S
C159 C161 1.397 . S
C159 H183 0.931 . S
C160 C159 1.386 . S
C160 C164 1.397 . S
C161 C159 1.397 . S
C161 C162 1.384 . S
C161 H184 0.930 . S
C162 C161 1.384 . S
C162 C163 1.377 . S
C162 C165 1.481 . S
C163 C162 1.377 . S
C163 C164 1.389 . S
C163 H185 0.929 . S
C164 C160 1.397 . S
C164 C163 1.389 . S
C164 H186 0.931 . S
C165 C162 1.481 . S
C165 C166 1.387 . S
C165 C170 1.390 . S
C166 C165 1.387 . S
C166 C167 1.401 . S
C166 H187 0.930 . S
C167 C166 1.401 . S
C167 C168 1.376 . S
C167 C176 1.511 . S
C168 C167 1.376 . S
C168 C169 1.392 . S
C168 H189 0.931 . S
C169 C168 1.392 . S
C169 C170 1.361 . S
C169 C171 1.500 . S
C170 C165 1.390 . S
C170 C169 1.361 . S
C170 H188 0.931 . S
C171 C169 1.500 . S
C171 C172 1.371 . S
C171 C173 1.365 . S
C172 C171 1.371 . S
C172 C182 1.386 . S
C172 H190 0.931 . S
C173 C171 1.365 . S
C173 C174 1.409 . S
C173 H191 0.929 . S
C174 C173 1.409 . S
C174 C175 1.380 . S
C174 H192 0.930 . S
C175 C174 1.380 . S
C175 C182 1.357 . S
C176 C167 1.511 . S
C176 C177 1.341 . S
C176 C178 1.371 . S
C177 C176 1.341 . S
C177 C181 1.394 . S
C177 H193 0.930 . S
C178 C176 1.371 . S
C178 C179 1.392 . S
C178 H194 0.931 . S
C179 C178 1.392 . S
C179 C180 1.331 . S
C179 H197 0.932 . S
C180 C179 1.331 . S
C180 C181 1.336 . S
C181 C177 1.394 . S
C181 C180 1.336 . S
C181 H196 0.929 . S
C182 C172 1.386 . S
C182 C175 1.357 . S
C182 H195 0.928 . S
H183 C159 0.931 . S
H184 C161 0.930 . S
H185 C163 0.929 . S
H186 C164 0.931 . S
H187 C166 0.930 . S
H188 C170 0.931 . S
H189 C168 0.931 . S
H190 C172 0.931 . S
H191 C173 0.929 . S
H192 C174 0.930 . S
H193 C177 0.930 . S
H194 C178 0.931 . S
H195 C182 0.928 . S
H196 C181 0.929 . S
H197 C179 0.932 . S
C198 C199 1.386 . S
C198 C200 1.397 . S
C198 H222 0.931 . S
C199 C198 1.386 . S
C199 C203 1.397 . S
C200 C198 1.397 . S
C200 C201 1.384 . S
C200 H223 0.930 . S
C201 C200 1.384 . S
C201 C202 1.377 . S
C201 C204 1.481 . S
C202 C201 1.377 . S
C202 C203 1.389 . S
C202 H224 0.929 1_455 S
C203 C199 1.397 . S
C203 C202 1.389 . S
C203 H225 0.931 1_455 S
C204 C201 1.481 . S
C204 C205 1.387 . S
C204 C209 1.390 1_455 S
C205 C204 1.387 . S
C205 C206 1.401 . S
C205 H226 0.930 . S
C206 C205 1.401 . S
C206 C207 1.376 . S
C206 C215 1.511 . S
C207 C206 1.376 . S
C207 C208 1.392 1_455 S
C207 H228 0.931 . S
C208 C207 1.392 1_655 S
C208 C209 1.361 . S
C208 C210 1.500 . S
C209 C204 1.390 1_655 S
C209 C208 1.361 . S
C209 H227 0.931 . S
C210 C208 1.500 . S
C210 C211 1.371 . S
C210 C212 1.365 . S
C211 C210 1.371 . S
C211 C221 1.386 . S
C211 H229 0.931 . S
C212 C210 1.365 . S
C212 C213 1.409 . S
C212 H230 0.929 . S
C213 C212 1.409 . S
C213 C214 1.380 . S
C213 H231 0.930 . S
C214 C213 1.380 . S
C214 C221 1.357 . S
C215 C206 1.511 . S
C215 C216 1.341 . S
C215 C217 1.371 . S
C216 C215 1.341 . S
C216 C220 1.394 . S
C216 H232 0.930 . S
C217 C215 1.371 . S
C217 C218 1.392 . S
C217 H233 0.931 . S
C218 C217 1.392 . S
C218 C219 1.331 . S
C218 H236 0.932 . S
C219 C218 1.331 . S
C219 C220 1.336 . S
C220 C216 1.394 . S
C220 C219 1.336 . S
C220 H235 0.929 . S
C221 C211 1.386 . S
C221 C214 1.357 . S
C221 H234 0.928 . S
H222 C198 0.931 . S
H223 C200 0.930 . S
H224 C202 0.929 1_655 S
H225 C203 0.931 1_655 S
H226 C205 0.930 . S
H227 C209 0.931 . S
H228 C207 0.931 . S
H229 C211 0.931 . S
H230 C212 0.929 . S
H231 C213 0.930 . S
H232 C216 0.930 . S
H233 C217 0.931 . S
H234 C221 0.928 . S
H235 C220 0.929 . S
H236 C218 0.932 . S
C237 C238 1.368 1_655 S
C237 C239 1.397 . S
C237 H261 0.931 . S
C238 C237 1.368 1_455 S
C238 C242 1.415 . S
C239 C237 1.397 . S
C239 C240 1.384 1_655 S
C239 H262 0.930 . S
C240 C239 1.384 1_455 S
C240 C241 1.377 . S
C240 C243 1.481 . S
C241 C240 1.377 . S
C241 C242 1.389 . S
C241 H263 0.929 . S
C242 C238 1.415 . S
C242 C241 1.389 . S
C242 H264 0.931 . S
C243 C240 1.481 . S
C243 C244 1.387 1_455 S
C243 C248 1.390 . S
C244 C243 1.387 1_655 S
C244 C245 1.401 . S
C244 H265 0.930 . S
C245 C244 1.401 . S
C245 C246 1.376 1_655 S
C245 C254 1.511 . S
C246 C245 1.376 1_455 S
C246 C247 1.392 . S
C246 H267 0.931 . S
C247 C246 1.392 . S
C247 C248 1.361 . S
C247 C249 1.500 . S
C248 C243 1.390 . S
C248 C247 1.361 . S
C248 H266 0.931 . S
C249 C247 1.500 . S
C249 C250 1.371 . S
C249 C251 1.365 . S
C250 C249 1.371 . S
C250 C260 1.386 . S
C250 H268 0.931 . S
C251 C249 1.365 . S
C251 C252 1.409 . S
C251 H269 0.929 . S
C252 C251 1.409 . S
C252 C253 1.380 . S
C252 H270 0.930 . S
C253 C252 1.380 . S
C253 C260 1.357 . S
C254 C245 1.511 . S
C254 C255 1.341 . S
C254 C256 1.371 . S
C255 C254 1.341 . S
C255 C259 1.394 . S
C255 H271 0.930 . S
C256 C254 1.371 . S
C256 C257 1.392 . S
C256 H272 0.931 . S
C257 C256 1.392 . S
C257 C258 1.331 . S
C257 H275 0.932 . S
C258 C257 1.331 . S
C258 C259 1.336 . S
C259 C255 1.394 . S
C259 C258 1.336 . S
C259 H274 0.929 . S
C260 C250 1.386 . S
C260 C253 1.357 . S
C260 H273 0.928 . S
H261 C237 0.931 . S
H262 C239 0.930 . S
H263 C241 0.929 . S
H264 C242 0.931 . S
H265 C244 0.930 . S
H266 C248 0.931 . S
H267 C246 0.931 . S
H268 C250 0.931 . S
H269 C251 0.929 . S
H270 C252 0.930 . S
H271 C255 0.930 . S
H272 C256 0.931 . S
H273 C260 0.928 . S
H274 C259 0.929 . S
H275 C257 0.932 . S
C276 C277 1.386 1_565 S
C276 C278 1.397 . S
C276 H300 0.931 . S
C277 C276 1.386 1_545 S
C277 C281 1.397 . S
C278 C276 1.397 . S
C278 C279 1.384 1_565 S
C278 H301 0.930 . S
C279 C278 1.384 1_545 S
C279 C280 1.377 . S
C279 C282 1.481 . S
C280 C279 1.377 . S
C280 C281 1.389 . S
C280 H302 0.929 . S
C281 C277 1.397 . S
C281 C280 1.389 . S
C281 H303 0.931 . S
C282 C279 1.481 . S
C282 C283 1.387 1_545 S
C282 C287 1.390 . S
C283 C282 1.387 1_565 S
C283 C284 1.401 . S
C283 H304 0.930 . S
C284 C283 1.401 . S
C284 C285 1.376 1_565 S
C284 C293 1.511 . S
C285 C284 1.376 1_545 S
C285 C286 1.392 . S
C285 H306 0.931 . S
C286 C285 1.392 . S
C286 C287 1.361 . S
C286 C288 1.500 . S
C287 C282 1.390 . S
C287 C286 1.361 . S
C287 H305 0.931 . S
C288 C286 1.500 . S
C288 C289 1.371 . S
C288 C290 1.365 . S
C289 C288 1.371 . S
C289 C299 1.386 . S
C289 H307 0.931 . S
C290 C288 1.365 . S
C290 C291 1.409 . S
C290 H308 0.929 . S
C291 C290 1.409 . S
C291 C292 1.380 . S
C291 H309 0.930 . S
C292 C291 1.380 . S
C292 C299 1.357 . S
C293 C284 1.511 . S
C293 C294 1.341 . S
C293 C295 1.371 . S
C294 C293 1.341 . S
C294 C298 1.394 . S
C294 H310 0.930 . S
C295 C293 1.371 . S
C295 C296 1.392 . S
C295 H311 0.931 . S
C296 C295 1.392 . S
C296 C297 1.331 . S
C296 H314 0.932 . S
C297 C296 1.331 . S
C297 C298 1.336 . S
C298 C294 1.394 . S
C298 C297 1.336 . S
C298 H313 0.929 . S
C299 C289 1.386 . S
C299 C292 1.357 . S
C299 H312 0.928 . S
H300 C276 0.931 . S
H301 C278 0.930 . S
H302 C280 0.929 . S
H303 C281 0.931 . S
H304 C283 0.930 . S
H305 C287 0.931 . S
H306 C285 0.931 . S
H307 C289 0.931 . S
H308 C290 0.929 . S
H309 C291 0.930 . S
H310 C294 0.930 . S
H311 C295 0.931 . S
H312 C299 0.928 . S
H313 C298 0.929 . S
H314 C296 0.932 . S
C315 C316 1.386 . S
C315 C317 1.397 . S
C315 H339 0.931 . S
C316 C315 1.386 . S
C316 C320 1.397 . S
C317 C315 1.397 . S
C317 C318 1.384 . S
C317 H340 0.930 . S
C318 C317 1.384 . S
C318 C319 1.377 . S
C318 C321 1.481 . S
C319 C318 1.377 . S
C319 C320 1.389 . S
C319 H341 0.929 . S
C320 C316 1.397 . S
C320 C319 1.389 . S
C320 H342 0.931 . S
C321 C318 1.481 . S
C321 C322 1.387 . S
C321 C326 1.390 . S
C322 C321 1.387 . S
C322 C323 1.401 . S
C322 H343 0.930 . S
C323 C322 1.401 . S
C323 C324 1.376 . S
C323 C332 1.511 . S
C324 C323 1.376 . S
C324 C325 1.392 . S
C324 H345 0.931 . S
C325 C324 1.392 . S
C325 C326 1.361 . S
C325 C327 1.500 . S
C326 C321 1.390 . S
C326 C325 1.361 . S
C326 H344 0.931 . S
C327 C325 1.500 . S
C327 C328 1.371 . S
C327 C329 1.365 . S
C328 C327 1.371 . S
C328 C338 1.386 . S
C328 H346 0.931 . S
C329 C327 1.365 . S
C329 C330 1.409 . S
C329 H347 0.929 . S
C330 C329 1.409 . S
C330 C331 1.380 . S
C330 H348 0.930 . S
C331 C330 1.380 . S
C331 C338 1.357 . S
C332 C323 1.511 . S
C332 C333 1.341 . S
C332 C334 1.371 . S
C333 C332 1.341 . S
C333 C337 1.394 . S
C333 H349 0.930 . S
C334 C332 1.371 . S
C334 C335 1.392 . S
C334 H350 0.931 . S
C335 C334 1.392 . S
C335 C336 1.331 . S
C335 H353 0.932 . S
C336 C335 1.331 . S
C336 C337 1.336 . S
C337 C333 1.394 . S
C337 C336 1.336 . S
C337 H352 0.929 . S
C338 C328 1.386 . S
C338 C331 1.357 . S
C338 H351 0.928 . S
H339 C315 0.931 . S
H340 C317 0.930 . S
H341 C319 0.929 . S
H342 C320 0.931 . S
H343 C322 0.930 . S
H344 C326 0.931 . S
H345 C324 0.931 . S
H346 C328 0.931 . S
H347 C329 0.929 . S
H348 C330 0.930 . S
H349 C333 0.930 . S
H350 C334 0.931 . S
H351 C338 0.928 . S
H352 C337 0.929 . S
H353 C335 0.932 . S
H354 C372 0.951 . S
H355 C374 0.951 . S
H356 C376 0.950 . S
H357 C377 0.950 . S
H358 C379 0.950 . S
H359 C382 0.950 . S
H360 C383 0.950 . S
H361 C385 0.950 . S
H362 C386 0.950 . S
H363 C387 0.951 . S
H364 C389 0.951 . S
H365 C391 0.950 . S
H366 C392 0.950 . S
H367 C394 0.950 . S
H368 C397 0.950 . S
H369 C398 0.950 . S
H370 C400 0.950 . S
H371 C401 0.950 . S
C372 H354 0.951 . S
C372 C373 1.366 . S
C372 C374 1.388 . S
C373 C372 1.366 . S
C373 C377 1.385 . S
C374 H355 0.951 . S
C374 C372 1.388 . S
C374 C375 1.366 . S
C375 C374 1.366 . S
C375 C376 1.414 . S
C375 C378 1.499 . S
C376 H356 0.950 . S
C376 C375 1.414 . S
C376 C377 1.374 . S
C377 H357 0.950 . S
C377 C373 1.385 . S
C377 C376 1.374 . S
C378 C375 1.499 . S
C378 C379 1.373 . S
C378 C380 1.389 . S
C379 H358 0.950 . S
C379 C378 1.373 . S
C379 C395 1.377 . S
C380 C378 1.389 . S
C380 C381 1.524 . S
C380 C394 1.377 . S
C381 C380 1.524 . S
C381 C382 1.397 . S
C381 C386 1.363 . S
C382 H359 0.950 . S
C382 C381 1.397 . S
C382 C383 1.334 . S
C383 H360 0.950 . S
C383 C382 1.334 . S
C383 C384 1.287 . S
C384 C383 1.287 . S
C384 C385 1.524 . S
C384 H403 0.913 . S
C385 H361 0.950 . S
C385 C384 1.524 . S
C385 C386 1.415 . S
C386 H362 0.950 . S
C386 C381 1.363 . S
C386 C385 1.415 . S
C387 H363 0.951 . S
C387 C388 1.366 . S
C387 C389 1.388 . S
C388 C387 1.366 . S
C388 C392 1.385 . S
C389 H364 0.951 . S
C389 C387 1.388 . S
C389 C390 1.366 . S
C390 C389 1.366 . S
C390 C391 1.414 . S
C390 C393 1.499 . S
C391 H365 0.950 . S
C391 C390 1.414 . S
C391 C392 1.374 . S
C392 H366 0.950 . S
C392 C388 1.385 . S
C392 C391 1.374 . S
C393 C390 1.499 . S
C393 C394 1.373 . S
C393 C395 1.389 . S
C394 H367 0.950 . S
C394 C380 1.377 . S
C394 C393 1.373 . S
C395 C379 1.377 . S
C395 C393 1.389 . S
C395 C396 1.524 . S
C396 C395 1.524 . S
C396 C397 1.397 . S
C396 C401 1.363 . S
C397 H368 0.950 . S
C397 C396 1.397 . S
C397 C398 1.334 . S
C398 H369 0.950 . S
C398 C397 1.334 . S
C398 C399 1.287 . S
C399 C398 1.287 . S
C399 C400 1.524 . S
C399 H402 0.999 . S
C400 H370 0.950 . S
C400 C399 1.524 . S
C400 C401 1.415 . S
C401 H371 0.950 . S
C401 C396 1.363 . S
C401 C400 1.415 . S
H402 C399 0.999 . S
H403 C384 0.913 . S
H404 C422 0.951 . S
H405 C424 0.951 . S
H406 C426 0.950 . S
H407 C427 0.950 . S
H408 C429 0.950 . S
H409 C432 0.950 . S
H410 C433 0.950 . S
H411 C435 0.950 . S
H412 C436 0.950 . S
H413 C437 0.951 . S
H414 C439 0.951 . S
H415 C441 0.950 . S
H416 C442 0.950 . S
H417 C444 0.950 . S
H418 C447 0.950 . S
H419 C448 0.950 . S
H420 C450 0.950 . S
H421 C451 0.950 . S
C422 H404 0.951 . S
C422 C423 1.366 . S
C422 C424 1.388 . S
C423 C422 1.366 . S
C423 C427 1.385 . S
C424 H405 0.951 . S
C424 C422 1.388 . S
C424 C425 1.366 . S
C425 C424 1.366 . S
C425 C426 1.414 . S
C425 C428 1.499 . S
C426 H406 0.950 . S
C426 C425 1.414 . S
C426 C427 1.374 . S
C427 H407 0.950 . S
C427 C423 1.385 . S
C427 C426 1.374 . S
C428 C425 1.499 . S
C428 C429 1.373 . S
C428 C430 1.389 . S
C429 H408 0.950 . S
C429 C428 1.373 . S
C429 C445 1.377 . S
C430 C428 1.389 . S
C430 C431 1.524 . S
C430 C444 1.377 . S
C431 C430 1.524 . S
C431 C432 1.397 . S
C431 C436 1.363 . S
C432 H409 0.950 . S
C432 C431 1.397 . S
C432 C433 1.334 . S
C433 H410 0.950 . S
C433 C432 1.334 . S
C433 C434 1.287 . S
C434 C433 1.287 . S
C434 C435 1.524 . S
C434 H453 0.913 . S
C435 H411 0.950 . S
C435 C434 1.524 . S
C435 C436 1.415 . S
C436 H412 0.950 . S
C436 C431 1.363 . S
C436 C435 1.415 . S
C437 H413 0.951 . S
C437 C438 1.366 . S
C437 C439 1.388 . S
C438 C437 1.366 . S
C438 C442 1.385 . S
C439 H414 0.951 . S
C439 C437 1.388 . S
C439 C440 1.366 . S
C440 C439 1.366 . S
C440 C441 1.414 . S
C440 C443 1.499 . S
C441 H415 0.950 . S
C441 C440 1.414 . S
C441 C442 1.374 . S
C442 H416 0.950 . S
C442 C438 1.385 . S
C442 C441 1.374 . S
C443 C440 1.499 . S
C443 C444 1.373 . S
C443 C445 1.389 . S
C444 H417 0.950 . S
C444 C430 1.377 . S
C444 C443 1.373 . S
C445 C429 1.377 . S
C445 C443 1.389 . S
C445 C446 1.524 . S
C446 C445 1.524 . S
C446 C447 1.397 . S
C446 C451 1.363 . S
C447 H418 0.950 . S
C447 C446 1.397 . S
C447 C448 1.334 . S
C448 H419 0.950 . S
C448 C447 1.334 . S
C448 C449 1.287 . S
C449 C448 1.287 . S
C449 C450 1.524 . S
C449 H452 0.999 . S
C450 H420 0.950 . S
C450 C449 1.524 . S
C450 C451 1.415 . S
C451 H421 0.950 . S
C451 C446 1.363 . S
C451 C450 1.415 . S
H452 C449 0.999 . S
H453 C434 0.913 . S
H454 C472 0.951 . S
H455 C474 0.951 . S
H456 C476 0.950 . S
H457 C477 0.950 . S
H458 C479 0.950 . S
H459 C482 0.950 . S
H460 C483 0.950 . S
H461 C485 0.950 . S
H462 C486 0.950 . S
H463 C487 0.951 . S
H464 C489 0.951 . S
H465 C491 0.950 . S
H466 C492 0.950 . S
H467 C494 0.950 . S
H468 C497 0.950 . S
H469 C498 0.950 . S
H470 C500 0.950 . S
H471 C501 0.950 . S
C472 H454 0.951 . S
C472 C473 1.366 . S
C472 C474 1.388 . S
C473 C472 1.366 . S
C473 C477 1.385 . S
C474 H455 0.951 . S
C474 C472 1.388 . S
C474 C475 1.366 . S
C475 C474 1.366 . S
C475 C476 1.414 . S
C475 C478 1.499 . S
C476 H456 0.950 . S
C476 C475 1.414 . S
C476 C477 1.374 . S
C477 H457 0.950 . S
C477 C473 1.385 . S
C477 C476 1.374 . S
C478 C475 1.499 . S
C478 C479 1.373 . S
C478 C480 1.389 . S
C479 H458 0.950 . S
C479 C478 1.373 . S
C479 C495 1.377 . S
C480 C478 1.389 . S
C480 C481 1.524 . S
C480 C494 1.377 . S
C481 C480 1.524 . S
C481 C482 1.397 . S
C481 C486 1.363 . S
C482 H459 0.950 . S
C482 C481 1.397 . S
C482 C483 1.334 . S
C483 H460 0.950 . S
C483 C482 1.334 . S
C483 C484 1.287 . S
C484 C483 1.287 . S
C484 C485 1.524 . S
C484 H503 0.913 . S
C485 H461 0.950 . S
C485 C484 1.524 . S
C485 C486 1.415 . S
C486 H462 0.950 . S
C486 C481 1.363 . S
C486 C485 1.415 . S
C487 H463 0.951 . S
C487 C488 1.366 . S
C487 C489 1.388 . S
C488 C487 1.366 . S
C488 C492 1.385 . S
C489 H464 0.951 . S
C489 C487 1.388 . S
C489 C490 1.366 . S
C490 C489 1.366 . S
C490 C491 1.414 . S
C490 C493 1.499 . S
C491 H465 0.950 . S
C491 C490 1.414 . S
C491 C492 1.374 . S
C492 H466 0.950 . S
C492 C488 1.385 . S
C492 C491 1.374 . S
C493 C490 1.499 . S
C493 C494 1.373 . S
C493 C495 1.389 . S
C494 H467 0.950 . S
C494 C480 1.377 . S
C494 C493 1.373 . S
C495 C479 1.377 . S
C495 C493 1.389 . S
C495 C496 1.524 . S
C496 C495 1.524 . S
C496 C497 1.397 . S
C496 C501 1.363 . S
C497 H468 0.950 . S
C497 C496 1.397 . S
C497 C498 1.334 . S
C498 H469 0.950 . S
C498 C497 1.334 . S
C498 C499 1.287 . S
C499 C498 1.287 . S
C499 C500 1.524 . S
C499 H502 0.999 . S
C500 H470 0.950 . S
C500 C499 1.524 . S
C500 C501 1.415 . S
C501 H471 0.950 . S
C501 C496 1.363 . S
C501 C500 1.415 . S
H502 C499 0.999 . S
H503 C484 0.913 . S
H504 C522 0.951 . S
H505 C524 0.951 . S
H506 C526 0.950 . S
H507 C527 0.950 . S
H508 C529 0.950 . S
H509 C532 0.950 . S
H510 C533 0.950 . S
H511 C535 0.950 . S
H512 C536 0.950 . S
H513 C537 0.951 . S
H514 C539 0.951 . S
H515 C541 0.950 . S
H516 C542 0.950 . S
H517 C544 0.950 . S
H518 C547 0.950 . S
H519 C548 0.950 . S
H520 C550 0.950 . S
H521 C551 0.950 . S
C522 H504 0.951 . S
C522 C523 1.366 . S
C522 C524 1.388 . S
C523 C522 1.366 . S
C523 C527 1.385 . S
C524 H505 0.951 . S
C524 C522 1.388 . S
C524 C525 1.366 . S
C525 C524 1.366 . S
C525 C526 1.414 . S
C525 C528 1.499 . S
C526 H506 0.950 . S
C526 C525 1.414 . S
C526 C527 1.374 . S
C527 H507 0.950 . S
C527 C523 1.385 . S
C527 C526 1.374 . S
C528 C525 1.499 . S
C528 C529 1.373 . S
C528 C530 1.389 . S
C529 H508 0.950 . S
C529 C528 1.373 . S
C529 C545 1.377 . S
C530 C528 1.389 . S
C530 C531 1.524 . S
C530 C544 1.377 . S
C531 C530 1.524 . S
C531 C532 1.397 . S
C531 C536 1.363 . S
C532 H509 0.950 . S
C532 C531 1.397 . S
C532 C533 1.334 . S
C533 H510 0.950 . S
C533 C532 1.334 . S
C533 C534 1.287 . S
C534 C533 1.287 . S
C534 C535 1.524 . S
C534 H553 0.913 . S
C535 H511 0.950 . S
C535 C534 1.524 . S
C535 C536 1.415 . S
C536 H512 0.950 . S
C536 C531 1.363 . S
C536 C535 1.415 . S
C537 H513 0.951 . S
C537 C538 1.366 . S
C537 C539 1.388 . S
C538 C537 1.366 . S
C538 C542 1.385 . S
C539 H514 0.951 . S
C539 C537 1.388 . S
C539 C540 1.366 . S
C540 C539 1.366 . S
C540 C541 1.414 . S
C540 C543 1.499 . S
C541 H515 0.950 . S
C541 C540 1.414 . S
C541 C542 1.374 . S
C542 H516 0.950 . S
C542 C538 1.385 . S
C542 C541 1.374 . S
C543 C540 1.499 . S
C543 C544 1.373 . S
C543 C545 1.389 . S
C544 H517 0.950 . S
C544 C530 1.377 . S
C544 C543 1.373 . S
C545 C529 1.377 . S
C545 C543 1.389 . S
C545 C546 1.524 . S
C546 C545 1.524 . S
C546 C547 1.397 . S
C546 C551 1.363 . S
C547 H518 0.950 . S
C547 C546 1.397 . S
C547 C548 1.334 . S
C548 H519 0.950 . S
C548 C547 1.334 . S
C548 C549 1.287 . S
C549 C548 1.287 . S
C549 C550 1.524 . S
C549 H552 0.999 . S
C550 H520 0.950 . S
C550 C549 1.524 . S
C550 C551 1.415 . S
C551 H521 0.950 . S
C551 C546 1.363 . S
C551 C550 1.415 . S
H552 C549 0.999 . S
H553 C534 0.913 . S
H554 C572 0.951 . S
H555 C574 0.951 . S
H556 C576 0.950 . S
H557 C577 0.950 . S
H558 C579 0.950 . S
H559 C582 0.950 . S
H560 C583 0.950 . S
H561 C585 0.950 . S
H562 C586 0.950 . S
H563 C587 0.951 . S
H564 C589 0.951 . S
H565 C591 0.950 . S
H566 C592 0.950 . S
H567 C594 0.950 . S
H568 C597 0.950 . S
H569 C598 0.950 . S
H570 C600 0.950 . S
H571 C601 0.950 . S
C572 H554 0.951 . S
C572 C573 1.366 . S
C572 C574 1.388 . S
C573 C572 1.366 . S
C573 C577 1.385 . S
C574 H555 0.951 . S
C574 C572 1.388 . S
C574 C575 1.366 . S
C575 C574 1.366 . S
C575 C576 1.414 . S
C575 C578 1.499 . S
C576 H556 0.950 . S
C576 C575 1.414 . S
C576 C577 1.374 . S
C577 H557 0.950 . S
C577 C573 1.385 . S
C577 C576 1.374 . S
C578 C575 1.499 . S
C578 C579 1.373 . S
C578 C580 1.389 . S
C579 H558 0.950 . S
C579 C578 1.373 . S
C579 C595 1.377 . S
C580 C578 1.389 . S
C580 C581 1.524 . S
C580 C594 1.377 . S
C581 C580 1.524 . S
C581 C582 1.397 . S
C581 C586 1.363 . S
C582 H559 0.950 . S
C582 C581 1.397 . S
C582 C583 1.334 . S
C583 H560 0.950 . S
C583 C582 1.334 . S
C583 C584 1.287 . S
C584 C583 1.287 . S
C584 C585 1.524 . S
C584 H603 0.913 . S
C585 H561 0.950 . S
C585 C584 1.524 . S
C585 C586 1.415 . S
C586 H562 0.950 . S
C586 C581 1.363 . S
C586 C585 1.415 . S
C587 H563 0.951 . S
C587 C588 1.366 . S
C587 C589 1.388 . S
C588 C587 1.366 . S
C588 C592 1.385 . S
C589 H564 0.951 . S
C589 C587 1.388 . S
C589 C590 1.366 . S
C590 C589 1.366 . S
C590 C591 1.414 . S
C590 C593 1.499 . S
C591 H565 0.950 . S
C591 C590 1.414 . S
C591 C592 1.374 . S
C592 H566 0.950 . S
C592 C588 1.385 . S
C592 C591 1.374 . S
C593 C590 1.499 . S
C593 C594 1.373 . S
C593 C595 1.389 . S
C594 H567 0.950 . S
C594 C580 1.377 . S
C594 C593 1.373 . S
C595 C579 1.377 . S
C595 C593 1.389 . S
C595 C596 1.524 . S
C596 C595 1.524 . S
C596 C597 1.397 . S
C596 C601 1.363 . S
C597 H568 0.950 . S
C597 C596 1.397 . S
C597 C598 1.334 . S
C598 H569 0.950 . S
C598 C597 1.334 . S
C598 C599 1.287 . S
C599 C598 1.287 . S
C599 C600 1.524 . S
C599 H602 0.999 . S
C600 H570 0.950 . S
C600 C599 1.524 . S
C600 C601 1.415 . S
C601 H571 0.950 . S
C601 C596 1.363 . S
C601 C600 1.415 . S
H602 C599 0.999 . S
H603 C584 0.913 . S
H604 C622 0.951 . S
H605 C624 0.951 . S
H606 C626 0.950 . S
H607 C627 0.950 . S
H608 C629 0.950 . S
H609 C632 0.950 . S
H610 C633 0.950 . S
H611 C635 0.950 . S
H612 C636 0.950 . S
H613 C637 0.951 . S
H614 C639 0.951 . S
H615 C641 0.950 . S
H616 C642 0.950 . S
H617 C644 0.950 . S
H618 C647 0.950 . S
H619 C648 0.950 . S
H620 C650 0.950 . S
H621 C651 0.950 . S
C622 H604 0.951 . S
C622 C623 1.366 . S
C622 C624 1.388 . S
C623 C622 1.366 . S
C623 C627 1.385 . S
C624 H605 0.951 . S
C624 C622 1.388 . S
C624 C625 1.366 . S
C625 C624 1.366 . S
C625 C626 1.414 . S
C625 C628 1.499 . S
C626 H606 0.950 . S
C626 C625 1.414 . S
C626 C627 1.374 . S
C627 H607 0.950 . S
C627 C623 1.385 . S
C627 C626 1.374 . S
C628 C625 1.499 . S
C628 C629 1.373 . S
C628 C630 1.389 . S
C629 H608 0.950 . S
C629 C628 1.373 . S
C629 C645 1.377 . S
C630 C628 1.389 . S
C630 C631 1.524 . S
C630 C644 1.377 . S
C631 C630 1.524 . S
C631 C632 1.397 . S
C631 C636 1.363 . S
C632 H609 0.950 . S
C632 C631 1.397 . S
C632 C633 1.334 . S
C633 H610 0.950 . S
C633 C632 1.334 . S
C633 C634 1.287 . S
C634 C633 1.287 . S
C634 C635 1.524 . S
C634 H653 0.913 . S
C635 H611 0.950 . S
C635 C634 1.524 . S
C635 C636 1.415 . S
C636 H612 0.950 . S
C636 C631 1.363 . S
C636 C635 1.415 . S
C637 H613 0.951 . S
C637 C638 1.366 . S
C637 C639 1.388 . S
C638 C637 1.366 . S
C638 C642 1.385 . S
C639 H614 0.951 . S
C639 C637 1.388 . S
C639 C640 1.366 . S
C640 C639 1.366 . S
C640 C641 1.414 . S
C640 C643 1.499 . S
C641 H615 0.950 . S
C641 C640 1.414 . S
C641 C642 1.374 . S
C642 H616 0.950 . S
C642 C638 1.385 . S
C642 C641 1.374 . S
C643 C640 1.499 . S
C643 C644 1.373 . S
C643 C645 1.389 . S
C644 H617 0.950 . S
C644 C630 1.377 . S
C644 C643 1.373 . S
C645 C629 1.377 . S
C645 C643 1.389 . S
C645 C646 1.524 . S
C646 C645 1.524 . S
C646 C647 1.397 . S
C646 C651 1.363 . S
C647 H618 0.950 . S
C647 C646 1.397 . S
C647 C648 1.334 . S
C648 H619 0.950 . S
C648 C647 1.334 . S
C648 C649 1.287 . S
C649 C648 1.287 . S
C649 C650 1.524 . S
C649 H652 0.999 . S
C650 H620 0.950 . S
C650 C649 1.524 . S
C650 C651 1.415 . S
C651 H621 0.950 . S
C651 C646 1.363 . S
C651 C650 1.415 . S
H652 C649 0.999 . S
H653 C634 0.913 . S
H654 C672 0.951 . S
H655 C674 0.951 . S
H656 C676 0.950 . S
H657 C677 0.950 . S
H658 C679 0.950 . S
H659 C682 0.950 . S
H660 C683 0.950 . S
H661 C685 0.950 . S
H662 C686 0.950 . S
H663 C687 0.951 . S
H664 C689 0.951 . S
H665 C691 0.950 . S
H666 C692 0.950 . S
H667 C694 0.950 . S
H668 C697 0.950 . S
H669 C698 0.950 . S
H670 C700 0.950 . S
H671 C701 0.950 . S
C672 H654 0.951 . S
C672 C673 1.366 . S
C672 C674 1.388 . S
C673 C672 1.366 . S
C673 C677 1.385 . S
C674 H655 0.951 . S
C674 C672 1.388 . S
C674 C675 1.366 . S
C675 C674 1.366 . S
C675 C676 1.414 . S
C675 C678 1.499 . S
C676 H656 0.950 . S
C676 C675 1.414 . S
C676 C677 1.374 . S
C677 H657 0.950 . S
C677 C673 1.385 . S
C677 C676 1.374 . S
C678 C675 1.499 . S
C678 C679 1.373 . S
C678 C680 1.389 . S
C679 H658 0.950 . S
C679 C678 1.373 . S
C679 C695 1.377 . S
C680 C678 1.389 . S
C680 C681 1.524 . S
C680 C694 1.377 . S
C681 C680 1.524 . S
C681 C682 1.397 . S
C681 C686 1.363 . S
C682 H659 0.950 . S
C682 C681 1.397 . S
C682 C683 1.334 . S
C683 H660 0.950 . S
C683 C682 1.334 . S
C683 C684 1.287 . S
C684 C683 1.287 . S
C684 C685 1.524 . S
C684 H703 0.913 . S
C685 H661 0.950 . S
C685 C684 1.524 . S
C685 C686 1.415 . S
C686 H662 0.950 . S
C686 C681 1.363 . S
C686 C685 1.415 . S
C687 H663 0.951 . S
C687 C688 1.366 . S
C687 C689 1.388 . S
C688 C687 1.366 . S
C688 C692 1.385 . S
C689 H664 0.951 . S
C689 C687 1.388 . S
C689 C690 1.366 . S
C690 C689 1.366 . S
C690 C691 1.414 . S
C690 C693 1.499 . S
C691 H665 0.950 . S
C691 C690 1.414 . S
C691 C692 1.374 . S
C692 H666 0.950 . S
C692 C688 1.385 . S
C692 C691 1.374 . S
C693 C690 1.499 . S
C693 C694 1.373 . S
C693 C695 1.389 . S
C694 H667 0.950 . S
C694 C680 1.377 . S
C694 C693 1.373 . S
C695 C679 1.377 . S
C695 C693 1.389 . S
C695 C696 1.524 . S
C696 C695 1.524 . S
C696 C697 1.397 . S
C696 C701 1.363 . S
C697 H668 0.950 . S
C697 C696 1.397 . S
C697 C698 1.334 . S
C698 H669 0.950 . S
C698 C697 1.334 . S
C698 C699 1.287 . S
C699 C698 1.287 . S
C699 C700 1.524 . S
C699 H702 0.999 . S
C700 H670 0.950 . S
C700 C699 1.524 . S
C700 C701 1.415 . S
C701 H671 0.950 . S
C701 C696 1.363 . S
C701 C700 1.415 . S
H702 C699 0.999 . S
H703 C684 0.913 . S
H704 C722 0.951 . S
H705 C724 0.951 . S
H706 C726 0.950 . S
H707 C727 0.950 . S
H708 C729 0.950 . S
H709 C732 0.950 . S
H710 C733 0.950 . S
H711 C735 0.950 . S
H712 C736 0.950 . S
H713 C737 0.951 . S
H714 C739 0.951 . S
H715 C741 0.950 . S
H716 C742 0.950 . S
H717 C744 0.950 . S
H718 C747 0.950 . S
H719 C748 0.950 . S
H720 C750 0.950 . S
H721 C751 0.950 . S
C722 H704 0.951 . S
C722 C723 1.366 . S
C722 C724 1.388 . S
C723 C722 1.366 . S
C723 C727 1.385 . S
C724 H705 0.951 . S
C724 C722 1.388 . S
C724 C725 1.366 . S
C725 C724 1.366 . S
C725 C726 1.414 . S
C725 C728 1.499 . S
C726 H706 0.950 . S
C726 C725 1.414 . S
C726 C727 1.374 . S
C727 H707 0.950 . S
C727 C723 1.385 . S
C727 C726 1.374 . S
C728 C725 1.499 . S
C728 C729 1.373 . S
C728 C730 1.389 . S
C729 H708 0.950 . S
C729 C728 1.373 . S
C729 C745 1.377 . S
C730 C728 1.389 . S
C730 C731 1.524 . S
C730 C744 1.377 . S
C731 C730 1.524 . S
C731 C732 1.397 . S
C731 C736 1.363 . S
C732 H709 0.950 . S
C732 C731 1.397 . S
C732 C733 1.334 . S
C733 H710 0.950 . S
C733 C732 1.334 . S
C733 C734 1.287 . S
C734 C733 1.287 . S
C734 C735 1.524 . S
C734 H753 0.913 . S
C735 H711 0.950 . S
C735 C734 1.524 . S
C735 C736 1.415 . S
C736 H712 0.950 . S
C736 C731 1.363 . S
C736 C735 1.415 . S
C737 H713 0.951 . S
C737 C738 1.366 . S
C737 C739 1.388 . S
C738 C737 1.366 . S
C738 C742 1.385 . S
C739 H714 0.951 . S
C739 C737 1.388 . S
C739 C740 1.366 . S
C740 C739 1.366 . S
C740 C741 1.414 . S
C740 C743 1.499 . S
C741 H715 0.950 . S
C741 C740 1.414 . S
C741 C742 1.374 . S
C742 H716 0.950 . S
C742 C738 1.385 . S
C742 C741 1.374 . S
C743 C740 1.499 . S
C743 C744 1.373 . S
C743 C745 1.389 . S
C744 H717 0.950 . S
C744 C730 1.377 . S
C744 C743 1.373 . S
C745 C729 1.377 . S
C745 C743 1.389 . S
C745 C746 1.524 . S
C746 C745 1.524 . S
C746 C747 1.397 . S
C746 C751 1.363 . S
C747 H718 0.950 . S
C747 C746 1.397 . S
C747 C748 1.334 . S
C748 H719 0.950 . S
C748 C747 1.334 . S
C748 C749 1.287 . S
C749 C748 1.287 . S
C749 C750 1.524 . S
C749 H752 0.999 . S
C750 H720 0.950 . S
C750 C749 1.524 . S
C750 C751 1.415 . S
C751 H721 0.950 . S
C751 C746 1.363 . S
C751 C750 1.415 . S
H752 C749 0.999 . S
H753 C734 0.913 . S
H754 C772 0.951 . S
H755 C774 0.951 . S
H756 C776 0.950 . S
H757 C777 0.950 . S
H758 C779 0.950 . S
H759 C782 0.950 . S
H760 C783 0.950 . S
H761 C785 0.950 . S
H762 C786 0.950 . S
H763 C787 0.951 . S
H764 C789 0.951 . S
H765 C791 0.950 . S
H766 C792 0.950 . S
H767 C794 0.950 . S
H768 C797 0.950 . S
H769 C798 0.950 . S
H770 C800 0.950 . S
H771 C801 0.950 . S
C772 H754 0.951 . S
C772 C773 1.366 . S
C772 C774 1.388 . S
C773 C772 1.366 . S
C773 C777 1.385 . S
C774 H755 0.951 . S
C774 C772 1.388 . S
C774 C775 1.366 . S
C775 C774 1.366 . S
C775 C776 1.414 . S
C775 C778 1.499 . S
C776 H756 0.950 . S
C776 C775 1.414 . S
C776 C777 1.374 . S
C777 H757 0.950 . S
C777 C773 1.385 . S
C777 C776 1.374 . S
C778 C775 1.499 . S
C778 C779 1.373 . S
C778 C780 1.389 . S
C779 H758 0.950 . S
C779 C778 1.373 . S
C779 C795 1.377 . S
C780 C778 1.389 . S
C780 C781 1.524 . S
C780 C794 1.377 . S
C781 C780 1.524 . S
C781 C782 1.397 . S
C781 C786 1.363 . S
C782 H759 0.950 . S
C782 C781 1.397 . S
C782 C783 1.334 . S
C783 H760 0.950 . S
C783 C782 1.334 . S
C783 C784 1.287 . S
C784 C783 1.287 . S
C784 C785 1.524 . S
C784 H803 0.913 . S
C785 H761 0.950 . S
C785 C784 1.524 . S
C785 C786 1.415 . S
C786 H762 0.950 . S
C786 C781 1.363 . S
C786 C785 1.415 . S
C787 H763 0.951 . S
C787 C788 1.366 . S
C787 C789 1.388 . S
C788 C787 1.366 . S
C788 C792 1.385 . S
C789 H764 0.951 . S
C789 C787 1.388 . S
C789 C790 1.366 . S
C790 C789 1.366 . S
C790 C791 1.414 . S
C790 C793 1.499 . S
C791 H765 0.950 . S
C791 C790 1.414 . S
C791 C792 1.374 . S
C792 H766 0.950 . S
C792 C788 1.385 . S
C792 C791 1.374 . S
C793 C790 1.499 . S
C793 C794 1.373 . S
C793 C795 1.389 . S
C794 H767 0.950 . S
C794 C780 1.377 . S
C794 C793 1.373 . S
C795 C779 1.377 . S
C795 C793 1.389 . S
C795 C796 1.524 . S
C796 C795 1.524 . S
C796 C797 1.397 . S
C796 C801 1.363 . S
C797 H768 0.950 . S
C797 C796 1.397 . S
C797 C798 1.334 . S
C798 H769 0.950 . S
C798 C797 1.334 . S
C798 C799 1.287 . S
C799 C798 1.287 . S
C799 C800 1.524 . S
C799 H802 0.999 . S
C800 H770 0.950 . S
C800 C799 1.524 . S
C800 C801 1.415 . S
C801 H771 0.950 . S
C801 C796 1.363 . S
C801 C800 1.415 . S
H802 C799 0.999 . S
H803 C784 0.913 . S
H804 C822 0.951 . S
H805 C824 0.951 . S
H806 C826 0.950 . S
H807 C827 0.950 . S
H808 C829 0.950 . S
H809 C832 0.950 . S
H810 C833 0.950 . S
H811 C835 0.950 . S
H812 C836 0.950 . S
H813 C837 0.951 . S
H814 C839 0.951 . S
H815 C841 0.950 . S
H816 C842 0.950 . S
H817 C844 0.950 . S
H818 C847 0.950 . S
H819 C848 0.950 . S
H820 C850 0.950 . S
H821 C851 0.950 . S
C822 H804 0.951 . S
C822 C823 1.366 . S
C822 C824 1.388 . S
C823 C822 1.366 . S
C823 C827 1.385 . S
C824 H805 0.951 . S
C824 C822 1.388 . S
C824 C825 1.366 . S
C825 C824 1.366 . S
C825 C826 1.414 . S
C825 C828 1.499 . S
C826 H806 0.950 . S
C826 C825 1.414 . S
C826 C827 1.374 . S
C827 H807 0.950 . S
C827 C823 1.385 . S
C827 C826 1.374 . S
C828 C825 1.499 . S
C828 C829 1.373 . S
C828 C830 1.389 . S
C829 H808 0.950 . S
C829 C828 1.373 . S
C829 C845 1.377 . S
C830 C828 1.389 . S
C830 C831 1.524 . S
C830 C844 1.377 . S
C831 C830 1.524 . S
C831 C832 1.397 . S
C831 C836 1.363 . S
C832 H809 0.950 . S
C832 C831 1.397 . S
C832 C833 1.334 . S
C833 H810 0.950 . S
C833 C832 1.334 . S
C833 C834 1.287 . S
C834 C833 1.287 . S
C834 C835 1.524 . S
C834 H853 0.913 . S
C835 H811 0.950 . S
C835 C834 1.524 . S
C835 C836 1.415 . S
C836 H812 0.950 . S
C836 C831 1.363 . S
C836 C835 1.415 . S
C837 H813 0.951 . S
C837 C838 1.366 . S
C837 C839 1.388 . S
C838 C837 1.366 . S
C838 C842 1.385 . S
C839 H814 0.951 . S
C839 C837 1.388 . S
C839 C840 1.366 . S
C840 C839 1.366 . S
C840 C841 1.414 . S
C840 C843 1.499 . S
C841 H815 0.950 . S
C841 C840 1.414 . S
C841 C842 1.374 . S
C842 H816 0.950 . S
C842 C838 1.385 . S
C842 C841 1.374 . S
C843 C840 1.499 . S
C843 C844 1.373 . S
C843 C845 1.389 . S
C844 H817 0.950 . S
C844 C830 1.377 . S
C844 C843 1.373 . S
C845 C829 1.377 . S
C845 C843 1.389 . S
C845 C846 1.524 . S
C846 C845 1.524 . S
C846 C847 1.397 . S
C846 C851 1.363 . S
C847 H818 0.950 . S
C847 C846 1.397 . S
C847 C848 1.334 . S
C848 H819 0.950 . S
C848 C847 1.334 . S
C848 C849 1.287 . S
C849 C848 1.287 . S
C849 C850 1.524 . S
C849 H852 0.999 . S
C850 H820 0.950 . S
C850 C849 1.524 . S
C850 C851 1.415 . S
C851 H821 0.950 . S
C851 C846 1.363 . S
C851 C850 1.415 . S
H852 C849 0.999 . S
H853 C834 0.913 . S
H854 C872 0.951 . S
H855 C874 0.951 . S
H856 C876 0.950 . S
H857 C877 0.950 . S
H858 C879 0.950 . S
H859 C882 0.950 . S
H860 C883 0.950 . S
H861 C885 0.950 . S
H862 C886 0.950 . S
H863 C887 0.951 . S
H864 C889 0.951 . S
H865 C891 0.950 . S
H866 C892 0.950 . S
H867 C894 0.950 . S
H868 C897 0.950 . S
H869 C898 0.950 . S
H870 C900 0.950 . S
H871 C901 0.950 . S
C872 H854 0.951 . S
C872 C873 1.366 . S
C872 C874 1.388 . S
C873 C872 1.366 . S
C873 C877 1.385 . S
C874 H855 0.951 . S
C874 C872 1.388 . S
C874 C875 1.366 . S
C875 C874 1.366 . S
C875 C876 1.414 . S
C875 C878 1.499 . S
C876 H856 0.950 . S
C876 C875 1.414 . S
C876 C877 1.374 . S
C877 H857 0.950 . S
C877 C873 1.385 . S
C877 C876 1.374 . S
C878 C875 1.499 . S
C878 C879 1.373 . S
C878 C880 1.389 . S
C879 H858 0.950 . S
C879 C878 1.373 . S
C879 C895 1.377 . S
C880 C878 1.389 . S
C880 C881 1.524 . S
C880 C894 1.377 . S
C881 C880 1.524 . S
C881 C882 1.397 . S
C881 C886 1.363 . S
C882 H859 0.950 . S
C882 C881 1.397 . S
C882 C883 1.334 . S
C883 H860 0.950 . S
C883 C882 1.334 . S
C883 C884 1.287 . S
C884 C883 1.287 . S
C884 C885 1.524 . S
C884 H903 0.913 . S
C885 H861 0.950 . S
C885 C884 1.524 . S
C885 C886 1.415 . S
C886 H862 0.950 . S
C886 C881 1.363 . S
C886 C885 1.415 . S
C887 H863 0.951 . S
C887 C888 1.366 . S
C887 C889 1.388 . S
C888 C887 1.366 . S
C888 C892 1.385 . S
C889 H864 0.951 . S
C889 C887 1.388 . S
C889 C890 1.366 . S
C890 C889 1.366 . S
C890 C891 1.414 . S
C890 C893 1.499 . S
C891 H865 0.950 . S
C891 C890 1.414 . S
C891 C892 1.374 . S
C892 H866 0.950 . S
C892 C888 1.385 . S
C892 C891 1.374 . S
C893 C890 1.499 . S
C893 C894 1.373 . S
C893 C895 1.389 . S
C894 H867 0.950 . S
C894 C880 1.377 . S
C894 C893 1.373 . S
C895 C879 1.377 . S
C895 C893 1.389 . S
C895 C896 1.524 . S
C896 C895 1.524 . S
C896 C897 1.397 . S
C896 C901 1.363 . S
C897 H868 0.950 . S
C897 C896 1.397 . S
C897 C898 1.334 . S
C898 H869 0.950 . S
C898 C897 1.334 . S
C898 C899 1.287 . S
C899 C898 1.287 . S
C899 C900 1.524 . S
C899 H902 0.999 . S
C900 H870 0.950 . S
C900 C899 1.524 . S
C900 C901 1.415 . S
C901 H871 0.950 . S
C901 C896 1.363 . S
C901 C900 1.415 . S
H902 C899 0.999 . S
H903 C884 0.913 . S
H904 C922 0.951 . S
H905 C924 0.951 . S
H906 C926 0.950 . S
H907 C927 0.950 . S
H908 C929 0.950 . S
H909 C932 0.950 . S
H910 C933 0.950 . S
H911 C935 0.950 . S
H912 C936 0.950 . S
H913 C937 0.951 . S
H914 C939 0.951 . S
H915 C941 0.950 . S
H916 C942 0.950 . S
H917 C944 0.950 . S
H918 C947 0.950 . S
H919 C948 0.950 . S
H920 C950 0.950 . S
H921 C951 0.950 . S
C922 H904 0.951 . S
C922 C923 1.366 . S
C922 C924 1.388 . S
C923 C922 1.366 . S
C923 C927 1.385 . S
C924 H905 0.951 . S
C924 C922 1.388 . S
C924 C925 1.366 . S
C925 C924 1.366 . S
C925 C926 1.414 . S
C925 C928 1.499 . S
C926 H906 0.950 . S
C926 C925 1.414 . S
C926 C927 1.374 . S
C927 H907 0.950 . S
C927 C923 1.385 . S
C927 C926 1.374 . S
C928 C925 1.499 . S
C928 C929 1.373 . S
C928 C930 1.389 . S
C929 H908 0.950 . S
C929 C928 1.373 . S
C929 C945 1.377 . S
C930 C928 1.389 . S
C930 C931 1.524 . S
C930 C944 1.377 . S
C931 C930 1.524 . S
C931 C932 1.397 . S
C931 C936 1.363 . S
C932 H909 0.950 . S
C932 C931 1.397 . S
C932 C933 1.334 . S
C933 H910 0.950 . S
C933 C932 1.334 . S
C933 C934 1.287 . S
C934 C933 1.287 . S
C934 C935 1.524 . S
C934 H953 0.913 . S
C935 H911 0.950 . S
C935 C934 1.524 . S
C935 C936 1.415 . S
C936 H912 0.950 . S
C936 C931 1.363 . S
C936 C935 1.415 . S
C937 H913 0.951 . S
C937 C938 1.366 . S
C937 C939 1.388 . S
C938 C937 1.366 . S
C938 C942 1.385 . S
C939 H914 0.951 . S
C939 C937 1.388 . S
C939 C940 1.366 . S
C940 C939 1.366 . S
C940 C941 1.414 . S
C940 C943 1.499 . S
C941 H915 0.950 . S
C941 C940 1.414 . S
C941 C942 1.374 . S
C942 H916 0.950 . S
C942 C938 1.385 . S
C942 C941 1.374 . S
C943 C940 1.499 . S
C943 C944 1.373 . S
C943 C945 1.389 . S
C944 H917 0.950 . S
C944 C930 1.377 . S
C944 C943 1.373 . S
C945 C929 1.377 . S
C945 C943 1.389 . S
C945 C946 1.524 . S
C946 C945 1.524 . S
C946 C947 1.397 . S
C946 C951 1.363 . S
C947 H918 0.950 . S
C947 C946 1.397 . S
C947 C948 1.334 . S
C948 H919 0.950 . S
C948 C947 1.334 . S
C948 C949 1.287 . S
C949 C948 1.287 . S
C949 C950 1.524 . S
C949 H952 0.999 . S
C950 H920 0.950 . S
C950 C949 1.524 . S
C950 C951 1.415 . S
C951 H921 0.950 . S
C951 C946 1.363 . S
C951 C950 1.415 . S
H952 C949 0.999 . S
H953 C934 0.913 . S
H954 C972 0.951 . S
H955 C974 0.951 . S
H956 C976 0.950 . S
H957 C977 0.950 . S
H958 C979 0.950 . S
H959 C982 0.950 . S
H960 C983 0.950 . S
H961 C985 0.950 . S
H962 C986 0.950 . S
H963 C987 0.951 1_655 S
H964 C989 0.951 1_655 S
H965 C991 0.950 . S
H966 C992 0.950 . S
H967 C994 0.950 . S
H968 C997 0.950 . S
H969 C998 0.950 . S
H970 C1000 0.960 . S
H971 C1001 0.950 1_655 S
C972 H954 0.951 . S
C972 C973 1.366 . S
C972 C974 1.388 . S
C973 C972 1.366 . S
C973 C977 1.385 1_455 S
C974 H955 0.951 . S
C974 C972 1.388 . S
C974 C975 1.366 . S
C975 C974 1.366 . S
C975 C976 1.414 1_455 S
C975 C978 1.499 . S
C976 H956 0.950 . S
C976 C975 1.414 1_655 S
C976 C977 1.374 . S
C977 H957 0.950 . S
C977 C973 1.385 1_655 S
C977 C976 1.374 . S
C978 C975 1.499 . S
C978 C979 1.373 . S
C978 C980 1.389 . S
C979 H958 0.950 . S
C979 C978 1.373 . S
C979 C995 1.377 . S
C980 C978 1.389 . S
C980 C981 1.524 . S
C980 C994 1.377 . S
C981 C980 1.524 . S
C981 C982 1.397 1_455 S
C981 C986 1.363 . S
C982 H959 0.950 . S
C982 C981 1.397 1_655 S
C982 C983 1.334 . S
C983 H960 0.950 . S
C983 C982 1.334 . S
C983 C984 1.286 . S
C984 C983 1.286 . S
C984 C985 1.527 1_655 S
C984 H1003 0.911 . S
C985 H961 0.950 . S
C985 C984 1.527 1_455 S
C985 C986 1.415 . S
C986 H962 0.950 . S
C986 C981 1.363 . S
C986 C985 1.415 . S
C987 H963 0.951 1_455 S
C987 C988 1.366 . S
C987 C989 1.388 1_556 S
C988 C987 1.366 . S
C988 C992 1.385 . S
C989 H964 0.951 1_455 S
C989 C987 1.388 1_554 S
C989 C990 1.366 . S
C990 C989 1.366 . S
C990 C991 1.414 . S
C990 C993 1.499 . S
C991 H965 0.950 . S
C991 C990 1.414 . S
C991 C992 1.374 1_554 S
C992 H966 0.950 . S
C992 C988 1.385 . S
C992 C991 1.374 1_556 S
C993 C990 1.499 . S
C993 C994 1.373 . S
C993 C995 1.389 . S
C994 H967 0.950 . S
C994 C980 1.377 . S
C994 C993 1.373 . S
C995 C979 1.377 . S
C995 C993 1.389 . S
C995 C996 1.524 . S
C996 C995 1.524 . S
C996 C997 1.397 . S
C996 C1001 1.363 . S
C997 H968 0.950 . S
C997 C996 1.397 . S
C997 C998 1.334 . S
C998 H969 0.950 . S
C998 C997 1.334 . S
C998 C999 1.287 . S
C999 C998 1.287 . S
C999 C1000 1.524 . S
C999 H1002 0.999 . S
C1000 H970 0.960 . S
C1000 C999 1.524 . S
C1000 C1001 1.415 . S
C1001 H971 0.950 1_455 S
C1001 C996 1.363 . S
C1001 C1000 1.415 . S
H1002 C999 0.999 . S
H1003 C984 0.911 . S
H1004 C1022 0.951 . S
H1005 C1024 0.951 . S
H1006 C1026 0.950 1_565 S
H1007 C1027 0.950 1_565 S
H1008 C1029 0.950 . S
H1009 C1032 0.950 . S
H1010 C1033 0.950 . S
H1011 C1035 0.950 . S
H1012 C1036 0.950 . S
H1013 C1037 0.951 . S
H1014 C1039 0.951 . S
H1015 C1041 0.950 . S
H1016 C1042 0.950 . S
H1017 C1044 0.950 . S
H1018 C1047 0.950 . S
H1019 C1048 0.950 . S
H1020 C1050 0.950 . S
H1021 C1051 0.950 . S
C1022 H1004 0.951 . S
C1022 C1023 1.366 . S
C1022 C1024 1.388 . S
C1023 C1022 1.366 . S
C1023 C1027 1.385 . S
C1024 H1005 0.951 . S
C1024 C1022 1.388 . S
C1024 C1025 1.366 . S
C1025 C1024 1.366 . S
C1025 C1026 1.414 . S
C1025 C1028 1.499 . S
C1026 H1006 0.950 1_545 S
C1026 C1025 1.414 . S
C1026 C1027 1.374 . S
C1027 H1007 0.950 1_545 S
C1027 C1023 1.385 . S
C1027 C1026 1.374 . S
C1028 C1025 1.499 . S
C1028 C1029 1.373 . S
C1028 C1030 1.389 . S
C1029 H1008 0.950 . S
C1029 C1028 1.373 . S
C1029 C1045 1.377 . S
C1030 C1028 1.389 . S
C1030 C1031 1.524 . S
C1030 C1044 1.377 . S
C1031 C1030 1.524 . S
C1031 C1032 1.397 . S
C1031 C1036 1.363 . S
C1032 H1009 0.950 . S
C1032 C1031 1.397 . S
C1032 C1033 1.334 . S
C1033 H1010 0.950 . S
C1033 C1032 1.334 . S
C1033 C1034 1.287 . S
C1034 C1033 1.287 . S
C1034 C1035 1.524 . S
C1034 H1053 0.913 . S
C1035 H1011 0.950 . S
C1035 C1034 1.524 . S
C1035 C1036 1.415 . S
C1036 H1012 0.950 . S
C1036 C1031 1.363 . S
C1036 C1035 1.415 . S
C1037 H1013 0.951 . S
C1037 C1038 1.366 . S
C1037 C1039 1.388 . S
C1038 C1037 1.366 . S
C1038 C1042 1.385 . S
C1039 H1014 0.951 . S
C1039 C1037 1.388 . S
C1039 C1040 1.366 . S
C1040 C1039 1.366 . S
C1040 C1041 1.414 . S
C1040 C1043 1.499 . S
C1041 H1015 0.950 . S
C1041 C1040 1.414 . S
C1041 C1042 1.374 . S
C1042 H1016 0.950 . S
C1042 C1038 1.385 . S
C1042 C1041 1.374 . S
C1043 C1040 1.499 . S
C1043 C1044 1.373 . S
C1043 C1045 1.389 . S
C1044 H1017 0.950 . S
C1044 C1030 1.377 . S
C1044 C1043 1.373 . S
C1045 C1029 1.377 . S
C1045 C1043 1.389 . S
C1045 C1046 1.535 . S
C1046 C1045 1.535 . S
C1046 C1047 1.397 . S
C1046 C1051 1.352 1_545 S
C1047 H1018 0.950 . S
C1047 C1046 1.397 . S
C1047 C1048 1.334 1_545 S
C1048 H1019 0.950 . S
C1048 C1047 1.334 1_565 S
C1048 C1049 1.287 . S
C1049 C1048 1.287 . S
C1049 C1050 1.524 . S
C1049 H1052 0.999 . S
C1050 H1020 0.950 . S
C1050 C1049 1.524 . S
C1050 C1051 1.415 . S
C1051 H1021 0.950 . S
C1051 C1046 1.352 1_565 S
C1051 C1050 1.415 . S
H1052 C1049 0.999 . S
H1053 C1034 0.913 . S
H1054 C1072 0.951 . S
H1055 C1074 0.951 . S
H1056 C1076 0.950 . S
H1057 C1077 0.950 . S
H1058 C1079 0.950 . S
H1059 C1082 0.950 . S
H1060 C1083 0.950 . S
H1061 C1085 0.950 . S
H1062 C1086 0.950 . S
H1063 C1087 0.951 . S
H1064 C1089 0.951 . S
H1065 C1091 0.950 . S
H1066 C1092 0.950 . S
H1067 C1094 0.950 . S
H1068 C1097 0.950 . S
H1069 C1098 0.950 . S
H1070 C1100 0.950 . S
H1071 C1101 0.950 . S
C1072 H1054 0.951 . S
C1072 C1073 1.366 . S
C1072 C1074 1.388 . S
C1073 C1072 1.366 . S
C1073 C1077 1.385 . S
C1074 H1055 0.951 . S
C1074 C1072 1.388 . S
C1074 C1075 1.366 . S
C1075 C1074 1.366 . S
C1075 C1076 1.414 . S
C1075 C1078 1.499 . S
C1076 H1056 0.950 . S
C1076 C1075 1.414 . S
C1076 C1077 1.374 . S
C1077 H1057 0.950 . S
C1077 C1073 1.385 . S
C1077 C1076 1.374 . S
C1078 C1075 1.499 . S
C1078 C1079 1.373 . S
C1078 C1080 1.389 . S
C1079 H1058 0.950 . S
C1079 C1078 1.373 . S
C1079 C1095 1.377 . S
C1080 C1078 1.389 . S
C1080 C1081 1.524 . S
C1080 C1094 1.377 . S
C1081 C1080 1.524 . S
C1081 C1082 1.397 . S
C1081 C1086 1.363 . S
C1082 H1059 0.950 . S
C1082 C1081 1.397 . S
C1082 C1083 1.334 . S
C1083 H1060 0.950 . S
C1083 C1082 1.334 . S
C1083 C1084 1.287 . S
C1084 C1083 1.287 . S
C1084 C1085 1.524 . S
C1084 H1103 0.913 . S
C1085 H1061 0.950 . S
C1085 C1084 1.524 . S
C1085 C1086 1.415 . S
C1086 H1062 0.950 . S
C1086 C1081 1.363 . S
C1086 C1085 1.415 . S
C1087 H1063 0.951 . S
C1087 C1088 1.366 . S
C1087 C1089 1.388 . S
C1088 C1087 1.366 . S
C1088 C1092 1.385 . S
C1089 H1064 0.951 . S
C1089 C1087 1.388 . S
C1089 C1090 1.366 . S
C1090 C1089 1.366 . S
C1090 C1091 1.414 . S
C1090 C1093 1.499 . S
C1091 H1065 0.950 . S
C1091 C1090 1.414 . S
C1091 C1092 1.374 . S
C1092 H1066 0.950 . S
C1092 C1088 1.385 . S
C1092 C1091 1.374 . S
C1093 C1090 1.499 . S
C1093 C1094 1.373 . S
C1093 C1095 1.389 . S
C1094 H1067 0.950 . S
C1094 C1080 1.377 . S
C1094 C1093 1.373 . S
C1095 C1079 1.377 . S
C1095 C1093 1.389 . S
C1095 C1096 1.524 . S
C1096 C1095 1.524 . S
C1096 C1097 1.397 . S
C1096 C1101 1.363 . S
C1097 H1068 0.950 . S
C1097 C1096 1.397 . S
C1097 C1098 1.334 . S
C1098 H1069 0.950 . S
C1098 C1097 1.334 . S
C1098 C1099 1.287 . S
C1099 C1098 1.287 . S
C1099 C1100 1.524 . S
C1099 H1102 0.999 . S
C1100 H1070 0.950 . S
C1100 C1099 1.524 . S
C1100 C1101 1.415 . S
C1101 H1071 0.950 . S
C1101 C1096 1.363 . S
C1101 C1100 1.415 . S
H1102 C1099 0.999 . S
H1103 C1084 0.913 . S
H1104 C1122 0.951 . S
H1105 C1124 0.951 . S
H1106 C1126 0.950 1_565 S
H1107 C1127 0.950 1_565 S
H1108 C1129 0.950 . S
H1109 C1132 0.950 . S
H1110 C1133 0.950 . S
H1111 C1135 0.950 . S
H1112 C1136 0.950 . S
H1113 C1137 0.951 . S
H1114 C1139 0.951 . S
H1115 C1141 0.950 . S
H1116 C1142 0.950 . S
H1117 C1144 0.950 . S
H1118 C1147 0.950 . S
H1119 C1148 0.950 . S
H1120 C1150 0.950 . S
H1121 C1151 0.950 . S
C1122 H1104 0.951 . S
C1122 C1123 1.366 . S
C1122 C1124 1.388 . S
C1123 C1122 1.366 . S
C1123 C1127 1.385 . S
C1124 H1105 0.951 . S
C1124 C1122 1.388 . S
C1124 C1125 1.366 . S
C1125 C1124 1.366 . S
C1125 C1126 1.414 . S
C1125 C1128 1.499 . S
C1126 H1106 0.950 1_545 S
C1126 C1125 1.414 . S
C1126 C1127 1.374 . S
C1127 H1107 0.950 1_545 S
C1127 C1123 1.385 . S
C1127 C1126 1.374 . S
C1128 C1125 1.499 . S
C1128 C1129 1.373 1_545 S
C1128 C1130 1.389 . S
C1129 H1108 0.950 . S
C1129 C1128 1.373 1_565 S
C1129 C1145 1.377 . S
C1130 C1128 1.389 . S
C1130 C1131 1.524 . S
C1130 C1144 1.377 . S
C1131 C1130 1.524 . S
C1131 C1132 1.397 . S
C1131 C1136 1.363 . S
C1132 H1109 0.950 . S
C1132 C1131 1.397 . S
C1132 C1133 1.334 . S
C1133 H1110 0.950 . S
C1133 C1132 1.334 . S
C1133 C1134 1.287 . S
C1134 C1133 1.287 . S
C1134 C1135 1.524 . S
C1134 H1153 0.913 . S
C1135 H1111 0.950 . S
C1135 C1134 1.524 . S
C1135 C1136 1.415 . S
C1136 H1112 0.950 . S
C1136 C1131 1.363 . S
C1136 C1135 1.415 . S
C1137 H1113 0.951 . S
C1137 C1138 1.366 1_565 S
C1137 C1139 1.388 . S
C1138 C1137 1.366 1_545 S
C1138 C1142 1.385 . S
C1139 H1114 0.951 . S
C1139 C1137 1.388 . S
C1139 C1140 1.366 1_565 S
C1140 C1139 1.366 1_545 S
C1140 C1141 1.414 . S
C1140 C1143 1.499 . S
C1141 H1115 0.950 . S
C1141 C1140 1.414 . S
C1141 C1142 1.374 . S
C1142 H1116 0.950 . S
C1142 C1138 1.385 . S
C1142 C1141 1.374 . S
C1143 C1140 1.499 . S
C1143 C1144 1.373 . S
C1143 C1145 1.389 1_545 S
C1144 H1117 0.950 . S
C1144 C1130 1.377 . S
C1144 C1143 1.373 . S
C1145 C1129 1.377 . S
C1145 C1143 1.389 1_565 S
C1145 C1146 1.524 . S
C1146 C1145 1.524 . S
C1146 C1147 1.397 . S
C1146 C1151 1.363 . S
C1147 H1118 0.950 . S
C1147 C1146 1.397 . S
C1147 C1148 1.334 . S
C1148 H1119 0.950 . S
C1148 C1147 1.334 . S
C1148 C1149 1.287 . S
C1149 C1148 1.287 . S
C1149 C1150 1.524 . S
C1149 H1152 0.999 . S
C1150 H1120 0.950 . S
C1150 C1149 1.524 . S
C1150 C1151 1.415 . S
C1151 H1121 0.950 . S
C1151 C1146 1.363 . S
C1151 C1150 1.415 . S
H1152 C1149 0.999 . S
H1153 C1134 0.913 . S
H1154 C1172 0.951 . S
H1155 C1174 0.951 . S
H1156 C1176 0.950 . S
H1157 C1177 0.950 . S
H1158 C1179 0.950 . S
H1159 C1182 0.950 . S
H1160 C1183 0.950 . S
H1161 C1185 0.950 . S
H1162 C1186 0.950 . S
H1163 C1187 0.951 . S
H1164 C1189 0.951 . S
H1165 C1191 0.950 . S
H1166 C1192 0.950 . S
H1167 C1194 0.950 . S
H1168 C1197 0.950 . S
H1169 C1198 0.950 . S
H1170 C1200 0.950 . S
H1171 C1201 0.950 . S
C1172 H1154 0.951 . S
C1172 C1173 1.366 . S
C1172 C1174 1.388 . S
C1173 C1172 1.366 . S
C1173 C1177 1.385 . S
C1174 H1155 0.951 . S
C1174 C1172 1.388 . S
C1174 C1175 1.366 . S
C1175 C1174 1.366 . S
C1175 C1176 1.414 . S
C1175 C1178 1.499 . S
C1176 H1156 0.950 . S
C1176 C1175 1.414 . S
C1176 C1177 1.374 . S
C1177 H1157 0.950 . S
C1177 C1173 1.385 . S
C1177 C1176 1.374 . S
C1178 C1175 1.499 . S
C1178 C1179 1.373 . S
C1178 C1180 1.389 . S
C1179 H1158 0.950 . S
C1179 C1178 1.373 . S
C1179 C1195 1.377 . S
C1180 C1178 1.389 . S
C1180 C1181 1.524 . S
C1180 C1194 1.377 . S
C1181 C1180 1.524 . S
C1181 C1182 1.397 . S
C1181 C1186 1.363 . S
C1182 H1159 0.950 . S
C1182 C1181 1.397 . S
C1182 C1183 1.334 . S
C1183 H1160 0.950 . S
C1183 C1182 1.334 . S
C1183 C1184 1.287 . S
C1184 C1183 1.287 . S
C1184 C1185 1.524 . S
C1184 H1203 0.913 . S
C1185 H1161 0.950 . S
C1185 C1184 1.524 . S
C1185 C1186 1.415 . S
C1186 H1162 0.950 . S
C1186 C1181 1.363 . S
C1186 C1185 1.415 . S
C1187 H1163 0.951 . S
C1187 C1188 1.366 . S
C1187 C1189 1.388 1_554 S
C1188 C1187 1.366 . S
C1188 C1192 1.385 . S
C1189 H1164 0.951 . S
C1189 C1187 1.388 1_556 S
C1189 C1190 1.366 . S
C1190 C1189 1.366 . S
C1190 C1191 1.414 . S
C1190 C1193 1.499 . S
C1191 H1165 0.950 . S
C1191 C1190 1.414 . S
C1191 C1192 1.374 1_556 S
C1192 H1166 0.950 . S
C1192 C1188 1.385 . S
C1192 C1191 1.374 1_554 S
C1193 C1190 1.499 . S
C1193 C1194 1.373 . S
C1193 C1195 1.389 . S
C1194 H1167 0.950 . S
C1194 C1180 1.377 . S
C1194 C1193 1.373 . S
C1195 C1179 1.377 . S
C1195 C1193 1.389 . S
C1195 C1196 1.524 . S
C1196 C1195 1.524 . S
C1196 C1197 1.397 . S
C1196 C1201 1.363 . S
C1197 H1168 0.950 . S
C1197 C1196 1.397 . S
C1197 C1198 1.334 . S
C1198 H1169 0.950 . S
C1198 C1197 1.334 . S
C1198 C1199 1.287 . S
C1199 C1198 1.287 . S
C1199 C1200 1.524 . S
C1199 H1202 0.999 . S
C1200 H1170 0.950 . S
C1200 C1199 1.524 . S
C1200 C1201 1.415 . S
C1201 H1171 0.950 . S
C1201 C1196 1.363 . S
C1201 C1200 1.415 . S
H1202 C1199 0.999 . S
H1203 C1184 0.913 . S
H1204 C1222 0.951 . S
H1205 C1224 0.951 . S
H1206 C1226 0.950 . S
H1207 C1227 0.950 . S
H1208 C1229 0.950 . S
H1209 C1232 0.950 . S
H1210 C1233 0.950 . S
H1211 C1235 0.950 . S
H1212 C1236 0.950 . S
H1213 C1237 0.951 . S
H1214 C1239 0.951 . S
H1215 C1241 0.950 . S
H1216 C1242 0.950 . S
H1217 C1244 0.950 . S
H1218 C1247 0.950 . S
H1219 C1248 0.950 . S
H1220 C1250 0.950 . S
H1221 C1251 0.950 . S
C1222 H1204 0.951 . S
C1222 C1223 1.366 1_655 S
C1222 C1224 1.388 . S
C1223 C1222 1.366 1_455 S
C1223 C1227 1.385 . S
C1224 H1205 0.951 . S
C1224 C1222 1.388 . S
C1224 C1225 1.366 1_655 S
C1225 C1224 1.366 1_455 S
C1225 C1226 1.414 . S
C1225 C1228 1.499 . S
C1226 H1206 0.950 . S
C1226 C1225 1.414 . S
C1226 C1227 1.374 . S
C1227 H1207 0.950 . S
C1227 C1223 1.385 . S
C1227 C1226 1.374 . S
C1228 C1225 1.499 . S
C1228 C1229 1.373 . S
C1228 C1230 1.389 1_455 S
C1229 H1208 0.950 . S
C1229 C1228 1.373 . S
C1229 C1245 1.377 . S
C1230 C1228 1.389 1_655 S
C1230 C1231 1.524 . S
C1230 C1244 1.377 . S
C1231 C1230 1.524 . S
C1231 C1232 1.397 . S
C1231 C1236 1.363 . S
C1232 H1209 0.950 . S
C1232 C1231 1.397 . S
C1232 C1233 1.334 . S
C1233 H1210 0.950 . S
C1233 C1232 1.334 . S
C1233 C1234 1.287 . S
C1234 C1233 1.287 . S
C1234 C1235 1.524 . S
C1234 H1253 0.913 . S
C1235 H1211 0.950 . S
C1235 C1234 1.524 . S
C1235 C1236 1.415 . S
C1236 H1212 0.950 . S
C1236 C1231 1.363 . S
C1236 C1235 1.415 . S
C1237 H1213 0.951 . S
C1237 C1238 1.365 . S
C1237 C1239 1.388 . S
C1238 C1237 1.365 . S
C1238 C1242 1.385 1_455 S
C1239 H1214 0.951 . S
C1239 C1237 1.388 . S
C1239 C1240 1.366 . S
C1240 C1239 1.366 . S
C1240 C1241 1.414 1_455 S
C1240 C1243 1.499 . S
C1241 H1215 0.950 . S
C1241 C1240 1.414 1_655 S
C1241 C1242 1.374 . S
C1242 H1216 0.950 . S
C1242 C1238 1.385 1_655 S
C1242 C1241 1.374 . S
C1243 C1240 1.499 . S
C1243 C1244 1.373 1_455 S
C1243 C1245 1.389 . S
C1244 H1217 0.950 . S
C1244 C1230 1.377 . S
C1244 C1243 1.373 1_655 S
C1245 C1229 1.377 . S
C1245 C1243 1.389 . S
C1245 C1246 1.524 . S
C1246 C1245 1.524 . S
C1246 C1247 1.397 . S
C1246 C1251 1.363 . S
C1247 H1218 0.950 . S
C1247 C1246 1.397 . S
C1247 C1248 1.334 . S
C1248 H1219 0.950 . S
C1248 C1247 1.334 . S
C1248 C1249 1.287 . S
C1249 C1248 1.287 . S
C1249 C1250 1.524 . S
C1249 H1252 0.999 . S
C1250 H1220 0.950 . S
C1250 C1249 1.524 . S
C1250 C1251 1.415 . S
C1251 H1221 0.950 . S
C1251 C1246 1.363 . S
C1251 C1250 1.415 . S
H1252 C1249 0.999 . S
H1253 C1234 0.913 . S
C373 C24 2.858 . S
C388 C331 2.822 . S
C423 C66 1.033 . S
C438 C258 1.049 . S
C473 C93 1.734 . S
C488 C297 1.709 . S
C523 C13 2.996 . S
C538 C336 2.953 . S
C588 C253 1.223 . S
C573 C57 1.232 . S
C638 C292 1.861 . S
C623 C104 1.903 . S
C673 C64 1.901 . S
C688 C180 1.858 . S
C723 C97 0.386 . S
C738 C214 0.400 . S
C773 C17 1.204 . S
C788 C136 1.205 . S
C838 C175 1.704 . S
C823 C53 1.733 . S
C888 C219 0.126 . S
C873 C106 0.301 . S
C923 C26 1.053 . S
C938 C141 1.064 . S
C988 C199 1.098 . S
C973 C2 1.081 . S
C1023 C63 1.462 . S
C1038 C121 1.504 . S
C1073 C82 1.372 . S
C1088 C160 1.392 . S
C1138 C277 1.407 . S
C1123 C42 1.386 . S
C1188 C316 1.780 . S
C1173 C103 1.733 . S
C1223 C23 1.471 . S
C1238 C238 1.506 . S
