# Generated by pormake.
# Topology apo, (3,6)-cn, num edge types: 1
# Building blocks:
#     Node 0, Type 0, BuildingBlock: BETDAH_clean_linker_0, # of connection points: 3
#     Node 1, Type 0, BuildingBlock: BETDAH_clean_linker_0, # of connection points: 3
#     Node 2, Type 0, BuildingBlock: BETDAH_clean_linker_0, # of connection points: 3
#     Node 3, Type 0, BuildingBlock: BETDAH_clean_linker_0, # of connection points: 3
#     Node 4, Type 0, BuildingBlock: BETDAH_clean_linker_0, # of connection points: 3
#     Node 5, Type 0, BuildingBlock: BETDAH_clean_linker_0, # of connection points: 3
#     Node 6, Type 0, BuildingBlock: BETDAH_clean_linker_0, # of connection points: 3
#     Node 7, Type 0, BuildingBlock: BETDAH_clean_linker_0, # of connection points: 3
#     Node 8, Type 1, BuildingBlock: KUMBOL_clean_sbu_1, # of connection points: 6
#     Node 9, Type 1, BuildingBlock: KUMBOL_clean_sbu_1, # of connection points: 6
#     Node 10, Type 1, BuildingBlock: KUMBOL_clean_sbu_1, # of connection points: 6
#     Node 11, Type 1, BuildingBlock: KUMBOL_clean_sbu_1, # of connection points: 6
#     Edge 12, Type (0, 1), BuildingBlock: UVAHIK_clean_linker_0, # of connection points: 2
#     Edge 13, Type (0, 1), BuildingBlock: UVAHIK_clean_linker_0, # of connection points: 2
#     Edge 14, Type (0, 1), BuildingBlock: UVAHIK_clean_linker_0, # of connection points: 2
#     Edge 15, Type (0, 1), BuildingBlock: UVAHIK_clean_linker_0, # of connection points: 2
#     Edge 16, Type (0, 1), BuildingBlock: UVAHIK_clean_linker_0, # of connection points: 2
#     Edge 17, Type (0, 1), BuildingBlock: UVAHIK_clean_linker_0, # of connection points: 2
#     Edge 18, Type (0, 1), BuildingBlock: UVAHIK_clean_linker_0, # of connection points: 2
#     Edge 19, Type (0, 1), BuildingBlock: UVAHIK_clean_linker_0, # of connection points: 2
#     Edge 20, Type (0, 1), BuildingBlock: UVAHIK_clean_linker_0, # of connection points: 2
#     Edge 21, Type (0, 1), BuildingBlock: UVAHIK_clean_linker_0, # of connection points: 2
#     Edge 22, Type (0, 1), BuildingBlock: UVAHIK_clean_linker_0, # of connection points: 2
#     Edge 23, Type (0, 1), BuildingBlock: UVAHIK_clean_linker_0, # of connection points: 2
#     Edge 24, Type (0, 1), BuildingBlock: UVAHIK_clean_linker_0, # of connection points: 2
#     Edge 25, Type (0, 1), BuildingBlock: UVAHIK_clean_linker_0, # of connection points: 2
#     Edge 26, Type (0, 1), BuildingBlock: UVAHIK_clean_linker_0, # of connection points: 2
#     Edge 27, Type (0, 1), BuildingBlock: UVAHIK_clean_linker_0, # of connection points: 2
#     Edge 28, Type (0, 1), BuildingBlock: UVAHIK_clean_linker_0, # of connection points: 2
#     Edge 29, Type (0, 1), BuildingBlock: UVAHIK_clean_linker_0, # of connection points: 2
#     Edge 30, Type (0, 1), BuildingBlock: UVAHIK_clean_linker_0, # of connection points: 2
#     Edge 31, Type (0, 1), BuildingBlock: UVAHIK_clean_linker_0, # of connection points: 2
#     Edge 32, Type (0, 1), BuildingBlock: UVAHIK_clean_linker_0, # of connection points: 2
#     Edge 33, Type (0, 1), BuildingBlock: UVAHIK_clean_linker_0, # of connection points: 2
#     Edge 34, Type (0, 1), BuildingBlock: UVAHIK_clean_linker_0, # of connection points: 2
#     Edge 35, Type (0, 1), BuildingBlock: UVAHIK_clean_linker_0, # of connection points: 2
# Relax obj value: 0.037
# Max RMSD: 0.208
# Mean RMSD: 0.149
data_MOF--net-apo--node1-KUMBOL_clean_sbu_1--node2-BETDAH_clean_linker_0--edge1-UVAHIK_clean_linker_0
_symmetry_space_group_name_H-M    P1
_symmetry_Int_Tables_number       1
_symmetry_cell_setting            triclinic
loop_
_symmetry_equiv_pos_as_xyz
'x, y, z'
_cell_length_a     35.090796
_cell_length_b     54.852991
_cell_length_c     65.321465
_cell_angle_alpha  89.625216
_cell_angle_beta   89.992375
_cell_angle_gamma 90.301515
loop_
_atom_site_label
_atom_site_type_symbol
_atom_site_fract_x
_atom_site_fract_y
_atom_site_fract_z
_atom_type_partial_charge
H0 H 0.31682 0.4108 0.42951 0.0
H1 H 0.27863 0.36583 0.37935 0.0
H2 H 0.28374 0.33666 0.44045 0.0
C3 C 0.30551 0.39376 0.4237 0.0
C4 C 0.30044 0.37426 0.43728 0.0
C5 C 0.29901 0.39085 0.40258 0.0
C6 C 0.28329 0.36865 0.39555 0.0
C7 C 0.27718 0.34922 0.40941 0.0
C8 C 0.2867 0.35203 0.43003 0.0
N9 N 0.2662 0.32562 0.40296 0.0
C10 C 0.24015 0.32035 0.38762 0.0
H11 H 0.20154 0.09633 0.92956 0.0
H12 H 0.23763 0.14023 0.878 0.0
H13 H 0.24341 0.16914 0.93872 0.0
C14 C 0.21385 0.113 0.92346 0.0
C15 C 0.22204 0.13223 0.93686 0.0
C16 C 0.21867 0.11559 0.90214 0.0
C17 C 0.23488 0.13741 0.89437 0.0
C18 C 0.24399 0.15663 0.90774 0.0
C19 C 0.2373 0.1539 0.92875 0.0
N20 N 0.25331 0.18032 0.90046 0.0
C21 C 0.28161 0.18609 0.88633 0.0
H22 H 0.83499 0.10095 0.57828 0.0
H23 H 0.77084 0.14227 0.62231 0.0
H24 H 0.76529 0.16039 0.55825 0.0
C25 C 0.81611 0.11588 0.58194 0.0
C26 C 0.80231 0.13048 0.566 0.0
C27 C 0.80543 0.12001 0.60238 0.0
C28 C 0.77937 0.13881 0.60667 0.0
C29 C 0.76463 0.15318 0.59056 0.0
C30 C 0.77618 0.14886 0.57044 0.0
N31 N 0.73804 0.17215 0.59363 0.0
C32 C 0.72858 0.18244 0.61226 0.0
H33 H 0.68738 0.41035 0.07873 0.0
H34 H 0.75466 0.37159 0.12353 0.0
H35 H 0.75958 0.35193 0.05981 0.0
C36 C 0.70793 0.39634 0.08259 0.0
C37 C 0.72233 0.38166 0.06707 0.0
C38 C 0.71917 0.39283 0.10303 0.0
C39 C 0.74582 0.37443 0.10782 0.0
C40 C 0.76048 0.35963 0.09208 0.0
C41 C 0.74864 0.36348 0.07185 0.0
N42 N 0.78732 0.34078 0.09557 0.0
C43 C 0.79615 0.32982 0.11421 0.0
H44 H 0.68141 0.6042 0.57611 0.0
H45 H 0.75795 0.63668 0.61978 0.0
H46 H 0.75861 0.66127 0.55725 0.0
C47 C 0.70394 0.61713 0.57952 0.0
C48 C 0.71752 0.63285 0.56403 0.0
C49 C 0.71865 0.61799 0.59957 0.0
C50 C 0.74626 0.63585 0.60446 0.0
C51 C 0.76041 0.65156 0.58903 0.0
C52 C 0.74645 0.64959 0.56901 0.0
N53 N 0.79062 0.66842 0.59241 0.0
C54 C 0.79887 0.68041 0.6106 0.0
H55 H 0.80827 0.91911 0.07862 0.0
H56 H 0.76802 0.84804 0.06121 0.0
H57 H 0.76405 0.86933 0.12422 0.0
C58 C 0.79502 0.9018 0.08255 0.0
C59 C 0.7865 0.89649 0.10314 0.0
C60 C 0.78863 0.88443 0.06724 0.0
C61 C 0.77213 0.86202 0.07267 0.0
C62 C 0.76239 0.85661 0.09289 0.0
C63 C 0.76991 0.87378 0.10835 0.0
N64 N 0.74786 0.83288 0.09679 0.0
C65 C 0.7283 0.82498 0.11406 0.0
H66 H 0.18174 0.90691 0.42273 0.0
H67 H 0.25412 0.86988 0.37966 0.0
H68 H 0.25086 0.84706 0.44278 0.0
C69 C 0.20245 0.89288 0.41939 0.0
C70 C 0.21407 0.87708 0.43506 0.0
C71 C 0.21667 0.89055 0.39936 0.0
C72 C 0.2425 0.87162 0.39494 0.0
C73 C 0.25502 0.85602 0.41078 0.0
C74 C 0.24073 0.85894 0.43064 0.0
N75 N 0.28424 0.83854 0.40808 0.0
C76 C 0.2924 0.82559 0.39039 0.0
H77 H 0.31545 0.59343 0.92019 0.0
H78 H 0.28069 0.66675 0.93216 0.0
H79 H 0.27753 0.63994 0.8707 0.0
C80 C 0.30332 0.61038 0.91469 0.0
C81 C 0.29614 0.61378 0.89366 0.0
C82 C 0.29709 0.62917 0.9287 0.0
C83 C 0.28353 0.65166 0.92164 0.0
C84 C 0.27631 0.6555 0.90082 0.0
C85 C 0.28206 0.6365 0.88687 0.0
N86 N 0.27163 0.67972 0.89381 0.0
C87 C 0.2384 0.68876 0.8852 0.0
C88 C 0.88169 0.08883 0.2558 0.0
C89 C 0.87811 0.04516 0.26201 0.0
C90 C 0.89879 0.06727 0.26242 0.0
C91 C 0.84042 0.04496 0.25478 0.0
C92 C 0.84399 0.08862 0.24836 0.0
C93 C 0.82343 0.0666 0.24797 0.0
N94 N 0.90226 0.1099 0.25619 0.0
C95 C 0.88688 0.13138 0.24967 0.0
C96 C 0.82808 0.11055 0.24146 0.0
C97 C 0.84965 0.13201 0.2421 0.0
Gd98 Gd 0.05257 0.10467 0.23197 0.0
Gd99 Gd 0.96317 0.10694 0.27033 0.0
N100 N 0.93563 0.06789 0.26907 0.0
C101 C 0.89582 0.02391 0.26905 0.0
C102 C 0.95226 0.04745 0.27689 0.0
C103 C 0.93292 0.02511 0.27667 0.0
H104 H 0.97981 0.04825 0.28396 0.0
H105 H 0.94642 0.00891 0.28275 0.0
H106 H 0.03834 0.16197 0.21395 0.0
H107 H 0.90293 0.14815 0.25079 0.0
H108 H 0.07293 0.20087 0.21247 0.0
H109 H 0.88084 0.00658 0.26905 0.0
H110 H 0.82411 0.02814 0.25442 0.0
H111 H 0.11279 0.06445 0.25319 0.0
H112 H 0.79917 0.11113 0.23566 0.0
H113 H 0.83749 0.14908 0.23697 0.0
H114 H 0.19488 0.18284 0.24171 0.0
H115 H 0.79436 0.0661 0.2424 0.0
H116 H 0.21783 0.10143 0.26541 0.0
H117 H 0.17849 0.06389 0.26655 0.0
N118 N 0.11397 0.10225 0.24585 0.0
C119 C 0.13527 0.12299 0.24471 0.0
C120 C 0.12912 0.08115 0.25338 0.0
C121 C 0.18874 0.10188 0.25986 0.0
C122 C 0.16658 0.08068 0.26062 0.0
C123 C 0.17324 0.12336 0.2518 0.0
H124 H 0.22374 0.14569 0.25596 0.0
N125 N 0.08191 0.14324 0.2302 0.0
C126 C 0.11879 0.14406 0.23674 0.0
C127 C 0.12312 0.1866 0.22711 0.0
C128 C 0.14021 0.16586 0.23554 0.0
C129 C 0.06592 0.16308 0.22097 0.0
C130 C 0.08595 0.18513 0.21964 0.0
O131 O 0.95423 0.09146 0.23854 0.0
O132 O 0.01117 0.07314 0.23189 0.0
O133 O 0.0553 0.10883 0.19824 0.0
O134 O 0.09129 0.08282 0.21469 0.0
O135 O 0.01683 0.08795 0.28142 0.0
O136 O 0.04187 0.07176 0.25198 0.0
O137 O 0.06227 0.12315 0.26273 0.0
O138 O 0.00377 0.13877 0.27191 0.0
O139 O 0.9588 0.09894 0.30291 0.0
O140 O 0.92253 0.12623 0.28911 0.0
O141 O 0.99985 0.12559 0.22169 0.0
O142 O 0.97391 0.14081 0.25157 0.0
C143 C 0.97438 0.07502 0.22898 0.0
C144 C 0.03919 0.07243 0.27201 0.0
C145 C 0.10059 0.08403 0.17819 0.0
C146 C 0.11068 0.08541 0.14118 0.0
C147 C 0.14619 0.05682 0.16226 0.0
C148 C 0.12782 0.06534 0.17963 0.0
C149 C 0.13767 0.06669 0.14318 0.0
C150 C 0.09229 0.0943 0.15882 0.0
C151 C 0.08199 0.0924 0.1972 0.0
C152 C 0.17804 0.16626 0.24256 0.0
C153 C 0.1945 0.14508 0.25065 0.0
H154 H 0.13865 0.20368 0.22589 0.0
C155 C 0.04121 0.13885 0.2728 0.0
C156 C 0.97862 0.14146 0.23159 0.0
C157 C 0.93791 0.13093 0.32405 0.0
C158 C 0.93401 0.13551 0.36104 0.0
C159 C 0.95255 0.16993 0.33959 0.0
C160 C 0.94881 0.1555 0.32217 0.0
C161 C 0.94535 0.16 0.35895 0.0
C162 C 0.93031 0.12104 0.34351 0.0
C163 C 0.93295 0.11547 0.30597 0.0
H164 H 0.16722 0.04253 0.1636 0.0
H165 H 0.13514 0.05722 0.19426 0.0
H166 H 0.15273 0.05992 0.12991 0.0
H167 H 0.07168 0.10886 0.15743 0.0
H168 H 0.96064 0.18893 0.33806 0.0
H169 H 0.95398 0.16358 0.30727 0.0
H170 H 0.94762 0.17161 0.37226 0.0
H171 H 0.92129 0.10217 0.345 0.0
C172 C 0.64112 0.42218 0.76 0.0
C173 C 0.64263 0.46474 0.76996 0.0
C174 C 0.62313 0.4423 0.76833 0.0
C175 C 0.68003 0.46688 0.76249 0.0
C176 C 0.67934 0.42399 0.75338 0.0
C177 C 0.69835 0.44655 0.75423 0.0
N178 N 0.62215 0.40053 0.75959 0.0
C179 C 0.64116 0.3796 0.7547 0.0
C180 C 0.69783 0.4029 0.74681 0.0
C181 C 0.67883 0.38053 0.74782 0.0
Gd182 Gd 0.4693 0.40127 0.72988 0.0
Gd183 Gd 0.55831 0.40143 0.7711 0.0
N184 N 0.58694 0.43972 0.77547 0.0
C185 C 0.62426 0.4842 0.77952 0.0
C186 C 0.56959 0.4582 0.78574 0.0
C187 C 0.58777 0.48082 0.78766 0.0
H188 H 0.54158 0.45551 0.79222 0.0
H189 H 0.57368 0.4956 0.79547 0.0
H190 H 0.47052 0.34784 0.70385 0.0
H191 H 0.62728 0.362 0.75603 0.0
H192 H 0.4308 0.31111 0.70074 0.0
H193 H 0.63831 0.50172 0.78108 0.0
H194 H 0.69538 0.48402 0.76347 0.0
H195 H 0.41137 0.44408 0.74963 0.0
H196 H 0.72716 0.40354 0.74165 0.0
H197 H 0.69329 0.36396 0.7435 0.0
H198 H 0.31783 0.32961 0.73869 0.0
H199 H 0.72758 0.44831 0.74905 0.0
H200 H 0.30661 0.40963 0.76679 0.0
H201 H 0.34818 0.44618 0.76578 0.0
N202 N 0.4078 0.40608 0.74359 0.0
C203 C 0.3844 0.38629 0.74268 0.0
C204 C 0.3945 0.42769 0.75089 0.0
C205 C 0.33481 0.40846 0.76012 0.0
C206 C 0.35823 0.42909 0.75965 0.0
C207 C 0.34743 0.38685 0.75117 0.0
H208 H 0.29559 0.36614 0.75663 0.0
N209 N 0.43238 0.36592 0.72407 0.0
C210 C 0.39695 0.36569 0.73252 0.0
C211 C 0.38558 0.32513 0.71948 0.0
C212 C 0.37277 0.34516 0.73064 0.0
C213 C 0.444 0.34694 0.71216 0.0
C214 C 0.42113 0.32618 0.70996 0.0
O215 O 0.5521 0.43379 0.7498 0.0
O216 O 0.52901 0.41427 0.72162 0.0
O217 O 0.45699 0.39709 0.69741 0.0
O218 O 0.44817 0.43227 0.71242 0.0
O219 O 0.50041 0.41485 0.78081 0.0
O220 O 0.4781 0.43306 0.75133 0.0
O221 O 0.45953 0.381 0.75976 0.0
O222 O 0.52014 0.36824 0.7684 0.0
O223 O 0.55903 0.40519 0.80484 0.0
O224 O 0.59117 0.37673 0.78932 0.0
O225 O 0.51195 0.37155 0.72435 0.0
O226 O 0.56758 0.37808 0.74329 0.0
C227 C 0.54674 0.43288 0.72995 0.0
C228 C 0.48054 0.4318 0.77143 0.0
C229 C 0.43349 0.43023 0.67599 0.0
C230 C 0.41574 0.42589 0.64013 0.0
C231 C 0.41464 0.46571 0.65607 0.0
C232 C 0.42667 0.4554 0.67451 0.0
C233 C 0.40907 0.45105 0.63897 0.0
C234 C 0.42819 0.41546 0.65862 0.0
C235 C 0.4465 0.4197 0.69557 0.0
C236 C 0.33655 0.34532 0.73977 0.0
C237 C 0.32391 0.36611 0.75002 0.0
H238 H 0.3679 0.30902 0.71772 0.0
C239 C 0.48287 0.36674 0.77005 0.0
C240 C 0.54767 0.36697 0.72903 0.0
C241 C 0.59751 0.37694 0.82587 0.0
C242 C 0.60729 0.37873 0.8627 0.0
C243 C 0.63451 0.34563 0.84321 0.0
C244 C 0.61909 0.35538 0.82535 0.0
C245 C 0.62862 0.3572 0.8618 0.0
C246 C 0.5917 0.38872 0.8447 0.0
C247 C 0.58237 0.38688 0.80652 0.0
H248 H 0.40943 0.4851 0.65505 0.0
H249 H 0.43073 0.46716 0.6876 0.0
H250 H 0.39933 0.45932 0.62481 0.0
H251 H 0.4331 0.39599 0.65951 0.0
H252 H 0.65114 0.32908 0.84263 0.0
H253 H 0.62423 0.34596 0.81109 0.0
H254 H 0.64095 0.34941 0.87557 0.0
H255 H 0.5754 0.40543 0.84538 0.0
C256 C 0.8775 0.88261 0.76098 0.0
C257 C 0.87823 0.83904 0.76768 0.0
C258 C 0.89687 0.8619 0.76752 0.0
C259 C 0.84023 0.83728 0.76107 0.0
C260 C 0.83922 0.88093 0.75452 0.0
C261 C 0.82075 0.85817 0.75459 0.0
N262 N 0.89633 0.90432 0.76053 0.0
C263 C 0.87842 0.92509 0.75436 0.0
C264 C 0.8207 0.90218 0.74807 0.0
C265 C 0.84037 0.92438 0.74806 0.0
Gd266 Gd 0.0474 0.89999 0.73236 0.0
Gd267 Gd 0.95931 0.90391 0.7723 0.0
N268 N 0.93385 0.8641 0.77366 0.0
C269 C 0.89819 0.81864 0.77471 0.0
C270 C 0.95229 0.84457 0.78193 0.0
C271 C 0.93521 0.82149 0.78212 0.0
H272 H 0.97948 0.84668 0.78911 0.0
H273 H 0.95034 0.80601 0.78839 0.0
H274 H 0.03586 0.95775 0.71584 0.0
H275 H 0.89318 0.94232 0.75486 0.0
H276 H 0.07528 0.99451 0.71078 0.0
H277 H 0.88493 0.80076 0.77502 0.0
H278 H 0.82554 0.81986 0.76107 0.0
H279 H 0.1051 0.85783 0.75347 0.0
H280 H 0.79123 0.90166 0.74313 0.0
H281 H 0.82619 0.94095 0.74332 0.0
H282 H 0.19916 0.97115 0.73467 0.0
H283 H 0.79138 0.85652 0.74964 0.0
H284 H 0.21446 0.89069 0.76227 0.0
H285 H 0.17126 0.85513 0.76576 0.0
N286 N 0.1094 0.89524 0.74505 0.0
C287 C 0.13295 0.91476 0.74236 0.0
C288 C 0.12294 0.87385 0.75291 0.0
C289 C 0.18508 0.89216 0.75732 0.0
C290 C 0.16075 0.87209 0.75943 0.0
C291 C 0.17145 0.91375 0.7485 0.0
H292 H 0.22476 0.93374 0.75025 0.0
N293 N 0.08056 0.93692 0.72897 0.0
C294 C 0.11838 0.93596 0.73361 0.0
C295 C 0.1263 0.9778 0.72248 0.0
C296 C 0.14217 0.95653 0.7307 0.0
C297 C 0.06518 0.95742 0.72054 0.0
C298 C 0.08768 0.97822 0.71736 0.0
O299 O 0.94821 0.88689 0.74106 0.0
O300 O 0.0055 0.86894 0.73467 0.0
O301 O 0.04783 0.9038 0.69835 0.0
O302 O 0.08302 0.8771 0.71455 0.0
O303 O 0.01449 0.88675 0.78306 0.0
O304 O 0.03663 0.86859 0.7539 0.0
O305 O 0.05874 0.92232 0.76104 0.0
O306 O 1.00008 0.93579 0.77258 0.0
O307 O 0.95569 0.89793 0.8056 0.0
O308 O 0.92365 0.92714 0.79049 0.0
O309 O 0.99487 0.9208 0.72215 0.0
O310 O 0.96691 0.93643 0.75146 0.0
C311 C 0.96875 0.87055 0.73149 0.0
C312 C 0.03606 0.87065 0.7739 0.0
C313 C 0.09362 0.87876 0.67841 0.0
C314 C 0.10327 0.87877 0.64141 0.0
C315 C 0.14586 0.85589 0.66347 0.0
C316 C 0.12556 0.86349 0.68054 0.0
C317 C 0.1348 0.86343 0.64403 0.0
C318 C 0.08255 0.88656 0.65865 0.0
C319 C 0.07394 0.887 0.69715 0.0
C320 C 0.18057 0.95548 0.73667 0.0
C321 C 0.19512 0.9342 0.74561 0.0
H322 H 0.14358 0.994 0.72009 0.0
C323 C 0.03754 0.93628 0.77277 0.0
C324 C 0.97287 0.93668 0.73154 0.0
C325 C 0.91618 0.92438 0.82714 0.0
C326 C 0.90509 0.9192 0.8637 0.0
C327 C 0.88386 0.95593 0.84639 0.0
C328 C 0.89812 0.94719 0.82796 0.0
C329 C 0.88739 0.94206 0.86419 0.0
C330 C 0.91952 0.91027 0.84515 0.0
C331 C 0.93224 0.91615 0.80752 0.0
H332 H 0.17036 0.84418 0.66533 0.0
H333 H 0.13523 0.85746 0.69548 0.0
H334 H 0.15105 0.85736 0.63092 0.0
H335 H 0.05832 0.89852 0.65668 0.0
H336 H 0.87011 0.97353 0.84689 0.0
H337 H 0.89531 0.95847 0.81438 0.0
H338 H 0.87606 0.94909 0.8784 0.0
H339 H 0.93328 0.89263 0.8448 0.0
C340 C 0.62388 0.62757 0.25516 0.0
C341 C 0.62327 0.67098 0.26212 0.0
C342 C 0.60469 0.64811 0.26202 0.0
C343 C 0.66103 0.67294 0.25513 0.0
C344 C 0.66181 0.62949 0.24816 0.0
C345 C 0.68025 0.65226 0.2482 0.0
N346 N 0.60511 0.60584 0.25484 0.0
C347 C 0.62283 0.58524 0.24827 0.0
C348 C 0.68001 0.60847 0.24115 0.0
C349 C 0.66044 0.58624 0.24126 0.0
Gd350 Gd 0.45487 0.60618 0.22756 0.0
Gd351 Gd 0.54294 0.60592 0.26786 0.0
N352 N 0.56788 0.64576 0.26845 0.0
C353 C 0.60345 0.69121 0.26942 0.0
C354 C 0.54935 0.66514 0.27669 0.0
C355 C 0.56648 0.6882 0.27693 0.0
H356 H 0.52196 0.66288 0.28373 0.0
H357 H 0.55139 0.70358 0.28327 0.0
H358 H 0.47189 0.54819 0.21395 0.0
H359 H 0.60836 0.56787 0.24897 0.0
H360 H 0.43543 0.51012 0.20982 0.0
H361 H 0.61671 0.70908 0.26974 0.0
H362 H 0.67568 0.69038 0.25509 0.0
H363 H 0.39314 0.64753 0.24603 0.0
H364 H 0.70917 0.60919 0.23571 0.0
H365 H 0.6744 0.56984 0.2361 0.0
H366 H 0.30887 0.53056 0.23124 0.0
H367 H 0.70938 0.65408 0.24287 0.0
H368 H 0.28618 0.61156 0.25515 0.0
H369 H 0.32635 0.64862 0.25747 0.0
N370 N 0.39216 0.60969 0.2393 0.0
C371 C 0.37038 0.58925 0.23736 0.0
C372 C 0.37664 0.63095 0.246 0.0
C373 C 0.31585 0.61082 0.25061 0.0
C374 C 0.33847 0.63175 0.25205 0.0
C375 C 0.33156 0.5893 0.24296 0.0
H376 H 0.27976 0.56774 0.2449 0.0
N377 N 0.42515 0.56805 0.22586 0.0
C378 C 0.38703 0.5681 0.22983 0.0
C379 C 0.38272 0.52567 0.22028 0.0
C380 C 0.36493 0.54673 0.22746 0.0
C381 C 0.4424 0.54776 0.21837 0.0
C382 C 0.42158 0.52622 0.21567 0.0
O383 O 0.55172 0.62323 0.2364 0.0
O384 O 0.49319 0.63915 0.22824 0.0
O385 O 0.45959 0.60074 0.19462 0.0
O386 O 0.41467 0.62324 0.20692 0.0
O387 O 0.48685 0.62312 0.27745 0.0
O388 O 0.46161 0.63918 0.24766 0.0
O389 O 0.44538 0.58452 0.25697 0.0
O390 O 0.50476 0.57296 0.26892 0.0
O391 O 0.54566 0.6117 0.30149 0.0
O392 O 0.5818 0.58513 0.28614 0.0
O393 O 0.5096 0.58729 0.21834 0.0
O394 O 0.53696 0.57249 0.24812 0.0
C395 C 0.53042 0.63892 0.22633 0.0
C396 C 0.46487 0.63883 0.26774 0.0
C397 C 0.43218 0.63035 0.17253 0.0
C398 C 0.42202 0.6363 0.13597 0.0
C399 C 0.44085 0.67042 0.15726 0.0
C400 C 0.44097 0.65519 0.17447 0.0
C401 C 0.43153 0.66104 0.13807 0.0
C402 C 0.42246 0.62097 0.15324 0.0
C403 C 0.43008 0.61427 0.19053 0.0
C404 C 0.32619 0.54685 0.23284 0.0
C405 C 0.30962 0.56801 0.24068 0.0
H406 H 0.36675 0.5089 0.21827 0.0
C407 C 0.46742 0.57156 0.26918 0.0
C408 C 0.53232 0.57211 0.22813 0.0
C409 C 0.59019 0.58705 0.32268 0.0
C410 C 0.60197 0.59 0.35957 0.0
C411 C 0.62989 0.55708 0.33999 0.0
C412 C 0.61291 0.56598 0.32226 0.0
C413 C 0.62444 0.56891 0.35848 0.0
C414 C 0.585 0.59928 0.34149 0.0
C415 C 0.57211 0.59518 0.30328 0.0
H416 H 0.4474 0.68962 0.15885 0.0
H417 H 0.44711 0.66284 0.18933 0.0
H418 H 0.43078 0.67318 0.12493 0.0
H419 H 0.41462 0.60191 0.15173 0.0
H420 H 0.6473 0.54087 0.3394 0.0
H421 H 0.6175 0.55613 0.30816 0.0
H422 H 0.63816 0.56162 0.37206 0.0
H423 H 0.56762 0.61553 0.34215 0.0
C424 C 0.20559 0.93364 0.3885 0.0
C425 C 0.20478 0.90871 0.38369 0.0
C426 C 0.19001 0.9509 0.3752 0.0
C427 C 0.11978 0.95682 0.33326 0.0
H428 H 0.1637 0.02162 0.32812 0.0
C429 C 0.06398 0.03002 0.27633 0.0
C430 C 0.05863 0.05348 0.2843 0.0
C431 C 0.08229 0.01203 0.28792 0.0
C432 C 0.15098 1.00365 0.32952 0.0
H433 H 0.1882 0.88236 0.36081 0.0
H434 H 0.16139 0.91267 0.33716 0.0
H435 H 0.19669 0.99058 0.34817 0.0
H436 H 0.06848 0.07666 0.3105 0.0
H437 H 0.10141 0.04533 0.33064 0.0
H438 H 0.07425 0.97 0.31435 0.0
C439 C 0.17362 0.91882 0.35145 0.0
C440 C 0.16984 0.98583 0.34103 0.0
C441 C 0.18937 0.90147 0.36484 0.0
C442 C 0.07212 0.05868 0.30404 0.0
C443 C 0.09113 0.04082 0.31549 0.0
C444 C 0.10111 0.9746 0.32158 0.0
C445 C 0.17325 0.94374 0.35662 0.0
C446 C 0.15435 0.96222 0.34322 0.0
C447 C 0.09629 0.01727 0.30757 0.0
C448 C 0.11636 0.99826 0.31971 0.0
H449 H 0.21749 0.93976 0.4029 0.0
H450 H 0.18993 0.9698 0.37987 0.0
H451 H 0.1066 0.93902 0.3349 0.0
H452 H 0.05365 0.0255 0.26118 0.0
H453 H 0.08603 0.99411 0.28138 0.0
C454 C 0.30433 0.56966 0.88428 0.0
C455 C 0.30777 0.5945 0.87895 0.0
C456 C 0.32071 0.5517 0.87209 0.0
C457 C 0.35606 0.53807 0.82075 0.0
H458 H 0.42434 0.49351 0.84864 0.0
C459 C 0.45432 0.47376 0.77573 0.0
C460 C 0.46115 0.45043 0.78384 0.0
C461 C 0.43513 0.49121 0.78725 0.0
C462 C 0.40492 0.50548 0.8406 0.0
H463 H 0.3298 0.61963 0.85594 0.0
H464 H 0.35694 0.58811 0.83429 0.0
H465 H 0.3891 0.5235 0.86831 0.0
H466 H 0.45367 0.42707 0.81041 0.0
H467 H 0.41914 0.45717 0.83034 0.0
H468 H 0.37094 0.51982 0.7931 0.0
C469 C 0.34186 0.5827 0.84807 0.0
C470 C 0.38483 0.52273 0.8519 0.0
C471 C 0.32602 0.60074 0.86044 0.0
C472 C 0.44889 0.44497 0.8038 0.0
C473 C 0.42924 0.46231 0.81525 0.0
C474 C 0.37569 0.52057 0.80946 0.0
C475 C 0.34022 0.55808 0.85407 0.0
C476 C 0.36036 0.53926 0.84207 0.0
C477 C 0.42196 0.48567 0.80711 0.0
C478 C 0.4006 0.50411 0.8192 0.0
H479 H 0.28978 0.5641 0.89817 0.0
H480 H 0.31852 0.53279 0.87688 0.0
H481 H 0.33713 0.5505 0.81283 0.0
H482 H 0.46395 0.47856 0.76046 0.0
H483 H 0.43093 0.50912 0.78059 0.0
C484 C 0.69265 0.60594 0.63435 0.0
C485 C 0.70559 0.59936 0.61479 0.0
C486 C 0.67663 0.58833 0.64756 0.0
C487 C 0.62819 0.52837 0.646 0.0
H488 H 0.65034 0.52506 0.704 0.0
C489 C 0.56952 0.44882 0.69582 0.0
C490 C 0.56368 0.4524 0.71684 0.0
C491 C 0.58698 0.46693 0.68374 0.0
C492 C 0.64303 0.52585 0.68792 0.0
H493 H 0.71415 0.56895 0.59431 0.0
H494 H 0.68664 0.5384 0.61725 0.0
H495 H 0.6805 0.55641 0.68295 0.0
H496 H 0.57013 0.47835 0.74147 0.0
H497 H 0.5987 0.51018 0.72053 0.0
H498 H 0.58975 0.49865 0.65077 0.0
C499 C 0.68784 0.55718 0.62225 0.0
C500 C 0.66069 0.54387 0.67581 0.0
C501 C 0.70373 0.57469 0.60912 0.0
C502 C 0.57479 0.47479 0.72539 0.0
C503 C 0.59156 0.49308 0.71328 0.0
C504 C 0.60997 0.51068 0.65813 0.0
C505 C 0.67332 0.5638 0.64147 0.0
C506 C 0.65381 0.54519 0.65465 0.0
C507 C 0.59837 0.48944 0.69224 0.0
C508 C 0.61728 0.50889 0.67931 0.0
H509 H 0.69356 0.62481 0.63911 0.0
H510 H 0.66561 0.59406 0.66224 0.0
H511 H 0.62169 0.5291 0.6298 0.0
H512 H 0.56137 0.43177 0.68872 0.0
H513 H 0.59213 0.46291 0.6678 0.0
C514 C 0.78707 0.93811 0.11864 0.0
C515 C 0.79948 0.91383 0.11898 0.0
C516 C 0.804 0.95549 0.13139 0.0
C517 C 0.87141 0.96199 0.17582 0.0
H518 H 0.88018 0.02826 0.15525 0.0
C519 C 0.97158 0.03458 0.21138 0.0
C520 C 0.95438 0.05694 0.21608 0.0
C521 C 0.95216 0.01724 0.19967 0.0
C522 C 0.87776 0.00984 0.1612 0.0
H523 H 0.83928 0.88861 0.13268 0.0
H524 H 0.86997 0.91887 0.15432 0.0
H525 H 0.84694 0.9977 0.13496 0.0
H526 H 0.90369 0.07886 0.21182 0.0
H527 H 0.87004 0.04866 0.19112 0.0
H528 H 0.90383 0.97419 0.20167 0.0
C529 C 0.84619 0.92457 0.14493 0.0
C530 C 0.85841 0.99227 0.14967 0.0
C531 C 0.82864 0.90712 0.13252 0.0
C532 C 0.91762 0.06175 0.20856 0.0
C533 C 0.89844 0.04455 0.19661 0.0
C534 C 0.89142 0.97945 0.18712 0.0
C535 C 0.83449 0.94913 0.1444 0.0
C536 C 0.85476 0.96805 0.15684 0.0
C537 C 0.91542 0.02206 0.19217 0.0
C538 C 0.89465 1.00354 0.17997 0.0
H539 H 0.76479 0.94372 0.10816 0.0
H540 H 0.7934 0.97397 0.13078 0.0
H541 H 0.86874 0.9438 0.18218 0.0
H542 H 0.99983 0.03031 0.21699 0.0
H543 H 0.96597 1.0001 0.19635 0.0
C544 C 0.86024 0.09685 0.61711 0.0
C545 C 0.82214 0.10437 0.61875 0.0
C546 C 0.87518 0.07958 0.63052 0.0
C547 C 0.84588 0.03156 0.66803 0.0
H548 H 0.95461 0.03112 0.67889 0.0
C549 C 0.93263 0.97429 0.72861 0.0
C550 C 0.95426 0.95599 0.71912 0.0
C551 C 0.91428 0.9921 0.71692 0.0
C552 C 0.92423 0.03108 0.67591 0.0
H553 H 0.77051 0.10064 0.63675 0.0
H554 H 0.79746 0.07155 0.66121 0.0
H555 H 0.92713 0.06461 0.65937 0.0
H556 H 0.97472 0.94283 0.68983 0.0
H557 H 0.94413 0.97492 0.66957 0.0
H558 H 0.84348 0.99831 0.68564 0.0
C559 C 0.8153 0.07825 0.64886 0.0
C560 C 0.90837 0.05014 0.6646 0.0
C561 C 0.79999 0.09527 0.63505 0.0
C562 C 0.958 0.95643 0.69766 0.0
C563 C 0.94043 0.97468 0.68603 0.0
C564 C 0.86175 0.01274 0.67978 0.0
C565 C 0.85295 0.06982 0.64653 0.0
C566 C 0.86906 0.05048 0.66015 0.0
C567 C 0.91823 0.99246 0.69561 0.0
C568 C 0.90108 0.01227 0.68351 0.0
H569 H 0.87849 0.10387 0.60504 0.0
H570 H 0.90398 0.07342 0.62782 0.0
H571 H 0.81566 0.03088 0.66475 0.0
H572 H 0.9301 0.97509 0.7451 0.0
H573 H 0.89773 0.00598 0.72456 0.0
C574 C 0.72421 0.4227 0.13198 0.0
C575 C 0.7017 0.40836 0.11895 0.0
C576 C 0.70721 0.44012 0.14465 0.0
C577 C 0.61729 0.47561 0.14902 0.0
H578 H 0.65593 0.49162 0.20287 0.0
C579 C 0.55693 0.5564 0.19469 0.0
C580 C 0.55301 0.5536 0.21599 0.0
C581 C 0.57649 0.53907 0.18318 0.0
C582 C 0.6445 0.48723 0.18794 0.0
H583 H 0.64389 0.39991 0.10971 0.0
H584 H 0.6142 0.42943 0.13217 0.0
H585 H 0.6867 0.45979 0.18303 0.0
H586 H 0.56611 0.53012 0.24185 0.0
H587 H 0.5996 0.49968 0.22177 0.0
H588 H 0.57425 0.50227 0.15415 0.0
C589 C 0.64497 0.42803 0.13224 0.0
C590 C 0.66252 0.46916 0.17642 0.0
C591 C 0.66192 0.41089 0.11952 0.0
C592 C 0.56895 0.53297 0.22549 0.0
C593 C 0.58838 0.51556 0.21397 0.0
C594 C 0.59912 0.49348 0.16057 0.0
C595 C 0.66736 0.44336 0.14461 0.0
C596 C 0.64898 0.46297 0.15686 0.0
C597 C 0.59239 0.51835 0.19263 0.0
C598 C 0.61236 0.49952 0.18023 0.0
H599 H 0.75498 0.42125 0.13166 0.0
H600 H 0.72543 0.45166 0.15386 0.0
H601 H 0.60643 0.47179 0.13386 0.0
H602 H 0.54518 0.57213 0.18688 0.0
H603 H 0.57946 0.54211 0.16687 0.0
C604 C 0.29372 0.41622 0.37015 0.0
C605 C 0.31351 0.40984 0.38811 0.0
C606 C 0.30848 0.43413 0.35685 0.0
C607 C 0.37553 0.48627 0.35576 0.0
H608 H 0.3816 0.47442 0.29743 0.0
C609 C 0.46724 0.54595 0.30116 0.0
C610 C 0.44967 0.55293 0.2827 0.0
C611 C 0.45 0.52856 0.31402 0.0
C612 C 0.3798 0.47807 0.31367 0.0
H613 H 0.36535 0.41648 0.4055 0.0
H614 H 0.39013 0.44771 0.3828 0.0
H615 H 0.34992 0.44459 0.31969 0.0
H616 H 0.40064 0.54682 0.26356 0.0
H617 H 0.37119 0.51636 0.28522 0.0
H618 H 0.40554 0.51965 0.34981 0.0
C619 C 0.36293 0.43937 0.37916 0.0
C620 C 0.36152 0.46105 0.32638 0.0
C621 C 0.34852 0.42147 0.39224 0.0
C622 C 0.41494 0.54196 0.2774 0.0
C623 C 0.39812 0.52431 0.2899 0.0
C624 C 0.39378 0.50326 0.34308 0.0
C625 C 0.34311 0.44599 0.36137 0.0
C626 C 0.35953 0.46488 0.34758 0.0
C627 C 0.41527 0.5175 0.30842 0.0
C628 C 0.39634 0.49927 0.32192 0.0
H629 H 0.26675 0.40761 0.3665 0.0
H630 H 0.29261 0.43892 0.34319 0.0
H631 H 0.37398 0.48984 0.37203 0.0
H632 H 0.49396 0.5542 0.30582 0.0
H633 H 0.46398 0.52362 0.32822 0.0
C634 C 0.22079 0.08983 0.87002 0.0
C635 C 0.20255 0.09652 0.88831 0.0
C636 C 0.20487 0.07182 0.85738 0.0
C637 C 0.13576 0.02024 0.85814 0.0
H638 H 0.12959 0.03141 0.7996 0.0
C639 C 0.04037 0.96152 0.80477 0.0
C640 C 0.05663 0.95456 0.78603 0.0
C641 C 0.05899 0.97841 0.81741 0.0
C642 C 0.1314 0.02788 0.8159 0.0
H643 H 0.15217 0.09005 0.90702 0.0
H644 H 0.1254 0.05866 0.88547 0.0
H645 H 0.16272 0.06091 0.82113 0.0
H646 H 0.10462 0.96044 0.76603 0.0
H647 H 0.13675 0.98978 0.78748 0.0
H648 H 0.10424 0.98728 0.85293 0.0
C649 C 0.15232 0.06688 0.88103 0.0
C650 C 0.15053 0.04476 0.82822 0.0
C651 C 0.1679 0.08492 0.89346 0.0
C652 C 0.09148 0.96511 0.78022 0.0
C653 C 0.10977 0.9822 0.79257 0.0
C654 C 0.11664 1.00336 0.84582 0.0
C655 C 0.17051 0.06006 0.86284 0.0
C656 C 0.15266 0.04126 0.84951 0.0
C657 C 0.09391 0.98902 0.81138 0.0
C658 C 0.11403 0.00704 0.82456 0.0
H659 H 0.24752 0.09829 0.86558 0.0
H660 H 0.21966 0.0669 0.84347 0.0
H661 H 0.13736 0.01681 0.87446 0.0
H662 H 0.01356 0.95363 0.80981 0.0
H663 H 0.04583 0.98336 0.83179 0.0
C664 C 0.2138 0.10831 0.96965 0.0
C665 C 0.21082 0.13048 0.95886 0.0
C666 C 0.19957 0.10602 0.98955 0.0
C667 C 0.13277 0.13571 0.02619 0.0
H668 H 0.18016 0.09098 0.06451 0.0
C669 C 0.11309 0.12007 0.116 0.0
C670 C 0.104 0.09561 0.12044 0.0
C671 C 0.1192 0.12753 0.09567 0.0
C672 C 0.16669 0.10354 0.05391 0.0
H673 H 0.19114 0.16785 0.961 0.0
H674 H 0.16851 0.16426 0.99602 0.0
H675 H 0.20916 0.09781 0.03113 0.0
H676 H 0.08974 0.06061 0.10727 0.0
H677 H 0.10074 0.07359 0.07191 0.0
H678 H 0.09089 0.14177 0.0497 0.0
C679 C 0.18075 0.14837 0.98887 0.0
C680 C 0.18308 0.10733 0.0347 0.0
C681 C 0.19448 0.15055 0.96884 0.0
C682 C 0.09695 0.07952 0.10421 0.0
C683 C 0.10327 0.0869 0.08403 0.0
C684 C 0.11671 0.13219 0.04565 0.0
C685 C 0.18252 0.12596 0.99941 0.0
C686 C 0.16608 0.12317 0.02039 0.0
C687 C 0.11627 0.11058 0.07971 0.0
C688 C 0.13333 0.11578 0.05949 0.0
H689 H 0.22665 0.09253 0.96261 0.0
H690 H 0.20113 0.08835 0.99697 0.0
H691 H 0.1185 0.14781 0.01554 0.0
H692 H 0.1189 0.13276 0.12826 0.0
H693 H 0.12934 0.14588 0.09259 0.0
C694 C 0.34761 0.36509 0.46458 0.0
C695 C 0.31361 0.37635 0.45856 0.0
C696 C 0.36125 0.36776 0.48454 0.0
C697 C 0.34939 0.40677 0.53048 0.0
H698 H 0.40158 0.35393 0.55843 0.0
C699 C 0.36956 0.40688 0.61642 0.0
C700 C 0.40761 0.41092 0.622 0.0
C701 C 0.36069 0.39838 0.59693 0.0
C702 C 0.3872 0.36879 0.55068 0.0
H703 H 0.26671 0.39885 0.46827 0.0
H704 H 0.28927 0.4027 0.50348 0.0
H705 H 0.37979 0.34848 0.52308 0.0
H706 H 0.46643 0.40788 0.61243 0.0
H707 H 0.45077 0.39262 0.57802 0.0
H708 H 0.35553 0.42662 0.55838 0.0
C709 C 0.3063 0.39243 0.49277 0.0
C710 C 0.37488 0.3658 0.53044 0.0
C711 C 0.29307 0.39008 0.47271 0.0
C712 C 0.4369 0.40458 0.60842 0.0
C713 C 0.42799 0.39593 0.58884 0.0
C714 C 0.36107 0.40954 0.55071 0.0
C715 C 0.3408 0.3815 0.49892 0.0
C716 C 0.35538 0.3847 0.52016 0.0
C717 C 0.38975 0.39376 0.58275 0.0
C718 C 0.37966 0.39054 0.56102 0.0
H719 H 0.36398 0.35462 0.4537 0.0
H720 H 0.38817 0.35943 0.48853 0.0
H721 H 0.33564 0.42201 0.52297 0.0
H722 H 0.34664 0.41179 0.62669 0.0
H723 H 0.33104 0.39676 0.59248 0.0
C724 C 0.67884 0.36823 0.03941 0.0
C725 C 0.70743 0.38415 0.04612 0.0
C726 C 0.66288 0.37113 0.02 0.0
C727 C 0.65329 0.41562 0.9769 0.0
H728 H 0.62567 0.35733 0.94702 0.0
C729 C 0.62925 0.40766 0.88926 0.0
C730 C 0.60259 0.39019 0.8828 0.0
C731 C 0.63478 0.4118 0.91016 0.0
C732 C 0.63253 0.37383 0.95531 0.0
H733 H 0.74229 0.41542 0.0382 0.0
H734 H 0.71559 0.42003 0.00371 0.0
H735 H 0.65301 0.35354 0.98091 0.0
H736 H 0.5583 0.36514 0.89251 0.0
H737 H 0.56731 0.37269 0.92903 0.0
H738 H 0.63429 0.43573 0.95049 0.0
C739 C 0.70463 0.40568 0.01356 0.0
C740 C 0.64829 0.37166 0.97479 0.0
C741 C 0.72023 0.40294 0.03316 0.0
C742 C 0.57876 0.37886 0.89725 0.0
C743 C 0.58423 0.38299 0.91809 0.0
C744 C 0.6379 0.41776 0.95718 0.0
C745 C 0.67559 0.38985 0.00676 0.0
C746 C 0.65884 0.39249 0.98591 0.0
C747 C 0.61387 0.39835 0.92475 0.0
C748 C 0.62726 0.39685 0.94624 0.0
H749 H 0.66839 0.35379 0.04936 0.0
H750 H 0.64012 0.35888 0.01552 0.0
H751 H 0.66062 0.43208 0.98509 0.0
H752 H 0.64825 0.41629 0.87829 0.0
H753 H 0.65785 0.42372 0.91486 0.0
C754 C 0.85491 0.12321 0.54093 0.0
C755 C 0.81595 0.1268 0.5448 0.0
C756 C 0.86803 0.12021 0.52094 0.0
C757 C 0.83988 0.1324 0.46732 0.0
H758 H 0.92407 0.08943 0.45466 0.0
C759 C 0.88654 0.11681 0.38487 0.0
C760 C 0.92351 0.12582 0.38141 0.0
C761 C 0.87415 0.11189 0.40479 0.0
C762 C 0.90043 0.10137 0.45806 0.0
H763 H 0.76008 0.12953 0.5309 0.0
H764 H 0.78275 0.12389 0.49602 0.0
H765 H 0.89988 0.09143 0.48982 0.0
H766 H 0.97758 0.13472 0.39554 0.0
H767 H 0.95607 0.12553 0.4305 0.0
H768 H 0.84023 0.14212 0.43556 0.0
C769 C 0.80338 0.12391 0.50835 0.0
C770 C 0.88676 0.10271 0.47815 0.0
C771 C 0.79032 0.12709 0.52833 0.0
C772 C 0.94886 0.12796 0.39794 0.0
C773 C 0.93667 0.12257 0.41784 0.0
C774 C 0.85309 0.13075 0.44727 0.0
C775 C 0.84243 0.1206 0.50439 0.0
C776 C 0.85644 0.11838 0.48302 0.0
C777 C 0.89878 0.11548 0.42145 0.0
C778 C 0.88354 0.11535 0.4425 0.0
H779 H 0.8754 0.12326 0.55334 0.0
H780 H 0.89835 0.11815 0.51844 0.0
H781 H 0.81721 0.14513 0.47055 0.0
H782 H 0.86652 0.11506 0.37234 0.0
H783 H 0.84482 0.10636 0.4073 0.0
C784 C 0.78188 0.87927 0.02922 0.0
C785 C 0.80267 0.88826 0.046 0.0
C786 C 0.79752 0.87977 0.00957 0.0
C787 C 0.8699 0.91019 0.97791 0.0
H788 H 0.86212 0.85236 0.94424 0.0
C789 C 0.93284 0.91242 0.89811 0.0
C790 C 0.90712 0.90513 0.8829 0.0
C791 C 0.92693 0.90539 0.91845 0.0
C792 C 0.86451 0.86864 0.95345 0.0
H793 H 0.85581 0.90548 0.0551 0.0
H794 H 0.88255 0.90698 0.02072 0.0
H795 H 0.8353 0.852 0.97882 0.0
H796 H 0.85714 0.88337 0.87634 0.0
H797 H 0.8463 0.87124 0.9119 0.0
H798 H 0.8978 0.92721 0.95256 0.0
C799 C 0.85422 0.89944 0.02283 0.0
C800 C 0.84903 0.86847 0.97319 0.0
C801 C 0.83874 0.89875 0.04251 0.0
C802 C 0.87751 0.88892 0.8879 0.0
C803 C 0.87136 0.88204 0.90828 0.0
C804 C 0.88516 0.91041 0.95821 0.0
C805 C 0.83408 0.88953 0.00624 0.0
C806 C 0.85128 0.88934 0.98553 0.0
C807 C 0.89477 0.89136 0.92391 0.0
C808 C 0.8824 0.88973 0.94565 0.0
H809 H 0.75374 0.87144 0.03134 0.0
H810 H 0.78102 0.87248 0.99697 0.0
H811 H 0.87165 0.92663 0.98697 0.0
H812 H 0.95572 0.92508 0.89452 0.0
H813 H 0.94605 0.91235 0.93007 0.0
C814 C 0.69823 0.65306 0.53068 0.0
C815 C 0.70165 0.63176 0.54275 0.0
C816 C 0.68291 0.65208 0.51089 0.0
C817 C 0.61785 0.6169 0.47887 0.0
H818 H 0.67394 0.64302 0.43249 0.0
C819 C 0.58629 0.58701 0.39665 0.0
C820 C 0.5976 0.60155 0.37993 0.0
C821 C 0.59244 0.59476 0.41669 0.0
C822 C 0.65724 0.63615 0.44523 0.0
H823 H 0.69231 0.59256 0.5428 0.0
H824 H 0.66416 0.59118 0.50872 0.0
H825 H 0.69905 0.64817 0.467 0.0
H826 H 0.62106 0.63658 0.37103 0.0
H827 H 0.63041 0.6508 0.40619 0.0
H828 H 0.57568 0.60523 0.45744 0.0
C829 C 0.67337 0.60861 0.51472 0.0
C830 C 0.67193 0.63895 0.46504 0.0
C831 C 0.68934 0.60948 0.53434 0.0
C832 C 0.61196 0.62504 0.38365 0.0
C833 C 0.61792 0.63296 0.40383 0.0
C834 C 0.60276 0.61452 0.45915 0.0
C835 C 0.66992 0.6299 0.50281 0.0
C836 C 0.65286 0.62881 0.48199 0.0
C837 C 0.60981 0.61745 0.42064 0.0
C838 C 0.62274 0.62347 0.44192 0.0
H839 H 0.70672 0.67065 0.53661 0.0
H840 H 0.68043 0.66879 0.50207 0.0
H841 H 0.60222 0.60928 0.49173 0.0
H842 H 0.57516 0.5688 0.39419 0.0
H843 H 0.58597 0.58207 0.42897 0.0
C844 C 0.28285 0.63165 0.96618 0.0
C845 C 0.30837 0.62611 0.95038 0.0
C846 C 0.29393 0.62916 0.98664 0.0
C847 C 0.36969 0.6021 0.02007 0.0
H848 H 0.33105 0.64889 0.05905 0.0
C849 C 0.43503 0.62506 0.09969 0.0
C850 C 0.40913 0.62723 0.11593 0.0
C851 C 0.42189 0.62037 0.07988 0.0
C852 C 0.34169 0.63551 0.04837 0.0
H853 H 0.36559 0.61417 0.9434 0.0
H854 H 0.38558 0.61073 0.97899 0.0
H855 H 0.31028 0.65098 0.02361 0.0
H856 H 0.34976 0.62523 0.12472 0.0
H857 H 0.32654 0.61762 0.0899 0.0
H858 H 0.40277 0.58763 0.04497 0.0
C859 C 0.35654 0.6161 0.97578 0.0
C860 C 0.32968 0.63661 0.02803 0.0
C861 C 0.34521 0.61819 0.95535 0.0
C862 C 0.37014 0.62353 0.11235 0.0
C863 C 0.35693 0.61929 0.0925 0.0
C864 C 0.38226 0.60132 0.04041 0.0
C865 C 0.33106 0.62155 0.99174 0.0
C866 C 0.34345 0.61992 0.01356 0.0
C867 C 0.38261 0.61832 0.07602 0.0
C868 C 0.36827 0.618 0.05472 0.0
H869 H 0.25422 0.63769 0.96268 0.0
H870 H 0.27321 0.63309 0.99843 0.0
H871 H 0.3805 0.58867 0.00951 0.0
H872 H 0.46523 0.62793 0.10222 0.0
H873 H 0.44221 0.61979 0.06741 0.0
C874 C 0.18427 0.85884 0.46647 0.0
C875 C 0.19813 0.87946 0.45601 0.0
C876 C 0.16817 0.86103 0.48593 0.0
C877 C 0.12878 0.90664 0.5226 0.0
H878 H 0.14352 0.85355 0.56118 0.0
C879 C 0.1095 0.90724 0.61179 0.0
C880 C 0.0935 0.88593 0.62026 0.0
C881 C 0.11409 0.90948 0.59054 0.0
C882 C 0.13872 0.8684 0.55048 0.0
H883 H 0.20673 0.91852 0.45783 0.0
H884 H 0.1799 0.92232 0.49214 0.0
H885 H 0.17133 0.85107 0.52728 0.0
H886 H 0.06671 0.85136 0.61343 0.0
H887 H 0.07437 0.8553 0.57637 0.0
H888 H 0.09767 0.92437 0.54664 0.0
C889 C 0.18029 0.9045 0.48512 0.0
C890 C 0.15459 0.86697 0.53096 0.0
C891 C 0.19591 0.90233 0.46549 0.0
C892 C 0.07864 0.86808 0.60718 0.0
C893 C 0.08341 0.87023 0.58603 0.0
C894 C 0.11341 0.90825 0.54238 0.0
C895 C 0.16609 0.88387 0.49561 0.0
C896 C 0.1496 0.88593 0.51662 0.0
C897 C 0.10311 0.89029 0.57762 0.0
C898 C 0.11792 0.88897 0.5564 0.0
H899 H 0.18514 0.84103 0.45941 0.0
H900 H 0.15684 0.84476 0.49322 0.0
H901 H 0.12393 0.92152 0.51197 0.0
H902 H 0.12179 0.92101 0.62165 0.0
H903 H 0.12944 0.9251 0.58443 0.0
C904 C 0.21608 0.30853 0.35346 0.0
C905 C 0.21269 0.30819 0.37481 0.0
C906 C 0.19381 0.29273 0.34159 0.0
C907 C 0.11215 0.2482 0.34454 0.0
H908 H 0.16426 0.2188 0.29865 0.0
C909 C 0.03836 0.17809 0.29209 0.0
C910 C 0.06002 0.15858 0.28459 0.0
C911 C 0.0556 0.19702 0.30291 0.0
C912 C 0.14944 0.22661 0.31156 0.0
H913 H 0.18328 0.29207 0.40067 0.0
H914 H 0.14524 0.26415 0.38028 0.0
H915 H 0.19501 0.25157 0.31736 0.0
H916 H 0.11692 0.1435 0.28316 0.0
H917 H 0.14724 0.17673 0.30174 0.0
H918 H 0.06747 0.22231 0.3394 0.0
C919 C 0.16399 0.2768 0.37238 0.0
C920 C 0.16679 0.24581 0.32209 0.0
C921 C 0.18588 0.29276 0.38413 0.0
C922 C 0.09945 0.15842 0.28834 0.0
C923 C 0.11683 0.17752 0.29904 0.0
C924 C 0.09501 0.22881 0.33417 0.0
C925 C 0.16833 0.27607 0.35096 0.0
C926 C 0.1485 0.25682 0.33881 0.0
C927 C 0.09511 0.19712 0.30642 0.0
C928 C 0.11347 0.21771 0.31756 0.0
H929 H 0.2369 0.32026 0.34604 0.0
H930 H 0.19736 0.29312 0.32513 0.0
H931 H 0.09685 0.25633 0.35715 0.0
H932 H 0.00801 0.17904 0.28931 0.0
H933 H 0.03796 0.2119 0.30809 0.0
C934 C 0.33865 0.21202 0.88423 0.0
C935 C 0.31013 0.19867 0.87423 0.0
C936 C 0.36208 0.22815 0.87325 0.0
C937 C 0.39234 0.24636 0.8206 0.0
H938 H 0.40877 0.30957 0.8455 0.0
C939 C 0.43924 0.33092 0.7739 0.0
C940 C 0.46651 0.3466 0.7824 0.0
C941 C 0.42345 0.31188 0.78547 0.0
C942 C 0.40492 0.29192 0.83844 0.0
H943 H 0.28387 0.19102 0.84503 0.0
H944 H 0.3249 0.21911 0.82563 0.0
H945 H 0.37616 0.27743 0.86476 0.0
H946 H 0.49942 0.35455 0.80959 0.0
H947 H 0.47149 0.32127 0.83012 0.0
H948 H 0.42036 0.2611 0.7941 0.0
C949 C 0.32968 0.21701 0.84192 0.0
C950 C 0.38626 0.27343 0.84949 0.0
C951 C 0.30618 0.20089 0.85297 0.0
C952 C 0.47821 0.34273 0.80272 0.0
C953 C 0.46209 0.3238 0.81446 0.0
C954 C 0.41085 0.26488 0.80953 0.0
C955 C 0.35731 0.23132 0.852 0.0
C956 C 0.37937 0.25046 0.84065 0.0
C957 C 0.43453 0.3081 0.80593 0.0
C958 C 0.41699 0.28797 0.81821 0.0
H959 H 0.3418 0.21075 0.90071 0.0
H960 H 0.38337 0.23855 0.88149 0.0
H961 H 0.38814 0.22882 0.81341 0.0
H962 H 0.43077 0.33299 0.75815 0.0
H963 H 0.40219 0.30026 0.77842 0.0
C964 C 0.67702 0.19367 0.63558 0.0
C965 C 0.71444 0.19709 0.62872 0.0
C966 C 0.66014 0.2109 0.6483 0.0
C967 C 0.67985 0.26472 0.68092 0.0
H968 H 0.57644 0.28198 0.6659 0.0
C969 C 0.60468 0.35081 0.71106 0.0
C970 C 0.56689 0.34766 0.7176 0.0
C971 C 0.62333 0.33213 0.70074 0.0
C972 C 0.60517 0.2772 0.6704 0.0
H973 H 0.76431 0.22037 0.62986 0.0
H974 H 0.73495 0.25067 0.65213 0.0
H975 H 0.60835 0.24905 0.64806 0.0
H976 H 0.51904 0.32263 0.71895 0.0
H977 H 0.55133 0.29005 0.70064 0.0
H978 H 0.67667 0.29327 0.70308 0.0
C979 C 0.71866 0.2346 0.64805 0.0
C980 C 0.62343 0.25826 0.66025 0.0
C981 C 0.73551 0.2173 0.63534 0.0
C982 C 0.54788 0.32567 0.71359 0.0
C983 C 0.56644 0.30702 0.70323 0.0
C984 C 0.6616 0.28376 0.69103 0.0
C985 C 0.68041 0.23193 0.65418 0.0
C986 C 0.66093 0.25172 0.66544 0.0
C987 C 0.60438 0.31004 0.69675 0.0
C988 C 0.62404 0.29012 0.6859 0.0
H989 H 0.66024 0.17828 0.63035 0.0
H990 H 0.63086 0.2081 0.65303 0.0
H991 H 0.70862 0.26002 0.68539 0.0
H992 H 0.61962 0.36783 0.7137 0.0
H993 H 0.65239 0.33509 0.69567 0.0
C994 C 0.78941 0.29428 0.13731 0.0
C995 C 0.81083 0.31424 0.13024 0.0
C996 C 0.80631 0.27646 0.14976 0.0
C997 C 0.89609 0.26264 0.17933 0.0
H998 H 0.86067 0.19605 0.17317 0.0
C999 C 0.95485 0.18417 0.22915 0.0
C1000 C 0.96016 0.16136 0.21999 0.0
C1001 C 0.93661 0.20295 0.21853 0.0
C1002 C 0.87126 0.21451 0.17488 0.0
H1003 H 0.86616 0.33164 0.1305 0.0
H1004 H 0.89617 0.30053 0.15159 0.0
H1005 H 0.8289 0.22863 0.15466 0.0
H1006 H 0.95059 0.1402 0.1926 0.0
H1007 H 0.9186 0.17305 0.17391 0.0
H1008 H 0.9398 0.24821 0.19865 0.0
C1009 C 0.86609 0.29864 0.14832 0.0
C1010 C 0.8525 0.23339 0.16454 0.0
C1011 C 0.84898 0.31656 0.13615 0.0
C1012 C 0.94704 0.15769 0.19995 0.0
C1013 C 0.9284 0.17644 0.18935 0.0
C1014 C 0.91518 0.24372 0.18939 0.0
C1015 C 0.84526 0.278 0.15503 0.0
C1016 C 0.86455 0.25782 0.16661 0.0
C1017 C 0.92293 0.19935 0.19852 0.0
C1018 C 0.90296 0.2194 0.18739 0.0
H1019 H 0.75999 0.292 0.13261 0.0
H1020 H 0.78887 0.26128 0.15489 0.0
H1021 H 0.90615 0.28108 0.18172 0.0
H1022 H 0.96494 0.18752 0.24456 0.0
H1023 H 0.93263 0.2202 0.22619 0.0
C1024 C 0.85042 0.69565 0.63276 0.0
C1025 C 0.81246 0.69689 0.62622 0.0
C1026 C 0.86585 0.71398 0.64513 0.0
C1027 C 0.85035 0.77875 0.65957 0.0
H1028 H 0.92624 0.76433 0.70095 0.0
C1029 C 0.9104 0.85216 0.71495 0.0
C1030 C 0.94965 0.85128 0.71924 0.0
C1031 C 0.89263 0.83339 0.70398 0.0
C1032 C 0.90531 0.76872 0.68933 0.0
H1033 H 0.76057 0.71788 0.62734 0.0
H1034 H 0.7869 0.74961 0.64952 0.0
H1035 H 0.89679 0.73113 0.68201 0.0
H1036 H 1.00116 0.83024 0.71464 0.0
H1037 H 0.97043 0.79796 0.6953 0.0
H1038 H 0.85893 0.8164 0.66701 0.0
C1039 C 0.80512 0.73473 0.64498 0.0
C1040 C 0.8884 0.74963 0.67842 0.0
C1041 C 0.7898 0.7164 0.63254 0.0
C1042 C 0.9708 0.83148 0.71185 0.0
C1043 C 0.95311 0.81281 0.70085 0.0
C1044 C 0.86716 0.79784 0.67056 0.0
C1045 C 0.84358 0.734 0.65118 0.0
C1046 C 0.86077 0.75435 0.6633 0.0
C1047 C 0.91375 0.81337 0.69691 0.0
C1048 C 0.89502 0.79308 0.68551 0.0
H1049 H 0.86863 0.68099 0.62766 0.0
H1050 H 0.89567 0.71289 0.64927 0.0
H1051 H 0.82977 0.78323 0.6478 0.0
H1052 H 0.89333 0.86731 0.72008 0.0
H1053 H 0.86221 0.83438 0.70131 0.0
C1054 C 0.66659 0.8098 0.12667 0.0
C1055 C 0.70634 0.81083 0.1285 0.0
C1056 C 0.64562 0.79235 0.13768 0.0
C1057 C 0.65336 0.74791 0.1809 0.0
H1058 H 0.56947 0.71542 0.15341 0.0
C1059 C 0.58856 0.65755 0.21003 0.0
C1060 C 0.54909 0.65803 0.21362 0.0
C1061 C 0.60643 0.67642 0.19918 0.0
C1062 C 0.59273 0.72446 0.16126 0.0
H1063 H 0.75575 0.7948 0.14288 0.0
H1064 H 0.71953 0.76425 0.1621 0.0
H1065 H 0.60304 0.74897 0.1362 0.0
H1066 H 0.49734 0.67844 0.2079 0.0
H1067 H 0.52827 0.71054 0.18777 0.0
H1068 H 0.64373 0.72282 0.20564 0.0
C1069 C 0.7041 0.77716 0.15268 0.0
C1070 C 0.61182 0.74378 0.15151 0.0
C1071 C 0.72494 0.79467 0.14173 0.0
C1072 C 0.52767 0.67728 0.20523 0.0
C1073 C 0.54537 0.69576 0.1938 0.0
C1074 C 0.63469 0.72842 0.19047 0.0
C1075 C 0.6642 0.77549 0.15056 0.0
C1076 C 0.64254 0.75569 0.16119 0.0
C1077 C 0.58502 0.69576 0.19108 0.0
C1078 C 0.60436 0.71646 0.18072 0.0
H1079 H 0.65189 0.82185 0.11613 0.0
H1080 H 0.61497 0.79181 0.13583 0.0
H1081 H 0.67628 0.75693 0.18902 0.0
H1082 H 0.60582 0.64271 0.21571 0.0
H1083 H 0.63705 0.67589 0.19708 0.0
C1084 C 0.31827 0.78493 0.38483 0.0
C1085 C 0.30654 0.80727 0.37654 0.0
C1086 C 0.3348 0.76728 0.37241 0.0
C1087 C 0.3455 0.74733 0.31878 0.0
H1088 H 0.43212 0.71218 0.34078 0.0
C1089 C 0.43394 0.67993 0.27016 0.0
C1090 C 0.44604 0.65828 0.27974 0.0
C1091 C 0.41686 0.69847 0.2815 0.0
C1092 C 0.40769 0.72159 0.33447 0.0
H1093 H 0.30231 0.82895 0.34889 0.0
H1094 H 0.33132 0.79787 0.32683 0.0
H1095 H 0.40233 0.74395 0.361 0.0
H1096 H 0.45003 0.63928 0.30885 0.0
H1097 H 0.41999 0.67149 0.32864 0.0
H1098 H 0.35084 0.72482 0.29225 0.0
C1099 C 0.32749 0.79391 0.34297 0.0
C1100 C 0.3906 0.73987 0.34607 0.0
C1101 C 0.31097 0.8117 0.35552 0.0
C1102 C 0.44098 0.65571 0.30099 0.0
C1103 C 0.42393 0.67426 0.31234 0.0
C1104 C 0.3626 0.72898 0.30715 0.0
C1105 C 0.34006 0.77158 0.35135 0.0
C1106 C 0.35907 0.75285 0.33847 0.0
C1107 C 0.41165 0.6959 0.30276 0.0
C1108 C 0.39377 0.71575 0.31491 0.0
H1109 H 0.31516 0.78122 0.40107 0.0
H1110 H 0.34346 0.7502 0.37935 0.0
H1111 H 0.32105 0.75677 0.31253 0.0
H1112 H 0.43807 0.68272 0.25387 0.0
H1113 H 0.40839 0.71502 0.27365 0.0
C1114 C 0.20245 0.72669 0.88637 0.0
C1115 C 0.20851 0.70403 0.87723 0.0
C1116 C 0.17881 0.74385 0.87703 0.0
C1117 C 0.10645 0.75342 0.83638 0.0
H1118 H 0.15171 0.81808 0.83374 0.0
C1119 C 0.05829 0.82784 0.77899 0.0
C1120 C 0.05429 0.85161 0.78656 0.0
C1121 C 0.07413 0.80952 0.7912 0.0
C1122 C 0.13842 0.80023 0.83457 0.0
H1123 H 0.19374 0.68069 0.85187 0.0
H1124 H 0.15197 0.71075 0.83534 0.0
H1125 H 0.1829 0.78612 0.85348 0.0
H1126 H 0.06366 0.87494 0.81271 0.0
H1127 H 0.09217 0.84297 0.83399 0.0
H1128 H 0.06235 0.76761 0.81701 0.0
C1129 C 0.16528 0.71529 0.84979 0.0
C1130 C 0.15622 0.7819 0.84592 0.0
C1131 C 0.18914 0.6981 0.85918 0.0
C1132 C 0.06652 0.85676 0.80652 0.0
C1133 C 0.0829 0.83851 0.81864 0.0
C1134 C 0.08866 0.7718 0.82494 0.0
C1135 C 0.1609 0.73867 0.85829 0.0
C1136 C 0.14056 0.75825 0.84692 0.0
C1137 C 0.08672 0.81467 0.81113 0.0
C1138 C 0.10461 0.79535 0.82384 0.0
H1139 H 0.21733 0.73157 0.90031 0.0
H1140 H 0.17551 0.76148 0.88417 0.0
H1141 H 0.09346 0.73548 0.83701 0.0
H1142 H 0.04865 0.82331 0.76372 0.0
H1143 H 0.07703 0.79139 0.78493 0.0
loop_
_geom_bond_atom_site_label_1
_geom_bond_atom_site_label_2
_geom_bond_distance
_geom_bond_site_symmetry_2
_ccdc_geom_bond_type
H0 C3 0.929 . S
H1 C6 0.929 . S
H2 C8 0.930 . S
C3 H0 0.929 . S
C3 C4 1.398 . S
C3 C5 1.396 . S
C4 C3 1.398 . S
C4 C8 1.407 . S
C5 C3 1.396 . S
C5 C6 1.394 . S
C6 H1 0.929 . S
C6 C5 1.394 . S
C6 C7 1.382 . S
C7 C6 1.382 . S
C7 C8 1.392 . S
C7 N9 1.420 . S
C8 H2 0.930 . S
C8 C4 1.407 . S
C8 C7 1.392 . S
N9 C7 1.420 . S
N9 C10 1.244 . S
C10 N9 1.244 . S
H11 C14 0.929 . S
H12 C17 0.929 . S
H13 C19 0.930 . S
C14 H11 0.929 . S
C14 C15 1.398 . S
C14 C16 1.396 . S
C15 C14 1.398 . S
C15 C19 1.407 . S
C16 C14 1.396 . S
C16 C17 1.394 . S
C17 H12 0.929 . S
C17 C16 1.394 . S
C17 C18 1.382 . S
C18 C17 1.382 . S
C18 C19 1.392 . S
C18 N20 1.420 . S
C19 H13 0.930 . S
C19 C15 1.407 . S
C19 C18 1.392 . S
N20 C18 1.420 . S
N20 C21 1.244 . S
C21 N20 1.244 . S
H22 C25 0.929 . S
H23 C28 0.929 . S
H24 C30 0.930 . S
C25 H22 0.929 . S
C25 C26 1.398 . S
C25 C27 1.396 . S
C26 C25 1.398 . S
C26 C30 1.407 . S
C27 C25 1.396 . S
C27 C28 1.394 . S
C28 H23 0.929 . S
C28 C27 1.394 . S
C28 C29 1.382 . S
C29 C28 1.382 . S
C29 C30 1.392 . S
C29 N31 1.420 . S
C30 H24 0.930 . S
C30 C26 1.407 . S
C30 C29 1.392 . S
N31 C29 1.420 . S
N31 C32 1.244 . S
C32 N31 1.244 . S
H33 C36 0.929 . S
H34 C39 0.929 . S
H35 C41 0.930 . S
C36 H33 0.929 . S
C36 C37 1.398 . S
C36 C38 1.396 . S
C37 C36 1.398 . S
C37 C41 1.407 . S
C38 C36 1.396 . S
C38 C39 1.394 . S
C39 H34 0.929 . S
C39 C38 1.394 . S
C39 C40 1.382 . S
C40 C39 1.382 . S
C40 C41 1.392 . S
C40 N42 1.420 . S
C41 H35 0.930 . S
C41 C37 1.407 . S
C41 C40 1.392 . S
N42 C40 1.420 . S
N42 C43 1.244 . S
C43 N42 1.244 . S
H44 C47 0.929 . S
H45 C50 0.929 . S
H46 C52 0.930 . S
C47 H44 0.929 . S
C47 C48 1.398 . S
C47 C49 1.396 . S
C48 C47 1.398 . S
C48 C52 1.407 . S
C49 C47 1.396 . S
C49 C50 1.394 . S
C50 H45 0.929 . S
C50 C49 1.394 . S
C50 C51 1.382 . S
C51 C50 1.382 . S
C51 C52 1.392 . S
C51 N53 1.420 . S
C52 H46 0.930 . S
C52 C48 1.407 . S
C52 C51 1.392 . S
N53 C51 1.420 . S
N53 C54 1.244 . S
C54 N53 1.244 . S
H55 C58 0.929 . S
H56 C61 0.929 . S
H57 C63 0.930 . S
C58 H55 0.929 . S
C58 C59 1.398 . S
C58 C60 1.396 . S
C59 C58 1.398 . S
C59 C63 1.407 . S
C60 C58 1.396 . S
C60 C61 1.394 . S
C61 H56 0.929 . S
C61 C60 1.394 . S
C61 C62 1.382 . S
C62 C61 1.382 . S
C62 C63 1.392 . S
C62 N64 1.420 . S
C63 H57 0.930 . S
C63 C59 1.407 . S
C63 C62 1.392 . S
N64 C62 1.420 . S
N64 C65 1.244 . S
C65 N64 1.244 . S
H66 C69 0.929 . S
H67 C72 0.929 . S
H68 C74 0.930 . S
C69 H66 0.929 . S
C69 C70 1.398 . S
C69 C71 1.396 . S
C70 C69 1.398 . S
C70 C74 1.407 . S
C71 C69 1.396 . S
C71 C72 1.394 . S
C72 H67 0.929 . S
C72 C71 1.394 . S
C72 C73 1.382 . S
C73 C72 1.382 . S
C73 C74 1.392 . S
C73 N75 1.420 . S
C74 H68 0.930 . S
C74 C70 1.407 . S
C74 C73 1.392 . S
N75 C73 1.420 . S
N75 C76 1.244 . S
C76 N75 1.244 . S
H77 C80 0.929 . S
H78 C83 0.929 . S
H79 C85 0.930 . S
C80 H77 0.929 . S
C80 C81 1.398 . S
C80 C82 1.396 . S
C81 C80 1.398 . S
C81 C85 1.407 . S
C82 C80 1.396 . S
C82 C83 1.394 . S
C83 H78 0.929 . S
C83 C82 1.394 . S
C83 C84 1.382 . S
C84 C83 1.382 . S
C84 C85 1.392 . S
C84 N86 1.420 . S
C85 H79 0.930 . S
C85 C81 1.407 . S
C85 C84 1.392 . S
N86 C84 1.420 . S
N86 C87 1.244 . S
C87 N86 1.244 . S
C88 C90 1.422 . S
C88 C92 1.415 . S
C88 N94 1.369 . S
C89 C90 1.421 . S
C89 C91 1.417 . S
C89 C101 1.422 . S
C90 C88 1.422 . S
C90 C89 1.421 . S
C90 N100 1.359 . S
C91 C89 1.417 . S
C91 C93 1.329 . S
C91 H110 0.930 . S
C92 C88 1.415 . S
C92 C93 1.437 . S
C92 C96 1.413 . S
C93 C91 1.329 . S
C93 C92 1.437 . S
C93 H115 0.929 . S
N94 C88 1.369 . S
N94 C95 1.338 . S
N94 Gd99 2.622 . S
C95 N94 1.338 . S
C95 C97 1.378 . S
C95 H107 0.929 . S
C96 C92 1.413 . S
C96 C97 1.348 . S
C96 H112 0.931 . S
C97 C95 1.378 . S
C97 C96 1.348 . S
C97 H113 0.930 . S
Gd98 N118 2.622 . S
Gd98 N125 2.570 . S
Gd98 O132 2.353 . S
Gd98 O133 2.468 . S
Gd98 O134 2.427 . S
Gd98 O136 2.388 . S
Gd98 O137 2.386 . S
Gd98 O141 2.307 . S
Gd98 C151 2.805 . S
Gd99 N94 2.622 . S
Gd99 N100 2.570 . S
Gd99 O131 2.386 . S
Gd99 O135 2.307 1_655 S
Gd99 O138 2.353 1_655 S
Gd99 O139 2.468 . S
Gd99 O140 2.427 . S
Gd99 O142 2.388 . S
Gd99 C163 2.805 . S
N100 C90 1.359 . S
N100 Gd99 2.570 . S
N100 C102 1.343 . S
C101 C89 1.422 . S
C101 C103 1.321 . S
C101 H109 0.931 . S
C102 N100 1.343 . S
C102 C103 1.390 . S
C102 H104 0.931 . S
C103 C101 1.321 . S
C103 C102 1.390 . S
C103 H105 0.930 . S
H104 C102 0.931 . S
H105 C103 0.930 . S
H106 C129 0.931 . S
H107 C95 0.929 . S
H108 C130 0.930 . S
H109 C101 0.931 . S
H110 C91 0.930 . S
H111 C120 0.929 . S
H112 C96 0.931 . S
H113 C97 0.930 . S
H114 C152 0.930 . S
H115 C93 0.929 . S
H116 C121 0.931 . S
H117 C122 0.930 . S
N118 Gd98 2.622 . S
N118 C119 1.369 . S
N118 C120 1.338 . S
C119 N118 1.369 . S
C119 C123 1.415 . S
C119 C126 1.422 . S
C120 H111 0.929 . S
C120 N118 1.338 . S
C120 C122 1.378 . S
C121 H116 0.931 . S
C121 C122 1.348 . S
C121 C123 1.413 . S
C122 H117 0.930 . S
C122 C120 1.378 . S
C122 C121 1.348 . S
C123 C119 1.415 . S
C123 C121 1.413 . S
C123 C153 1.437 . S
H124 C153 0.929 . S
N125 Gd98 2.570 . S
N125 C126 1.359 . S
N125 C129 1.343 . S
C126 C119 1.422 . S
C126 N125 1.359 . S
C126 C128 1.421 . S
C127 C128 1.422 . S
C127 C130 1.321 . S
C127 H154 0.931 . S
C128 C126 1.421 . S
C128 C127 1.422 . S
C128 C152 1.417 . S
C129 H106 0.931 . S
C129 N125 1.343 . S
C129 C130 1.390 . S
C130 H108 0.930 . S
C130 C127 1.321 . S
C130 C129 1.390 . S
O131 Gd99 2.386 . S
O131 C143 1.265 . S
O132 Gd98 2.353 . S
O132 C143 1.242 1_455 S
O133 Gd98 2.468 . S
O133 C151 1.263 . S
O134 Gd98 2.427 . S
O134 C151 1.252 . S
O135 Gd99 2.307 1_455 S
O135 C144 1.261 . S
O136 Gd98 2.388 . S
O136 C144 1.252 . S
O137 Gd98 2.386 . S
O137 C155 1.265 . S
O138 Gd99 2.353 1_455 S
O138 C155 1.242 . S
O139 Gd99 2.468 . S
O139 C163 1.263 . S
O140 Gd99 2.427 . S
O140 C163 1.252 . S
O141 Gd98 2.307 . S
O141 C156 1.261 1_455 S
O142 Gd99 2.388 . S
O142 C156 1.252 . S
C143 O131 1.265 . S
C143 O132 1.242 1_655 S
C144 O135 1.261 . S
C144 O136 1.252 . S
C145 C148 1.394 . S
C145 C150 1.370 . S
C145 C151 1.500 . S
C146 C149 1.383 . S
C146 C150 1.395 . S
C147 C148 1.396 . S
C147 C149 1.365 . S
C147 H164 0.929 . S
C148 C145 1.394 . S
C148 C147 1.396 . S
C148 H165 0.930 . S
C149 C146 1.383 . S
C149 C147 1.365 . S
C149 H166 0.931 . S
C150 C145 1.370 . S
C150 C146 1.395 . S
C150 H167 0.930 . S
C151 Gd98 2.805 . S
C151 O133 1.263 . S
C151 O134 1.252 . S
C151 C145 1.500 . S
C152 H114 0.930 . S
C152 C128 1.417 . S
C152 C153 1.329 . S
C153 C123 1.437 . S
C153 H124 0.929 . S
C153 C152 1.329 . S
H154 C127 0.931 . S
C155 O137 1.265 . S
C155 O138 1.242 . S
C156 O141 1.261 1_655 S
C156 O142 1.252 . S
C157 C160 1.394 . S
C157 C162 1.370 . S
C157 C163 1.500 . S
C158 C161 1.383 . S
C158 C162 1.395 . S
C159 C160 1.396 . S
C159 C161 1.365 . S
C159 H168 0.929 . S
C160 C157 1.394 . S
C160 C159 1.396 . S
C160 H169 0.930 . S
C161 C158 1.383 . S
C161 C159 1.365 . S
C161 H170 0.931 . S
C162 C157 1.370 . S
C162 C158 1.395 . S
C162 H171 0.930 . S
C163 Gd99 2.805 . S
C163 O139 1.263 . S
C163 O140 1.252 . S
C163 C157 1.500 . S
H164 C147 0.929 . S
H165 C148 0.930 . S
H166 C149 0.931 . S
H167 C150 0.930 . S
H168 C159 0.929 . S
H169 C160 0.930 . S
H170 C161 0.931 . S
H171 C162 0.930 . S
C172 C174 1.422 . S
C172 C176 1.415 . S
C172 N178 1.369 . S
C173 C174 1.421 . S
C173 C175 1.417 . S
C173 C185 1.422 . S
C174 C172 1.422 . S
C174 C173 1.421 . S
C174 N184 1.359 . S
C175 C173 1.417 . S
C175 C177 1.329 . S
C175 H194 0.930 . S
C176 C172 1.415 . S
C176 C177 1.437 . S
C176 C180 1.413 . S
C177 C175 1.329 . S
C177 C176 1.437 . S
C177 H199 0.929 . S
N178 C172 1.369 . S
N178 C179 1.338 . S
N178 Gd183 2.622 . S
C179 N178 1.338 . S
C179 C181 1.378 . S
C179 H191 0.929 . S
C180 C176 1.413 . S
C180 C181 1.348 . S
C180 H196 0.931 . S
C181 C179 1.378 . S
C181 C180 1.348 . S
C181 H197 0.930 . S
Gd182 N202 2.622 . S
Gd182 N209 2.570 . S
Gd182 O216 2.353 . S
Gd182 O217 2.468 . S
Gd182 O218 2.427 . S
Gd182 O220 2.388 . S
Gd182 O221 2.386 . S
Gd182 O225 2.307 . S
Gd182 C235 2.805 . S
Gd183 N178 2.622 . S
Gd183 N184 2.570 . S
Gd183 O215 2.386 . S
Gd183 O219 2.307 . S
Gd183 O222 2.353 . S
Gd183 O223 2.468 . S
Gd183 O224 2.427 . S
Gd183 O226 2.388 . S
Gd183 C247 2.805 . S
N184 C174 1.359 . S
N184 Gd183 2.570 . S
N184 C186 1.343 . S
C185 C173 1.422 . S
C185 C187 1.321 . S
C185 H193 0.931 . S
C186 N184 1.343 . S
C186 C187 1.390 . S
C186 H188 0.931 . S
C187 C185 1.321 . S
C187 C186 1.390 . S
C187 H189 0.930 . S
H188 C186 0.931 . S
H189 C187 0.930 . S
H190 C213 0.931 . S
H191 C179 0.929 . S
H192 C214 0.930 . S
H193 C185 0.931 . S
H194 C175 0.930 . S
H195 C204 0.929 . S
H196 C180 0.931 . S
H197 C181 0.930 . S
H198 C236 0.930 . S
H199 C177 0.929 . S
H200 C205 0.931 . S
H201 C206 0.930 . S
N202 Gd182 2.622 . S
N202 C203 1.369 . S
N202 C204 1.338 . S
C203 N202 1.369 . S
C203 C207 1.415 . S
C203 C210 1.422 . S
C204 H195 0.929 . S
C204 N202 1.338 . S
C204 C206 1.378 . S
C205 H200 0.931 . S
C205 C206 1.348 . S
C205 C207 1.413 . S
C206 H201 0.930 . S
C206 C204 1.378 . S
C206 C205 1.348 . S
C207 C203 1.415 . S
C207 C205 1.413 . S
C207 C237 1.437 . S
H208 C237 0.929 . S
N209 Gd182 2.570 . S
N209 C210 1.359 . S
N209 C213 1.343 . S
C210 C203 1.422 . S
C210 N209 1.359 . S
C210 C212 1.421 . S
C211 C212 1.422 . S
C211 C214 1.321 . S
C211 H238 0.931 . S
C212 C210 1.421 . S
C212 C211 1.422 . S
C212 C236 1.417 . S
C213 H190 0.931 . S
C213 N209 1.343 . S
C213 C214 1.390 . S
C214 H192 0.930 . S
C214 C211 1.321 . S
C214 C213 1.390 . S
O215 Gd183 2.386 . S
O215 C227 1.265 . S
O216 Gd182 2.353 . S
O216 C227 1.242 . S
O217 Gd182 2.468 . S
O217 C235 1.263 . S
O218 Gd182 2.427 . S
O218 C235 1.252 . S
O219 Gd183 2.307 . S
O219 C228 1.261 . S
O220 Gd182 2.388 . S
O220 C228 1.252 . S
O221 Gd182 2.386 . S
O221 C239 1.265 . S
O222 Gd183 2.353 . S
O222 C239 1.242 . S
O223 Gd183 2.468 . S
O223 C247 1.263 . S
O224 Gd183 2.427 . S
O224 C247 1.252 . S
O225 Gd182 2.307 . S
O225 C240 1.261 . S
O226 Gd183 2.388 . S
O226 C240 1.252 . S
C227 O215 1.265 . S
C227 O216 1.242 . S
C228 O219 1.261 . S
C228 O220 1.252 . S
C229 C232 1.394 . S
C229 C234 1.370 . S
C229 C235 1.500 . S
C230 C233 1.383 . S
C230 C234 1.395 . S
C231 C232 1.396 . S
C231 C233 1.365 . S
C231 H248 0.929 . S
C232 C229 1.394 . S
C232 C231 1.396 . S
C232 H249 0.930 . S
C233 C230 1.383 . S
C233 C231 1.365 . S
C233 H250 0.931 . S
C234 C229 1.370 . S
C234 C230 1.395 . S
C234 H251 0.930 . S
C235 Gd182 2.805 . S
C235 O217 1.263 . S
C235 O218 1.252 . S
C235 C229 1.500 . S
C236 H198 0.930 . S
C236 C212 1.417 . S
C236 C237 1.329 . S
C237 C207 1.437 . S
C237 H208 0.929 . S
C237 C236 1.329 . S
H238 C211 0.931 . S
C239 O221 1.265 . S
C239 O222 1.242 . S
C240 O225 1.261 . S
C240 O226 1.252 . S
C241 C244 1.394 . S
C241 C246 1.370 . S
C241 C247 1.500 . S
C242 C245 1.383 . S
C242 C246 1.395 . S
C243 C244 1.396 . S
C243 C245 1.365 . S
C243 H252 0.929 . S
C244 C241 1.394 . S
C244 C243 1.396 . S
C244 H253 0.930 . S
C245 C242 1.383 . S
C245 C243 1.365 . S
C245 H254 0.931 . S
C246 C241 1.370 . S
C246 C242 1.395 . S
C246 H255 0.930 . S
C247 Gd183 2.805 . S
C247 O223 1.263 . S
C247 O224 1.252 . S
C247 C241 1.500 . S
H248 C231 0.929 . S
H249 C232 0.930 . S
H250 C233 0.931 . S
H251 C234 0.930 . S
H252 C243 0.929 . S
H253 C244 0.930 . S
H254 C245 0.931 . S
H255 C246 0.930 . S
C256 C258 1.422 . S
C256 C260 1.415 . S
C256 N262 1.369 . S
C257 C258 1.421 . S
C257 C259 1.417 . S
C257 C269 1.422 . S
C258 C256 1.422 . S
C258 C257 1.421 . S
C258 N268 1.359 . S
C259 C257 1.417 . S
C259 C261 1.329 . S
C259 H278 0.930 . S
C260 C256 1.415 . S
C260 C261 1.437 . S
C260 C264 1.413 . S
C261 C259 1.329 . S
C261 C260 1.437 . S
C261 H283 0.929 . S
N262 C256 1.369 . S
N262 C263 1.338 . S
N262 Gd267 2.622 . S
C263 N262 1.338 . S
C263 C265 1.378 . S
C263 H275 0.929 . S
C264 C260 1.413 . S
C264 C265 1.348 . S
C264 H280 0.931 . S
C265 C263 1.378 . S
C265 C264 1.348 . S
C265 H281 0.930 . S
Gd266 N286 2.622 . S
Gd266 N293 2.570 . S
Gd266 O300 2.373 . S
Gd266 O301 2.468 . S
Gd266 O302 2.427 . S
Gd266 O304 2.388 . S
Gd266 O305 2.386 . S
Gd266 O309 2.331 . S
Gd266 C319 2.805 . S
Gd267 N262 2.622 . S
Gd267 N268 2.570 . S
Gd267 O299 2.386 . S
Gd267 O303 2.307 1_655 S
Gd267 O306 2.353 1_655 S
Gd267 O307 2.468 . S
Gd267 O308 2.427 . S
Gd267 O310 2.388 . S
Gd267 C331 2.805 . S
N268 C258 1.359 . S
N268 Gd267 2.570 . S
N268 C270 1.343 . S
C269 C257 1.422 . S
C269 C271 1.321 . S
C269 H277 0.931 . S
C270 N268 1.343 . S
C270 C271 1.390 . S
C270 H272 0.931 . S
C271 C269 1.321 . S
C271 C270 1.390 . S
C271 H273 0.930 . S
H272 C270 0.931 . S
H273 C271 0.930 . S
H274 C297 0.931 . S
H275 C263 0.929 . S
H276 C298 0.930 . S
H277 C269 0.931 . S
H278 C259 0.930 . S
H279 C288 0.929 . S
H280 C264 0.931 . S
H281 C265 0.930 . S
H282 C320 0.930 . S
H283 C261 0.929 . S
H284 C289 0.931 . S
H285 C290 0.930 . S
N286 Gd266 2.622 . S
N286 C287 1.369 . S
N286 C288 1.338 . S
C287 N286 1.369 . S
C287 C291 1.415 . S
C287 C294 1.422 . S
C288 H279 0.929 . S
C288 N286 1.338 . S
C288 C290 1.378 . S
C289 H284 0.931 . S
C289 C290 1.348 . S
C289 C291 1.413 . S
C290 H285 0.930 . S
C290 C288 1.378 . S
C290 C289 1.348 . S
C291 C287 1.415 . S
C291 C289 1.413 . S
C291 C321 1.437 . S
H292 C321 0.929 . S
N293 Gd266 2.570 . S
N293 C294 1.359 . S
N293 C297 1.343 . S
C294 C287 1.422 . S
C294 N293 1.359 . S
C294 C296 1.421 . S
C295 C296 1.422 . S
C295 C298 1.321 . S
C295 H322 0.931 . S
C296 C294 1.421 . S
C296 C295 1.422 . S
C296 C320 1.417 . S
C297 H274 0.931 . S
C297 N293 1.343 . S
C297 C298 1.390 . S
C298 H276 0.930 . S
C298 C295 1.321 . S
C298 C297 1.390 . S
O299 Gd267 2.386 . S
O299 C311 1.265 . S
O300 Gd266 2.373 . S
O300 C311 1.217 1_455 S
O301 Gd266 2.468 . S
O301 C319 1.263 . S
O302 Gd266 2.427 . S
O302 C319 1.252 . S
O303 Gd267 2.307 1_455 S
O303 C312 1.261 . S
O304 Gd266 2.388 . S
O304 C312 1.252 . S
O305 Gd266 2.386 . S
O305 C323 1.265 . S
O306 Gd267 2.353 1_455 S
O306 C323 1.242 . S
O307 Gd267 2.468 . S
O307 C331 1.263 . S
O308 Gd267 2.427 . S
O308 C331 1.252 . S
O309 Gd266 2.331 . S
O309 C324 1.233 1_455 S
O310 Gd267 2.388 . S
O310 C324 1.252 . S
C311 O299 1.265 . S
C311 O300 1.217 1_655 S
C312 O303 1.261 . S
C312 O304 1.252 . S
C313 C316 1.394 . S
C313 C318 1.370 . S
C313 C319 1.500 . S
C314 C317 1.383 . S
C314 C318 1.395 . S
C315 C316 1.396 . S
C315 C317 1.365 . S
C315 H332 0.929 . S
C316 C313 1.394 . S
C316 C315 1.396 . S
C316 H333 0.930 . S
C317 C314 1.383 . S
C317 C315 1.365 . S
C317 H334 0.931 . S
C318 C313 1.370 . S
C318 C314 1.395 . S
C318 H335 0.930 . S
C319 Gd266 2.805 . S
C319 O301 1.263 . S
C319 O302 1.252 . S
C319 C313 1.500 . S
C320 H282 0.930 . S
C320 C296 1.417 . S
C320 C321 1.329 . S
C321 C291 1.437 . S
C321 H292 0.929 . S
C321 C320 1.329 . S
H322 C295 0.931 . S
C323 O305 1.265 . S
C323 O306 1.242 . S
C324 O309 1.233 1_655 S
C324 O310 1.252 . S
C325 C328 1.394 . S
C325 C330 1.370 . S
C325 C331 1.500 . S
C326 C329 1.383 . S
C326 C330 1.395 . S
C327 C328 1.396 . S
C327 C329 1.365 . S
C327 H336 0.929 . S
C328 C325 1.394 . S
C328 C327 1.396 . S
C328 H337 0.930 . S
C329 C326 1.383 . S
C329 C327 1.365 . S
C329 H338 0.931 . S
C330 C325 1.370 . S
C330 C326 1.395 . S
C330 H339 0.930 . S
C331 Gd267 2.805 . S
C331 O307 1.263 . S
C331 O308 1.252 . S
C331 C325 1.500 . S
H332 C315 0.929 . S
H333 C316 0.930 . S
H334 C317 0.931 . S
H335 C318 0.930 . S
H336 C327 0.929 . S
H337 C328 0.930 . S
H338 C329 0.931 . S
H339 C330 0.930 . S
C340 C342 1.422 . S
C340 C344 1.415 . S
C340 N346 1.369 . S
C341 C342 1.421 . S
C341 C343 1.417 . S
C341 C353 1.422 . S
C342 C340 1.422 . S
C342 C341 1.421 . S
C342 N352 1.359 . S
C343 C341 1.417 . S
C343 C345 1.329 . S
C343 H362 0.930 . S
C344 C340 1.415 . S
C344 C345 1.437 . S
C344 C348 1.413 . S
C345 C343 1.329 . S
C345 C344 1.437 . S
C345 H367 0.929 . S
N346 C340 1.369 . S
N346 C347 1.338 . S
N346 Gd351 2.622 . S
C347 N346 1.338 . S
C347 C349 1.378 . S
C347 H359 0.929 . S
C348 C344 1.413 . S
C348 C349 1.348 . S
C348 H364 0.931 . S
C349 C347 1.378 . S
C349 C348 1.348 . S
C349 H365 0.930 . S
Gd350 N370 2.622 . S
Gd350 N377 2.570 . S
Gd350 O384 2.353 . S
Gd350 O385 2.468 . S
Gd350 O386 2.427 . S
Gd350 O388 2.388 . S
Gd350 O389 2.386 . S
Gd350 O393 2.307 . S
Gd350 C403 2.805 . S
Gd351 N346 2.622 . S
Gd351 N352 2.570 . S
Gd351 O383 2.386 . S
Gd351 O387 2.307 . S
Gd351 O390 2.353 . S
Gd351 O391 2.468 . S
Gd351 O392 2.427 . S
Gd351 O394 2.388 . S
Gd351 C415 2.805 . S
N352 C342 1.359 . S
N352 Gd351 2.570 . S
N352 C354 1.343 . S
C353 C341 1.422 . S
C353 C355 1.321 . S
C353 H361 0.931 . S
C354 N352 1.343 . S
C354 C355 1.390 . S
C354 H356 0.931 . S
C355 C353 1.321 . S
C355 C354 1.390 . S
C355 H357 0.930 . S
H356 C354 0.931 . S
H357 C355 0.930 . S
H358 C381 0.931 . S
H359 C347 0.929 . S
H360 C382 0.930 . S
H361 C353 0.931 . S
H362 C343 0.930 . S
H363 C372 0.929 . S
H364 C348 0.931 . S
H365 C349 0.930 . S
H366 C404 0.930 . S
H367 C345 0.929 . S
H368 C373 0.931 . S
H369 C374 0.930 . S
N370 Gd350 2.622 . S
N370 C371 1.369 . S
N370 C372 1.338 . S
C371 N370 1.369 . S
C371 C375 1.415 . S
C371 C378 1.422 . S
C372 H363 0.929 . S
C372 N370 1.338 . S
C372 C374 1.378 . S
C373 H368 0.931 . S
C373 C374 1.348 . S
C373 C375 1.413 . S
C374 H369 0.930 . S
C374 C372 1.378 . S
C374 C373 1.348 . S
C375 C371 1.415 . S
C375 C373 1.413 . S
C375 C405 1.437 . S
H376 C405 0.929 . S
N377 Gd350 2.570 . S
N377 C378 1.359 . S
N377 C381 1.343 . S
C378 C371 1.422 . S
C378 N377 1.359 . S
C378 C380 1.421 . S
C379 C380 1.422 . S
C379 C382 1.321 . S
C379 H406 0.931 . S
C380 C378 1.421 . S
C380 C379 1.422 . S
C380 C404 1.417 . S
C381 H358 0.931 . S
C381 N377 1.343 . S
C381 C382 1.390 . S
C382 H360 0.930 . S
C382 C379 1.321 . S
C382 C381 1.390 . S
O383 Gd351 2.386 . S
O383 C395 1.265 . S
O384 Gd350 2.353 . S
O384 C395 1.242 . S
O385 Gd350 2.468 . S
O385 C403 1.263 . S
O386 Gd350 2.427 . S
O386 C403 1.252 . S
O387 Gd351 2.307 . S
O387 C396 1.261 . S
O388 Gd350 2.388 . S
O388 C396 1.252 . S
O389 Gd350 2.386 . S
O389 C407 1.265 . S
O390 Gd351 2.353 . S
O390 C407 1.242 . S
O391 Gd351 2.468 . S
O391 C415 1.263 . S
O392 Gd351 2.427 . S
O392 C415 1.252 . S
O393 Gd350 2.307 . S
O393 C408 1.261 . S
O394 Gd351 2.388 . S
O394 C408 1.252 . S
C395 O383 1.265 . S
C395 O384 1.242 . S
C396 O387 1.261 . S
C396 O388 1.252 . S
C397 C400 1.394 . S
C397 C402 1.370 . S
C397 C403 1.500 . S
C398 C401 1.383 . S
C398 C402 1.395 . S
C399 C400 1.396 . S
C399 C401 1.365 . S
C399 H416 0.929 . S
C400 C397 1.394 . S
C400 C399 1.396 . S
C400 H417 0.930 . S
C401 C398 1.383 . S
C401 C399 1.365 . S
C401 H418 0.931 . S
C402 C397 1.370 . S
C402 C398 1.395 . S
C402 H419 0.930 . S
C403 Gd350 2.805 . S
C403 O385 1.263 . S
C403 O386 1.252 . S
C403 C397 1.500 . S
C404 H366 0.930 . S
C404 C380 1.417 . S
C404 C405 1.329 . S
C405 C375 1.437 . S
C405 H376 0.929 . S
C405 C404 1.329 . S
H406 C379 0.931 . S
C407 O389 1.265 . S
C407 O390 1.242 . S
C408 O393 1.261 . S
C408 O394 1.252 . S
C409 C412 1.394 . S
C409 C414 1.370 . S
C409 C415 1.500 . S
C410 C413 1.383 . S
C410 C414 1.395 . S
C411 C412 1.396 . S
C411 C413 1.365 . S
C411 H420 0.929 . S
C412 C409 1.394 . S
C412 C411 1.396 . S
C412 H421 0.930 . S
C413 C410 1.383 . S
C413 C411 1.365 . S
C413 H422 0.931 . S
C414 C409 1.370 . S
C414 C410 1.395 . S
C414 H423 0.930 . S
C415 Gd351 2.805 . S
C415 O391 1.263 . S
C415 O392 1.252 . S
C415 C409 1.500 . S
H416 C399 0.929 . S
H417 C400 0.930 . S
H418 C401 0.931 . S
H419 C402 0.930 . S
H420 C411 0.929 . S
H421 C412 0.930 . S
H422 C413 0.931 . S
H423 C414 0.930 . S
C424 C425 1.349 . S
C424 C426 1.327 . S
C424 H449 0.950 . S
C425 C424 1.349 . S
C425 C441 1.349 . S
C426 C424 1.327 . S
C426 C445 1.429 . S
C426 H450 0.950 . S
C427 C444 1.574 . S
C427 C446 1.368 . S
C427 H451 0.949 . S
H428 C432 0.949 . S
C429 C430 1.349 . S
C429 C431 1.327 . S
C429 H452 0.950 . S
C430 C429 1.349 . S
C430 C442 1.349 . S
C431 C429 1.327 . S
C431 C447 1.429 . S
C431 H453 0.950 1_545 S
C432 H428 0.949 . S
C432 C440 1.574 1_545 S
C432 C448 1.368 1_545 S
H433 C441 0.950 . S
H434 C439 0.950 . S
H435 C440 0.949 . S
H436 C442 0.950 . S
H437 C443 0.950 . S
H438 C444 0.949 . S
C439 H434 0.950 . S
C439 C441 1.327 . S
C439 C445 1.429 . S
C440 C432 1.574 1_565 S
C440 H435 0.949 . S
C440 C446 1.368 . S
C441 C425 1.349 . S
C441 H433 0.950 . S
C441 C439 1.327 . S
C442 C430 1.349 . S
C442 H436 0.950 . S
C442 C443 1.327 . S
C443 H437 0.950 . S
C443 C442 1.327 . S
C443 C447 1.429 . S
C444 C427 1.574 . S
C444 H438 0.949 . S
C444 C448 1.368 . S
C445 C426 1.429 . S
C445 C439 1.429 . S
C445 C446 1.523 . S
C446 C427 1.368 . S
C446 C440 1.368 . S
C446 C445 1.523 . S
C447 C431 1.429 . S
C447 C443 1.429 . S
C447 C448 1.523 1_545 S
C448 C432 1.368 1_565 S
C448 C444 1.368 . S
C448 C447 1.523 1_565 S
H449 C424 0.950 . S
H450 C426 0.950 . S
H451 C427 0.949 . S
H452 C429 0.950 . S
H453 C431 0.950 1_565 S
C454 C455 1.349 . S
C454 C456 1.327 . S
C454 H479 0.950 . S
C455 C454 1.349 . S
C455 C471 1.349 . S
C456 C454 1.327 . S
C456 C475 1.429 . S
C456 H480 0.950 . S
C457 C474 1.574 . S
C457 C476 1.368 . S
C457 H481 0.949 . S
H458 C462 0.949 . S
C459 C460 1.349 . S
C459 C461 1.327 . S
C459 H482 0.950 . S
C460 C459 1.349 . S
C460 C472 1.349 . S
C461 C459 1.327 . S
C461 C477 1.429 . S
C461 H483 0.950 . S
C462 H458 0.949 . S
C462 C470 1.574 . S
C462 C478 1.368 . S
H463 C471 0.950 . S
H464 C469 0.950 . S
H465 C470 0.949 . S
H466 C472 0.950 . S
H467 C473 0.950 . S
H468 C474 0.949 . S
C469 H464 0.950 . S
C469 C471 1.327 . S
C469 C475 1.429 . S
C470 C462 1.574 . S
C470 H465 0.949 . S
C470 C476 1.368 . S
C471 C455 1.349 . S
C471 H463 0.950 . S
C471 C469 1.327 . S
C472 C460 1.349 . S
C472 H466 0.950 . S
C472 C473 1.327 . S
C473 H467 0.950 . S
C473 C472 1.327 . S
C473 C477 1.429 . S
C474 C457 1.574 . S
C474 H468 0.949 . S
C474 C478 1.368 . S
C475 C456 1.429 . S
C475 C469 1.429 . S
C475 C476 1.523 . S
C476 C457 1.368 . S
C476 C470 1.368 . S
C476 C475 1.523 . S
C477 C461 1.429 . S
C477 C473 1.429 . S
C477 C478 1.523 . S
C478 C462 1.368 . S
C478 C474 1.368 . S
C478 C477 1.523 . S
H479 C454 0.950 . S
H480 C456 0.950 . S
H481 C457 0.949 . S
H482 C459 0.950 . S
H483 C461 0.950 . S
C484 C485 1.349 . S
C484 C486 1.327 . S
C484 H509 0.950 . S
C485 C484 1.349 . S
C485 C501 1.349 . S
C486 C484 1.327 . S
C486 C505 1.429 . S
C486 H510 0.950 . S
C487 C504 1.574 . S
C487 C506 1.368 . S
C487 H511 0.949 . S
H488 C492 0.949 . S
C489 C490 1.349 . S
C489 C491 1.327 . S
C489 H512 0.950 . S
C490 C489 1.349 . S
C490 C502 1.349 . S
C491 C489 1.327 . S
C491 C507 1.429 . S
C491 H513 0.950 . S
C492 H488 0.949 . S
C492 C500 1.574 . S
C492 C508 1.368 . S
H493 C501 0.950 . S
H494 C499 0.950 . S
H495 C500 0.949 . S
H496 C502 0.950 . S
H497 C503 0.950 . S
H498 C504 0.949 . S
C499 H494 0.950 . S
C499 C501 1.327 . S
C499 C505 1.429 . S
C500 C492 1.574 . S
C500 H495 0.949 . S
C500 C506 1.368 . S
C501 C485 1.349 . S
C501 H493 0.950 . S
C501 C499 1.327 . S
C502 C490 1.349 . S
C502 H496 0.950 . S
C502 C503 1.327 . S
C503 H497 0.950 . S
C503 C502 1.327 . S
C503 C507 1.429 . S
C504 C487 1.574 . S
C504 H498 0.949 . S
C504 C508 1.368 . S
C505 C486 1.429 . S
C505 C499 1.429 . S
C505 C506 1.523 . S
C506 C487 1.368 . S
C506 C500 1.368 . S
C506 C505 1.523 . S
C507 C491 1.429 . S
C507 C503 1.429 . S
C507 C508 1.523 . S
C508 C492 1.368 . S
C508 C504 1.368 . S
C508 C507 1.523 . S
H509 C484 0.950 . S
H510 C486 0.950 . S
H511 C487 0.949 . S
H512 C489 0.950 . S
H513 C491 0.950 . S
C514 C515 1.349 . S
C514 C516 1.327 . S
C514 H539 0.950 . S
C515 C514 1.349 . S
C515 C531 1.349 . S
C516 C514 1.327 . S
C516 C535 1.429 . S
C516 H540 0.950 . S
C517 C534 1.574 . S
C517 C536 1.368 . S
C517 H541 0.949 . S
H518 C522 0.949 . S
C519 C520 1.349 . S
C519 C521 1.327 . S
C519 H542 0.950 . S
C520 C519 1.349 . S
C520 C532 1.349 . S
C521 C519 1.327 . S
C521 C537 1.429 . S
C521 H543 0.950 1_545 S
C522 H518 0.949 . S
C522 C530 1.574 1_545 S
C522 C538 1.358 1_545 S
H523 C531 0.950 . S
H524 C529 0.950 . S
H525 C530 0.949 . S
H526 C532 0.950 . S
H527 C533 0.950 . S
H528 C534 0.949 . S
C529 H524 0.950 . S
C529 C531 1.327 . S
C529 C535 1.429 . S
C530 C522 1.574 1_565 S
C530 H525 0.949 . S
C530 C536 1.368 . S
C531 C515 1.349 . S
C531 H523 0.950 . S
C531 C529 1.327 . S
C532 C520 1.349 . S
C532 H526 0.950 . S
C532 C533 1.327 . S
C533 H527 0.950 . S
C533 C532 1.327 . S
C533 C537 1.429 . S
C534 C517 1.574 . S
C534 H528 0.949 . S
C534 C538 1.391 . S
C535 C516 1.429 . S
C535 C529 1.429 . S
C535 C536 1.523 . S
C536 C517 1.368 . S
C536 C530 1.368 . S
C536 C535 1.523 . S
C537 C521 1.429 . S
C537 C533 1.429 . S
C537 C538 1.507 1_545 S
C538 C522 1.358 1_565 S
C538 C534 1.391 . S
C538 C537 1.507 1_565 S
H539 C514 0.950 . S
H540 C516 0.950 . S
H541 C517 0.949 . S
H542 C519 0.950 . S
H543 C521 0.950 1_565 S
C544 C545 1.349 . S
C544 C546 1.327 . S
C544 H569 0.950 . S
C545 C544 1.349 . S
C545 C561 1.349 . S
C546 C544 1.327 . S
C546 C565 1.429 . S
C546 H570 0.950 . S
C547 C564 1.574 . S
C547 C566 1.368 . S
C547 H571 0.949 . S
H548 C552 0.949 . S
C549 C550 1.349 . S
C549 C551 1.327 . S
C549 H572 0.950 . S
C550 C549 1.349 . S
C550 C562 1.349 . S
C551 C549 1.327 . S
C551 C567 1.429 . S
C551 H573 0.950 . S
C552 H548 0.949 . S
C552 C560 1.574 . S
C552 C568 1.368 . S
H553 C561 0.950 . S
H554 C559 0.950 . S
H555 C560 0.949 . S
H556 C562 0.950 . S
H557 C563 0.950 . S
H558 C564 0.949 . S
C559 H554 0.950 . S
C559 C561 1.327 . S
C559 C565 1.429 . S
C560 C552 1.574 . S
C560 H555 0.949 . S
C560 C566 1.368 . S
C561 C545 1.349 . S
C561 H553 0.950 . S
C561 C559 1.327 . S
C562 C550 1.349 . S
C562 H556 0.950 . S
C562 C563 1.327 . S
C563 H557 0.950 . S
C563 C562 1.327 . S
C563 C567 1.429 . S
C564 C547 1.574 . S
C564 H558 0.949 . S
C564 C568 1.368 . S
C565 C546 1.429 . S
C565 C559 1.429 . S
C565 C566 1.523 . S
C566 C547 1.368 . S
C566 C560 1.368 . S
C566 C565 1.523 . S
C567 C551 1.429 . S
C567 C563 1.429 . S
C567 C568 1.523 1_565 S
C568 C552 1.368 . S
C568 C564 1.368 . S
C568 C567 1.523 1_545 S
H569 C544 0.950 . S
H570 C546 0.950 . S
H571 C547 0.949 . S
H572 C549 0.950 . S
H573 C551 0.950 . S
C574 C575 1.349 . S
C574 C576 1.327 . S
C574 H599 0.950 . S
C575 C574 1.349 . S
C575 C591 1.349 . S
C576 C574 1.327 . S
C576 C595 1.429 . S
C576 H600 0.950 . S
C577 C594 1.574 . S
C577 C596 1.368 . S
C577 H601 0.949 . S
H578 C582 0.949 . S
C579 C580 1.349 . S
C579 C581 1.327 . S
C579 H602 0.950 . S
C580 C579 1.349 . S
C580 C592 1.349 . S
C581 C579 1.327 . S
C581 C597 1.429 . S
C581 H603 0.950 . S
C582 H578 0.949 . S
C582 C590 1.574 . S
C582 C598 1.368 . S
H583 C591 0.950 . S
H584 C589 0.950 . S
H585 C590 0.949 . S
H586 C592 0.950 . S
H587 C593 0.950 . S
H588 C594 0.949 . S
C589 H584 0.950 . S
C589 C591 1.327 . S
C589 C595 1.429 . S
C590 C582 1.574 . S
C590 H585 0.949 . S
C590 C596 1.368 . S
C591 C575 1.349 . S
C591 H583 0.950 . S
C591 C589 1.327 . S
C592 C580 1.349 . S
C592 H586 0.950 . S
C592 C593 1.327 . S
C593 H587 0.950 . S
C593 C592 1.327 . S
C593 C597 1.429 . S
C594 C577 1.574 . S
C594 H588 0.949 . S
C594 C598 1.368 . S
C595 C576 1.429 . S
C595 C589 1.429 . S
C595 C596 1.523 . S
C596 C577 1.368 . S
C596 C590 1.368 . S
C596 C595 1.523 . S
C597 C581 1.429 . S
C597 C593 1.429 . S
C597 C598 1.523 . S
C598 C582 1.368 . S
C598 C594 1.368 . S
C598 C597 1.523 . S
H599 C574 0.950 . S
H600 C576 0.950 . S
H601 C577 0.949 . S
H602 C579 0.950 . S
H603 C581 0.950 . S
C604 C605 1.349 . S
C604 C606 1.327 . S
C604 H629 0.950 . S
C605 C604 1.349 . S
C605 C621 1.349 . S
C606 C604 1.327 . S
C606 C625 1.429 . S
C606 H630 0.950 . S
C607 C624 1.574 . S
C607 C626 1.368 . S
C607 H631 0.949 . S
H608 C612 0.949 . S
C609 C610 1.349 . S
C609 C611 1.327 . S
C609 H632 0.950 . S
C610 C609 1.349 . S
C610 C622 1.349 . S
C611 C609 1.327 . S
C611 C627 1.429 . S
C611 H633 0.950 . S
C612 H608 0.949 . S
C612 C620 1.574 . S
C612 C628 1.368 . S
H613 C621 0.950 . S
H614 C619 0.950 . S
H615 C620 0.949 . S
H616 C622 0.950 . S
H617 C623 0.950 . S
H618 C624 0.949 . S
C619 H614 0.950 . S
C619 C621 1.327 . S
C619 C625 1.429 . S
C620 C612 1.574 . S
C620 H615 0.949 . S
C620 C626 1.368 . S
C621 C605 1.349 . S
C621 H613 0.950 . S
C621 C619 1.327 . S
C622 C610 1.349 . S
C622 H616 0.950 . S
C622 C623 1.327 . S
C623 H617 0.950 . S
C623 C622 1.327 . S
C623 C627 1.429 . S
C624 C607 1.574 . S
C624 H618 0.949 . S
C624 C628 1.368 . S
C625 C606 1.429 . S
C625 C619 1.429 . S
C625 C626 1.523 . S
C626 C607 1.368 . S
C626 C620 1.368 . S
C626 C625 1.523 . S
C627 C611 1.429 . S
C627 C623 1.429 . S
C627 C628 1.523 . S
C628 C612 1.368 . S
C628 C624 1.368 . S
C628 C627 1.523 . S
H629 C604 0.950 . S
H630 C606 0.950 . S
H631 C607 0.949 . S
H632 C609 0.950 . S
H633 C611 0.950 . S
C634 C635 1.349 . S
C634 C636 1.327 . S
C634 H659 0.950 . S
C635 C634 1.349 . S
C635 C651 1.349 . S
C636 C634 1.327 . S
C636 C655 1.429 . S
C636 H660 0.950 . S
C637 C654 1.574 . S
C637 C656 1.368 . S
C637 H661 0.949 . S
H638 C642 0.949 . S
C639 C640 1.349 . S
C639 C641 1.327 . S
C639 H662 0.950 . S
C640 C639 1.349 . S
C640 C652 1.349 . S
C641 C639 1.327 . S
C641 C657 1.429 . S
C641 H663 0.950 . S
C642 H638 0.949 . S
C642 C650 1.574 . S
C642 C658 1.368 . S
H643 C651 0.950 . S
H644 C649 0.950 . S
H645 C650 0.949 . S
H646 C652 0.950 . S
H647 C653 0.950 . S
H648 C654 0.949 1_565 S
C649 H644 0.950 . S
C649 C651 1.327 . S
C649 C655 1.429 . S
C650 C642 1.574 . S
C650 H645 0.949 . S
C650 C656 1.368 . S
C651 C635 1.349 . S
C651 H643 0.950 . S
C651 C649 1.327 . S
C652 C640 1.349 . S
C652 H646 0.950 . S
C652 C653 1.327 . S
C653 H647 0.950 . S
C653 C652 1.327 . S
C653 C657 1.429 . S
C654 C637 1.574 . S
C654 H648 0.949 1_545 S
C654 C658 1.368 . S
C655 C636 1.429 . S
C655 C649 1.429 . S
C655 C656 1.523 . S
C656 C637 1.368 . S
C656 C650 1.368 . S
C656 C655 1.523 . S
C657 C641 1.429 . S
C657 C653 1.429 . S
C657 C658 1.523 1_565 S
C658 C642 1.368 . S
C658 C654 1.368 . S
C658 C657 1.523 1_545 S
H659 C634 0.950 . S
H660 C636 0.950 . S
H661 C637 0.949 . S
H662 C639 0.950 . S
H663 C641 0.950 . S
C664 C665 1.349 . S
C664 C666 1.327 . S
C664 H689 0.950 . S
C665 C664 1.349 . S
C665 C681 1.349 . S
C666 C664 1.327 . S
C666 C685 1.429 . S
C666 H690 0.950 . S
C667 C684 1.574 . S
C667 C686 1.368 . S
C667 H691 0.949 . S
H668 C672 0.949 . S
C669 C670 1.349 . S
C669 C671 1.327 . S
C669 H692 0.950 . S
C670 C669 1.349 . S
C670 C682 1.349 . S
C671 C669 1.327 . S
C671 C687 1.429 . S
C671 H693 0.950 . S
C672 H668 0.949 . S
C672 C680 1.574 . S
C672 C688 1.368 . S
H673 C681 0.950 . S
H674 C679 0.950 . S
H675 C680 0.949 . S
H676 C682 0.950 . S
H677 C683 0.950 . S
H678 C684 0.949 . S
C679 H674 0.950 . S
C679 C681 1.327 . S
C679 C685 1.429 . S
C680 C672 1.574 . S
C680 H675 0.949 . S
C680 C686 1.368 . S
C681 C665 1.349 . S
C681 H673 0.950 . S
C681 C679 1.327 . S
C682 C670 1.349 . S
C682 H676 0.950 . S
C682 C683 1.327 . S
C683 H677 0.950 . S
C683 C682 1.327 . S
C683 C687 1.429 . S
C684 C667 1.574 . S
C684 H678 0.949 . S
C684 C688 1.368 . S
C685 C666 1.429 . S
C685 C679 1.429 . S
C685 C686 1.523 1_556 S
C686 C667 1.368 . S
C686 C680 1.368 . S
C686 C685 1.523 1_554 S
C687 C671 1.429 . S
C687 C683 1.429 . S
C687 C688 1.523 . S
C688 C672 1.368 . S
C688 C684 1.368 . S
C688 C687 1.523 . S
H689 C664 0.950 . S
H690 C666 0.950 . S
H691 C667 0.949 . S
H692 C669 0.950 . S
H693 C671 0.950 . S
C694 C695 1.349 . S
C694 C696 1.327 . S
C694 H719 0.950 . S
C695 C694 1.349 . S
C695 C711 1.349 . S
C696 C694 1.327 . S
C696 C715 1.429 . S
C696 H720 0.950 . S
C697 C714 1.574 . S
C697 C716 1.368 . S
C697 H721 0.949 . S
H698 C702 0.949 . S
C699 C700 1.349 . S
C699 C701 1.327 . S
C699 H722 0.950 . S
C700 C699 1.349 . S
C700 C712 1.349 . S
C701 C699 1.327 . S
C701 C717 1.429 . S
C701 H723 0.950 . S
C702 H698 0.949 . S
C702 C710 1.574 . S
C702 C718 1.368 . S
H703 C711 0.950 . S
H704 C709 0.950 . S
H705 C710 0.949 . S
H706 C712 0.950 . S
H707 C713 0.950 . S
H708 C714 0.949 . S
C709 H704 0.950 . S
C709 C711 1.327 . S
C709 C715 1.429 . S
C710 C702 1.574 . S
C710 H705 0.949 . S
C710 C716 1.368 . S
C711 C695 1.349 . S
C711 H703 0.950 . S
C711 C709 1.327 . S
C712 C700 1.349 . S
C712 H706 0.950 . S
C712 C713 1.327 . S
C713 H707 0.950 . S
C713 C712 1.327 . S
C713 C717 1.429 . S
C714 C697 1.574 . S
C714 H708 0.949 . S
C714 C718 1.368 . S
C715 C696 1.429 . S
C715 C709 1.429 . S
C715 C716 1.523 . S
C716 C697 1.368 . S
C716 C710 1.368 . S
C716 C715 1.523 . S
C717 C701 1.429 . S
C717 C713 1.429 . S
C717 C718 1.523 . S
C718 C702 1.368 . S
C718 C714 1.368 . S
C718 C717 1.523 . S
H719 C694 0.950 . S
H720 C696 0.950 . S
H721 C697 0.949 . S
H722 C699 0.950 . S
H723 C701 0.950 . S
C724 C725 1.349 . S
C724 C726 1.327 . S
C724 H749 0.950 . S
C725 C724 1.349 . S
C725 C741 1.349 . S
C726 C724 1.327 . S
C726 C745 1.429 . S
C726 H750 0.950 . S
C727 C744 1.574 . S
C727 C746 1.368 . S
C727 H751 0.949 . S
H728 C732 0.949 . S
C729 C730 1.349 . S
C729 C731 1.327 . S
C729 H752 0.950 . S
C730 C729 1.349 . S
C730 C742 1.349 . S
C731 C729 1.327 . S
C731 C747 1.429 . S
C731 H753 0.950 . S
C732 H728 0.949 . S
C732 C740 1.574 . S
C732 C748 1.368 . S
H733 C741 0.950 . S
H734 C739 0.950 . S
H735 C740 0.949 . S
H736 C742 0.950 . S
H737 C743 0.950 . S
H738 C744 0.949 . S
C739 H734 0.950 . S
C739 C741 1.327 . S
C739 C745 1.429 . S
C740 C732 1.574 . S
C740 H735 0.949 . S
C740 C746 1.368 . S
C741 C725 1.349 . S
C741 H733 0.950 . S
C741 C739 1.327 . S
C742 C730 1.349 . S
C742 H736 0.950 . S
C742 C743 1.327 . S
C743 H737 0.950 . S
C743 C742 1.327 . S
C743 C747 1.429 . S
C744 C727 1.574 . S
C744 H738 0.949 . S
C744 C748 1.368 . S
C745 C726 1.429 . S
C745 C739 1.429 . S
C745 C746 1.523 1_554 S
C746 C727 1.368 . S
C746 C740 1.368 . S
C746 C745 1.523 1_556 S
C747 C731 1.429 . S
C747 C743 1.429 . S
C747 C748 1.523 . S
C748 C732 1.368 . S
C748 C744 1.368 . S
C748 C747 1.523 . S
H749 C724 0.950 . S
H750 C726 0.950 . S
H751 C727 0.949 . S
H752 C729 0.950 . S
H753 C731 0.950 . S
C754 C755 1.349 . S
C754 C756 1.327 . S
C754 H779 0.950 . S
C755 C754 1.349 . S
C755 C771 1.349 . S
C756 C754 1.327 . S
C756 C775 1.429 . S
C756 H780 0.950 . S
C757 C774 1.574 . S
C757 C776 1.368 . S
C757 H781 0.949 . S
H758 C762 0.949 . S
C759 C760 1.349 . S
C759 C761 1.327 . S
C759 H782 0.950 . S
C760 C759 1.349 . S
C760 C772 1.349 . S
C761 C759 1.327 . S
C761 C777 1.429 . S
C761 H783 0.950 . S
C762 H758 0.949 . S
C762 C770 1.574 . S
C762 C778 1.368 . S
H763 C771 0.950 . S
H764 C769 0.950 . S
H765 C770 0.949 . S
H766 C772 0.950 . S
H767 C773 0.950 . S
H768 C774 0.949 . S
C769 H764 0.950 . S
C769 C771 1.327 . S
C769 C775 1.429 . S
C770 C762 1.574 . S
C770 H765 0.949 . S
C770 C776 1.368 . S
C771 C755 1.349 . S
C771 H763 0.950 . S
C771 C769 1.327 . S
C772 C760 1.349 . S
C772 H766 0.950 . S
C772 C773 1.327 . S
C773 H767 0.950 . S
C773 C772 1.327 . S
C773 C777 1.429 . S
C774 C757 1.574 . S
C774 H768 0.949 . S
C774 C778 1.368 . S
C775 C756 1.429 . S
C775 C769 1.429 . S
C775 C776 1.523 . S
C776 C757 1.368 . S
C776 C770 1.368 . S
C776 C775 1.523 . S
C777 C761 1.429 . S
C777 C773 1.429 . S
C777 C778 1.523 . S
C778 C762 1.368 . S
C778 C774 1.368 . S
C778 C777 1.523 . S
H779 C754 0.950 . S
H780 C756 0.950 . S
H781 C757 0.949 . S
H782 C759 0.950 . S
H783 C761 0.950 . S
C784 C785 1.349 . S
C784 C786 1.327 . S
C784 H809 0.950 . S
C785 C784 1.349 . S
C785 C801 1.349 . S
C786 C784 1.327 . S
C786 C805 1.429 . S
C786 H810 0.950 . S
C787 C804 1.574 . S
C787 C806 1.368 . S
C787 H811 0.949 . S
H788 C792 0.949 . S
C789 C790 1.349 . S
C789 C791 1.327 . S
C789 H812 0.950 . S
C790 C789 1.349 . S
C790 C802 1.349 . S
C791 C789 1.327 . S
C791 C807 1.429 . S
C791 H813 0.950 . S
C792 H788 0.949 . S
C792 C800 1.574 . S
C792 C808 1.368 . S
H793 C801 0.950 . S
H794 C799 0.950 . S
H795 C800 0.949 . S
H796 C802 0.950 . S
H797 C803 0.950 . S
H798 C804 0.949 . S
C799 H794 0.950 . S
C799 C801 1.327 . S
C799 C805 1.429 . S
C800 C792 1.574 . S
C800 H795 0.949 . S
C800 C806 1.368 . S
C801 C785 1.349 . S
C801 H793 0.950 . S
C801 C799 1.327 . S
C802 C790 1.349 . S
C802 H796 0.950 . S
C802 C803 1.327 . S
C803 H797 0.950 . S
C803 C802 1.327 . S
C803 C807 1.429 . S
C804 C787 1.574 . S
C804 H798 0.949 . S
C804 C808 1.368 . S
C805 C786 1.429 . S
C805 C799 1.429 . S
C805 C806 1.523 1_554 S
C806 C787 1.368 . S
C806 C800 1.368 . S
C806 C805 1.523 1_556 S
C807 C791 1.429 . S
C807 C803 1.429 . S
C807 C808 1.523 . S
C808 C792 1.368 . S
C808 C804 1.368 . S
C808 C807 1.523 . S
H809 C784 0.950 . S
H810 C786 0.950 . S
H811 C787 0.949 . S
H812 C789 0.950 . S
H813 C791 0.950 . S
C814 C815 1.349 . S
C814 C816 1.327 . S
C814 H839 0.950 . S
C815 C814 1.349 . S
C815 C831 1.349 . S
C816 C814 1.327 . S
C816 C835 1.429 . S
C816 H840 0.950 . S
C817 C834 1.574 . S
C817 C836 1.368 . S
C817 H841 0.949 . S
H818 C822 0.949 . S
C819 C820 1.349 . S
C819 C821 1.327 . S
C819 H842 0.950 . S
C820 C819 1.349 . S
C820 C832 1.349 . S
C821 C819 1.327 . S
C821 C837 1.429 . S
C821 H843 0.950 . S
C822 H818 0.949 . S
C822 C830 1.574 . S
C822 C838 1.368 . S
H823 C831 0.950 . S
H824 C829 0.950 . S
H825 C830 0.949 . S
H826 C832 0.950 . S
H827 C833 0.950 . S
H828 C834 0.949 . S
C829 H824 0.950 . S
C829 C831 1.327 . S
C829 C835 1.429 . S
C830 C822 1.574 . S
C830 H825 0.949 . S
C830 C836 1.368 . S
C831 C815 1.349 . S
C831 H823 0.950 . S
C831 C829 1.327 . S
C832 C820 1.349 . S
C832 H826 0.950 . S
C832 C833 1.327 . S
C833 H827 0.950 . S
C833 C832 1.327 . S
C833 C837 1.429 . S
C834 C817 1.574 . S
C834 H828 0.949 . S
C834 C838 1.368 . S
C835 C816 1.429 . S
C835 C829 1.429 . S
C835 C836 1.523 . S
C836 C817 1.368 . S
C836 C830 1.368 . S
C836 C835 1.523 . S
C837 C821 1.429 . S
C837 C833 1.429 . S
C837 C838 1.523 . S
C838 C822 1.368 . S
C838 C834 1.368 . S
C838 C837 1.523 . S
H839 C814 0.950 . S
H840 C816 0.950 . S
H841 C817 0.949 . S
H842 C819 0.950 . S
H843 C821 0.950 . S
C844 C845 1.349 . S
C844 C846 1.327 . S
C844 H869 0.950 . S
C845 C844 1.349 . S
C845 C861 1.349 . S
C846 C844 1.327 . S
C846 C865 1.429 . S
C846 H870 0.950 . S
C847 C864 1.574 . S
C847 C866 1.368 . S
C847 H871 0.914 1_554 S
H848 C852 0.949 . S
C849 C850 1.349 . S
C849 C851 1.327 . S
C849 H872 0.950 . S
C850 C849 1.349 . S
C850 C862 1.349 . S
C851 C849 1.327 . S
C851 C867 1.429 . S
C851 H873 0.950 . S
C852 H848 0.949 . S
C852 C860 1.574 . S
C852 C868 1.368 . S
H853 C861 0.950 . S
H854 C859 0.950 . S
H855 C860 0.949 . S
H856 C862 0.950 . S
H857 C863 0.950 . S
H858 C864 0.949 . S
C859 H854 0.950 . S
C859 C861 1.327 . S
C859 C865 1.429 . S
C860 C852 1.574 . S
C860 H855 0.949 . S
C860 C866 1.368 . S
C861 C845 1.349 . S
C861 H853 0.950 . S
C861 C859 1.327 . S
C862 C850 1.349 . S
C862 H856 0.950 . S
C862 C863 1.327 . S
C863 H857 0.950 . S
C863 C862 1.327 . S
C863 C867 1.429 . S
C864 C847 1.574 . S
C864 H858 0.949 . S
C864 C868 1.368 . S
C865 C846 1.429 . S
C865 C859 1.429 . S
C865 C866 1.523 1_556 S
C866 C847 1.368 . S
C866 C860 1.368 . S
C866 C865 1.523 1_554 S
C867 C851 1.429 . S
C867 C863 1.429 . S
C867 C868 1.523 . S
C868 C852 1.368 . S
C868 C864 1.368 . S
C868 C867 1.523 . S
H869 C844 0.950 . S
H870 C846 0.950 . S
H871 C847 0.914 1_556 S
H872 C849 0.950 . S
H873 C851 0.950 . S
C874 C875 1.349 . S
C874 C876 1.327 . S
C874 H899 0.950 . S
C875 C874 1.349 . S
C875 C891 1.349 . S
C876 C874 1.327 . S
C876 C895 1.429 . S
C876 H900 0.950 . S
C877 C894 1.574 . S
C877 C896 1.368 . S
C877 H901 0.949 . S
H878 C882 0.949 . S
C879 C880 1.349 . S
C879 C881 1.327 . S
C879 H902 0.950 . S
C880 C879 1.349 . S
C880 C892 1.349 . S
C881 C879 1.327 . S
C881 C897 1.429 . S
C881 H903 0.950 . S
C882 H878 0.949 . S
C882 C890 1.574 . S
C882 C898 1.368 . S
H883 C891 0.950 . S
H884 C889 0.950 . S
H885 C890 0.949 . S
H886 C892 0.950 . S
H887 C893 0.950 . S
H888 C894 0.949 . S
C889 H884 0.950 . S
C889 C891 1.327 . S
C889 C895 1.429 . S
C890 C882 1.574 . S
C890 H885 0.949 . S
C890 C896 1.368 . S
C891 C875 1.349 . S
C891 H883 0.950 . S
C891 C889 1.327 . S
C892 C880 1.349 . S
C892 H886 0.950 . S
C892 C893 1.327 . S
C893 H887 0.950 . S
C893 C892 1.327 . S
C893 C897 1.429 . S
C894 C877 1.574 . S
C894 H888 0.949 . S
C894 C898 1.368 . S
C895 C876 1.429 . S
C895 C889 1.429 . S
C895 C896 1.523 . S
C896 C877 1.368 . S
C896 C890 1.368 . S
C896 C895 1.523 . S
C897 C881 1.429 . S
C897 C893 1.429 . S
C897 C898 1.523 . S
C898 C882 1.368 . S
C898 C894 1.368 . S
C898 C897 1.523 . S
H899 C874 0.950 . S
H900 C876 0.950 . S
H901 C877 0.949 . S
H902 C879 0.950 . S
H903 C881 0.950 . S
C904 C905 1.349 . S
C904 C906 1.327 . S
C904 H929 0.950 . S
C905 C904 1.349 . S
C905 C921 1.349 . S
C906 C904 1.327 . S
C906 C925 1.429 . S
C906 H930 0.950 . S
C907 C924 1.574 . S
C907 C926 1.368 . S
C907 H931 0.949 . S
H908 C912 0.949 . S
C909 C910 1.349 . S
C909 C911 1.327 . S
C909 H932 0.950 . S
C910 C909 1.349 . S
C910 C922 1.349 . S
C911 C909 1.327 . S
C911 C927 1.429 . S
C911 H933 0.950 . S
C912 H908 0.949 . S
C912 C920 1.574 . S
C912 C928 1.368 . S
H913 C921 0.950 . S
H914 C919 0.950 . S
H915 C920 0.949 . S
H916 C922 0.950 . S
H917 C923 0.950 . S
H918 C924 0.949 . S
C919 H914 0.950 . S
C919 C921 1.327 . S
C919 C925 1.429 . S
C920 C912 1.574 . S
C920 H915 0.949 . S
C920 C926 1.368 . S
C921 C905 1.349 . S
C921 H913 0.950 . S
C921 C919 1.327 . S
C922 C910 1.349 . S
C922 H916 0.950 . S
C922 C923 1.327 . S
C923 H917 0.950 . S
C923 C922 1.327 . S
C923 C927 1.429 . S
C924 C907 1.574 . S
C924 H918 0.949 . S
C924 C928 1.368 . S
C925 C906 1.429 . S
C925 C919 1.429 . S
C925 C926 1.523 . S
C926 C907 1.368 . S
C926 C920 1.368 . S
C926 C925 1.523 . S
C927 C911 1.429 . S
C927 C923 1.429 . S
C927 C928 1.523 . S
C928 C912 1.368 . S
C928 C924 1.368 . S
C928 C927 1.523 . S
H929 C904 0.950 . S
H930 C906 0.950 . S
H931 C907 0.949 . S
H932 C909 0.950 . S
H933 C911 0.950 . S
C934 C935 1.349 . S
C934 C936 1.327 . S
C934 H959 0.950 . S
C935 C934 1.349 . S
C935 C951 1.349 . S
C936 C934 1.327 . S
C936 C955 1.429 . S
C936 H960 0.950 . S
C937 C954 1.574 . S
C937 C956 1.368 . S
C937 H961 0.949 . S
H938 C942 0.949 . S
C939 C940 1.349 . S
C939 C941 1.327 . S
C939 H962 0.950 . S
C940 C939 1.349 . S
C940 C952 1.349 . S
C941 C939 1.327 . S
C941 C957 1.429 . S
C941 H963 0.950 . S
C942 H938 0.949 . S
C942 C950 1.574 . S
C942 C958 1.368 . S
H943 C951 0.950 . S
H944 C949 0.950 . S
H945 C950 0.949 . S
H946 C952 0.950 . S
H947 C953 0.950 . S
H948 C954 0.949 . S
C949 H944 0.950 . S
C949 C951 1.327 . S
C949 C955 1.429 . S
C950 C942 1.574 . S
C950 H945 0.949 . S
C950 C956 1.368 . S
C951 C935 1.349 . S
C951 H943 0.950 . S
C951 C949 1.327 . S
C952 C940 1.349 . S
C952 H946 0.950 . S
C952 C953 1.327 . S
C953 H947 0.950 . S
C953 C952 1.327 . S
C953 C957 1.429 . S
C954 C937 1.574 . S
C954 H948 0.949 . S
C954 C958 1.368 . S
C955 C936 1.429 . S
C955 C949 1.429 . S
C955 C956 1.523 . S
C956 C937 1.368 . S
C956 C950 1.368 . S
C956 C955 1.523 . S
C957 C941 1.429 . S
C957 C953 1.429 . S
C957 C958 1.523 . S
C958 C942 1.368 . S
C958 C954 1.368 . S
C958 C957 1.523 . S
H959 C934 0.950 . S
H960 C936 0.950 . S
H961 C937 0.949 . S
H962 C939 0.950 . S
H963 C941 0.950 . S
C964 C965 1.349 . S
C964 C966 1.327 . S
C964 H989 0.950 . S
C965 C964 1.349 . S
C965 C981 1.349 . S
C966 C964 1.327 . S
C966 C985 1.429 . S
C966 H990 0.950 . S
C967 C984 1.574 . S
C967 C986 1.368 . S
C967 H991 0.949 . S
H968 C972 0.949 . S
C969 C970 1.349 . S
C969 C971 1.327 . S
C969 H992 0.950 . S
C970 C969 1.349 . S
C970 C982 1.349 . S
C971 C969 1.327 . S
C971 C987 1.429 . S
C971 H993 0.950 . S
C972 H968 0.949 . S
C972 C980 1.574 . S
C972 C988 1.368 . S
H973 C981 0.950 . S
H974 C979 0.950 . S
H975 C980 0.949 . S
H976 C982 0.950 . S
H977 C983 0.950 . S
H978 C984 0.949 . S
C979 H974 0.950 . S
C979 C981 1.327 . S
C979 C985 1.429 . S
C980 C972 1.574 . S
C980 H975 0.949 . S
C980 C986 1.368 . S
C981 C965 1.349 . S
C981 H973 0.950 . S
C981 C979 1.327 . S
C982 C970 1.349 . S
C982 H976 0.950 . S
C982 C983 1.327 . S
C983 H977 0.950 . S
C983 C982 1.327 . S
C983 C987 1.429 . S
C984 C967 1.574 . S
C984 H978 0.949 . S
C984 C988 1.368 . S
C985 C966 1.429 . S
C985 C979 1.429 . S
C985 C986 1.523 . S
C986 C967 1.368 . S
C986 C980 1.368 . S
C986 C985 1.523 . S
C987 C971 1.429 . S
C987 C983 1.429 . S
C987 C988 1.523 . S
C988 C972 1.368 . S
C988 C984 1.368 . S
C988 C987 1.523 . S
H989 C964 0.950 . S
H990 C966 0.950 . S
H991 C967 0.949 . S
H992 C969 0.950 . S
H993 C971 0.950 . S
C994 C995 1.349 . S
C994 C996 1.327 . S
C994 H1019 0.950 . S
C995 C994 1.349 . S
C995 C1011 1.349 . S
C996 C994 1.327 . S
C996 C1015 1.429 . S
C996 H1020 0.950 . S
C997 C1014 1.574 . S
C997 C1016 1.368 . S
C997 H1021 0.949 . S
H998 C1002 0.949 . S
C999 C1000 1.349 . S
C999 C1001 1.327 . S
C999 H1022 0.950 . S
C1000 C999 1.349 . S
C1000 C1012 1.349 . S
C1001 C999 1.327 . S
C1001 C1017 1.429 . S
C1001 H1023 0.950 . S
C1002 H998 0.949 . S
C1002 C1010 1.574 . S
C1002 C1018 1.368 . S
H1003 C1011 0.950 . S
H1004 C1009 0.950 . S
H1005 C1010 0.949 . S
H1006 C1012 0.950 . S
H1007 C1013 0.950 . S
H1008 C1014 0.949 . S
C1009 H1004 0.950 . S
C1009 C1011 1.327 . S
C1009 C1015 1.429 . S
C1010 C1002 1.574 . S
C1010 H1005 0.949 . S
C1010 C1016 1.368 . S
C1011 C995 1.349 . S
C1011 H1003 0.950 . S
C1011 C1009 1.327 . S
C1012 C1000 1.349 . S
C1012 H1006 0.950 . S
C1012 C1013 1.327 . S
C1013 H1007 0.950 . S
C1013 C1012 1.327 . S
C1013 C1017 1.429 . S
C1014 C997 1.574 . S
C1014 H1008 0.949 . S
C1014 C1018 1.368 . S
C1015 C996 1.429 . S
C1015 C1009 1.429 . S
C1015 C1016 1.523 . S
C1016 C997 1.368 . S
C1016 C1010 1.368 . S
C1016 C1015 1.523 . S
C1017 C1001 1.429 . S
C1017 C1013 1.429 . S
C1017 C1018 1.523 . S
C1018 C1002 1.368 . S
C1018 C1014 1.368 . S
C1018 C1017 1.523 . S
H1019 C994 0.950 . S
H1020 C996 0.950 . S
H1021 C997 0.949 . S
H1022 C999 0.950 . S
H1023 C1001 0.950 . S
C1024 C1025 1.349 . S
C1024 C1026 1.327 . S
C1024 H1049 0.950 . S
C1025 C1024 1.349 . S
C1025 C1041 1.349 . S
C1026 C1024 1.327 . S
C1026 C1045 1.429 . S
C1026 H1050 0.950 . S
C1027 C1044 1.574 . S
C1027 C1046 1.368 . S
C1027 H1051 0.949 . S
H1028 C1032 0.949 . S
C1029 C1030 1.349 . S
C1029 C1031 1.327 . S
C1029 H1052 0.950 . S
C1030 C1029 1.349 . S
C1030 C1042 1.349 . S
C1031 C1029 1.327 . S
C1031 C1047 1.429 . S
C1031 H1053 0.950 . S
C1032 H1028 0.949 . S
C1032 C1040 1.574 . S
C1032 C1048 1.368 . S
H1033 C1041 0.950 . S
H1034 C1039 0.950 . S
H1035 C1040 0.949 . S
H1036 C1042 0.950 . S
H1037 C1043 0.950 . S
H1038 C1044 0.949 . S
C1039 H1034 0.950 . S
C1039 C1041 1.327 . S
C1039 C1045 1.429 . S
C1040 C1032 1.574 . S
C1040 H1035 0.949 . S
C1040 C1046 1.368 . S
C1041 C1025 1.349 . S
C1041 H1033 0.950 . S
C1041 C1039 1.327 . S
C1042 C1030 1.349 . S
C1042 H1036 0.950 . S
C1042 C1043 1.327 . S
C1043 H1037 0.950 . S
C1043 C1042 1.327 . S
C1043 C1047 1.429 . S
C1044 C1027 1.574 . S
C1044 H1038 0.949 . S
C1044 C1048 1.368 . S
C1045 C1026 1.429 . S
C1045 C1039 1.429 . S
C1045 C1046 1.523 . S
C1046 C1027 1.368 . S
C1046 C1040 1.368 . S
C1046 C1045 1.523 . S
C1047 C1031 1.429 . S
C1047 C1043 1.429 . S
C1047 C1048 1.523 . S
C1048 C1032 1.368 . S
C1048 C1044 1.368 . S
C1048 C1047 1.523 . S
H1049 C1024 0.950 . S
H1050 C1026 0.950 . S
H1051 C1027 0.949 . S
H1052 C1029 0.950 . S
H1053 C1031 0.950 . S
C1054 C1055 1.349 . S
C1054 C1056 1.327 . S
C1054 H1079 0.950 . S
C1055 C1054 1.349 . S
C1055 C1071 1.349 . S
C1056 C1054 1.327 . S
C1056 C1075 1.429 . S
C1056 H1080 0.950 . S
C1057 C1074 1.574 . S
C1057 C1076 1.368 . S
C1057 H1081 0.949 . S
H1058 C1062 0.949 . S
C1059 C1060 1.349 . S
C1059 C1061 1.327 . S
C1059 H1082 0.950 . S
C1060 C1059 1.349 . S
C1060 C1072 1.349 . S
C1061 C1059 1.327 . S
C1061 C1077 1.429 . S
C1061 H1083 0.950 . S
C1062 H1058 0.949 . S
C1062 C1070 1.574 . S
C1062 C1078 1.368 . S
H1063 C1071 0.950 . S
H1064 C1069 0.950 . S
H1065 C1070 0.949 . S
H1066 C1072 0.950 . S
H1067 C1073 0.950 . S
H1068 C1074 0.949 . S
C1069 H1064 0.950 . S
C1069 C1071 1.327 . S
C1069 C1075 1.429 . S
C1070 C1062 1.574 . S
C1070 H1065 0.949 . S
C1070 C1076 1.368 . S
C1071 C1055 1.349 . S
C1071 H1063 0.950 . S
C1071 C1069 1.327 . S
C1072 C1060 1.349 . S
C1072 H1066 0.950 . S
C1072 C1073 1.327 . S
C1073 H1067 0.950 . S
C1073 C1072 1.327 . S
C1073 C1077 1.429 . S
C1074 C1057 1.574 . S
C1074 H1068 0.949 . S
C1074 C1078 1.368 . S
C1075 C1056 1.429 . S
C1075 C1069 1.429 . S
C1075 C1076 1.523 . S
C1076 C1057 1.368 . S
C1076 C1070 1.368 . S
C1076 C1075 1.523 . S
C1077 C1061 1.429 . S
C1077 C1073 1.429 . S
C1077 C1078 1.523 . S
C1078 C1062 1.368 . S
C1078 C1074 1.368 . S
C1078 C1077 1.523 . S
H1079 C1054 0.950 . S
H1080 C1056 0.950 . S
H1081 C1057 0.949 . S
H1082 C1059 0.950 . S
H1083 C1061 0.950 . S
C1084 C1085 1.349 . S
C1084 C1086 1.327 . S
C1084 H1109 0.950 . S
C1085 C1084 1.349 . S
C1085 C1101 1.349 . S
C1086 C1084 1.327 . S
C1086 C1105 1.429 . S
C1086 H1110 0.950 . S
C1087 C1104 1.574 . S
C1087 C1106 1.368 . S
C1087 H1111 0.949 . S
H1088 C1092 0.949 . S
C1089 C1090 1.349 . S
C1089 C1091 1.327 . S
C1089 H1112 0.950 . S
C1090 C1089 1.349 . S
C1090 C1102 1.349 . S
C1091 C1089 1.327 . S
C1091 C1107 1.429 . S
C1091 H1113 0.950 . S
C1092 H1088 0.949 . S
C1092 C1100 1.574 . S
C1092 C1108 1.368 . S
H1093 C1101 0.950 . S
H1094 C1099 0.950 . S
H1095 C1100 0.949 . S
H1096 C1102 0.950 . S
H1097 C1103 0.950 . S
H1098 C1104 0.949 . S
C1099 H1094 0.950 . S
C1099 C1101 1.327 . S
C1099 C1105 1.429 . S
C1100 C1092 1.574 . S
C1100 H1095 0.949 . S
C1100 C1106 1.368 . S
C1101 C1085 1.349 . S
C1101 H1093 0.950 . S
C1101 C1099 1.327 . S
C1102 C1090 1.349 . S
C1102 H1096 0.950 . S
C1102 C1103 1.327 . S
C1103 H1097 0.950 . S
C1103 C1102 1.327 . S
C1103 C1107 1.429 . S
C1104 C1087 1.574 . S
C1104 H1098 0.949 . S
C1104 C1108 1.368 . S
C1105 C1086 1.429 . S
C1105 C1099 1.429 . S
C1105 C1106 1.523 . S
C1106 C1087 1.368 . S
C1106 C1100 1.368 . S
C1106 C1105 1.523 . S
C1107 C1091 1.429 . S
C1107 C1103 1.429 . S
C1107 C1108 1.523 . S
C1108 C1092 1.368 . S
C1108 C1104 1.368 . S
C1108 C1107 1.523 . S
H1109 C1084 0.950 . S
H1110 C1086 0.950 . S
H1111 C1087 0.949 . S
H1112 C1089 0.950 . S
H1113 C1091 0.950 . S
C1114 C1115 1.349 . S
C1114 C1116 1.327 . S
C1114 H1139 0.950 . S
C1115 C1114 1.349 . S
C1115 C1131 1.349 . S
C1116 C1114 1.327 . S
C1116 C1135 1.429 . S
C1116 H1140 0.950 . S
C1117 C1134 1.574 . S
C1117 C1136 1.368 . S
C1117 H1141 0.949 . S
H1118 C1122 0.949 . S
C1119 C1120 1.349 . S
C1119 C1121 1.327 . S
C1119 H1142 0.950 . S
C1120 C1119 1.349 . S
C1120 C1132 1.349 . S
C1121 C1119 1.327 . S
C1121 C1137 1.429 . S
C1121 H1143 0.950 . S
C1122 H1118 0.949 . S
C1122 C1130 1.574 . S
C1122 C1138 1.368 . S
H1123 C1131 0.950 . S
H1124 C1129 0.950 . S
H1125 C1130 0.949 . S
H1126 C1132 0.950 . S
H1127 C1133 0.950 . S
H1128 C1134 0.949 . S
C1129 H1124 0.950 . S
C1129 C1131 1.327 . S
C1129 C1135 1.429 . S
C1130 C1122 1.574 . S
C1130 H1125 0.949 . S
C1130 C1136 1.368 . S
C1131 C1115 1.349 . S
C1131 H1123 0.950 . S
C1131 C1129 1.327 . S
C1132 C1120 1.349 . S
C1132 H1126 0.950 . S
C1132 C1133 1.327 . S
C1133 H1127 0.950 . S
C1133 C1132 1.327 . S
C1133 C1137 1.429 . S
C1134 C1117 1.574 . S
C1134 H1128 0.949 . S
C1134 C1138 1.368 . S
C1135 C1116 1.429 . S
C1135 C1129 1.429 . S
C1135 C1136 1.523 . S
C1136 C1117 1.368 . S
C1136 C1130 1.368 . S
C1136 C1135 1.523 . S
C1137 C1121 1.429 . S
C1137 C1133 1.429 . S
C1137 C1138 1.523 . S
C1138 C1122 1.368 . S
C1138 C1134 1.368 . S
C1138 C1137 1.523 . S
H1139 C1114 0.950 . S
H1140 C1116 0.950 . S
H1141 C1117 0.949 . S
H1142 C1119 0.950 . S
H1143 C1121 0.950 . S
C425 C71 1.681 . S
C430 C144 1.662 . S
C460 C228 1.631 . S
C455 C81 1.647 . S
C490 C227 1.671 . S
C485 C49 1.670 . S
C515 C59 1.639 . S
C520 C143 1.640 . S
C550 C324 1.663 . S
C545 C27 1.678 . S
C580 C408 1.707 . S
C575 C38 1.723 . S
C605 C5 1.667 . S
C610 C407 1.671 . S
C635 C16 1.713 . S
C640 C323 1.718 . S
C670 C146 1.414 . S
C665 C15 1.572 . S
C700 C230 1.428 . S
C695 C4 1.586 . S
C730 C242 1.388 . S
C725 C37 1.586 . S
C760 C158 1.396 . S
C755 C26 1.598 . S
C790 C326 1.480 . S
C785 C60 1.627 . S
C815 C48 1.662 . S
C820 C410 1.497 . S
C850 C398 1.444 . S
C845 C82 1.641 . S
C875 C70 1.674 . S
C880 C314 1.459 . S
C910 C155 1.513 . S
C905 C10 1.503 . S
C940 C239 1.571 . S
C935 C21 1.562 . S
C965 C32 1.497 . S
C970 C240 1.480 . S
C1000 C156 1.537 . S
C995 C43 1.555 . S
C1030 C311 1.623 . S
C1025 C54 1.609 . S
C1055 C65 1.564 . S
C1060 C395 1.562 . S
C1085 C76 1.606 . S
C1090 C396 1.595 . S
C1115 C87 1.556 . S
C1120 C312 1.530 . S
