# Generated by pormake.
# Topology zzz, (3,6)-cn, num edge types: 1
# Building blocks:
#     Node 0, Type 0, BuildingBlock: BELTOD_clean_linker_0, # of connection points: 3
#     Node 1, Type 0, BuildingBlock: BELTOD_clean_linker_0, # of connection points: 3
#     Node 2, Type 0, BuildingBlock: BELTOD_clean_linker_0, # of connection points: 3
#     Node 3, Type 0, BuildingBlock: BELTOD_clean_linker_0, # of connection points: 3
#     Node 4, Type 0, BuildingBlock: BELTOD_clean_linker_0, # of connection points: 3
#     Node 5, Type 0, BuildingBlock: BELTOD_clean_linker_0, # of connection points: 3
#     Node 6, Type 0, BuildingBlock: BELTOD_clean_linker_0, # of connection points: 3
#     Node 7, Type 0, BuildingBlock: BELTOD_clean_linker_0, # of connection points: 3
#     Node 8, Type 1, BuildingBlock: HISSIN_clean_sbu_0, # of connection points: 6
#     Node 9, Type 1, BuildingBlock: HISSIN_clean_sbu_0, # of connection points: 6
#     Node 10, Type 1, BuildingBlock: HISSIN_clean_sbu_0, # of connection points: 6
#     Node 11, Type 1, BuildingBlock: HISSIN_clean_sbu_0, # of connection points: 6
#     Edge 12, Type (0, 1), BuildingBlock: TEMPAE_clean_linker_10, # of connection points: 2
#     Edge 13, Type (0, 1), BuildingBlock: TEMPAE_clean_linker_10, # of connection points: 2
#     Edge 14, Type (0, 1), BuildingBlock: TEMPAE_clean_linker_10, # of connection points: 2
#     Edge 15, Type (0, 1), BuildingBlock: TEMPAE_clean_linker_10, # of connection points: 2
#     Edge 16, Type (0, 1), BuildingBlock: TEMPAE_clean_linker_10, # of connection points: 2
#     Edge 17, Type (0, 1), BuildingBlock: TEMPAE_clean_linker_10, # of connection points: 2
#     Edge 18, Type (0, 1), BuildingBlock: TEMPAE_clean_linker_10, # of connection points: 2
#     Edge 19, Type (0, 1), BuildingBlock: TEMPAE_clean_linker_10, # of connection points: 2
#     Edge 20, Type (0, 1), BuildingBlock: TEMPAE_clean_linker_10, # of connection points: 2
#     Edge 21, Type (0, 1), BuildingBlock: TEMPAE_clean_linker_10, # of connection points: 2
#     Edge 22, Type (0, 1), BuildingBlock: TEMPAE_clean_linker_10, # of connection points: 2
#     Edge 23, Type (0, 1), BuildingBlock: TEMPAE_clean_linker_10, # of connection points: 2
#     Edge 24, Type (0, 1), BuildingBlock: TEMPAE_clean_linker_10, # of connection points: 2
#     Edge 25, Type (0, 1), BuildingBlock: TEMPAE_clean_linker_10, # of connection points: 2
#     Edge 26, Type (0, 1), BuildingBlock: TEMPAE_clean_linker_10, # of connection points: 2
#     Edge 27, Type (0, 1), BuildingBlock: TEMPAE_clean_linker_10, # of connection points: 2
#     Edge 28, Type (0, 1), BuildingBlock: TEMPAE_clean_linker_10, # of connection points: 2
#     Edge 29, Type (0, 1), BuildingBlock: TEMPAE_clean_linker_10, # of connection points: 2
#     Edge 30, Type (0, 1), BuildingBlock: TEMPAE_clean_linker_10, # of connection points: 2
#     Edge 31, Type (0, 1), BuildingBlock: TEMPAE_clean_linker_10, # of connection points: 2
#     Edge 32, Type (0, 1), BuildingBlock: TEMPAE_clean_linker_10, # of connection points: 2
#     Edge 33, Type (0, 1), BuildingBlock: TEMPAE_clean_linker_10, # of connection points: 2
#     Edge 34, Type (0, 1), BuildingBlock: TEMPAE_clean_linker_10, # of connection points: 2
#     Edge 35, Type (0, 1), BuildingBlock: TEMPAE_clean_linker_10, # of connection points: 2
# Relax obj value: 0.382
# Max RMSD: 0.224
# Mean RMSD: 0.181
data_MOF--net-zzz--node1-HISSIN_clean_sbu_0--node2-BELTOD_clean_linker_0--edge1-TEMPAE_clean_linker_10
_symmetry_space_group_name_H-M    P1
_symmetry_Int_Tables_number       1
_symmetry_cell_setting            triclinic
loop_
_symmetry_equiv_pos_as_xyz
'x, y, z'
_cell_length_a     53.562953
_cell_length_b     53.601816
_cell_length_c     20.537026
_cell_angle_alpha  89.598224
_cell_angle_beta   92.6195
_cell_angle_gamma 91.460995
loop_
_atom_site_label
_atom_site_type_symbol
_atom_site_fract_x
_atom_site_fract_y
_atom_site_fract_z
_atom_type_partial_charge
P0 P 0.71335 0.48973 0.31866 0.0
H1 H 0.72681 0.4858 0.45775 0.0
H2 H 0.76573 0.49664 0.51839 0.0
H3 H 0.79017 0.54032 0.35502 0.0
H4 H 0.75136 0.52892 0.29345 0.0
H5 H 0.65885 0.49257 0.31638 0.0
H6 H 0.62865 0.50854 0.2356 0.0
H7 H 0.68891 0.54196 0.12939 0.0
H8 H 0.71899 0.52685 0.21234 0.0
H9 H 0.75506 0.45758 0.35046 0.0
H10 H 0.71311 0.47959 0.17595 0.0
O11 O 0.69713 0.46988 0.36452 0.0
H12 H 0.78618 0.439 0.28421 0.0
H13 H 0.7449 0.46266 0.10969 0.0
C14 C 0.73584 0.50674 0.37097 0.0
C15 C 0.73996 0.49855 0.43557 0.0
C16 C 0.76237 0.50455 0.47017 0.0
C17 C 0.78102 0.51912 0.44115 0.0
C18 C 0.77601 0.52919 0.37869 0.0
C19 C 0.75367 0.52287 0.34364 0.0
C20 C 0.69134 0.5081 0.27014 0.0
C21 C 0.66563 0.50392 0.2768 0.0
C22 C 0.64829 0.51287 0.2299 0.0
C23 C 0.65627 0.52593 0.17457 0.0
C24 C 0.68194 0.53201 0.17114 0.0
C25 C 0.69928 0.52338 0.21888 0.0
C26 C 0.73237 0.47117 0.26841 0.0
C27 C 0.75246 0.4584 0.29789 0.0
C28 C 0.77036 0.44789 0.25992 0.0
C29 C 0.76851 0.45003 0.19161 0.0
C30 C 0.74709 0.4608 0.16216 0.0
C31 C 0.72902 0.47101 0.2003 0.0
P32 P 0.03821 0.7287 0.28649 0.0
H33 H 0.02879 0.73795 0.42371 0.0
H34 H 0.01679 0.77576 0.47782 0.0
H35 H 0.99418 0.80769 0.29134 0.0
H36 H 0.00668 0.76972 0.23724 0.0
H37 H 0.06191 0.68552 0.23974 0.0
H38 H 0.05067 0.6547 0.15807 0.0
H39 H 0.97584 0.68341 0.14063 0.0
H40 H 0.98829 0.71586 0.22083 0.0
H41 H 0.08016 0.76369 0.31108 0.0
H42 H 0.03536 0.73671 0.14492 0.0
O43 O 0.05782 0.71679 0.34338 0.0
H44 H 0.10015 0.79489 0.24126 0.0
H45 H 0.05562 0.76709 0.07541 0.0
C46 C 0.01879 0.75083 0.3261 0.0
C47 C 0.02039 0.75264 0.39437 0.0
C48 C 0.01357 0.7745 0.4255 0.0
C49 C 0.00497 0.79519 0.38909 0.0
C50 C 1.00127 0.79244 0.32103 0.0
C51 C 0.00802 0.77048 0.28997 0.0
C52 C 0.0258 0.70266 0.238 0.0
C53 C 0.04283 0.68486 0.21976 0.0
C54 C 0.03624 0.66699 0.1726 0.0
C55 C 0.0121 0.66593 0.14234 0.0
C56 C 0.99469 0.68353 0.162 0.0
C57 C 1.00158 0.70191 0.20885 0.0
C58 C 0.05655 0.74763 0.23315 0.0
C59 C 0.07522 0.76393 0.25934 0.0
C60 C 0.08666 0.78167 0.21948 0.0
C61 C 0.07932 0.78341 0.15308 0.0
C62 C 0.06147 0.76625 0.12657 0.0
C63 C 0.05001 0.74869 0.16635 0.0
P64 P 0.79154 0.02782 0.23629 0.0
H65 H 0.78154 0.01312 0.37089 0.0
H66 H 0.74272 0.0042 0.42414 0.0
H67 H 0.70374 0.99757 0.23593 0.0
H68 H 0.74287 0.00747 0.18289 0.0
H69 H 0.84615 0.02857 0.24573 0.0
H70 H 0.87726 0.01862 0.16856 0.0
H71 H 0.8199 0.98384 0.04279 0.0
H72 H 0.78854 0.99334 0.12234 0.0
H73 H 0.75447 0.06479 0.26128 0.0
H74 H 0.79865 0.04491 0.0997 0.0
O75 O 0.80703 0.04289 0.29714 0.0
H76 H 0.73034 0.09272 0.18981 0.0
H77 H 0.77381 0.07132 0.02788 0.0
C78 C 0.76541 0.01105 0.27251 0.0
C79 C 0.76487 0.00902 0.3407 0.0
C80 C 0.74238 0.00391 0.37142 0.0
C81 C 0.71961 1.00052 0.3349 0.0
C82 C 0.72059 1.00065 0.26622 0.0
C83 C 0.74318 0.00583 0.23551 0.0
C84 C 0.81475 0.01175 0.19046 0.0
C85 C 0.84014 0.01806 0.20279 0.0
C86 C 0.85805 0.01268 0.15768 0.0
C87 C 0.85119 1.00106 0.09806 0.0
C88 C 0.82602 0.99287 0.08794 0.0
C89 C 0.808 0.9981 0.1338 0.0
C90 C 0.77766 0.05182 0.18553 0.0
C91 C 0.75911 0.0665 0.21062 0.0
C92 C 0.74528 0.08241 0.16966 0.0
C93 C 0.74971 0.08381 0.10272 0.0
C94 C 0.76981 0.07073 0.07909 0.0
C95 C 0.78379 0.05506 0.12026 0.0
P96 P 0.49044 0.80845 0.27766 0.0
H97 H 0.50363 0.79788 0.41502 0.0
H98 H 0.51528 0.75923 0.46947 0.0
H99 H 0.52964 0.72675 0.28331 0.0
H100 H 0.51713 0.76552 0.22881 0.0
H101 H 0.47501 0.85807 0.24229 0.0
H102 H 0.48731 0.88773 0.15961 0.0
H103 H 0.54814 0.84061 0.11208 0.0
H104 H 0.5349 0.81025 0.19488 0.0
H105 H 0.45133 0.77339 0.31437 0.0
H106 H 0.48003 0.80304 0.13591 0.0
O107 O 0.47539 0.82319 0.33487 0.0
H108 H 0.42702 0.74167 0.25192 0.0
H109 H 0.45592 0.77162 0.07387 0.0
C110 C 0.50951 0.78481 0.31757 0.0
C111 C 0.51013 0.78283 0.38582 0.0
C112 C 0.51678 0.76049 0.41715 0.0
C113 C 0.52302 0.73949 0.38098 0.0
C114 C 0.52442 0.74226 0.31286 0.0
C115 C 0.51774 0.76467 0.28156 0.0
C116 C 0.50437 0.83216 0.22623 0.0
C117 C 0.49145 0.85434 0.21553 0.0
C118 C 0.4986 0.87144 0.16784 0.0
C119 C 0.51895 0.86691 0.12893 0.0
C120 C 0.5323 0.84479 0.14067 0.0
C121 C 0.52498 0.82751 0.18866 0.0
C122 C 0.46745 0.79062 0.22995 0.0
C123 C 0.45172 0.77364 0.26168 0.0
C124 C 0.43795 0.75549 0.22607 0.0
C125 C 0.43965 0.75417 0.15813 0.0
C126 C 0.45397 0.7724 0.12609 0.0
C127 C 0.46791 0.79037 0.16176 0.0
P128 P 0.29099 0.44177 0.05383 0.0
H129 H 0.2746 0.43155 0.91839 0.0
H130 H 0.23827 0.44591 0.85508 0.0
H131 H 0.22962 0.50476 0.99434 0.0
H132 H 0.26545 0.48956 0.05897 0.0
H133 H 0.33937 0.41987 0.08418 0.0
H134 H 0.37518 0.43335 0.15279 0.0
H135 H 0.34197 0.50531 0.17501 0.0
H136 H 0.30694 0.49212 0.10207 0.0
H137 H 0.243 0.41556 0.05456 0.0
H138 H 0.2896 0.459 0.19067 0.0
O139 O 0.29649 0.41383 0.02282 0.0
H140 H 0.20735 0.42089 0.12268 0.0
H141 H 0.25417 0.46545 0.25644 0.0
C142 C 0.27312 0.45954 0.99348 0.0
C143 C 0.26559 0.44816 0.93417 0.0
C144 C 0.24458 0.45639 0.89787 0.0
C145 C 0.23057 0.47625 0.92005 0.0
C146 C 0.23957 0.48908 0.97636 0.0
C147 C 0.26056 0.48076 0.01273 0.0
C148 C 0.32027 0.4549 0.08778 0.0
C149 C 0.3401 0.43886 0.10187 0.0
C150 C 0.3605 0.4465 0.14239 0.0
C151 C 0.36131 0.47021 0.1716 0.0
C152 C 0.34221 0.48692 0.15365 0.0
C153 C 0.32203 0.4794 0.11161 0.0
C154 C 0.26893 0.43723 0.11662 0.0
C155 C 0.2458 0.42557 0.10006 0.0
C156 C 0.22535 0.42894 0.13854 0.0
C157 C 0.22774 0.44414 0.1941 0.0
C158 C 0.25157 0.45363 0.214 0.0
C159 C 0.272 0.45012 0.17569 0.0
P160 P 0.05992 0.28679 0.06485 0.0
H161 H 0.06536 0.28546 0.92337 0.0
H162 H 0.05212 0.25292 0.84654 0.0
H163 H 1.00036 0.22344 0.98465 0.0
H164 H 0.01264 0.25711 0.0595 0.0
H165 H 0.07446 0.29576 0.20056 0.0
H166 H 0.06478 0.3268 0.27904 0.0
H167 H 0.0167 0.36287 0.13402 0.0
H168 H 0.02496 0.3296 0.05633 0.0
H169 H 0.09442 0.24705 0.0394 0.0
H170 H 0.03861 0.26242 0.17762 0.0
O171 O 0.0862 0.29862 0.03512 0.0
H172 H 0.09464 0.20334 0.07573 0.0
H173 H 0.03925 0.21961 0.21479 0.0
C174 C 0.04025 0.27386 0.99804 0.0
C175 C 0.05023 0.27284 0.93607 0.0
C176 C 0.04302 0.25365 0.89246 0.0
C177 C 0.02585 0.23466 0.90991 0.0
C178 C 0.01373 0.23744 0.96896 0.0
C179 C 0.02064 0.257 0.01204 0.0
C180 C 0.04957 0.30946 0.12302 0.0
C181 C 0.06109 0.30975 0.18582 0.0
C182 C 0.05598 0.32816 0.2307 0.0
C183 C 0.04016 0.34795 0.21354 0.0
C184 C 0.02872 0.34787 0.14998 0.0
C185 C 0.03342 0.32883 0.10518 0.0
C186 C 0.06722 0.2583 0.10749 0.0
C187 C 0.08324 0.2414 0.07982 0.0
C188 C 0.08315 0.21641 0.1 0.0
C189 C 0.06714 0.20816 0.14844 0.0
C190 C 0.05229 0.22551 0.17857 0.0
C191 C 0.05208 0.25022 0.15771 0.0
P192 P 0.24859 0.05349 0.09317 0.0
H193 H 0.26914 0.08027 0.98218 0.0
H194 H 0.30033 0.06961 0.90561 0.0
H195 H 0.29672 0.99298 0.97088 0.0
H196 H 0.26476 0.00383 0.04778 0.0
H197 H 0.19659 0.06998 0.07741 0.0
H198 H 0.16078 0.06162 0.14387 0.0
H199 H 0.19983 1.00065 0.23803 0.0
H200 H 0.23478 0.00817 0.16804 0.0
H201 H 0.30025 0.03488 0.11343 0.0
H202 H 0.24334 0.06493 0.23048 0.0
O203 O 0.24452 0.08413 0.08452 0.0
H204 H 0.32199 0.0196 0.20989 0.0
H205 H 0.26627 0.05098 0.3292 0.0
C206 C 0.2642 0.0429 0.02111 0.0
C207 C 0.27419 0.06092 0.9788 0.0
C208 C 0.29232 0.0548 0.93481 0.0
C209 C 0.30145 0.03046 0.9322 0.0
C210 C 0.29039 0.01199 0.97186 0.0
C211 C 0.27174 0.01808 0.01518 0.0
C212 C 0.21875 0.03996 0.11778 0.0
C213 C 0.19709 0.05413 0.11037 0.0
C214 C 0.17669 0.04964 0.14996 0.0
C215 C 0.17744 0.03103 0.19901 0.0
C216 C 0.1982 0.01525 0.20156 0.0
C217 C 0.21838 0.01945 0.16088 0.0
C218 C 0.26932 0.04986 0.16416 0.0
C219 C 0.29242 0.03849 0.15977 0.0
C220 C 0.30526 0.03011 0.21579 0.0
C221 C 0.29563 0.03355 0.27763 0.0
C222 C 0.27383 0.04736 0.28228 0.0
C223 C 0.26085 0.05556 0.22588 0.0
P224 P 0.47111 0.24936 0.07889 0.0
H225 H 0.45196 0.25518 0.94335 0.0
H226 H 0.4623 0.2862 0.86056 0.0
H227 H 0.52824 0.30855 0.97736 0.0
H228 H 0.51884 0.27636 0.05618 0.0
H229 H 0.43539 0.21648 0.1399 0.0
H230 H 0.43962 0.17672 0.19506 0.0
H231 H 0.51253 0.16892 0.11705 0.0
H232 H 0.50806 0.20947 0.06118 0.0
H233 H 0.46552 0.29828 0.13587 0.0
H234 H 0.51166 0.23439 0.17284 0.0
O235 O 0.44128 0.25775 0.07685 0.0
H236 H 0.48997 0.32149 0.21955 0.0
H237 H 0.53549 0.2571 0.2573 0.0
C238 C 0.48431 0.26349 0.00688 0.0
C239 C 0.46923 0.26602 0.94965 0.0
C240 C 0.47494 0.28432 0.90284 0.0
C241 C 0.49571 0.30086 0.91261 0.0
C242 C 0.51205 0.2965 0.96713 0.0
C243 C 0.50659 0.27788 0.01305 0.0
C244 C 0.47126 0.21603 0.09542 0.0
C245 C 0.45191 0.20588 0.13201 0.0
C246 C 0.45441 0.18297 0.16413 0.0
C247 C 0.47651 0.16951 0.16127 0.0
C248 C 0.49532 0.17887 0.12099 0.0
C249 C 0.49264 0.20187 0.08802 0.0
C250 C 0.48633 0.26442 0.14863 0.0
C251 C 0.48038 0.28898 0.1632 0.0
C252 C 0.49437 0.3022 0.21114 0.0
C253 C 0.51463 0.29106 0.24513 0.0
C254 C 0.5201 0.26623 0.23162 0.0
C255 C 0.5062 0.25309 0.1835 0.0
Eu256 Eu 0.99047 0.02213 0.59334 0.0
Eu257 Eu 0.03545 0.00779 0.69708 0.0
C258 C 0.01595 0.06423 0.69 0.0
C259 C 0.96224 0.04287 0.43341 0.0
C260 C 0.95574 0.0672 0.41555 0.0
C261 C 0.9848 0.03959 0.33369 0.0
C262 C 0.96473 0.07808 0.35907 0.0
C263 C 0.97605 0.0288 0.39071 0.0
C264 C 0.98018 0.06473 0.31867 0.0
C265 C 0.95805 0.03405 0.50036 0.0
O266 O 0.99983 0.99492 0.7462 0.0
O267 O 0.97117 0.01863 0.68845 0.0
C268 C 0.97745 0.00477 0.73948 0.0
O269 O 0.98783 0.98001 0.60215 0.0
O270 O 0.05202 0.00452 0.79582 0.0
O271 O 0.07416 0.9969 0.71323 0.0
O272 O 0.02804 0.97266 0.63798 0.0
C273 C 0.00672 0.96491 0.60989 0.0
O274 O 0.02441 0.01687 0.53396 0.0
O275 O 0.05368 0.02785 0.61266 0.0
O276 O 0.02496 0.04625 0.72689 0.0
O277 O 0.964 0.01115 0.51407 0.0
O278 O 0.96571 0.04934 0.54653 0.0
O279 O 0.00655 0.05956 0.63077 0.0
C280 C 0.08347 0.97502 0.81027 0.0
C281 C 0.07464 0.95096 0.79384 0.0
C282 C 0.11069 0.95773 0.89569 0.0
C283 C 0.0836 0.93037 0.82869 0.0
C284 C 0.10176 0.97831 0.86062 0.0
C285 C 0.10144 0.93358 0.88061 0.0
C286 C 0.07332 0.99687 0.77646 0.0
C287 C 0.04745 0.02363 0.55097 0.0
H288 H 0.94516 0.07842 0.44766 0.0
H289 H 0.99619 0.02859 0.30313 0.0
H290 H 0.96099 0.09758 0.34996 0.0
H291 H 0.98134 0.00991 0.40293 0.0
H292 H 0.06044 0.94818 0.75508 0.0
H293 H 0.12447 0.9607 0.93531 0.0
H294 H 0.07579 0.91204 0.81675 0.0
H295 H 0.10879 0.99684 0.87359 0.0
Eu296 Eu 0.51866 0.03404 0.6653 0.0
Eu297 Eu 0.49796 0.98519 0.58492 0.0
C298 C 0.51839 0.98045 0.73324 0.0
C299 C 0.5613 0.08453 0.74275 0.0
C300 C 0.58224 0.07841 0.70799 0.0
C301 C 0.58822 0.10776 0.81989 0.0
C302 C 0.60611 0.08662 0.72969 0.0
C303 C 0.56436 0.09967 0.79789 0.0
C304 C 0.60942 0.10084 0.7869 0.0
C305 C 0.53642 0.07425 0.724 0.0
O306 O 0.46273 1.00015 0.6284 0.0
O307 O 0.48038 0.02708 0.7053 0.0
C308 C 0.4609 0.01443 0.68013 0.0
O309 O 0.49386 0.04752 0.58094 0.0
O310 O 0.49577 0.94465 0.5731 0.0
O311 O 0.47708 0.96874 0.50214 0.0
O312 O 0.50241 0.01654 0.51158 0.0
C313 C 0.49585 0.03956 0.52125 0.0
O314 O 0.55023 0.025 0.59978 0.0
O315 O 0.53991 0.98441 0.57328 0.0
O316 O 0.50029 0.97431 0.6909 0.0
O317 O 0.5309 0.07302 0.66165 0.0
O318 O 0.52948 0.05409 0.75491 0.0
O319 O 0.53246 1.00051 0.72391 0.0
C320 C 0.45549 0.93263 0.53077 0.0
C321 C 0.44173 0.92558 0.47406 0.0
C322 C 0.41747 0.93117 0.5906 0.0
C323 C 0.41573 0.92355 0.47439 0.0
C324 C 0.44347 0.93357 0.59006 0.0
C325 C 0.40327 0.9286 0.53163 0.0
C326 C 0.47945 0.94597 0.52405 0.0
C327 C 0.55579 0.00359 0.57368 0.0
H328 H 0.58021 0.06675 0.66513 0.0
H329 H 0.59013 0.1183 0.86472 0.0
H330 H 0.62203 0.08117 0.7029 0.0
H331 H 0.54837 0.10452 0.82525 0.0
H332 H 0.4507 0.92479 0.4279 0.0
H333 H 0.40843 0.93439 0.63575 0.0
H334 H 0.40552 0.92141 0.42795 0.0
H335 H 0.45377 0.93895 0.63462 0.0
Eu336 Eu 0.49222 0.52866 0.69579 0.0
Eu337 Eu 0.54063 0.51356 0.6141 0.0
C338 C 0.54653 0.53232 0.76253 0.0
C339 C 0.44848 0.5627 0.80293 0.0
C340 C 0.46729 0.57404 0.84318 0.0
C341 C 0.41915 0.59325 0.8373 0.0
C342 C 0.46205 0.59474 0.88039 0.0
C343 C 0.42437 0.57235 0.80039 0.0
C344 C 0.438 0.60478 0.87738 0.0
C345 C 0.45406 0.54139 0.76195 0.0
O346 O 0.52315 0.47628 0.64217 0.0
O347 O 0.50242 0.48977 0.72998 0.0
C348 C 0.51187 0.47166 0.6967 0.0
O349 O 0.47643 0.50726 0.60868 0.0
O350 O 0.58053 0.50606 0.61502 0.0
O351 O 0.55866 0.50495 0.52419 0.0
O352 O 0.50811 0.51567 0.54024 0.0
C353 C 0.48478 0.50898 0.54968 0.0
O354 O 0.50053 0.56249 0.63263 0.0
O355 O 0.54124 0.55563 0.60886 0.0
O356 O 0.55258 0.51537 0.7207 0.0
O357 O 0.45593 0.5462 0.70006 0.0
O358 O 0.47154 0.52675 0.78456 0.0
O359 O 0.52568 0.54448 0.75376 0.0
C360 C 0.58947 0.47535 0.53924 0.0
C361 C 0.57992 0.45423 0.57118 0.0
C362 C 0.60957 0.44863 0.46397 0.0
C363 C 0.58419 0.43047 0.5478 0.0
C364 C 0.60514 0.47247 0.48727 0.0
C365 C 0.59806 0.42749 0.49198 0.0
C366 C 0.57998 0.49995 0.55373 0.0
C367 C 0.52187 0.57021 0.60916 0.0
H368 H 0.48609 0.56699 0.8457 0.0
H369 H 0.40052 0.60068 0.83344 0.0
H370 H 0.47689 0.60286 0.91167 0.0
H371 H 0.40968 0.56389 0.76923 0.0
H372 H 0.56772 0.45615 0.6114 0.0
H373 H 0.62059 0.44685 0.4214 0.0
H374 H 0.57477 0.41469 0.57011 0.0
H375 H 0.61266 0.48865 0.46222 0.0
Eu376 Eu 0.0182 0.53088 0.62143 0.0
Eu377 Eu 0.99751 0.48632 0.71639 0.0
C378 C 0.05606 0.50069 0.71791 0.0
C379 C 0.06002 0.55448 0.50091 0.0
C380 C 0.07579 0.53592 0.52643 0.0
C381 C 0.08018 0.55208 0.39769 0.0
C382 C 0.093 0.52503 0.48758 0.0
C383 C 0.06258 0.56286 0.43665 0.0
C384 C 0.0949 0.53254 0.42252 0.0
C385 C 0.03824 0.56086 0.53765 0.0
O386 O 0.99991 0.52099 0.7796 0.0
O387 O 1.00291 0.55272 0.70353 0.0
C388 C 0.99989 0.54486 0.76362 0.0
O389 O 0.97739 0.5247 0.59135 0.0
O390 O 0.9963 0.46765 0.81135 0.0
O391 O 0.97588 0.45179 0.72746 0.0
O392 O 0.96303 0.50732 0.68518 0.0
C393 C 0.95891 0.51798 0.62812 0.0
O394 O 0.02977 0.49466 0.57752 0.0
O395 O 0.99856 0.46969 0.6154 0.0
O396 O 0.0395 0.48222 0.71954 0.0
O397 O 0.01845 0.54698 0.52353 0.0
O398 O 0.04234 0.56318 0.60048 0.0
O399 O 0.05011 0.52246 0.69299 0.0
C400 C 0.95736 0.44789 0.82885 0.0
C401 C 0.93465 0.45825 0.80702 0.0
C402 C 0.93766 0.43243 0.92578 0.0
C403 C 0.91356 0.45557 0.8441 0.0
C404 C 0.95873 0.43492 0.88829 0.0
C405 C 0.91484 0.4428 0.90419 0.0
C406 C 0.97975 0.45094 0.79055 0.0
C407 C 0.01568 0.47434 0.57292 0.0
H408 H 0.07389 0.52882 0.57553 0.0
H409 H 0.08143 0.55809 0.34745 0.0
H410 H 0.10436 0.51016 0.50783 0.0
H411 H 0.05023 0.57679 0.41581 0.0
H412 H 0.93319 0.46847 0.76135 0.0
H413 H 0.93941 0.42283 0.97228 0.0
H414 H 0.89622 0.4635 0.82555 0.0
H415 H 0.97616 0.42695 0.90603 0.0
C416 C 0.14593 0.05098 0.27031 0.0
C417 C 0.15773 0.02937 0.24971 0.0
C418 C 0.1281 0.05008 0.31886 0.0
C419 C 0.12205 0.02711 0.34975 0.0
C420 C 0.13392 0.00525 0.32985 0.0
C421 C 0.15131 0.00657 0.28001 0.0
C422 C 0.11594 0.07393 0.33766 0.0
C423 C 0.12834 0.98036 0.3615 0.0
C424 C 0.09202 0.03027 0.51609 0.0
C425 C 0.06662 0.02529 0.49976 0.0
C426 C 0.1102 0.03062 0.46819 0.0
C427 C 0.10299 0.02604 0.40184 0.0
C428 C 0.07736 0.02104 0.38514 0.0
C429 C 0.05964 0.02069 0.43395 0.0
C430 C 0.13727 0.03557 0.4888 0.0
C431 C 0.06853 0.0154 0.31583 0.0
H432 H 0.15094 0.06892 0.24944 0.0
H433 H 0.15978 0.98959 0.2647 0.0
H434 H 0.09547 0.07094 0.34111 0.0
H435 H 0.12354 0.07993 0.38635 0.0
H436 H 0.11937 0.08928 0.3023 0.0
H437 H 0.14039 0.96543 0.34422 0.0
H438 H 0.13106 0.98182 0.41525 0.0
H439 H 0.10852 0.97476 0.35073 0.0
H440 H 0.09781 0.03362 0.56659 0.0
H441 H 0.04018 0.01659 0.42027 0.0
H442 H 0.14426 0.05278 0.46463 0.0
H443 H 0.14879 0.01998 0.4731 0.0
H444 H 0.14007 0.0378 0.54239 0.0
H445 H 0.07826 0.02759 0.28074 0.0
H446 H 0.04804 0.01756 0.30816 0.0
H447 H 0.07286 0.99583 0.30449 0.0
C448 C 0.50336 0.14431 0.24033 0.0
C449 C 0.48046 0.14735 0.20535 0.0
C450 C 0.50623 0.12568 0.28873 0.0
C451 C 0.48571 0.10962 0.30299 0.0
C452 C 0.46287 0.11192 0.26608 0.0
C453 C 0.46056 0.13062 0.21779 0.0
C454 C 0.53098 0.12384 0.32643 0.0
C455 C 0.44053 0.0952 0.2792 0.0
C456 C 0.49761 0.04985 0.40149 0.0
C457 C 0.4922 0.05708 0.46487 0.0
C458 C 0.49555 0.06664 0.34845 0.0
C459 C 0.48774 0.09132 0.35861 0.0
C460 C 0.48191 0.09862 0.42229 0.0
C461 C 0.48427 0.08151 0.47447 0.0
C462 C 0.50205 0.05805 0.28161 0.0
C463 C 0.47334 0.12465 0.43548 0.0
H464 H 0.51879 0.15723 0.23199 0.0
H465 H 0.44289 0.13248 0.19056 0.0
H466 H 0.52867 0.12891 0.37806 0.0
H467 H 0.53752 0.10438 0.32602 0.0
H468 H 0.54563 0.13634 0.30632 0.0
H469 H 0.42458 0.09837 0.24389 0.0
H470 H 0.44567 0.07532 0.27701 0.0
H471 H 0.43431 0.09863 0.32909 0.0
H472 H 0.50386 0.0311 0.39331 0.0
H473 H 0.48002 0.08738 0.52304 0.0
H474 H 0.51775 0.06971 0.26372 0.0
H475 H 0.48588 0.06041 0.2466 0.0
H476 H 0.50748 0.03818 0.28147 0.0
H477 H 0.48799 0.13854 0.42228 0.0
H478 H 0.46913 0.12733 0.4874 0.0
H479 H 0.45631 0.12862 0.40473 0.0
C480 C 0.38937 0.45797 0.26783 0.0
C481 C 0.38083 0.47654 0.22406 0.0
C482 C 0.40703 0.46344 0.31874 0.0
C483 C 0.41613 0.48825 0.32764 0.0
C484 C 0.40769 0.50715 0.28393 0.0
C485 C 0.39033 0.50105 0.23249 0.0
C486 C 0.41565 0.44265 0.36374 0.0
C487 C 0.41671 0.5339 0.29214 0.0
C488 C 0.44138 0.50449 0.49909 0.0
C489 C 0.46733 0.50384 0.49261 0.0
C490 C 0.42459 0.50009 0.44551 0.0
C491 C 0.43388 0.49441 0.38397 0.0
C492 C 0.46006 0.49367 0.37712 0.0
C493 C 0.47646 0.49862 0.43131 0.0
C494 C 0.39686 0.50144 0.45485 0.0
C495 C 0.47075 0.4872 0.3128 0.0
H496 H 0.38184 0.43909 0.26343 0.0
H497 H 0.3842 0.51556 0.19889 0.0
H498 H 0.43636 0.44201 0.36601 0.0
H499 H 0.40975 0.44618 0.41386 0.0
H500 H 0.40796 0.4241 0.34794 0.0
H501 H 0.40853 0.54639 0.25387 0.0
H502 H 0.41173 0.54082 0.34054 0.0
H503 H 0.43738 0.53512 0.29053 0.0
H504 H 0.43414 0.50876 0.54605 0.0
H505 H 0.49647 0.498 0.42585 0.0
H506 H 0.38773 0.48295 0.44518 0.0
H507 H 0.38835 0.51488 0.41953 0.0
H508 H 0.39268 0.50725 0.50494 0.0
H509 H 0.46418 0.4682 0.29785 0.0
H510 H 0.49152 0.48779 0.31516 0.0
H511 H 0.46404 0.50034 0.2743 0.0
C512 C 0.01353 0.38087 0.26391 0.0
C513 C 0.03633 0.36846 0.26195 0.0
C514 C 0.00965 0.39913 0.31153 0.0
C515 C 0.02876 0.40489 0.35963 0.0
C516 C 0.05191 0.39284 0.35725 0.0
C517 C 0.05551 0.37524 0.30824 0.0
C518 C 0.98492 0.41201 0.31093 0.0
C519 C 0.07271 0.39771 0.40811 0.0
C520 C 0.02948 0.46483 0.4603 0.0
C521 C 0.01887 0.45663 0.51825 0.0
C522 C 0.03206 0.44846 0.40767 0.0
C523 C 0.02451 0.42301 0.41345 0.0
C524 C 0.01401 0.4146 0.47213 0.0
C525 C 0.01099 0.43154 0.52326 0.0
C526 C 0.04292 0.45841 0.34582 0.0
C527 C 0.00642 0.38755 0.4815 0.0
H528 H 0.99842 0.37596 0.22916 0.0
H529 H 0.07356 0.36667 0.30675 0.0
H530 H 0.97495 0.40687 0.35544 0.0
H531 H 0.98803 0.43256 0.31146 0.0
H532 H 0.97271 0.40696 0.2676 0.0
H533 H 0.09086 0.39057 0.39312 0.0
H534 H 0.07507 0.41791 0.4186 0.0
H535 H 0.06785 0.38825 0.45424 0.0
H536 H 0.03545 0.48422 0.45562 0.0
H537 H 1.00289 0.42498 0.56786 0.0
H538 H 0.02946 0.45497 0.30396 0.0
H539 H 0.06019 0.44841 0.3358 0.0
H540 H 0.04745 0.47873 0.34842 0.0
H541 H 0.99237 0.38171 0.4429 0.0
H542 H 0.99845 0.38396 0.52978 0.0
H543 H 0.02292 0.37566 0.47705 0.0
C544 C 0.8708 0.97844 1.00501 0.0
C545 C 0.86992 0.9994 0.04562 0.0
C546 C 0.88831 0.97722 0.9556 0.0
C547 C 0.90539 0.99746 0.94583 0.0
C548 C 0.90458 0.01861 0.98666 0.0
C549 C 0.88698 0.01932 0.03554 0.0
C550 C 0.88844 0.95428 0.91349 0.0
C551 C 0.92211 0.04078 0.9781 0.0
C552 C 0.96534 0.9903 0.85211 0.0
C553 C 0.95871 1.00093 0.79117 0.0
C554 C 0.94807 0.9884 0.90219 0.0
C555 C 0.92343 0.99722 0.89143 0.0
C556 C 0.91647 0.00729 0.82943 0.0
C557 C 0.93407 0.00907 0.78049 0.0
C558 C 0.95644 0.97758 0.96736 0.0
C559 C 0.89051 0.01688 0.81517 0.0
H560 H 0.85793 0.96285 0.01222 0.0
H561 H 0.88627 0.0359 0.0652 0.0
H562 H 0.88428 0.95945 0.86181 0.0
H563 H 0.90728 0.94608 0.91627 0.0
H564 H 0.87453 0.93983 0.92817 0.0
H565 H 0.91976 0.05545 0.01511 0.0
H566 H 0.94179 0.03475 0.98156 0.0
H567 H 0.91878 0.0491 0.92895 0.0
H568 H 0.98423 0.98397 0.86134 0.0
H569 H 0.9285 0.0172 0.73378 0.0
H570 H 0.94332 0.96238 0.98165 0.0
H571 H 0.95621 0.99221 0.00529 0.0
H572 H 0.97559 0.9701 0.96697 0.0
H573 H 0.87629 1.00223 0.8262 0.0
H574 H 0.8875 0.02283 0.76354 0.0
H575 H 0.88731 0.03303 0.84695 0.0
C576 C 0.53184 0.87562 0.01362 0.0
C577 C 0.52477 0.88456 0.07411 0.0
C578 C 0.53408 0.8917 0.95942 0.0
C579 C 0.52876 0.91736 0.96515 0.0
C580 C 0.52283 0.92672 0.02674 0.0
C581 C 0.52119 0.91034 0.08034 0.0
C582 C 0.54091 0.88095 0.89508 0.0
C583 C 0.51677 0.95382 0.0353 0.0
C584 C 0.54434 0.9643 0.83 0.0
C585 C 0.5216 0.96485 0.79331 0.0
C586 C 0.54718 0.9487 0.88551 0.0
C587 C 0.52663 0.93375 0.90567 0.0
C588 C 0.50356 0.93463 0.86926 0.0
C589 C 0.50143 0.94989 0.81351 0.0
C590 C 0.57221 0.94799 0.92216 0.0
C591 C 0.48096 0.91953 0.88939 0.0
H592 H 0.53454 0.85582 0.00756 0.0
H593 H 0.51639 0.91772 0.12699 0.0
H594 H 0.52425 0.8806 0.86091 0.0
H595 H 0.55552 0.89279 0.87265 0.0
H596 H 0.54779 0.86163 0.90047 0.0
H597 H 0.51454 0.95864 0.08721 0.0
H598 H 0.53166 0.96609 0.01568 0.0
H599 H 0.49911 0.95795 0.00738 0.0
H600 H 0.56005 0.97566 0.8146 0.0
H601 H 0.48368 0.95032 0.786 0.0
H602 H 0.57912 0.92865 0.92304 0.0
H603 H 0.57028 0.95363 0.97351 0.0
H604 H 0.5864 0.96048 0.90001 0.0
H605 H 0.48505 0.89935 0.88913 0.0
H606 H 0.46423 0.92271 0.85668 0.0
H607 H 0.47642 0.92439 0.93986 0.0
C608 C 0.64055 0.55233 0.07923 0.0
C609 C 0.63833 0.53076 0.11804 0.0
C610 C 0.62512 0.55565 0.02253 0.0
C611 C 0.60696 0.53701 1.00415 0.0
C612 C 0.60404 0.51566 0.0443 0.0
C613 C 0.61978 0.51274 0.10025 0.0
C614 C 0.62886 0.57868 0.98106 0.0
C615 C 0.58494 0.4953 0.02673 0.0
C616 C 0.55398 0.54813 0.87727 0.0
C617 C 0.56272 0.53605 0.82265 0.0
C618 C 0.56851 0.54943 0.9362 0.0
C619 C 0.5924 0.53858 0.94042 0.0
C620 C 0.6017 0.52734 0.88454 0.0
C621 C 0.58675 0.52613 0.82663 0.0
C622 C 0.55786 0.56149 0.99465 0.0
C623 C 0.62712 0.51571 0.88651 0.0
H624 H 0.65455 0.56654 0.09271 0.0
H625 H 0.61812 0.49573 0.12869 0.0
H626 H 0.63606 0.57331 0.93347 0.0
H627 H 0.61077 0.58788 0.97084 0.0
H628 H 0.64226 0.59237 1.00463 0.0
H629 H 0.58357 0.48092 0.06571 0.0
H630 H 0.56624 0.50336 0.01732 0.0
H631 H 0.59006 0.48602 0.98128 0.0
H632 H 0.53545 0.55583 0.87476 0.0
H633 H 0.59382 0.51697 0.78458 0.0
H634 H 0.5715 0.57525 0.01674 0.0
H635 H 0.5542 0.54706 0.03226 0.0
H636 H 0.54011 0.57106 0.98198 0.0
H637 H 0.64161 0.52925 0.90563 0.0
H638 H 0.63239 0.5094 0.83771 0.0
H639 H 0.62721 0.49939 0.92003 0.0
C640 C 0.98954 0.65287 0.03562 0.0
C641 C 0.00608 0.64731 0.0887 0.0
C642 C 0.98575 0.63638 0.9825 0.0
C643 C 0.99939 0.61407 0.98089 0.0
C644 C 0.01561 0.60805 0.03477 0.0
C645 C 0.01825 0.62432 0.08826 0.0
C646 C 0.96753 0.64314 0.92735 0.0
C647 C 0.03094 0.58478 0.03506 0.0
C648 C 0.98227 0.5591 0.86813 0.0
C649 C 0.998 0.56356 0.81628 0.0
C650 C 0.98151 0.57604 0.92022 0.0
C651 C 0.99766 0.59745 0.92211 0.0
C652 C 0.01345 0.60206 0.86948 0.0
C653 C 0.01307 0.58535 0.81675 0.0
C654 C 0.96365 0.57083 0.9737 0.0
C655 C 0.03161 0.62408 0.87017 0.0
H656 H 0.98002 0.67045 0.03434 0.0
H657 H 0.03035 0.61905 0.12948 0.0
H658 H 0.97787 0.64783 0.88315 0.0
H659 H 0.9548 0.62701 0.91514 0.0
H660 H 0.95612 0.65935 0.93941 0.0
H661 H 0.04311 0.58299 0.08004 0.0
H662 H 0.0185 0.56797 0.03079 0.0
H663 H 0.04292 0.585 0.99236 0.0
H664 H 0.97047 0.54236 0.86781 0.0
H665 H 0.02546 0.58875 0.77717 0.0
H666 H 0.95289 0.58773 0.98338 0.0
H667 H 0.97427 0.56601 0.01947 0.0
H668 H 0.95031 0.55518 0.96131 0.0
H669 H 0.02149 0.64171 0.87517 0.0
H670 H 0.0424 0.62526 0.82528 0.0
H671 H 0.04494 0.62262 0.91293 0.0
C672 C 0.05734 0.16468 0.11052 0.0
C673 C 0.06284 0.1813 0.16199 0.0
C674 C 0.04661 0.141 0.12228 0.0
C675 C 0.04089 0.13423 0.18673 0.0
C676 C 0.04858 0.15008 0.23926 0.0
C677 C 0.05973 0.17332 0.22617 0.0
C678 C 0.03975 0.12433 0.06501 0.0
C679 C 0.04307 0.14353 0.30898 0.0
C680 C 0.98332 0.09841 0.23393 0.0
C681 C 0.99412 0.07821 0.26751 0.0
C682 C 0.99816 0.11583 0.20108 0.0
C683 C 0.02425 0.11243 0.20002 0.0
C684 C 0.03458 0.09016 0.22483 0.0
C685 C 0.01951 0.07346 0.25954 0.0
C686 C 0.98631 0.13914 0.17366 0.0
C687 C 0.06202 0.08523 0.22 0.0
H688 H 0.0597 0.17078 0.06067 0.0
H689 H 0.06444 0.18603 0.26597 0.0
H690 H 0.0389 0.10433 0.07922 0.0
H691 H 0.02115 0.12948 0.04381 0.0
H692 H 0.05343 0.12689 0.0263 0.0
H693 H 0.05106 0.15758 0.34412 0.0
H694 H 0.02254 0.14222 0.31422 0.0
H695 H 0.05078 0.12509 0.32242 0.0
H696 H 0.96353 0.10164 0.23737 0.0
H697 H 0.02819 0.05788 0.28461 0.0
H698 H 0.99221 0.14273 0.12334 0.0
H699 H 0.99267 0.15542 0.2038 0.0
H700 H 0.96557 0.13787 0.17293 0.0
H701 H 0.06824 0.09004 0.17055 0.0
H702 H 0.06626 0.06544 0.23063 0.0
H703 H 0.07303 0.09717 0.25521 0.0
C704 C 0.29214 0.00899 0.38167 0.0
C705 C 0.30714 0.02062 0.33529 0.0
C706 C 0.30259 0.99322 0.42995 0.0
C707 C 0.32837 0.98826 0.42997 0.0
C708 C 0.34377 1.00097 0.38549 0.0
C709 C 0.33303 0.01742 0.33987 0.0
C710 C 0.28575 0.98111 0.47859 0.0
C711 C 0.37153 0.99651 0.38421 0.0
C712 C 0.37314 0.96161 0.55427 0.0
C713 C 0.37765 0.93859 0.52525 0.0
C714 C 0.35414 0.97691 0.5294 0.0
C715 C 0.33973 0.96911 0.47363 0.0
C716 C 0.34163 0.94441 0.45059 0.0
C717 C 0.36046 0.92925 0.47741 0.0
C718 C 0.35163 1.00264 0.55749 0.0
C719 C 0.32632 0.93528 0.3916 0.0
H720 H 0.27208 0.01124 0.37868 0.0
H721 H 0.34487 0.02705 0.30588 0.0
H722 H 0.27908 0.96261 0.4601 0.0
H723 H 0.29574 0.97825 0.52649 0.0
H724 H 0.26907 0.99251 0.48578 0.0
H725 H 0.38054 0.00711 0.34457 0.0
H726 H 0.3809 1.00212 0.4313 0.0
H727 H 0.37482 0.97635 0.37738 0.0
H728 H 0.38625 0.96917 0.59103 0.0
H729 H 0.36344 0.9112 0.45598 0.0
H730 H 0.33228 0.00484 0.57337 0.0
H731 H 0.35505 0.01718 0.52002 0.0
H732 H 0.36499 0.00615 0.59952 0.0
H733 H 0.30649 0.94034 0.39481 0.0
H734 H 0.32727 0.91474 0.38588 0.0
H735 H 0.33351 0.94438 0.34722 0.0
C736 C 0.52067 0.32277 0.33335 0.0
C737 C 0.53104 0.30598 0.29089 0.0
C738 C 0.53592 0.33943 0.37038 0.0
C739 C 0.56218 0.33913 0.36503 0.0
C740 C 0.57288 0.32106 0.32578 0.0
C741 C 0.55715 0.30476 0.28876 0.0
C742 C 0.52379 0.35835 0.41216 0.0
C743 C 0.60081 0.31996 0.31967 0.0
C744 C 0.58964 0.40379 0.38946 0.0
C745 C 0.59597 0.4035 0.45646 0.0
C746 C 0.58055 0.38221 0.35766 0.0
C747 C 0.57778 0.35982 0.3938 0.0
C748 C 0.58657 0.35875 0.45973 0.0
C749 C 0.59558 0.3807 0.49045 0.0
C750 C 0.57152 0.3841 0.28704 0.0
C751 C 0.58447 0.33504 0.49935 0.0
H752 H 0.50053 0.32339 0.33612 0.0
H753 H 0.5653 0.2919 0.25574 0.0
H754 H 0.53235 0.35815 0.46236 0.0
H755 H 0.52693 0.37735 0.39178 0.0
H756 H 0.50333 0.35484 0.41482 0.0
H757 H 0.6063 0.30219 0.29748 0.0
H758 H 0.60719 0.33561 0.28843 0.0
H759 H 0.61073 0.32201 0.36803 0.0
H760 H 0.58966 0.42132 0.36284 0.0
H761 H 0.60086 0.38031 0.54204 0.0
H762 H 0.55077 0.38308 0.28379 0.0
H763 H 0.57831 0.36833 0.25865 0.0
H764 H 0.57778 0.40186 0.26401 0.0
H765 H 0.56489 0.33226 0.51387 0.0
H766 H 0.5968 0.3358 0.54434 0.0
H767 H 0.58929 0.3186 0.47035 0.0
C768 C 0.20592 0.45685 0.29359 0.0
C769 C 0.2053 0.45295 0.22609 0.0
C770 C 0.18652 0.46904 0.32275 0.0
C771 C 0.16578 0.47709 0.2836 0.0
C772 C 0.16435 0.47202 0.21606 0.0
C773 C 0.18424 0.46019 0.18799 0.0
C774 C 0.18867 0.47415 0.39507 0.0
C775 C 0.14232 0.47996 0.173 0.0
C776 C 0.10886 0.49284 0.37621 0.0
C777 C 0.11144 0.51886 0.3807 0.0
C778 C 0.12588 0.47904 0.34239 0.0
C779 C 0.14609 0.49161 0.31333 0.0
C780 C 0.14831 0.518 0.31603 0.0
C781 C 0.13074 0.53139 0.34935 0.0
C782 C 0.1226 0.45101 0.33909 0.0
C783 C 0.16985 0.53198 0.28628 0.0
H784 H 0.22195 0.45098 0.32344 0.0
H785 H 0.18374 0.45767 0.13562 0.0
H786 H 0.18913 0.4946 0.40346 0.0
H787 H 0.1721 0.46625 0.41917 0.0
H788 H 0.20575 0.46617 0.4188 0.0
H789 H 0.143 0.47258 0.1227 0.0
H790 H 0.12455 0.47346 0.19398 0.0
H791 H 0.142 0.50062 0.17026 0.0
H792 H 0.09372 0.48327 0.40022 0.0
H793 H 0.1327 0.55151 0.35334 0.0
H794 H 0.13936 0.44191 0.36114 0.0
H795 H 0.12061 0.44504 0.28745 0.0
H796 H 0.10598 0.44415 0.36479 0.0
H797 H 0.1877 0.52645 0.31123 0.0
H798 H 0.16825 0.55254 0.29017 0.0
H799 H 0.17086 0.52708 0.23411 0.0
C800 C 0.11318 0.81219 0.11327 0.0
C801 C 0.0879 0.80471 0.11305 0.0
C802 C 0.1209 0.83294 0.07637 0.0
C803 C 0.10281 0.8465 0.03941 0.0
C804 C 0.0773 0.83893 0.03915 0.0
C805 C 0.0702 0.81815 0.07593 0.0
C806 C 0.14825 0.84047 0.07725 0.0
C807 C 0.05735 0.85303 1.00086 0.0
C808 C 0.10717 0.91412 0.99063 0.0
C809 C 0.10816 0.91207 0.9228 0.0
C810 C 0.108 0.89286 0.03064 0.0
C811 C 0.10988 0.86911 1.0019 0.0
C812 C 0.11347 0.86722 0.93429 0.0
C813 C 0.11246 0.88878 0.89537 0.0
C814 C 0.10415 0.89568 0.10258 0.0
C815 C 0.11593 0.84225 0.90203 0.0
H816 H 0.12686 0.80175 0.14198 0.0
H817 H 0.05057 0.81272 0.0768 0.0
H818 H 0.1548 0.84131 0.02678 0.0
H819 H 0.15102 0.85942 0.09812 0.0
H820 H 0.16006 0.82733 0.10629 0.0
H821 H 0.03839 0.84448 0.00555 0.0
H822 H 0.05709 0.87259 0.01804 0.0
H823 H 0.06153 0.85359 0.94846 0.0
H824 H 0.10378 0.93207 0.01207 0.0
H825 H 0.11374 0.88726 0.84302 0.0
H826 H 0.11663 0.88329 0.13187 0.0
H827 H 0.08459 0.89019 0.11273 0.0
H828 H 0.1076 0.91522 0.11899 0.0
H829 H 0.1283 0.82999 0.93204 0.0
H830 H 0.12343 0.84424 0.85266 0.0
H831 H 0.09725 0.83283 0.89711 0.0
C832 C 0.73922 0.10773 0.99957 0.0
C833 C 0.73143 0.09559 0.05626 0.0
C834 C 0.72184 0.11425 0.94942 0.0
C835 C 0.69619 0.10842 0.95637 0.0
C836 C 0.68808 0.09804 0.01559 0.0
C837 C 0.70578 0.0917 0.06464 0.0
C838 C 0.73115 0.12569 0.88744 0.0
C839 C 0.66084 0.09167 0.02523 0.0
C840 C 0.64069 0.12793 0.85012 0.0
C841 C 0.63475 0.10553 0.81729 0.0
C842 C 0.66227 0.13023 0.89125 0.0
C843 C 0.67805 0.10959 0.89973 0.0
C844 C 0.67346 0.08792 0.86161 0.0
C845 C 0.65183 0.08613 0.82093 0.0
C846 C 0.66692 0.15389 0.92977 0.0
C847 C 0.68999 0.06555 0.86866 0.0
H848 H 0.75898 0.11121 0.99321 0.0
H849 H 0.69952 0.08206 0.10773 0.0
H850 H 0.73203 0.11097 0.84997 0.0
H851 H 0.71828 0.1401 0.86786 0.0
H852 H 0.75016 0.13425 0.89514 0.0
H853 H 0.6574 0.08593 0.0762 0.0
H854 H 0.64908 0.10788 0.01248 0.0
H855 H 0.65464 0.07611 0.99244 0.0
H856 H 0.62782 0.14322 0.84626 0.0
H857 H 0.64739 0.06871 0.79601 0.0
H858 H 0.68715 0.15892 0.93359 0.0
H859 H 0.66054 0.15095 0.97996 0.0
H860 H 0.65661 0.16977 0.90751 0.0
H861 H 0.70999 0.07136 0.86772 0.0
H862 H 0.68587 0.05165 0.82949 0.0
H863 H 0.68707 0.0563 0.91635 0.0
C864 C 0.43657 0.70809 0.14568 0.0
C865 C 0.43026 0.7318 0.12196 0.0
C866 C 0.43324 0.68698 0.10619 0.0
C867 C 0.42314 0.68966 0.0417 0.0
C868 C 0.41461 0.71317 0.0196 0.0
C869 C 0.41849 0.73407 0.05991 0.0
C870 C 0.44276 0.66229 0.1315 0.0
C871 C 0.40321 0.71663 0.95169 0.0
C872 C 0.45095 0.64681 0.92054 0.0
C873 C 0.43295 0.62738 0.9155 0.0
C874 C 0.44758 0.66746 0.96016 0.0
C875 C 0.42544 0.66899 0.99483 0.0
C876 C 0.40662 0.65008 0.98768 0.0
C877 C 0.41067 0.62936 0.94834 0.0
C878 C 0.46816 0.68723 0.96653 0.0
C879 C 0.38262 0.65133 0.02313 0.0
H880 H 0.44593 0.70629 0.19336 0.0
H881 H 0.41338 0.75238 0.04179 0.0
H882 H 0.42884 0.64705 0.12064 0.0
H883 H 0.46005 0.65778 0.10668 0.0
H884 H 0.44712 0.66262 0.18491 0.0
H885 H 0.39343 0.73461 0.94634 0.0
H886 H 0.41816 0.71644 0.91605 0.0
H887 H 0.38978 0.70113 0.93901 0.0
H888 H 0.4679 0.64573 0.89395 0.0
H889 H 0.39671 0.61438 0.94487 0.0
H890 H 0.4755 0.68822 0.0179 0.0
H891 H 0.46072 0.7058 0.95334 0.0
H892 H 0.48396 0.68349 0.93507 0.0
H893 H 0.38659 0.64858 0.07614 0.0
H894 H 0.36865 0.63687 0.00605 0.0
H895 H 0.37432 0.66998 0.01649 0.0
C896 C 0.78599 0.43355 0.08917 0.0
C897 C 0.78993 0.44361 0.15181 0.0
C898 C 0.80597 0.43075 0.04811 0.0
C899 C 0.83045 0.43798 0.07054 0.0
C900 C 0.83474 0.44687 0.13485 0.0
C901 C 0.81443 0.44974 0.1745 0.0
C902 C 0.8007 0.42125 0.97971 0.0
C903 C 0.86062 0.45461 0.16073 0.0
C904 C 0.88709 0.41904 0.97959 0.0
C905 C 0.89265 0.44101 0.94498 0.0
C906 C 0.86662 0.41756 0.01989 0.0
C907 C 0.85127 0.43847 0.02521 0.0
C908 C 0.85649 0.46051 0.98946 0.0
C909 C 0.87718 0.46157 0.95017 0.0
C910 C 0.86169 0.39382 0.05768 0.0
C911 C 0.84051 0.48322 0.99378 0.0
H912 H 0.76719 0.42841 0.0716 0.0
H913 H 0.81771 0.45793 0.22231 0.0
H914 H 0.80418 0.43653 0.94426 0.0
H915 H 0.81348 0.40599 0.96903 0.0
H916 H 0.7811 0.41429 0.97175 0.0
H917 H 0.86115 0.45868 0.21375 0.0
H918 H 0.87409 0.43975 0.15197 0.0
H919 H 0.86705 0.47161 0.13456 0.0
H920 H 0.89874 0.40296 0.97513 0.0
H921 H 0.88156 0.47876 0.92456 0.0
H922 H 0.84228 0.38683 0.04692 0.0
H923 H 0.86353 0.39764 0.11074 0.0
H924 H 0.87481 0.3789 0.04622 0.0
H925 H 0.82061 0.47811 0.9821 0.0
H926 H 0.84629 0.4984 0.96012 0.0
H927 H 0.84175 0.49052 0.04427 0.0
C928 C 0.99972 0.19758 0.86579 0.0
C929 C 0.02262 0.21108 0.87026 0.0
C930 C 0.99734 0.17446 0.83309 0.0
C931 C 0.01826 0.16442 0.80343 0.0
C932 C 0.0412 0.17821 0.80626 0.0
C933 C 0.04313 0.2011 0.83973 0.0
C934 C 0.97255 0.16041 0.83189 0.0
C935 C 0.06407 0.16838 0.7757 0.0
C936 C 0.02268 0.09378 0.78425 0.0
C937 C 0.01619 0.09008 0.71776 0.0
C938 C 0.02296 0.11764 0.81256 0.0
C939 C 0.01681 0.13875 0.77372 0.0
C940 C 0.01013 0.13524 0.7066 0.0
C941 C 0.00977 0.11101 0.67953 0.0
C942 C 0.03001 0.12025 0.88431 0.0
C943 C 1.00361 0.15716 0.66319 0.0
H944 H 0.9836 0.20498 0.88829 0.0
H945 H 0.06114 0.21075 0.84374 0.0
H946 H 0.9665 0.15558 0.78106 0.0
H947 H 0.97456 0.14263 0.85938 0.0
H948 H 0.95768 0.17129 0.85367 0.0
H949 H 0.07992 0.18217 0.77732 0.0
H950 H 0.07016 0.15122 0.80174 0.0
H951 H 0.05962 0.16325 0.72415 0.0
H952 H 0.02749 0.07789 0.81482 0.0
H953 H 1.00468 0.10851 0.62828 0.0
H954 H 0.01489 0.12949 0.90949 0.0
H955 H 0.04711 0.13225 0.89096 0.0
H956 H 0.03352 0.10197 0.90839 0.0
H957 H 0.98787 0.16731 0.68304 0.0
H958 H 0.99832 0.1514 0.61247 0.0
H959 H 0.01981 0.17047 0.66212 0.0
C960 C 0.32522 0.03546 0.82866 0.0
C961 C 0.32348 0.02519 0.89156 0.0
C962 C 0.34676 0.03274 0.79236 0.0
C963 C 0.36748 0.01955 0.81927 0.0
C964 C 0.36566 0.0087 0.88225 0.0
C965 C 0.34376 0.01151 0.91726 0.0
C966 C 0.34744 0.04428 0.72527 0.0
C967 C 0.3872 0.99472 0.91361 0.0
C968 C 0.4176 0.99728 0.70539 0.0
C969 C 0.43645 0.01594 0.71326 0.0
C970 C 0.39534 0.99796 0.74013 0.0
C971 C 0.39134 0.01808 0.78278 0.0
C972 C 0.41024 0.037 0.79047 0.0
C973 C 0.43243 0.03562 0.75621 0.0
C974 C 0.37614 0.97701 0.73161 0.0
C975 C 0.40711 0.05873 0.8355 0.0
H976 H 0.30967 0.04584 0.80779 0.0
H977 H 0.3429 0.00375 0.96601 0.0
H978 H 0.36359 0.05757 0.72276 0.0
H979 H 0.34999 0.02949 0.68893 0.0
H980 H 0.33007 0.0543 0.71146 0.0
H981 H 0.38249 0.98625 0.96117 0.0
H982 H 0.39294 0.97973 0.8809 0.0
H983 H 0.40356 0.00764 0.92161 0.0
H984 H 0.42051 0.98177 0.67331 0.0
H985 H 0.44673 0.05016 0.76312 0.0
H986 H 0.35951 0.98387 0.70347 0.0
H987 H 0.36974 0.97042 0.77951 0.0
H988 H 0.38354 0.96084 0.70586 0.0
H989 H 0.39022 0.06915 0.8198 0.0
H990 H 0.42351 0.07185 0.83667 0.0
H991 H 0.4043 0.0518 0.88574 0.0
C992 C 0.47817 0.3361 0.8426 0.0
C993 C 0.49906 0.3238 0.87033 0.0
C994 C 0.4807 0.35892 0.80868 0.0
C995 C 0.50464 0.3704 0.80336 0.0
C996 C 0.52589 0.35789 0.82942 0.0
C997 C 0.52289 0.33472 0.86159 0.0
C998 C 0.45752 0.37124 0.78064 0.0
C999 C 0.55177 0.36949 0.82584 0.0
C1000 C 0.51339 0.42483 0.68328 0.0
C1001 C 0.5104 0.44564 0.72318 0.0
C1002 C 0.51154 0.40027 0.70836 0.0
C1003 C 0.50717 0.39632 0.77537 0.0
C1004 C 0.50471 0.41731 0.81601 0.0
C1005 C 0.50607 0.44155 0.7894 0.0
C1006 C 0.5138 0.37853 0.66287 0.0
C1007 C 0.50066 0.41418 0.88794 0.0
H1008 H 0.45955 0.32848 0.84937 0.0
H1009 H 0.53935 0.32541 0.88094 0.0
H1010 H 0.45401 0.38828 0.80879 0.0
H1011 H 0.46016 0.37709 0.72942 0.0
H1012 H 0.44071 0.3587 0.78196 0.0
H1013 H 0.56652 0.35688 0.84523 0.0
H1014 H 0.55567 0.37447 0.77474 0.0
H1015 H 0.55295 0.38702 0.85437 0.0
H1016 H 0.51672 0.42772 0.63208 0.0
H1017 H 0.50403 0.45742 0.82098 0.0
H1018 H 0.49616 0.36719 0.66132 0.0
H1019 H 0.52894 0.36621 0.68105 0.0
H1020 H 0.51775 0.38465 0.61249 0.0
H1021 H 0.4827 0.404 0.89507 0.0
H1022 H 0.50032 0.43235 0.91354 0.0
H1023 H 0.51573 0.40287 0.91111 0.0
C1024 C 0.18532 0.48724 0.92696 0.0
C1025 C 0.20552 0.48179 0.88852 0.0
C1026 C 0.16118 0.49068 0.89893 0.0
C1027 C 0.1569 0.48839 0.83063 0.0
C1028 C 0.17719 0.48315 0.79138 0.0
C1029 C 0.2012 0.48001 0.82068 0.0
C1030 C 0.14017 0.49637 0.94268 0.0
C1031 C 0.17346 0.48049 0.71843 0.0
C1032 C 0.09002 0.47374 0.76697 0.0
C1033 C 0.08199 0.49728 0.74562 0.0
C1034 C 0.11439 0.47053 0.79397 0.0
C1035 C 0.13116 0.49137 0.80041 0.0
C1036 C 0.12318 0.51513 0.77879 0.0
C1037 C 0.09882 0.51777 0.75147 0.0
C1038 C 0.12219 0.44482 0.81584 0.0
C1039 C 0.14031 0.53789 0.78521 0.0
H1040 H 0.18816 0.48814 0.97948 0.0
H1041 H 0.21663 0.47606 0.79032 0.0
H1042 H 0.13117 0.51393 0.92667 0.0
H1043 H 0.12563 0.48127 0.93906 0.0
H1044 H 0.1467 0.49828 0.99458 0.0
H1045 H 0.19113 0.47649 0.69467 0.0
H1046 H 0.15968 0.46517 0.70691 0.0
H1047 H 0.16573 0.49786 0.69692 0.0
H1048 H 0.07727 0.45776 0.76253 0.0
H1049 H 0.09289 0.53607 0.73533 0.0
H1050 H 0.12721 0.44488 0.86885 0.0
H1051 H 0.13906 0.43943 0.79042 0.0
H1052 H 0.1072 0.43044 0.80615 0.0
H1053 H 0.14593 0.54097 0.83726 0.0
H1054 H 0.13138 0.55502 0.76556 0.0
H1055 H 0.15763 0.53493 0.75899 0.0
C1056 C 0.99289 0.82167 0.48405 0.0
C1057 C 1.0022 0.82003 0.42132 0.0
C1058 C 0.99227 0.8447 0.51679 0.0
C1059 C 1.0012 0.86682 0.48644 0.0
C1060 C 0.01014 0.86539 0.42267 0.0
C1061 C 0.01054 0.84214 0.39108 0.0
C1062 C 0.98245 0.84528 0.58447 0.0
C1063 C 0.0199 0.88838 0.38828 0.0
C1064 C 0.98294 0.93115 0.54596 0.0
C1065 C 1.00446 0.93904 0.58271 0.0
C1066 C 0.98142 0.90761 0.51553 0.0
C1067 C 1.00188 0.89135 0.52177 0.0
C1068 C 0.0234 0.89895 0.5601 0.0
C1069 C 0.02444 0.92259 0.58993 0.0
C1070 C 0.9581 0.90037 0.47532 0.0
C1071 C 0.04565 0.8823 0.56844 0.0
H1072 H 0.98615 0.80487 0.50784 0.0
H1073 H 0.01821 0.84122 0.34327 0.0
H1074 H 0.99751 0.85177 0.6197 0.0
H1075 H 0.9671 0.85875 0.58619 0.0
H1076 H 0.97537 0.82669 0.60055 0.0
H1077 H 0.02529 0.88438 0.33788 0.0
H1078 H 0.00551 0.90293 0.38605 0.0
H1079 H 0.03648 0.89626 0.41609 0.0
H1080 H 0.96738 0.9436 0.5397 0.0
H1081 H 0.04118 0.92834 0.61811 0.0
H1082 H 0.95046 0.88215 0.49227 0.0
H1083 H 0.96275 0.89811 0.42362 0.0
H1084 H 0.94336 0.9145 0.47775 0.0
H1085 H 0.03974 0.86379 0.58772 0.0
H1086 H 0.06053 0.8904 0.60197 0.0
H1087 H 0.05367 0.87915 0.5204 0.0
C1088 C 0.69331 0.98693 0.42983 0.0
C1089 C 0.69502 0.99858 0.36842 0.0
C1090 C 0.67096 0.98675 0.46392 0.0
C1091 C 0.64937 0.99826 0.4362 0.0
C1092 C 0.65072 0.00948 0.37362 0.0
C1093 C 0.67337 0.00961 0.34088 0.0
C1094 C 0.6706 0.97458 0.53037 0.0
C1095 C 0.62827 0.02184 0.34162 0.0
C1096 C 0.58485 0.9811 0.50102 0.0
C1097 C 0.58024 1.00153 0.54102 0.0
C1098 C 0.60715 0.97974 0.46699 0.0
C1099 C 0.62564 0.99913 0.4732 0.0
C1100 C 0.62127 0.01957 0.5144 0.0
C1101 C 0.59873 0.02058 0.54729 0.0
C1102 C 0.61072 0.95769 0.42341 0.0
C1103 C 0.64039 0.04059 0.52339 0.0
H1104 H 0.70954 0.97792 0.45167 0.0
H1105 H 0.67424 0.01908 0.29424 0.0
H1106 H 0.66625 0.98862 0.56738 0.0
H1107 H 0.65567 0.95987 0.53092 0.0
H1108 H 0.68872 0.96608 0.54498 0.0
H1109 H 0.63184 0.02859 0.29154 0.0
H1110 H 0.61202 0.00857 0.33911 0.0
H1111 H 0.62301 0.03794 0.37128 0.0
H1112 H 0.57078 0.9663 0.49517 0.0
H1113 H 0.59558 0.03647 0.57792 0.0
H1114 H 0.62819 0.94812 0.43854 0.0
H1115 H 0.61269 0.9642 0.37245 0.0
H1116 H 0.59486 0.94395 0.42442 0.0
H1117 H 0.65864 0.03308 0.5408 0.0
H1118 H 0.63467 0.05472 0.55873 0.0
H1119 H 0.64329 0.05 0.47595 0.0
C1120 C 0.51577 0.69273 0.38323 0.0
C1121 C 0.52575 0.71445 0.41362 0.0
C1122 C 0.5162 0.66939 0.4152 0.0
C1123 C 0.52669 0.66751 0.47961 0.0
C1124 C 0.53723 0.68921 0.51018 0.0
C1125 C 0.53671 0.7123 0.47689 0.0
C1126 C 0.50484 0.6468 0.38046 0.0
C1127 C 0.54863 0.68813 0.5787 0.0
C1128 C 0.50423 0.61252 0.58331 0.0
C1129 C 0.52376 0.59567 0.57919 0.0
C1130 C 0.50516 0.63603 0.55221 0.0
C1131 C 0.52603 0.64298 0.51543 0.0
C1132 C 0.54595 0.62621 0.51175 0.0
C1133 C 0.54463 0.60289 0.54374 0.0
C1134 C 0.48358 0.65334 0.55802 0.0
C1135 C 0.56849 0.6327 0.47284 0.0
H1136 H 0.50682 0.69405 0.33499 0.0
H1137 H 0.54478 0.72876 0.50078 0.0
H1138 H 0.51863 0.63172 0.3799 0.0
H1139 H 0.48858 0.63951 0.40697 0.0
H1140 H 0.4985 0.65108 0.32943 0.0
H1141 H 0.55663 0.70647 0.59512 0.0
H1142 H 0.53421 0.68197 0.61287 0.0
H1143 H 0.56362 0.67421 0.58181 0.0
H1144 H 0.48803 0.60729 0.61056 0.0
H1145 H 0.55982 0.59009 0.53979 0.0
H1146 H 0.47467 0.65687 0.5091 0.0
H1147 H 0.49046 0.67162 0.57761 0.0
H1148 H 0.46915 0.64561 0.59024 0.0
H1149 H 0.5626 0.63539 0.42082 0.0
H1150 H 0.58273 0.61799 0.47623 0.0
H1151 H 0.57728 0.65055 0.4902 0.0
C1152 C 0.81914 0.49896 0.4891 0.0
C1153 C 0.8066 0.52089 0.47233 0.0
C1154 C 0.84379 0.49976 0.51551 0.0
C1155 C 0.85611 0.52313 0.52688 0.0
C1156 C 0.84335 0.5454 0.51117 0.0
C1157 C 0.81884 0.54401 0.48313 0.0
C1158 C 0.85683 0.47555 0.52987 0.0
C1159 C 0.85561 0.57067 0.52384 0.0
C1160 C 0.91295 0.52106 0.64543 0.0
C1161 C 0.93273 0.52119 0.60289 0.0
C1162 C 0.88799 0.52278 0.62156 0.0
C1163 C 0.88259 0.52401 0.55341 0.0
C1164 C 0.90252 0.52446 0.51034 0.0
C1165 C 0.92731 0.52334 0.5356 0.0
C1166 C 0.86737 0.52278 0.66925 0.0
C1167 C 0.89763 0.52514 0.43735 0.0
H1168 H 0.80982 0.48105 0.47984 0.0
H1169 H 0.80914 0.56097 0.47017 0.0
H1170 H 0.87391 0.4747 0.50142 0.0
H1171 H 0.86284 0.47453 0.58219 0.0
H1172 H 0.84469 0.45895 0.51779 0.0
H1173 H 0.84274 0.58617 0.51214 0.0
H1174 H 0.86214 0.57209 0.57578 0.0
H1175 H 0.87229 0.57304 0.49413 0.0
H1176 H 0.91697 0.51956 0.6975 0.0
H1177 H 0.94245 0.52326 0.50232 0.0
H1178 H 0.8557 0.50547 0.6636 0.0
H1179 H 0.85497 0.53875 0.65902 0.0
H1180 H 0.87474 0.52392 0.72062 0.0
H1181 H 0.88684 0.50811 0.42161 0.0
H1182 H 0.91518 0.52621 0.41053 0.0
H1183 H 0.88617 0.54141 0.42318 0.0
loop_
_geom_bond_atom_site_label_1
_geom_bond_atom_site_label_2
_geom_bond_distance
_geom_bond_site_symmetry_2
_ccdc_geom_bond_type
P0 O11 1.490 . S
P0 C14 1.812 . S
P0 C20 1.803 . S
P0 C26 1.819 . S
H1 C15 0.941 . S
H2 C16 0.939 . S
H3 C18 0.940 . S
H4 C19 0.940 . S
H5 C21 0.939 . S
H6 C22 0.942 . S
H7 C24 0.940 . S
H8 C25 0.939 . S
H9 C27 0.941 . S
H10 C31 0.939 . S
O11 P0 1.490 . S
H12 C28 0.939 . S
H13 C30 0.940 . S
C14 P0 1.812 . S
C14 C15 1.389 . S
C14 C19 1.391 . S
C15 H1 0.941 . S
C15 C14 1.389 . S
C15 C16 1.397 . S
C16 H2 0.939 . S
C16 C15 1.397 . S
C16 C17 1.378 . S
C17 C16 1.378 . S
C17 C18 1.378 . S
C18 H3 0.940 . S
C18 C17 1.378 . S
C18 C19 1.396 . S
C19 H4 0.940 . S
C19 C14 1.391 . S
C19 C18 1.396 . S
C20 P0 1.803 . S
C20 C21 1.378 . S
C20 C25 1.400 . S
C21 H5 0.939 . S
C21 C20 1.378 . S
C21 C22 1.361 . S
C22 H6 0.942 . S
C22 C21 1.361 . S
C22 C23 1.369 . S
C23 C22 1.369 . S
C23 C24 1.404 . S
C24 H7 0.940 . S
C24 C23 1.404 . S
C24 C25 1.389 . S
C25 H8 0.939 . S
C25 C20 1.400 . S
C25 C24 1.389 . S
C26 P0 1.819 . S
C26 C27 1.391 . S
C26 C31 1.391 . S
C27 H9 0.941 . S
C27 C26 1.391 . S
C27 C28 1.396 . S
C28 H12 0.939 . S
C28 C27 1.396 . S
C28 C29 1.397 . S
C29 C28 1.397 . S
C29 C30 1.385 . S
C30 H13 0.940 . S
C30 C29 1.385 . S
C30 C31 1.388 . S
C31 H10 0.939 . S
C31 C26 1.391 . S
C31 C30 1.388 . S
P32 O43 1.490 1_655 S
P32 C46 1.812 . S
P32 C52 1.803 . S
P32 C58 1.819 . S
H33 C47 0.941 1_455 S
H34 C48 0.939 . S
H35 C50 0.940 . S
H36 C51 0.940 . S
H37 C53 0.939 1_455 S
H38 C54 0.924 1_455 S
H39 C56 0.940 . S
H40 C57 0.939 . S
H41 C59 0.941 1_455 S
H42 C63 0.939 . S
O43 P32 1.490 1_455 S
H44 C60 0.939 . S
H45 C62 0.940 . S
C46 P32 1.812 . S
C46 C47 1.389 . S
C46 C51 1.391 . S
C47 H33 0.941 1_655 S
C47 C46 1.389 . S
C47 C48 1.397 . S
C48 H34 0.939 . S
C48 C47 1.397 . S
C48 C49 1.378 . S
C49 C48 1.378 . S
C49 C50 1.378 . S
C50 H35 0.940 . S
C50 C49 1.378 . S
C50 C51 1.396 . S
C51 H36 0.940 . S
C51 C46 1.391 . S
C51 C50 1.396 . S
C52 P32 1.803 . S
C52 C53 1.378 . S
C52 C57 1.400 . S
C53 H37 0.939 1_655 S
C53 C52 1.378 . S
C53 C54 1.361 . S
C54 H38 0.924 1_655 S
C54 C53 1.361 . S
C54 C55 1.369 . S
C55 C54 1.369 . S
C55 C56 1.404 . S
C56 H39 0.940 . S
C56 C55 1.404 . S
C56 C57 1.389 . S
C57 H40 0.939 . S
C57 C52 1.400 . S
C57 C56 1.389 . S
C58 P32 1.819 . S
C58 C59 1.391 . S
C58 C63 1.391 . S
C59 H41 0.941 1_655 S
C59 C58 1.391 . S
C59 C60 1.396 . S
C60 H44 0.939 . S
C60 C59 1.396 . S
C60 C61 1.397 . S
C61 C60 1.397 . S
C61 C62 1.385 . S
C62 H45 0.940 . S
C62 C61 1.385 . S
C62 C63 1.388 . S
C63 H42 0.939 . S
C63 C58 1.391 . S
C63 C62 1.388 . S
P64 O75 1.490 1_565 S
P64 C78 1.812 . S
P64 C84 1.803 . S
P64 C90 1.819 . S
H65 C79 0.941 1_545 S
H66 C80 0.939 . S
H67 C82 0.940 . S
H68 C83 0.940 . S
H69 C85 0.939 1_545 S
H70 C86 0.942 . S
H71 C88 0.940 . S
H72 C89 0.939 . S
H73 C91 0.941 1_545 S
H74 C95 0.939 . S
O75 P64 1.490 1_545 S
H76 C92 0.939 . S
H77 C94 0.940 . S
C78 P64 1.812 . S
C78 C79 1.389 . S
C78 C83 1.391 . S
C79 H65 0.941 1_565 S
C79 C78 1.389 . S
C79 C80 1.397 . S
C80 H66 0.939 . S
C80 C79 1.397 . S
C80 C81 1.378 . S
C81 C80 1.378 . S
C81 C82 1.378 . S
C82 H67 0.940 . S
C82 C81 1.378 . S
C82 C83 1.396 . S
C83 H68 0.940 . S
C83 C78 1.391 . S
C83 C82 1.396 . S
C84 P64 1.803 . S
C84 C85 1.378 . S
C84 C89 1.400 . S
C85 H69 0.939 1_565 S
C85 C84 1.378 . S
C85 C86 1.361 . S
C86 H70 0.942 . S
C86 C85 1.361 . S
C86 C87 1.369 . S
C87 C86 1.369 . S
C87 C88 1.404 . S
C88 H71 0.940 . S
C88 C87 1.404 . S
C88 C89 1.389 . S
C89 H72 0.939 . S
C89 C84 1.400 . S
C89 C88 1.389 . S
C90 P64 1.819 . S
C90 C91 1.391 . S
C90 C95 1.391 . S
C91 H73 0.941 1_565 S
C91 C90 1.391 . S
C91 C92 1.396 . S
C92 H76 0.939 . S
C92 C91 1.396 . S
C92 C93 1.397 . S
C93 C92 1.397 . S
C93 C94 1.385 . S
C94 H77 0.940 . S
C94 C93 1.385 . S
C94 C95 1.388 . S
C95 H74 0.939 . S
C95 C90 1.391 . S
C95 C94 1.388 . S
P96 O107 1.490 . S
P96 C110 1.812 . S
P96 C116 1.803 . S
P96 C122 1.819 . S
H97 C111 0.941 . S
H98 C112 0.939 . S
H99 C114 0.940 . S
H100 C115 0.940 . S
H101 C117 0.939 . S
H102 C118 0.942 . S
H103 C120 0.940 . S
H104 C121 0.939 . S
H105 C123 0.941 . S
H106 C127 0.939 . S
O107 P96 1.490 . S
H108 C124 0.939 . S
H109 C126 0.940 . S
C110 P96 1.812 . S
C110 C111 1.389 . S
C110 C115 1.391 . S
C111 H97 0.941 . S
C111 C110 1.389 . S
C111 C112 1.397 . S
C112 H98 0.939 . S
C112 C111 1.397 . S
C112 C113 1.378 . S
C113 C112 1.378 . S
C113 C114 1.378 . S
C114 H99 0.940 . S
C114 C113 1.378 . S
C114 C115 1.396 . S
C115 H100 0.940 . S
C115 C110 1.391 . S
C115 C114 1.396 . S
C116 P96 1.803 . S
C116 C117 1.378 . S
C116 C121 1.400 . S
C117 H101 0.939 . S
C117 C116 1.378 . S
C117 C118 1.361 . S
C118 H102 0.942 . S
C118 C117 1.361 . S
C118 C119 1.369 . S
C119 C118 1.369 . S
C119 C120 1.404 . S
C120 H103 0.940 . S
C120 C119 1.404 . S
C120 C121 1.389 . S
C121 H104 0.939 . S
C121 C116 1.400 . S
C121 C120 1.389 . S
C122 P96 1.819 . S
C122 C123 1.391 . S
C122 C127 1.391 . S
C123 H105 0.941 . S
C123 C122 1.391 . S
C123 C124 1.396 . S
C124 H108 0.939 . S
C124 C123 1.396 . S
C124 C125 1.397 . S
C125 C124 1.397 . S
C125 C126 1.385 . S
C126 H109 0.940 . S
C126 C125 1.385 . S
C126 C127 1.388 . S
C127 H106 0.939 . S
C127 C122 1.391 . S
C127 C126 1.388 . S
P128 O139 1.490 . S
P128 C142 1.812 . S
P128 C148 1.803 . S
P128 C154 1.819 . S
H129 C143 0.941 . S
H130 C144 0.939 . S
H131 C146 0.940 . S
H132 C147 0.940 1_554 S
H133 C149 0.939 . S
H134 C150 0.942 . S
H135 C152 0.940 . S
H136 C153 0.939 . S
H137 C155 0.941 . S
H138 C159 0.939 . S
O139 P128 1.490 . S
H140 C156 0.939 . S
H141 C158 0.940 . S
C142 P128 1.812 . S
C142 C143 1.389 1_554 S
C142 C147 1.391 1_554 S
C143 H129 0.941 . S
C143 C142 1.389 1_556 S
C143 C144 1.397 . S
C144 H130 0.939 . S
C144 C143 1.397 . S
C144 C145 1.378 . S
C145 C144 1.378 . S
C145 C146 1.378 . S
C146 H131 0.940 . S
C146 C145 1.378 . S
C146 C147 1.396 . S
C147 H132 0.940 1_556 S
C147 C142 1.391 1_556 S
C147 C146 1.396 . S
C148 P128 1.803 . S
C148 C149 1.378 . S
C148 C153 1.400 . S
C149 H133 0.939 . S
C149 C148 1.378 . S
C149 C150 1.361 . S
C150 H134 0.942 . S
C150 C149 1.361 . S
C150 C151 1.369 . S
C151 C150 1.369 . S
C151 C152 1.404 . S
C152 H135 0.940 . S
C152 C151 1.404 . S
C152 C153 1.389 . S
C153 H136 0.939 . S
C153 C148 1.400 . S
C153 C152 1.389 . S
C154 P128 1.819 . S
C154 C155 1.391 . S
C154 C159 1.391 . S
C155 H137 0.941 . S
C155 C154 1.391 . S
C155 C156 1.396 . S
C156 H140 0.939 . S
C156 C155 1.396 . S
C156 C157 1.397 . S
C157 C156 1.397 . S
C157 C158 1.385 . S
C158 H141 0.940 . S
C158 C157 1.385 . S
C158 C159 1.388 . S
C159 H138 0.939 . S
C159 C154 1.391 . S
C159 C158 1.388 . S
P160 O171 1.490 . S
P160 C174 1.812 1_554 S
P160 C180 1.803 . S
P160 C186 1.819 . S
H161 C175 0.941 . S
H162 C176 0.939 . S
H163 C178 0.940 . S
H164 C179 0.940 . S
H165 C181 0.939 . S
H166 C182 0.942 . S
H167 C184 0.940 . S
H168 C185 0.939 . S
H169 C187 0.941 . S
H170 C191 0.939 . S
O171 P160 1.490 . S
H172 C188 0.939 . S
H173 C190 0.940 . S
C174 P160 1.812 1_556 S
C174 C175 1.389 . S
C174 C179 1.391 . S
C175 H161 0.941 . S
C175 C174 1.389 . S
C175 C176 1.397 . S
C176 H162 0.939 . S
C176 C175 1.397 . S
C176 C177 1.378 . S
C177 C176 1.378 . S
C177 C178 1.378 . S
C178 H163 0.940 . S
C178 C177 1.378 . S
C178 C179 1.396 . S
C179 H164 0.940 . S
C179 C174 1.391 . S
C179 C178 1.396 . S
C180 P160 1.803 . S
C180 C181 1.378 . S
C180 C185 1.400 . S
C181 H165 0.939 . S
C181 C180 1.378 . S
C181 C182 1.361 . S
C182 H166 0.942 . S
C182 C181 1.361 . S
C182 C183 1.369 . S
C183 C182 1.369 . S
C183 C184 1.404 . S
C184 H167 0.940 . S
C184 C183 1.404 . S
C184 C185 1.389 . S
C185 H168 0.939 . S
C185 C180 1.400 . S
C185 C184 1.389 . S
C186 P160 1.819 . S
C186 C187 1.391 . S
C186 C191 1.391 . S
C187 H169 0.941 . S
C187 C186 1.391 . S
C187 C188 1.396 . S
C188 H172 0.939 . S
C188 C187 1.396 . S
C188 C189 1.397 . S
C189 C188 1.397 . S
C189 C190 1.385 . S
C190 H173 0.940 . S
C190 C189 1.385 . S
C190 C191 1.388 . S
C191 H170 0.939 . S
C191 C186 1.391 . S
C191 C190 1.388 . S
P192 O203 1.490 . S
P192 C206 1.812 1_554 S
P192 C212 1.803 . S
P192 C218 1.819 . S
H193 C207 0.941 . S
H194 C208 0.939 . S
H195 C210 0.940 . S
H196 C211 0.940 . S
H197 C213 0.939 . S
H198 C214 0.942 . S
H199 C216 0.940 . S
H200 C217 0.939 1_556 S
H201 C219 0.941 . S
H202 C223 0.939 . S
O203 P192 1.490 . S
H204 C220 0.939 . S
H205 C222 0.940 . S
C206 P192 1.812 1_556 S
C206 C207 1.389 . S
C206 C211 1.391 . S
C207 H193 0.941 . S
C207 C206 1.389 . S
C207 C208 1.397 . S
C208 H194 0.939 . S
C208 C207 1.397 . S
C208 C209 1.378 . S
C209 C208 1.378 . S
C209 C210 1.378 . S
C210 H195 0.940 . S
C210 C209 1.378 . S
C210 C211 1.396 . S
C211 H196 0.940 . S
C211 C206 1.391 . S
C211 C210 1.396 . S
C212 P192 1.803 . S
C212 C213 1.378 . S
C212 C217 1.400 . S
C213 H197 0.939 . S
C213 C212 1.378 . S
C213 C214 1.361 . S
C214 H198 0.942 . S
C214 C213 1.361 . S
C214 C215 1.369 . S
C215 C214 1.369 . S
C215 C216 1.404 . S
C216 H199 0.940 . S
C216 C215 1.404 . S
C216 C217 1.389 . S
C217 H200 0.939 1_554 S
C217 C212 1.400 . S
C217 C216 1.389 . S
C218 P192 1.819 . S
C218 C219 1.391 . S
C218 C223 1.391 . S
C219 H201 0.941 . S
C219 C218 1.391 . S
C219 C220 1.396 . S
C220 H204 0.939 . S
C220 C219 1.396 . S
C220 C221 1.397 . S
C221 C220 1.397 . S
C221 C222 1.385 . S
C222 H205 0.940 . S
C222 C221 1.385 . S
C222 C223 1.388 . S
C223 H202 0.939 . S
C223 C218 1.391 . S
C223 C222 1.388 . S
P224 O235 1.490 . S
P224 C238 1.812 1_554 S
P224 C244 1.803 . S
P224 C250 1.819 . S
H225 C239 0.941 . S
H226 C240 0.939 . S
H227 C242 0.940 . S
H228 C243 0.940 1_554 S
H229 C245 0.939 . S
H230 C246 0.942 . S
H231 C248 0.940 . S
H232 C249 0.939 . S
H233 C251 0.941 . S
H234 C255 0.939 . S
O235 P224 1.490 . S
H236 C252 0.939 . S
H237 C254 0.940 . S
C238 P224 1.812 1_556 S
C238 C239 1.389 . S
C238 C243 1.391 . S
C239 H225 0.941 . S
C239 C238 1.389 . S
C239 C240 1.397 . S
C240 H226 0.939 . S
C240 C239 1.397 . S
C240 C241 1.378 . S
C241 C240 1.378 . S
C241 C242 1.378 . S
C242 H227 0.940 . S
C242 C241 1.378 . S
C242 C243 1.396 . S
C243 H228 0.940 1_556 S
C243 C238 1.391 . S
C243 C242 1.396 . S
C244 P224 1.803 . S
C244 C245 1.378 . S
C244 C249 1.400 . S
C245 H229 0.939 . S
C245 C244 1.378 . S
C245 C246 1.361 . S
C246 H230 0.942 . S
C246 C245 1.361 . S
C246 C247 1.369 . S
C247 C246 1.369 . S
C247 C248 1.404 . S
C248 H231 0.940 . S
C248 C247 1.404 . S
C248 C249 1.389 . S
C249 H232 0.939 . S
C249 C244 1.400 . S
C249 C248 1.389 . S
C250 P224 1.819 . S
C250 C251 1.391 . S
C250 C255 1.391 . S
C251 H233 0.941 . S
C251 C250 1.391 . S
C251 C252 1.396 . S
C252 H236 0.939 . S
C252 C251 1.396 . S
C252 C253 1.397 . S
C253 C252 1.397 . S
C253 C254 1.385 . S
C254 H237 0.940 . S
C254 C253 1.385 . S
C254 C255 1.388 . S
C255 H234 0.939 . S
C255 C250 1.391 . S
C255 C254 1.388 . S
Eu256 C265 2.828 . S
Eu256 O267 2.392 . S
Eu256 O269 2.418 1_545 S
Eu256 O274 2.373 1_655 S
Eu256 O277 2.488 . S
Eu256 O278 2.471 . S
Eu256 O279 2.349 1_655 S
Eu257 O266 2.373 1_455 S
Eu257 O270 2.488 . S
Eu257 O271 2.471 . S
Eu257 O272 2.349 . S
Eu257 O275 2.392 1_565 S
Eu257 O276 2.418 1_565 S
Eu257 C286 2.828 . S
C258 O276 1.244 . S
C258 O279 1.265 . S
C259 C260 1.379 1_655 S
C259 C263 1.373 . S
C259 C265 1.505 . S
C260 C259 1.379 1_455 S
C260 C262 1.369 . S
C260 H288 0.930 . S
C261 C263 1.383 . S
C261 C264 1.359 1_655 S
C261 H289 0.930 . S
C262 C260 1.369 . S
C262 C264 1.409 . S
C262 H290 0.930 . S
C263 C259 1.373 . S
C263 C261 1.383 . S
C263 H291 0.931 . S
C264 C261 1.359 1_455 S
C264 C262 1.409 . S
C265 Eu256 2.828 . S
C265 C259 1.505 . S
C265 O277 1.249 . S
C265 O278 1.244 . S
O266 Eu257 2.373 1_655 S
O266 C268 1.258 . S
O267 Eu256 2.392 . S
O267 C268 1.242 1_545 S
C268 O266 1.258 . S
C268 O267 1.242 1_565 S
O269 Eu256 2.418 1_565 S
O269 C273 1.244 . S
O270 Eu257 2.488 . S
O270 C286 1.249 . S
O271 Eu257 2.471 . S
O271 C286 1.244 . S
O272 Eu257 2.349 . S
O272 C273 1.265 1_455 S
C273 O269 1.244 . S
C273 O272 1.265 1_655 S
O274 Eu256 2.373 1_455 S
O274 C287 1.258 . S
O275 Eu257 2.392 1_545 S
O275 C287 1.242 . S
O276 Eu257 2.418 1_545 S
O276 C258 1.244 . S
O277 Eu256 2.488 . S
O277 C265 1.249 . S
O278 Eu256 2.471 . S
O278 C265 1.244 . S
O279 Eu256 2.349 1_455 S
O279 C258 1.265 . S
C280 C281 1.379 . S
C280 C284 1.373 . S
C280 C286 1.505 . S
C281 C280 1.379 . S
C281 C283 1.369 . S
C281 H292 0.930 1_455 S
C282 C284 1.383 . S
C282 C285 1.382 . S
C282 H293 0.930 1_556 S
C283 C281 1.369 . S
C283 C285 1.392 . S
C283 H294 0.930 1_455 S
C284 C280 1.373 . S
C284 C282 1.383 . S
C284 H295 0.931 . S
C285 C282 1.382 . S
C285 C283 1.392 . S
C286 Eu257 2.828 . S
C286 O270 1.249 . S
C286 O271 1.244 . S
C286 C280 1.505 . S
C287 O274 1.258 . S
C287 O275 1.242 . S
H288 C260 0.930 . S
H289 C261 0.930 . S
H290 C262 0.930 . S
H291 C263 0.931 . S
H292 C281 0.930 1_655 S
H293 C282 0.930 1_554 S
H294 C283 0.930 1_655 S
H295 C284 0.931 . S
Eu296 C305 2.828 . S
Eu296 O307 2.392 . S
Eu296 O309 2.418 . S
Eu296 O314 2.373 . S
Eu296 O317 2.488 . S
Eu296 O318 2.471 . S
Eu296 O319 2.349 1_545 S
Eu297 O306 2.373 1_565 S
Eu297 O310 2.488 . S
Eu297 O311 2.471 1_565 S
Eu297 O312 2.349 1_565 S
Eu297 O315 2.392 . S
Eu297 O316 2.418 . S
Eu297 C326 2.828 . S
C298 O316 1.244 . S
C298 O319 1.265 . S
C299 C300 1.379 1_545 S
C299 C303 1.373 . S
C299 C305 1.505 . S
C300 C299 1.379 1_565 S
C300 C302 1.369 . S
C300 H328 0.930 . S
C301 C303 1.383 . S
C301 C304 1.382 . S
C301 H329 0.930 . S
C302 C300 1.369 . S
C302 C304 1.392 1_565 S
C302 H330 0.930 . S
C303 C299 1.373 . S
C303 C301 1.383 . S
C303 H331 0.931 . S
C304 C301 1.382 . S
C304 C302 1.392 1_545 S
C305 Eu296 2.828 . S
C305 C299 1.505 . S
C305 O317 1.249 . S
C305 O318 1.244 . S
O306 Eu297 2.373 1_545 S
O306 C308 1.258 . S
O307 Eu296 2.392 . S
O307 C308 1.242 . S
C308 O306 1.258 . S
C308 O307 1.242 . S
O309 Eu296 2.418 . S
O309 C313 1.244 . S
O310 Eu297 2.488 . S
O310 C326 1.249 . S
O311 Eu297 2.471 1_545 S
O311 C326 1.244 1_545 S
O312 Eu297 2.349 1_545 S
O312 C313 1.265 . S
C313 O309 1.244 . S
C313 O312 1.265 . S
O314 Eu296 2.373 . S
O314 C327 1.258 1_545 S
O315 Eu297 2.392 . S
O315 C327 1.242 . S
O316 Eu297 2.418 . S
O316 C298 1.244 . S
O317 Eu296 2.488 . S
O317 C305 1.249 . S
O318 Eu296 2.471 . S
O318 C305 1.244 . S
O319 Eu296 2.349 1_565 S
O319 C298 1.265 . S
C320 C321 1.379 1_565 S
C320 C324 1.373 . S
C320 C326 1.505 . S
C321 C320 1.379 1_545 S
C321 C323 1.369 . S
C321 H332 0.930 . S
C322 C324 1.383 . S
C322 C325 1.382 . S
C322 H333 0.930 . S
C323 C321 1.369 . S
C323 C325 1.392 1_545 S
C323 H334 0.930 . S
C324 C320 1.373 . S
C324 C322 1.383 . S
C324 H335 0.931 . S
C325 C322 1.382 . S
C325 C323 1.392 1_565 S
C326 Eu297 2.828 . S
C326 O310 1.249 . S
C326 O311 1.244 1_565 S
C326 C320 1.505 . S
C327 O314 1.258 1_565 S
C327 O315 1.242 . S
H328 C300 0.930 . S
H329 C301 0.930 . S
H330 C302 0.930 . S
H331 C303 0.931 . S
H332 C321 0.930 . S
H333 C322 0.930 . S
H334 C323 0.930 . S
H335 C324 0.931 . S
Eu336 C345 2.828 . S
Eu336 O347 2.392 . S
Eu336 O349 2.418 . S
Eu336 O354 2.373 . S
Eu336 O357 2.488 . S
Eu336 O358 2.471 . S
Eu336 O359 2.349 . S
Eu337 O346 2.373 . S
Eu337 O350 2.488 . S
Eu337 O351 2.471 . S
Eu337 O352 2.349 . S
Eu337 O355 2.392 . S
Eu337 O356 2.418 . S
Eu337 C366 2.828 . S
C338 O356 1.244 . S
C338 O359 1.265 . S
C339 C340 1.379 . S
C339 C343 1.373 . S
C339 C345 1.505 . S
C340 C339 1.379 . S
C340 C342 1.369 . S
C340 H368 0.930 . S
C341 C343 1.383 . S
C341 C344 1.382 . S
C341 H369 0.930 . S
C342 C340 1.369 . S
C342 C344 1.392 . S
C342 H370 0.930 . S
C343 C339 1.373 . S
C343 C341 1.383 . S
C343 H371 0.931 . S
C344 C341 1.382 . S
C344 C342 1.392 . S
C345 Eu336 2.828 . S
C345 C339 1.505 . S
C345 O357 1.249 . S
C345 O358 1.244 . S
O346 Eu337 2.373 . S
O346 C348 1.258 . S
O347 Eu336 2.392 . S
O347 C348 1.242 . S
C348 O346 1.258 . S
C348 O347 1.242 . S
O349 Eu336 2.418 . S
O349 C353 1.244 . S
O350 Eu337 2.488 . S
O350 C366 1.249 . S
O351 Eu337 2.471 . S
O351 C366 1.244 . S
O352 Eu337 2.349 . S
O352 C353 1.265 . S
C353 O349 1.244 . S
C353 O352 1.265 . S
O354 Eu336 2.373 . S
O354 C367 1.258 . S
O355 Eu337 2.392 . S
O355 C367 1.242 . S
O356 Eu337 2.418 . S
O356 C338 1.244 . S
O357 Eu336 2.488 . S
O357 C345 1.249 . S
O358 Eu336 2.471 . S
O358 C345 1.244 . S
O359 Eu336 2.349 . S
O359 C338 1.265 . S
C360 C361 1.379 . S
C360 C364 1.373 . S
C360 C366 1.505 . S
C361 C360 1.379 . S
C361 C363 1.369 . S
C361 H372 0.930 . S
C362 C364 1.383 . S
C362 C365 1.382 . S
C362 H373 0.930 . S
C363 C361 1.369 . S
C363 C365 1.392 . S
C363 H374 0.930 . S
C364 C360 1.373 . S
C364 C362 1.383 . S
C364 H375 0.931 . S
C365 C362 1.382 . S
C365 C363 1.392 . S
C366 Eu337 2.828 . S
C366 O350 1.249 . S
C366 O351 1.244 . S
C366 C360 1.505 . S
C367 O354 1.258 . S
C367 O355 1.242 . S
H368 C340 0.930 . S
H369 C341 0.930 . S
H370 C342 0.930 . S
H371 C343 0.931 . S
H372 C361 0.930 . S
H373 C362 0.930 . S
H374 C363 0.930 . S
H375 C364 0.931 . S
Eu376 C385 2.828 . S
Eu376 O387 2.392 . S
Eu376 O389 2.418 1_455 S
Eu376 O394 2.373 . S
Eu376 O397 2.488 . S
Eu376 O398 2.471 . S
Eu376 O399 2.349 . S
Eu377 O386 2.373 . S
Eu377 O390 2.488 . S
Eu377 O391 2.471 . S
Eu377 O392 2.349 . S
Eu377 O395 2.392 1_655 S
Eu377 O396 2.418 1_655 S
Eu377 C406 2.828 . S
C378 O396 1.244 . S
C378 O399 1.265 . S
C379 C380 1.379 . S
C379 C383 1.373 . S
C379 C385 1.505 . S
C380 C379 1.379 . S
C380 C382 1.369 . S
C380 H408 0.930 . S
C381 C383 1.383 . S
C381 C384 1.382 . S
C381 H409 0.930 . S
C382 C380 1.369 . S
C382 C384 1.392 . S
C382 H410 0.930 . S
C383 C379 1.373 . S
C383 C381 1.383 . S
C383 H411 0.931 . S
C384 C381 1.382 . S
C384 C382 1.392 . S
C385 Eu376 2.828 . S
C385 C379 1.505 . S
C385 O397 1.249 . S
C385 O398 1.244 . S
O386 Eu377 2.373 . S
O386 C388 1.250 1_655 S
O387 Eu376 2.392 . S
O387 C388 1.258 . S
C388 O386 1.250 1_455 S
C388 O387 1.258 . S
O389 Eu376 2.418 1_655 S
O389 C393 1.244 . S
O390 Eu377 2.488 . S
O390 C406 1.249 . S
O391 Eu377 2.471 . S
O391 C406 1.244 . S
O392 Eu377 2.349 . S
O392 C393 1.265 . S
C393 O389 1.244 . S
C393 O392 1.265 . S
O394 Eu376 2.373 . S
O394 C407 1.258 . S
O395 Eu377 2.392 1_455 S
O395 C407 1.242 . S
O396 Eu377 2.418 1_455 S
O396 C378 1.244 . S
O397 Eu376 2.488 . S
O397 C385 1.249 . S
O398 Eu376 2.471 . S
O398 C385 1.244 . S
O399 Eu376 2.349 . S
O399 C378 1.265 . S
C400 C401 1.379 . S
C400 C404 1.373 . S
C400 C406 1.505 . S
C401 C400 1.379 . S
C401 C403 1.369 . S
C401 H412 0.930 . S
C402 C404 1.383 . S
C402 C405 1.382 . S
C402 H413 0.930 1_556 S
C403 C401 1.369 . S
C403 C405 1.392 . S
C403 H414 0.930 . S
C404 C400 1.373 . S
C404 C402 1.383 . S
C404 H415 0.931 . S
C405 C402 1.382 . S
C405 C403 1.392 . S
C406 Eu377 2.828 . S
C406 O390 1.249 . S
C406 O391 1.244 . S
C406 C400 1.505 . S
C407 O394 1.258 . S
C407 O395 1.242 . S
H408 C380 0.930 . S
H409 C381 0.930 . S
H410 C382 0.930 . S
H411 C383 0.931 . S
H412 C401 0.930 . S
H413 C402 0.930 1_554 S
H414 C403 0.930 . S
H415 C404 0.931 . S
C416 C417 1.391 . S
C416 C418 1.394 . S
C416 H432 0.931 . S
C417 C416 1.391 . S
C417 C421 1.376 . S
C418 C416 1.394 . S
C418 C419 1.369 . S
C418 C422 1.531 . S
C419 C418 1.369 . S
C419 C420 1.410 . S
C419 C427 1.503 . S
C420 C419 1.410 . S
C420 C421 1.392 . S
C420 C423 1.511 . S
C421 C417 1.376 . S
C421 C420 1.392 . S
C421 H433 0.929 . S
C422 C418 1.531 . S
C422 H434 0.960 . S
C422 H435 0.962 . S
C422 H436 0.960 . S
C423 C420 1.511 . S
C423 H437 0.961 . S
C423 H438 0.961 . S
C423 H439 0.961 . S
C424 C425 1.370 . S
C424 C426 1.363 . S
C424 H440 0.931 1_545 S
C425 C424 1.370 . S
C425 C429 1.408 . S
C426 C424 1.363 . S
C426 C427 1.370 . S
C426 C430 1.524 1_545 S
C427 C419 1.503 . S
C427 C426 1.370 . S
C427 C428 1.403 . S
C428 C427 1.403 . S
C428 C429 1.404 . S
C428 C431 1.539 . S
C429 C425 1.408 . S
C429 C428 1.404 . S
C429 H441 0.930 . S
C430 C426 1.524 1_565 S
C430 H442 0.956 1_565 S
C430 H443 0.961 . S
C430 H444 0.961 . S
C431 C428 1.539 . S
C431 H445 0.958 . S
C431 H446 0.961 . S
C431 H447 0.960 . S
H432 C416 0.931 . S
H433 C421 0.929 . S
H434 C422 0.960 . S
H435 C422 0.962 . S
H436 C422 0.960 . S
H437 C423 0.961 . S
H438 C423 0.961 . S
H439 C423 0.961 . S
H440 C424 0.931 1_565 S
H441 C429 0.930 . S
H442 C430 0.956 1_545 S
H443 C430 0.961 . S
H444 C430 0.961 . S
H445 C431 0.958 . S
H446 C431 0.961 . S
H447 C431 0.960 . S
C448 C449 1.391 . S
C448 C450 1.394 . S
C448 H464 0.931 . S
C449 C448 1.391 . S
C449 C453 1.376 . S
C450 C448 1.394 . S
C450 C451 1.369 . S
C450 C454 1.531 . S
C451 C450 1.369 . S
C451 C452 1.410 . S
C451 C459 1.503 . S
C452 C451 1.410 . S
C452 C453 1.392 . S
C452 C455 1.511 . S
C453 C449 1.376 . S
C453 C452 1.392 . S
C453 H465 0.929 . S
C454 C450 1.531 . S
C454 H466 0.960 . S
C454 H467 0.962 . S
C454 H468 0.960 . S
C455 C452 1.511 . S
C455 H469 0.961 . S
C455 H470 0.961 . S
C455 H471 0.961 . S
C456 C457 1.370 . S
C456 C458 1.363 . S
C456 H472 0.931 . S
C457 C456 1.370 . S
C457 C461 1.408 . S
C458 C456 1.363 . S
C458 C459 1.370 . S
C458 C462 1.524 . S
C459 C451 1.503 . S
C459 C458 1.370 . S
C459 C460 1.403 . S
C460 C459 1.403 . S
C460 C461 1.404 . S
C460 C463 1.539 . S
C461 C457 1.408 . S
C461 C460 1.404 . S
C461 H473 0.930 . S
C462 C458 1.524 . S
C462 H474 0.956 . S
C462 H475 0.961 . S
C462 H476 0.961 . S
C463 C460 1.539 . S
C463 H477 0.958 . S
C463 H478 0.961 . S
C463 H479 0.960 . S
H464 C448 0.931 . S
H465 C453 0.929 . S
H466 C454 0.960 . S
H467 C454 0.962 . S
H468 C454 0.960 . S
H469 C455 0.961 . S
H470 C455 0.961 . S
H471 C455 0.961 . S
H472 C456 0.931 . S
H473 C461 0.930 . S
H474 C462 0.956 . S
H475 C462 0.961 . S
H476 C462 0.961 . S
H477 C463 0.958 . S
H478 C463 0.961 . S
H479 C463 0.960 . S
C480 C481 1.391 . S
C480 C482 1.394 . S
C480 H496 0.931 . S
C481 C480 1.391 . S
C481 C485 1.376 . S
C482 C480 1.394 . S
C482 C483 1.369 . S
C482 C486 1.531 . S
C483 C482 1.369 . S
C483 C484 1.410 . S
C483 C491 1.503 . S
C484 C483 1.410 . S
C484 C485 1.392 . S
C484 C487 1.511 . S
C485 C481 1.376 . S
C485 C484 1.392 . S
C485 H497 0.929 . S
C486 C482 1.531 . S
C486 H498 0.960 . S
C486 H499 0.962 . S
C486 H500 0.960 . S
C487 C484 1.511 . S
C487 H501 0.961 . S
C487 H502 0.961 . S
C487 H503 0.961 . S
C488 C489 1.370 . S
C488 C490 1.363 . S
C488 H504 0.931 . S
C489 C488 1.370 . S
C489 C493 1.408 . S
C490 C488 1.363 . S
C490 C491 1.370 . S
C490 C494 1.524 . S
C491 C483 1.503 . S
C491 C490 1.370 . S
C491 C492 1.403 . S
C492 C491 1.403 . S
C492 C493 1.404 . S
C492 C495 1.539 . S
C493 C489 1.408 . S
C493 C492 1.404 . S
C493 H505 0.930 . S
C494 C490 1.524 . S
C494 H506 0.956 . S
C494 H507 0.961 . S
C494 H508 0.961 . S
C495 C492 1.539 . S
C495 H509 0.958 . S
C495 H510 0.961 . S
C495 H511 0.960 . S
H496 C480 0.931 . S
H497 C485 0.929 . S
H498 C486 0.960 . S
H499 C486 0.962 . S
H500 C486 0.960 . S
H501 C487 0.961 . S
H502 C487 0.961 . S
H503 C487 0.961 . S
H504 C488 0.931 . S
H505 C493 0.930 . S
H506 C494 0.956 . S
H507 C494 0.961 . S
H508 C494 0.961 . S
H509 C495 0.958 . S
H510 C495 0.961 . S
H511 C495 0.960 . S
C512 C513 1.391 . S
C512 C514 1.394 . S
C512 H528 0.931 . S
C513 C512 1.391 . S
C513 C517 1.376 . S
C514 C512 1.394 . S
C514 C515 1.369 . S
C514 C518 1.531 1_455 S
C515 C514 1.369 . S
C515 C516 1.410 . S
C515 C523 1.503 . S
C516 C515 1.410 . S
C516 C517 1.392 . S
C516 C519 1.511 . S
C517 C513 1.376 . S
C517 C516 1.392 . S
C517 H529 0.929 . S
C518 C514 1.531 1_655 S
C518 H530 0.960 . S
C518 H531 0.962 . S
C518 H532 0.960 . S
C519 C516 1.511 . S
C519 H533 0.961 . S
C519 H534 0.961 . S
C519 H535 0.961 . S
C520 C521 1.370 . S
C520 C522 1.363 . S
C520 H536 0.931 . S
C521 C520 1.370 . S
C521 C525 1.408 . S
C522 C520 1.363 . S
C522 C523 1.370 . S
C522 C526 1.524 . S
C523 C515 1.503 . S
C523 C522 1.370 . S
C523 C524 1.403 . S
C524 C523 1.403 . S
C524 C525 1.404 . S
C524 C527 1.539 . S
C525 C521 1.408 . S
C525 C524 1.404 . S
C525 H537 0.930 . S
C526 C522 1.524 . S
C526 H538 0.956 . S
C526 H539 0.961 . S
C526 H540 0.961 . S
C527 C524 1.539 . S
C527 H541 0.958 . S
C527 H542 0.961 . S
C527 H543 0.960 . S
H528 C512 0.931 . S
H529 C517 0.929 . S
H530 C518 0.960 . S
H531 C518 0.962 . S
H532 C518 0.960 . S
H533 C519 0.961 . S
H534 C519 0.961 . S
H535 C519 0.961 . S
H536 C520 0.931 . S
H537 C525 0.930 . S
H538 C526 0.956 . S
H539 C526 0.961 . S
H540 C526 0.961 . S
H541 C527 0.958 . S
H542 C527 0.961 . S
H543 C527 0.960 . S
C544 C545 1.391 . S
C544 C546 1.394 . S
C544 H560 0.931 . S
C545 C544 1.391 . S
C545 C549 1.376 . S
C546 C544 1.394 . S
C546 C547 1.369 . S
C546 C550 1.531 . S
C547 C546 1.369 . S
C547 C548 1.410 . S
C547 C555 1.503 1_554 S
C548 C547 1.410 . S
C548 C549 1.392 . S
C548 C551 1.511 1_554 S
C549 C545 1.376 . S
C549 C548 1.392 . S
C549 H561 0.929 . S
C550 C546 1.531 . S
C550 H562 0.960 . S
C550 H563 0.962 . S
C550 H564 0.960 . S
C551 C548 1.511 1_556 S
C551 H565 0.961 1_566 S
C551 H566 0.961 1_565 S
C551 H567 0.961 . S
C552 C553 1.368 1_545 S
C552 C554 1.362 1_545 S
C552 H568 0.935 . S
C553 C552 1.368 1_565 S
C553 C557 1.408 . S
C554 C552 1.362 1_565 S
C554 C555 1.370 . S
C554 C558 1.524 1_566 S
C555 C547 1.503 1_556 S
C555 C554 1.370 . S
C555 C556 1.403 . S
C556 C555 1.403 . S
C556 C557 1.404 . S
C556 C559 1.539 . S
C557 C553 1.408 . S
C557 C556 1.404 . S
C557 H569 0.930 . S
C558 C554 1.524 1_544 S
C558 H570 0.959 . S
C558 H571 0.961 . S
C558 H572 0.961 . S
C559 C556 1.539 . S
C559 H573 0.958 . S
C559 H574 0.961 . S
C559 H575 0.960 . S
H560 C544 0.931 . S
H561 C549 0.929 . S
H562 C550 0.960 . S
H563 C550 0.962 . S
H564 C550 0.960 . S
H565 C551 0.961 1_544 S
H566 C551 0.961 1_545 S
H567 C551 0.961 . S
H568 C552 0.935 . S
H569 C557 0.930 . S
H570 C558 0.959 . S
H571 C558 0.961 . S
H572 C558 0.961 . S
H573 C559 0.958 . S
H574 C559 0.961 . S
H575 C559 0.960 . S
C576 C577 1.391 . S
C576 C578 1.394 . S
C576 H592 0.931 . S
C577 C576 1.391 . S
C577 C581 1.376 . S
C578 C576 1.394 . S
C578 C579 1.369 1_554 S
C578 C582 1.531 1_554 S
C579 C578 1.369 1_556 S
C579 C580 1.410 1_556 S
C579 C587 1.503 . S
C580 C579 1.410 1_554 S
C580 C581 1.392 . S
C580 C583 1.511 1_554 S
C581 C577 1.376 . S
C581 C580 1.392 . S
C581 H593 0.929 . S
C582 C578 1.531 1_556 S
C582 H594 0.960 . S
C582 H595 0.962 . S
C582 H596 0.960 . S
C583 C580 1.511 1_556 S
C583 H597 0.961 1_556 S
C583 H598 0.961 . S
C583 H599 0.961 . S
C584 C585 1.370 . S
C584 C586 1.363 . S
C584 H600 0.931 . S
C585 C584 1.370 . S
C585 C589 1.408 . S
C586 C584 1.363 . S
C586 C587 1.370 . S
C586 C590 1.524 . S
C587 C579 1.503 . S
C587 C586 1.370 . S
C587 C588 1.403 . S
C588 C587 1.403 . S
C588 C589 1.404 . S
C588 C591 1.539 . S
C589 C585 1.408 . S
C589 C588 1.404 . S
C589 H601 0.930 . S
C590 C586 1.524 . S
C590 H602 0.954 1_556 S
C590 H603 0.961 1_556 S
C590 H604 0.961 . S
C591 C588 1.539 . S
C591 H605 0.958 . S
C591 H606 0.961 . S
C591 H607 0.960 . S
H592 C576 0.931 . S
H593 C581 0.929 . S
H594 C582 0.960 . S
H595 C582 0.962 . S
H596 C582 0.960 . S
H597 C583 0.961 1_554 S
H598 C583 0.961 . S
H599 C583 0.961 . S
H600 C584 0.931 . S
H601 C589 0.930 . S
H602 C590 0.954 1_554 S
H603 C590 0.961 1_554 S
H604 C590 0.961 . S
H605 C591 0.958 . S
H606 C591 0.961 . S
H607 C591 0.960 . S
C608 C609 1.391 . S
C608 C610 1.394 . S
C608 H624 0.931 . S
C609 C608 1.391 . S
C609 C613 1.376 . S
C610 C608 1.394 . S
C610 C611 1.369 1_554 S
C610 C614 1.531 1_554 S
C611 C610 1.369 1_556 S
C611 C612 1.410 1_556 S
C611 C619 1.503 . S
C612 C611 1.410 1_554 S
C612 C613 1.392 . S
C612 C615 1.511 1_554 S
C613 C609 1.376 . S
C613 C612 1.392 . S
C613 H625 0.929 . S
C614 C610 1.531 1_556 S
C614 H626 0.960 . S
C614 H627 0.962 . S
C614 H628 0.960 . S
C615 C612 1.511 1_556 S
C615 H629 0.961 1_556 S
C615 H630 0.961 . S
C615 H631 0.961 . S
C616 C617 1.370 . S
C616 C618 1.363 . S
C616 H632 0.931 . S
C617 C616 1.370 . S
C617 C621 1.408 . S
C618 C616 1.363 . S
C618 C619 1.370 . S
C618 C622 1.524 . S
C619 C611 1.503 . S
C619 C618 1.370 . S
C619 C620 1.403 . S
C620 C619 1.403 . S
C620 C621 1.404 . S
C620 C623 1.539 . S
C621 C617 1.408 . S
C621 C620 1.404 . S
C621 H633 0.930 . S
C622 C618 1.524 . S
C622 H634 0.956 1_556 S
C622 H635 0.961 1_556 S
C622 H636 0.961 . S
C623 C620 1.539 . S
C623 H637 0.958 . S
C623 H638 0.961 . S
C623 H639 0.960 . S
H624 C608 0.931 . S
H625 C613 0.929 . S
H626 C614 0.960 . S
H627 C614 0.962 . S
H628 C614 0.960 . S
H629 C615 0.961 1_554 S
H630 C615 0.961 . S
H631 C615 0.961 . S
H632 C616 0.931 . S
H633 C621 0.930 . S
H634 C622 0.956 1_554 S
H635 C622 0.961 1_554 S
H636 C622 0.961 . S
H637 C623 0.958 . S
H638 C623 0.961 . S
H639 C623 0.960 . S
C640 C641 1.391 . S
C640 C642 1.394 . S
C640 H656 0.931 . S
C641 C640 1.391 . S
C641 C645 1.376 . S
C642 C640 1.394 . S
C642 C643 1.369 . S
C642 C646 1.531 1_554 S
C643 C642 1.369 . S
C643 C644 1.410 . S
C643 C651 1.503 1_554 S
C644 C643 1.410 . S
C644 C645 1.392 . S
C644 C647 1.511 1_655 S
C645 C641 1.376 . S
C645 C644 1.392 . S
C645 H657 0.929 1_655 S
C646 C642 1.531 1_556 S
C646 H658 0.960 . S
C646 H659 0.962 . S
C646 H660 0.960 . S
C647 C644 1.511 1_455 S
C647 H661 0.961 . S
C647 H662 0.961 . S
C647 H663 0.961 . S
C648 C649 1.370 . S
C648 C650 1.363 . S
C648 H664 0.931 . S
C649 C648 1.370 . S
C649 C653 1.408 . S
C650 C648 1.363 . S
C650 C651 1.370 . S
C650 C654 1.524 1_556 S
C651 C643 1.503 1_556 S
C651 C650 1.370 . S
C651 C652 1.403 . S
C652 C651 1.403 . S
C652 C653 1.404 . S
C652 C655 1.539 . S
C653 C649 1.408 . S
C653 C652 1.404 . S
C653 H665 0.930 . S
C654 C650 1.524 1_554 S
C654 H666 0.956 . S
C654 H667 0.961 . S
C654 H668 0.961 . S
C655 C652 1.539 . S
C655 H669 0.958 . S
C655 H670 0.941 1_655 S
C655 H671 0.960 . S
H656 C640 0.931 . S
H657 C645 0.929 1_455 S
H658 C646 0.960 . S
H659 C646 0.962 . S
H660 C646 0.960 . S
H661 C647 0.961 . S
H662 C647 0.961 . S
H663 C647 0.961 . S
H664 C648 0.931 . S
H665 C653 0.930 . S
H666 C654 0.956 . S
H667 C654 0.961 . S
H668 C654 0.961 . S
H669 C655 0.958 . S
H670 C655 0.941 1_455 S
H671 C655 0.960 . S
C672 C673 1.391 . S
C672 C674 1.394 . S
C672 H688 0.931 . S
C673 C672 1.391 . S
C673 C677 1.376 . S
C674 C672 1.394 . S
C674 C675 1.369 . S
C674 C678 1.531 . S
C675 C674 1.369 . S
C675 C676 1.410 . S
C675 C683 1.503 . S
C676 C675 1.410 . S
C676 C677 1.392 . S
C676 C679 1.511 . S
C677 C673 1.376 . S
C677 C676 1.392 . S
C677 H689 0.929 . S
C678 C674 1.531 . S
C678 H690 0.960 . S
C678 H691 0.962 . S
C678 H692 0.960 . S
C679 C676 1.511 . S
C679 H693 0.961 . S
C679 H694 0.973 . S
C679 H695 0.961 . S
C680 C681 1.374 . S
C680 C682 1.363 1_655 S
C680 H696 0.931 . S
C681 C680 1.374 . S
C681 C685 1.397 1_655 S
C682 C680 1.363 1_455 S
C682 C683 1.370 . S
C682 C686 1.524 1_455 S
C683 C675 1.503 . S
C683 C682 1.370 . S
C683 C684 1.403 . S
C684 C683 1.403 . S
C684 C685 1.404 . S
C684 C687 1.539 . S
C685 C681 1.397 1_455 S
C685 C684 1.404 . S
C685 H697 0.930 . S
C686 C682 1.524 1_655 S
C686 H698 0.956 1_655 S
C686 H699 0.961 . S
C686 H700 0.961 . S
C687 C684 1.539 . S
C687 H701 0.958 . S
C687 H702 0.961 . S
C687 H703 0.960 . S
H688 C672 0.931 . S
H689 C677 0.929 . S
H690 C678 0.960 . S
H691 C678 0.962 . S
H692 C678 0.960 . S
H693 C679 0.961 . S
H694 C679 0.973 . S
H695 C679 0.961 . S
H696 C680 0.931 . S
H697 C685 0.930 . S
H698 C686 0.956 1_455 S
H699 C686 0.961 . S
H700 C686 0.961 . S
H701 C687 0.958 . S
H702 C687 0.961 . S
H703 C687 0.960 . S
C704 C705 1.391 . S
C704 C706 1.394 . S
C704 H720 0.931 . S
C705 C704 1.391 . S
C705 C709 1.376 . S
C706 C704 1.394 . S
C706 C707 1.369 . S
C706 C710 1.531 1_545 S
C707 C706 1.369 . S
C707 C708 1.410 . S
C707 C715 1.503 . S
C708 C707 1.410 . S
C708 C709 1.392 . S
C708 C711 1.511 . S
C709 C705 1.376 . S
C709 C708 1.392 . S
C709 H721 0.929 . S
C710 C706 1.531 1_565 S
C710 H722 0.960 . S
C710 H723 0.962 . S
C710 H724 0.960 . S
C711 C708 1.511 . S
C711 H725 0.961 . S
C711 H726 0.961 . S
C711 H727 0.961 . S
C712 C713 1.370 1_545 S
C712 C714 1.363 . S
C712 H728 0.931 . S
C713 C712 1.370 1_565 S
C713 C717 1.408 . S
C714 C712 1.363 . S
C714 C715 1.370 . S
C714 C718 1.524 . S
C715 C707 1.503 . S
C715 C714 1.370 . S
C715 C716 1.403 . S
C716 C715 1.403 . S
C716 C717 1.404 1_545 S
C716 C719 1.539 . S
C717 C713 1.408 . S
C717 C716 1.404 1_565 S
C717 H729 0.930 . S
C718 C714 1.524 . S
C718 H730 0.956 . S
C718 H731 0.961 . S
C718 H732 0.961 . S
C719 C716 1.539 . S
C719 H733 0.958 1_545 S
C719 H734 0.961 . S
C719 H735 0.960 . S
H720 C704 0.931 . S
H721 C709 0.929 . S
H722 C710 0.960 . S
H723 C710 0.962 . S
H724 C710 0.960 . S
H725 C711 0.961 . S
H726 C711 0.961 . S
H727 C711 0.961 . S
H728 C712 0.931 . S
H729 C717 0.930 . S
H730 C718 0.956 . S
H731 C718 0.961 . S
H732 C718 0.961 . S
H733 C719 0.958 1_565 S
H734 C719 0.961 . S
H735 C719 0.960 . S
C736 C737 1.391 . S
C736 C738 1.394 . S
C736 H752 0.931 . S
C737 C736 1.391 . S
C737 C741 1.376 . S
C738 C736 1.394 . S
C738 C739 1.369 . S
C738 C742 1.531 . S
C739 C738 1.369 . S
C739 C740 1.410 . S
C739 C747 1.503 . S
C740 C739 1.410 . S
C740 C741 1.392 . S
C740 C743 1.511 . S
C741 C737 1.376 . S
C741 C740 1.392 . S
C741 H753 0.929 . S
C742 C738 1.531 . S
C742 H754 0.960 . S
C742 H755 0.962 . S
C742 H756 0.960 . S
C743 C740 1.511 . S
C743 H757 0.961 . S
C743 H758 0.961 . S
C743 H759 0.961 . S
C744 C745 1.370 . S
C744 C746 1.363 . S
C744 H760 0.931 . S
C745 C744 1.370 . S
C745 C749 1.408 . S
C746 C744 1.363 . S
C746 C747 1.370 . S
C746 C750 1.524 . S
C747 C739 1.503 . S
C747 C746 1.370 . S
C747 C748 1.403 . S
C748 C747 1.403 . S
C748 C749 1.404 . S
C748 C751 1.539 . S
C749 C745 1.408 . S
C749 C748 1.404 . S
C749 H761 0.930 . S
C750 C746 1.524 . S
C750 H762 0.956 . S
C750 H763 0.961 . S
C750 H764 0.961 . S
C751 C748 1.539 . S
C751 H765 0.958 . S
C751 H766 0.961 . S
C751 H767 0.960 . S
H752 C736 0.931 . S
H753 C741 0.929 . S
H754 C742 0.960 . S
H755 C742 0.962 . S
H756 C742 0.960 . S
H757 C743 0.961 . S
H758 C743 0.961 . S
H759 C743 0.961 . S
H760 C744 0.931 . S
H761 C749 0.930 . S
H762 C750 0.956 . S
H763 C750 0.961 . S
H764 C750 0.961 . S
H765 C751 0.958 . S
H766 C751 0.961 . S
H767 C751 0.960 . S
C768 C769 1.391 . S
C768 C770 1.394 . S
C768 H784 0.931 . S
C769 C768 1.391 . S
C769 C773 1.376 . S
C770 C768 1.394 . S
C770 C771 1.369 . S
C770 C774 1.531 . S
C771 C770 1.369 . S
C771 C772 1.410 . S
C771 C779 1.503 . S
C772 C771 1.410 . S
C772 C773 1.392 . S
C772 C775 1.511 . S
C773 C769 1.376 . S
C773 C772 1.392 . S
C773 H785 0.929 . S
C774 C770 1.531 . S
C774 H786 0.960 . S
C774 H787 0.962 . S
C774 H788 0.960 . S
C775 C772 1.511 . S
C775 H789 0.961 . S
C775 H790 0.961 . S
C775 H791 0.961 . S
C776 C777 1.370 . S
C776 C778 1.363 . S
C776 H792 0.931 . S
C777 C776 1.370 . S
C777 C781 1.408 . S
C778 C776 1.363 . S
C778 C779 1.370 . S
C778 C782 1.524 . S
C779 C771 1.503 . S
C779 C778 1.370 . S
C779 C780 1.403 . S
C780 C779 1.403 . S
C780 C781 1.404 . S
C780 C783 1.539 . S
C781 C777 1.408 . S
C781 C780 1.404 . S
C781 H793 0.930 . S
C782 C778 1.524 . S
C782 H794 0.956 . S
C782 H795 0.961 . S
C782 H796 0.961 . S
C783 C780 1.539 . S
C783 H797 0.958 . S
C783 H798 0.961 . S
C783 H799 0.960 . S
H784 C768 0.931 . S
H785 C773 0.929 . S
H786 C774 0.960 . S
H787 C774 0.962 . S
H788 C774 0.960 . S
H789 C775 0.961 . S
H790 C775 0.961 . S
H791 C775 0.961 . S
H792 C776 0.931 . S
H793 C781 0.930 . S
H794 C782 0.956 . S
H795 C782 0.961 . S
H796 C782 0.961 . S
H797 C783 0.958 . S
H798 C783 0.961 . S
H799 C783 0.960 . S
C800 C801 1.391 . S
C800 C802 1.394 . S
C800 H816 0.931 . S
C801 C800 1.391 . S
C801 C805 1.376 . S
C802 C800 1.394 . S
C802 C803 1.369 . S
C802 C806 1.531 1_655 S
C803 C802 1.369 . S
C803 C804 1.410 . S
C803 C811 1.503 . S
C804 C803 1.410 . S
C804 C805 1.392 . S
C804 C807 1.511 . S
C805 C801 1.376 . S
C805 C804 1.392 . S
C805 H817 0.929 . S
C806 C802 1.531 1_455 S
C806 H818 0.960 1_554 S
C806 H819 0.962 . S
C806 H820 0.954 1_554 S
C807 C804 1.511 . S
C807 H821 0.961 . S
C807 H822 0.961 . S
C807 H823 0.961 . S
C808 C809 1.370 1_554 S
C808 C810 1.363 . S
C808 H824 0.931 . S
C809 C808 1.370 1_556 S
C809 C813 1.408 . S
C810 C808 1.363 . S
C810 C811 1.370 1_455 S
C810 C814 1.524 . S
C811 C803 1.503 . S
C811 C810 1.370 1_655 S
C811 C812 1.403 1_554 S
C812 C811 1.403 1_556 S
C812 C813 1.404 1_655 S
C812 C815 1.539 . S
C813 C809 1.408 . S
C813 C812 1.404 1_455 S
C813 H825 0.930 1_455 S
C814 C810 1.524 . S
C814 H826 0.956 . S
C814 H827 0.961 1_455 S
C814 H828 0.961 . S
C815 C812 1.539 . S
C815 H829 0.958 . S
C815 H830 0.961 . S
C815 H831 0.960 . S
H816 C800 0.931 . S
H817 C805 0.929 . S
H818 C806 0.960 1_556 S
H819 C806 0.962 . S
H820 C806 0.954 1_556 S
H821 C807 0.961 . S
H822 C807 0.961 . S
H823 C807 0.961 . S
H824 C808 0.931 . S
H825 C813 0.930 1_655 S
H826 C814 0.956 . S
H827 C814 0.961 1_655 S
H828 C814 0.961 . S
H829 C815 0.958 . S
H830 C815 0.961 . S
H831 C815 0.960 . S
C832 C833 1.391 . S
C832 C834 1.394 . S
C832 H848 0.931 . S
C833 C832 1.391 . S
C833 C837 1.376 . S
C834 C832 1.394 . S
C834 C835 1.369 . S
C834 C838 1.531 1_554 S
C835 C834 1.369 . S
C835 C836 1.410 . S
C835 C843 1.503 1_554 S
C836 C835 1.410 . S
C836 C837 1.392 . S
C836 C839 1.511 1_565 S
C837 C833 1.376 . S
C837 C836 1.392 . S
C837 H849 0.929 . S
C838 C834 1.531 1_556 S
C838 H850 0.960 . S
C838 H851 0.962 . S
C838 H852 0.960 . S
C839 C836 1.511 1_545 S
C839 H853 0.961 . S
C839 H854 0.961 . S
C839 H855 0.961 1_545 S
C840 C841 1.370 . S
C840 C842 1.363 . S
C840 H856 0.931 . S
C841 C840 1.370 . S
C841 C845 1.408 1_545 S
C842 C840 1.363 . S
C842 C843 1.370 1_545 S
C842 C846 1.524 . S
C843 C835 1.503 1_556 S
C843 C842 1.370 1_565 S
C843 C844 1.403 . S
C844 C843 1.403 . S
C844 C845 1.404 . S
C844 C847 1.539 1_556 S
C845 C841 1.408 1_565 S
C845 C844 1.404 . S
C845 H857 0.930 . S
C846 C842 1.524 . S
C846 H858 0.956 . S
C846 H859 0.961 1_556 S
C846 H860 0.961 . S
C847 C844 1.539 1_554 S
C847 H861 0.958 1_554 S
C847 H862 0.961 . S
C847 H863 0.960 . S
H848 C832 0.931 . S
H849 C837 0.929 . S
H850 C838 0.960 . S
H851 C838 0.962 . S
H852 C838 0.960 . S
H853 C839 0.961 . S
H854 C839 0.961 . S
H855 C839 0.961 1_565 S
H856 C840 0.931 . S
H857 C845 0.930 . S
H858 C846 0.956 . S
H859 C846 0.961 1_554 S
H860 C846 0.961 . S
H861 C847 0.958 1_556 S
H862 C847 0.961 . S
H863 C847 0.960 . S
C864 C865 1.391 . S
C864 C866 1.394 . S
C864 H880 0.931 . S
C865 C864 1.391 . S
C865 C869 1.376 . S
C866 C864 1.394 . S
C866 C867 1.369 . S
C866 C870 1.531 . S
C867 C866 1.369 . S
C867 C868 1.410 1_554 S
C867 C875 1.503 1_554 S
C868 C867 1.410 1_556 S
C868 C869 1.392 1_556 S
C868 C871 1.511 . S
C869 C865 1.376 . S
C869 C868 1.392 1_554 S
C869 H881 0.929 . S
C870 C866 1.531 . S
C870 H882 0.960 . S
C870 H883 0.962 . S
C870 H884 0.960 . S
C871 C868 1.511 . S
C871 H885 0.961 . S
C871 H886 0.961 . S
C871 H887 0.961 . S
C872 C873 1.370 . S
C872 C874 1.363 . S
C872 H888 0.931 . S
C873 C872 1.370 . S
C873 C877 1.408 . S
C874 C872 1.363 . S
C874 C875 1.370 . S
C874 C878 1.524 . S
C875 C867 1.503 1_556 S
C875 C874 1.370 . S
C875 C876 1.403 . S
C876 C875 1.403 . S
C876 C877 1.404 . S
C876 C879 1.539 . S
C877 C873 1.408 . S
C877 C876 1.404 . S
C877 H889 0.930 . S
C878 C874 1.524 . S
C878 H890 0.956 . S
C878 H891 0.961 . S
C878 H892 0.961 . S
C879 C876 1.539 . S
C879 H893 0.958 1_556 S
C879 H894 0.961 . S
C879 H895 0.960 . S
H880 C864 0.931 . S
H881 C869 0.929 . S
H882 C870 0.960 . S
H883 C870 0.962 . S
H884 C870 0.960 . S
H885 C871 0.961 . S
H886 C871 0.961 . S
H887 C871 0.961 . S
H888 C872 0.931 . S
H889 C877 0.930 . S
H890 C878 0.956 . S
H891 C878 0.961 . S
H892 C878 0.961 . S
H893 C879 0.958 1_554 S
H894 C879 0.961 . S
H895 C879 0.960 . S
C896 C897 1.391 . S
C896 C898 1.394 1_554 S
C896 H912 0.931 1_554 S
C897 C896 1.391 . S
C897 C901 1.376 . S
C898 C896 1.394 1_556 S
C898 C899 1.369 1_556 S
C898 C902 1.531 . S
C899 C898 1.369 1_554 S
C899 C900 1.410 . S
C899 C907 1.503 . S
C900 C899 1.410 . S
C900 C901 1.392 . S
C900 C903 1.511 . S
C901 C897 1.376 . S
C901 C900 1.392 . S
C901 H913 0.929 . S
C902 C898 1.531 . S
C902 H914 0.960 . S
C902 H915 0.962 . S
C902 H916 0.960 . S
C903 C900 1.511 . S
C903 H917 0.961 . S
C903 H918 0.961 . S
C903 H919 0.961 . S
C904 C905 1.370 . S
C904 C906 1.363 1_556 S
C904 H920 0.931 1_556 S
C905 C904 1.370 . S
C905 C909 1.408 . S
C906 C904 1.363 1_554 S
C906 C907 1.370 . S
C906 C910 1.524 . S
C907 C899 1.503 . S
C907 C906 1.370 . S
C907 C908 1.403 1_554 S
C908 C907 1.403 1_556 S
C908 C909 1.404 . S
C908 C911 1.539 . S
C909 C905 1.408 . S
C909 C908 1.404 . S
C909 H921 0.930 . S
C910 C906 1.524 . S
C910 H922 0.956 . S
C910 H923 0.961 . S
C910 H924 0.961 . S
C911 C908 1.539 . S
C911 H925 0.958 . S
C911 H926 0.961 . S
C911 H927 0.960 . S
H912 C896 0.931 1_556 S
H913 C901 0.929 . S
H914 C902 0.960 . S
H915 C902 0.962 . S
H916 C902 0.960 . S
H917 C903 0.961 . S
H918 C903 0.961 . S
H919 C903 0.961 . S
H920 C904 0.931 1_554 S
H921 C909 0.930 . S
H922 C910 0.956 . S
H923 C910 0.961 . S
H924 C910 0.961 . S
H925 C911 0.958 . S
H926 C911 0.961 . S
H927 C911 0.960 . S
C928 C929 1.391 . S
C928 C930 1.394 . S
C928 H944 0.931 . S
C929 C928 1.391 . S
C929 C933 1.376 . S
C930 C928 1.394 . S
C930 C931 1.369 . S
C930 C934 1.531 1_455 S
C931 C930 1.369 . S
C931 C932 1.410 . S
C931 C939 1.503 . S
C932 C931 1.410 . S
C932 C933 1.392 . S
C932 C935 1.511 . S
C933 C929 1.376 . S
C933 C932 1.392 . S
C933 H945 0.929 . S
C934 C930 1.531 1_655 S
C934 H946 0.960 . S
C934 H947 0.962 . S
C934 H948 0.960 . S
C935 C932 1.511 . S
C935 H949 0.961 . S
C935 H950 0.961 . S
C935 H951 0.961 . S
C936 C937 1.370 . S
C936 C938 1.363 . S
C936 H952 0.931 . S
C937 C936 1.370 . S
C937 C941 1.408 . S
C938 C936 1.363 . S
C938 C939 1.370 . S
C938 C942 1.524 . S
C939 C931 1.503 . S
C939 C938 1.370 . S
C939 C940 1.403 . S
C940 C939 1.403 . S
C940 C941 1.404 . S
C940 C943 1.539 . S
C941 C937 1.408 . S
C941 C940 1.404 . S
C941 H953 0.930 . S
C942 C938 1.524 . S
C942 H954 0.956 . S
C942 H955 0.961 . S
C942 H956 0.961 . S
C943 C940 1.539 . S
C943 H957 0.958 . S
C943 H958 0.961 . S
C943 H959 0.960 . S
H944 C928 0.931 . S
H945 C933 0.929 . S
H946 C934 0.960 . S
H947 C934 0.962 . S
H948 C934 0.960 . S
H949 C935 0.961 . S
H950 C935 0.961 . S
H951 C935 0.961 . S
H952 C936 0.931 . S
H953 C941 0.930 . S
H954 C942 0.956 . S
H955 C942 0.961 . S
H956 C942 0.961 . S
H957 C943 0.958 . S
H958 C943 0.961 . S
H959 C943 0.960 . S
C960 C961 1.391 . S
C960 C962 1.394 . S
C960 H976 0.931 . S
C961 C960 1.391 . S
C961 C965 1.376 . S
C962 C960 1.394 . S
C962 C963 1.369 . S
C962 C966 1.531 . S
C963 C962 1.369 . S
C963 C964 1.410 . S
C963 C971 1.503 . S
C964 C963 1.410 . S
C964 C965 1.392 . S
C964 C967 1.511 . S
C965 C961 1.376 . S
C965 C964 1.392 . S
C965 H977 0.929 . S
C966 C962 1.531 . S
C966 H978 0.960 . S
C966 H979 0.962 . S
C966 H980 0.960 . S
C967 C964 1.511 . S
C967 H981 0.961 . S
C967 H982 0.961 . S
C967 H983 0.961 . S
C968 C969 1.370 . S
C968 C970 1.363 . S
C968 H984 0.953 . S
C969 C968 1.370 . S
C969 C973 1.408 . S
C970 C968 1.363 . S
C970 C971 1.370 . S
C970 C974 1.529 . S
C971 C963 1.503 . S
C971 C970 1.370 . S
C971 C972 1.403 . S
C972 C971 1.403 . S
C972 C973 1.404 . S
C972 C975 1.539 . S
C973 C969 1.408 . S
C973 C972 1.404 . S
C973 H985 0.930 . S
C974 C970 1.529 . S
C974 H986 0.954 1_545 S
C974 H987 0.964 . S
C974 H988 0.955 1_545 S
C975 C972 1.539 . S
C975 H989 0.958 . S
C975 H990 0.961 . S
C975 H991 0.960 . S
H976 C960 0.931 . S
H977 C965 0.929 . S
H978 C966 0.960 . S
H979 C966 0.962 . S
H980 C966 0.960 . S
H981 C967 0.961 . S
H982 C967 0.961 . S
H983 C967 0.961 . S
H984 C968 0.953 . S
H985 C973 0.930 . S
H986 C974 0.954 1_565 S
H987 C974 0.964 . S
H988 C974 0.955 1_565 S
H989 C975 0.958 . S
H990 C975 0.961 . S
H991 C975 0.960 . S
C992 C993 1.391 . S
C992 C994 1.394 . S
C992 H1008 0.931 . S
C993 C992 1.391 . S
C993 C997 1.376 . S
C994 C992 1.394 . S
C994 C995 1.369 . S
C994 C998 1.531 . S
C995 C994 1.369 . S
C995 C996 1.410 . S
C995 C1003 1.503 . S
C996 C995 1.410 . S
C996 C997 1.392 . S
C996 C999 1.511 . S
C997 C993 1.376 . S
C997 C996 1.392 . S
C997 H1009 0.929 . S
C998 C994 1.531 . S
C998 H1010 0.960 . S
C998 H1011 0.962 . S
C998 H1012 0.960 . S
C999 C996 1.511 . S
C999 H1013 0.961 . S
C999 H1014 0.961 . S
C999 H1015 0.961 . S
C1000 C1001 1.370 . S
C1000 C1002 1.363 . S
C1000 H1016 0.931 . S
C1001 C1000 1.370 . S
C1001 C1005 1.408 . S
C1002 C1000 1.363 . S
C1002 C1003 1.370 . S
C1002 C1006 1.524 . S
C1003 C995 1.503 . S
C1003 C1002 1.370 . S
C1003 C1004 1.403 . S
C1004 C1003 1.403 . S
C1004 C1005 1.404 . S
C1004 C1007 1.539 . S
C1005 C1001 1.408 . S
C1005 C1004 1.404 . S
C1005 H1017 0.930 . S
C1006 C1002 1.524 . S
C1006 H1018 0.956 . S
C1006 H1019 0.961 . S
C1006 H1020 0.961 . S
C1007 C1004 1.539 . S
C1007 H1021 0.958 . S
C1007 H1022 0.961 . S
C1007 H1023 0.960 . S
H1008 C992 0.931 . S
H1009 C997 0.929 . S
H1010 C998 0.960 . S
H1011 C998 0.962 . S
H1012 C998 0.960 . S
H1013 C999 0.961 . S
H1014 C999 0.961 . S
H1015 C999 0.961 . S
H1016 C1000 0.931 . S
H1017 C1005 0.930 . S
H1018 C1006 0.956 . S
H1019 C1006 0.961 . S
H1020 C1006 0.961 . S
H1021 C1007 0.958 . S
H1022 C1007 0.961 . S
H1023 C1007 0.960 . S
C1024 C1025 1.391 . S
C1024 C1026 1.394 . S
C1024 H1040 0.931 . S
C1025 C1024 1.391 . S
C1025 C1029 1.376 . S
C1026 C1024 1.394 . S
C1026 C1027 1.369 . S
C1026 C1030 1.531 . S
C1027 C1026 1.369 . S
C1027 C1028 1.410 . S
C1027 C1035 1.503 . S
C1028 C1027 1.410 . S
C1028 C1029 1.392 . S
C1028 C1031 1.511 . S
C1029 C1025 1.376 . S
C1029 C1028 1.392 . S
C1029 H1041 0.929 . S
C1030 C1026 1.531 . S
C1030 H1042 0.960 . S
C1030 H1043 0.962 . S
C1030 H1044 0.960 . S
C1031 C1028 1.511 . S
C1031 H1045 0.961 . S
C1031 H1046 0.961 . S
C1031 H1047 0.961 . S
C1032 C1033 1.370 . S
C1032 C1034 1.363 . S
C1032 H1048 0.931 . S
C1033 C1032 1.370 . S
C1033 C1037 1.408 . S
C1034 C1032 1.363 . S
C1034 C1035 1.370 . S
C1034 C1038 1.524 . S
C1035 C1027 1.503 . S
C1035 C1034 1.370 . S
C1035 C1036 1.403 . S
C1036 C1035 1.403 . S
C1036 C1037 1.404 . S
C1036 C1039 1.539 . S
C1037 C1033 1.408 . S
C1037 C1036 1.404 . S
C1037 H1049 0.930 . S
C1038 C1034 1.524 . S
C1038 H1050 0.956 . S
C1038 H1051 0.961 . S
C1038 H1052 0.961 . S
C1039 C1036 1.539 . S
C1039 H1053 0.958 . S
C1039 H1054 0.961 . S
C1039 H1055 0.960 . S
H1040 C1024 0.931 . S
H1041 C1029 0.929 . S
H1042 C1030 0.960 . S
H1043 C1030 0.962 . S
H1044 C1030 0.960 . S
H1045 C1031 0.961 . S
H1046 C1031 0.961 . S
H1047 C1031 0.961 . S
H1048 C1032 0.931 . S
H1049 C1037 0.930 . S
H1050 C1038 0.956 . S
H1051 C1038 0.961 . S
H1052 C1038 0.961 . S
H1053 C1039 0.958 . S
H1054 C1039 0.961 . S
H1055 C1039 0.960 . S
C1056 C1057 1.391 . S
C1056 C1058 1.394 . S
C1056 H1072 0.931 . S
C1057 C1056 1.391 . S
C1057 C1061 1.376 . S
C1058 C1056 1.394 . S
C1058 C1059 1.369 . S
C1058 C1062 1.531 . S
C1059 C1058 1.369 . S
C1059 C1060 1.410 . S
C1059 C1067 1.503 . S
C1060 C1059 1.410 . S
C1060 C1061 1.392 . S
C1060 C1063 1.511 . S
C1061 C1057 1.376 . S
C1061 C1060 1.392 . S
C1061 H1073 0.929 . S
C1062 C1058 1.531 . S
C1062 H1074 0.960 . S
C1062 H1075 0.962 . S
C1062 H1076 0.960 . S
C1063 C1060 1.511 . S
C1063 H1077 0.961 . S
C1063 H1078 0.961 . S
C1063 H1079 0.961 1_655 S
C1064 C1065 1.370 . S
C1064 C1066 1.363 . S
C1064 H1080 0.931 . S
C1065 C1064 1.370 . S
C1065 C1069 1.408 1_655 S
C1066 C1064 1.363 . S
C1066 C1067 1.370 . S
C1066 C1070 1.524 . S
C1067 C1059 1.503 . S
C1067 C1066 1.370 . S
C1067 C1068 1.403 1_655 S
C1068 C1067 1.403 1_455 S
C1068 C1069 1.404 . S
C1068 C1071 1.539 . S
C1069 C1065 1.408 1_455 S
C1069 C1068 1.404 . S
C1069 H1081 0.930 . S
C1070 C1066 1.524 . S
C1070 H1082 0.956 . S
C1070 H1083 0.961 . S
C1070 H1084 0.961 . S
C1071 C1068 1.539 . S
C1071 H1085 0.958 . S
C1071 H1086 0.961 . S
C1071 H1087 0.960 . S
H1072 C1056 0.931 . S
H1073 C1061 0.929 . S
H1074 C1062 0.960 . S
H1075 C1062 0.962 . S
H1076 C1062 0.960 . S
H1077 C1063 0.961 . S
H1078 C1063 0.961 . S
H1079 C1063 0.961 1_455 S
H1080 C1064 0.931 . S
H1081 C1069 0.930 . S
H1082 C1070 0.956 . S
H1083 C1070 0.961 . S
H1084 C1070 0.961 . S
H1085 C1071 0.958 . S
H1086 C1071 0.961 . S
H1087 C1071 0.960 . S
C1088 C1089 1.391 . S
C1088 C1090 1.394 . S
C1088 H1104 0.931 . S
C1089 C1088 1.391 . S
C1089 C1093 1.376 . S
C1090 C1088 1.394 . S
C1090 C1091 1.369 . S
C1090 C1094 1.531 1_565 S
C1091 C1090 1.369 . S
C1091 C1092 1.410 . S
C1091 C1099 1.503 . S
C1092 C1091 1.410 . S
C1092 C1093 1.392 . S
C1092 C1095 1.511 . S
C1093 C1089 1.376 . S
C1093 C1092 1.392 . S
C1093 H1105 0.929 . S
C1094 C1090 1.531 1_545 S
C1094 H1106 0.960 . S
C1094 H1107 0.962 . S
C1094 H1108 0.960 . S
C1095 C1092 1.511 . S
C1095 H1109 0.961 . S
C1095 H1110 0.961 . S
C1095 H1111 0.961 . S
C1096 C1097 1.370 . S
C1096 C1098 1.363 . S
C1096 H1112 0.931 . S
C1097 C1096 1.370 . S
C1097 C1101 1.408 . S
C1098 C1096 1.363 . S
C1098 C1099 1.370 . S
C1098 C1102 1.524 . S
C1099 C1091 1.503 . S
C1099 C1098 1.370 . S
C1099 C1100 1.403 . S
C1100 C1099 1.403 . S
C1100 C1101 1.404 . S
C1100 C1103 1.539 1_565 S
C1101 C1097 1.408 . S
C1101 C1100 1.404 . S
C1101 H1113 0.930 1_565 S
C1102 C1098 1.524 . S
C1102 H1114 0.956 . S
C1102 H1115 0.961 . S
C1102 H1116 0.961 . S
C1103 C1100 1.539 1_545 S
C1103 H1117 0.958 . S
C1103 H1118 0.961 . S
C1103 H1119 0.960 1_545 S
H1104 C1088 0.931 . S
H1105 C1093 0.929 . S
H1106 C1094 0.960 . S
H1107 C1094 0.962 . S
H1108 C1094 0.960 . S
H1109 C1095 0.961 . S
H1110 C1095 0.961 . S
H1111 C1095 0.961 . S
H1112 C1096 0.931 . S
H1113 C1101 0.930 1_545 S
H1114 C1102 0.956 . S
H1115 C1102 0.961 . S
H1116 C1102 0.961 . S
H1117 C1103 0.958 . S
H1118 C1103 0.961 . S
H1119 C1103 0.960 1_565 S
C1120 C1121 1.391 . S
C1120 C1122 1.394 . S
C1120 H1136 0.931 . S
C1121 C1120 1.391 . S
C1121 C1125 1.376 . S
C1122 C1120 1.394 . S
C1122 C1123 1.369 . S
C1122 C1126 1.531 . S
C1123 C1122 1.369 . S
C1123 C1124 1.410 . S
C1123 C1131 1.503 . S
C1124 C1123 1.410 . S
C1124 C1125 1.392 . S
C1124 C1127 1.511 . S
C1125 C1121 1.376 . S
C1125 C1124 1.392 . S
C1125 H1137 0.929 . S
C1126 C1122 1.531 . S
C1126 H1138 0.960 . S
C1126 H1139 0.962 . S
C1126 H1140 0.960 . S
C1127 C1124 1.511 . S
C1127 H1141 0.961 . S
C1127 H1142 0.961 . S
C1127 H1143 0.961 . S
C1128 C1129 1.370 . S
C1128 C1130 1.363 . S
C1128 H1144 0.931 . S
C1129 C1128 1.370 . S
C1129 C1133 1.408 . S
C1130 C1128 1.363 . S
C1130 C1131 1.370 . S
C1130 C1134 1.524 . S
C1131 C1123 1.503 . S
C1131 C1130 1.370 . S
C1131 C1132 1.403 . S
C1132 C1131 1.403 . S
C1132 C1133 1.404 . S
C1132 C1135 1.539 . S
C1133 C1129 1.408 . S
C1133 C1132 1.404 . S
C1133 H1145 0.930 . S
C1134 C1130 1.524 . S
C1134 H1146 0.956 . S
C1134 H1147 0.961 . S
C1134 H1148 0.961 . S
C1135 C1132 1.539 . S
C1135 H1149 0.958 . S
C1135 H1150 0.961 . S
C1135 H1151 0.960 . S
H1136 C1120 0.931 . S
H1137 C1125 0.929 . S
H1138 C1126 0.960 . S
H1139 C1126 0.962 . S
H1140 C1126 0.960 . S
H1141 C1127 0.961 . S
H1142 C1127 0.961 . S
H1143 C1127 0.961 . S
H1144 C1128 0.931 . S
H1145 C1133 0.930 . S
H1146 C1134 0.956 . S
H1147 C1134 0.961 . S
H1148 C1134 0.961 . S
H1149 C1135 0.958 . S
H1150 C1135 0.961 . S
H1151 C1135 0.960 . S
C1152 C1153 1.391 . S
C1152 C1154 1.394 . S
C1152 H1168 0.931 . S
C1153 C1152 1.391 . S
C1153 C1157 1.376 . S
C1154 C1152 1.394 . S
C1154 C1155 1.369 . S
C1154 C1158 1.531 . S
C1155 C1154 1.369 . S
C1155 C1156 1.410 . S
C1155 C1163 1.503 . S
C1156 C1155 1.410 . S
C1156 C1157 1.392 . S
C1156 C1159 1.511 . S
C1157 C1153 1.376 . S
C1157 C1156 1.392 . S
C1157 H1169 0.929 . S
C1158 C1154 1.531 . S
C1158 H1170 0.960 . S
C1158 H1171 0.962 . S
C1158 H1172 0.960 . S
C1159 C1156 1.511 . S
C1159 H1173 0.961 . S
C1159 H1174 0.961 . S
C1159 H1175 0.961 . S
C1160 C1161 1.370 . S
C1160 C1162 1.363 . S
C1160 H1176 0.931 . S
C1161 C1160 1.370 . S
C1161 C1165 1.408 . S
C1162 C1160 1.363 . S
C1162 C1163 1.370 . S
C1162 C1166 1.524 . S
C1163 C1155 1.503 . S
C1163 C1162 1.370 . S
C1163 C1164 1.403 . S
C1164 C1163 1.403 . S
C1164 C1165 1.404 . S
C1164 C1167 1.539 . S
C1165 C1161 1.408 . S
C1165 C1164 1.404 . S
C1165 H1177 0.930 . S
C1166 C1162 1.524 . S
C1166 H1178 0.956 . S
C1166 H1179 0.961 . S
C1166 H1180 0.961 . S
C1167 C1164 1.539 . S
C1167 H1181 0.958 . S
C1167 H1182 0.961 . S
C1167 H1183 0.960 . S
H1168 C1152 0.931 . S
H1169 C1157 0.929 . S
H1170 C1158 0.960 . S
H1171 C1158 0.962 . S
H1172 C1158 0.960 . S
H1173 C1159 0.961 . S
H1174 C1159 0.961 . S
H1175 C1159 0.961 . S
H1176 C1160 0.931 . S
H1177 C1165 0.930 . S
H1178 C1166 0.956 . S
H1179 C1166 0.961 . S
H1180 C1166 0.961 . S
H1181 C1167 0.958 . S
H1182 C1167 0.961 . S
H1183 C1167 0.960 . S
C417 C215 2.532 . S
C425 C287 2.667 . S
C457 C313 2.152 . S
C449 C247 1.883 . S
C489 C353 2.166 . S
C481 C151 2.039 . S
C521 C407 2.648 . S
C513 C183 2.495 . S
C553 C268 2.676 . S
C545 C87 2.446 . S
C577 C119 1.960 . S
C585 C298 2.144 . S
C609 C23 1.939 . S
C617 C338 2.167 . S
C641 C55 2.418 . S
C649 C388 2.639 1_655 S
C681 C264 0.353 1_655 S
C673 C189 0.379 . S
C713 C325 0.635 . S
C705 C221 0.652 . S
C745 C365 0.472 . S
C737 C253 0.430 . S
C769 C157 0.176 . S
C777 C384 0.368 . S
C801 C61 0.689 . S
C809 C285 0.356 . S
C841 C304 0.627 . S
C833 C93 0.769 . S
C873 C344 0.462 . S
C865 C125 0.391 . S
C897 C29 0.706 . S
C905 C405 0.296 . S
C929 C177 2.310 . S
C937 C258 2.533 . S
C961 C209 2.866 . S
C969 C308 3.120 . S
C1001 C348 2.869 . S
C993 C241 2.556 . S
C1033 C378 2.275 . S
C1025 C145 2.073 . S
C1057 C49 2.205 . S
C1065 C273 2.536 . S
C1097 C327 3.118 . S
C1089 C81 2.789 . S
C1129 C367 2.872 . S
C1121 C113 2.662 . S
C1153 C17 1.957 . S
C1161 C393 2.275 . S
