# Generated by pormake.
# Topology pyr, (3,6)-cn, num edge types: 1
# Building blocks:
#     Node 0, Type 0, BuildingBlock: CUQRIR_clean_linker_1, # of connection points: 3
#     Node 1, Type 0, BuildingBlock: CUQRIR_clean_linker_1, # of connection points: 3
#     Node 2, Type 0, BuildingBlock: CUQRIR_clean_linker_1, # of connection points: 3
#     Node 3, Type 0, BuildingBlock: CUQRIR_clean_linker_1, # of connection points: 3
#     Node 4, Type 0, BuildingBlock: CUQRIR_clean_linker_1, # of connection points: 3
#     Node 5, Type 0, BuildingBlock: CUQRIR_clean_linker_1, # of connection points: 3
#     Node 6, Type 0, BuildingBlock: CUQRIR_clean_linker_1, # of connection points: 3
#     Node 7, Type 0, BuildingBlock: CUQRIR_clean_linker_1, # of connection points: 3
#     Node 8, Type 1, BuildingBlock: PAMTOO_clean_sbu_0, # of connection points: 6
#     Node 9, Type 1, BuildingBlock: PAMTOO_clean_sbu_0, # of connection points: 6
#     Node 10, Type 1, BuildingBlock: PAMTOO_clean_sbu_0, # of connection points: 6
#     Node 11, Type 1, BuildingBlock: PAMTOO_clean_sbu_0, # of connection points: 6
#     Edge 12, Type (0, 1), BuildingBlock: ZUJKAS_clean_linker_0, # of connection points: 2
#     Edge 13, Type (0, 1), BuildingBlock: ZUJKAS_clean_linker_0, # of connection points: 2
#     Edge 14, Type (0, 1), BuildingBlock: ZUJKAS_clean_linker_0, # of connection points: 2
#     Edge 15, Type (0, 1), BuildingBlock: ZUJKAS_clean_linker_0, # of connection points: 2
#     Edge 16, Type (0, 1), BuildingBlock: ZUJKAS_clean_linker_0, # of connection points: 2
#     Edge 17, Type (0, 1), BuildingBlock: ZUJKAS_clean_linker_0, # of connection points: 2
#     Edge 18, Type (0, 1), BuildingBlock: ZUJKAS_clean_linker_0, # of connection points: 2
#     Edge 19, Type (0, 1), BuildingBlock: ZUJKAS_clean_linker_0, # of connection points: 2
#     Edge 20, Type (0, 1), BuildingBlock: ZUJKAS_clean_linker_0, # of connection points: 2
#     Edge 21, Type (0, 1), BuildingBlock: ZUJKAS_clean_linker_0, # of connection points: 2
#     Edge 22, Type (0, 1), BuildingBlock: ZUJKAS_clean_linker_0, # of connection points: 2
#     Edge 23, Type (0, 1), BuildingBlock: ZUJKAS_clean_linker_0, # of connection points: 2
#     Edge 24, Type (0, 1), BuildingBlock: ZUJKAS_clean_linker_0, # of connection points: 2
#     Edge 25, Type (0, 1), BuildingBlock: ZUJKAS_clean_linker_0, # of connection points: 2
#     Edge 26, Type (0, 1), BuildingBlock: ZUJKAS_clean_linker_0, # of connection points: 2
#     Edge 27, Type (0, 1), BuildingBlock: ZUJKAS_clean_linker_0, # of connection points: 2
#     Edge 28, Type (0, 1), BuildingBlock: ZUJKAS_clean_linker_0, # of connection points: 2
#     Edge 29, Type (0, 1), BuildingBlock: ZUJKAS_clean_linker_0, # of connection points: 2
#     Edge 30, Type (0, 1), BuildingBlock: ZUJKAS_clean_linker_0, # of connection points: 2
#     Edge 31, Type (0, 1), BuildingBlock: ZUJKAS_clean_linker_0, # of connection points: 2
#     Edge 32, Type (0, 1), BuildingBlock: ZUJKAS_clean_linker_0, # of connection points: 2
#     Edge 33, Type (0, 1), BuildingBlock: ZUJKAS_clean_linker_0, # of connection points: 2
#     Edge 34, Type (0, 1), BuildingBlock: ZUJKAS_clean_linker_0, # of connection points: 2
#     Edge 35, Type (0, 1), BuildingBlock: ZUJKAS_clean_linker_0, # of connection points: 2
# Relax obj value: 0.146
# Max RMSD: 0.263
# Mean RMSD: 0.164
data_MOF--net-pyr--node1-PAMTOO_clean_sbu_0--node2-CUQRIR_clean_linker_1--edge1-ZUJKAS_clean_linker_0
_symmetry_space_group_name_H-M    P1
_symmetry_Int_Tables_number       1
_symmetry_cell_setting            triclinic
loop_
_symmetry_equiv_pos_as_xyz
'x, y, z'
_cell_length_a     45.0809
_cell_length_b     47.574137
_cell_length_c     46.860127
_cell_angle_alpha  89.149231
_cell_angle_beta   90.638416
_cell_angle_gamma 106.1681
loop_
_atom_site_label
_atom_site_type_symbol
_atom_site_fract_x
_atom_site_fract_y
_atom_site_fract_z
_atom_type_partial_charge
C0 C 0.32654 0.32708 0.21182 0.0
N1 N 0.34306 0.30816 0.21869 0.0
N2 N 0.33164 0.33649 0.18442 0.0
C3 C 0.30156 0.33258 0.2302 0.0
C4 C 0.35194 0.3225 0.1749 0.0
N5 N 0.35899 0.30545 0.19577 0.0
C6 C 0.36212 0.32286 0.14446 0.0
H7 H 0.27867 0.32089 0.22115 0.0
H8 H 0.30324 0.35628 0.2302 0.0
H9 H 0.3031 0.32504 0.25254 0.0
H10 H 0.38669 0.32277 0.14368 0.0
H11 H 0.35906 0.34232 0.13276 0.0
H12 H 0.3481 0.30278 0.13382 0.0
C13 C 0.1969 0.79893 0.70807 0.0
N14 N 0.19322 0.8208 0.7245 0.0
N15 N 0.21253 0.78264 0.72245 0.0
C16 C 0.18632 0.79417 0.67753 0.0
C17 C 0.21827 0.7955 0.74832 0.0
N18 N 0.2062 0.81854 0.74968 0.0
C19 C 0.23966 0.78848 0.77059 0.0
H20 H 0.16426 0.7999 0.6743 0.0
H21 H 0.18328 0.7711 0.67137 0.0
H22 H 0.2039 0.8086 0.66344 0.0
H23 H 0.2551 0.77641 0.76161 0.0
H24 H 0.22557 0.77477 0.78762 0.0
H25 H 0.25419 0.80875 0.78053 0.0
C26 C 0.62085 0.36735 0.85084 0.0
N27 N 0.63787 0.36431 0.8742 0.0
N28 N 0.63444 0.39251 0.83634 0.0
C29 C 0.59225 0.34474 0.84099 0.0
C30 C 0.66035 0.40463 0.8518 0.0
N31 N 0.66253 0.38746 0.87459 0.0
C32 C 0.68298 0.43379 0.84527 0.0
H33 H 0.58967 0.3456 0.81744 0.0
H34 H 0.57176 0.34917 0.85083 0.0
H35 H 0.59293 0.32243 0.84758 0.0
H36 H 0.69432 0.44439 0.865 0.0
H37 H 0.67138 0.44864 0.83421 0.0
H38 H 0.70119 0.43034 0.83112 0.0
C39 C 0.84899 0.68315 0.34141 0.0
N40 N 0.87562 0.70392 0.33476 0.0
N41 N 0.83651 0.68994 0.36569 0.0
C42 C 0.83453 0.657 0.32323 0.0
C43 C 0.8566 0.71549 0.37371 0.0
N44 N 0.88042 0.7241 0.35513 0.0
C45 C 0.85273 0.73235 0.39972 0.0
H46 H 0.81498 0.64118 0.33396 0.0
H47 H 0.85221 0.64587 0.31749 0.0
H48 H 0.82584 0.66451 0.30311 0.0
H49 H 0.83826 0.71779 0.41599 0.0
H50 H 0.84134 0.74936 0.39326 0.0
H51 H 0.87542 0.7435 0.40943 0.0
C52 C 0.68828 0.81324 0.90096 0.0
N53 N 0.7075 0.80584 0.88235 0.0
N54 N 0.67195 0.82975 0.88784 0.0
C55 C 0.68477 0.80371 0.93178 0.0
C56 C 0.68191 0.83208 0.8605 0.0
N57 N 0.70327 0.81726 0.8571 0.0
C58 C 0.67366 0.85177 0.83813 0.0
H59 H 0.6613 0.80267 0.93949 0.0
H60 H 0.70187 0.81977 0.94488 0.0
H61 H 0.68907 0.78198 0.9347 0.0
H62 H 0.66794 0.87064 0.84799 0.0
H63 H 0.65311 0.83904 0.82606 0.0
H64 H 0.6928 0.86018 0.82286 0.0
C65 C 0.84278 0.30166 0.42535 0.0
N66 N 0.85032 0.28619 0.40389 0.0
N67 N 0.82501 0.31845 0.41544 0.0
C68 C 0.84962 0.29768 0.4564 0.0
C69 C 0.82173 0.31235 0.38731 0.0
N70 N 0.83686 0.2926 0.38025 0.0
C71 C 0.80108 0.32361 0.36742 0.0
H72 H 0.84389 0.274 0.46186 0.0
H73 H 0.83664 0.30853 0.47046 0.0
H74 H 0.87467 0.30726 0.46043 0.0
H75 H 0.80213 0.34655 0.37262 0.0
H76 H 0.77687 0.31012 0.37022 0.0
H77 H 0.80779 0.3225 0.34484 0.0
C78 C 0.34776 0.68151 0.25087 0.0
N79 N 0.37296 0.70251 0.25998 0.0
N80 N 0.33653 0.68985 0.22618 0.0
C81 C 0.33494 0.65234 0.26551 0.0
C82 C 0.35581 0.71671 0.2206 0.0
N83 N 0.37807 0.72436 0.24097 0.0
C84 C 0.3523 0.73591 0.19563 0.0
H85 H 0.3222 0.6356 0.25021 0.0
H86 H 0.31881 0.65472 0.28242 0.0
H87 H 0.35368 0.64475 0.27579 0.0
H88 H 0.36159 0.75946 0.20054 0.0
H89 H 0.32771 0.73161 0.18919 0.0
H90 H 0.3654 0.7311 0.17731 0.0
C91 C 0.12086 0.36651 0.74756 0.0
N92 N 0.13924 0.36278 0.72587 0.0
N93 N 0.13405 0.39155 0.76207 0.0
C94 C 0.09109 0.34458 0.75588 0.0
C95 C 0.16124 0.40283 0.74827 0.0
N96 N 0.16458 0.38532 0.72656 0.0
C97 C 0.18337 0.43225 0.75444 0.0
H98 H 0.07181 0.3495 0.74378 0.0
H99 H 0.08668 0.34567 0.77903 0.0
H100 H 0.09155 0.32203 0.75065 0.0
H101 H 0.20138 0.42929 0.76959 0.0
H102 H 0.17129 0.44709 0.76414 0.0
H103 H 0.19495 0.44266 0.73464 0.0
Dy104 Dy 0.05982 0.05186 0.51341 0.0
Dy105 Dy 0.99815 0.03327 0.55356 0.0
C106 C 0.05154 0.09457 0.56251 0.0
O107 O 0.07221 0.03308 0.55446 0.0
O108 O 0.02512 1.00241 0.56572 0.0
O109 O 0.10951 0.06628 0.51095 0.0
O110 O 0.08203 0.05339 0.47256 0.0
O111 O 0.98692 1.00211 0.51648 0.0
O112 O 0.03636 1.00495 0.5031 0.0
O113 O 0.99306 0.07088 0.52737 0.0
O114 O 0.02498 0.06939 0.48983 0.0
O115 O 0.94865 1.0189 0.55949 0.0
O116 O 0.97957 0.02957 0.59604 0.0
C117 C 0.05518 1.01026 0.56838 0.0
O118 O 0.06112 0.09331 0.53627 0.0
O119 O 0.03234 0.07153 0.57472 0.0
C120 C 0.13193 0.08615 0.46736 0.0
C121 C 0.17608 0.12894 0.4365 0.0
C122 C 0.14956 0.1352 0.44722 0.0
C123 C 0.12762 0.11392 0.46264 0.0
C124 C 0.15828 0.0799 0.45685 0.0
C125 C 0.18016 0.10105 0.44155 0.0
C126 C 0.10971 0.06322 0.48338 0.0
C127 C 1.00657 0.99184 0.50214 0.0
C128 C 1.00299 0.0786 0.50144 0.0
C129 C 0.9326 0.99357 0.60342 0.0
C130 C 0.89812 0.9459 0.63646 0.0
C131 C 0.90429 0.94208 0.60763 0.0
C132 C 0.9216 0.96573 0.59123 0.0
C133 C 0.92624 0.99736 0.63207 0.0
C134 C 0.90926 0.97381 0.64844 0.0
C135 C 0.95114 1.01907 0.58729 0.0
H136 H 0.14589 0.15655 0.44381 0.0
H137 H 0.10738 0.11906 0.47081 0.0
H138 H 0.16188 0.05851 0.46034 0.0
H139 H 0.19998 0.09533 0.43316 0.0
H140 H 0.89602 0.92078 0.5979 0.0
H141 H 0.92643 0.96225 0.56918 0.0
H142 H 0.93447 1.01867 0.64183 0.0
H143 H 0.90441 0.97757 0.67043 0.0
Dy144 Dy 0.48602 0.04629 0.06349 0.0
Dy145 Dy 0.5538 0.05898 0.09546 0.0
C146 C 0.49866 1.00115 0.11019 0.0
O147 O 0.48212 0.06506 0.10609 0.0
O148 O 0.53209 0.09266 0.11147 0.0
O149 O 0.43645 0.02749 0.06249 0.0
O150 O 0.45924 0.05677 0.02856 0.0
O151 O 0.56122 0.08945 0.05772 0.0
O152 O 0.51186 0.09303 0.05396 0.0
O153 O 0.54997 0.02103 0.06706 0.0
O154 O 0.51479 0.02843 0.03407 0.0
O155 O 0.60319 0.06568 0.09297 0.0
O156 O 0.58097 0.06399 0.13408 0.0
C157 C 0.50258 0.08754 0.11714 0.0
O158 O 0.48463 1.00397 0.08597 0.0
O159 O 0.52187 0.02226 0.11995 0.0
C160 C 0.41271 0.02196 1.01651 0.0
C161 C 0.37367 0.98997 0.97382 0.0
C162 C 0.38957 0.97591 0.99274 0.0
C163 C 0.40911 0.99184 1.01388 0.0
C164 C 0.39665 0.03589 0.99787 0.0
C165 C 0.37736 1.0201 0.9767 0.0
C166 C 0.43327 0.03976 0.038 0.0
C167 C 0.54141 0.10309 0.04821 0.0
C168 C 0.53672 1.01654 0.04182 0.0
C169 C 0.63324 0.09287 0.13049 0.0
C170 C 0.68529 0.13382 0.15395 0.0
C171 C 0.68861 0.11613 0.13111 0.0
C172 C 0.66284 0.09578 0.11959 0.0
C173 C 0.62968 0.11137 0.15247 0.0
C174 C 0.65543 0.13157 0.16411 0.0
C175 C 0.60707 0.06877 0.12049 0.0
H176 H 0.38735 0.95275 0.99083 0.0
H177 H 0.42149 0.98072 0.02797 0.0
H178 H 0.39913 0.05913 0.99963 0.0
H179 H 0.36514 0.03145 0.96268 0.0
H180 H 0.71119 0.11757 0.12251 0.0
H181 H 0.66617 0.08169 0.10267 0.0
H182 H 0.60717 0.10962 0.1614 0.0
H183 H 0.65197 0.14446 0.18197 0.0
Dy184 Dy 0.49382 0.50586 0.52328 0.0
Dy185 Dy 0.50078 0.56498 0.55979 0.0
C186 C 0.52562 0.51385 0.58517 0.0
O187 O 0.44551 0.50142 0.538 0.0
O188 O 0.45831 0.53199 0.57631 0.0
O189 O 0.48171 0.45869 0.52055 0.0
O190 O 0.50097 0.4855 0.48402 0.0
O191 O 0.46774 0.5673 0.52444 0.0
O192 O 0.48377 0.53879 0.49256 0.0
O193 O 0.53936 0.57635 0.52813 0.0
O194 O 0.54417 0.53026 0.52247 0.0
O195 O 0.50682 0.61153 0.56208 0.0
O196 O 0.50328 0.58551 0.60083 0.0
C197 C 0.43839 0.51093 0.56253 0.0
O198 O 0.5061 0.49606 0.56809 0.0
O199 O 0.53256 0.54227 0.5811 0.0
C200 C 0.51954 0.44535 0.49435 0.0
C201 C 0.57061 0.4227 0.4892 0.0
C202 C 0.57077 0.44407 0.50961 0.0
C203 C 0.54547 0.45526 0.51217 0.0
C204 C 0.51885 0.42356 0.47439 0.0
C205 C 0.54421 0.41217 0.47191 0.0
C206 C 0.49454 0.45949 0.49566 0.0
C207 C 0.4704 0.55938 0.49808 0.0
C208 C 0.55511 0.55875 0.51929 0.0
C209 C 0.47866 0.6226 0.59994 0.0
C210 C 0.43066 0.64298 0.62154 0.0
C211 C 0.42453 0.62134 0.60049 0.0
C212 C 0.44834 0.61116 0.58986 0.0
C213 C 0.485 0.64427 0.62078 0.0
C214 C 0.46113 0.65441 0.63155 0.0
C215 C 0.50318 0.61073 0.58968 0.0
H216 H 0.59059 0.45231 0.52347 0.0
H217 H 0.54639 0.47211 0.52773 0.0
H218 H 0.49908 0.41584 0.46036 0.0
H219 H 0.54357 0.39586 0.45585 0.0
H220 H 0.40123 0.61188 0.59266 0.0
H221 H 0.44304 0.5941 0.57399 0.0
H222 H 0.5083 0.65315 0.62886 0.0
H223 H 0.46653 0.67131 0.64757 0.0
Dy224 Dy 1.00149 0.57625 0.0282 0.0
Dy225 Dy 0.99557 0.51717 0.0673 0.0
C226 C 0.97571 0.5729 0.09243 0.0
O227 O 0.04323 0.58688 0.05657 0.0
O228 O 0.04584 0.54017 0.06499 0.0
O229 O 1.00981 0.62305 1.02332 0.0
O230 O 1.00046 0.59534 0.98626 0.0
O231 O 1.0046 0.5055 1.02238 0.0
O232 O 0.02971 0.55113 1.00557 0.0
O233 O 0.94679 0.51329 0.05483 0.0
O234 O 0.95628 0.54466 1.0161 0.0
O235 O 0.98298 0.47009 0.07246 0.0
O236 O 1.00502 0.49788 0.10713 0.0
C237 C 0.05823 0.56853 0.06594 0.0
O238 O 0.97416 0.5828 0.06621 0.0
O239 O 0.98643 0.5502 0.09767 0.0
C240 C 0.98075 0.63598 0.98602 0.0
C241 C 0.93633 0.66321 0.96604 0.0
C242 C 0.92788 0.63896 0.98478 0.0
C243 C 0.94992 0.62545 0.99467 0.0
C244 C 0.98935 0.66009 0.96737 0.0
C245 C 0.96732 0.67362 0.95742 0.0
C246 C 1.00381 0.62154 0.99603 0.0
C247 C 0.0225 0.52247 1.00334 0.0
C248 C 0.93773 0.5235 0.0311 0.0
C249 C 0.02112 0.45617 0.0991 0.0
C250 C 0.07057 0.43109 0.10568 0.0
C251 C 0.07103 0.45196 0.08399 0.0
C252 C 0.04654 0.46436 0.08074 0.0
C253 C 0.02016 0.43502 0.12042 0.0
C254 C 0.04468 0.4225 0.12366 0.0
C255 C 0.99702 0.47143 0.09709 0.0
H256 H 0.90415 0.63017 0.99151 0.0
H257 H 0.94289 0.60668 1.00895 0.0
H258 H 0.0131 0.66844 0.96051 0.0
H259 H 0.97461 0.69244 0.94327 0.0
H260 H 0.09075 0.45943 0.07007 0.0
H261 H 0.04777 0.48089 0.0643 0.0
H262 H 1.00074 0.42857 0.13483 0.0
H263 H 0.04346 0.40625 0.14037 0.0
H264 H 0.29785 0.25825 0.2204 0.0
H265 H 0.27919 0.22803 0.26283 0.0
H266 H 0.35296 0.28349 0.31279 0.0
H267 H 0.37161 0.31371 0.26988 0.0
H268 H 0.30767 0.19753 0.30382 0.0
H269 H 0.27126 0.29023 0.34929 0.0
H270 H 0.28184 0.28961 0.31232 0.0
H271 H 0.31117 0.29715 0.33957 0.0
C272 C 0.31057 0.26322 0.24029 0.0
C273 C 0.33626 0.28777 0.24215 0.0
C274 C 0.2999 0.24618 0.26447 0.0
C275 C 0.31457 0.25372 0.29093 0.0
C276 C 0.34124 0.27749 0.29255 0.0
H277 H 0.23915 0.14185 0.43904 0.0
H278 H 0.27645 0.17381 0.40674 0.0
C279 C 0.352 0.29452 0.26819 0.0
C280 C 0.29993 0.23806 0.31686 0.0
H281 H 0.25611 0.24521 0.37381 0.0
C282 C 0.29685 0.20798 0.31947 0.0
C283 C 0.28551 0.25183 0.33689 0.0
C284 C 0.28732 0.28394 0.33446 0.0
C285 C 0.27887 0.19104 0.34115 0.0
C286 C 0.26391 0.2047 0.36081 0.0
C287 C 0.26779 0.23494 0.35874 0.0
C288 C 0.24199 0.18749 0.38205 0.0
C289 C 0.2747 0.15844 0.34197 0.0
C290 C 0.21043 0.18548 0.37943 0.0
C291 C 0.18907 0.16725 0.39778 0.0
C292 C 0.19895 0.15076 0.41912 0.0
C293 C 0.23078 0.15386 0.42246 0.0
C294 C 0.25211 0.17211 0.40409 0.0
H295 H 0.28349 0.1507 0.32239 0.0
H296 H 0.28751 0.15286 0.36058 0.0
H297 H 0.24994 0.14639 0.34448 0.0
H298 H 0.20222 0.19726 0.36253 0.0
H299 H 0.16474 0.16517 0.39449 0.0
H300 H 0.23906 0.87486 0.74302 0.0
H301 H 0.26218 0.90851 0.78142 0.0
H302 H 0.21566 0.84414 0.8438 0.0
H303 H 0.19157 0.81097 0.80516 0.0
H304 H 0.22079 0.90224 0.86 0.0
H305 H 0.33279 0.88773 0.82464 0.0
H306 H 0.31243 0.90215 0.79756 0.0
H307 H 0.29614 0.86567 0.81129 0.0
C308 C 0.23271 0.86853 0.76487 0.0
C309 C 0.21346 0.84055 0.77132 0.0
C310 C 0.24628 0.8875 0.78679 0.0
C311 C 0.24118 0.87849 0.81542 0.0
C312 C 0.22 0.85144 0.82184 0.0
H313 H 0.33065 0.93656 0.9777 0.0
H314 H 0.29713 0.91005 0.93949 0.0
C315 C 0.20623 0.83258 0.79989 0.0
C316 C 0.26025 0.89574 0.83847 0.0
H317 H 0.33468 0.92045 0.86247 0.0
C318 C 0.24568 0.90628 0.86057 0.0
C319 C 0.2927 0.90059 0.83929 0.0
C320 C 0.30948 0.88823 0.81711 0.0
C321 C 0.26284 0.92205 0.88326 0.0
C322 C 0.29526 0.9271 0.88386 0.0
C323 C 0.3098 0.91659 0.86179 0.0
C324 C 0.3147 0.94331 0.90718 0.0
C325 C 0.24635 0.93353 0.90626 0.0
C326 C 0.33598 0.97043 0.90142 0.0
C327 C 0.35513 0.98551 0.92308 0.0
C328 C 0.35357 0.97357 0.95084 0.0
C329 C 0.33246 0.94619 0.95648 0.0
C330 C 0.31311 0.9312 0.9348 0.0
H331 H 0.22225 0.93253 0.89997 0.0
H332 H 0.24564 0.92016 0.92598 0.0
H333 H 0.25892 0.95652 0.91134 0.0
H334 H 0.33773 0.97992 0.88013 0.0
H335 H 0.37146 1.00638 0.91802 0.0
H336 H 0.667 0.41077 0.78817 0.0
H337 H 0.65006 0.43257 0.74541 0.0
H338 H 0.56029 0.42031 0.78289 0.0
H339 H 0.57789 0.39993 0.82621 0.0
H340 H 0.60621 0.41165 0.70702 0.0
H341 H 0.57997 0.50501 0.76011 0.0
H342 H 0.60033 0.48206 0.77803 0.0
H343 H 0.55884 0.47042 0.77509 0.0
C344 C 0.6438 0.41311 0.78734 0.0
C345 C 0.62386 0.40397 0.81059 0.0
C346 C 0.63403 0.42538 0.76285 0.0
C347 C 0.60404 0.42872 0.76102 0.0
C348 C 0.58379 0.41878 0.78397 0.0
H349 H 0.511 0.45681 0.60369 0.0
H350 H 0.53083 0.43671 0.6456 0.0
C351 C 0.59368 0.40674 0.80857 0.0
C352 C 0.59392 0.44211 0.73493 0.0
H353 H 0.56238 0.49617 0.71205 0.0
C354 C 0.59676 0.43022 0.70815 0.0
C355 C 0.58209 0.46674 0.73617 0.0
C356 C 0.58041 0.48201 0.76385 0.0
C357 C 0.58758 0.4418 0.6828 0.0
C358 C 0.57438 0.46552 0.68419 0.0
C359 C 0.57214 0.4778 0.71089 0.0
C360 C 0.5626 0.47783 0.65829 0.0
C361 C 0.59276 0.4288 0.65473 0.0
C362 C 0.57309 0.50789 0.65168 0.0
C363 C 0.56141 0.5196 0.62783 0.0
C364 C 0.53893 0.5015 0.61002 0.0
C365 C 0.52849 0.47141 0.6167 0.0
C366 C 0.54 0.45979 0.64064 0.0
H367 H 0.61149 0.41783 0.65647 0.0
H368 H 0.5713 0.41208 0.64834 0.0
H369 H 0.5988 0.44579 0.63762 0.0
H370 H 0.59038 0.52234 0.665 0.0
H371 H 0.56993 0.54286 0.62343 0.0
H372 H 0.92883 0.68832 0.33349 0.0
H373 H 0.94985 0.67023 0.29142 0.0
H374 H 0.88268 0.69501 0.23797 0.0
H375 H 0.86208 0.71322 0.28001 0.0
H376 H 0.88189 0.63516 0.23322 0.0
H377 H 1.00096 0.708 0.22032 0.0
H378 H 0.99088 0.69385 0.25579 0.0
H379 H 0.97169 0.7187 0.24001 0.0
C380 C 0.91969 0.69124 0.31254 0.0
C381 C 0.89433 0.70293 0.30999 0.0
C382 C 0.93145 0.68057 0.28845 0.0
C383 C 0.91797 0.68117 0.26123 0.0
C384 C 0.89367 0.69428 0.25853 0.0
H385 H 0.96354 0.62665 0.09241 0.0
H386 H 0.95007 0.65271 0.13294 0.0
C387 C 0.88216 0.70512 0.28252 0.0
C388 C 0.92701 0.66581 0.23622 0.0
H389 H 0.98683 0.6656 0.19157 0.0
C390 C 0.90485 0.64191 0.22416 0.0
C391 C 0.95693 0.67444 0.22411 0.0
C392 C 0.98152 0.70028 0.23548 0.0
C393 C 0.91184 0.62638 0.20085 0.0
C394 C 0.94178 0.63483 0.18891 0.0
C395 C 0.96389 0.65893 0.20069 0.0
C396 C 0.95031 0.61888 0.16416 0.0
C397 C 0.88705 0.60103 0.18889 0.0
C398 C 0.955 0.59104 0.16795 0.0
C399 C 0.96295 0.57609 0.14479 0.0
C400 C 0.96613 0.5884 0.11702 0.0
C401 C 0.96115 0.61624 0.11329 0.0
C402 C 0.95357 0.63132 0.13656 0.0
H403 H 0.864 0.59938 0.19808 0.0
H404 H 0.88565 0.60327 0.16532 0.0
H405 H 0.89303 0.58034 0.19364 0.0
H406 H 0.9527 0.58089 0.18896 0.0
H407 H 0.96661 0.55481 0.14869 0.0
H408 H 0.42028 0.31363 0.19862 0.0
H409 H 0.44821 0.27694 0.18926 0.0
H410 H 0.36119 0.21179 0.17569 0.0
H411 H 0.33369 0.24875 0.18411 0.0
H412 H 0.4459 0.22284 0.21505 0.0
H413 H 0.40735 0.20942 0.10207 0.0
H414 H 0.40297 0.23911 0.12361 0.0
H415 H 0.3759 0.2034 0.12663 0.0
C416 C 0.4074 0.29137 0.19376 0.0
C417 C 0.37509 0.28366 0.19213 0.0
C418 C 0.4232 0.2705 0.18849 0.0
C419 C 0.40677 0.24175 0.1814 0.0
C420 C 0.37433 0.23395 0.18064 0.0
H421 H 0.44387 0.08179 0.13516 0.0
H422 H 0.42311 0.11986 0.15393 0.0
C423 C 0.35863 0.25486 0.1857 0.0
C424 C 0.4234 0.22005 0.17398 0.0
H425 H 0.43109 0.17423 0.12096 0.0
C426 C 0.44291 0.21235 0.19442 0.0
C427 C 0.41965 0.20663 0.14693 0.0
C428 C 0.40059 0.21525 0.12344 0.0
C429 C 0.45787 0.19075 0.18882 0.0
C430 C 0.45326 0.17674 0.16212 0.0
C431 C 0.43433 0.18489 0.14152 0.0
C432 C 0.46709 0.15295 0.15504 0.0
C433 C 0.4778 0.18241 0.21164 0.0
C434 C 0.49889 0.15882 0.15007 0.0
C435 C 0.51094 0.13703 0.13922 0.0
C436 C 0.49127 0.10914 0.13305 0.0
C437 C 0.45968 0.10304 0.13949 0.0
C438 C 0.44773 0.12477 0.15025 0.0
H439 H 0.4754 0.19221 0.23256 0.0
H440 H 0.47175 0.15824 0.21423 0.0
H441 H 0.50237 0.19011 0.20515 0.0
H442 H 0.51413 0.18058 0.15332 0.0
H443 H 0.53534 0.14247 0.13441 0.0
H444 H 0.21972 0.86124 0.68539 0.0
H445 H 0.19762 0.89814 0.66363 0.0
H446 H 0.11877 0.86989 0.71912 0.0
H447 H 0.14167 0.8335 0.74137 0.0
H448 H 0.1443 0.88418 0.63427 0.0
H449 H 0.13646 0.95801 0.72273 0.0
H450 H 0.15983 0.93278 0.72515 0.0
H451 H 0.11879 0.91999 0.73047 0.0
C452 C 0.198 0.86352 0.69321 0.0
C453 C 0.18217 0.84482 0.71482 0.0
C454 C 0.1854 0.88446 0.68087 0.0
C455 C 0.15662 0.8869 0.68985 0.0
C456 C 0.14128 0.86883 0.71226 0.0
H457 H 0.02721 0.9661 0.60544 0.0
H458 H 0.05203 0.93722 0.63632 0.0
C459 C 0.15417 0.84804 0.72485 0.0
C460 C 0.14151 0.90615 0.67364 0.0
H461 H 0.10977 0.96318 0.67953 0.0
C462 C 0.13696 0.90157 0.64418 0.0
C463 C 0.13181 0.92873 0.68663 0.0
C464 C 0.1372 0.93541 0.71793 0.0
C465 C 0.12288 0.91886 0.62737 0.0
C466 C 0.11308 0.94126 0.64035 0.0
C467 C 0.11736 0.94586 0.66978 0.0
C468 C 0.09842 0.9601 0.62334 0.0
C469 C 0.11828 0.91302 0.59584 0.0
C470 C 0.11648 0.98258 0.60609 0.0
C471 C 0.10246 0.99914 0.58844 0.0
C472 C 0.07012 0.99334 0.58768 0.0
C473 C 0.05216 0.97103 0.6054 0.0
C474 C 0.06625 0.95461 0.62316 0.0
H475 H 0.12421 0.89281 0.58959 0.0
H476 H 0.09392 0.91094 0.58965 0.0
H477 H 0.13311 0.93178 0.58362 0.0
H478 H 0.14139 0.98699 0.606 0.0
H479 H 0.11696 1.01617 0.5751 0.0
H480 H 0.71627 0.37372 0.87338 0.0
H481 H 0.76103 0.39255 0.90496 0.0
H482 H 0.70868 0.43891 0.95289 0.0
H483 H 0.6636 0.41855 0.92209 0.0
H484 H 0.79263 0.44607 0.90947 0.0
H485 H 0.74954 0.40945 1.01752 0.0
H486 H 0.72825 0.39484 0.98572 0.0
H487 H 0.7258 0.4291 0.99997 0.0
C488 C 0.71418 0.38696 0.89144 0.0
C489 C 0.68651 0.39413 0.89599 0.0
C490 C 0.73974 0.39799 0.90929 0.0
C491 C 0.73831 0.41694 0.9317 0.0
C492 C 0.71029 0.42366 0.93647 0.0
H493 H 0.90397 0.54599 0.9927 0.0
H494 H 0.85479 0.52065 0.97016 0.0
C495 C 0.68455 0.41214 0.91888 0.0
C496 C 0.76688 0.43183 0.94803 0.0
H497 H 0.7963 0.4488 1.01519 0.0
C498 C 0.79343 0.44637 0.93261 0.0
C499 C 0.76827 0.43212 0.97826 0.0
C500 C 0.74153 0.41527 0.99631 0.0
C501 C 0.82101 0.46136 0.94639 0.0
C502 C 0.82191 0.463 0.97658 0.0
C503 C 0.79556 0.44806 0.99207 0.0
C504 C 0.85024 0.47943 0.99237 0.0
C505 C 0.84909 0.4746 0.92832 0.0
C506 C 0.86322 0.4654 1.01374 0.0
C507 C 0.89097 0.48013 0.02724 0.0
C508 C 0.90649 0.50914 1.01946 0.0
C509 C 0.89283 0.52353 0.99891 0.0
C510 C 0.86481 0.50896 0.98581 0.0
H511 H 0.84737 0.46369 0.90732 0.0
H512 H 0.85093 0.49804 0.92417 0.0
H513 H 0.87058 0.473 0.93918 0.0
H514 H 0.85239 0.44273 1.0194 0.0
H515 H 0.90088 0.46837 0.04294 0.0
H516 H 0.82015 0.63491 0.38767 0.0
H517 H 0.77186 0.61025 0.41249 0.0
H518 H 0.74065 0.68758 0.40089 0.0
H519 H 0.78825 0.71151 0.37513 0.0
H520 H 0.74849 0.62334 0.46095 0.0
H521 H 0.66559 0.62679 0.37398 0.0
H522 H 0.70658 0.63511 0.36797 0.0
H523 H 0.69015 0.66251 0.38187 0.0
C524 C 0.80259 0.64626 0.38999 0.0
C525 C 0.80761 0.67488 0.37914 0.0
C526 C 0.77513 0.63232 0.40433 0.0
C527 C 0.75214 0.64675 0.40818 0.0
C528 C 0.75743 0.67554 0.39756 0.0
H529 H 0.58137 0.61567 0.50258 0.0
H530 H 0.62937 0.6357 0.47625 0.0
C531 C 0.78474 0.68934 0.38305 0.0
C532 C 0.72325 0.63226 0.42422 0.0
H533 H 0.64436 0.6158 0.42074 0.0
C534 C 0.72574 0.62144 0.45199 0.0
C535 C 0.69339 0.6296 0.41266 0.0
C536 C 0.68871 0.63884 0.38238 0.0
C537 C 0.69942 0.60894 0.46869 0.0
C538 C 0.6697 0.60702 0.45736 0.0
C539 C 0.66714 0.61746 0.42952 0.0
C540 C 0.64098 0.59465 0.47417 0.0
C541 C 0.70357 0.59855 0.49864 0.0
C542 C 0.63139 0.56482 0.48177 0.0
C543 C 0.60379 0.5532 0.49676 0.0
C544 C 0.58521 0.5712 0.50458 0.0
C545 C 0.59509 0.60114 0.49712 0.0
C546 C 0.62253 0.61266 0.48196 0.0
H547 H 0.72793 0.60647 0.5061 0.0
H548 H 0.6886 0.60605 0.51371 0.0
H549 H 0.69667 0.57427 0.49926 0.0
H550 H 0.64501 0.55039 0.4757 0.0
H551 H 0.59691 0.53004 0.50198 0.0
H552 H 0.29194 0.30888 0.14404 0.0
H553 H 0.24981 0.32554 0.12256 0.0
H554 H 0.2816 0.40694 0.16777 0.0
H555 H 0.32419 0.3904 0.18857 0.0
H556 H 0.20523 0.33703 0.15569 0.0
H557 H 0.26051 0.43445 0.08919 0.0
H558 H 0.28063 0.40827 0.10072 0.0
H559 H 0.27633 0.43605 0.12466 0.0
C560 C 0.29052 0.33076 0.14837 0.0
C561 C 0.31126 0.3486 0.1676 0.0
C562 C 0.26639 0.34016 0.13636 0.0
C563 C 0.2627 0.36757 0.14338 0.0
C564 C 0.28436 0.38598 0.16157 0.0
H565 H 0.09684 0.42125 0.1564 0.0
H566 H 0.14274 0.40418 0.16374 0.0
C567 C 0.30854 0.37656 0.17352 0.0
C568 C 0.23424 0.3753 0.13467 0.0
H569 H 0.2077 0.4283 0.10202 0.0
C570 C 0.20575 0.35681 0.14365 0.0
C571 C 0.23495 0.40101 0.11884 0.0
C572 C 0.26472 0.42096 0.10754 0.0
C573 C 0.17802 0.36381 0.13801 0.0
C574 C 0.17887 0.39019 0.12336 0.0
C575 C 0.2072 0.40821 0.1135 0.0
C576 C 0.15064 0.3998 0.11877 0.0
C577 C 0.14804 0.34294 0.14784 0.0
C578 C 0.14008 0.40324 0.09104 0.0
C579 C 0.11372 0.41282 0.08676 0.0
C580 C 0.0976 0.41938 0.11016 0.0
C581 C 0.10831 0.41584 0.13793 0.0
C582 C 0.13461 0.4062 0.14217 0.0
H583 H 0.15042 0.32059 0.15188 0.0
H584 H 0.14095 0.35095 0.16808 0.0
H585 H 0.12939 0.3416 0.13181 0.0
H586 H 0.15219 0.39841 0.07272 0.0
H587 H 0.10594 0.41504 0.06511 0.0
H588 H 0.67322 0.32883 0.88935 0.0
H589 H 0.6586 0.28555 0.92101 0.0
H590 H 0.57081 0.30205 0.93613 0.0
H591 H 0.58576 0.34559 0.90492 0.0
H592 H 0.63764 0.27889 0.98054 0.0
H593 H 0.54881 0.21735 0.90422 0.0
H594 H 0.57885 0.24963 0.89387 0.0
H595 H 0.54591 0.25308 0.91324 0.0
C596 C 0.65117 0.32356 0.9 0.0
C597 C 0.63064 0.34053 0.89483 0.0
C598 C 0.6427 0.29873 0.91788 0.0
C599 C 0.61343 0.2903 0.93063 0.0
C600 C 0.59332 0.30784 0.92618 0.0
H601 H 0.50833 0.14039 0.0297 0.0
H602 H 0.52681 0.18596 1.00231 0.0
C603 C 0.60184 0.33269 0.90845 0.0
C604 C 0.60348 0.26277 0.94789 0.0
H605 H 0.55087 0.19531 0.94948 0.0
C606 C 0.61876 0.26054 0.97374 0.0
C607 C 0.57881 0.23886 0.939 0.0
C608 C 0.56223 0.23959 0.91097 0.0
C609 C 0.60955 0.23534 0.99127 0.0
C610 C 0.58484 0.21137 0.98238 0.0
C611 C 0.56974 0.21361 0.9564 0.0
C612 C 0.57403 0.18383 0.99969 0.0
C613 C 0.6258 0.23503 1.01955 0.0
C614 C 0.59426 0.16712 1.00721 0.0
C615 C 0.58377 0.14105 1.02306 0.0
C616 C 0.55269 0.13086 0.03148 0.0
C617 C 0.53241 0.14749 1.02365 0.0
C618 C 0.54296 0.17361 1.00794 0.0
H619 H 0.63759 0.25754 0.0268 0.0
H620 H 0.60936 0.22374 0.0363 0.0
H621 H 0.64361 0.22317 1.01724 0.0
H622 H 0.61813 0.17403 1.00052 0.0
H623 H 0.60002 0.12876 0.02848 0.0
H624 H 0.87593 0.7759 0.3352 0.0
H625 H 0.9023 0.82329 0.35616 0.0
H626 H 0.96144 0.78256 0.40434 0.0
H627 H 0.93467 0.73515 0.38331 0.0
H628 H 0.93141 0.81133 0.43887 0.0
H629 H 0.98435 0.88582 0.35005 0.0
H630 H 0.9444 0.86706 0.34394 0.0
H631 H 0.97234 0.84651 0.34648 0.0
C632 C 0.89585 0.77749 0.34886 0.0
C633 C 0.90381 0.75191 0.35689 0.0
C634 C 0.91072 0.80459 0.36123 0.0
C635 C 0.93407 0.80684 0.38198 0.0
C636 C 0.94363 0.78166 0.3884 0.0
H637 H 0.04019 0.96721 0.46659 0.0
H638 H 0.02257 0.92297 0.43811 0.0
C639 C 0.92878 0.7546 0.3759 0.0
C640 C 0.94581 0.83426 0.39922 0.0
H641 H 0.97928 0.9083 0.39427 0.0
C642 C 0.94205 0.83248 0.42905 0.0
C643 C 0.95981 0.86205 0.3867 0.0
C644 C 0.96577 0.86555 0.35507 0.0
C645 C 0.95136 0.85746 0.44645 0.0
C646 C 0.96457 0.88538 0.43385 0.0
C647 C 0.96886 0.88711 0.40408 0.0
C648 C 0.97491 0.9128 0.45127 0.0
C649 C 0.94742 0.8536 0.47832 0.0
C650 C 0.95407 0.92242 0.46818 0.0
C651 C 0.96412 0.94796 0.48462 0.0
C652 C 0.99533 0.96464 0.4846 0.0
C653 C 0.01602 0.95505 0.46741 0.0
C654 C 1.00594 0.92966 0.45093 0.0
H655 H 0.9444 0.83052 0.48518 0.0
H656 H 0.96761 0.86777 0.48984 0.0
H657 H 0.92654 0.85989 0.48474 0.0
H658 H 0.92989 0.91026 0.46856 0.0
H659 H 0.94741 0.95457 0.4974 0.0
H660 H 0.20948 0.7275 0.73929 0.0
H661 H 0.24319 0.69807 0.72314 0.0
H662 H 0.28553 0.76621 0.66255 0.0
H663 H 0.25257 0.79565 0.67915 0.0
H664 H 0.25548 0.67818 0.66675 0.0
H665 H 0.35678 0.75738 0.7159 0.0
H666 H 0.31749 0.75636 0.72424 0.0
H667 H 0.33496 0.77387 0.69192 0.0
C668 C 0.22565 0.73571 0.72218 0.0
C669 C 0.22853 0.76356 0.71026 0.0
C670 C 0.2448 0.71906 0.71302 0.0
C671 C 0.26702 0.73025 0.69196 0.0
C672 C 0.26871 0.75741 0.67904 0.0
H673 H 0.38449 0.65734 0.59175 0.0
H674 H 0.34301 0.67538 0.61071 0.0
C675 C 0.24973 0.77402 0.68826 0.0
C676 C 0.2899 0.71465 0.68462 0.0
H677 H 0.36741 0.72255 0.68456 0.0
C678 C 0.27994 0.68766 0.67083 0.0
C679 C 0.32167 0.72691 0.69051 0.0
C680 C 0.33342 0.75509 0.7067 0.0
C681 C 0.30122 0.67311 0.66168 0.0
C682 C 0.33316 0.68624 0.66614 0.0
C683 C 0.34292 0.71267 0.68094 0.0
C684 C 0.35706 0.67358 0.65488 0.0
C685 C 0.28934 0.64387 0.64738 0.0
C686 C 0.37911 0.66727 0.67337 0.0
C687 C 0.403 0.65724 0.66256 0.0
C688 C 0.40524 0.65342 0.63307 0.0
C689 C 0.38305 0.65967 0.61461 0.0
C690 C 0.35927 0.66982 0.62542 0.0
H691 H 0.26503 0.63295 0.65335 0.0
H692 H 0.29006 0.64722 0.62389 0.0
H693 H 0.30376 0.62909 0.65307 0.0
H694 H 0.37791 0.67023 0.69616 0.0
H695 H 0.4196 0.65231 0.6773 0.0
H696 H 0.76475 0.84064 0.85462 0.0
H697 H 0.79642 0.84986 0.8114 0.0
H698 H 0.71631 0.80728 0.76091 0.0
H699 H 0.68464 0.79828 0.80435 0.0
H700 H 0.80851 0.81413 0.76662 0.0
H701 H 0.74336 0.89168 0.7292 0.0
H702 H 0.7405 0.87734 0.76522 0.0
H703 H 0.72081 0.8548 0.73658 0.0
C704 C 0.75422 0.83266 0.83434 0.0
C705 C 0.72246 0.81882 0.83251 0.0
C706 C 0.7722 0.83794 0.80973 0.0
C707 C 0.75858 0.82957 0.78296 0.0
C708 C 0.72713 0.81424 0.78134 0.0
H709 H 0.84354 0.90608 0.62224 0.0
H710 H 0.80907 0.87065 0.6542 0.0
C711 C 0.70914 0.80903 0.80599 0.0
C712 C 0.7768 0.83946 0.75679 0.0
H713 H 0.78514 0.88851 0.70156 0.0
C714 C 0.80322 0.83009 0.75212 0.0
C715 C 0.76976 0.86025 0.73793 0.0
C716 C 0.74223 0.87185 0.74245 0.0
C717 C 0.82332 0.84162 0.72951 0.0
C718 C 0.81702 0.8634 0.71147 0.0
C719 C 0.78983 0.87171 0.71535 0.0
C720 C 0.83984 0.88049 0.69075 0.0
C721 C 0.85136 0.83075 0.72543 0.0
C722 C 0.86873 0.89737 0.70056 0.0
C723 C 0.88836 0.91753 0.68242 0.0
C724 C 0.87939 0.92137 0.65414 0.0
C725 C 0.85113 0.90343 0.64387 0.0
C726 C 0.83141 0.88327 0.66211 0.0
H727 H 0.84734 0.808 0.73373 0.0
H728 H 0.8578 0.83139 0.70258 0.0
H729 H 0.87111 0.84489 0.73749 0.0
H730 H 0.87546 0.8961 0.7227 0.0
H731 H 0.91013 0.93088 0.69082 0.0
H732 H 0.87941 0.28804 0.34161 0.0
H733 H 0.86903 0.26 0.29677 0.0
H734 H 0.77216 0.23111 0.31767 0.0
H735 H 0.78268 0.25848 0.3621 0.0
H736 H 0.79817 0.18631 0.29853 0.0
H737 H 0.82277 0.28423 0.22639 0.0
H738 H 0.85153 0.28096 0.25225 0.0
H739 H 0.81611 0.28695 0.26404 0.0
C740 C 0.85606 0.27555 0.33637 0.0
C741 C 0.83166 0.27564 0.35466 0.0
C742 C 0.85013 0.25972 0.31093 0.0
C743 C 0.81977 0.24381 0.30385 0.0
C744 C 0.7957 0.24334 0.32269 0.0
H745 H 0.69243 0.18834 0.17609 0.0
H746 H 0.7332 0.21481 0.20828 0.0
C747 C 0.80161 0.25907 0.34786 0.0
C748 C 0.81201 0.22791 0.27671 0.0
H749 H 0.79621 0.23908 0.20676 0.0
C750 C 0.79843 0.19761 0.27821 0.0
C751 C 0.81233 0.24293 0.25043 0.0
C752 C 0.82634 0.27559 0.24792 0.0
C753 C 0.78289 0.18221 0.25468 0.0
C754 C 0.78166 0.19752 0.22873 0.0
C755 C 0.79729 0.22745 0.22666 0.0
C756 C 0.76034 0.18392 0.20534 0.0
C757 C 0.76575 0.15025 0.25863 0.0
C758 C 0.76271 0.15841 0.19206 0.0
C759 C 0.73901 0.14282 0.17413 0.0
C760 C 0.71278 0.15276 0.16885 0.0
C761 C 0.71188 0.17966 0.18029 0.0
C762 C 0.73537 0.19501 0.19844 0.0
H763 H 0.76471 0.1432 0.28139 0.0
H764 H 0.74177 0.14573 0.25024 0.0
H765 H 0.77768 0.13669 0.24667 0.0
H766 H 0.78213 0.14981 0.19664 0.0
H767 H 0.74051 0.12218 0.16575 0.0
H768 H 0.42641 0.68798 0.2614 0.0
H769 H 0.44745 0.66793 0.3033 0.0
H770 H 0.37913 0.68859 0.35641 0.0
H771 H 0.35806 0.70827 0.3144 0.0
H772 H 0.4473 0.69781 0.38016 0.0
H773 H 0.38594 0.58794 0.338 0.0
H774 H 0.40954 0.61428 0.31367 0.0
H775 H 0.37513 0.62051 0.32774 0.0
C776 C 0.41694 0.68941 0.28229 0.0
C777 C 0.39111 0.70017 0.28492 0.0
C778 C 0.42864 0.67766 0.30612 0.0
C779 C 0.41472 0.67659 0.33296 0.0
C780 C 0.39033 0.68931 0.33597 0.0
H781 H 0.43843 0.60084 0.50054 0.0
H782 H 0.42501 0.62939 0.46107 0.0
C783 C 0.3785 0.70081 0.3121 0.0
C784 C 0.42318 0.65942 0.35703 0.0
H785 H 0.41398 0.58922 0.38076 0.0
C786 C 0.4401 0.67408 0.38034 0.0
C787 C 0.41372 0.62846 0.35723 0.0
C788 C 0.39492 0.61167 0.33297 0.0
C789 C 0.44824 0.65856 0.40365 0.0
C790 C 0.43842 0.62749 0.40407 0.0
C791 C 0.42151 0.61295 0.38062 0.0
C792 C 0.44575 0.60956 0.42829 0.0
C793 C 0.468 0.67568 0.42721 0.0
C794 C 0.46067 0.58785 0.42312 0.0
C795 C 0.46787 0.57107 0.44563 0.0
C796 C 0.46035 0.57555 0.47397 0.0
C797 C 0.44476 0.59684 0.47906 0.0
C798 C 0.43735 0.61347 0.45647 0.0
H799 H 0.481 0.69796 0.41982 0.0
H800 H 0.45294 0.67818 0.44501 0.0
H801 H 0.48473 0.66426 0.43555 0.0
H802 H 0.46723 0.58416 0.40163 0.0
H803 H 0.47994 0.55498 0.4408 0.0
H804 H 0.16442 0.41083 0.81151 0.0
H805 H 0.14571 0.43289 0.85202 0.0
H806 H 0.0577 0.4205 0.80962 0.0
H807 H 0.07713 0.3998 0.7684 0.0
H808 H 0.0738 0.47254 0.83298 0.0
H809 H 0.09094 0.39429 0.91554 0.0
H810 H 0.12619 0.41198 0.8975 0.0
H811 H 0.09454 0.3883 0.87799 0.0
C812 C 0.14113 0.41292 0.81078 0.0
C813 C 0.12229 0.40344 0.78665 0.0
C814 C 0.13022 0.42522 0.83421 0.0
C815 C 0.09989 0.42797 0.83451 0.0
C816 C 0.08108 0.41856 0.8103 0.0
H817 H 1.0083 0.46428 0.98892 0.0
H818 H 0.02637 0.4422 0.94817 0.0
C819 C 0.0921 0.40646 0.78675 0.0
C820 C 0.08814 0.44134 0.85954 0.0
H821 H 0.08048 0.43759 0.93239 0.0
C822 C 0.07519 0.46474 0.85468 0.0
C823 C 0.0893 0.43114 0.88807 0.0
C824 C 0.10068 0.40486 0.8951 0.0
C825 C 0.06401 0.47835 0.87721 0.0
C826 C 0.06642 0.46899 0.90586 0.0
C827 C 0.07888 0.44526 0.91067 0.0
C828 C 0.05552 0.48291 0.931 0.0
C829 C 0.04892 0.50216 0.86985 0.0
C830 C 0.06601 0.51329 0.93568 0.0
C831 C 0.05543 0.5261 0.959 0.0
C832 C 0.03435 0.50888 0.97868 0.0
C833 C 0.02442 0.4784 0.97433 0.0
C834 C 0.03484 0.46566 0.95091 0.0
H835 H 0.0403 0.50045 0.84746 0.0
H836 H 0.02928 0.50132 0.88423 0.0
H837 H 0.06618 0.52379 0.8721 0.0
H838 H 0.08263 0.52722 0.92138 0.0
H839 H 0.06391 0.54956 0.96164 0.0
H840 H 0.6894 0.86662 0.93162 0.0
H841 H 0.66002 0.8971 0.95287 0.0
H842 H 0.58509 0.86259 0.89374 0.0
H843 H 0.61435 0.83124 0.87306 0.0
H844 H 0.63943 0.94006 0.92444 0.0
H845 H 0.54137 0.85386 0.97125 0.0
H846 H 0.57661 0.84639 0.96014 0.0
H847 H 0.54873 0.85062 0.93398 0.0
C848 C 0.66637 0.86509 0.92368 0.0
C849 C 0.65381 0.84638 0.9011 0.0
C850 C 0.64974 0.88265 0.93558 0.0
C851 C 0.62026 0.88189 0.92506 0.0
C852 C 0.60757 0.86313 0.90249 0.0
H853 H 0.50893 0.99269 0.9918 0.0
H854 H 0.52645 0.96035 0.95956 0.0
C855 C 0.62424 0.84541 0.89063 0.0
C856 C 0.6037 0.9017 0.9373 0.0
H857 H 0.54188 0.90292 0.9783 0.0
C858 C 0.61791 0.93195 0.93593 0.0
C859 C 0.57553 0.89104 0.95212 0.0
C860 C 0.55965 0.85871 0.95473 0.0
C861 C 0.60533 0.95176 0.9499 0.0
C862 C 0.57796 0.94102 0.96574 0.0
C863 C 0.56286 0.91096 0.96601 0.0
C864 C 0.5669 0.96034 0.98479 0.0
C865 C 0.62185 0.98402 0.94838 0.0
C866 C 0.58375 0.97065 1.00962 0.0
C867 C 0.57381 0.98883 0.02804 0.0
C868 C 0.54682 0.99718 1.02196 0.0
C869 C 0.52988 0.98676 0.99701 0.0
C870 C 0.53977 0.96827 0.97863 0.0
H871 H 0.63834 0.98938 0.93034 0.0
H872 H 0.60505 0.99713 0.94604 0.0
H873 H 0.63503 0.99058 0.9685 0.0
H874 H 0.60463 0.96453 1.01478 0.0
H875 H 0.58747 0.99646 0.047 0.0
H876 H 0.82876 0.22871 0.391 0.0
H877 H 0.85565 0.19097 0.39832 0.0
H878 H 0.93408 0.25569 0.43332 0.0
H879 H 0.90795 0.29378 0.42391 0.0
H880 H 0.95271 0.21768 0.40132 0.0
H881 H 0.8616 0.15675 0.47583 0.0
H882 H 0.8477 0.1605 0.44038 0.0
H883 H 0.86263 0.19248 0.46185 0.0
C884 C 0.85205 0.23493 0.3995 0.0
C885 C 0.86646 0.26409 0.40681 0.0
C886 C 0.86722 0.21331 0.40411 0.0
C887 C 0.89664 0.22036 0.41694 0.0
C888 C 0.91136 0.24968 0.42348 0.0
H889 H 0.97696 0.11757 0.52478 0.0
H890 H 0.95238 0.15074 0.50055 0.0
C891 C 0.89641 0.27135 0.41838 0.0
C892 C 0.91156 0.1972 0.42508 0.0
H893 H 0.90245 0.13637 0.4673 0.0
C894 C 0.9417 0.19978 0.41563 0.0
C895 C 0.89722 0.17398 0.44394 0.0
C896 C 0.86564 0.17083 0.45633 0.0
C897 C 0.95823 0.18032 0.4252 0.0
C898 C 0.94389 0.15723 0.44413 0.0
C899 C 0.91336 0.15404 0.45269 0.0
C900 C 0.96084 0.13795 0.45794 0.0
C901 C 0.99133 0.18553 0.41605 0.0
C902 C 0.97431 0.11991 0.44204 0.0
C903 C 0.98892 0.10102 0.45598 0.0
C904 C 0.98964 0.09954 0.48596 0.0
C905 C 0.97646 0.11789 0.50165 0.0
C906 C 0.96239 0.13692 0.48782 0.0
H907 H 1.00088 0.20773 0.4066 0.0
H908 H 1.00615 0.18289 0.43441 0.0
H909 H 0.99254 0.16926 0.39971 0.0
H910 H 0.97293 0.11994 0.41897 0.0
H911 H 0.99878 0.08701 0.44338 0.0
H912 H 0.33395 0.67806 0.16995 0.0
H913 H 0.28747 0.65673 0.14132 0.0
H914 H 0.23228 0.64411 0.21759 0.0
H915 H 0.27863 0.66706 0.24587 0.0
H916 H 0.2459 0.605 0.14058 0.0
H917 H 0.18743 0.68885 0.16856 0.0
H918 H 0.22728 0.69249 0.17763 0.0
H919 H 0.1968 0.67013 0.19938 0.0
C920 C 0.3118 0.67086 0.18045 0.0
C921 C 0.30969 0.67451 0.20997 0.0
C922 C 0.28531 0.65854 0.16418 0.0
C923 C 0.2562 0.64943 0.17716 0.0
C924 C 0.25431 0.65174 0.20693 0.0
H925 H 0.08971 0.53837 0.0988 0.0
H926 H 0.13831 0.55782 0.12443 0.0
C927 C 0.28079 0.66443 0.22315 0.0
C928 C 0.22793 0.63782 0.15946 0.0
H929 H 0.15711 0.64725 0.14385 0.0
C930 C 0.22653 0.61432 0.14121 0.0
C931 C 0.20288 0.65035 0.15977 0.0
C932 C 0.20374 0.67704 0.17715 0.0
C933 C 0.20064 0.6027 0.12367 0.0
C934 C 0.17498 0.61432 0.12502 0.0
C935 C 0.17661 0.63812 0.14295 0.0
C936 C 0.1461 0.60214 0.10826 0.0
C937 C 0.20144 0.57854 0.10343 0.0
C938 C 0.13373 0.62063 0.09107 0.0
C939 C 0.10552 0.60967 0.07679 0.0
C940 C 0.08917 0.57991 0.07927 0.0
C941 C 0.10186 0.56134 0.0961 0.0
C942 C 0.12983 0.5724 0.11067 0.0
H943 H 0.22554 0.57899 0.09815 0.0
H944 H 0.1904 0.55707 0.11372 0.0
H945 H 0.18884 0.58019 0.08326 0.0
H946 H 0.14576 0.64369 0.08894 0.0
H947 H 0.09639 0.62457 0.06404 0.0
H948 H 0.16245 0.39244 0.66922 0.0
H949 H 0.2069 0.40995 0.63705 0.0
H950 H 0.26897 0.41058 0.70787 0.0
H951 H 0.2246 0.39298 0.73973 0.0
H952 H 0.25364 0.46316 0.64234 0.0
H953 H 0.30446 0.3697 0.64571 0.0
H954 H 0.26538 0.3664 0.65681 0.0
H955 H 0.29731 0.38193 0.68037 0.0
C956 C 0.18561 0.39565 0.67762 0.0
C957 C 0.19018 0.39121 0.70686 0.0
C958 C 0.211 0.40586 0.65934 0.0
C959 C 0.24144 0.41142 0.66989 0.0
C960 C 0.24586 0.40604 0.699 0.0
H961 H 0.41306 0.52894 0.60943 0.0
H962 H 0.36455 0.50465 0.63321 0.0
C963 C 0.22053 0.39606 0.71723 0.0
C964 C 0.26858 0.42468 0.65113 0.0
H965 H 0.33649 0.41492 0.62717 0.0
C966 C 0.27159 0.45246 0.63882 0.0
C967 C 0.29203 0.41076 0.64624 0.0
C968 C 0.2896 0.38043 0.65773 0.0
C969 C 0.29772 0.467 0.62266 0.0
C970 C 0.32178 0.45361 0.61879 0.0
C971 C 0.31828 0.4254 0.63027 0.0
C972 C 0.35105 0.46881 0.60358 0.0
C973 C 0.29928 0.49663 0.6098 0.0
C974 C 0.36011 0.45671 0.57906 0.0
C975 C 0.38801 0.47064 0.56528 0.0
C976 C 0.40776 0.49684 0.57593 0.0
C977 C 0.39855 0.50888 0.60048 0.0
C978 C 0.37062 0.49505 0.61409 0.0
H979 H 0.27601 0.50021 0.6079 0.0
H980 H 0.31364 0.5139 0.62375 0.0
H981 H 0.30998 0.4992 0.58834 0.0
H982 H 0.34556 0.43642 0.57055 0.0
H983 H 0.39433 0.46057 0.54658 0.0
H984 H 0.71547 0.75856 0.85597 0.0
H985 H 0.75503 0.73322 0.86708 0.0
H986 H 0.79088 0.79471 0.93429 0.0
H987 H 0.75195 0.82032 0.92262 0.0
H988 H 0.8366 0.78419 0.89917 0.0
H989 H 0.75477 0.68071 0.93801 0.0
H990 H 0.74688 0.69261 0.90286 0.0
H991 H 0.74375 0.71418 0.93323 0.0
C992 C 0.73187 0.76648 0.87308 0.0
C993 C 0.73049 0.79089 0.88886 0.0
C994 C 0.75426 0.75201 0.87951 0.0
C995 C 0.77551 0.76182 0.90183 0.0
C996 C 0.77451 0.78665 0.91716 0.0
H997 H 0.89055 0.67604 0.99661 0.0
H998 H 0.85193 0.69971 0.97946 0.0
C999 C 0.75217 0.80106 0.91072 0.0
C1000 C 0.79893 0.74642 0.90936 0.0
H1001 H 0.80747 0.68203 0.93629 0.0
C1002 C 0.83029 0.76181 0.90718 0.0
C1003 C 0.79053 0.71735 0.92008 0.0
C1004 C 0.75718 0.70023 0.92397 0.0
C1005 C 0.85355 0.74893 0.91556 0.0
C1006 C 0.84515 0.71976 0.92601 0.0
C1007 C 0.81379 0.70433 0.92808 0.0
C1008 C 0.86852 0.70522 0.93602 0.0
C1009 C 0.88686 0.76693 0.91395 0.0
C1010 C 0.89044 0.70022 0.91718 0.0
C1011 C 0.91252 0.68664 0.92691 0.0
C1012 C 0.9129 0.67763 0.95562 0.0
C1013 C 0.89067 0.68243 0.97432 0.0
C1014 C 0.86867 0.69604 0.96459 0.0
H1015 H 0.88901 0.79071 0.91178 0.0
H1016 H 0.89991 0.76331 0.93324 0.0
H1017 H 0.89774 0.76024 0.89506 0.0
H1018 H 0.89032 0.70661 0.89491 0.0
H1019 H 0.929 0.68281 0.91187 0.0
H1020 H 0.37223 0.77355 0.26433 0.0
H1021 H 0.39886 0.82283 0.24678 0.0
H1022 H 0.46168 0.78738 0.19986 0.0
H1023 H 0.43388 0.73799 0.21653 0.0
H1024 H 0.45377 0.86242 0.24329 0.0
H1025 H 0.41907 0.81749 0.13571 0.0
H1026 H 0.40674 0.79651 0.16788 0.0
H1027 H 0.44463 0.80011 0.15375 0.0
C1028 C 0.39273 0.77662 0.25147 0.0
C1029 C 0.4012 0.75214 0.24189 0.0
C1030 C 0.4077 0.80471 0.24107 0.0
C1031 C 0.4316 0.80878 0.22107 0.0
C1032 C 0.44264 0.78475 0.21448 0.0
H1033 H 0.53103 0.98135 0.15188 0.0
H1034 H 0.51551 0.93542 0.17889 0.0
C1035 C 0.4273 0.75661 0.22453 0.0
C1036 C 0.44242 0.83715 0.20499 0.0
H1037 H 0.44904 0.86677 0.13757 0.0
C1038 C 0.45282 0.86336 0.22017 0.0
C1039 C 0.44033 0.83861 0.17479 0.0
C1040 C 0.42678 0.81174 0.15707 0.0
C1041 C 0.46146 0.8908 0.20608 0.0
C1042 C 0.46065 0.89214 0.17581 0.0
C1043 C 0.45003 0.86591 0.1607 0.0
C1044 C 0.47022 0.92038 0.1593 0.0
C1045 C 0.47031 0.91805 0.22395 0.0
C1046 C 0.45058 0.92702 0.13825 0.0
C1047 C 0.45975 0.9531 0.12218 0.0
C1048 C 0.48869 0.9733 0.12696 0.0
C1049 C 0.50837 0.96655 0.1479 0.0
C1050 C 0.4994 0.9403 0.1636 0.0
H1051 H 0.46017 0.91384 0.24564 0.0
H1052 H 0.49579 0.92535 0.22649 0.0
H1053 H 0.46262 0.93608 0.21379 0.0
H1054 H 0.42801 0.91204 0.13428 0.0
H1055 H 0.44403 0.95754 0.10623 0.0
H1056 H 0.09101 0.34463 0.6895 0.0
H1057 H 0.078 0.30034 0.66037 0.0
H1058 H 0.16021 0.27979 0.69102 0.0
H1059 H 0.17367 0.32488 0.71926 0.0
H1060 H 0.15231 0.26582 0.63725 0.0
H1061 H 0.0393 0.21985 0.68894 0.0
H1062 H 0.04169 0.25451 0.67221 0.0
H1063 H 0.06696 0.25237 0.70176 0.0
C1064 C 0.10635 0.33069 0.68977 0.0
C1065 C 0.13324 0.33807 0.70673 0.0
C1066 C 0.09876 0.30516 0.67336 0.0
C1067 C 0.1175 0.28587 0.67399 0.0
C1068 C 0.14507 0.29392 0.69018 0.0
H1069 H 0.04793 0.10297 0.62019 0.0
H1070 H 0.06535 0.14865 0.64665 0.0
C1071 C 0.15287 0.31974 0.7063 0.0
C1072 C 0.10829 0.25741 0.65801 0.0
H1073 H 0.04841 0.19575 0.64714 0.0
C1074 C 0.1296 0.25048 0.63957 0.0
C1075 C 0.0789 0.23676 0.66123 0.0
C1076 C 0.05554 0.24107 0.68234 0.0
C1077 C 0.12229 0.22411 0.62407 0.0
C1078 C 0.09233 0.20418 0.62619 0.0
C1079 C 0.07123 0.21092 0.64499 0.0
C1080 C 0.0825 0.17601 0.60971 0.0
C1081 C 0.14723 0.21764 0.60628 0.0
C1082 C 0.0859 0.17564 0.57987 0.0
C1083 C 0.07636 0.14929 0.56468 0.0
C1084 C 0.06245 0.12256 0.57877 0.0
C1085 C 0.05855 0.12301 0.60853 0.0
C1086 C 0.06851 0.14928 0.62375 0.0
H1087 H 0.17062 0.22954 0.61418 0.0
H1088 H 0.14533 0.19386 0.60627 0.0
H1089 H 0.14509 0.225 0.58396 0.0
H1090 H 0.09555 0.19582 0.56812 0.0
H1091 H 0.07938 0.14999 0.54176 0.0
H1092 H 0.77181 0.28803 0.43882 0.0
H1093 H 0.73124 0.30816 0.45706 0.0
H1094 H 0.79127 0.39563 0.44532 0.0
H1095 H 0.83143 0.37517 0.42624 0.0
H1096 H 0.72566 0.34442 0.50042 0.0
H1097 H 0.71809 0.39635 0.39458 0.0
H1098 H 0.74037 0.37062 0.40041 0.0
H1099 H 0.75549 0.40806 0.41119 0.0
C1100 C 0.77638 0.31149 0.4409 0.0
C1101 C 0.80444 0.33022 0.43143 0.0
C1102 C 0.75332 0.32299 0.45117 0.0
C1103 C 0.75804 0.3534 0.45201 0.0
C1104 C 0.78695 0.37211 0.44428 0.0
H1105 H 0.63048 0.45595 0.48648 0.0
H1106 H 0.67662 0.43937 0.47968 0.0
C1107 C 0.80993 0.36055 0.43375 0.0
C1108 C 0.73188 0.36523 0.45892 0.0
H1109 H 0.68564 0.40471 0.43072 0.0
C1110 C 0.71696 0.35769 0.48524 0.0
C1111 C 0.72037 0.38226 0.43891 0.0
C1112 C 0.73417 0.3896 0.40958 0.0
C1113 C 0.69092 0.36688 0.49212 0.0
C1114 C 0.67953 0.38388 0.47212 0.0
C1115 C 0.69461 0.39173 0.44599 0.0
C1116 C 0.65168 0.39349 0.47762 0.0
C1117 C 0.6758 0.35851 0.52074 0.0
C1118 C 0.62241 0.37311 0.47845 0.0
C1119 C 0.59597 0.38251 0.48222 0.0
C1120 C 0.59846 0.41243 0.48534 0.0
C1121 C 0.62788 0.43272 0.48455 0.0
C1122 C 0.65423 0.42333 0.48057 0.0
H1123 H 0.69072 0.35023 0.53579 0.0
H1124 H 0.67015 0.37753 0.53043 0.0
H1125 H 0.65386 0.34101 0.51779 0.0
H1126 H 0.62002 0.35001 0.47579 0.0
H1127 H 0.57362 0.36641 0.48286 0.0
loop_
_geom_bond_atom_site_label_1
_geom_bond_atom_site_label_2
_geom_bond_distance
_geom_bond_site_symmetry_2
_ccdc_geom_bond_type
C0 N1 1.317 . S
C0 N2 1.348 . S
C0 C3 1.485 . S
N1 C0 1.317 . S
N1 N5 1.370 . S
N2 C0 1.348 . S
N2 C4 1.346 . S
C3 C0 1.485 . S
C3 H7 0.960 . S
C3 H8 0.961 . S
C3 H9 0.960 . S
C4 N2 1.346 . S
C4 N5 1.307 . S
C4 C6 1.486 . S
N5 N1 1.370 . S
N5 C4 1.307 . S
C6 C4 1.486 . S
C6 H10 0.960 . S
C6 H11 0.960 . S
C6 H12 0.959 . S
H7 C3 0.960 . S
H8 C3 0.961 . S
H9 C3 0.960 . S
H10 C6 0.960 . S
H11 C6 0.960 . S
H12 C6 0.959 . S
C13 N14 1.317 . S
C13 N15 1.348 . S
C13 C16 1.485 . S
N14 C13 1.317 . S
N14 N18 1.370 . S
N15 C13 1.348 . S
N15 C17 1.346 . S
C16 C13 1.485 . S
C16 H20 0.960 . S
C16 H21 0.961 . S
C16 H22 0.960 . S
C17 N15 1.346 . S
C17 N18 1.307 . S
C17 C19 1.486 . S
N18 N14 1.370 . S
N18 C17 1.307 . S
C19 C17 1.486 . S
C19 H23 0.960 . S
C19 H24 0.960 . S
C19 H25 0.959 . S
H20 C16 0.960 . S
H21 C16 0.961 . S
H22 C16 0.960 . S
H23 C19 0.960 . S
H24 C19 0.960 . S
H25 C19 0.959 . S
C26 N27 1.317 . S
C26 N28 1.348 . S
C26 C29 1.485 . S
N27 C26 1.317 . S
N27 N31 1.370 . S
N28 C26 1.348 . S
N28 C30 1.346 . S
C29 C26 1.485 . S
C29 H33 0.960 . S
C29 H34 0.961 . S
C29 H35 0.960 . S
C30 N28 1.346 . S
C30 N31 1.307 . S
C30 C32 1.486 . S
N31 N27 1.370 . S
N31 C30 1.307 . S
C32 C30 1.486 . S
C32 H36 0.960 . S
C32 H37 0.960 . S
C32 H38 0.959 . S
H33 C29 0.960 . S
H34 C29 0.961 . S
H35 C29 0.960 . S
H36 C32 0.960 . S
H37 C32 0.960 . S
H38 C32 0.959 . S
C39 N40 1.317 . S
C39 N41 1.348 . S
C39 C42 1.485 . S
N40 C39 1.317 . S
N40 N44 1.370 . S
N41 C39 1.348 . S
N41 C43 1.346 . S
C42 C39 1.485 . S
C42 H46 0.960 . S
C42 H47 0.961 . S
C42 H48 0.960 . S
C43 N41 1.346 . S
C43 N44 1.307 . S
C43 C45 1.486 . S
N44 N40 1.370 . S
N44 C43 1.307 . S
C45 C43 1.486 . S
C45 H49 0.960 . S
C45 H50 0.960 . S
C45 H51 0.959 . S
H46 C42 0.960 . S
H47 C42 0.961 . S
H48 C42 0.960 . S
H49 C45 0.960 . S
H50 C45 0.960 . S
H51 C45 0.959 . S
C52 N53 1.317 . S
C52 N54 1.348 . S
C52 C55 1.485 . S
N53 C52 1.317 . S
N53 N57 1.370 . S
N54 C52 1.348 . S
N54 C56 1.346 . S
C55 C52 1.485 . S
C55 H59 0.960 . S
C55 H60 0.961 . S
C55 H61 0.960 . S
C56 N54 1.346 . S
C56 N57 1.307 . S
C56 C58 1.486 . S
N57 N53 1.370 . S
N57 C56 1.307 . S
C58 C56 1.486 . S
C58 H62 0.960 . S
C58 H63 0.960 . S
C58 H64 0.959 . S
H59 C55 0.960 . S
H60 C55 0.961 . S
H61 C55 0.960 . S
H62 C58 0.960 . S
H63 C58 0.960 . S
H64 C58 0.959 . S
C65 N66 1.317 . S
C65 N67 1.348 . S
C65 C68 1.485 . S
N66 C65 1.317 . S
N66 N70 1.370 . S
N67 C65 1.348 . S
N67 C69 1.346 . S
C68 C65 1.485 . S
C68 H72 0.960 . S
C68 H73 0.961 . S
C68 H74 0.960 . S
C69 N67 1.346 . S
C69 N70 1.307 . S
C69 C71 1.486 . S
N70 N66 1.370 . S
N70 C69 1.307 . S
C71 C69 1.486 . S
C71 H75 0.960 . S
C71 H76 0.960 . S
C71 H77 0.959 . S
H72 C68 0.960 . S
H73 C68 0.961 . S
H74 C68 0.960 . S
H75 C71 0.960 . S
H76 C71 0.960 . S
H77 C71 0.959 . S
C78 N79 1.317 . S
C78 N80 1.348 . S
C78 C81 1.485 . S
N79 C78 1.317 . S
N79 N83 1.370 . S
N80 C78 1.348 . S
N80 C82 1.346 . S
C81 C78 1.485 . S
C81 H85 0.960 . S
C81 H86 0.961 . S
C81 H87 0.960 . S
C82 N80 1.346 . S
C82 N83 1.307 . S
C82 C84 1.486 . S
N83 N79 1.370 . S
N83 C82 1.307 . S
C84 C82 1.486 . S
C84 H88 0.960 . S
C84 H89 0.960 . S
C84 H90 0.959 . S
H85 C81 0.960 . S
H86 C81 0.961 . S
H87 C81 0.960 . S
H88 C84 0.960 . S
H89 C84 0.960 . S
H90 C84 0.959 . S
C91 N92 1.317 . S
C91 N93 1.348 . S
C91 C94 1.485 . S
N92 C91 1.317 . S
N92 N96 1.370 . S
N93 C91 1.348 . S
N93 C95 1.346 . S
C94 C91 1.485 . S
C94 H98 0.960 . S
C94 H99 0.961 . S
C94 H100 0.960 . S
C95 N93 1.346 . S
C95 N96 1.307 . S
C95 C97 1.486 . S
N96 N92 1.370 . S
N96 C95 1.307 . S
C97 C95 1.486 . S
C97 H101 0.960 . S
C97 H102 0.960 . S
C97 H103 0.959 . S
H98 C94 0.960 . S
H99 C94 0.961 . S
H100 C94 0.960 . S
H101 C97 0.960 . S
H102 C97 0.960 . S
H103 C97 0.959 . S
Dy104 O107 2.307 1_545 S
Dy104 O109 2.395 . S
Dy104 O110 2.379 . S
Dy104 O112 2.339 1_545 S
Dy104 O114 2.298 . S
Dy104 O118 2.275 . S
Dy104 C126 2.738 . S
Dy105 O108 2.298 1_545 S
Dy105 O111 2.275 1_545 S
Dy105 O113 2.307 1_455 S
Dy105 O115 2.395 1_445 S
Dy105 O116 2.379 1_445 S
Dy105 O119 2.339 . S
Dy105 C135 2.738 1_445 S
C106 O118 1.254 . S
C106 O119 1.257 . S
O107 Dy104 2.307 1_565 S
O107 C117 1.266 . S
O108 Dy105 2.298 1_565 S
O108 C117 1.236 . S
O109 Dy104 2.395 . S
O109 C126 1.255 . S
O110 Dy104 2.379 . S
O110 C126 1.249 . S
O111 Dy105 2.275 1_565 S
O111 C127 1.254 . S
O112 Dy104 2.339 1_565 S
O112 C127 1.257 . S
O113 Dy105 2.307 1_655 S
O113 C128 1.266 1_655 S
O114 Dy104 2.298 . S
O114 C128 1.236 . S
O115 Dy105 2.395 1_665 S
O115 C135 1.255 . S
O116 Dy105 2.379 1_665 S
O116 C135 1.249 . S
C117 O107 1.266 . S
C117 O108 1.236 . S
O118 Dy104 2.275 . S
O118 C106 1.254 . S
O119 Dy105 2.339 . S
O119 C106 1.257 . S
C120 C123 1.344 . S
C120 C124 1.328 . S
C120 C126 1.516 . S
C121 C122 1.304 . S
C121 C125 1.323 . S
C122 C121 1.304 . S
C122 C123 1.371 . S
C122 H136 0.930 . S
C123 C120 1.344 . S
C123 C122 1.371 . S
C123 H137 0.931 . S
C124 C120 1.328 . S
C124 C125 1.433 . S
C124 H138 0.931 . S
C125 C121 1.323 . S
C125 C124 1.433 . S
C125 H139 0.933 . S
C126 Dy104 2.738 . S
C126 O109 1.255 . S
C126 O110 1.249 . S
C126 C120 1.516 . S
C127 O111 1.254 . S
C127 O112 1.257 . S
C128 O113 1.266 1_455 S
C128 O114 1.236 . S
C129 C132 1.344 . S
C129 C133 1.328 . S
C129 C135 1.516 . S
C130 C131 1.304 . S
C130 C134 1.323 . S
C131 C130 1.304 . S
C131 C132 1.371 . S
C131 H140 0.930 . S
C132 C129 1.344 . S
C132 C131 1.371 . S
C132 H141 0.931 . S
C133 C129 1.328 . S
C133 C134 1.433 . S
C133 H142 0.931 . S
C134 C130 1.323 . S
C134 C133 1.433 . S
C134 H143 0.933 . S
C135 Dy105 2.738 1_665 S
C135 O115 1.255 . S
C135 O116 1.249 . S
C135 C129 1.516 . S
H136 C122 0.930 . S
H137 C123 0.931 . S
H138 C124 0.931 . S
H139 C125 0.933 . S
H140 C131 0.930 . S
H141 C132 0.931 . S
H142 C133 0.931 . S
H143 C134 0.933 . S
Dy144 O147 2.307 . S
Dy144 O149 2.395 1_545 S
Dy144 O150 2.379 1_554 S
Dy144 O152 2.339 . S
Dy144 O154 2.313 . S
Dy144 O158 2.275 1_545 S
Dy144 C166 2.738 1_544 S
Dy145 O148 2.298 . S
Dy145 O151 2.275 . S
Dy145 O153 2.293 1_545 S
Dy145 O155 2.395 . S
Dy145 O156 2.379 . S
Dy145 O159 2.339 1_545 S
Dy145 C175 2.738 . S
C146 O158 1.254 . S
C146 O159 1.257 . S
O147 Dy144 2.307 . S
O147 C157 1.266 . S
O148 Dy145 2.298 . S
O148 C157 1.236 . S
O149 Dy144 2.395 1_565 S
O149 C166 1.255 1_554 S
O150 Dy144 2.379 1_556 S
O150 C166 1.249 1_545 S
O151 Dy145 2.275 . S
O151 C167 1.254 . S
O152 Dy144 2.339 . S
O152 C167 1.257 . S
O153 Dy145 2.293 1_565 S
O153 C168 1.270 . S
O154 Dy144 2.313 . S
O154 C168 1.222 1_545 S
O155 Dy145 2.395 . S
O155 C175 1.255 . S
O156 Dy145 2.379 . S
O156 C175 1.249 . S
C157 O147 1.266 . S
C157 O148 1.236 . S
O158 Dy144 2.275 1_565 S
O158 C146 1.254 . S
O159 Dy145 2.339 1_565 S
O159 C146 1.257 . S
C160 C163 1.344 . S
C160 C164 1.328 . S
C160 C166 1.516 . S
C161 C162 1.304 . S
C161 C165 1.323 . S
C162 C161 1.304 . S
C162 C163 1.371 . S
C162 H176 0.930 . S
C163 C160 1.344 . S
C163 C162 1.371 . S
C163 H177 0.931 . S
C164 C160 1.328 . S
C164 C165 1.433 . S
C164 H178 0.931 . S
C165 C161 1.323 . S
C165 C164 1.433 . S
C165 H179 0.933 . S
C166 Dy144 2.738 1_566 S
C166 O149 1.255 1_556 S
C166 O150 1.249 1_565 S
C166 C160 1.516 . S
C167 O151 1.254 . S
C167 O152 1.257 . S
C168 O153 1.270 . S
C168 O154 1.222 1_565 S
C169 C172 1.344 . S
C169 C173 1.328 . S
C169 C175 1.516 . S
C170 C171 1.304 . S
C170 C174 1.323 . S
C171 C170 1.304 . S
C171 C172 1.371 . S
C171 H180 0.930 . S
C172 C169 1.344 . S
C172 C171 1.371 . S
C172 H181 0.931 . S
C173 C169 1.328 . S
C173 C174 1.433 . S
C173 H182 0.931 . S
C174 C170 1.323 . S
C174 C173 1.433 . S
C174 H183 0.933 . S
C175 Dy145 2.738 . S
C175 O155 1.255 . S
C175 O156 1.249 . S
C175 C169 1.516 . S
H176 C162 0.930 . S
H177 C163 0.931 . S
H178 C164 0.931 . S
H179 C165 0.933 . S
H180 C171 0.930 . S
H181 C172 0.931 . S
H182 C173 0.931 . S
H183 C174 0.933 . S
Dy184 O187 2.307 . S
Dy184 O189 2.395 . S
Dy184 O190 2.379 . S
Dy184 O192 2.339 . S
Dy184 O194 2.298 . S
Dy184 O198 2.275 . S
Dy184 C206 2.738 . S
Dy185 O188 2.298 . S
Dy185 O191 2.275 . S
Dy185 O193 2.307 . S
Dy185 O195 2.395 . S
Dy185 O196 2.379 . S
Dy185 O199 2.339 . S
Dy185 C215 2.738 . S
C186 O198 1.254 . S
C186 O199 1.257 . S
O187 Dy184 2.307 . S
O187 C197 1.266 . S
O188 Dy185 2.298 . S
O188 C197 1.236 . S
O189 Dy184 2.395 . S
O189 C206 1.255 . S
O190 Dy184 2.379 . S
O190 C206 1.249 . S
O191 Dy185 2.275 . S
O191 C207 1.254 . S
O192 Dy184 2.339 . S
O192 C207 1.257 . S
O193 Dy185 2.307 . S
O193 C208 1.266 . S
O194 Dy184 2.298 . S
O194 C208 1.236 . S
O195 Dy185 2.395 . S
O195 C215 1.255 . S
O196 Dy185 2.379 . S
O196 C215 1.249 . S
C197 O187 1.266 . S
C197 O188 1.236 . S
O198 Dy184 2.275 . S
O198 C186 1.254 . S
O199 Dy185 2.339 . S
O199 C186 1.257 . S
C200 C203 1.344 . S
C200 C204 1.328 . S
C200 C206 1.516 . S
C201 C202 1.304 . S
C201 C205 1.323 . S
C202 C201 1.304 . S
C202 C203 1.371 . S
C202 H216 0.930 . S
C203 C200 1.344 . S
C203 C202 1.371 . S
C203 H217 0.931 . S
C204 C200 1.328 . S
C204 C205 1.433 . S
C204 H218 0.931 . S
C205 C201 1.323 . S
C205 C204 1.433 . S
C205 H219 0.933 . S
C206 Dy184 2.738 . S
C206 O189 1.255 . S
C206 O190 1.249 . S
C206 C200 1.516 . S
C207 O191 1.254 . S
C207 O192 1.257 . S
C208 O193 1.266 . S
C208 O194 1.236 . S
C209 C212 1.344 . S
C209 C213 1.328 . S
C209 C215 1.516 . S
C210 C211 1.304 . S
C210 C214 1.323 . S
C211 C210 1.304 . S
C211 C212 1.371 . S
C211 H220 0.930 . S
C212 C209 1.344 . S
C212 C211 1.371 . S
C212 H221 0.931 . S
C213 C209 1.328 . S
C213 C214 1.433 . S
C213 H222 0.931 . S
C214 C210 1.323 . S
C214 C213 1.433 . S
C214 H223 0.933 . S
C215 Dy185 2.738 . S
C215 O195 1.255 . S
C215 O196 1.249 . S
C215 C209 1.516 . S
H216 C202 0.930 . S
H217 C203 0.931 . S
H218 C204 0.931 . S
H219 C205 0.933 . S
H220 C211 0.930 . S
H221 C212 0.931 . S
H222 C213 0.931 . S
H223 C214 0.933 . S
Dy224 O227 2.307 1_556 S
Dy224 O229 2.395 1_455 S
Dy224 O230 2.379 1_455 S
Dy224 O232 2.339 . S
Dy224 O234 2.298 1_455 S
Dy224 O238 2.275 1_456 S
Dy224 C246 2.738 1_455 S
Dy225 O228 2.298 . S
Dy225 O231 2.275 1_554 S
Dy225 O233 2.307 1_455 S
Dy225 O235 2.395 . S
Dy225 O236 2.379 . S
Dy225 O239 2.339 1_455 S
Dy225 C255 2.738 . S
C226 O238 1.254 . S
C226 O239 1.257 . S
O227 Dy224 2.307 1_554 S
O227 C237 1.266 . S
O228 Dy225 2.298 . S
O228 C237 1.236 . S
O229 Dy224 2.395 1_655 S
O229 C246 1.255 . S
O230 Dy224 2.379 1_655 S
O230 C246 1.249 . S
O231 Dy225 2.275 1_556 S
O231 C247 1.254 . S
O232 Dy224 2.339 . S
O232 C247 1.257 . S
O233 Dy225 2.307 1_655 S
O233 C248 1.266 1_554 S
O234 Dy224 2.298 1_655 S
O234 C248 1.236 . S
O235 Dy225 2.395 . S
O235 C255 1.255 . S
O236 Dy225 2.379 . S
O236 C255 1.249 . S
C237 O227 1.266 . S
C237 O228 1.236 . S
O238 Dy224 2.275 1_654 S
O238 C226 1.254 . S
O239 Dy225 2.339 1_655 S
O239 C226 1.257 . S
C240 C243 1.344 . S
C240 C244 1.328 . S
C240 C246 1.516 . S
C241 C242 1.304 . S
C241 C245 1.323 . S
C242 C241 1.304 . S
C242 C243 1.371 . S
C242 H256 0.930 . S
C243 C240 1.344 . S
C243 C242 1.371 . S
C243 H257 0.931 . S
C244 C240 1.328 . S
C244 C245 1.433 . S
C244 H258 0.931 . S
C245 C241 1.323 . S
C245 C244 1.433 . S
C245 H259 0.933 . S
C246 Dy224 2.738 1_655 S
C246 O229 1.255 . S
C246 O230 1.249 . S
C246 C240 1.516 . S
C247 O231 1.254 . S
C247 O232 1.257 . S
C248 O233 1.266 1_556 S
C248 O234 1.236 . S
C249 C252 1.344 . S
C249 C253 1.328 . S
C249 C255 1.516 . S
C250 C251 1.304 . S
C250 C254 1.323 . S
C251 C250 1.304 . S
C251 C252 1.371 . S
C251 H260 0.930 . S
C252 C249 1.344 . S
C252 C251 1.371 . S
C252 H261 0.931 . S
C253 C249 1.328 . S
C253 C254 1.433 . S
C253 H262 0.931 . S
C254 C250 1.323 . S
C254 C253 1.433 . S
C254 H263 0.933 . S
C255 Dy225 2.738 . S
C255 O235 1.255 . S
C255 O236 1.249 . S
C255 C249 1.516 . S
H256 C242 0.930 . S
H257 C243 0.931 . S
H258 C244 0.931 . S
H259 C245 0.933 . S
H260 C251 0.930 . S
H261 C252 0.931 . S
H262 C253 0.931 . S
H263 C254 0.933 . S
H264 C272 0.929 . S
H265 C274 0.930 . S
H266 C276 0.930 . S
H267 C279 0.929 . S
H268 C282 0.930 . S
H269 C284 0.960 . S
H270 C284 0.960 . S
H271 C284 0.960 . S
C272 H264 0.929 . S
C272 C273 1.377 . S
C272 C274 1.384 . S
C273 C272 1.377 . S
C273 C279 1.390 . S
C274 H265 0.930 . S
C274 C272 1.384 . S
C274 C275 1.372 . S
C275 C274 1.372 . S
C275 C276 1.400 . S
C275 C280 1.490 . S
C276 H266 0.930 . S
C276 C275 1.400 . S
C276 C279 1.386 . S
H277 C293 0.930 . S
H278 C294 0.931 . S
C279 H267 0.929 . S
C279 C273 1.390 . S
C279 C276 1.386 . S
C280 C275 1.490 . S
C280 C282 1.395 . S
C280 C283 1.403 . S
H281 C287 0.930 . S
C282 H268 0.930 . S
C282 C280 1.395 . S
C282 C285 1.403 . S
C283 C280 1.403 . S
C283 C284 1.524 . S
C283 C287 1.400 . S
C284 H269 0.960 . S
C284 H270 0.960 . S
C284 H271 0.960 . S
C284 C283 1.524 . S
C285 C282 1.403 . S
C285 C286 1.392 . S
C285 C289 1.495 . S
C286 C285 1.392 . S
C286 C287 1.385 . S
C286 C288 1.478 . S
C287 H281 0.930 . S
C287 C283 1.400 . S
C287 C286 1.385 . S
C288 C286 1.478 . S
C288 C290 1.381 . S
C288 C294 1.383 . S
C289 C285 1.495 . S
C289 H295 0.959 . S
C289 H296 0.961 . S
C289 H297 0.960 . S
C290 C288 1.381 . S
C290 C291 1.394 . S
C290 H298 0.930 . S
C291 C290 1.394 . S
C291 C292 1.383 . S
C291 H299 0.929 . S
C292 C291 1.383 . S
C292 C293 1.377 . S
C293 H277 0.930 . S
C293 C292 1.377 . S
C293 C294 1.379 . S
C294 H278 0.931 . S
C294 C288 1.383 . S
C294 C293 1.379 . S
H295 C289 0.959 . S
H296 C289 0.961 . S
H297 C289 0.960 . S
H298 C290 0.930 . S
H299 C291 0.929 . S
H300 C308 0.929 . S
H301 C310 0.930 . S
H302 C312 0.930 . S
H303 C315 0.929 . S
H304 C318 0.930 . S
H305 C320 0.960 . S
H306 C320 0.960 . S
H307 C320 0.960 . S
C308 H300 0.929 . S
C308 C309 1.377 . S
C308 C310 1.384 . S
C309 C308 1.377 . S
C309 C315 1.390 . S
C310 H301 0.930 . S
C310 C308 1.384 . S
C310 C311 1.372 . S
C311 C310 1.372 . S
C311 C312 1.400 . S
C311 C316 1.490 . S
C312 H302 0.930 . S
C312 C311 1.400 . S
C312 C315 1.386 . S
H313 C329 0.930 . S
H314 C330 0.931 . S
C315 H303 0.929 . S
C315 C309 1.390 . S
C315 C312 1.386 . S
C316 C311 1.490 . S
C316 C318 1.395 . S
C316 C319 1.403 . S
H317 C323 0.930 . S
C318 H304 0.930 . S
C318 C316 1.395 . S
C318 C321 1.403 . S
C319 C316 1.403 . S
C319 C320 1.524 . S
C319 C323 1.400 . S
C320 H305 0.960 . S
C320 H306 0.960 . S
C320 H307 0.960 . S
C320 C319 1.524 . S
C321 C318 1.403 . S
C321 C322 1.392 . S
C321 C325 1.495 . S
C322 C321 1.392 . S
C322 C323 1.385 . S
C322 C324 1.478 . S
C323 H317 0.930 . S
C323 C319 1.400 . S
C323 C322 1.385 . S
C324 C322 1.478 . S
C324 C326 1.381 . S
C324 C330 1.383 . S
C325 C321 1.495 . S
C325 H331 0.959 . S
C325 H332 0.961 . S
C325 H333 0.960 . S
C326 C324 1.381 . S
C326 C327 1.394 . S
C326 H334 0.930 . S
C327 C326 1.394 . S
C327 C328 1.383 . S
C327 H335 0.929 . S
C328 C327 1.383 . S
C328 C329 1.377 . S
C329 H313 0.930 . S
C329 C328 1.377 . S
C329 C330 1.379 . S
C330 H314 0.931 . S
C330 C324 1.383 . S
C330 C329 1.379 . S
H331 C325 0.959 . S
H332 C325 0.961 . S
H333 C325 0.960 . S
H334 C326 0.930 . S
H335 C327 0.929 . S
H336 C344 0.929 . S
H337 C346 0.930 . S
H338 C348 0.930 . S
H339 C351 0.929 . S
H340 C354 0.930 . S
H341 C356 0.960 . S
H342 C356 0.960 . S
H343 C356 0.960 . S
C344 H336 0.929 . S
C344 C345 1.377 . S
C344 C346 1.384 . S
C345 C344 1.377 . S
C345 C351 1.390 . S
C346 H337 0.930 . S
C346 C344 1.384 . S
C346 C347 1.372 . S
C347 C346 1.372 . S
C347 C348 1.400 . S
C347 C352 1.490 . S
C348 H338 0.930 . S
C348 C347 1.400 . S
C348 C351 1.386 . S
H349 C365 0.930 . S
H350 C366 0.931 . S
C351 H339 0.929 . S
C351 C345 1.390 . S
C351 C348 1.386 . S
C352 C347 1.490 . S
C352 C354 1.395 . S
C352 C355 1.403 . S
H353 C359 0.930 . S
C354 H340 0.930 . S
C354 C352 1.395 . S
C354 C357 1.403 . S
C355 C352 1.403 . S
C355 C356 1.524 . S
C355 C359 1.400 . S
C356 H341 0.960 . S
C356 H342 0.960 . S
C356 H343 0.960 . S
C356 C355 1.524 . S
C357 C354 1.403 . S
C357 C358 1.392 . S
C357 C361 1.495 . S
C358 C357 1.392 . S
C358 C359 1.385 . S
C358 C360 1.478 . S
C359 H353 0.930 . S
C359 C355 1.400 . S
C359 C358 1.385 . S
C360 C358 1.478 . S
C360 C362 1.381 . S
C360 C366 1.383 . S
C361 C357 1.495 . S
C361 H367 0.959 . S
C361 H368 0.961 . S
C361 H369 0.960 . S
C362 C360 1.381 . S
C362 C363 1.394 . S
C362 H370 0.930 . S
C363 C362 1.394 . S
C363 C364 1.383 . S
C363 H371 0.929 . S
C364 C363 1.383 . S
C364 C365 1.377 . S
C365 H349 0.930 . S
C365 C364 1.377 . S
C365 C366 1.379 . S
C366 H350 0.931 . S
C366 C360 1.383 . S
C366 C365 1.379 . S
H367 C361 0.959 . S
H368 C361 0.961 . S
H369 C361 0.960 . S
H370 C362 0.930 . S
H371 C363 0.929 . S
H372 C380 0.929 . S
H373 C382 0.930 . S
H374 C384 0.930 . S
H375 C387 0.929 . S
H376 C390 0.930 . S
H377 C392 0.960 . S
H378 C392 0.960 . S
H379 C392 0.960 . S
C380 H372 0.929 . S
C380 C381 1.377 . S
C380 C382 1.384 . S
C381 C380 1.377 . S
C381 C387 1.390 . S
C382 H373 0.930 . S
C382 C380 1.384 . S
C382 C383 1.372 . S
C383 C382 1.372 . S
C383 C384 1.400 . S
C383 C388 1.490 . S
C384 H374 0.930 . S
C384 C383 1.400 . S
C384 C387 1.386 . S
H385 C401 0.930 . S
H386 C402 0.931 . S
C387 H375 0.929 . S
C387 C381 1.390 . S
C387 C384 1.386 . S
C388 C383 1.490 . S
C388 C390 1.395 . S
C388 C391 1.403 . S
H389 C395 0.930 . S
C390 H376 0.930 . S
C390 C388 1.395 . S
C390 C393 1.403 . S
C391 C388 1.403 . S
C391 C392 1.524 . S
C391 C395 1.400 . S
C392 H377 0.960 . S
C392 H378 0.960 . S
C392 H379 0.960 . S
C392 C391 1.524 . S
C393 C390 1.403 . S
C393 C394 1.392 . S
C393 C397 1.495 . S
C394 C393 1.392 . S
C394 C395 1.385 . S
C394 C396 1.478 . S
C395 H389 0.930 . S
C395 C391 1.400 . S
C395 C394 1.385 . S
C396 C394 1.478 . S
C396 C398 1.381 . S
C396 C402 1.383 . S
C397 C393 1.495 . S
C397 H403 0.959 . S
C397 H404 0.961 . S
C397 H405 0.960 . S
C398 C396 1.381 . S
C398 C399 1.394 . S
C398 H406 0.930 . S
C399 C398 1.394 . S
C399 C400 1.383 . S
C399 H407 0.929 . S
C400 C399 1.383 . S
C400 C401 1.377 . S
C401 H385 0.930 . S
C401 C400 1.377 . S
C401 C402 1.379 . S
C402 H386 0.931 . S
C402 C396 1.383 . S
C402 C401 1.379 . S
H403 C397 0.959 . S
H404 C397 0.961 . S
H405 C397 0.960 . S
H406 C398 0.930 . S
H407 C399 0.929 . S
H408 C416 0.929 . S
H409 C418 0.930 . S
H410 C420 0.930 . S
H411 C423 0.929 . S
H412 C426 0.930 . S
H413 C428 0.960 . S
H414 C428 0.960 . S
H415 C428 0.960 . S
C416 H408 0.929 . S
C416 C417 1.377 . S
C416 C418 1.384 . S
C417 C416 1.377 . S
C417 C423 1.390 . S
C418 H409 0.930 . S
C418 C416 1.384 . S
C418 C419 1.372 . S
C419 C418 1.372 . S
C419 C420 1.400 . S
C419 C424 1.490 . S
C420 H410 0.930 . S
C420 C419 1.400 . S
C420 C423 1.386 . S
H421 C437 0.930 . S
H422 C438 0.931 . S
C423 H411 0.929 . S
C423 C417 1.390 . S
C423 C420 1.386 . S
C424 C419 1.490 . S
C424 C426 1.395 . S
C424 C427 1.403 . S
H425 C431 0.930 . S
C426 H412 0.930 . S
C426 C424 1.395 . S
C426 C429 1.403 . S
C427 C424 1.403 . S
C427 C428 1.524 . S
C427 C431 1.400 . S
C428 H413 0.960 . S
C428 H414 0.960 . S
C428 H415 0.960 . S
C428 C427 1.524 . S
C429 C426 1.403 . S
C429 C430 1.392 . S
C429 C433 1.495 . S
C430 C429 1.392 . S
C430 C431 1.385 . S
C430 C432 1.478 . S
C431 H425 0.930 . S
C431 C427 1.400 . S
C431 C430 1.385 . S
C432 C430 1.478 . S
C432 C434 1.381 . S
C432 C438 1.383 . S
C433 C429 1.495 . S
C433 H439 0.959 . S
C433 H440 0.961 . S
C433 H441 0.960 . S
C434 C432 1.381 . S
C434 C435 1.394 . S
C434 H442 0.930 . S
C435 C434 1.394 . S
C435 C436 1.383 . S
C435 H443 0.929 . S
C436 C435 1.383 . S
C436 C437 1.377 . S
C437 H421 0.930 . S
C437 C436 1.377 . S
C437 C438 1.379 . S
C438 H422 0.931 . S
C438 C432 1.383 . S
C438 C437 1.379 . S
H439 C433 0.959 . S
H440 C433 0.961 . S
H441 C433 0.960 . S
H442 C434 0.930 . S
H443 C435 0.929 . S
H444 C452 0.929 . S
H445 C454 0.930 . S
H446 C456 0.930 . S
H447 C459 0.929 . S
H448 C462 0.930 . S
H449 C464 0.960 . S
H450 C464 0.960 . S
H451 C464 0.960 . S
C452 H444 0.929 . S
C452 C453 1.377 . S
C452 C454 1.384 . S
C453 C452 1.377 . S
C453 C459 1.390 . S
C454 H445 0.930 . S
C454 C452 1.384 . S
C454 C455 1.372 . S
C455 C454 1.372 . S
C455 C456 1.400 . S
C455 C460 1.490 . S
C456 H446 0.930 . S
C456 C455 1.400 . S
C456 C459 1.386 . S
H457 C473 0.930 . S
H458 C474 0.931 . S
C459 H447 0.929 . S
C459 C453 1.390 . S
C459 C456 1.386 . S
C460 C455 1.490 . S
C460 C462 1.395 . S
C460 C463 1.403 . S
H461 C467 0.930 . S
C462 H448 0.930 . S
C462 C460 1.395 . S
C462 C465 1.403 . S
C463 C460 1.403 . S
C463 C464 1.524 . S
C463 C467 1.400 . S
C464 H449 0.960 . S
C464 H450 0.960 . S
C464 H451 0.960 . S
C464 C463 1.524 . S
C465 C462 1.403 . S
C465 C466 1.392 . S
C465 C469 1.495 . S
C466 C465 1.392 . S
C466 C467 1.385 . S
C466 C468 1.478 . S
C467 H461 0.930 . S
C467 C463 1.400 . S
C467 C466 1.385 . S
C468 C466 1.478 . S
C468 C470 1.381 . S
C468 C474 1.383 . S
C469 C465 1.495 . S
C469 H475 0.959 . S
C469 H476 0.961 . S
C469 H477 0.960 . S
C470 C468 1.381 . S
C470 C471 1.394 . S
C470 H478 0.930 . S
C471 C470 1.394 . S
C471 C472 1.383 . S
C471 H479 0.929 . S
C472 C471 1.383 . S
C472 C473 1.377 . S
C473 H457 0.930 . S
C473 C472 1.377 . S
C473 C474 1.379 . S
C474 H458 0.931 . S
C474 C468 1.383 . S
C474 C473 1.379 . S
H475 C469 0.959 . S
H476 C469 0.961 . S
H477 C469 0.960 . S
H478 C470 0.930 . S
H479 C471 0.929 . S
H480 C488 0.929 . S
H481 C490 0.930 . S
H482 C492 0.930 . S
H483 C495 0.929 . S
H484 C498 0.930 . S
H485 C500 0.960 . S
H486 C500 0.960 . S
H487 C500 0.960 . S
C488 H480 0.929 . S
C488 C489 1.377 . S
C488 C490 1.384 . S
C489 C488 1.377 . S
C489 C495 1.390 . S
C490 H481 0.930 . S
C490 C488 1.384 . S
C490 C491 1.372 . S
C491 C490 1.372 . S
C491 C492 1.400 . S
C491 C496 1.490 . S
C492 H482 0.930 . S
C492 C491 1.400 . S
C492 C495 1.386 . S
H493 C509 0.930 . S
H494 C510 0.931 . S
C495 H483 0.929 . S
C495 C489 1.390 . S
C495 C492 1.386 . S
C496 C491 1.490 . S
C496 C498 1.395 . S
C496 C499 1.403 . S
H497 C503 0.930 . S
C498 H484 0.930 . S
C498 C496 1.395 . S
C498 C501 1.403 . S
C499 C496 1.403 . S
C499 C500 1.524 . S
C499 C503 1.400 . S
C500 H485 0.960 . S
C500 H486 0.960 . S
C500 H487 0.960 . S
C500 C499 1.524 . S
C501 C498 1.403 . S
C501 C502 1.392 . S
C501 C505 1.495 . S
C502 C501 1.392 . S
C502 C503 1.385 . S
C502 C504 1.478 . S
C503 H497 0.930 . S
C503 C499 1.400 . S
C503 C502 1.385 . S
C504 C502 1.478 . S
C504 C506 1.381 . S
C504 C510 1.383 . S
C505 C501 1.495 . S
C505 H511 0.959 . S
C505 H512 0.961 . S
C505 H513 0.960 . S
C506 C504 1.381 . S
C506 C507 1.394 . S
C506 H514 0.930 . S
C507 C506 1.394 . S
C507 C508 1.383 . S
C507 H515 0.952 . S
C508 C507 1.383 . S
C508 C509 1.377 . S
C509 H493 0.930 . S
C509 C508 1.377 . S
C509 C510 1.379 . S
C510 H494 0.931 . S
C510 C504 1.383 . S
C510 C509 1.379 . S
H511 C505 0.959 . S
H512 C505 0.961 . S
H513 C505 0.960 . S
H514 C506 0.930 . S
H515 C507 0.952 . S
H516 C524 0.929 . S
H517 C526 0.930 . S
H518 C528 0.930 . S
H519 C531 0.929 . S
H520 C534 0.930 . S
H521 C536 0.960 . S
H522 C536 0.960 . S
H523 C536 0.960 . S
C524 H516 0.929 . S
C524 C525 1.377 . S
C524 C526 1.384 . S
C525 C524 1.377 . S
C525 C531 1.390 . S
C526 H517 0.930 . S
C526 C524 1.384 . S
C526 C527 1.372 . S
C527 C526 1.372 . S
C527 C528 1.400 . S
C527 C532 1.490 . S
C528 H518 0.930 . S
C528 C527 1.400 . S
C528 C531 1.386 . S
H529 C545 0.930 . S
H530 C546 0.931 . S
C531 H519 0.929 . S
C531 C525 1.390 . S
C531 C528 1.386 . S
C532 C527 1.490 . S
C532 C534 1.395 . S
C532 C535 1.403 . S
H533 C539 0.930 . S
C534 H520 0.930 . S
C534 C532 1.395 . S
C534 C537 1.403 . S
C535 C532 1.403 . S
C535 C536 1.524 . S
C535 C539 1.400 . S
C536 H521 0.960 . S
C536 H522 0.960 . S
C536 H523 0.960 . S
C536 C535 1.524 . S
C537 C534 1.403 . S
C537 C538 1.392 . S
C537 C541 1.495 . S
C538 C537 1.392 . S
C538 C539 1.385 . S
C538 C540 1.478 . S
C539 H533 0.930 . S
C539 C535 1.400 . S
C539 C538 1.385 . S
C540 C538 1.478 . S
C540 C542 1.381 . S
C540 C546 1.383 . S
C541 C537 1.495 . S
C541 H547 0.959 . S
C541 H548 0.961 . S
C541 H549 0.960 . S
C542 C540 1.381 . S
C542 C543 1.394 . S
C542 H550 0.930 . S
C543 C542 1.394 . S
C543 C544 1.383 . S
C543 H551 0.929 . S
C544 C543 1.383 . S
C544 C545 1.377 . S
C545 H529 0.930 . S
C545 C544 1.377 . S
C545 C546 1.379 . S
C546 H530 0.931 . S
C546 C540 1.383 . S
C546 C545 1.379 . S
H547 C541 0.959 . S
H548 C541 0.961 . S
H549 C541 0.960 . S
H550 C542 0.930 . S
H551 C543 0.929 . S
H552 C560 0.929 . S
H553 C562 0.930 . S
H554 C564 0.930 . S
H555 C567 0.929 . S
H556 C570 0.930 . S
H557 C572 0.960 . S
H558 C572 0.960 . S
H559 C572 0.960 . S
C560 H552 0.929 . S
C560 C561 1.377 . S
C560 C562 1.384 . S
C561 C560 1.377 . S
C561 C567 1.390 . S
C562 H553 0.930 . S
C562 C560 1.384 . S
C562 C563 1.372 . S
C563 C562 1.372 . S
C563 C564 1.400 . S
C563 C568 1.490 . S
C564 H554 0.930 . S
C564 C563 1.400 . S
C564 C567 1.386 . S
H565 C581 0.930 . S
H566 C582 0.931 . S
C567 H555 0.929 . S
C567 C561 1.390 . S
C567 C564 1.386 . S
C568 C563 1.490 . S
C568 C570 1.395 . S
C568 C571 1.403 . S
H569 C575 0.930 . S
C570 H556 0.930 . S
C570 C568 1.395 . S
C570 C573 1.403 . S
C571 C568 1.403 . S
C571 C572 1.524 . S
C571 C575 1.400 . S
C572 H557 0.960 . S
C572 H558 0.960 . S
C572 H559 0.960 . S
C572 C571 1.524 . S
C573 C570 1.403 . S
C573 C574 1.392 . S
C573 C577 1.495 . S
C574 C573 1.392 . S
C574 C575 1.385 . S
C574 C576 1.478 . S
C575 H569 0.930 . S
C575 C571 1.400 . S
C575 C574 1.385 . S
C576 C574 1.478 . S
C576 C578 1.381 . S
C576 C582 1.383 . S
C577 C573 1.495 . S
C577 H583 0.959 . S
C577 H584 0.961 . S
C577 H585 0.960 . S
C578 C576 1.381 . S
C578 C579 1.394 . S
C578 H586 0.930 . S
C579 C578 1.394 . S
C579 C580 1.383 . S
C579 H587 0.929 . S
C580 C579 1.383 . S
C580 C581 1.377 . S
C581 H565 0.930 . S
C581 C580 1.377 . S
C581 C582 1.379 . S
C582 H566 0.931 . S
C582 C576 1.383 . S
C582 C581 1.379 . S
H583 C577 0.959 . S
H584 C577 0.961 . S
H585 C577 0.960 . S
H586 C578 0.930 . S
H587 C579 0.929 . S
H588 C596 0.929 . S
H589 C598 0.930 . S
H590 C600 0.930 . S
H591 C603 0.929 . S
H592 C606 0.930 . S
H593 C608 0.960 . S
H594 C608 0.960 . S
H595 C608 0.960 . S
C596 H588 0.929 . S
C596 C597 1.377 . S
C596 C598 1.384 . S
C597 C596 1.377 . S
C597 C603 1.390 . S
C598 H589 0.930 . S
C598 C596 1.384 . S
C598 C599 1.372 . S
C599 C598 1.372 . S
C599 C600 1.400 . S
C599 C604 1.490 . S
C600 H590 0.930 . S
C600 C599 1.400 . S
C600 C603 1.386 . S
H601 C617 0.950 . S
H602 C618 0.931 . S
C603 H591 0.929 . S
C603 C597 1.390 . S
C603 C600 1.386 . S
C604 C599 1.490 . S
C604 C606 1.395 . S
C604 C607 1.403 . S
H605 C611 0.930 . S
C606 H592 0.930 . S
C606 C604 1.395 . S
C606 C609 1.403 . S
C607 C604 1.403 . S
C607 C608 1.524 . S
C607 C611 1.400 . S
C608 H593 0.960 . S
C608 H594 0.960 . S
C608 H595 0.960 . S
C608 C607 1.524 . S
C609 C606 1.403 . S
C609 C610 1.392 . S
C609 C613 1.495 . S
C610 C609 1.392 . S
C610 C611 1.385 . S
C610 C612 1.478 . S
C611 H605 0.930 . S
C611 C607 1.400 . S
C611 C610 1.385 . S
C612 C610 1.478 . S
C612 C614 1.381 . S
C612 C618 1.383 . S
C613 C609 1.495 . S
C613 H619 0.959 . S
C613 H620 0.961 1_556 S
C613 H621 0.960 . S
C614 C612 1.381 . S
C614 C615 1.394 . S
C614 H622 0.930 . S
C615 C614 1.394 . S
C615 C616 1.385 . S
C615 H623 0.929 . S
C616 C615 1.385 . S
C616 C617 1.374 1_556 S
C617 H601 0.950 . S
C617 C616 1.374 1_554 S
C617 C618 1.363 1_554 S
C618 H602 0.931 . S
C618 C612 1.383 . S
C618 C617 1.363 1_556 S
H619 C613 0.959 . S
H620 C613 0.961 1_554 S
H621 C613 0.960 . S
H622 C614 0.930 . S
H623 C615 0.929 . S
H624 C632 0.929 . S
H625 C634 0.930 . S
H626 C636 0.930 . S
H627 C639 0.929 . S
H628 C642 0.930 . S
H629 C644 0.960 . S
H630 C644 0.960 . S
H631 C644 0.960 . S
C632 H624 0.929 . S
C632 C633 1.377 . S
C632 C634 1.384 . S
C633 C632 1.377 . S
C633 C639 1.390 . S
C634 H625 0.930 . S
C634 C632 1.384 . S
C634 C635 1.372 . S
C635 C634 1.372 . S
C635 C636 1.400 . S
C635 C640 1.490 . S
C636 H626 0.930 . S
C636 C635 1.400 . S
C636 C639 1.386 . S
H637 C653 0.930 . S
H638 C654 0.931 1_455 S
C639 H627 0.929 . S
C639 C633 1.390 . S
C639 C636 1.386 . S
C640 C635 1.490 . S
C640 C642 1.395 . S
C640 C643 1.403 . S
H641 C647 0.930 . S
C642 H628 0.930 . S
C642 C640 1.395 . S
C642 C645 1.403 . S
C643 C640 1.403 . S
C643 C644 1.524 . S
C643 C647 1.400 . S
C644 H629 0.960 . S
C644 H630 0.960 . S
C644 H631 0.960 . S
C644 C643 1.524 . S
C645 C642 1.403 . S
C645 C646 1.392 . S
C645 C649 1.495 . S
C646 C645 1.392 . S
C646 C647 1.385 . S
C646 C648 1.478 . S
C647 H641 0.930 . S
C647 C643 1.400 . S
C647 C646 1.385 . S
C648 C646 1.478 . S
C648 C650 1.381 . S
C648 C654 1.383 . S
C649 C645 1.495 . S
C649 H655 0.959 . S
C649 H656 0.961 . S
C649 H657 0.960 . S
C650 C648 1.381 . S
C650 C651 1.394 . S
C650 H658 0.930 . S
C651 C650 1.394 . S
C651 C652 1.383 . S
C651 H659 0.929 . S
C652 C651 1.383 . S
C652 C653 1.377 1_655 S
C653 H637 0.930 . S
C653 C652 1.377 1_455 S
C653 C654 1.379 1_455 S
C654 H638 0.931 1_655 S
C654 C648 1.383 . S
C654 C653 1.379 1_655 S
H655 C649 0.959 . S
H656 C649 0.961 . S
H657 C649 0.960 . S
H658 C650 0.930 . S
H659 C651 0.929 . S
H660 C668 0.929 . S
H661 C670 0.930 . S
H662 C672 0.930 . S
H663 C675 0.929 . S
H664 C678 0.930 . S
H665 C680 0.960 . S
H666 C680 0.960 . S
H667 C680 0.960 . S
C668 H660 0.929 . S
C668 C669 1.377 . S
C668 C670 1.384 . S
C669 C668 1.377 . S
C669 C675 1.390 . S
C670 H661 0.930 . S
C670 C668 1.384 . S
C670 C671 1.372 . S
C671 C670 1.372 . S
C671 C672 1.400 . S
C671 C676 1.490 . S
C672 H662 0.930 . S
C672 C671 1.400 . S
C672 C675 1.386 . S
H673 C689 0.930 . S
H674 C690 0.931 . S
C675 H663 0.929 . S
C675 C669 1.390 . S
C675 C672 1.386 . S
C676 C671 1.490 . S
C676 C678 1.395 . S
C676 C679 1.403 . S
H677 C683 0.930 . S
C678 H664 0.930 . S
C678 C676 1.395 . S
C678 C681 1.403 . S
C679 C676 1.403 . S
C679 C680 1.524 . S
C679 C683 1.400 . S
C680 H665 0.960 . S
C680 H666 0.960 . S
C680 H667 0.960 . S
C680 C679 1.524 . S
C681 C678 1.403 . S
C681 C682 1.392 . S
C681 C685 1.495 . S
C682 C681 1.392 . S
C682 C683 1.385 . S
C682 C684 1.478 . S
C683 H677 0.930 . S
C683 C679 1.400 . S
C683 C682 1.385 . S
C684 C682 1.478 . S
C684 C686 1.381 . S
C684 C690 1.383 . S
C685 C681 1.495 . S
C685 H691 0.959 . S
C685 H692 0.961 . S
C685 H693 0.960 . S
C686 C684 1.381 . S
C686 C687 1.394 . S
C686 H694 0.930 . S
C687 C686 1.394 . S
C687 C688 1.383 . S
C687 H695 0.929 . S
C688 C687 1.383 . S
C688 C689 1.377 . S
C689 H673 0.930 . S
C689 C688 1.377 . S
C689 C690 1.379 . S
C690 H674 0.931 . S
C690 C684 1.383 . S
C690 C689 1.379 . S
H691 C685 0.959 . S
H692 C685 0.961 . S
H693 C685 0.960 . S
H694 C686 0.930 . S
H695 C687 0.929 . S
H696 C704 0.929 . S
H697 C706 0.930 . S
H698 C708 0.930 . S
H699 C711 0.929 . S
H700 C714 0.930 . S
H701 C716 0.960 . S
H702 C716 0.960 . S
H703 C716 0.960 . S
C704 H696 0.929 . S
C704 C705 1.377 . S
C704 C706 1.384 . S
C705 C704 1.377 . S
C705 C711 1.390 . S
C706 H697 0.930 . S
C706 C704 1.384 . S
C706 C707 1.372 . S
C707 C706 1.372 . S
C707 C708 1.400 . S
C707 C712 1.490 . S
C708 H698 0.930 . S
C708 C707 1.400 . S
C708 C711 1.386 . S
H709 C725 0.930 . S
H710 C726 0.931 . S
C711 H699 0.929 . S
C711 C705 1.390 . S
C711 C708 1.386 . S
C712 C707 1.490 . S
C712 C714 1.395 . S
C712 C715 1.403 . S
H713 C719 0.930 . S
C714 H700 0.930 . S
C714 C712 1.395 . S
C714 C717 1.403 . S
C715 C712 1.403 . S
C715 C716 1.524 . S
C715 C719 1.400 . S
C716 H701 0.960 . S
C716 H702 0.960 . S
C716 H703 0.960 . S
C716 C715 1.524 . S
C717 C714 1.403 . S
C717 C718 1.392 . S
C717 C721 1.495 . S
C718 C717 1.392 . S
C718 C719 1.385 . S
C718 C720 1.478 . S
C719 H713 0.930 . S
C719 C715 1.400 . S
C719 C718 1.385 . S
C720 C718 1.478 . S
C720 C722 1.381 . S
C720 C726 1.383 . S
C721 C717 1.495 . S
C721 H727 0.959 . S
C721 H728 0.961 . S
C721 H729 0.960 . S
C722 C720 1.381 . S
C722 C723 1.394 . S
C722 H730 0.930 . S
C723 C722 1.394 . S
C723 C724 1.383 . S
C723 H731 0.929 . S
C724 C723 1.383 . S
C724 C725 1.377 . S
C725 H709 0.930 . S
C725 C724 1.377 . S
C725 C726 1.379 . S
C726 H710 0.931 . S
C726 C720 1.383 . S
C726 C725 1.379 . S
H727 C721 0.959 . S
H728 C721 0.961 . S
H729 C721 0.960 . S
H730 C722 0.930 . S
H731 C723 0.929 . S
H732 C740 0.929 . S
H733 C742 0.930 . S
H734 C744 0.930 . S
H735 C747 0.929 . S
H736 C750 0.930 . S
H737 C752 0.960 . S
H738 C752 0.960 . S
H739 C752 0.960 . S
C740 H732 0.929 . S
C740 C741 1.377 . S
C740 C742 1.384 . S
C741 C740 1.377 . S
C741 C747 1.390 . S
C742 H733 0.930 . S
C742 C740 1.384 . S
C742 C743 1.372 . S
C743 C742 1.372 . S
C743 C744 1.400 . S
C743 C748 1.490 . S
C744 H734 0.930 . S
C744 C743 1.400 . S
C744 C747 1.386 . S
H745 C761 0.930 . S
H746 C762 0.931 . S
C747 H735 0.929 . S
C747 C741 1.390 . S
C747 C744 1.386 . S
C748 C743 1.490 . S
C748 C750 1.395 . S
C748 C751 1.403 . S
H749 C755 0.930 . S
C750 H736 0.930 . S
C750 C748 1.395 . S
C750 C753 1.403 . S
C751 C748 1.403 . S
C751 C752 1.524 . S
C751 C755 1.400 . S
C752 H737 0.960 . S
C752 H738 0.960 . S
C752 H739 0.960 . S
C752 C751 1.524 . S
C753 C750 1.403 . S
C753 C754 1.392 . S
C753 C757 1.495 . S
C754 C753 1.392 . S
C754 C755 1.385 . S
C754 C756 1.478 . S
C755 H749 0.930 . S
C755 C751 1.400 . S
C755 C754 1.385 . S
C756 C754 1.478 . S
C756 C758 1.381 . S
C756 C762 1.383 . S
C757 C753 1.495 . S
C757 H763 0.959 . S
C757 H764 0.961 . S
C757 H765 0.960 . S
C758 C756 1.381 . S
C758 C759 1.394 . S
C758 H766 0.930 . S
C759 C758 1.394 . S
C759 C760 1.383 . S
C759 H767 0.929 . S
C760 C759 1.383 . S
C760 C761 1.377 . S
C761 H745 0.930 . S
C761 C760 1.377 . S
C761 C762 1.379 . S
C762 H746 0.931 . S
C762 C756 1.383 . S
C762 C761 1.379 . S
H763 C757 0.959 . S
H764 C757 0.961 . S
H765 C757 0.960 . S
H766 C758 0.930 . S
H767 C759 0.929 . S
H768 C776 0.929 . S
H769 C778 0.930 . S
H770 C780 0.930 . S
H771 C783 0.929 . S
H772 C786 0.930 . S
H773 C788 0.960 . S
H774 C788 0.960 . S
H775 C788 0.960 . S
C776 H768 0.929 . S
C776 C777 1.377 . S
C776 C778 1.384 . S
C777 C776 1.377 . S
C777 C783 1.390 . S
C778 H769 0.930 . S
C778 C776 1.384 . S
C778 C779 1.372 . S
C779 C778 1.372 . S
C779 C780 1.400 . S
C779 C784 1.490 . S
C780 H770 0.930 . S
C780 C779 1.400 . S
C780 C783 1.386 . S
H781 C797 0.930 . S
H782 C798 0.931 . S
C783 H771 0.929 . S
C783 C777 1.390 . S
C783 C780 1.386 . S
C784 C779 1.490 . S
C784 C786 1.395 . S
C784 C787 1.403 . S
H785 C791 0.930 . S
C786 H772 0.930 . S
C786 C784 1.395 . S
C786 C789 1.403 . S
C787 C784 1.403 . S
C787 C788 1.524 . S
C787 C791 1.400 . S
C788 H773 0.960 . S
C788 H774 0.960 . S
C788 H775 0.960 . S
C788 C787 1.524 . S
C789 C786 1.403 . S
C789 C790 1.392 . S
C789 C793 1.495 . S
C790 C789 1.392 . S
C790 C791 1.385 . S
C790 C792 1.478 . S
C791 H785 0.930 . S
C791 C787 1.400 . S
C791 C790 1.385 . S
C792 C790 1.478 . S
C792 C794 1.381 . S
C792 C798 1.383 . S
C793 C789 1.495 . S
C793 H799 0.959 . S
C793 H800 0.961 . S
C793 H801 0.960 . S
C794 C792 1.381 . S
C794 C795 1.394 . S
C794 H802 0.930 . S
C795 C794 1.394 . S
C795 C796 1.383 . S
C795 H803 0.929 . S
C796 C795 1.383 . S
C796 C797 1.377 . S
C797 H781 0.930 . S
C797 C796 1.377 . S
C797 C798 1.379 . S
C798 H782 0.931 . S
C798 C792 1.383 . S
C798 C797 1.379 . S
H799 C793 0.959 . S
H800 C793 0.961 . S
H801 C793 0.960 . S
H802 C794 0.930 . S
H803 C795 0.929 . S
H804 C812 0.929 . S
H805 C814 0.930 . S
H806 C816 0.930 . S
H807 C819 0.929 . S
H808 C822 0.930 . S
H809 C824 0.960 . S
H810 C824 0.960 . S
H811 C824 0.960 . S
C812 H804 0.929 . S
C812 C813 1.377 . S
C812 C814 1.384 . S
C813 C812 1.377 . S
C813 C819 1.390 . S
C814 H805 0.930 . S
C814 C812 1.384 . S
C814 C815 1.372 . S
C815 C814 1.372 . S
C815 C816 1.400 . S
C815 C820 1.490 . S
C816 H806 0.930 . S
C816 C815 1.400 . S
C816 C819 1.386 . S
H817 C833 0.930 . S
H818 C834 0.931 . S
C819 H807 0.929 . S
C819 C813 1.390 . S
C819 C816 1.386 . S
C820 C815 1.490 . S
C820 C822 1.395 . S
C820 C823 1.403 . S
H821 C827 0.930 . S
C822 H808 0.930 . S
C822 C820 1.395 . S
C822 C825 1.403 . S
C823 C820 1.403 . S
C823 C824 1.524 . S
C823 C827 1.400 . S
C824 H809 0.960 . S
C824 H810 0.960 . S
C824 H811 0.960 . S
C824 C823 1.524 . S
C825 C822 1.403 . S
C825 C826 1.392 . S
C825 C829 1.495 . S
C826 C825 1.392 . S
C826 C827 1.385 . S
C826 C828 1.478 . S
C827 H821 0.930 . S
C827 C823 1.400 . S
C827 C826 1.385 . S
C828 C826 1.478 . S
C828 C830 1.381 . S
C828 C834 1.383 . S
C829 C825 1.495 . S
C829 H835 0.959 . S
C829 H836 0.961 . S
C829 H837 0.960 . S
C830 C828 1.381 . S
C830 C831 1.394 . S
C830 H838 0.930 . S
C831 C830 1.394 . S
C831 C832 1.383 . S
C831 H839 0.929 . S
C832 C831 1.383 . S
C832 C833 1.377 . S
C833 H817 0.930 . S
C833 C832 1.377 . S
C833 C834 1.379 . S
C834 H818 0.931 . S
C834 C828 1.383 . S
C834 C833 1.379 . S
H835 C829 0.959 . S
H836 C829 0.961 . S
H837 C829 0.960 . S
H838 C830 0.930 . S
H839 C831 0.929 . S
H840 C848 0.929 . S
H841 C850 0.930 . S
H842 C852 0.930 . S
H843 C855 0.929 . S
H844 C858 0.930 . S
H845 C860 0.960 . S
H846 C860 0.960 . S
H847 C860 0.960 . S
C848 H840 0.929 . S
C848 C849 1.377 . S
C848 C850 1.384 . S
C849 C848 1.377 . S
C849 C855 1.390 . S
C850 H841 0.930 . S
C850 C848 1.384 . S
C850 C851 1.372 . S
C851 C850 1.372 . S
C851 C852 1.400 . S
C851 C856 1.490 . S
C852 H842 0.930 . S
C852 C851 1.400 . S
C852 C855 1.386 . S
H853 C869 0.930 . S
H854 C870 0.931 . S
C855 H843 0.929 . S
C855 C849 1.390 . S
C855 C852 1.386 . S
C856 C851 1.490 . S
C856 C858 1.395 . S
C856 C859 1.403 . S
H857 C863 0.930 . S
C858 H844 0.930 . S
C858 C856 1.395 . S
C858 C861 1.403 . S
C859 C856 1.403 . S
C859 C860 1.524 . S
C859 C863 1.400 . S
C860 H845 0.960 . S
C860 H846 0.960 . S
C860 H847 0.960 . S
C860 C859 1.524 . S
C861 C858 1.403 . S
C861 C862 1.392 . S
C861 C865 1.495 . S
C862 C861 1.392 . S
C862 C863 1.385 . S
C862 C864 1.478 . S
C863 H857 0.930 . S
C863 C859 1.400 . S
C863 C862 1.385 . S
C864 C862 1.478 . S
C864 C866 1.381 . S
C864 C870 1.383 . S
C865 C861 1.495 . S
C865 H871 0.959 . S
C865 H872 0.961 . S
C865 H873 0.960 . S
C866 C864 1.381 . S
C866 C867 1.394 1_556 S
C866 H874 0.930 1_556 S
C867 C866 1.394 1_554 S
C867 C868 1.383 . S
C867 H875 0.929 . S
C868 C867 1.383 . S
C868 C869 1.377 1_554 S
C869 H853 0.930 . S
C869 C868 1.377 1_556 S
C869 C870 1.379 . S
C870 H854 0.931 . S
C870 C864 1.383 . S
C870 C869 1.379 . S
H871 C865 0.959 . S
H872 C865 0.961 . S
H873 C865 0.960 . S
H874 C866 0.930 1_554 S
H875 C867 0.929 . S
H876 C884 0.929 . S
H877 C886 0.930 . S
H878 C888 0.930 . S
H879 C891 0.929 . S
H880 C894 0.930 . S
H881 C896 0.960 . S
H882 C896 0.960 . S
H883 C896 0.960 . S
C884 H876 0.929 . S
C884 C885 1.377 . S
C884 C886 1.384 . S
C885 C884 1.377 . S
C885 C891 1.390 . S
C886 H877 0.930 . S
C886 C884 1.384 . S
C886 C887 1.372 . S
C887 C886 1.372 . S
C887 C888 1.400 . S
C887 C892 1.490 . S
C888 H878 0.930 . S
C888 C887 1.400 . S
C888 C891 1.386 . S
H889 C905 0.930 1_455 S
H890 C906 0.931 . S
C891 H879 0.929 . S
C891 C885 1.390 . S
C891 C888 1.386 . S
C892 C887 1.490 . S
C892 C894 1.395 . S
C892 C895 1.403 . S
H893 C899 0.930 . S
C894 H880 0.930 . S
C894 C892 1.395 . S
C894 C897 1.403 . S
C895 C892 1.403 . S
C895 C896 1.524 . S
C895 C899 1.400 . S
C896 H881 0.960 . S
C896 H882 0.960 . S
C896 H883 0.960 . S
C896 C895 1.524 . S
C897 C894 1.403 . S
C897 C898 1.392 . S
C897 C901 1.495 . S
C898 C897 1.392 . S
C898 C899 1.385 . S
C898 C900 1.478 . S
C899 H893 0.930 . S
C899 C895 1.400 . S
C899 C898 1.385 . S
C900 C898 1.478 . S
C900 C902 1.381 . S
C900 C906 1.383 . S
C901 C897 1.495 . S
C901 H907 0.959 . S
C901 H908 0.961 . S
C901 H909 0.960 . S
C902 C900 1.381 . S
C902 C903 1.394 . S
C902 H910 0.930 . S
C903 C902 1.394 . S
C903 C904 1.383 . S
C903 H911 0.929 . S
C904 C903 1.383 . S
C904 C905 1.377 . S
C905 H889 0.930 1_655 S
C905 C904 1.377 . S
C905 C906 1.379 . S
C906 H890 0.931 . S
C906 C900 1.383 . S
C906 C905 1.379 . S
H907 C901 0.959 . S
H908 C901 0.961 . S
H909 C901 0.960 . S
H910 C902 0.930 . S
H911 C903 0.929 . S
H912 C920 0.929 . S
H913 C922 0.930 . S
H914 C924 0.930 . S
H915 C927 0.929 . S
H916 C930 0.930 . S
H917 C932 0.960 . S
H918 C932 0.960 . S
H919 C932 0.960 . S
C920 H912 0.929 . S
C920 C921 1.377 . S
C920 C922 1.384 . S
C921 C920 1.377 . S
C921 C927 1.390 . S
C922 H913 0.930 . S
C922 C920 1.384 . S
C922 C923 1.372 . S
C923 C922 1.372 . S
C923 C924 1.400 . S
C923 C928 1.490 . S
C924 H914 0.930 . S
C924 C923 1.400 . S
C924 C927 1.386 . S
H925 C941 0.930 . S
H926 C942 0.931 . S
C927 H915 0.929 . S
C927 C921 1.390 . S
C927 C924 1.386 . S
C928 C923 1.490 . S
C928 C930 1.395 . S
C928 C931 1.403 . S
H929 C935 0.930 . S
C930 H916 0.930 . S
C930 C928 1.395 . S
C930 C933 1.403 . S
C931 C928 1.403 . S
C931 C932 1.524 . S
C931 C935 1.400 . S
C932 H917 0.960 . S
C932 H918 0.960 . S
C932 H919 0.960 . S
C932 C931 1.524 . S
C933 C930 1.403 . S
C933 C934 1.392 . S
C933 C937 1.495 . S
C934 C933 1.392 . S
C934 C935 1.385 . S
C934 C936 1.478 . S
C935 H929 0.930 . S
C935 C931 1.400 . S
C935 C934 1.385 . S
C936 C934 1.478 . S
C936 C938 1.381 . S
C936 C942 1.383 . S
C937 C933 1.495 . S
C937 H943 0.959 . S
C937 H944 0.961 . S
C937 H945 0.960 . S
C938 C936 1.381 . S
C938 C939 1.394 . S
C938 H946 0.930 . S
C939 C938 1.394 . S
C939 C940 1.383 . S
C939 H947 0.929 . S
C940 C939 1.383 . S
C940 C941 1.377 . S
C941 H925 0.930 . S
C941 C940 1.377 . S
C941 C942 1.379 . S
C942 H926 0.931 . S
C942 C936 1.383 . S
C942 C941 1.379 . S
H943 C937 0.959 . S
H944 C937 0.961 . S
H945 C937 0.960 . S
H946 C938 0.930 . S
H947 C939 0.929 . S
H948 C956 0.929 . S
H949 C958 0.930 . S
H950 C960 0.930 . S
H951 C963 0.929 . S
H952 C966 0.930 . S
H953 C968 0.960 . S
H954 C968 0.960 . S
H955 C968 0.960 . S
C956 H948 0.929 . S
C956 C957 1.377 . S
C956 C958 1.384 . S
C957 C956 1.377 . S
C957 C963 1.390 . S
C958 H949 0.930 . S
C958 C956 1.384 . S
C958 C959 1.372 . S
C959 C958 1.372 . S
C959 C960 1.400 . S
C959 C964 1.490 . S
C960 H950 0.930 . S
C960 C959 1.400 . S
C960 C963 1.386 . S
H961 C977 0.930 . S
H962 C978 0.931 . S
C963 H951 0.929 . S
C963 C957 1.390 . S
C963 C960 1.386 . S
C964 C959 1.490 . S
C964 C966 1.395 . S
C964 C967 1.403 . S
H965 C971 0.930 . S
C966 H952 0.930 . S
C966 C964 1.395 . S
C966 C969 1.403 . S
C967 C964 1.403 . S
C967 C968 1.524 . S
C967 C971 1.400 . S
C968 H953 0.960 . S
C968 H954 0.960 . S
C968 H955 0.960 . S
C968 C967 1.524 . S
C969 C966 1.403 . S
C969 C970 1.392 . S
C969 C973 1.495 . S
C970 C969 1.392 . S
C970 C971 1.385 . S
C970 C972 1.478 . S
C971 H965 0.930 . S
C971 C967 1.400 . S
C971 C970 1.385 . S
C972 C970 1.478 . S
C972 C974 1.381 . S
C972 C978 1.383 . S
C973 C969 1.495 . S
C973 H979 0.959 . S
C973 H980 0.961 . S
C973 H981 0.960 . S
C974 C972 1.381 . S
C974 C975 1.394 . S
C974 H982 0.930 . S
C975 C974 1.394 . S
C975 C976 1.383 . S
C975 H983 0.929 . S
C976 C975 1.383 . S
C976 C977 1.377 . S
C977 H961 0.930 . S
C977 C976 1.377 . S
C977 C978 1.379 . S
C978 H962 0.931 . S
C978 C972 1.383 . S
C978 C977 1.379 . S
H979 C973 0.959 . S
H980 C973 0.961 . S
H981 C973 0.960 . S
H982 C974 0.930 . S
H983 C975 0.929 . S
H984 C992 0.929 . S
H985 C994 0.930 . S
H986 C996 0.930 . S
H987 C999 0.929 . S
H988 C1002 0.930 . S
H989 C1004 0.960 . S
H990 C1004 0.960 . S
H991 C1004 0.960 . S
C992 H984 0.929 . S
C992 C993 1.377 . S
C992 C994 1.384 . S
C993 C992 1.377 . S
C993 C999 1.390 . S
C994 H985 0.930 . S
C994 C992 1.384 . S
C994 C995 1.372 . S
C995 C994 1.372 . S
C995 C996 1.400 . S
C995 C1000 1.490 . S
C996 H986 0.930 . S
C996 C995 1.400 . S
C996 C999 1.386 . S
H997 C1013 0.930 . S
H998 C1014 0.931 . S
C999 H987 0.929 . S
C999 C993 1.390 . S
C999 C996 1.386 . S
C1000 C995 1.490 . S
C1000 C1002 1.395 . S
C1000 C1003 1.403 . S
H1001 C1007 0.930 . S
C1002 H988 0.930 . S
C1002 C1000 1.395 . S
C1002 C1005 1.403 . S
C1003 C1000 1.403 . S
C1003 C1004 1.524 . S
C1003 C1007 1.400 . S
C1004 H989 0.960 . S
C1004 H990 0.960 . S
C1004 H991 0.960 . S
C1004 C1003 1.524 . S
C1005 C1002 1.403 . S
C1005 C1006 1.392 . S
C1005 C1009 1.495 . S
C1006 C1005 1.392 . S
C1006 C1007 1.385 . S
C1006 C1008 1.478 . S
C1007 H1001 0.930 . S
C1007 C1003 1.400 . S
C1007 C1006 1.385 . S
C1008 C1006 1.478 . S
C1008 C1010 1.381 . S
C1008 C1014 1.383 . S
C1009 C1005 1.495 . S
C1009 H1015 0.959 . S
C1009 H1016 0.961 . S
C1009 H1017 0.960 . S
C1010 C1008 1.381 . S
C1010 C1011 1.394 . S
C1010 H1018 0.930 . S
C1011 C1010 1.394 . S
C1011 C1012 1.383 . S
C1011 H1019 0.929 . S
C1012 C1011 1.383 . S
C1012 C1013 1.377 . S
C1013 H997 0.930 . S
C1013 C1012 1.377 . S
C1013 C1014 1.379 . S
C1014 H998 0.931 . S
C1014 C1008 1.383 . S
C1014 C1013 1.379 . S
H1015 C1009 0.959 . S
H1016 C1009 0.961 . S
H1017 C1009 0.960 . S
H1018 C1010 0.930 . S
H1019 C1011 0.929 . S
H1020 C1028 0.929 . S
H1021 C1030 0.930 . S
H1022 C1032 0.930 . S
H1023 C1035 0.929 . S
H1024 C1038 0.930 . S
H1025 C1040 0.960 . S
H1026 C1040 0.960 . S
H1027 C1040 0.960 . S
C1028 H1020 0.929 . S
C1028 C1029 1.377 . S
C1028 C1030 1.384 . S
C1029 C1028 1.377 . S
C1029 C1035 1.390 . S
C1030 H1021 0.930 . S
C1030 C1028 1.384 . S
C1030 C1031 1.372 . S
C1031 C1030 1.372 . S
C1031 C1032 1.400 . S
C1031 C1036 1.490 . S
C1032 H1022 0.930 . S
C1032 C1031 1.400 . S
C1032 C1035 1.386 . S
H1033 C1049 0.930 . S
H1034 C1050 0.931 . S
C1035 H1023 0.929 . S
C1035 C1029 1.390 . S
C1035 C1032 1.386 . S
C1036 C1031 1.490 . S
C1036 C1038 1.395 . S
C1036 C1039 1.403 . S
H1037 C1043 0.930 . S
C1038 H1024 0.930 . S
C1038 C1036 1.395 . S
C1038 C1041 1.403 . S
C1039 C1036 1.403 . S
C1039 C1040 1.524 . S
C1039 C1043 1.400 . S
C1040 H1025 0.960 . S
C1040 H1026 0.960 . S
C1040 H1027 0.960 . S
C1040 C1039 1.524 . S
C1041 C1038 1.403 . S
C1041 C1042 1.392 . S
C1041 C1045 1.495 . S
C1042 C1041 1.392 . S
C1042 C1043 1.385 . S
C1042 C1044 1.478 . S
C1043 H1037 0.930 . S
C1043 C1039 1.400 . S
C1043 C1042 1.385 . S
C1044 C1042 1.478 . S
C1044 C1046 1.381 . S
C1044 C1050 1.383 . S
C1045 C1041 1.495 . S
C1045 H1051 0.959 . S
C1045 H1052 0.961 . S
C1045 H1053 0.960 . S
C1046 C1044 1.381 . S
C1046 C1047 1.394 . S
C1046 H1054 0.930 . S
C1047 C1046 1.394 . S
C1047 C1048 1.383 . S
C1047 H1055 0.929 . S
C1048 C1047 1.383 . S
C1048 C1049 1.377 . S
C1049 H1033 0.930 . S
C1049 C1048 1.377 . S
C1049 C1050 1.379 . S
C1050 H1034 0.931 . S
C1050 C1044 1.383 . S
C1050 C1049 1.379 . S
H1051 C1045 0.959 . S
H1052 C1045 0.961 . S
H1053 C1045 0.960 . S
H1054 C1046 0.930 . S
H1055 C1047 0.929 . S
H1056 C1064 0.929 . S
H1057 C1066 0.930 . S
H1058 C1068 0.930 . S
H1059 C1071 0.929 . S
H1060 C1074 0.930 . S
H1061 C1076 0.960 . S
H1062 C1076 0.960 . S
H1063 C1076 0.960 . S
C1064 H1056 0.929 . S
C1064 C1065 1.377 . S
C1064 C1066 1.384 . S
C1065 C1064 1.377 . S
C1065 C1071 1.390 . S
C1066 H1057 0.930 . S
C1066 C1064 1.384 . S
C1066 C1067 1.372 . S
C1067 C1066 1.372 . S
C1067 C1068 1.400 . S
C1067 C1072 1.490 . S
C1068 H1058 0.930 . S
C1068 C1067 1.400 . S
C1068 C1071 1.386 . S
H1069 C1085 0.930 . S
H1070 C1086 0.931 . S
C1071 H1059 0.929 . S
C1071 C1065 1.390 . S
C1071 C1068 1.386 . S
C1072 C1067 1.490 . S
C1072 C1074 1.395 . S
C1072 C1075 1.403 . S
H1073 C1079 0.930 . S
C1074 H1060 0.930 . S
C1074 C1072 1.395 . S
C1074 C1077 1.403 . S
C1075 C1072 1.403 . S
C1075 C1076 1.524 . S
C1075 C1079 1.400 . S
C1076 H1061 0.960 . S
C1076 H1062 0.960 . S
C1076 H1063 0.960 . S
C1076 C1075 1.524 . S
C1077 C1074 1.403 . S
C1077 C1078 1.392 . S
C1077 C1081 1.495 . S
C1078 C1077 1.392 . S
C1078 C1079 1.385 . S
C1078 C1080 1.478 . S
C1079 H1073 0.930 . S
C1079 C1075 1.400 . S
C1079 C1078 1.385 . S
C1080 C1078 1.478 . S
C1080 C1082 1.381 . S
C1080 C1086 1.383 . S
C1081 C1077 1.495 . S
C1081 H1087 0.959 . S
C1081 H1088 0.961 . S
C1081 H1089 0.960 . S
C1082 C1080 1.381 . S
C1082 C1083 1.394 . S
C1082 H1090 0.930 . S
C1083 C1082 1.394 . S
C1083 C1084 1.383 . S
C1083 H1091 0.929 . S
C1084 C1083 1.383 . S
C1084 C1085 1.377 . S
C1085 H1069 0.930 . S
C1085 C1084 1.377 . S
C1085 C1086 1.379 . S
C1086 H1070 0.931 . S
C1086 C1080 1.383 . S
C1086 C1085 1.379 . S
H1087 C1081 0.959 . S
H1088 C1081 0.961 . S
H1089 C1081 0.960 . S
H1090 C1082 0.930 . S
H1091 C1083 0.929 . S
H1092 C1100 0.929 . S
H1093 C1102 0.930 . S
H1094 C1104 0.930 . S
H1095 C1107 0.929 . S
H1096 C1110 0.930 . S
H1097 C1112 0.960 . S
H1098 C1112 0.960 . S
H1099 C1112 0.960 . S
C1100 H1092 0.929 . S
C1100 C1101 1.377 . S
C1100 C1102 1.384 . S
C1101 C1100 1.377 . S
C1101 C1107 1.390 . S
C1102 H1093 0.930 . S
C1102 C1100 1.384 . S
C1102 C1103 1.372 . S
C1103 C1102 1.372 . S
C1103 C1104 1.400 . S
C1103 C1108 1.490 . S
C1104 H1094 0.930 . S
C1104 C1103 1.400 . S
C1104 C1107 1.386 . S
H1105 C1121 0.930 . S
H1106 C1122 0.931 . S
C1107 H1095 0.929 . S
C1107 C1101 1.390 . S
C1107 C1104 1.386 . S
C1108 C1103 1.490 . S
C1108 C1110 1.395 . S
C1108 C1111 1.403 . S
H1109 C1115 0.930 . S
C1110 H1096 0.930 . S
C1110 C1108 1.395 . S
C1110 C1113 1.403 . S
C1111 C1108 1.403 . S
C1111 C1112 1.524 . S
C1111 C1115 1.400 . S
C1112 H1097 0.960 . S
C1112 H1098 0.960 . S
C1112 H1099 0.960 . S
C1112 C1111 1.524 . S
C1113 C1110 1.403 . S
C1113 C1114 1.392 . S
C1113 C1117 1.495 . S
C1114 C1113 1.392 . S
C1114 C1115 1.385 . S
C1114 C1116 1.478 . S
C1115 H1109 0.930 . S
C1115 C1111 1.400 . S
C1115 C1114 1.385 . S
C1116 C1114 1.478 . S
C1116 C1118 1.381 . S
C1116 C1122 1.383 . S
C1117 C1113 1.495 . S
C1117 H1123 0.959 . S
C1117 H1124 0.961 . S
C1117 H1125 0.960 . S
C1118 C1116 1.381 . S
C1118 C1119 1.394 . S
C1118 H1126 0.930 . S
C1119 C1118 1.394 . S
C1119 C1120 1.383 . S
C1119 H1127 0.929 . S
C1120 C1119 1.383 . S
C1120 C1121 1.377 . S
C1121 H1105 0.930 . S
C1121 C1120 1.377 . S
C1121 C1122 1.379 . S
C1122 H1106 0.931 . S
C1122 C1116 1.383 . S
C1122 C1121 1.379 . S
H1123 C1117 0.959 . S
H1124 C1117 0.961 . S
H1125 C1117 0.960 . S
H1126 C1118 0.930 . S
H1127 C1119 0.929 . S
C273 N1 0.903 . S
C292 C121 0.933 . S
C309 N18 1.171 . S
C328 C161 1.221 . S
C364 C186 1.853 . S
C345 N28 1.890 . S
C381 N40 2.630 . S
C400 C226 2.626 . S
C436 C157 2.052 . S
C417 N5 2.022 . S
C472 C117 1.576 . S
C453 N14 1.521 . S
C508 C248 1.688 . S
C489 N31 1.709 . S
C544 C208 1.335 . S
C525 N41 1.336 . S
C561 N2 1.037 . S
C580 C250 1.062 . S
C616 C167 2.338 1_556 S
C597 N27 2.364 . S
C633 N44 2.302 . S
C652 C127 2.346 1_655 S
C669 N15 0.904 . S
C688 C210 0.895 . S
C724 C130 1.554 . S
C705 N57 1.532 . S
C741 N70 0.868 . S
C760 C170 0.884 . S
C777 N79 2.152 . S
C796 C207 2.163 . S
C813 N93 2.315 . S
C832 C247 2.270 . S
C849 N54 1.513 . S
C868 C168 1.550 . S
C904 C128 2.285 1_655 S
C885 N66 2.269 . S
C940 C237 1.041 . S
C921 N80 1.047 . S
C976 C197 1.633 . S
C957 N96 1.641 . S
C993 N53 1.170 . S
C1012 C241 1.194 . S
C1048 C146 1.794 . S
C1029 N83 1.757 . S
C1084 C106 2.387 . S
C1065 N92 2.428 . S
C1101 N67 1.140 . S
C1120 C201 1.155 . S
