# Generated by pormake.
# Topology eea, (3,6)-cn, num edge types: 1
# Building blocks:
#     Node 0, Type 0, BuildingBlock: MIDCAF_clean_linker_0, # of connection points: 3
#     Node 1, Type 0, BuildingBlock: MIDCAF_clean_linker_0, # of connection points: 3
#     Node 2, Type 0, BuildingBlock: MIDCAF_clean_linker_0, # of connection points: 3
#     Node 3, Type 0, BuildingBlock: MIDCAF_clean_linker_0, # of connection points: 3
#     Node 4, Type 0, BuildingBlock: MIDCAF_clean_linker_0, # of connection points: 3
#     Node 5, Type 0, BuildingBlock: MIDCAF_clean_linker_0, # of connection points: 3
#     Node 6, Type 0, BuildingBlock: MIDCAF_clean_linker_0, # of connection points: 3
#     Node 7, Type 0, BuildingBlock: MIDCAF_clean_linker_0, # of connection points: 3
#     Node 8, Type 0, BuildingBlock: MIDCAF_clean_linker_0, # of connection points: 3
#     Node 9, Type 0, BuildingBlock: MIDCAF_clean_linker_0, # of connection points: 3
#     Node 10, Type 0, BuildingBlock: MIDCAF_clean_linker_0, # of connection points: 3
#     Node 11, Type 0, BuildingBlock: MIDCAF_clean_linker_0, # of connection points: 3
#     Node 12, Type 0, BuildingBlock: MIDCAF_clean_linker_0, # of connection points: 3
#     Node 13, Type 0, BuildingBlock: MIDCAF_clean_linker_0, # of connection points: 3
#     Node 14, Type 0, BuildingBlock: MIDCAF_clean_linker_0, # of connection points: 3
#     Node 15, Type 0, BuildingBlock: MIDCAF_clean_linker_0, # of connection points: 3
#     Node 16, Type 0, BuildingBlock: MIDCAF_clean_linker_0, # of connection points: 3
#     Node 17, Type 0, BuildingBlock: MIDCAF_clean_linker_0, # of connection points: 3
#     Node 18, Type 1, BuildingBlock: HISSIN_clean_sbu_0, # of connection points: 6
#     Node 19, Type 1, BuildingBlock: HISSIN_clean_sbu_0, # of connection points: 6
#     Node 20, Type 1, BuildingBlock: HISSIN_clean_sbu_0, # of connection points: 6
#     Node 21, Type 1, BuildingBlock: HISSIN_clean_sbu_0, # of connection points: 6
#     Node 22, Type 1, BuildingBlock: HISSIN_clean_sbu_0, # of connection points: 6
#     Node 23, Type 1, BuildingBlock: HISSIN_clean_sbu_0, # of connection points: 6
#     Node 24, Type 1, BuildingBlock: HISSIN_clean_sbu_0, # of connection points: 6
#     Node 25, Type 1, BuildingBlock: HISSIN_clean_sbu_0, # of connection points: 6
#     Node 26, Type 1, BuildingBlock: HISSIN_clean_sbu_0, # of connection points: 6
#     Edge 27, Type (0, 1), BuildingBlock: EZIPEK_clean_linker_0, # of connection points: 2
#     Edge 28, Type (0, 1), BuildingBlock: EZIPEK_clean_linker_0, # of connection points: 2
#     Edge 29, Type (0, 1), BuildingBlock: EZIPEK_clean_linker_0, # of connection points: 2
#     Edge 30, Type (0, 1), BuildingBlock: EZIPEK_clean_linker_0, # of connection points: 2
#     Edge 31, Type (0, 1), BuildingBlock: EZIPEK_clean_linker_0, # of connection points: 2
#     Edge 32, Type (0, 1), BuildingBlock: EZIPEK_clean_linker_0, # of connection points: 2
#     Edge 33, Type (0, 1), BuildingBlock: EZIPEK_clean_linker_0, # of connection points: 2
#     Edge 34, Type (0, 1), BuildingBlock: EZIPEK_clean_linker_0, # of connection points: 2
#     Edge 35, Type (0, 1), BuildingBlock: EZIPEK_clean_linker_0, # of connection points: 2
#     Edge 36, Type (0, 1), BuildingBlock: EZIPEK_clean_linker_0, # of connection points: 2
#     Edge 37, Type (0, 1), BuildingBlock: EZIPEK_clean_linker_0, # of connection points: 2
#     Edge 38, Type (0, 1), BuildingBlock: EZIPEK_clean_linker_0, # of connection points: 2
#     Edge 39, Type (0, 1), BuildingBlock: EZIPEK_clean_linker_0, # of connection points: 2
#     Edge 40, Type (0, 1), BuildingBlock: EZIPEK_clean_linker_0, # of connection points: 2
#     Edge 41, Type (0, 1), BuildingBlock: EZIPEK_clean_linker_0, # of connection points: 2
#     Edge 42, Type (0, 1), BuildingBlock: EZIPEK_clean_linker_0, # of connection points: 2
#     Edge 43, Type (0, 1), BuildingBlock: EZIPEK_clean_linker_0, # of connection points: 2
#     Edge 44, Type (0, 1), BuildingBlock: EZIPEK_clean_linker_0, # of connection points: 2
#     Edge 45, Type (0, 1), BuildingBlock: EZIPEK_clean_linker_0, # of connection points: 2
#     Edge 46, Type (0, 1), BuildingBlock: EZIPEK_clean_linker_0, # of connection points: 2
#     Edge 47, Type (0, 1), BuildingBlock: EZIPEK_clean_linker_0, # of connection points: 2
#     Edge 48, Type (0, 1), BuildingBlock: EZIPEK_clean_linker_0, # of connection points: 2
#     Edge 49, Type (0, 1), BuildingBlock: EZIPEK_clean_linker_0, # of connection points: 2
#     Edge 50, Type (0, 1), BuildingBlock: EZIPEK_clean_linker_0, # of connection points: 2
#     Edge 51, Type (0, 1), BuildingBlock: EZIPEK_clean_linker_0, # of connection points: 2
#     Edge 52, Type (0, 1), BuildingBlock: EZIPEK_clean_linker_0, # of connection points: 2
#     Edge 53, Type (0, 1), BuildingBlock: EZIPEK_clean_linker_0, # of connection points: 2
#     Edge 54, Type (0, 1), BuildingBlock: EZIPEK_clean_linker_0, # of connection points: 2
#     Edge 55, Type (0, 1), BuildingBlock: EZIPEK_clean_linker_0, # of connection points: 2
#     Edge 56, Type (0, 1), BuildingBlock: EZIPEK_clean_linker_0, # of connection points: 2
#     Edge 57, Type (0, 1), BuildingBlock: EZIPEK_clean_linker_0, # of connection points: 2
#     Edge 58, Type (0, 1), BuildingBlock: EZIPEK_clean_linker_0, # of connection points: 2
#     Edge 59, Type (0, 1), BuildingBlock: EZIPEK_clean_linker_0, # of connection points: 2
#     Edge 60, Type (0, 1), BuildingBlock: EZIPEK_clean_linker_0, # of connection points: 2
#     Edge 61, Type (0, 1), BuildingBlock: EZIPEK_clean_linker_0, # of connection points: 2
#     Edge 62, Type (0, 1), BuildingBlock: EZIPEK_clean_linker_0, # of connection points: 2
#     Edge 63, Type (0, 1), BuildingBlock: EZIPEK_clean_linker_0, # of connection points: 2
#     Edge 64, Type (0, 1), BuildingBlock: EZIPEK_clean_linker_0, # of connection points: 2
#     Edge 65, Type (0, 1), BuildingBlock: EZIPEK_clean_linker_0, # of connection points: 2
#     Edge 66, Type (0, 1), BuildingBlock: EZIPEK_clean_linker_0, # of connection points: 2
#     Edge 67, Type (0, 1), BuildingBlock: EZIPEK_clean_linker_0, # of connection points: 2
#     Edge 68, Type (0, 1), BuildingBlock: EZIPEK_clean_linker_0, # of connection points: 2
#     Edge 69, Type (0, 1), BuildingBlock: EZIPEK_clean_linker_0, # of connection points: 2
#     Edge 70, Type (0, 1), BuildingBlock: EZIPEK_clean_linker_0, # of connection points: 2
#     Edge 71, Type (0, 1), BuildingBlock: EZIPEK_clean_linker_0, # of connection points: 2
#     Edge 72, Type (0, 1), BuildingBlock: EZIPEK_clean_linker_0, # of connection points: 2
#     Edge 73, Type (0, 1), BuildingBlock: EZIPEK_clean_linker_0, # of connection points: 2
#     Edge 74, Type (0, 1), BuildingBlock: EZIPEK_clean_linker_0, # of connection points: 2
#     Edge 75, Type (0, 1), BuildingBlock: EZIPEK_clean_linker_0, # of connection points: 2
#     Edge 76, Type (0, 1), BuildingBlock: EZIPEK_clean_linker_0, # of connection points: 2
#     Edge 77, Type (0, 1), BuildingBlock: EZIPEK_clean_linker_0, # of connection points: 2
#     Edge 78, Type (0, 1), BuildingBlock: EZIPEK_clean_linker_0, # of connection points: 2
#     Edge 79, Type (0, 1), BuildingBlock: EZIPEK_clean_linker_0, # of connection points: 2
#     Edge 80, Type (0, 1), BuildingBlock: EZIPEK_clean_linker_0, # of connection points: 2
# Relax obj value: 0.035
# Max RMSD: 0.131
# Mean RMSD: 0.088
data_MOF--net-eea--node1-HISSIN_clean_sbu_0--node2-MIDCAF_clean_linker_0--edge1-EZIPEK_clean_linker_0
_symmetry_space_group_name_H-M    P1
_symmetry_Int_Tables_number       1
_symmetry_cell_setting            triclinic
loop_
_symmetry_equiv_pos_as_xyz
'x, y, z'
_cell_length_a     48.268321
_cell_length_b     48.36149
_cell_length_c     73.667695
_cell_angle_alpha  93.443613
_cell_angle_beta   93.116222
_cell_angle_gamma 119.93971
loop_
_atom_site_label
_atom_site_type_symbol
_atom_site_fract_x
_atom_site_fract_y
_atom_site_fract_z
_atom_type_partial_charge
C0 C 0.24951 0.03305 0.41489 0.0
C1 C 0.24038 0.02451 0.39609 0.0
C2 C 0.24064 0.04707 0.38495 0.0
C3 C 0.2492 0.07767 0.39255 0.0
H4 H 0.22841 0.14766 0.38316 0.0
H5 H 0.21594 0.17901 0.36437 0.0
H6 H 0.26949 0.26138 0.40442 0.0
H7 H 0.28131 0.22923 0.42339 0.0
H8 H 0.29856 0.21576 0.46275 0.0
H9 H 0.31915 0.23443 0.49478 0.0
H10 H 0.31817 0.14622 0.50203 0.0
H11 H 0.29751 0.12704 0.46996 0.0
H12 H 0.2647 0.0697 0.43713 0.0
H13 H 0.24929 0.01574 0.42363 0.0
H14 H 0.23361 0.04073 0.3704 0.0
H15 H 0.24874 0.09438 0.38356 0.0
N16 N 0.25865 0.13711 0.40906 0.0
N17 N 0.27691 0.17678 0.4337 0.0
N18 N 0.27713 0.12894 0.43716 0.0
C19 C 0.2645 0.1663 0.41604 0.0
C20 C 0.28326 0.15825 0.44437 0.0
C21 C 0.26493 0.11831 0.41945 0.0
C22 C 0.25728 0.18625 0.40442 0.0
C23 C 0.23871 0.17291 0.38759 0.0
C24 C 0.23238 0.19168 0.37633 0.0
C25 C 0.24594 0.22504 0.38097 0.0
C26 C 0.26198 0.23729 0.39877 0.0
C27 C 0.26811 0.21845 0.41012 0.0
C28 C 0.2963 0.16982 0.46372 0.0
C29 C 0.30273 0.20024 0.47107 0.0
C30 C 0.31451 0.21102 0.48936 0.0
C31 C 0.3201 0.19164 0.50061 0.0
C32 C 0.31396 0.16141 0.49343 0.0
C33 C 0.30216 0.15056 0.47512 0.0
C34 C 0.25773 0.08633 0.41146 0.0
C35 C 0.25826 0.06383 0.42253 0.0
C36 C 0.00201 0.21239 0.4096 0.0
C37 C 0.00376 0.20036 0.39214 0.0
C38 C 0.97964 0.16966 0.38487 0.0
C39 C 0.95383 0.15131 0.39481 0.0
H40 H 0.87443 0.06354 0.39191 0.0
H41 H 0.83146 0.01211 0.37697 0.0
H42 H 0.7692 0.00858 0.41767 0.0
H43 H 0.81211 0.05989 0.43294 0.0
H44 H 0.85154 0.0999 0.47163 0.0
H45 H 0.84342 0.11701 0.50164 0.0
H46 H 0.91978 0.21342 0.4974 0.0
H47 H 0.9285 0.19646 0.46712 0.0
H48 H 0.97523 0.20406 0.43295 0.0
H49 H 0.02045 0.23618 0.41536 0.0
H50 H 0.98056 0.1601 0.37138 0.0
H51 H 0.9355 0.12779 0.38865 0.0
N52 N 0.89926 0.11517 0.41422 0.0
N53 N 0.87052 0.10758 0.43976 0.0
N54 N 0.92054 0.15443 0.43937 0.0
C55 C 0.87283 0.09693 0.42279 0.0
C56 C 0.89418 0.13617 0.44821 0.0
C57 C 0.92322 0.1439 0.42231 0.0
C58 C 0.84677 0.06584 0.41367 0.0
C59 C 0.85163 0.05192 0.39772 0.0
C60 C 0.82715 0.02254 0.38916 0.0
C61 C 0.79732 0.00669 0.39627 0.0
C62 C 0.79217 0.02054 0.41205 0.0
C63 C 0.81675 0.0498 0.42075 0.0
C64 C 0.89063 0.14684 0.46685 0.0
C65 C 0.86681 0.12478 0.47699 0.0
C66 C 0.86212 0.13444 0.49421 0.0
C67 C 0.88098 0.1664 0.5017 0.0
C68 C 0.90508 0.18858 0.49182 0.0
C69 C 0.91001 0.17884 0.47455 0.0
C70 C 0.95154 0.16333 0.41225 0.0
C71 C 0.97614 0.19402 0.41961 0.0
C72 C 0.78783 0.76132 0.40887 0.0
C73 C 0.79442 0.77766 0.39316 0.0
C74 C 0.82404 0.78808 0.38611 0.0
C75 C 0.84694 0.78232 0.39468 0.0
H76 H 0.94045 0.80533 0.39451 0.0
H77 H 0.98871 0.81992 0.37909 0.0
H78 H 0.00629 0.75563 0.40921 0.0
H79 H 0.95806 0.74114 0.42511 0.0
H80 H 0.91726 0.71899 0.46295 0.0
H81 H 0.90704 0.69605 0.49238 0.0
H82 H 0.8269 0.71158 0.49566 0.0
H83 H 0.83649 0.73409 0.46637 0.0
H84 H 0.80508 0.74306 0.42969 0.0
H85 H 0.76505 0.75324 0.4145 0.0
H86 H 0.82949 0.80084 0.37401 0.0
H87 H 0.86963 0.79082 0.3889 0.0
N88 N 0.89276 0.76813 0.41195 0.0
N89 N 0.91048 0.74957 0.43616 0.0
N90 N 0.8607 0.74738 0.43588 0.0
C91 C 0.91546 0.76284 0.41999 0.0
C92 C 0.88313 0.74196 0.44426 0.0
C93 C 0.86527 0.76034 0.41969 0.0
C94 C 0.94529 0.77196 0.41105 0.0
C95 C 0.95448 0.7942 0.39792 0.0
C96 C 0.98207 0.80264 0.38907 0.0
C97 C 1.00085 0.7887 0.39293 0.0
C98 C 0.99192 0.76649 0.40601 0.0
C99 C 0.96449 0.75838 0.41512 0.0
C100 C 0.87766 0.72834 0.46219 0.0
C101 C 0.89749 0.71759 0.46993 0.0
C102 C 0.89172 0.70448 0.48674 0.0
C103 C 0.86626 0.70221 0.49619 0.0
C104 C 0.84667 0.71315 0.48859 0.0
C105 C 0.85221 0.72595 0.47178 0.0
C106 C 0.84069 0.76614 0.41056 0.0
C107 C 0.81079 0.75564 0.41754 0.0
C108 C 0.02227 0.23812 0.61147 0.0
C109 C 0.01035 0.21335 0.623 0.0
C110 C 0.02539 0.19513 0.62488 0.0
C111 C 0.05239 0.20201 0.61572 0.0
H112 H 0.13423 0.19673 0.62293 0.0
H113 H 0.17304 0.18471 0.63772 0.0
H114 H 0.2439 0.24396 0.60283 0.0
H115 H 0.20512 0.25586 0.58769 0.0
H116 H 0.17519 0.26554 0.54964 0.0
H117 H 0.18453 0.28738 0.52012 0.0
H118 H 0.10163 0.29866 0.52196 0.0
H119 H 0.0917 0.27649 0.55157 0.0
H120 H 0.05777 0.26391 0.59323 0.0
H121 H 0.01085 0.25234 0.6098 0.0
H122 H 0.01643 0.17582 0.63363 0.0
H123 H 0.06369 0.18774 0.61764 0.0
N124 N 0.11556 0.22759 0.60288 0.0
N125 N 0.14821 0.24826 0.57914 0.0
N126 N 0.09963 0.24849 0.57914 0.0
C127 C 0.14286 0.23455 0.59511 0.0
C128 C 0.12671 0.25518 0.57097 0.0
C129 C 0.09391 0.23455 0.5951 0.0
C130 C 0.16649 0.22725 0.60406 0.0
C131 C 0.15805 0.2073 0.61837 0.0
C132 C 0.18018 0.20038 0.62686 0.0
C133 C 0.21129 0.21351 0.62139 0.0
C134 C 0.21997 0.23363 0.60724 0.0
C135 C 0.19772 0.2403 0.59858 0.0
C136 C 0.13262 0.26917 0.55311 0.0
C137 C 0.15885 0.27266 0.54388 0.0
C138 C 0.16427 0.28512 0.52695 0.0
C139 C 0.14376 0.29457 0.51884 0.0
C140 C 0.11769 0.29141 0.52798 0.0
C141 C 0.1121 0.27874 0.54492 0.0
C142 C 0.06451 0.22682 0.60417 0.0
C143 C 0.04893 0.24458 0.60196 0.0
C144 C 0.74717 0.77298 0.60965 0.0
C145 C 0.7594 0.78061 0.62808 0.0
C146 C 0.76003 0.80637 0.63822 0.0
C147 C 0.74932 0.82494 0.62987 0.0
H148 H 0.75023 0.90882 0.63878 0.0
H149 H 0.77007 0.96239 0.65417 0.0
H150 H 0.75196 0.99415 0.60379 0.0
H151 H 0.73189 0.94059 0.58813 0.0
H152 H 0.70244 0.89205 0.5532 0.0
H153 H 0.68257 0.88017 0.52086 0.0
H154 H 0.66779 0.78471 0.52157 0.0
H155 H 0.68788 0.79625 0.55397 0.0
H156 H 0.72764 0.78543 0.58691 0.0
H157 H 0.74658 0.75309 0.60169 0.0
H158 H 0.76941 0.81245 0.65248 0.0
H159 H 0.75065 0.84506 0.63799 0.0
N160 N 0.73594 0.86781 0.61098 0.0
N161 N 0.71724 0.88112 0.58484 0.0
N162 N 0.71614 0.83204 0.58436 0.0
C163 C 0.73009 0.88877 0.60252 0.0
C164 C 0.71 0.85273 0.57569 0.0
C165 C 0.72908 0.83943 0.60205 0.0
C166 C 0.73962 0.92041 0.61216 0.0
C167 C 0.75018 0.92704 0.63094 0.0
C168 C 0.76147 0.95757 0.63979 0.0
C169 C 0.76248 0.98196 0.63003 0.0
C170 C 0.75127 0.97542 0.61146 0.0
C171 C 0.7398 0.94482 0.60258 0.0
C172 C 0.69686 0.84513 0.55623 0.0
C173 C 0.69487 0.86844 0.54657 0.0
C174 C 0.68355 0.86176 0.52808 0.0
C175 C 0.67384 0.83165 0.51893 0.0
C176 C 0.67528 0.80811 0.52848 0.0
C177 C 0.68679 0.81481 0.54698 0.0
C178 C 0.73778 0.818 0.61122 0.0
C179 C 0.73634 0.79147 0.60127 0.0
C180 C 0.20726 0.96512 0.59741 0.0
C181 C 0.20412 0.9779 0.61424 0.0
C182 C 0.17675 0.96015 0.62329 0.0
C183 C 0.15262 0.92988 0.6156 0.0
H184 H 0.07414 0.85151 0.62826 0.0
H185 H 0.02925 0.82136 0.64613 0.0
H186 H 0.97904 0.75058 0.60001 0.0
H187 H 0.02405 0.78056 0.58181 0.0
H188 H 0.06242 0.78766 0.54543 0.0
H189 H 0.06554 0.76894 0.51434 0.0
H190 H 0.15611 0.85541 0.51197 0.0
H191 H 0.15346 0.87449 0.54291 0.0
H192 H 0.18602 0.92558 0.57658 0.0
H193 H 0.22833 0.97865 0.59029 0.0
H194 H 0.17406 0.9698 0.63631 0.0
H195 H 0.13172 0.91684 0.62294 0.0
N196 N 0.10425 0.86676 0.59994 0.0
N197 N 0.08107 0.82649 0.57538 0.0
N198 N 0.13022 0.87351 0.57329 0.0
C199 C 0.08001 0.83759 0.59262 0.0
C200 C 0.10622 0.84439 0.56562 0.0
C201 C 0.12941 0.88488 0.59042 0.0
C202 C 0.05278 0.81857 0.60349 0.0
C203 C 0.05366 0.82954 0.6218 0.0
C204 C 0.02804 0.81236 0.63211 0.0
C205 C 1.00092 0.78391 0.62435 0.0
C206 C 0.99986 0.77258 0.60618 0.0
C207 C 0.0256 0.78974 0.59583 0.0
C208 C 0.10768 0.83262 0.54677 0.0
C209 C 0.08303 0.80276 0.53835 0.0
C210 C 0.08472 0.79199 0.52058 0.0
C211 C 0.11105 0.81087 0.51096 0.0
C212 C 0.13562 0.84059 0.51923 0.0
C213 C 0.13399 0.85138 0.53695 0.0
C214 C 0.15538 0.91686 0.59864 0.0
C215 C 0.18303 0.93484 0.58963 0.0
C216 C 0.89737 0.36698 0.74033 0.0
C217 C 0.9128 0.3634 0.72549 0.0
C218 C 0.93836 0.39072 0.7194 0.0
C219 C 0.94745 0.42125 0.72755 0.0
H220 H 0.90486 0.48539 0.71235 0.0
H221 H 0.88303 0.51349 0.6956 0.0
H222 H 0.92641 0.59223 0.73807 0.0
H223 H 0.94819 0.56434 0.75512 0.0
H224 H 0.96842 0.55212 0.79374 0.0
H225 H 0.98688 0.56989 0.8261 0.0
H226 H 0.98795 0.48262 0.83312 0.0
H227 H 0.96947 0.46437 0.80076 0.0
H228 H 0.89476 0.39978 0.76014 0.0
H229 H 0.87757 0.34619 0.74519 0.0
H230 H 0.95063 0.38839 0.70803 0.0
H231 H 0.96647 0.44216 0.7223 0.0
N232 N 0.93334 0.47516 0.73929 0.0
N233 N 0.94931 0.51402 0.76422 0.0
N234 N 0.95031 0.46665 0.76782 0.0
C235 C 0.93803 0.50389 0.74636 0.0
C236 C 0.9557 0.49566 0.77502 0.0
C237 C 0.93953 0.4566 0.74992 0.0
C238 C 0.9281 0.52249 0.73519 0.0
C239 C 0.9102 0.50887 0.71807 0.0
C240 C 0.89767 0.52483 0.70844 0.0
C241 C 0.90312 0.55477 0.71567 0.0
C242 C 0.92204 0.56908 0.73234 0.0
C243 C 0.93439 0.55306 0.74205 0.0
C244 C 0.96739 0.50674 0.79458 0.0
C245 C 0.97259 0.53662 0.80209 0.0
C246 C 0.98314 0.54688 0.82057 0.0
C247 C 0.98868 0.5275 0.83185 0.0
C248 C 0.98374 0.49781 0.82451 0.0
C249 C 0.97319 0.48749 0.80602 0.0
C250 C 0.93192 0.42468 0.74232 0.0
C251 C 0.90721 0.39743 0.74887 0.0
C252 C 0.6518 0.55965 0.73428 0.0
C253 C 0.65624 0.54729 0.7174 0.0
C254 C 0.64186 0.51354 0.71457 0.0
C255 C 0.61981 0.4935 0.72601 0.0
H256 H 0.53493 0.40891 0.71906 0.0
H257 H 0.49493 0.35547 0.70488 0.0
H258 H 0.45501 0.33027 0.75631 0.0
H259 H 0.49475 0.38378 0.77075 0.0
H260 H 0.52074 0.43549 0.80351 0.0
H261 H 0.51158 0.45131 0.83356 0.0
H262 H 0.58032 0.55014 0.8281 0.0
H263 H 0.58997 0.53459 0.79773 0.0
H264 H 0.62617 0.55019 0.7582 0.0
H265 H 0.66546 0.58483 0.73904 0.0
H266 H 0.64764 0.50184 0.70375 0.0
H267 H 0.60858 0.46781 0.72273 0.0
N268 N 0.56578 0.45408 0.74516 0.0
N269 N 0.53923 0.44347 0.77167 0.0
N270 N 0.58404 0.49437 0.76965 0.0
C271 C 0.54177 0.43346 0.75458 0.0
C272 C 0.56014 0.47376 0.77936 0.0
C273 C 0.58709 0.48445 0.75252 0.0
C274 C 0.5181 0.40074 0.74608 0.0
C275 C 0.51778 0.39207 0.72744 0.0
C276 C 0.49492 0.36159 0.71927 0.0
C277 C 0.47216 0.33917 0.72959 0.0
C278 C 0.47248 0.34742 0.74819 0.0
C279 C 0.4952 0.378 0.75638 0.0
C280 C 0.55605 0.48379 0.79806 0.0
C281 C 0.53411 0.46066 0.80859 0.0
C282 C 0.52882 0.46959 0.82584 0.0
C283 C 0.54523 0.50182 0.83301 0.0
C284 C 0.56749 0.52509 0.82276 0.0
C285 C 0.57296 0.51614 0.80544 0.0
C286 C 0.61261 0.50623 0.74145 0.0
C287 C 0.62982 0.53954 0.74587 0.0
C288 C 0.45898 0.09221 0.73879 0.0
C289 C 0.46634 0.10879 0.72291 0.0
C290 C 0.49943 0.12898 0.72104 0.0
C291 C 0.52309 0.12757 0.732 0.0
H292 H 0.61588 0.14953 0.73181 0.0
H293 H 0.6637 0.16256 0.71628 0.0
H294 H 0.68336 0.10295 0.7496 0.0
H295 H 0.63551 0.08997 0.76557 0.0
H296 H 0.59654 0.07377 0.80376 0.0
H297 H 0.58933 0.05671 0.83383 0.0
H298 H 0.49952 0.05621 0.83224 0.0
H299 H 0.5066 0.07265 0.80198 0.0
H300 H 0.47577 0.07672 0.76143 0.0
H301 H 0.43504 0.08029 0.74305 0.0
H302 H 0.50788 0.14657 0.71132 0.0
H303 H 0.54794 0.14247 0.72941 0.0
N304 N 0.56827 0.11287 0.74949 0.0
N305 N 0.58627 0.09693 0.77481 0.0
N306 N 0.53515 0.09199 0.77302 0.0
C307 C 0.59144 0.10926 0.75838 0.0
C308 C 0.55819 0.0884 0.78229 0.0
C309 C 0.54007 0.10424 0.75661 0.0
C310 C 0.62171 0.11852 0.74989 0.0
C311 C 0.63037 0.13924 0.73596 0.0
C312 C 0.65774 0.14682 0.72708 0.0
C313 C 0.67686 0.1336 0.73175 0.0
C314 C 0.66877 0.11333 0.74582 0.0
C315 C 0.64151 0.10603 0.75494 0.0
C316 C 0.55321 0.07664 0.80072 0.0
C317 C 0.57587 0.07134 0.81018 0.0
C318 C 0.57217 0.06258 0.82806 0.0
C319 C 0.54672 0.0608 0.83764 0.0
C320 C 0.52208 0.06207 0.82702 0.0
C321 C 0.52561 0.07063 0.80914 0.0
C322 C 0.51493 0.1076 0.74616 0.0
C323 C 0.48275 0.09101 0.74996 0.0
C324 C 0.67778 0.55724 0.93869 0.0
C325 C 0.67333 0.54243 0.95495 0.0
C326 C 0.69533 0.53357 0.96137 0.0
C327 C 0.72152 0.53945 0.95172 0.0
H328 H 0.79409 0.52101 0.95175 0.0
H329 H 0.83272 0.50843 0.96613 0.0
H330 H 0.90279 0.56619 0.93046 0.0
H331 H 0.86414 0.57878 0.9157 0.0
H332 H 0.84009 0.60363 0.88257 0.0
H333 H 0.84855 0.62537 0.85301 0.0
H334 H 0.75204 0.60904 0.84803 0.0
H335 H 0.74325 0.58743 0.87781 0.0
H336 H 0.70692 0.5746 0.91646 0.0
H337 H 0.66086 0.56411 0.93354 0.0
H338 H 0.69217 0.52203 0.97386 0.0
H339 H 0.73798 0.53223 0.95714 0.0
N340 N 0.77634 0.55338 0.93269 0.0
N341 N 0.80727 0.57247 0.90814 0.0
N342 N 0.7593 0.57373 0.9092 0.0
C343 C 0.80268 0.55917 0.92422 0.0
C344 C 0.78567 0.57972 0.90046 0.0
C345 C 0.75458 0.56062 0.92541 0.0
C346 C 0.82602 0.55102 0.93258 0.0
C347 C 0.81766 0.53106 0.94687 0.0
C348 C 0.83962 0.52373 0.95509 0.0
C349 C 0.87045 0.53641 0.94932 0.0
C350 C 0.879 0.55619 0.93503 0.0
C351 C 0.85688 0.5633 0.92663 0.0
C352 C 0.79092 0.59368 0.88264 0.0
C353 C 0.82057 0.60464 0.87528 0.0
C354 C 0.82553 0.61714 0.85837 0.0
C355 C 0.80093 0.61877 0.84835 0.0
C356 C 0.77133 0.608 0.8556 0.0
C357 C 0.7664 0.59571 0.87263 0.0
C358 C 0.72629 0.5543 0.93537 0.0
C359 C 0.70405 0.56312 0.92895 0.0
C360 C 0.40291 0.09653 0.94791 0.0
C361 C 0.4291 0.1109 0.96137 0.0
C362 C 0.44426 0.14392 0.96652 0.0
C363 C 0.43346 0.16247 0.95827 0.0
H364 H 0.43493 0.24664 0.96728 0.0
H365 H 0.45377 0.30105 0.98099 0.0
H366 H 0.40159 0.31572 0.9369 0.0
H367 H 0.38263 0.26135 0.92287 0.0
H368 H 0.36544 0.21652 0.88626 0.0
H369 H 0.34562 0.20336 0.85397 0.0
H370 H 0.3298 0.10778 0.85639 0.0
H371 H 0.35004 0.1207 0.88882 0.0
H372 H 0.37244 0.10367 0.92885 0.0
H373 H 0.39102 0.071 0.9438 0.0
H374 H 0.46455 0.15531 0.97687 0.0
H375 H 0.44584 0.188 0.96243 0.0
N376 N 0.40526 0.19773 0.94353 0.0
N377 N 0.38209 0.20775 0.9179 0.0
N378 N 0.38183 0.15913 0.91816 0.0
C379 C 0.39749 0.21737 0.93501 0.0
C380 C 0.37415 0.1787 0.90936 0.0
C381 C 0.39742 0.16858 0.93527 0.0
C382 C 0.40736 0.24962 0.94389 0.0
C383 C 0.42721 0.26125 0.9605 0.0
C384 C 0.43804 0.29232 0.96838 0.0
C385 C 0.42908 0.31219 0.95988 0.0
C386 C 0.40871 0.30057 0.94358 0.0
C387 C 0.39798 0.26954 0.93561 0.0
C388 C 0.35955 0.16971 0.89017 0.0
C389 C 0.35754 0.19256 0.88006 0.0
C390 C 0.34625 0.18516 0.86158 0.0
C391 C 0.33649 0.15473 0.85286 0.0
C392 C 0.33739 0.13144 0.86295 0.0
C393 C 0.34898 0.13891 0.88145 0.0
C394 C 0.40766 0.14838 0.94447 0.0
C395 C 0.39244 0.1152 0.93938 0.0
C396 C 0.8768 0.30032 0.93066 0.0
C397 C 0.88367 0.3065 0.9499 0.0
C398 C 0.85897 0.28597 0.96034 0.0
C399 C 0.83138 0.25843 0.9522 0.0
H400 H 0.74593 0.18335 0.96328 0.0
H401 H 0.70125 0.15315 0.98136 0.0
H402 H 0.64262 0.09464 0.93268 0.0
H403 H 0.68738 0.12454 0.9143 0.0
H404 H 0.72899 0.12552 0.87864 0.0
H405 H 0.7327 0.10677 0.84763 0.0
H406 H 0.82154 0.19489 0.84485 0.0
H407 H 0.81828 0.21397 0.87561 0.0
H408 H 0.84579 0.26852 0.90775 0.0
H409 H 0.89153 0.31669 0.9214 0.0
H410 H 0.86033 0.29109 0.97494 0.0
H411 H 0.81376 0.24296 0.96088 0.0
N412 N 0.77333 0.2031 0.93415 0.0
N413 N 0.74729 0.16501 0.90864 0.0
N414 N 0.79784 0.21039 0.90693 0.0
C415 C 0.74756 0.17526 0.92634 0.0
C416 C 0.77252 0.18252 0.89885 0.0
C417 C 0.79848 0.22087 0.92453 0.0
C418 C 0.72032 0.15645 0.93726 0.0
C419 C 0.72359 0.16411 0.95631 0.0
C420 C 0.6981 0.1469 0.96673 0.0
C421 C 0.66872 0.12187 0.95832 0.0
C422 C 0.66518 0.11402 0.93936 0.0
C423 C 0.69081 0.13107 0.92891 0.0
C424 C 0.77336 0.17125 0.87974 0.0
C425 C 0.74923 0.14103 0.87142 0.0
C426 C 0.75129 0.13024 0.85372 0.0
C427 C 0.77744 0.14949 0.84406 0.0
C428 C 0.80122 0.17974 0.85214 0.0
C429 C 0.79924 0.19053 0.86977 0.0
C430 C 0.82677 0.25091 0.93321 0.0
C431 C 0.84941 0.27261 0.92252 0.0
C432 C 0.59118 0.69999 0.07826 0.0
C433 C 0.58419 0.6924 0.05928 0.0
C434 C 0.58838 0.71635 0.04807 0.0
C435 C 0.5983 0.74729 0.05578 0.0
H436 H 0.56366 0.81193 0.05182 0.0
H437 H 0.54237 0.84179 0.03638 0.0
H438 H 0.61062 0.92832 0.06991 0.0
H439 H 0.63169 0.89855 0.0858 0.0
H440 H 0.65039 0.88533 0.12624 0.0
H441 H 0.6699 0.90298 0.15846 0.0
H442 H 0.66462 0.81278 0.16567 0.0
H443 H 0.64503 0.7946 0.13338 0.0
H444 H 0.60606 0.73622 0.10072 0.0
H445 H 0.58798 0.68167 0.08707 0.0
H446 H 0.58313 0.71083 0.03339 0.0
H447 H 0.60066 0.76511 0.04679 0.0
N448 N 0.60437 0.80528 0.07311 0.0
N449 N 0.62427 0.84506 0.0978 0.0
N450 N 0.62607 0.79785 0.1004 0.0
C451 C 0.61024 0.8343 0.08043 0.0
C452 C 0.63227 0.82702 0.1079 0.0
C453 C 0.61238 0.787 0.08293 0.0
C454 C 0.59929 0.8529 0.07008 0.0
C455 C 0.57441 0.83738 0.05581 0.0
C456 C 0.56214 0.85431 0.047 0.0
C457 C 0.57499 0.88711 0.05208 0.0
C458 C 0.60052 0.90297 0.06587 0.0
C459 C 0.61242 0.88593 0.07492 0.0
C460 C 0.64596 0.83842 0.12718 0.0
C461 C 0.65348 0.86918 0.13458 0.0
C462 C 0.66466 0.87939 0.15298 0.0
C463 C 0.66851 0.85908 0.16431 0.0
C464 C 0.6617 0.82868 0.15703 0.0
C465 C 0.65056 0.81841 0.13858 0.0
C466 C 0.60454 0.75491 0.07484 0.0
C467 C 0.60152 0.73112 0.086 0.0
C468 C 0.33497 0.87868 0.07517 0.0
C469 C 0.33178 0.87177 0.05612 0.0
C470 C 0.30264 0.84686 0.04741 0.0
C471 C 0.27718 0.82862 0.0576 0.0
H472 H 0.20296 0.73643 0.05528 0.0
H473 H 0.16099 0.68395 0.04094 0.0
H474 H 0.10681 0.67073 0.08747 0.0
H475 H 0.14868 0.7231 0.1021 0.0
H476 H 0.18835 0.76637 0.13876 0.0
H477 H 0.1797 0.78226 0.16895 0.0
H478 H 0.24852 0.88102 0.16335 0.0
H479 H 0.25769 0.86533 0.13286 0.0
H480 H 0.31246 0.86624 0.10009 0.0
H481 H 0.35735 0.89797 0.08209 0.0
H482 H 0.29974 0.84134 0.03272 0.0
H483 H 0.25508 0.80937 0.05041 0.0
N484 N 0.22971 0.78544 0.07946 0.0
N485 N 0.20345 0.77565 0.10607 0.0
N486 N 0.25155 0.82422 0.10487 0.0
C487 C 0.20478 0.76581 0.08869 0.0
C488 C 0.22658 0.80469 0.11431 0.0
C489 C 0.2532 0.81459 0.08736 0.0
C490 C 0.17929 0.73405 0.07989 0.0
C491 C 0.18217 0.72246 0.06252 0.0
C492 C 0.15825 0.69248 0.05428 0.0
C493 C 0.13097 0.67361 0.0632 0.0
C494 C 0.1278 0.68504 0.08045 0.0
C495 C 0.1518 0.71496 0.08876 0.0
C496 C 0.22361 0.81462 0.13326 0.0
C497 C 0.20191 0.79152 0.14389 0.0
C498 C 0.19693 0.80048 0.16121 0.0
C499 C 0.21339 0.83275 0.16834 0.0
C500 C 0.23565 0.85595 0.15805 0.0
C501 C 0.24087 0.84694 0.14067 0.0
C502 C 0.28017 0.83515 0.07674 0.0
C503 C 0.30929 0.86063 0.0854 0.0
C504 C 0.13198 0.44256 0.08 0.0
C505 C 0.13642 0.45385 0.06268 0.0
C506 C 0.16372 0.45919 0.05423 0.0
C507 C 0.18636 0.45324 0.06293 0.0
H508 H 0.26491 0.45071 0.05374 0.0
H509 H 0.31192 0.46367 0.03756 0.0
H510 H 0.3567 0.44678 0.0844 0.0
H511 H 0.30949 0.4337 0.10103 0.0
H512 H 0.25624 0.39174 0.13226 0.0
H513 H 0.24506 0.36835 0.16156 0.0
H514 H 0.17058 0.39201 0.16652 0.0
H515 H 0.18117 0.41504 0.1374 0.0
H516 H 0.1506 0.42779 0.10209 0.0
H517 H 0.11098 0.43837 0.08669 0.0
H518 H 0.16746 0.46794 0.04087 0.0
H519 H 0.20714 0.4576 0.05596 0.0
N520 N 0.23246 0.44053 0.08087 0.0
N521 N 0.25091 0.42334 0.10544 0.0
N522 N 0.20259 0.42409 0.10599 0.0
C523 C 0.2549 0.43472 0.0887 0.0
C524 C 0.22468 0.41798 0.11418 0.0
C525 C 0.20629 0.43534 0.08933 0.0
C526 C 0.28333 0.44126 0.07882 0.0
C527 C 0.28461 0.44964 0.06074 0.0
C528 C 0.31146 0.45704 0.05138 0.0
C529 C 0.33771 0.45632 0.05984 0.0
C530 C 0.33661 0.44758 0.07774 0.0
C531 C 0.30959 0.44004 0.08717 0.0
C532 C 0.21953 0.40518 0.13235 0.0
C533 C 0.23762 0.39217 0.13963 0.0
C534 C 0.23128 0.37877 0.15635 0.0
C535 C 0.20698 0.37846 0.16617 0.0
C536 C 0.1894 0.39199 0.15914 0.0
C537 C 0.19551 0.4051 0.14243 0.0
C538 C 0.18213 0.44179 0.08029 0.0
C539 C 0.15466 0.43655 0.08874 0.0
C540 C 0.34264 0.89101 0.27299 0.0
C541 C 0.34263 0.88506 0.29142 0.0
C542 C 0.36963 0.88609 0.30023 0.0
C543 C 0.39608 0.89243 0.29072 0.0
H544 H 0.47641 0.88761 0.2962 0.0
H545 H 0.51497 0.8749 0.31055 0.0
H546 H 0.56096 0.88767 0.26074 0.0
H547 H 0.52255 0.9006 0.24612 0.0
H548 H 0.4963 0.92101 0.21254 0.0
H549 H 0.50481 0.94203 0.18278 0.0
H550 H 0.42819 0.96259 0.18758 0.0
H551 H 0.41913 0.94131 0.21745 0.0
H552 H 0.36851 0.90174 0.24919 0.0
H553 H 0.32194 0.89031 0.26599 0.0
H554 H 0.37005 0.88165 0.31446 0.0
H555 H 0.41639 0.89277 0.29797 0.0
N556 N 0.44666 0.89776 0.26993 0.0
N557 N 0.47508 0.91186 0.24411 0.0
N558 N 0.42736 0.91358 0.24506 0.0
C559 C 0.47216 0.90184 0.26109 0.0
C560 C 0.4529 0.9179 0.23598 0.0
C561 C 0.42411 0.90345 0.26209 0.0
C562 C 0.49624 0.89506 0.26994 0.0
C563 C 0.49472 0.88785 0.28823 0.0
C564 C 0.51677 0.88065 0.29651 0.0
C565 C 0.54068 0.8804 0.28668 0.0
C566 C 0.54261 0.88785 0.26851 0.0
C567 C 0.52063 0.89521 0.26021 0.0
C568 C 0.45706 0.92953 0.21752 0.0
C569 C 0.48107 0.92985 0.20733 0.0
C570 C 0.48599 0.9418 0.19026 0.0
C571 C 0.46717 0.95387 0.18302 0.0
C572 C 0.44291 0.9533 0.19296 0.0
C573 C 0.4378 0.94112 0.21002 0.0
C574 C 0.39623 0.89806 0.27216 0.0
C575 C 0.36928 0.89758 0.26344 0.0
C576 C 0.09283 0.44367 0.27737 0.0
C577 C 0.10836 0.45485 0.2951 0.0
C578 C 0.11291 0.48375 0.30348 0.0
C579 C 0.10222 0.50148 0.29416 0.0
H580 H 0.0949 0.58075 0.30109 0.0
H581 H 0.11132 0.63428 0.31528 0.0
H582 H 0.0874 0.65958 0.26405 0.0
H583 H 0.07074 0.60596 0.24955 0.0
H584 H 0.04563 0.55518 0.21507 0.0
H585 H 0.02303 0.5389 0.18321 0.0
H586 H 0.00577 0.44346 0.18863 0.0
H587 H 0.02876 0.45951 0.22056 0.0
H588 H 0.07037 0.45225 0.25428 0.0
H589 H 0.08904 0.42123 0.2708 0.0
H590 H 0.12469 0.49251 0.31723 0.0
H591 H 0.10622 0.5238 0.301 0.0
N592 N 0.08208 0.53858 0.27433 0.0
N593 N 0.05995 0.54755 0.24784 0.0
N594 N 0.06212 0.50024 0.24887 0.0
C595 C 0.07394 0.55746 0.26526 0.0
C596 C 0.05379 0.51889 0.23956 0.0
C597 C 0.07635 0.51002 0.26628 0.0
C598 C 0.08169 0.58909 0.27412 0.0
C599 C 0.09289 0.59753 0.29279 0.0
C600 C 0.10222 0.62804 0.30098 0.0
C601 C 0.10058 0.65062 0.29064 0.0
C602 C 0.08874 0.64225 0.27216 0.0
C603 C 0.07924 0.61164 0.26394 0.0
C604 C 0.03913 0.50867 0.2204 0.0
C605 C 0.03696 0.53066 0.20958 0.0
C606 C 0.02409 0.52147 0.19135 0.0
C607 C 0.0129 0.49008 0.18363 0.0
C608 C 0.01444 0.46784 0.1944 0.0
C609 C 0.02762 0.4771 0.21261 0.0
C610 C 0.08678 0.49057 0.27627 0.0
C611 C 0.08213 0.46139 0.268 0.0
C612 C 0.53133 0.63707 0.2616 0.0
C613 C 0.53388 0.64456 0.28053 0.0
C614 C 0.51227 0.62174 0.29117 0.0
C615 C 0.48801 0.59197 0.28298 0.0
H616 H 0.39083 0.52647 0.28685 0.0
H617 H 0.35025 0.4955 0.30603 0.0
H618 H 0.32435 0.40947 0.27117 0.0
H619 H 0.36492 0.44102 0.25169 0.0
H620 H 0.39369 0.45518 0.21047 0.0
H621 H 0.39813 0.43631 0.1797 0.0
H622 H 0.48772 0.52395 0.1775 0.0
H623 H 0.48374 0.54318 0.20809 0.0
H624 H 0.50562 0.60194 0.23873 0.0
H625 H 0.54776 0.65456 0.2532 0.0
H626 H 0.51389 0.62722 0.3058 0.0
H627 H 0.47156 0.57498 0.29157 0.0
N628 N 0.43353 0.53466 0.26477 0.0
N629 N 0.41098 0.49438 0.24019 0.0
N630 N 0.45996 0.54173 0.23828 0.0
C631 C 0.40945 0.50552 0.25732 0.0
C632 C 0.43621 0.51253 0.23054 0.0
C633 C 0.45885 0.55288 0.2554 0.0
C634 C 0.38271 0.48605 0.26833 0.0
C635 C 0.37735 0.50066 0.28371 0.0
C636 C 0.35444 0.48233 0.29528 0.0
C637 C 0.33747 0.44843 0.29265 0.0
C638 C 0.33995 0.43458 0.27572 0.0
C639 C 0.3627 0.45294 0.26399 0.0
C640 C 0.43834 0.50073 0.21185 0.0
C641 C 0.41435 0.4705 0.20348 0.0
C642 C 0.41682 0.45964 0.18592 0.0
C643 C 0.44328 0.47879 0.17645 0.0
C644 C 0.46718 0.50888 0.18466 0.0
C645 C 0.46477 0.51978 0.20218 0.0
C646 C 0.48509 0.58432 0.26398 0.0
C647 C 0.50725 0.60706 0.25339 0.0
Eu648 Eu 0.48996 0.97578 0.9863 0.0
Eu649 Eu 0.51027 0.01935 0.02806 0.0
C650 C 0.47787 0.03608 0.99404 0.0
C651 C 0.4918 0.96787 0.93584 0.0
C652 C 0.51342 0.00108 0.93757 0.0
C653 C 0.49069 0.96758 0.90276 0.0
C654 C 0.52357 0.01741 0.92208 0.0
C655 C 0.48049 0.95116 0.91835 0.0
C656 C 0.51226 0.00082 0.90459 0.0
C657 C 0.48088 0.95135 0.95241 0.0
O658 O 0.46077 0.97662 0.02872 0.0
O659 O 0.44804 0.94413 1.00152 0.0
C660 C 0.44174 0.95034 0.01792 0.0
O661 O 0.50371 0.94838 1.00466 0.0
O662 O 0.49583 0.0395 0.05049 0.0
O663 O 0.54183 0.04178 0.05333 0.0
O664 O 0.53041 0.9864 0.02949 0.0
C665 C 0.52219 0.95901 0.02013 0.0
O666 O 0.54039 0.01734 0.98635 0.0
O667 O 0.55111 0.05166 0.01241 0.0
O668 O 0.49525 0.04615 0.00989 0.0
O669 O 0.50365 0.95435 0.96417 0.0
O670 O 0.45976 0.95586 0.96035 0.0
O671 O 0.4706 0.00922 0.98445 0.0
C672 C 0.51313 0.03255 0.07948 0.0
C673 C 0.51118 0.00321 0.08246 0.0
C674 C 0.49844 0.03618 0.11023 0.0
C675 C 0.50319 0.9906 0.09926 0.0
C676 C 0.50661 0.04887 0.09346 0.0
C677 C 0.49675 0.007 0.11326 0.0
C678 C 0.52056 0.04556 0.06164 0.0
C679 C 0.55846 0.04455 0.99657 0.0
H680 H 0.52236 0.01444 0.95092 0.0
H681 H 0.48168 0.95447 0.88933 0.0
H682 H 0.54013 0.04306 0.92374 0.0
H683 H 0.46371 0.92557 0.91675 0.0
H684 H 0.51577 0.99002 0.0718 0.0
H685 H 0.4935 0.04912 0.12087 0.0
H686 H 0.50198 0.96805 0.10134 0.0
H687 H 0.5077 0.07137 0.09137 0.0
Eu688 Eu 0.02443 0.50279 0.98773 0.0
Eu689 Eu 0.97666 0.47804 0.02207 0.0
C690 C 0.96772 0.43051 0.98739 0.0
C691 C 0.04668 0.52686 0.9407 0.0
C692 C 0.01442 0.51548 0.93492 0.0
C693 C 0.0616 0.55101 0.91234 0.0
C694 C 0.00588 0.5225 0.91815 0.0
C695 C 0.07013 0.54397 0.92916 0.0
C696 C 0.02945 0.54261 0.90698 0.0
C697 C 0.05583 0.52163 0.95893 0.0
O698 O 0.01917 0.47198 0.02997 0.0
O699 O 0.05407 0.4926 0.00755 0.0
C700 C 0.04642 0.4798 0.02302 0.0
O701 O 0.04691 0.54501 0.00921 0.0
O702 O 0.95184 0.43971 0.03957 0.0
O703 O 0.94715 0.482 0.04226 0.0
O704 O 0.01354 0.52863 0.03254 0.0
C705 C 0.03897 0.54993 0.02536 0.0
O706 O 0.9798 0.50401 0.97853 0.0
O707 O 0.95444 0.4998 1.00477 0.0
O708 O 0.95278 0.44016 0.99812 0.0
O709 O 0.05682 0.54121 0.97222 0.0
O710 O 0.04147 0.49202 0.96291 0.0
O711 O 0.99804 0.44899 0.98503 0.0
C712 C 0.95061 0.45963 0.06918 0.0
C713 C 0.97919 0.48642 0.07731 0.0
C714 C 0.93962 0.43862 0.0987 0.0
C715 C 0.98774 0.48945 0.09603 0.0
C716 C 0.9309 0.43572 0.07995 0.0
C717 C 0.96804 0.46557 0.10683 0.0
C718 C 0.94213 0.45601 0.04939 0.0
C719 C 0.95787 0.5055 0.98761 0.0
H720 H 0.99572 0.50102 0.94336 0.0
H721 H 0.08064 0.56239 0.90365 0.0
H722 H 0.98049 0.51123 0.91407 0.0
H723 H 0.09512 0.55185 0.93311 0.0
H724 H 0.99497 0.50492 0.06917 0.0
H725 H 0.92428 0.41991 0.10686 0.0
H726 H 0.00983 0.5103 0.10209 0.0
H727 H 0.90896 0.41476 0.07385 0.0
Eu728 Eu 0.51828 0.49273 0.02706 0.0
Eu729 Eu 0.49601 0.51403 0.98916 0.0
C730 C 0.53163 0.56371 0.02462 0.0
C731 C 0.51514 0.47329 0.07532 0.0
C732 C 0.49397 0.48486 0.07728 0.0
C733 C 0.50369 0.45302 0.10497 0.0
C734 C 0.47714 0.47979 0.09273 0.0
C735 C 0.52058 0.45813 0.08947 0.0
C736 C 0.47942 0.46129 0.10634 0.0
C737 C 0.53035 0.47607 0.05824 0.0
O738 O 0.53729 0.50697 0.98292 0.0
O739 O 0.56267 0.5159 0.01184 0.0
C740 C 0.56285 0.51456 0.99395 0.0
O741 O 0.50574 0.45291 1.00512 0.0
O742 O 0.50811 0.54961 0.9696 0.0
O743 O 0.46283 0.50502 0.96516 0.0
O744 O 0.47085 0.46013 0.98619 0.0
C745 C 0.48237 0.44241 0.99196 0.0
O746 O 0.46562 0.47577 0.02709 0.0
O747 O 0.46094 0.511 0.00928 0.0
O748 O 0.53036 0.55945 0.00682 0.0
O749 O 0.51153 0.45555 0.04462 0.0
O750 O 0.54705 0.50501 0.05335 0.0
O751 O 0.52107 0.53974 0.03472 0.0
C752 C 0.49031 0.52676 0.93928 0.0
C753 C 0.49407 0.50071 0.93344 0.0
C754 C 0.50539 0.54798 0.91002 0.0
C755 C 0.50335 0.4983 0.91603 0.0
C756 C 0.49597 0.55032 0.92743 0.0
C757 C 0.50922 0.52199 0.90423 0.0
C758 C 0.48315 0.53087 0.95812 0.0
C759 C 0.4505 0.49049 0.02168 0.0
H760 H 0.49035 0.49785 0.06679 0.0
H761 H 0.51064 0.44312 0.11583 0.0
H762 H 0.46289 0.49119 0.09383 0.0
H763 H 0.5379 0.45018 0.08855 0.0
H764 H 0.49023 0.48249 0.94244 0.0
H765 H 0.50989 0.5665 0.9011 0.0
H766 H 0.50625 0.47811 0.9118 0.0
H767 H 0.4936 0.57079 0.93176 0.0
Eu768 Eu 0.15514 0.31154 0.3196 0.0
Eu769 Eu 0.1784 0.35192 0.36166 0.0
C770 C 0.1476 0.37345 0.32892 0.0
C771 C 0.15035 0.297 0.26821 0.0
C772 C 0.15515 0.32749 0.26528 0.0
C773 C 0.16547 0.2922 0.2377 0.0
C774 C 0.16474 0.34008 0.24863 0.0
C775 C 0.15563 0.2795 0.25431 0.0
C776 C 0.17005 0.32257 0.23472 0.0
C777 C 0.14199 0.28423 0.28606 0.0
O778 O 0.12685 0.31404 0.36228 0.0
O779 O 0.11828 0.27815 0.33749 0.0
C780 C 0.11004 0.28572 0.35299 0.0
O781 O 0.18929 0.29944 0.33407 0.0
O782 O 0.16962 0.37605 0.38484 0.0
O783 O 0.21247 0.37225 0.38611 0.0
O784 O 0.18055 0.3068 0.36377 0.0
C785 C 0.19125 0.29496 0.35133 0.0
O786 O 0.19908 0.35914 0.3169 0.0
O787 O 0.22278 0.37071 0.34639 0.0
O788 O 0.16743 0.38252 0.34391 0.0
O789 O 0.16602 0.28819 0.29704 0.0
O790 O 0.12236 0.29037 0.2946 0.0
O791 O 0.13629 0.34546 0.31951 0.0
C792 C 0.18709 0.36738 0.41344 0.0
C793 C 0.18723 0.33937 0.41749 0.0
C794 C 0.17162 0.37207 0.4439 0.0
C795 C 0.17989 0.32801 0.43465 0.0
C796 C 0.1792 0.38358 0.42679 0.0
C797 C 0.17198 0.34423 0.44798 0.0
C798 C 0.19402 0.37931 0.39524 0.0
C799 C 0.22454 0.37387 0.32881 0.0
H800 H 0.15176 0.34169 0.27592 0.0
H801 H 0.16954 0.27838 0.22716 0.0
H802 H 0.16823 0.36358 0.2466 0.0
H803 H 0.15248 0.25615 0.25638 0.0
H804 H 0.19287 0.32618 0.40739 0.0
H805 H 0.16551 0.38487 0.45399 0.0
H806 H 0.18023 0.30647 0.43751 0.0
H807 H 0.17872 0.40506 0.42393 0.0
Eu808 Eu 0.68843 0.83655 0.322 0.0
Eu809 Eu 0.64209 0.81386 0.35613 0.0
C810 C 0.62529 0.76728 0.3195 0.0
C811 C 0.71621 0.85979 0.27564 0.0
C812 C 0.68515 0.85202 0.26923 0.0
C813 C 0.7346 0.87954 0.24666 0.0
C814 C 0.67902 0.8587 0.25179 0.0
C815 C 0.74072 0.87282 0.26414 0.0
C816 C 0.70409 0.875 0.24051 0.0
C817 C 0.72301 0.85464 0.29437 0.0
O818 O 0.68854 0.81679 0.36618 0.0
O819 O 0.70444 0.80841 0.33856 0.0
C820 C 0.70582 0.80871 0.35642 0.0
O821 O 0.71619 0.87346 0.34588 0.0
O822 O 0.61871 0.77908 0.37571 0.0
O823 O 0.61212 0.82017 0.37515 0.0
O824 O 0.67431 0.86725 0.362 0.0
C825 C 0.70426 0.8839 0.35834 0.0
O826 O 0.65554 0.85673 0.31833 0.0
O827 O 0.61375 0.82179 0.33375 0.0
O828 O 0.627 0.76926 0.33738 0.0
O829 O 0.7228 0.87453 0.30703 0.0
O830 O 0.70766 0.82505 0.29841 0.0
O831 O 0.64247 0.79214 0.31063 0.0
C832 C 0.61527 0.80192 0.40384 0.0
C833 C 0.64097 0.83131 0.41196 0.0
C834 C 0.60648 0.78173 0.43363 0.0
C835 C 0.64941 0.83583 0.43078 0.0
C836 C 0.59796 0.77726 0.4148 0.0
C837 C 0.63239 0.81096 0.44169 0.0
C838 C 0.60785 0.79586 0.3839 0.0
C839 C 0.62557 0.84349 0.32212 0.0
H840 H 0.66554 0.84062 0.27771 0.0
H841 H 0.75405 0.88753 0.23811 0.0
H842 H 0.65418 0.85012 0.24731 0.0
H843 H 0.76463 0.87768 0.26862 0.0
H844 H 0.65482 0.85056 0.40372 0.0
H845 H 0.59321 0.76229 0.44189 0.0
H846 H 0.66953 0.85849 0.43682 0.0
H847 H 0.57826 0.75435 0.40874 0.0
Eu848 Eu 0.18391 0.82711 0.36135 0.0
Eu849 Eu 0.16124 0.84893 0.32357 0.0
C850 C 0.19442 0.89809 0.36005 0.0
C851 C 0.18032 0.80524 0.40907 0.0
C852 C 0.15975 0.81744 0.41144 0.0
C853 C 0.16875 0.78416 0.4385 0.0
C854 C 0.14312 0.81227 0.42698 0.0
C855 C 0.18541 0.78933 0.42291 0.0
C856 C 0.14505 0.79313 0.44028 0.0
C857 C 0.19533 0.80829 0.39189 0.0
O858 O 0.20491 0.84562 0.31795 0.0
O859 O 0.22899 0.85258 0.34705 0.0
C860 C 0.23009 0.85302 0.32928 0.0
O861 O 0.17395 0.78957 0.33839 0.0
O862 O 0.17306 0.88406 0.30375 0.0
O863 O 0.1283 0.83892 0.29929 0.0
O864 O 0.13678 0.79515 0.32074 0.0
C865 C 0.14995 0.7784 0.3256 0.0
O866 O 0.13159 0.81144 0.36225 0.0
O867 O 0.12454 0.84374 0.34292 0.0
O868 O 0.19057 0.89452 0.34215 0.0
O869 O 0.1761 0.78863 0.37809 0.0
O870 O 0.21273 0.83744 0.38743 0.0
O871 O 0.1881 0.8744 0.36997 0.0
C872 C 0.15649 0.86014 0.2736 0.0
C873 C 0.16265 0.83528 0.26881 0.0
C874 C 0.1704 0.8794 0.24382 0.0
C875 C 0.17237 0.83237 0.25159 0.0
C876 C 0.16044 0.88217 0.261 0.0
C877 C 0.17643 0.85448 0.239 0.0
C878 C 0.14853 0.8647 0.29216 0.0
C879 C 0.11539 0.82465 0.35607 0.0
H880 H 0.1565 0.83102 0.40121 0.0
H881 H 0.17547 0.77367 0.44913 0.0
H882 H 0.12933 0.82411 0.42839 0.0
H883 H 0.20228 0.78089 0.42168 0.0
H884 H 0.16033 0.81835 0.27845 0.0
H885 H 0.17349 0.89671 0.23428 0.0
H886 H 0.17699 0.81305 0.24813 0.0
H887 H 0.15625 0.90176 0.26455 0.0
Eu888 Eu 0.81789 0.64387 0.65105 0.0
Eu889 Eu 0.83971 0.68507 0.69279 0.0
C890 C 0.81074 0.7061 0.65844 0.0
C891 C 0.81424 0.62679 0.60002 0.0
C892 C 0.81743 0.65631 0.59611 0.0
C893 C 0.83033 0.62093 0.56994 0.0
C894 C 0.82661 0.66782 0.57919 0.0
C895 C 0.82086 0.60927 0.58683 0.0
C896 C 0.83312 0.65023 0.56597 0.0
C897 C 0.80547 0.61491 0.61804 0.0
O898 O 0.79418 0.63836 0.69452 0.0
O899 O 0.77221 0.62752 0.66476 0.0
C900 C 0.76927 0.62443 0.68227 0.0
O901 O 0.8249 0.61316 0.67043 0.0
O902 O 0.82818 0.70707 0.71565 0.0
O903 O 0.87153 0.7043 0.71826 0.0
O904 O 0.8619 0.65388 0.69131 0.0
C905 C 0.84814 0.62434 0.68369 0.0
O906 O 0.87009 0.68208 0.65158 0.0
O907 O 0.88002 0.71756 0.6769 0.0
O908 O 0.81584 0.70675 0.67625 0.0
O909 O 0.82917 0.61906 0.62945 0.0
O910 O 0.78575 0.62169 0.62597 0.0
O911 O 0.81455 0.6873 0.64656 0.0
C912 C 0.84324 0.69672 0.7444 0.0
C913 C 0.81404 0.66828 0.74561 0.0
C914 C 0.85712 0.69895 0.7769 0.0
C915 C 0.80634 0.65548 0.76237 0.0
C916 C 0.86471 0.7119 0.76015 0.0
C917 C 0.82787 0.67066 0.77813 0.0
C918 C 0.85178 0.71024 0.72675 0.0
C919 C 0.88821 0.7097 0.66155 0.0
H920 H 0.81295 0.67054 0.60616 0.0
H921 H 0.83536 0.60709 0.55994 0.0
H922 H 0.82873 0.69051 0.5764 0.0
H923 H 0.81889 0.58665 0.58964 0.0
H924 H 0.79721 0.65592 0.7336 0.0
H925 H 0.87406 0.71094 0.7889 0.0
H926 H 0.7837 0.63361 0.76304 0.0
H927 H 0.8874 0.73372 0.75949 0.0
Eu928 Eu 0.35992 0.17004 0.65456 0.0
Eu929 Eu 0.31536 0.14686 0.68919 0.0
C930 C 0.29619 0.10166 0.65162 0.0
C931 C 0.38476 0.19376 0.60795 0.0
C932 C 0.3535 0.17497 0.59946 0.0
C933 C 0.39882 0.2266 0.58262 0.0
C934 C 0.34472 0.18252 0.58296 0.0
C935 C 0.40754 0.21905 0.59921 0.0
C936 C 0.36655 0.20988 0.57469 0.0
C937 C 0.39303 0.18867 0.62645 0.0
O938 O 0.36083 0.14657 0.69778 0.0
O939 O 0.37307 0.13798 0.66912 0.0
C940 C 0.37604 0.1374 0.68689 0.0
O941 O 0.39047 0.20421 0.67895 0.0
O942 O 0.29126 0.1111 0.70816 0.0
O943 O 0.287 0.15369 0.70914 0.0
O944 O 0.3502 0.19972 0.69596 0.0
C945 C 0.38009 0.21531 0.69198 0.0
O946 O 0.32864 0.19229 0.6528 0.0
O947 O 0.28679 0.15645 0.66773 0.0
O948 O 0.29872 0.1029 0.6695 0.0
O949 O 0.39346 0.20844 0.63944 0.0
O950 O 0.37869 0.1591 0.63059 0.0
O951 O 0.31297 0.12699 0.64302 0.0
C952 C 0.2879 0.13207 0.73696 0.0
C953 C 0.31496 0.15955 0.74587 0.0
C954 C 0.27459 0.10996 0.76606 0.0
C955 C 0.32166 0.16227 0.76479 0.0
C956 C 0.26774 0.10736 0.74716 0.0
C957 C 0.30159 0.13742 0.77497 0.0
C958 C 0.28128 0.12811 0.717 0.0
C959 C 0.29866 0.17894 0.65655 0.0
H960 H 0.33564 0.1546 0.60568 0.0
H961 H 0.41806 0.24546 0.57647 0.0
H962 H 0.3205 0.16654 0.57677 0.0
H963 H 0.43212 0.2333 0.60535 0.0
H964 H 0.33104 0.17871 0.73819 0.0
H965 H 0.25899 0.09053 0.77374 0.0
H966 H 0.34267 0.18355 0.77148 0.0
H967 H 0.24694 0.08588 0.74046 0.0
Eu968 Eu 0.85734 0.16738 0.6961 0.0
Eu969 Eu 0.82982 0.18204 0.6573 0.0
C970 C 0.86672 0.23581 0.69014 0.0
C971 C 0.85621 0.15189 0.74499 0.0
C972 C 0.83384 0.16198 0.74699 0.0
C973 C 0.84264 0.12791 0.7736 0.0
C974 C 0.81555 0.1545 0.76188 0.0
C975 C 0.861 0.13543 0.75862 0.0
C976 C 0.81759 0.13509 0.77495 0.0
C977 C 0.87388 0.15816 0.72857 0.0
O978 O 0.88224 0.19875 0.65554 0.0
O979 O 0.89162 0.16919 0.67584 0.0
C980 C 0.89915 0.18629 0.66176 0.0
O981 O 0.82277 0.11896 0.68157 0.0
O982 O 0.83758 0.21605 0.63724 0.0
O983 O 0.7967 0.16773 0.63266 0.0
O984 O 0.8238 0.13286 0.65222 0.0
C985 C 0.81686 0.11134 0.66387 0.0
O986 O 0.81148 0.1661 0.70209 0.0
O987 O 0.78723 0.16447 0.67382 0.0
O988 O 0.84067 0.22212 0.67871 0.0
O989 O 0.86057 0.13562 0.71503 0.0
O990 O 0.88422 0.18644 0.72301 0.0
O991 O 0.88201 0.22065 0.69422 0.0
C992 C 0.82385 0.19151 0.60706 0.0
C993 C 0.82831 0.16586 0.60132 0.0
C994 C 0.84085 0.21393 0.57829 0.0
C995 C 0.8387 0.16414 0.58416 0.0
C996 C 0.83026 0.21554 0.59544 0.0
C997 C 0.84501 0.18813 0.57252 0.0
C998 C 0.81455 0.19444 0.62552 0.0
C999 C 0.78664 0.16203 0.69151 0.0
H1000 H 0.83053 0.17593 0.73706 0.0
H1001 H 0.84927 0.11723 0.78415 0.0
H1002 H 0.80042 0.16492 0.76306 0.0
H1003 H 0.87911 0.12854 0.75777 0.0
H1004 H 0.82399 0.14725 0.61014 0.0
H1005 H 0.84573 0.2327 0.5695 0.0
H1006 H 0.84191 0.14414 0.57997 0.0
H1007 H 0.82736 0.23571 0.5997 0.0
C1008 C 0.36346 0.91997 0.03926 0.0
C1009 C 0.3589 0.89069 0.04514 0.0
C1010 C 0.40673 0.89818 0.03084 0.0
C1011 C 0.41109 0.92735 0.0249 0.0
N1012 N 0.39021 0.96238 0.01955 0.0
N1013 N 0.37258 0.84904 0.04432 0.0
C1014 C 0.38838 0.93715 0.02797 0.0
C1015 C 0.37941 0.87886 0.04018 0.0
N1016 N 0.34433 0.93165 0.04479 0.0
N1017 N 0.42943 0.88969 0.02824 0.0
H1018 H 0.3537 0.83485 0.05188 0.0
H1019 H 0.38426 0.83739 0.03937 0.0
H1020 H 0.44887 0.90242 0.02073 0.0
H1021 H 0.43009 0.87106 0.03425 0.0
H1022 H 0.34871 0.95457 0.04281 0.0
H1023 H 0.32502 0.91915 0.05244 0.0
H1024 H 0.37289 0.96919 0.0198 0.0
H1025 H 0.40766 0.97472 0.01076 0.0
C1026 C 0.08393 0.43443 0.04386 0.0
C1027 C 0.11255 0.46024 0.05321 0.0
C1028 C 0.09925 0.49893 0.04136 0.0
C1029 C 0.06945 0.47309 0.03313 0.0
N1030 N 0.03183 0.41622 0.02749 0.0
N1031 N 0.14522 0.51646 0.06358 0.0
C1032 C 0.06123 0.4408 0.03477 0.0
C1033 C 0.11959 0.49235 0.05271 0.0
N1034 N 0.07913 0.40399 0.04303 0.0
N1035 N 0.10839 0.52974 0.03812 0.0
H1036 H 0.16071 0.51253 0.07203 0.0
H1037 H 0.1496 0.53986 0.06545 0.0
H1038 H 0.09384 0.53582 0.03042 0.0
H1039 H 0.1313 0.54918 0.042 0.0
H1040 H 0.06069 0.38462 0.03474 0.0
H1041 H 0.095 0.39833 0.04971 0.0
H1042 H 0.02269 0.39249 0.03019 0.0
H1043 H 0.01565 0.41967 0.01936 0.0
C1044 C 0.59044 0.64502 0.05007 0.0
C1045 C 0.57066 0.65894 0.05104 0.0
C1046 C 0.52637 0.61152 0.03319 0.0
C1047 C 0.54517 0.59651 0.03358 0.0
N1048 N 0.59349 0.59676 0.04415 0.0
N1049 N 0.51804 0.65322 0.04689 0.0
C1050 C 0.57671 0.61256 0.04263 0.0
C1051 C 0.53809 0.64155 0.04354 0.0
N1052 N 0.62258 0.66323 0.05553 0.0
N1053 N 0.49757 0.59739 0.02269 0.0
H1054 H 0.52559 0.67494 0.05468 0.0
H1055 H 0.49329 0.64004 0.04346 0.0
H1056 H 0.48782 0.57509 0.01516 0.0
H1057 H 0.48453 0.60888 0.02028 0.0
H1058 H 0.63892 0.65557 0.05332 0.0
H1059 H 0.63349 0.68711 0.061 0.0
H1060 H 0.61507 0.60589 0.05234 0.0
H1061 H 0.58481 0.57347 0.03817 0.0
C1062 C 0.9217 0.33932 0.97842 0.0
C1063 C 0.91404 0.33574 0.95924 0.0
C1064 C 0.94863 0.39336 0.95849 0.0
C1065 C 0.95026 0.39772 0.97783 0.0
N1066 N 0.94145 0.37455 0.00664 0.0
N1067 N 0.94522 0.35666 0.93388 0.0
C1068 C 0.9379 0.37059 0.98798 0.0
C1069 C 0.93441 0.3619 0.94968 0.0
N1070 N 0.9173 0.31332 0.98693 0.0
N1071 N 0.95988 0.41894 0.94838 0.0
H1072 H 0.94125 0.33393 0.92947 0.0
H1073 H 0.96225 0.37523 0.92715 0.0
H1074 H 0.96988 0.44256 0.95414 0.0
H1075 H 0.95655 0.4161 0.93413 0.0
H1076 H 0.92506 0.31456 1.00058 0.0
H1077 H 0.90936 0.29113 0.97954 0.0
H1078 H 0.92957 0.35574 0.01465 0.0
H1079 H 0.95516 0.3969 0.01415 0.0
C1080 C 0.61826 0.504 0.96339 0.0
C1081 C 0.64529 0.53548 0.96526 0.0
C1082 C 0.61873 0.55337 0.98663 0.0
C1083 C 0.59258 0.52142 0.98557 0.0
N1084 N 0.5703 0.46523 0.97614 0.0
N1085 N 0.67395 0.58901 0.98072 0.0
C1086 C 0.59316 0.4964 0.97485 0.0
C1087 C 0.64633 0.55987 0.97752 0.0
N1088 N 0.61619 0.48158 0.95031 0.0
N1089 N 0.61665 0.57769 0.99569 0.0
H1090 H 0.69437 0.59484 0.974 0.0
H1091 H 0.6775 0.60656 0.99098 0.0
H1092 H 0.59709 0.57384 1.00277 0.0
H1093 H 0.6332 0.60188 0.99518 0.0
H1094 H 0.59554 0.45934 0.94688 0.0
H1095 H 0.63425 0.48617 0.94177 0.0
H1096 H 0.57101 0.44565 0.97003 0.0
H1097 H 0.55217 0.45886 0.98484 0.0
C1098 C 0.46174 0.0838 0.96023 0.0
C1099 C 0.44143 0.09161 0.9698 0.0
C1100 C 0.44436 0.06235 0.99522 0.0
C1101 C 0.46621 0.0562 0.98612 0.0
N1102 N 0.49956 0.06467 0.96139 0.0
N1103 N 0.41588 0.09178 0.99701 0.0
C1104 C 0.47586 0.0678 0.96896 0.0
C1105 C 0.43354 0.08196 0.98751 0.0
N1106 N 0.4673 0.09149 0.9427 0.0
N1107 N 0.43271 0.04812 0.01072 0.0
H1108 H 0.40587 0.10452 0.99143 0.0
H1109 H 0.41269 0.08904 0.01079 0.0
H1110 H 0.44019 0.0338 0.01689 0.0
H1111 H 0.41389 0.04843 0.01679 0.0
H1112 H 0.47839 0.08292 0.93413 0.0
H1113 H 0.45904 0.10492 0.93618 0.0
H1114 H 0.51026 0.07561 0.94997 0.0
H1115 H 0.51066 0.05327 0.9674 0.0
C1116 C 0.63756 0.07493 0.97617 0.0
C1117 C 0.64175 0.1036 0.96953 0.0
C1118 C 0.59328 0.09613 0.98301 0.0
C1119 C 0.58921 0.06751 0.98967 0.0
N1120 N 0.61097 0.03374 0.99659 0.0
N1121 N 0.62732 0.14463 0.96894 0.0
C1122 C 0.61246 0.05814 0.98742 0.0
C1123 C 0.62077 0.11522 0.97373 0.0
N1124 N 0.65717 0.06341 0.97137 0.0
N1125 N 0.57018 0.1043 0.98489 0.0
H1126 H 0.64646 0.15865 0.9615 0.0
H1127 H 0.61519 0.15617 0.97329 0.0
H1128 H 0.55062 0.09183 0.99236 0.0
H1129 H 0.56935 0.12238 0.97833 0.0
H1130 H 0.6531 0.04081 0.97392 0.0
H1131 H 0.67659 0.07566 0.96374 0.0
H1132 H 0.62864 0.02738 0.99695 0.0
H1133 H 0.5934 0.02176 0.00539 0.0
C1134 C 0.91207 0.54807 0.97513 0.0
C1135 C 0.89395 0.52941 0.95868 0.0
C1136 C 0.91583 0.49365 0.96202 0.0
C1137 C 0.93559 0.51355 0.97781 0.0
N1138 N 0.95662 0.5625 0.99781 0.0
N1139 N 0.88175 0.4875 0.93484 0.0
C1140 C 0.93477 0.5415 0.98399 0.0
C1141 C 0.89689 0.50317 0.9516 0.0
N1142 N 0.90719 0.5718 0.98245 0.0
N1143 N 0.91389 0.46483 0.95753 0.0
H1144 H 0.86677 0.49306 0.9271 0.0
H1145 H 0.8859 0.47067 0.92796 0.0
H1146 H 0.92666 0.45656 0.9651 0.0
H1147 H 0.89747 0.44772 0.94732 0.0
H1148 H 0.91659 0.58357 0.9955 0.0
H1149 H 0.89199 0.57844 0.97592 0.0
H1150 H 0.95981 0.5851 1.0015 0.0
H1151 H 0.97351 0.55851 1.00475 0.0
C1152 C 0.46653 0.37116 0.95947 0.0
C1153 C 0.442 0.34566 0.96782 0.0
C1154 C 0.44524 0.38361 0.99258 0.0
C1155 C 0.46813 0.40921 0.98352 0.0
N1156 N 0.49658 0.42827 0.95693 0.0
N1157 N 0.40394 0.32745 0.99041 0.0
C1158 C 0.47751 0.40326 0.9665 0.0
C1159 C 0.43019 0.35183 0.98387 0.0
N1160 N 0.48027 0.36465 0.94532 0.0
N1161 N 0.43818 0.38966 0.00957 0.0
H1162 H 0.39228 0.30387 0.98433 0.0
H1163 H 0.39205 0.33094 1.00089 0.0
H1164 H 0.44781 0.41275 0.01609 0.0
H1165 H 0.42447 0.37178 0.01775 0.0
H1166 H 0.50069 0.38208 0.94005 0.0
H1167 H 0.47298 0.34141 0.93978 0.0
H1168 H 0.50123 0.42536 0.94353 0.0
H1169 H 0.50589 0.45217 0.9619 0.0
C1170 C 0.10272 0.61344 0.0608 0.0
C1171 C 0.10567 0.64177 0.05436 0.0
C1172 C 0.06427 0.60984 0.02911 0.0
C1173 C 0.06026 0.58138 0.03603 0.0
N1174 N 0.07113 0.55572 0.06041 0.0
N1175 N 0.08518 0.66709 0.03487 0.0
C1176 C 0.07789 0.58306 0.05256 0.0
C1177 C 0.08523 0.64001 0.03921 0.0
N1178 N 0.12472 0.61556 0.07414 0.0
N1179 N 0.04823 0.60808 0.0128 0.0
H1180 H 0.10014 0.68957 0.04204 0.0
H1181 H 0.0685 0.66695 0.02525 0.0
H1182 H 0.03108 0.58647 0.00553 0.0
H1183 H 0.05317 0.62799 0.00592 0.0
H1184 H 0.12626 0.59589 0.07785 0.0
H1185 H 0.14332 0.63735 0.08052 0.0
H1186 H 0.08041 0.55583 0.07353 0.0
H1187 H 0.05465 0.53275 0.05439 0.0
C1188 C 0.39242 0.49754 0.05212 0.0
C1189 C 0.36656 0.46536 0.04987 0.0
C1190 C 0.39354 0.45168 0.02665 0.0
C1191 C 0.42065 0.48305 0.03013 0.0
N1192 N 0.44807 0.53459 0.04797 0.0
N1193 N 0.34354 0.41071 0.0367 0.0
C1194 C 0.42063 0.50575 0.04327 0.0
C1195 C 0.36739 0.4421 0.03757 0.0
N1196 N 0.38976 0.52038 0.06248 0.0
N1197 N 0.39254 0.43136 0.01254 0.0
H1198 H 0.32377 0.40296 0.04428 0.0
H1199 H 0.34441 0.39197 0.02956 0.0
H1200 H 0.41116 0.43778 1.00418 0.0
H1201 H 0.37232 0.40929 0.00809 0.0
H1202 H 0.40608 0.54485 0.06294 0.0
H1203 H 0.36991 0.51514 0.06963 0.0
H1204 H 0.45085 0.55061 0.05897 0.0
H1205 H 0.46907 0.54158 0.0417 0.0
C1206 C 0.56871 0.91522 0.02599 0.0
C1207 C 0.56065 0.90461 0.04351 0.0
C1208 C 0.52448 0.92644 0.04458 0.0
C1209 C 0.5344 0.93914 0.02771 0.0
N1210 N 0.56822 0.94908 1.00312 0.0
N1211 N 0.53284 0.90143 0.07025 0.0
C1212 C 0.55693 0.93424 0.01851 0.0
C1213 C 0.53906 0.91059 0.05302 0.0
N1214 N 0.5875 0.90693 0.01649 0.0
N1215 N 0.50026 0.92857 0.05217 0.0
H1216 H 0.54133 0.88792 0.07646 0.0
H1217 H 0.52072 0.9086 0.07887 0.0
H1218 H 0.48921 0.94029 0.04648 0.0
H1219 H 0.48931 0.9168 0.06332 0.0
H1220 H 0.59115 0.91051 1.00284 0.0
H1221 H 0.59806 0.89457 0.02192 0.0
H1222 H 0.58745 0.94979 0.99699 0.0
H1223 H 0.55981 0.96276 0.99704 0.0
C1224 C 0.05611 0.21532 0.37911 0.0
C1225 C 0.02997 0.22062 0.38097 0.0
C1226 C 0.0555 0.26753 0.3638 0.0
C1227 C 0.08105 0.26151 0.36105 0.0
N1228 N 0.10416 0.22761 0.36435 0.0
N1229 N 1.00116 0.24713 0.37193 0.0
C1230 C 0.0807 0.23454 0.36802 0.0
C1231 C 0.02859 0.24534 0.37235 0.0
N1232 N 0.05814 0.19289 0.38866 0.0
N1233 N 0.05731 0.29503 0.35871 0.0
H1234 H 0.98097 0.23144 0.37816 0.0
H1235 H 0.99726 0.26228 0.36407 0.0
H1236 H 0.07599 0.31136 0.35187 0.0
H1237 H 0.04166 0.30285 0.36244 0.0
H1238 H 0.07822 0.19017 0.38965 0.0
H1239 H 0.04048 0.17827 0.39678 0.0
H1240 H 0.10329 0.20636 0.36713 0.0
H1241 H 0.1238 0.24226 0.35747 0.0
C1242 C 0.77398 0.81541 0.38843 0.0
C1243 C 0.77073 0.78488 0.38427 0.0
C1244 C 0.72308 0.7689 0.36304 0.0
C1245 C 0.7282 0.80047 0.36593 0.0
N1246 N 0.76189 0.85545 0.37873 0.0
N1247 N 0.74495 0.73364 0.36619 0.0
C1248 C 0.75448 0.82418 0.37798 0.0
C1249 C 0.74602 0.76188 0.37117 0.0
N1250 N 0.79541 0.83588 0.40256 0.0
N1251 N 0.69574 0.74538 0.35307 0.0
H1252 H 0.76082 0.72734 0.37221 0.0
H1253 H 0.72988 0.71746 0.35525 0.0
H1254 H 0.67838 0.7496 0.34693 0.0
H1255 H 0.6889 0.7212 0.35208 0.0
H1256 H 0.79632 0.85694 0.40759 0.0
H1257 H 0.81055 0.83054 0.41032 0.0
H1258 H 0.78265 0.87439 0.3858 0.0
H1259 H 0.74886 0.86297 0.37081 0.0
C1260 C 0.19532 0.97079 0.3831 0.0
C1261 C 0.22872 0.99138 0.38796 0.0
C1262 C 0.23927 0.94951 0.37596 0.0
C1263 C 0.20628 0.93023 0.36954 0.0
N1264 N 0.1535 0.92385 0.3645 0.0
N1265 N 0.2832 0.00249 0.38736 0.0
C1266 C 0.18444 0.94124 0.37239 0.0
C1267 C 0.25095 0.98129 0.38403 0.0
N1268 N 0.17396 0.97916 0.38917 0.0
N1269 N 0.25935 0.93735 0.37443 0.0
H1270 H 0.29258 0.02582 0.39349 0.0
H1271 H 0.30073 0.99785 0.38293 0.0
H1272 H 0.25194 0.91469 0.36788 0.0
H1273 H 0.28279 0.94878 0.38064 0.0
H1274 H 0.1492 0.96368 0.38777 0.0
H1275 H 0.18107 0.00064 0.39711 0.0
H1276 H 0.13745 0.93231 0.36438 0.0
H1277 H 0.1445 0.90185 0.35676 0.0
C1278 C 0.54725 0.69746 0.29641 0.0
C1279 C 0.55798 0.67692 0.28932 0.0
C1280 C 0.61361 0.71746 0.30023 0.0
C1281 C 0.60226 0.73625 0.30906 0.0
N1282 N 0.55775 0.7417 0.31822 0.0
N1283 N 0.60059 0.66507 0.28635 0.0
C1284 C 0.56892 0.72553 0.30795 0.0
C1285 C 0.59103 0.68635 0.29162 0.0
N1286 N 0.51654 0.69063 0.29162 0.0
N1287 N 0.64591 0.72925 0.30016 0.0
H1288 H 0.58475 0.64208 0.28004 0.0
H1289 H 0.62372 0.66918 0.28947 0.0
H1290 H 0.66314 0.7512 0.30713 0.0
H1291 H 0.65569 0.71831 0.29226 0.0
H1292 H 0.50841 0.70649 0.29475 0.0
H1293 H 0.50005 0.67048 0.28293 0.0
H1294 H 0.53344 0.73292 0.3195 0.0
H1295 H 0.57274 0.76265 0.32669 0.0
C1296 C 0.29433 0.8453 0.30594 0.0
C1297 C 0.31418 0.87719 0.30158 0.0
C1298 C 0.27932 0.89358 0.31607 0.0
C1299 C 0.26066 0.86215 0.32134 0.0
N1300 N 0.25351 0.80975 0.32444 0.0
N1301 N 0.32918 0.93297 0.30514 0.0
C1302 C 0.2692 0.83853 0.31728 0.0
C1303 C 0.30768 0.90173 0.30738 0.0
N1304 N 0.29869 0.82124 0.29862 0.0
N1305 N 0.26959 0.91547 0.31911 0.0
H1306 H 0.35016 0.93983 0.29879 0.0
H1307 H 0.32764 0.95234 0.3108 0.0
H1308 H 0.24997 0.91094 0.32632 0.0
H1309 H 0.27978 0.93742 0.31363 0.0
H1310 H 0.28285 0.79702 0.29962 0.0
H1311 H 0.31667 0.82519 0.29014 0.0
H1312 H 0.26066 0.7927 0.32351 0.0
H1313 H 0.23487 0.80399 0.3327 0.0
C1314 C 0.15177 0.4437 0.30579 0.0
C1315 C 0.11916 0.4357 0.30507 0.0
C1316 C 0.10524 0.3872 0.31995 0.0
C1317 C 0.13817 0.39588 0.32167 0.0
N1318 N 0.19351 0.43382 0.31771 0.0
N1319 N 0.06613 0.40401 0.31457 0.0
C1320 C 0.16172 0.42477 0.3152 0.0
C1321 C 0.09629 0.4087 0.31311 0.0
N1322 N 0.17286 0.4685 0.29673 0.0
N1323 N 0.08227 0.35794 0.32435 0.0
H1324 H 0.05859 0.41914 0.30953 0.0
H1325 H 0.04949 0.38688 0.32215 0.0
H1326 H 0.08773 0.34174 0.32978 0.0
H1327 H 0.05772 0.34862 0.32128 0.0
H1328 H 0.19602 0.47341 0.29483 0.0
H1329 H 0.16652 0.48316 0.28994 0.0
H1330 H 0.2121 0.45637 0.31546 0.0
H1331 H 0.20163 0.41936 0.32295 0.0
C1332 C 0.30852 0.44144 0.32202 0.0
C1333 C 0.31484 0.42793 0.30625 0.0
C1334 C 0.26743 0.37629 0.30986 0.0
C1335 C 0.2566 0.39222 0.32194 0.0
N1336 N 0.26812 0.44072 0.34022 0.0
N1337 N 0.3141 0.37881 0.29781 0.0
C1338 C 0.27763 0.42495 0.3284 0.0
C1339 C 0.29826 0.39401 0.30355 0.0
N1340 N 0.33327 0.46649 0.33276 0.0
N1341 N 0.24864 0.34427 0.30447 0.0
H1342 H 0.3386 0.39158 0.29614 0.0
H1343 H 0.30442 0.35406 0.29725 0.0
H1344 H 0.22724 0.32957 0.30993 0.0
H1345 H 0.25386 0.33272 0.29394 0.0
H1346 H 0.33038 0.47548 0.34529 0.0
H1347 H 0.35714 0.47461 0.3304 0.0
H1348 H 0.28173 0.46544 0.34374 0.0
H1349 H 0.24578 0.42968 0.34538 0.0
C1350 C 0.5903 0.89442 0.30702 0.0
C1351 C 0.56307 0.8713 0.29534 0.0
C1352 C 0.57892 0.83109 0.29968 0.0
C1353 C 0.6043 0.85321 0.31276 0.0
N1354 N 0.63205 0.90458 0.33078 0.0
N1355 N 0.52859 0.81655 0.28238 0.0
C1356 C 0.60953 0.8846 0.31691 0.0
C1357 C 0.55656 0.8393 0.29218 0.0
N1358 N 0.59808 0.92585 0.30837 0.0
N1359 N 0.577 0.80279 0.29381 0.0
H1360 H 0.51189 0.82174 0.27632 0.0
H1361 H 0.52071 0.79212 0.28143 0.0
H1362 H 0.59337 0.7963 0.2987 0.0
H1363 H 0.56111 0.78711 0.28294 0.0
H1364 H 0.61948 0.94445 0.31507 0.0
H1365 H 0.58424 0.93376 0.30154 0.0
H1366 H 0.63471 0.92644 0.33579 0.0
H1367 H 0.64653 0.89819 0.33835 0.0
C1368 C 0.09298 0.69036 0.30988 0.0
C1369 C 0.11276 0.68362 0.29911 0.0
C1370 C 0.15564 0.73981 0.30424 0.0
C1371 C 0.13711 0.74585 0.31643 0.0
N1372 N 0.09009 0.72659 0.33292 0.0
N1373 N 0.1643 0.70023 0.2879 0.0
C1374 C 0.10621 0.72107 0.31979 0.0
C1375 C 0.14451 0.70788 0.2968 0.0
N1376 N 0.06143 0.66759 0.31034 0.0
N1377 N 0.18322 0.76475 0.29921 0.0
H1378 H 0.15684 0.6772 0.28191 0.0
H1379 H 0.18879 0.71607 0.28765 0.0
H1380 H 0.19187 0.78852 0.3042 0.0
H1381 H 0.19601 0.76231 0.2889 0.0
H1382 H 0.04485 0.6721 0.31633 0.0
H1383 H 0.0511 0.64467 0.30344 0.0
H1384 H 0.06902 0.70866 0.33736 0.0
H1385 H 0.09911 0.74877 0.34051 0.0
C1386 C 0.7563 0.97408 0.36985 0.0
C1387 C 0.77154 0.97535 0.38716 0.0
C1388 C 0.73768 0.91712 0.38695 0.0
C1389 C 0.72562 0.91547 0.36868 0.0
N1390 N 0.72449 0.94169 0.34204 0.0
N1391 N 0.78022 0.94796 0.41122 0.0
C1392 C 0.73523 0.94379 0.35992 0.0
C1393 C 0.76301 0.94686 0.39554 0.0
N1394 N 0.76121 0.00183 0.36321 0.0
N1395 N 0.72495 0.89033 0.39613 0.0
H1396 H 0.7992 0.96922 0.41788 0.0
H1397 H 0.77757 0.92758 0.41678 0.0
H1398 H 0.70714 0.86784 0.39013 0.0
H1399 H 0.73023 0.89085 0.41009 0.0
H1400 H 0.74832 0.00241 0.35159 0.0
H1401 H 0.77623 0.02444 0.37023 0.0
H1402 H 0.73358 0.96108 0.33424 0.0
H1403 H 0.70767 0.92007 0.3346 0.0
C1404 C 0.02717 0.78475 0.36505 0.0
C1405 C 0.03014 0.79791 0.38332 0.0
C1406 C 0.08829 0.83219 0.38239 0.0
C1407 C 0.08568 0.81737 0.36465 0.0
N1408 N 0.05372 0.77757 0.33958 0.0
N1409 N 0.06345 0.83157 0.41023 0.0
C1410 C 0.05536 0.79323 0.35605 0.0
C1411 C 0.06072 0.82088 0.39224 0.0
N1412 N 0.99733 0.76429 0.35628 0.0
N1413 N 0.11702 0.85789 0.38956 0.0
H1414 H 0.04372 0.82523 0.41767 0.0
H1415 H 0.08531 0.84502 0.41821 0.0
H1416 H 0.13762 0.86681 0.38271 0.0
H1417 H 0.11999 0.87209 0.40151 0.0
H1418 H 0.99311 0.75681 0.34236 0.0
H1419 H 0.97629 0.75598 0.36274 0.0
H1420 H 0.03312 0.75711 0.33354 0.0
H1421 H 0.07368 0.78396 0.33231 0.0
C1422 C 0.21772 0.23326 0.35295 0.0
C1423 C 0.24015 0.24616 0.36865 0.0
C1424 C 0.23786 0.29554 0.36864 0.0
C1425 C 0.20876 0.27857 0.3569 0.0
N1426 N 0.17141 0.2307 0.33712 0.0
N1427 N 0.28667 0.29667 0.37963 0.0
C1428 C 0.19892 0.24735 0.34868 0.0
C1429 C 0.25492 0.27966 0.37328 0.0
N1430 N 0.2186 0.21189 0.34042 0.0
N1431 N 0.24935 0.3267 0.37529 0.0
H1432 H 0.30048 0.2856 0.38063 0.0
H1433 H 0.29994 0.32162 0.38165 0.0
H1434 H 0.23939 0.34023 0.37096 0.0
H1435 H 0.2681 0.33865 0.38565 0.0
H1436 H 0.20454 0.20385 0.3279 0.0
H1437 H 0.23697 0.20641 0.34149 0.0
H1438 H 0.16224 0.20674 0.33223 0.0
H1439 H 0.15655 0.23984 0.33362 0.0
C1440 C 0.695 0.6029 0.70733 0.0
C1441 C 0.67851 0.56902 0.70404 0.0
C1442 C 0.71597 0.57332 0.68177 0.0
C1443 C 0.73684 0.60586 0.68864 0.0
N1444 N 0.74464 0.653 0.70694 0.0
N1445 N 0.66044 0.53146 0.67708 0.0
C1446 C 0.72588 0.62114 0.70109 0.0
C1447 C 0.685 0.55644 0.68796 0.0
N1448 N 0.67901 0.6177 0.71343 0.0
N1449 N 0.7259 0.5579 0.66998 0.0
H1450 H 0.63655 0.52239 0.67976 0.0
H1451 H 0.66343 0.52321 0.66435 0.0
H1452 H 0.74871 0.56894 0.66539 0.0
H1453 H 0.71221 0.5333 0.66608 0.0
H1454 H 0.6887 0.64247 0.7145 0.0
H1455 H 0.65441 0.60471 0.71479 0.0
H1456 H 0.73931 0.66406 0.71768 0.0
H1457 H 0.76616 0.66804 0.70164 0.0
C1458 C 0.40715 0.0896 0.71178 0.0
C1459 C 0.44046 0.10819 0.70969 0.0
C1460 C 0.42951 0.14039 0.68941 0.0
C1461 C 0.39778 0.12672 0.69464 0.0
N1462 N 0.35499 0.0856 0.70967 0.0
N1463 N 0.47105 0.12824 0.68399 0.0
C1464 C 0.38611 0.1005 0.70552 0.0
C1465 C 0.4486 0.12718 0.69482 0.0
N1466 N 0.39492 0.05907 0.71647 0.0
N1467 N 0.44219 0.16668 0.67986 0.0
H1468 H 0.48129 0.11385 0.68573 0.0
H1469 H 0.47576 0.13956 0.67199 0.0
H1470 H 0.4299 0.1785 0.67632 0.0
H1471 H 0.46622 0.1785 0.67715 0.0
H1472 H 0.37046 0.04305 0.71666 0.0
H1473 H 0.40909 0.0484 0.71744 0.0
H1474 H 0.34659 0.06921 0.7194 0.0
H1475 H 0.3379 0.09057 0.70398 0.0
C1476 C 0.90209 0.30708 0.72629 0.0
C1477 C 0.90172 0.33097 0.7162 0.0
C1478 C 0.88249 0.29359 0.68842 0.0
C1479 C 0.87867 0.26859 0.69902 0.0
N1480 N 0.87686 0.25034 0.72902 0.0
N1481 N 0.88433 0.34443 0.68836 0.0
C1482 C 0.88628 0.27495 0.71825 0.0
C1483 C 0.88985 0.32355 0.69743 0.0
N1484 N 0.91818 0.31507 0.74334 0.0
N1485 N 0.88046 0.28931 0.66979 0.0
H1486 H 0.88815 0.36613 0.69463 0.0
H1487 H 0.87279 0.33864 0.67517 0.0
H1488 H 0.87672 0.26827 0.66266 0.0
H1489 H 0.88603 0.30789 0.66158 0.0
H1490 H 0.9215 0.29883 0.7505 0.0
H1491 H 0.93108 0.3386 0.74949 0.0
H1492 H 0.87936 0.2538 0.74325 0.0
H1493 H 0.86301 0.22637 0.72381 0.0
C1494 C 0.22577 0.03701 0.61973 0.0
C1495 C 0.22934 0.01015 0.62249 0.0
C1496 C 0.27946 0.04454 0.64202 0.0
C1497 C 0.27388 0.07059 0.64095 0.0
N1498 N 0.23958 0.09089 0.63093 0.0
N1499 N 0.25748 0.98701 0.63743 0.0
C1500 C 0.2466 0.06675 0.63025 0.0
C1501 C 0.25569 0.01355 0.63392 0.0
N1502 N 0.20261 0.03409 0.60694 0.0
N1503 N 0.30794 0.04968 0.65027 0.0
H1504 H 0.24106 0.96404 0.63129 0.0
H1505 H 0.27392 0.98734 0.64732 0.0
H1506 H 0.32604 0.07212 0.65622 0.0
H1507 H 0.31487 0.03245 0.64986 0.0
H1508 H 0.20102 0.05354 0.60287 0.0
H1509 H 0.18651 0.01248 0.59924 0.0
H1510 H 0.21827 0.08837 0.625 0.0
H1511 H 0.25383 0.11274 0.6388 0.0
C1512 C 0.95062 0.18918 0.62356 0.0
C1513 C 0.98185 0.20615 0.63305 0.0
C1514 C 0.95898 0.21048 0.66143 0.0
C1515 C 0.92765 0.19202 0.65219 0.0
N1516 N 0.89293 0.16082 0.62506 0.0
N1517 N 0.01614 0.23038 0.66123 0.0
C1518 C 0.92329 0.18067 0.63338 0.0
C1519 C 0.9861 0.21592 0.65208 0.0
N1520 N 0.94714 0.1814 0.60508 0.0
N1521 N 0.96293 0.22439 0.67882 0.0
H1522 H 0.03687 0.23686 0.65471 0.0
H1523 H 0.0205 0.23437 0.6754 0.0
H1524 H 0.94376 0.22117 0.68609 0.0
H1525 H 0.98514 0.24114 0.68563 0.0
H1526 H 0.92566 0.17256 0.59688 0.0
H1527 H 0.96627 0.1853 0.59758 0.0
H1528 H 0.88786 0.14865 0.6121 0.0
H1529 H 0.87229 0.15446 0.63161 0.0
C1530 C 0.80449 0.76979 0.63352 0.0
C1531 C 0.77288 0.76234 0.63657 0.0
C1532 C 0.76711 0.71987 0.6553 0.0
C1533 C 0.79803 0.72595 0.65122 0.0
N1534 N 0.84368 0.75258 0.63373 0.0
N1535 N 0.72246 0.72872 0.6485 0.0
C1536 C 0.81602 0.74971 0.63953 0.0
C1537 C 0.75378 0.73708 0.64708 0.0
N1538 N 0.82384 0.79664 0.62528 0.0
N1539 N 0.75017 0.69711 0.66669 0.0
H1540 H 0.71211 0.74115 0.6429 0.0
H1541 H 0.70597 0.70836 0.65419 0.0
H1542 H 0.75717 0.68135 0.67127 0.0
H1543 H 0.72965 0.69441 0.67219 0.0
H1544 H 0.8483 0.80552 0.62461 0.0
H1545 H 0.81612 0.81176 0.62045 0.0
H1546 H 0.85569 0.76674 0.62351 0.0
H1547 H 0.85352 0.73894 0.63803 0.0
C1548 C 0.95239 0.77798 0.63863 0.0
C1549 C 0.9735 0.76618 0.63535 0.0
C1550 C 0.94141 0.71987 0.65214 0.0
C1551 C 0.92013 0.73161 0.65528 0.0
N1552 N 0.911 0.77646 0.65637 0.0
N1553 N 0.99236 0.72984 0.6419 0.0
C1554 C 0.92745 0.7622 0.65014 0.0
C1555 C 0.96925 0.73823 0.64298 0.0
N1556 N 0.95522 0.80344 0.63004 0.0
N1557 N 0.93493 0.69113 0.65801 0.0
H1558 H 0.01293 0.74267 0.63521 0.0
H1559 H 0.99251 0.71165 0.64868 0.0
H1560 H 0.91709 0.67902 0.66662 0.0
H1561 H 0.9466 0.67887 0.65408 0.0
H1562 H 0.93821 0.8107 0.63008 0.0
H1563 H 0.97318 0.81574 0.62152 0.0
H1564 H 0.91767 0.80015 0.65468 0.0
H1565 H 0.89233 0.7658 0.66464 0.0
C1566 C 0.24365 0.18584 0.62032 0.0
C1567 C 0.23458 0.2056 0.63029 0.0
C1568 C 0.26663 0.20691 0.65777 0.0
C1569 C 0.27735 0.18893 0.64744 0.0
N1570 N 0.28106 0.16659 0.61804 0.0
N1571 N 0.24188 0.23997 0.65739 0.0
C1572 C 0.26751 0.18017 0.62843 0.0
C1573 C 0.24727 0.21752 0.64874 0.0
N1574 N 0.22835 0.17116 0.60342 0.0
N1575 N 0.27498 0.21389 0.6762 0.0
H1576 H 0.2282 0.24861 0.65113 0.0
H1577 H 0.25314 0.25213 0.67014 0.0
H1578 H 0.2907 0.20829 0.68312 0.0
H1579 H 0.2649 0.22353 0.68484 0.0
H1580 H 0.23131 0.15363 0.59637 0.0
H1581 H 0.21039 0.17427 0.59706 0.0
H1582 H 0.27778 0.16337 0.60382 0.0
H1583 H 0.29759 0.16076 0.6235 0.0
C1584 C 0.80966 0.03714 0.63809 0.0
C1585 C 0.7767 0.01486 0.63918 0.0
C1586 C 0.77194 0.05405 0.65938 0.0
C1587 C 0.80384 0.07749 0.65665 0.0
N1588 N 0.85394 0.09187 0.6442 0.0
N1589 N 0.72527 0.0022 0.64908 0.0
C1590 C 0.82295 0.06915 0.64618 0.0
C1591 C 0.75751 0.0233 0.6494 0.0
N1592 N 0.8284 0.02728 0.62979 0.0
N1593 N 0.75564 0.06092 0.6718 0.0
H1594 H 0.71399 0.97921 0.64219 0.0
H1595 H 0.70922 0.0082 0.65444 0.0
H1596 H 0.7654 0.08305 0.67948 0.0
H1597 H 0.73361 0.04391 0.67578 0.0
H1598 H 0.85326 0.04115 0.63011 0.0
H1599 H 0.81935 0.00417 0.62341 0.0
H1600 H 0.86791 0.08901 0.63482 0.0
H1601 H 0.86567 0.11429 0.65174 0.0
C1602 C 0.41859 0.30225 0.71214 0.0
C1603 C 0.44783 0.30696 0.72077 0.0
C1604 C 0.43063 0.25046 0.71254 0.0
C1605 C 0.40286 0.24656 0.70236 0.0
N1606 N 0.37249 0.26969 0.69008 0.0
N1607 N 0.4838 0.28717 0.72766 0.0
C1608 C 0.39724 0.27265 0.70161 0.0
C1609 C 0.45445 0.28149 0.72055 0.0
N1610 N 0.41111 0.32599 0.71419 0.0
N1611 N 0.43363 0.22427 0.71515 0.0
H1612 H 0.50147 0.30934 0.73419 0.0
H1613 H 0.49155 0.27066 0.72599 0.0
H1614 H 0.41649 0.2011 0.70971 0.0
H1615 H 0.45158 0.22496 0.72399 0.0
H1616 H 0.38865 0.32277 0.71 0.0
H1617 H 0.42656 0.34832 0.7214 0.0
H1618 H 0.36929 0.28885 0.6874 0.0
H1619 H 0.35656 0.2486 0.68191 0.0
C1620 C 0.69988 0.1229 0.70417 0.0
C1621 C 0.7048 0.14045 0.72135 0.0
C1622 C 0.76131 0.17576 0.71669 0.0
C1623 C 0.75748 0.15603 0.70054 0.0
N1624 N 0.72334 0.10866 0.67969 0.0
N1625 N 0.74091 0.18073 0.7453 0.0
C1626 C 0.72675 0.12915 0.69437 0.0
C1627 C 0.73578 0.16596 0.72803 0.0
N1628 N 0.66938 0.10041 0.6971 0.0
N1629 N 0.78879 0.20486 0.72064 0.0
H1630 H 0.72259 0.17494 0.75381 0.0
H1631 H 0.76372 0.19681 0.75171 0.0
H1632 H 0.80708 0.2139 0.71198 0.0
H1633 H 0.79191 0.22159 0.73131 0.0
H1634 H 0.66365 0.08977 0.68369 0.0
H1635 H 0.64929 0.09377 0.70427 0.0
H1636 H 0.70272 0.08643 0.67614 0.0
H1637 H 0.74174 0.11265 0.67161 0.0
C1638 C 0.86124 0.57079 0.71432 0.0
C1639 C 0.88717 0.57025 0.70646 0.0
C1640 C 0.88217 0.59907 0.68141 0.0
C1641 C 0.85927 0.60324 0.69061 0.0
N1642 N 0.82869 0.5958 0.71656 0.0
N1643 N 0.92484 0.58638 0.68363 0.0
C1644 C 0.8492 0.5898 0.70726 0.0
C1645 C 0.8982 0.58485 0.69019 0.0
N1646 N 0.84752 0.55237 0.7282 0.0
N1647 N 0.88851 0.60865 0.66429 0.0
H1648 H 0.9372 0.57622 0.68972 0.0
H1649 H 0.93621 0.59978 0.67303 0.0
H1650 H 0.87751 0.61959 0.65759 0.0
H1651 H 0.9026 0.60347 0.65612 0.0
H1652 H 0.82646 0.54916 0.73322 0.0
H1653 H 0.85549 0.53784 0.73363 0.0
H1654 H 0.82372 0.59016 0.72986 0.0
H1655 H 0.81812 0.60832 0.71141 0.0
C1656 C 0.50233 0.99776 0.16421 0.0
C1657 C 0.47379 0.96806 0.16524 0.0
C1658 C 0.45845 0.96595 0.13263 0.0
C1659 C 0.48862 0.99375 0.13122 0.0
N1660 N 0.54157 0.0332 0.14501 0.0
N1661 N 0.42675 0.92135 0.15001 0.0
C1662 C 0.51119 0.00891 0.14685 0.0
C1663 C 0.45233 0.95146 0.14933 0.0
N1664 N 0.52052 0.01578 0.17989 0.0
N1665 N 0.4353 0.95393 0.11816 0.0
H1666 H 0.42145 0.90996 0.16197 0.0
H1667 H 0.41231 0.90661 0.13846 0.0
H1668 H 0.43886 0.96395 0.10575 0.0
H1669 H 0.41172 0.93581 0.11896 0.0
H1670 H 0.53966 0.03915 0.18013 0.0
H1671 H 0.51468 0.00856 0.19288 0.0
H1672 H 0.56012 0.04276 0.15553 0.0
H1673 H 0.54913 0.04193 0.13251 0.0
C1674 C 0.97028 0.47882 0.15855 0.0
C1675 C 0.99989 0.48085 0.16412 0.0
C1676 C 0.0049 0.46654 0.13249 0.0
C1677 C 0.9777 0.46888 0.12667 0.0
N1678 N 0.93677 0.48147 0.13383 0.0
N1679 N 0.04791 0.48109 0.15622 0.0
C1680 C 0.96084 0.47599 0.13962 0.0
C1681 C 0.01785 0.47574 0.15106 0.0
N1682 N 0.95087 0.47892 0.17137 0.0
N1683 N 0.01792 0.45489 0.12033 0.0
H1684 H 0.05844 0.48809 0.16966 0.0
H1685 H 0.06351 0.48125 0.14694 0.0
H1686 H 0.00886 0.44766 0.10664 0.0
H1687 H 0.03569 0.44956 0.12417 0.0
H1688 H 0.92756 0.47424 0.16811 0.0
H1689 H 0.95694 0.48071 0.18537 0.0
H1690 H 0.9261 0.49028 0.14259 0.0
H1691 H 0.92921 0.47981 0.12007 0.0
C1692 C 0.46098 0.44878 0.15552 0.0
C1693 C 0.44604 0.46748 0.15783 0.0
C1694 C 0.43698 0.46461 0.12461 0.0
C1695 C 0.45967 0.45436 0.12274 0.0
N1696 N 0.46687 0.4126 0.1342 0.0
N1697 N 0.41713 0.49123 0.14436 0.0
C1698 C 0.46443 0.43929 0.13756 0.0
C1699 C 0.43289 0.47453 0.1423 0.0
N1700 N 0.47245 0.44058 0.17035 0.0
N1701 N 0.41605 0.46013 0.11002 0.0
H1702 H 0.41277 0.49808 0.1571 0.0
H1703 H 0.41019 0.49984 0.1334 0.0
H1704 H 0.41524 0.44785 0.09766 0.0
H1705 H 0.3971 0.46451 0.11098 0.0
H1706 H 0.48645 0.4298 0.16926 0.0
H1707 H 0.46962 0.44634 0.18374 0.0
H1708 H 0.46752 0.39888 0.14442 0.0
H1709 H 0.46346 0.40186 0.12091 0.0
C1710 C 0.03274 0.5573 0.8573 0.0
C1711 C 0.99948 0.53826 0.85146 0.0
C1712 C 0.98747 0.54051 0.88312 0.0
C1713 C 0.01995 0.55092 0.88892 0.0
N1714 N 0.07116 0.59337 0.88203 0.0
N1715 N 0.94443 0.51414 0.85873 0.0
C1716 C 0.04251 0.56655 0.87623 0.0
C1717 C 0.97653 0.5309 0.86432 0.0
N1718 N 0.05501 0.56605 0.84493 0.0
N1719 N 0.96863 0.54418 0.89504 0.0
H1720 H 0.93547 0.50738 0.845 0.0
H1721 H 0.9269 0.50537 0.86786 0.0
H1722 H 0.97801 0.55571 0.90821 0.0
H1723 H 0.94554 0.5397 0.89119 0.0
H1724 H 0.07959 0.57719 0.84885 0.0
H1725 H 0.04877 0.56043 0.83086 0.0
H1726 H 0.08744 0.60749 0.87314 0.0
H1727 H 0.0762 0.60367 0.89555 0.0
C1728 C 0.55926 0.51794 0.86693 0.0
C1729 C 0.53788 0.51078 0.85106 0.0
C1730 C 0.49762 0.51081 0.87002 0.0
C1731 C 0.51956 0.51952 0.88581 0.0
N1732 N 0.57337 0.53774 0.89908 0.0
N1733 N 0.48981 0.5072 0.83697 0.0
C1734 C 0.55108 0.52504 0.88419 0.0
C1735 C 0.508 0.50937 0.85247 0.0
N1736 N 0.58675 0.51667 0.86562 0.0
N1737 N 0.46644 0.50253 0.87182 0.0
H1738 H 0.49675 0.50621 0.82389 0.0
H1739 H 0.46942 0.50938 0.8371 0.0
H1740 H 0.45784 0.50322 0.88442 0.0
H1741 H 0.44843 0.49246 0.86099 0.0
H1742 H 0.60143 0.51794 0.87691 0.0
H1743 H 0.59379 0.512 0.85321 0.0
H1744 H 0.59761 0.54539 0.8984 0.0
H1745 H 0.56823 0.54326 0.91191 0.0
C1746 C 0.56447 0.04671 0.86784 0.0
C1747 C 0.54356 0.05412 0.85771 0.0
C1748 C 0.50605 0.03364 0.88125 0.0
C1749 C 0.52287 0.01892 0.88833 0.0
N1750 N 0.56919 0.01214 0.88862 0.0
N1751 N 0.51061 0.07701 0.86461 0.0
C1752 C 0.55243 0.02565 0.8817 0.0
C1753 C 0.51861 0.05406 0.86713 0.0
N1754 N 0.59679 0.0645 0.86692 0.0
N1755 N 0.47795 0.02795 0.88783 0.0
H1756 H 0.52338 0.09557 0.85654 0.0
H1757 H 0.49477 0.08019 0.87234 0.0
H1758 H 0.4683 0.01372 0.89847 0.0
H1759 H 0.46317 0.03553 0.88179 0.0
H1760 H 0.61344 0.06197 0.8752 0.0
H1761 H 0.60683 0.08523 0.86014 0.0
H1762 H 0.58939 0.01417 0.88296 0.0
H1763 H 0.56153 0.99707 0.89906 0.0
C1764 C 0.17703 0.33864 0.49951 0.0
C1765 C 0.14994 0.30793 0.50078 0.0
C1766 C 0.13506 0.30303 0.46781 0.0
C1767 C 0.16409 0.33202 0.46625 0.0
N1768 N 0.21534 0.37492 0.48018 0.0
N1769 N 0.1057 0.25857 0.48574 0.0
C1770 C 0.18579 0.34921 0.482 0.0
C1771 C 0.12956 0.28949 0.48481 0.0
N1772 N 0.19391 0.35811 0.51508 0.0
N1773 N 0.1123 0.28891 0.45318 0.0
H1774 H 0.10092 0.24775 0.4979 0.0
H1775 H 0.09242 0.24278 0.47426 0.0
H1776 H 0.11535 0.29822 0.44055 0.0
H1777 H 0.08929 0.26968 0.454 0.0
H1778 H 0.21176 0.38201 0.51507 0.0
H1779 H 0.18808 0.3513 0.52814 0.0
H1780 H 0.2335 0.38621 0.49089 0.0
H1781 H 0.22282 0.38326 0.4676 0.0
C1782 C 0.68274 0.82365 0.48623 0.0
C1783 C 0.66263 0.82506 0.49917 0.0
C1784 C 0.62352 0.81918 0.47438 0.0
C1785 C 0.64243 0.81524 0.46152 0.0
N1786 N 0.68676 0.80752 0.45517 0.0
N1787 N 0.61142 0.81837 0.50592 0.0
C1788 C 0.67112 0.81566 0.46744 0.0
C1789 C 0.63226 0.82112 0.49334 0.0
N1790 N 0.71339 0.83114 0.49182 0.0
N1791 N 0.59789 0.82219 0.46849 0.0
H1792 H 0.61698 0.81958 0.51993 0.0
H1793 H 0.58767 0.81209 0.5024 0.0
H1794 H 0.59075 0.82089 0.45469 0.0
H1795 H 0.58535 0.82863 0.47722 0.0
H1796 H 0.73033 0.83403 0.48282 0.0
H1797 H 0.72286 0.83718 0.50548 0.0
H1798 H 0.70581 0.80403 0.45898 0.0
H1799 H 0.67893 0.80141 0.44127 0.0
C1800 C 0.09981 0.80691 0.47686 0.0
C1801 C 0.11311 0.79952 0.49218 0.0
C1802 C 0.13034 0.77085 0.47144 0.0
C1803 C 0.1256 0.78627 0.45681 0.0
N1804 N 0.08237 0.79308 0.44458 0.0
N1805 N 0.1391 0.77184 0.50415 0.0
C1806 C 0.10335 0.797 0.45902 0.0
C1807 C 0.12753 0.7804 0.48953 0.0
N1808 N 0.08448 0.82396 0.47925 0.0
N1809 N 0.13209 0.74382 0.46783 0.0
H1810 H 0.13672 0.77762 0.51764 0.0
H1811 H 0.15273 0.7607 0.50278 0.0
H1812 H 0.12815 0.73311 0.45448 0.0
H1813 H 0.13268 0.72988 0.47793 0.0
H1814 H 0.07743 0.83278 0.46844 0.0
H1815 H 0.08059 0.83086 0.49211 0.0
H1816 H 0.06365 0.79778 0.44574 0.0
H1817 H 0.08128 0.78099 0.43209 0.0
C1818 C 0.71194 0.88554 0.19035 0.0
C1819 C 0.67884 0.86952 0.184 0.0
C1820 C 0.66626 0.87611 0.21506 0.0
C1821 C 0.69743 0.88317 0.22171 0.0
N1822 N 0.7512 0.92024 0.21516 0.0
N1823 N 0.62403 0.85153 0.19021 0.0
C1824 C 0.72121 0.89544 0.20928 0.0
C1825 C 0.65583 0.86571 0.19629 0.0
N1826 N 0.73446 0.89094 0.17847 0.0
N1827 N 0.64878 0.88393 0.22599 0.0
H1828 H 0.61541 0.84402 0.17647 0.0
H1829 H 0.60615 0.8454 0.19907 0.0
H1830 H 0.65844 0.89631 0.23895 0.0
H1831 H 0.62705 0.88204 0.22135 0.0
H1832 H 0.75855 0.89963 0.18284 0.0
H1833 H 0.72868 0.88488 0.1644 0.0
H1834 H 0.76877 0.93218 0.20638 0.0
H1835 H 0.75658 0.93152 0.22846 0.0
C1836 C 0.2272 0.85019 0.20218 0.0
C1837 C 0.20568 0.84188 0.18623 0.0
C1838 C 0.16479 0.84124 0.20487 0.0
C1839 C 0.18691 0.85134 0.22071 0.0
N1840 N 0.24114 0.87177 0.23405 0.0
N1841 N 0.15697 0.83653 0.17181 0.0
C1842 C 0.21877 0.85775 0.21924 0.0
C1843 C 0.17538 0.83962 0.18742 0.0
N1844 N 0.2551 0.84962 0.20115 0.0
N1845 N 0.13328 0.83176 0.20655 0.0
H1846 H 0.16407 0.8355 0.15878 0.0
H1847 H 0.1362 0.83807 0.17179 0.0
H1848 H 0.12443 0.83228 0.21909 0.0
H1849 H 0.11534 0.82076 0.19571 0.0
H1850 H 0.26999 0.85182 0.21259 0.0
H1851 H 0.26226 0.84454 0.18889 0.0
H1852 H 0.26551 0.88002 0.2334 0.0
H1853 H 0.23586 0.87779 0.24673 0.0
C1854 C 0.1692 0.33409 0.18387 0.0
C1855 C 0.19885 0.36302 0.18355 0.0
C1856 C 0.21158 0.3627 0.21626 0.0
C1857 C 0.18029 0.33605 0.21699 0.0
N1858 N 0.12736 0.29934 0.20203 0.0
N1859 N 0.24659 0.40746 0.19987 0.0
C1860 C 0.15857 0.32246 0.20092 0.0
C1861 C 0.21969 0.37801 0.19986 0.0
N1862 N 0.15155 0.31725 0.16782 0.0
N1863 N 0.23383 0.37284 0.23108 0.0
H1864 H 0.25338 0.41941 0.18815 0.0
H1865 H 0.26076 0.42121 0.21173 0.0
H1866 H 0.22884 0.3621 0.24327 0.0
H1867 H 0.25796 0.38993 0.23078 0.0
H1868 H 0.13146 0.29435 0.16708 0.0
H1869 H 0.15872 0.32483 0.15506 0.0
H1870 H 0.10957 0.2911 0.19115 0.0
H1871 H 0.11849 0.29037 0.21427 0.0
C1872 C 0.8094 0.61355 0.81519 0.0
C1873 C 0.80631 0.63147 0.83013 0.0
C1874 C 0.8131 0.67295 0.81024 0.0
C1875 C 0.81989 0.65684 0.79595 0.0
N1876 N 0.8296 0.61435 0.78571 0.0
N1877 N 0.81015 0.6806 0.84275 0.0
C1878 C 0.81938 0.62777 0.79865 0.0
C1879 C 0.80943 0.66182 0.82789 0.0
N1880 N 0.8019 0.58257 0.81664 0.0
N1881 N 0.80918 0.69832 0.80681 0.0
H1882 H 0.80768 0.67341 0.85591 0.0
H1883 H 0.81593 0.70436 0.84231 0.0
H1884 H 0.81141 0.707 0.79402 0.0
H1885 H 0.80085 0.70887 0.81612 0.0
H1886 H 0.80042 0.5672 0.80562 0.0
H1887 H 0.79421 0.57122 0.82847 0.0
H1888 H 0.83309 0.59515 0.78777 0.0
H1889 H 0.83737 0.62415 0.77348 0.0
C1890 C 0.3468 0.1454 0.82064 0.0
C1891 C 0.32634 0.14786 0.83296 0.0
C1892 C 0.29018 0.14476 0.80725 0.0
C1893 C 0.3094 0.13994 0.79498 0.0
N1894 N 0.35195 0.12872 0.78995 0.0
N1895 N 0.27549 0.14344 0.83826 0.0
C1896 C 0.33651 0.13815 0.80167 0.0
C1897 C 0.29705 0.14557 0.82633 0.0
N1898 N 0.37664 0.15136 0.82694 0.0
N1899 N 0.26621 0.14987 0.80073 0.0
H1900 H 0.27967 0.14373 0.85234 0.0
H1901 H 0.25235 0.13844 0.8341 0.0
H1902 H 0.26055 0.14966 0.78684 0.0
H1903 H 0.25375 0.157 0.80911 0.0
H1904 H 0.39391 0.15346 0.81837 0.0
H1905 H 0.38527 0.157 0.84073 0.0
H1906 H 0.36974 0.12373 0.79432 0.0
H1907 H 0.34496 0.12297 0.77596 0.0
C1908 C 0.79734 0.12088 0.82366 0.0
C1909 C 0.78059 0.1379 0.82558 0.0
C1910 C 0.77246 0.13468 0.79226 0.0
C1911 C 0.79669 0.12637 0.79089 0.0
N1912 N 0.8062 0.0863 0.80279 0.0
N1913 N 0.7492 0.15852 0.81146 0.0
C1914 C 0.80205 0.11201 0.80587 0.0
C1915 C 0.76681 0.14368 0.80979 0.0
N1916 N 0.8093 0.11368 0.83873 0.0
N1917 N 0.75212 0.1297 0.77724 0.0
H1918 H 0.74379 0.16463 0.82407 0.0
H1919 H 0.74165 0.16634 0.80035 0.0
H1920 H 0.75309 0.1186 0.76487 0.0
H1921 H 0.7322 0.13265 0.77769 0.0
H1922 H 0.82453 0.10426 0.83794 0.0
H1923 H 0.80549 0.11886 0.852 0.0
H1924 H 0.80745 0.07307 0.81314 0.0
H1925 H 0.80347 0.07562 0.78956 0.0
C1926 C 0.36543 0.22294 0.52515 0.0
C1927 C 0.33203 0.20295 0.52007 0.0
C1928 C 0.32199 0.20482 0.55218 0.0
C1929 C 0.35528 0.21789 0.55715 0.0
N1930 N 0.4036 0.26243 0.5486 0.0
N1931 N 0.27762 0.17737 0.52845 0.0
C1932 C 0.37631 0.2337 0.54383 0.0
C1933 C 0.30991 0.19511 0.53349 0.0
N1934 N 0.38685 0.23157 0.51229 0.0
N1935 N 0.30272 0.20404 0.56527 0.0
H1936 H 0.26797 0.17064 0.51483 0.0
H1937 H 0.26055 0.16791 0.53779 0.0
H1938 H 0.31217 0.21358 0.57874 0.0
H1939 H 0.27866 0.19726 0.56249 0.0
H1940 H 0.41162 0.24369 0.51577 0.0
H1941 H 0.37983 0.2248 0.49834 0.0
H1942 H 0.41871 0.27607 0.53911 0.0
H1943 H 0.4074 0.27502 0.56137 0.0
C1944 C 0.8948 0.18229 0.53567 0.0
C1945 C 0.87413 0.17632 0.51965 0.0
C1946 C 0.83444 0.1784 0.53823 0.0
C1947 C 0.85573 0.1859 0.55419 0.0
N1948 N 0.90882 0.20202 0.56782 0.0
N1949 N 0.82806 0.17624 0.50523 0.0
C1950 C 0.88679 0.19004 0.55281 0.0
C1951 C 0.84513 0.1768 0.52081 0.0
N1952 N 0.92132 0.17918 0.53464 0.0
N1953 N 0.80349 0.17124 0.53972 0.0
H1954 H 0.83536 0.17533 0.49223 0.0
H1955 H 0.80848 0.17979 0.50526 0.0
H1956 H 0.79455 0.17182 0.55222 0.0
H1957 H 0.78589 0.16207 0.52869 0.0
H1958 H 0.93521 0.17956 0.54608 0.0
H1959 H 0.92815 0.17381 0.52233 0.0
H1960 H 0.93283 0.20861 0.56729 0.0
H1961 H 0.9038 0.20812 0.58056 0.0
C1962 C 0.87989 0.70466 0.53006 0.0
C1963 C 0.85932 0.68776 0.51389 0.0
C1964 C 0.82104 0.64687 0.53193 0.0
C1965 C 0.84263 0.66251 0.5479 0.0
N1966 N 0.89538 0.70257 0.56161 0.0
N1967 N 0.81391 0.63939 0.49883 0.0
C1968 C 0.87293 0.69033 0.54679 0.0
C1969 C 0.83097 0.65779 0.51465 0.0
N1970 N 0.9053 0.73495 0.52961 0.0
N1971 N 0.79052 0.62246 0.53331 0.0
H1972 H 0.82063 0.64646 0.48592 0.0
H1973 H 0.79494 0.61591 0.49848 0.0
H1974 H 0.78212 0.61393 0.54571 0.0
H1975 H 0.77264 0.61256 0.52241 0.0
H1976 H 0.91897 0.74983 0.5413 0.0
H1977 H 0.91119 0.74631 0.51766 0.0
H1978 H 0.91903 0.72077 0.5611 0.0
H1979 H 0.89124 0.69258 0.57403 0.0
loop_
_geom_bond_atom_site_label_1
_geom_bond_atom_site_label_2
_geom_bond_distance
_geom_bond_site_symmetry_2
_ccdc_geom_bond_type
C0 C1 1.384 . S
C0 H13 0.947 . S
C0 C35 1.382 . S
C1 C0 1.384 . S
C1 C2 1.378 . S
C2 C1 1.378 . S
C2 C3 1.378 . S
C2 H14 0.952 . S
C3 C2 1.378 . S
C3 H15 0.950 . S
C3 C34 1.383 . S
H4 C23 0.947 . S
H5 C24 0.946 . S
H6 C26 0.953 . S
H7 C27 0.945 . S
H8 C29 0.952 . S
H9 C30 0.949 . S
H10 C32 0.950 . S
H11 C33 0.948 . S
H12 C35 0.951 . S
H13 C0 0.947 . S
H14 C2 0.952 . S
H15 C3 0.950 . S
N16 C19 1.382 . S
N16 C21 1.363 . S
N17 C19 1.371 . S
N17 C20 1.372 . S
N18 C20 1.361 . S
N18 C21 1.377 . S
C19 N16 1.382 . S
C19 N17 1.371 . S
C19 C22 1.480 . S
C20 N17 1.372 . S
C20 N18 1.361 . S
C20 C28 1.457 . S
C21 N16 1.363 . S
C21 N18 1.377 . S
C21 C34 1.479 . S
C22 C19 1.480 . S
C22 C23 1.383 . S
C22 C27 1.385 . S
C23 H4 0.947 . S
C23 C22 1.383 . S
C23 C24 1.388 . S
C24 H5 0.946 . S
C24 C23 1.388 . S
C24 C25 1.384 . S
C25 C24 1.384 . S
C25 C26 1.377 . S
C26 H6 0.953 . S
C26 C25 1.377 . S
C26 C27 1.369 . S
C27 H7 0.945 . S
C27 C22 1.385 . S
C27 C26 1.369 . S
C28 C20 1.457 . S
C28 C29 1.372 . S
C28 C33 1.364 . S
C29 H8 0.952 . S
C29 C28 1.372 . S
C29 C30 1.389 . S
C30 H9 0.949 . S
C30 C29 1.389 . S
C30 C31 1.387 . S
C31 C30 1.387 . S
C31 C32 1.372 . S
C32 H10 0.950 . S
C32 C31 1.372 . S
C32 C33 1.379 . S
C33 H11 0.948 . S
C33 C28 1.364 . S
C33 C32 1.379 . S
C34 C3 1.383 . S
C34 C21 1.479 . S
C34 C35 1.398 . S
C35 C0 1.382 . S
C35 H12 0.951 . S
C35 C34 1.398 . S
C36 C37 1.384 . S
C36 H49 0.947 . S
C36 C71 1.382 . S
C37 C36 1.384 . S
C37 C38 1.378 . S
C38 C37 1.378 . S
C38 C39 1.378 . S
C38 H50 0.952 . S
C39 C38 1.378 . S
C39 H51 0.950 . S
C39 C70 1.383 . S
H40 C59 0.947 . S
H41 C60 0.946 . S
H42 C62 0.953 . S
H43 C63 0.945 . S
H44 C65 0.952 . S
H45 C66 0.949 . S
H46 C68 0.950 . S
H47 C69 0.948 . S
H48 C71 0.951 . S
H49 C36 0.947 . S
H50 C38 0.952 . S
H51 C39 0.950 . S
N52 C55 1.382 . S
N52 C57 1.363 . S
N53 C55 1.371 . S
N53 C56 1.372 . S
N54 C56 1.361 . S
N54 C57 1.377 . S
C55 N52 1.382 . S
C55 N53 1.371 . S
C55 C58 1.480 . S
C56 N53 1.372 . S
C56 N54 1.361 . S
C56 C64 1.457 . S
C57 N52 1.363 . S
C57 N54 1.377 . S
C57 C70 1.479 . S
C58 C55 1.480 . S
C58 C59 1.383 . S
C58 C63 1.385 . S
C59 H40 0.947 . S
C59 C58 1.383 . S
C59 C60 1.388 . S
C60 H41 0.946 . S
C60 C59 1.388 . S
C60 C61 1.384 . S
C61 C60 1.384 . S
C61 C62 1.377 . S
C62 H42 0.953 . S
C62 C61 1.377 . S
C62 C63 1.369 . S
C63 H43 0.945 . S
C63 C58 1.385 . S
C63 C62 1.369 . S
C64 C56 1.457 . S
C64 C65 1.372 . S
C64 C69 1.364 . S
C65 H44 0.952 . S
C65 C64 1.372 . S
C65 C66 1.389 . S
C66 H45 0.949 . S
C66 C65 1.389 . S
C66 C67 1.387 . S
C67 C66 1.387 . S
C67 C68 1.372 . S
C68 H46 0.950 . S
C68 C67 1.372 . S
C68 C69 1.379 . S
C69 H47 0.948 . S
C69 C64 1.364 . S
C69 C68 1.379 . S
C70 C39 1.383 . S
C70 C57 1.479 . S
C70 C71 1.398 . S
C71 C36 1.382 . S
C71 H48 0.951 . S
C71 C70 1.398 . S
C72 C73 1.384 . S
C72 H85 0.947 . S
C72 C107 1.382 . S
C73 C72 1.384 . S
C73 C74 1.378 . S
C74 C73 1.378 . S
C74 C75 1.378 . S
C74 H86 0.952 . S
C75 C74 1.378 . S
C75 H87 0.950 . S
C75 C106 1.383 . S
H76 C95 0.947 . S
H77 C96 0.946 . S
H78 C98 0.948 1_455 S
H79 C99 0.945 . S
H80 C101 0.952 . S
H81 C102 0.949 . S
H82 C104 0.950 . S
H83 C105 0.948 . S
H84 C107 0.951 . S
H85 C72 0.947 . S
H86 C74 0.952 . S
H87 C75 0.950 . S
N88 C91 1.382 . S
N88 C93 1.363 . S
N89 C91 1.371 . S
N89 C92 1.372 . S
N90 C92 1.361 . S
N90 C93 1.377 . S
C91 N88 1.382 . S
C91 N89 1.371 . S
C91 C94 1.480 . S
C92 N89 1.372 . S
C92 N90 1.361 . S
C92 C100 1.457 . S
C93 N88 1.363 . S
C93 N90 1.377 . S
C93 C106 1.479 . S
C94 C91 1.480 . S
C94 C95 1.383 . S
C94 C99 1.385 . S
C95 H76 0.947 . S
C95 C94 1.383 . S
C95 C96 1.388 . S
C96 H77 0.946 . S
C96 C95 1.388 . S
C96 C97 1.384 . S
C97 C96 1.384 . S
C97 C98 1.377 . S
C98 H78 0.948 1_655 S
C98 C97 1.377 . S
C98 C99 1.369 . S
C99 H79 0.945 . S
C99 C94 1.385 . S
C99 C98 1.369 . S
C100 C92 1.457 . S
C100 C101 1.372 . S
C100 C105 1.364 . S
C101 H80 0.952 . S
C101 C100 1.372 . S
C101 C102 1.389 . S
C102 H81 0.949 . S
C102 C101 1.389 . S
C102 C103 1.387 . S
C103 C102 1.387 . S
C103 C104 1.372 . S
C104 H82 0.950 . S
C104 C103 1.372 . S
C104 C105 1.379 . S
C105 H83 0.948 . S
C105 C100 1.364 . S
C105 C104 1.379 . S
C106 C75 1.383 . S
C106 C93 1.479 . S
C106 C107 1.398 . S
C107 C72 1.382 . S
C107 H84 0.951 . S
C107 C106 1.398 . S
C108 C109 1.384 . S
C108 H121 0.947 1_455 S
C108 C143 1.382 . S
C109 C108 1.384 . S
C109 C110 1.378 . S
C110 C109 1.378 . S
C110 C111 1.378 . S
C110 H122 0.952 . S
C111 C110 1.378 . S
C111 H123 0.950 . S
C111 C142 1.383 . S
H112 C131 0.947 . S
H113 C132 0.946 . S
H114 C134 0.953 . S
H115 C135 0.945 . S
H116 C137 0.952 . S
H117 C138 0.949 . S
H118 C140 0.950 . S
H119 C141 0.948 . S
H120 C143 0.951 . S
H121 C108 0.947 1_655 S
H122 C110 0.952 . S
H123 C111 0.950 . S
N124 C127 1.382 . S
N124 C129 1.363 . S
N125 C127 1.371 . S
N125 C128 1.372 . S
N126 C128 1.361 . S
N126 C129 1.377 . S
C127 N124 1.382 . S
C127 N125 1.371 . S
C127 C130 1.480 . S
C128 N125 1.372 . S
C128 N126 1.361 . S
C128 C136 1.457 . S
C129 N124 1.363 . S
C129 N126 1.377 . S
C129 C142 1.479 . S
C130 C127 1.480 . S
C130 C131 1.383 . S
C130 C135 1.385 . S
C131 H112 0.947 . S
C131 C130 1.383 . S
C131 C132 1.388 . S
C132 H113 0.946 . S
C132 C131 1.388 . S
C132 C133 1.384 . S
C133 C132 1.384 . S
C133 C134 1.377 . S
C134 H114 0.953 . S
C134 C133 1.377 . S
C134 C135 1.369 . S
C135 H115 0.945 . S
C135 C130 1.385 . S
C135 C134 1.369 . S
C136 C128 1.457 . S
C136 C137 1.372 . S
C136 C141 1.364 . S
C137 H116 0.952 . S
C137 C136 1.372 . S
C137 C138 1.389 . S
C138 H117 0.949 . S
C138 C137 1.389 . S
C138 C139 1.387 . S
C139 C138 1.387 . S
C139 C140 1.372 . S
C140 H118 0.950 . S
C140 C139 1.372 . S
C140 C141 1.379 . S
C141 H119 0.948 . S
C141 C136 1.364 . S
C141 C140 1.379 . S
C142 C111 1.383 . S
C142 C129 1.479 . S
C142 C143 1.398 . S
C143 C108 1.382 . S
C143 H120 0.951 . S
C143 C142 1.398 . S
C144 C145 1.384 . S
C144 H157 0.947 . S
C144 C179 1.382 . S
C145 C144 1.384 . S
C145 C146 1.378 . S
C146 C145 1.378 . S
C146 C147 1.378 . S
C146 H158 0.952 . S
C147 C146 1.378 . S
C147 H159 0.950 . S
C147 C178 1.383 . S
H148 C167 0.947 . S
H149 C168 0.946 . S
H150 C170 0.953 . S
H151 C171 0.945 . S
H152 C173 0.952 . S
H153 C174 0.949 . S
H154 C176 0.950 . S
H155 C177 0.948 . S
H156 C179 0.951 . S
H157 C144 0.947 . S
H158 C146 0.952 . S
H159 C147 0.950 . S
N160 C163 1.382 . S
N160 C165 1.363 . S
N161 C163 1.371 . S
N161 C164 1.372 . S
N162 C164 1.361 . S
N162 C165 1.377 . S
C163 N160 1.382 . S
C163 N161 1.371 . S
C163 C166 1.480 . S
C164 N161 1.372 . S
C164 N162 1.361 . S
C164 C172 1.457 . S
C165 N160 1.363 . S
C165 N162 1.377 . S
C165 C178 1.479 . S
C166 C163 1.480 . S
C166 C167 1.383 . S
C166 C171 1.385 . S
C167 H148 0.947 . S
C167 C166 1.383 . S
C167 C168 1.388 . S
C168 H149 0.946 . S
C168 C167 1.388 . S
C168 C169 1.384 . S
C169 C168 1.384 . S
C169 C170 1.377 . S
C170 H150 0.953 . S
C170 C169 1.377 . S
C170 C171 1.369 . S
C171 H151 0.945 . S
C171 C166 1.385 . S
C171 C170 1.369 . S
C172 C164 1.457 . S
C172 C173 1.372 . S
C172 C177 1.364 . S
C173 H152 0.952 . S
C173 C172 1.372 . S
C173 C174 1.389 . S
C174 H153 0.949 . S
C174 C173 1.389 . S
C174 C175 1.387 . S
C175 C174 1.387 . S
C175 C176 1.372 . S
C176 H154 0.950 . S
C176 C175 1.372 . S
C176 C177 1.379 . S
C177 H155 0.948 . S
C177 C172 1.364 . S
C177 C176 1.379 . S
C178 C147 1.383 . S
C178 C165 1.479 . S
C178 C179 1.398 . S
C179 C144 1.382 . S
C179 H156 0.951 . S
C179 C178 1.398 . S
C180 C181 1.384 . S
C180 H193 0.947 . S
C180 C215 1.382 . S
C181 C180 1.384 . S
C181 C182 1.378 . S
C182 C181 1.378 . S
C182 C183 1.378 . S
C182 H194 0.952 . S
C183 C182 1.378 . S
C183 H195 0.950 . S
C183 C214 1.383 . S
H184 C203 0.947 . S
H185 C204 0.946 . S
H186 C206 0.953 . S
H187 C207 0.945 . S
H188 C209 0.952 . S
H189 C210 0.949 . S
H190 C212 0.950 . S
H191 C213 0.948 . S
H192 C215 0.951 . S
H193 C180 0.947 . S
H194 C182 0.952 . S
H195 C183 0.950 . S
N196 C199 1.382 . S
N196 C201 1.363 . S
N197 C199 1.371 . S
N197 C200 1.372 . S
N198 C200 1.361 . S
N198 C201 1.377 . S
C199 N196 1.382 . S
C199 N197 1.371 . S
C199 C202 1.480 . S
C200 N197 1.372 . S
C200 N198 1.361 . S
C200 C208 1.457 . S
C201 N196 1.363 . S
C201 N198 1.377 . S
C201 C214 1.479 . S
C202 C199 1.480 . S
C202 C203 1.383 . S
C202 C207 1.385 . S
C203 H184 0.947 . S
C203 C202 1.383 . S
C203 C204 1.388 . S
C204 H185 0.946 . S
C204 C203 1.388 . S
C204 C205 1.384 . S
C205 C204 1.384 . S
C205 C206 1.377 . S
C206 H186 0.953 . S
C206 C205 1.377 . S
C206 C207 1.369 . S
C207 H187 0.945 . S
C207 C202 1.385 . S
C207 C206 1.369 . S
C208 C200 1.457 . S
C208 C209 1.372 . S
C208 C213 1.364 . S
C209 H188 0.952 . S
C209 C208 1.372 . S
C209 C210 1.389 . S
C210 H189 0.949 . S
C210 C209 1.389 . S
C210 C211 1.387 . S
C211 C210 1.387 . S
C211 C212 1.372 . S
C212 H190 0.950 . S
C212 C211 1.372 . S
C212 C213 1.379 . S
C213 H191 0.948 . S
C213 C208 1.364 . S
C213 C212 1.379 . S
C214 C183 1.383 . S
C214 C201 1.479 . S
C214 C215 1.398 . S
C215 C180 1.382 . S
C215 H192 0.951 . S
C215 C214 1.398 . S
C216 C217 1.384 . S
C216 H229 0.947 . S
C216 C251 1.382 . S
C217 C216 1.384 . S
C217 C218 1.378 . S
C218 C217 1.378 . S
C218 C219 1.378 . S
C218 H230 0.952 . S
C219 C218 1.378 . S
C219 H231 0.950 . S
C219 C250 1.383 . S
H220 C239 0.947 . S
H221 C240 0.946 . S
H222 C242 0.953 . S
H223 C243 0.945 . S
H224 C245 0.952 . S
H225 C246 0.949 . S
H226 C248 0.954 . S
H227 C249 0.948 . S
H228 C251 0.951 . S
H229 C216 0.947 . S
H230 C218 0.952 . S
H231 C219 0.950 . S
N232 C235 1.382 . S
N232 C237 1.363 . S
N233 C235 1.371 . S
N233 C236 1.372 . S
N234 C236 1.361 . S
N234 C237 1.377 . S
C235 N232 1.382 . S
C235 N233 1.371 . S
C235 C238 1.480 . S
C236 N233 1.372 . S
C236 N234 1.361 . S
C236 C244 1.457 . S
C237 N232 1.363 . S
C237 N234 1.377 . S
C237 C250 1.479 . S
C238 C235 1.480 . S
C238 C239 1.383 . S
C238 C243 1.385 . S
C239 H220 0.947 . S
C239 C238 1.383 . S
C239 C240 1.388 . S
C240 H221 0.946 . S
C240 C239 1.388 . S
C240 C241 1.384 . S
C241 C240 1.384 . S
C241 C242 1.377 . S
C242 H222 0.953 . S
C242 C241 1.377 . S
C242 C243 1.369 . S
C243 H223 0.945 . S
C243 C238 1.385 . S
C243 C242 1.369 . S
C244 C236 1.457 . S
C244 C245 1.372 . S
C244 C249 1.364 . S
C245 H224 0.952 . S
C245 C244 1.372 . S
C245 C246 1.389 . S
C246 H225 0.949 . S
C246 C245 1.389 . S
C246 C247 1.389 . S
C247 C246 1.389 . S
C247 C248 1.367 1_655 S
C248 H226 0.954 . S
C248 C247 1.367 1_455 S
C248 C249 1.378 1_455 S
C249 H227 0.948 . S
C249 C244 1.364 . S
C249 C248 1.378 1_655 S
C250 C219 1.383 . S
C250 C237 1.479 . S
C250 C251 1.398 . S
C251 C216 1.382 . S
C251 H228 0.951 . S
C251 C250 1.398 . S
C252 C253 1.384 . S
C252 H265 0.947 . S
C252 C287 1.382 . S
C253 C252 1.384 . S
C253 C254 1.378 . S
C254 C253 1.378 . S
C254 C255 1.378 . S
C254 H266 0.952 . S
C255 C254 1.378 . S
C255 H267 0.950 . S
C255 C286 1.383 . S
H256 C275 0.947 . S
H257 C276 0.946 . S
H258 C278 0.953 . S
H259 C279 0.945 . S
H260 C281 0.952 . S
H261 C282 0.949 . S
H262 C284 0.950 . S
H263 C285 0.948 . S
H264 C287 0.951 . S
H265 C252 0.947 . S
H266 C254 0.952 . S
H267 C255 0.950 . S
N268 C271 1.382 . S
N268 C273 1.363 . S
N269 C271 1.371 . S
N269 C272 1.372 . S
N270 C272 1.361 . S
N270 C273 1.377 . S
C271 N268 1.382 . S
C271 N269 1.371 . S
C271 C274 1.480 . S
C272 N269 1.372 . S
C272 N270 1.361 . S
C272 C280 1.457 . S
C273 N268 1.363 . S
C273 N270 1.377 . S
C273 C286 1.479 . S
C274 C271 1.480 . S
C274 C275 1.383 . S
C274 C279 1.385 . S
C275 H256 0.947 . S
C275 C274 1.383 . S
C275 C276 1.388 . S
C276 H257 0.946 . S
C276 C275 1.388 . S
C276 C277 1.384 . S
C277 C276 1.384 . S
C277 C278 1.377 . S
C278 H258 0.953 . S
C278 C277 1.377 . S
C278 C279 1.369 . S
C279 H259 0.945 . S
C279 C274 1.385 . S
C279 C278 1.369 . S
C280 C272 1.457 . S
C280 C281 1.372 . S
C280 C285 1.364 . S
C281 H260 0.952 . S
C281 C280 1.372 . S
C281 C282 1.389 . S
C282 H261 0.949 . S
C282 C281 1.389 . S
C282 C283 1.387 . S
C283 C282 1.387 . S
C283 C284 1.372 . S
C284 H262 0.950 . S
C284 C283 1.372 . S
C284 C285 1.379 . S
C285 H263 0.948 . S
C285 C280 1.364 . S
C285 C284 1.379 . S
C286 C255 1.383 . S
C286 C273 1.479 . S
C286 C287 1.398 . S
C287 C252 1.382 . S
C287 H264 0.951 . S
C287 C286 1.398 . S
C288 C289 1.384 . S
C288 H301 0.947 . S
C288 C323 1.382 . S
C289 C288 1.384 . S
C289 C290 1.378 . S
C290 C289 1.378 . S
C290 C291 1.378 . S
C290 H302 0.952 . S
C291 C290 1.378 . S
C291 H303 0.950 . S
C291 C322 1.383 . S
H292 C311 0.947 . S
H293 C312 0.946 . S
H294 C314 0.953 . S
H295 C315 0.945 . S
H296 C317 0.952 . S
H297 C318 0.949 . S
H298 C320 0.950 . S
H299 C321 0.948 . S
H300 C323 0.951 . S
H301 C288 0.947 . S
H302 C290 0.952 . S
H303 C291 0.950 . S
N304 C307 1.382 . S
N304 C309 1.363 . S
N305 C307 1.371 . S
N305 C308 1.372 . S
N306 C308 1.361 . S
N306 C309 1.377 . S
C307 N304 1.382 . S
C307 N305 1.371 . S
C307 C310 1.480 . S
C308 N305 1.372 . S
C308 N306 1.361 . S
C308 C316 1.457 . S
C309 N304 1.363 . S
C309 N306 1.377 . S
C309 C322 1.479 . S
C310 C307 1.480 . S
C310 C311 1.383 . S
C310 C315 1.385 . S
C311 H292 0.947 . S
C311 C310 1.383 . S
C311 C312 1.388 . S
C312 H293 0.946 . S
C312 C311 1.388 . S
C312 C313 1.384 . S
C313 C312 1.384 . S
C313 C314 1.377 . S
C314 H294 0.953 . S
C314 C313 1.377 . S
C314 C315 1.369 . S
C315 H295 0.945 . S
C315 C310 1.385 . S
C315 C314 1.369 . S
C316 C308 1.457 . S
C316 C317 1.372 . S
C316 C321 1.364 . S
C317 H296 0.952 . S
C317 C316 1.372 . S
C317 C318 1.389 . S
C318 H297 0.949 . S
C318 C317 1.389 . S
C318 C319 1.387 . S
C319 C318 1.387 . S
C319 C320 1.372 . S
C320 H298 0.950 . S
C320 C319 1.372 . S
C320 C321 1.379 . S
C321 H299 0.948 . S
C321 C316 1.364 . S
C321 C320 1.379 . S
C322 C291 1.383 . S
C322 C309 1.479 . S
C322 C323 1.398 . S
C323 C288 1.382 . S
C323 H300 0.951 . S
C323 C322 1.398 . S
C324 C325 1.384 . S
C324 H337 0.947 . S
C324 C359 1.382 . S
C325 C324 1.384 . S
C325 C326 1.378 . S
C326 C325 1.378 . S
C326 C327 1.378 . S
C326 H338 0.952 . S
C327 C326 1.378 . S
C327 H339 0.950 . S
C327 C358 1.383 . S
H328 C347 0.947 . S
H329 C348 0.946 . S
H330 C350 0.953 . S
H331 C351 0.945 . S
H332 C353 0.952 . S
H333 C354 0.949 . S
H334 C356 0.950 . S
H335 C357 0.948 . S
H336 C359 0.951 . S
H337 C324 0.947 . S
H338 C326 0.952 . S
H339 C327 0.950 . S
N340 C343 1.382 . S
N340 C345 1.363 . S
N341 C343 1.371 . S
N341 C344 1.372 . S
N342 C344 1.361 . S
N342 C345 1.377 . S
C343 N340 1.382 . S
C343 N341 1.371 . S
C343 C346 1.480 . S
C344 N341 1.372 . S
C344 N342 1.361 . S
C344 C352 1.457 . S
C345 N340 1.363 . S
C345 N342 1.377 . S
C345 C358 1.479 . S
C346 C343 1.480 . S
C346 C347 1.383 . S
C346 C351 1.385 . S
C347 H328 0.947 . S
C347 C346 1.383 . S
C347 C348 1.388 . S
C348 H329 0.946 . S
C348 C347 1.388 . S
C348 C349 1.384 . S
C349 C348 1.384 . S
C349 C350 1.377 . S
C350 H330 0.953 . S
C350 C349 1.377 . S
C350 C351 1.369 . S
C351 H331 0.945 . S
C351 C346 1.385 . S
C351 C350 1.369 . S
C352 C344 1.457 . S
C352 C353 1.372 . S
C352 C357 1.364 . S
C353 H332 0.952 . S
C353 C352 1.372 . S
C353 C354 1.389 . S
C354 H333 0.949 . S
C354 C353 1.389 . S
C354 C355 1.387 . S
C355 C354 1.387 . S
C355 C356 1.372 . S
C356 H334 0.950 . S
C356 C355 1.372 . S
C356 C357 1.379 . S
C357 H335 0.948 . S
C357 C352 1.364 . S
C357 C356 1.379 . S
C358 C327 1.383 . S
C358 C345 1.479 . S
C358 C359 1.398 . S
C359 C324 1.382 . S
C359 H336 0.951 . S
C359 C358 1.398 . S
C360 C361 1.384 . S
C360 H373 0.947 . S
C360 C395 1.382 . S
C361 C360 1.384 . S
C361 C362 1.378 . S
C362 C361 1.378 . S
C362 C363 1.378 . S
C362 H374 0.951 1_556 S
C363 C362 1.378 . S
C363 H375 0.950 . S
C363 C394 1.383 . S
H364 C383 0.947 . S
H365 C384 0.900 1_554 S
H366 C386 0.953 . S
H367 C387 0.945 . S
H368 C389 0.952 . S
H369 C390 0.949 . S
H370 C392 0.950 . S
H371 C393 0.948 . S
H372 C395 0.951 . S
H373 C360 0.947 . S
H374 C362 0.951 1_554 S
H375 C363 0.950 . S
N376 C379 1.382 . S
N376 C381 1.363 . S
N377 C379 1.371 . S
N377 C380 1.372 . S
N378 C380 1.361 . S
N378 C381 1.377 . S
C379 N376 1.382 . S
C379 N377 1.371 . S
C379 C382 1.480 . S
C380 N377 1.372 . S
C380 N378 1.361 . S
C380 C388 1.457 . S
C381 N376 1.363 . S
C381 N378 1.377 . S
C381 C394 1.479 . S
C382 C379 1.480 . S
C382 C383 1.383 . S
C382 C387 1.385 . S
C383 H364 0.947 . S
C383 C382 1.383 . S
C383 C384 1.388 . S
C384 H365 0.900 1_556 S
C384 C383 1.388 . S
C384 C385 1.384 . S
C385 C384 1.384 . S
C385 C386 1.377 . S
C386 H366 0.953 . S
C386 C385 1.377 . S
C386 C387 1.369 . S
C387 H367 0.945 . S
C387 C382 1.385 . S
C387 C386 1.369 . S
C388 C380 1.457 . S
C388 C389 1.372 . S
C388 C393 1.364 . S
C389 H368 0.952 . S
C389 C388 1.372 . S
C389 C390 1.389 . S
C390 H369 0.949 . S
C390 C389 1.389 . S
C390 C391 1.387 . S
C391 C390 1.387 . S
C391 C392 1.372 . S
C392 H370 0.950 . S
C392 C391 1.372 . S
C392 C393 1.379 . S
C393 H371 0.948 . S
C393 C388 1.364 . S
C393 C392 1.379 . S
C394 C363 1.383 . S
C394 C381 1.479 . S
C394 C395 1.398 . S
C395 C360 1.382 . S
C395 H372 0.951 . S
C395 C394 1.398 . S
C396 C397 1.384 . S
C396 H409 0.947 . S
C396 C431 1.382 . S
C397 C396 1.384 . S
C397 C398 1.378 . S
C398 C397 1.378 . S
C398 C399 1.378 . S
C398 H410 0.952 . S
C399 C398 1.378 . S
C399 H411 0.950 . S
C399 C430 1.383 . S
H400 C419 0.947 . S
H401 C420 0.946 . S
H402 C422 0.953 . S
H403 C423 0.945 . S
H404 C425 0.952 . S
H405 C426 0.949 . S
H406 C428 0.950 . S
H407 C429 0.948 . S
H408 C431 0.951 . S
H409 C396 0.947 . S
H410 C398 0.952 . S
H411 C399 0.950 . S
N412 C415 1.382 . S
N412 C417 1.363 . S
N413 C415 1.371 . S
N413 C416 1.372 . S
N414 C416 1.361 . S
N414 C417 1.377 . S
C415 N412 1.382 . S
C415 N413 1.371 . S
C415 C418 1.480 . S
C416 N413 1.372 . S
C416 N414 1.361 . S
C416 C424 1.457 . S
C417 N412 1.363 . S
C417 N414 1.377 . S
C417 C430 1.479 . S
C418 C415 1.480 . S
C418 C419 1.383 . S
C418 C423 1.385 . S
C419 H400 0.947 . S
C419 C418 1.383 . S
C419 C420 1.388 . S
C420 H401 0.946 . S
C420 C419 1.388 . S
C420 C421 1.384 . S
C421 C420 1.384 . S
C421 C422 1.377 . S
C422 H402 0.953 . S
C422 C421 1.377 . S
C422 C423 1.369 . S
C423 H403 0.945 . S
C423 C418 1.385 . S
C423 C422 1.369 . S
C424 C416 1.457 . S
C424 C425 1.372 . S
C424 C429 1.364 . S
C425 H404 0.952 . S
C425 C424 1.372 . S
C425 C426 1.389 . S
C426 H405 0.949 . S
C426 C425 1.389 . S
C426 C427 1.387 . S
C427 C426 1.387 . S
C427 C428 1.372 . S
C428 H406 0.950 . S
C428 C427 1.372 . S
C428 C429 1.379 . S
C429 H407 0.948 . S
C429 C424 1.364 . S
C429 C428 1.379 . S
C430 C399 1.383 . S
C430 C417 1.479 . S
C430 C431 1.398 . S
C431 C396 1.382 . S
C431 H408 0.951 . S
C431 C430 1.398 . S
C432 C433 1.384 . S
C432 H445 0.947 . S
C432 C467 1.382 . S
C433 C432 1.384 . S
C433 C434 1.378 . S
C434 C433 1.378 . S
C434 C435 1.378 . S
C434 H446 0.979 . S
C435 C434 1.378 . S
C435 H447 0.950 . S
C435 C466 1.383 . S
H436 C455 0.947 . S
H437 C456 0.946 . S
H438 C458 0.953 . S
H439 C459 0.945 . S
H440 C461 0.952 . S
H441 C462 0.949 . S
H442 C464 0.950 . S
H443 C465 0.948 . S
H444 C467 0.951 . S
H445 C432 0.947 . S
H446 C434 0.979 . S
H447 C435 0.950 . S
N448 C451 1.382 . S
N448 C453 1.363 . S
N449 C451 1.371 . S
N449 C452 1.372 . S
N450 C452 1.361 . S
N450 C453 1.377 . S
C451 N448 1.382 . S
C451 N449 1.371 . S
C451 C454 1.480 . S
C452 N449 1.372 . S
C452 N450 1.361 . S
C452 C460 1.457 . S
C453 N448 1.363 . S
C453 N450 1.377 . S
C453 C466 1.479 . S
C454 C451 1.480 . S
C454 C455 1.383 . S
C454 C459 1.385 . S
C455 H436 0.947 . S
C455 C454 1.383 . S
C455 C456 1.388 . S
C456 H437 0.946 . S
C456 C455 1.388 . S
C456 C457 1.384 . S
C457 C456 1.384 . S
C457 C458 1.377 . S
C458 H438 0.953 . S
C458 C457 1.377 . S
C458 C459 1.369 . S
C459 H439 0.945 . S
C459 C454 1.385 . S
C459 C458 1.369 . S
C460 C452 1.457 . S
C460 C461 1.372 . S
C460 C465 1.364 . S
C461 H440 0.952 . S
C461 C460 1.372 . S
C461 C462 1.389 . S
C462 H441 0.949 . S
C462 C461 1.389 . S
C462 C463 1.387 . S
C463 C462 1.387 . S
C463 C464 1.372 . S
C464 H442 0.950 . S
C464 C463 1.372 . S
C464 C465 1.379 . S
C465 H443 0.948 . S
C465 C460 1.364 . S
C465 C464 1.379 . S
C466 C435 1.383 . S
C466 C453 1.479 . S
C466 C467 1.398 . S
C467 C432 1.382 . S
C467 H444 0.951 . S
C467 C466 1.398 . S
C468 C469 1.384 . S
C468 H481 0.947 . S
C468 C503 1.382 . S
C469 C468 1.384 . S
C469 C470 1.378 . S
C470 C469 1.378 . S
C470 C471 1.378 . S
C470 H482 0.952 . S
C471 C470 1.378 . S
C471 H483 0.950 . S
C471 C502 1.383 . S
H472 C491 0.947 . S
H473 C492 0.946 . S
H474 C494 0.953 . S
H475 C495 0.945 . S
H476 C497 0.952 . S
H477 C498 0.949 . S
H478 C500 0.950 . S
H479 C501 0.948 . S
H480 C503 0.951 . S
H481 C468 0.947 . S
H482 C470 0.952 . S
H483 C471 0.950 . S
N484 C487 1.382 . S
N484 C489 1.363 . S
N485 C487 1.371 . S
N485 C488 1.372 . S
N486 C488 1.361 . S
N486 C489 1.377 . S
C487 N484 1.382 . S
C487 N485 1.371 . S
C487 C490 1.480 . S
C488 N485 1.372 . S
C488 N486 1.361 . S
C488 C496 1.457 . S
C489 N484 1.363 . S
C489 N486 1.377 . S
C489 C502 1.479 . S
C490 C487 1.480 . S
C490 C491 1.383 . S
C490 C495 1.385 . S
C491 H472 0.947 . S
C491 C490 1.383 . S
C491 C492 1.388 . S
C492 H473 0.946 . S
C492 C491 1.388 . S
C492 C493 1.384 . S
C493 C492 1.384 . S
C493 C494 1.377 . S
C494 H474 0.953 . S
C494 C493 1.377 . S
C494 C495 1.369 . S
C495 H475 0.945 . S
C495 C490 1.385 . S
C495 C494 1.369 . S
C496 C488 1.457 . S
C496 C497 1.372 . S
C496 C501 1.364 . S
C497 H476 0.952 . S
C497 C496 1.372 . S
C497 C498 1.389 . S
C498 H477 0.949 . S
C498 C497 1.389 . S
C498 C499 1.387 . S
C499 C498 1.387 . S
C499 C500 1.372 . S
C500 H478 0.950 . S
C500 C499 1.372 . S
C500 C501 1.379 . S
C501 H479 0.948 . S
C501 C496 1.364 . S
C501 C500 1.379 . S
C502 C471 1.383 . S
C502 C489 1.479 . S
C502 C503 1.398 . S
C503 C468 1.382 . S
C503 H480 0.951 . S
C503 C502 1.398 . S
C504 C505 1.384 . S
C504 H517 0.947 . S
C504 C539 1.382 . S
C505 C504 1.384 . S
C505 C506 1.378 . S
C506 C505 1.378 . S
C506 C507 1.378 . S
C506 H518 0.952 . S
C507 C506 1.378 . S
C507 H519 0.950 . S
C507 C538 1.383 . S
H508 C527 0.947 . S
H509 C528 0.946 . S
H510 C530 0.953 . S
H511 C531 0.945 . S
H512 C533 0.952 . S
H513 C534 0.949 . S
H514 C536 0.950 . S
H515 C537 0.948 . S
H516 C539 0.951 . S
H517 C504 0.947 . S
H518 C506 0.952 . S
H519 C507 0.950 . S
N520 C523 1.382 . S
N520 C525 1.363 . S
N521 C523 1.371 . S
N521 C524 1.372 . S
N522 C524 1.361 . S
N522 C525 1.377 . S
C523 N520 1.382 . S
C523 N521 1.371 . S
C523 C526 1.480 . S
C524 N521 1.372 . S
C524 N522 1.361 . S
C524 C532 1.457 . S
C525 N520 1.363 . S
C525 N522 1.377 . S
C525 C538 1.479 . S
C526 C523 1.480 . S
C526 C527 1.383 . S
C526 C531 1.385 . S
C527 H508 0.947 . S
C527 C526 1.383 . S
C527 C528 1.388 . S
C528 H509 0.946 . S
C528 C527 1.388 . S
C528 C529 1.384 . S
C529 C528 1.384 . S
C529 C530 1.377 . S
C530 H510 0.953 . S
C530 C529 1.377 . S
C530 C531 1.369 . S
C531 H511 0.945 . S
C531 C526 1.385 . S
C531 C530 1.369 . S
C532 C524 1.457 . S
C532 C533 1.372 . S
C532 C537 1.364 . S
C533 H512 0.952 . S
C533 C532 1.372 . S
C533 C534 1.389 . S
C534 H513 0.949 . S
C534 C533 1.389 . S
C534 C535 1.387 . S
C535 C534 1.387 . S
C535 C536 1.372 . S
C536 H514 0.950 . S
C536 C535 1.372 . S
C536 C537 1.379 . S
C537 H515 0.948 . S
C537 C532 1.364 . S
C537 C536 1.379 . S
C538 C507 1.383 . S
C538 C525 1.479 . S
C538 C539 1.398 . S
C539 C504 1.382 . S
C539 H516 0.951 . S
C539 C538 1.398 . S
C540 C541 1.384 . S
C540 H553 0.947 . S
C540 C575 1.382 . S
C541 C540 1.384 . S
C541 C542 1.378 . S
C542 C541 1.378 . S
C542 C543 1.378 . S
C542 H554 0.952 . S
C543 C542 1.378 . S
C543 H555 0.950 . S
C543 C574 1.383 . S
H544 C563 0.947 . S
H545 C564 0.946 . S
H546 C566 0.953 . S
H547 C567 0.945 . S
H548 C569 0.952 . S
H549 C570 0.949 . S
H550 C572 0.950 . S
H551 C573 0.948 . S
H552 C575 0.951 . S
H553 C540 0.947 . S
H554 C542 0.952 . S
H555 C543 0.950 . S
N556 C559 1.382 . S
N556 C561 1.363 . S
N557 C559 1.371 . S
N557 C560 1.372 . S
N558 C560 1.361 . S
N558 C561 1.377 . S
C559 N556 1.382 . S
C559 N557 1.371 . S
C559 C562 1.480 . S
C560 N557 1.372 . S
C560 N558 1.361 . S
C560 C568 1.457 . S
C561 N556 1.363 . S
C561 N558 1.377 . S
C561 C574 1.479 . S
C562 C559 1.480 . S
C562 C563 1.383 . S
C562 C567 1.385 . S
C563 H544 0.947 . S
C563 C562 1.383 . S
C563 C564 1.388 . S
C564 H545 0.946 . S
C564 C563 1.388 . S
C564 C565 1.384 . S
C565 C564 1.384 . S
C565 C566 1.377 . S
C566 H546 0.953 . S
C566 C565 1.377 . S
C566 C567 1.369 . S
C567 H547 0.945 . S
C567 C562 1.385 . S
C567 C566 1.369 . S
C568 C560 1.457 . S
C568 C569 1.372 . S
C568 C573 1.364 . S
C569 H548 0.952 . S
C569 C568 1.372 . S
C569 C570 1.389 . S
C570 H549 0.949 . S
C570 C569 1.389 . S
C570 C571 1.387 . S
C571 C570 1.387 . S
C571 C572 1.372 . S
C572 H550 0.950 . S
C572 C571 1.372 . S
C572 C573 1.379 . S
C573 H551 0.948 . S
C573 C568 1.364 . S
C573 C572 1.379 . S
C574 C543 1.383 . S
C574 C561 1.479 . S
C574 C575 1.398 . S
C575 C540 1.382 . S
C575 H552 0.951 . S
C575 C574 1.398 . S
C576 C577 1.384 . S
C576 H589 0.947 . S
C576 C611 1.382 . S
C577 C576 1.384 . S
C577 C578 1.378 . S
C578 C577 1.378 . S
C578 C579 1.378 . S
C578 H590 0.952 . S
C579 C578 1.378 . S
C579 H591 0.950 . S
C579 C610 1.383 . S
H580 C599 0.947 . S
H581 C600 0.946 . S
H582 C602 0.953 . S
H583 C603 0.945 . S
H584 C605 0.952 . S
H585 C606 0.949 . S
H586 C608 0.946 . S
H587 C609 0.948 . S
H588 C611 0.951 . S
H589 C576 0.947 . S
H590 C578 0.952 . S
H591 C579 0.950 . S
N592 C595 1.382 . S
N592 C597 1.363 . S
N593 C595 1.371 . S
N593 C596 1.372 . S
N594 C596 1.361 . S
N594 C597 1.377 . S
C595 N592 1.382 . S
C595 N593 1.371 . S
C595 C598 1.480 . S
C596 N593 1.372 . S
C596 N594 1.361 . S
C596 C604 1.457 . S
C597 N592 1.363 . S
C597 N594 1.377 . S
C597 C610 1.479 . S
C598 C595 1.480 . S
C598 C599 1.383 . S
C598 C603 1.385 . S
C599 H580 0.947 . S
C599 C598 1.383 . S
C599 C600 1.388 . S
C600 H581 0.946 . S
C600 C599 1.388 . S
C600 C601 1.384 . S
C601 C600 1.384 . S
C601 C602 1.377 . S
C602 H582 0.953 . S
C602 C601 1.377 . S
C602 C603 1.369 . S
C603 H583 0.945 . S
C603 C598 1.385 . S
C603 C602 1.369 . S
C604 C596 1.457 . S
C604 C605 1.372 . S
C604 C609 1.364 . S
C605 H584 0.952 . S
C605 C604 1.372 . S
C605 C606 1.389 . S
C606 H585 0.949 . S
C606 C605 1.389 . S
C606 C607 1.381 . S
C607 C606 1.381 . S
C607 C608 1.386 1_455 S
C608 H586 0.946 . S
C608 C607 1.386 1_655 S
C608 C609 1.377 1_655 S
C609 H587 0.948 . S
C609 C604 1.364 . S
C609 C608 1.377 1_455 S
C610 C579 1.383 . S
C610 C597 1.479 . S
C610 C611 1.398 . S
C611 C576 1.382 . S
C611 H588 0.951 . S
C611 C610 1.398 . S
C612 C613 1.384 . S
C612 H625 0.947 . S
C612 C647 1.382 . S
C613 C612 1.384 . S
C613 C614 1.378 . S
C614 C613 1.378 . S
C614 C615 1.378 . S
C614 H626 0.952 . S
C615 C614 1.378 . S
C615 H627 0.950 . S
C615 C646 1.383 . S
H616 C635 0.947 . S
H617 C636 0.946 . S
H618 C638 0.953 . S
H619 C639 0.945 . S
H620 C641 0.952 . S
H621 C642 0.949 . S
H622 C644 0.950 . S
H623 C645 0.948 . S
H624 C647 0.951 . S
H625 C612 0.947 . S
H626 C614 0.952 . S
H627 C615 0.950 . S
N628 C631 1.382 . S
N628 C633 1.363 . S
N629 C631 1.371 . S
N629 C632 1.372 . S
N630 C632 1.361 . S
N630 C633 1.377 . S
C631 N628 1.382 . S
C631 N629 1.371 . S
C631 C634 1.480 . S
C632 N629 1.372 . S
C632 N630 1.361 . S
C632 C640 1.457 . S
C633 N628 1.363 . S
C633 N630 1.377 . S
C633 C646 1.479 . S
C634 C631 1.480 . S
C634 C635 1.383 . S
C634 C639 1.385 . S
C635 H616 0.947 . S
C635 C634 1.383 . S
C635 C636 1.388 . S
C636 H617 0.946 . S
C636 C635 1.388 . S
C636 C637 1.384 . S
C637 C636 1.384 . S
C637 C638 1.377 . S
C638 H618 0.953 . S
C638 C637 1.377 . S
C638 C639 1.369 . S
C639 H619 0.945 . S
C639 C634 1.385 . S
C639 C638 1.369 . S
C640 C632 1.457 . S
C640 C641 1.372 . S
C640 C645 1.364 . S
C641 H620 0.952 . S
C641 C640 1.372 . S
C641 C642 1.389 . S
C642 H621 0.949 . S
C642 C641 1.389 . S
C642 C643 1.387 . S
C643 C642 1.387 . S
C643 C644 1.372 . S
C644 H622 0.950 . S
C644 C643 1.372 . S
C644 C645 1.379 . S
C645 H623 0.948 . S
C645 C640 1.364 . S
C645 C644 1.379 . S
C646 C615 1.383 . S
C646 C633 1.479 . S
C646 C647 1.398 . S
C647 C612 1.382 . S
C647 H624 0.951 . S
C647 C646 1.398 . S
Eu648 C657 2.828 . S
Eu648 O659 2.411 . S
Eu648 O661 2.418 . S
Eu648 O666 2.373 1_565 S
Eu648 O669 2.488 . S
Eu648 O670 2.467 1_565 S
Eu648 O671 2.349 1_565 S
Eu649 O658 2.373 1_545 S
Eu649 O662 2.488 . S
Eu649 O663 2.469 . S
Eu649 O664 2.349 1_545 S
Eu649 O667 2.392 . S
Eu649 O668 2.418 . S
Eu649 C678 2.828 . S
C650 O668 1.244 1_556 S
C650 O671 1.265 . S
C651 C652 1.379 1_565 S
C651 C655 1.373 . S
C651 C657 1.505 . S
C652 C651 1.379 1_545 S
C652 C654 1.369 . S
C652 H680 0.930 . S
C653 C655 1.383 . S
C653 C656 1.382 1_565 S
C653 H681 0.930 . S
C654 C652 1.369 . S
C654 C656 1.392 . S
C654 H682 0.930 . S
C655 C651 1.373 . S
C655 C653 1.383 . S
C655 H683 0.931 . S
C656 C653 1.382 1_545 S
C656 C654 1.392 . S
C657 Eu648 2.828 . S
C657 C651 1.505 . S
C657 O669 1.249 . S
C657 O670 1.237 1_565 S
O658 Eu649 2.373 1_565 S
O658 C660 1.258 . S
O659 Eu648 2.411 . S
O659 C660 1.220 1_556 S
C660 O658 1.258 . S
C660 O659 1.220 1_554 S
O661 Eu648 2.418 . S
O661 C665 1.244 1_556 S
O662 Eu649 2.488 . S
O662 C678 1.249 . S
O663 Eu649 2.469 . S
O663 C678 1.241 . S
O664 Eu649 2.349 1_565 S
O664 C665 1.265 . S
C665 O661 1.244 1_554 S
C665 O664 1.265 . S
O666 Eu648 2.373 1_545 S
O666 C679 1.258 . S
O667 Eu649 2.392 . S
O667 C679 1.242 1_554 S
O668 Eu649 2.418 . S
O668 C650 1.244 1_554 S
O669 Eu648 2.488 . S
O669 C657 1.249 . S
O670 Eu648 2.467 1_545 S
O670 C657 1.237 1_545 S
O671 Eu648 2.349 1_545 S
O671 C650 1.265 . S
C672 C673 1.379 1_545 S
C672 C676 1.373 . S
C672 C678 1.505 . S
C673 C672 1.379 1_565 S
C673 C675 1.369 . S
C673 H684 0.930 . S
C674 C676 1.383 . S
C674 C677 1.382 1_545 S
C674 H685 0.930 . S
C675 C673 1.369 . S
C675 C677 1.392 . S
C675 H686 0.930 . S
C676 C672 1.373 . S
C676 C674 1.383 . S
C676 H687 0.931 . S
C677 C674 1.382 1_565 S
C677 C675 1.392 . S
C678 Eu649 2.828 . S
C678 O662 1.249 . S
C678 O663 1.241 . S
C678 C672 1.505 . S
C679 O666 1.258 . S
C679 O667 1.242 1_556 S
H680 C652 0.930 . S
H681 C653 0.930 . S
H682 C654 0.930 . S
H683 C655 0.931 . S
H684 C673 0.930 . S
H685 C674 0.930 . S
H686 C675 0.930 . S
H687 C676 0.931 . S
Eu688 C697 2.828 . S
Eu688 O699 2.392 1_556 S
Eu688 O701 2.418 . S
Eu688 O706 2.373 1_455 S
Eu688 O709 2.488 . S
Eu688 O710 2.471 1_455 S
Eu688 O711 2.349 1_455 S
Eu689 O698 2.373 1_655 S
Eu689 O702 2.488 . S
Eu689 O703 2.471 1_655 S
Eu689 O704 2.349 1_655 S
Eu689 O707 2.354 1_554 S
Eu689 O708 2.418 . S
Eu689 C718 2.828 . S
C690 O708 1.244 1_556 S
C690 O711 1.265 . S
C691 C692 1.379 1_455 S
C691 C695 1.373 . S
C691 C697 1.505 . S
C692 C691 1.379 1_655 S
C692 C694 1.369 . S
C692 H720 0.930 . S
C693 C695 1.383 . S
C693 C696 1.382 1_455 S
C693 H721 0.930 . S
C694 C692 1.369 . S
C694 C696 1.392 . S
C694 H722 0.930 . S
C695 C691 1.373 . S
C695 C693 1.383 . S
C695 H723 0.931 . S
C696 C693 1.382 1_655 S
C696 C694 1.392 . S
C697 Eu688 2.828 . S
C697 C691 1.505 . S
C697 O709 1.249 . S
C697 O710 1.244 1_455 S
O698 Eu689 2.373 1_455 S
O698 C700 1.258 . S
O699 Eu688 2.392 1_554 S
O699 C700 1.242 . S
C700 O698 1.258 . S
C700 O699 1.242 . S
O701 Eu688 2.418 . S
O701 C705 1.244 1_556 S
O702 Eu689 2.488 . S
O702 C718 1.249 . S
O703 Eu689 2.471 1_455 S
O703 C718 1.244 1_455 S
O704 Eu689 2.349 1_455 S
O704 C705 1.265 . S
C705 O701 1.244 1_554 S
C705 O704 1.265 . S
O706 Eu688 2.373 1_655 S
O706 C719 1.258 . S
O707 Eu689 2.354 1_556 S
O707 C719 1.290 . S
O708 Eu689 2.418 . S
O708 C690 1.244 1_554 S
O709 Eu688 2.488 . S
O709 C697 1.249 . S
O710 Eu688 2.471 1_655 S
O710 C697 1.244 1_655 S
O711 Eu688 2.349 1_655 S
O711 C690 1.265 . S
C712 C713 1.379 1_655 S
C712 C716 1.373 . S
C712 C718 1.505 . S
C713 C712 1.379 1_455 S
C713 C715 1.369 . S
C713 H724 0.930 . S
C714 C716 1.383 . S
C714 C717 1.382 1_655 S
C714 H725 0.930 . S
C715 C713 1.369 . S
C715 C717 1.392 . S
C715 H726 0.930 . S
C716 C712 1.373 . S
C716 C714 1.383 . S
C716 H727 0.931 . S
C717 C714 1.382 1_455 S
C717 C715 1.392 . S
C718 Eu689 2.828 . S
C718 O702 1.249 . S
C718 O703 1.244 1_655 S
C718 C712 1.505 . S
C719 O706 1.258 . S
C719 O707 1.290 . S
H720 C692 0.930 . S
H721 C693 0.930 . S
H722 C694 0.930 . S
H723 C695 0.931 . S
H724 C713 0.930 . S
H725 C714 0.930 . S
H726 C715 0.930 . S
H727 C716 0.931 . S
Eu728 C737 2.828 . S
Eu728 O739 2.392 . S
Eu728 O741 2.418 . S
Eu728 O746 2.373 . S
Eu728 O749 2.488 . S
Eu728 O750 2.471 . S
Eu728 O751 2.349 . S
Eu729 O738 2.373 . S
Eu729 O742 2.488 . S
Eu729 O743 2.471 . S
Eu729 O744 2.349 . S
Eu729 O747 2.392 1_556 S
Eu729 O748 2.418 . S
Eu729 C758 2.828 . S
C730 O748 1.244 1_554 S
C730 O751 1.265 . S
C731 C732 1.379 . S
C731 C735 1.373 . S
C731 C737 1.505 . S
C732 C731 1.379 . S
C732 C734 1.369 . S
C732 H760 0.930 . S
C733 C735 1.383 . S
C733 C736 1.382 . S
C733 H761 0.930 . S
C734 C732 1.369 . S
C734 C736 1.392 . S
C734 H762 0.930 . S
C735 C731 1.373 . S
C735 C733 1.383 . S
C735 H763 0.931 . S
C736 C733 1.382 . S
C736 C734 1.392 . S
C737 Eu728 2.828 . S
C737 C731 1.505 . S
C737 O749 1.249 . S
C737 O750 1.244 . S
O738 Eu729 2.373 . S
O738 C740 1.258 . S
O739 Eu728 2.392 . S
O739 C740 1.242 1_554 S
C740 O738 1.258 . S
C740 O739 1.242 1_556 S
O741 Eu728 2.418 . S
O741 C745 1.244 1_554 S
O742 Eu729 2.488 . S
O742 C758 1.249 . S
O743 Eu729 2.471 . S
O743 C758 1.244 . S
O744 Eu729 2.349 . S
O744 C745 1.265 . S
C745 O741 1.244 1_556 S
C745 O744 1.265 . S
O746 Eu728 2.373 . S
O746 C759 1.258 . S
O747 Eu729 2.392 1_554 S
O747 C759 1.242 . S
O748 Eu729 2.418 . S
O748 C730 1.244 1_556 S
O749 Eu728 2.488 . S
O749 C737 1.249 . S
O750 Eu728 2.471 . S
O750 C737 1.244 . S
O751 Eu728 2.349 . S
O751 C730 1.265 . S
C752 C753 1.379 . S
C752 C756 1.373 . S
C752 C758 1.505 . S
C753 C752 1.379 . S
C753 C755 1.369 . S
C753 H764 0.930 . S
C754 C756 1.383 . S
C754 C757 1.382 . S
C754 H765 0.930 . S
C755 C753 1.369 . S
C755 C757 1.392 . S
C755 H766 0.930 . S
C756 C752 1.373 . S
C756 C754 1.383 . S
C756 H767 0.931 . S
C757 C754 1.382 . S
C757 C755 1.392 . S
C758 Eu729 2.828 . S
C758 O742 1.249 . S
C758 O743 1.244 . S
C758 C752 1.505 . S
C759 O746 1.258 . S
C759 O747 1.242 . S
H760 C732 0.930 . S
H761 C733 0.930 . S
H762 C734 0.930 . S
H763 C735 0.931 . S
H764 C753 0.930 . S
H765 C754 0.930 . S
H766 C755 0.930 . S
H767 C756 0.931 . S
Eu768 C777 2.828 . S
Eu768 O779 2.392 . S
Eu768 O781 2.418 . S
Eu768 O786 2.373 . S
Eu768 O789 2.488 . S
Eu768 O790 2.471 . S
Eu768 O791 2.349 . S
Eu769 O778 2.373 . S
Eu769 O782 2.488 . S
Eu769 O783 2.471 . S
Eu769 O784 2.349 . S
Eu769 O787 2.392 . S
Eu769 O788 2.418 . S
Eu769 C798 2.828 . S
C770 O788 1.244 . S
C770 O791 1.265 . S
C771 C772 1.379 . S
C771 C775 1.373 . S
C771 C777 1.505 . S
C772 C771 1.379 . S
C772 C774 1.369 . S
C772 H800 0.930 . S
C773 C775 1.383 . S
C773 C776 1.382 . S
C773 H801 0.930 . S
C774 C772 1.369 . S
C774 C776 1.392 . S
C774 H802 0.930 . S
C775 C771 1.373 . S
C775 C773 1.383 . S
C775 H803 0.931 . S
C776 C773 1.382 . S
C776 C774 1.392 . S
C777 Eu768 2.828 . S
C777 C771 1.505 . S
C777 O789 1.249 . S
C777 O790 1.244 . S
O778 Eu769 2.373 . S
O778 C780 1.258 . S
O779 Eu768 2.392 . S
O779 C780 1.242 . S
C780 O778 1.258 . S
C780 O779 1.242 . S
O781 Eu768 2.418 . S
O781 C785 1.244 . S
O782 Eu769 2.488 . S
O782 C798 1.249 . S
O783 Eu769 2.471 . S
O783 C798 1.244 . S
O784 Eu769 2.349 . S
O784 C785 1.265 . S
C785 O781 1.244 . S
C785 O784 1.265 . S
O786 Eu768 2.373 . S
O786 C799 1.258 . S
O787 Eu769 2.392 . S
O787 C799 1.242 . S
O788 Eu769 2.418 . S
O788 C770 1.244 . S
O789 Eu768 2.488 . S
O789 C777 1.249 . S
O790 Eu768 2.471 . S
O790 C777 1.244 . S
O791 Eu768 2.349 . S
O791 C770 1.265 . S
C792 C793 1.379 . S
C792 C796 1.373 . S
C792 C798 1.505 . S
C793 C792 1.379 . S
C793 C795 1.369 . S
C793 H804 0.930 . S
C794 C796 1.383 . S
C794 C797 1.382 . S
C794 H805 0.930 . S
C795 C793 1.369 . S
C795 C797 1.392 . S
C795 H806 0.930 . S
C796 C792 1.373 . S
C796 C794 1.383 . S
C796 H807 0.931 . S
C797 C794 1.382 . S
C797 C795 1.392 . S
C798 Eu769 2.828 . S
C798 O782 1.249 . S
C798 O783 1.244 . S
C798 C792 1.505 . S
C799 O786 1.258 . S
C799 O787 1.242 . S
H800 C772 0.930 . S
H801 C773 0.930 . S
H802 C774 0.930 . S
H803 C775 0.931 . S
H804 C793 0.930 . S
H805 C794 0.930 . S
H806 C795 0.930 . S
H807 C796 0.931 . S
Eu808 C817 2.828 . S
Eu808 O819 2.392 . S
Eu808 O821 2.418 . S
Eu808 O826 2.373 . S
Eu808 O829 2.488 . S
Eu808 O830 2.471 . S
Eu808 O831 2.349 . S
Eu809 O818 2.373 . S
Eu809 O822 2.488 . S
Eu809 O823 2.471 . S
Eu809 O824 2.349 . S
Eu809 O827 2.392 . S
Eu809 O828 2.418 . S
Eu809 C838 2.828 . S
C810 O828 1.244 . S
C810 O831 1.265 . S
C811 C812 1.379 . S
C811 C815 1.373 . S
C811 C817 1.505 . S
C812 C811 1.379 . S
C812 C814 1.369 . S
C812 H840 0.930 . S
C813 C815 1.383 . S
C813 C816 1.382 . S
C813 H841 0.930 . S
C814 C812 1.369 . S
C814 C816 1.392 . S
C814 H842 0.930 . S
C815 C811 1.373 . S
C815 C813 1.383 . S
C815 H843 0.931 . S
C816 C813 1.382 . S
C816 C814 1.392 . S
C817 Eu808 2.828 . S
C817 C811 1.505 . S
C817 O829 1.249 . S
C817 O830 1.244 . S
O818 Eu809 2.373 . S
O818 C820 1.258 . S
O819 Eu808 2.392 . S
O819 C820 1.242 . S
C820 O818 1.258 . S
C820 O819 1.242 . S
O821 Eu808 2.418 . S
O821 C825 1.244 . S
O822 Eu809 2.488 . S
O822 C838 1.249 . S
O823 Eu809 2.471 . S
O823 C838 1.244 . S
O824 Eu809 2.349 . S
O824 C825 1.265 . S
C825 O821 1.244 . S
C825 O824 1.265 . S
O826 Eu808 2.373 . S
O826 C839 1.258 . S
O827 Eu809 2.392 . S
O827 C839 1.242 . S
O828 Eu809 2.418 . S
O828 C810 1.244 . S
O829 Eu808 2.488 . S
O829 C817 1.249 . S
O830 Eu808 2.471 . S
O830 C817 1.244 . S
O831 Eu808 2.349 . S
O831 C810 1.265 . S
C832 C833 1.379 . S
C832 C836 1.373 . S
C832 C838 1.505 . S
C833 C832 1.379 . S
C833 C835 1.369 . S
C833 H844 0.930 . S
C834 C836 1.383 . S
C834 C837 1.382 . S
C834 H845 0.930 . S
C835 C833 1.369 . S
C835 C837 1.392 . S
C835 H846 0.930 . S
C836 C832 1.373 . S
C836 C834 1.383 . S
C836 H847 0.931 . S
C837 C834 1.382 . S
C837 C835 1.392 . S
C838 Eu809 2.828 . S
C838 O822 1.249 . S
C838 O823 1.244 . S
C838 C832 1.505 . S
C839 O826 1.258 . S
C839 O827 1.242 . S
H840 C812 0.930 . S
H841 C813 0.930 . S
H842 C814 0.930 . S
H843 C815 0.931 . S
H844 C833 0.930 . S
H845 C834 0.930 . S
H846 C835 0.930 . S
H847 C836 0.931 . S
Eu848 C857 2.828 . S
Eu848 O859 2.392 . S
Eu848 O861 2.418 . S
Eu848 O866 2.373 . S
Eu848 O869 2.488 . S
Eu848 O870 2.471 . S
Eu848 O871 2.349 . S
Eu849 O858 2.373 . S
Eu849 O862 2.488 . S
Eu849 O863 2.471 . S
Eu849 O864 2.349 . S
Eu849 O867 2.392 . S
Eu849 O868 2.418 . S
Eu849 C878 2.828 . S
C850 O868 1.244 . S
C850 O871 1.265 . S
C851 C852 1.379 . S
C851 C855 1.373 . S
C851 C857 1.505 . S
C852 C851 1.379 . S
C852 C854 1.369 . S
C852 H880 0.930 . S
C853 C855 1.383 . S
C853 C856 1.382 . S
C853 H881 0.930 . S
C854 C852 1.369 . S
C854 C856 1.392 . S
C854 H882 0.930 . S
C855 C851 1.373 . S
C855 C853 1.383 . S
C855 H883 0.931 . S
C856 C853 1.382 . S
C856 C854 1.392 . S
C857 Eu848 2.828 . S
C857 C851 1.505 . S
C857 O869 1.249 . S
C857 O870 1.244 . S
O858 Eu849 2.373 . S
O858 C860 1.258 . S
O859 Eu848 2.392 . S
O859 C860 1.242 . S
C860 O858 1.258 . S
C860 O859 1.242 . S
O861 Eu848 2.418 . S
O861 C865 1.244 . S
O862 Eu849 2.488 . S
O862 C878 1.249 . S
O863 Eu849 2.471 . S
O863 C878 1.244 . S
O864 Eu849 2.349 . S
O864 C865 1.265 . S
C865 O861 1.244 . S
C865 O864 1.265 . S
O866 Eu848 2.373 . S
O866 C879 1.258 . S
O867 Eu849 2.392 . S
O867 C879 1.242 . S
O868 Eu849 2.418 . S
O868 C850 1.244 . S
O869 Eu848 2.488 . S
O869 C857 1.249 . S
O870 Eu848 2.471 . S
O870 C857 1.244 . S
O871 Eu848 2.349 . S
O871 C850 1.265 . S
C872 C873 1.379 . S
C872 C876 1.373 . S
C872 C878 1.505 . S
C873 C872 1.379 . S
C873 C875 1.369 . S
C873 H884 0.930 . S
C874 C876 1.383 . S
C874 C877 1.382 . S
C874 H885 0.930 . S
C875 C873 1.369 . S
C875 C877 1.392 . S
C875 H886 0.930 . S
C876 C872 1.373 . S
C876 C874 1.383 . S
C876 H887 0.931 . S
C877 C874 1.382 . S
C877 C875 1.392 . S
C878 Eu849 2.828 . S
C878 O862 1.249 . S
C878 O863 1.244 . S
C878 C872 1.505 . S
C879 O866 1.258 . S
C879 O867 1.242 . S
H880 C852 0.930 . S
H881 C853 0.930 . S
H882 C854 0.930 . S
H883 C855 0.931 . S
H884 C873 0.930 . S
H885 C874 0.930 . S
H886 C875 0.930 . S
H887 C876 0.931 . S
Eu888 C897 2.828 . S
Eu888 O899 2.392 . S
Eu888 O901 2.418 . S
Eu888 O906 2.373 . S
Eu888 O909 2.488 . S
Eu888 O910 2.471 . S
Eu888 O911 2.349 . S
Eu889 O898 2.373 . S
Eu889 O902 2.488 . S
Eu889 O903 2.471 . S
Eu889 O904 2.349 . S
Eu889 O907 2.392 . S
Eu889 O908 2.418 . S
Eu889 C918 2.828 . S
C890 O908 1.244 . S
C890 O911 1.265 . S
C891 C892 1.379 . S
C891 C895 1.373 . S
C891 C897 1.505 . S
C892 C891 1.379 . S
C892 C894 1.369 . S
C892 H920 0.930 . S
C893 C895 1.383 . S
C893 C896 1.382 . S
C893 H921 0.930 . S
C894 C892 1.369 . S
C894 C896 1.392 . S
C894 H922 0.930 . S
C895 C891 1.373 . S
C895 C893 1.383 . S
C895 H923 0.931 . S
C896 C893 1.382 . S
C896 C894 1.392 . S
C897 Eu888 2.828 . S
C897 C891 1.505 . S
C897 O909 1.249 . S
C897 O910 1.244 . S
O898 Eu889 2.373 . S
O898 C900 1.258 . S
O899 Eu888 2.392 . S
O899 C900 1.242 . S
C900 O898 1.258 . S
C900 O899 1.242 . S
O901 Eu888 2.418 . S
O901 C905 1.244 . S
O902 Eu889 2.488 . S
O902 C918 1.249 . S
O903 Eu889 2.471 . S
O903 C918 1.244 . S
O904 Eu889 2.349 . S
O904 C905 1.265 . S
C905 O901 1.244 . S
C905 O904 1.265 . S
O906 Eu888 2.373 . S
O906 C919 1.258 . S
O907 Eu889 2.392 . S
O907 C919 1.242 . S
O908 Eu889 2.418 . S
O908 C890 1.244 . S
O909 Eu888 2.488 . S
O909 C897 1.249 . S
O910 Eu888 2.471 . S
O910 C897 1.244 . S
O911 Eu888 2.349 . S
O911 C890 1.265 . S
C912 C913 1.379 . S
C912 C916 1.373 . S
C912 C918 1.505 . S
C913 C912 1.379 . S
C913 C915 1.369 . S
C913 H924 0.930 . S
C914 C916 1.383 . S
C914 C917 1.382 . S
C914 H925 0.930 . S
C915 C913 1.369 . S
C915 C917 1.392 . S
C915 H926 0.930 . S
C916 C912 1.373 . S
C916 C914 1.383 . S
C916 H927 0.931 . S
C917 C914 1.382 . S
C917 C915 1.392 . S
C918 Eu889 2.828 . S
C918 O902 1.249 . S
C918 O903 1.244 . S
C918 C912 1.505 . S
C919 O906 1.258 . S
C919 O907 1.242 . S
H920 C892 0.930 . S
H921 C893 0.930 . S
H922 C894 0.930 . S
H923 C895 0.931 . S
H924 C913 0.930 . S
H925 C914 0.930 . S
H926 C915 0.930 . S
H927 C916 0.931 . S
Eu928 C937 2.828 . S
Eu928 O939 2.392 . S
Eu928 O941 2.418 . S
Eu928 O946 2.373 . S
Eu928 O949 2.488 . S
Eu928 O950 2.471 . S
Eu928 O951 2.349 . S
Eu929 O938 2.373 . S
Eu929 O942 2.488 . S
Eu929 O943 2.471 . S
Eu929 O944 2.349 . S
Eu929 O947 2.392 . S
Eu929 O948 2.418 . S
Eu929 C958 2.828 . S
C930 O948 1.244 . S
C930 O951 1.265 . S
C931 C932 1.379 . S
C931 C935 1.373 . S
C931 C937 1.505 . S
C932 C931 1.379 . S
C932 C934 1.369 . S
C932 H960 0.930 . S
C933 C935 1.383 . S
C933 C936 1.382 . S
C933 H961 0.930 . S
C934 C932 1.369 . S
C934 C936 1.392 . S
C934 H962 0.930 . S
C935 C931 1.373 . S
C935 C933 1.383 . S
C935 H963 0.931 . S
C936 C933 1.382 . S
C936 C934 1.392 . S
C937 Eu928 2.828 . S
C937 C931 1.505 . S
C937 O949 1.249 . S
C937 O950 1.244 . S
O938 Eu929 2.373 . S
O938 C940 1.258 . S
O939 Eu928 2.392 . S
O939 C940 1.242 . S
C940 O938 1.258 . S
C940 O939 1.242 . S
O941 Eu928 2.418 . S
O941 C945 1.244 . S
O942 Eu929 2.488 . S
O942 C958 1.249 . S
O943 Eu929 2.471 . S
O943 C958 1.244 . S
O944 Eu929 2.349 . S
O944 C945 1.265 . S
C945 O941 1.244 . S
C945 O944 1.265 . S
O946 Eu928 2.373 . S
O946 C959 1.258 . S
O947 Eu929 2.392 . S
O947 C959 1.242 . S
O948 Eu929 2.418 . S
O948 C930 1.244 . S
O949 Eu928 2.488 . S
O949 C937 1.249 . S
O950 Eu928 2.471 . S
O950 C937 1.244 . S
O951 Eu928 2.349 . S
O951 C930 1.265 . S
C952 C953 1.379 . S
C952 C956 1.373 . S
C952 C958 1.505 . S
C953 C952 1.379 . S
C953 C955 1.369 . S
C953 H964 0.930 . S
C954 C956 1.383 . S
C954 C957 1.382 . S
C954 H965 0.930 . S
C955 C953 1.369 . S
C955 C957 1.392 . S
C955 H966 0.930 . S
C956 C952 1.373 . S
C956 C954 1.383 . S
C956 H967 0.931 . S
C957 C954 1.382 . S
C957 C955 1.392 . S
C958 Eu929 2.828 . S
C958 O942 1.249 . S
C958 O943 1.244 . S
C958 C952 1.505 . S
C959 O946 1.258 . S
C959 O947 1.242 . S
H960 C932 0.930 . S
H961 C933 0.930 . S
H962 C934 0.930 . S
H963 C935 0.931 . S
H964 C953 0.930 . S
H965 C954 0.930 . S
H966 C955 0.930 . S
H967 C956 0.931 . S
Eu968 C977 2.828 . S
Eu968 O979 2.392 . S
Eu968 O981 2.418 . S
Eu968 O986 2.373 . S
Eu968 O989 2.488 . S
Eu968 O990 2.471 . S
Eu968 O991 2.349 . S
Eu969 O978 2.373 . S
Eu969 O982 2.488 . S
Eu969 O983 2.471 . S
Eu969 O984 2.349 . S
Eu969 O987 2.392 . S
Eu969 O988 2.418 . S
Eu969 C998 2.828 . S
C970 O988 1.244 . S
C970 O991 1.265 . S
C971 C972 1.379 . S
C971 C975 1.373 . S
C971 C977 1.505 . S
C972 C971 1.379 . S
C972 C974 1.369 . S
C972 H1000 0.930 . S
C973 C975 1.383 . S
C973 C976 1.382 . S
C973 H1001 0.930 . S
C974 C972 1.369 . S
C974 C976 1.392 . S
C974 H1002 0.930 . S
C975 C971 1.373 . S
C975 C973 1.383 . S
C975 H1003 0.931 . S
C976 C973 1.382 . S
C976 C974 1.392 . S
C977 Eu968 2.828 . S
C977 C971 1.505 . S
C977 O989 1.249 . S
C977 O990 1.244 . S
O978 Eu969 2.373 . S
O978 C980 1.258 . S
O979 Eu968 2.392 . S
O979 C980 1.242 . S
C980 O978 1.258 . S
C980 O979 1.242 . S
O981 Eu968 2.418 . S
O981 C985 1.244 . S
O982 Eu969 2.488 . S
O982 C998 1.249 . S
O983 Eu969 2.471 . S
O983 C998 1.244 . S
O984 Eu969 2.349 . S
O984 C985 1.265 . S
C985 O981 1.244 . S
C985 O984 1.265 . S
O986 Eu968 2.373 . S
O986 C999 1.258 . S
O987 Eu969 2.392 . S
O987 C999 1.242 . S
O988 Eu969 2.418 . S
O988 C970 1.244 . S
O989 Eu968 2.488 . S
O989 C977 1.249 . S
O990 Eu968 2.471 . S
O990 C977 1.244 . S
O991 Eu968 2.349 . S
O991 C970 1.265 . S
C992 C993 1.379 . S
C992 C996 1.373 . S
C992 C998 1.505 . S
C993 C992 1.379 . S
C993 C995 1.369 . S
C993 H1004 0.930 . S
C994 C996 1.383 . S
C994 C997 1.382 . S
C994 H1005 0.930 . S
C995 C993 1.369 . S
C995 C997 1.392 . S
C995 H1006 0.930 . S
C996 C992 1.373 . S
C996 C994 1.383 . S
C996 H1007 0.931 . S
C997 C994 1.382 . S
C997 C995 1.392 . S
C998 Eu969 2.828 . S
C998 O982 1.249 . S
C998 O983 1.244 . S
C998 C992 1.505 . S
C999 O986 1.258 . S
C999 O987 1.242 . S
H1000 C972 0.930 . S
H1001 C973 0.930 . S
H1002 C974 0.930 . S
H1003 C975 0.931 . S
H1004 C993 0.930 . S
H1005 C994 0.930 . S
H1006 C995 0.930 . S
H1007 C996 0.931 . S
C1008 C1009 1.363 . S
C1008 C1014 1.379 . S
C1008 N1016 1.356 . S
C1009 C1008 1.363 . S
C1009 C1015 1.363 . S
C1010 C1011 1.363 . S
C1010 C1015 1.379 . S
C1010 N1017 1.356 . S
C1011 C1010 1.363 . S
C1011 C1014 1.363 . S
N1012 C1014 1.356 . S
N1012 H1024 0.984 1_565 S
N1012 H1025 0.985 . S
N1013 C1015 1.356 . S
N1013 H1018 0.984 . S
N1013 H1019 0.985 . S
C1014 C1008 1.379 . S
C1014 C1011 1.363 . S
C1014 N1012 1.356 . S
C1015 C1009 1.363 . S
C1015 C1010 1.379 . S
C1015 N1013 1.356 . S
N1016 C1008 1.356 . S
N1016 H1022 0.984 . S
N1016 H1023 0.984 . S
N1017 C1010 1.356 . S
N1017 H1020 0.984 . S
N1017 H1021 0.985 . S
H1018 N1013 0.984 . S
H1019 N1013 0.985 . S
H1020 N1017 0.984 . S
H1021 N1017 0.985 . S
H1022 N1016 0.984 . S
H1023 N1016 0.984 . S
H1024 N1012 0.984 1_545 S
H1025 N1012 0.985 . S
C1026 C1027 1.363 . S
C1026 C1032 1.379 . S
C1026 N1034 1.356 . S
C1027 C1026 1.363 . S
C1027 C1033 1.363 . S
C1028 C1029 1.363 . S
C1028 C1033 1.379 . S
C1028 N1035 1.356 . S
C1029 C1028 1.363 . S
C1029 C1032 1.363 . S
N1030 C1032 1.356 . S
N1030 H1042 0.984 . S
N1030 H1043 0.985 . S
N1031 C1033 1.356 . S
N1031 H1036 0.984 . S
N1031 H1037 0.985 . S
C1032 C1026 1.379 . S
C1032 C1029 1.363 . S
C1032 N1030 1.356 . S
C1033 C1027 1.363 . S
C1033 C1028 1.379 . S
C1033 N1031 1.356 . S
N1034 C1026 1.356 . S
N1034 H1040 0.984 . S
N1034 H1041 0.984 . S
N1035 C1028 1.356 . S
N1035 H1038 0.984 . S
N1035 H1039 0.985 . S
H1036 N1031 0.984 . S
H1037 N1031 0.985 . S
H1038 N1035 0.984 . S
H1039 N1035 0.985 . S
H1040 N1034 0.984 . S
H1041 N1034 0.984 . S
H1042 N1030 0.984 . S
H1043 N1030 0.985 . S
C1044 C1045 1.363 . S
C1044 C1050 1.379 . S
C1044 N1052 1.356 . S
C1045 C1044 1.363 . S
C1045 C1051 1.363 . S
C1046 C1047 1.363 . S
C1046 C1051 1.379 . S
C1046 N1053 1.356 1_554 S
C1047 C1046 1.363 . S
C1047 C1050 1.363 . S
N1048 C1050 1.356 . S
N1048 H1060 0.984 . S
N1048 H1061 0.985 . S
N1049 C1051 1.356 1_556 S
N1049 H1054 0.984 . S
N1049 H1055 0.985 . S
C1050 C1044 1.379 . S
C1050 C1047 1.363 . S
C1050 N1048 1.356 . S
C1051 C1045 1.363 . S
C1051 C1046 1.379 . S
C1051 N1049 1.356 1_554 S
N1052 C1044 1.356 . S
N1052 H1058 0.984 . S
N1052 H1059 0.984 . S
N1053 C1046 1.356 1_556 S
N1053 H1056 0.984 . S
N1053 H1057 0.985 . S
H1054 N1049 0.984 . S
H1055 N1049 0.985 . S
H1056 N1053 0.984 . S
H1057 N1053 0.985 . S
H1058 N1052 0.984 . S
H1059 N1052 0.984 . S
H1060 N1048 0.984 . S
H1061 N1048 0.985 . S
C1062 C1063 1.363 . S
C1062 C1068 1.379 1_556 S
C1062 N1070 1.356 1_556 S
C1063 C1062 1.363 . S
C1063 C1069 1.363 . S
C1064 C1065 1.363 . S
C1064 C1069 1.379 . S
C1064 N1071 1.356 . S
C1065 C1064 1.363 . S
C1065 C1068 1.367 1_556 S
N1066 C1068 1.353 . S
N1066 H1078 0.984 . S
N1066 H1079 0.985 . S
N1067 C1069 1.356 . S
N1067 H1072 0.984 . S
N1067 H1073 0.985 . S
C1068 C1062 1.379 1_554 S
C1068 C1065 1.367 1_554 S
C1068 N1066 1.353 . S
C1069 C1063 1.363 . S
C1069 C1064 1.379 . S
C1069 N1067 1.356 . S
N1070 C1062 1.356 1_554 S
N1070 H1076 0.984 . S
N1070 H1077 0.984 . S
N1071 C1064 1.356 . S
N1071 H1074 0.984 . S
N1071 H1075 0.985 . S
H1072 N1067 0.984 . S
H1073 N1067 0.985 . S
H1074 N1071 0.984 . S
H1075 N1071 0.985 . S
H1076 N1070 0.984 . S
H1077 N1070 0.984 . S
H1078 N1066 0.984 . S
H1079 N1066 0.985 . S
C1080 C1081 1.363 . S
C1080 C1086 1.379 . S
C1080 N1088 1.356 . S
C1081 C1080 1.363 . S
C1081 C1087 1.363 . S
C1082 C1083 1.363 . S
C1082 C1087 1.379 . S
C1082 N1089 1.356 . S
C1083 C1082 1.363 . S
C1083 C1086 1.363 . S
N1084 C1086 1.356 . S
N1084 H1096 0.984 . S
N1084 H1097 0.985 . S
N1085 C1087 1.356 . S
N1085 H1090 0.984 . S
N1085 H1091 0.985 . S
C1086 C1080 1.379 . S
C1086 C1083 1.363 . S
C1086 N1084 1.356 . S
C1087 C1081 1.363 . S
C1087 C1082 1.379 . S
C1087 N1085 1.356 . S
N1088 C1080 1.356 . S
N1088 H1094 0.984 . S
N1088 H1095 0.984 . S
N1089 C1082 1.356 . S
N1089 H1092 0.984 . S
N1089 H1093 0.985 . S
H1090 N1085 0.984 . S
H1091 N1085 0.985 . S
H1092 N1089 0.984 . S
H1093 N1089 0.985 . S
H1094 N1088 0.984 . S
H1095 N1088 0.984 . S
H1096 N1084 0.984 . S
H1097 N1084 0.985 . S
C1098 C1099 1.363 . S
C1098 C1104 1.379 . S
C1098 N1106 1.356 . S
C1099 C1098 1.363 . S
C1099 C1105 1.350 1_556 S
C1100 C1101 1.363 1_554 S
C1100 C1105 1.381 . S
C1100 N1107 1.356 . S
C1101 C1100 1.363 1_556 S
C1101 C1104 1.363 . S
N1102 C1104 1.356 . S
N1102 H1114 0.984 . S
N1102 H1115 0.985 . S
N1103 C1105 1.364 . S
N1103 H1108 0.984 . S
N1103 H1109 0.985 . S
C1104 C1098 1.379 . S
C1104 C1101 1.363 . S
C1104 N1102 1.356 . S
C1105 C1099 1.350 1_554 S
C1105 C1100 1.381 . S
C1105 N1103 1.364 . S
N1106 C1098 1.356 . S
N1106 H1112 0.984 . S
N1106 H1113 0.984 . S
N1107 C1100 1.356 . S
N1107 H1110 0.984 . S
N1107 H1111 0.985 . S
H1108 N1103 0.984 . S
H1109 N1103 0.985 . S
H1110 N1107 0.984 . S
H1111 N1107 0.985 . S
H1112 N1106 0.984 . S
H1113 N1106 0.984 . S
H1114 N1102 0.984 . S
H1115 N1102 0.985 . S
C1116 C1117 1.363 . S
C1116 C1122 1.379 . S
C1116 N1124 1.356 . S
C1117 C1116 1.363 . S
C1117 C1123 1.363 . S
C1118 C1119 1.363 . S
C1118 C1123 1.379 . S
C1118 N1125 1.356 . S
C1119 C1118 1.363 . S
C1119 C1122 1.363 . S
N1120 C1122 1.356 . S
N1120 H1132 0.984 1_556 S
N1120 H1133 0.985 . S
N1121 C1123 1.356 . S
N1121 H1126 0.984 . S
N1121 H1127 0.985 . S
C1122 C1116 1.379 . S
C1122 C1119 1.363 . S
C1122 N1120 1.356 . S
C1123 C1117 1.363 . S
C1123 C1118 1.379 . S
C1123 N1121 1.356 . S
N1124 C1116 1.356 . S
N1124 H1130 0.984 . S
N1124 H1131 0.984 . S
N1125 C1118 1.356 . S
N1125 H1128 0.984 . S
N1125 H1129 0.985 . S
H1126 N1121 0.984 . S
H1127 N1121 0.985 . S
H1128 N1125 0.984 . S
H1129 N1125 0.985 . S
H1130 N1124 0.984 . S
H1131 N1124 0.984 . S
H1132 N1120 0.984 1_554 S
H1133 N1120 0.985 . S
C1134 C1135 1.363 . S
C1134 C1140 1.379 . S
C1134 N1142 1.356 . S
C1135 C1134 1.363 . S
C1135 C1141 1.363 . S
C1136 C1137 1.363 . S
C1136 C1141 1.379 . S
C1136 N1143 1.356 . S
C1137 C1136 1.363 . S
C1137 C1140 1.363 . S
N1138 C1140 1.360 1_554 S
N1138 H1150 0.981 . S
N1138 H1151 0.985 1_554 S
N1139 C1141 1.356 . S
N1139 H1144 0.984 . S
N1139 H1145 0.985 . S
C1140 C1134 1.379 . S
C1140 C1137 1.363 . S
C1140 N1138 1.360 1_556 S
C1141 C1135 1.363 . S
C1141 C1136 1.379 . S
C1141 N1139 1.356 . S
N1142 C1134 1.356 . S
N1142 H1148 0.960 1_556 S
N1142 H1149 0.984 . S
N1143 C1136 1.356 . S
N1143 H1146 0.984 . S
N1143 H1147 0.985 . S
H1144 N1139 0.984 . S
H1145 N1139 0.985 . S
H1146 N1143 0.984 . S
H1147 N1143 0.985 . S
H1148 N1142 0.960 1_554 S
H1149 N1142 0.984 . S
H1150 N1138 0.981 . S
H1151 N1138 0.985 1_556 S
C1152 C1153 1.363 . S
C1152 C1158 1.379 . S
C1152 N1160 1.356 . S
C1153 C1152 1.363 . S
C1153 C1159 1.343 1_556 S
C1154 C1155 1.363 1_554 S
C1154 C1159 1.377 . S
C1154 N1161 1.356 . S
C1155 C1154 1.363 1_556 S
C1155 C1158 1.363 . S
N1156 C1158 1.356 . S
N1156 H1168 0.984 . S
N1156 H1169 0.985 . S
N1157 C1159 1.374 . S
N1157 H1162 0.984 . S
N1157 H1163 0.985 . S
C1158 C1152 1.379 . S
C1158 C1155 1.363 . S
C1158 N1156 1.356 . S
C1159 C1153 1.343 1_554 S
C1159 C1154 1.377 . S
C1159 N1157 1.374 . S
N1160 C1152 1.356 . S
N1160 H1166 0.984 . S
N1160 H1167 0.984 . S
N1161 C1154 1.356 . S
N1161 H1164 0.984 . S
N1161 H1165 0.985 . S
H1162 N1157 0.984 . S
H1163 N1157 0.985 . S
H1164 N1161 0.984 . S
H1165 N1161 0.985 . S
H1166 N1160 0.984 . S
H1167 N1160 0.984 . S
H1168 N1156 0.984 . S
H1169 N1156 0.985 . S
C1170 C1171 1.363 . S
C1170 C1176 1.379 . S
C1170 N1178 1.356 . S
C1171 C1170 1.363 . S
C1171 C1177 1.363 . S
C1172 C1173 1.363 . S
C1172 C1177 1.379 . S
C1172 N1179 1.356 1_554 S
C1173 C1172 1.363 . S
C1173 C1176 1.363 . S
N1174 C1176 1.356 . S
N1174 H1186 0.984 . S
N1174 H1187 0.985 . S
N1175 C1177 1.359 1_556 S
N1175 H1180 0.986 1_556 S
N1175 H1181 0.980 . S
C1176 C1170 1.379 . S
C1176 C1173 1.363 . S
C1176 N1174 1.356 . S
C1177 C1171 1.363 . S
C1177 C1172 1.379 . S
C1177 N1175 1.359 1_554 S
N1178 C1170 1.356 . S
N1178 H1184 0.984 . S
N1178 H1185 0.984 . S
N1179 C1172 1.356 1_556 S
N1179 H1182 0.984 . S
N1179 H1183 0.985 . S
H1180 N1175 0.986 1_554 S
H1181 N1175 0.980 . S
H1182 N1179 0.984 . S
H1183 N1179 0.985 . S
H1184 N1178 0.984 . S
H1185 N1178 0.984 . S
H1186 N1174 0.984 . S
H1187 N1174 0.985 . S
C1188 C1189 1.363 . S
C1188 C1194 1.379 . S
C1188 N1196 1.356 . S
C1189 C1188 1.363 . S
C1189 C1195 1.363 . S
C1190 C1191 1.363 . S
C1190 C1195 1.379 . S
C1190 N1197 1.356 . S
C1191 C1190 1.363 . S
C1191 C1194 1.363 . S
N1192 C1194 1.356 . S
N1192 H1204 0.984 . S
N1192 H1205 0.985 . S
N1193 C1195 1.356 . S
N1193 H1198 0.984 . S
N1193 H1199 0.985 . S
C1194 C1188 1.379 . S
C1194 C1191 1.363 . S
C1194 N1192 1.356 . S
C1195 C1189 1.363 . S
C1195 C1190 1.379 . S
C1195 N1193 1.356 . S
N1196 C1188 1.356 . S
N1196 H1202 0.984 . S
N1196 H1203 0.984 . S
N1197 C1190 1.356 . S
N1197 H1200 1.001 . S
N1197 H1201 0.985 1_554 S
H1198 N1193 0.984 . S
H1199 N1193 0.985 . S
H1200 N1197 1.001 . S
H1201 N1197 0.985 1_556 S
H1202 N1196 0.984 . S
H1203 N1196 0.984 . S
H1204 N1192 0.984 . S
H1205 N1192 0.985 . S
C1206 C1207 1.363 . S
C1206 C1212 1.378 . S
C1206 N1214 1.356 1_554 S
C1207 C1206 1.363 . S
C1207 C1213 1.363 . S
C1208 C1209 1.363 . S
C1208 C1213 1.379 . S
C1208 N1215 1.356 . S
C1209 C1208 1.363 . S
C1209 C1212 1.360 . S
N1210 C1212 1.359 1_556 S
N1210 H1222 0.984 . S
N1210 H1223 0.985 . S
N1211 C1213 1.356 . S
N1211 H1216 0.984 . S
N1211 H1217 0.985 . S
C1212 C1206 1.378 . S
C1212 C1209 1.360 . S
C1212 N1210 1.359 1_554 S
C1213 C1207 1.363 . S
C1213 C1208 1.379 . S
C1213 N1211 1.356 . S
N1214 C1206 1.356 1_556 S
N1214 H1220 0.984 . S
N1214 H1221 0.987 1_556 S
N1215 C1208 1.356 . S
N1215 H1218 0.984 . S
N1215 H1219 0.985 . S
H1216 N1211 0.984 . S
H1217 N1211 0.985 . S
H1218 N1215 0.984 . S
H1219 N1215 0.985 . S
H1220 N1214 0.984 . S
H1221 N1214 0.987 1_554 S
H1222 N1210 0.984 . S
H1223 N1210 0.985 . S
C1224 C1225 1.363 . S
C1224 C1230 1.379 . S
C1224 N1232 1.356 1_455 S
C1225 C1224 1.363 . S
C1225 C1231 1.363 . S
C1226 C1227 1.363 . S
C1226 C1231 1.379 . S
C1226 N1233 1.356 . S
C1227 C1226 1.363 . S
C1227 C1230 1.363 . S
N1228 C1230 1.356 . S
N1228 H1240 0.984 . S
N1228 H1241 0.985 . S
N1229 C1231 1.356 . S
N1229 H1234 0.984 1_455 S
N1229 H1235 0.985 . S
C1230 C1224 1.379 . S
C1230 C1227 1.363 . S
C1230 N1228 1.356 . S
C1231 C1225 1.363 . S
C1231 C1226 1.379 . S
C1231 N1229 1.356 . S
N1232 C1224 1.356 1_655 S
N1232 H1238 0.984 . S
N1232 H1239 0.984 . S
N1233 C1226 1.356 . S
N1233 H1236 0.984 . S
N1233 H1237 0.985 . S
H1234 N1229 0.984 1_655 S
H1235 N1229 0.985 . S
H1236 N1233 0.984 . S
H1237 N1233 0.985 . S
H1238 N1232 0.984 . S
H1239 N1232 0.984 . S
H1240 N1228 0.984 . S
H1241 N1228 0.985 . S
C1242 C1243 1.363 . S
C1242 C1248 1.379 . S
C1242 N1250 1.356 . S
C1243 C1242 1.363 . S
C1243 C1249 1.363 . S
C1244 C1245 1.363 . S
C1244 C1249 1.379 . S
C1244 N1251 1.356 . S
C1245 C1244 1.363 . S
C1245 C1248 1.363 . S
N1246 C1248 1.356 . S
N1246 H1258 0.984 . S
N1246 H1259 0.985 . S
N1247 C1249 1.356 . S
N1247 H1252 0.984 . S
N1247 H1253 0.985 . S
C1248 C1242 1.379 . S
C1248 C1245 1.363 . S
C1248 N1246 1.356 . S
C1249 C1243 1.363 . S
C1249 C1244 1.379 . S
C1249 N1247 1.356 . S
N1250 C1242 1.356 . S
N1250 H1256 0.984 . S
N1250 H1257 0.984 . S
N1251 C1244 1.356 . S
N1251 H1254 0.984 . S
N1251 H1255 0.985 . S
H1252 N1247 0.984 . S
H1253 N1247 0.985 . S
H1254 N1251 0.984 . S
H1255 N1251 0.985 . S
H1256 N1250 0.984 . S
H1257 N1250 0.984 . S
H1258 N1246 0.984 . S
H1259 N1246 0.985 . S
C1260 C1261 1.363 1_565 S
C1260 C1266 1.379 . S
C1260 N1268 1.356 1_565 S
C1261 C1260 1.363 1_545 S
C1261 C1267 1.363 1_545 S
C1262 C1263 1.363 . S
C1262 C1267 1.379 . S
C1262 N1269 1.356 . S
C1263 C1262 1.363 . S
C1263 C1266 1.363 . S
N1264 C1266 1.356 . S
N1264 H1276 0.984 . S
N1264 H1277 0.985 . S
N1265 C1267 1.356 1_545 S
N1265 H1270 0.984 . S
N1265 H1271 0.985 . S
C1266 C1260 1.379 . S
C1266 C1263 1.363 . S
C1266 N1264 1.356 . S
C1267 C1261 1.363 1_565 S
C1267 C1262 1.379 . S
C1267 N1265 1.356 1_565 S
N1268 C1260 1.356 1_545 S
N1268 H1274 0.984 . S
N1268 H1275 0.984 . S
N1269 C1262 1.356 . S
N1269 H1272 0.984 . S
N1269 H1273 0.985 . S
H1270 N1265 0.984 . S
H1271 N1265 0.985 . S
H1272 N1269 0.984 . S
H1273 N1269 0.985 . S
H1274 N1268 0.984 . S
H1275 N1268 0.984 . S
H1276 N1264 0.984 . S
H1277 N1264 0.985 . S
C1278 C1279 1.363 . S
C1278 C1284 1.379 . S
C1278 N1286 1.356 . S
C1279 C1278 1.363 . S
C1279 C1285 1.363 . S
C1280 C1281 1.363 . S
C1280 C1285 1.379 . S
C1280 N1287 1.356 . S
C1281 C1280 1.363 . S
C1281 C1284 1.363 . S
N1282 C1284 1.356 . S
N1282 H1294 0.984 . S
N1282 H1295 0.985 . S
N1283 C1285 1.356 . S
N1283 H1288 0.984 . S
N1283 H1289 0.985 . S
C1284 C1278 1.379 . S
C1284 C1281 1.363 . S
C1284 N1282 1.356 . S
C1285 C1279 1.363 . S
C1285 C1280 1.379 . S
C1285 N1283 1.356 . S
N1286 C1278 1.356 . S
N1286 H1292 0.984 . S
N1286 H1293 0.984 . S
N1287 C1280 1.356 . S
N1287 H1290 0.984 . S
N1287 H1291 0.985 . S
H1288 N1283 0.984 . S
H1289 N1283 0.985 . S
H1290 N1287 0.984 . S
H1291 N1287 0.985 . S
H1292 N1286 0.984 . S
H1293 N1286 0.984 . S
H1294 N1282 0.984 . S
H1295 N1282 0.985 . S
C1296 C1297 1.363 . S
C1296 C1302 1.379 . S
C1296 N1304 1.356 . S
C1297 C1296 1.363 . S
C1297 C1303 1.363 . S
C1298 C1299 1.363 . S
C1298 C1303 1.379 . S
C1298 N1305 1.356 . S
C1299 C1298 1.363 . S
C1299 C1302 1.363 . S
N1300 C1302 1.356 . S
N1300 H1312 0.984 . S
N1300 H1313 0.985 . S
N1301 C1303 1.356 . S
N1301 H1306 0.984 . S
N1301 H1307 0.985 . S
C1302 C1296 1.379 . S
C1302 C1299 1.363 . S
C1302 N1300 1.356 . S
C1303 C1297 1.363 . S
C1303 C1298 1.379 . S
C1303 N1301 1.356 . S
N1304 C1296 1.356 . S
N1304 H1310 0.984 . S
N1304 H1311 0.984 . S
N1305 C1298 1.356 . S
N1305 H1308 0.984 . S
N1305 H1309 0.985 . S
H1306 N1301 0.984 . S
H1307 N1301 0.985 . S
H1308 N1305 0.984 . S
H1309 N1305 0.985 . S
H1310 N1304 0.984 . S
H1311 N1304 0.984 . S
H1312 N1300 0.984 . S
H1313 N1300 0.985 . S
C1314 C1315 1.363 . S
C1314 C1320 1.379 . S
C1314 N1322 1.356 . S
C1315 C1314 1.363 . S
C1315 C1321 1.363 . S
C1316 C1317 1.363 . S
C1316 C1321 1.379 . S
C1316 N1323 1.356 . S
C1317 C1316 1.363 . S
C1317 C1320 1.363 . S
N1318 C1320 1.356 . S
N1318 H1330 0.984 . S
N1318 H1331 0.985 . S
N1319 C1321 1.356 . S
N1319 H1324 0.984 . S
N1319 H1325 0.985 . S
C1320 C1314 1.379 . S
C1320 C1317 1.363 . S
C1320 N1318 1.356 . S
C1321 C1315 1.363 . S
C1321 C1316 1.379 . S
C1321 N1319 1.356 . S
N1322 C1314 1.356 . S
N1322 H1328 0.984 . S
N1322 H1329 0.984 . S
N1323 C1316 1.356 . S
N1323 H1326 0.984 . S
N1323 H1327 0.985 . S
H1324 N1319 0.984 . S
H1325 N1319 0.985 . S
H1326 N1323 0.984 . S
H1327 N1323 0.985 . S
H1328 N1322 0.984 . S
H1329 N1322 0.984 . S
H1330 N1318 0.984 . S
H1331 N1318 0.985 . S
C1332 C1333 1.363 . S
C1332 C1338 1.379 . S
C1332 N1340 1.356 . S
C1333 C1332 1.363 . S
C1333 C1339 1.363 . S
C1334 C1335 1.363 . S
C1334 C1339 1.379 . S
C1334 N1341 1.356 . S
C1335 C1334 1.363 . S
C1335 C1338 1.363 . S
N1336 C1338 1.356 . S
N1336 H1348 0.984 . S
N1336 H1349 0.985 . S
N1337 C1339 1.356 . S
N1337 H1342 0.984 . S
N1337 H1343 0.985 . S
C1338 C1332 1.379 . S
C1338 C1335 1.363 . S
C1338 N1336 1.356 . S
C1339 C1333 1.363 . S
C1339 C1334 1.379 . S
C1339 N1337 1.356 . S
N1340 C1332 1.356 . S
N1340 H1346 0.984 . S
N1340 H1347 0.984 . S
N1341 C1334 1.356 . S
N1341 H1344 0.984 . S
N1341 H1345 0.985 . S
H1342 N1337 0.984 . S
H1343 N1337 0.985 . S
H1344 N1341 0.984 . S
H1345 N1341 0.985 . S
H1346 N1340 0.984 . S
H1347 N1340 0.984 . S
H1348 N1336 0.984 . S
H1349 N1336 0.985 . S
C1350 C1351 1.363 . S
C1350 C1356 1.379 . S
C1350 N1358 1.356 . S
C1351 C1350 1.363 . S
C1351 C1357 1.363 . S
C1352 C1353 1.363 . S
C1352 C1357 1.379 . S
C1352 N1359 1.356 . S
C1353 C1352 1.363 . S
C1353 C1356 1.363 . S
N1354 C1356 1.356 . S
N1354 H1366 0.984 . S
N1354 H1367 0.985 . S
N1355 C1357 1.356 . S
N1355 H1360 0.984 . S
N1355 H1361 0.985 . S
C1356 C1350 1.379 . S
C1356 C1353 1.363 . S
C1356 N1354 1.356 . S
C1357 C1351 1.363 . S
C1357 C1352 1.379 . S
C1357 N1355 1.356 . S
N1358 C1350 1.356 . S
N1358 H1364 0.984 . S
N1358 H1365 0.984 . S
N1359 C1352 1.356 . S
N1359 H1362 0.984 . S
N1359 H1363 0.985 . S
H1360 N1355 0.984 . S
H1361 N1355 0.985 . S
H1362 N1359 0.984 . S
H1363 N1359 0.985 . S
H1364 N1358 0.984 . S
H1365 N1358 0.984 . S
H1366 N1354 0.984 . S
H1367 N1354 0.985 . S
C1368 C1369 1.363 . S
C1368 C1374 1.379 . S
C1368 N1376 1.356 . S
C1369 C1368 1.363 . S
C1369 C1375 1.363 . S
C1370 C1371 1.363 . S
C1370 C1375 1.379 . S
C1370 N1377 1.356 . S
C1371 C1370 1.363 . S
C1371 C1374 1.363 . S
N1372 C1374 1.356 . S
N1372 H1384 0.984 . S
N1372 H1385 0.985 . S
N1373 C1375 1.356 . S
N1373 H1378 0.984 . S
N1373 H1379 0.985 . S
C1374 C1368 1.379 . S
C1374 C1371 1.363 . S
C1374 N1372 1.356 . S
C1375 C1369 1.363 . S
C1375 C1370 1.379 . S
C1375 N1373 1.356 . S
N1376 C1368 1.356 . S
N1376 H1382 0.984 . S
N1376 H1383 0.984 . S
N1377 C1370 1.356 . S
N1377 H1380 0.984 . S
N1377 H1381 0.985 . S
H1378 N1373 0.984 . S
H1379 N1373 0.985 . S
H1380 N1377 0.984 . S
H1381 N1377 0.985 . S
H1382 N1376 0.984 . S
H1383 N1376 0.984 . S
H1384 N1372 0.984 . S
H1385 N1372 0.985 . S
C1386 C1387 1.363 . S
C1386 C1392 1.379 . S
C1386 N1394 1.356 1_565 S
C1387 C1386 1.363 . S
C1387 C1393 1.365 . S
C1388 C1389 1.363 . S
C1388 C1393 1.379 . S
C1388 N1395 1.356 . S
C1389 C1388 1.363 . S
C1389 C1392 1.363 . S
N1390 C1392 1.356 . S
N1390 H1402 0.984 . S
N1390 H1403 0.985 . S
N1391 C1393 1.356 1_545 S
N1391 H1396 0.984 . S
N1391 H1397 0.985 . S
C1392 C1386 1.379 . S
C1392 C1389 1.363 . S
C1392 N1390 1.356 . S
C1393 C1387 1.365 . S
C1393 C1388 1.379 . S
C1393 N1391 1.356 1_565 S
N1394 C1386 1.356 1_545 S
N1394 H1400 0.984 1_545 S
N1394 H1401 0.984 . S
N1395 C1388 1.356 . S
N1395 H1398 0.984 . S
N1395 H1399 0.985 . S
H1396 N1391 0.984 . S
H1397 N1391 0.985 . S
H1398 N1395 0.984 . S
H1399 N1395 0.985 . S
H1400 N1394 0.984 1_565 S
H1401 N1394 0.984 . S
H1402 N1390 0.984 . S
H1403 N1390 0.985 . S
C1404 C1405 1.363 . S
C1404 C1410 1.379 . S
C1404 N1412 1.356 1_455 S
C1405 C1404 1.363 . S
C1405 C1411 1.363 . S
C1406 C1407 1.363 . S
C1406 C1411 1.379 . S
C1406 N1413 1.356 . S
C1407 C1406 1.363 . S
C1407 C1410 1.363 . S
N1408 C1410 1.356 . S
N1408 H1420 0.984 . S
N1408 H1421 0.985 . S
N1409 C1411 1.356 . S
N1409 H1414 0.984 . S
N1409 H1415 0.985 . S
C1410 C1404 1.379 . S
C1410 C1407 1.363 . S
C1410 N1408 1.356 . S
C1411 C1405 1.363 . S
C1411 C1406 1.379 . S
C1411 N1409 1.356 . S
N1412 C1404 1.356 1_655 S
N1412 H1418 0.984 . S
N1412 H1419 0.984 . S
N1413 C1406 1.356 . S
N1413 H1416 0.984 . S
N1413 H1417 0.985 . S
H1414 N1409 0.984 . S
H1415 N1409 0.985 . S
H1416 N1413 0.984 . S
H1417 N1413 0.985 . S
H1418 N1412 0.984 . S
H1419 N1412 0.984 . S
H1420 N1408 0.984 . S
H1421 N1408 0.985 . S
C1422 C1423 1.363 . S
C1422 C1428 1.379 . S
C1422 N1430 1.356 . S
C1423 C1422 1.363 . S
C1423 C1429 1.363 . S
C1424 C1425 1.363 . S
C1424 C1429 1.379 . S
C1424 N1431 1.356 . S
C1425 C1424 1.363 . S
C1425 C1428 1.363 . S
N1426 C1428 1.356 . S
N1426 H1438 0.984 . S
N1426 H1439 0.985 . S
N1427 C1429 1.356 . S
N1427 H1432 0.984 . S
N1427 H1433 0.985 . S
C1428 C1422 1.379 . S
C1428 C1425 1.363 . S
C1428 N1426 1.356 . S
C1429 C1423 1.363 . S
C1429 C1424 1.379 . S
C1429 N1427 1.356 . S
N1430 C1422 1.356 . S
N1430 H1436 0.984 . S
N1430 H1437 0.984 . S
N1431 C1424 1.356 . S
N1431 H1434 0.984 . S
N1431 H1435 0.985 . S
H1432 N1427 0.984 . S
H1433 N1427 0.985 . S
H1434 N1431 0.984 . S
H1435 N1431 0.985 . S
H1436 N1430 0.984 . S
H1437 N1430 0.984 . S
H1438 N1426 0.984 . S
H1439 N1426 0.985 . S
C1440 C1441 1.363 . S
C1440 C1446 1.379 . S
C1440 N1448 1.356 . S
C1441 C1440 1.363 . S
C1441 C1447 1.363 . S
C1442 C1443 1.363 . S
C1442 C1447 1.379 . S
C1442 N1449 1.356 . S
C1443 C1442 1.363 . S
C1443 C1446 1.363 . S
N1444 C1446 1.356 . S
N1444 H1456 0.984 . S
N1444 H1457 0.985 . S
N1445 C1447 1.356 . S
N1445 H1450 0.984 . S
N1445 H1451 0.985 . S
C1446 C1440 1.379 . S
C1446 C1443 1.363 . S
C1446 N1444 1.356 . S
C1447 C1441 1.363 . S
C1447 C1442 1.379 . S
C1447 N1445 1.356 . S
N1448 C1440 1.356 . S
N1448 H1454 0.984 . S
N1448 H1455 0.984 . S
N1449 C1442 1.356 . S
N1449 H1452 0.984 . S
N1449 H1453 0.985 . S
H1450 N1445 0.984 . S
H1451 N1445 0.985 . S
H1452 N1449 0.984 . S
H1453 N1449 0.985 . S
H1454 N1448 0.984 . S
H1455 N1448 0.984 . S
H1456 N1444 0.984 . S
H1457 N1444 0.985 . S
C1458 C1459 1.363 . S
C1458 C1464 1.379 . S
C1458 N1466 1.356 . S
C1459 C1458 1.363 . S
C1459 C1465 1.363 . S
C1460 C1461 1.363 . S
C1460 C1465 1.379 . S
C1460 N1467 1.356 . S
C1461 C1460 1.363 . S
C1461 C1464 1.363 . S
N1462 C1464 1.356 . S
N1462 H1474 0.984 . S
N1462 H1475 0.985 . S
N1463 C1465 1.356 . S
N1463 H1468 0.984 . S
N1463 H1469 0.985 . S
C1464 C1458 1.379 . S
C1464 C1461 1.363 . S
C1464 N1462 1.356 . S
C1465 C1459 1.363 . S
C1465 C1460 1.379 . S
C1465 N1463 1.356 . S
N1466 C1458 1.356 . S
N1466 H1472 0.984 . S
N1466 H1473 0.984 . S
N1467 C1460 1.356 . S
N1467 H1470 0.984 . S
N1467 H1471 0.985 . S
H1468 N1463 0.984 . S
H1469 N1463 0.985 . S
H1470 N1467 0.984 . S
H1471 N1467 0.985 . S
H1472 N1466 0.984 . S
H1473 N1466 0.984 . S
H1474 N1462 0.984 . S
H1475 N1462 0.985 . S
C1476 C1477 1.363 . S
C1476 C1482 1.379 . S
C1476 N1484 1.356 . S
C1477 C1476 1.363 . S
C1477 C1483 1.363 . S
C1478 C1479 1.363 . S
C1478 C1483 1.379 . S
C1478 N1485 1.356 . S
C1479 C1478 1.363 . S
C1479 C1482 1.363 . S
N1480 C1482 1.356 . S
N1480 H1492 0.984 . S
N1480 H1493 0.985 . S
N1481 C1483 1.356 . S
N1481 H1486 0.984 . S
N1481 H1487 0.985 . S
C1482 C1476 1.379 . S
C1482 C1479 1.363 . S
C1482 N1480 1.356 . S
C1483 C1477 1.363 . S
C1483 C1478 1.379 . S
C1483 N1481 1.356 . S
N1484 C1476 1.356 . S
N1484 H1490 0.984 . S
N1484 H1491 0.984 . S
N1485 C1478 1.356 . S
N1485 H1488 0.984 . S
N1485 H1489 0.985 . S
H1486 N1481 0.984 . S
H1487 N1481 0.985 . S
H1488 N1485 0.984 . S
H1489 N1485 0.985 . S
H1490 N1484 0.984 . S
H1491 N1484 0.984 . S
H1492 N1480 0.984 . S
H1493 N1480 0.985 . S
C1494 C1495 1.360 1_545 S
C1494 C1500 1.379 . S
C1494 N1502 1.356 1_545 S
C1495 C1494 1.360 1_565 S
C1495 C1501 1.361 1_565 S
C1496 C1497 1.363 . S
C1496 C1501 1.379 . S
C1496 N1503 1.356 . S
C1497 C1496 1.363 . S
C1497 C1500 1.363 . S
N1498 C1500 1.356 . S
N1498 H1510 0.984 . S
N1498 H1511 0.985 . S
N1499 C1501 1.356 1_565 S
N1499 H1504 0.984 . S
N1499 H1505 0.985 1_565 S
C1500 C1494 1.379 . S
C1500 C1497 1.363 . S
C1500 N1498 1.356 . S
C1501 C1495 1.361 1_545 S
C1501 C1496 1.379 . S
C1501 N1499 1.356 1_545 S
N1502 C1494 1.356 1_565 S
N1502 H1508 0.984 . S
N1502 H1509 0.984 . S
N1503 C1496 1.356 . S
N1503 H1506 0.984 . S
N1503 H1507 0.985 . S
H1504 N1499 0.984 . S
H1505 N1499 0.985 1_545 S
H1506 N1503 0.984 . S
H1507 N1503 0.985 . S
H1508 N1502 0.984 . S
H1509 N1502 0.984 . S
H1510 N1498 0.984 . S
H1511 N1498 0.985 . S
C1512 C1513 1.363 . S
C1512 C1518 1.379 . S
C1512 N1520 1.356 . S
C1513 C1512 1.363 . S
C1513 C1519 1.363 . S
C1514 C1515 1.363 . S
C1514 C1519 1.379 . S
C1514 N1521 1.356 . S
C1515 C1514 1.363 . S
C1515 C1518 1.363 . S
N1516 C1518 1.356 . S
N1516 H1528 0.984 . S
N1516 H1529 0.985 . S
N1517 C1519 1.356 1_455 S
N1517 H1522 0.984 . S
N1517 H1523 0.985 . S
C1518 C1512 1.379 . S
C1518 C1515 1.363 . S
C1518 N1516 1.356 . S
C1519 C1513 1.363 . S
C1519 C1514 1.379 . S
C1519 N1517 1.356 1_655 S
N1520 C1512 1.356 . S
N1520 H1526 0.984 . S
N1520 H1527 0.984 . S
N1521 C1514 1.356 . S
N1521 H1524 0.984 . S
N1521 H1525 0.985 . S
H1522 N1517 0.984 . S
H1523 N1517 0.985 . S
H1524 N1521 0.984 . S
H1525 N1521 0.985 . S
H1526 N1520 0.984 . S
H1527 N1520 0.984 . S
H1528 N1516 0.984 . S
H1529 N1516 0.985 . S
C1530 C1531 1.363 . S
C1530 C1536 1.379 . S
C1530 N1538 1.356 . S
C1531 C1530 1.363 . S
C1531 C1537 1.363 . S
C1532 C1533 1.363 . S
C1532 C1537 1.379 . S
C1532 N1539 1.356 . S
C1533 C1532 1.363 . S
C1533 C1536 1.363 . S
N1534 C1536 1.356 . S
N1534 H1546 0.984 . S
N1534 H1547 0.985 . S
N1535 C1537 1.356 . S
N1535 H1540 0.984 . S
N1535 H1541 0.985 . S
C1536 C1530 1.379 . S
C1536 C1533 1.363 . S
C1536 N1534 1.356 . S
C1537 C1531 1.363 . S
C1537 C1532 1.379 . S
C1537 N1535 1.356 . S
N1538 C1530 1.356 . S
N1538 H1544 0.984 . S
N1538 H1545 0.984 . S
N1539 C1532 1.356 . S
N1539 H1542 0.984 . S
N1539 H1543 0.985 . S
H1540 N1535 0.984 . S
H1541 N1535 0.985 . S
H1542 N1539 0.984 . S
H1543 N1539 0.985 . S
H1544 N1538 0.984 . S
H1545 N1538 0.984 . S
H1546 N1534 0.984 . S
H1547 N1534 0.985 . S
C1548 C1549 1.363 . S
C1548 C1554 1.379 . S
C1548 N1556 1.356 1_655 S
C1549 C1548 1.363 . S
C1549 C1555 1.363 . S
C1550 C1551 1.363 . S
C1550 C1555 1.379 . S
C1550 N1557 1.356 . S
C1551 C1550 1.363 . S
C1551 C1554 1.363 . S
N1552 C1554 1.356 . S
N1552 H1564 0.984 . S
N1552 H1565 0.985 . S
N1553 C1555 1.356 . S
N1553 H1558 0.984 1_655 S
N1553 H1559 0.985 . S
C1554 C1548 1.379 . S
C1554 C1551 1.363 . S
C1554 N1552 1.356 . S
C1555 C1549 1.363 . S
C1555 C1550 1.379 . S
C1555 N1553 1.356 . S
N1556 C1548 1.356 1_455 S
N1556 H1562 0.984 . S
N1556 H1563 0.984 . S
N1557 C1550 1.356 . S
N1557 H1560 0.984 . S
N1557 H1561 0.985 . S
H1558 N1553 0.984 1_455 S
H1559 N1553 0.985 . S
H1560 N1557 0.984 . S
H1561 N1557 0.985 . S
H1562 N1556 0.984 . S
H1563 N1556 0.984 . S
H1564 N1552 0.984 . S
H1565 N1552 0.985 . S
C1566 C1567 1.363 . S
C1566 C1572 1.379 . S
C1566 N1574 1.356 . S
C1567 C1566 1.363 . S
C1567 C1573 1.363 . S
C1568 C1569 1.363 . S
C1568 C1573 1.379 . S
C1568 N1575 1.356 . S
C1569 C1568 1.363 . S
C1569 C1572 1.363 . S
N1570 C1572 1.356 . S
N1570 H1582 0.984 . S
N1570 H1583 0.985 . S
N1571 C1573 1.356 . S
N1571 H1576 0.984 . S
N1571 H1577 0.985 . S
C1572 C1566 1.379 . S
C1572 C1569 1.363 . S
C1572 N1570 1.356 . S
C1573 C1567 1.363 . S
C1573 C1568 1.379 . S
C1573 N1571 1.356 . S
N1574 C1566 1.356 . S
N1574 H1580 0.984 . S
N1574 H1581 0.984 . S
N1575 C1568 1.356 . S
N1575 H1578 0.984 . S
N1575 H1579 0.985 . S
H1576 N1571 0.984 . S
H1577 N1571 0.985 . S
H1578 N1575 0.984 . S
H1579 N1575 0.985 . S
H1580 N1574 0.984 . S
H1581 N1574 0.984 . S
H1582 N1570 0.984 . S
H1583 N1570 0.985 . S
C1584 C1585 1.363 1_545 S
C1584 C1590 1.379 . S
C1584 N1592 1.356 1_545 S
C1585 C1584 1.363 1_565 S
C1585 C1591 1.363 1_565 S
C1586 C1587 1.363 . S
C1586 C1591 1.379 . S
C1586 N1593 1.356 . S
C1587 C1586 1.363 . S
C1587 C1590 1.363 . S
N1588 C1590 1.356 . S
N1588 H1600 0.984 . S
N1588 H1601 0.985 . S
N1589 C1591 1.356 1_565 S
N1589 H1594 0.984 . S
N1589 H1595 0.985 1_565 S
C1590 C1584 1.379 . S
C1590 C1587 1.363 . S
C1590 N1588 1.356 . S
C1591 C1585 1.363 1_545 S
C1591 C1586 1.379 . S
C1591 N1589 1.356 1_545 S
N1592 C1584 1.356 1_565 S
N1592 H1598 0.984 . S
N1592 H1599 0.984 . S
N1593 C1586 1.356 . S
N1593 H1596 0.984 . S
N1593 H1597 0.985 . S
H1594 N1589 0.984 . S
H1595 N1589 0.985 1_545 S
H1596 N1593 0.984 . S
H1597 N1593 0.985 . S
H1598 N1592 0.984 . S
H1599 N1592 0.984 . S
H1600 N1588 0.984 . S
H1601 N1588 0.985 . S
C1602 C1603 1.363 . S
C1602 C1608 1.379 . S
C1602 N1610 1.356 . S
C1603 C1602 1.363 . S
C1603 C1609 1.363 . S
C1604 C1605 1.363 . S
C1604 C1609 1.379 . S
C1604 N1611 1.356 . S
C1605 C1604 1.363 . S
C1605 C1608 1.363 . S
N1606 C1608 1.356 . S
N1606 H1618 0.984 . S
N1606 H1619 0.985 . S
N1607 C1609 1.356 . S
N1607 H1612 0.984 . S
N1607 H1613 0.985 . S
C1608 C1602 1.379 . S
C1608 C1605 1.363 . S
C1608 N1606 1.356 . S
C1609 C1603 1.363 . S
C1609 C1604 1.379 . S
C1609 N1607 1.356 . S
N1610 C1602 1.356 . S
N1610 H1616 0.984 . S
N1610 H1617 0.984 . S
N1611 C1604 1.356 . S
N1611 H1614 0.984 . S
N1611 H1615 0.985 . S
H1612 N1607 0.984 . S
H1613 N1607 0.985 . S
H1614 N1611 0.984 . S
H1615 N1611 0.985 . S
H1616 N1610 0.984 . S
H1617 N1610 0.984 . S
H1618 N1606 0.984 . S
H1619 N1606 0.985 . S
C1620 C1621 1.363 . S
C1620 C1626 1.379 . S
C1620 N1628 1.356 . S
C1621 C1620 1.363 . S
C1621 C1627 1.363 . S
C1622 C1623 1.363 . S
C1622 C1627 1.379 . S
C1622 N1629 1.356 . S
C1623 C1622 1.363 . S
C1623 C1626 1.363 . S
N1624 C1626 1.356 . S
N1624 H1636 0.984 . S
N1624 H1637 0.985 . S
N1625 C1627 1.356 . S
N1625 H1630 0.984 . S
N1625 H1631 0.985 . S
C1626 C1620 1.379 . S
C1626 C1623 1.363 . S
C1626 N1624 1.356 . S
C1627 C1621 1.363 . S
C1627 C1622 1.379 . S
C1627 N1625 1.356 . S
N1628 C1620 1.356 . S
N1628 H1634 0.984 . S
N1628 H1635 0.984 . S
N1629 C1622 1.356 . S
N1629 H1632 0.984 . S
N1629 H1633 0.985 . S
H1630 N1625 0.984 . S
H1631 N1625 0.985 . S
H1632 N1629 0.984 . S
H1633 N1629 0.985 . S
H1634 N1628 0.984 . S
H1635 N1628 0.984 . S
H1636 N1624 0.984 . S
H1637 N1624 0.985 . S
C1638 C1639 1.363 . S
C1638 C1644 1.379 . S
C1638 N1646 1.356 . S
C1639 C1638 1.363 . S
C1639 C1645 1.363 . S
C1640 C1641 1.363 . S
C1640 C1645 1.379 . S
C1640 N1647 1.356 . S
C1641 C1640 1.363 . S
C1641 C1644 1.363 . S
N1642 C1644 1.356 . S
N1642 H1654 0.984 . S
N1642 H1655 0.985 . S
N1643 C1645 1.356 . S
N1643 H1648 0.984 . S
N1643 H1649 0.985 . S
C1644 C1638 1.379 . S
C1644 C1641 1.363 . S
C1644 N1642 1.356 . S
C1645 C1639 1.363 . S
C1645 C1640 1.379 . S
C1645 N1643 1.356 . S
N1646 C1638 1.356 . S
N1646 H1652 0.984 . S
N1646 H1653 0.984 . S
N1647 C1640 1.356 . S
N1647 H1650 0.984 . S
N1647 H1651 0.985 . S
H1648 N1643 0.984 . S
H1649 N1643 0.985 . S
H1650 N1647 0.984 . S
H1651 N1647 0.985 . S
H1652 N1646 0.984 . S
H1653 N1646 0.984 . S
H1654 N1642 0.984 . S
H1655 N1642 0.985 . S
C1656 C1657 1.363 1_545 S
C1656 C1662 1.379 . S
C1656 N1664 1.356 . S
C1657 C1656 1.363 1_565 S
C1657 C1663 1.363 . S
C1658 C1659 1.363 . S
C1658 C1663 1.379 . S
C1658 N1665 1.356 . S
C1659 C1658 1.363 . S
C1659 C1662 1.363 1_565 S
N1660 C1662 1.356 . S
N1660 H1672 0.984 . S
N1660 H1673 0.985 . S
N1661 C1663 1.356 . S
N1661 H1666 0.984 . S
N1661 H1667 0.985 . S
C1662 C1656 1.379 . S
C1662 C1659 1.363 1_545 S
C1662 N1660 1.356 . S
C1663 C1657 1.363 . S
C1663 C1658 1.379 . S
C1663 N1661 1.356 . S
N1664 C1656 1.356 . S
N1664 H1670 0.984 . S
N1664 H1671 0.984 . S
N1665 C1658 1.356 . S
N1665 H1668 0.984 . S
N1665 H1669 0.985 . S
H1666 N1661 0.984 . S
H1667 N1661 0.985 . S
H1668 N1665 0.984 . S
H1669 N1665 0.985 . S
H1670 N1664 0.984 . S
H1671 N1664 0.984 . S
H1672 N1660 0.984 . S
H1673 N1660 0.985 . S
C1674 C1675 1.363 . S
C1674 C1680 1.379 . S
C1674 N1682 1.356 1_455 S
C1675 C1674 1.363 . S
C1675 C1681 1.363 . S
C1676 C1677 1.363 . S
C1676 C1681 1.379 . S
C1676 N1683 1.356 . S
C1677 C1676 1.363 . S
C1677 C1680 1.363 . S
N1678 C1680 1.356 . S
N1678 H1690 0.984 . S
N1678 H1691 0.985 . S
N1679 C1681 1.356 . S
N1679 H1684 0.984 . S
N1679 H1685 0.985 . S
C1680 C1674 1.379 . S
C1680 C1677 1.363 . S
C1680 N1678 1.356 . S
C1681 C1675 1.363 . S
C1681 C1676 1.379 . S
C1681 N1679 1.356 . S
N1682 C1674 1.356 1_655 S
N1682 H1688 0.984 . S
N1682 H1689 0.984 . S
N1683 C1676 1.356 . S
N1683 H1686 0.984 . S
N1683 H1687 0.985 . S
H1684 N1679 0.984 . S
H1685 N1679 0.985 . S
H1686 N1683 0.984 . S
H1687 N1683 0.985 . S
H1688 N1682 0.984 . S
H1689 N1682 0.984 . S
H1690 N1678 0.984 . S
H1691 N1678 0.985 . S
C1692 C1693 1.363 . S
C1692 C1698 1.379 . S
C1692 N1700 1.356 . S
C1693 C1692 1.363 . S
C1693 C1699 1.363 . S
C1694 C1695 1.363 . S
C1694 C1699 1.379 . S
C1694 N1701 1.356 . S
C1695 C1694 1.363 . S
C1695 C1698 1.363 . S
N1696 C1698 1.356 . S
N1696 H1708 0.984 . S
N1696 H1709 0.985 . S
N1697 C1699 1.356 . S
N1697 H1702 0.984 . S
N1697 H1703 0.985 . S
C1698 C1692 1.379 . S
C1698 C1695 1.363 . S
C1698 N1696 1.356 . S
C1699 C1693 1.363 . S
C1699 C1694 1.379 . S
C1699 N1697 1.356 . S
N1700 C1692 1.356 . S
N1700 H1706 0.984 . S
N1700 H1707 0.984 . S
N1701 C1694 1.356 . S
N1701 H1704 0.984 . S
N1701 H1705 0.985 . S
H1702 N1697 0.984 . S
H1703 N1697 0.985 . S
H1704 N1701 0.984 . S
H1705 N1701 0.985 . S
H1706 N1700 0.984 . S
H1707 N1700 0.984 . S
H1708 N1696 0.984 . S
H1709 N1696 0.985 . S
C1710 C1711 1.363 1_455 S
C1710 C1716 1.379 . S
C1710 N1718 1.356 . S
C1711 C1710 1.363 1_655 S
C1711 C1717 1.363 . S
C1712 C1713 1.363 . S
C1712 C1717 1.379 . S
C1712 N1719 1.356 . S
C1713 C1712 1.363 . S
C1713 C1716 1.363 1_655 S
N1714 C1716 1.356 . S
N1714 H1726 0.984 . S
N1714 H1727 0.985 . S
N1715 C1717 1.356 . S
N1715 H1720 0.984 . S
N1715 H1721 0.985 . S
C1716 C1710 1.379 . S
C1716 C1713 1.363 1_455 S
C1716 N1714 1.356 . S
C1717 C1711 1.363 . S
C1717 C1712 1.379 . S
C1717 N1715 1.356 . S
N1718 C1710 1.356 . S
N1718 H1724 0.984 . S
N1718 H1725 0.984 . S
N1719 C1712 1.356 . S
N1719 H1722 0.984 . S
N1719 H1723 0.985 . S
H1720 N1715 0.984 . S
H1721 N1715 0.985 . S
H1722 N1719 0.984 . S
H1723 N1719 0.985 . S
H1724 N1718 0.984 . S
H1725 N1718 0.984 . S
H1726 N1714 0.984 . S
H1727 N1714 0.985 . S
C1728 C1729 1.363 . S
C1728 C1734 1.379 . S
C1728 N1736 1.356 . S
C1729 C1728 1.363 . S
C1729 C1735 1.363 . S
C1730 C1731 1.363 . S
C1730 C1735 1.379 . S
C1730 N1737 1.356 . S
C1731 C1730 1.363 . S
C1731 C1734 1.363 . S
N1732 C1734 1.356 . S
N1732 H1744 0.984 . S
N1732 H1745 0.985 . S
N1733 C1735 1.356 . S
N1733 H1738 0.984 . S
N1733 H1739 0.985 . S
C1734 C1728 1.379 . S
C1734 C1731 1.363 . S
C1734 N1732 1.356 . S
C1735 C1729 1.363 . S
C1735 C1730 1.379 . S
C1735 N1733 1.356 . S
N1736 C1728 1.356 . S
N1736 H1742 0.984 . S
N1736 H1743 0.984 . S
N1737 C1730 1.356 . S
N1737 H1740 0.984 . S
N1737 H1741 0.985 . S
H1738 N1733 0.984 . S
H1739 N1733 0.985 . S
H1740 N1737 0.984 . S
H1741 N1737 0.985 . S
H1742 N1736 0.984 . S
H1743 N1736 0.984 . S
H1744 N1732 0.984 . S
H1745 N1732 0.985 . S
C1746 C1747 1.363 . S
C1746 C1752 1.379 . S
C1746 N1754 1.356 . S
C1747 C1746 1.363 . S
C1747 C1753 1.363 . S
C1748 C1749 1.363 . S
C1748 C1753 1.379 . S
C1748 N1755 1.356 . S
C1749 C1748 1.363 . S
C1749 C1752 1.363 . S
N1750 C1752 1.356 . S
N1750 H1762 0.984 . S
N1750 H1763 0.985 . S
N1751 C1753 1.356 . S
N1751 H1756 0.984 . S
N1751 H1757 0.985 . S
C1752 C1746 1.379 . S
C1752 C1749 1.363 . S
C1752 N1750 1.356 . S
C1753 C1747 1.363 . S
C1753 C1748 1.379 . S
C1753 N1751 1.356 . S
N1754 C1746 1.356 . S
N1754 H1760 0.984 . S
N1754 H1761 0.984 . S
N1755 C1748 1.356 . S
N1755 H1758 0.983 1_545 S
N1755 H1759 0.986 1_545 S
H1756 N1751 0.984 . S
H1757 N1751 0.985 . S
H1758 N1755 0.983 1_565 S
H1759 N1755 0.986 1_565 S
H1760 N1754 0.984 . S
H1761 N1754 0.984 . S
H1762 N1750 0.984 . S
H1763 N1750 0.985 . S
C1764 C1765 1.363 . S
C1764 C1770 1.379 . S
C1764 N1772 1.356 . S
C1765 C1764 1.363 . S
C1765 C1771 1.363 . S
C1766 C1767 1.363 . S
C1766 C1771 1.379 . S
C1766 N1773 1.356 . S
C1767 C1766 1.363 . S
C1767 C1770 1.363 . S
N1768 C1770 1.356 . S
N1768 H1780 0.984 . S
N1768 H1781 0.985 . S
N1769 C1771 1.356 . S
N1769 H1774 0.984 . S
N1769 H1775 0.985 . S
C1770 C1764 1.379 . S
C1770 C1767 1.363 . S
C1770 N1768 1.356 . S
C1771 C1765 1.363 . S
C1771 C1766 1.379 . S
C1771 N1769 1.356 . S
N1772 C1764 1.356 . S
N1772 H1778 0.984 . S
N1772 H1779 0.984 . S
N1773 C1766 1.356 . S
N1773 H1776 0.984 . S
N1773 H1777 0.985 . S
H1774 N1769 0.984 . S
H1775 N1769 0.985 . S
H1776 N1773 0.984 . S
H1777 N1773 0.985 . S
H1778 N1772 0.984 . S
H1779 N1772 0.984 . S
H1780 N1768 0.984 . S
H1781 N1768 0.985 . S
C1782 C1783 1.363 . S
C1782 C1788 1.379 . S
C1782 N1790 1.356 . S
C1783 C1782 1.363 . S
C1783 C1789 1.363 . S
C1784 C1785 1.363 . S
C1784 C1789 1.379 . S
C1784 N1791 1.356 . S
C1785 C1784 1.363 . S
C1785 C1788 1.363 . S
N1786 C1788 1.356 . S
N1786 H1798 0.984 . S
N1786 H1799 0.985 . S
N1787 C1789 1.356 . S
N1787 H1792 0.984 . S
N1787 H1793 0.985 . S
C1788 C1782 1.379 . S
C1788 C1785 1.363 . S
C1788 N1786 1.356 . S
C1789 C1783 1.363 . S
C1789 C1784 1.379 . S
C1789 N1787 1.356 . S
N1790 C1782 1.356 . S
N1790 H1796 0.984 . S
N1790 H1797 0.984 . S
N1791 C1784 1.356 . S
N1791 H1794 0.984 . S
N1791 H1795 0.985 . S
H1792 N1787 0.984 . S
H1793 N1787 0.985 . S
H1794 N1791 0.984 . S
H1795 N1791 0.985 . S
H1796 N1790 0.984 . S
H1797 N1790 0.984 . S
H1798 N1786 0.984 . S
H1799 N1786 0.985 . S
C1800 C1801 1.363 . S
C1800 C1806 1.379 . S
C1800 N1808 1.356 . S
C1801 C1800 1.363 . S
C1801 C1807 1.363 . S
C1802 C1803 1.363 . S
C1802 C1807 1.379 . S
C1802 N1809 1.356 . S
C1803 C1802 1.363 . S
C1803 C1806 1.363 . S
N1804 C1806 1.356 . S
N1804 H1816 0.984 . S
N1804 H1817 0.985 . S
N1805 C1807 1.356 . S
N1805 H1810 0.984 . S
N1805 H1811 0.985 . S
C1806 C1800 1.379 . S
C1806 C1803 1.363 . S
C1806 N1804 1.356 . S
C1807 C1801 1.363 . S
C1807 C1802 1.379 . S
C1807 N1805 1.356 . S
N1808 C1800 1.356 . S
N1808 H1814 0.984 . S
N1808 H1815 0.984 . S
N1809 C1802 1.356 . S
N1809 H1812 0.984 . S
N1809 H1813 0.985 . S
H1810 N1805 0.984 . S
H1811 N1805 0.985 . S
H1812 N1809 0.984 . S
H1813 N1809 0.985 . S
H1814 N1808 0.984 . S
H1815 N1808 0.984 . S
H1816 N1804 0.984 . S
H1817 N1804 0.985 . S
C1818 C1819 1.363 . S
C1818 C1824 1.379 . S
C1818 N1826 1.356 . S
C1819 C1818 1.363 . S
C1819 C1825 1.363 . S
C1820 C1821 1.363 . S
C1820 C1825 1.379 . S
C1820 N1827 1.356 . S
C1821 C1820 1.363 . S
C1821 C1824 1.363 . S
N1822 C1824 1.356 . S
N1822 H1834 0.984 . S
N1822 H1835 0.985 . S
N1823 C1825 1.356 . S
N1823 H1828 0.984 . S
N1823 H1829 0.985 . S
C1824 C1818 1.379 . S
C1824 C1821 1.363 . S
C1824 N1822 1.356 . S
C1825 C1819 1.363 . S
C1825 C1820 1.379 . S
C1825 N1823 1.356 . S
N1826 C1818 1.356 . S
N1826 H1832 0.984 . S
N1826 H1833 0.984 . S
N1827 C1820 1.356 . S
N1827 H1830 0.984 . S
N1827 H1831 0.985 . S
H1828 N1823 0.984 . S
H1829 N1823 0.985 . S
H1830 N1827 0.984 . S
H1831 N1827 0.985 . S
H1832 N1826 0.984 . S
H1833 N1826 0.984 . S
H1834 N1822 0.984 . S
H1835 N1822 0.985 . S
C1836 C1837 1.363 . S
C1836 C1842 1.379 . S
C1836 N1844 1.356 . S
C1837 C1836 1.363 . S
C1837 C1843 1.363 . S
C1838 C1839 1.363 . S
C1838 C1843 1.379 . S
C1838 N1845 1.356 . S
C1839 C1838 1.363 . S
C1839 C1842 1.363 . S
N1840 C1842 1.356 . S
N1840 H1852 0.984 . S
N1840 H1853 0.985 . S
N1841 C1843 1.356 . S
N1841 H1846 0.984 . S
N1841 H1847 0.985 . S
C1842 C1836 1.379 . S
C1842 C1839 1.363 . S
C1842 N1840 1.356 . S
C1843 C1837 1.363 . S
C1843 C1838 1.379 . S
C1843 N1841 1.356 . S
N1844 C1836 1.356 . S
N1844 H1850 0.984 . S
N1844 H1851 0.984 . S
N1845 C1838 1.356 . S
N1845 H1848 0.984 . S
N1845 H1849 0.985 . S
H1846 N1841 0.984 . S
H1847 N1841 0.985 . S
H1848 N1845 0.984 . S
H1849 N1845 0.985 . S
H1850 N1844 0.984 . S
H1851 N1844 0.984 . S
H1852 N1840 0.984 . S
H1853 N1840 0.985 . S
C1854 C1855 1.363 . S
C1854 C1860 1.379 . S
C1854 N1862 1.356 . S
C1855 C1854 1.363 . S
C1855 C1861 1.363 . S
C1856 C1857 1.363 . S
C1856 C1861 1.379 . S
C1856 N1863 1.356 . S
C1857 C1856 1.363 . S
C1857 C1860 1.363 . S
N1858 C1860 1.356 . S
N1858 H1870 0.984 . S
N1858 H1871 0.985 . S
N1859 C1861 1.356 . S
N1859 H1864 0.984 . S
N1859 H1865 0.985 . S
C1860 C1854 1.379 . S
C1860 C1857 1.363 . S
C1860 N1858 1.356 . S
C1861 C1855 1.363 . S
C1861 C1856 1.379 . S
C1861 N1859 1.356 . S
N1862 C1854 1.356 . S
N1862 H1868 0.984 . S
N1862 H1869 0.984 . S
N1863 C1856 1.356 . S
N1863 H1866 0.984 . S
N1863 H1867 0.985 . S
H1864 N1859 0.984 . S
H1865 N1859 0.985 . S
H1866 N1863 0.984 . S
H1867 N1863 0.985 . S
H1868 N1862 0.984 . S
H1869 N1862 0.984 . S
H1870 N1858 0.984 . S
H1871 N1858 0.985 . S
C1872 C1873 1.363 . S
C1872 C1878 1.379 . S
C1872 N1880 1.356 . S
C1873 C1872 1.363 . S
C1873 C1879 1.363 . S
C1874 C1875 1.363 . S
C1874 C1879 1.379 . S
C1874 N1881 1.356 . S
C1875 C1874 1.363 . S
C1875 C1878 1.363 . S
N1876 C1878 1.356 . S
N1876 H1888 0.984 . S
N1876 H1889 0.985 . S
N1877 C1879 1.356 . S
N1877 H1882 0.984 . S
N1877 H1883 0.985 . S
C1878 C1872 1.379 . S
C1878 C1875 1.363 . S
C1878 N1876 1.356 . S
C1879 C1873 1.363 . S
C1879 C1874 1.379 . S
C1879 N1877 1.356 . S
N1880 C1872 1.356 . S
N1880 H1886 0.984 . S
N1880 H1887 0.984 . S
N1881 C1874 1.356 . S
N1881 H1884 0.984 . S
N1881 H1885 0.985 . S
H1882 N1877 0.984 . S
H1883 N1877 0.985 . S
H1884 N1881 0.984 . S
H1885 N1881 0.985 . S
H1886 N1880 0.984 . S
H1887 N1880 0.984 . S
H1888 N1876 0.984 . S
H1889 N1876 0.985 . S
C1890 C1891 1.363 . S
C1890 C1896 1.379 . S
C1890 N1898 1.356 . S
C1891 C1890 1.363 . S
C1891 C1897 1.363 . S
C1892 C1893 1.363 . S
C1892 C1897 1.379 . S
C1892 N1899 1.356 . S
C1893 C1892 1.363 . S
C1893 C1896 1.363 . S
N1894 C1896 1.356 . S
N1894 H1906 0.984 . S
N1894 H1907 0.985 . S
N1895 C1897 1.356 . S
N1895 H1900 0.984 . S
N1895 H1901 0.985 . S
C1896 C1890 1.379 . S
C1896 C1893 1.363 . S
C1896 N1894 1.356 . S
C1897 C1891 1.363 . S
C1897 C1892 1.379 . S
C1897 N1895 1.356 . S
N1898 C1890 1.356 . S
N1898 H1904 0.984 . S
N1898 H1905 0.984 . S
N1899 C1892 1.356 . S
N1899 H1902 0.984 . S
N1899 H1903 0.985 . S
H1900 N1895 0.984 . S
H1901 N1895 0.985 . S
H1902 N1899 0.984 . S
H1903 N1899 0.985 . S
H1904 N1898 0.984 . S
H1905 N1898 0.984 . S
H1906 N1894 0.984 . S
H1907 N1894 0.985 . S
C1908 C1909 1.363 . S
C1908 C1914 1.379 . S
C1908 N1916 1.356 . S
C1909 C1908 1.363 . S
C1909 C1915 1.363 . S
C1910 C1911 1.363 . S
C1910 C1915 1.379 . S
C1910 N1917 1.356 . S
C1911 C1910 1.363 . S
C1911 C1914 1.363 . S
N1912 C1914 1.356 . S
N1912 H1924 0.984 . S
N1912 H1925 0.985 . S
N1913 C1915 1.356 . S
N1913 H1918 0.984 . S
N1913 H1919 0.985 . S
C1914 C1908 1.379 . S
C1914 C1911 1.363 . S
C1914 N1912 1.356 . S
C1915 C1909 1.363 . S
C1915 C1910 1.379 . S
C1915 N1913 1.356 . S
N1916 C1908 1.356 . S
N1916 H1922 0.984 . S
N1916 H1923 0.984 . S
N1917 C1910 1.356 . S
N1917 H1920 0.984 . S
N1917 H1921 0.985 . S
H1918 N1913 0.984 . S
H1919 N1913 0.985 . S
H1920 N1917 0.984 . S
H1921 N1917 0.985 . S
H1922 N1916 0.984 . S
H1923 N1916 0.984 . S
H1924 N1912 0.984 . S
H1925 N1912 0.985 . S
C1926 C1927 1.363 . S
C1926 C1932 1.379 . S
C1926 N1934 1.356 . S
C1927 C1926 1.363 . S
C1927 C1933 1.363 . S
C1928 C1929 1.363 . S
C1928 C1933 1.379 . S
C1928 N1935 1.356 . S
C1929 C1928 1.363 . S
C1929 C1932 1.363 . S
N1930 C1932 1.356 . S
N1930 H1942 0.984 . S
N1930 H1943 0.985 . S
N1931 C1933 1.356 . S
N1931 H1936 0.984 . S
N1931 H1937 0.985 . S
C1932 C1926 1.379 . S
C1932 C1929 1.363 . S
C1932 N1930 1.356 . S
C1933 C1927 1.363 . S
C1933 C1928 1.379 . S
C1933 N1931 1.356 . S
N1934 C1926 1.356 . S
N1934 H1940 0.984 . S
N1934 H1941 0.984 . S
N1935 C1928 1.356 . S
N1935 H1938 0.984 . S
N1935 H1939 0.985 . S
H1936 N1931 0.984 . S
H1937 N1931 0.985 . S
H1938 N1935 0.984 . S
H1939 N1935 0.985 . S
H1940 N1934 0.984 . S
H1941 N1934 0.984 . S
H1942 N1930 0.984 . S
H1943 N1930 0.985 . S
C1944 C1945 1.363 . S
C1944 C1950 1.379 . S
C1944 N1952 1.356 . S
C1945 C1944 1.363 . S
C1945 C1951 1.363 . S
C1946 C1947 1.363 . S
C1946 C1951 1.379 . S
C1946 N1953 1.356 . S
C1947 C1946 1.363 . S
C1947 C1950 1.363 . S
N1948 C1950 1.356 . S
N1948 H1960 0.984 . S
N1948 H1961 0.985 . S
N1949 C1951 1.356 . S
N1949 H1954 0.984 . S
N1949 H1955 0.985 . S
C1950 C1944 1.379 . S
C1950 C1947 1.363 . S
C1950 N1948 1.356 . S
C1951 C1945 1.363 . S
C1951 C1946 1.379 . S
C1951 N1949 1.356 . S
N1952 C1944 1.356 . S
N1952 H1958 0.984 . S
N1952 H1959 0.984 . S
N1953 C1946 1.356 . S
N1953 H1956 0.984 . S
N1953 H1957 0.985 . S
H1954 N1949 0.984 . S
H1955 N1949 0.985 . S
H1956 N1953 0.984 . S
H1957 N1953 0.985 . S
H1958 N1952 0.984 . S
H1959 N1952 0.984 . S
H1960 N1948 0.984 . S
H1961 N1948 0.985 . S
C1962 C1963 1.363 . S
C1962 C1968 1.379 . S
C1962 N1970 1.356 . S
C1963 C1962 1.363 . S
C1963 C1969 1.363 . S
C1964 C1965 1.363 . S
C1964 C1969 1.379 . S
C1964 N1971 1.356 . S
C1965 C1964 1.363 . S
C1965 C1968 1.363 . S
N1966 C1968 1.356 . S
N1966 H1978 0.984 . S
N1966 H1979 0.985 . S
N1967 C1969 1.356 . S
N1967 H1972 0.984 . S
N1967 H1973 0.985 . S
C1968 C1962 1.379 . S
C1968 C1965 1.363 . S
C1968 N1966 1.356 . S
C1969 C1963 1.363 . S
C1969 C1964 1.379 . S
C1969 N1967 1.356 . S
N1970 C1962 1.356 . S
N1970 H1976 0.984 . S
N1970 H1977 0.984 . S
N1971 C1964 1.356 . S
N1971 H1974 0.984 . S
N1971 H1975 0.985 . S
H1972 N1967 0.984 . S
H1973 N1967 0.985 . S
H1974 N1971 0.984 . S
H1975 N1971 0.985 . S
H1976 N1970 0.984 . S
H1977 N1970 0.984 . S
H1978 N1966 0.984 . S
H1979 N1966 0.985 . S
C1009 C469 1.742 . S
C1011 C660 1.753 . S
C1027 C505 1.789 . S
C1029 C700 1.782 . S
C1045 C433 1.819 . S
C1047 C730 1.816 . S
C1063 C397 1.648 . S
C1065 C690 1.635 . S
C1083 C740 1.534 . S
C1081 C325 1.525 . S
C1099 C361 1.557 . S
C1101 C650 1.582 . S
C1119 C679 1.754 . S
C1117 C421 1.754 . S
C1137 C719 1.782 . S
C1135 C349 1.786 . S
C1153 C385 1.811 . S
C1155 C745 1.818 . S
C1171 C493 1.645 . S
C1173 C705 1.636 . S
C1189 C529 1.539 . S
C1191 C759 1.534 . S
C1209 C665 1.584 . S
C1207 C457 1.565 . S
C1227 C780 1.753 . S
C1225 C37 1.742 1_455 S
C1243 C73 1.790 . S
C1245 C820 1.783 . S
C1261 C1 1.819 . S
C1263 C850 1.816 . S
C1279 C613 1.648 . S
C1281 C810 1.635 . S
C1297 C541 1.525 . S
C1299 C860 1.534 . S
C1315 C577 1.557 . S
C1317 C770 1.582 . S
C1333 C637 1.754 . S
C1335 C799 1.754 . S
C1351 C565 1.786 . S
C1353 C839 1.782 . S
C1371 C865 1.818 . S
C1369 C601 1.812 . S
C1387 C61 1.643 1_565 S
C1389 C825 1.636 . S
C1407 C879 1.534 . S
C1405 C97 1.539 1_455 S
C1423 C25 1.565 . S
C1425 C785 1.584 . S
C1443 C900 1.753 . S
C1441 C253 1.742 . S
C1459 C289 1.790 . S
C1461 C940 1.783 . S
C1479 C970 1.817 . S
C1477 C217 1.819 . S
C1497 C930 1.635 . S
C1495 C181 1.652 . S
C1515 C980 1.534 . S
C1513 C109 1.525 1_655 S
C1531 C145 1.557 . S
C1533 C890 1.582 . S
C1549 C205 1.754 1_655 S
C1551 C919 1.754 . S
C1567 C133 1.786 . S
C1569 C959 1.782 . S
C1587 C985 1.818 . S
C1585 C169 1.811 . S
C1603 C277 1.645 . S
C1605 C945 1.636 . S
C1621 C313 1.539 . S
C1623 C999 1.534 . S
C1639 C241 1.566 . S
C1641 C905 1.584 . S
C1657 C571 1.400 . S
C1659 C677 1.386 . S
C1677 C717 1.814 . S
C1675 C607 1.852 . S
C1693 C643 1.581 . S
C1695 C736 1.575 . S
C1711 C247 1.852 . S
C1713 C696 1.813 . S
C1729 C283 1.585 . S
C1731 C757 1.576 . S
C1749 C656 1.385 . S
C1747 C319 1.401 . S
C1765 C139 1.400 . S
C1767 C797 1.386 . S
C1783 C175 1.849 . S
C1785 C837 1.814 . S
C1801 C211 1.581 . S
C1803 C856 1.575 . S
C1819 C463 1.851 . S
C1821 C816 1.813 . S
C1839 C877 1.576 . S
C1837 C499 1.585 . S
C1855 C535 1.401 . S
C1857 C776 1.385 . S
C1873 C355 1.400 . S
C1875 C917 1.386 . S
C1891 C391 1.849 . S
C1893 C957 1.814 . S
C1911 C976 1.575 . S
C1909 C427 1.581 . S
C1927 C31 1.851 . S
C1929 C936 1.813 . S
C1945 C67 1.585 . S
C1947 C997 1.576 . S
C1963 C103 1.401 . S
C1965 C896 1.385 . S
