# Generated by pormake.
# Topology llj, (12,3)-cn, num edge types: 1
# Building blocks:
#     Node 0, Type 0, BuildingBlock: QEWDON_clean_sbu_0, # of connection points: 12
#     Node 1, Type 0, BuildingBlock: QEWDON_clean_sbu_0, # of connection points: 12
#     Node 2, Type 1, BuildingBlock: BETDAH_clean_linker_0, # of connection points: 3
#     Node 3, Type 1, BuildingBlock: BETDAH_clean_linker_0, # of connection points: 3
#     Node 4, Type 1, BuildingBlock: BETDAH_clean_linker_0, # of connection points: 3
#     Node 5, Type 1, BuildingBlock: BETDAH_clean_linker_0, # of connection points: 3
#     Node 6, Type 1, BuildingBlock: BETDAH_clean_linker_0, # of connection points: 3
#     Node 7, Type 1, BuildingBlock: BETDAH_clean_linker_0, # of connection points: 3
#     Node 8, Type 1, BuildingBlock: BETDAH_clean_linker_0, # of connection points: 3
#     Node 9, Type 1, BuildingBlock: BETDAH_clean_linker_0, # of connection points: 3
#     Edge 10, Type (0, 1), BuildingBlock: XUDNAN_clean_linker_2, # of connection points: 2
#     Edge 11, Type (0, 1), BuildingBlock: XUDNAN_clean_linker_2, # of connection points: 2
#     Edge 12, Type (0, 1), BuildingBlock: XUDNAN_clean_linker_2, # of connection points: 2
#     Edge 13, Type (0, 1), BuildingBlock: XUDNAN_clean_linker_2, # of connection points: 2
#     Edge 14, Type (0, 1), BuildingBlock: XUDNAN_clean_linker_2, # of connection points: 2
#     Edge 15, Type (0, 1), BuildingBlock: XUDNAN_clean_linker_2, # of connection points: 2
#     Edge 16, Type (0, 1), BuildingBlock: XUDNAN_clean_linker_2, # of connection points: 2
#     Edge 17, Type (0, 1), BuildingBlock: XUDNAN_clean_linker_2, # of connection points: 2
#     Edge 18, Type (0, 1), BuildingBlock: XUDNAN_clean_linker_2, # of connection points: 2
#     Edge 19, Type (0, 1), BuildingBlock: XUDNAN_clean_linker_2, # of connection points: 2
#     Edge 20, Type (0, 1), BuildingBlock: XUDNAN_clean_linker_2, # of connection points: 2
#     Edge 21, Type (0, 1), BuildingBlock: XUDNAN_clean_linker_2, # of connection points: 2
#     Edge 22, Type (0, 1), BuildingBlock: XUDNAN_clean_linker_2, # of connection points: 2
#     Edge 23, Type (0, 1), BuildingBlock: XUDNAN_clean_linker_2, # of connection points: 2
#     Edge 24, Type (0, 1), BuildingBlock: XUDNAN_clean_linker_2, # of connection points: 2
#     Edge 25, Type (0, 1), BuildingBlock: XUDNAN_clean_linker_2, # of connection points: 2
#     Edge 26, Type (0, 1), BuildingBlock: XUDNAN_clean_linker_2, # of connection points: 2
#     Edge 27, Type (0, 1), BuildingBlock: XUDNAN_clean_linker_2, # of connection points: 2
#     Edge 28, Type (0, 1), BuildingBlock: XUDNAN_clean_linker_2, # of connection points: 2
#     Edge 29, Type (0, 1), BuildingBlock: XUDNAN_clean_linker_2, # of connection points: 2
#     Edge 30, Type (0, 1), BuildingBlock: XUDNAN_clean_linker_2, # of connection points: 2
#     Edge 31, Type (0, 1), BuildingBlock: XUDNAN_clean_linker_2, # of connection points: 2
#     Edge 32, Type (0, 1), BuildingBlock: XUDNAN_clean_linker_2, # of connection points: 2
#     Edge 33, Type (0, 1), BuildingBlock: XUDNAN_clean_linker_2, # of connection points: 2
# Relax obj value: 0.009
# Max RMSD: 0.099
# Mean RMSD: 0.085
data_MOF--net-llj--node1-QEWDON_clean_sbu_0--node2-BETDAH_clean_linker_0--edge1-XUDNAN_clean_linker_2
_symmetry_space_group_name_H-M    P1
_symmetry_Int_Tables_number       1
_symmetry_cell_setting            triclinic
loop_
_symmetry_equiv_pos_as_xyz
'x, y, z'
_cell_length_a     39.472936
_cell_length_b     39.444989
_cell_length_c     24.426502
_cell_angle_alpha  91.325215
_cell_angle_beta   90.303858
_cell_angle_gamma 90.030658
loop_
_atom_site_label
_atom_site_type_symbol
_atom_site_fract_x
_atom_site_fract_y
_atom_site_fract_z
_atom_type_partial_charge
Zn0 Zn 0.9703 0.05905 0.95885 0.0
Zn1 Zn 0.96258 0.07033 0.08524 0.0
O2 O 0.99729 0.06041 0.02972 0.0
H3 H 0.01879 0.07207 0.03156 0.0
C4 C 0.91639 0.01368 0.87573 0.0
O5 O 0.90035 0.02467 0.91965 0.0
Zn6 Zn 0.05075 0.92516 0.09524 0.0
Zn7 Zn 0.05868 0.9112 0.96562 0.0
O8 O 0.02755 0.93099 0.02306 0.0
H9 H 0.00839 0.94542 0.01564 0.0
Zn10 Zn 0.9388 0.95992 0.9493 0.0
O11 O 0.94916 0.98542 0.01942 0.0
Zn12 Zn 0.93379 0.9556 0.07984 0.0
H13 H 0.96845 0.00043 0.02198 0.0
Zn14 Zn 0.05914 0.04537 0.96948 0.0
O15 O 0.05228 0.01825 0.03837 0.0
H16 H 0.03397 0.0023 0.04274 0.0
Zn17 Zn 0.07464 0.04614 0.09852 0.0
C18 C 0.07464 0.99363 0.88576 0.0
O19 O 0.08848 0.9789 0.92808 0.0
O20 O 0.92846 0.09016 0.96476 0.0
O21 O 0.92829 0.10326 0.0537 0.0
O22 O 0.09555 0.88142 0.99826 0.0
O23 O 0.0904 0.89218 0.08778 0.0
O24 O 0.90493 0.92126 0.95915 0.0
O25 O 0.90077 0.91941 0.04998 0.0
C26 C 0.01692 0.09264 0.16501 0.0
O27 O 0.09667 0.081 0.97797 0.0
O28 O 0.11048 0.07793 0.06614 0.0
O29 O 0.03746 0.89617 0.89139 0.0
C30 C 0.91697 0.10738 0.0053 0.0
O31 O 0.99858 0.07645 0.89501 0.0
C32 C 0.98542 0.91263 0.14166 0.0
O33 O 0.93461 0.98719 0.87845 0.0
C34 C 0.10478 0.87679 0.04758 0.0
O35 O 0.0589 0.02142 0.89317 0.0
C36 C 0.9178 0.01631 0.13976 0.0
O37 O 0.98618 0.09246 0.14896 0.0
O38 O 0.0392 0.07489 0.13974 0.0
C39 C 0.89213 0.90877 0.002 0.0
O40 O 0.01653 0.90488 0.14627 0.0
O41 O 0.97713 0.93557 0.10856 0.0
C42 C 0.09089 0.98218 0.14867 0.0
O43 O 0.91065 0.98485 0.138 0.0
O44 O 0.94006 0.02671 0.10658 0.0
C45 C 0.11533 0.08984 0.0185 0.0
O46 O 0.09854 0.01356 0.14935 0.0
O47 O 0.0665 0.97195 0.11849 0.0
C48 C 0.01785 0.91696 0.8682 0.0
O49 O 0.01201 0.94652 0.89216 0.0
C50 C 0.00599 0.10715 0.90642 0.0
O51 O 0.99689 0.12008 0.95419 0.0
Zn52 Zn 0.45359 0.55864 0.45305 0.0
Zn53 Zn 0.45283 0.56916 0.5845 0.0
O54 O 0.48172 0.55378 0.52162 0.0
H55 H 0.4978 0.53549 0.5243 0.0
C56 C 0.42297 0.49432 0.37585 0.0
O57 O 0.40917 0.5095 0.41859 0.0
Zn58 Zn 0.55029 0.43239 0.57878 0.0
Zn59 Zn 0.54962 0.43627 0.44764 0.0
O60 O 0.51997 0.4415 0.51484 0.0
H61 H 0.50054 0.45631 0.51604 0.0
Zn62 Zn 0.44626 0.44917 0.46024 0.0
O63 O 0.44053 0.48311 0.52275 0.0
Zn64 Zn 0.4326 0.45313 0.58636 0.0
H65 H 0.43079 0.50526 0.51764 0.0
Zn66 Zn 0.57443 0.54593 0.45218 0.0
O67 O 0.56294 0.52025 0.51921 0.0
H68 H 0.54713 0.50162 0.51708 0.0
Zn69 Zn 0.57231 0.55061 0.58411 0.0
C70 C 0.61552 0.49411 0.40182 0.0
O71 O 0.62579 0.49257 0.45296 0.0
O72 O 0.41241 0.58959 0.46693 0.0
O73 O 0.415 0.6 0.55685 0.0
O74 O 0.59101 0.4064 0.46287 0.0
O75 O 0.58863 0.40116 0.55342 0.0
O76 O 0.41622 0.40773 0.47208 0.0
O77 O 0.40336 0.41341 0.56042 0.0
C78 C 0.51427 0.59033 0.63886 0.0
O79 O 0.60288 0.58796 0.47139 0.0
O80 O 0.6057 0.58808 0.56275 0.0
O81 O 0.52475 0.4248 0.3745 0.0
C82 C 0.40175 0.60508 0.50981 0.0
O83 O 0.47947 0.57215 0.38328 0.0
C84 C 0.49108 0.41378 0.63849 0.0
O85 O 0.44113 0.46814 0.38256 0.0
C86 C 0.60204 0.3938 0.50709 0.0
O87 O 0.59281 0.51548 0.38941 0.0
C88 C 0.41252 0.51318 0.64462 0.0
O89 O 0.48242 0.59523 0.63919 0.0
O90 O 0.52629 0.56852 0.60526 0.0
C91 C 0.40006 0.39813 0.51395 0.0
O92 O 0.52278 0.40831 0.63598 0.0
O93 O 0.47885 0.43727 0.60964 0.0
C94 C 0.58343 0.49087 0.64509 0.0
O95 O 0.4078 0.48126 0.64374 0.0
O96 O 0.43526 0.52509 0.61393 0.0
C97 C 0.61414 0.6003 0.51661 0.0
O98 O 0.59001 0.52244 0.64642 0.0
O99 O 0.56792 0.47829 0.6038 0.0
C100 C 0.51986 0.4458 0.3366 0.0
O101 O 0.53054 0.47717 0.34331 0.0
C102 C 0.48261 0.60416 0.38244 0.0
O103 O 0.47173 0.62232 0.42456 0.0
H104 H 0.41103 0.356 0.9662 0.0
H105 H 0.37271 0.29756 0.09913 0.0
H106 H 0.35393 0.26494 0.93294 0.0
C107 C 0.39602 0.33521 0.98116 0.0
C108 C 0.38163 0.31209 0.94303 0.0
C109 C 0.39329 0.33047 0.03781 0.0
C110 C 0.37562 0.3019 0.0558 0.0
C111 C 0.36124 0.27843 0.01862 0.0
C112 C 0.36417 0.2835 0.96195 0.0
N113 N 0.34635 0.2489 0.04027 0.0
C114 C 0.31937 0.23097 0.01709 0.0
H115 H 0.67052 0.42272 0.02348 0.0
H116 H 0.71321 0.33153 0.08973 0.0
H117 H 0.69001 0.33632 0.91866 0.0
C118 C 0.68049 0.39727 0.0182 0.0
C119 C 0.67942 0.38189 0.96595 0.0
C120 C 0.6923 0.37943 0.06374 0.0
C121 C 0.70536 0.3465 0.05528 0.0
C122 C 0.70525 0.33135 0.00276 0.0
C123 C 0.69216 0.34902 0.95837 0.0
N124 N 0.71199 0.29636 0.99604 0.0
C125 C 0.74448 0.28307 0.99722 0.0
H126 H 0.57576 0.66017 0.99665 0.0
H127 H 0.65024 0.7335 0.94689 0.0
H128 H 0.61784 0.7313 0.11402 0.0
C129 C 0.5939 0.68003 0.00672 0.0
C130 C 0.59535 0.69336 0.06039 0.0
C131 C 0.61338 0.69462 0.96512 0.0
C132 C 0.63562 0.72165 0.97865 0.0
C133 C 0.63737 0.73453 0.03276 0.0
C134 C 0.61714 0.72044 0.07281 0.0
N135 N 0.65669 0.76351 0.04813 0.0
C136 C 0.68576 0.77443 0.02232 0.0
H137 H 0.34998 0.58238 0.98419 0.0
H138 H 0.25374 0.62925 0.94982 0.0
H139 H 0.27905 0.6022 0.11397 0.0
C140 C 0.32617 0.59309 0.99812 0.0
C141 C 0.31785 0.59167 0.05382 0.0
C142 C 0.30325 0.60647 0.95997 0.0
C143 C 0.27201 0.61931 0.97858 0.0
C144 C 0.26366 0.61802 0.03422 0.0
C145 C 0.28641 0.60415 0.07146 0.0
N146 N 0.23124 0.62797 0.05256 0.0
C147 C 0.22243 0.66188 0.05695 0.0
H148 H 0.91837 0.84656 0.48137 0.0
H149 H 0.89153 0.77272 0.60014 0.0
H150 H 0.86186 0.75709 0.43241 0.0
C151 C 0.90528 0.82341 0.49146 0.0
C152 C 0.88973 0.80358 0.44969 0.0
C153 C 0.90574 0.81284 0.54597 0.0
C154 C 0.89127 0.78152 0.55843 0.0
C155 C 0.87522 0.7617 0.51789 0.0
C156 C 0.87405 0.77284 0.46365 0.0
N157 N 0.86189 0.72988 0.53247 0.0
C158 C 0.82958 0.71922 0.51766 0.0
H159 H 0.14539 0.90515 0.48757 0.0
H160 H 0.21539 0.87793 0.61476 0.0
H161 H 0.23502 0.84744 0.44837 0.0
C162 C 0.16819 0.8923 0.50054 0.0
C163 C 0.18913 0.8766 0.46093 0.0
C164 C 0.17704 0.89278 0.55639 0.0
C165 C 0.20726 0.87693 0.57231 0.0
C166 C 0.22763 0.85985 0.53403 0.0
C167 C 0.2186 0.85967 0.47824 0.0
N168 N 0.25802 0.84484 0.55292 0.0
C169 C 0.27202 0.8154 0.53051 0.0
H170 H 0.07271 0.18417 0.53738 0.0
H171 H 0.12767 0.25962 0.44975 0.0
H172 H 0.12457 0.26523 0.62484 0.0
C173 C 0.08951 0.20594 0.53794 0.0
C174 C 0.0979 0.22238 0.58784 0.0
C175 C 0.10051 0.21908 0.48818 0.0
C176 C 0.12042 0.24849 0.48814 0.0
C177 C 0.12877 0.26502 0.53769 0.0
C178 C 0.11777 0.25192 0.58706 0.0
N179 N 0.14527 0.29672 0.53833 0.0
C180 C 0.17852 0.29979 0.52168 0.0
H181 H 0.85019 0.10152 0.4823 0.0
H182 H 0.77074 0.11771 0.6009 0.0
H183 H 0.75439 0.14182 0.43244 0.0
C184 C 0.8249 0.10976 0.49324 0.0
C185 C 0.80341 0.12082 0.45155 0.0
C186 C 0.81373 0.10826 0.54772 0.0
C187 C 0.78069 0.11938 0.55983 0.0
C188 C 0.75989 0.13278 0.51905 0.0
C189 C 0.77115 0.13326 0.46458 0.0
N190 N 0.72717 0.14433 0.53348 0.0
C191 C 0.71539 0.17579 0.51791 0.0
H192 H 0.16865 0.10645 0.08768 0.0
H193 H 0.12734 0.12586 0.92621 0.0
H194 H 0.17613 0.16252 0.90686 0.0
H195 H 0.20145 0.19009 0.11481 0.0
H196 H 0.23903 0.17536 0.1491 0.0
H197 H 0.20082 0.15044 0.15008 0.0
H198 H 0.23355 0.09887 0.10949 0.0
H199 H 0.27183 0.12371 0.10796 0.0
H200 H 0.25626 0.10311 0.04618 0.0
H201 H 0.22941 0.19776 0.9049 0.0
H202 H 0.28262 0.23004 0.92267 0.0
H203 H 0.28937 0.18729 0.0841 0.0
C204 C 0.16973 0.11856 0.04839 0.0
C205 C 0.14402 0.11324 0.0086 0.0
C206 C 0.14665 0.12943 0.95748 0.0
C207 C 0.17434 0.15031 0.94596 0.0
C208 C 0.19938 0.15474 0.9858 0.0
C209 C 0.19733 0.13939 0.03603 0.0
C210 C 0.22766 0.14841 0.07174 0.0
C211 C 0.21657 0.1672 0.12455 0.0
C212 C 0.24855 0.11663 0.08458 0.0
C213 C 0.24673 0.17164 0.03409 0.0
C214 C 0.23014 0.17481 0.98452 0.0
C215 C 0.2427 0.1954 0.94348 0.0
C216 C 0.27283 0.21354 0.95373 0.0
C217 C 0.28976 0.21079 0.00443 0.0
C218 C 0.27676 0.18947 0.04482 0.0
H219 H 0.87661 0.14192 0.07939 0.0
H220 H 0.9035 0.13626 0.90716 0.0
H221 H 0.86704 0.18546 0.88954 0.0
H222 H 0.78973 0.16169 0.05739 0.0
H223 H 0.78655 0.18988 0.11628 0.0
H224 H 0.81683 0.15579 0.11606 0.0
H225 H 0.86485 0.19899 0.13696 0.0
H226 H 0.83478 0.23336 0.13639 0.0
H227 H 0.87112 0.23406 0.09206 0.0
H228 H 0.82725 0.23428 0.88954 0.0
H229 H 0.78025 0.27484 0.90509 0.0
H230 H 0.77709 0.24807 0.07598 0.0
C231 C 0.87486 0.1511 0.03802 0.0
C232 C 0.89298 0.13527 0.99471 0.0
C233 C 0.88975 0.14782 0.94101 0.0
C234 C 0.86938 0.17601 0.93063 0.0
C235 C 0.8522 0.19129 0.97427 0.0
C236 C 0.85426 0.17902 0.02674 0.0
C237 C 0.83114 0.19862 0.0654 0.0
C238 C 0.80448 0.17509 0.09021 0.0
C239 C 0.85171 0.21737 0.11035 0.0
C240 C 0.81521 0.22329 0.02612 0.0
C241 C 0.82837 0.21908 0.97403 0.0
C242 C 0.81688 0.23799 0.93016 0.0
C243 C 0.79037 0.261 0.93932 0.0
C244 C 0.77569 0.26455 0.99166 0.0
C245 C 0.78856 0.24606 0.03584 0.0
H246 H 0.84957 0.88472 0.08084 0.0
H247 H 0.87199 0.87604 0.90718 0.0
H248 H 0.82268 0.83836 0.89362 0.0
H249 H 0.8194 0.79779 0.09716 0.0
H250 H 0.78664 0.81068 0.14437 0.0
H251 H 0.82531 0.8348 0.14088 0.0
H252 H 0.7905 0.88909 0.12258 0.0
H253 H 0.75176 0.86515 0.12552 0.0
H254 H 0.76113 0.88939 0.0658 0.0
H255 H 0.76838 0.80456 0.89778 0.0
H256 H 0.71419 0.77617 0.92108 0.0
H257 H 0.72773 0.80732 0.09096 0.0
C258 C 0.84454 0.87441 0.04013 0.0
C259 C 0.86478 0.88328 0.99518 0.0
C260 C 0.85693 0.86959 0.94238 0.0
C261 C 0.82895 0.84813 0.93418 0.0
C262 C 0.80909 0.84051 0.97917 0.0
C263 C 0.81665 0.85308 0.03115 0.0
C264 C 0.79041 0.84234 0.07218 0.0
C265 C 0.8064 0.82007 0.11624 0.0
C266 C 0.77239 0.87334 0.09801 0.0
C267 C 0.76679 0.82203 0.03508 0.0
C268 C 0.77796 0.82115 0.98154 0.0
C269 C 0.75956 0.80476 0.93965 0.0
C270 C 0.72895 0.78879 0.95305 0.0
C271 C 0.71744 0.78958 0.00762 0.0
C272 C 0.73649 0.80626 0.04897 0.0
H273 H 0.12786 0.82887 0.97502 0.0
H274 H 0.13775 0.8635 0.14444 0.0
H275 H 0.17434 0.81413 0.16324 0.0
H276 H 0.11781 0.7443 0.00341 0.0
H277 H 0.14046 0.72836 0.94433 0.0
H278 H 0.11973 0.76888 0.94219 0.0
H279 H 0.17624 0.79758 0.91602 0.0
H280 H 0.1972 0.75703 0.91749 0.0
H281 H 0.21318 0.7921 0.95863 0.0
H282 H 0.20484 0.75786 0.16526 0.0
H283 H 0.22642 0.69929 0.15037 0.0
H284 H 0.1947 0.70161 0.98054 0.0
C285 C 0.13842 0.82671 0.0158 0.0
C286 C 0.13018 0.8502 0.05817 0.0
C287 C 0.14389 0.84589 0.11127 0.0
C288 C 0.16473 0.81798 0.12227 0.0
C289 C 0.1715 0.79476 0.07976 0.0
C290 C 0.1588 0.79895 0.02754 0.0
C291 C 0.16689 0.76895 0.99021 0.0
C292 C 0.13429 0.75161 0.96882 0.0
C293 C 0.18975 0.77956 0.94279 0.0
C294 C 0.1857 0.74681 0.02976 0.0
C295 C 0.18845 0.76223 0.08109 0.0
C296 C 0.20325 0.74578 0.1251 0.0
C297 C 0.21534 0.71265 0.11639 0.0
C298 C 0.21227 0.69661 0.06435 0.0
C299 C 0.19761 0.71384 0.02048 0.0
H300 H 0.66613 0.61279 0.58912 0.0
H301 H 0.62276 0.64592 0.4358 0.0
H302 H 0.67231 0.68277 0.42166 0.0
H303 H 0.70801 0.69414 0.62944 0.0
H304 H 0.7445 0.67272 0.65673 0.0
H305 H 0.70346 0.65274 0.65833 0.0
H306 H 0.72806 0.60024 0.60677 0.0
H307 H 0.76898 0.62024 0.60408 0.0
H308 H 0.74855 0.6056 0.54173 0.0
H309 H 0.72902 0.7115 0.41932 0.0
H310 H 0.78811 0.73209 0.43198 0.0
H311 H 0.79493 0.67933 0.58519 0.0
C312 C 0.66655 0.62869 0.55357 0.0
C313 C 0.64047 0.62681 0.51386 0.0
C314 C 0.64241 0.64717 0.46692 0.0
C315 C 0.67046 0.66815 0.45848 0.0
C316 C 0.69638 0.66846 0.49732 0.0
C317 C 0.69459 0.64951 0.5442 0.0
C318 C 0.72702 0.65237 0.57735 0.0
C319 C 0.72034 0.66899 0.6338 0.0
C320 C 0.74415 0.61754 0.58276 0.0
C321 C 0.74745 0.67544 0.54142 0.0
C322 C 0.72929 0.6846 0.49555 0.0
C323 C 0.74337 0.70483 0.45537 0.0
C324 C 0.77682 0.71627 0.46265 0.0
C325 C 0.79551 0.70718 0.50943 0.0
C326 C 0.78078 0.68659 0.54918 0.0
H327 H 0.37682 0.64889 0.58907 0.0
H328 H 0.37079 0.62465 0.41486 0.0
H329 H 0.33546 0.67525 0.40124 0.0
H330 H 0.29045 0.6825 0.60287 0.0
H331 H 0.30344 0.71514 0.65142 0.0
H332 H 0.32602 0.67547 0.64781 0.0
H333 H 0.38207 0.708 0.63267 0.0
H334 H 0.35971 0.74775 0.63551 0.0
H335 H 0.38513 0.73678 0.57663 0.0
H336 H 0.30406 0.73112 0.40543 0.0
H337 H 0.27656 0.78622 0.42901 0.0
H338 H 0.30323 0.77358 0.59953 0.0
C339 C 0.36751 0.65376 0.54821 0.0
C340 C 0.37654 0.63258 0.50318 0.0
C341 C 0.36412 0.64027 0.45023 0.0
C342 C 0.34408 0.66907 0.44195 0.0
C343 C 0.33644 0.68988 0.48701 0.0
C344 C 0.34748 0.68239 0.53919 0.0
C345 C 0.33677 0.70949 0.58041 0.0
C346 C 0.31273 0.69477 0.62314 0.0
C347 C 0.36777 0.72651 0.6079 0.0
C348 C 0.3184 0.73362 0.54319 0.0
C349 C 0.31839 0.72188 0.48942 0.0
C350 C 0.30361 0.74039 0.44747 0.0
C351 C 0.28818 0.77156 0.46103 0.0
C352 C 0.28788 0.78362 0.51586 0.0
C353 C 0.30314 0.76455 0.55729 0.0
H354 H 0.35931 0.37077 0.59212 0.0
H355 H 0.37896 0.36853 0.41725 0.0
H356 H 0.32671 0.33577 0.40131 0.0
H357 H 0.31735 0.28409 0.59517 0.0
H358 H 0.28772 0.29884 0.64629 0.0
H359 H 0.33 0.31613 0.64502 0.0
H360 H 0.30496 0.37659 0.63977 0.0
H361 H 0.26271 0.35968 0.64013 0.0
H362 H 0.27587 0.38633 0.58515 0.0
H363 H 0.26774 0.31323 0.40227 0.0
H364 H 0.20794 0.29857 0.42199 0.0
H365 H 0.22703 0.31435 0.59541 0.0
C366 C 0.35328 0.36236 0.55068 0.0
C367 C 0.37325 0.37228 0.50605 0.0
C368 C 0.36421 0.36113 0.45229 0.0
C369 C 0.33453 0.34246 0.44271 0.0
C370 C 0.31452 0.33453 0.48735 0.0
C371 C 0.32383 0.34351 0.54042 0.0
C372 C 0.2964 0.33462 0.58066 0.0
C373 C 0.3086 0.30676 0.61905 0.0
C374 C 0.28428 0.36619 0.61329 0.0
C375 C 0.26939 0.32137 0.54156 0.0
C376 C 0.28053 0.32091 0.48796 0.0
C377 C 0.25901 0.31252 0.44415 0.0
C378 C 0.22521 0.3044 0.45553 0.0
C379 C 0.21363 0.30503 0.51004 0.0
C380 C 0.23589 0.31317 0.5535 0.0
H381 H 0.6175 0.34655 0.5837 0.0
H382 H 0.64323 0.37847 0.42012 0.0
H383 H 0.67808 0.32706 0.40689 0.0
H384 H 0.69979 0.30562 0.61587 0.0
H385 H 0.67931 0.272 0.65193 0.0
H386 H 0.66044 0.31358 0.65098 0.0
H387 H 0.60489 0.28706 0.61248 0.0
H388 H 0.62373 0.24555 0.61226 0.0
H389 H 0.60609 0.26187 0.54998 0.0
H390 H 0.70498 0.26923 0.40762 0.0
H391 H 0.72451 0.21057 0.42503 0.0
H392 H 0.6804 0.21639 0.58693 0.0
C393 C 0.6313 0.34331 0.54574 0.0
C394 C 0.62777 0.36663 0.50307 0.0
C395 C 0.64564 0.361 0.45349 0.0
C396 C 0.66549 0.33185 0.44554 0.0
C397 C 0.66729 0.30867 0.48761 0.0
C398 C 0.651 0.31426 0.53699 0.0
C399 C 0.65499 0.28432 0.57412 0.0
C400 C 0.67482 0.29449 0.62631 0.0
C401 C 0.62037 0.2688 0.58799 0.0
C402 C 0.67542 0.26071 0.53747 0.0
C403 C 0.68248 0.27528 0.48785 0.0
C404 C 0.69996 0.25772 0.44655 0.0
C405 C 0.71077 0.22452 0.45654 0.0
C406 C 0.70376 0.2095 0.50709 0.0
C407 C 0.68599 0.22768 0.54798 0.0
H408 H 0.07597 0.09445 0.22743 0.0
H409 H 0.97831 0.14367 0.20685 0.0
H410 H 0.99151 0.18295 0.28297 0.0
H411 H 0.07598 0.09848 0.37353 0.0
H412 H 0.12067 0.10702 0.38074 0.0
H413 H 0.10508 0.08366 0.32161 0.0
H414 H 0.13332 0.12702 0.25811 0.0
H415 H 0.14894 0.15057 0.31713 0.0
H416 H 0.12352 0.17146 0.26653 0.0
H417 H 0.01301 0.21572 0.36162 0.0
H418 H 0.0418 0.23916 0.44418 0.0
H419 H 0.12527 0.16936 0.41836 0.0
C420 C 0.05757 0.11368 0.23878 0.0
C421 C 0.02614 0.11593 0.211 0.0
C422 C 0.00253 0.14125 0.22743 0.0
C423 C 0.00981 0.1639 0.27053 0.0
C424 C 0.04078 0.16099 0.29717 0.0
C425 C 0.06431 0.13654 0.28243 0.0
C426 C 0.09491 0.13826 0.32034 0.0
C427 C 0.09941 0.10487 0.35086 0.0
C428 C 0.12708 0.14737 0.28863 0.0
C429 C 0.0844 0.16703 0.359 0.0
C430 C 0.05323 0.17995 0.34411 0.0
C431 C 0.03752 0.20605 0.37367 0.0
C432 C 0.05394 0.21917 0.42028 0.0
C433 C 0.08553 0.20604 0.4368 0.0
C434 C 0.10117 0.17983 0.40581 0.0
H435 H 0.87213 0.99904 0.21826 0.0
H436 H 0.92252 0.08606 0.15041 0.0
H437 H 0.89288 0.12378 0.21566 0.0
H438 H 0.79096 0.04091 0.24622 0.0
H439 H 0.78492 0.01888 0.30926 0.0
H440 H 0.80821 0.99897 0.254 0.0
H441 H 0.85954 0.99034 0.31872 0.0
H442 H 0.83639 0.00979 0.37418 0.0
H443 H 0.87725 0.02629 0.35562 0.0
H444 H 0.86093 0.15163 0.29434 0.0
H445 H 0.83178 0.16602 0.38177 0.0
H446 H 0.80162 0.06116 0.39626 0.0
C447 C 0.87675 0.02607 0.21657 0.0
C448 C 0.89985 0.0395 0.17869 0.0
C449 C 0.90519 0.075 0.17861 0.0
C450 C 0.8882 0.09674 0.21554 0.0
C451 C 0.86565 0.08262 0.25228 0.0
C452 C 0.85996 0.04805 0.25308 0.0
C453 C 0.83614 0.03891 0.29874 0.0
C454 C 0.80309 0.02351 0.27566 0.0
C455 C 0.85338 0.01494 0.33921 0.0
C456 C 0.83008 0.07359 0.32451 0.0
C457 C 0.84693 0.09864 0.29681 0.0
C458 C 0.84709 0.13234 0.31573 0.0
C459 C 0.83039 0.14038 0.36507 0.0
C460 C 0.81396 0.11477 0.39445 0.0
C461 C 0.81323 0.08124 0.37333 0.0
H462 H 0.9447 0.93356 0.22592 0.0
H463 H 0.97235 0.84619 0.12555 0.0
H464 H 0.94009 0.80891 0.18627 0.0
H465 H 0.95867 0.89735 0.34689 0.0
H466 H 0.9242 0.91645 0.38458 0.0
H467 H 0.94134 0.93745 0.32644 0.0
H468 H 0.88208 0.93856 0.27928 0.0
H469 H 0.8648 0.91928 0.33938 0.0
H470 H 0.85793 0.89994 0.27263 0.0
H471 H 0.91553 0.78038 0.26619 0.0
H472 H 0.90069 0.76266 0.35896 0.0
H473 H 0.88737 0.86818 0.40881 0.0
C474 C 0.94246 0.90679 0.2156 0.0
C475 C 0.96014 0.89261 0.17068 0.0
C476 C 0.95826 0.85737 0.15937 0.0
C477 C 0.93999 0.83608 0.19356 0.0
C478 C 0.92383 0.85048 0.23903 0.0
C479 C 0.92459 0.88509 0.24991 0.0
C480 C 0.9093 0.89347 0.30538 0.0
C481 C 0.93492 0.91227 0.343 0.0
C482 C 0.87656 0.91403 0.29882 0.0
C483 C 0.90189 0.85812 0.32534 0.0
C484 C 0.90969 0.83374 0.28593 0.0
C485 C 0.90841 0.79923 0.29689 0.0
C486 C 0.89977 0.78937 0.34985 0.0
C487 C 0.89271 0.81393 0.39151 0.0
C488 C 0.89271 0.84869 0.37814 0.0
H489 H 0.06896 0.93651 0.22278 0.0
H490 H 0.15926 0.97627 0.14757 0.0
H491 H 0.19495 0.94261 0.20958 0.0
H492 H 0.09796 0.9462 0.35333 0.0
H493 H 0.07857 0.90885 0.3806 0.0
H494 H 0.06017 0.92862 0.322 0.0
H495 H 0.06398 0.87197 0.26668 0.0
H496 H 0.08239 0.85181 0.32531 0.0
H497 H 0.10415 0.85052 0.26058 0.0
H498 H 0.22052 0.91277 0.28816 0.0
H499 H 0.23398 0.89281 0.3806 0.0
H500 H 0.12729 0.87349 0.40824 0.0
C501 C 0.09623 0.93695 0.2182 0.0
C502 C 0.11155 0.95832 0.18004 0.0
C503 C 0.14724 0.95963 0.17633 0.0
C504 C 0.16764 0.94047 0.21113 0.0
C505 C 0.15191 0.92042 0.24983 0.0
C506 C 0.11697 0.91858 0.25368 0.0
C507 C 0.10651 0.89969 0.30424 0.0
C508 C 0.08453 0.92219 0.34226 0.0
C509 C 0.08817 0.86652 0.28823 0.0
C510 C 0.1409 0.89272 0.32957 0.0
C511 C 0.16677 0.904 0.29672 0.0
C512 C 0.20054 0.90316 0.31371 0.0
C513 C 0.20798 0.8916 0.36632 0.0
C514 C 0.18174 0.88144 0.40174 0.0
C515 C 0.14793 0.88098 0.38211 0.0
H516 H 0.10491 0.9336 0.8552 0.0
H517 H 0.05962 0.02439 0.78926 0.0
H518 H 0.07745 0.00637 0.69649 0.0
H519 H 0.17679 0.93238 0.77488 0.0
H520 H 0.17858 0.88703 0.76454 0.0
H521 H 0.15892 0.90476 0.82497 0.0
H522 H 0.10337 0.87226 0.80215 0.0
H523 H 0.12294 0.85392 0.7419 0.0
H524 H 0.08367 0.87691 0.73602 0.0
H525 H 0.10693 0.9826 0.61354 0.0
H526 H 0.1415 0.95231 0.54463 0.0
H527 H 0.16451 0.87489 0.66299 0.0
C528 C 0.09815 0.94937 0.82112 0.0
C529 C 0.08103 0.98048 0.82955 0.0
C530 C 0.07269 0.00042 0.78386 0.0
C531 C 0.08273 0.99041 0.73095 0.0
C532 C 0.10057 0.96014 0.72431 0.0
C533 C 0.10768 0.9396 0.76797 0.0
C534 C 0.12843 0.90905 0.75008 0.0
C535 C 0.1627 0.90829 0.78042 0.0
C536 C 0.1084 0.87608 0.75799 0.0
C537 C 0.13296 0.91631 0.68994 0.0
C538 C 0.1166 0.94582 0.67588 0.0
C539 C 0.11913 0.95897 0.62364 0.0
C540 C 0.13875 0.94141 0.58462 0.0
C541 C 0.1555 0.91081 0.59778 0.0
C542 C 0.15222 0.89817 0.6513 0.0
H543 H 0.03437 0.0887 0.80725 0.0
H544 H 0.01123 0.17571 0.91291 0.0
H545 H 0.03253 0.2139 0.84296 0.0
H546 H 0.11251 0.1235 0.75231 0.0
H547 H 0.10551 0.10562 0.6846 0.0
H548 H 0.08896 0.08456 0.74342 0.0
H549 H 0.02884 0.086 0.70094 0.0
H550 H 0.04499 0.10729 0.64208 0.0
H551 H 0.01092 0.12598 0.68124 0.0
H552 H 0.05214 0.24283 0.76111 0.0
H553 H 0.07412 0.26157 0.67304 0.0
H554 H 0.0886 0.15646 0.62084 0.0
C555 C 0.03405 0.11577 0.81571 0.0
C556 C 0.0211 0.12926 0.86543 0.0
C557 C 0.02114 0.16479 0.87519 0.0
C558 C 0.03307 0.18675 0.83566 0.0
C559 C 0.04522 0.17276 0.78688 0.0
C560 C 0.04627 0.13817 0.77681 0.0
C561 C 0.06086 0.13007 0.72073 0.0
C562 C 0.09393 0.10974 0.72558 0.0
C563 C 0.03484 0.11123 0.6841 0.0
C564 C 0.0674 0.16562 0.70086 0.0
C565 C 0.05797 0.18973 0.73973 0.0
C566 C 0.06029 0.22428 0.73061 0.0
C567 C 0.07309 0.23465 0.68052 0.0
C568 C 0.08386 0.21055 0.64032 0.0
C569 C 0.08069 0.17553 0.65069 0.0
H570 H 0.87502 0.06791 0.85214 0.0
H571 H 0.94332 0.9943 0.77774 0.0
H572 H 0.92799 0.01411 0.68656 0.0
H573 H 0.81023 0.0588 0.75719 0.0
H574 H 0.79847 0.1029 0.75502 0.0
H575 H 0.81793 0.08651 0.8157 0.0
H576 H 0.86526 0.13172 0.81133 0.0
H577 H 0.84575 0.14869 0.75098 0.0
H578 H 0.8895 0.13565 0.74946 0.0
H579 H 0.8985 0.03394 0.60482 0.0
H580 H 0.86158 0.05789 0.53512 0.0
H581 H 0.81557 0.12378 0.65938 0.0
C582 C 0.88731 0.05652 0.81671 0.0
C583 C 0.91033 0.0293 0.82211 0.0
C584 C 0.92568 0.01501 0.77473 0.0
C585 C 0.91712 0.02616 0.72264 0.0
C586 C 0.89347 0.05206 0.71853 0.0
C587 C 0.87919 0.06761 0.76412 0.0
C588 C 0.85302 0.09367 0.74758 0.0
C589 C 0.81784 0.08492 0.77022 0.0
C590 C 0.86406 0.12956 0.76591 0.0
C591 C 0.85402 0.08922 0.68573 0.0
C592 C 0.87756 0.06506 0.67014 0.0
C593 C 0.88085 0.05386 0.61609 0.0
C594 C 0.85977 0.06797 0.57656 0.0
C595 C 0.83601 0.09368 0.5908 0.0
C596 C 0.83337 0.10439 0.64647 0.0
H597 H 0.01084 0.85358 0.82043 0.0
H598 H 0.98796 0.95973 0.79727 0.0
H599 H 0.95653 0.94477 0.71206 0.0
H600 H 0.0239 0.83251 0.67673 0.0
H601 H 0.00527 0.79094 0.68135 0.0
H602 H 0.02595 0.81018 0.74021 0.0
H603 H 0.97131 0.80255 0.79704 0.0
H604 H 0.95039 0.78343 0.73835 0.0
H605 H 0.93194 0.81989 0.77257 0.0
H606 H 0.92609 0.91809 0.63187 0.0
H607 H 0.90066 0.88174 0.55904 0.0
H608 H 0.94561 0.79306 0.63246 0.0
C609 C 0.99935 0.87369 0.79727 0.0
C610 C 0.00111 0.90784 0.81577 0.0
C611 C 0.98596 0.93341 0.78429 0.0
C612 C 0.96833 0.92516 0.73583 0.0
C613 C 0.96641 0.89119 0.7193 0.0
C614 C 0.98173 0.86588 0.74875 0.0
C615 C 0.97599 0.83138 0.72178 0.0
C616 C 0.00979 0.81531 0.70395 0.0
C617 C 0.95623 0.80794 0.7597 0.0
C618 C 0.95479 0.84126 0.67284 0.0
C619 C 0.94955 0.87587 0.67221 0.0
C620 C 0.93029 0.89097 0.63156 0.0
C621 C 0.91612 0.87014 0.59022 0.0
C622 C 0.92131 0.83458 0.58976 0.0
C623 C 0.94094 0.8201 0.6318 0.0
H624 H 0.5533 0.56866 0.72399 0.0
H625 H 0.52187 0.65824 0.6381 0.0
H626 H 0.55189 0.69453 0.70655 0.0
H627 H 0.53751 0.60132 0.85307 0.0
H628 H 0.57272 0.58165 0.88726 0.0
H629 H 0.55517 0.56226 0.8261 0.0
H630 H 0.61413 0.56296 0.7803 0.0
H631 H 0.63207 0.58221 0.84156 0.0
H632 H 0.63714 0.60232 0.7766 0.0
H633 H 0.57976 0.72116 0.78822 0.0
H634 H 0.59961 0.73682 0.88134 0.0
H635 H 0.61003 0.63037 0.91874 0.0
C636 C 0.55392 0.59585 0.71882 0.0
C637 C 0.53618 0.61087 0.67536 0.0
C638 C 0.53599 0.64649 0.67075 0.0
C639 C 0.55301 0.66721 0.70929 0.0
C640 C 0.56976 0.65184 0.75253 0.0
C641 C 0.57027 0.61697 0.75774 0.0
C642 C 0.58631 0.60725 0.81174 0.0
C643 C 0.56143 0.58694 0.84658 0.0
C644 C 0.61938 0.58752 0.80195 0.0
C645 C 0.59333 0.64208 0.837 0.0
C646 C 0.58451 0.66737 0.80139 0.0
C647 C 0.58724 0.7016 0.81617 0.0
C648 C 0.59868 0.71026 0.86908 0.0
C649 C 0.60666 0.68482 0.90701 0.0
C650 C 0.60437 0.6503 0.89035 0.0
H651 H 0.42866 0.56349 0.71908 0.0
H652 H 0.3443 0.50993 0.64309 0.0
H653 H 0.30467 0.53932 0.70585 0.0
H654 H 0.40309 0.55229 0.84859 0.0
H655 H 0.41661 0.59264 0.8772 0.0
H656 H 0.43723 0.57526 0.81755 0.0
H657 H 0.42378 0.62985 0.76464 0.0
H658 H 0.4031 0.64759 0.82441 0.0
H659 H 0.38065 0.64453 0.76003 0.0
H660 H 0.27583 0.56572 0.78518 0.0
H661 H 0.26046 0.58362 0.87905 0.0
H662 H 0.36324 0.61897 0.9077 0.0
C663 C 0.40168 0.55924 0.71442 0.0
C664 C 0.38923 0.53512 0.6759 0.0
C665 C 0.35405 0.52877 0.67209 0.0
C666 C 0.33139 0.54548 0.7073 0.0
C667 C 0.34438 0.5683 0.74641 0.0
C668 C 0.37873 0.57523 0.75029 0.0
C669 C 0.38668 0.59618 0.80157 0.0
C670 C 0.41239 0.57798 0.83838 0.0
C671 C 0.39929 0.63165 0.78677 0.0
C672 C 0.35189 0.59796 0.82752 0.0
C673 C 0.32767 0.58278 0.79407 0.0
C674 C 0.29435 0.57842 0.81124 0.0
C675 C 0.2858 0.5888 0.86465 0.0
C676 C 0.31061 0.60286 0.90057 0.0
C677 C 0.34373 0.6085 0.88095 0.0
H678 H 0.43645 0.43 0.70335 0.0
H679 H 0.4986 0.3459 0.64686 0.0
H680 H 0.46771 0.30745 0.70727 0.0
H681 H 0.43915 0.41027 0.83809 0.0
H682 H 0.39643 0.42262 0.85494 0.0
H683 H 0.41755 0.44176 0.7985 0.0
H684 H 0.36846 0.42319 0.73364 0.0
H685 H 0.3471 0.40377 0.79002 0.0
H686 H 0.35639 0.37914 0.72885 0.0
H687 H 0.43616 0.27982 0.78205 0.0
H688 H 0.41085 0.26688 0.87156 0.0
H689 H 0.37078 0.36897 0.88357 0.0
C690 C 0.44256 0.40325 0.70237 0.0
C691 C 0.46946 0.39073 0.66993 0.0
C692 C 0.47785 0.35587 0.6712 0.0
C693 C 0.46026 0.33379 0.70506 0.0
C694 C 0.4344 0.34694 0.73776 0.0
C695 C 0.4256 0.38092 0.7369 0.0
C696 C 0.40044 0.38956 0.78179 0.0
C697 C 0.41424 0.41769 0.82061 0.0
C698 C 0.36606 0.3995 0.7571 0.0
C699 C 0.39816 0.35575 0.80999 0.0
C700 C 0.41695 0.33117 0.78271 0.0
C701 C 0.42082 0.29864 0.80322 0.0
C702 C 0.40623 0.29141 0.85395 0.0
C703 C 0.38863 0.31682 0.88404 0.0
C704 C 0.38367 0.34898 0.86082 0.0
H705 H 0.64377 0.46216 0.67308 0.0
H706 H 0.53983 0.47581 0.72516 0.0
H707 H 0.55322 0.44851 0.81293 0.0
H708 H 0.65568 0.3785 0.73614 0.0
H709 H 0.69913 0.38728 0.75467 0.0
H710 H 0.68078 0.40625 0.69501 0.0
H711 H 0.69733 0.46576 0.73356 0.0
H712 H 0.71527 0.44708 0.79371 0.0
H713 H 0.68285 0.47905 0.80056 0.0
H714 H 0.57887 0.42534 0.89714 0.0
H715 H 0.61374 0.40083 0.97051 0.0
H716 H 0.70074 0.39854 0.86279 0.0
C717 C 0.62384 0.45864 0.70273 0.0
C718 C 0.59077 0.47058 0.69296 0.0
C719 C 0.56519 0.4663 0.73233 0.0
C720 C 0.5726 0.45102 0.78213 0.0
C721 C 0.60563 0.43994 0.79125 0.0
C722 C 0.63073 0.44292 0.75238 0.0
C723 C 0.66418 0.42908 0.77296 0.0
C724 C 0.67561 0.39845 0.7376 0.0
C725 C 0.69151 0.45691 0.77534 0.0
C726 C 0.65407 0.41849 0.82985 0.0
C727 C 0.62023 0.42529 0.83954 0.0
C728 C 0.60526 0.41943 0.88988 0.0
C729 C 0.62526 0.40577 0.93131 0.0
C730 C 0.65973 0.39783 0.92196 0.0
C731 C 0.67433 0.4042 0.87058 0.0
H732 H 0.5949 0.48543 0.29537 0.0
H733 H 0.67173 0.45388 0.41137 0.0
H734 H 0.70005 0.42062 0.33785 0.0
H735 H 0.58994 0.40494 0.22046 0.0
H736 H 0.58318 0.42485 0.15561 0.0
H737 H 0.56902 0.44546 0.21788 0.0
H738 H 0.60345 0.49895 0.19433 0.0
H739 H 0.61821 0.47853 0.13226 0.0
H740 H 0.64827 0.49526 0.1817 0.0
H741 H 0.72212 0.39415 0.24923 0.0
H742 H 0.73307 0.37242 0.1552 0.0
H743 H 0.63896 0.4182 0.10079 0.0
C744 C 0.61756 0.47138 0.3055 0.0
C745 C 0.63129 0.47248 0.35894 0.0
C746 C 0.66085 0.45353 0.37056 0.0
C747 C 0.67715 0.43461 0.32909 0.0
C748 C 0.66328 0.43462 0.27651 0.0
C749 C 0.63384 0.4521 0.26491 0.0
C750 C 0.62385 0.44782 0.20537 0.0
C751 C 0.58947 0.42966 0.1995 0.0
C752 C 0.62344 0.48218 0.17675 0.0
C753 C 0.65259 0.42565 0.185 0.0
C754 C 0.67521 0.41843 0.2264 0.0
C755 C 0.70434 0.39928 0.21659 0.0
C756 C 0.71028 0.38695 0.16306 0.0
C757 C 0.68705 0.39362 0.12014 0.0
C758 C 0.65779 0.41315 0.13189 0.0
H759 H 0.52436 0.57878 0.30068 0.0
H760 H 0.46882 0.66853 0.35414 0.0
H761 H 0.48807 0.69849 0.27291 0.0
H762 H 0.59659 0.62428 0.25204 0.0
H763 H 0.60419 0.59601 0.19438 0.0
H764 H 0.58435 0.58032 0.25498 0.0
H765 H 0.53372 0.55853 0.19644 0.0
H766 H 0.55318 0.57444 0.13558 0.0
H767 H 0.51091 0.58758 0.15388 0.0
H768 H 0.51334 0.71951 0.18926 0.0
H769 H 0.54825 0.73273 0.10919 0.0
H770 H 0.58968 0.63091 0.10824 0.0
C771 C 0.5161 0.60463 0.29484 0.0
C772 C 0.49495 0.62134 0.33347 0.0
C773 C 0.48507 0.65531 0.32513 0.0
C774 C 0.49567 0.67248 0.27894 0.0
C775 C 0.5164 0.65545 0.24161 0.0
C776 C 0.52695 0.62248 0.24908 0.0
C777 C 0.55111 0.61118 0.204 0.0
C778 C 0.58613 0.60245 0.22779 0.0
C779 C 0.53633 0.58115 0.17049 0.0
C780 C 0.55245 0.6431 0.1704 0.0
C781 C 0.53185 0.66806 0.19285 0.0
C782 C 0.52944 0.7002 0.17099 0.0
C783 C 0.54926 0.70746 0.1256 0.0
C784 C 0.5713 0.68276 0.10271 0.0
C785 C 0.57251 0.64994 0.12465 0.0
H786 H 0.39873 0.55625 0.34607 0.0
H787 H 0.42565 0.45659 0.28136 0.0
H788 H 0.40721 0.47338 0.18919 0.0
H789 H 0.32371 0.56341 0.27175 0.0
H790 H 0.32732 0.60822 0.26007 0.0
H791 H 0.34699 0.5903 0.31935 0.0
H792 H 0.40501 0.61471 0.29082 0.0
H793 H 0.38559 0.63292 0.23136 0.0
H794 H 0.42139 0.60489 0.22359 0.0
H795 H 0.38248 0.49896 0.10637 0.0
H796 H 0.34916 0.53058 0.03878 0.0
H797 H 0.33649 0.61323 0.15727 0.0
C798 C 0.40141 0.53824 0.31221 0.0
C799 C 0.41443 0.5054 0.32034 0.0
C800 C 0.41685 0.48225 0.27546 0.0
C801 C 0.40634 0.4915 0.22308 0.0
C802 C 0.39362 0.52405 0.21635 0.0
C803 C 0.39099 0.54707 0.25964 0.0
C804 C 0.37356 0.57931 0.24228 0.0
C805 C 0.34096 0.58565 0.27532 0.0
C806 C 0.39784 0.60976 0.24729 0.0
C807 C 0.36578 0.57028 0.18291 0.0
C808 C 0.37819 0.53856 0.1686 0.0
C809 C 0.37299 0.52402 0.11675 0.0
C810 C 0.35417 0.54221 0.0786 0.0
C811 C 0.3405 0.5744 0.09275 0.0
C812 C 0.34675 0.5887 0.14541 0.0
H813 H 0.493 0.38322 0.31237 0.0
H814 H 0.50617 0.48351 0.24595 0.0
H815 H 0.47439 0.46535 0.16283 0.0
H816 H 0.50335 0.33715 0.18469 0.0
H817 H 0.47239 0.30541 0.20119 0.0
H818 H 0.49599 0.32667 0.25509 0.0
H819 H 0.43971 0.3449 0.3014 0.0
H820 H 0.4159 0.32407 0.24725 0.0
H821 H 0.40888 0.36837 0.26297 0.0
H822 H 0.43659 0.43732 0.0907 0.0
H823 H 0.40427 0.39937 0.02834 0.0
H824 H 0.42123 0.3161 0.13891 0.0
C825 C 0.48921 0.40146 0.28045 0.0
C826 C 0.50176 0.43493 0.28596 0.0
C827 C 0.49658 0.45781 0.24285 0.0
C828 C 0.47854 0.44773 0.1955 0.0
C829 C 0.46572 0.4148 0.19213 0.0
C830 C 0.47136 0.39185 0.23306 0.0
C831 C 0.45604 0.3576 0.21869 0.0
C832 C 0.48359 0.33009 0.21465 0.0
C833 C 0.4285 0.3482 0.26003 0.0
C834 C 0.44082 0.36482 0.1632 0.0
C835 C 0.44608 0.3981 0.14906 0.0
C836 C 0.43302 0.41099 0.10076 0.0
C837 C 0.41485 0.38904 0.06534 0.0
C838 C 0.41045 0.35429 0.07769 0.0
C839 C 0.42356 0.34238 0.1278 0.0
loop_
_geom_bond_atom_site_label_1
_geom_bond_atom_site_label_2
_geom_bond_distance
_geom_bond_site_symmetry_2
_ccdc_geom_bond_type
Zn0 O2 1.933 1_556 S
Zn0 O20 1.985 . S
Zn0 O31 1.955 . S
Zn1 O2 1.911 . S
Zn1 O21 1.970 . S
Zn1 O37 1.945 . S
Zn1 O44 1.981 . S
O2 Zn0 1.933 1_554 S
O2 Zn1 1.911 . S
O2 H3 0.841 1_655 S
H3 O2 0.841 1_455 S
C4 O5 1.246 . S
C4 O33 1.276 1_545 S
O5 C4 1.246 . S
Zn6 O8 1.911 . S
Zn6 O23 1.970 . S
Zn6 O40 1.945 . S
Zn6 O47 1.981 . S
Zn7 O8 1.933 1_556 S
Zn7 O22 1.985 . S
Zn7 O29 1.955 . S
O8 Zn6 1.911 . S
O8 Zn7 1.933 1_554 S
O8 H9 0.841 1_455 S
H9 O8 0.841 1_655 S
Zn10 O11 1.933 1_556 S
Zn10 O24 1.985 . S
Zn10 O33 1.955 . S
O11 Zn10 1.933 1_554 S
O11 Zn12 1.911 . S
O11 H13 0.841 1_565 S
Zn12 O11 1.911 . S
Zn12 O25 1.970 . S
Zn12 O41 1.981 . S
Zn12 O43 1.945 . S
H13 O11 0.841 1_545 S
Zn14 O15 1.933 1_556 S
Zn14 O27 1.985 . S
Zn14 O35 1.955 . S
O15 Zn14 1.933 1_554 S
O15 H16 0.841 1_545 S
O15 Zn17 1.911 . S
H16 O15 0.841 1_565 S
Zn17 O15 1.911 . S
Zn17 O28 1.970 . S
Zn17 O38 1.981 . S
Zn17 O46 1.945 . S
C18 O19 1.246 . S
C18 O35 1.276 1_565 S
O19 C18 1.246 . S
O20 Zn0 1.985 . S
O20 C30 1.245 1_556 S
O21 Zn1 1.970 . S
O21 C30 1.263 . S
O22 Zn7 1.985 . S
O22 C34 1.245 1_556 S
O23 Zn6 1.970 . S
O23 C34 1.263 . S
O24 Zn10 1.985 . S
O24 C39 1.245 1_556 S
O25 Zn12 1.970 . S
O25 C39 1.263 . S
C26 O37 1.262 1_455 S
C26 O38 1.245 . S
O27 Zn14 1.985 . S
O27 C45 1.245 1_556 S
O28 Zn17 1.970 . S
O28 C45 1.263 . S
O29 Zn7 1.955 . S
O29 C48 1.276 1_455 S
C30 O20 1.245 1_554 S
C30 O21 1.263 . S
O31 Zn0 1.955 . S
O31 C50 1.276 1_655 S
C32 O40 1.262 1_655 S
C32 O41 1.245 . S
O33 C4 1.276 1_565 S
O33 Zn10 1.955 . S
C34 O22 1.245 1_554 S
C34 O23 1.263 . S
O35 Zn14 1.955 . S
O35 C18 1.276 1_545 S
C36 O43 1.262 1_545 S
C36 O44 1.245 . S
O37 Zn1 1.945 . S
O37 C26 1.262 1_655 S
O38 Zn17 1.981 . S
O38 C26 1.245 . S
C39 O24 1.245 1_554 S
C39 O25 1.263 . S
O40 Zn6 1.945 . S
O40 C32 1.262 1_455 S
O41 Zn12 1.981 . S
O41 C32 1.245 . S
C42 O46 1.262 1_565 S
C42 O47 1.245 . S
O43 Zn12 1.945 . S
O43 C36 1.262 1_565 S
O44 Zn1 1.981 . S
O44 C36 1.245 . S
C45 O27 1.245 1_554 S
C45 O28 1.263 . S
O46 Zn17 1.945 . S
O46 C42 1.262 1_545 S
O47 Zn6 1.981 . S
O47 C42 1.245 . S
C48 O29 1.276 1_655 S
C48 O49 1.246 . S
O49 C48 1.246 . S
C50 O31 1.276 1_455 S
C50 O51 1.246 . S
O51 C50 1.246 . S
Zn52 O54 1.933 . S
Zn52 O72 1.985 . S
Zn52 O83 1.955 . S
Zn53 O54 1.911 . S
Zn53 O73 1.970 . S
Zn53 O89 1.945 . S
Zn53 O96 1.981 . S
O54 Zn52 1.933 . S
O54 Zn53 1.911 . S
O54 H55 0.841 . S
H55 O54 0.841 . S
C56 O57 1.246 . S
C56 O85 1.276 . S
O57 C56 1.246 . S
Zn58 O60 1.911 . S
Zn58 O75 1.970 . S
Zn58 O92 1.945 . S
Zn58 O99 1.981 . S
Zn59 O60 1.933 . S
Zn59 O74 1.985 . S
Zn59 O81 1.955 . S
O60 Zn58 1.911 . S
O60 Zn59 1.933 . S
O60 H61 0.841 . S
H61 O60 0.841 . S
Zn62 O63 1.933 . S
Zn62 O76 1.985 . S
Zn62 O85 1.955 . S
O63 Zn62 1.933 . S
O63 Zn64 1.911 . S
O63 H65 0.841 . S
Zn64 O63 1.911 . S
Zn64 O77 1.970 . S
Zn64 O93 1.981 . S
Zn64 O95 1.945 . S
H65 O63 0.841 . S
Zn66 O67 1.933 . S
Zn66 O79 1.985 . S
Zn66 O87 1.955 . S
O67 Zn66 1.933 . S
O67 H68 0.841 . S
O67 Zn69 1.911 . S
H68 O67 0.841 . S
Zn69 O67 1.911 . S
Zn69 O80 1.970 . S
Zn69 O90 1.981 . S
Zn69 O98 1.945 . S
C70 O71 1.246 . S
C70 O87 1.276 . S
O71 C70 1.246 . S
O72 Zn52 1.985 . S
O72 C82 1.245 . S
O73 Zn53 1.970 . S
O73 C82 1.263 . S
O74 Zn59 1.985 . S
O74 C86 1.245 . S
O75 Zn58 1.970 . S
O75 C86 1.263 . S
O76 Zn62 1.985 . S
O76 C91 1.245 . S
O77 Zn64 1.970 . S
O77 C91 1.263 . S
C78 O89 1.262 . S
C78 O90 1.245 . S
O79 Zn66 1.985 . S
O79 C97 1.245 . S
O80 Zn69 1.970 . S
O80 C97 1.263 . S
O81 Zn59 1.955 . S
O81 C100 1.276 . S
C82 O72 1.245 . S
C82 O73 1.263 . S
O83 Zn52 1.955 . S
O83 C102 1.276 . S
C84 O92 1.262 . S
C84 O93 1.245 . S
O85 C56 1.276 . S
O85 Zn62 1.955 . S
C86 O74 1.245 . S
C86 O75 1.263 . S
O87 Zn66 1.955 . S
O87 C70 1.276 . S
C88 O95 1.262 . S
C88 O96 1.245 . S
O89 Zn53 1.945 . S
O89 C78 1.262 . S
O90 Zn69 1.981 . S
O90 C78 1.245 . S
C91 O76 1.245 . S
C91 O77 1.263 . S
O92 Zn58 1.945 . S
O92 C84 1.262 . S
O93 Zn64 1.981 . S
O93 C84 1.245 . S
C94 O98 1.262 . S
C94 O99 1.245 . S
O95 Zn64 1.945 . S
O95 C88 1.262 . S
O96 Zn53 1.981 . S
O96 C88 1.245 . S
C97 O79 1.245 . S
C97 O80 1.263 . S
O98 Zn69 1.945 . S
O98 C94 1.262 . S
O99 Zn58 1.981 . S
O99 C94 1.245 . S
C100 O81 1.276 . S
C100 O101 1.246 . S
O101 C100 1.246 . S
C102 O83 1.276 . S
C102 O103 1.246 . S
O103 C102 1.246 . S
H104 C107 0.929 . S
H105 C110 0.929 . S
H106 C112 0.930 . S
C107 H104 0.929 . S
C107 C108 1.398 1_554 S
C107 C109 1.396 . S
C108 C107 1.398 1_556 S
C108 C112 1.407 . S
C109 C107 1.396 . S
C109 C110 1.394 . S
C110 H105 0.929 . S
C110 C109 1.394 . S
C110 C111 1.382 1_554 S
C111 C110 1.382 1_556 S
C111 C112 1.392 . S
C111 N113 1.420 . S
C112 H106 0.930 . S
C112 C108 1.407 . S
C112 C111 1.392 . S
N113 C111 1.420 . S
N113 C114 1.244 1_556 S
C114 N113 1.244 1_554 S
H115 C118 0.929 . S
H116 C121 0.929 . S
H117 C123 0.930 . S
C118 H115 0.929 . S
C118 C119 1.398 1_554 S
C118 C120 1.396 . S
C119 C118 1.398 1_556 S
C119 C123 1.407 . S
C120 C118 1.396 . S
C120 C121 1.394 . S
C121 H116 0.929 . S
C121 C120 1.394 . S
C121 C122 1.382 . S
C122 C121 1.382 . S
C122 C123 1.392 1_554 S
C122 N124 1.420 1_554 S
C123 H117 0.930 . S
C123 C119 1.407 . S
C123 C122 1.392 1_556 S
N124 C122 1.420 1_556 S
N124 C125 1.244 1_556 S
C125 N124 1.244 1_554 S
H126 C129 0.929 . S
H127 C132 0.929 . S
H128 C134 0.930 . S
C129 H126 0.929 . S
C129 C130 1.398 . S
C129 C131 1.396 1_554 S
C130 C129 1.398 . S
C130 C134 1.407 . S
C131 C129 1.396 1_556 S
C131 C132 1.394 . S
C132 H127 0.929 . S
C132 C131 1.394 . S
C132 C133 1.382 1_556 S
C133 C132 1.382 1_554 S
C133 C134 1.392 . S
C133 N135 1.420 . S
C134 H128 0.930 . S
C134 C130 1.407 . S
C134 C133 1.392 . S
N135 C133 1.420 . S
N135 C136 1.244 . S
C136 N135 1.244 . S
H137 C140 0.929 . S
H138 C143 0.929 . S
H139 C145 0.930 . S
C140 H137 0.929 . S
C140 C141 1.398 . S
C140 C142 1.396 1_554 S
C141 C140 1.398 . S
C141 C145 1.407 . S
C142 C140 1.396 1_556 S
C142 C143 1.394 . S
C143 H138 0.929 . S
C143 C142 1.394 . S
C143 C144 1.382 1_556 S
C144 C143 1.382 1_554 S
C144 C145 1.392 . S
C144 N146 1.420 . S
C145 H139 0.930 . S
C145 C141 1.407 . S
C145 C144 1.392 . S
N146 C144 1.420 . S
N146 C147 1.244 1_554 S
C147 N146 1.244 1_556 S
H148 C151 0.929 . S
H149 C154 0.929 . S
H150 C156 0.930 . S
C151 H148 0.929 . S
C151 C152 1.398 . S
C151 C153 1.396 . S
C152 C151 1.398 . S
C152 C156 1.407 . S
C153 C151 1.396 . S
C153 C154 1.394 . S
C154 H149 0.929 . S
C154 C153 1.394 . S
C154 C155 1.382 . S
C155 C154 1.382 . S
C155 C156 1.392 . S
C155 N157 1.420 . S
C156 H150 0.930 . S
C156 C152 1.407 . S
C156 C155 1.392 . S
N157 C155 1.420 . S
N157 C158 1.244 . S
C158 N157 1.244 . S
H159 C162 0.929 . S
H160 C165 0.929 . S
H161 C167 0.930 . S
C162 H159 0.929 . S
C162 C163 1.398 . S
C162 C164 1.396 . S
C163 C162 1.398 . S
C163 C167 1.407 . S
C164 C162 1.396 . S
C164 C165 1.394 . S
C165 H160 0.929 . S
C165 C164 1.394 . S
C165 C166 1.382 . S
C166 C165 1.382 . S
C166 C167 1.392 . S
C166 N168 1.420 . S
C167 H161 0.930 . S
C167 C163 1.407 . S
C167 C166 1.392 . S
N168 C166 1.420 . S
N168 C169 1.244 . S
C169 N168 1.244 . S
H170 C173 0.929 . S
H171 C176 0.929 . S
H172 C178 0.930 . S
C173 H170 0.929 . S
C173 C174 1.398 . S
C173 C175 1.396 . S
C174 C173 1.398 . S
C174 C178 1.407 . S
C175 C173 1.396 . S
C175 C176 1.394 . S
C176 H171 0.929 . S
C176 C175 1.394 . S
C176 C177 1.382 . S
C177 C176 1.382 . S
C177 C178 1.392 . S
C177 N179 1.420 . S
C178 H172 0.930 . S
C178 C174 1.407 . S
C178 C177 1.392 . S
N179 C177 1.420 . S
N179 C180 1.244 . S
C180 N179 1.244 . S
H181 C184 0.929 . S
H182 C187 0.929 . S
H183 C189 0.930 . S
C184 H181 0.929 . S
C184 C185 1.398 . S
C184 C186 1.396 . S
C185 C184 1.398 . S
C185 C189 1.407 . S
C186 C184 1.396 . S
C186 C187 1.394 . S
C187 H182 0.929 . S
C187 C186 1.394 . S
C187 C188 1.382 . S
C188 C187 1.382 . S
C188 C189 1.392 . S
C188 N190 1.420 . S
C189 H183 0.930 . S
C189 C185 1.407 . S
C189 C188 1.392 . S
N190 C188 1.420 . S
N190 C191 1.244 . S
C191 N190 1.244 . S
H192 C204 0.930 . S
H193 C206 0.930 . S
H194 C207 0.930 . S
H195 C211 0.959 . S
H196 C211 0.959 . S
H197 C211 0.961 . S
H198 C212 0.960 . S
H199 C212 0.961 . S
H200 C212 0.959 . S
H201 C215 0.929 . S
H202 C216 0.931 . S
H203 C218 0.930 . S
C204 H192 0.930 . S
C204 C205 1.399 . S
C204 C209 1.399 . S
C205 C204 1.399 . S
C205 C206 1.376 1_554 S
C206 H193 0.930 . S
C206 C205 1.376 1_556 S
C206 C207 1.388 . S
C207 H194 0.930 . S
C207 C206 1.388 . S
C207 C208 1.390 . S
C208 C207 1.390 . S
C208 C209 1.394 1_556 S
C208 C214 1.465 . S
C209 C204 1.399 . S
C209 C208 1.394 1_554 S
C209 C210 1.516 . S
C210 C209 1.516 . S
C210 C211 1.502 . S
C210 C212 1.561 . S
C210 C213 1.526 . S
C211 H195 0.959 . S
C211 H196 0.959 . S
C211 H197 0.961 . S
C211 C210 1.502 . S
C212 H198 0.960 . S
C212 H199 0.961 . S
C212 H200 0.959 . S
C212 C210 1.561 . S
C213 C210 1.526 . S
C213 C214 1.396 1_554 S
C213 C218 1.390 . S
C214 C208 1.465 . S
C214 C213 1.396 1_556 S
C214 C215 1.399 . S
C215 H201 0.929 . S
C215 C214 1.399 . S
C215 C216 1.385 . S
C216 H202 0.931 . S
C216 C215 1.385 . S
C216 C217 1.389 1_556 S
C217 C216 1.389 1_554 S
C217 C218 1.387 . S
C218 H203 0.930 . S
C218 C213 1.390 . S
C218 C217 1.387 . S
H219 C231 0.930 . S
H220 C233 0.930 . S
H221 C234 0.930 . S
H222 C238 0.959 . S
H223 C238 0.959 . S
H224 C238 0.961 . S
H225 C239 0.960 . S
H226 C239 0.961 . S
H227 C239 0.959 . S
H228 C242 0.929 . S
H229 C243 0.931 . S
H230 C245 0.930 . S
C231 H219 0.930 . S
C231 C232 1.399 . S
C231 C236 1.399 . S
C232 C231 1.399 . S
C232 C233 1.376 1_554 S
C233 H220 0.930 . S
C233 C232 1.376 1_556 S
C233 C234 1.388 . S
C234 H221 0.930 . S
C234 C233 1.388 . S
C234 C235 1.390 . S
C235 C234 1.390 . S
C235 C236 1.394 1_556 S
C235 C241 1.465 . S
C236 C231 1.399 . S
C236 C235 1.394 1_554 S
C236 C237 1.516 . S
C237 C236 1.516 . S
C237 C238 1.502 . S
C237 C239 1.561 . S
C237 C240 1.526 . S
C238 H222 0.959 . S
C238 H223 0.959 . S
C238 H224 0.961 . S
C238 C237 1.502 . S
C239 H225 0.960 . S
C239 H226 0.961 . S
C239 H227 0.959 . S
C239 C237 1.561 . S
C240 C237 1.526 . S
C240 C241 1.396 1_554 S
C240 C245 1.390 . S
C241 C235 1.465 . S
C241 C240 1.396 1_556 S
C241 C242 1.399 . S
C242 H228 0.929 . S
C242 C241 1.399 . S
C242 C243 1.385 . S
C243 H229 0.931 . S
C243 C242 1.385 . S
C243 C244 1.389 1_556 S
C244 C243 1.389 1_554 S
C244 C245 1.387 . S
C245 H230 0.930 . S
C245 C240 1.390 . S
C245 C244 1.387 . S
H246 C258 0.930 . S
H247 C260 0.930 . S
H248 C261 0.930 . S
H249 C265 0.959 . S
H250 C265 0.959 . S
H251 C265 0.961 . S
H252 C266 0.960 . S
H253 C266 0.961 . S
H254 C266 0.959 . S
H255 C269 0.929 . S
H256 C270 0.931 . S
H257 C272 0.930 . S
C258 H246 0.930 . S
C258 C259 1.399 . S
C258 C263 1.399 . S
C259 C258 1.399 . S
C259 C260 1.376 1_554 S
C260 H247 0.930 . S
C260 C259 1.376 1_556 S
C260 C261 1.388 . S
C261 H248 0.930 . S
C261 C260 1.388 . S
C261 C262 1.390 . S
C262 C261 1.390 . S
C262 C263 1.394 1_556 S
C262 C268 1.465 . S
C263 C258 1.399 . S
C263 C262 1.394 1_554 S
C263 C264 1.516 . S
C264 C263 1.516 . S
C264 C265 1.502 . S
C264 C266 1.561 . S
C264 C267 1.526 . S
C265 H249 0.959 . S
C265 H250 0.959 . S
C265 H251 0.961 . S
C265 C264 1.502 . S
C266 H252 0.960 . S
C266 H253 0.961 . S
C266 H254 0.959 . S
C266 C264 1.561 . S
C267 C264 1.526 . S
C267 C268 1.396 1_554 S
C267 C272 1.390 . S
C268 C262 1.465 . S
C268 C267 1.396 1_556 S
C268 C269 1.399 . S
C269 H255 0.929 . S
C269 C268 1.399 . S
C269 C270 1.385 . S
C270 H256 0.931 . S
C270 C269 1.385 . S
C270 C271 1.372 1_556 S
C271 C270 1.372 1_554 S
C271 C272 1.400 . S
C272 H257 0.930 . S
C272 C267 1.390 . S
C272 C271 1.400 . S
H273 C285 0.930 . S
H274 C287 0.930 . S
H275 C288 0.930 . S
H276 C292 0.959 . S
H277 C292 0.959 . S
H278 C292 0.961 . S
H279 C293 0.960 . S
H280 C293 0.961 . S
H281 C293 0.959 . S
H282 C296 0.929 . S
H283 C297 0.931 . S
H284 C299 0.930 . S
C285 H273 0.930 . S
C285 C286 1.399 1_556 S
C285 C290 1.399 . S
C286 C285 1.399 1_554 S
C286 C287 1.376 . S
C287 H274 0.930 . S
C287 C286 1.376 . S
C287 C288 1.388 . S
C288 H275 0.930 . S
C288 C287 1.388 . S
C288 C289 1.390 . S
C289 C288 1.390 . S
C289 C290 1.394 1_554 S
C289 C295 1.465 . S
C290 C285 1.399 . S
C290 C289 1.394 1_556 S
C290 C291 1.516 . S
C291 C290 1.516 . S
C291 C292 1.502 . S
C291 C293 1.561 . S
C291 C294 1.526 . S
C292 H276 0.959 . S
C292 H277 0.959 . S
C292 H278 0.961 . S
C292 C291 1.502 . S
C293 H279 0.960 . S
C293 H280 0.961 . S
C293 H281 0.959 . S
C293 C291 1.561 . S
C294 C291 1.526 . S
C294 C295 1.396 1_556 S
C294 C299 1.390 . S
C295 C289 1.465 . S
C295 C294 1.396 1_554 S
C295 C296 1.399 . S
C296 H282 0.929 . S
C296 C295 1.399 . S
C296 C297 1.385 . S
C297 H283 0.931 . S
C297 C296 1.385 . S
C297 C298 1.389 . S
C298 C297 1.389 . S
C298 C299 1.387 1_554 S
C299 H284 0.930 . S
C299 C294 1.390 . S
C299 C298 1.387 1_556 S
H300 C312 0.930 . S
H301 C314 0.930 . S
H302 C315 0.930 . S
H303 C319 0.959 . S
H304 C319 0.959 . S
H305 C319 0.961 . S
H306 C320 0.960 . S
H307 C320 0.961 . S
H308 C320 0.959 . S
H309 C323 0.929 . S
H310 C324 0.931 . S
H311 C326 0.930 . S
C312 H300 0.930 . S
C312 C313 1.399 . S
C312 C317 1.399 . S
C313 C312 1.399 . S
C313 C314 1.376 . S
C314 H301 0.930 . S
C314 C313 1.376 . S
C314 C315 1.388 . S
C315 H302 0.930 . S
C315 C314 1.388 . S
C315 C316 1.390 . S
C316 C315 1.390 . S
C316 C317 1.394 . S
C316 C322 1.465 . S
C317 C312 1.399 . S
C317 C316 1.394 . S
C317 C318 1.516 . S
C318 C317 1.516 . S
C318 C319 1.502 . S
C318 C320 1.561 . S
C318 C321 1.526 . S
C319 H303 0.959 . S
C319 H304 0.959 . S
C319 H305 0.961 . S
C319 C318 1.502 . S
C320 H306 0.960 . S
C320 H307 0.961 . S
C320 H308 0.959 . S
C320 C318 1.561 . S
C321 C318 1.526 . S
C321 C322 1.396 . S
C321 C326 1.390 . S
C322 C316 1.465 . S
C322 C321 1.396 . S
C322 C323 1.399 . S
C323 H309 0.929 . S
C323 C322 1.399 . S
C323 C324 1.385 . S
C324 H310 0.931 . S
C324 C323 1.385 . S
C324 C325 1.389 . S
C325 C324 1.389 . S
C325 C326 1.387 . S
C326 H311 0.930 . S
C326 C321 1.390 . S
C326 C325 1.387 . S
H327 C339 0.930 . S
H328 C341 0.930 . S
H329 C342 0.930 . S
H330 C346 0.959 . S
H331 C346 0.959 . S
H332 C346 0.961 . S
H333 C347 0.960 . S
H334 C347 0.961 . S
H335 C347 0.959 . S
H336 C350 0.929 . S
H337 C351 0.931 . S
H338 C353 0.930 . S
C339 H327 0.930 . S
C339 C340 1.399 . S
C339 C344 1.399 . S
C340 C339 1.399 . S
C340 C341 1.376 . S
C341 H328 0.930 . S
C341 C340 1.376 . S
C341 C342 1.388 . S
C342 H329 0.930 . S
C342 C341 1.388 . S
C342 C343 1.390 . S
C343 C342 1.390 . S
C343 C344 1.394 . S
C343 C349 1.465 . S
C344 C339 1.399 . S
C344 C343 1.394 . S
C344 C345 1.516 . S
C345 C344 1.516 . S
C345 C346 1.502 . S
C345 C347 1.561 . S
C345 C348 1.526 . S
C346 H330 0.959 . S
C346 H331 0.959 . S
C346 H332 0.961 . S
C346 C345 1.502 . S
C347 H333 0.960 . S
C347 H334 0.961 . S
C347 H335 0.959 . S
C347 C345 1.561 . S
C348 C345 1.526 . S
C348 C349 1.396 . S
C348 C353 1.390 . S
C349 C343 1.465 . S
C349 C348 1.396 . S
C349 C350 1.399 . S
C350 H336 0.929 . S
C350 C349 1.399 . S
C350 C351 1.385 . S
C351 H337 0.931 . S
C351 C350 1.385 . S
C351 C352 1.389 . S
C352 C351 1.389 . S
C352 C353 1.387 . S
C353 H338 0.930 . S
C353 C348 1.390 . S
C353 C352 1.387 . S
H354 C366 0.930 . S
H355 C368 0.930 . S
H356 C369 0.930 . S
H357 C373 0.959 . S
H358 C373 0.959 . S
H359 C373 0.961 . S
H360 C374 0.960 . S
H361 C374 0.961 . S
H362 C374 0.959 . S
H363 C377 0.929 . S
H364 C378 0.931 . S
H365 C380 0.930 . S
C366 H354 0.930 . S
C366 C367 1.399 . S
C366 C371 1.399 . S
C367 C366 1.399 . S
C367 C368 1.376 . S
C368 H355 0.930 . S
C368 C367 1.376 . S
C368 C369 1.388 . S
C369 H356 0.930 . S
C369 C368 1.388 . S
C369 C370 1.390 . S
C370 C369 1.390 . S
C370 C371 1.394 . S
C370 C376 1.465 . S
C371 C366 1.399 . S
C371 C370 1.394 . S
C371 C372 1.516 . S
C372 C371 1.516 . S
C372 C373 1.502 . S
C372 C374 1.561 . S
C372 C375 1.526 . S
C373 H357 0.959 . S
C373 H358 0.959 . S
C373 H359 0.961 . S
C373 C372 1.502 . S
C374 H360 0.960 . S
C374 H361 0.961 . S
C374 H362 0.959 . S
C374 C372 1.561 . S
C375 C372 1.526 . S
C375 C376 1.396 . S
C375 C380 1.390 . S
C376 C370 1.465 . S
C376 C375 1.396 . S
C376 C377 1.399 . S
C377 H363 0.929 . S
C377 C376 1.399 . S
C377 C378 1.385 . S
C378 H364 0.931 . S
C378 C377 1.385 . S
C378 C379 1.389 . S
C379 C378 1.389 . S
C379 C380 1.387 . S
C380 H365 0.930 . S
C380 C375 1.390 . S
C380 C379 1.387 . S
H381 C393 0.930 . S
H382 C395 0.930 . S
H383 C396 0.930 . S
H384 C400 0.959 . S
H385 C400 0.959 . S
H386 C400 0.961 . S
H387 C401 0.960 . S
H388 C401 0.961 . S
H389 C401 0.959 . S
H390 C404 0.929 . S
H391 C405 0.931 . S
H392 C407 0.930 . S
C393 H381 0.930 . S
C393 C394 1.399 . S
C393 C398 1.399 . S
C394 C393 1.399 . S
C394 C395 1.376 . S
C395 H382 0.930 . S
C395 C394 1.376 . S
C395 C396 1.388 . S
C396 H383 0.930 . S
C396 C395 1.388 . S
C396 C397 1.390 . S
C397 C396 1.390 . S
C397 C398 1.394 . S
C397 C403 1.465 . S
C398 C393 1.399 . S
C398 C397 1.394 . S
C398 C399 1.516 . S
C399 C398 1.516 . S
C399 C400 1.502 . S
C399 C401 1.561 . S
C399 C402 1.526 . S
C400 H384 0.959 . S
C400 H385 0.959 . S
C400 H386 0.961 . S
C400 C399 1.502 . S
C401 H387 0.960 . S
C401 H388 0.961 . S
C401 H389 0.959 . S
C401 C399 1.561 . S
C402 C399 1.526 . S
C402 C403 1.396 . S
C402 C407 1.390 . S
C403 C397 1.465 . S
C403 C402 1.396 . S
C403 C404 1.399 . S
C404 H390 0.929 . S
C404 C403 1.399 . S
C404 C405 1.385 . S
C405 H391 0.931 . S
C405 C404 1.385 . S
C405 C406 1.389 . S
C406 C405 1.389 . S
C406 C407 1.387 . S
C407 H392 0.930 . S
C407 C402 1.390 . S
C407 C406 1.387 . S
H408 C420 0.930 . S
H409 C422 0.930 1_655 S
H410 C423 0.930 1_655 S
H411 C427 0.959 . S
H412 C427 0.959 . S
H413 C427 0.961 . S
H414 C428 0.960 . S
H415 C428 0.961 . S
H416 C428 0.959 . S
H417 C431 0.929 . S
H418 C432 0.931 . S
H419 C434 0.930 . S
C420 H408 0.930 . S
C420 C421 1.399 . S
C420 C425 1.399 . S
C421 C420 1.399 . S
C421 C422 1.376 . S
C422 H409 0.930 1_455 S
C422 C421 1.376 . S
C422 C423 1.388 . S
C423 H410 0.930 1_455 S
C423 C422 1.388 . S
C423 C424 1.390 . S
C424 C423 1.390 . S
C424 C425 1.394 . S
C424 C430 1.465 . S
C425 C420 1.399 . S
C425 C424 1.394 . S
C425 C426 1.516 . S
C426 C425 1.516 . S
C426 C427 1.502 . S
C426 C428 1.561 . S
C426 C429 1.526 . S
C427 H411 0.959 . S
C427 H412 0.959 . S
C427 H413 0.961 . S
C427 C426 1.502 . S
C428 H414 0.960 . S
C428 H415 0.961 . S
C428 H416 0.959 . S
C428 C426 1.561 . S
C429 C426 1.526 . S
C429 C430 1.396 . S
C429 C434 1.390 . S
C430 C424 1.465 . S
C430 C429 1.396 . S
C430 C431 1.399 . S
C431 H417 0.929 . S
C431 C430 1.399 . S
C431 C432 1.385 . S
C432 H418 0.931 . S
C432 C431 1.385 . S
C432 C433 1.389 . S
C433 C432 1.389 . S
C433 C434 1.387 . S
C434 H419 0.930 . S
C434 C429 1.390 . S
C434 C433 1.387 . S
H435 C447 0.930 . S
H436 C449 0.930 . S
H437 C450 0.930 . S
H438 C454 0.959 . S
H439 C454 0.954 1_565 S
H440 C454 0.961 1_565 S
H441 C455 0.960 . S
H442 C455 0.961 . S
H443 C455 0.955 1_545 S
H444 C458 0.929 . S
H445 C459 0.931 . S
H446 C461 0.930 . S
C447 H435 0.930 . S
C447 C448 1.399 . S
C447 C452 1.399 . S
C448 C447 1.399 . S
C448 C449 1.376 . S
C449 H436 0.930 . S
C449 C448 1.376 . S
C449 C450 1.388 . S
C450 H437 0.930 . S
C450 C449 1.388 . S
C450 C451 1.390 . S
C451 C450 1.390 . S
C451 C452 1.394 . S
C451 C457 1.465 . S
C452 C447 1.399 . S
C452 C451 1.394 . S
C452 C453 1.516 . S
C453 C452 1.516 . S
C453 C454 1.502 . S
C453 C455 1.561 1_545 S
C453 C456 1.526 . S
C454 H438 0.959 . S
C454 H439 0.954 1_545 S
C454 H440 0.961 1_545 S
C454 C453 1.502 . S
C455 H441 0.960 . S
C455 H442 0.961 . S
C455 H443 0.955 1_565 S
C455 C453 1.561 1_565 S
C456 C453 1.526 . S
C456 C457 1.396 . S
C456 C461 1.390 . S
C457 C451 1.465 . S
C457 C456 1.396 . S
C457 C458 1.399 . S
C458 H444 0.929 . S
C458 C457 1.399 . S
C458 C459 1.385 . S
C459 H445 0.931 . S
C459 C458 1.385 . S
C459 C460 1.389 . S
C460 C459 1.389 . S
C460 C461 1.387 . S
C461 H446 0.930 . S
C461 C456 1.390 . S
C461 C460 1.387 . S
H462 C474 0.930 . S
H463 C476 0.930 . S
H464 C477 0.930 . S
H465 C481 0.959 . S
H466 C481 0.959 . S
H467 C481 0.961 . S
H468 C482 0.960 . S
H469 C482 0.961 . S
H470 C482 0.959 . S
H471 C485 0.929 . S
H472 C486 0.931 . S
H473 C488 0.930 . S
C474 H462 0.930 . S
C474 C475 1.399 . S
C474 C479 1.399 . S
C475 C474 1.399 . S
C475 C476 1.376 . S
C476 H463 0.930 . S
C476 C475 1.376 . S
C476 C477 1.388 . S
C477 H464 0.930 . S
C477 C476 1.388 . S
C477 C478 1.390 . S
C478 C477 1.390 . S
C478 C479 1.394 . S
C478 C484 1.465 . S
C479 C474 1.399 . S
C479 C478 1.394 . S
C479 C480 1.516 . S
C480 C479 1.516 . S
C480 C481 1.502 . S
C480 C482 1.561 . S
C480 C483 1.526 . S
C481 H465 0.959 . S
C481 H466 0.959 . S
C481 H467 0.961 . S
C481 C480 1.502 . S
C482 H468 0.960 . S
C482 H469 0.961 . S
C482 H470 0.959 . S
C482 C480 1.561 . S
C483 C480 1.526 . S
C483 C484 1.396 . S
C483 C488 1.390 . S
C484 C478 1.465 . S
C484 C483 1.396 . S
C484 C485 1.399 . S
C485 H471 0.929 . S
C485 C484 1.399 . S
C485 C486 1.385 . S
C486 H472 0.931 . S
C486 C485 1.385 . S
C486 C487 1.389 . S
C487 C486 1.389 . S
C487 C488 1.387 . S
C488 H473 0.930 . S
C488 C483 1.390 . S
C488 C487 1.387 . S
H489 C501 0.930 . S
H490 C503 0.930 . S
H491 C504 0.930 . S
H492 C508 0.959 . S
H493 C508 0.959 . S
H494 C508 0.961 . S
H495 C509 0.960 . S
H496 C509 0.961 . S
H497 C509 0.959 . S
H498 C512 0.929 . S
H499 C513 0.931 . S
H500 C515 0.930 . S
C501 H489 0.930 . S
C501 C502 1.399 . S
C501 C506 1.399 . S
C502 C501 1.399 . S
C502 C503 1.376 . S
C503 H490 0.930 . S
C503 C502 1.376 . S
C503 C504 1.388 . S
C504 H491 0.930 . S
C504 C503 1.388 . S
C504 C505 1.390 . S
C505 C504 1.390 . S
C505 C506 1.394 . S
C505 C511 1.465 . S
C506 C501 1.399 . S
C506 C505 1.394 . S
C506 C507 1.516 . S
C507 C506 1.516 . S
C507 C508 1.502 . S
C507 C509 1.561 . S
C507 C510 1.526 . S
C508 H492 0.959 . S
C508 H493 0.959 . S
C508 H494 0.961 . S
C508 C507 1.502 . S
C509 H495 0.960 . S
C509 H496 0.961 . S
C509 H497 0.959 . S
C509 C507 1.561 . S
C510 C507 1.526 . S
C510 C511 1.396 . S
C510 C515 1.390 . S
C511 C505 1.465 . S
C511 C510 1.396 . S
C511 C512 1.399 . S
C512 H498 0.929 . S
C512 C511 1.399 . S
C512 C513 1.385 . S
C513 H499 0.931 . S
C513 C512 1.385 . S
C513 C514 1.389 . S
C514 C513 1.389 . S
C514 C515 1.387 . S
C515 H500 0.930 . S
C515 C510 1.390 . S
C515 C514 1.387 . S
H516 C528 0.930 . S
H517 C530 0.930 . S
H518 C531 0.930 . S
H519 C535 0.959 . S
H520 C535 0.959 . S
H521 C535 0.961 . S
H522 C536 0.960 . S
H523 C536 0.961 . S
H524 C536 0.959 . S
H525 C539 0.929 . S
H526 C540 0.931 . S
H527 C542 0.930 . S
C528 H516 0.930 . S
C528 C529 1.399 . S
C528 C533 1.399 . S
C529 C528 1.399 . S
C529 C530 1.376 . S
C530 H517 0.930 . S
C530 C529 1.376 . S
C530 C531 1.388 . S
C531 H518 0.930 . S
C531 C530 1.388 . S
C531 C532 1.390 . S
C532 C531 1.390 . S
C532 C533 1.394 . S
C532 C538 1.465 . S
C533 C528 1.399 . S
C533 C532 1.394 . S
C533 C534 1.516 . S
C534 C533 1.516 . S
C534 C535 1.502 . S
C534 C536 1.561 . S
C534 C537 1.526 . S
C535 H519 0.959 . S
C535 H520 0.959 . S
C535 H521 0.961 . S
C535 C534 1.502 . S
C536 H522 0.960 . S
C536 H523 0.961 . S
C536 H524 0.959 . S
C536 C534 1.561 . S
C537 C534 1.526 . S
C537 C538 1.396 . S
C537 C542 1.390 . S
C538 C532 1.465 . S
C538 C537 1.396 . S
C538 C539 1.399 . S
C539 H525 0.929 . S
C539 C538 1.399 . S
C539 C540 1.385 . S
C540 H526 0.931 . S
C540 C539 1.385 . S
C540 C541 1.389 . S
C541 C540 1.389 . S
C541 C542 1.387 . S
C542 H527 0.930 . S
C542 C537 1.390 . S
C542 C541 1.387 . S
H543 C555 0.930 . S
H544 C557 0.930 . S
H545 C558 0.930 . S
H546 C562 0.959 . S
H547 C562 0.959 . S
H548 C562 0.961 . S
H549 C563 0.960 . S
H550 C563 0.961 . S
H551 C563 0.959 . S
H552 C566 0.929 . S
H553 C567 0.931 . S
H554 C569 0.930 . S
C555 H543 0.930 . S
C555 C556 1.399 . S
C555 C560 1.399 . S
C556 C555 1.399 . S
C556 C557 1.376 . S
C557 H544 0.930 . S
C557 C556 1.376 . S
C557 C558 1.388 . S
C558 H545 0.930 . S
C558 C557 1.388 . S
C558 C559 1.390 . S
C559 C558 1.390 . S
C559 C560 1.394 . S
C559 C565 1.465 . S
C560 C555 1.399 . S
C560 C559 1.394 . S
C560 C561 1.516 . S
C561 C560 1.516 . S
C561 C562 1.502 . S
C561 C563 1.561 . S
C561 C564 1.526 . S
C562 H546 0.959 . S
C562 H547 0.959 . S
C562 H548 0.961 . S
C562 C561 1.502 . S
C563 H549 0.960 . S
C563 H550 0.961 . S
C563 H551 0.959 . S
C563 C561 1.561 . S
C564 C561 1.526 . S
C564 C565 1.396 . S
C564 C569 1.390 . S
C565 C559 1.465 . S
C565 C564 1.396 . S
C565 C566 1.399 . S
C566 H552 0.929 . S
C566 C565 1.399 . S
C566 C567 1.385 . S
C567 H553 0.931 . S
C567 C566 1.385 . S
C567 C568 1.389 . S
C568 C567 1.389 . S
C568 C569 1.387 . S
C569 H554 0.930 . S
C569 C564 1.390 . S
C569 C568 1.387 . S
H570 C582 0.930 . S
H571 C584 0.930 . S
H572 C585 0.930 . S
H573 C589 0.959 . S
H574 C589 0.959 . S
H575 C589 0.961 . S
H576 C590 0.960 . S
H577 C590 0.961 . S
H578 C590 0.959 . S
H579 C593 0.929 . S
H580 C594 0.931 . S
H581 C596 0.930 . S
C582 H570 0.930 . S
C582 C583 1.399 . S
C582 C587 1.399 . S
C583 C582 1.399 . S
C583 C584 1.376 . S
C584 H571 0.930 . S
C584 C583 1.376 . S
C584 C585 1.388 . S
C585 H572 0.930 . S
C585 C584 1.388 . S
C585 C586 1.390 . S
C586 C585 1.390 . S
C586 C587 1.394 . S
C586 C592 1.465 . S
C587 C582 1.399 . S
C587 C586 1.394 . S
C587 C588 1.516 . S
C588 C587 1.516 . S
C588 C589 1.502 . S
C588 C590 1.561 . S
C588 C591 1.526 . S
C589 H573 0.959 . S
C589 H574 0.959 . S
C589 H575 0.961 . S
C589 C588 1.502 . S
C590 H576 0.960 . S
C590 H577 0.961 . S
C590 H578 0.959 . S
C590 C588 1.561 . S
C591 C588 1.526 . S
C591 C592 1.396 . S
C591 C596 1.390 . S
C592 C586 1.465 . S
C592 C591 1.396 . S
C592 C593 1.399 . S
C593 H579 0.929 . S
C593 C592 1.399 . S
C593 C594 1.385 . S
C594 H580 0.931 . S
C594 C593 1.385 . S
C594 C595 1.389 . S
C595 C594 1.389 . S
C595 C596 1.387 . S
C596 H581 0.930 . S
C596 C591 1.390 . S
C596 C595 1.387 . S
H597 C609 0.930 . S
H598 C611 0.930 . S
H599 C612 0.930 . S
H600 C616 0.945 1_455 S
H601 C616 0.959 . S
H602 C616 0.955 1_455 S
H603 C617 0.960 . S
H604 C617 0.961 . S
H605 C617 0.959 . S
H606 C620 0.929 . S
H607 C621 0.931 . S
H608 C623 0.930 . S
C609 H597 0.930 . S
C609 C610 1.399 . S
C609 C614 1.399 . S
C610 C609 1.399 . S
C610 C611 1.376 . S
C611 H598 0.930 . S
C611 C610 1.376 . S
C611 C612 1.388 . S
C612 H599 0.930 . S
C612 C611 1.388 . S
C612 C613 1.390 . S
C613 C612 1.390 . S
C613 C614 1.394 . S
C613 C619 1.465 . S
C614 C609 1.399 . S
C614 C613 1.394 . S
C614 C615 1.516 . S
C615 C614 1.516 . S
C615 C616 1.502 . S
C615 C617 1.561 . S
C615 C618 1.526 . S
C616 H600 0.945 1_655 S
C616 H601 0.959 . S
C616 H602 0.955 1_655 S
C616 C615 1.502 . S
C617 H603 0.960 . S
C617 H604 0.961 . S
C617 H605 0.959 . S
C617 C615 1.561 . S
C618 C615 1.526 . S
C618 C619 1.396 . S
C618 C623 1.390 . S
C619 C613 1.465 . S
C619 C618 1.396 . S
C619 C620 1.399 . S
C620 H606 0.929 . S
C620 C619 1.399 . S
C620 C621 1.385 . S
C621 H607 0.931 . S
C621 C620 1.385 . S
C621 C622 1.389 . S
C622 C621 1.389 . S
C622 C623 1.387 . S
C623 H608 0.930 . S
C623 C618 1.390 . S
C623 C622 1.387 . S
H624 C636 0.930 . S
H625 C638 0.930 . S
H626 C639 0.930 . S
H627 C643 0.959 . S
H628 C643 0.959 . S
H629 C643 0.961 . S
H630 C644 0.960 . S
H631 C644 0.961 . S
H632 C644 0.959 . S
H633 C647 0.929 . S
H634 C648 0.931 . S
H635 C650 0.930 . S
C636 H624 0.930 . S
C636 C637 1.399 . S
C636 C641 1.399 . S
C637 C636 1.399 . S
C637 C638 1.376 . S
C638 H625 0.930 . S
C638 C637 1.376 . S
C638 C639 1.388 . S
C639 H626 0.930 . S
C639 C638 1.388 . S
C639 C640 1.390 . S
C640 C639 1.390 . S
C640 C641 1.394 . S
C640 C646 1.465 . S
C641 C636 1.399 . S
C641 C640 1.394 . S
C641 C642 1.516 . S
C642 C641 1.516 . S
C642 C643 1.502 . S
C642 C644 1.561 . S
C642 C645 1.526 . S
C643 H627 0.959 . S
C643 H628 0.959 . S
C643 H629 0.961 . S
C643 C642 1.502 . S
C644 H630 0.960 . S
C644 H631 0.961 . S
C644 H632 0.959 . S
C644 C642 1.561 . S
C645 C642 1.526 . S
C645 C646 1.396 . S
C645 C650 1.390 . S
C646 C640 1.465 . S
C646 C645 1.396 . S
C646 C647 1.399 . S
C647 H633 0.929 . S
C647 C646 1.399 . S
C647 C648 1.385 . S
C648 H634 0.931 . S
C648 C647 1.385 . S
C648 C649 1.389 . S
C649 C648 1.389 . S
C649 C650 1.387 . S
C650 H635 0.930 . S
C650 C645 1.390 . S
C650 C649 1.387 . S
H651 C663 0.930 . S
H652 C665 0.930 . S
H653 C666 0.930 . S
H654 C670 0.959 . S
H655 C670 0.959 . S
H656 C670 0.961 . S
H657 C671 0.960 . S
H658 C671 0.961 . S
H659 C671 0.959 . S
H660 C674 0.929 . S
H661 C675 0.931 . S
H662 C677 0.930 . S
C663 H651 0.930 . S
C663 C664 1.399 . S
C663 C668 1.399 . S
C664 C663 1.399 . S
C664 C665 1.376 . S
C665 H652 0.930 . S
C665 C664 1.376 . S
C665 C666 1.388 . S
C666 H653 0.930 . S
C666 C665 1.388 . S
C666 C667 1.390 . S
C667 C666 1.390 . S
C667 C668 1.394 . S
C667 C673 1.465 . S
C668 C663 1.399 . S
C668 C667 1.394 . S
C668 C669 1.516 . S
C669 C668 1.516 . S
C669 C670 1.502 . S
C669 C671 1.561 . S
C669 C672 1.526 . S
C670 H654 0.959 . S
C670 H655 0.959 . S
C670 H656 0.961 . S
C670 C669 1.502 . S
C671 H657 0.960 . S
C671 H658 0.961 . S
C671 H659 0.959 . S
C671 C669 1.561 . S
C672 C669 1.526 . S
C672 C673 1.396 . S
C672 C677 1.390 . S
C673 C667 1.465 . S
C673 C672 1.396 . S
C673 C674 1.399 . S
C674 H660 0.929 . S
C674 C673 1.399 . S
C674 C675 1.385 . S
C675 H661 0.931 . S
C675 C674 1.385 . S
C675 C676 1.389 . S
C676 C675 1.389 . S
C676 C677 1.387 . S
C677 H662 0.930 . S
C677 C672 1.390 . S
C677 C676 1.387 . S
H678 C690 0.930 . S
H679 C692 0.930 . S
H680 C693 0.930 . S
H681 C697 0.959 . S
H682 C697 0.959 . S
H683 C697 0.961 . S
H684 C698 0.960 . S
H685 C698 0.961 . S
H686 C698 0.959 . S
H687 C701 0.929 . S
H688 C702 0.931 . S
H689 C704 0.930 . S
C690 H678 0.930 . S
C690 C691 1.399 . S
C690 C695 1.399 . S
C691 C690 1.399 . S
C691 C692 1.376 . S
C692 H679 0.930 . S
C692 C691 1.376 . S
C692 C693 1.388 . S
C693 H680 0.930 . S
C693 C692 1.388 . S
C693 C694 1.390 . S
C694 C693 1.390 . S
C694 C695 1.394 . S
C694 C700 1.465 . S
C695 C690 1.399 . S
C695 C694 1.394 . S
C695 C696 1.516 . S
C696 C695 1.516 . S
C696 C697 1.502 . S
C696 C698 1.561 . S
C696 C699 1.526 . S
C697 H681 0.959 . S
C697 H682 0.959 . S
C697 H683 0.961 . S
C697 C696 1.502 . S
C698 H684 0.960 . S
C698 H685 0.961 . S
C698 H686 0.959 . S
C698 C696 1.561 . S
C699 C696 1.526 . S
C699 C700 1.396 . S
C699 C704 1.390 . S
C700 C694 1.465 . S
C700 C699 1.396 . S
C700 C701 1.399 . S
C701 H687 0.929 . S
C701 C700 1.399 . S
C701 C702 1.385 . S
C702 H688 0.931 . S
C702 C701 1.385 . S
C702 C703 1.389 . S
C703 C702 1.389 . S
C703 C704 1.387 . S
C704 H689 0.930 . S
C704 C699 1.390 . S
C704 C703 1.387 . S
H705 C717 0.930 . S
H706 C719 0.930 . S
H707 C720 0.930 . S
H708 C724 0.959 . S
H709 C724 0.959 . S
H710 C724 0.961 . S
H711 C725 0.960 . S
H712 C725 0.961 . S
H713 C725 0.959 . S
H714 C728 0.929 . S
H715 C729 0.931 . S
H716 C731 0.930 . S
C717 H705 0.930 . S
C717 C718 1.399 . S
C717 C722 1.399 . S
C718 C717 1.399 . S
C718 C719 1.376 . S
C719 H706 0.930 . S
C719 C718 1.376 . S
C719 C720 1.388 . S
C720 H707 0.930 . S
C720 C719 1.388 . S
C720 C721 1.390 . S
C721 C720 1.390 . S
C721 C722 1.394 . S
C721 C727 1.465 . S
C722 C717 1.399 . S
C722 C721 1.394 . S
C722 C723 1.516 . S
C723 C722 1.516 . S
C723 C724 1.502 . S
C723 C725 1.561 . S
C723 C726 1.526 . S
C724 H708 0.959 . S
C724 H709 0.959 . S
C724 H710 0.961 . S
C724 C723 1.502 . S
C725 H711 0.960 . S
C725 H712 0.961 . S
C725 H713 0.959 . S
C725 C723 1.561 . S
C726 C723 1.526 . S
C726 C727 1.396 . S
C726 C731 1.390 . S
C727 C721 1.465 . S
C727 C726 1.396 . S
C727 C728 1.399 . S
C728 H714 0.929 . S
C728 C727 1.399 . S
C728 C729 1.385 . S
C729 H715 0.931 . S
C729 C728 1.385 . S
C729 C730 1.389 . S
C730 C729 1.389 . S
C730 C731 1.387 . S
C731 H716 0.930 . S
C731 C726 1.390 . S
C731 C730 1.387 . S
H732 C744 0.930 . S
H733 C746 0.930 . S
H734 C747 0.930 . S
H735 C751 0.959 . S
H736 C751 0.959 . S
H737 C751 0.961 . S
H738 C752 0.960 . S
H739 C752 0.961 . S
H740 C752 0.959 . S
H741 C755 0.929 . S
H742 C756 0.931 . S
H743 C758 0.930 . S
C744 H732 0.930 . S
C744 C745 1.399 . S
C744 C749 1.399 . S
C745 C744 1.399 . S
C745 C746 1.376 . S
C746 H733 0.930 . S
C746 C745 1.376 . S
C746 C747 1.388 . S
C747 H734 0.930 . S
C747 C746 1.388 . S
C747 C748 1.390 . S
C748 C747 1.390 . S
C748 C749 1.394 . S
C748 C754 1.465 . S
C749 C744 1.399 . S
C749 C748 1.394 . S
C749 C750 1.516 . S
C750 C749 1.516 . S
C750 C751 1.502 . S
C750 C752 1.561 . S
C750 C753 1.526 . S
C751 H735 0.959 . S
C751 H736 0.959 . S
C751 H737 0.961 . S
C751 C750 1.502 . S
C752 H738 0.960 . S
C752 H739 0.961 . S
C752 H740 0.959 . S
C752 C750 1.561 . S
C753 C750 1.526 . S
C753 C754 1.396 . S
C753 C758 1.390 . S
C754 C748 1.465 . S
C754 C753 1.396 . S
C754 C755 1.399 . S
C755 H741 0.929 . S
C755 C754 1.399 . S
C755 C756 1.385 . S
C756 H742 0.931 . S
C756 C755 1.385 . S
C756 C757 1.389 . S
C757 C756 1.389 . S
C757 C758 1.387 . S
C758 H743 0.930 . S
C758 C753 1.390 . S
C758 C757 1.387 . S
H759 C771 0.930 . S
H760 C773 0.930 . S
H761 C774 0.930 . S
H762 C778 0.959 . S
H763 C778 0.959 . S
H764 C778 0.961 . S
H765 C779 0.960 . S
H766 C779 0.961 . S
H767 C779 0.959 . S
H768 C782 0.929 . S
H769 C783 0.931 . S
H770 C785 0.930 . S
C771 H759 0.930 . S
C771 C772 1.399 . S
C771 C776 1.399 . S
C772 C771 1.399 . S
C772 C773 1.376 . S
C773 H760 0.930 . S
C773 C772 1.376 . S
C773 C774 1.388 . S
C774 H761 0.930 . S
C774 C773 1.388 . S
C774 C775 1.390 . S
C775 C774 1.390 . S
C775 C776 1.394 . S
C775 C781 1.465 . S
C776 C771 1.399 . S
C776 C775 1.394 . S
C776 C777 1.516 . S
C777 C776 1.516 . S
C777 C778 1.502 . S
C777 C779 1.561 . S
C777 C780 1.526 . S
C778 H762 0.959 . S
C778 H763 0.959 . S
C778 H764 0.961 . S
C778 C777 1.502 . S
C779 H765 0.960 . S
C779 H766 0.961 . S
C779 H767 0.959 . S
C779 C777 1.561 . S
C780 C777 1.526 . S
C780 C781 1.396 . S
C780 C785 1.390 . S
C781 C775 1.465 . S
C781 C780 1.396 . S
C781 C782 1.399 . S
C782 H768 0.929 . S
C782 C781 1.399 . S
C782 C783 1.385 . S
C783 H769 0.931 . S
C783 C782 1.385 . S
C783 C784 1.389 . S
C784 C783 1.389 . S
C784 C785 1.387 . S
C785 H770 0.930 . S
C785 C780 1.390 . S
C785 C784 1.387 . S
H786 C798 0.930 . S
H787 C800 0.930 . S
H788 C801 0.930 . S
H789 C805 0.959 . S
H790 C805 0.959 . S
H791 C805 0.961 . S
H792 C806 0.960 . S
H793 C806 0.961 . S
H794 C806 0.959 . S
H795 C809 0.929 . S
H796 C810 0.931 . S
H797 C812 0.930 . S
C798 H786 0.930 . S
C798 C799 1.399 . S
C798 C803 1.399 . S
C799 C798 1.399 . S
C799 C800 1.376 . S
C800 H787 0.930 . S
C800 C799 1.376 . S
C800 C801 1.388 . S
C801 H788 0.930 . S
C801 C800 1.388 . S
C801 C802 1.390 . S
C802 C801 1.390 . S
C802 C803 1.394 . S
C802 C808 1.465 . S
C803 C798 1.399 . S
C803 C802 1.394 . S
C803 C804 1.516 . S
C804 C803 1.516 . S
C804 C805 1.502 . S
C804 C806 1.561 . S
C804 C807 1.526 . S
C805 H789 0.959 . S
C805 H790 0.959 . S
C805 H791 0.961 . S
C805 C804 1.502 . S
C806 H792 0.960 . S
C806 H793 0.961 . S
C806 H794 0.959 . S
C806 C804 1.561 . S
C807 C804 1.526 . S
C807 C808 1.396 . S
C807 C812 1.390 . S
C808 C802 1.465 . S
C808 C807 1.396 . S
C808 C809 1.399 . S
C809 H795 0.929 . S
C809 C808 1.399 . S
C809 C810 1.385 . S
C810 H796 0.931 . S
C810 C809 1.385 . S
C810 C811 1.389 . S
C811 C810 1.389 . S
C811 C812 1.387 . S
C812 H797 0.930 . S
C812 C807 1.390 . S
C812 C811 1.387 . S
H813 C825 0.930 . S
H814 C827 0.930 . S
H815 C828 0.930 . S
H816 C832 0.959 . S
H817 C832 0.959 . S
H818 C832 0.961 . S
H819 C833 0.960 . S
H820 C833 0.961 . S
H821 C833 0.959 . S
H822 C836 0.929 . S
H823 C837 0.931 . S
H824 C839 0.930 . S
C825 H813 0.930 . S
C825 C826 1.399 . S
C825 C830 1.399 . S
C826 C825 1.399 . S
C826 C827 1.376 . S
C827 H814 0.930 . S
C827 C826 1.376 . S
C827 C828 1.388 . S
C828 H815 0.930 . S
C828 C827 1.388 . S
C828 C829 1.390 . S
C829 C828 1.390 . S
C829 C830 1.394 . S
C829 C835 1.465 . S
C830 C825 1.399 . S
C830 C829 1.394 . S
C830 C831 1.516 . S
C831 C830 1.516 . S
C831 C832 1.502 . S
C831 C833 1.561 . S
C831 C834 1.526 . S
C832 H816 0.959 . S
C832 H817 0.959 . S
C832 H818 0.961 . S
C832 C831 1.502 . S
C833 H819 0.960 . S
C833 H820 0.961 . S
C833 H821 0.959 . S
C833 C831 1.561 . S
C834 C831 1.526 . S
C834 C835 1.396 . S
C834 C839 1.390 . S
C835 C829 1.465 . S
C835 C834 1.396 . S
C835 C836 1.399 . S
C836 H822 0.929 . S
C836 C835 1.399 . S
C836 C837 1.385 . S
C837 H823 0.931 . S
C837 C836 1.385 . S
C837 C838 1.389 . S
C838 C837 1.389 . S
C838 C839 1.387 . S
C839 H824 0.930 . S
C839 C834 1.390 . S
C839 C838 1.387 . S
C205 C45 1.555 . S
C217 C114 1.568 . S
C232 C30 1.543 . S
C244 C125 1.579 . S
C259 C39 1.545 . S
C271 C136 1.556 . S
C298 C147 1.556 1_554 S
C286 C34 1.572 . S
C313 C97 1.554 . S
C325 C158 1.569 . S
C352 C169 1.578 . S
C340 C82 1.540 . S
C379 C180 1.571 . S
C367 C91 1.534 . S
C406 C191 1.575 . S
C394 C86 1.552 . S
C433 C175 1.556 . S
C421 C26 1.474 . S
C460 C185 1.434 . S
C448 C36 1.460 . S
C487 C152 1.558 . S
C475 C32 1.476 . S
C514 C163 1.520 . S
C502 C42 1.441 . S
C529 C18 1.609 . S
C541 C164 1.613 . S
C568 C174 1.620 . S
C556 C50 1.494 . S
C583 C4 1.658 . S
C595 C186 1.655 . S
C610 C48 1.586 . S
C622 C153 1.565 . S
C649 C131 1.540 . S
C637 C78 1.450 . S
C664 C88 1.468 . S
C676 C142 1.563 . S
C703 C108 1.534 . S
C691 C84 1.432 . S
C730 C119 1.480 . S
C718 C94 1.467 . S
C757 C120 1.664 . S
C745 C70 1.565 . S
C784 C130 1.642 . S
C772 C102 1.521 . S
C799 C56 1.543 . S
C811 C141 1.606 . S
C826 C100 1.617 . S
C838 C109 1.591 . S
