# Generated by pormake.
# Topology pyr, (3,6)-cn, num edge types: 1
# Building blocks:
#     Node 0, Type 0, BuildingBlock: BELTOD_clean_linker_0, # of connection points: 3
#     Node 1, Type 0, BuildingBlock: BELTOD_clean_linker_0, # of connection points: 3
#     Node 2, Type 0, BuildingBlock: BELTOD_clean_linker_0, # of connection points: 3
#     Node 3, Type 0, BuildingBlock: BELTOD_clean_linker_0, # of connection points: 3
#     Node 4, Type 0, BuildingBlock: BELTOD_clean_linker_0, # of connection points: 3
#     Node 5, Type 0, BuildingBlock: BELTOD_clean_linker_0, # of connection points: 3
#     Node 6, Type 0, BuildingBlock: BELTOD_clean_linker_0, # of connection points: 3
#     Node 7, Type 0, BuildingBlock: BELTOD_clean_linker_0, # of connection points: 3
#     Node 8, Type 1, BuildingBlock: MIFKUJ_clean_sbu_0, # of connection points: 6
#     Node 9, Type 1, BuildingBlock: MIFKUJ_clean_sbu_0, # of connection points: 6
#     Node 10, Type 1, BuildingBlock: MIFKUJ_clean_sbu_0, # of connection points: 6
#     Node 11, Type 1, BuildingBlock: MIFKUJ_clean_sbu_0, # of connection points: 6
#     Edge 12, Type (0, 1), BuildingBlock: TEMPAE_clean_linker_10, # of connection points: 2
#     Edge 13, Type (0, 1), BuildingBlock: TEMPAE_clean_linker_10, # of connection points: 2
#     Edge 14, Type (0, 1), BuildingBlock: TEMPAE_clean_linker_10, # of connection points: 2
#     Edge 15, Type (0, 1), BuildingBlock: TEMPAE_clean_linker_10, # of connection points: 2
#     Edge 16, Type (0, 1), BuildingBlock: TEMPAE_clean_linker_10, # of connection points: 2
#     Edge 17, Type (0, 1), BuildingBlock: TEMPAE_clean_linker_10, # of connection points: 2
#     Edge 18, Type (0, 1), BuildingBlock: TEMPAE_clean_linker_10, # of connection points: 2
#     Edge 19, Type (0, 1), BuildingBlock: TEMPAE_clean_linker_10, # of connection points: 2
#     Edge 20, Type (0, 1), BuildingBlock: TEMPAE_clean_linker_10, # of connection points: 2
#     Edge 21, Type (0, 1), BuildingBlock: TEMPAE_clean_linker_10, # of connection points: 2
#     Edge 22, Type (0, 1), BuildingBlock: TEMPAE_clean_linker_10, # of connection points: 2
#     Edge 23, Type (0, 1), BuildingBlock: TEMPAE_clean_linker_10, # of connection points: 2
#     Edge 24, Type (0, 1), BuildingBlock: TEMPAE_clean_linker_10, # of connection points: 2
#     Edge 25, Type (0, 1), BuildingBlock: TEMPAE_clean_linker_10, # of connection points: 2
#     Edge 26, Type (0, 1), BuildingBlock: TEMPAE_clean_linker_10, # of connection points: 2
#     Edge 27, Type (0, 1), BuildingBlock: TEMPAE_clean_linker_10, # of connection points: 2
#     Edge 28, Type (0, 1), BuildingBlock: TEMPAE_clean_linker_10, # of connection points: 2
#     Edge 29, Type (0, 1), BuildingBlock: TEMPAE_clean_linker_10, # of connection points: 2
#     Edge 30, Type (0, 1), BuildingBlock: TEMPAE_clean_linker_10, # of connection points: 2
#     Edge 31, Type (0, 1), BuildingBlock: TEMPAE_clean_linker_10, # of connection points: 2
#     Edge 32, Type (0, 1), BuildingBlock: TEMPAE_clean_linker_10, # of connection points: 2
#     Edge 33, Type (0, 1), BuildingBlock: TEMPAE_clean_linker_10, # of connection points: 2
#     Edge 34, Type (0, 1), BuildingBlock: TEMPAE_clean_linker_10, # of connection points: 2
#     Edge 35, Type (0, 1), BuildingBlock: TEMPAE_clean_linker_10, # of connection points: 2
# Relax obj value: 0.031
# Max RMSD: 0.086
# Mean RMSD: 0.052
data_MOF--net-pyr--node1-MIFKUJ_clean_sbu_0--node2-BELTOD_clean_linker_0--edge1-TEMPAE_clean_linker_10
_symmetry_space_group_name_H-M    P1
_symmetry_Int_Tables_number       1
_symmetry_cell_setting            triclinic
loop_
_symmetry_equiv_pos_as_xyz
'x, y, z'
_cell_length_a     45.198338
_cell_length_b     40.855806
_cell_length_c     43.392342
_cell_angle_alpha  85.832706
_cell_angle_beta   88.30504
_cell_angle_gamma 95.922722
loop_
_atom_site_label
_atom_site_type_symbol
_atom_site_fract_x
_atom_site_fract_y
_atom_site_fract_z
_atom_type_partial_charge
P0 P 0.24177 0.2341 0.25224 0.0
H1 H 0.29874 0.25215 0.21913 0.0
H2 H 0.3304 0.22138 0.18776 0.0
H3 H 0.26856 0.13372 0.2068 0.0
H4 H 0.2367 0.16489 0.23732 0.0
H5 H 0.20273 0.28481 0.26194 0.0
H6 H 0.16771 0.3112 0.22876 0.0
H7 H 0.19492 0.25708 0.1528 0.0
H8 H 0.22961 0.23054 0.18602 0.0
H9 H 0.25352 0.19975 0.31126 0.0
H10 H 0.17846 0.20848 0.25312 0.0
O11 O 0.26259 0.26144 0.27134 0.0
H12 H 0.22148 0.1638 0.34924 0.0
H13 H 0.14655 0.17333 0.291 0.0
C14 C 0.2658 0.21059 0.2311 0.0
C15 C 0.29221 0.22622 0.21676 0.0
C16 C 0.31027 0.20859 0.19889 0.0
C17 C 0.30209 0.17503 0.19491 0.0
C18 C 0.27539 0.15958 0.20918 0.0
C19 C 0.25732 0.17728 0.22695 0.0
C20 C 0.21901 0.25607 0.22638 0.0
C21 C 0.2014 0.27896 0.23804 0.0
C22 C 0.18124 0.29374 0.21919 0.0
C23 C 0.17857 0.28601 0.1883 0.0
C24 C 0.1967 0.26358 0.17649 0.0
C25 C 0.2166 0.24848 0.19548 0.0
C26 C 0.21825 0.20745 0.27978 0.0
C27 C 0.23017 0.19411 0.30677 0.0
C28 C 0.21194 0.17352 0.32833 0.0
C29 C 0.1815 0.16621 0.32318 0.0
C30 C 0.16982 0.17911 0.2958 0.0
C31 C 0.1881 0.19928 0.27414 0.0
P32 P 0.36534 0.88653 0.65613 0.0
H33 H 0.4123 0.92892 0.68262 0.0
H34 H 0.42588 0.9372 0.73569 0.0
H35 H 0.35391 0.86432 0.76936 0.0
H36 H 0.34027 0.85624 0.71587 0.0
H37 H 0.41687 0.87091 0.62003 0.0
H38 H 0.43278 0.819 0.60452 0.0
H39 H 0.35633 0.76552 0.65418 0.0
H40 H 0.34066 0.81776 0.66989 0.0
H41 H 0.31753 0.91332 0.69083 0.0
H42 H 0.32758 0.86375 0.60721 0.0
O43 O 0.38291 0.91729 0.63294 0.0
H44 H 0.26565 0.91966 0.67911 0.0
H45 H 0.27584 0.87103 0.59512 0.0
C46 C 0.37499 0.89238 0.69539 0.0
C47 C 0.39933 0.9148 0.70136 0.0
C48 C 0.4072 0.91936 0.73172 0.0
C49 C 0.39091 0.90144 0.75666 0.0
C50 C 0.36663 0.87873 0.75059 0.0
C51 C 0.3589 0.87402 0.72011 0.0
C52 C 0.37733 0.84813 0.64563 0.0
C53 C 0.40349 0.84805 0.62755 0.0
C54 C 0.41252 0.81836 0.61863 0.0
C55 C 0.39564 0.7882 0.62787 0.0
C56 C 0.36985 0.78834 0.64681 0.0
C57 C 0.3608 0.81813 0.65565 0.0
C58 C 0.32618 0.88719 0.65033 0.0
C59 C 0.30843 0.90298 0.67044 0.0
C60 C 0.27886 0.9067 0.66375 0.0
C61 C 0.26697 0.89539 0.6365 0.0
C62 C 0.28461 0.87944 0.61648 0.0
C63 C 0.31404 0.8753 0.6234 0.0
P64 P 0.69821 0.31717 0.79127 0.0
H65 H 0.75617 0.30116 0.81128 0.0
H66 H 0.79314 0.32814 0.84363 0.0
H67 H 0.73593 0.40468 0.85724 0.0
H68 H 0.69886 0.37744 0.8246 0.0
H69 H 0.66949 0.25172 0.78156 0.0
H70 H 0.63618 0.21176 0.81391 0.0
H71 H 0.63515 0.2809 0.88471 0.0
H72 H 0.66936 0.32039 0.85245 0.0
H73 H 0.71557 0.35577 0.73358 0.0
H74 H 0.63977 0.34279 0.79761 0.0
O75 O 0.71647 0.29546 0.76725 0.0
H76 H 0.68914 0.39103 0.69863 0.0
H77 H 0.61336 0.37888 0.76316 0.0
C78 C 0.72511 0.33772 0.81502 0.0
C79 C 0.75163 0.32387 0.82102 0.0
C80 C 0.77274 0.33929 0.83953 0.0
C81 C 0.76751 0.36865 0.85277 0.0
C82 C 0.7405 0.38203 0.84741 0.0
C83 C 0.71945 0.36666 0.8286 0.0
C84 C 0.67238 0.28872 0.81487 0.0
C85 C 0.66217 0.25827 0.80408 0.0
C86 C 0.64283 0.23554 0.82252 0.0
C87 C 0.63299 0.24303 0.85201 0.0
C88 C 0.64268 0.27408 0.86237 0.0
C89 C 0.66218 0.29674 0.84391 0.0
C90 C 0.67942 0.34613 0.76783 0.0
C91 C 0.69332 0.36085 0.74026 0.0
C92 C 0.67823 0.38127 0.72041 0.0
C93 C 0.64898 0.38766 0.72793 0.0
C94 C 0.63563 0.37399 0.75636 0.0
C95 C 0.65077 0.35343 0.77617 0.0
P96 P 0.79965 0.69392 0.2505 0.0
H97 H 0.83933 0.75408 0.23491 0.0
H98 H 0.87186 0.78921 0.26589 0.0
H99 H 0.84857 0.72168 0.34636 0.0
H100 H 0.81706 0.68626 0.31503 0.0
H101 H 0.79666 0.67644 0.1865 0.0
H102 H 0.82671 0.64402 0.15537 0.0
H103 H 0.87696 0.61936 0.23549 0.0
H104 H 0.84711 0.65265 0.26636 0.0
H105 H 0.75543 0.71708 0.29076 0.0
H106 H 0.78042 0.62307 0.26615 0.0
O107 O 0.78374 0.71966 0.22607 0.0
H108 H 0.71636 0.68904 0.32622 0.0
H109 H 0.74086 0.59474 0.301 0.0
C110 C 0.82516 0.71817 0.27292 0.0
C111 C 0.84142 0.74682 0.25919 0.0
C112 C 0.85992 0.76688 0.27693 0.0
C113 C 0.86251 0.75849 0.3087 0.0
C114 C 0.84725 0.72881 0.32195 0.0
C115 C 0.82889 0.70871 0.30413 0.0
C116 C 0.82 0.66733 0.22858 0.0
C117 C 0.81406 0.66397 0.19741 0.0
C118 C 0.83116 0.6452 0.17967 0.0
C119 C 0.85438 0.6292 0.19288 0.0
C120 C 0.85959 0.6318 0.22448 0.0
C121 C 0.84247 0.65067 0.24219 0.0
C122 C 0.77065 0.67218 0.27572 0.0
C123 C 0.75232 0.69035 0.29285 0.0
C124 C 0.72993 0.67428 0.31304 0.0
C125 C 0.72537 0.63962 0.3164 0.0
C126 C 0.74398 0.62145 0.29924 0.0
C127 C 0.76648 0.63762 0.27909 0.0
P128 P 0.82803 0.85745 0.82164 0.0
H129 H 0.81008 0.89268 0.87365 0.0
H130 H 0.76201 0.90185 0.89561 0.0
H131 H 0.7185 0.83858 0.83103 0.0
H132 H 0.76722 0.83132 0.80772 0.0
H133 H 0.88504 0.84081 0.84394 0.0
H134 H 0.90367 0.78912 0.86066 0.0
H135 H 0.81915 0.73626 0.84123 0.0
H136 H 0.80009 0.78876 0.82604 0.0
H137 H 0.82837 0.91637 0.78049 0.0
H138 H 0.8267 0.81176 0.77159 0.0
O139 O 0.85201 0.88758 0.83322 0.0
H140 H 0.83731 0.92695 0.72497 0.0
H141 H 0.83464 0.82199 0.71569 0.0
C142 C 0.79216 0.86163 0.83886 0.0
C143 C 0.79024 0.88078 0.86413 0.0
C144 C 0.76259 0.88564 0.87699 0.0
C145 C 0.73618 0.87081 0.86529 0.0
C146 C 0.73829 0.85075 0.8404 0.0
C147 C 0.7661 0.84634 0.82719 0.0
C148 C 0.84105 0.81871 0.83413 0.0
C149 C 0.87037 0.81819 0.84349 0.0
C150 C 0.88116 0.78841 0.85265 0.0
C151 C 0.86305 0.75833 0.85203 0.0
C152 C 0.83363 0.75893 0.84234 0.0
C153 C 0.8227 0.78893 0.83359 0.0
C154 C 0.82771 0.86343 0.78024 0.0
C155 C 0.82921 0.8956 0.76644 0.0
C156 C 0.83401 0.90156 0.73455 0.0
C157 C 0.83705 0.87531 0.7158 0.0
C158 C 0.83299 0.8428 0.72953 0.0
C159 C 0.82838 0.83691 0.76155 0.0
P160 P 0.71082 0.2114 0.29083 0.0
H161 H 0.71591 0.28005 0.30618 0.0
H162 H 0.6846 0.31102 0.33768 0.0
H163 H 0.62641 0.222 0.36299 0.0
H164 H 0.65745 0.19106 0.33062 0.0
H165 H 0.77333 0.20259 0.28019 0.0
H166 H 0.80779 0.1706 0.30843 0.0
H167 H 0.73828 0.1365 0.37727 0.0
H168 H 0.70363 0.16831 0.3485 0.0
H169 H 0.66085 0.22543 0.25387 0.0
H170 H 0.70814 0.14118 0.27753 0.0
O171 O 0.73062 0.23888 0.26595 0.0
H172 H 0.62966 0.19291 0.21991 0.0
H173 H 0.6765 0.10815 0.24401 0.0
C174 C 0.68883 0.23336 0.31587 0.0
C175 C 0.69642 0.26713 0.31842 0.0
C176 C 0.67853 0.28482 0.33634 0.0
C177 C 0.65304 0.26886 0.35244 0.0
C178 C 0.64597 0.23477 0.35074 0.0
C179 C 0.66367 0.21716 0.33235 0.0
C180 C 0.73608 0.18837 0.31257 0.0
C181 C 0.76552 0.18852 0.30151 0.0
C182 C 0.78526 0.1703 0.31775 0.0
C183 C 0.77586 0.15134 0.34529 0.0
C184 C 0.74616 0.15085 0.35611 0.0
C185 C 0.7264 0.16921 0.33981 0.0
C186 C 0.68655 0.18566 0.26843 0.0
C187 C 0.66416 0.19973 0.25213 0.0
C188 C 0.64626 0.18104 0.23285 0.0
C189 C 0.65047 0.14784 0.22941 0.0
C190 C 0.67283 0.13369 0.24605 0.0
C191 C 0.6908 0.15251 0.26538 0.0
P192 P 0.36041 0.63138 0.1733 0.0
H193 H 0.33209 0.62812 0.11457 0.0
H194 H 0.28029 0.61844 0.10016 0.0
H195 H 0.25241 0.60589 0.19676 0.0
H196 H 0.30457 0.61559 0.21107 0.0
H197 H 0.41766 0.67072 0.17446 0.0
H198 H 0.43373 0.72911 0.16021 0.0
H199 H 0.34243 0.74658 0.14537 0.0
H200 H 0.32648 0.68847 0.15974 0.0
H201 H 0.38111 0.56968 0.1973 0.0
H202 H 0.35696 0.65903 0.23384 0.0
O203 O 0.38128 0.61355 0.14838 0.0
H204 H 0.39693 0.55051 0.24826 0.0
H205 H 0.37287 0.63995 0.2851 0.0
C206 C 0.32216 0.62186 0.16384 0.0
C207 C 0.31486 0.62298 0.13266 0.0
C208 C 0.28523 0.61785 0.12446 0.0
C209 C 0.26229 0.61152 0.14734 0.0
C210 C 0.26967 0.61046 0.17866 0.0
C211 C 0.29943 0.6159 0.18686 0.0
C212 C 0.37101 0.67514 0.16769 0.0
C213 C 0.40108 0.68726 0.16862 0.0
C214 C 0.4102 0.72061 0.16062 0.0
C215 C 0.38932 0.74227 0.15141 0.0
C216 C 0.35901 0.73031 0.15197 0.0
C217 C 0.3499 0.69703 0.1602 0.0
C218 C 0.36845 0.61603 0.21173 0.0
C219 C 0.37907 0.5851 0.21636 0.0
C220 C 0.3882 0.57422 0.24545 0.0
C221 C 0.38653 0.59395 0.27054 0.0
C222 C 0.3744 0.62424 0.26619 0.0
C223 C 0.36544 0.63521 0.23693 0.0
P224 P 0.21187 0.30329 0.75397 0.0
H225 H 0.21491 0.23517 0.7393 0.0
H226 H 0.18487 0.19874 0.70745 0.0
H227 H 0.1295 0.27661 0.68495 0.0
H228 H 0.15992 0.31311 0.71674 0.0
H229 H 0.27417 0.3249 0.76378 0.0
H230 H 0.31375 0.35529 0.73046 0.0
H231 H 0.25169 0.36549 0.65736 0.0
H232 H 0.21203 0.33574 0.69114 0.0
H233 H 0.15295 0.28899 0.78346 0.0
H234 H 0.22092 0.37158 0.77204 0.0
O235 O 0.22819 0.2799 0.78015 0.0
H236 H 0.12254 0.32055 0.81493 0.0
H237 H 0.19111 0.40301 0.80473 0.0
C238 C 0.1893 0.27659 0.73077 0.0
C239 C 0.19617 0.24433 0.72774 0.0
C240 C 0.17889 0.22349 0.70964 0.0
C241 C 0.15461 0.23472 0.694 0.0
C242 C 0.14806 0.2673 0.69673 0.0
C243 C 0.16533 0.28809 0.71497 0.0
C244 C 0.24031 0.32745 0.72973 0.0
C245 C 0.26907 0.33366 0.74059 0.0
C246 C 0.29172 0.35087 0.72144 0.0
C247 C 0.28599 0.36234 0.69106 0.0
C248 C 0.25684 0.357 0.68062 0.0
C249 C 0.23417 0.3398 0.69987 0.0
C250 C 0.18885 0.32822 0.77478 0.0
C251 C 0.16119 0.31411 0.78744 0.0
C252 C 0.14397 0.33208 0.80579 0.0
C253 C 0.15439 0.36433 0.81249 0.0
C254 C 0.18218 0.37845 0.79964 0.0
C255 C 0.19931 0.36047 0.78101 0.0
Zn256 Zn 0.03543 0.00946 0.53749 0.0
Zn257 Zn 0.97171 0.98456 0.46964 0.0
C258 C 0.07162 0.06537 0.55527 0.0
O259 O 0.09176 0.05062 0.54071 0.0
C260 C 0.93988 0.92501 0.45294 0.0
O261 O 0.91891 0.93575 0.46993 0.0
O262 O 0.06785 0.98106 0.54878 0.0
O263 O 0.99771 0.98662 0.55726 0.0
O264 O 0.97131 0.97725 0.51625 0.0
C265 C 0.07422 0.97894 0.57715 0.0
O266 O 0.05918 0.99443 0.59686 0.0
O267 O 0.04468 0.05276 0.55624 0.0
C268 C 0.93154 0.01381 0.42993 0.0
O269 O 0.94751 0.00021 0.40956 0.0
O270 O 0.93769 0.01047 0.45829 0.0
O271 O 0.00868 0.00984 0.4495 0.0
O272 O 0.03332 0.017 0.49162 0.0
O273 O 0.96534 0.94147 0.45024 0.0
C274 C 0.97408 0.97447 0.54538 0.0
C275 C 0.03174 0.02164 0.46252 0.0
Zn276 Zn 0.51726 0.98366 0.99557 0.0
Zn277 Zn 0.47799 0.02804 0.02995 0.0
C278 C 0.47318 0.94897 0.96227 0.0
O279 O 0.48278 0.92449 0.97916 0.0
C280 C 0.52376 0.06277 0.06134 0.0
O281 O 0.51506 0.08698 0.04339 0.0
O282 O 0.54796 0.95735 0.97815 0.0
O283 O 0.53556 0.03071 0.99201 0.0
O284 O 0.49247 0.05089 0.98846 0.0
C285 C 0.56031 0.96807 0.9522 0.0
O286 O 0.55297 0.99564 0.93848 0.0
O287 O 0.48376 0.97834 0.9663 0.0
C288 C 0.43724 0.04467 0.07472 0.0
O289 O 0.44784 0.01931 0.08926 0.0
O290 O 0.44667 0.0537 0.04722 0.0
O291 O 0.46037 0.98041 0.03432 0.0
O292 O 0.50415 0.96167 0.0371 0.0
O293 O 0.51143 0.03363 0.05943 0.0
C294 C 0.52025 0.05326 0.9819 0.0
C295 C 0.47649 0.95844 0.04408 0.0
Zn296 Zn 0.51952 0.47746 0.49158 0.0
Zn297 Zn 0.49738 0.53237 0.53004 0.0
C298 C 0.55433 0.51277 0.4431 0.0
O299 O 0.53589 0.49303 0.42828 0.0
C300 C 0.45957 0.49591 0.57522 0.0
O301 O 0.47654 0.51533 0.59183 0.0
O302 O 0.5286 0.43576 0.47264 0.0
O303 O 0.52627 0.46854 0.53687 0.0
O304 O 0.53542 0.52011 0.54857 0.0
C305 C 0.5556 0.42988 0.47464 0.0
O306 O 0.57386 0.44986 0.48943 0.0
O307 O 0.55136 0.51216 0.4724 0.0
C308 C 0.46056 0.5809 0.54615 0.0
O309 O 0.44157 0.56133 0.53178 0.0
O310 O 0.48726 0.57397 0.54821 0.0
O311 O 0.49475 0.5414 0.484 0.0
O312 O 0.47985 0.4898 0.47684 0.0
O313 O 0.46461 0.49741 0.54614 0.0
C314 C 0.53861 0.4897 0.55377 0.0
C315 C 0.47961 0.52038 0.46904 0.0
Zn316 Zn 0.98646 0.51982 0.97922 0.0
Zn317 Zn 0.03145 0.48192 0.03649 0.0
C318 C 0.93977 0.48622 0.95189 0.0
O319 O 0.95597 0.50186 0.92868 0.0
C320 C 0.06248 0.53363 0.06975 0.0
O321 O 0.03979 0.52741 0.08967 0.0
O322 O 0.97612 0.55875 0.95226 0.0
O323 O 0.99369 0.53779 0.02085 0.0
O324 O 0.9905 0.49168 0.05045 0.0
C325 C 0.95491 0.57333 0.96276 0.0
O326 O 0.94287 0.5637 0.99025 0.0
O327 O 0.94889 0.48809 0.97924 0.0
C328 C 0.04395 0.41549 0.05902 0.0
O329 O 0.03365 0.40588 0.03278 0.0
O330 O 0.04336 0.44536 0.06511 0.0
O331 O 0.04079 0.47021 0.99335 0.0
O332 O 0.01858 0.49918 0.95719 0.0
O333 O 0.06213 0.51917 0.04477 0.0
C334 C 0.98355 0.52081 0.04521 0.0
C335 C 0.03675 0.47869 0.96518 0.0
C336 C 0.16958 0.11464 0.35804 0.0
C337 C 0.16173 0.14526 0.3462 0.0
C338 C 0.15006 0.09377 0.37838 0.0
C339 C 0.12229 0.10406 0.38733 0.0
C340 C 0.11472 0.13543 0.37616 0.0
C341 C 0.13447 0.15556 0.35558 0.0
C342 C 0.15874 0.06034 0.38951 0.0
C343 C 0.08548 0.14746 0.38542 0.0
C344 C 0.05687 0.04068 0.41137 0.0
C345 C 0.05609 0.04131 0.44366 0.0
C346 C 0.07879 0.06033 0.39287 0.0
C347 C 0.10035 0.0814 0.40697 0.0
C348 C 0.10004 0.08178 0.43958 0.0
C349 C 0.07794 0.06163 0.45756 0.0
C350 C 0.07848 0.05903 0.35818 0.0
C351 C 0.12252 0.10413 0.45543 0.0
H352 H 0.19058 0.10659 0.35061 0.0
H353 H 0.12856 0.17943 0.3467 0.0
H354 H 0.15734 0.05726 0.41514 0.0
H355 H 0.14295 0.04069 0.38097 0.0
H356 H 0.18164 0.05664 0.38148 0.0
H357 H 0.08373 0.17321 0.37606 0.0
H358 H 0.06677 0.13123 0.37688 0.0
H359 H 0.08277 0.14626 0.41099 0.0
H360 H 0.04015 0.02492 0.40043 0.0
H361 H 0.0773 0.06247 0.48243 0.0
H362 H 0.10051 0.05357 0.34911 0.0
H363 H 0.07422 0.08341 0.34723 0.0
H364 H 0.06118 0.04007 0.35097 0.0
H365 H 0.14544 0.09966 0.44831 0.0
H366 H 0.12002 0.10048 0.48104 0.0
H367 H 0.11995 0.13028 0.44827 0.0
C368 C 0.37804 0.9107 0.81178 0.0
C369 C 0.39954 0.90652 0.78882 0.0
C370 C 0.38633 0.91723 0.84186 0.0
C371 C 0.41678 0.91946 0.84906 0.0
C372 C 0.43847 0.91454 0.82611 0.0
C373 C 0.42958 0.90816 0.79629 0.0
C374 C 0.36263 0.92237 0.86575 0.0
C375 C 0.47117 0.91639 0.83294 0.0
C376 C 0.4488 0.96757 0.91398 0.0
C377 C 0.45423 0.94203 0.93578 0.0
C378 C 0.43502 0.96068 0.88628 0.0
C379 C 0.42641 0.92748 0.88034 0.0
C380 C 0.43004 0.90179 0.90314 0.0
C381 C 0.44393 0.90938 0.9306 0.0
C382 C 0.43137 0.98878 0.86259 0.0
C383 C 0.42094 0.8661 0.89777 0.0
H384 H 0.35481 0.90968 0.806 0.0
H385 H 0.4462 0.90443 0.77872 0.0
H386 H 0.36408 0.90531 0.88661 0.0
H387 H 0.36625 0.94787 0.87312 0.0
H388 H 0.33984 0.91837 0.85685 0.0
H389 H 0.48512 0.91137 0.81266 0.0
H390 H 0.47892 0.94127 0.84008 0.0
H391 H 0.47477 0.89829 0.85244 0.0
H392 H 0.45652 0.99289 0.91787 0.0
H393 H 0.44778 0.8895 0.94746 0.0
H394 H 0.40844 0.98669 0.85398 0.0
H395 H 0.44685 0.98761 0.84245 0.0
H396 H 0.4361 0.01325 0.87205 0.0
H397 H 0.39804 0.86303 0.88914 0.0
H398 H 0.42187 0.84955 0.91912 0.0
H399 H 0.43604 0.85813 0.87981 0.0
C400 C 0.60206 0.39657 0.70037 0.0
C401 C 0.63203 0.40687 0.70532 0.0
C402 C 0.58656 0.41246 0.67713 0.0
C403 C 0.60143 0.43911 0.6581 0.0
C404 C 0.63134 0.45038 0.66361 0.0
C405 C 0.64622 0.43425 0.68725 0.0
C406 C 0.55458 0.39986 0.67215 0.0
C407 C 0.64802 0.47859 0.64372 0.0
C408 C 0.57204 0.45105 0.57749 0.0
C409 C 0.55595 0.47831 0.58001 0.0
C410 C 0.58767 0.43875 0.60247 0.0
C411 C 0.58639 0.45344 0.63099 0.0
C412 C 0.57017 0.48106 0.63365 0.0
C413 C 0.55547 0.49351 0.60792 0.0
C414 C 0.60529 0.40979 0.5984 0.0
C415 C 0.56764 0.49681 0.66389 0.0
H416 H 0.59097 0.37522 0.71389 0.0
H417 H 0.66919 0.44277 0.69124 0.0
H418 H 0.54049 0.42057 0.67104 0.0
H419 H 0.55304 0.38846 0.64973 0.0
H420 H 0.54537 0.38116 0.69076 0.0
H421 H 0.67056 0.48569 0.65219 0.0
H422 H 0.65037 0.47146 0.61964 0.0
H423 H 0.63539 0.5005 0.64299 0.0
H424 H 0.57254 0.4394 0.55584 0.0
H425 H 0.54275 0.51439 0.60995 0.0
H426 H 0.59575 0.38828 0.61391 0.0
H427 H 0.62865 0.41595 0.60492 0.0
H428 H 0.60538 0.40245 0.57424 0.0
H429 H 0.55654 0.47849 0.68181 0.0
H430 H 0.55474 0.51855 0.66196 0.0
H431 H 0.5901 0.50472 0.67204 0.0
C432 C 0.86124 0.59138 0.15074 0.0
C433 C 0.87364 0.61087 0.1734 0.0
C434 C 0.87933 0.57573 0.13083 0.0
C435 C 0.91058 0.57943 0.13377 0.0
C436 C 0.92321 0.59837 0.15708 0.0
C437 C 0.90461 0.61393 0.17655 0.0
C438 C 0.86503 0.55584 0.10618 0.0
C439 C 0.95644 0.60284 0.16096 0.0
C440 C 0.95495 0.51793 0.09599 0.0
C441 C 0.96548 0.5359 0.06836 0.0
C442 C 0.93748 0.53197 0.11777 0.0
C443 C 0.93007 0.56458 0.11161 0.0
C444 C 0.94083 0.58293 0.0839 0.0
C445 C 0.95865 0.5685 0.06281 0.0
C446 C 0.92677 0.51183 0.14729 0.0
C447 C 0.93326 0.6177 0.07633 0.0
H448 H 0.83732 0.58848 0.14845 0.0
H449 H 0.91443 0.62929 0.19371 0.0
H450 H 0.87313 0.56691 0.08296 0.0
H451 H 0.87144 0.53031 0.10842 0.0
H452 H 0.84035 0.55468 0.10746 0.0
H453 H 0.96259 0.61662 0.18139 0.0
H454 H 0.96526 0.57846 0.1635 0.0
H455 H 0.96758 0.61649 0.14003 0.0
H456 H 0.96031 0.49283 0.10062 0.0
H457 H 0.96708 0.58284 0.04183 0.0
H458 H 0.90208 0.50822 0.14853 0.0
H459 H 0.93397 0.52523 0.16758 0.0
H460 H 0.93529 0.48724 0.14907 0.0
H461 H 0.90875 0.61793 0.07588 0.0
H462 H 0.94317 0.62849 0.05364 0.0
H463 H 0.94134 0.63377 0.09453 0.0
C464 C 0.35234 0.16044 0.17824 0.0
C465 C 0.3213 0.15622 0.17597 0.0
C466 C 0.37075 0.14254 0.16083 0.0
C467 C 0.35782 0.11973 0.14077 0.0
C468 C 0.32654 0.11548 0.13818 0.0
C469 C 0.30866 0.13383 0.15576 0.0
C470 C 0.40404 0.14773 0.1642 0.0
C471 C 0.31197 0.09137 0.11702 0.0
C472 C 0.40791 0.09322 0.0774 0.0
C473 C 0.41578 0.06319 0.09079 0.0
C474 C 0.38873 0.11173 0.09324 0.0
C475 C 0.37706 0.09979 0.12305 0.0
C476 C 0.38442 0.06917 0.13638 0.0
C477 C 0.40375 0.05129 0.12012 0.0
C478 C 0.38142 0.14434 0.07835 0.0
C479 C 0.37223 0.05552 0.16803 0.0
H480 H 0.36225 0.17736 0.19409 0.0
H481 H 0.28474 0.13081 0.15352 0.0
H482 H 0.41227 0.12434 0.17317 0.0
H483 H 0.41534 0.1549 0.14129 0.0
H484 H 0.41062 0.16711 0.1801 0.0
H485 H 0.28737 0.09123 0.11742 0.0
H486 H 0.32072 0.09762 0.09293 0.0
H487 H 0.31744 0.06608 0.12394 0.0
H488 H 0.41715 0.1026 0.05475 0.0
H489 H 0.4096 0.02802 0.13055 0.0
H490 H 0.3896 0.1646 0.09264 0.0
H491 H 0.35695 0.1445 0.07716 0.0
H492 H 0.39153 0.14961 0.05463 0.0
H493 H 0.37995 0.07255 0.18562 0.0
H494 H 0.37927 0.03078 0.17463 0.0
H495 H 0.34755 0.0536 0.16872 0.0
C496 C 0.2353 0.92967 0.60512 0.0
C497 C 0.23738 0.90358 0.62736 0.0
C498 C 0.20755 0.93955 0.59729 0.0
C499 C 0.18133 0.92244 0.6117 0.0
C500 C 0.18336 0.89536 0.6336 0.0
C501 C 0.21154 0.88647 0.64149 0.0
C502 C 0.20637 0.9689 0.57425 0.0
C503 C 0.15586 0.87617 0.64897 0.0
C504 C 0.11471 0.97151 0.61388 0.0
C505 C 0.10002 0.96217 0.58739 0.0
C506 C 0.14079 0.95804 0.62257 0.0
C507 C 0.15201 0.93408 0.60472 0.0
C508 C 0.13645 0.92338 0.57881 0.0
C509 C 0.1108 0.9379 0.57019 0.0
C510 C 0.15706 0.97059 0.64999 0.0
C511 C 0.14736 0.8973 0.5597 0.0
H512 H 0.25551 0.94287 0.59446 0.0
H513 H 0.21343 0.86626 0.6587 0.0
H514 H 0.19251 0.96177 0.55466 0.0
H515 H 0.1958 0.98859 0.58541 0.0
H516 H 0.22882 0.97924 0.56493 0.0
H517 H 0.16118 0.85427 0.66364 0.0
H518 H 0.1442 0.8923 0.66364 0.0
H519 H 0.14017 0.86783 0.63124 0.0
H520 H 0.1065 0.99038 0.62716 0.0
H521 H 0.09928 0.93041 0.54987 0.0
H522 H 0.17917 0.98328 0.64211 0.0
H523 H 0.16097 0.9497 0.66662 0.0
H524 H 0.14463 0.98813 0.66227 0.0
H525 H 0.16861 0.9071 0.54732 0.0
H526 H 0.13107 0.88922 0.54238 0.0
H527 H 0.15185 0.87545 0.57488 0.0
C528 C 0.8204 0.3899 0.86029 0.0
C529 C 0.79069 0.38557 0.87132 0.0
C530 C 0.84276 0.40588 0.87719 0.0
C531 C 0.8353 0.41774 0.90598 0.0
C532 C 0.80538 0.41324 0.91742 0.0
C533 C 0.78336 0.39731 0.89986 0.0
C534 C 0.87433 0.41056 0.86393 0.0
C535 C 0.79663 0.42551 0.94803 0.0
C536 C 0.90231 0.43654 0.95512 0.0
C537 C 0.91036 0.46978 0.94559 0.0
C538 C 0.87677 0.41945 0.94375 0.0
C539 C 0.85885 0.43635 0.92297 0.0
C540 C 0.86584 0.47061 0.91535 0.0
C541 C 0.89176 0.48678 0.92643 0.0
C542 C 0.8702 0.38288 0.95216 0.0
C543 C 0.84711 0.48979 0.89382 0.0
H544 H 0.82609 0.38127 0.83804 0.0
H545 H 0.76043 0.39374 0.90857 0.0
H546 H 0.88183 0.43729 0.85975 0.0
H547 H 0.88952 0.39996 0.88066 0.0
H548 H 0.87659 0.39882 0.8418 0.0
H549 H 0.77254 0.41933 0.95404 0.0
H550 H 0.80964 0.4146 0.96671 0.0
H551 H 0.80195 0.45269 0.94731 0.0
H552 H 0.91693 0.42346 0.96979 0.0
H553 H 0.89804 0.51263 0.9193 0.0
H554 H 0.87503 0.36919 0.93173 0.0
H555 H 0.8463 0.3765 0.95882 0.0
H556 H 0.88382 0.37431 0.97145 0.0
H557 H 0.8501 0.48227 0.86996 0.0
H558 H 0.85327 0.51685 0.89358 0.0
H559 H 0.82315 0.48432 0.90061 0.0
C560 C 0.67296 0.63461 0.3383 0.0
C561 C 0.70093 0.62257 0.33728 0.0
C562 C 0.64938 0.61833 0.35713 0.0
C563 C 0.65376 0.58912 0.37526 0.0
C564 C 0.68207 0.57716 0.37483 0.0
C565 C 0.70532 0.59405 0.35588 0.0
C566 C 0.61953 0.63188 0.35695 0.0
C567 C 0.68761 0.54608 0.39382 0.0
C568 C 0.59744 0.55708 0.44033 0.0
C569 C 0.57938 0.53313 0.42594 0.0
C570 C 0.6217 0.57569 0.42412 0.0
C571 C 0.62817 0.56989 0.39296 0.0
C572 C 0.61003 0.54571 0.3784 0.0
C573 C 0.5858 0.52781 0.39498 0.0
C574 C 0.64039 0.60152 0.44029 0.0
C575 C 0.61633 0.53856 0.3453 0.0
H576 H 0.66923 0.65639 0.32374 0.0
H577 H 0.72698 0.58488 0.35562 0.0
H578 H 0.60286 0.61425 0.34688 0.0
H579 H 0.61161 0.63484 0.38093 0.0
H580 H 0.62037 0.6561 0.34336 0.0
H581 H 0.71125 0.54099 0.39215 0.0
H582 H 0.68132 0.54801 0.41848 0.0
H583 H 0.67348 0.52471 0.38586 0.0
H584 H 0.5926 0.56134 0.46424 0.0
H585 H 0.5721 0.50921 0.38371 0.0
H586 H 0.64025 0.62602 0.42751 0.0
H587 H 0.66385 0.59578 0.44052 0.0
H588 H 0.6323 0.60319 0.4645 0.0
H589 H 0.61543 0.56119 0.32975 0.0
H590 H 0.60023 0.51873 0.33746 0.0
H591 H 0.6391 0.53098 0.34277 0.0
C592 C 0.16546 0.316 0.13916 0.0
C593 C 0.15673 0.3012 0.1686 0.0
C594 C 0.14542 0.33217 0.12101 0.0
C595 C 0.11587 0.33313 0.13249 0.0
C596 C 0.10663 0.31707 0.1617 0.0
C597 C 0.12727 0.30149 0.17953 0.0
C598 C 0.15619 0.34936 0.09013 0.0
C599 C 0.0752 0.31713 0.17447 0.0
C600 C 0.07706 0.4064 0.10307 0.0
C601 C 0.05999 0.39333 0.07948 0.0
C602 C 0.09496 0.38688 0.12074 0.0
C603 C 0.09548 0.35328 0.11506 0.0
C604 C 0.07745 0.33954 0.09212 0.0
C605 C 0.06004 0.35983 0.0744 0.0
C606 C 0.11409 0.40256 0.1448 0.0
C607 C 0.07709 0.30365 0.08583 0.0
H608 H 0.18828 0.31588 0.13077 0.0
H609 H 0.1204 0.28959 0.20212 0.0
H610 H 0.14135 0.34105 0.07168 0.0
H611 H 0.15547 0.37637 0.09081 0.0
H612 H 0.1793 0.34472 0.0838 0.0
H613 H 0.07085 0.30096 0.19618 0.0
H614 H 0.07111 0.34261 0.17928 0.0
H615 H 0.059 0.30878 0.15722 0.0
H616 H 0.07725 0.43228 0.10714 0.0
H617 H 0.04681 0.34955 0.05629 0.0
H618 H 0.13794 0.40112 0.13881 0.0
H619 H 0.10916 0.38897 0.16774 0.0
H620 H 0.11064 0.42887 0.14677 0.0
H621 H 0.09929 0.29896 0.07658 0.0
H622 H 0.06016 0.29618 0.06892 0.0
H623 H 0.07247 0.28774 0.10762 0.0
C624 C 0.61844 0.21344 0.90386 0.0
C625 C 0.61353 0.21804 0.87212 0.0
C626 C 0.60173 0.18829 0.92264 0.0
C627 C 0.57982 0.16696 0.9093 0.0
C628 C 0.57414 0.17205 0.87751 0.0
C629 C 0.59092 0.19763 0.85936 0.0
C630 C 0.60825 0.18384 0.95653 0.0
C631 C 0.55107 0.14972 0.86239 0.0
C632 C 0.56273 0.08062 0.94825 0.0
C633 C 0.5351 0.08245 0.96324 0.0
C634 C 0.57727 0.10782 0.93034 0.0
C635 C 0.5643 0.13796 0.92808 0.0
C636 C 0.53663 0.14017 0.94356 0.0
C637 C 0.52215 0.11223 0.96067 0.0
C638 C 0.60646 0.10421 0.91371 0.0
C639 C 0.52249 0.17212 0.94227 0.0
H640 H 0.63605 0.2288 0.91391 0.0
H641 H 0.58656 0.2014 0.835 0.0
H642 H 0.58734 0.18226 0.97087 0.0
H643 H 0.61818 0.16035 0.96128 0.0
H644 H 0.6239 0.20434 0.96392 0.0
H645 H 0.54837 0.15792 0.83775 0.0
H646 H 0.55759 0.12422 0.86361 0.0
H647 H 0.52921 0.14878 0.87491 0.0
H648 H 0.57292 0.05774 0.9502 0.0
H649 H 0.50096 0.11388 0.97251 0.0
H650 H 0.62437 0.12163 0.92209 0.0
H651 H 0.60481 0.11053 0.88855 0.0
H652 H 0.61307 0.07878 0.91711 0.0
H653 H 0.53793 0.19185 0.95117 0.0
H654 H 0.50115 0.16992 0.95602 0.0
H655 H 0.51823 0.18008 0.91797 0.0
C656 C 0.89622 0.76989 0.35258 0.0
C657 C 0.87918 0.78167 0.32846 0.0
C658 C 0.90938 0.79131 0.37336 0.0
C659 C 0.90543 0.82527 0.36984 0.0
C660 C 0.88937 0.83752 0.34477 0.0
C661 C 0.87637 0.81557 0.32447 0.0
C662 C 0.92654 0.77743 0.3997 0.0
C663 C 0.88481 0.87365 0.34015 0.0
C664 C 0.9053 0.87745 0.43847 0.0
C665 C 0.93281 0.8967 0.4341 0.0
C666 C 0.89674 0.85299 0.41851 0.0
C667 C 0.91609 0.8478 0.39348 0.0
C668 C 0.94447 0.8661 0.38978 0.0
C669 C 0.95254 0.8903 0.41022 0.0
C670 C 0.86639 0.83372 0.4234 0.0
C671 C 0.96568 0.8613 0.36334 0.0
H672 H 0.89888 0.7438 0.35551 0.0
H673 H 0.86294 0.82485 0.30617 0.0
H674 H 0.94868 0.79175 0.40061 0.0
H675 H 0.91442 0.77961 0.42195 0.0
H676 H 0.92972 0.75106 0.39769 0.0
H677 H 0.87365 0.87957 0.31827 0.0
H678 H 0.87098 0.88058 0.3597 0.0
H679 H 0.90649 0.88912 0.33989 0.0
H680 H 0.89006 0.88206 0.45704 0.0
H681 H 0.97388 0.90507 0.40671 0.0
H682 H 0.86832 0.80685 0.42369 0.0
H683 H 0.85217 0.8402 0.40394 0.0
H684 H 0.85505 0.83882 0.44533 0.0
H685 H 0.96817 0.83473 0.36192 0.0
H686 H 0.98803 0.87481 0.36564 0.0
H687 H 0.95654 0.87032 0.34121 0.0
C688 C 0.41388 0.75535 0.58615 0.0
C689 C 0.40466 0.75688 0.6171 0.0
C690 C 0.42274 0.72617 0.57547 0.0
C691 C 0.42241 0.69778 0.59626 0.0
C692 C 0.41296 0.69904 0.62752 0.0
C693 C 0.40413 0.7286 0.63757 0.0
C694 C 0.43244 0.72573 0.5419 0.0
C695 C 0.41236 0.66925 0.65034 0.0
C696 C 0.42066 0.61587 0.55998 0.0
C697 C 0.45077 0.61025 0.55997 0.0
C698 C 0.411 0.64383 0.57245 0.0
C699 C 0.43197 0.66683 0.58507 0.0
C700 C 0.4623 0.66103 0.58562 0.0
C701 C 0.47134 0.63276 0.57311 0.0
C702 C 0.37843 0.64906 0.57161 0.0
C703 C 0.48531 0.68503 0.59887 0.0
H704 H 0.41385 0.77697 0.57012 0.0
H705 H 0.39725 0.72975 0.66158 0.0
H706 H 0.45559 0.71906 0.54016 0.0
H707 H 0.41805 0.70668 0.53077 0.0
H708 H 0.43144 0.74993 0.52876 0.0
H709 H 0.4041 0.67418 0.67374 0.0
H710 H 0.39788 0.6483 0.64211 0.0
H711 H 0.43505 0.66138 0.65215 0.0
H712 H 0.40457 0.59848 0.55008 0.0
H713 H 0.49462 0.62853 0.57329 0.0
H714 H 0.37565 0.67185 0.55694 0.0
H715 H 0.36967 0.65248 0.59519 0.0
H716 H 0.36477 0.62805 0.56236 0.0
H717 H 0.48672 0.70923 0.58524 0.0
H718 H 0.50775 0.67621 0.59879 0.0
H719 H 0.47866 0.68919 0.62297 0.0
C720 C 0.87157 0.8652 0.6722 0.0
C721 C 0.84867 0.88245 0.68332 0.0
C722 C 0.88812 0.87673 0.64505 0.0
C723 C 0.88185 0.90641 0.62887 0.0
C724 C 0.85683 0.92196 0.63814 0.0
C725 C 0.8404 0.90965 0.6652 0.0
C726 C 0.91428 0.85902 0.63564 0.0
C727 C 0.84922 0.95351 0.6214 0.0
C728 C 0.95001 0.96182 0.59783 0.0
C729 C 0.94964 0.95765 0.56606 0.0
C730 C 0.92779 0.94562 0.61824 0.0
C731 C 0.90462 0.92441 0.6067 0.0
C732 C 0.90389 0.92017 0.57464 0.0
C733 C 0.92641 0.93699 0.55462 0.0
C734 C 0.92934 0.95102 0.65228 0.0
C735 C 0.8797 0.89746 0.56161 0.0
H736 H 0.87826 0.8442 0.68596 0.0
H737 H 0.82222 0.9226 0.67319 0.0
H738 H 0.91602 0.85817 0.61017 0.0
H739 H 0.93513 0.87259 0.64297 0.0
H740 H 0.91265 0.8334 0.64653 0.0
H741 H 0.82639 0.95907 0.62781 0.0
H742 H 0.86522 0.97431 0.62748 0.0
H743 H 0.85108 0.95219 0.59599 0.0
H744 H 0.96776 0.97786 0.60687 0.0
H745 H 0.92615 0.93345 0.53016 0.0
H746 H 0.93163 0.9273 0.66571 0.0
H747 H 0.90847 0.96011 0.66065 0.0
H748 H 0.94836 0.96906 0.65731 0.0
H749 H 0.88079 0.87179 0.57143 0.0
H750 H 0.88164 0.8979 0.536 0.0
H751 H 0.85749 0.90451 0.56834 0.0
C752 C 0.60188 0.13216 0.20535 0.0
C753 C 0.63235 0.12885 0.20741 0.0
C754 C 0.58515 0.11765 0.18228 0.0
C755 C 0.59918 0.09921 0.16081 0.0
C756 C 0.62954 0.09427 0.16373 0.0
C757 C 0.64581 0.10922 0.18699 0.0
C758 C 0.55276 0.12334 0.18006 0.0
C759 C 0.64521 0.07461 0.14136 0.0
C760 C 0.54725 0.04803 0.11129 0.0
C761 C 0.54561 0.07007 0.08521 0.0
C762 C 0.56547 0.05662 0.13575 0.0
C763 C 0.58261 0.08777 0.13382 0.0
C764 C 0.58218 0.10933 0.10681 0.0
C765 C 0.56354 0.1003 0.08292 0.0
C766 C 0.56529 0.03303 0.16422 0.0
C767 C 0.60048 0.14258 0.10365 0.0
H768 H 0.59123 0.14675 0.22145 0.0
H769 H 0.66939 0.10672 0.18829 0.0
H770 H 0.54962 0.13863 0.15844 0.0
H771 H 0.53877 0.09951 0.17902 0.0
H772 H 0.54465 0.13608 0.19993 0.0
H773 H 0.66771 0.06975 0.14896 0.0
H774 H 0.63193 0.05068 0.13863 0.0
H775 H 0.64758 0.08839 0.11828 0.0
H776 H 0.53339 0.02464 0.11318 0.0
H777 H 0.56259 0.11725 0.06265 0.0
H778 H 0.55437 0.04354 0.18393 0.0
H779 H 0.58837 0.02956 0.17071 0.0
H780 H 0.55321 0.00854 0.16083 0.0
H781 H 0.5923 0.15859 0.12092 0.0
H782 H 0.59943 0.15527 0.08025 0.0
H783 H 0.62411 0.13976 0.10839 0.0
C784 C 0.42687 0.5718 0.30138 0.0
C785 C 0.39878 0.58351 0.30064 0.0
C786 C 0.43906 0.56185 0.32945 0.0
C787 C 0.42266 0.56337 0.35752 0.0
C788 C 0.39429 0.57522 0.35698 0.0
C789 C 0.38274 0.58534 0.32851 0.0
C790 C 0.46959 0.54988 0.32905 0.0
C791 C 0.37609 0.577 0.38643 0.0
C792 C 0.44544 0.50891 0.42568 0.0
C793 C 0.46369 0.5315 0.44143 0.0
C794 C 0.43118 0.51914 0.39885 0.0
C795 C 0.43549 0.5527 0.38735 0.0
C796 C 0.45345 0.57572 0.40345 0.0
C797 C 0.46722 0.56488 0.43034 0.0
C798 C 0.41199 0.49392 0.38245 0.0
C799 C 0.4588 0.61166 0.39182 0.0
H800 H 0.43955 0.57086 0.27992 0.0
H801 H 0.36096 0.59423 0.328 0.0
H802 H 0.48476 0.56542 0.34302 0.0
H803 H 0.46826 0.52422 0.3397 0.0
H804 H 0.47952 0.55047 0.30527 0.0
H805 H 0.35441 0.58671 0.38205 0.0
H806 H 0.37181 0.55209 0.39869 0.0
H807 H 0.38866 0.5931 0.40213 0.0
H808 H 0.44244 0.48313 0.43417 0.0
H809 H 0.48125 0.58255 0.44234 0.0
H810 H 0.42201 0.49147 0.35919 0.0
H811 H 0.3896 0.50215 0.37908 0.0
H812 H 0.4094 0.46925 0.39539 0.0
H813 H 0.47069 0.61401 0.3689 0.0
H814 H 0.47219 0.62668 0.4078 0.0
H815 H 0.43729 0.62209 0.38867 0.0
C816 C 0.13488 0.41648 0.82799 0.0
C817 C 0.13678 0.38252 0.83375 0.0
C818 C 0.11861 0.43379 0.84825 0.0
C819 C 0.10365 0.41666 0.87471 0.0
C820 C 0.10525 0.38238 0.8805 0.0
C821 C 0.12197 0.36581 0.86012 0.0
C822 C 0.11767 0.47044 0.84154 0.0
C823 C 0.08947 0.36318 0.90838 0.0
C824 C 0.08421 0.46088 0.94527 0.0
C825 C 0.05408 0.46451 0.94118 0.0
C826 C 0.10093 0.44661 0.9231 0.0
C827 C 0.08683 0.43458 0.89685 0.0
C828 C 0.05635 0.43827 0.89261 0.0
C829 C 0.04043 0.45377 0.91463 0.0
C830 C 0.13358 0.44402 0.92798 0.0
C831 C 0.04033 0.42485 0.86542 0.0
H832 H 0.14596 0.42952 0.80751 0.0
H833 H 0.12377 0.33973 0.86515 0.0
H834 H 0.09431 0.47602 0.83916 0.0
H835 H 0.12673 0.48381 0.86114 0.0
H836 H 0.13063 0.48014 0.82007 0.0
H837 H 0.09175 0.33634 0.90873 0.0
H838 H 0.09865 0.37253 0.92988 0.0
H839 H 0.06544 0.36668 0.9087 0.0
H840 H 0.09476 0.46951 0.96574 0.0
H841 H 0.01703 0.4564 0.91168 0.0
H842 H 0.14701 0.45475 0.90717 0.0
H843 H 0.13757 0.4177 0.93147 0.0
H844 H 0.14165 0.45687 0.94832 0.0
H845 H 0.05184 0.43533 0.84344 0.0
H846 H 0.01679 0.43042 0.86512 0.0
H847 H 0.04071 0.39768 0.86627 0.0
C848 C 0.70322 0.88256 0.90979 0.0
C849 C 0.70682 0.8779 0.87821 0.0
C850 C 0.67752 0.89444 0.92154 0.0
C851 C 0.65433 0.9007 0.90147 0.0
C852 C 0.65671 0.89355 0.87012 0.0
C853 C 0.68311 0.88267 0.85874 0.0
C854 C 0.67601 0.90213 0.95506 0.0
C855 C 0.63201 0.89892 0.84824 0.0
C856 C 0.58164 0.91603 0.94125 0.0
C857 C 0.58347 0.95055 0.93812 0.0
C858 C 0.60391 0.89925 0.92816 0.0
C859 C 0.62901 0.9176 0.91272 0.0
C860 C 0.63079 0.95252 0.90944 0.0
C861 C 0.60769 0.96854 0.92173 0.0
C862 C 0.60071 0.862 0.93103 0.0
C863 C 0.65754 0.97302 0.89384 0.0
H864 H 0.72096 0.87794 0.92526 0.0
H865 H 0.68557 0.87933 0.83429 0.0
H866 H 0.67538 0.92908 0.95644 0.0
H867 H 0.65534 0.8896 0.96676 0.0
H868 H 0.69537 0.89448 0.96791 0.0
H869 H 0.63524 0.88728 0.8262 0.0
H870 H 0.61013 0.88875 0.8591 0.0
H871 H 0.63121 0.92575 0.84282 0.0
H872 H 0.56261 0.90217 0.95362 0.0
H873 H 0.60907 0.99527 0.91945 0.0
H874 H 0.61819 0.85302 0.94589 0.0
H875 H 0.60384 0.85246 0.90799 0.0
H876 H 0.57861 0.85145 0.94116 0.0
H877 H 0.67792 0.96797 0.90623 0.0
H878 H 0.65544 -9e-05 0.89328 0.0
H879 H 0.66066 0.96622 0.86977 0.0
C880 C 0.78836 0.09884 0.37312 0.0
C881 C 0.797 0.13166 0.36207 0.0
C882 C 0.80897 0.07919 0.38659 0.0
C883 C 0.83886 0.09272 0.38902 0.0
C884 C 0.8474 0.1262 0.37902 0.0
C885 C 0.82636 0.14525 0.36568 0.0
C886 C 0.79903 0.04361 0.3971 0.0
C887 C 0.87901 0.1416 0.38141 0.0
C888 C 0.89104 0.04925 0.44122 0.0
C889 C 0.90713 0.03315 0.41983 0.0
C890 C 0.86841 0.06836 0.43165 0.0
C891 C 0.86172 0.07138 0.39997 0.0
C892 C 0.87758 0.05479 0.37838 0.0
C893 C 0.90009 0.03591 0.38856 0.0
C894 C 0.85195 0.0857 0.45532 0.0
C895 C 0.87105 0.05737 0.34439 0.0
H896 H 0.76576 0.08814 0.3702 0.0
H897 H 0.833 0.17079 0.35769 0.0
H898 H 0.81008 0.02719 0.38219 0.0
H899 H 0.80573 0.03795 0.42113 0.0
H900 H 0.77455 0.03768 0.39609 0.0
H901 H 0.88156 0.16848 0.37448 0.0
H902 H 0.8864 0.1378 0.40544 0.0
H903 H 0.89409 0.12943 0.36631 0.0
H904 H 0.89632 0.0472 0.46544 0.0
H905 H 0.91232 0.02347 0.3719 0.0
H906 H 0.82764 0.07856 0.45449 0.0
H907 H 0.85577 0.11279 0.44989 0.0
H908 H 0.85909 0.07989 0.4792 0.0
H909 H 0.84723 0.04927 0.34115 0.0
H910 H 0.88484 0.04221 0.33074 0.0
H911 H 0.87531 0.08347 0.33495 0.0
C912 C 0.21994 0.62519 0.11444 0.0
C913 C 0.23093 0.60521 0.13822 0.0
C914 C 0.19131 0.61762 0.10349 0.0
C915 C 0.17339 0.58921 0.11643 0.0
C916 C 0.18394 0.56969 0.14126 0.0
C917 C 0.21255 0.57803 0.15196 0.0
C918 C 0.18069 0.63933 0.07733 0.0
C919 C 0.16562 0.53902 0.15551 0.0
C920 C 0.09059 0.57317 0.10266 0.0
C921 C 0.09057 0.55151 0.07903 0.0
C922 C 0.11746 0.58698 0.11415 0.0
C923 C 0.14482 0.57811 0.1023 0.0
C924 C 0.14489 0.55698 0.07785 0.0
C925 C 0.1178 0.5443 0.06626 0.0
C926 C 0.11656 0.61019 0.13959 0.0
C927 C 0.17353 0.54646 0.06489 0.0
H928 H 0.23394 0.64652 0.10407 0.0
H929 H 0.22103 0.56241 0.17019 0.0
H930 H 0.17923 0.6257 0.05614 0.0
H931 H 0.15806 0.64595 0.08299 0.0
H932 H 0.19586 0.66238 0.07216 0.0
H933 H 0.17621 0.52774 0.17588 0.0
H934 H 0.14316 0.54487 0.1628 0.0
H935 H 0.1626 0.52051 0.13807 0.0
H936 H 0.06958 0.57892 0.11249 0.0
H937 H 0.11797 0.52734 0.04818 0.0
H938 H 0.13192 0.63289 0.13363 0.0
H939 H 0.12418 0.59824 0.16129 0.0
H940 H 0.09383 0.61729 0.14399 0.0
H941 H 0.18908 0.56841 0.05688 0.0
H942 H 0.1698 0.5307 0.04527 0.0
H943 H 0.1846 0.53245 0.0833 0.0
C944 C 0.33869 0.36832 0.67011 0.0
C945 C 0.31046 0.37975 0.67051 0.0
C946 C 0.36256 0.38553 0.65238 0.0
C947 C 0.35813 0.4149 0.63454 0.0
C948 C 0.32943 0.42591 0.63387 0.0
C949 C 0.30593 0.4082 0.65189 0.0
C950 C 0.39278 0.37289 0.65356 0.0
C951 C 0.32383 0.45712 0.61513 0.0
C952 C 0.42519 0.47865 0.62078 0.0
C953 C 0.43386 0.4746 0.59011 0.0
C954 C 0.40043 0.4596 0.63529 0.0
C955 C 0.38405 0.43557 0.61887 0.0
C956 C 0.39272 0.43116 0.58794 0.0
C957 C 0.41748 0.45088 0.57383 0.0
C958 C 0.39177 0.46526 0.66823 0.0
C959 C 0.37589 0.40559 0.56982 0.0
H960 H 0.34219 0.34596 0.68393 0.0
H961 H 0.28423 0.41729 0.65219 0.0
H962 H 0.4019 0.37096 0.62982 0.0
H963 H 0.40848 0.39057 0.66484 0.0
H964 H 0.392 0.34836 0.66659 0.0
H965 H 0.2998 0.46071 0.61488 0.0
H966 H 0.336 0.47872 0.62495 0.0
H967 H 0.33235 0.45665 0.59094 0.0
H968 H 0.43758 0.49708 0.63347 0.0
H969 H 0.42407 0.44763 0.55012 0.0
H970 H 0.39261 0.44227 0.6833 0.0
H971 H 0.36856 0.47177 0.66953 0.0
H972 H 0.40659 0.4853 0.67758 0.0
H973 H 0.37618 0.38072 0.58185 0.0
H974 H 0.38544 0.40529 0.54597 0.0
H975 H 0.35225 0.41045 0.56845 0.0
C976 C 0.90484 0.72261 0.8565 0.0
C977 C 0.87483 0.72685 0.8625 0.0
C978 C 0.91757 0.69552 0.87011 0.0
C979 C 0.89966 0.67152 0.88948 0.0
C980 C 0.86883 0.67413 0.89357 0.0
C981 C 0.85683 0.70199 0.88035 0.0
C982 C 0.9506 0.69377 0.86536 0.0
C983 C 0.84882 0.64843 0.9133 0.0
C984 C 0.9334 0.59262 0.91355 0.0
C985 C 0.94197 0.5987 0.94351 0.0
C986 C 0.91878 0.6157 0.89584 0.0
C987 C 0.91383 0.64594 0.90811 0.0
C988 C 0.92299 0.65227 0.93826 0.0
C989 C 0.9364 0.62818 0.95587 0.0
C990 C 0.90817 0.60751 0.86438 0.0
C991 C 0.9188 0.68455 0.95186 0.0
H992 H 0.91872 0.7411 0.84192 0.0
H993 H 0.83364 0.70494 0.88522 0.0
H994 H 0.96171 0.69704 0.88757 0.0
H995 H 0.95495 0.66923 0.85801 0.0
H996 H 0.96095 0.71303 0.84781 0.0
H997 H 0.82489 0.65113 0.91 0.0
H998 H 0.85323 0.62322 0.90786 0.0
H999 H 0.85344 0.65083 0.93804 0.0
H1000 H 0.93725 0.56934 0.90442 0.0
H1001 H 0.94296 0.63255 0.97919 0.0
H1002 H 0.9192 0.62564 0.84629 0.0
H1003 H 0.88386 0.60919 0.86336 0.0
H1004 H 0.91273 0.58235 0.85879 0.0
H1005 H 0.92965 0.70545 0.93637 0.0
H1006 H 0.92824 0.68601 0.97513 0.0
H1007 H 0.89477 0.68774 0.95381 0.0
C1008 C 0.38899 0.78827 0.11039 0.0
C1009 C 0.39943 0.77639 0.13873 0.0
C1010 C 0.40036 0.81915 0.09632 0.0
C1011 C 0.42245 0.8388 0.11115 0.0
C1012 C 0.43222 0.82752 0.14038 0.0
C1013 C 0.42076 0.79627 0.15372 0.0
C1014 C 0.3897 0.83007 0.06492 0.0
C1015 C 0.45538 0.84805 0.15712 0.0
C1016 C 0.47573 0.89858 0.06 0.0
C1017 C 0.46296 0.92821 0.0619 0.0
C1018 C 0.46274 0.86932 0.07596 0.0
C1019 C 0.43682 0.86996 0.09497 0.0
C1020 C 0.42424 0.90002 0.09757 0.0
C1021 C 0.43721 0.92875 0.08058 0.0
C1022 C 0.47641 0.83761 0.07196 0.0
C1023 C 0.39705 0.9018 0.11819 0.0
H1024 H 0.37278 0.77277 0.09855 0.0
H1025 H 0.42867 0.78721 0.17576 0.0
H1026 H 0.38186 0.85489 0.06529 0.0
H1027 H 0.40845 0.83199 0.04756 0.0
H1028 H 0.37133 0.81268 0.05725 0.0
H1029 H 0.4585 0.83718 0.18087 0.0
H1030 H 0.47703 0.85019 0.14402 0.0
H1031 H 0.44898 0.87341 0.15857 0.0
H1032 H 0.49552 0.89807 0.04536 0.0
H1033 H 0.42743 0.95173 0.0822 0.0
H1034 H 0.45987 0.81934 0.0625 0.0
H1035 H 0.48273 0.82677 0.09469 0.0
H1036 H 0.49648 0.84133 0.05619 0.0
H1037 H 0.37779 0.88635 0.10973 0.0
H1038 H 0.39111 0.92744 0.11908 0.0
H1039 H 0.40093 0.8918 0.14203 0.0
C1040 C 0.12864 0.17951 0.68455 0.0
C1041 C 0.13691 0.21259 0.67421 0.0
C1042 C 0.11479 0.15731 0.66496 0.0
C1043 C 0.10909 0.16849 0.63428 0.0
C1044 C 0.11588 0.20224 0.62424 0.0
C1045 C 0.12975 0.22393 0.64435 0.0
C1046 C 0.10762 0.12154 0.67664 0.0
C1047 C 0.10994 0.2151 0.59175 0.0
C1048 C 0.11109 0.10407 0.576 0.0
C1049 C 0.08078 0.09388 0.57325 0.0
C1050 C 0.12048 0.12889 0.59524 0.0
C1051 C 0.09903 0.14417 0.61194 0.0
C1052 C 0.06834 0.13491 0.60841 0.0
C1053 C 0.05955 0.10973 0.58916 0.0
C1054 C 0.15344 0.13797 0.59852 0.0
C1055 C 0.04486 0.15089 0.62564 0.0
H1056 H 0.13361 0.17081 0.70784 0.0
H1057 H 0.13619 0.24946 0.63621 0.0
H1058 H 0.08422 0.11283 0.67204 0.0
H1059 H 0.12208 0.10613 0.66414 0.0
H1060 H 0.11102 0.11745 0.70182 0.0
H1061 H 0.11313 0.24249 0.58875 0.0
H1062 H 0.1253 0.20527 0.57517 0.0
H1063 H 0.08691 0.20654 0.58566 0.0
H1064 H 0.12764 0.09198 0.56379 0.0
H1065 H 0.03606 0.10207 0.58706 0.0
H1066 H 0.15947 0.13201 0.62274 0.0
H1067 H 0.15916 0.1649 0.59326 0.0
H1068 H 0.16721 0.12468 0.583 0.0
H1069 H 0.04597 0.14442 0.65082 0.0
H1070 H 0.02204 0.14294 0.61835 0.0
H1071 H 0.04897 0.17816 0.62193 0.0
C1072 C 0.62782 0.27977 0.40217 0.0
C1073 C 0.63388 0.28819 0.37059 0.0
C1074 C 0.6124 0.30017 0.42019 0.0
C1075 C 0.60254 0.32929 0.40608 0.0
C1076 C 0.60723 0.33681 0.37382 0.0
C1077 C 0.62309 0.31629 0.35652 0.0
C1078 C 0.60802 0.29148 0.45454 0.0
C1079 C 0.59675 0.36736 0.35782 0.0
C1080 C 0.54791 0.37766 0.44745 0.0
C1081 C 0.5672 0.40293 0.4585 0.0
C1082 C 0.55908 0.35282 0.4311 0.0
C1083 C 0.59017 0.35369 0.42531 0.0
C1084 C 0.60969 0.37899 0.4367 0.0
C1085 C 0.59799 0.40312 0.45332 0.0
C1086 C 0.53766 0.32601 0.41956 0.0
C1087 C 0.64296 0.38107 0.43067 0.0
H1088 H 0.63628 0.25804 0.413 0.0
H1089 H 0.62754 0.32251 0.33198 0.0
H1090 H 0.62191 0.30968 0.46719 0.0
H1091 H 0.5845 0.29272 0.46199 0.0
H1092 H 0.61424 0.26644 0.4614 0.0
H1093 H 0.59952 0.36788 0.33225 0.0
H1094 H 0.57295 0.36889 0.36393 0.0
H1095 H 0.60961 0.38964 0.3657 0.0
H1096 H 0.5241 0.37733 0.45153 0.0
H1097 H 0.61303 0.42269 0.46161 0.0
H1098 H 0.54387 0.30139 0.42783 0.0
H1099 H 0.53893 0.32745 0.39392 0.0
H1100 H 0.51429 0.32789 0.42731 0.0
H1101 H 0.65144 0.35768 0.43922 0.0
H1102 H 0.65513 0.40174 0.44193 0.0
H1103 H 0.64815 0.3846 0.40542 0.0
loop_
_geom_bond_atom_site_label_1
_geom_bond_atom_site_label_2
_geom_bond_distance
_geom_bond_site_symmetry_2
_ccdc_geom_bond_type
P0 O11 1.490 . S
P0 C14 1.812 . S
P0 C20 1.803 . S
P0 C26 1.819 . S
H1 C15 0.941 . S
H2 C16 0.939 . S
H3 C18 0.940 . S
H4 C19 0.940 . S
H5 C21 0.939 . S
H6 C22 0.942 . S
H7 C24 0.940 . S
H8 C25 0.939 . S
H9 C27 0.941 . S
H10 C31 0.939 . S
O11 P0 1.490 . S
H12 C28 0.939 . S
H13 C30 0.940 . S
C14 P0 1.812 . S
C14 C15 1.389 . S
C14 C19 1.391 . S
C15 H1 0.941 . S
C15 C14 1.389 . S
C15 C16 1.397 . S
C16 H2 0.939 . S
C16 C15 1.397 . S
C16 C17 1.378 . S
C17 C16 1.378 . S
C17 C18 1.378 . S
C18 H3 0.940 . S
C18 C17 1.378 . S
C18 C19 1.396 . S
C19 H4 0.940 . S
C19 C14 1.391 . S
C19 C18 1.396 . S
C20 P0 1.803 . S
C20 C21 1.378 . S
C20 C25 1.400 . S
C21 H5 0.939 . S
C21 C20 1.378 . S
C21 C22 1.361 . S
C22 H6 0.942 . S
C22 C21 1.361 . S
C22 C23 1.369 . S
C23 C22 1.369 . S
C23 C24 1.404 . S
C24 H7 0.940 . S
C24 C23 1.404 . S
C24 C25 1.389 . S
C25 H8 0.939 . S
C25 C20 1.400 . S
C25 C24 1.389 . S
C26 P0 1.819 . S
C26 C27 1.391 . S
C26 C31 1.391 . S
C27 H9 0.941 . S
C27 C26 1.391 . S
C27 C28 1.396 . S
C28 H12 0.939 . S
C28 C27 1.396 . S
C28 C29 1.397 . S
C29 C28 1.397 . S
C29 C30 1.385 . S
C30 H13 0.940 . S
C30 C29 1.385 . S
C30 C31 1.388 . S
C31 H10 0.939 . S
C31 C26 1.391 . S
C31 C30 1.388 . S
P32 O43 1.490 . S
P32 C46 1.812 . S
P32 C52 1.803 . S
P32 C58 1.819 . S
H33 C47 0.941 . S
H34 C48 0.939 . S
H35 C50 0.940 . S
H36 C51 0.940 . S
H37 C53 0.939 . S
H38 C54 0.942 . S
H39 C56 0.940 . S
H40 C57 0.939 . S
H41 C59 0.941 . S
H42 C63 0.939 . S
O43 P32 1.490 . S
H44 C60 0.939 . S
H45 C62 0.940 . S
C46 P32 1.812 . S
C46 C47 1.389 . S
C46 C51 1.391 . S
C47 H33 0.941 . S
C47 C46 1.389 . S
C47 C48 1.397 . S
C48 H34 0.939 . S
C48 C47 1.397 . S
C48 C49 1.378 . S
C49 C48 1.378 . S
C49 C50 1.378 . S
C50 H35 0.940 . S
C50 C49 1.378 . S
C50 C51 1.396 . S
C51 H36 0.940 . S
C51 C46 1.391 . S
C51 C50 1.396 . S
C52 P32 1.803 . S
C52 C53 1.378 . S
C52 C57 1.400 . S
C53 H37 0.939 . S
C53 C52 1.378 . S
C53 C54 1.361 . S
C54 H38 0.942 . S
C54 C53 1.361 . S
C54 C55 1.369 . S
C55 C54 1.369 . S
C55 C56 1.404 . S
C56 H39 0.940 . S
C56 C55 1.404 . S
C56 C57 1.389 . S
C57 H40 0.939 . S
C57 C52 1.400 . S
C57 C56 1.389 . S
C58 P32 1.819 . S
C58 C59 1.391 . S
C58 C63 1.391 . S
C59 H41 0.941 . S
C59 C58 1.391 . S
C59 C60 1.396 . S
C60 H44 0.939 . S
C60 C59 1.396 . S
C60 C61 1.397 . S
C61 C60 1.397 . S
C61 C62 1.385 . S
C62 H45 0.940 . S
C62 C61 1.385 . S
C62 C63 1.388 . S
C63 H42 0.939 . S
C63 C58 1.391 . S
C63 C62 1.388 . S
P64 O75 1.490 . S
P64 C78 1.812 . S
P64 C84 1.803 . S
P64 C90 1.819 . S
H65 C79 0.941 . S
H66 C80 0.939 . S
H67 C82 0.940 . S
H68 C83 0.940 . S
H69 C85 0.939 . S
H70 C86 0.942 . S
H71 C88 0.940 . S
H72 C89 0.939 . S
H73 C91 0.941 . S
H74 C95 0.939 . S
O75 P64 1.490 . S
H76 C92 0.939 . S
H77 C94 0.940 . S
C78 P64 1.812 . S
C78 C79 1.389 . S
C78 C83 1.391 . S
C79 H65 0.941 . S
C79 C78 1.389 . S
C79 C80 1.397 . S
C80 H66 0.939 . S
C80 C79 1.397 . S
C80 C81 1.378 . S
C81 C80 1.378 . S
C81 C82 1.378 . S
C82 H67 0.940 . S
C82 C81 1.378 . S
C82 C83 1.396 . S
C83 H68 0.940 . S
C83 C78 1.391 . S
C83 C82 1.396 . S
C84 P64 1.803 . S
C84 C85 1.378 . S
C84 C89 1.400 . S
C85 H69 0.939 . S
C85 C84 1.378 . S
C85 C86 1.361 . S
C86 H70 0.942 . S
C86 C85 1.361 . S
C86 C87 1.369 . S
C87 C86 1.369 . S
C87 C88 1.404 . S
C88 H71 0.940 . S
C88 C87 1.404 . S
C88 C89 1.389 . S
C89 H72 0.939 . S
C89 C84 1.400 . S
C89 C88 1.389 . S
C90 P64 1.819 . S
C90 C91 1.391 . S
C90 C95 1.391 . S
C91 H73 0.941 . S
C91 C90 1.391 . S
C91 C92 1.396 . S
C92 H76 0.939 . S
C92 C91 1.396 . S
C92 C93 1.397 . S
C93 C92 1.397 . S
C93 C94 1.385 . S
C94 H77 0.940 . S
C94 C93 1.385 . S
C94 C95 1.388 . S
C95 H74 0.939 . S
C95 C90 1.391 . S
C95 C94 1.388 . S
P96 O107 1.490 . S
P96 C110 1.812 . S
P96 C116 1.803 . S
P96 C122 1.819 . S
H97 C111 0.941 . S
H98 C112 0.939 . S
H99 C114 0.940 . S
H100 C115 0.940 . S
H101 C117 0.939 . S
H102 C118 0.942 . S
H103 C120 0.940 . S
H104 C121 0.939 . S
H105 C123 0.941 . S
H106 C127 0.939 . S
O107 P96 1.490 . S
H108 C124 0.939 . S
H109 C126 0.940 . S
C110 P96 1.812 . S
C110 C111 1.389 . S
C110 C115 1.391 . S
C111 H97 0.941 . S
C111 C110 1.389 . S
C111 C112 1.397 . S
C112 H98 0.939 . S
C112 C111 1.397 . S
C112 C113 1.378 . S
C113 C112 1.378 . S
C113 C114 1.378 . S
C114 H99 0.940 . S
C114 C113 1.378 . S
C114 C115 1.396 . S
C115 H100 0.940 . S
C115 C110 1.391 . S
C115 C114 1.396 . S
C116 P96 1.803 . S
C116 C117 1.378 . S
C116 C121 1.400 . S
C117 H101 0.939 . S
C117 C116 1.378 . S
C117 C118 1.361 . S
C118 H102 0.942 . S
C118 C117 1.361 . S
C118 C119 1.369 . S
C119 C118 1.369 . S
C119 C120 1.404 . S
C120 H103 0.940 . S
C120 C119 1.404 . S
C120 C121 1.389 . S
C121 H104 0.939 . S
C121 C116 1.400 . S
C121 C120 1.389 . S
C122 P96 1.819 . S
C122 C123 1.391 . S
C122 C127 1.391 . S
C123 H105 0.941 . S
C123 C122 1.391 . S
C123 C124 1.396 . S
C124 H108 0.939 . S
C124 C123 1.396 . S
C124 C125 1.397 . S
C125 C124 1.397 . S
C125 C126 1.385 . S
C126 H109 0.940 . S
C126 C125 1.385 . S
C126 C127 1.388 . S
C127 H106 0.939 . S
C127 C122 1.391 . S
C127 C126 1.388 . S
P128 O139 1.490 . S
P128 C142 1.812 . S
P128 C148 1.803 . S
P128 C154 1.819 . S
H129 C143 0.941 . S
H130 C144 0.939 . S
H131 C146 0.940 . S
H132 C147 0.940 . S
H133 C149 0.939 . S
H134 C150 0.942 . S
H135 C152 0.940 . S
H136 C153 0.939 . S
H137 C155 0.941 . S
H138 C159 0.939 . S
O139 P128 1.490 . S
H140 C156 0.939 . S
H141 C158 0.940 . S
C142 P128 1.812 . S
C142 C143 1.389 . S
C142 C147 1.391 . S
C143 H129 0.941 . S
C143 C142 1.389 . S
C143 C144 1.397 . S
C144 H130 0.939 . S
C144 C143 1.397 . S
C144 C145 1.378 . S
C145 C144 1.378 . S
C145 C146 1.378 . S
C146 H131 0.940 . S
C146 C145 1.378 . S
C146 C147 1.396 . S
C147 H132 0.940 . S
C147 C142 1.391 . S
C147 C146 1.396 . S
C148 P128 1.803 . S
C148 C149 1.378 . S
C148 C153 1.400 . S
C149 H133 0.939 . S
C149 C148 1.378 . S
C149 C150 1.361 . S
C150 H134 0.942 . S
C150 C149 1.361 . S
C150 C151 1.369 . S
C151 C150 1.369 . S
C151 C152 1.404 . S
C152 H135 0.940 . S
C152 C151 1.404 . S
C152 C153 1.389 . S
C153 H136 0.939 . S
C153 C148 1.400 . S
C153 C152 1.389 . S
C154 P128 1.819 . S
C154 C155 1.391 . S
C154 C159 1.391 . S
C155 H137 0.941 . S
C155 C154 1.391 . S
C155 C156 1.396 . S
C156 H140 0.939 . S
C156 C155 1.396 . S
C156 C157 1.397 . S
C157 C156 1.397 . S
C157 C158 1.385 . S
C158 H141 0.940 . S
C158 C157 1.385 . S
C158 C159 1.388 . S
C159 H138 0.939 . S
C159 C154 1.391 . S
C159 C158 1.388 . S
P160 O171 1.490 . S
P160 C174 1.812 . S
P160 C180 1.803 . S
P160 C186 1.819 . S
H161 C175 0.941 . S
H162 C176 0.939 . S
H163 C178 0.940 . S
H164 C179 0.940 . S
H165 C181 0.939 . S
H166 C182 0.942 . S
H167 C184 0.940 . S
H168 C185 0.939 . S
H169 C187 0.941 . S
H170 C191 0.939 . S
O171 P160 1.490 . S
H172 C188 0.939 . S
H173 C190 0.940 . S
C174 P160 1.812 . S
C174 C175 1.389 . S
C174 C179 1.391 . S
C175 H161 0.941 . S
C175 C174 1.389 . S
C175 C176 1.397 . S
C176 H162 0.939 . S
C176 C175 1.397 . S
C176 C177 1.378 . S
C177 C176 1.378 . S
C177 C178 1.378 . S
C178 H163 0.940 . S
C178 C177 1.378 . S
C178 C179 1.396 . S
C179 H164 0.940 . S
C179 C174 1.391 . S
C179 C178 1.396 . S
C180 P160 1.803 . S
C180 C181 1.378 . S
C180 C185 1.400 . S
C181 H165 0.939 . S
C181 C180 1.378 . S
C181 C182 1.361 . S
C182 H166 0.942 . S
C182 C181 1.361 . S
C182 C183 1.369 . S
C183 C182 1.369 . S
C183 C184 1.404 . S
C184 H167 0.940 . S
C184 C183 1.404 . S
C184 C185 1.389 . S
C185 H168 0.939 . S
C185 C180 1.400 . S
C185 C184 1.389 . S
C186 P160 1.819 . S
C186 C187 1.391 . S
C186 C191 1.391 . S
C187 H169 0.941 . S
C187 C186 1.391 . S
C187 C188 1.396 . S
C188 H172 0.939 . S
C188 C187 1.396 . S
C188 C189 1.397 . S
C189 C188 1.397 . S
C189 C190 1.385 . S
C190 H173 0.940 . S
C190 C189 1.385 . S
C190 C191 1.388 . S
C191 H170 0.939 . S
C191 C186 1.391 . S
C191 C190 1.388 . S
P192 O203 1.490 . S
P192 C206 1.812 . S
P192 C212 1.803 . S
P192 C218 1.819 . S
H193 C207 0.941 . S
H194 C208 0.939 . S
H195 C210 0.940 . S
H196 C211 0.940 . S
H197 C213 0.939 . S
H198 C214 0.942 . S
H199 C216 0.940 . S
H200 C217 0.939 . S
H201 C219 0.941 . S
H202 C223 0.939 . S
O203 P192 1.490 . S
H204 C220 0.939 . S
H205 C222 0.940 . S
C206 P192 1.812 . S
C206 C207 1.389 . S
C206 C211 1.391 . S
C207 H193 0.941 . S
C207 C206 1.389 . S
C207 C208 1.397 . S
C208 H194 0.939 . S
C208 C207 1.397 . S
C208 C209 1.378 . S
C209 C208 1.378 . S
C209 C210 1.378 . S
C210 H195 0.940 . S
C210 C209 1.378 . S
C210 C211 1.396 . S
C211 H196 0.940 . S
C211 C206 1.391 . S
C211 C210 1.396 . S
C212 P192 1.803 . S
C212 C213 1.378 . S
C212 C217 1.400 . S
C213 H197 0.939 . S
C213 C212 1.378 . S
C213 C214 1.361 . S
C214 H198 0.942 . S
C214 C213 1.361 . S
C214 C215 1.369 . S
C215 C214 1.369 . S
C215 C216 1.404 . S
C216 H199 0.940 . S
C216 C215 1.404 . S
C216 C217 1.389 . S
C217 H200 0.939 . S
C217 C212 1.400 . S
C217 C216 1.389 . S
C218 P192 1.819 . S
C218 C219 1.391 . S
C218 C223 1.391 . S
C219 H201 0.941 . S
C219 C218 1.391 . S
C219 C220 1.396 . S
C220 H204 0.939 . S
C220 C219 1.396 . S
C220 C221 1.397 . S
C221 C220 1.397 . S
C221 C222 1.385 . S
C222 H205 0.940 . S
C222 C221 1.385 . S
C222 C223 1.388 . S
C223 H202 0.939 . S
C223 C218 1.391 . S
C223 C222 1.388 . S
P224 O235 1.490 . S
P224 C238 1.812 . S
P224 C244 1.803 . S
P224 C250 1.819 . S
H225 C239 0.941 . S
H226 C240 0.939 . S
H227 C242 0.940 . S
H228 C243 0.940 . S
H229 C245 0.939 . S
H230 C246 0.942 . S
H231 C248 0.940 . S
H232 C249 0.939 . S
H233 C251 0.941 . S
H234 C255 0.939 . S
O235 P224 1.490 . S
H236 C252 0.939 . S
H237 C254 0.940 . S
C238 P224 1.812 . S
C238 C239 1.389 . S
C238 C243 1.391 . S
C239 H225 0.941 . S
C239 C238 1.389 . S
C239 C240 1.397 . S
C240 H226 0.939 . S
C240 C239 1.397 . S
C240 C241 1.378 . S
C241 C240 1.378 . S
C241 C242 1.378 . S
C242 H227 0.940 . S
C242 C241 1.378 . S
C242 C243 1.396 . S
C243 H228 0.940 . S
C243 C238 1.391 . S
C243 C242 1.396 . S
C244 P224 1.803 . S
C244 C245 1.378 . S
C244 C249 1.400 . S
C245 H229 0.939 . S
C245 C244 1.378 . S
C245 C246 1.361 . S
C246 H230 0.942 . S
C246 C245 1.361 . S
C246 C247 1.369 . S
C247 C246 1.369 . S
C247 C248 1.404 . S
C248 H231 0.940 . S
C248 C247 1.404 . S
C248 C249 1.389 . S
C249 H232 0.939 . S
C249 C244 1.400 . S
C249 C248 1.389 . S
C250 P224 1.819 . S
C250 C251 1.391 . S
C250 C255 1.391 . S
C251 H233 0.941 . S
C251 C250 1.391 . S
C251 C252 1.396 . S
C252 H236 0.939 . S
C252 C251 1.396 . S
C252 C253 1.397 . S
C253 C252 1.397 . S
C253 C254 1.385 . S
C254 H237 0.940 . S
C254 C253 1.385 . S
C254 C255 1.388 . S
C255 H234 0.939 . S
C255 C250 1.391 . S
C255 C254 1.388 . S
Zn256 O262 1.969 1_545 S
Zn256 O263 1.965 1_545 S
Zn256 O267 2.024 . S
Zn256 O272 1.969 . S
Zn257 O264 1.969 . S
Zn257 O270 1.969 1_565 S
Zn257 O271 1.965 1_665 S
Zn257 O273 2.024 . S
C258 O259 1.229 . S
C258 O267 1.058 . S
O259 C258 1.229 . S
C260 O261 1.229 . S
C260 O273 1.058 . S
O261 C260 1.229 . S
O262 Zn256 1.969 1_565 S
O262 C265 1.267 . S
O263 Zn256 1.965 1_565 S
O263 C274 1.260 1_455 S
O264 Zn257 1.969 . S
O264 C274 1.258 . S
C265 O262 1.267 . S
C265 O266 1.228 . S
O266 C265 1.228 . S
O267 Zn256 2.024 . S
O267 C258 1.058 . S
C268 O269 1.228 . S
C268 O270 1.267 . S
O269 C268 1.228 . S
O270 Zn257 1.969 1_545 S
O270 C268 1.267 . S
O271 Zn257 1.965 1_445 S
O271 C275 1.260 . S
O272 Zn256 1.969 . S
O272 C275 1.258 . S
O273 Zn257 2.024 . S
O273 C260 1.058 . S
C274 O263 1.260 1_655 S
C274 O264 1.258 . S
C275 O271 1.260 . S
C275 O272 1.258 . S
Zn276 O282 1.969 . S
Zn276 O283 1.965 1_565 S
Zn276 O287 2.024 . S
Zn276 O292 1.969 1_556 S
Zn277 O284 1.969 . S
Zn277 O290 1.969 . S
Zn277 O291 1.965 1_545 S
Zn277 O293 2.024 . S
C278 O279 1.229 . S
C278 O287 1.058 . S
O279 C278 1.229 . S
C280 O281 1.229 . S
C280 O293 1.058 . S
O281 C280 1.229 . S
O282 Zn276 1.969 . S
O282 C285 1.267 . S
O283 Zn276 1.965 1_545 S
O283 C294 1.260 . S
O284 Zn277 1.969 . S
O284 C294 1.258 1_554 S
C285 O282 1.267 . S
C285 O286 1.228 . S
O286 C285 1.228 . S
O287 Zn276 2.024 . S
O287 C278 1.058 . S
C288 O289 1.228 . S
C288 O290 1.267 . S
O289 C288 1.228 . S
O290 Zn277 1.969 . S
O290 C288 1.267 . S
O291 Zn277 1.965 1_565 S
O291 C295 1.260 . S
O292 Zn276 1.969 1_554 S
O292 C295 1.258 . S
O293 Zn277 2.024 . S
O293 C280 1.058 . S
C294 O283 1.260 . S
C294 O284 1.258 1_556 S
C295 O291 1.260 . S
C295 O292 1.258 . S
Zn296 O302 1.969 . S
Zn296 O303 1.965 . S
Zn296 O307 2.024 . S
Zn296 O312 1.969 . S
Zn297 O304 1.969 . S
Zn297 O310 1.969 . S
Zn297 O311 1.965 . S
Zn297 O313 2.024 . S
C298 O299 1.229 . S
C298 O307 1.058 . S
O299 C298 1.229 . S
C300 O301 1.229 . S
C300 O313 1.058 . S
O301 C300 1.229 . S
O302 Zn296 1.969 . S
O302 C305 1.267 . S
O303 Zn296 1.965 . S
O303 C314 1.260 . S
O304 Zn297 1.969 . S
O304 C314 1.258 . S
C305 O302 1.267 . S
C305 O306 1.228 . S
O306 C305 1.228 . S
O307 Zn296 2.024 . S
O307 C298 1.058 . S
C308 O309 1.228 . S
C308 O310 1.267 . S
O309 C308 1.228 . S
O310 Zn297 1.969 . S
O310 C308 1.267 . S
O311 Zn297 1.965 . S
O311 C315 1.260 . S
O312 Zn296 1.969 . S
O312 C315 1.258 . S
O313 Zn297 2.024 . S
O313 C300 1.058 . S
C314 O303 1.260 . S
C314 O304 1.258 . S
C315 O311 1.260 . S
C315 O312 1.258 . S
Zn316 O322 1.969 . S
Zn316 O323 1.965 1_556 S
Zn316 O327 2.024 . S
Zn316 O332 1.969 1_655 S
Zn317 O324 1.969 . S
Zn317 O330 1.969 . S
Zn317 O331 1.965 1_554 S
Zn317 O333 2.024 . S
C318 O319 1.229 . S
C318 O327 1.058 . S
O319 C318 1.229 . S
C320 O321 1.229 . S
C320 O333 1.058 . S
O321 C320 1.229 . S
O322 Zn316 1.969 . S
O322 C325 1.267 . S
O323 Zn316 1.965 1_554 S
O323 C334 1.260 . S
O324 Zn317 1.969 . S
O324 C334 1.258 1_455 S
C325 O322 1.267 . S
C325 O326 1.228 . S
O326 C325 1.228 . S
O327 Zn316 2.024 . S
O327 C318 1.058 . S
C328 O329 1.228 . S
C328 O330 1.267 . S
O329 C328 1.228 . S
O330 Zn317 1.969 . S
O330 C328 1.267 . S
O331 Zn317 1.965 1_556 S
O331 C335 1.260 . S
O332 Zn316 1.969 1_455 S
O332 C335 1.258 . S
O333 Zn317 2.024 . S
O333 C320 1.058 . S
C334 O323 1.260 . S
C334 O324 1.258 1_655 S
C335 O331 1.260 . S
C335 O332 1.258 . S
C336 C337 1.391 . S
C336 C338 1.394 . S
C336 H352 0.931 . S
C337 C336 1.391 . S
C337 C341 1.376 . S
C338 C336 1.394 . S
C338 C339 1.369 . S
C338 C342 1.531 . S
C339 C338 1.369 . S
C339 C340 1.410 . S
C339 C347 1.503 . S
C340 C339 1.410 . S
C340 C341 1.392 . S
C340 C343 1.511 . S
C341 C337 1.376 . S
C341 C340 1.392 . S
C341 H353 0.929 . S
C342 C338 1.531 . S
C342 H354 0.960 . S
C342 H355 0.962 . S
C342 H356 0.960 . S
C343 C340 1.511 . S
C343 H357 0.961 . S
C343 H358 0.961 . S
C343 H359 0.961 . S
C344 C345 1.370 . S
C344 C346 1.363 . S
C344 H360 0.931 . S
C345 C344 1.370 . S
C345 C349 1.408 . S
C346 C344 1.363 . S
C346 C347 1.370 . S
C346 C350 1.524 . S
C347 C339 1.503 . S
C347 C346 1.370 . S
C347 C348 1.403 . S
C348 C347 1.403 . S
C348 C349 1.404 . S
C348 C351 1.539 . S
C349 C345 1.408 . S
C349 C348 1.404 . S
C349 H361 0.930 . S
C350 C346 1.524 . S
C350 H362 0.956 . S
C350 H363 0.961 . S
C350 H364 0.961 . S
C351 C348 1.539 . S
C351 H365 0.958 . S
C351 H366 0.961 . S
C351 H367 0.960 . S
H352 C336 0.931 . S
H353 C341 0.929 . S
H354 C342 0.960 . S
H355 C342 0.962 . S
H356 C342 0.960 . S
H357 C343 0.961 . S
H358 C343 0.961 . S
H359 C343 0.961 . S
H360 C344 0.931 . S
H361 C349 0.930 . S
H362 C350 0.956 . S
H363 C350 0.961 . S
H364 C350 0.961 . S
H365 C351 0.958 . S
H366 C351 0.961 . S
H367 C351 0.960 . S
C368 C369 1.391 . S
C368 C370 1.394 . S
C368 H384 0.931 . S
C369 C368 1.391 . S
C369 C373 1.376 . S
C370 C368 1.394 . S
C370 C371 1.369 . S
C370 C374 1.531 . S
C371 C370 1.369 . S
C371 C372 1.410 . S
C371 C379 1.503 . S
C372 C371 1.410 . S
C372 C373 1.392 . S
C372 C375 1.511 . S
C373 C369 1.376 . S
C373 C372 1.392 . S
C373 H385 0.929 . S
C374 C370 1.531 . S
C374 H386 0.960 . S
C374 H387 0.962 . S
C374 H388 0.960 . S
C375 C372 1.511 . S
C375 H389 0.961 . S
C375 H390 0.961 . S
C375 H391 0.961 . S
C376 C377 1.370 . S
C376 C378 1.363 . S
C376 H392 0.941 . S
C377 C376 1.370 . S
C377 C381 1.408 . S
C378 C376 1.363 . S
C378 C379 1.370 . S
C378 C382 1.524 . S
C379 C371 1.503 . S
C379 C378 1.370 . S
C379 C380 1.403 . S
C380 C379 1.403 . S
C380 C381 1.404 . S
C380 C383 1.539 . S
C381 C377 1.408 . S
C381 C380 1.404 . S
C381 H393 0.930 . S
C382 C378 1.524 . S
C382 H394 0.956 . S
C382 H395 0.961 . S
C382 H396 0.961 1_565 S
C383 C380 1.539 . S
C383 H397 0.958 . S
C383 H398 0.961 . S
C383 H399 0.960 . S
H384 C368 0.931 . S
H385 C373 0.929 . S
H386 C374 0.960 . S
H387 C374 0.962 . S
H388 C374 0.960 . S
H389 C375 0.961 . S
H390 C375 0.961 . S
H391 C375 0.961 . S
H392 C376 0.941 . S
H393 C381 0.930 . S
H394 C382 0.956 . S
H395 C382 0.961 . S
H396 C382 0.961 1_545 S
H397 C383 0.958 . S
H398 C383 0.961 . S
H399 C383 0.960 . S
C400 C401 1.391 . S
C400 C402 1.394 . S
C400 H416 0.931 . S
C401 C400 1.391 . S
C401 C405 1.376 . S
C402 C400 1.394 . S
C402 C403 1.369 . S
C402 C406 1.531 . S
C403 C402 1.369 . S
C403 C404 1.410 . S
C403 C411 1.503 . S
C404 C403 1.410 . S
C404 C405 1.392 . S
C404 C407 1.511 . S
C405 C401 1.376 . S
C405 C404 1.392 . S
C405 H417 0.929 . S
C406 C402 1.531 . S
C406 H418 0.960 . S
C406 H419 0.962 . S
C406 H420 0.960 . S
C407 C404 1.511 . S
C407 H421 0.961 . S
C407 H422 0.961 . S
C407 H423 0.961 . S
C408 C409 1.370 . S
C408 C410 1.363 . S
C408 H424 0.931 . S
C409 C408 1.370 . S
C409 C413 1.408 . S
C410 C408 1.363 . S
C410 C411 1.370 . S
C410 C414 1.524 . S
C411 C403 1.503 . S
C411 C410 1.370 . S
C411 C412 1.403 . S
C412 C411 1.403 . S
C412 C413 1.404 . S
C412 C415 1.539 . S
C413 C409 1.408 . S
C413 C412 1.404 . S
C413 H425 0.930 . S
C414 C410 1.524 . S
C414 H426 0.956 . S
C414 H427 0.961 . S
C414 H428 0.961 . S
C415 C412 1.539 . S
C415 H429 0.958 . S
C415 H430 0.961 . S
C415 H431 0.960 . S
H416 C400 0.931 . S
H417 C405 0.929 . S
H418 C406 0.960 . S
H419 C406 0.962 . S
H420 C406 0.960 . S
H421 C407 0.961 . S
H422 C407 0.961 . S
H423 C407 0.961 . S
H424 C408 0.931 . S
H425 C413 0.930 . S
H426 C414 0.956 . S
H427 C414 0.961 . S
H428 C414 0.961 . S
H429 C415 0.958 . S
H430 C415 0.961 . S
H431 C415 0.960 . S
C432 C433 1.391 . S
C432 C434 1.394 . S
C432 H448 0.931 . S
C433 C432 1.391 . S
C433 C437 1.376 . S
C434 C432 1.394 . S
C434 C435 1.369 . S
C434 C438 1.531 . S
C435 C434 1.369 . S
C435 C436 1.410 . S
C435 C443 1.503 . S
C436 C435 1.410 . S
C436 C437 1.392 . S
C436 C439 1.511 . S
C437 C433 1.376 . S
C437 C436 1.392 . S
C437 H449 0.929 . S
C438 C434 1.531 . S
C438 H450 0.960 . S
C438 H451 0.962 . S
C438 H452 0.960 . S
C439 C436 1.511 . S
C439 H453 0.961 . S
C439 H454 0.961 . S
C439 H455 0.961 . S
C440 C441 1.370 . S
C440 C442 1.363 . S
C440 H456 0.931 . S
C441 C440 1.370 . S
C441 C445 1.408 . S
C442 C440 1.363 . S
C442 C443 1.370 . S
C442 C446 1.524 . S
C443 C435 1.503 . S
C443 C442 1.370 . S
C443 C444 1.403 . S
C444 C443 1.403 . S
C444 C445 1.404 . S
C444 C447 1.539 . S
C445 C441 1.408 . S
C445 C444 1.404 . S
C445 H457 0.930 . S
C446 C442 1.524 . S
C446 H458 0.956 . S
C446 H459 0.961 . S
C446 H460 0.961 . S
C447 C444 1.539 . S
C447 H461 0.958 . S
C447 H462 0.961 . S
C447 H463 0.960 . S
H448 C432 0.931 . S
H449 C437 0.929 . S
H450 C438 0.960 . S
H451 C438 0.962 . S
H452 C438 0.960 . S
H453 C439 0.961 . S
H454 C439 0.961 . S
H455 C439 0.961 . S
H456 C440 0.931 . S
H457 C445 0.930 . S
H458 C446 0.956 . S
H459 C446 0.961 . S
H460 C446 0.961 . S
H461 C447 0.958 . S
H462 C447 0.961 . S
H463 C447 0.960 . S
C464 C465 1.391 . S
C464 C466 1.394 . S
C464 H480 0.931 . S
C465 C464 1.391 . S
C465 C469 1.376 . S
C466 C464 1.394 . S
C466 C467 1.369 . S
C466 C470 1.531 . S
C467 C466 1.369 . S
C467 C468 1.410 . S
C467 C475 1.503 . S
C468 C467 1.410 . S
C468 C469 1.392 . S
C468 C471 1.511 . S
C469 C465 1.376 . S
C469 C468 1.392 . S
C469 H481 0.929 . S
C470 C466 1.531 . S
C470 H482 0.960 . S
C470 H483 0.962 . S
C470 H484 0.960 . S
C471 C468 1.511 . S
C471 H485 0.961 . S
C471 H486 0.961 . S
C471 H487 0.961 . S
C472 C473 1.370 . S
C472 C474 1.363 . S
C472 H488 0.931 . S
C473 C472 1.370 . S
C473 C477 1.408 . S
C474 C472 1.363 . S
C474 C475 1.370 . S
C474 C478 1.524 . S
C475 C467 1.503 . S
C475 C474 1.370 . S
C475 C476 1.403 . S
C476 C475 1.403 . S
C476 C477 1.404 . S
C476 C479 1.539 . S
C477 C473 1.408 . S
C477 C476 1.404 . S
C477 H489 0.930 . S
C478 C474 1.524 . S
C478 H490 0.956 . S
C478 H491 0.961 . S
C478 H492 0.961 . S
C479 C476 1.539 . S
C479 H493 0.958 . S
C479 H494 0.961 . S
C479 H495 0.960 . S
H480 C464 0.931 . S
H481 C469 0.929 . S
H482 C470 0.960 . S
H483 C470 0.962 . S
H484 C470 0.960 . S
H485 C471 0.961 . S
H486 C471 0.961 . S
H487 C471 0.961 . S
H488 C472 0.931 . S
H489 C477 0.930 . S
H490 C478 0.956 . S
H491 C478 0.961 . S
H492 C478 0.961 . S
H493 C479 0.958 . S
H494 C479 0.961 . S
H495 C479 0.960 . S
C496 C497 1.391 . S
C496 C498 1.394 . S
C496 H512 0.931 . S
C497 C496 1.391 . S
C497 C501 1.376 . S
C498 C496 1.394 . S
C498 C499 1.369 . S
C498 C502 1.531 . S
C499 C498 1.369 . S
C499 C500 1.410 . S
C499 C507 1.503 . S
C500 C499 1.410 . S
C500 C501 1.392 . S
C500 C503 1.511 . S
C501 C497 1.376 . S
C501 C500 1.392 . S
C501 H513 0.929 . S
C502 C498 1.531 . S
C502 H514 0.960 . S
C502 H515 0.962 . S
C502 H516 0.960 . S
C503 C500 1.511 . S
C503 H517 0.961 . S
C503 H518 0.961 . S
C503 H519 0.961 . S
C504 C505 1.370 . S
C504 C506 1.363 . S
C504 H520 0.931 . S
C505 C504 1.370 . S
C505 C509 1.408 . S
C506 C504 1.363 . S
C506 C507 1.370 . S
C506 C510 1.524 . S
C507 C499 1.503 . S
C507 C506 1.370 . S
C507 C508 1.403 . S
C508 C507 1.403 . S
C508 C509 1.404 . S
C508 C511 1.539 . S
C509 C505 1.408 . S
C509 C508 1.404 . S
C509 H521 0.930 . S
C510 C506 1.524 . S
C510 H522 0.956 . S
C510 H523 0.961 . S
C510 H524 0.961 . S
C511 C508 1.539 . S
C511 H525 0.958 . S
C511 H526 0.961 . S
C511 H527 0.960 . S
H512 C496 0.931 . S
H513 C501 0.929 . S
H514 C502 0.960 . S
H515 C502 0.962 . S
H516 C502 0.960 . S
H517 C503 0.961 . S
H518 C503 0.961 . S
H519 C503 0.961 . S
H520 C504 0.931 . S
H521 C509 0.930 . S
H522 C510 0.956 . S
H523 C510 0.961 . S
H524 C510 0.961 . S
H525 C511 0.958 . S
H526 C511 0.961 . S
H527 C511 0.960 . S
C528 C529 1.391 . S
C528 C530 1.394 . S
C528 H544 0.931 . S
C529 C528 1.391 . S
C529 C533 1.376 . S
C530 C528 1.394 . S
C530 C531 1.369 . S
C530 C534 1.531 . S
C531 C530 1.369 . S
C531 C532 1.410 . S
C531 C539 1.503 . S
C532 C531 1.410 . S
C532 C533 1.392 . S
C532 C535 1.511 . S
C533 C529 1.376 . S
C533 C532 1.392 . S
C533 H545 0.929 . S
C534 C530 1.531 . S
C534 H546 0.960 . S
C534 H547 0.962 . S
C534 H548 0.960 . S
C535 C532 1.511 . S
C535 H549 0.961 . S
C535 H550 0.961 . S
C535 H551 0.961 . S
C536 C537 1.370 . S
C536 C538 1.363 . S
C536 H552 0.931 . S
C537 C536 1.370 . S
C537 C541 1.408 . S
C538 C536 1.363 . S
C538 C539 1.370 . S
C538 C542 1.524 . S
C539 C531 1.503 . S
C539 C538 1.370 . S
C539 C540 1.403 . S
C540 C539 1.403 . S
C540 C541 1.404 . S
C540 C543 1.539 . S
C541 C537 1.408 . S
C541 C540 1.404 . S
C541 H553 0.930 . S
C542 C538 1.524 . S
C542 H554 0.956 . S
C542 H555 0.961 . S
C542 H556 0.961 . S
C543 C540 1.539 . S
C543 H557 0.958 . S
C543 H558 0.961 . S
C543 H559 0.960 . S
H544 C528 0.931 . S
H545 C533 0.929 . S
H546 C534 0.960 . S
H547 C534 0.962 . S
H548 C534 0.960 . S
H549 C535 0.961 . S
H550 C535 0.961 . S
H551 C535 0.961 . S
H552 C536 0.931 . S
H553 C541 0.930 . S
H554 C542 0.956 . S
H555 C542 0.961 . S
H556 C542 0.961 . S
H557 C543 0.958 . S
H558 C543 0.961 . S
H559 C543 0.960 . S
C560 C561 1.391 . S
C560 C562 1.394 . S
C560 H576 0.931 . S
C561 C560 1.391 . S
C561 C565 1.376 . S
C562 C560 1.394 . S
C562 C563 1.369 . S
C562 C566 1.531 . S
C563 C562 1.369 . S
C563 C564 1.410 . S
C563 C571 1.503 . S
C564 C563 1.410 . S
C564 C565 1.392 . S
C564 C567 1.511 . S
C565 C561 1.376 . S
C565 C564 1.392 . S
C565 H577 0.929 . S
C566 C562 1.531 . S
C566 H578 0.960 . S
C566 H579 0.962 . S
C566 H580 0.960 . S
C567 C564 1.511 . S
C567 H581 0.961 . S
C567 H582 0.961 . S
C567 H583 0.961 . S
C568 C569 1.370 . S
C568 C570 1.363 . S
C568 H584 0.931 . S
C569 C568 1.370 . S
C569 C573 1.408 . S
C570 C568 1.363 . S
C570 C571 1.370 . S
C570 C574 1.524 . S
C571 C563 1.503 . S
C571 C570 1.370 . S
C571 C572 1.403 . S
C572 C571 1.403 . S
C572 C573 1.404 . S
C572 C575 1.539 . S
C573 C569 1.408 . S
C573 C572 1.404 . S
C573 H585 0.930 . S
C574 C570 1.524 . S
C574 H586 0.956 . S
C574 H587 0.961 . S
C574 H588 0.961 . S
C575 C572 1.539 . S
C575 H589 0.958 . S
C575 H590 0.961 . S
C575 H591 0.960 . S
H576 C560 0.931 . S
H577 C565 0.929 . S
H578 C566 0.960 . S
H579 C566 0.962 . S
H580 C566 0.960 . S
H581 C567 0.961 . S
H582 C567 0.961 . S
H583 C567 0.961 . S
H584 C568 0.931 . S
H585 C573 0.930 . S
H586 C574 0.956 . S
H587 C574 0.961 . S
H588 C574 0.961 . S
H589 C575 0.958 . S
H590 C575 0.961 . S
H591 C575 0.960 . S
C592 C593 1.391 . S
C592 C594 1.394 . S
C592 H608 0.931 . S
C593 C592 1.391 . S
C593 C597 1.376 . S
C594 C592 1.394 . S
C594 C595 1.369 . S
C594 C598 1.531 . S
C595 C594 1.369 . S
C595 C596 1.410 . S
C595 C603 1.503 . S
C596 C595 1.410 . S
C596 C597 1.392 . S
C596 C599 1.511 . S
C597 C593 1.376 . S
C597 C596 1.392 . S
C597 H609 0.929 . S
C598 C594 1.531 . S
C598 H610 0.960 . S
C598 H611 0.962 . S
C598 H612 0.960 . S
C599 C596 1.511 . S
C599 H613 0.961 . S
C599 H614 0.961 . S
C599 H615 0.961 . S
C600 C601 1.370 . S
C600 C602 1.363 . S
C600 H616 0.931 . S
C601 C600 1.370 . S
C601 C605 1.408 . S
C602 C600 1.363 . S
C602 C603 1.370 . S
C602 C606 1.524 . S
C603 C595 1.503 . S
C603 C602 1.370 . S
C603 C604 1.403 . S
C604 C603 1.403 . S
C604 C605 1.404 . S
C604 C607 1.539 . S
C605 C601 1.408 . S
C605 C604 1.404 . S
C605 H617 0.930 . S
C606 C602 1.524 . S
C606 H618 0.956 . S
C606 H619 0.961 . S
C606 H620 0.961 . S
C607 C604 1.539 . S
C607 H621 0.958 . S
C607 H622 0.961 . S
C607 H623 0.960 . S
H608 C592 0.931 . S
H609 C597 0.929 . S
H610 C598 0.960 . S
H611 C598 0.962 . S
H612 C598 0.960 . S
H613 C599 0.961 . S
H614 C599 0.961 . S
H615 C599 0.961 . S
H616 C600 0.931 . S
H617 C605 0.930 . S
H618 C606 0.956 . S
H619 C606 0.961 . S
H620 C606 0.961 . S
H621 C607 0.958 . S
H622 C607 0.961 . S
H623 C607 0.960 . S
C624 C625 1.391 . S
C624 C626 1.394 . S
C624 H640 0.931 . S
C625 C624 1.391 . S
C625 C629 1.376 . S
C626 C624 1.394 . S
C626 C627 1.369 . S
C626 C630 1.531 . S
C627 C626 1.369 . S
C627 C628 1.410 . S
C627 C635 1.503 . S
C628 C627 1.410 . S
C628 C629 1.392 . S
C628 C631 1.511 . S
C629 C625 1.376 . S
C629 C628 1.392 . S
C629 H641 0.929 . S
C630 C626 1.531 . S
C630 H642 0.960 . S
C630 H643 0.962 . S
C630 H644 0.960 . S
C631 C628 1.511 . S
C631 H645 0.961 . S
C631 H646 0.961 . S
C631 H647 0.961 . S
C632 C633 1.370 . S
C632 C634 1.363 . S
C632 H648 0.931 . S
C633 C632 1.370 . S
C633 C637 1.408 . S
C634 C632 1.363 . S
C634 C635 1.370 . S
C634 C638 1.524 . S
C635 C627 1.503 . S
C635 C634 1.370 . S
C635 C636 1.403 . S
C636 C635 1.403 . S
C636 C637 1.404 . S
C636 C639 1.539 . S
C637 C633 1.408 . S
C637 C636 1.404 . S
C637 H649 0.930 . S
C638 C634 1.524 . S
C638 H650 0.956 . S
C638 H651 0.961 . S
C638 H652 0.961 . S
C639 C636 1.539 . S
C639 H653 0.958 . S
C639 H654 0.961 . S
C639 H655 0.960 . S
H640 C624 0.931 . S
H641 C629 0.929 . S
H642 C630 0.960 . S
H643 C630 0.962 . S
H644 C630 0.960 . S
H645 C631 0.961 . S
H646 C631 0.961 . S
H647 C631 0.961 . S
H648 C632 0.931 . S
H649 C637 0.930 . S
H650 C638 0.956 . S
H651 C638 0.961 . S
H652 C638 0.961 . S
H653 C639 0.958 . S
H654 C639 0.961 . S
H655 C639 0.960 . S
C656 C657 1.391 . S
C656 C658 1.394 . S
C656 H672 0.931 . S
C657 C656 1.391 . S
C657 C661 1.376 . S
C658 C656 1.394 . S
C658 C659 1.369 . S
C658 C662 1.531 . S
C659 C658 1.369 . S
C659 C660 1.410 . S
C659 C667 1.503 . S
C660 C659 1.410 . S
C660 C661 1.392 . S
C660 C663 1.511 . S
C661 C657 1.376 . S
C661 C660 1.392 . S
C661 H673 0.929 . S
C662 C658 1.531 . S
C662 H674 0.960 . S
C662 H675 0.962 . S
C662 H676 0.960 . S
C663 C660 1.511 . S
C663 H677 0.961 . S
C663 H678 0.961 . S
C663 H679 0.961 . S
C664 C665 1.370 . S
C664 C666 1.363 . S
C664 H680 0.931 . S
C665 C664 1.370 . S
C665 C669 1.408 . S
C666 C664 1.363 . S
C666 C667 1.370 . S
C666 C670 1.524 . S
C667 C659 1.503 . S
C667 C666 1.370 . S
C667 C668 1.403 . S
C668 C667 1.403 . S
C668 C669 1.404 . S
C668 C671 1.539 . S
C669 C665 1.408 . S
C669 C668 1.404 . S
C669 H681 0.930 . S
C670 C666 1.524 . S
C670 H682 0.956 . S
C670 H683 0.961 . S
C670 H684 0.961 . S
C671 C668 1.539 . S
C671 H685 0.958 . S
C671 H686 0.961 . S
C671 H687 0.960 . S
H672 C656 0.931 . S
H673 C661 0.929 . S
H674 C662 0.960 . S
H675 C662 0.962 . S
H676 C662 0.960 . S
H677 C663 0.961 . S
H678 C663 0.961 . S
H679 C663 0.961 . S
H680 C664 0.931 . S
H681 C669 0.930 . S
H682 C670 0.956 . S
H683 C670 0.961 . S
H684 C670 0.961 . S
H685 C671 0.958 . S
H686 C671 0.961 . S
H687 C671 0.960 . S
C688 C689 1.391 . S
C688 C690 1.394 . S
C688 H704 0.931 . S
C689 C688 1.391 . S
C689 C693 1.376 . S
C690 C688 1.394 . S
C690 C691 1.369 . S
C690 C694 1.531 . S
C691 C690 1.369 . S
C691 C692 1.410 . S
C691 C699 1.503 . S
C692 C691 1.410 . S
C692 C693 1.392 . S
C692 C695 1.511 . S
C693 C689 1.376 . S
C693 C692 1.392 . S
C693 H705 0.929 . S
C694 C690 1.531 . S
C694 H706 0.960 . S
C694 H707 0.962 . S
C694 H708 0.960 . S
C695 C692 1.511 . S
C695 H709 0.961 . S
C695 H710 0.961 . S
C695 H711 0.961 . S
C696 C697 1.370 . S
C696 C698 1.363 . S
C696 H712 0.931 . S
C697 C696 1.370 . S
C697 C701 1.408 . S
C698 C696 1.363 . S
C698 C699 1.370 . S
C698 C702 1.524 . S
C699 C691 1.503 . S
C699 C698 1.370 . S
C699 C700 1.403 . S
C700 C699 1.403 . S
C700 C701 1.404 . S
C700 C703 1.539 . S
C701 C697 1.408 . S
C701 C700 1.404 . S
C701 H713 0.930 . S
C702 C698 1.524 . S
C702 H714 0.956 . S
C702 H715 0.961 . S
C702 H716 0.961 . S
C703 C700 1.539 . S
C703 H717 0.958 . S
C703 H718 0.961 . S
C703 H719 0.960 . S
H704 C688 0.931 . S
H705 C693 0.929 . S
H706 C694 0.960 . S
H707 C694 0.962 . S
H708 C694 0.960 . S
H709 C695 0.961 . S
H710 C695 0.961 . S
H711 C695 0.961 . S
H712 C696 0.931 . S
H713 C701 0.930 . S
H714 C702 0.956 . S
H715 C702 0.961 . S
H716 C702 0.961 . S
H717 C703 0.958 . S
H718 C703 0.961 . S
H719 C703 0.960 . S
C720 C721 1.391 . S
C720 C722 1.394 . S
C720 H736 0.931 . S
C721 C720 1.391 . S
C721 C725 1.376 . S
C722 C720 1.394 . S
C722 C723 1.369 . S
C722 C726 1.531 . S
C723 C722 1.369 . S
C723 C724 1.410 . S
C723 C731 1.503 . S
C724 C723 1.410 . S
C724 C725 1.392 . S
C724 C727 1.511 . S
C725 C721 1.376 . S
C725 C724 1.392 . S
C725 H737 0.929 . S
C726 C722 1.531 . S
C726 H738 0.960 . S
C726 H739 0.962 . S
C726 H740 0.960 . S
C727 C724 1.511 . S
C727 H741 0.961 . S
C727 H742 0.961 . S
C727 H743 0.961 . S
C728 C729 1.370 . S
C728 C730 1.363 . S
C728 H744 0.931 . S
C729 C728 1.370 . S
C729 C733 1.408 . S
C730 C728 1.363 . S
C730 C731 1.370 . S
C730 C734 1.524 . S
C731 C723 1.503 . S
C731 C730 1.370 . S
C731 C732 1.403 . S
C732 C731 1.403 . S
C732 C733 1.404 . S
C732 C735 1.539 . S
C733 C729 1.408 . S
C733 C732 1.404 . S
C733 H745 0.930 . S
C734 C730 1.524 . S
C734 H746 0.956 . S
C734 H747 0.961 . S
C734 H748 0.961 . S
C735 C732 1.539 . S
C735 H749 0.958 . S
C735 H750 0.961 . S
C735 H751 0.960 . S
H736 C720 0.931 . S
H737 C725 0.929 . S
H738 C726 0.960 . S
H739 C726 0.962 . S
H740 C726 0.960 . S
H741 C727 0.961 . S
H742 C727 0.961 . S
H743 C727 0.961 . S
H744 C728 0.931 . S
H745 C733 0.930 . S
H746 C734 0.956 . S
H747 C734 0.961 . S
H748 C734 0.961 . S
H749 C735 0.958 . S
H750 C735 0.961 . S
H751 C735 0.960 . S
C752 C753 1.391 . S
C752 C754 1.394 . S
C752 H768 0.931 . S
C753 C752 1.391 . S
C753 C757 1.376 . S
C754 C752 1.394 . S
C754 C755 1.369 . S
C754 C758 1.531 . S
C755 C754 1.369 . S
C755 C756 1.410 . S
C755 C763 1.503 . S
C756 C755 1.410 . S
C756 C757 1.392 . S
C756 C759 1.511 . S
C757 C753 1.376 . S
C757 C756 1.392 . S
C757 H769 0.929 . S
C758 C754 1.531 . S
C758 H770 0.960 . S
C758 H771 0.962 . S
C758 H772 0.960 . S
C759 C756 1.511 . S
C759 H773 0.961 . S
C759 H774 0.961 . S
C759 H775 0.961 . S
C760 C761 1.370 . S
C760 C762 1.363 . S
C760 H776 0.931 . S
C761 C760 1.370 . S
C761 C765 1.408 . S
C762 C760 1.363 . S
C762 C763 1.370 . S
C762 C766 1.524 . S
C763 C755 1.503 . S
C763 C762 1.370 . S
C763 C764 1.403 . S
C764 C763 1.403 . S
C764 C765 1.404 . S
C764 C767 1.539 . S
C765 C761 1.408 . S
C765 C764 1.404 . S
C765 H777 0.930 . S
C766 C762 1.524 . S
C766 H778 0.956 . S
C766 H779 0.961 . S
C766 H780 0.961 . S
C767 C764 1.539 . S
C767 H781 0.958 . S
C767 H782 0.961 . S
C767 H783 0.960 . S
H768 C752 0.931 . S
H769 C757 0.929 . S
H770 C758 0.960 . S
H771 C758 0.962 . S
H772 C758 0.960 . S
H773 C759 0.961 . S
H774 C759 0.961 . S
H775 C759 0.961 . S
H776 C760 0.931 . S
H777 C765 0.930 . S
H778 C766 0.956 . S
H779 C766 0.961 . S
H780 C766 0.961 . S
H781 C767 0.958 . S
H782 C767 0.961 . S
H783 C767 0.960 . S
C784 C785 1.391 . S
C784 C786 1.394 . S
C784 H800 0.931 . S
C785 C784 1.391 . S
C785 C789 1.376 . S
C786 C784 1.394 . S
C786 C787 1.369 . S
C786 C790 1.531 . S
C787 C786 1.369 . S
C787 C788 1.410 . S
C787 C795 1.503 . S
C788 C787 1.410 . S
C788 C789 1.392 . S
C788 C791 1.511 . S
C789 C785 1.376 . S
C789 C788 1.392 . S
C789 H801 0.929 . S
C790 C786 1.531 . S
C790 H802 0.960 . S
C790 H803 0.962 . S
C790 H804 0.960 . S
C791 C788 1.511 . S
C791 H805 0.961 . S
C791 H806 0.961 . S
C791 H807 0.961 . S
C792 C793 1.370 . S
C792 C794 1.363 . S
C792 H808 0.931 . S
C793 C792 1.370 . S
C793 C797 1.408 . S
C794 C792 1.363 . S
C794 C795 1.370 . S
C794 C798 1.524 . S
C795 C787 1.503 . S
C795 C794 1.370 . S
C795 C796 1.403 . S
C796 C795 1.403 . S
C796 C797 1.404 . S
C796 C799 1.539 . S
C797 C793 1.408 . S
C797 C796 1.404 . S
C797 H809 0.930 . S
C798 C794 1.524 . S
C798 H810 0.956 . S
C798 H811 0.961 . S
C798 H812 0.961 . S
C799 C796 1.539 . S
C799 H813 0.958 . S
C799 H814 0.961 . S
C799 H815 0.960 . S
H800 C784 0.931 . S
H801 C789 0.929 . S
H802 C790 0.960 . S
H803 C790 0.962 . S
H804 C790 0.960 . S
H805 C791 0.961 . S
H806 C791 0.961 . S
H807 C791 0.961 . S
H808 C792 0.931 . S
H809 C797 0.930 . S
H810 C798 0.956 . S
H811 C798 0.961 . S
H812 C798 0.961 . S
H813 C799 0.958 . S
H814 C799 0.961 . S
H815 C799 0.960 . S
C816 C817 1.391 . S
C816 C818 1.394 . S
C816 H832 0.931 . S
C817 C816 1.391 . S
C817 C821 1.376 . S
C818 C816 1.394 . S
C818 C819 1.369 . S
C818 C822 1.531 . S
C819 C818 1.369 . S
C819 C820 1.410 . S
C819 C827 1.503 . S
C820 C819 1.410 . S
C820 C821 1.392 . S
C820 C823 1.511 . S
C821 C817 1.376 . S
C821 C820 1.392 . S
C821 H833 0.929 . S
C822 C818 1.531 . S
C822 H834 0.960 . S
C822 H835 0.962 . S
C822 H836 0.960 . S
C823 C820 1.511 . S
C823 H837 0.961 . S
C823 H838 0.961 . S
C823 H839 0.961 . S
C824 C825 1.370 . S
C824 C826 1.363 . S
C824 H840 0.931 . S
C825 C824 1.370 . S
C825 C829 1.408 . S
C826 C824 1.363 . S
C826 C827 1.370 . S
C826 C830 1.524 . S
C827 C819 1.503 . S
C827 C826 1.370 . S
C827 C828 1.403 . S
C828 C827 1.403 . S
C828 C829 1.404 . S
C828 C831 1.539 . S
C829 C825 1.408 . S
C829 C828 1.404 . S
C829 H841 0.930 . S
C830 C826 1.524 . S
C830 H842 0.956 . S
C830 H843 0.961 . S
C830 H844 0.961 . S
C831 C828 1.539 . S
C831 H845 0.958 . S
C831 H846 0.961 . S
C831 H847 0.960 . S
H832 C816 0.931 . S
H833 C821 0.929 . S
H834 C822 0.960 . S
H835 C822 0.962 . S
H836 C822 0.960 . S
H837 C823 0.961 . S
H838 C823 0.961 . S
H839 C823 0.961 . S
H840 C824 0.931 . S
H841 C829 0.930 . S
H842 C830 0.956 . S
H843 C830 0.961 . S
H844 C830 0.961 . S
H845 C831 0.958 . S
H846 C831 0.961 . S
H847 C831 0.960 . S
C848 C849 1.391 . S
C848 C850 1.394 . S
C848 H864 0.931 . S
C849 C848 1.391 . S
C849 C853 1.376 . S
C850 C848 1.394 . S
C850 C851 1.369 . S
C850 C854 1.531 . S
C851 C850 1.369 . S
C851 C852 1.410 . S
C851 C859 1.503 . S
C852 C851 1.410 . S
C852 C853 1.392 . S
C852 C855 1.511 . S
C853 C849 1.376 . S
C853 C852 1.392 . S
C853 H865 0.929 . S
C854 C850 1.531 . S
C854 H866 0.960 . S
C854 H867 0.962 . S
C854 H868 0.960 . S
C855 C852 1.511 . S
C855 H869 0.961 . S
C855 H870 0.961 . S
C855 H871 0.961 . S
C856 C857 1.370 . S
C856 C858 1.363 . S
C856 H872 0.931 . S
C857 C856 1.370 . S
C857 C861 1.408 . S
C858 C856 1.363 . S
C858 C859 1.370 . S
C858 C862 1.524 . S
C859 C851 1.503 . S
C859 C858 1.370 . S
C859 C860 1.403 . S
C860 C859 1.403 . S
C860 C861 1.404 . S
C860 C863 1.539 . S
C861 C857 1.408 . S
C861 C860 1.404 . S
C861 H873 0.930 . S
C862 C858 1.524 . S
C862 H874 0.956 . S
C862 H875 0.961 . S
C862 H876 0.961 . S
C863 C860 1.539 . S
C863 H877 0.958 . S
C863 H878 0.961 . S
C863 H879 0.960 . S
H864 C848 0.931 . S
H865 C853 0.929 . S
H866 C854 0.960 . S
H867 C854 0.962 . S
H868 C854 0.960 . S
H869 C855 0.961 . S
H870 C855 0.961 . S
H871 C855 0.961 . S
H872 C856 0.931 . S
H873 C861 0.930 . S
H874 C862 0.956 . S
H875 C862 0.961 . S
H876 C862 0.961 . S
H877 C863 0.958 . S
H878 C863 0.961 . S
H879 C863 0.960 . S
C880 C881 1.391 . S
C880 C882 1.394 . S
C880 H896 0.931 . S
C881 C880 1.391 . S
C881 C885 1.376 . S
C882 C880 1.394 . S
C882 C883 1.369 . S
C882 C886 1.531 . S
C883 C882 1.369 . S
C883 C884 1.410 . S
C883 C891 1.503 . S
C884 C883 1.410 . S
C884 C885 1.392 . S
C884 C887 1.511 . S
C885 C881 1.376 . S
C885 C884 1.392 . S
C885 H897 0.929 . S
C886 C882 1.531 . S
C886 H898 0.960 . S
C886 H899 0.962 . S
C886 H900 0.960 . S
C887 C884 1.511 . S
C887 H901 0.961 . S
C887 H902 0.961 . S
C887 H903 0.961 . S
C888 C889 1.370 . S
C888 C890 1.363 . S
C888 H904 0.931 . S
C889 C888 1.370 . S
C889 C893 1.408 . S
C890 C888 1.363 . S
C890 C891 1.370 . S
C890 C894 1.524 . S
C891 C883 1.503 . S
C891 C890 1.370 . S
C891 C892 1.403 . S
C892 C891 1.403 . S
C892 C893 1.404 . S
C892 C895 1.539 . S
C893 C889 1.408 . S
C893 C892 1.404 . S
C893 H905 0.930 . S
C894 C890 1.524 . S
C894 H906 0.956 . S
C894 H907 0.961 . S
C894 H908 0.961 . S
C895 C892 1.539 . S
C895 H909 0.958 . S
C895 H910 0.961 . S
C895 H911 0.960 . S
H896 C880 0.931 . S
H897 C885 0.929 . S
H898 C886 0.960 . S
H899 C886 0.962 . S
H900 C886 0.960 . S
H901 C887 0.961 . S
H902 C887 0.961 . S
H903 C887 0.961 . S
H904 C888 0.931 . S
H905 C893 0.930 . S
H906 C894 0.956 . S
H907 C894 0.961 . S
H908 C894 0.961 . S
H909 C895 0.958 . S
H910 C895 0.961 . S
H911 C895 0.960 . S
C912 C913 1.391 . S
C912 C914 1.394 . S
C912 H928 0.931 . S
C913 C912 1.391 . S
C913 C917 1.376 . S
C914 C912 1.394 . S
C914 C915 1.369 . S
C914 C918 1.531 . S
C915 C914 1.369 . S
C915 C916 1.410 . S
C915 C923 1.503 . S
C916 C915 1.410 . S
C916 C917 1.392 . S
C916 C919 1.511 . S
C917 C913 1.376 . S
C917 C916 1.392 . S
C917 H929 0.929 . S
C918 C914 1.531 . S
C918 H930 0.960 . S
C918 H931 0.962 . S
C918 H932 0.960 . S
C919 C916 1.511 . S
C919 H933 0.961 . S
C919 H934 0.961 . S
C919 H935 0.961 . S
C920 C921 1.370 . S
C920 C922 1.363 . S
C920 H936 0.931 . S
C921 C920 1.370 . S
C921 C925 1.408 . S
C922 C920 1.363 . S
C922 C923 1.370 . S
C922 C926 1.524 . S
C923 C915 1.503 . S
C923 C922 1.370 . S
C923 C924 1.403 . S
C924 C923 1.403 . S
C924 C925 1.404 . S
C924 C927 1.539 . S
C925 C921 1.408 . S
C925 C924 1.404 . S
C925 H937 0.930 . S
C926 C922 1.524 . S
C926 H938 0.956 . S
C926 H939 0.961 . S
C926 H940 0.961 . S
C927 C924 1.539 . S
C927 H941 0.958 . S
C927 H942 0.961 . S
C927 H943 0.960 . S
H928 C912 0.931 . S
H929 C917 0.929 . S
H930 C918 0.960 . S
H931 C918 0.962 . S
H932 C918 0.960 . S
H933 C919 0.961 . S
H934 C919 0.961 . S
H935 C919 0.961 . S
H936 C920 0.931 . S
H937 C925 0.930 . S
H938 C926 0.956 . S
H939 C926 0.961 . S
H940 C926 0.961 . S
H941 C927 0.958 . S
H942 C927 0.961 . S
H943 C927 0.960 . S
C944 C945 1.391 . S
C944 C946 1.394 . S
C944 H960 0.931 . S
C945 C944 1.391 . S
C945 C949 1.376 . S
C946 C944 1.394 . S
C946 C947 1.369 . S
C946 C950 1.531 . S
C947 C946 1.369 . S
C947 C948 1.410 . S
C947 C955 1.503 . S
C948 C947 1.410 . S
C948 C949 1.392 . S
C948 C951 1.511 . S
C949 C945 1.376 . S
C949 C948 1.392 . S
C949 H961 0.929 . S
C950 C946 1.531 . S
C950 H962 0.960 . S
C950 H963 0.962 . S
C950 H964 0.960 . S
C951 C948 1.511 . S
C951 H965 0.961 . S
C951 H966 0.961 . S
C951 H967 0.961 . S
C952 C953 1.370 . S
C952 C954 1.363 . S
C952 H968 0.931 . S
C953 C952 1.370 . S
C953 C957 1.408 . S
C954 C952 1.363 . S
C954 C955 1.370 . S
C954 C958 1.524 . S
C955 C947 1.503 . S
C955 C954 1.370 . S
C955 C956 1.403 . S
C956 C955 1.403 . S
C956 C957 1.404 . S
C956 C959 1.539 . S
C957 C953 1.408 . S
C957 C956 1.404 . S
C957 H969 0.930 . S
C958 C954 1.524 . S
C958 H970 0.956 . S
C958 H971 0.961 . S
C958 H972 0.961 . S
C959 C956 1.539 . S
C959 H973 0.958 . S
C959 H974 0.961 . S
C959 H975 0.960 . S
H960 C944 0.931 . S
H961 C949 0.929 . S
H962 C950 0.960 . S
H963 C950 0.962 . S
H964 C950 0.960 . S
H965 C951 0.961 . S
H966 C951 0.961 . S
H967 C951 0.961 . S
H968 C952 0.931 . S
H969 C957 0.930 . S
H970 C958 0.956 . S
H971 C958 0.961 . S
H972 C958 0.961 . S
H973 C959 0.958 . S
H974 C959 0.961 . S
H975 C959 0.960 . S
C976 C977 1.391 . S
C976 C978 1.394 . S
C976 H992 0.931 . S
C977 C976 1.391 . S
C977 C981 1.376 . S
C978 C976 1.394 . S
C978 C979 1.369 . S
C978 C982 1.531 . S
C979 C978 1.369 . S
C979 C980 1.410 . S
C979 C987 1.503 . S
C980 C979 1.410 . S
C980 C981 1.392 . S
C980 C983 1.511 . S
C981 C977 1.376 . S
C981 C980 1.392 . S
C981 H993 0.929 . S
C982 C978 1.531 . S
C982 H994 0.960 . S
C982 H995 0.962 . S
C982 H996 0.960 . S
C983 C980 1.511 . S
C983 H997 0.961 . S
C983 H998 0.961 . S
C983 H999 0.961 . S
C984 C985 1.370 . S
C984 C986 1.363 . S
C984 H1000 0.931 . S
C985 C984 1.370 . S
C985 C989 1.408 . S
C986 C984 1.363 . S
C986 C987 1.370 . S
C986 C990 1.524 . S
C987 C979 1.503 . S
C987 C986 1.370 . S
C987 C988 1.403 . S
C988 C987 1.403 . S
C988 C989 1.404 . S
C988 C991 1.539 . S
C989 C985 1.408 . S
C989 C988 1.404 . S
C989 H1001 0.930 . S
C990 C986 1.524 . S
C990 H1002 0.956 . S
C990 H1003 0.961 . S
C990 H1004 0.961 . S
C991 C988 1.539 . S
C991 H1005 0.958 . S
C991 H1006 0.961 . S
C991 H1007 0.960 . S
H992 C976 0.931 . S
H993 C981 0.929 . S
H994 C982 0.960 . S
H995 C982 0.962 . S
H996 C982 0.960 . S
H997 C983 0.961 . S
H998 C983 0.961 . S
H999 C983 0.961 . S
H1000 C984 0.931 . S
H1001 C989 0.930 . S
H1002 C990 0.956 . S
H1003 C990 0.961 . S
H1004 C990 0.961 . S
H1005 C991 0.958 . S
H1006 C991 0.961 . S
H1007 C991 0.960 . S
C1008 C1009 1.391 . S
C1008 C1010 1.394 . S
C1008 H1024 0.931 . S
C1009 C1008 1.391 . S
C1009 C1013 1.376 . S
C1010 C1008 1.394 . S
C1010 C1011 1.369 . S
C1010 C1014 1.531 . S
C1011 C1010 1.369 . S
C1011 C1012 1.410 . S
C1011 C1019 1.503 . S
C1012 C1011 1.410 . S
C1012 C1013 1.392 . S
C1012 C1015 1.511 . S
C1013 C1009 1.376 . S
C1013 C1012 1.392 . S
C1013 H1025 0.929 . S
C1014 C1010 1.531 . S
C1014 H1026 0.960 . S
C1014 H1027 0.962 . S
C1014 H1028 0.960 . S
C1015 C1012 1.511 . S
C1015 H1029 0.961 . S
C1015 H1030 0.961 . S
C1015 H1031 0.961 . S
C1016 C1017 1.370 . S
C1016 C1018 1.363 . S
C1016 H1032 0.931 . S
C1017 C1016 1.370 . S
C1017 C1021 1.408 . S
C1018 C1016 1.363 . S
C1018 C1019 1.370 . S
C1018 C1022 1.524 . S
C1019 C1011 1.503 . S
C1019 C1018 1.370 . S
C1019 C1020 1.403 . S
C1020 C1019 1.403 . S
C1020 C1021 1.404 . S
C1020 C1023 1.539 . S
C1021 C1017 1.408 . S
C1021 C1020 1.404 . S
C1021 H1033 0.930 . S
C1022 C1018 1.524 . S
C1022 H1034 0.956 . S
C1022 H1035 0.961 . S
C1022 H1036 0.961 . S
C1023 C1020 1.539 . S
C1023 H1037 0.958 . S
C1023 H1038 0.961 . S
C1023 H1039 0.960 . S
H1024 C1008 0.931 . S
H1025 C1013 0.929 . S
H1026 C1014 0.960 . S
H1027 C1014 0.962 . S
H1028 C1014 0.960 . S
H1029 C1015 0.961 . S
H1030 C1015 0.961 . S
H1031 C1015 0.961 . S
H1032 C1016 0.931 . S
H1033 C1021 0.930 . S
H1034 C1022 0.956 . S
H1035 C1022 0.961 . S
H1036 C1022 0.961 . S
H1037 C1023 0.958 . S
H1038 C1023 0.961 . S
H1039 C1023 0.960 . S
C1040 C1041 1.391 . S
C1040 C1042 1.394 . S
C1040 H1056 0.931 . S
C1041 C1040 1.391 . S
C1041 C1045 1.376 . S
C1042 C1040 1.394 . S
C1042 C1043 1.369 . S
C1042 C1046 1.531 . S
C1043 C1042 1.369 . S
C1043 C1044 1.410 . S
C1043 C1051 1.503 . S
C1044 C1043 1.410 . S
C1044 C1045 1.392 . S
C1044 C1047 1.511 . S
C1045 C1041 1.376 . S
C1045 C1044 1.392 . S
C1045 H1057 0.929 . S
C1046 C1042 1.531 . S
C1046 H1058 0.960 . S
C1046 H1059 0.962 . S
C1046 H1060 0.960 . S
C1047 C1044 1.511 . S
C1047 H1061 0.961 . S
C1047 H1062 0.961 . S
C1047 H1063 0.961 . S
C1048 C1049 1.370 . S
C1048 C1050 1.363 . S
C1048 H1064 0.931 . S
C1049 C1048 1.370 . S
C1049 C1053 1.408 . S
C1050 C1048 1.363 . S
C1050 C1051 1.370 . S
C1050 C1054 1.524 . S
C1051 C1043 1.503 . S
C1051 C1050 1.370 . S
C1051 C1052 1.403 . S
C1052 C1051 1.403 . S
C1052 C1053 1.404 . S
C1052 C1055 1.539 . S
C1053 C1049 1.408 . S
C1053 C1052 1.404 . S
C1053 H1065 0.930 . S
C1054 C1050 1.524 . S
C1054 H1066 0.956 . S
C1054 H1067 0.961 . S
C1054 H1068 0.961 . S
C1055 C1052 1.539 . S
C1055 H1069 0.958 . S
C1055 H1070 0.961 . S
C1055 H1071 0.960 . S
H1056 C1040 0.931 . S
H1057 C1045 0.929 . S
H1058 C1046 0.960 . S
H1059 C1046 0.962 . S
H1060 C1046 0.960 . S
H1061 C1047 0.961 . S
H1062 C1047 0.961 . S
H1063 C1047 0.961 . S
H1064 C1048 0.931 . S
H1065 C1053 0.930 . S
H1066 C1054 0.956 . S
H1067 C1054 0.961 . S
H1068 C1054 0.961 . S
H1069 C1055 0.958 . S
H1070 C1055 0.961 . S
H1071 C1055 0.960 . S
C1072 C1073 1.391 . S
C1072 C1074 1.394 . S
C1072 H1088 0.931 . S
C1073 C1072 1.391 . S
C1073 C1077 1.376 . S
C1074 C1072 1.394 . S
C1074 C1075 1.369 . S
C1074 C1078 1.531 . S
C1075 C1074 1.369 . S
C1075 C1076 1.410 . S
C1075 C1083 1.503 . S
C1076 C1075 1.410 . S
C1076 C1077 1.392 . S
C1076 C1079 1.511 . S
C1077 C1073 1.376 . S
C1077 C1076 1.392 . S
C1077 H1089 0.929 . S
C1078 C1074 1.531 . S
C1078 H1090 0.960 . S
C1078 H1091 0.962 . S
C1078 H1092 0.960 . S
C1079 C1076 1.511 . S
C1079 H1093 0.961 . S
C1079 H1094 0.961 . S
C1079 H1095 0.961 . S
C1080 C1081 1.370 . S
C1080 C1082 1.363 . S
C1080 H1096 0.931 . S
C1081 C1080 1.370 . S
C1081 C1085 1.408 . S
C1082 C1080 1.363 . S
C1082 C1083 1.370 . S
C1082 C1086 1.524 . S
C1083 C1075 1.503 . S
C1083 C1082 1.370 . S
C1083 C1084 1.403 . S
C1084 C1083 1.403 . S
C1084 C1085 1.404 . S
C1084 C1087 1.539 . S
C1085 C1081 1.408 . S
C1085 C1084 1.404 . S
C1085 H1097 0.930 . S
C1086 C1082 1.524 . S
C1086 H1098 0.956 . S
C1086 H1099 0.961 . S
C1086 H1100 0.961 . S
C1087 C1084 1.539 . S
C1087 H1101 0.958 . S
C1087 H1102 0.961 . S
C1087 H1103 0.960 . S
H1088 C1072 0.931 . S
H1089 C1077 0.929 . S
H1090 C1078 0.960 . S
H1091 C1078 0.962 . S
H1092 C1078 0.960 . S
H1093 C1079 0.961 . S
H1094 C1079 0.961 . S
H1095 C1079 0.961 . S
H1096 C1080 0.931 . S
H1097 C1085 0.930 . S
H1098 C1086 0.956 . S
H1099 C1086 0.961 . S
H1100 C1086 0.961 . S
H1101 C1087 0.958 . S
H1102 C1087 0.961 . S
H1103 C1087 0.960 . S
C337 C29 1.541 . S
C345 C275 1.504 . S
C369 C49 1.240 . S
C377 C278 1.206 . S
C409 C314 1.780 . S
C401 C93 1.792 . S
C433 C119 1.608 . S
C441 C334 1.600 . S
C473 C288 1.651 . S
C465 C17 1.691 . S
C505 C265 1.554 . S
C497 C61 1.531 . S
C537 C318 1.534 . S
C529 C81 1.662 . S
C569 C298 1.388 . S
C561 C125 1.488 . S
C593 C23 1.344 . S
C601 C328 1.297 . S
C633 C294 1.597 . S
C625 C87 1.610 . S
C657 C113 1.657 . S
C665 C260 1.603 . S
C689 C55 1.285 . S
C697 C308 1.310 . S
C729 C274 1.445 . S
C721 C157 1.446 . S
C753 C189 1.261 . S
C761 C280 1.252 . S
C785 C221 1.728 . S
C793 C315 1.756 . S
C817 C253 1.686 . S
C825 C335 1.656 . S
C849 C145 1.664 . S
C857 C285 1.700 . S
C889 C268 1.468 . S
C881 C183 1.469 . S
C921 C320 1.571 . S
C913 C209 1.628 . S
C953 C300 1.388 . S
C945 C247 1.429 . S
C977 C151 1.244 . S
C985 C325 1.288 . S
C1017 C295 1.595 . S
C1009 C215 1.592 . S
C1049 C258 1.605 . S
C1041 C241 1.646 . S
C1073 C177 1.309 . S
C1081 C305 1.316 . S
