# Generated by pormake.
# Topology dag, (6,3)-cn, num edge types: 1
# Building blocks:
#     Node 0, Type 0, BuildingBlock: OJICUG_clean_sbu_0, # of connection points: 6
#     Node 1, Type 0, BuildingBlock: OJICUG_clean_sbu_0, # of connection points: 6
#     Node 2, Type 0, BuildingBlock: OJICUG_clean_sbu_0, # of connection points: 6
#     Node 3, Type 0, BuildingBlock: OJICUG_clean_sbu_0, # of connection points: 6
#     Node 4, Type 1, BuildingBlock: VETTIZ_charged_linker_0, # of connection points: 3
#     Node 5, Type 1, BuildingBlock: VETTIZ_charged_linker_0, # of connection points: 3
#     Node 6, Type 1, BuildingBlock: VETTIZ_charged_linker_0, # of connection points: 3
#     Node 7, Type 1, BuildingBlock: VETTIZ_charged_linker_0, # of connection points: 3
#     Node 8, Type 1, BuildingBlock: VETTIZ_charged_linker_0, # of connection points: 3
#     Node 9, Type 1, BuildingBlock: VETTIZ_charged_linker_0, # of connection points: 3
#     Node 10, Type 1, BuildingBlock: VETTIZ_charged_linker_0, # of connection points: 3
#     Node 11, Type 1, BuildingBlock: VETTIZ_charged_linker_0, # of connection points: 3
#     Edge 12, Type (0, 1), BuildingBlock: MIFKUJ_clean_linker_0, # of connection points: 2
#     Edge 13, Type (0, 1), BuildingBlock: MIFKUJ_clean_linker_0, # of connection points: 2
#     Edge 14, Type (0, 1), BuildingBlock: MIFKUJ_clean_linker_0, # of connection points: 2
#     Edge 15, Type (0, 1), BuildingBlock: MIFKUJ_clean_linker_0, # of connection points: 2
#     Edge 16, Type (0, 1), BuildingBlock: MIFKUJ_clean_linker_0, # of connection points: 2
#     Edge 17, Type (0, 1), BuildingBlock: MIFKUJ_clean_linker_0, # of connection points: 2
#     Edge 18, Type (0, 1), BuildingBlock: MIFKUJ_clean_linker_0, # of connection points: 2
#     Edge 19, Type (0, 1), BuildingBlock: MIFKUJ_clean_linker_0, # of connection points: 2
#     Edge 20, Type (0, 1), BuildingBlock: MIFKUJ_clean_linker_0, # of connection points: 2
#     Edge 21, Type (0, 1), BuildingBlock: MIFKUJ_clean_linker_0, # of connection points: 2
#     Edge 22, Type (0, 1), BuildingBlock: MIFKUJ_clean_linker_0, # of connection points: 2
#     Edge 23, Type (0, 1), BuildingBlock: MIFKUJ_clean_linker_0, # of connection points: 2
#     Edge 24, Type (0, 1), BuildingBlock: MIFKUJ_clean_linker_0, # of connection points: 2
#     Edge 25, Type (0, 1), BuildingBlock: MIFKUJ_clean_linker_0, # of connection points: 2
#     Edge 26, Type (0, 1), BuildingBlock: MIFKUJ_clean_linker_0, # of connection points: 2
#     Edge 27, Type (0, 1), BuildingBlock: MIFKUJ_clean_linker_0, # of connection points: 2
#     Edge 28, Type (0, 1), BuildingBlock: MIFKUJ_clean_linker_0, # of connection points: 2
#     Edge 29, Type (0, 1), BuildingBlock: MIFKUJ_clean_linker_0, # of connection points: 2
#     Edge 30, Type (0, 1), BuildingBlock: MIFKUJ_clean_linker_0, # of connection points: 2
#     Edge 31, Type (0, 1), BuildingBlock: MIFKUJ_clean_linker_0, # of connection points: 2
#     Edge 32, Type (0, 1), BuildingBlock: MIFKUJ_clean_linker_0, # of connection points: 2
#     Edge 33, Type (0, 1), BuildingBlock: MIFKUJ_clean_linker_0, # of connection points: 2
#     Edge 34, Type (0, 1), BuildingBlock: MIFKUJ_clean_linker_0, # of connection points: 2
#     Edge 35, Type (0, 1), BuildingBlock: MIFKUJ_clean_linker_0, # of connection points: 2
# Relax obj value: 0.268
# Max RMSD: 0.196
# Mean RMSD: 0.162
data_MOF--net-dag--node1-OJICUG_clean_sbu_0--node2-VETTIZ_charged_linker_0--edge1-MIFKUJ_clean_linker_0
_symmetry_space_group_name_H-M    P1
_symmetry_Int_Tables_number       1
_symmetry_cell_setting            triclinic
loop_
_symmetry_equiv_pos_as_xyz
'x, y, z'
_cell_length_a     56.409201
_cell_length_b     56.373557
_cell_length_c     58.91971
_cell_angle_alpha  89.909809
_cell_angle_beta   90.050879
_cell_angle_gamma 90.032919
loop_
_atom_site_label
_atom_site_type_symbol
_atom_site_fract_x
_atom_site_fract_y
_atom_site_fract_z
_atom_type_partial_charge
Sc0 Sc 0.15678 0.83275 0.98783 0.0
Sc1 Sc 0.16835 0.77296 0.00056 0.0
Sc2 Sc 0.21533 0.81466 -0.00193 0.0
O3 O 0.18017 0.80675 0.99549 0.0
C4 C 0.19953 0.84604 0.95532 0.0
C5 C 0.13476 0.78948 0.96006 0.0
C6 C 0.21496 0.76588 0.97066 0.0
C7 C 0.12995 0.80403 0.02679 0.0
C8 C 0.19234 0.85953 0.02153 0.0
C9 C 0.20846 0.77755 0.03842 0.0
O10 O 0.17755 0.8451 0.95985 0.0
O11 O 0.14488 0.77337 0.97162 0.0
O12 O 0.22446 0.78539 0.97657 0.0
O13 O 0.13399 0.82269 0.01527 0.0
O14 O 0.20923 0.84474 0.01985 0.0
O15 O 0.18986 0.7682 0.03026 0.0
O16 O 0.17316 0.85771 0.01037 0.0
O17 O 0.14056 0.78446 0.02326 0.0
O18 O 0.21974 0.794 0.02842 0.0
O19 O 0.13743 0.81137 0.96423 0.0
O20 O 0.2153 0.83682 0.96802 0.0
O21 O 0.19506 0.75877 0.97827 0.0
Sc22 Sc 0.72257 0.6741 0.49018 0.0
Sc23 Sc 0.67914 0.71938 0.49309 0.0
Sc24 Sc 0.66276 0.65966 0.49889 0.0
O25 O 0.68818 0.68437 0.49404 0.0
C26 C 0.69574 0.63465 0.46171 0.0
C27 C 0.71734 0.71597 0.45379 0.0
C28 C 0.63638 0.69581 0.46594 0.0
C29 C 0.72715 0.71935 0.52197 0.0
C30 C 0.70455 0.63746 0.52793 0.0
C31 C 0.64696 0.70061 0.53332 0.0
O32 O 0.7138 0.6478 0.46486 0.0
O33 O 0.69874 0.72488 0.46238 0.0
O34 O 0.64007 0.67502 0.47349 0.0
O35 O 0.73425 0.69902 0.51555 0.0
O36 O 0.68271 0.64142 0.52438 0.0
O37 O 0.65822 0.71731 0.52364 0.0
O38 O 0.72092 0.64737 0.51649 0.0
O39 O 0.70862 0.72918 0.51409 0.0
O40 O 0.64648 0.67952 0.52574 0.0
O41 O 0.72851 0.69881 0.46284 0.0
O42 O 0.67672 0.63676 0.47308 0.0
O43 O 0.64834 0.71373 0.4722 0.0
Sc44 Sc 0.83214 0.2282 -0.00049 0.0
Sc45 Sc 0.78597 0.18574 0.00182 0.0
Sc46 Sc 0.8454 0.16793 0.00701 0.0
O47 O 0.82113 0.19393 0.00264 0.0
C48 C 0.86959 0.20134 0.96926 0.0
C49 C 0.7883 0.22691 0.96517 0.0
C50 C 0.80878 0.14396 0.97264 0.0
C51 C 0.7889 0.23162 0.03363 0.0
C52 C 0.86792 0.20851 0.03705 0.0
C53 C 0.80426 0.15074 0.04043 0.0
O54 O 0.85677 0.21947 0.97301 0.0
O55 O 0.77949 0.20783 0.97284 0.0
O56 O 0.82932 0.14635 0.98124 0.0
O57 O 0.80878 0.2388 0.02616 0.0
O58 O 0.86345 0.1868 0.03342 0.0
O59 O 0.78796 0.16242 0.03065 0.0
O60 O 0.85942 0.22516 0.02503 0.0
O61 O 0.77784 0.21386 0.02545 0.0
O62 O 0.82562 0.15079 0.03362 0.0
O63 O 0.80647 0.23674 0.97372 0.0
O64 O 0.86813 0.18236 0.98094 0.0
O65 O 0.79109 0.15653 0.97858 0.0
Sc66 Sc 0.33721 0.34401 0.49774 0.0
Sc67 Sc 0.27632 0.33267 0.49024 0.0
Sc68 Sc 0.31706 0.28514 0.49424 0.0
O69 O 0.31017 0.3206 0.49414 0.0
C70 C 0.36112 0.3046 0.46645 0.0
C71 C 0.30598 0.36818 0.459 0.0
C72 C 0.27848 0.28981 0.45502 0.0
C73 C 0.29626 0.36906 0.52662 0.0
C74 C 0.35136 0.30415 0.53352 0.0
C75 C 0.26952 0.28825 0.52316 0.0
O76 O 0.36042 0.32511 0.47526 0.0
O77 O 0.28663 0.35864 0.46531 0.0
O78 O 0.29509 0.27889 0.46514 0.0
O79 O 0.31773 0.36586 0.52094 0.0
O80 O 0.34031 0.28756 0.52338 0.0
O81 O 0.2627 0.308 0.51501 0.0
O82 O 0.35128 0.32551 0.52654 0.0
O83 O 0.27913 0.35817 0.51729 0.0
O84 O 0.28851 0.27797 0.51713 0.0
O85 O 0.32567 0.36441 0.46889 0.0
O86 O 0.34624 0.2884 0.47102 0.0
O87 O 0.26975 0.30916 0.46221 0.0
C88 C 0.16445 0.07071 0.17396 0.0
C89 C 0.14784 0.0567 0.1623 0.0
C90 C 0.12419 0.06459 0.16062 0.0
C91 C 0.13434 0.1006 0.18078 0.0
C92 C 0.15736 0.09253 0.18294 0.0
C93 C 0.17306 0.11005 0.19493 0.0
H94 H 0.18507 0.21536 0.24807 0.0
C95 C 0.13311 0.12449 0.19093 0.0
C96 C 0.15575 0.13011 0.19924 0.0
H97 H 0.23813 0.16088 0.23888 0.0
H98 H 0.21026 0.13747 0.21727 0.0
H99 H 0.1649 0.21348 0.19674 0.0
H100 H 0.14288 0.18134 0.25953 0.0
H101 H 0.11725 0.19166 0.24565 0.0
H102 H 0.13994 0.21248 0.2538 0.0
H103 H 0.14913 0.22979 0.21803 0.0
H104 H 0.13381 0.21319 0.1963 0.0
C105 C 0.19314 0.11754 0.17844 0.0
C106 C 0.18177 0.09846 0.2173 0.0
C107 C 0.05677 0.17185 0.18647 0.0
C108 C 0.05101 0.19528 0.19242 0.0
C109 C 0.06786 0.20921 0.20398 0.0
C110 C 0.09036 0.20009 0.20904 0.0
C111 C 0.09616 0.1769 0.20223 0.0
C112 C 0.07939 0.16312 0.19137 0.0
C113 C 0.08899 0.13933 0.18441 0.0
C114 C 0.11437 0.14117 0.19276 0.0
C115 C 0.11842 0.16318 0.20318 0.0
C116 C 0.08757 0.13753 0.15818 0.0
C117 C 0.07493 0.11993 0.19729 0.0
C118 C 0.19091 0.19868 0.2409 0.0
C119 C 0.21385 0.18998 0.24508 0.0
C120 C 0.22051 0.16788 0.23594 0.0
C121 C 0.20427 0.1543 0.22349 0.0
C122 C 0.1811 0.16286 0.22025 0.0
C123 C 0.1749 0.18488 0.22859 0.0
C124 C 0.14948 0.19105 0.22381 0.0
C125 C 0.14124 0.16881 0.21171 0.0
C126 C 0.15982 0.15241 0.20966 0.0
C127 C 0.1491 0.2131 0.20804 0.0
C128 C 0.13657 0.19451 0.2468 0.0
H129 H 0.09916 0.09155 0.16777 0.0
H130 H 0.18281 0.06526 0.17531 0.0
H131 H 0.16783 0.08683 0.22473 0.0
H132 H 0.1857 0.11154 0.23072 0.0
H133 H 0.19772 0.08735 0.21435 0.0
H134 H 0.1865 0.11846 0.16067 0.0
H135 H 0.208 0.10462 0.17884 0.0
H136 H 0.20014 0.13545 0.18196 0.0
H137 H 0.04437 0.16094 0.17708 0.0
H138 H 0.06374 0.22731 0.20868 0.0
H139 H 0.10253 0.21163 0.21764 0.0
H140 H 0.09087 0.15509 0.15012 0.0
H141 H 0.06978 0.1314 0.15261 0.0
H142 H 0.10117 0.12574 0.15088 0.0
H143 H 0.07041 0.1259 0.21475 0.0
H144 H 0.08517 0.10342 0.19973 0.0
H145 H 0.05806 0.1157 0.18843 0.0
H146 H 0.11102 0.05395 0.15193 0.0
C147 C 0.11734 0.08641 0.16985 0.0
C148 C 0.31057 0.59841 0.6519 0.0
C149 C 0.32324 0.58383 0.63689 0.0
C150 C 0.34589 0.59104 0.6295 0.0
C151 C 0.34367 0.62593 0.65328 0.0
C152 C 0.32113 0.61926 0.65992 0.0
C153 C 0.31079 0.63594 0.67714 0.0
H154 H 0.32868 0.72274 0.75344 0.0
C155 C 0.35014 0.64758 0.66591 0.0
C156 C 0.33089 0.65369 0.67976 0.0
H157 H 0.26557 0.68072 0.7427 0.0
H158 H 0.28272 0.66382 0.70891 0.0
H159 H 0.36674 0.68253 0.74262 0.0
H160 H 0.33554 0.73649 0.70032 0.0
H161 H 0.36447 0.73209 0.69019 0.0
H162 H 0.36003 0.74291 0.71874 0.0
H163 H 0.37133 0.7138 0.74658 0.0
H164 H 0.38932 0.6971 0.72729 0.0
C165 C 0.30636 0.62161 0.69922 0.0
C166 C 0.2883 0.64751 0.66681 0.0
C167 C 0.43321 0.68105 0.65871 0.0
C168 C 0.4448 0.70052 0.66862 0.0
C169 C 0.43216 0.71538 0.6835 0.0
C170 C 0.40844 0.71043 0.68894 0.0
C171 C 0.39729 0.69048 0.67932 0.0
C172 C 0.40957 0.67648 0.66414 0.0
C173 C 0.39476 0.65659 0.65484 0.0
C174 C 0.37147 0.66089 0.66697 0.0
C175 C 0.37319 0.68048 0.68157 0.0
C176 C 0.40643 0.63288 0.66214 0.0
C177 C 0.39241 0.66001 0.62881 0.0
C178 C 0.31858 0.71 0.74365 0.0
C179 C 0.296 0.70267 0.75084 0.0
C180 C 0.28304 0.68656 0.73746 0.0
C181 C 0.29313 0.67658 0.71801 0.0
C182 C 0.31646 0.68266 0.71203 0.0
C183 C 0.32843 0.69985 0.72418 0.0
C184 C 0.35277 0.7046 0.71482 0.0
C185 C 0.35387 0.68646 0.69584 0.0
C186 C 0.33267 0.67345 0.69455 0.0
C187 C 0.37114 0.69939 0.73374 0.0
C188 C 0.35346 0.73038 0.70564 0.0
H189 H 0.37351 0.61639 0.63147 0.0
H190 H 0.2932 0.59325 0.65798 0.0
H191 H 0.28964 0.64887 0.64801 0.0
H192 H 0.2857 0.66598 0.6726 0.0
H193 H 0.27218 0.63696 0.67077 0.0
H194 H 0.32126 0.60915 0.70254 0.0
H195 H 0.28985 0.61094 0.6979 0.0
H196 H 0.30528 0.63271 0.71455 0.0
H197 H 0.44234 0.66968 0.64676 0.0
H198 H 0.44077 0.73058 0.69116 0.0
H199 H 0.39976 0.72214 0.70061 0.0
H200 H 0.41369 0.63419 0.67967 0.0
H201 H 0.42131 0.62817 0.65068 0.0
H202 H 0.39386 0.6179 0.6628 0.0
H203 H 0.39261 0.67915 0.62418 0.0
H204 H 0.3754 0.65329 0.62206 0.0
H205 H 0.40726 0.65132 0.61967 0.0
H206 H 0.35582 0.58027 0.61763 0.0
C207 C 0.35611 0.61204 0.63752 0.0
C208 C 0.78745 0.82034 0.23447 0.0
C209 C 0.79435 0.79647 0.23704 0.0
C210 C 0.81383 0.78805 0.22438 0.0
C211 C 0.82176 0.82778 0.2108 0.0
C212 C 0.80129 0.83558 0.22121 0.0
C213 C 0.79716 0.86168 0.21755 0.0
H214 H 0.83769 0.96645 0.17718 0.0
C215 C 0.83405 0.84862 0.2013 0.0
C216 C 0.81958 0.86852 0.20493 0.0
H217 H 0.76828 0.9512 0.20469 0.0
H218 H 0.78002 0.91054 0.21168 0.0
H219 H 0.86701 0.93807 0.21422 0.0
H220 H 0.84221 0.91972 0.14757 0.0
H221 H 0.87197 0.91056 0.14999 0.0
H222 H 0.86479 0.94144 0.15307 0.0
H223 H 0.88322 0.94629 0.18927 0.0
H224 H 0.88809 0.91821 0.20338 0.0
C225 C 0.79563 0.87401 0.24098 0.0
C226 C 0.77469 0.86469 0.20262 0.0
C227 C 0.91826 0.84026 0.1718 0.0
C228 C 0.93538 0.8569 0.16477 0.0
C229 C 0.92946 0.88124 0.16504 0.0
C230 C 0.90686 0.88878 0.1716 0.0
C231 C 0.88994 0.87191 0.17829 0.0
C232 C 0.89588 0.84816 0.17868 0.0
C233 C 0.8761 0.83293 0.1877 0.0
C234 C 0.85717 0.85148 0.1922 0.0
C235 C 0.86535 0.87421 0.18647 0.0
C236 C 0.88505 0.82104 0.20984 0.0
C237 C 0.86849 0.81529 0.1689 0.0
C238 C 0.82515 0.95453 0.18519 0.0
C239 C 0.80207 0.96208 0.19051 0.0
C240 C 0.78613 0.94577 0.20035 0.0
C241 C 0.79294 0.92218 0.20429 0.0
C242 C 0.81587 0.91479 0.19819 0.0
C243 C 0.83159 0.93095 0.18901 0.0
C244 C 0.85496 0.91989 0.18292 0.0
C245 C 0.85035 0.89419 0.18911 0.0
C246 C 0.82755 0.89134 0.19823 0.0
C247 C 0.87446 0.93119 0.19804 0.0
C248 C 0.85893 0.92309 0.15707 0.0
H249 H 0.84266 0.79628 0.20274 0.0
H250 H 0.77253 0.8275 0.24372 0.0
H251 H 0.77133 0.8487 0.19204 0.0
H252 H 0.77643 0.87937 0.19024 0.0
H253 H 0.75867 0.86765 0.21319 0.0
H254 H 0.8098 0.86734 0.25247 0.0
H255 H 0.77827 0.87048 0.24921 0.0
H256 H 0.79819 0.89339 0.24 0.0
H257 H 0.92199 0.82143 0.17171 0.0
H258 H 0.94236 0.89457 0.16029 0.0
H259 H 0.90346 0.90749 0.17123 0.0
H260 H 0.89541 0.83386 0.22022 0.0
H261 H 0.8968 0.80576 0.20599 0.0
H262 H 0.87069 0.81492 0.22106 0.0
H263 H 0.87102 0.82312 0.15172 0.0
H264 H 0.84942 0.81081 0.16969 0.0
H265 H 0.87907 0.7987 0.16971 0.0
H266 H 0.81906 0.76959 0.22532 0.0
C267 C 0.82757 0.80358 0.21132 0.0
C268 C 0.67437 0.30484 0.74637 0.0
C269 C 0.6958 0.31365 0.75505 0.0
C270 C 0.70934 0.32959 0.74202 0.0
C271 C 0.67954 0.32871 0.71245 0.0
C272 C 0.66673 0.31238 0.72495 0.0
C273 C 0.64477 0.30422 0.71275 0.0
H274 H 0.56889 0.31764 0.6251 0.0
C275 C 0.66642 0.3334 0.69127 0.0
C276 C 0.64624 0.31884 0.69113 0.0
H277 H 0.56472 0.26716 0.68042 0.0
H278 H 0.60217 0.28117 0.69486 0.0
H279 H 0.58942 0.36161 0.65411 0.0
H280 H 0.62317 0.30758 0.6139 0.0
H281 H 0.63947 0.33379 0.60987 0.0
H282 H 0.60879 0.33262 0.60109 0.0
H283 H 0.58636 0.35966 0.62383 0.0
H284 H 0.61077 0.37521 0.63663 0.0
C285 C 0.62305 0.31111 0.72738 0.0
C286 C 0.64706 0.27726 0.70802 0.0
C287 C 0.69321 0.40037 0.63982 0.0
C288 C 0.68401 0.40995 0.61965 0.0
C289 C 0.66439 0.39894 0.60925 0.0
C290 C 0.65345 0.37924 0.61935 0.0
C291 C 0.66226 0.37044 0.64005 0.0
C292 C 0.68219 0.38064 0.64961 0.0
C293 C 0.68949 0.36863 0.67128 0.0
C294 C 0.67027 0.34992 0.67349 0.0
C295 C 0.65423 0.35123 0.65531 0.0
C296 C 0.68828 0.3872 0.69061 0.0
C297 C 0.71435 0.35746 0.66775 0.0
C298 C 0.57614 0.30925 0.64012 0.0
C299 C 0.56359 0.29129 0.65166 0.0
C300 C 0.57369 0.28128 0.67138 0.0
C301 C 0.59555 0.28935 0.67969 0.0
C302 C 0.60753 0.30763 0.66819 0.0
C303 C 0.598 0.31695 0.64852 0.0
C304 C 0.61351 0.33581 0.63819 0.0
C305 C 0.63386 0.3364 0.65503 0.0
C306 C 0.63006 0.32011 0.67272 0.0
C307 C 0.59939 0.35937 0.63797 0.0
C308 C 0.62162 0.32725 0.61445 0.0
H309 H 0.7122 0.34963 0.71175 0.0
H310 H 0.66393 0.29218 0.75596 0.0
H311 H 0.66595 0.27174 0.70683 0.0
H312 H 0.63925 0.27211 0.69151 0.0
H313 H 0.63873 0.2666 0.72174 0.0
H314 H 0.62506 0.32945 0.73407 0.0
H315 H 0.62115 0.29895 0.74212 0.0
H316 H 0.60626 0.31115 0.7178 0.0
H317 H 0.7085 0.40831 0.64797 0.0
H318 H 0.65699 0.40611 0.59372 0.0
H319 H 0.63826 0.37193 0.61092 0.0
H320 H 0.67192 0.3981 0.68908 0.0
H321 H 0.70372 0.39941 0.68993 0.0
H322 H 0.6875 0.37923 0.70769 0.0
H323 H 0.71778 0.35356 0.64953 0.0
H324 H 0.71619 0.34009 0.67638 0.0
H325 H 0.72862 0.36953 0.67369 0.0
H326 H 0.72595 0.33648 0.7485 0.0
C327 C 0.70129 0.33722 0.72076 0.0
C328 C 0.67621 0.41084 0.32328 0.0
C329 C 0.66029 0.42654 0.33384 0.0
C330 C 0.6363 0.41986 0.336 0.0
C331 C 0.64486 0.38157 0.31952 0.0
C332 C 0.66813 0.38848 0.3163 0.0
C333 C 0.68271 0.3693 0.30532 0.0
H334 H 0.68803 0.25791 0.26315 0.0
C335 C 0.64257 0.35667 0.31222 0.0
C336 C 0.66469 0.3493 0.30397 0.0
H337 H 0.73921 0.3146 0.2558 0.0
H338 H 0.71628 0.33916 0.28092 0.0
H339 H 0.6739 0.26726 0.31697 0.0
H340 H 0.64557 0.28967 0.25259 0.0
H341 H 0.62156 0.28157 0.26991 0.0
H342 H 0.64349 0.25971 0.2628 0.0
H343 H 0.65607 0.24801 0.29976 0.0
H344 H 0.64295 0.26808 0.32008 0.0
C345 C 0.70356 0.36297 0.32131 0.0
C346 C 0.69046 0.3781 0.28147 0.0
C347 C 0.56445 0.31355 0.32291 0.0
C348 C 0.5579 0.28962 0.32096 0.0
C349 C 0.57462 0.2729 0.31345 0.0
C350 C 0.59768 0.28004 0.30778 0.0
C351 C 0.60406 0.30408 0.30993 0.0
C352 C 0.5876 0.32031 0.31763 0.0
C353 C 0.59805 0.34458 0.32096 0.0
C354 C 0.6234 0.34041 0.31341 0.0
C355 C 0.62669 0.31678 0.30669 0.0
C356 C 0.59636 0.35092 0.34655 0.0
C357 C 0.58492 0.36202 0.30497 0.0
C358 C 0.6945 0.2755 0.26719 0.0
C359 C 0.71534 0.28432 0.25718 0.0
C360 C 0.72333 0.30718 0.2633 0.0
C361 C 0.70973 0.32166 0.27754 0.0
C362 C 0.68775 0.31339 0.28544 0.0
C363 C 0.68069 0.29047 0.28062 0.0
C364 C 0.65587 0.28541 0.2885 0.0
C365 C 0.6489 0.30935 0.29804 0.0
C366 C 0.66775 0.32555 0.29656 0.0
C367 C 0.65705 0.26608 0.3072 0.0
C368 C 0.6407 0.27857 0.26751 0.0
H369 H 0.61015 0.39339 0.33142 0.0
H370 H 0.69473 0.41545 0.32129 0.0
H371 H 0.67867 0.39242 0.27501 0.0
H372 H 0.68931 0.36399 0.26847 0.0
H373 H 0.7088 0.38529 0.28178 0.0
H374 H 0.69721 0.36112 0.3391 0.0
H375 H 0.71735 0.37704 0.32099 0.0
H376 H 0.71201 0.3459 0.31702 0.0
H377 H 0.55211 0.32657 0.32947 0.0
H378 H 0.56988 0.25432 0.31221 0.0
H379 H 0.60972 0.26654 0.30218 0.0
H380 H 0.59661 0.33472 0.35736 0.0
H381 H 0.57971 0.36064 0.35036 0.0
H382 H 0.61163 0.36146 0.35259 0.0
H383 H 0.5815 0.35365 0.28819 0.0
H384 H 0.59531 0.37815 0.30117 0.0
H385 H 0.56754 0.36731 0.31222 0.0
H386 H 0.62354 0.43185 0.34353 0.0
C387 C 0.62853 0.39751 0.32894 0.0
C388 C 0.19101 0.1917 0.74657 0.0
C389 C 0.21159 0.184 0.73539 0.0
C390 C 0.22333 0.16352 0.74329 0.0
C391 C 0.19299 0.15779 0.77185 0.0
C392 C 0.18207 0.17839 0.76465 0.0
C393 C 0.15963 0.18347 0.77744 0.0
H394 H 0.07921 0.1499 0.85605 0.0
C395 C 0.17818 0.14727 0.78989 0.0
C396 C 0.15871 0.16234 0.79334 0.0
H397 H 0.07834 0.21266 0.81382 0.0
H398 H 0.11552 0.20104 0.79685 0.0
H399 H 0.09476 0.11514 0.81736 0.0
H400 H 0.13523 0.15145 0.86852 0.0
H401 H 0.14651 0.12246 0.86664 0.0
H402 H 0.11602 0.12692 0.87482 0.0
H403 H 0.09514 0.10554 0.8464 0.0
H404 H 0.11687 0.09533 0.82619 0.0
C405 C 0.13873 0.18346 0.76031 0.0
C406 C 0.16301 0.2071 0.79046 0.0
C407 C 0.19888 0.06623 0.82218 0.0
C408 C 0.18741 0.05139 0.83792 0.0
C409 C 0.16695 0.0597 0.84909 0.0
C410 C 0.15764 0.08212 0.84424 0.0
C411 C 0.16881 0.09645 0.82794 0.0
C412 C 0.18923 0.08859 0.81741 0.0
C413 C 0.19847 0.10619 0.80037 0.0
C414 C 0.18005 0.12573 0.80225 0.0
C415 C 0.16271 0.11986 0.81837 0.0
C416 C 0.19817 0.09422 0.7767 0.0
C417 C 0.22328 0.11462 0.8083 0.0
C418 C 0.08721 0.16125 0.84332 0.0
C419 C 0.07598 0.18227 0.8363 0.0
C420 C 0.08665 0.19633 0.81937 0.0
C421 C 0.10827 0.18959 0.80964 0.0
C422 C 0.11923 0.16843 0.81675 0.0
C423 C 0.10866 0.15466 0.8333 0.0
C424 C 0.12242 0.1324 0.83823 0.0
C425 C 0.14319 0.13525 0.82211 0.0
C426 C 0.14121 0.15636 0.80962 0.0
C427 C 0.10659 0.11087 0.83193 0.0
C428 C 0.13041 0.13308 0.86338 0.0
H429 H 0.22369 0.13479 0.76653 0.0
H430 H 0.18136 0.20716 0.74073 0.0
H431 H 0.18153 0.20886 0.79676 0.0
H432 H 0.15187 0.20831 0.80582 0.0
H433 H 0.15931 0.22258 0.77933 0.0
H434 H 0.1418 0.17041 0.74647 0.0
H435 H 0.13647 0.20117 0.75231 0.0
H436 H 0.12174 0.17796 0.768 0.0
H437 H 0.21458 0.0603 0.81328 0.0
H438 H 0.15808 0.04877 0.86163 0.0
H439 H 0.14193 0.0873 0.85319 0.0
H440 H 0.18212 0.08294 0.77468 0.0
H441 H 0.21394 0.0827 0.77436 0.0
H442 H 0.19732 0.10701 0.76255 0.0
H443 H 0.22436 0.11517 0.82715 0.0
H444 H 0.22739 0.13292 0.8028 0.0
H445 H 0.2374 0.1025 0.80219 0.0
H446 H 0.23939 0.15741 0.73511 0.0
C447 C 0.21419 0.15042 0.76152 0.0
C448 C 0.2812 0.6914 0.26117 0.0
C449 C 0.28535 0.71596 0.25935 0.0
C450 C 0.30387 0.72613 0.27217 0.0
C451 C 0.31576 0.68719 0.28528 0.0
C452 C 0.29648 0.67745 0.27424 0.0
C453 C 0.29521 0.65096 0.27704 0.0
H454 H 0.34523 0.55009 0.31647 0.0
C455 C 0.32966 0.6676 0.29519 0.0
C456 C 0.31752 0.64634 0.29071 0.0
H457 H 0.27711 0.55783 0.2836 0.0
H458 H 0.2838 0.60011 0.27971 0.0
H459 H 0.37391 0.58804 0.28265 0.0
H460 H 0.34081 0.59098 0.34823 0.0
H461 H 0.36507 0.61043 0.34971 0.0
H462 H 0.37011 0.57929 0.34452 0.0
H463 H 0.38546 0.57345 0.30739 0.0
H464 H 0.393 0.60374 0.3008 0.0
C465 C 0.29641 0.63943 0.25321 0.0
C466 C 0.27247 0.64491 0.29063 0.0
C467 C 0.41113 0.684 0.32872 0.0
C468 C 0.4285 0.66915 0.33834 0.0
C469 C 0.42371 0.64468 0.34047 0.0
C470 C 0.40232 0.63509 0.33274 0.0
C471 C 0.38539 0.65005 0.32276 0.0
C472 C 0.38975 0.67411 0.32116 0.0
C473 C 0.36931 0.68731 0.31065 0.0
C474 C 0.35219 0.66708 0.30591 0.0
C475 C 0.36185 0.64533 0.31284 0.0
C476 C 0.37829 0.69913 0.28853 0.0
C477 C 0.35934 0.70494 0.32842 0.0
C478 C 0.33199 0.56075 0.30787 0.0
C479 C 0.31076 0.55059 0.30001 0.0
C480 C 0.29363 0.56528 0.28971 0.0
C481 C 0.29751 0.58979 0.28759 0.0
C482 C 0.31865 0.5997 0.29603 0.0
C483 C 0.33549 0.58516 0.30583 0.0
C484 C 0.35653 0.59868 0.31456 0.0
C485 C 0.34937 0.62389 0.30884 0.0
C486 C 0.32731 0.62439 0.29782 0.0
C487 C 0.37852 0.59059 0.30085 0.0
C488 C 0.35847 0.59463 0.34057 0.0
H489 H 0.3333 0.72055 0.2939 0.0
H490 H 0.26728 0.68286 0.25153 0.0
H491 H 0.26754 0.6596 0.30231 0.0
H492 H 0.27476 0.62933 0.30183 0.0
H493 H 0.25717 0.64182 0.27912 0.0
H494 H 0.30981 0.64858 0.24246 0.0
H495 H 0.27904 0.64062 0.2444 0.0
H496 H 0.30192 0.62067 0.25369 0.0
H497 H 0.41416 0.70287 0.32685 0.0
H498 H 0.4364 0.63289 0.34841 0.0
H499 H 0.39982 0.61636 0.33489 0.0
H500 H 0.38931 0.68649 0.2786 0.0
H501 H 0.3894 0.7149 0.29237 0.0
H502 H 0.36391 0.70463 0.27702 0.0
H503 H 0.36284 0.69876 0.34605 0.0
H504 H 0.33982 0.70663 0.32745 0.0
H505 H 0.36751 0.72276 0.32656 0.0
H506 H 0.30714 0.74506 0.27156 0.0
C507 C 0.31909 0.71188 0.28511 0.0
C508 C 0.81621 0.91832 0.83544 0.0
C509 C 0.82877 0.9302 0.85264 0.0
C510 C 0.84882 0.91922 0.86235 0.0
C511 C 0.84407 0.88553 0.83734 0.0
C512 C 0.8242 0.89612 0.82804 0.0
C513 C 0.81357 0.8815 0.80927 0.0
H514 H 0.81909 0.78435 0.74221 0.0
C515 C 0.84809 0.86288 0.82541 0.0
C516 C 0.83024 0.86036 0.809 0.0
H517 H 0.7695 0.84258 0.73831 0.0
H518 H 0.78736 0.86055 0.77143 0.0
H519 H 0.86308 0.81557 0.74966 0.0
H520 H 0.81925 0.77918 0.79829 0.0
H521 H 0.84893 0.77512 0.80657 0.0
H522 H 0.83907 0.76396 0.77947 0.0
H523 H 0.86477 0.78408 0.75385 0.0
H524 H 0.88216 0.80442 0.77061 0.0
C525 C 0.81489 0.8961 0.78696 0.0
C526 C 0.78815 0.87431 0.81644 0.0
C527 C 0.91968 0.81246 0.8454 0.0
C528 C 0.92855 0.79093 0.83687 0.0
C529 C 0.91582 0.77907 0.81971 0.0
C530 C 0.89468 0.7886 0.81109 0.0
C531 C 0.88625 0.81032 0.81959 0.0
C532 C 0.89863 0.82176 0.83658 0.0
C533 C 0.88719 0.84472 0.84347 0.0
C534 C 0.86593 0.84528 0.8277 0.0
C535 C 0.86552 0.82514 0.81373 0.0
C536 C 0.90484 0.86514 0.83839 0.0
C537 C 0.87971 0.84263 0.8687 0.0
C538 C 0.81178 0.8007 0.74885 0.0
C539 C 0.79282 0.81205 0.73788 0.0
C540 C 0.78415 0.83361 0.74657 0.0
C541 C 0.79457 0.84399 0.76573 0.0
C542 C 0.81409 0.83285 0.77608 0.0
C543 C 0.82225 0.81147 0.76771 0.0
C544 C 0.84391 0.8028 0.78003 0.0
C545 C 0.84744 0.82251 0.79718 0.0
C546 C 0.82989 0.84001 0.79485 0.0
C547 C 0.86463 0.80142 0.76277 0.0
C548 C 0.83771 0.77892 0.79164 0.0
H549 H 0.87193 0.88967 0.86286 0.0
H550 H 0.80088 0.92641 0.8275 0.0
H551 H 0.7876 0.86963 0.83478 0.0
H552 H 0.78161 0.85839 0.80752 0.0
H553 H 0.77549 0.88911 0.81361 0.0
H554 H 0.83059 0.90806 0.78691 0.0
H555 H 0.79888 0.90733 0.78474 0.0
H556 H 0.81721 0.8849 0.77176 0.0
H557 H 0.9292 0.82222 0.85835 0.0
H558 H 0.92215 0.76236 0.81302 0.0
H559 H 0.88583 0.77877 0.798 0.0
H560 H 0.9151 0.86148 0.82265 0.0
H561 H 0.91776 0.86736 0.85247 0.0
H562 H 0.89603 0.88229 0.83514 0.0
H563 H 0.87411 0.8242 0.87286 0.0
H564 H 0.86418 0.85371 0.87291 0.0
H565 H 0.8946 0.8473 0.8802 0.0
H566 H 0.85858 0.92787 0.87586 0.0
C567 C 0.85649 0.89698 0.85485 0.0
H568 H 0.16989 0.90191 0.01862 0.0
H569 H 0.17083 0.93441 0.04575 0.0
H570 H 0.22018 0.89547 0.08753 0.0
H571 H 0.21949 0.86259 0.06012 0.0
H572 H 0.17971 0.91396 0.11097 0.0
H573 H 0.24128 0.94162 0.06279 0.0
H574 H 0.26089 0.95069 0.02642 0.0
H575 H 0.20627 0.001 0.01032 0.0
H576 H 0.18611 0.99199 0.04644 0.0
H577 H 0.17694 0.02153 0.17844 0.0
H578 H 0.19147 0.98672 0.15769 0.0
H579 H 0.15074 0.00798 0.09909 0.0
H580 H 0.13649 0.04279 0.1195 0.0
H581 H 0.19687 0.99709 0.08854 0.0
H582 H 0.13168 0.9634 0.13156 0.0
H583 H 0.10961 0.953 0.1663 0.0
H584 H 0.16954 0.91369 0.19096 0.0
H585 H 0.19204 0.92404 0.15641 0.0
C586 C 0.18112 0.90028 0.03347 0.0
C587 C 0.19459 0.87971 0.03728 0.0
C588 C 0.18174 0.91893 0.04889 0.0
C589 C 0.19572 0.91736 0.0685 0.0
C590 C 0.20941 0.89698 0.07237 0.0
C591 C 0.20906 0.87833 0.0567 0.0
C592 C 0.19461 0.93675 0.08529 0.0
C593 C 0.1841 0.93209 0.1064 0.0
C594 C 0.19997 0.96036 0.07904 0.0
C595 C 0.21213 0.96604 0.05733 0.0
C596 C 0.23335 0.95451 0.05144 0.0
C597 C 0.24458 0.95966 0.03087 0.0
C598 C 0.23482 0.9764 0.01606 0.0
C599 C 0.21382 0.98805 0.02182 0.0
C600 C 0.20251 0.98296 0.04237 0.0
C601 C 0.17109 0.0187 0.16114 0.0
C602 C 0.15552 0.0348 0.15059 0.0
C603 C 0.17931 0.99881 0.14938 0.0
C604 C 0.17216 0.99485 0.12688 0.0
C605 C 0.15649 0.01079 0.11643 0.0
C606 C 0.14818 0.03053 0.12818 0.0
C607 C 0.18115 0.97438 0.11383 0.0
C608 C 0.19315 0.97889 0.09343 0.0
C609 C 0.17701 0.95068 0.12067 0.0
C610 C 0.16365 0.94479 0.14158 0.0
C611 C 0.14024 0.95276 0.14451 0.0
C612 C 0.12763 0.94682 0.16413 0.0
C613 C 0.1382 0.93278 0.18088 0.0
C614 C 0.16139 0.92462 0.17801 0.0
C615 C 0.17408 0.9305 0.15841 0.0
H616 H 0.1284 0.92818 0.19604 0.0
H617 H 0.24353 0.98035 0.00014 0.0
H618 H 0.63656 0.67024 0.56761 0.0
H619 H 0.60733 0.67586 0.59757 0.0
H620 H 0.59577 0.7478 0.57513 0.0
H621 H 0.62561 0.74245 0.54524 0.0
H622 H 0.58999 0.74125 0.62334 0.0
H623 H 0.56222 0.70855 0.55285 0.0
H624 H 0.56342 0.68117 0.52026 0.0
H625 H 0.55551 0.62172 0.56528 0.0
H626 H 0.55466 0.64875 0.59819 0.0
H627 H 0.46485 0.7422 0.65446 0.0
H628 H 0.50461 0.7473 0.63819 0.0
H629 H 0.52064 0.67418 0.65353 0.0
H630 H 0.48108 0.66902 0.66957 0.0
H631 H 0.52446 0.68446 0.6088 0.0
H632 H 0.55006 0.71839 0.67961 0.0
H633 H 0.5487 0.74654 0.71156 0.0
H634 H 0.55913 0.80474 0.66554 0.0
H635 H 0.56022 0.77696 0.63325 0.0
C636 C 0.62818 0.68743 0.56934 0.0
C637 C 0.63286 0.70573 0.55378 0.0
C638 C 0.6116 0.69065 0.58654 0.0
C639 C 0.59908 0.71206 0.58819 0.0
C640 C 0.60523 0.73112 0.57403 0.0
C641 C 0.62216 0.728 0.55692 0.0
C642 C 0.57728 0.71294 0.60206 0.0
C643 C 0.5755 0.72905 0.62011 0.0
C644 C 0.55848 0.69694 0.59777 0.0
C645 C 0.55859 0.68066 0.57799 0.0
C646 C 0.5609 0.68963 0.55581 0.0
C647 C 0.5615 0.67418 0.53728 0.0
C648 C 0.55959 0.64972 0.54071 0.0
C649 C 0.55701 0.64067 0.56266 0.0
C650 C 0.55645 0.65605 0.58125 0.0
C651 C 0.47716 0.72747 0.65491 0.0
C652 C 0.46989 0.70513 0.66291 0.0
C653 C 0.49984 0.7304 0.64567 0.0
C654 C 0.51549 0.71107 0.64457 0.0
C655 C 0.50877 0.68927 0.65412 0.0
C656 C 0.48618 0.68632 0.66319 0.0
C657 C 0.53727 0.71228 0.63066 0.0
C658 C 0.53891 0.69666 0.61225 0.0
C659 C 0.55566 0.72888 0.63458 0.0
C660 C 0.55496 0.7456 0.65398 0.0
C661 C 0.55183 0.73721 0.67627 0.0
C662 C 0.55116 0.75309 0.69445 0.0
C663 C 0.55375 0.77742 0.69058 0.0
C664 C 0.55709 0.7859 0.66852 0.0
C665 C 0.55775 0.77009 0.65027 0.0
H666 H 0.55324 0.78968 0.70468 0.0
H667 H 0.56007 0.63778 0.52634 0.0
H668 H 0.76105 0.13198 0.0513 0.0
H669 H 0.75179 0.10518 0.0829 0.0
H670 H 0.8239 0.1105 0.10663 0.0
H671 H 0.83354 0.1367 0.07477 0.0
H672 H 0.78145 0.06066 0.08776 0.0
H673 H 0.81543 0.11122 0.16659 0.0
H674 H 0.81437 0.15138 0.18322 0.0
H675 H 0.75036 0.16667 0.14657 0.0
H676 H 0.75117 0.12673 0.12955 0.0
H677 H 0.82627 0.00388 0.19488 0.0
H678 H 0.81791 0.04097 0.17491 0.0
H679 H 0.75188 0.0119 0.15058 0.0
H680 H 0.76051 0.97447 0.16983 0.0
H681 H 0.78384 0.0755 0.17076 0.0
H682 H 0.74922 0.02315 0.09356 0.0
H683 H 0.75104 0.98266 0.07774 0.0
H684 H 0.81816 0.97132 0.11045 0.0
H685 H 0.81693 0.01184 0.12609 0.0
C686 C 0.77486 0.12766 0.0634 0.0
C687 C 0.7981 0.13616 0.06042 0.0
C688 C 0.7695 0.11247 0.08145 0.0
C689 C 0.78712 0.10614 0.09711 0.0
C690 C 0.81004 0.11545 0.09479 0.0
C691 C 0.81556 0.13016 0.07647 0.0
C692 C 0.78275 0.08724 0.11391 0.0
C693 C 0.78131 0.0639 0.10592 0.0
C694 C 0.78331 0.09159 0.1375 0.0
C695 C 0.78344 0.11603 0.14673 0.0
C696 C 0.80118 0.12319 0.16203 0.0
C697 C 0.80062 0.14591 0.17152 0.0
C698 C 0.78225 0.16152 0.16603 0.0
C699 C 0.76456 0.15455 0.15082 0.0
C700 C 0.76518 0.13195 0.1411 0.0
C701 C 0.80975 0.00556 0.18562 0.0
C702 C 0.79429 0.98612 0.18352 0.0
C703 C 0.80489 0.02684 0.17441 0.0
C704 C 0.78451 0.02898 0.16092 0.0
C705 C 0.76786 0.01046 0.16069 0.0
C706 C 0.77276 0.98912 0.17183 0.0
C707 C 0.78263 0.04887 0.14459 0.0
C708 C 0.78329 0.07229 0.15261 0.0
C709 C 0.78164 0.04464 0.12092 0.0
C710 C 0.78278 0.02039 0.11125 0.0
C711 C 0.76438 0.01202 0.0973 0.0
C712 C 0.76532 0.98908 0.08836 0.0
C713 C 0.78465 0.97439 0.09317 0.0
C714 C 0.80315 0.98267 0.10681 0.0
C715 C 0.80234 0.00562 0.11572 0.0
H716 H 0.78531 0.95662 0.08627 0.0
H717 H 0.78175 0.17903 0.17351 0.0
H718 H 0.3799 0.33421 0.55736 0.0
H719 H 0.41048 0.32375 0.58449 0.0
H720 H 0.38839 0.25049 0.58211 0.0
H721 H 0.35796 0.26073 0.55408 0.0
H722 H 0.41567 0.30555 0.62435 0.0
H723 H 0.43815 0.21598 0.58414 0.0
H724 H 0.43232 0.19423 0.5482 0.0
H725 H 0.42983 0.26011 0.51158 0.0
H726 H 0.43591 0.28219 0.54726 0.0
H727 H 0.52467 0.27878 0.67714 0.0
H728 H 0.48451 0.27095 0.66364 0.0
H729 H 0.50791 0.28087 0.59455 0.0
H730 H 0.54831 0.28674 0.60772 0.0
H731 H 0.47557 0.24938 0.59434 0.0
H732 H 0.48362 0.32715 0.62903 0.0
H733 H 0.49218 0.35481 0.66041 0.0
H734 H 0.43798 0.32197 0.70084 0.0
H735 H 0.4293 0.29394 0.66975 0.0
C736 C 0.38122 0.31588 0.56275 0.0
C737 C 0.3668 0.29822 0.55307 0.0
C738 C 0.39868 0.30995 0.57846 0.0
C739 C 0.40205 0.28626 0.58503 0.0
C740 C 0.3864 0.26882 0.57692 0.0
C741 C 0.369 0.27472 0.56093 0.0
C742 C 0.42354 0.28 0.59828 0.0
C743 C 0.42861 0.29295 0.61802 0.0
C744 C 0.44057 0.26377 0.58991 0.0
C745 C 0.43714 0.25069 0.56837 0.0
C746 C 0.43638 0.22579 0.5684 0.0
C747 C 0.43304 0.21341 0.54809 0.0
C748 C 0.4306 0.22579 0.52764 0.0
C749 C 0.43162 0.25056 0.52744 0.0
C750 C 0.435 0.263 0.54769 0.0
C751 C 0.52145 0.2786 0.65903 0.0
C752 C 0.53973 0.28386 0.64355 0.0
C753 C 0.49837 0.27437 0.65135 0.0
C754 C 0.49302 0.2759 0.62811 0.0
C755 C 0.5115 0.27973 0.61258 0.0
C756 C 0.5346 0.28348 0.62019 0.0
C757 C 0.46813 0.27572 0.61983 0.0
C758 C 0.46236 0.26141 0.60114 0.0
C759 C 0.45084 0.29149 0.62856 0.0
C760 C 0.45604 0.30828 0.64723 0.0
C761 C 0.47365 0.32575 0.64468 0.0
C762 C 0.47851 0.34149 0.66239 0.0
C763 C 0.46569 0.34009 0.68264 0.0
C764 C 0.44794 0.32298 0.68518 0.0
C765 C 0.44304 0.30717 0.66752 0.0
H766 H 0.46947 0.3523 0.69633 0.0
H767 H 0.42799 0.21618 0.51194 0.0
H768 H 0.66674 0.59625 0.45921 0.0
H769 H 0.66992 0.56231 0.43403 0.0
H770 H 0.73063 0.59388 0.4014 0.0
H771 H 0.72798 0.62812 0.42715 0.0
H772 H 0.69119 0.57374 0.37163 0.0
H773 H 0.74537 0.55273 0.43018 0.0
H774 H 0.76059 0.54694 0.46902 0.0
H775 H 0.70392 0.4983 0.48323 0.0
H776 H 0.68806 0.50413 0.4446 0.0
H777 H 0.69227 0.45869 0.31636 0.0
H778 H 0.70654 0.4953 0.33435 0.0
H779 H 0.66143 0.48169 0.39203 0.0
H780 H 0.64784 0.44502 0.37469 0.0
H781 H 0.70494 0.49417 0.40523 0.0
H782 H 0.64654 0.52178 0.35014 0.0
H783 H 0.63046 0.527 0.31151 0.0
H784 H 0.69411 0.5631 0.29129 0.0
H785 H 0.71068 0.55781 0.32977 0.0
C786 C 0.68074 0.59619 0.44664 0.0
C787 C 0.69715 0.61493 0.44523 0.0
C788 C 0.68257 0.57668 0.43233 0.0
C789 C 0.7006 0.57559 0.41605 0.0
C790 C 0.71667 0.59447 0.41399 0.0
C791 C 0.71513 0.61393 0.42869 0.0
C792 C 0.70212 0.55444 0.40141 0.0
C793 C 0.69483 0.55634 0.37872 0.0
C794 C 0.70657 0.53184 0.41088 0.0
C795 C 0.7155 0.52892 0.43445 0.0
C796 C 0.73598 0.54101 0.44165 0.0
C797 C 0.74478 0.53764 0.46361 0.0
C798 C 0.73334 0.52212 0.47851 0.0
C799 C 0.71288 0.51016 0.47159 0.0
C800 C 0.70397 0.51351 0.44967 0.0
C801 C 0.68553 0.4635 0.33293 0.0
C802 C 0.66876 0.44907 0.34401 0.0
C803 C 0.69358 0.48446 0.3431 0.0
C804 C 0.68496 0.49125 0.36448 0.0
C805 C 0.66835 0.47678 0.37554 0.0
C806 C 0.66037 0.45595 0.36546 0.0
C807 C 0.69292 0.51333 0.37575 0.0
C808 C 0.70198 0.51158 0.39787 0.0
C809 C 0.68991 0.536 0.36579 0.0
C810 C 0.67997 0.53911 0.3427 0.0
C811 C 0.65718 0.53063 0.33739 0.0
C812 C 0.64796 0.53365 0.31554 0.0
C813 C 0.66129 0.54529 0.29893 0.0
C814 C 0.68383 0.55402 0.30416 0.0
C815 C 0.69314 0.55102 0.32598 0.0
H816 H 0.65412 0.54762 0.28203 0.0
H817 H 0.74026 0.51944 0.49546 0.0
H818 H 0.88176 0.23965 0.94292 0.0
H819 H 0.91274 0.24161 0.91395 0.0
H820 H 0.92886 0.16773 0.92523 0.0
H821 H 0.8979 0.16547 0.95389 0.0
H822 H 0.95928 0.23488 0.91968 0.0
H823 H 0.94765 0.14226 0.87718 0.0
H824 H 0.91513 0.11514 0.86672 0.0
H825 H 0.86678 0.17384 0.86346 0.0
H826 H 0.89907 0.20137 0.87356 0.0
H827 H 0.0645 0.18303 0.88112 0.0
H828 H 0.02606 0.19236 0.89798 0.0
H829 H 0.99731 0.20647 0.83144 0.0
H830 H 0.03585 0.19696 0.8144 0.0
H831 H 0.96888 0.17684 0.85712 0.0
H832 H 0.00581 0.25198 0.86482 0.0
H833 H 0.03771 0.28015 0.87443 0.0
H834 H 0.0336 0.2593 0.94444 0.0
H835 H 0.00191 0.23074 0.93521 0.0
C836 C 0.89172 0.22374 0.93907 0.0
C837 C 0.88739 0.20242 0.95083 0.0
C838 C 0.90942 0.22492 0.92252 0.0
C839 C 0.92291 0.20477 0.9173 0.0
C840 C 0.91837 0.1834 0.92871 0.0
C841 C 0.90075 0.1822 0.94525 0.0
C842 C 0.94294 0.20627 0.90116 0.0
C843 C 0.96127 0.22238 0.90583 0.0
C844 C 0.94526 0.19029 0.88279 0.0
C845 C 0.9258 0.17388 0.87627 0.0
C846 C 0.93013 0.14942 0.87408 0.0
C847 C 0.91172 0.13396 0.86825 0.0
C848 C 0.8889 0.14275 0.86448 0.0
C849 C 0.88445 0.16704 0.86646 0.0
C850 C 0.9028 0.18258 0.87226 0.0
C851 C 0.05 0.18819 0.8701 0.0
C852 C 0.05309 0.18925 0.84648 0.0
C853 C 0.02813 0.19368 0.87974 0.0
C854 C 0.00895 0.20028 0.86594 0.0
C855 C 0.01197 0.20151 0.84234 0.0
C856 C 0.03396 0.19622 0.83268 0.0
C857 C 0.98553 0.20471 0.87635 0.0
C858 C 0.96663 0.18968 0.87064 0.0
C859 C 0.98255 0.22187 0.89358 0.0
C860 C 0.00154 0.23912 0.89929 0.0
C861 C 0.01181 0.25328 0.88225 0.0
C862 C 0.02984 0.26934 0.88763 0.0
C863 C 0.0377 0.27149 0.91003 0.0
C864 C 0.0275 0.25762 0.9271 0.0
C865 C 0.00947 0.24152 0.9218 0.0
H866 H 0.05166 0.28393 0.91416 0.0
H867 H 0.87466 0.13075 0.86 0.0
H868 H 0.26747 0.38842 0.43838 0.0
H869 H 0.26714 0.41406 0.40497 0.0
H870 H 0.34324 0.40816 0.40001 0.0
H871 H 0.34381 0.38309 0.43379 0.0
H872 H 0.33106 0.45193 0.39537 0.0
H873 H 0.30532 0.37943 0.36271 0.0
H874 H 0.28114 0.34318 0.35917 0.0
H875 H 0.21873 0.38545 0.34895 0.0
H876 H 0.24246 0.422 0.35286 0.0
H877 H 0.34055 0.51285 0.29472 0.0
H878 H 0.33725 0.47473 0.31425 0.0
H879 H 0.26693 0.49315 0.33669 0.0
H880 H 0.27022 0.5315 0.31752 0.0
H881 H 0.27752 0.44043 0.32933 0.0
H882 H 0.30527 0.51253 0.36814 0.0
H883 H 0.33117 0.54775 0.37005 0.0
H884 H 0.3927 0.50307 0.36687 0.0
H885 H 0.3671 0.46762 0.3644 0.0
C886 C 0.28414 0.39254 0.43016 0.0
C887 C 0.30568 0.38379 0.43881 0.0
C888 C 0.2839 0.40705 0.41094 0.0
C889 C 0.30514 0.41274 0.39977 0.0
C890 C 0.32664 0.40396 0.40834 0.0
C891 C 0.32693 0.38968 0.42769 0.0
C892 C 0.30508 0.42894 0.37993 0.0
C893 C 0.31964 0.44909 0.3808 0.0
C894 C 0.29 0.42543 0.36096 0.0
C895 C 0.27566 0.40349 0.35828 0.0
C896 C 0.28641 0.38102 0.35988 0.0
C897 C 0.27279 0.36041 0.35778 0.0
C898 C 0.24841 0.36201 0.35388 0.0
C899 C 0.23762 0.38424 0.352 0.0
C900 C 0.25115 0.40491 0.35414 0.0
C901 C 0.32407 0.50844 0.30316 0.0
C902 C 0.30586 0.52533 0.30509 0.0
C903 C 0.32215 0.48659 0.31413 0.0
C904 C 0.30199 0.48138 0.32713 0.0
C905 C 0.28258 0.4969 0.32666 0.0
C906 C 0.28452 0.51883 0.31573 0.0
C907 C 0.30342 0.46312 0.34504 0.0
C908 C 0.28908 0.44285 0.34386 0.0
C909 C 0.31894 0.46622 0.36366 0.0
C910 C 0.33429 0.48747 0.36586 0.0
C911 C 0.32432 0.51025 0.36769 0.0
C912 C 0.33894 0.53024 0.36887 0.0
C913 C 0.36357 0.52764 0.36856 0.0
C914 C 0.37362 0.50505 0.36708 0.0
C915 C 0.35907 0.485 0.36578 0.0
H916 H 0.37487 0.54312 0.36954 0.0
H917 H 0.23789 0.34603 0.35228 0.0
H918 H 0.12394 0.74474 0.94442 0.0
H919 H 0.09432 0.73421 0.91567 0.0
H920 H 0.07839 0.8084 0.90592 0.0
H921 H 0.10807 0.81903 0.93381 0.0
H922 H 0.04891 0.74032 0.91704 0.0
H923 H 0.05981 0.82161 0.85536 0.0
H924 H 0.09258 0.84467 0.83865 0.0
H925 H 0.1398 0.78578 0.84817 0.0
H926 H 0.10723 0.76217 0.86458 0.0
H927 H 0.94355 0.78913 0.88084 0.0
H928 H 0.9825 0.77767 0.89486 0.0
H929 H 0.00395 0.759 0.8269 0.0
H930 H 0.96507 0.7714 0.81257 0.0
H931 H 0.03648 0.78529 0.84557 0.0
H932 H 0.99778 0.71548 0.86769 0.0
H933 H 0.96626 0.69005 0.88344 0.0
H934 H 0.97723 0.72035 0.94943 0.0
H935 H 0.00857 0.74625 0.93404 0.0
C936 C 0.11437 0.7588 0.93587 0.0
C937 C 0.11835 0.78273 0.94152 0.0
C938 C 0.09747 0.75275 0.91944 0.0
C939 C 0.08436 0.77051 0.90838 0.0
C940 C 0.08869 0.79437 0.91373 0.0
C941 C 0.10558 0.80042 0.92993 0.0
C942 C 0.06446 0.76453 0.89295 0.0
C943 C 0.04633 0.74983 0.90121 0.0
C944 C 0.06148 0.77618 0.87182 0.0
C945 C 0.08101 0.79009 0.86126 0.0
C946 C 0.0771 0.81345 0.85368 0.0
C947 C 0.09568 0.82666 0.84431 0.0
C948 C 0.11826 0.81671 0.84237 0.0
C949 C 0.1223 0.79349 0.84972 0.0
C950 C 0.10379 0.78019 0.85907 0.0
C951 C 0.9565 0.78248 0.86887 0.0
C952 C 0.95129 0.78134 0.84558 0.0
C953 C 0.97868 0.77562 0.87694 0.0
C954 C 0.99609 0.76716 0.86197 0.0
C955 C 0.99074 0.76533 0.83877 0.0
C956 C 0.96849 0.77228 0.83064 0.0
C957 C 0.02037 0.7625 0.87058 0.0
C958 C 0.03933 0.77516 0.86099 0.0
C959 C 0.02433 0.74848 0.89017 0.0
C960 C 0.00555 0.73286 0.89966 0.0
C961 C 0.9934 0.71683 0.88554 0.0
C962 C 0.97556 0.70231 0.89441 0.0
C963 C 0.96974 0.70358 0.91742 0.0
C964 C 0.98178 0.71936 0.93161 0.0
C965 C -0.00037 0.73393 0.92283 0.0
H966 H 0.95592 0.69234 0.92425 0.0
H967 H 0.13263 0.82699 0.83518 0.0
H968 H 0.76721 0.12312 0.95875 0.0
H969 H 0.7628 0.08952 0.93265 0.0
H970 H 0.83839 0.08904 0.92161 0.0
H971 H 0.84296 0.12241 0.94745 0.0
H972 H 0.81314 0.08168 0.88208 0.0
H973 H 0.8145 0.05291 0.96019 0.0
H974 H 0.79945 0.05057 -0.00057 0.0
H975 H 0.73179 0.02701 0.97472 0.0
H976 H 0.74638 0.02953 0.93529 0.0
H977 H 0.8571 0.96854 0.85989 0.0
H978 H 0.8457 0.00736 0.87444 0.0
H979 H 0.77253 0.98514 0.87675 0.0
H980 H 0.78397 0.94588 0.86249 0.0
H981 H 0.78646 0.00567 0.91612 0.0
H982 H 0.78913 0.02581 0.83819 0.0
H983 H 0.80507 0.02761 0.79929 0.0
H984 H 0.86519 0.06718 0.82308 0.0
H985 H 0.84984 0.06529 0.8622 0.0
C986 C 0.78283 0.11604 0.95051 0.0
C987 C 0.80546 0.12523 0.95537 0.0
C988 C 0.78028 0.09685 0.93566 0.0
C989 C 0.8003 0.08673 0.92537 0.0
C990 C 0.82272 0.09662 0.92937 0.0
C991 C 0.8253 0.11558 0.9443 0.0
C992 C 0.79852 0.0648 0.91171 0.0
C993 C 0.80727 0.06504 0.88943 0.0
C994 C 0.79014 0.04328 0.92114 0.0
C995 C 0.78141 0.04172 0.94481 0.0
C996 C 0.79635 0.04743 0.96312 0.0
C997 C 0.78792 0.04604 0.98539 0.0
C998 C 0.76465 0.03873 0.98956 0.0
C999 C 0.74979 0.03273 0.97146 0.0
C1000 C 0.75812 0.03414 0.94916 0.0
C1001 C 0.83858 0.97191 0.86347 0.0
C1002 C 0.82145 0.95415 0.86021 0.0
C1003 C 0.83204 0.99419 0.87152 0.0
C1004 C 0.80822 -0.00077 0.87641 0.0
C1005 C 0.79098 0.98164 0.87292 0.0
C1006 C 0.79752 0.9593 0.86472 0.0
C1007 C 0.80193 0.02234 0.8867 0.0
C1008 C 0.79168 0.02236 0.9084 0.0
C1009 C 0.80898 0.04408 0.87672 0.0
C1010 C 0.81836 0.04529 0.85319 0.0
C1011 C 0.80585 0.03474 0.83517 0.0
C1012 C 0.81477 0.0358 0.81306 0.0
C1013 C 0.83614 0.04747 0.80872 0.0
C1014 C 0.84863 0.05814 0.82647 0.0
C1015 C 0.83981 0.05711 0.84862 0.0
H1016 H 0.84302 0.04828 0.79159 0.0
H1017 H 0.75816 0.03764 0.00681 0.0
H1018 H 0.35859 0.27699 0.42862 0.0
H1019 H 0.38991 0.27031 0.40056 0.0
H1020 H 0.43802 0.31284 0.44036 0.0
H1021 H 0.40638 0.32089 0.46754 0.0
H1022 H 0.44341 0.32413 0.39956 0.0
H1023 H 0.43929 0.24904 0.43782 0.0
H1024 H 0.41968 0.21307 0.45256 0.0
H1025 H 0.39953 0.19334 0.38487 0.0
H1026 H 0.41877 0.22935 0.36975 0.0
H1027 H 0.54838 0.25745 0.35397 0.0
H1028 H 0.51116 0.25393 0.37503 0.0
H1029 H 0.47748 0.30177 0.32771 0.0
H1030 H 0.51494 0.30595 0.30713 0.0
H1031 H 0.46437 0.24395 0.37125 0.0
H1032 H 0.45027 0.34444 0.35755 0.0
H1033 H 0.4737 0.37951 0.34618 0.0
H1034 H 0.53688 0.347 0.37245 0.0
H1035 H 0.51375 0.312 0.38436 0.0
C1036 C 0.3759 0.28481 0.43134 0.0
C1037 C 0.38015 0.29946 0.45015 0.0
C1038 C 0.39379 0.28085 0.41542 0.0
C1039 C 0.41642 0.29071 0.4185 0.0
C1040 C 0.4207 0.30509 0.43753 0.0
C1041 C 0.40265 0.30963 0.45307 0.0
C1042 C 0.4355 0.28674 0.40162 0.0
C1043 C 0.44789 0.30657 0.39342 0.0
C1044 C 0.44161 0.26381 0.39366 0.0
C1045 C 0.4303 0.24199 0.40268 0.0
C1046 C 0.43057 0.23709 0.42609 0.0
C1047 C 0.41954 0.21668 0.43451 0.0
C1048 C 0.40833 0.20095 0.41966 0.0
C1049 C 0.40823 0.20553 0.39635 0.0
C1050 C 0.41922 0.22592 0.38784 0.0
C1051 C 0.53277 0.2665 0.34765 0.0
C1052 C 0.53442 0.28221 0.32921 0.0
C1053 C 0.51154 0.26447 0.35964 0.0
C1054 C 0.49178 0.27802 0.3532 0.0
C1055 C 0.49269 0.29149 0.33315 0.0
C1056 C 0.514 0.29386 0.32141 0.0
C1057 C 0.47202 0.28131 0.36936 0.0
C1058 C 0.4596 0.26145 0.37736 0.0
C1059 C 0.46641 0.30411 0.37786 0.0
C1060 C 0.48031 0.32551 0.37159 0.0
C1061 C 0.46913 0.34487 0.36103 0.0
C1062 C 0.48236 0.36472 0.35449 0.0
C1063 C 0.50678 0.36544 0.35852 0.0
C1064 C 0.51798 0.3464 0.36929 0.0
C1065 C 0.50482 0.32657 0.37595 0.0
H1066 H 0.517 0.38077 0.35335 0.0
H1067 H 0.39977 0.18518 0.42622 0.0
H1068 H 0.17132 0.8625 0.92127 0.0
H1069 H 0.18145 0.8914 0.89239 0.0
H1070 H 0.25439 0.89058 0.91456 0.0
H1071 H 0.24419 0.86178 0.94418 0.0
H1072 H 0.23726 0.93395 0.91493 0.0
H1073 H 0.24052 0.87469 0.85748 0.0
H1074 H 0.22801 0.83892 0.83653 0.0
H1075 H 0.16095 0.87131 0.82159 0.0
H1076 H 0.17314 0.90741 0.84212 0.0
H1077 H 0.23329 0.03713 0.84515 0.0
H1078 H 0.24695 0.99736 0.85598 0.0
H1079 H 0.17503 0.97153 0.85208 0.0
H1080 H 0.16146 0.01086 0.84078 0.0
H1081 H 0.20603 0.93874 0.83633 0.0
H1082 H 0.19822 0.99112 0.90198 0.0
H1083 H 0.20793 0.02659 0.92463 0.0
H1084 H 0.28119 0.00596 0.92622 0.0
H1085 H 0.27191 0.97048 0.90332 0.0
C1086 C 0.18964 0.86806 0.91981 0.0
C1087 C 0.20686 0.86012 0.93531 0.0
C1088 C 0.1955 0.8844 0.903 0.0
C1089 C 0.21876 0.89302 0.90109 0.0
C1090 C 0.23636 0.88405 0.91564 0.0
C1091 C 0.23049 0.86762 0.93257 0.0
C1092 C 0.22328 0.91409 0.88666 0.0
C1093 C 0.23129 0.9348 0.89743 0.0
C1094 C 0.21512 0.91534 0.86398 0.0
C1095 C 0.20777 0.89377 0.85136 0.0
C1096 C 0.2231 0.87419 0.84973 0.0
C1097 C 0.21609 0.85387 0.8379 0.0
C1098 C 0.19368 0.8528 0.82784 0.0
C1099 C 0.17832 0.87216 0.82937 0.0
C1100 C 0.18534 0.89262 0.84096 0.0
C1101 C 0.22052 0.02282 0.84619 0.0
C1102 C 0.19626 0.02713 0.8425 0.0
C1103 C 0.22832 0.00017 0.85242 0.0
C1104 C 0.21197 0.98157 0.85502 0.0
C1105 C 0.18797 0.98561 0.85014 0.0
C1106 C 0.18018 0.00816 0.84398 0.0
C1107 C 0.21899 0.95851 0.86502 0.0
C1108 C 0.21309 0.93759 0.85343 0.0
C1109 C 0.22887 0.95703 0.88706 0.0
C1110 C 0.23446 0.97839 0.90068 0.0
C1111 C 0.21643 0.99428 0.907 0.0
C1112 C 0.22184 0.01435 0.9199 0.0
C1113 C 0.24518 0.01858 0.92678 0.0
C1114 C 0.26314 0.0027 0.92082 0.0
C1115 C 0.25782 0.98262 0.90787 0.0
H1116 H 0.24933 0.03412 0.9368 0.0
H1117 H 0.18823 0.837 0.81883 0.0
H1118 H 0.61902 0.66343 0.43601 0.0
H1119 H 0.58594 0.66845 0.40959 0.0
H1120 H 0.57688 0.74063 0.43209 0.0
H1121 H 0.61041 0.73594 0.45829 0.0
H1122 H 0.53515 0.70975 0.43379 0.0
H1123 H 0.59455 0.73664 0.38254 0.0
H1124 H 0.63275 0.73552 0.36229 0.0
H1125 H 0.61288 0.66989 0.33065 0.0
H1126 H 0.5747 0.67039 0.351 0.0
H1127 H 0.43646 0.71136 0.36033 0.0
H1128 H 0.47365 0.72534 0.37688 0.0
H1129 H 0.50912 0.66251 0.35259 0.0
H1130 H 0.4725 0.64921 0.3348 0.0
H1131 H 0.53831 0.69851 0.35033 0.0
H1132 H 0.48487 0.66649 0.40713 0.0
H1133 H 0.44742 0.66436 0.42863 0.0
H1134 H 0.45705 0.73619 0.45101 0.0
H1135 H 0.49444 0.73881 0.42938 0.0
C1136 C 0.61013 0.68043 0.4352 0.0
C1137 C 0.61718 0.69926 0.44926 0.0
C1138 C 0.59138 0.68332 0.42 0.0
C1139 C 0.57918 0.70495 0.41886 0.0
C1140 C 0.58627 0.72388 0.43268 0.0
C1141 C 0.60537 0.72116 0.44759 0.0
C1142 C 0.55779 0.70681 0.40456 0.0
C1143 C 0.53577 0.70796 0.41546 0.0
C1144 C 0.55882 0.7039 0.38077 0.0
C1145 C 0.58178 0.70349 0.36844 0.0
C1146 C 0.59839 0.72185 0.37143 0.0
C1147 C 0.62004 0.72135 0.35989 0.0
C1148 C 0.62525 0.70263 0.34521 0.0
C1149 C 0.60881 0.68438 0.34202 0.0
C1150 C 0.58715 0.68479 0.35354 0.0
C1151 C 0.4523 0.70081 0.35801 0.0
C1152 C 0.45139 0.67892 0.34659 0.0
C1153 C 0.47351 0.70874 0.36765 0.0
C1154 C 0.49405 0.69472 0.3664 0.0
C1155 C 0.49348 0.67357 0.35391 0.0
C1156 C 0.47241 0.6658 0.34402 0.0
C1157 C 0.51558 0.70077 0.37963 0.0
C1158 C 0.53763 0.70099 0.36857 0.0
C1159 C 0.51466 0.70453 0.40339 0.0
C1160 C 0.49225 0.70295 0.41642 0.0
C1161 C 0.4789 0.68188 0.41651 0.0
C1162 C 0.45771 0.68057 0.42873 0.0
C1163 C 0.44982 0.70015 0.44111 0.0
C1164 C 0.46315 0.72106 0.44136 0.0
C1165 C 0.48434 0.72247 0.42913 0.0
H1166 H 0.43341 0.69911 0.45057 0.0
H1167 H 0.64201 0.70229 0.33628 0.0
H1168 H 0.2543 0.39215 0.53467 0.0
H1169 H 0.24816 0.42633 0.55966 0.0
H1170 H 0.32069 0.42125 0.58243 0.0
H1171 H 0.32694 0.38723 0.55775 0.0
H1172 H 0.29018 0.43379 0.61707 0.0
H1173 H 0.30705 0.45614 0.53836 0.0
H1174 H 0.29844 0.45641 0.4973 0.0
H1175 H 0.23012 0.48713 0.51018 0.0
H1176 H 0.23825 0.48672 0.55138 0.0
H1177 H 0.34633 0.54156 0.63569 0.0
H1178 H 0.33105 0.50335 0.62301 0.0
H1179 H 0.26276 0.53505 0.60996 0.0
H1180 H 0.27819 0.57368 0.62236 0.0
H1181 H 0.27835 0.50883 0.5744 0.0
H1182 H 0.26776 0.49641 0.65304 0.0
H1183 H 0.27795 0.49672 0.69373 0.0
H1184 H 0.3349 0.44789 0.68154 0.0
H1185 H 0.32531 0.44755 0.64071 0.0
C1186 C 0.26877 0.39802 0.54536 0.0
C1187 C 0.29122 0.38726 0.54397 0.0
C1188 C 0.26523 0.41754 0.55959 0.0
C1189 C 0.28405 0.42642 0.57268 0.0
C1190 C 0.30594 0.41466 0.57247 0.0
C1191 C 0.30953 0.39533 0.55819 0.0
C1192 C 0.28221 0.4494 0.5846 0.0
C1193 C 0.28746 0.45024 0.60786 0.0
C1194 C 0.27793 0.47075 0.57263 0.0
C1195 C 0.27311 0.4711 0.54791 0.0
C1196 C 0.29013 0.46277 0.53243 0.0
C1197 C 0.28535 0.46298 0.50914 0.0
C1198 C 0.26371 0.47171 0.50114 0.0
C1199 C 0.24684 0.48032 0.51641 0.0
C1200 C 0.25152 0.4801 0.53972 0.0
C1201 C 0.32807 0.54042 0.63009 0.0
C1202 C 0.3135 0.56061 0.62981 0.0
C1203 C 0.31926 0.51852 0.62315 0.0
C1204 C 0.29567 0.51631 0.61587 0.0
C1205 C 0.28096 0.53638 0.61572 0.0
C1206 C 0.28976 0.55836 0.62282 0.0
C1207 C 0.28733 0.49333 0.60674 0.0
C1208 C 0.28021 0.49246 0.58394 0.0
C1209 C 0.28998 0.47199 0.61915 0.0
C1210 C 0.29584 0.47202 0.64375 0.0
C1211 C 0.28256 0.48585 0.65899 0.0
C1212 C 0.28822 0.48602 0.6821 0.0
C1213 C 0.30707 0.47235 0.69021 0.0
C1214 C 0.32029 0.45846 0.67523 0.0
C1215 C 0.31472 0.45824 0.6521 0.0
H1216 H 0.31142 0.4725 0.7081 0.0
H1217 H 0.26004 0.47186 0.48311 0.0
H1218 H 0.11996 0.77096 0.0599 0.0
H1219 H 0.09187 0.77504 0.09143 0.0
H1220 H 0.07289 0.84486 0.06747 0.0
H1221 H 0.10079 0.84115 0.03636 0.0
H1222 H 0.07966 0.84448 0.1128 0.0
H1223 H 0.03864 0.79616 0.05599 0.0
H1224 H 0.034 0.76061 0.03203 0.0
H1225 H 0.035 0.71629 0.09137 0.0
H1226 H 0.03991 0.75162 0.11566 0.0
H1227 H 0.962 0.87617 0.13058 0.0
H1228 H 0.00025 0.86286 0.11653 0.0
H1229 H 0.00033 0.8055 0.16499 0.0
H1230 H 0.96242 0.81945 0.18021 0.0
H1231 H 0.00888 0.79248 0.1179 0.0
H1232 H 0.03877 0.84387 0.17451 0.0
H1233 H 0.04243 0.88025 0.19739 0.0
H1234 H 0.06193 0.91976 0.13791 0.0
H1235 H 0.05792 0.88374 0.11456 0.0
C1236 C 0.10973 0.78713 0.06133 0.0
C1237 C 0.11257 0.80569 0.04553 0.0
C1238 C 0.09376 0.78944 0.07938 0.0
C1239 C 0.08034 0.81026 0.08176 0.0
C1240 C 0.08323 0.82873 0.06605 0.0
C1241 C 0.09912 0.82649 0.04816 0.0
C1242 C 0.0626 0.81304 0.10002 0.0
C1243 C 0.0642 0.83309 0.11402 0.0
C1244 C 0.04294 0.79762 0.10218 0.0
C1245 C 0.03996 0.77646 0.08759 0.0
C1246 C 0.03806 0.77881 0.0639 0.0
C1247 C 0.03535 0.75872 0.05027 0.0
C1248 C 0.0343 0.7362 0.06017 0.0
C1249 C 0.03588 0.73374 0.08373 0.0
C1250 C 0.03863 0.75379 0.09743 0.0
C1251 C 0.97031 0.8611 0.13876 0.0
C1252 C 0.95905 0.84899 0.15665 0.0
C1253 C 0.99216 0.85344 0.13058 0.0
C1254 C 0.00312 0.83336 0.13989 0.0
C1255 C 0.99209 0.8211 0.15768 0.0
C1256 C 0.97034 0.82901 0.16618 0.0
C1257 C 0.02537 0.82466 0.12971 0.0
C1258 C 0.02466 0.80348 0.11728 0.0
C1259 C 0.04578 0.83918 0.12883 0.0
C1260 C 0.04792 0.86105 0.14274 0.0
C1261 C 0.0436 0.86035 0.16624 0.0
C1262 C 0.04577 0.88092 0.17932 0.0
C1263 C 0.05238 0.90231 0.16911 0.0
C1264 C 0.0568 0.90318 0.1458 0.0
C1265 C 0.0546 0.88268 0.13264 0.0
H1266 H 0.05411 0.9182 0.17927 0.0
H1267 H 0.03219 0.72066 0.04959 0.0
H1268 H 0.74698 0.61388 0.53194 0.0
H1269 H 0.75276 0.57484 0.5494 0.0
H1270 H 0.68155 0.57701 0.57577 0.0
H1271 H 0.67562 0.61592 0.55874 0.0
H1272 H 0.7451 0.55127 0.59415 0.0
H1273 H 0.6552 0.52675 0.5509 0.0
H1274 H 0.6317 0.53932 0.51766 0.0
H1275 H 0.69473 0.56543 0.48533 0.0
H1276 H 0.7186 0.55265 0.51809 0.0
H1277 H 0.69235 0.45077 0.64262 0.0
H1278 H 0.70508 0.48885 0.62723 0.0
H1279 H 0.71083 0.45766 0.56056 0.0
H1280 H 0.69708 0.4196 0.57591 0.0
H1281 H 0.6888 0.49607 0.55663 0.0
H1282 H 0.76096 0.47675 0.59248 0.0
H1283 H 0.78785 0.46304 0.62277 0.0
H1284 H 0.76698 0.52171 0.6646 0.0
H1285 H 0.73969 0.5356 0.6347 0.0
C1286 C 0.73284 0.60645 0.54215 0.0
C1287 C 0.71063 0.61776 0.5435 0.0
C1288 C 0.73622 0.58415 0.55212 0.0
C1289 C 0.7174 0.57298 0.56341 0.0
C1290 C 0.69616 0.58532 0.56685 0.0
C1291 C 0.6928 0.60755 0.55704 0.0
C1292 C 0.71824 0.54736 0.56853 0.0
C1293 C 0.73293 0.53906 0.58598 0.0
C1294 C 0.70304 0.5314 0.55706 0.0
C1295 C 0.68869 0.53892 0.53711 0.0
C1296 C 0.66406 0.53508 0.53666 0.0
C1297 C 0.65066 0.54226 0.51788 0.0
C1298 C 0.66168 0.55326 0.49941 0.0
C1299 C 0.68614 0.55707 0.49968 0.0
C1300 C 0.69961 0.54987 0.51837 0.0
C1301 C 0.69672 0.45197 0.62475 0.0
C1302 C 0.69378 0.43231 0.61042 0.0
C1303 C 0.70416 0.47371 0.61597 0.0
C1304 C 0.70934 0.47612 0.59277 0.0
C1305 C 0.70699 0.45626 0.57852 0.0
C1306 C 0.69913 0.43457 0.58725 0.0
C1307 C 0.7149 0.49987 0.58317 0.0
C1308 C 0.70133 0.50796 0.56474 0.0
C1309 C 0.73169 0.51534 0.59329 0.0
C1310 C 0.74817 0.50715 0.61135 0.0
C1311 C 0.76199 0.48666 0.60819 0.0
C1312 C 0.77732 0.47886 0.62529 0.0
C1313 C 0.7791 0.49148 0.64561 0.0
C1314 C 0.76559 0.51195 0.64885 0.0
C1315 C 0.75021 0.51982 0.63181 0.0
H1316 H 0.79098 0.48541 0.65883 0.0
H1317 H 0.65129 0.55876 0.48488 0.0
H1318 H 0.87203 0.18532 0.07732 0.0
H1319 H 0.89993 0.19375 0.10811 0.0
H1320 H 0.92762 0.25325 0.0704 0.0
H1321 H 0.89924 0.24529 0.03971 0.0
H1322 H 0.96177 0.2183 0.08468 0.0
H1323 H 0.90202 0.26734 0.11424 0.0
H1324 H 0.86247 0.28019 0.12688 0.0
H1325 H 0.86264 0.22654 0.17865 0.0
H1326 H 0.90202 0.21294 0.166 0.0
H1327 H 0.04532 0.23708 0.17 0.0
H1328 H 0.01044 0.24958 0.1484 0.0
H1329 H 0.97158 0.18922 0.17374 0.0
H1330 H 0.00645 0.17659 0.19542 0.0
H1331 H 0.94322 0.23277 0.16587 0.0
H1332 H 0.0 0.17966 0.12964 0.0
H1333 H 0.04053 0.16873 0.11802 0.0
H1334 H 0.04568 0.23252 0.07837 0.0
H1335 H 0.00532 0.24407 0.0902 0.0
C1336 C 0.88391 0.20034 0.07571 0.0
C1337 C 0.8837 0.21455 0.0561 0.0
C1338 C 0.89966 0.20524 0.09335 0.0
C1339 C 0.91569 0.22417 0.09149 0.0
C1340 C 0.91523 0.23867 0.07213 0.0
C1341 C 0.89908 0.2341 0.05467 0.0
C1342 C 0.93442 0.22704 0.10876 0.0
C1343 C 0.9578 0.22205 0.10234 0.0
C1344 C 0.92906 0.23156 0.1318 0.0
C1345 C 0.90497 0.23899 0.13903 0.0
C1346 C 0.89352 0.25802 0.12811 0.0
C1347 C 0.87115 0.2655 0.13532 0.0
C1348 C 0.8601 0.25425 0.1536 0.0
C1349 C 0.87129 0.23531 0.16455 0.0
C1350 C 0.89363 0.22767 0.15734 0.0
C1351 C 0.02907 0.22699 0.17166 0.0
C1352 C 0.02859 0.20573 0.18414 0.0
C1353 C 0.00919 0.23414 0.15931 0.0
C1354 C 0.9886 0.22018 0.15938 0.0
C1355 C 0.98733 0.20023 0.17356 0.0
C1356 C 0.00727 0.19294 0.18576 0.0
C1357 C 0.97034 0.22368 0.14175 0.0
C1358 C 0.94714 0.22958 0.14812 0.0
C1359 C 0.97578 0.22006 0.11858 0.0
C1360 C -0.00021 0.21287 0.11102 0.0
C1361 C 0.00985 0.19144 0.11859 0.0
C1362 C 0.03278 0.18513 0.11196 0.0
C1363 C 0.04569 0.19995 0.09751 0.0
C1364 C 0.03567 0.22108 0.08961 0.0
C1365 C 0.01278 0.22753 0.09628 0.0
H1366 H 0.06344 0.19504 0.09238 0.0
H1367 H 0.84291 0.26028 0.1593 0.0
H1368 H 0.18428 0.75025 0.06908 0.0
H1369 H 0.19502 0.74238 0.10854 0.0
H1370 H 0.26017 0.78135 0.09962 0.0
H1371 H 0.24971 0.7893 0.06011 0.0
H1372 H 0.26584 0.73878 0.1229 0.0
H1373 H 0.21487 0.80773 0.12463 0.0
H1374 H 0.178 0.82934 0.11573 0.0
H1375 H 0.13768 0.77809 0.15344 0.0
H1376 H 0.1743 0.75598 0.1623 0.0
H1377 H 0.30383 0.75055 0.23209 0.0
H1378 H 0.28688 0.7657 0.19708 0.0
H1379 H 0.22231 0.72702 0.20997 0.0
H1380 H 0.23865 0.7127 0.24594 0.0
H1381 H 0.21467 0.76897 0.18506 0.0
H1382 H 0.26364 0.69954 0.18278 0.0
H1383 H 0.29944 0.67614 0.19143 0.0
H1384 H 0.34204 0.72568 0.15391 0.0
H1385 H 0.30651 0.74966 0.14542 0.0
C1386 C 0.20105 0.75691 0.07539 0.0
C1387 C 0.21612 0.77049 0.06145 0.0
C1388 C 0.20704 0.75253 0.09798 0.0
C1389 C 0.22818 0.76162 0.10698 0.0
C1390 C 0.2437 0.77434 0.09294 0.0
C1391 C 0.23768 0.77885 0.07038 0.0
C1392 C 0.23409 0.75809 0.13115 0.0
C1393 C 0.25483 0.74565 0.13648 0.0
C1394 C 0.21925 0.76646 0.14878 0.0
C1395 C 0.1973 0.78008 0.14396 0.0
C1396 C 0.19812 0.80099 0.13092 0.0
C1397 C 0.17727 0.81334 0.12589 0.0
C1398 C 0.1555 0.80506 0.13396 0.0
C1399 C 0.15455 0.78447 0.14718 0.0
C1400 C 0.17536 0.77204 0.15224 0.0
C1401 C 0.28563 0.74606 0.22816 0.0
C1402 C 0.2728 0.72992 0.24164 0.0
C1403 C 0.27603 0.75463 0.20797 0.0
C1404 C 0.25365 0.7469 0.20071 0.0
C1405 C 0.23974 0.73296 0.21522 0.0
C1406 C 0.24923 0.72458 0.23563 0.0
C1407 C 0.24668 0.75009 0.17673 0.0
C1408 C 0.22571 0.76224 0.17145 0.0
C1409 C 0.26112 0.74118 0.15904 0.0
C1410 C 0.28245 0.72651 0.16365 0.0
C1411 C 0.28066 0.70552 0.17649 0.0
C1412 C 0.3009 0.69216 0.18137 0.0
C1413 C 0.32301 0.69944 0.17326 0.0
C1414 C 0.3249 0.72008 0.1602 0.0
C1415 C 0.30472 0.73356 0.15535 0.0
H1416 H 0.33866 0.68908 0.17705 0.0
H1417 H 0.13936 0.8146 0.13 0.0
H1418 H 0.76402 0.70238 0.54782 0.0
H1419 H 0.77718 0.71777 0.58457 0.0
H1420 H 0.72956 0.77711 0.57756 0.0
H1421 H 0.71643 0.7622 0.5409 0.0
H1422 H 0.79543 0.76303 0.60051 0.0
H1423 H 0.6988 0.77919 0.6285 0.0
H1424 H 0.65863 0.76482 0.61915 0.0
H1425 H 0.68737 0.69777 0.59844 0.0
H1426 H 0.72765 0.71155 0.60808 0.0
H1427 H 0.78727 0.83554 0.69798 0.0
H1428 H 0.77697 0.81856 0.66102 0.0
H1429 H 0.76793 0.74984 0.6921 0.0
H1430 H 0.77854 0.7667 0.72917 0.0
H1431 H 0.7315 0.7643 0.65847 0.0
H1432 H 0.81582 0.75572 0.6686 0.0
H1433 H 0.85594 0.77018 0.67781 0.0
H1434 H 0.85228 0.8199 0.62264 0.0
H1435 H 0.81193 0.80601 0.61334 0.0
C1436 C 0.75676 0.71901 0.55381 0.0
C1437 C 0.73888 0.73084 0.54155 0.0
C1438 C 0.76431 0.72774 0.5748 0.0
C1439 C 0.75395 0.74826 0.58383 0.0
C1440 C 0.73747 0.76104 0.57092 0.0
C1441 C 0.73004 0.75246 0.54994 0.0
C1442 C 0.75875 0.75536 0.60746 0.0
C1443 C 0.78151 0.76326 0.61321 0.0
C1444 C 0.74054 0.75531 0.62399 0.0
C1445 C 0.71629 0.74652 0.61882 0.0
C1446 C 0.69654 0.76133 0.62209 0.0
C1447 C 0.67375 0.75329 0.61673 0.0
C1448 C 0.67047 0.73043 0.60815 0.0
C1449 C 0.68995 0.7155 0.60502 0.0
C1450 C 0.71277 0.72343 0.61043 0.0
C1451 C 0.78263 0.81692 0.69698 0.0
C1452 C 0.78366 0.80238 0.71633 0.0
C1453 C 0.7769 0.80725 0.67591 0.0
C1454 C 0.77187 0.78298 0.67395 0.0
C1455 C 0.77178 0.76862 0.69339 0.0
C1456 C 0.77788 0.77821 0.71444 0.0
C1457 C 0.76804 0.77245 0.65136 0.0
C1458 C 0.74544 0.76394 0.6458 0.0
C1459 C 0.78641 0.77179 0.63505 0.0
C1460 C 0.81078 0.77997 0.64041 0.0
C1461 C 0.82349 0.76987 0.65855 0.0
C1462 C 0.84629 0.77794 0.66377 0.0
C1463 C 0.85664 0.79598 0.65085 0.0
C1464 C 0.84423 0.80595 0.63265 0.0
C1465 C 0.8214 0.79797 0.62739 0.0
H1466 H 0.87429 0.80221 0.65492 0.0
H1467 H 0.65282 0.72426 0.60399 0.0
H1468 H 0.81528 0.25405 0.06571 0.0
H1469 H 0.80381 0.26204 0.10483 0.0
H1470 H 0.7324 0.23945 0.09012 0.0
H1471 H 0.74384 0.23072 0.05087 0.0
H1472 H 0.73842 0.28219 0.11926 0.0
H1473 H 0.76347 0.20175 0.10935 0.0
H1474 H 0.79072 0.17035 0.09712 0.0
H1475 H 0.84292 0.19463 0.14479 0.0
H1476 H 0.81594 0.22658 0.1571 0.0
H1477 H 0.69184 0.26025 0.22398 0.0
H1478 H 0.70716 0.24804 0.18748 0.0
H1479 H 0.77749 0.26954 0.2074 0.0
H1480 H 0.76244 0.28112 0.24484 0.0
H1481 H 0.77376 0.22735 0.17612 0.0
H1482 H 0.74971 0.30924 0.18402 0.0
H1483 H 0.72221 0.34071 0.19622 0.0
H1484 H 0.66818 0.31254 0.15249 0.0
H1485 H 0.69524 0.2806 0.14038 0.0
C1486 C 0.79695 0.25137 0.07055 0.0
C1487 C 0.78044 0.24162 0.05524 0.0
C1488 C 0.79052 0.25581 0.09295 0.0
C1489 C 0.76742 0.25098 0.10025 0.0
C1490 C 0.75036 0.24314 0.08465 0.0
C1491 C 0.7569 0.23819 0.0623 0.0
C1492 C 0.7616 0.25239 0.12454 0.0
C1493 C 0.74599 0.27012 0.13167 0.0
C1494 C 0.77192 0.23675 0.14061 0.0
C1495 C 0.78795 0.21713 0.13364 0.0
C1496 C 0.78094 0.20079 0.1169 0.0
C1497 C 0.79632 0.18278 0.11 0.0
C1498 C 0.81871 0.18065 0.11994 0.0
C1499 C 0.82567 0.19645 0.13693 0.0
C1500 C 0.81034 0.21455 0.14385 0.0
C1501 C 0.71077 0.26145 0.22122 0.0
C1502 C 0.72588 0.27194 0.23739 0.0
C1503 C 0.71945 0.25456 0.20018 0.0
C1504 C 0.7433 0.25827 0.19473 0.0
C1505 C 0.75897 0.26664 0.21139 0.0
C1506 C 0.75029 0.27347 0.23264 0.0
C1507 C 0.7506 0.25717 0.17076 0.0
C1508 C 0.7664 0.23951 0.16369 0.0
C1509 C 0.74054 0.27288 0.15464 0.0
C1510 C 0.72443 0.29241 0.16145 0.0
C1511 C 0.73191 0.30966 0.17713 0.0
C1512 C 0.71641 0.32758 0.18402 0.0
C1513 C 0.69344 0.3286 0.17517 0.0
C1514 C 0.68597 0.31172 0.15935 0.0
C1515 C 0.70138 0.29371 0.15246 0.0
H1516 H 0.68146 0.34248 0.18053 0.0
H1517 H 0.83056 0.16661 0.11466 0.0
H1518 H 0.24431 0.31162 0.55558 0.0
H1519 H 0.2305 0.29515 0.59173 0.0
H1520 H 0.25194 0.22524 0.57037 0.0
H1521 H 0.26614 0.24159 0.53439 0.0
H1522 H 0.20763 0.22761 0.596 0.0
H1523 H 0.28997 0.25231 0.59816 0.0
H1524 H 0.32222 0.28128 0.59248 0.0
H1525 H 0.28919 0.32873 0.63981 0.0
H1526 H 0.25653 0.30016 0.64548 0.0
H1527 H 0.22626 0.16356 0.69594 0.0
H1528 H 0.23402 0.1832 0.65977 0.0
H1529 H 0.22107 0.25129 0.69067 0.0
H1530 H 0.21399 0.23179 0.72722 0.0
H1531 H 0.25832 0.2526 0.66069 0.0
H1532 H 0.17784 0.22562 0.66155 0.0
H1533 H 0.14564 0.19653 0.66673 0.0
H1534 H 0.17465 0.15345 0.61353 0.0
H1535 H 0.20726 0.18212 0.60827 0.0
C1536 C 0.24542 0.29265 0.55833 0.0
C1537 C 0.25645 0.27786 0.54234 0.0
C1538 C 0.23764 0.28332 0.57897 0.0
C1539 C 0.24048 0.25909 0.58365 0.0
C1540 C 0.24965 0.244 0.56697 0.0
C1541 C 0.2578 0.25335 0.54651 0.0
C1542 C 0.23653 0.24985 0.60672 0.0
C1543 C 0.21871 0.23294 0.61017 0.0
C1544 C 0.25086 0.25721 0.62511 0.0
C1545 C 0.27067 0.27423 0.62204 0.0
C1546 C 0.28949 0.26901 0.60721 0.0
C1547 C 0.30786 0.28533 0.60401 0.0
C1548 C 0.30772 0.30686 0.61572 0.0
C1549 C 0.28925 0.31206 0.63072 0.0
C1550 C 0.27081 0.29581 0.63394 0.0
C1551 C 0.22564 0.18275 0.69521 0.0
C1552 C 0.21937 0.19614 0.71438 0.0
C1553 C 0.22982 0.19392 0.67447 0.0
C1554 C 0.22762 0.21862 0.67251 0.0
C1555 C 0.22264 0.23218 0.69185 0.0
C1556 C 0.21848 0.22101 0.71264 0.0
C1557 C 0.22949 0.23009 0.65003 0.0
C1558 C 0.24698 0.24742 0.64666 0.0
C1559 C 0.21482 0.22311 0.63169 0.0
C1560 C 0.19511 0.20593 0.63465 0.0
C1561 C 0.17745 0.20986 0.65106 0.0
C1562 C 0.15911 0.19346 0.654 0.0
C1563 C 0.15813 0.17313 0.64049 0.0
C1564 C 0.17545 0.16919 0.62399 0.0
C1565 C 0.19385 0.18553 0.62101 0.0
H1566 H 0.14392 0.16044 0.64279 0.0
H1567 H 0.32195 0.31949 0.61322 0.0
H1568 H 0.75897 0.70602 0.43201 0.0
H1569 H 0.77039 0.71759 0.39359 0.0
H1570 H 0.70505 0.75654 0.38611 0.0
H1571 H 0.69338 0.74506 0.42451 0.0
H1572 H 0.71497 0.72704 0.34926 0.0
H1573 H 0.75394 0.78655 0.3941 0.0
H1574 H 0.77959 0.80137 0.42488 0.0
H1575 H 0.83897 0.76413 0.39657 0.0
H1576 H 0.81358 0.7488 0.36577 0.0
H1577 H 0.74776 0.79526 0.25123 0.0
H1578 H 0.73295 0.77807 0.28654 0.0
H1579 H 0.80129 0.74619 0.29883 0.0
H1580 H 0.81666 0.76447 0.26459 0.0
H1581 H 0.78886 0.77177 0.33338 0.0
H1582 H 0.75042 0.71327 0.28745 0.0
H1583 H 0.7247 0.69778 0.25704 0.0
H1584 H 0.66445 0.73199 0.28713 0.0
H1585 H 0.68988 0.74805 0.31751 0.0
C1586 C 0.7471 0.71722 0.4223 0.0
C1587 C 0.72529 0.72468 0.43138 0.0
C1588 C 0.75365 0.72379 0.40036 0.0
C1589 C 0.73854 0.73791 0.38711 0.0
C1590 C 0.71689 0.74558 0.39612 0.0
C1591 C 0.71037 0.73915 0.41813 0.0
C1592 C 0.74535 0.74453 0.36376 0.0
C1593 C 0.73096 0.73708 0.34568 0.0
C1594 C 0.76648 0.7571 0.35928 0.0
C1595 C 0.7818 0.76634 0.37776 0.0
C1596 C 0.77242 0.78136 0.39454 0.0
C1597 C 0.78692 0.78988 0.41197 0.0
C1598 C 0.81088 0.78364 0.41271 0.0
C1599 C 0.8204 0.76892 0.39599 0.0
C1600 C 0.80597 0.76032 0.37853 0.0
C1601 C 0.75959 0.78439 0.26132 0.0
C1602 C 0.78353 0.78161 0.25515 0.0
C1603 C 0.75099 0.77432 0.28138 0.0
C1604 C 0.76606 0.76094 0.29538 0.0
C1605 C 0.78938 0.75657 0.28833 0.0
C1606 C 0.79807 0.76685 0.26851 0.0
C1607 C 0.75867 0.75403 0.31858 0.0
C1608 C 0.7729 0.7616 0.33676 0.0
C1609 C 0.73743 0.74152 0.32306 0.0
C1610 C 0.72214 0.73212 0.30462 0.0
C1611 C 0.73174 0.71774 0.28745 0.0
C1612 C 0.7172 0.7088 0.27024 0.0
C1613 C 0.69297 0.71397 0.27011 0.0
C1614 C 0.68323 0.72805 0.28721 0.0
C1615 C 0.69771 0.73707 0.30443 0.0
H1616 H 0.68174 0.707 0.25679 0.0
H1617 H 0.82208 0.79027 0.42622 0.0
H1618 H 0.78813 0.27378 0.95358 0.0
H1619 H 0.76947 0.292 0.92037 0.0
H1620 H 0.74597 0.22297 0.89794 0.0
H1621 H 0.76348 0.20494 0.93165 0.0
H1622 H 0.77739 0.28926 0.87855 0.0
H1623 H 0.69677 0.22509 0.86755 0.0
H1624 H 0.66908 0.20249 0.8917 0.0
H1625 H 0.68188 0.2505 0.94688 0.0
H1626 H 0.70939 0.27358 0.92298 0.0
H1627 H 0.73803 0.29363 0.76607 0.0
H1628 H 0.75178 0.28179 0.80381 0.0
H1629 H 0.68608 0.30676 0.83285 0.0
H1630 H 0.6719 0.31745 0.79486 0.0
H1631 H 0.69654 0.26828 0.85214 0.0
H1632 H 0.73991 0.3385 0.83755 0.0
H1633 H 0.76526 0.36639 0.81629 0.0
H1634 H 0.82243 0.31616 0.81778 0.0
H1635 H 0.79732 0.28781 0.83878 0.0
C1636 C 0.77881 0.26257 0.94161 0.0
C1637 C 0.77709 0.23799 0.94522 0.0
C1638 C 0.76819 0.27297 0.92265 0.0
C1639 C 0.75598 0.25893 0.9068 0.0
C1640 C 0.75465 0.2343 0.91023 0.0
C1641 C 0.76479 0.22397 0.92943 0.0
C1642 C 0.74546 0.26981 0.8862 0.0
C1643 C 0.75965 0.28479 0.87286 0.0
C1644 C 0.72205 0.2646 0.87907 0.0
C1645 C 0.7053 0.25095 0.8935 0.0
C1646 C 0.69359 0.2309 0.88479 0.0
C1647 C 0.67795 0.21799 0.89845 0.0
C1648 C 0.67378 0.22502 0.92083 0.0
C1649 C 0.68519 0.24502 0.92957 0.0
C1650 C 0.70083 0.25801 0.91598 0.0
C1651 C 0.72661 0.29653 0.78058 0.0
C1652 C 0.70401 0.30644 0.77775 0.0
C1653 C 0.73449 0.28995 0.80212 0.0
C1654 C 0.72017 0.29384 0.82127 0.0
C1655 C 0.69746 0.30362 0.81836 0.0
C1656 C 0.68938 0.30973 0.79673 0.0
C1657 C 0.72872 0.28719 0.84421 0.0
C1658 C 0.71417 0.27298 0.85796 0.0
C1659 C 0.75142 0.29395 0.85219 0.0
C1660 C 0.76666 0.31096 0.8396 0.0
C1661 C 0.75784 0.33333 0.83321 0.0
C1662 C 0.77217 0.34923 0.82122 0.0
C1663 C 0.79542 0.34303 0.81565 0.0
C1664 C 0.80441 0.32093 0.8221 0.0
C1665 C 0.79014 0.30495 0.83407 0.0
H1666 H 0.80649 0.35537 0.80637 0.0
H1667 H 0.66167 0.21499 0.93138 0.0
H1668 H 0.28216 0.24467 0.43891 0.0
H1669 H 0.27473 0.23116 0.40022 0.0
H1670 H 0.25178 0.30154 0.38144 0.0
H1671 H 0.25842 0.315 0.42036 0.0
H1672 H 0.22443 0.26942 0.36224 0.0
H1673 H 0.30825 0.28143 0.36792 0.0
H1674 H 0.34791 0.27716 0.38498 0.0
H1675 H 0.34462 0.20168 0.37577 0.0
H1676 H 0.3048 0.20549 0.35877 0.0
H1677 H 0.22248 0.23769 0.24764 0.0
H1678 H 0.23926 0.25877 0.2802 0.0
H1679 H 0.25639 0.19191 0.31189 0.0
H1680 H 0.23956 0.17077 0.27961 0.0
H1681 H 0.28919 0.22737 0.32188 0.0
H1682 H 0.20387 0.21528 0.32065 0.0
H1683 H 0.16439 0.2191 0.30299 0.0
H1684 H 0.1708 0.295 0.30407 0.0
H1685 H 0.21057 0.2916 0.3213 0.0
C1686 C 0.27524 0.25718 0.42661 0.0
C1687 C 0.27093 0.28089 0.43264 0.0
C1688 C 0.27121 0.24951 0.40447 0.0
C1689 C 0.26333 0.26552 0.38782 0.0
C1690 C 0.25803 0.28895 0.394 0.0
C1691 C 0.26173 0.29657 0.41626 0.0
C1692 C 0.26076 0.25772 0.36398 0.0
C1693 C 0.23875 0.26067 0.35327 0.0
C1694 C 0.27938 0.24607 0.35234 0.0
C1695 C 0.30348 0.24374 0.36222 0.0
C1696 C 0.31593 0.26391 0.36963 0.0
C1697 C 0.33845 0.26156 0.37929 0.0
C1698 C 0.34873 0.23913 0.38156 0.0
C1699 C 0.3366 0.21903 0.37402 0.0
C1700 C 0.31408 0.22128 0.36433 0.0
C1701 C 0.23038 0.22753 0.26131 0.0
C1702 C 0.22935 0.2026 0.26131 0.0
C1703 C 0.24001 0.23957 0.27981 0.0
C1704 C 0.24858 0.22683 0.29856 0.0
C1705 C 0.2498 0.20202 0.29756 0.0
C1706 C 0.2402 0.18996 0.27906 0.0
C1707 C 0.25285 0.23882 0.32042 0.0
C1708 C 0.2751 0.23658 0.33076 0.0
C1709 C 0.23447 0.25112 0.33174 0.0
C1710 C 0.21028 0.25318 0.32201 0.0
C1711 C 0.19691 0.23278 0.317 0.0
C1712 C 0.17449 0.23487 0.30706 0.0
C1713 C 0.16512 0.25728 0.30236 0.0
C1714 C 0.17811 0.27765 0.30768 0.0
C1715 C 0.20059 0.27566 0.31751 0.0
H1716 H 0.14776 0.25886 0.29466 0.0
H1717 H 0.36609 0.23728 0.38914 0.0
H1718 H 0.25789 0.77428 0.95076 0.0
H1719 H 0.27108 0.7598 0.91395 0.0
H1720 H 0.20995 0.71406 0.90996 0.0
H1721 H 0.19646 0.72839 0.94688 0.0
H1722 H 0.2521 0.69421 0.89102 0.0
H1723 H 0.20394 0.76473 0.88585 0.0
H1724 H 0.19244 0.80557 0.89612 0.0
H1725 H 0.26074 0.83108 0.87522 0.0
H1726 H 0.27272 0.79036 0.86494 0.0
H1727 H 0.25187 0.71924 0.76179 0.0
H1728 H 0.23652 0.72731 0.80004 0.0
H1729 H 0.30451 0.70904 0.82869 0.0
H1730 H 0.31993 0.70109 0.7907 0.0
H1731 H 0.25385 0.75934 0.83412 0.0
H1732 H 0.29169 0.67419 0.87582 0.0
H1733 H 0.30138 0.63306 0.865 0.0
H1734 H 0.24958 0.63581 0.81162 0.0
H1735 H 0.23931 0.67678 0.82235 0.0
C1736 C 0.24749 0.76071 0.94239 0.0
C1737 C 0.22586 0.75284 0.95159 0.0
C1738 C 0.25506 0.7525 0.92133 0.0
C1739 C 0.24117 0.73631 0.90915 0.0
C1740 C 0.22078 0.7267 0.91914 0.0
C1741 C 0.21313 0.73492 0.94025 0.0
C1742 C 0.24661 0.7315 0.88513 0.0
C1743 C 0.25249 0.70838 0.87855 0.0
C1744 C 0.2465 0.74999 0.86886 0.0
C1745 C 0.23926 0.77451 0.87476 0.0
C1746 C 0.21655 0.77904 0.88356 0.0
C1747 C 0.20994 0.80214 0.88936 0.0
C1748 C 0.22589 0.82084 0.88636 0.0
C1749 C 0.24846 0.81652 0.87757 0.0
C1750 C 0.25513 0.79346 0.87167 0.0
C1751 C 0.26352 0.71716 0.77628 0.0
C1752 C 0.28707 0.70967 0.77338 0.0
C1753 C 0.25479 0.72179 0.79801 0.0
C1754 C 0.26938 0.71851 0.81705 0.0
C1755 C 0.29299 0.71147 0.81414 0.0
C1756 C 0.3018 0.70716 0.79247 0.0
C1757 C 0.26001 0.72216 0.84011 0.0
C1758 C 0.25336 0.74511 0.84653 0.0
C1759 C 0.25912 0.70344 0.85612 0.0
C1760 C 0.26491 0.67865 0.84977 0.0
C1761 C 0.2823 0.66597 0.86184 0.0
C1762 C 0.2879 0.64269 0.85572 0.0
C1763 C 0.27616 0.63186 0.83759 0.0
C1764 C 0.25873 0.64425 0.8256 0.0
C1765 C 0.25304 0.66752 0.83168 0.0
H1766 H 0.28053 0.61384 0.83286 0.0
H1767 H 0.2207 0.83872 0.89062 0.0
loop_
_geom_bond_atom_site_label_1
_geom_bond_atom_site_label_2
_geom_bond_distance
_geom_bond_site_symmetry_2
_ccdc_geom_bond_type
Sc0 O3 2.025 . S
Sc0 O10 2.105 1_554 S
Sc0 O13 2.105 . S
Sc0 O16 2.105 . S
Sc0 O19 2.105 1_554 S
Sc1 O3 2.025 . S
Sc1 O11 2.105 1_554 S
Sc1 O15 2.105 . S
Sc1 O17 2.105 . S
Sc1 O21 2.105 1_554 S
Sc2 O3 2.025 . S
Sc2 O12 2.105 1_554 S
Sc2 O14 2.105 . S
Sc2 O18 2.105 . S
Sc2 O20 2.105 1_554 S
O3 Sc0 2.025 . S
O3 Sc1 2.025 . S
O3 Sc2 2.025 . S
C4 O10 1.268 . S
C4 O20 1.268 . S
C5 O11 1.268 . S
C5 O19 1.268 . S
C6 O12 1.268 . S
C6 O21 1.268 . S
C7 O13 1.268 . S
C7 O17 1.268 . S
C8 O14 1.268 . S
C8 O16 1.268 . S
C9 O15 1.268 . S
C9 O18 1.268 . S
O10 Sc0 2.105 1_556 S
O10 C4 1.268 . S
O11 Sc1 2.105 1_556 S
O11 C5 1.268 . S
O12 Sc2 2.105 1_556 S
O12 C6 1.268 . S
O13 Sc0 2.105 . S
O13 C7 1.268 . S
O14 Sc2 2.105 . S
O14 C8 1.268 . S
O15 Sc1 2.105 . S
O15 C9 1.268 . S
O16 Sc0 2.105 . S
O16 C8 1.268 . S
O17 Sc1 2.105 . S
O17 C7 1.268 . S
O18 Sc2 2.105 . S
O18 C9 1.268 . S
O19 Sc0 2.105 1_556 S
O19 C5 1.268 . S
O20 Sc2 2.105 1_556 S
O20 C4 1.268 . S
O21 Sc1 2.105 1_556 S
O21 C6 1.268 . S
Sc22 O25 2.025 . S
Sc22 O32 2.105 . S
Sc22 O35 2.105 . S
Sc22 O38 2.105 . S
Sc22 O41 2.105 . S
Sc23 O25 2.025 . S
Sc23 O33 2.105 . S
Sc23 O37 2.105 . S
Sc23 O39 2.105 . S
Sc23 O43 2.105 . S
Sc24 O25 2.025 . S
Sc24 O34 2.105 . S
Sc24 O36 2.105 . S
Sc24 O40 2.105 . S
Sc24 O42 2.105 . S
O25 Sc22 2.025 . S
O25 Sc23 2.025 . S
O25 Sc24 2.025 . S
C26 O32 1.268 . S
C26 O42 1.268 . S
C27 O33 1.268 . S
C27 O41 1.268 . S
C28 O34 1.268 . S
C28 O43 1.268 . S
C29 O35 1.268 . S
C29 O39 1.268 . S
C30 O36 1.268 . S
C30 O38 1.268 . S
C31 O37 1.268 . S
C31 O40 1.268 . S
O32 Sc22 2.105 . S
O32 C26 1.268 . S
O33 Sc23 2.105 . S
O33 C27 1.268 . S
O34 Sc24 2.105 . S
O34 C28 1.268 . S
O35 Sc22 2.105 . S
O35 C29 1.268 . S
O36 Sc24 2.105 . S
O36 C30 1.268 . S
O37 Sc23 2.105 . S
O37 C31 1.268 . S
O38 Sc22 2.105 . S
O38 C30 1.268 . S
O39 Sc23 2.105 . S
O39 C29 1.268 . S
O40 Sc24 2.105 . S
O40 C31 1.268 . S
O41 Sc22 2.105 . S
O41 C27 1.268 . S
O42 Sc24 2.105 . S
O42 C26 1.268 . S
O43 Sc23 2.105 . S
O43 C28 1.268 . S
Sc44 O47 2.025 . S
Sc44 O54 2.105 1_554 S
Sc44 O57 2.105 . S
Sc44 O60 2.105 . S
Sc44 O63 2.105 1_554 S
Sc45 O47 2.025 . S
Sc45 O55 2.105 1_554 S
Sc45 O59 2.105 . S
Sc45 O61 2.105 . S
Sc45 O65 2.105 1_554 S
Sc46 O47 2.025 . S
Sc46 O56 2.105 1_554 S
Sc46 O58 2.105 . S
Sc46 O62 2.105 . S
Sc46 O64 2.105 1_554 S
O47 Sc44 2.025 . S
O47 Sc45 2.025 . S
O47 Sc46 2.025 . S
C48 O54 1.268 . S
C48 O64 1.268 . S
C49 O55 1.268 . S
C49 O63 1.268 . S
C50 O56 1.268 . S
C50 O65 1.268 . S
C51 O57 1.268 . S
C51 O61 1.268 . S
C52 O58 1.268 . S
C52 O60 1.268 . S
C53 O59 1.268 . S
C53 O62 1.268 . S
O54 Sc44 2.105 1_556 S
O54 C48 1.268 . S
O55 Sc45 2.105 1_556 S
O55 C49 1.268 . S
O56 Sc46 2.105 1_556 S
O56 C50 1.268 . S
O57 Sc44 2.105 . S
O57 C51 1.268 . S
O58 Sc46 2.105 . S
O58 C52 1.268 . S
O59 Sc45 2.105 . S
O59 C53 1.268 . S
O60 Sc44 2.105 . S
O60 C52 1.268 . S
O61 Sc45 2.105 . S
O61 C51 1.268 . S
O62 Sc46 2.105 . S
O62 C53 1.268 . S
O63 Sc44 2.105 1_556 S
O63 C49 1.268 . S
O64 Sc46 2.105 1_556 S
O64 C48 1.268 . S
O65 Sc45 2.105 1_556 S
O65 C50 1.268 . S
Sc66 O69 2.025 . S
Sc66 O76 2.105 . S
Sc66 O79 2.105 . S
Sc66 O82 2.105 . S
Sc66 O85 2.105 . S
Sc67 O69 2.025 . S
Sc67 O77 2.105 . S
Sc67 O81 2.105 . S
Sc67 O83 2.105 . S
Sc67 O87 2.105 . S
Sc68 O69 2.025 . S
Sc68 O78 2.105 . S
Sc68 O80 2.105 . S
Sc68 O84 2.105 . S
Sc68 O86 2.105 . S
O69 Sc66 2.025 . S
O69 Sc67 2.025 . S
O69 Sc68 2.025 . S
C70 O76 1.268 . S
C70 O86 1.268 . S
C71 O77 1.268 . S
C71 O85 1.268 . S
C72 O78 1.268 . S
C72 O87 1.268 . S
C73 O79 1.268 . S
C73 O83 1.268 . S
C74 O80 1.268 . S
C74 O82 1.268 . S
C75 O81 1.268 . S
C75 O84 1.268 . S
O76 Sc66 2.105 . S
O76 C70 1.268 . S
O77 Sc67 2.105 . S
O77 C71 1.268 . S
O78 Sc68 2.105 . S
O78 C72 1.268 . S
O79 Sc66 2.105 . S
O79 C73 1.268 . S
O80 Sc68 2.105 . S
O80 C74 1.268 . S
O81 Sc67 2.105 . S
O81 C75 1.268 . S
O82 Sc66 2.105 . S
O82 C74 1.268 . S
O83 Sc67 2.105 . S
O83 C73 1.268 . S
O84 Sc68 2.105 . S
O84 C75 1.268 . S
O85 Sc66 2.105 . S
O85 C71 1.268 . S
O86 Sc68 2.105 . S
O86 C70 1.268 . S
O87 Sc67 2.105 . S
O87 C72 1.268 . S
C88 C89 1.391 . S
C88 C92 1.391 . S
C88 H130 0.948 . S
C89 C88 1.391 . S
C89 C90 1.391 . S
C90 C89 1.391 . S
C90 H146 0.947 . S
C90 C147 1.392 . S
C91 C92 1.391 . S
C91 C95 1.397 . S
C91 C147 1.419 . S
C92 C88 1.391 . S
C92 C91 1.391 . S
C92 C93 1.399 . S
C93 C92 1.399 . S
C93 C96 1.396 . S
C93 C105 1.453 . S
C93 C106 1.684 . S
H94 C118 0.948 . S
C95 C91 1.397 . S
C95 C96 1.394 . S
C95 C114 1.723 . S
C96 C93 1.396 . S
C96 C95 1.394 . S
C96 C126 1.723 . S
H97 C120 0.947 . S
H98 C121 0.948 . S
H99 C127 0.982 . S
H100 C128 0.979 . S
H101 C128 0.980 . S
H102 C128 0.983 . S
H103 C127 0.979 . S
H104 C127 0.977 . S
C105 C93 1.453 . S
C105 H134 0.982 . S
C105 H135 0.979 . S
C105 H136 0.977 . S
C106 C93 1.684 . S
C106 H131 0.979 . S
C106 H132 0.980 . S
C106 H133 0.983 . S
C107 C108 1.391 . S
C107 C112 1.391 . S
C107 H137 0.948 . S
C108 C107 1.391 . S
C108 C109 1.391 . S
C109 C108 1.391 . S
C109 C110 1.392 . S
C109 H138 0.947 . S
C110 C109 1.392 . S
C110 C111 1.419 . S
C110 H139 0.948 . S
C111 C110 1.419 . S
C111 C112 1.391 . S
C111 C115 1.397 . S
C112 C107 1.391 . S
C112 C111 1.391 . S
C112 C113 1.399 . S
C113 C112 1.399 . S
C113 C114 1.396 . S
C113 C116 1.453 . S
C113 C117 1.684 . S
C114 C95 1.723 . S
C114 C113 1.396 . S
C114 C115 1.394 . S
C115 C111 1.397 . S
C115 C114 1.394 . S
C115 C125 1.723 . S
C116 C113 1.453 . S
C116 H140 0.982 . S
C116 H141 0.979 . S
C116 H142 0.977 . S
C117 C113 1.684 . S
C117 H143 0.979 . S
C117 H144 0.980 . S
C117 H145 0.983 . S
C118 H94 0.948 . S
C118 C119 1.391 . S
C118 C123 1.391 . S
C119 C118 1.391 . S
C119 C120 1.391 . S
C120 H97 0.947 . S
C120 C119 1.391 . S
C120 C121 1.392 . S
C121 H98 0.948 . S
C121 C120 1.392 . S
C121 C122 1.419 . S
C122 C121 1.419 . S
C122 C123 1.391 . S
C122 C126 1.397 . S
C123 C118 1.391 . S
C123 C122 1.391 . S
C123 C124 1.399 . S
C124 C123 1.399 . S
C124 C125 1.396 . S
C124 C127 1.453 . S
C124 C128 1.684 . S
C125 C115 1.723 . S
C125 C124 1.396 . S
C125 C126 1.394 . S
C126 C96 1.723 . S
C126 C122 1.397 . S
C126 C125 1.394 . S
C127 H99 0.982 . S
C127 H103 0.979 . S
C127 H104 0.977 . S
C127 C124 1.453 . S
C128 H100 0.979 . S
C128 H101 0.980 . S
C128 H102 0.983 . S
C128 C124 1.684 . S
H129 C147 0.948 . S
H130 C88 0.948 . S
H131 C106 0.979 . S
H132 C106 0.980 . S
H133 C106 0.983 . S
H134 C105 0.982 . S
H135 C105 0.979 . S
H136 C105 0.977 . S
H137 C107 0.948 . S
H138 C109 0.947 . S
H139 C110 0.948 . S
H140 C116 0.982 . S
H141 C116 0.979 . S
H142 C116 0.977 . S
H143 C117 0.979 . S
H144 C117 0.980 . S
H145 C117 0.983 . S
H146 C90 0.947 . S
C147 C90 1.392 . S
C147 C91 1.419 . S
C147 H129 0.948 . S
C148 C149 1.391 . S
C148 C152 1.391 . S
C148 H190 0.948 . S
C149 C148 1.391 . S
C149 C150 1.391 . S
C150 C149 1.391 . S
C150 H206 0.947 . S
C150 C207 1.392 . S
C151 C152 1.391 . S
C151 C155 1.397 . S
C151 C207 1.419 . S
C152 C148 1.391 . S
C152 C151 1.391 . S
C152 C153 1.399 . S
C153 C152 1.399 . S
C153 C156 1.396 . S
C153 C165 1.453 . S
C153 C166 1.684 . S
H154 C178 0.948 . S
C155 C151 1.397 . S
C155 C156 1.394 . S
C155 C174 1.723 . S
C156 C153 1.396 . S
C156 C155 1.394 . S
C156 C186 1.723 . S
H157 C180 0.947 . S
H158 C181 0.948 . S
H159 C187 0.982 . S
H160 C188 0.979 . S
H161 C188 0.980 . S
H162 C188 0.983 . S
H163 C187 0.979 . S
H164 C187 0.977 . S
C165 C153 1.453 . S
C165 H194 0.982 . S
C165 H195 0.979 . S
C165 H196 0.977 . S
C166 C153 1.684 . S
C166 H191 0.979 . S
C166 H192 0.980 . S
C166 H193 0.983 . S
C167 C168 1.391 . S
C167 C172 1.391 . S
C167 H197 0.948 . S
C168 C167 1.391 . S
C168 C169 1.391 . S
C169 C168 1.391 . S
C169 C170 1.392 . S
C169 H198 0.947 . S
C170 C169 1.392 . S
C170 C171 1.419 . S
C170 H199 0.948 . S
C171 C170 1.419 . S
C171 C172 1.391 . S
C171 C175 1.397 . S
C172 C167 1.391 . S
C172 C171 1.391 . S
C172 C173 1.399 . S
C173 C172 1.399 . S
C173 C174 1.396 . S
C173 C176 1.453 . S
C173 C177 1.684 . S
C174 C155 1.723 . S
C174 C173 1.396 . S
C174 C175 1.394 . S
C175 C171 1.397 . S
C175 C174 1.394 . S
C175 C185 1.723 . S
C176 C173 1.453 . S
C176 H200 0.982 . S
C176 H201 0.979 . S
C176 H202 0.977 . S
C177 C173 1.684 . S
C177 H203 0.979 . S
C177 H204 0.980 . S
C177 H205 0.983 . S
C178 H154 0.948 . S
C178 C179 1.391 . S
C178 C183 1.391 . S
C179 C178 1.391 . S
C179 C180 1.391 . S
C180 H157 0.947 . S
C180 C179 1.391 . S
C180 C181 1.392 . S
C181 H158 0.948 . S
C181 C180 1.392 . S
C181 C182 1.419 . S
C182 C181 1.419 . S
C182 C183 1.391 . S
C182 C186 1.397 . S
C183 C178 1.391 . S
C183 C182 1.391 . S
C183 C184 1.399 . S
C184 C183 1.399 . S
C184 C185 1.396 . S
C184 C187 1.453 . S
C184 C188 1.684 . S
C185 C175 1.723 . S
C185 C184 1.396 . S
C185 C186 1.394 . S
C186 C156 1.723 . S
C186 C182 1.397 . S
C186 C185 1.394 . S
C187 H159 0.982 . S
C187 H163 0.979 . S
C187 H164 0.977 . S
C187 C184 1.453 . S
C188 H160 0.979 . S
C188 H161 0.980 . S
C188 H162 0.983 . S
C188 C184 1.684 . S
H189 C207 0.948 . S
H190 C148 0.948 . S
H191 C166 0.979 . S
H192 C166 0.980 . S
H193 C166 0.983 . S
H194 C165 0.982 . S
H195 C165 0.979 . S
H196 C165 0.977 . S
H197 C167 0.948 . S
H198 C169 0.947 . S
H199 C170 0.948 . S
H200 C176 0.982 . S
H201 C176 0.979 . S
H202 C176 0.977 . S
H203 C177 0.979 . S
H204 C177 0.980 . S
H205 C177 0.983 . S
H206 C150 0.947 . S
C207 C150 1.392 . S
C207 C151 1.419 . S
C207 H189 0.948 . S
C208 C209 1.391 . S
C208 C212 1.391 . S
C208 H250 0.948 . S
C209 C208 1.391 . S
C209 C210 1.391 . S
C210 C209 1.391 . S
C210 H266 0.947 . S
C210 C267 1.392 . S
C211 C212 1.391 . S
C211 C215 1.397 . S
C211 C267 1.419 . S
C212 C208 1.391 . S
C212 C211 1.391 . S
C212 C213 1.399 . S
C213 C212 1.399 . S
C213 C216 1.396 . S
C213 C225 1.453 . S
C213 C226 1.684 . S
H214 C238 0.948 . S
C215 C211 1.397 . S
C215 C216 1.394 . S
C215 C234 1.723 . S
C216 C213 1.396 . S
C216 C215 1.394 . S
C216 C246 1.723 . S
H217 C240 0.947 . S
H218 C241 0.948 . S
H219 C247 0.982 . S
H220 C248 0.979 . S
H221 C248 0.980 . S
H222 C248 0.983 . S
H223 C247 0.979 . S
H224 C247 0.977 . S
C225 C213 1.453 . S
C225 H254 0.982 . S
C225 H255 0.979 . S
C225 H256 0.977 . S
C226 C213 1.684 . S
C226 H251 0.979 . S
C226 H252 0.980 . S
C226 H253 0.983 . S
C227 C228 1.391 . S
C227 C232 1.391 . S
C227 H257 0.948 . S
C228 C227 1.391 . S
C228 C229 1.391 . S
C229 C228 1.391 . S
C229 C230 1.392 . S
C229 H258 0.947 . S
C230 C229 1.392 . S
C230 C231 1.419 . S
C230 H259 0.948 . S
C231 C230 1.419 . S
C231 C232 1.391 . S
C231 C235 1.397 . S
C232 C227 1.391 . S
C232 C231 1.391 . S
C232 C233 1.399 . S
C233 C232 1.399 . S
C233 C234 1.396 . S
C233 C236 1.453 . S
C233 C237 1.684 . S
C234 C215 1.723 . S
C234 C233 1.396 . S
C234 C235 1.394 . S
C235 C231 1.397 . S
C235 C234 1.394 . S
C235 C245 1.723 . S
C236 C233 1.453 . S
C236 H260 0.982 . S
C236 H261 0.979 . S
C236 H262 0.977 . S
C237 C233 1.684 . S
C237 H263 0.979 . S
C237 H264 0.980 . S
C237 H265 0.983 . S
C238 H214 0.948 . S
C238 C239 1.391 . S
C238 C243 1.391 . S
C239 C238 1.391 . S
C239 C240 1.391 . S
C240 H217 0.947 . S
C240 C239 1.391 . S
C240 C241 1.392 . S
C241 H218 0.948 . S
C241 C240 1.392 . S
C241 C242 1.419 . S
C242 C241 1.419 . S
C242 C243 1.391 . S
C242 C246 1.397 . S
C243 C238 1.391 . S
C243 C242 1.391 . S
C243 C244 1.399 . S
C244 C243 1.399 . S
C244 C245 1.396 . S
C244 C247 1.453 . S
C244 C248 1.684 . S
C245 C235 1.723 . S
C245 C244 1.396 . S
C245 C246 1.394 . S
C246 C216 1.723 . S
C246 C242 1.397 . S
C246 C245 1.394 . S
C247 H219 0.982 . S
C247 H223 0.979 . S
C247 H224 0.977 . S
C247 C244 1.453 . S
C248 H220 0.979 . S
C248 H221 0.980 . S
C248 H222 0.983 . S
C248 C244 1.684 . S
H249 C267 0.948 . S
H250 C208 0.948 . S
H251 C226 0.979 . S
H252 C226 0.980 . S
H253 C226 0.983 . S
H254 C225 0.982 . S
H255 C225 0.979 . S
H256 C225 0.977 . S
H257 C227 0.948 . S
H258 C229 0.947 . S
H259 C230 0.948 . S
H260 C236 0.982 . S
H261 C236 0.979 . S
H262 C236 0.977 . S
H263 C237 0.979 . S
H264 C237 0.980 . S
H265 C237 0.983 . S
H266 C210 0.947 . S
C267 C210 1.392 . S
C267 C211 1.419 . S
C267 H249 0.948 . S
C268 C269 1.391 . S
C268 C272 1.391 . S
C268 H310 0.948 . S
C269 C268 1.391 . S
C269 C270 1.391 . S
C270 C269 1.391 . S
C270 H326 0.947 . S
C270 C327 1.392 . S
C271 C272 1.391 . S
C271 C275 1.397 . S
C271 C327 1.419 . S
C272 C268 1.391 . S
C272 C271 1.391 . S
C272 C273 1.399 . S
C273 C272 1.399 . S
C273 C276 1.396 . S
C273 C285 1.453 . S
C273 C286 1.684 . S
H274 C298 0.948 . S
C275 C271 1.397 . S
C275 C276 1.394 . S
C275 C294 1.723 . S
C276 C273 1.396 . S
C276 C275 1.394 . S
C276 C306 1.723 . S
H277 C300 0.947 . S
H278 C301 0.948 . S
H279 C307 0.982 . S
H280 C308 0.979 . S
H281 C308 0.980 . S
H282 C308 0.983 . S
H283 C307 0.979 . S
H284 C307 0.977 . S
C285 C273 1.453 . S
C285 H314 0.982 . S
C285 H315 0.979 . S
C285 H316 0.977 . S
C286 C273 1.684 . S
C286 H311 0.979 . S
C286 H312 0.980 . S
C286 H313 0.983 . S
C287 C288 1.391 . S
C287 C292 1.391 . S
C287 H317 0.948 . S
C288 C287 1.391 . S
C288 C289 1.391 . S
C289 C288 1.391 . S
C289 C290 1.392 . S
C289 H318 0.947 . S
C290 C289 1.392 . S
C290 C291 1.419 . S
C290 H319 0.948 . S
C291 C290 1.419 . S
C291 C292 1.391 . S
C291 C295 1.397 . S
C292 C287 1.391 . S
C292 C291 1.391 . S
C292 C293 1.399 . S
C293 C292 1.399 . S
C293 C294 1.396 . S
C293 C296 1.453 . S
C293 C297 1.684 . S
C294 C275 1.723 . S
C294 C293 1.396 . S
C294 C295 1.394 . S
C295 C291 1.397 . S
C295 C294 1.394 . S
C295 C305 1.723 . S
C296 C293 1.453 . S
C296 H320 0.982 . S
C296 H321 0.979 . S
C296 H322 0.977 . S
C297 C293 1.684 . S
C297 H323 0.979 . S
C297 H324 0.980 . S
C297 H325 0.983 . S
C298 H274 0.948 . S
C298 C299 1.391 . S
C298 C303 1.391 . S
C299 C298 1.391 . S
C299 C300 1.391 . S
C300 H277 0.947 . S
C300 C299 1.391 . S
C300 C301 1.392 . S
C301 H278 0.948 . S
C301 C300 1.392 . S
C301 C302 1.419 . S
C302 C301 1.419 . S
C302 C303 1.391 . S
C302 C306 1.397 . S
C303 C298 1.391 . S
C303 C302 1.391 . S
C303 C304 1.399 . S
C304 C303 1.399 . S
C304 C305 1.396 . S
C304 C307 1.453 . S
C304 C308 1.684 . S
C305 C295 1.723 . S
C305 C304 1.396 . S
C305 C306 1.394 . S
C306 C276 1.723 . S
C306 C302 1.397 . S
C306 C305 1.394 . S
C307 H279 0.982 . S
C307 H283 0.979 . S
C307 H284 0.977 . S
C307 C304 1.453 . S
C308 H280 0.979 . S
C308 H281 0.980 . S
C308 H282 0.983 . S
C308 C304 1.684 . S
H309 C327 0.948 . S
H310 C268 0.948 . S
H311 C286 0.979 . S
H312 C286 0.980 . S
H313 C286 0.983 . S
H314 C285 0.982 . S
H315 C285 0.979 . S
H316 C285 0.977 . S
H317 C287 0.948 . S
H318 C289 0.947 . S
H319 C290 0.948 . S
H320 C296 0.982 . S
H321 C296 0.979 . S
H322 C296 0.977 . S
H323 C297 0.979 . S
H324 C297 0.980 . S
H325 C297 0.983 . S
H326 C270 0.947 . S
C327 C270 1.392 . S
C327 C271 1.419 . S
C327 H309 0.948 . S
C328 C329 1.391 . S
C328 C332 1.391 . S
C328 H370 0.948 . S
C329 C328 1.391 . S
C329 C330 1.391 . S
C330 C329 1.391 . S
C330 H386 0.947 . S
C330 C387 1.392 . S
C331 C332 1.391 . S
C331 C335 1.397 . S
C331 C387 1.419 . S
C332 C328 1.391 . S
C332 C331 1.391 . S
C332 C333 1.399 . S
C333 C332 1.399 . S
C333 C336 1.396 . S
C333 C345 1.453 . S
C333 C346 1.684 . S
H334 C358 0.948 . S
C335 C331 1.397 . S
C335 C336 1.394 . S
C335 C354 1.723 . S
C336 C333 1.396 . S
C336 C335 1.394 . S
C336 C366 1.723 . S
H337 C360 0.947 . S
H338 C361 0.948 . S
H339 C367 0.982 . S
H340 C368 0.979 . S
H341 C368 0.980 . S
H342 C368 0.983 . S
H343 C367 0.979 . S
H344 C367 0.977 . S
C345 C333 1.453 . S
C345 H374 0.982 . S
C345 H375 0.979 . S
C345 H376 0.977 . S
C346 C333 1.684 . S
C346 H371 0.979 . S
C346 H372 0.980 . S
C346 H373 0.983 . S
C347 C348 1.391 . S
C347 C352 1.391 . S
C347 H377 0.948 . S
C348 C347 1.391 . S
C348 C349 1.391 . S
C349 C348 1.391 . S
C349 C350 1.392 . S
C349 H378 0.947 . S
C350 C349 1.392 . S
C350 C351 1.419 . S
C350 H379 0.948 . S
C351 C350 1.419 . S
C351 C352 1.391 . S
C351 C355 1.397 . S
C352 C347 1.391 . S
C352 C351 1.391 . S
C352 C353 1.399 . S
C353 C352 1.399 . S
C353 C354 1.396 . S
C353 C356 1.453 . S
C353 C357 1.684 . S
C354 C335 1.723 . S
C354 C353 1.396 . S
C354 C355 1.394 . S
C355 C351 1.397 . S
C355 C354 1.394 . S
C355 C365 1.723 . S
C356 C353 1.453 . S
C356 H380 0.982 . S
C356 H381 0.979 . S
C356 H382 0.977 . S
C357 C353 1.684 . S
C357 H383 0.979 . S
C357 H384 0.980 . S
C357 H385 0.983 . S
C358 H334 0.948 . S
C358 C359 1.391 . S
C358 C363 1.391 . S
C359 C358 1.391 . S
C359 C360 1.391 . S
C360 H337 0.947 . S
C360 C359 1.391 . S
C360 C361 1.392 . S
C361 H338 0.948 . S
C361 C360 1.392 . S
C361 C362 1.419 . S
C362 C361 1.419 . S
C362 C363 1.391 . S
C362 C366 1.397 . S
C363 C358 1.391 . S
C363 C362 1.391 . S
C363 C364 1.399 . S
C364 C363 1.399 . S
C364 C365 1.396 . S
C364 C367 1.453 . S
C364 C368 1.684 . S
C365 C355 1.723 . S
C365 C364 1.396 . S
C365 C366 1.394 . S
C366 C336 1.723 . S
C366 C362 1.397 . S
C366 C365 1.394 . S
C367 H339 0.982 . S
C367 H343 0.979 . S
C367 H344 0.977 . S
C367 C364 1.453 . S
C368 H340 0.979 . S
C368 H341 0.980 . S
C368 H342 0.983 . S
C368 C364 1.684 . S
H369 C387 0.948 . S
H370 C328 0.948 . S
H371 C346 0.979 . S
H372 C346 0.980 . S
H373 C346 0.983 . S
H374 C345 0.982 . S
H375 C345 0.979 . S
H376 C345 0.977 . S
H377 C347 0.948 . S
H378 C349 0.947 . S
H379 C350 0.948 . S
H380 C356 0.982 . S
H381 C356 0.979 . S
H382 C356 0.977 . S
H383 C357 0.979 . S
H384 C357 0.980 . S
H385 C357 0.983 . S
H386 C330 0.947 . S
C387 C330 1.392 . S
C387 C331 1.419 . S
C387 H369 0.948 . S
C388 C389 1.391 . S
C388 C392 1.391 . S
C388 H430 0.948 . S
C389 C388 1.391 . S
C389 C390 1.391 . S
C390 C389 1.391 . S
C390 H446 0.947 . S
C390 C447 1.392 . S
C391 C392 1.391 . S
C391 C395 1.397 . S
C391 C447 1.419 . S
C392 C388 1.391 . S
C392 C391 1.391 . S
C392 C393 1.399 . S
C393 C392 1.399 . S
C393 C396 1.396 . S
C393 C405 1.453 . S
C393 C406 1.684 . S
H394 C418 0.948 . S
C395 C391 1.397 . S
C395 C396 1.394 . S
C395 C414 1.723 . S
C396 C393 1.396 . S
C396 C395 1.394 . S
C396 C426 1.723 . S
H397 C420 0.947 . S
H398 C421 0.948 . S
H399 C427 0.982 . S
H400 C428 0.979 . S
H401 C428 0.980 . S
H402 C428 0.983 . S
H403 C427 0.979 . S
H404 C427 0.977 . S
C405 C393 1.453 . S
C405 H434 0.982 . S
C405 H435 0.979 . S
C405 H436 0.977 . S
C406 C393 1.684 . S
C406 H431 0.979 . S
C406 H432 0.980 . S
C406 H433 0.983 . S
C407 C408 1.391 . S
C407 C412 1.391 . S
C407 H437 0.948 . S
C408 C407 1.391 . S
C408 C409 1.391 . S
C409 C408 1.391 . S
C409 C410 1.392 . S
C409 H438 0.947 . S
C410 C409 1.392 . S
C410 C411 1.419 . S
C410 H439 0.948 . S
C411 C410 1.419 . S
C411 C412 1.391 . S
C411 C415 1.397 . S
C412 C407 1.391 . S
C412 C411 1.391 . S
C412 C413 1.399 . S
C413 C412 1.399 . S
C413 C414 1.396 . S
C413 C416 1.453 . S
C413 C417 1.684 . S
C414 C395 1.723 . S
C414 C413 1.396 . S
C414 C415 1.394 . S
C415 C411 1.397 . S
C415 C414 1.394 . S
C415 C425 1.723 . S
C416 C413 1.453 . S
C416 H440 0.982 . S
C416 H441 0.979 . S
C416 H442 0.977 . S
C417 C413 1.684 . S
C417 H443 0.979 . S
C417 H444 0.980 . S
C417 H445 0.983 . S
C418 H394 0.948 . S
C418 C419 1.391 . S
C418 C423 1.391 . S
C419 C418 1.391 . S
C419 C420 1.391 . S
C420 H397 0.947 . S
C420 C419 1.391 . S
C420 C421 1.392 . S
C421 H398 0.948 . S
C421 C420 1.392 . S
C421 C422 1.419 . S
C422 C421 1.419 . S
C422 C423 1.391 . S
C422 C426 1.397 . S
C423 C418 1.391 . S
C423 C422 1.391 . S
C423 C424 1.399 . S
C424 C423 1.399 . S
C424 C425 1.396 . S
C424 C427 1.453 . S
C424 C428 1.684 . S
C425 C415 1.723 . S
C425 C424 1.396 . S
C425 C426 1.394 . S
C426 C396 1.723 . S
C426 C422 1.397 . S
C426 C425 1.394 . S
C427 H399 0.982 . S
C427 H403 0.979 . S
C427 H404 0.977 . S
C427 C424 1.453 . S
C428 H400 0.979 . S
C428 H401 0.980 . S
C428 H402 0.983 . S
C428 C424 1.684 . S
H429 C447 0.948 . S
H430 C388 0.948 . S
H431 C406 0.979 . S
H432 C406 0.980 . S
H433 C406 0.983 . S
H434 C405 0.982 . S
H435 C405 0.979 . S
H436 C405 0.977 . S
H437 C407 0.948 . S
H438 C409 0.947 . S
H439 C410 0.948 . S
H440 C416 0.982 . S
H441 C416 0.979 . S
H442 C416 0.977 . S
H443 C417 0.979 . S
H444 C417 0.980 . S
H445 C417 0.983 . S
H446 C390 0.947 . S
C447 C390 1.392 . S
C447 C391 1.419 . S
C447 H429 0.948 . S
C448 C449 1.391 . S
C448 C452 1.391 . S
C448 H490 0.948 . S
C449 C448 1.391 . S
C449 C450 1.391 . S
C450 C449 1.391 . S
C450 H506 0.947 . S
C450 C507 1.392 . S
C451 C452 1.391 . S
C451 C455 1.397 . S
C451 C507 1.419 . S
C452 C448 1.391 . S
C452 C451 1.391 . S
C452 C453 1.399 . S
C453 C452 1.399 . S
C453 C456 1.396 . S
C453 C465 1.453 . S
C453 C466 1.684 . S
H454 C478 0.948 . S
C455 C451 1.397 . S
C455 C456 1.394 . S
C455 C474 1.723 . S
C456 C453 1.396 . S
C456 C455 1.394 . S
C456 C486 1.723 . S
H457 C480 0.947 . S
H458 C481 0.948 . S
H459 C487 0.982 . S
H460 C488 0.979 . S
H461 C488 0.980 . S
H462 C488 0.983 . S
H463 C487 0.979 . S
H464 C487 0.977 . S
C465 C453 1.453 . S
C465 H494 0.982 . S
C465 H495 0.979 . S
C465 H496 0.977 . S
C466 C453 1.684 . S
C466 H491 0.979 . S
C466 H492 0.980 . S
C466 H493 0.983 . S
C467 C468 1.391 . S
C467 C472 1.391 . S
C467 H497 0.948 . S
C468 C467 1.391 . S
C468 C469 1.391 . S
C469 C468 1.391 . S
C469 C470 1.392 . S
C469 H498 0.947 . S
C470 C469 1.392 . S
C470 C471 1.419 . S
C470 H499 0.948 . S
C471 C470 1.419 . S
C471 C472 1.391 . S
C471 C475 1.397 . S
C472 C467 1.391 . S
C472 C471 1.391 . S
C472 C473 1.399 . S
C473 C472 1.399 . S
C473 C474 1.396 . S
C473 C476 1.453 . S
C473 C477 1.684 . S
C474 C455 1.723 . S
C474 C473 1.396 . S
C474 C475 1.394 . S
C475 C471 1.397 . S
C475 C474 1.394 . S
C475 C485 1.723 . S
C476 C473 1.453 . S
C476 H500 0.982 . S
C476 H501 0.979 . S
C476 H502 0.977 . S
C477 C473 1.684 . S
C477 H503 0.979 . S
C477 H504 0.980 . S
C477 H505 0.983 . S
C478 H454 0.948 . S
C478 C479 1.391 . S
C478 C483 1.391 . S
C479 C478 1.391 . S
C479 C480 1.391 . S
C480 H457 0.947 . S
C480 C479 1.391 . S
C480 C481 1.392 . S
C481 H458 0.948 . S
C481 C480 1.392 . S
C481 C482 1.419 . S
C482 C481 1.419 . S
C482 C483 1.391 . S
C482 C486 1.397 . S
C483 C478 1.391 . S
C483 C482 1.391 . S
C483 C484 1.399 . S
C484 C483 1.399 . S
C484 C485 1.396 . S
C484 C487 1.453 . S
C484 C488 1.684 . S
C485 C475 1.723 . S
C485 C484 1.396 . S
C485 C486 1.394 . S
C486 C456 1.723 . S
C486 C482 1.397 . S
C486 C485 1.394 . S
C487 H459 0.982 . S
C487 H463 0.979 . S
C487 H464 0.977 . S
C487 C484 1.453 . S
C488 H460 0.979 . S
C488 H461 0.980 . S
C488 H462 0.983 . S
C488 C484 1.684 . S
H489 C507 0.948 . S
H490 C448 0.948 . S
H491 C466 0.979 . S
H492 C466 0.980 . S
H493 C466 0.983 . S
H494 C465 0.982 . S
H495 C465 0.979 . S
H496 C465 0.977 . S
H497 C467 0.948 . S
H498 C469 0.947 . S
H499 C470 0.948 . S
H500 C476 0.982 . S
H501 C476 0.979 . S
H502 C476 0.977 . S
H503 C477 0.979 . S
H504 C477 0.980 . S
H505 C477 0.983 . S
H506 C450 0.947 . S
C507 C450 1.392 . S
C507 C451 1.419 . S
C507 H489 0.948 . S
C508 C509 1.391 . S
C508 C512 1.391 . S
C508 H550 0.948 . S
C509 C508 1.391 . S
C509 C510 1.391 . S
C510 C509 1.391 . S
C510 H566 0.947 . S
C510 C567 1.392 . S
C511 C512 1.391 . S
C511 C515 1.397 . S
C511 C567 1.419 . S
C512 C508 1.391 . S
C512 C511 1.391 . S
C512 C513 1.399 . S
C513 C512 1.399 . S
C513 C516 1.396 . S
C513 C525 1.453 . S
C513 C526 1.684 . S
H514 C538 0.948 . S
C515 C511 1.397 . S
C515 C516 1.394 . S
C515 C534 1.723 . S
C516 C513 1.396 . S
C516 C515 1.394 . S
C516 C546 1.723 . S
H517 C540 0.947 . S
H518 C541 0.948 . S
H519 C547 0.982 . S
H520 C548 0.979 . S
H521 C548 0.980 . S
H522 C548 0.983 . S
H523 C547 0.979 . S
H524 C547 0.977 . S
C525 C513 1.453 . S
C525 H554 0.982 . S
C525 H555 0.979 . S
C525 H556 0.977 . S
C526 C513 1.684 . S
C526 H551 0.979 . S
C526 H552 0.980 . S
C526 H553 0.983 . S
C527 C528 1.391 . S
C527 C532 1.391 . S
C527 H557 0.948 . S
C528 C527 1.391 . S
C528 C529 1.391 . S
C529 C528 1.391 . S
C529 C530 1.392 . S
C529 H558 0.947 . S
C530 C529 1.392 . S
C530 C531 1.419 . S
C530 H559 0.948 . S
C531 C530 1.419 . S
C531 C532 1.391 . S
C531 C535 1.397 . S
C532 C527 1.391 . S
C532 C531 1.391 . S
C532 C533 1.399 . S
C533 C532 1.399 . S
C533 C534 1.396 . S
C533 C536 1.453 . S
C533 C537 1.684 . S
C534 C515 1.723 . S
C534 C533 1.396 . S
C534 C535 1.394 . S
C535 C531 1.397 . S
C535 C534 1.394 . S
C535 C545 1.723 . S
C536 C533 1.453 . S
C536 H560 0.982 . S
C536 H561 0.979 . S
C536 H562 0.977 . S
C537 C533 1.684 . S
C537 H563 0.979 . S
C537 H564 0.980 . S
C537 H565 0.983 . S
C538 H514 0.948 . S
C538 C539 1.391 . S
C538 C543 1.391 . S
C539 C538 1.391 . S
C539 C540 1.391 . S
C540 H517 0.947 . S
C540 C539 1.391 . S
C540 C541 1.392 . S
C541 H518 0.948 . S
C541 C540 1.392 . S
C541 C542 1.419 . S
C542 C541 1.419 . S
C542 C543 1.391 . S
C542 C546 1.397 . S
C543 C538 1.391 . S
C543 C542 1.391 . S
C543 C544 1.399 . S
C544 C543 1.399 . S
C544 C545 1.396 . S
C544 C547 1.453 . S
C544 C548 1.684 . S
C545 C535 1.723 . S
C545 C544 1.396 . S
C545 C546 1.394 . S
C546 C516 1.723 . S
C546 C542 1.397 . S
C546 C545 1.394 . S
C547 H519 0.982 . S
C547 H523 0.979 . S
C547 H524 0.977 . S
C547 C544 1.453 . S
C548 H520 0.979 . S
C548 H521 0.980 . S
C548 H522 0.983 . S
C548 C544 1.684 . S
H549 C567 0.948 . S
H550 C508 0.948 . S
H551 C526 0.979 . S
H552 C526 0.980 . S
H553 C526 0.983 . S
H554 C525 0.982 . S
H555 C525 0.979 . S
H556 C525 0.977 . S
H557 C527 0.948 . S
H558 C529 0.947 . S
H559 C530 0.948 . S
H560 C536 0.982 . S
H561 C536 0.979 . S
H562 C536 0.977 . S
H563 C537 0.979 . S
H564 C537 0.980 . S
H565 C537 0.983 . S
H566 C510 0.947 . S
C567 C510 1.392 . S
C567 C511 1.419 . S
C567 H549 0.948 . S
H568 C586 0.951 . S
H569 C588 0.951 . S
H570 C590 0.950 . S
H571 C591 0.950 . S
H572 C593 0.950 . S
H573 C596 0.950 . S
H574 C597 0.950 . S
H575 C599 0.950 1_545 S
H576 C600 0.950 . S
H577 C601 0.951 . S
H578 C603 0.951 1_565 S
H579 C605 0.950 . S
H580 C606 0.950 . S
H581 C608 0.950 1_545 S
H582 C611 0.950 . S
H583 C612 0.950 . S
H584 C614 0.950 . S
H585 C615 0.950 . S
C586 H568 0.951 . S
C586 C587 1.366 . S
C586 C588 1.388 . S
C587 C586 1.366 . S
C587 C591 1.385 . S
C588 H569 0.951 . S
C588 C586 1.388 . S
C588 C589 1.366 . S
C589 C588 1.366 . S
C589 C590 1.414 . S
C589 C592 1.499 . S
C590 H570 0.950 . S
C590 C589 1.414 . S
C590 C591 1.374 . S
C591 H571 0.950 . S
C591 C587 1.385 . S
C591 C590 1.374 . S
C592 C589 1.499 . S
C592 C593 1.373 . S
C592 C594 1.389 . S
C593 H572 0.950 . S
C593 C592 1.373 . S
C593 C609 1.377 . S
C594 C592 1.389 . S
C594 C595 1.524 . S
C594 C608 1.377 . S
C595 C594 1.524 . S
C595 C596 1.397 . S
C595 C600 1.363 . S
C596 H573 0.950 . S
C596 C595 1.397 . S
C596 C597 1.334 . S
C597 H574 0.950 . S
C597 C596 1.334 . S
C597 C598 1.287 . S
C598 C597 1.287 . S
C598 C599 1.524 . S
C598 H617 0.913 . S
C599 H575 0.950 1_565 S
C599 C598 1.524 . S
C599 C600 1.415 . S
C600 H576 0.950 . S
C600 C595 1.363 . S
C600 C599 1.415 . S
C601 H577 0.951 . S
C601 C602 1.366 . S
C601 C603 1.388 . S
C602 C601 1.366 . S
C602 C606 1.385 . S
C603 H578 0.951 1_545 S
C603 C601 1.388 . S
C603 C604 1.366 . S
C604 C603 1.366 . S
C604 C605 1.414 . S
C604 C607 1.499 1_545 S
C605 H579 0.950 . S
C605 C604 1.414 . S
C605 C606 1.374 . S
C606 H580 0.950 . S
C606 C602 1.385 . S
C606 C605 1.374 . S
C607 C604 1.499 1_565 S
C607 C608 1.373 . S
C607 C609 1.389 . S
C608 H581 0.950 1_565 S
C608 C594 1.377 . S
C608 C607 1.373 . S
C609 C593 1.377 . S
C609 C607 1.389 . S
C609 C610 1.524 . S
C610 C609 1.524 . S
C610 C611 1.397 . S
C610 C615 1.363 . S
C611 H582 0.950 . S
C611 C610 1.397 . S
C611 C612 1.334 . S
C612 H583 0.950 . S
C612 C611 1.334 . S
C612 C613 1.287 . S
C613 C612 1.287 . S
C613 C614 1.524 . S
C613 H616 0.999 . S
C614 H584 0.950 . S
C614 C613 1.524 . S
C614 C615 1.415 . S
C615 H585 0.950 . S
C615 C610 1.363 . S
C615 C614 1.415 . S
H616 C613 0.999 . S
H617 C598 0.913 . S
H618 C636 0.951 . S
H619 C638 0.951 . S
H620 C640 0.950 . S
H621 C641 0.950 . S
H622 C643 0.950 . S
H623 C646 0.950 . S
H624 C647 0.950 . S
H625 C649 0.950 . S
H626 C650 0.950 . S
H627 C651 0.951 . S
H628 C653 0.951 . S
H629 C655 0.950 . S
H630 C656 0.950 . S
H631 C658 0.950 . S
H632 C661 0.950 . S
H633 C662 0.950 . S
H634 C664 0.950 . S
H635 C665 0.950 . S
C636 H618 0.951 . S
C636 C637 1.366 . S
C636 C638 1.388 . S
C637 C636 1.366 . S
C637 C641 1.385 . S
C638 H619 0.951 . S
C638 C636 1.388 . S
C638 C639 1.366 . S
C639 C638 1.366 . S
C639 C640 1.414 . S
C639 C642 1.499 . S
C640 H620 0.950 . S
C640 C639 1.414 . S
C640 C641 1.374 . S
C641 H621 0.950 . S
C641 C637 1.385 . S
C641 C640 1.374 . S
C642 C639 1.499 . S
C642 C643 1.373 . S
C642 C644 1.389 . S
C643 H622 0.950 . S
C643 C642 1.373 . S
C643 C659 1.377 . S
C644 C642 1.389 . S
C644 C645 1.524 . S
C644 C658 1.377 . S
C645 C644 1.524 . S
C645 C646 1.397 . S
C645 C650 1.363 . S
C646 H623 0.950 . S
C646 C645 1.397 . S
C646 C647 1.334 . S
C647 H624 0.950 . S
C647 C646 1.334 . S
C647 C648 1.287 . S
C648 C647 1.287 . S
C648 C649 1.524 . S
C648 H667 0.913 . S
C649 H625 0.950 . S
C649 C648 1.524 . S
C649 C650 1.415 . S
C650 H626 0.950 . S
C650 C645 1.363 . S
C650 C649 1.415 . S
C651 H627 0.951 . S
C651 C652 1.366 . S
C651 C653 1.388 . S
C652 C651 1.366 . S
C652 C656 1.385 . S
C653 H628 0.951 . S
C653 C651 1.388 . S
C653 C654 1.366 . S
C654 C653 1.366 . S
C654 C655 1.414 . S
C654 C657 1.499 . S
C655 H629 0.950 . S
C655 C654 1.414 . S
C655 C656 1.374 . S
C656 H630 0.950 . S
C656 C652 1.385 . S
C656 C655 1.374 . S
C657 C654 1.499 . S
C657 C658 1.373 . S
C657 C659 1.389 . S
C658 H631 0.950 . S
C658 C644 1.377 . S
C658 C657 1.373 . S
C659 C643 1.377 . S
C659 C657 1.389 . S
C659 C660 1.524 . S
C660 C659 1.524 . S
C660 C661 1.397 . S
C660 C665 1.363 . S
C661 H632 0.950 . S
C661 C660 1.397 . S
C661 C662 1.334 . S
C662 H633 0.950 . S
C662 C661 1.334 . S
C662 C663 1.287 . S
C663 C662 1.287 . S
C663 C664 1.524 . S
C663 H666 0.999 . S
C664 H634 0.950 . S
C664 C663 1.524 . S
C664 C665 1.415 . S
C665 H635 0.950 . S
C665 C660 1.363 . S
C665 C664 1.415 . S
H666 C663 0.999 . S
H667 C648 0.913 . S
H668 C686 0.951 . S
H669 C688 0.951 . S
H670 C690 0.950 . S
H671 C691 0.950 . S
H672 C693 0.950 . S
H673 C696 0.950 . S
H674 C697 0.950 . S
H675 C699 0.950 . S
H676 C700 0.950 . S
H677 C701 0.951 . S
H678 C703 0.951 . S
H679 C705 0.940 1_545 S
H680 C706 0.950 . S
H681 C708 0.950 . S
H682 C711 0.950 . S
H683 C712 0.950 . S
H684 C714 0.950 . S
H685 C715 0.950 . S
C686 H668 0.951 . S
C686 C687 1.366 . S
C686 C688 1.388 . S
C687 C686 1.366 . S
C687 C691 1.385 . S
C688 H669 0.951 . S
C688 C686 1.388 . S
C688 C689 1.366 . S
C689 C688 1.366 . S
C689 C690 1.414 . S
C689 C692 1.499 . S
C690 H670 0.950 . S
C690 C689 1.414 . S
C690 C691 1.374 . S
C691 H671 0.950 . S
C691 C687 1.385 . S
C691 C690 1.374 . S
C692 C689 1.499 . S
C692 C693 1.373 . S
C692 C694 1.389 . S
C693 H672 0.950 . S
C693 C692 1.373 . S
C693 C709 1.377 . S
C694 C692 1.389 . S
C694 C695 1.524 . S
C694 C708 1.377 . S
C695 C694 1.524 . S
C695 C696 1.397 . S
C695 C700 1.363 . S
C696 H673 0.950 . S
C696 C695 1.397 . S
C696 C697 1.334 . S
C697 H674 0.950 . S
C697 C696 1.334 . S
C697 C698 1.287 . S
C698 C697 1.287 . S
C698 C699 1.524 . S
C698 H717 0.913 . S
C699 H675 0.950 . S
C699 C698 1.524 . S
C699 C700 1.415 . S
C700 H676 0.950 . S
C700 C695 1.363 . S
C700 C699 1.415 . S
C701 H677 0.951 . S
C701 C702 1.366 . S
C701 C703 1.388 . S
C702 C701 1.366 . S
C702 C706 1.385 . S
C703 H678 0.951 . S
C703 C701 1.388 . S
C703 C704 1.366 . S
C704 C703 1.366 . S
C704 C705 1.414 . S
C704 C707 1.499 1_565 S
C705 H679 0.940 1_565 S
C705 C704 1.414 . S
C705 C706 1.374 . S
C706 H680 0.950 . S
C706 C702 1.385 . S
C706 C705 1.374 . S
C707 C704 1.499 1_545 S
C707 C708 1.373 . S
C707 C709 1.389 . S
C708 H681 0.950 . S
C708 C694 1.377 . S
C708 C707 1.373 . S
C709 C693 1.377 . S
C709 C707 1.389 . S
C709 C710 1.524 1_545 S
C710 C709 1.524 1_565 S
C710 C711 1.397 . S
C710 C715 1.363 . S
C711 H682 0.950 . S
C711 C710 1.397 . S
C711 C712 1.334 . S
C712 H683 0.950 . S
C712 C711 1.334 . S
C712 C713 1.287 . S
C713 C712 1.287 . S
C713 C714 1.524 . S
C713 H716 0.999 . S
C714 H684 0.950 . S
C714 C713 1.524 . S
C714 C715 1.415 . S
C715 H685 0.950 . S
C715 C710 1.363 . S
C715 C714 1.415 . S
H716 C713 0.999 . S
H717 C698 0.913 . S
H718 C736 0.951 . S
H719 C738 0.951 . S
H720 C740 0.950 . S
H721 C741 0.950 . S
H722 C743 0.950 . S
H723 C746 0.950 . S
H724 C747 0.950 . S
H725 C749 0.950 . S
H726 C750 0.950 . S
H727 C751 0.951 . S
H728 C753 0.951 . S
H729 C755 0.950 . S
H730 C756 0.950 . S
H731 C758 0.950 . S
H732 C761 0.950 . S
H733 C762 0.950 . S
H734 C764 0.950 . S
H735 C765 0.950 . S
C736 H718 0.951 . S
C736 C737 1.366 . S
C736 C738 1.388 . S
C737 C736 1.366 . S
C737 C741 1.385 . S
C738 H719 0.951 . S
C738 C736 1.388 . S
C738 C739 1.366 . S
C739 C738 1.366 . S
C739 C740 1.414 . S
C739 C742 1.499 . S
C740 H720 0.950 . S
C740 C739 1.414 . S
C740 C741 1.374 . S
C741 H721 0.950 . S
C741 C737 1.385 . S
C741 C740 1.374 . S
C742 C739 1.499 . S
C742 C743 1.373 . S
C742 C744 1.389 . S
C743 H722 0.950 . S
C743 C742 1.373 . S
C743 C759 1.377 . S
C744 C742 1.389 . S
C744 C745 1.524 . S
C744 C758 1.377 . S
C745 C744 1.524 . S
C745 C746 1.397 . S
C745 C750 1.363 . S
C746 H723 0.950 . S
C746 C745 1.397 . S
C746 C747 1.334 . S
C747 H724 0.950 . S
C747 C746 1.334 . S
C747 C748 1.287 . S
C748 C747 1.287 . S
C748 C749 1.524 . S
C748 H767 0.913 . S
C749 H725 0.950 . S
C749 C748 1.524 . S
C749 C750 1.415 . S
C750 H726 0.950 . S
C750 C745 1.363 . S
C750 C749 1.415 . S
C751 H727 0.951 . S
C751 C752 1.366 . S
C751 C753 1.388 . S
C752 C751 1.366 . S
C752 C756 1.385 . S
C753 H728 0.951 . S
C753 C751 1.388 . S
C753 C754 1.366 . S
C754 C753 1.366 . S
C754 C755 1.414 . S
C754 C757 1.499 . S
C755 H729 0.950 . S
C755 C754 1.414 . S
C755 C756 1.374 . S
C756 H730 0.950 . S
C756 C752 1.385 . S
C756 C755 1.374 . S
C757 C754 1.499 . S
C757 C758 1.373 . S
C757 C759 1.389 . S
C758 H731 0.950 . S
C758 C744 1.377 . S
C758 C757 1.373 . S
C759 C743 1.377 . S
C759 C757 1.389 . S
C759 C760 1.524 . S
C760 C759 1.524 . S
C760 C761 1.397 . S
C760 C765 1.363 . S
C761 H732 0.950 . S
C761 C760 1.397 . S
C761 C762 1.334 . S
C762 H733 0.950 . S
C762 C761 1.334 . S
C762 C763 1.287 . S
C763 C762 1.287 . S
C763 C764 1.524 . S
C763 H766 0.999 . S
C764 H734 0.950 . S
C764 C763 1.524 . S
C764 C765 1.415 . S
C765 H735 0.950 . S
C765 C760 1.363 . S
C765 C764 1.415 . S
H766 C763 0.999 . S
H767 C748 0.913 . S
H768 C786 0.951 . S
H769 C788 0.951 . S
H770 C790 0.950 . S
H771 C791 0.950 . S
H772 C793 0.950 . S
H773 C796 0.950 . S
H774 C797 0.950 . S
H775 C799 0.950 . S
H776 C800 0.950 . S
H777 C801 0.951 . S
H778 C803 0.951 . S
H779 C805 0.950 . S
H780 C806 0.950 . S
H781 C808 0.950 . S
H782 C811 0.950 . S
H783 C812 0.950 . S
H784 C814 0.950 . S
H785 C815 0.950 . S
C786 H768 0.951 . S
C786 C787 1.366 . S
C786 C788 1.388 . S
C787 C786 1.366 . S
C787 C791 1.385 . S
C788 H769 0.951 . S
C788 C786 1.388 . S
C788 C789 1.366 . S
C789 C788 1.366 . S
C789 C790 1.414 . S
C789 C792 1.499 . S
C790 H770 0.950 . S
C790 C789 1.414 . S
C790 C791 1.374 . S
C791 H771 0.950 . S
C791 C787 1.385 . S
C791 C790 1.374 . S
C792 C789 1.499 . S
C792 C793 1.373 . S
C792 C794 1.389 . S
C793 H772 0.950 . S
C793 C792 1.373 . S
C793 C809 1.377 . S
C794 C792 1.389 . S
C794 C795 1.524 . S
C794 C808 1.377 . S
C795 C794 1.524 . S
C795 C796 1.397 . S
C795 C800 1.363 . S
C796 H773 0.950 . S
C796 C795 1.397 . S
C796 C797 1.334 . S
C797 H774 0.950 . S
C797 C796 1.334 . S
C797 C798 1.287 . S
C798 C797 1.287 . S
C798 C799 1.524 . S
C798 H817 0.913 . S
C799 H775 0.950 . S
C799 C798 1.524 . S
C799 C800 1.415 . S
C800 H776 0.950 . S
C800 C795 1.363 . S
C800 C799 1.415 . S
C801 H777 0.951 . S
C801 C802 1.366 . S
C801 C803 1.388 . S
C802 C801 1.366 . S
C802 C806 1.385 . S
C803 H778 0.951 . S
C803 C801 1.388 . S
C803 C804 1.366 . S
C804 C803 1.366 . S
C804 C805 1.414 . S
C804 C807 1.499 . S
C805 H779 0.950 . S
C805 C804 1.414 . S
C805 C806 1.374 . S
C806 H780 0.950 . S
C806 C802 1.385 . S
C806 C805 1.374 . S
C807 C804 1.499 . S
C807 C808 1.373 . S
C807 C809 1.389 . S
C808 H781 0.950 . S
C808 C794 1.377 . S
C808 C807 1.373 . S
C809 C793 1.377 . S
C809 C807 1.389 . S
C809 C810 1.524 . S
C810 C809 1.524 . S
C810 C811 1.397 . S
C810 C815 1.363 . S
C811 H782 0.950 . S
C811 C810 1.397 . S
C811 C812 1.334 . S
C812 H783 0.950 . S
C812 C811 1.334 . S
C812 C813 1.287 . S
C813 C812 1.287 . S
C813 C814 1.524 . S
C813 H816 0.999 . S
C814 H784 0.950 . S
C814 C813 1.524 . S
C814 C815 1.415 . S
C815 H785 0.950 . S
C815 C810 1.363 . S
C815 C814 1.415 . S
H816 C813 0.999 . S
H817 C798 0.913 . S
H818 C836 0.951 . S
H819 C838 0.951 . S
H820 C840 0.950 . S
H821 C841 0.950 . S
H822 C843 0.950 . S
H823 C846 0.950 . S
H824 C847 0.950 . S
H825 C849 0.950 . S
H826 C850 0.950 . S
H827 C851 0.951 . S
H828 C853 0.951 . S
H829 C855 0.950 1_655 S
H830 C856 0.950 . S
H831 C858 0.950 . S
H832 C861 0.950 . S
H833 C862 0.950 . S
H834 C864 0.950 . S
H835 C865 0.950 . S
C836 H818 0.951 . S
C836 C837 1.366 . S
C836 C838 1.388 . S
C837 C836 1.366 . S
C837 C841 1.385 . S
C838 H819 0.951 . S
C838 C836 1.388 . S
C838 C839 1.366 . S
C839 C838 1.366 . S
C839 C840 1.414 . S
C839 C842 1.499 . S
C840 H820 0.950 . S
C840 C839 1.414 . S
C840 C841 1.374 . S
C841 H821 0.950 . S
C841 C837 1.385 . S
C841 C840 1.374 . S
C842 C839 1.499 . S
C842 C843 1.373 . S
C842 C844 1.389 . S
C843 H822 0.950 . S
C843 C842 1.373 . S
C843 C859 1.377 . S
C844 C842 1.389 . S
C844 C845 1.524 . S
C844 C858 1.377 . S
C845 C844 1.524 . S
C845 C846 1.397 . S
C845 C850 1.363 . S
C846 H823 0.950 . S
C846 C845 1.397 . S
C846 C847 1.334 . S
C847 H824 0.950 . S
C847 C846 1.334 . S
C847 C848 1.287 . S
C848 C847 1.287 . S
C848 C849 1.524 . S
C848 H867 0.913 . S
C849 H825 0.950 . S
C849 C848 1.524 . S
C849 C850 1.415 . S
C850 H826 0.950 . S
C850 C845 1.363 . S
C850 C849 1.415 . S
C851 H827 0.951 . S
C851 C852 1.366 . S
C851 C853 1.388 . S
C852 C851 1.366 . S
C852 C856 1.385 . S
C853 H828 0.951 . S
C853 C851 1.388 . S
C853 C854 1.366 . S
C854 C853 1.366 . S
C854 C855 1.414 . S
C854 C857 1.499 1_455 S
C855 H829 0.950 1_455 S
C855 C854 1.414 . S
C855 C856 1.374 . S
C856 H830 0.950 . S
C856 C852 1.385 . S
C856 C855 1.374 . S
C857 C854 1.499 1_655 S
C857 C858 1.373 . S
C857 C859 1.389 . S
C858 H831 0.950 . S
C858 C844 1.377 . S
C858 C857 1.373 . S
C859 C843 1.377 . S
C859 C857 1.389 . S
C859 C860 1.524 1_655 S
C860 C859 1.524 1_455 S
C860 C861 1.397 . S
C860 C865 1.363 . S
C861 H832 0.950 . S
C861 C860 1.397 . S
C861 C862 1.334 . S
C862 H833 0.950 . S
C862 C861 1.334 . S
C862 C863 1.287 . S
C863 C862 1.287 . S
C863 C864 1.524 . S
C863 H866 0.999 . S
C864 H834 0.950 . S
C864 C863 1.524 . S
C864 C865 1.415 . S
C865 H835 0.950 . S
C865 C860 1.363 . S
C865 C864 1.415 . S
H866 C863 0.999 . S
H867 C848 0.913 . S
H868 C886 0.951 . S
H869 C888 0.951 . S
H870 C890 0.950 . S
H871 C891 0.950 . S
H872 C893 0.950 . S
H873 C896 0.950 . S
H874 C897 0.950 . S
H875 C899 0.950 . S
H876 C900 0.950 . S
H877 C901 0.951 . S
H878 C903 0.951 . S
H879 C905 0.950 . S
H880 C906 0.950 . S
H881 C908 0.950 . S
H882 C911 0.950 . S
H883 C912 0.950 . S
H884 C914 0.950 . S
H885 C915 0.950 . S
C886 H868 0.951 . S
C886 C887 1.366 . S
C886 C888 1.388 . S
C887 C886 1.366 . S
C887 C891 1.385 . S
C888 H869 0.951 . S
C888 C886 1.388 . S
C888 C889 1.366 . S
C889 C888 1.366 . S
C889 C890 1.414 . S
C889 C892 1.499 . S
C890 H870 0.950 . S
C890 C889 1.414 . S
C890 C891 1.374 . S
C891 H871 0.950 . S
C891 C887 1.385 . S
C891 C890 1.374 . S
C892 C889 1.499 . S
C892 C893 1.373 . S
C892 C894 1.389 . S
C893 H872 0.950 . S
C893 C892 1.373 . S
C893 C909 1.377 . S
C894 C892 1.389 . S
C894 C895 1.524 . S
C894 C908 1.377 . S
C895 C894 1.524 . S
C895 C896 1.397 . S
C895 C900 1.363 . S
C896 H873 0.950 . S
C896 C895 1.397 . S
C896 C897 1.334 . S
C897 H874 0.950 . S
C897 C896 1.334 . S
C897 C898 1.287 . S
C898 C897 1.287 . S
C898 C899 1.524 . S
C898 H917 0.913 . S
C899 H875 0.950 . S
C899 C898 1.524 . S
C899 C900 1.415 . S
C900 H876 0.950 . S
C900 C895 1.363 . S
C900 C899 1.415 . S
C901 H877 0.951 . S
C901 C902 1.366 . S
C901 C903 1.388 . S
C902 C901 1.366 . S
C902 C906 1.385 . S
C903 H878 0.951 . S
C903 C901 1.388 . S
C903 C904 1.366 . S
C904 C903 1.366 . S
C904 C905 1.414 . S
C904 C907 1.499 . S
C905 H879 0.950 . S
C905 C904 1.414 . S
C905 C906 1.374 . S
C906 H880 0.950 . S
C906 C902 1.385 . S
C906 C905 1.374 . S
C907 C904 1.499 . S
C907 C908 1.373 . S
C907 C909 1.389 . S
C908 H881 0.950 . S
C908 C894 1.377 . S
C908 C907 1.373 . S
C909 C893 1.377 . S
C909 C907 1.389 . S
C909 C910 1.524 . S
C910 C909 1.524 . S
C910 C911 1.397 . S
C910 C915 1.363 . S
C911 H882 0.950 . S
C911 C910 1.397 . S
C911 C912 1.334 . S
C912 H883 0.950 . S
C912 C911 1.334 . S
C912 C913 1.287 . S
C913 C912 1.287 . S
C913 C914 1.524 . S
C913 H916 0.999 . S
C914 H884 0.950 . S
C914 C913 1.524 . S
C914 C915 1.415 . S
C915 H885 0.950 . S
C915 C910 1.363 . S
C915 C914 1.415 . S
H916 C913 0.999 . S
H917 C898 0.913 . S
H918 C936 0.951 . S
H919 C938 0.951 . S
H920 C940 0.950 . S
H921 C941 0.950 . S
H922 C943 0.950 . S
H923 C946 0.950 . S
H924 C947 0.950 . S
H925 C949 0.950 . S
H926 C950 0.950 . S
H927 C951 0.951 . S
H928 C953 0.951 . S
H929 C955 0.950 1_455 S
H930 C956 0.950 . S
H931 C958 0.950 . S
H932 C961 0.959 . S
H933 C962 0.950 . S
H934 C964 0.950 . S
H935 C965 0.950 . S
C936 H918 0.951 . S
C936 C937 1.366 . S
C936 C938 1.388 . S
C937 C936 1.366 . S
C937 C941 1.385 . S
C938 H919 0.951 . S
C938 C936 1.388 . S
C938 C939 1.366 . S
C939 C938 1.366 . S
C939 C940 1.414 . S
C939 C942 1.499 . S
C940 H920 0.950 . S
C940 C939 1.414 . S
C940 C941 1.374 . S
C941 H921 0.950 . S
C941 C937 1.385 . S
C941 C940 1.374 . S
C942 C939 1.499 . S
C942 C943 1.373 . S
C942 C944 1.389 . S
C943 H922 0.950 . S
C943 C942 1.373 . S
C943 C959 1.377 . S
C944 C942 1.389 . S
C944 C945 1.524 . S
C944 C958 1.377 . S
C945 C944 1.524 . S
C945 C946 1.397 . S
C945 C950 1.363 . S
C946 H923 0.950 . S
C946 C945 1.397 . S
C946 C947 1.334 . S
C947 H924 0.950 . S
C947 C946 1.334 . S
C947 C948 1.287 . S
C948 C947 1.287 . S
C948 C949 1.524 . S
C948 H967 0.913 . S
C949 H925 0.950 . S
C949 C948 1.524 . S
C949 C950 1.415 . S
C950 H926 0.950 . S
C950 C945 1.363 . S
C950 C949 1.415 . S
C951 H927 0.951 . S
C951 C952 1.366 . S
C951 C953 1.388 . S
C952 C951 1.366 . S
C952 C956 1.385 . S
C953 H928 0.951 . S
C953 C951 1.388 . S
C953 C954 1.366 . S
C954 C953 1.366 . S
C954 C955 1.414 . S
C954 C957 1.499 1_655 S
C955 H929 0.950 1_655 S
C955 C954 1.414 . S
C955 C956 1.374 . S
C956 H930 0.950 . S
C956 C952 1.385 . S
C956 C955 1.374 . S
C957 C954 1.499 1_455 S
C957 C958 1.373 . S
C957 C959 1.389 . S
C958 H931 0.950 . S
C958 C944 1.377 . S
C958 C957 1.373 . S
C959 C943 1.377 . S
C959 C957 1.389 . S
C959 C960 1.524 1_455 S
C960 C959 1.524 1_655 S
C960 C961 1.397 . S
C960 C965 1.363 . S
C961 H932 0.959 . S
C961 C960 1.397 . S
C961 C962 1.334 . S
C962 H933 0.950 . S
C962 C961 1.334 . S
C962 C963 1.287 . S
C963 C962 1.287 . S
C963 C964 1.524 . S
C963 H966 0.999 . S
C964 H934 0.950 . S
C964 C963 1.524 . S
C964 C965 1.415 . S
C965 H935 0.950 . S
C965 C960 1.363 . S
C965 C964 1.415 . S
H966 C963 0.999 . S
H967 C948 0.913 . S
H968 C986 0.951 . S
H969 C988 0.951 . S
H970 C990 0.950 . S
H971 C991 0.950 . S
H972 C993 0.950 . S
H973 C996 0.950 . S
H974 C997 0.950 . S
H975 C999 0.950 1_565 S
H976 C1000 0.950 1_565 S
H977 C1001 0.951 . S
H978 C1003 0.951 1_545 S
H979 C1005 0.950 . S
H980 C1006 0.950 . S
H981 C1008 0.950 1_565 S
H982 C1011 0.950 . S
H983 C1012 0.950 . S
H984 C1014 0.950 . S
H985 C1015 0.950 . S
C986 H968 0.951 . S
C986 C987 1.366 . S
C986 C988 1.388 . S
C987 C986 1.366 . S
C987 C991 1.385 . S
C988 H969 0.951 . S
C988 C986 1.388 . S
C988 C989 1.366 . S
C989 C988 1.366 . S
C989 C990 1.414 . S
C989 C992 1.499 . S
C990 H970 0.950 . S
C990 C989 1.414 . S
C990 C991 1.374 . S
C991 H971 0.950 . S
C991 C987 1.385 . S
C991 C990 1.374 . S
C992 C989 1.499 . S
C992 C993 1.373 . S
C992 C994 1.389 . S
C993 H972 0.950 . S
C993 C992 1.373 . S
C993 C1009 1.377 . S
C994 C992 1.389 . S
C994 C995 1.524 . S
C994 C1008 1.377 . S
C995 C994 1.524 . S
C995 C996 1.397 . S
C995 C1000 1.363 . S
C996 H973 0.950 . S
C996 C995 1.397 . S
C996 C997 1.334 . S
C997 H974 0.950 . S
C997 C996 1.334 . S
C997 C998 1.287 . S
C998 C997 1.287 . S
C998 C999 1.524 . S
C998 H1017 0.913 . S
C999 H975 0.950 1_545 S
C999 C998 1.524 . S
C999 C1000 1.415 . S
C1000 H976 0.950 1_545 S
C1000 C995 1.363 . S
C1000 C999 1.415 . S
C1001 H977 0.951 . S
C1001 C1002 1.366 . S
C1001 C1003 1.388 . S
C1002 C1001 1.366 . S
C1002 C1006 1.385 . S
C1003 H978 0.951 1_565 S
C1003 C1001 1.388 . S
C1003 C1004 1.366 . S
C1004 C1003 1.366 . S
C1004 C1005 1.414 . S
C1004 C1007 1.499 1_565 S
C1005 H979 0.950 . S
C1005 C1004 1.414 . S
C1005 C1006 1.374 . S
C1006 H980 0.950 . S
C1006 C1002 1.385 . S
C1006 C1005 1.374 . S
C1007 C1004 1.499 1_545 S
C1007 C1008 1.373 . S
C1007 C1009 1.389 . S
C1008 H981 0.950 1_545 S
C1008 C994 1.377 . S
C1008 C1007 1.373 . S
C1009 C993 1.377 . S
C1009 C1007 1.389 . S
C1009 C1010 1.524 . S
C1010 C1009 1.524 . S
C1010 C1011 1.397 . S
C1010 C1015 1.363 . S
C1011 H982 0.950 . S
C1011 C1010 1.397 . S
C1011 C1012 1.334 . S
C1012 H983 0.950 . S
C1012 C1011 1.334 . S
C1012 C1013 1.287 . S
C1013 C1012 1.287 . S
C1013 C1014 1.524 . S
C1013 H1016 0.999 . S
C1014 H984 0.950 . S
C1014 C1013 1.524 . S
C1014 C1015 1.415 . S
C1015 H985 0.950 . S
C1015 C1010 1.363 . S
C1015 C1014 1.415 . S
H1016 C1013 0.999 . S
H1017 C998 0.913 . S
H1018 C1036 0.951 . S
H1019 C1038 0.951 . S
H1020 C1040 0.950 . S
H1021 C1041 0.950 . S
H1022 C1043 0.950 . S
H1023 C1046 0.950 . S
H1024 C1047 0.950 . S
H1025 C1049 0.950 . S
H1026 C1050 0.950 . S
H1027 C1051 0.951 . S
H1028 C1053 0.951 . S
H1029 C1055 0.950 . S
H1030 C1056 0.950 . S
H1031 C1058 0.950 . S
H1032 C1061 0.950 . S
H1033 C1062 0.950 . S
H1034 C1064 0.950 . S
H1035 C1065 0.950 . S
C1036 H1018 0.951 . S
C1036 C1037 1.366 . S
C1036 C1038 1.388 . S
C1037 C1036 1.366 . S
C1037 C1041 1.385 . S
C1038 H1019 0.951 . S
C1038 C1036 1.388 . S
C1038 C1039 1.366 . S
C1039 C1038 1.366 . S
C1039 C1040 1.414 . S
C1039 C1042 1.499 . S
C1040 H1020 0.950 . S
C1040 C1039 1.414 . S
C1040 C1041 1.374 . S
C1041 H1021 0.950 . S
C1041 C1037 1.385 . S
C1041 C1040 1.374 . S
C1042 C1039 1.499 . S
C1042 C1043 1.373 . S
C1042 C1044 1.389 . S
C1043 H1022 0.950 . S
C1043 C1042 1.373 . S
C1043 C1059 1.377 . S
C1044 C1042 1.389 . S
C1044 C1045 1.524 . S
C1044 C1058 1.377 . S
C1045 C1044 1.524 . S
C1045 C1046 1.397 . S
C1045 C1050 1.363 . S
C1046 H1023 0.950 . S
C1046 C1045 1.397 . S
C1046 C1047 1.334 . S
C1047 H1024 0.950 . S
C1047 C1046 1.334 . S
C1047 C1048 1.287 . S
C1048 C1047 1.287 . S
C1048 C1049 1.524 . S
C1048 H1067 0.913 . S
C1049 H1025 0.950 . S
C1049 C1048 1.524 . S
C1049 C1050 1.415 . S
C1050 H1026 0.950 . S
C1050 C1045 1.363 . S
C1050 C1049 1.415 . S
C1051 H1027 0.951 . S
C1051 C1052 1.366 . S
C1051 C1053 1.388 . S
C1052 C1051 1.366 . S
C1052 C1056 1.385 . S
C1053 H1028 0.951 . S
C1053 C1051 1.388 . S
C1053 C1054 1.366 . S
C1054 C1053 1.366 . S
C1054 C1055 1.414 . S
C1054 C1057 1.499 . S
C1055 H1029 0.950 . S
C1055 C1054 1.414 . S
C1055 C1056 1.374 . S
C1056 H1030 0.950 . S
C1056 C1052 1.385 . S
C1056 C1055 1.374 . S
C1057 C1054 1.499 . S
C1057 C1058 1.373 . S
C1057 C1059 1.389 . S
C1058 H1031 0.950 . S
C1058 C1044 1.377 . S
C1058 C1057 1.373 . S
C1059 C1043 1.377 . S
C1059 C1057 1.389 . S
C1059 C1060 1.524 . S
C1060 C1059 1.524 . S
C1060 C1061 1.397 . S
C1060 C1065 1.363 . S
C1061 H1032 0.950 . S
C1061 C1060 1.397 . S
C1061 C1062 1.334 . S
C1062 H1033 0.950 . S
C1062 C1061 1.334 . S
C1062 C1063 1.287 . S
C1063 C1062 1.287 . S
C1063 C1064 1.524 . S
C1063 H1066 0.999 . S
C1064 H1034 0.950 . S
C1064 C1063 1.524 . S
C1064 C1065 1.415 . S
C1065 H1035 0.950 . S
C1065 C1060 1.363 . S
C1065 C1064 1.415 . S
H1066 C1063 0.999 . S
H1067 C1048 0.913 . S
H1068 C1086 0.951 . S
H1069 C1088 0.951 . S
H1070 C1090 0.950 . S
H1071 C1091 0.950 . S
H1072 C1093 0.950 . S
H1073 C1096 0.950 . S
H1074 C1097 0.950 . S
H1075 C1099 0.950 . S
H1076 C1100 0.950 . S
H1077 C1101 0.951 . S
H1078 C1103 0.951 . S
H1079 C1105 0.950 . S
H1080 C1106 0.950 . S
H1081 C1108 0.950 . S
H1082 C1111 0.950 . S
H1083 C1112 0.950 . S
H1084 C1114 0.950 . S
H1085 C1115 0.950 1_565 S
C1086 H1068 0.951 . S
C1086 C1087 1.366 . S
C1086 C1088 1.388 . S
C1087 C1086 1.366 . S
C1087 C1091 1.385 . S
C1088 H1069 0.951 . S
C1088 C1086 1.388 . S
C1088 C1089 1.366 . S
C1089 C1088 1.366 . S
C1089 C1090 1.414 . S
C1089 C1092 1.499 . S
C1090 H1070 0.950 . S
C1090 C1089 1.414 . S
C1090 C1091 1.374 . S
C1091 H1071 0.950 . S
C1091 C1087 1.385 . S
C1091 C1090 1.374 . S
C1092 C1089 1.499 . S
C1092 C1093 1.373 . S
C1092 C1094 1.389 . S
C1093 H1072 0.950 . S
C1093 C1092 1.373 . S
C1093 C1109 1.377 . S
C1094 C1092 1.389 . S
C1094 C1095 1.524 . S
C1094 C1108 1.377 . S
C1095 C1094 1.524 . S
C1095 C1096 1.397 . S
C1095 C1100 1.363 . S
C1096 H1073 0.950 . S
C1096 C1095 1.397 . S
C1096 C1097 1.334 . S
C1097 H1074 0.950 . S
C1097 C1096 1.334 . S
C1097 C1098 1.287 . S
C1098 C1097 1.287 . S
C1098 C1099 1.524 . S
C1098 H1117 0.913 . S
C1099 H1075 0.950 . S
C1099 C1098 1.524 . S
C1099 C1100 1.415 . S
C1100 H1076 0.950 . S
C1100 C1095 1.363 . S
C1100 C1099 1.415 . S
C1101 H1077 0.951 . S
C1101 C1102 1.366 . S
C1101 C1103 1.388 . S
C1102 C1101 1.366 . S
C1102 C1106 1.385 . S
C1103 H1078 0.951 . S
C1103 C1101 1.388 . S
C1103 C1104 1.366 . S
C1104 C1103 1.366 . S
C1104 C1105 1.414 . S
C1104 C1107 1.499 1_545 S
C1105 H1079 0.950 . S
C1105 C1104 1.414 . S
C1105 C1106 1.374 . S
C1106 H1080 0.950 . S
C1106 C1102 1.385 . S
C1106 C1105 1.374 . S
C1107 C1104 1.499 1_565 S
C1107 C1108 1.373 . S
C1107 C1109 1.389 . S
C1108 H1081 0.950 . S
C1108 C1094 1.377 . S
C1108 C1107 1.373 . S
C1109 C1093 1.377 . S
C1109 C1107 1.389 . S
C1109 C1110 1.524 1_565 S
C1110 C1109 1.524 1_545 S
C1110 C1111 1.397 . S
C1110 C1115 1.363 . S
C1111 H1082 0.950 . S
C1111 C1110 1.397 . S
C1111 C1112 1.334 . S
C1112 H1083 0.950 . S
C1112 C1111 1.334 . S
C1112 C1113 1.287 . S
C1113 C1112 1.287 . S
C1113 C1114 1.524 . S
C1113 H1116 0.999 . S
C1114 H1084 0.950 . S
C1114 C1113 1.524 . S
C1114 C1115 1.415 . S
C1115 H1085 0.950 1_545 S
C1115 C1110 1.363 . S
C1115 C1114 1.415 . S
H1116 C1113 0.999 . S
H1117 C1098 0.913 . S
H1118 C1136 0.951 . S
H1119 C1138 0.951 . S
H1120 C1140 0.950 . S
H1121 C1141 0.950 . S
H1122 C1143 0.950 . S
H1123 C1146 0.950 . S
H1124 C1147 0.950 . S
H1125 C1149 0.950 . S
H1126 C1150 0.950 . S
H1127 C1151 0.951 . S
H1128 C1153 0.951 . S
H1129 C1155 0.950 . S
H1130 C1156 0.950 . S
H1131 C1158 0.950 . S
H1132 C1161 0.950 . S
H1133 C1162 0.950 . S
H1134 C1164 0.950 . S
H1135 C1165 0.950 . S
C1136 H1118 0.951 . S
C1136 C1137 1.366 . S
C1136 C1138 1.388 . S
C1137 C1136 1.366 . S
C1137 C1141 1.385 . S
C1138 H1119 0.951 . S
C1138 C1136 1.388 . S
C1138 C1139 1.366 . S
C1139 C1138 1.366 . S
C1139 C1140 1.414 . S
C1139 C1142 1.499 . S
C1140 H1120 0.950 . S
C1140 C1139 1.414 . S
C1140 C1141 1.374 . S
C1141 H1121 0.950 . S
C1141 C1137 1.385 . S
C1141 C1140 1.374 . S
C1142 C1139 1.499 . S
C1142 C1143 1.373 . S
C1142 C1144 1.389 . S
C1143 H1122 0.950 . S
C1143 C1142 1.373 . S
C1143 C1159 1.377 . S
C1144 C1142 1.389 . S
C1144 C1145 1.524 . S
C1144 C1158 1.377 . S
C1145 C1144 1.524 . S
C1145 C1146 1.397 . S
C1145 C1150 1.363 . S
C1146 H1123 0.950 . S
C1146 C1145 1.397 . S
C1146 C1147 1.334 . S
C1147 H1124 0.950 . S
C1147 C1146 1.334 . S
C1147 C1148 1.287 . S
C1148 C1147 1.287 . S
C1148 C1149 1.524 . S
C1148 H1167 0.913 . S
C1149 H1125 0.950 . S
C1149 C1148 1.524 . S
C1149 C1150 1.415 . S
C1150 H1126 0.950 . S
C1150 C1145 1.363 . S
C1150 C1149 1.415 . S
C1151 H1127 0.951 . S
C1151 C1152 1.366 . S
C1151 C1153 1.388 . S
C1152 C1151 1.366 . S
C1152 C1156 1.385 . S
C1153 H1128 0.951 . S
C1153 C1151 1.388 . S
C1153 C1154 1.366 . S
C1154 C1153 1.366 . S
C1154 C1155 1.414 . S
C1154 C1157 1.499 . S
C1155 H1129 0.950 . S
C1155 C1154 1.414 . S
C1155 C1156 1.374 . S
C1156 H1130 0.950 . S
C1156 C1152 1.385 . S
C1156 C1155 1.374 . S
C1157 C1154 1.499 . S
C1157 C1158 1.373 . S
C1157 C1159 1.389 . S
C1158 H1131 0.950 . S
C1158 C1144 1.377 . S
C1158 C1157 1.373 . S
C1159 C1143 1.377 . S
C1159 C1157 1.389 . S
C1159 C1160 1.524 . S
C1160 C1159 1.524 . S
C1160 C1161 1.397 . S
C1160 C1165 1.363 . S
C1161 H1132 0.950 . S
C1161 C1160 1.397 . S
C1161 C1162 1.334 . S
C1162 H1133 0.950 . S
C1162 C1161 1.334 . S
C1162 C1163 1.287 . S
C1163 C1162 1.287 . S
C1163 C1164 1.524 . S
C1163 H1166 0.999 . S
C1164 H1134 0.950 . S
C1164 C1163 1.524 . S
C1164 C1165 1.415 . S
C1165 H1135 0.950 . S
C1165 C1160 1.363 . S
C1165 C1164 1.415 . S
H1166 C1163 0.999 . S
H1167 C1148 0.913 . S
H1168 C1186 0.951 . S
H1169 C1188 0.951 . S
H1170 C1190 0.950 . S
H1171 C1191 0.950 . S
H1172 C1193 0.950 . S
H1173 C1196 0.950 . S
H1174 C1197 0.950 . S
H1175 C1199 0.950 . S
H1176 C1200 0.950 . S
H1177 C1201 0.951 . S
H1178 C1203 0.951 . S
H1179 C1205 0.950 . S
H1180 C1206 0.950 . S
H1181 C1208 0.950 . S
H1182 C1211 0.950 . S
H1183 C1212 0.950 . S
H1184 C1214 0.950 . S
H1185 C1215 0.950 . S
C1186 H1168 0.951 . S
C1186 C1187 1.366 . S
C1186 C1188 1.388 . S
C1187 C1186 1.366 . S
C1187 C1191 1.385 . S
C1188 H1169 0.951 . S
C1188 C1186 1.388 . S
C1188 C1189 1.366 . S
C1189 C1188 1.366 . S
C1189 C1190 1.414 . S
C1189 C1192 1.499 . S
C1190 H1170 0.950 . S
C1190 C1189 1.414 . S
C1190 C1191 1.374 . S
C1191 H1171 0.950 . S
C1191 C1187 1.385 . S
C1191 C1190 1.374 . S
C1192 C1189 1.499 . S
C1192 C1193 1.373 . S
C1192 C1194 1.389 . S
C1193 H1172 0.950 . S
C1193 C1192 1.373 . S
C1193 C1209 1.377 . S
C1194 C1192 1.389 . S
C1194 C1195 1.524 . S
C1194 C1208 1.377 . S
C1195 C1194 1.524 . S
C1195 C1196 1.397 . S
C1195 C1200 1.363 . S
C1196 H1173 0.950 . S
C1196 C1195 1.397 . S
C1196 C1197 1.334 . S
C1197 H1174 0.950 . S
C1197 C1196 1.334 . S
C1197 C1198 1.287 . S
C1198 C1197 1.287 . S
C1198 C1199 1.524 . S
C1198 H1217 0.913 . S
C1199 H1175 0.950 . S
C1199 C1198 1.524 . S
C1199 C1200 1.415 . S
C1200 H1176 0.950 . S
C1200 C1195 1.363 . S
C1200 C1199 1.415 . S
C1201 H1177 0.951 . S
C1201 C1202 1.366 . S
C1201 C1203 1.388 . S
C1202 C1201 1.366 . S
C1202 C1206 1.385 . S
C1203 H1178 0.951 . S
C1203 C1201 1.388 . S
C1203 C1204 1.366 . S
C1204 C1203 1.366 . S
C1204 C1205 1.414 . S
C1204 C1207 1.499 . S
C1205 H1179 0.950 . S
C1205 C1204 1.414 . S
C1205 C1206 1.374 . S
C1206 H1180 0.950 . S
C1206 C1202 1.385 . S
C1206 C1205 1.374 . S
C1207 C1204 1.499 . S
C1207 C1208 1.373 . S
C1207 C1209 1.389 . S
C1208 H1181 0.950 . S
C1208 C1194 1.377 . S
C1208 C1207 1.373 . S
C1209 C1193 1.377 . S
C1209 C1207 1.389 . S
C1209 C1210 1.524 . S
C1210 C1209 1.524 . S
C1210 C1211 1.397 . S
C1210 C1215 1.363 . S
C1211 H1182 0.950 . S
C1211 C1210 1.397 . S
C1211 C1212 1.334 . S
C1212 H1183 0.950 . S
C1212 C1211 1.334 . S
C1212 C1213 1.287 . S
C1213 C1212 1.287 . S
C1213 C1214 1.524 . S
C1213 H1216 0.999 . S
C1214 H1184 0.950 . S
C1214 C1213 1.524 . S
C1214 C1215 1.415 . S
C1215 H1185 0.950 . S
C1215 C1210 1.363 . S
C1215 C1214 1.415 . S
H1216 C1213 0.999 . S
H1217 C1198 0.913 . S
H1218 C1236 0.951 . S
H1219 C1238 0.951 . S
H1220 C1240 0.950 . S
H1221 C1241 0.950 . S
H1222 C1243 0.950 . S
H1223 C1246 0.950 . S
H1224 C1247 0.950 . S
H1225 C1249 0.950 . S
H1226 C1250 0.950 . S
H1227 C1251 0.951 . S
H1228 C1253 0.951 . S
H1229 C1255 0.950 1_455 S
H1230 C1256 0.950 . S
H1231 C1258 0.950 . S
H1232 C1261 0.950 . S
H1233 C1262 0.950 . S
H1234 C1264 0.950 . S
H1235 C1265 0.950 . S
C1236 H1218 0.951 . S
C1236 C1237 1.366 . S
C1236 C1238 1.388 . S
C1237 C1236 1.366 . S
C1237 C1241 1.385 . S
C1238 H1219 0.951 . S
C1238 C1236 1.388 . S
C1238 C1239 1.366 . S
C1239 C1238 1.366 . S
C1239 C1240 1.414 . S
C1239 C1242 1.499 . S
C1240 H1220 0.950 . S
C1240 C1239 1.414 . S
C1240 C1241 1.374 . S
C1241 H1221 0.950 . S
C1241 C1237 1.385 . S
C1241 C1240 1.374 . S
C1242 C1239 1.499 . S
C1242 C1243 1.373 . S
C1242 C1244 1.389 . S
C1243 H1222 0.950 . S
C1243 C1242 1.373 . S
C1243 C1259 1.377 . S
C1244 C1242 1.389 . S
C1244 C1245 1.524 . S
C1244 C1258 1.377 . S
C1245 C1244 1.524 . S
C1245 C1246 1.397 . S
C1245 C1250 1.363 . S
C1246 H1223 0.950 . S
C1246 C1245 1.397 . S
C1246 C1247 1.334 . S
C1247 H1224 0.950 . S
C1247 C1246 1.334 . S
C1247 C1248 1.287 . S
C1248 C1247 1.287 . S
C1248 C1249 1.524 . S
C1248 H1267 0.913 . S
C1249 H1225 0.950 . S
C1249 C1248 1.524 . S
C1249 C1250 1.415 . S
C1250 H1226 0.950 . S
C1250 C1245 1.363 . S
C1250 C1249 1.415 . S
C1251 H1227 0.951 . S
C1251 C1252 1.366 . S
C1251 C1253 1.388 . S
C1252 C1251 1.366 . S
C1252 C1256 1.385 . S
C1253 H1228 0.951 . S
C1253 C1251 1.388 . S
C1253 C1254 1.366 . S
C1254 C1253 1.366 . S
C1254 C1255 1.414 . S
C1254 C1257 1.499 1_655 S
C1255 H1229 0.950 1_655 S
C1255 C1254 1.414 . S
C1255 C1256 1.374 . S
C1256 H1230 0.950 . S
C1256 C1252 1.385 . S
C1256 C1255 1.374 . S
C1257 C1254 1.499 1_455 S
C1257 C1258 1.373 . S
C1257 C1259 1.389 . S
C1258 H1231 0.950 . S
C1258 C1244 1.377 . S
C1258 C1257 1.373 . S
C1259 C1243 1.377 . S
C1259 C1257 1.389 . S
C1259 C1260 1.524 . S
C1260 C1259 1.524 . S
C1260 C1261 1.397 . S
C1260 C1265 1.363 . S
C1261 H1232 0.950 . S
C1261 C1260 1.397 . S
C1261 C1262 1.334 . S
C1262 H1233 0.950 . S
C1262 C1261 1.334 . S
C1262 C1263 1.287 . S
C1263 C1262 1.287 . S
C1263 C1264 1.524 . S
C1263 H1266 0.999 . S
C1264 H1234 0.950 . S
C1264 C1263 1.524 . S
C1264 C1265 1.415 . S
C1265 H1235 0.950 . S
C1265 C1260 1.363 . S
C1265 C1264 1.415 . S
H1266 C1263 0.999 . S
H1267 C1248 0.913 . S
H1268 C1286 0.951 . S
H1269 C1288 0.951 . S
H1270 C1290 0.950 . S
H1271 C1291 0.950 . S
H1272 C1293 0.950 . S
H1273 C1296 0.950 . S
H1274 C1297 0.950 . S
H1275 C1299 0.950 . S
H1276 C1300 0.950 . S
H1277 C1301 0.951 . S
H1278 C1303 0.951 . S
H1279 C1305 0.950 . S
H1280 C1306 0.950 . S
H1281 C1308 0.950 . S
H1282 C1311 0.950 . S
H1283 C1312 0.950 . S
H1284 C1314 0.950 . S
H1285 C1315 0.950 . S
C1286 H1268 0.951 . S
C1286 C1287 1.366 . S
C1286 C1288 1.388 . S
C1287 C1286 1.366 . S
C1287 C1291 1.385 . S
C1288 H1269 0.951 . S
C1288 C1286 1.388 . S
C1288 C1289 1.366 . S
C1289 C1288 1.366 . S
C1289 C1290 1.414 . S
C1289 C1292 1.499 . S
C1290 H1270 0.950 . S
C1290 C1289 1.414 . S
C1290 C1291 1.374 . S
C1291 H1271 0.950 . S
C1291 C1287 1.385 . S
C1291 C1290 1.374 . S
C1292 C1289 1.499 . S
C1292 C1293 1.373 . S
C1292 C1294 1.389 . S
C1293 H1272 0.950 . S
C1293 C1292 1.373 . S
C1293 C1309 1.377 . S
C1294 C1292 1.389 . S
C1294 C1295 1.524 . S
C1294 C1308 1.377 . S
C1295 C1294 1.524 . S
C1295 C1296 1.397 . S
C1295 C1300 1.363 . S
C1296 H1273 0.950 . S
C1296 C1295 1.397 . S
C1296 C1297 1.334 . S
C1297 H1274 0.950 . S
C1297 C1296 1.334 . S
C1297 C1298 1.287 . S
C1298 C1297 1.287 . S
C1298 C1299 1.524 . S
C1298 H1317 0.913 . S
C1299 H1275 0.950 . S
C1299 C1298 1.524 . S
C1299 C1300 1.415 . S
C1300 H1276 0.950 . S
C1300 C1295 1.363 . S
C1300 C1299 1.415 . S
C1301 H1277 0.951 . S
C1301 C1302 1.366 . S
C1301 C1303 1.388 . S
C1302 C1301 1.366 . S
C1302 C1306 1.385 . S
C1303 H1278 0.951 . S
C1303 C1301 1.388 . S
C1303 C1304 1.366 . S
C1304 C1303 1.366 . S
C1304 C1305 1.414 . S
C1304 C1307 1.499 . S
C1305 H1279 0.950 . S
C1305 C1304 1.414 . S
C1305 C1306 1.374 . S
C1306 H1280 0.950 . S
C1306 C1302 1.385 . S
C1306 C1305 1.374 . S
C1307 C1304 1.499 . S
C1307 C1308 1.373 . S
C1307 C1309 1.389 . S
C1308 H1281 0.950 . S
C1308 C1294 1.377 . S
C1308 C1307 1.373 . S
C1309 C1293 1.377 . S
C1309 C1307 1.389 . S
C1309 C1310 1.524 . S
C1310 C1309 1.524 . S
C1310 C1311 1.397 . S
C1310 C1315 1.363 . S
C1311 H1282 0.950 . S
C1311 C1310 1.397 . S
C1311 C1312 1.334 . S
C1312 H1283 0.950 . S
C1312 C1311 1.334 . S
C1312 C1313 1.287 . S
C1313 C1312 1.287 . S
C1313 C1314 1.524 . S
C1313 H1316 0.999 . S
C1314 H1284 0.950 . S
C1314 C1313 1.524 . S
C1314 C1315 1.415 . S
C1315 H1285 0.950 . S
C1315 C1310 1.363 . S
C1315 C1314 1.415 . S
H1316 C1313 0.999 . S
H1317 C1298 0.913 . S
H1318 C1336 0.951 . S
H1319 C1338 0.951 . S
H1320 C1340 0.950 . S
H1321 C1341 0.950 . S
H1322 C1343 0.950 . S
H1323 C1346 0.950 . S
H1324 C1347 0.950 . S
H1325 C1349 0.950 . S
H1326 C1350 0.950 . S
H1327 C1351 0.951 . S
H1328 C1353 0.951 . S
H1329 C1355 0.950 1_655 S
H1330 C1356 0.950 . S
H1331 C1358 0.950 . S
H1332 C1361 0.950 1_655 S
H1333 C1362 0.950 . S
H1334 C1364 0.950 . S
H1335 C1365 0.950 . S
C1336 H1318 0.951 . S
C1336 C1337 1.366 . S
C1336 C1338 1.388 . S
C1337 C1336 1.366 . S
C1337 C1341 1.385 . S
C1338 H1319 0.951 . S
C1338 C1336 1.388 . S
C1338 C1339 1.366 . S
C1339 C1338 1.366 . S
C1339 C1340 1.414 . S
C1339 C1342 1.499 . S
C1340 H1320 0.950 . S
C1340 C1339 1.414 . S
C1340 C1341 1.374 . S
C1341 H1321 0.950 . S
C1341 C1337 1.385 . S
C1341 C1340 1.374 . S
C1342 C1339 1.499 . S
C1342 C1343 1.373 . S
C1342 C1344 1.389 . S
C1343 H1322 0.950 . S
C1343 C1342 1.373 . S
C1343 C1359 1.377 . S
C1344 C1342 1.389 . S
C1344 C1345 1.524 . S
C1344 C1358 1.377 . S
C1345 C1344 1.524 . S
C1345 C1346 1.397 . S
C1345 C1350 1.363 . S
C1346 H1323 0.950 . S
C1346 C1345 1.397 . S
C1346 C1347 1.334 . S
C1347 H1324 0.950 . S
C1347 C1346 1.334 . S
C1347 C1348 1.287 . S
C1348 C1347 1.287 . S
C1348 C1349 1.524 . S
C1348 H1367 0.913 . S
C1349 H1325 0.950 . S
C1349 C1348 1.524 . S
C1349 C1350 1.415 . S
C1350 H1326 0.950 . S
C1350 C1345 1.363 . S
C1350 C1349 1.415 . S
C1351 H1327 0.951 . S
C1351 C1352 1.366 . S
C1351 C1353 1.388 . S
C1352 C1351 1.366 . S
C1352 C1356 1.385 . S
C1353 H1328 0.951 . S
C1353 C1351 1.388 . S
C1353 C1354 1.366 . S
C1354 C1353 1.366 . S
C1354 C1355 1.414 . S
C1354 C1357 1.499 1_455 S
C1355 H1329 0.950 1_455 S
C1355 C1354 1.414 . S
C1355 C1356 1.374 . S
C1356 H1330 0.950 . S
C1356 C1352 1.385 . S
C1356 C1355 1.374 . S
C1357 C1354 1.499 1_655 S
C1357 C1358 1.373 . S
C1357 C1359 1.389 . S
C1358 H1331 0.950 . S
C1358 C1344 1.377 . S
C1358 C1357 1.373 . S
C1359 C1343 1.377 . S
C1359 C1357 1.389 . S
C1359 C1360 1.499 1_655 S
C1360 C1359 1.499 1_455 S
C1360 C1361 1.403 . S
C1360 C1365 1.379 . S
C1361 H1332 0.950 1_455 S
C1361 C1360 1.403 . S
C1361 C1362 1.334 . S
C1362 H1333 0.950 . S
C1362 C1361 1.334 . S
C1362 C1363 1.287 . S
C1363 C1362 1.287 . S
C1363 C1364 1.524 . S
C1363 H1366 0.999 . S
C1364 H1334 0.950 . S
C1364 C1363 1.524 . S
C1364 C1365 1.415 . S
C1365 H1335 0.950 . S
C1365 C1360 1.379 . S
C1365 C1364 1.415 . S
H1366 C1363 0.999 . S
H1367 C1348 0.913 . S
H1368 C1386 0.951 . S
H1369 C1388 0.951 . S
H1370 C1390 0.950 . S
H1371 C1391 0.950 . S
H1372 C1393 0.950 . S
H1373 C1396 0.950 . S
H1374 C1397 0.950 . S
H1375 C1399 0.950 . S
H1376 C1400 0.950 . S
H1377 C1401 0.951 . S
H1378 C1403 0.951 . S
H1379 C1405 0.950 . S
H1380 C1406 0.950 . S
H1381 C1408 0.950 . S
H1382 C1411 0.950 . S
H1383 C1412 0.950 . S
H1384 C1414 0.950 . S
H1385 C1415 0.950 . S
C1386 H1368 0.951 . S
C1386 C1387 1.366 . S
C1386 C1388 1.388 . S
C1387 C1386 1.366 . S
C1387 C1391 1.385 . S
C1388 H1369 0.951 . S
C1388 C1386 1.388 . S
C1388 C1389 1.366 . S
C1389 C1388 1.366 . S
C1389 C1390 1.414 . S
C1389 C1392 1.499 . S
C1390 H1370 0.950 . S
C1390 C1389 1.414 . S
C1390 C1391 1.374 . S
C1391 H1371 0.950 . S
C1391 C1387 1.385 . S
C1391 C1390 1.374 . S
C1392 C1389 1.499 . S
C1392 C1393 1.373 . S
C1392 C1394 1.389 . S
C1393 H1372 0.950 . S
C1393 C1392 1.373 . S
C1393 C1409 1.377 . S
C1394 C1392 1.389 . S
C1394 C1395 1.524 . S
C1394 C1408 1.377 . S
C1395 C1394 1.524 . S
C1395 C1396 1.397 . S
C1395 C1400 1.363 . S
C1396 H1373 0.950 . S
C1396 C1395 1.397 . S
C1396 C1397 1.334 . S
C1397 H1374 0.950 . S
C1397 C1396 1.334 . S
C1397 C1398 1.287 . S
C1398 C1397 1.287 . S
C1398 C1399 1.524 . S
C1398 H1417 0.913 . S
C1399 H1375 0.950 . S
C1399 C1398 1.524 . S
C1399 C1400 1.415 . S
C1400 H1376 0.950 . S
C1400 C1395 1.363 . S
C1400 C1399 1.415 . S
C1401 H1377 0.951 . S
C1401 C1402 1.366 . S
C1401 C1403 1.388 . S
C1402 C1401 1.366 . S
C1402 C1406 1.385 . S
C1403 H1378 0.951 . S
C1403 C1401 1.388 . S
C1403 C1404 1.366 . S
C1404 C1403 1.366 . S
C1404 C1405 1.414 . S
C1404 C1407 1.499 . S
C1405 H1379 0.950 . S
C1405 C1404 1.414 . S
C1405 C1406 1.374 . S
C1406 H1380 0.950 . S
C1406 C1402 1.385 . S
C1406 C1405 1.374 . S
C1407 C1404 1.499 . S
C1407 C1408 1.373 . S
C1407 C1409 1.389 . S
C1408 H1381 0.950 . S
C1408 C1394 1.377 . S
C1408 C1407 1.373 . S
C1409 C1393 1.377 . S
C1409 C1407 1.389 . S
C1409 C1410 1.524 . S
C1410 C1409 1.524 . S
C1410 C1411 1.397 . S
C1410 C1415 1.363 . S
C1411 H1382 0.950 . S
C1411 C1410 1.397 . S
C1411 C1412 1.334 . S
C1412 H1383 0.950 . S
C1412 C1411 1.334 . S
C1412 C1413 1.287 . S
C1413 C1412 1.287 . S
C1413 C1414 1.524 . S
C1413 H1416 0.999 . S
C1414 H1384 0.950 . S
C1414 C1413 1.524 . S
C1414 C1415 1.415 . S
C1415 H1385 0.950 . S
C1415 C1410 1.363 . S
C1415 C1414 1.415 . S
H1416 C1413 0.999 . S
H1417 C1398 0.913 . S
H1418 C1436 0.951 . S
H1419 C1438 0.951 . S
H1420 C1440 0.950 . S
H1421 C1441 0.950 . S
H1422 C1443 0.950 . S
H1423 C1446 0.950 . S
H1424 C1447 0.950 . S
H1425 C1449 0.950 . S
H1426 C1450 0.950 . S
H1427 C1451 0.951 . S
H1428 C1453 0.951 . S
H1429 C1455 0.950 . S
H1430 C1456 0.950 . S
H1431 C1458 0.950 . S
H1432 C1461 0.950 . S
H1433 C1462 0.950 . S
H1434 C1464 0.950 . S
H1435 C1465 0.950 . S
C1436 H1418 0.951 . S
C1436 C1437 1.366 . S
C1436 C1438 1.388 . S
C1437 C1436 1.366 . S
C1437 C1441 1.385 . S
C1438 H1419 0.951 . S
C1438 C1436 1.388 . S
C1438 C1439 1.366 . S
C1439 C1438 1.366 . S
C1439 C1440 1.414 . S
C1439 C1442 1.499 . S
C1440 H1420 0.950 . S
C1440 C1439 1.414 . S
C1440 C1441 1.374 . S
C1441 H1421 0.950 . S
C1441 C1437 1.385 . S
C1441 C1440 1.374 . S
C1442 C1439 1.499 . S
C1442 C1443 1.373 . S
C1442 C1444 1.389 . S
C1443 H1422 0.950 . S
C1443 C1442 1.373 . S
C1443 C1459 1.377 . S
C1444 C1442 1.389 . S
C1444 C1445 1.524 . S
C1444 C1458 1.377 . S
C1445 C1444 1.524 . S
C1445 C1446 1.397 . S
C1445 C1450 1.363 . S
C1446 H1423 0.950 . S
C1446 C1445 1.397 . S
C1446 C1447 1.334 . S
C1447 H1424 0.950 . S
C1447 C1446 1.334 . S
C1447 C1448 1.287 . S
C1448 C1447 1.287 . S
C1448 C1449 1.524 . S
C1448 H1467 0.913 . S
C1449 H1425 0.950 . S
C1449 C1448 1.524 . S
C1449 C1450 1.415 . S
C1450 H1426 0.950 . S
C1450 C1445 1.363 . S
C1450 C1449 1.415 . S
C1451 H1427 0.951 . S
C1451 C1452 1.366 . S
C1451 C1453 1.388 . S
C1452 C1451 1.366 . S
C1452 C1456 1.385 . S
C1453 H1428 0.951 . S
C1453 C1451 1.388 . S
C1453 C1454 1.366 . S
C1454 C1453 1.366 . S
C1454 C1455 1.414 . S
C1454 C1457 1.499 . S
C1455 H1429 0.950 . S
C1455 C1454 1.414 . S
C1455 C1456 1.374 . S
C1456 H1430 0.950 . S
C1456 C1452 1.385 . S
C1456 C1455 1.374 . S
C1457 C1454 1.499 . S
C1457 C1458 1.373 . S
C1457 C1459 1.389 . S
C1458 H1431 0.950 . S
C1458 C1444 1.377 . S
C1458 C1457 1.373 . S
C1459 C1443 1.377 . S
C1459 C1457 1.389 . S
C1459 C1460 1.524 . S
C1460 C1459 1.524 . S
C1460 C1461 1.397 . S
C1460 C1465 1.363 . S
C1461 H1432 0.950 . S
C1461 C1460 1.397 . S
C1461 C1462 1.334 . S
C1462 H1433 0.950 . S
C1462 C1461 1.334 . S
C1462 C1463 1.287 . S
C1463 C1462 1.287 . S
C1463 C1464 1.524 . S
C1463 H1466 0.999 . S
C1464 H1434 0.950 . S
C1464 C1463 1.524 . S
C1464 C1465 1.415 . S
C1465 H1435 0.950 . S
C1465 C1460 1.363 . S
C1465 C1464 1.415 . S
H1466 C1463 0.999 . S
H1467 C1448 0.913 . S
H1468 C1486 0.951 . S
H1469 C1488 0.951 . S
H1470 C1490 0.950 . S
H1471 C1491 0.950 . S
H1472 C1493 0.950 . S
H1473 C1496 0.950 . S
H1474 C1497 0.950 . S
H1475 C1499 0.950 . S
H1476 C1500 0.950 . S
H1477 C1501 0.951 . S
H1478 C1503 0.951 . S
H1479 C1505 0.950 . S
H1480 C1506 0.950 . S
H1481 C1508 0.950 . S
H1482 C1511 0.950 . S
H1483 C1512 0.950 . S
H1484 C1514 0.950 . S
H1485 C1515 0.950 . S
C1486 H1468 0.951 . S
C1486 C1487 1.366 . S
C1486 C1488 1.388 . S
C1487 C1486 1.366 . S
C1487 C1491 1.385 . S
C1488 H1469 0.951 . S
C1488 C1486 1.388 . S
C1488 C1489 1.366 . S
C1489 C1488 1.366 . S
C1489 C1490 1.414 . S
C1489 C1492 1.499 . S
C1490 H1470 0.950 . S
C1490 C1489 1.414 . S
C1490 C1491 1.374 . S
C1491 H1471 0.950 . S
C1491 C1487 1.385 . S
C1491 C1490 1.374 . S
C1492 C1489 1.499 . S
C1492 C1493 1.373 . S
C1492 C1494 1.389 . S
C1493 H1472 0.950 . S
C1493 C1492 1.373 . S
C1493 C1509 1.377 . S
C1494 C1492 1.389 . S
C1494 C1495 1.524 . S
C1494 C1508 1.377 . S
C1495 C1494 1.524 . S
C1495 C1496 1.397 . S
C1495 C1500 1.363 . S
C1496 H1473 0.950 . S
C1496 C1495 1.397 . S
C1496 C1497 1.334 . S
C1497 H1474 0.950 . S
C1497 C1496 1.334 . S
C1497 C1498 1.287 . S
C1498 C1497 1.287 . S
C1498 C1499 1.524 . S
C1498 H1517 0.913 . S
C1499 H1475 0.950 . S
C1499 C1498 1.524 . S
C1499 C1500 1.415 . S
C1500 H1476 0.950 . S
C1500 C1495 1.363 . S
C1500 C1499 1.415 . S
C1501 H1477 0.951 . S
C1501 C1502 1.366 . S
C1501 C1503 1.388 . S
C1502 C1501 1.366 . S
C1502 C1506 1.385 . S
C1503 H1478 0.951 . S
C1503 C1501 1.388 . S
C1503 C1504 1.366 . S
C1504 C1503 1.366 . S
C1504 C1505 1.414 . S
C1504 C1507 1.499 . S
C1505 H1479 0.950 . S
C1505 C1504 1.414 . S
C1505 C1506 1.374 . S
C1506 H1480 0.950 . S
C1506 C1502 1.385 . S
C1506 C1505 1.374 . S
C1507 C1504 1.499 . S
C1507 C1508 1.373 . S
C1507 C1509 1.389 . S
C1508 H1481 0.950 . S
C1508 C1494 1.377 . S
C1508 C1507 1.373 . S
C1509 C1493 1.377 . S
C1509 C1507 1.389 . S
C1509 C1510 1.524 . S
C1510 C1509 1.524 . S
C1510 C1511 1.397 . S
C1510 C1515 1.363 . S
C1511 H1482 0.950 . S
C1511 C1510 1.397 . S
C1511 C1512 1.334 . S
C1512 H1483 0.950 . S
C1512 C1511 1.334 . S
C1512 C1513 1.287 . S
C1513 C1512 1.287 . S
C1513 C1514 1.524 . S
C1513 H1516 0.999 . S
C1514 H1484 0.950 . S
C1514 C1513 1.524 . S
C1514 C1515 1.415 . S
C1515 H1485 0.950 . S
C1515 C1510 1.363 . S
C1515 C1514 1.415 . S
H1516 C1513 0.999 . S
H1517 C1498 0.913 . S
H1518 C1536 0.951 . S
H1519 C1538 0.951 . S
H1520 C1540 0.950 . S
H1521 C1541 0.950 . S
H1522 C1543 0.950 . S
H1523 C1546 0.950 . S
H1524 C1547 0.950 . S
H1525 C1549 0.950 . S
H1526 C1550 0.950 . S
H1527 C1551 0.951 . S
H1528 C1553 0.951 . S
H1529 C1555 0.950 . S
H1530 C1556 0.950 . S
H1531 C1558 0.950 . S
H1532 C1561 0.950 . S
H1533 C1562 0.950 . S
H1534 C1564 0.950 . S
H1535 C1565 0.950 . S
C1536 H1518 0.951 . S
C1536 C1537 1.366 . S
C1536 C1538 1.388 . S
C1537 C1536 1.366 . S
C1537 C1541 1.385 . S
C1538 H1519 0.951 . S
C1538 C1536 1.388 . S
C1538 C1539 1.366 . S
C1539 C1538 1.366 . S
C1539 C1540 1.414 . S
C1539 C1542 1.499 . S
C1540 H1520 0.950 . S
C1540 C1539 1.414 . S
C1540 C1541 1.374 . S
C1541 H1521 0.950 . S
C1541 C1537 1.385 . S
C1541 C1540 1.374 . S
C1542 C1539 1.499 . S
C1542 C1543 1.373 . S
C1542 C1544 1.389 . S
C1543 H1522 0.950 . S
C1543 C1542 1.373 . S
C1543 C1559 1.377 . S
C1544 C1542 1.389 . S
C1544 C1545 1.524 . S
C1544 C1558 1.377 . S
C1545 C1544 1.524 . S
C1545 C1546 1.397 . S
C1545 C1550 1.363 . S
C1546 H1523 0.950 . S
C1546 C1545 1.397 . S
C1546 C1547 1.334 . S
C1547 H1524 0.950 . S
C1547 C1546 1.334 . S
C1547 C1548 1.287 . S
C1548 C1547 1.287 . S
C1548 C1549 1.524 . S
C1548 H1567 0.913 . S
C1549 H1525 0.950 . S
C1549 C1548 1.524 . S
C1549 C1550 1.415 . S
C1550 H1526 0.950 . S
C1550 C1545 1.363 . S
C1550 C1549 1.415 . S
C1551 H1527 0.951 . S
C1551 C1552 1.366 . S
C1551 C1553 1.388 . S
C1552 C1551 1.366 . S
C1552 C1556 1.385 . S
C1553 H1528 0.951 . S
C1553 C1551 1.388 . S
C1553 C1554 1.366 . S
C1554 C1553 1.366 . S
C1554 C1555 1.414 . S
C1554 C1557 1.499 . S
C1555 H1529 0.950 . S
C1555 C1554 1.414 . S
C1555 C1556 1.374 . S
C1556 H1530 0.950 . S
C1556 C1552 1.385 . S
C1556 C1555 1.374 . S
C1557 C1554 1.499 . S
C1557 C1558 1.373 . S
C1557 C1559 1.389 . S
C1558 H1531 0.950 . S
C1558 C1544 1.377 . S
C1558 C1557 1.373 . S
C1559 C1543 1.377 . S
C1559 C1557 1.389 . S
C1559 C1560 1.524 . S
C1560 C1559 1.524 . S
C1560 C1561 1.397 . S
C1560 C1565 1.363 . S
C1561 H1532 0.950 . S
C1561 C1560 1.397 . S
C1561 C1562 1.334 . S
C1562 H1533 0.950 . S
C1562 C1561 1.334 . S
C1562 C1563 1.287 . S
C1563 C1562 1.287 . S
C1563 C1564 1.524 . S
C1563 H1566 0.999 . S
C1564 H1534 0.950 . S
C1564 C1563 1.524 . S
C1564 C1565 1.415 . S
C1565 H1535 0.950 . S
C1565 C1560 1.363 . S
C1565 C1564 1.415 . S
H1566 C1563 0.999 . S
H1567 C1548 0.913 . S
H1568 C1586 0.951 . S
H1569 C1588 0.951 . S
H1570 C1590 0.950 . S
H1571 C1591 0.950 . S
H1572 C1593 0.950 . S
H1573 C1596 0.950 . S
H1574 C1597 0.950 . S
H1575 C1599 0.950 . S
H1576 C1600 0.950 . S
H1577 C1601 0.951 . S
H1578 C1603 0.951 . S
H1579 C1605 0.950 . S
H1580 C1606 0.950 . S
H1581 C1608 0.950 . S
H1582 C1611 0.950 . S
H1583 C1612 0.950 . S
H1584 C1614 0.950 . S
H1585 C1615 0.950 . S
C1586 H1568 0.951 . S
C1586 C1587 1.366 . S
C1586 C1588 1.388 . S
C1587 C1586 1.366 . S
C1587 C1591 1.385 . S
C1588 H1569 0.951 . S
C1588 C1586 1.388 . S
C1588 C1589 1.366 . S
C1589 C1588 1.366 . S
C1589 C1590 1.414 . S
C1589 C1592 1.499 . S
C1590 H1570 0.950 . S
C1590 C1589 1.414 . S
C1590 C1591 1.374 . S
C1591 H1571 0.950 . S
C1591 C1587 1.385 . S
C1591 C1590 1.374 . S
C1592 C1589 1.499 . S
C1592 C1593 1.373 . S
C1592 C1594 1.389 . S
C1593 H1572 0.950 . S
C1593 C1592 1.373 . S
C1593 C1609 1.377 . S
C1594 C1592 1.389 . S
C1594 C1595 1.524 . S
C1594 C1608 1.377 . S
C1595 C1594 1.524 . S
C1595 C1596 1.397 . S
C1595 C1600 1.363 . S
C1596 H1573 0.950 . S
C1596 C1595 1.397 . S
C1596 C1597 1.334 . S
C1597 H1574 0.950 . S
C1597 C1596 1.334 . S
C1597 C1598 1.287 . S
C1598 C1597 1.287 . S
C1598 C1599 1.524 . S
C1598 H1617 0.913 . S
C1599 H1575 0.950 . S
C1599 C1598 1.524 . S
C1599 C1600 1.415 . S
C1600 H1576 0.950 . S
C1600 C1595 1.363 . S
C1600 C1599 1.415 . S
C1601 H1577 0.951 . S
C1601 C1602 1.366 . S
C1601 C1603 1.388 . S
C1602 C1601 1.366 . S
C1602 C1606 1.385 . S
C1603 H1578 0.951 . S
C1603 C1601 1.388 . S
C1603 C1604 1.366 . S
C1604 C1603 1.366 . S
C1604 C1605 1.414 . S
C1604 C1607 1.499 . S
C1605 H1579 0.950 . S
C1605 C1604 1.414 . S
C1605 C1606 1.374 . S
C1606 H1580 0.950 . S
C1606 C1602 1.385 . S
C1606 C1605 1.374 . S
C1607 C1604 1.499 . S
C1607 C1608 1.373 . S
C1607 C1609 1.389 . S
C1608 H1581 0.950 . S
C1608 C1594 1.377 . S
C1608 C1607 1.373 . S
C1609 C1593 1.377 . S
C1609 C1607 1.389 . S
C1609 C1610 1.524 . S
C1610 C1609 1.524 . S
C1610 C1611 1.397 . S
C1610 C1615 1.363 . S
C1611 H1582 0.950 . S
C1611 C1610 1.397 . S
C1611 C1612 1.334 . S
C1612 H1583 0.950 . S
C1612 C1611 1.334 . S
C1612 C1613 1.287 . S
C1613 C1612 1.287 . S
C1613 C1614 1.524 . S
C1613 H1616 0.999 . S
C1614 H1584 0.950 . S
C1614 C1613 1.524 . S
C1614 C1615 1.415 . S
C1615 H1585 0.950 . S
C1615 C1610 1.363 . S
C1615 C1614 1.415 . S
H1616 C1613 0.999 . S
H1617 C1598 0.913 . S
H1618 C1636 0.951 . S
H1619 C1638 0.951 . S
H1620 C1640 0.950 . S
H1621 C1641 0.950 . S
H1622 C1643 0.950 . S
H1623 C1646 0.950 . S
H1624 C1647 0.950 . S
H1625 C1649 0.950 . S
H1626 C1650 0.950 . S
H1627 C1651 0.951 . S
H1628 C1653 0.951 . S
H1629 C1655 0.950 . S
H1630 C1656 0.950 . S
H1631 C1658 0.950 . S
H1632 C1661 0.950 . S
H1633 C1662 0.950 . S
H1634 C1664 0.950 . S
H1635 C1665 0.950 . S
C1636 H1618 0.951 . S
C1636 C1637 1.366 . S
C1636 C1638 1.388 . S
C1637 C1636 1.366 . S
C1637 C1641 1.385 . S
C1638 H1619 0.951 . S
C1638 C1636 1.388 . S
C1638 C1639 1.366 . S
C1639 C1638 1.366 . S
C1639 C1640 1.414 . S
C1639 C1642 1.499 . S
C1640 H1620 0.950 . S
C1640 C1639 1.414 . S
C1640 C1641 1.374 . S
C1641 H1621 0.950 . S
C1641 C1637 1.385 . S
C1641 C1640 1.374 . S
C1642 C1639 1.499 . S
C1642 C1643 1.373 . S
C1642 C1644 1.389 . S
C1643 H1622 0.950 . S
C1643 C1642 1.373 . S
C1643 C1659 1.377 . S
C1644 C1642 1.389 . S
C1644 C1645 1.524 . S
C1644 C1658 1.377 . S
C1645 C1644 1.524 . S
C1645 C1646 1.397 . S
C1645 C1650 1.363 . S
C1646 H1623 0.950 . S
C1646 C1645 1.397 . S
C1646 C1647 1.334 . S
C1647 H1624 0.950 . S
C1647 C1646 1.334 . S
C1647 C1648 1.287 . S
C1648 C1647 1.287 . S
C1648 C1649 1.524 . S
C1648 H1667 0.913 . S
C1649 H1625 0.950 . S
C1649 C1648 1.524 . S
C1649 C1650 1.415 . S
C1650 H1626 0.950 . S
C1650 C1645 1.363 . S
C1650 C1649 1.415 . S
C1651 H1627 0.951 . S
C1651 C1652 1.366 . S
C1651 C1653 1.388 . S
C1652 C1651 1.366 . S
C1652 C1656 1.385 . S
C1653 H1628 0.951 . S
C1653 C1651 1.388 . S
C1653 C1654 1.366 . S
C1654 C1653 1.366 . S
C1654 C1655 1.414 . S
C1654 C1657 1.499 . S
C1655 H1629 0.950 . S
C1655 C1654 1.414 . S
C1655 C1656 1.374 . S
C1656 H1630 0.950 . S
C1656 C1652 1.385 . S
C1656 C1655 1.374 . S
C1657 C1654 1.499 . S
C1657 C1658 1.373 . S
C1657 C1659 1.389 . S
C1658 H1631 0.950 . S
C1658 C1644 1.377 . S
C1658 C1657 1.373 . S
C1659 C1643 1.377 . S
C1659 C1657 1.389 . S
C1659 C1660 1.524 . S
C1660 C1659 1.524 . S
C1660 C1661 1.397 . S
C1660 C1665 1.363 . S
C1661 H1632 0.950 . S
C1661 C1660 1.397 . S
C1661 C1662 1.334 . S
C1662 H1633 0.950 . S
C1662 C1661 1.334 . S
C1662 C1663 1.287 . S
C1663 C1662 1.287 . S
C1663 C1664 1.524 . S
C1663 H1666 0.999 . S
C1664 H1634 0.950 . S
C1664 C1663 1.524 . S
C1664 C1665 1.415 . S
C1665 H1635 0.950 . S
C1665 C1660 1.363 . S
C1665 C1664 1.415 . S
H1666 C1663 0.999 . S
H1667 C1648 0.913 . S
H1668 C1686 0.951 . S
H1669 C1688 0.951 . S
H1670 C1690 0.950 . S
H1671 C1691 0.950 . S
H1672 C1693 0.950 . S
H1673 C1696 0.950 . S
H1674 C1697 0.950 . S
H1675 C1699 0.950 . S
H1676 C1700 0.950 . S
H1677 C1701 0.951 . S
H1678 C1703 0.951 . S
H1679 C1705 0.950 . S
H1680 C1706 0.950 . S
H1681 C1708 0.950 . S
H1682 C1711 0.950 . S
H1683 C1712 0.950 . S
H1684 C1714 0.950 . S
H1685 C1715 0.950 . S
C1686 H1668 0.951 . S
C1686 C1687 1.366 . S
C1686 C1688 1.388 . S
C1687 C1686 1.366 . S
C1687 C1691 1.385 . S
C1688 H1669 0.951 . S
C1688 C1686 1.388 . S
C1688 C1689 1.366 . S
C1689 C1688 1.366 . S
C1689 C1690 1.414 . S
C1689 C1692 1.499 . S
C1690 H1670 0.950 . S
C1690 C1689 1.414 . S
C1690 C1691 1.374 . S
C1691 H1671 0.950 . S
C1691 C1687 1.385 . S
C1691 C1690 1.374 . S
C1692 C1689 1.499 . S
C1692 C1693 1.373 . S
C1692 C1694 1.389 . S
C1693 H1672 0.950 . S
C1693 C1692 1.373 . S
C1693 C1709 1.377 . S
C1694 C1692 1.389 . S
C1694 C1695 1.524 . S
C1694 C1708 1.377 . S
C1695 C1694 1.524 . S
C1695 C1696 1.397 . S
C1695 C1700 1.363 . S
C1696 H1673 0.950 . S
C1696 C1695 1.397 . S
C1696 C1697 1.334 . S
C1697 H1674 0.950 . S
C1697 C1696 1.334 . S
C1697 C1698 1.287 . S
C1698 C1697 1.287 . S
C1698 C1699 1.524 . S
C1698 H1717 0.913 . S
C1699 H1675 0.950 . S
C1699 C1698 1.524 . S
C1699 C1700 1.415 . S
C1700 H1676 0.950 . S
C1700 C1695 1.363 . S
C1700 C1699 1.415 . S
C1701 H1677 0.951 . S
C1701 C1702 1.366 . S
C1701 C1703 1.388 . S
C1702 C1701 1.366 . S
C1702 C1706 1.385 . S
C1703 H1678 0.951 . S
C1703 C1701 1.388 . S
C1703 C1704 1.366 . S
C1704 C1703 1.366 . S
C1704 C1705 1.414 . S
C1704 C1707 1.499 . S
C1705 H1679 0.950 . S
C1705 C1704 1.414 . S
C1705 C1706 1.374 . S
C1706 H1680 0.950 . S
C1706 C1702 1.385 . S
C1706 C1705 1.374 . S
C1707 C1704 1.499 . S
C1707 C1708 1.373 . S
C1707 C1709 1.389 . S
C1708 H1681 0.950 . S
C1708 C1694 1.377 . S
C1708 C1707 1.373 . S
C1709 C1693 1.377 . S
C1709 C1707 1.389 . S
C1709 C1710 1.524 . S
C1710 C1709 1.524 . S
C1710 C1711 1.397 . S
C1710 C1715 1.363 . S
C1711 H1682 0.950 . S
C1711 C1710 1.397 . S
C1711 C1712 1.334 . S
C1712 H1683 0.950 . S
C1712 C1711 1.334 . S
C1712 C1713 1.287 . S
C1713 C1712 1.287 . S
C1713 C1714 1.524 . S
C1713 H1716 0.999 . S
C1714 H1684 0.950 . S
C1714 C1713 1.524 . S
C1714 C1715 1.415 . S
C1715 H1685 0.950 . S
C1715 C1710 1.363 . S
C1715 C1714 1.415 . S
H1716 C1713 0.999 . S
H1717 C1698 0.913 . S
H1718 C1736 0.951 . S
H1719 C1738 0.951 . S
H1720 C1740 0.950 . S
H1721 C1741 0.950 . S
H1722 C1743 0.950 . S
H1723 C1746 0.950 . S
H1724 C1747 0.950 . S
H1725 C1749 0.950 . S
H1726 C1750 0.950 . S
H1727 C1751 0.951 . S
H1728 C1753 0.951 . S
H1729 C1755 0.950 . S
H1730 C1756 0.950 . S
H1731 C1758 0.950 . S
H1732 C1761 0.950 . S
H1733 C1762 0.950 . S
H1734 C1764 0.950 . S
H1735 C1765 0.950 . S
C1736 H1718 0.951 . S
C1736 C1737 1.366 . S
C1736 C1738 1.388 . S
C1737 C1736 1.366 . S
C1737 C1741 1.385 . S
C1738 H1719 0.951 . S
C1738 C1736 1.388 . S
C1738 C1739 1.366 . S
C1739 C1738 1.366 . S
C1739 C1740 1.414 . S
C1739 C1742 1.499 . S
C1740 H1720 0.950 . S
C1740 C1739 1.414 . S
C1740 C1741 1.374 . S
C1741 H1721 0.950 . S
C1741 C1737 1.385 . S
C1741 C1740 1.374 . S
C1742 C1739 1.499 . S
C1742 C1743 1.373 . S
C1742 C1744 1.389 . S
C1743 H1722 0.950 . S
C1743 C1742 1.373 . S
C1743 C1759 1.377 . S
C1744 C1742 1.389 . S
C1744 C1745 1.524 . S
C1744 C1758 1.377 . S
C1745 C1744 1.524 . S
C1745 C1746 1.397 . S
C1745 C1750 1.363 . S
C1746 H1723 0.950 . S
C1746 C1745 1.397 . S
C1746 C1747 1.334 . S
C1747 H1724 0.950 . S
C1747 C1746 1.334 . S
C1747 C1748 1.287 . S
C1748 C1747 1.287 . S
C1748 C1749 1.524 . S
C1748 H1767 0.913 . S
C1749 H1725 0.950 . S
C1749 C1748 1.524 . S
C1749 C1750 1.415 . S
C1750 H1726 0.950 . S
C1750 C1745 1.363 . S
C1750 C1749 1.415 . S
C1751 H1727 0.951 . S
C1751 C1752 1.366 . S
C1751 C1753 1.388 . S
C1752 C1751 1.366 . S
C1752 C1756 1.385 . S
C1753 H1728 0.951 . S
C1753 C1751 1.388 . S
C1753 C1754 1.366 . S
C1754 C1753 1.366 . S
C1754 C1755 1.414 . S
C1754 C1757 1.499 . S
C1755 H1729 0.950 . S
C1755 C1754 1.414 . S
C1755 C1756 1.374 . S
C1756 H1730 0.950 . S
C1756 C1752 1.385 . S
C1756 C1755 1.374 . S
C1757 C1754 1.499 . S
C1757 C1758 1.373 . S
C1757 C1759 1.389 . S
C1758 H1731 0.950 . S
C1758 C1744 1.377 . S
C1758 C1757 1.373 . S
C1759 C1743 1.377 . S
C1759 C1757 1.389 . S
C1759 C1760 1.524 . S
C1760 C1759 1.524 . S
C1760 C1761 1.397 . S
C1760 C1765 1.363 . S
C1761 H1732 0.950 . S
C1761 C1760 1.397 . S
C1761 C1762 1.334 . S
C1762 H1733 0.950 . S
C1762 C1761 1.334 . S
C1762 C1763 1.287 . S
C1763 C1762 1.287 . S
C1763 C1764 1.524 . S
C1763 H1766 0.999 . S
C1764 H1734 0.950 . S
C1764 C1763 1.524 . S
C1764 C1765 1.415 . S
C1765 H1735 0.950 . S
C1765 C1760 1.363 . S
C1765 C1764 1.415 . S
H1766 C1763 0.999 . S
H1767 C1748 0.913 . S
C587 C8 1.222 . S
C602 C89 1.149 . S
C637 C31 1.222 . S
C652 C168 1.237 . S
C687 C53 1.221 . S
C702 C239 1.235 . S
C752 C299 1.238 . S
C737 C74 1.221 . S
C802 C329 1.152 . S
C787 C26 1.222 . S
C837 C48 1.221 . S
C852 C419 1.241 . S
C887 C71 1.221 . S
C902 C479 1.238 . S
C937 C5 1.221 . S
C952 C528 1.241 . S
C987 C50 1.222 . S
C1002 C509 1.153 . S
C1052 C348 1.237 . S
C1037 C70 1.222 . S
C1102 C408 1.153 . S
C1087 C4 1.226 . S
C1137 C28 1.221 . S
C1152 C468 1.153 . S
C1202 C149 1.151 . S
C1187 C73 1.222 . S
C1237 C7 1.222 . S
C1252 C228 1.151 . S
C1302 C288 1.151 . S
C1287 C30 1.222 . S
C1352 C108 1.237 . S
C1337 C52 1.217 . S
C1402 C449 0.903 . S
C1387 C9 0.904 . S
C1452 C539 0.903 . S
C1437 C29 0.909 . S
C1487 C51 0.909 . S
C1502 C359 0.898 . S
C1552 C389 0.903 . S
C1537 C75 0.909 . S
C1602 C209 0.904 . S
C1587 C27 0.909 . S
C1637 C49 0.909 . S
C1652 C269 0.909 . S
C1702 C119 0.900 . S
C1687 C72 0.909 . S
C1752 C179 0.904 . S
C1737 C6 0.914 . S
