# Generated by pormake.
# Topology anh, (6,3)-cn, num edge types: 1
# Building blocks:
#     Node 0, Type 0, BuildingBlock: NUHQIS_clean_sbu_0, # of connection points: 6
#     Node 1, Type 0, BuildingBlock: NUHQIS_clean_sbu_0, # of connection points: 6
#     Node 2, Type 0, BuildingBlock: NUHQIS_clean_sbu_0, # of connection points: 6
#     Node 3, Type 1, BuildingBlock: VETTIZ_charged_linker_0, # of connection points: 3
#     Node 4, Type 1, BuildingBlock: VETTIZ_charged_linker_0, # of connection points: 3
#     Node 5, Type 1, BuildingBlock: VETTIZ_charged_linker_0, # of connection points: 3
#     Node 6, Type 1, BuildingBlock: VETTIZ_charged_linker_0, # of connection points: 3
#     Node 7, Type 1, BuildingBlock: VETTIZ_charged_linker_0, # of connection points: 3
#     Node 8, Type 1, BuildingBlock: VETTIZ_charged_linker_0, # of connection points: 3
#     Edge 9, Type (0, 1), BuildingBlock: XIVTED_clean_linker_0, # of connection points: 2
#     Edge 10, Type (0, 1), BuildingBlock: XIVTED_clean_linker_0, # of connection points: 2
#     Edge 11, Type (0, 1), BuildingBlock: XIVTED_clean_linker_0, # of connection points: 2
#     Edge 12, Type (0, 1), BuildingBlock: XIVTED_clean_linker_0, # of connection points: 2
#     Edge 13, Type (0, 1), BuildingBlock: XIVTED_clean_linker_0, # of connection points: 2
#     Edge 14, Type (0, 1), BuildingBlock: XIVTED_clean_linker_0, # of connection points: 2
#     Edge 15, Type (0, 1), BuildingBlock: XIVTED_clean_linker_0, # of connection points: 2
#     Edge 16, Type (0, 1), BuildingBlock: XIVTED_clean_linker_0, # of connection points: 2
#     Edge 17, Type (0, 1), BuildingBlock: XIVTED_clean_linker_0, # of connection points: 2
#     Edge 18, Type (0, 1), BuildingBlock: XIVTED_clean_linker_0, # of connection points: 2
#     Edge 19, Type (0, 1), BuildingBlock: XIVTED_clean_linker_0, # of connection points: 2
#     Edge 20, Type (0, 1), BuildingBlock: XIVTED_clean_linker_0, # of connection points: 2
#     Edge 21, Type (0, 1), BuildingBlock: XIVTED_clean_linker_0, # of connection points: 2
#     Edge 22, Type (0, 1), BuildingBlock: XIVTED_clean_linker_0, # of connection points: 2
#     Edge 23, Type (0, 1), BuildingBlock: XIVTED_clean_linker_0, # of connection points: 2
#     Edge 24, Type (0, 1), BuildingBlock: XIVTED_clean_linker_0, # of connection points: 2
#     Edge 25, Type (0, 1), BuildingBlock: XIVTED_clean_linker_0, # of connection points: 2
#     Edge 26, Type (0, 1), BuildingBlock: XIVTED_clean_linker_0, # of connection points: 2
# Relax obj value: 0.242
# Max RMSD: 0.191
# Mean RMSD: 0.158
data_MOF--net-anh--node1-NUHQIS_clean_sbu_0--node2-VETTIZ_charged_linker_0--edge1-XIVTED_clean_linker_0
_symmetry_space_group_name_H-M    P1
_symmetry_Int_Tables_number       1
_symmetry_cell_setting            triclinic
loop_
_symmetry_equiv_pos_as_xyz
'x, y, z'
_cell_length_a     35.464563
_cell_length_b     35.414731
_cell_length_c     67.082993
_cell_angle_alpha  90.668673
_cell_angle_beta   91.007226
_cell_angle_gamma 119.99317
loop_
_atom_site_label
_atom_site_type_symbol
_atom_site_fract_x
_atom_site_fract_y
_atom_site_fract_z
_atom_type_partial_charge
Tb0 Tb 0.19406 0.62415 0.16137 0.0
Eu1 Eu 0.13566 0.67034 0.15643 0.0
C2 C 0.16145 0.65055 0.19839 0.0
C3 C 1.0905 0.56553 0.15775 0.0
C4 C 0.28372 0.60278 0.17594 0.0
C5 C 0.32615 0.59649 0.20325 0.0
C6 C 0.28642 0.58953 0.19533 0.0
C7 C 0.3219 0.62523 0.16507 0.0
C8 C 0.36149 0.63205 0.17294 0.0
C9 C 0.36383 0.61642 0.19184 0.0
C10 C 0.24092 0.59003 0.16654 0.0
O11 O 0.16968 0.61184 0.13053 0.0
O12 O 0.16874 0.67514 0.1277 0.0
O13 O 0.20314 0.72623 0.1647 0.0
O14 O 0.24186 0.69263 0.15591 0.0
C15 C 0.17 0.64222 0.11943 0.0
O16 O 1.10399 0.69538 0.13694 0.0
O17 O 1.09814 0.69837 0.16886 0.0
O18 O 0.12825 0.64511 0.1874 0.0
O19 O 0.19648 0.65503 0.18998 0.0
O20 O 0.12731 0.57104 0.16556 0.0
O21 O 1.08831 0.59839 0.15003 0.0
C22 C 0.24028 0.72812 0.16056 0.0
O23 O 0.20996 0.58453 0.17841 0.0
O24 O 0.24079 0.61016 0.15039 0.0
C25 C 1.03411 0.67227 0.14845 0.0
C26 C 0.95078 0.60045 0.13932 0.0
C27 C 0.9753 0.62989 0.12447 0.0
C28 C 1.01616 0.6657 0.12905 0.0
C29 C 1.00807 0.64548 0.16369 0.0
C30 C 0.96668 0.61013 0.15919 0.0
C31 C 1.08183 0.69919 0.15136 0.0
H32 H 0.32694 0.58439 0.21792 0.0
H33 H 0.25752 0.57217 0.20409 0.0
H34 H 0.32097 0.63578 0.15006 0.0
H35 H 0.38957 0.6468 0.16353 0.0
H36 H 0.96467 0.62383 0.10896 0.0
H37 H 1.03541 0.68591 0.11702 0.0
H38 H 1.02069 0.64988 0.17888 0.0
H39 H 0.94813 0.58926 0.17117 0.0
Tb40 Tb 0.71053 0.14292 0.49396 0.0
Eu41 Eu 0.60559 0.0832 0.49035 0.0
C42 C 0.65389 0.10834 0.53139 0.0
C43 C 0.66783 1.03988 0.49138 0.0
C44 C 0.80574 0.24559 0.49979 0.0
C45 C 0.78718 0.3003 0.51026 0.0
C46 C 0.78543 0.26046 0.51315 0.0
C47 C 0.8315 0.27333 0.48483 0.0
C48 C 0.83275 0.31285 0.48179 0.0
C49 C 0.80876 0.32549 0.49386 0.0
C50 C 0.78973 0.19848 0.49754 0.0
O51 O 0.69424 0.11997 0.46293 0.0
O52 O 0.62765 0.115 0.46096 0.0
O53 O 0.61861 0.15143 0.49791 0.0
O54 O 0.68864 0.1894 0.48721 0.0
C55 C 0.66255 0.11973 0.45236 0.0
O56 O 0.54596 1.0345 0.475 0.0
O57 O 0.54263 1.06242 0.50347 0.0
O58 O 0.62723 1.07446 0.52043 0.0
O59 O 0.6834 0.14369 0.52287 0.0
O60 O 0.70075 0.07728 0.49814 0.0
O61 O 0.63129 1.03698 0.48468 0.0
C62 C 0.65278 0.18831 0.49284 0.0
O63 O 0.76747 0.17402 0.51219 0.0
O64 O 0.77032 0.18191 0.48038 0.0
C65 C 0.49614 0.9877 0.49812 0.0
C66 C 0.44746 0.90406 0.51386 0.0
C67 C 0.42764 0.92903 0.50944 0.0
C68 C 0.45185 0.97057 0.5016 0.0
C69 C 0.51638 0.96348 0.50304 0.0
C70 C 0.49215 0.92182 0.51072 0.0
C71 C 0.52179 1.03139 0.49008 0.0
H72 H 0.76859 0.30951 0.51978 0.0
H73 H 0.76488 0.23968 0.52473 0.0
H74 H 0.84713 0.26254 0.47427 0.0
H75 H 0.85032 0.33232 0.46925 0.0
H76 H 0.39307 0.91585 0.5114 0.0
H77 H 0.43593 0.98909 0.49807 0.0
H78 H 0.55086 0.97668 0.50077 0.0
H79 H 0.50823 0.90337 0.51406 0.0
Tb80 Tb 0.6629 0.65232 0.82923 0.0
Eu81 Eu 0.61781 0.54797 0.82314 0.0
C82 C 0.63774 0.59078 0.86518 0.0
C83 C 0.72314 0.60995 0.82607 0.0
C84 C 0.6573 0.74835 0.83692 0.0
C85 C 0.62054 0.7803 0.81904 0.0
C86 C 0.65789 0.77757 0.82284 0.0
C87 C 0.62059 0.72616 0.84892 0.0
C88 C 0.58341 0.72943 0.8453 0.0
C89 C 0.5823 0.75434 0.82948 0.0
C90 C 0.68749 0.73147 0.83463 0.0
O91 O 0.6714 0.63966 0.79809 0.0
O92 O 0.60956 0.57356 0.79413 0.0
O93 O 0.56205 0.55983 0.8299 0.0
O94 O 0.59488 0.6316 0.82135 0.0
C95 C 0.64082 0.60903 0.78651 0.0
O96 O 0.60861 0.49039 0.8067 0.0
O97 O 0.57437 0.48314 0.83417 0.0
O98 O 0.64659 0.56616 0.85392 0.0
O99 O 0.63251 0.62136 0.85705 0.0
O100 O 0.71831 0.64162 0.8339 0.0
O101 O 0.68972 0.57448 0.8182 0.0
C102 C 0.55973 0.59482 0.82567 0.0
O103 O 0.68844 0.70704 0.84881 0.0
O104 O 0.68472 0.71394 0.8171 0.0
C105 C 0.60476 0.43767 0.82904 0.0
C106 C 0.64605 0.39317 0.84411 0.0
C107 C 0.64417 0.399 0.8235 0.0
C108 C 0.62357 0.42084 0.81604 0.0
C109 C 0.60628 0.43152 0.84969 0.0
C110 C 0.6266 0.40931 0.85713 0.0
C111 C 0.5869 0.46437 0.82107 0.0
H112 H 0.62054 0.80039 0.80698 0.0
H113 H 0.68559 0.79476 0.81334 0.0
H114 H 0.6189 0.70302 0.85978 0.0
H115 H 0.55432 0.70929 0.85357 0.0
H116 H 0.65785 0.38586 0.81305 0.0
H117 H 0.62279 0.42499 0.80009 0.0
H118 H 0.59223 0.44422 0.86015 0.0
H119 H 0.62734 0.40497 0.87307 0.0
C120 C 0.78149 0.24978 0.17641 0.0
C121 C 0.81911 0.28345 0.18655 0.0
C122 C 0.82083 0.28357 0.20752 0.0
C123 C 0.75037 0.21773 0.20825 0.0
C124 C 0.74746 0.21687 0.18764 0.0
C125 C 0.70531 0.177 0.18008 0.0
H126 H 0.51037 0.99804 0.20616 0.0
C127 C 0.71093 0.17984 0.2159 0.0
C128 C 0.68361 0.15529 0.19956 0.0
H129 H 0.55318 1.03349 0.14605 0.0
H130 H 0.62143 0.09618 0.15888 0.0
H131 H 0.59739 1.00906 0.22197 0.0
H132 H 0.54062 0.09106 0.22333 0.0
H133 H 0.5667 0.09905 0.2467 0.0
H134 H 0.52367 1.04524 0.2392 0.0
H135 H 0.55628 1.00137 0.23924 0.0
H136 H 0.61354 1.03602 0.24525 0.0
C137 C 0.71702 0.14774 0.16755 0.0
C138 C 0.67808 0.19242 0.16824 0.0
C139 C 0.69586 0.16126 0.29124 0.0
C140 C 0.6621 0.13082 0.30301 0.0
C141 C 0.62449 0.09677 0.29352 0.0
C142 C 0.62013 0.09329 0.27275 0.0
C143 C 0.6537 0.12422 0.26111 0.0
C144 C 0.69078 0.15742 0.27036 0.0
C145 C 0.72248 0.18767 0.25549 0.0
C146 C 0.69836 0.16683 0.23581 0.0
C147 C 0.65832 0.12978 0.23929 0.0
C148 C 0.76495 0.18551 0.25784 0.0
C149 C 0.72811 0.23364 0.25912 0.0
C150 C 0.53411 1.01938 0.19564 0.0
C151 C 0.52594 1.01114 0.17513 0.0
C152 C 0.55853 1.03925 0.16201 0.0
C153 C 0.59803 1.07557 0.16946 0.0
C154 C 0.60536 0.08336 0.19026 0.0
C155 C 0.5734 1.05467 0.20275 0.0
C156 C 0.58582 1.06498 0.2243 0.0
C157 C 0.6303 0.10506 0.2231 0.0
C158 C 0.64241 0.11684 0.20319 0.0
C159 C 0.58817 1.02594 0.23334 0.0
C160 C 0.55252 1.07537 0.23407 0.0
H161 H 0.79122 0.25392 0.23418 0.0
H162 H 0.77916 0.24863 0.16028 0.0
H163 H 0.67429 0.21692 0.17717 0.0
H164 H 0.64501 0.1654 0.16447 0.0
H165 H 0.69417 0.20777 0.15416 0.0
H166 H 0.74168 0.14262 0.17565 0.0
H167 H 0.73083 0.163 0.15311 0.0
H168 H 0.68865 0.1151 0.16447 0.0
H169 H 0.72504 0.18801 0.29811 0.0
H170 H 0.59829 1.07256 0.30223 0.0
H171 H 0.5905 1.06664 0.26663 0.0
H172 H 0.75761 0.15204 0.26165 0.0
H173 H 0.78652 0.20806 0.26994 0.0
H174 H 0.78336 0.19265 0.24395 0.0
H175 H 0.69833 0.23149 0.26547 0.0
H176 H 0.73287 0.25175 0.2452 0.0
H177 H 0.75566 0.25353 0.26973 0.0
H178 H 0.8487 0.30909 0.21575 0.0
C179 C 0.78708 0.25133 0.21829 0.0
C180 C 0.67557 0.73037 0.50924 0.0
C181 C 0.67873 0.76781 0.51888 0.0
C182 C 0.67974 0.76998 0.53981 0.0
C183 C 0.67434 0.69916 0.54159 0.0
C184 C 0.67379 0.69638 0.521 0.0
C185 C 0.67212 0.65436 0.51407 0.0
H186 H 0.65476 0.45937 0.54252 0.0
C187 C 0.67169 0.6594 0.54981 0.0
C188 C 0.67041 0.63237 0.53388 0.0
H189 H 0.66649 0.50355 0.48212 0.0
H190 H 0.6709 0.57131 0.49419 0.0
H191 H 0.72843 0.54745 0.56059 0.0
H192 H 0.58939 0.48806 0.55642 0.0
H193 H 0.60434 0.51363 0.58004 0.0
H194 H 0.61646 0.47112 0.57394 0.0
H195 H 0.69296 0.50387 0.57628 0.0
H196 H 0.7133 0.56029 0.58329 0.0
C197 C 0.71416 0.66643 0.5029 0.0
C198 C 0.63051 0.62722 0.50112 0.0
C199 C 0.66394 0.64175 0.62516 0.0
C200 C 0.65872 0.60768 0.63748 0.0
C201 C 0.65667 0.57033 0.62871 0.0
C202 C 0.65918 0.56664 0.60805 0.0
C203 C 0.66364 0.60057 0.59585 0.0
C204 C 0.66606 0.63734 0.60446 0.0
C205 C 0.6699 0.66961 0.58912 0.0
C206 C 0.6695 0.64615 0.56987 0.0
C207 C 0.66591 0.60591 0.57395 0.0
C208 C 0.71414 0.71217 0.59294 0.0
C209 C 0.62914 0.67495 0.59051 0.0
C210 C 0.65794 0.48329 0.53175 0.0
C211 C 0.65956 0.47555 0.51135 0.0
C212 C 0.66498 0.5085 0.49798 0.0
C213 C 0.66745 0.54775 0.505 0.0
C214 C 0.66521 0.55451 0.52564 0.0
C215 C 0.66099 0.52229 0.53846 0.0
C216 C 0.66032 0.5339 0.55986 0.0
C217 C 0.66463 0.57837 0.55815 0.0
C218 C 0.66719 0.59106 0.5381 0.0
C219 C 0.70052 0.53629 0.57074 0.0
C220 C 0.61558 0.49996 0.56819 0.0
H221 H 0.67832 0.74044 0.56696 0.0
H222 H 0.67515 0.72803 0.49313 0.0
H223 H 0.60155 0.62356 0.50898 0.0
H224 H 0.62449 0.59404 0.49784 0.0
H225 H 0.63263 0.64336 0.48675 0.0
H226 H 0.74317 0.69131 0.51163 0.0
H227 H 0.71383 0.68019 0.48814 0.0
H228 H 0.71896 0.63826 0.50061 0.0
H229 H 0.66522 0.67071 0.63143 0.0
H230 H 0.65323 0.54387 0.63788 0.0
H231 H 0.65724 0.53724 0.60243 0.0
H232 H 0.73894 0.70515 0.59953 0.0
H233 H 0.71076 0.73472 0.60344 0.0
H234 H 0.72885 0.72946 0.57908 0.0
H235 H 0.60008 0.64394 0.59484 0.0
H236 H 0.61935 0.68278 0.57612 0.0
H237 H 0.63429 0.70032 0.60184 0.0
H238 H 0.68209 0.79819 0.54752 0.0
C239 C 0.6775 0.73619 0.55111 0.0
C240 C 0.25045 0.60348 0.84149 0.0
C241 C 0.28508 0.60094 0.85115 0.0
C242 C 0.28721 0.60161 0.87208 0.0
C243 C 0.22165 0.60656 0.87383 0.0
C244 C 0.21872 0.60601 0.85324 0.0
C245 C 0.17817 0.60734 0.8463 0.0
H246 H 1.00125 0.62531 0.87511 0.0
C247 C 0.18459 0.60912 0.88207 0.0
C248 C 0.15839 0.60975 0.86613 0.0
H249 H 1.03176 0.61159 0.81448 0.0
H250 H 1.09562 0.60787 0.82641 0.0
H251 H 1.01529 0.55191 0.89146 0.0
H252 H 1.09595 0.69099 0.89044 0.0
H253 H 1.10605 0.67592 0.91385 0.0
H254 H 1.05166 0.66405 0.90711 0.0
H255 H 1.00837 0.5875 0.90832 0.0
H256 H 1.04418 0.56653 0.91434 0.0
C257 C 0.1479 0.56484 0.83446 0.0
C258 C 0.19228 0.64853 0.83399 0.0
C259 C 0.17485 0.61629 0.95761 0.0
C260 C 0.14589 0.62114 0.96999 0.0
C261 C 1.11053 0.62307 0.96121 0.0
C262 C 1.10438 0.62083 0.94049 0.0
C263 C 0.13394 0.61672 0.92823 0.0
C264 C 0.16835 0.61441 0.93684 0.0
C265 C 0.19686 0.61096 0.92145 0.0
C266 C 0.17369 0.61133 0.90217 0.0
C267 C 0.13698 0.61463 0.90629 0.0
C268 C 0.19537 0.56678 0.92421 0.0
C269 C 0.24288 0.65194 0.92388 0.0
C270 C 1.02173 0.62193 0.86426 0.0
C271 C 1.01168 0.61951 0.84385 0.0
C272 C 1.03881 0.61376 0.83036 0.0
C273 C 1.07585 0.61168 0.8373 0.0
C274 C 1.08548 0.61457 0.85797 0.0
C275 C 1.05784 0.61911 0.87089 0.0
C276 C 1.07041 0.61994 0.8923 0.0
C277 C 1.11051 0.61567 0.89049 0.0
C278 C 0.1203 0.61285 0.87039 0.0
C279 C 1.03272 0.57971 0.9023 0.0
C280 C 1.08135 0.66478 0.90159 0.0
H281 H 0.26019 0.60471 0.89921 0.0
H282 H 0.24781 0.6027 0.82538 0.0
H283 H 0.21762 0.67787 0.84235 0.0
H284 H 0.16498 0.65423 0.83069 0.0
H285 H 0.20612 0.64598 0.81964 0.0
H286 H 0.14374 0.53609 0.8428 0.0
H287 H 0.16172 0.56454 0.81976 0.0
H288 H 0.115 0.56014 0.83195 0.0
H289 H 0.20259 0.61515 0.96389 0.0
H290 H 1.08744 0.62625 0.97043 0.0
H291 H 1.0769 0.62272 0.93487 0.0
H292 H 0.16304 0.54142 0.92949 0.0
H293 H 0.22033 0.56991 0.93538 0.0
H294 H 0.19954 0.5529 0.91013 0.0
H295 H 0.24104 0.68056 0.92965 0.0
H296 H 0.25969 0.66287 0.90959 0.0
H297 H 0.2638 0.64626 0.93452 0.0
H298 H 0.31337 0.59984 0.87981 0.0
C299 C 0.25609 0.60446 0.88336 0.0
C300 C 0.95057 0.59955 0.45818 0.0
C301 C 0.91546 0.59236 0.4455 0.0
C302 C 0.92399 0.60551 0.42551 0.0
C303 C 0.99905 0.62298 0.4303 0.0
C304 C 0.9915 0.61391 0.45027 0.0
C305 C 1.02952 0.61535 0.46118 0.0
H306 H 0.23689 0.65938 0.46078 0.0
C307 C 1.04297 0.62995 0.4263 0.0
C308 C 1.06081 0.62547 0.44437 0.0
H309 H 0.15128 0.62489 0.51086 0.0
H310 H 1.09168 0.61163 0.48867 0.0
H311 H 0.1652 0.57952 0.43203 0.0
H312 H 0.20723 0.71595 0.43803 0.0
H313 H 0.20377 0.70248 0.41241 0.0
H314 H 0.24052 0.69515 0.42853 0.0
H315 H 0.21291 0.62007 0.42008 0.0
H316 H 0.15959 0.59593 0.40811 0.0
C317 C 1.0148 0.56971 0.4699 0.0
C318 C 1.04674 0.65303 0.47693 0.0
C319 C 1.0969 0.65036 0.35542 0.0
C320 C 0.13434 0.6533 0.34698 0.0
C321 C 0.16698 0.65453 0.35977 0.0
C322 C 0.16204 0.65199 0.38047 0.0
C323 C 0.12394 0.64789 0.38856 0.0
C324 C 1.09223 0.64732 0.3761 0.0
C325 C 1.05301 0.6407 0.38727 0.0
C326 C 1.06639 0.63719 0.40847 0.0
C327 C 1.108 0.64151 0.4091 0.0
C328 C 1.01309 0.59756 0.3795 0.0
C329 C 1.04837 0.68158 0.38471 0.0
C330 C 0.20507 0.64761 0.467 0.0
C331 C 0.19924 0.64428 0.48777 0.0
C332 C 0.15707 0.62893 0.49503 0.0
C333 C 0.12249 0.62148 0.4821 0.0
C334 C 0.12995 0.62895 0.46164 0.0
C335 C 0.17012 0.6398 0.45427 0.0
C336 C 0.17159 0.64506 0.432 0.0
C337 C 0.12652 0.63835 0.42749 0.0
C338 C 1.10259 0.62941 0.44493 0.0
C339 C 0.17792 0.60859 0.42243 0.0
C340 C 0.20778 0.69198 0.42733 0.0
H341 H 0.96973 0.62852 0.40233 0.0
H342 H 0.94555 0.58929 0.47351 0.0
H343 H 1.04615 0.68178 0.47076 0.0
H344 H 1.08096 0.66534 0.48161 0.0
H345 H 1.02626 0.64286 0.49033 0.0
H346 H 0.98786 0.54337 0.4607 0.0
H347 H 1.00301 0.56744 0.48531 0.0
H348 H 1.04078 0.5611 0.46988 0.0
H349 H 1.07137 0.64988 0.34614 0.0
H350 H 0.19591 0.6562 0.35377 0.0
H351 H 0.18785 0.65275 0.38935 0.0
H352 H 1.02257 0.57268 0.37598 0.0
H353 H 0.99877 0.60278 0.36567 0.0
H354 H 0.98742 0.58215 0.39058 0.0
H355 H 1.0809 0.71172 0.38499 0.0
H356 H 1.0306 0.68634 0.39694 0.0
H357 H 1.03181 0.68008 0.37027 0.0
H358 H 0.8977 0.60082 0.41545 0.0
C359 C 0.96571 0.62101 0.41787 0.0
C360 C 0.45591 0.89752 0.78382 0.0
C361 C 0.43097 0.86285 0.77024 0.0
C362 C 0.43001 0.87244 0.74992 0.0
C363 C 0.48495 0.94803 0.75672 0.0
C364 C 0.48296 0.93923 0.77679 0.0
C365 C 0.51658 0.97709 0.78916 0.0
H366 H 0.67681 0.18615 0.79533 0.0
C367 C 0.52116 0.99314 0.75422 0.0
C368 C 0.53956 1.01016 0.77322 0.0
H369 H 0.62038 0.09487 0.84318 0.0
H370 H 0.57631 1.03776 0.81929 0.0
H371 H 0.68691 0.11511 0.76589 0.0
H372 H 0.59429 0.15942 0.77046 0.0
H373 H 0.60204 0.15477 0.74493 0.0
H374 H 0.6475 0.19267 0.76062 0.0
H375 H 0.69859 0.16802 0.75799 0.0
H376 H 0.67209 0.12077 0.7415 0.0
C377 C 0.5472 0.96329 0.79957 0.0
C378 C 0.49233 0.99158 0.80359 0.0
C379 C 0.56772 1.05332 0.68499 0.0
C380 C 0.6009 0.09359 0.67814 0.0
C381 C 0.62641 0.12707 0.69224 0.0
C382 C 0.62003 0.12013 0.71272 0.0
C383 C 0.58773 0.07929 0.71928 0.0
C384 C 0.56157 1.04702 0.70549 0.0
C385 C 0.52835 1.00593 0.71522 0.0
C386 C 0.53974 1.01852 0.73712 0.0
C387 C 0.57486 1.06137 0.73936 0.0
C388 C 0.53644 0.96846 0.70884 0.0
C389 C 0.48241 0.99798 0.70949 0.0
C390 C 0.65611 0.15363 0.80075 0.0
C391 C 0.65172 0.14543 0.82134 0.0
C392 C 0.62378 0.10248 0.8275 0.0
C393 C 0.59805 1.06931 0.81356 0.0
C394 C 0.60059 0.07891 0.79319 0.0
C395 C 0.63046 0.12004 0.78702 0.0
C396 C 0.62951 0.1239 0.76472 0.0
C397 C 0.59278 0.07877 0.75863 0.0
C398 C 0.57577 1.05288 0.77539 0.0
C399 C 0.67404 0.13271 0.75696 0.0
C400 C 0.61806 0.15971 0.75976 0.0
H401 H 0.45619 0.9198 0.72736 0.0
H402 H 0.4585 0.89185 0.79948 0.0
H403 H 0.4638 0.99061 0.79588 0.0
H404 H 0.51253 1.0255 0.80919 0.0
H405 H 0.4801 0.96964 0.8165 0.0
H406 H 0.54856 0.93701 0.79092 0.0
H407 H 0.53599 0.95092 0.81472 0.0
H408 H 0.58148 0.99002 0.80065 0.0
H409 H 0.54766 1.02665 0.67468 0.0
H410 H 0.65144 0.15875 0.68746 0.0
H411 H 0.64071 0.14681 0.72266 0.0
H412 H 0.57195 0.98008 0.7087 0.0
H413 H 0.52275 0.95584 0.69361 0.0
H414 H 0.52282 0.941 0.71915 0.0
H415 H 0.48265 1.0294 0.70819 0.0
H416 H 0.45814 0.97996 0.72091 0.0
H417 H 0.47072 0.98019 0.69493 0.0
H418 H 0.41074 0.84657 0.73911 0.0
C419 C 0.45678 0.91491 0.7431 0.0
C420 C 0.65099 0.36817 0.1081 0.0
C421 C 0.67427 0.35987 0.09359 0.0
C422 C 0.659 0.35356 0.07358 0.0
C423 C 0.61203 0.38239 0.08201 0.0
C424 C 0.62114 0.38082 0.10199 0.0
C425 C 0.60379 0.40303 0.1151 0.0
H426 H 0.53186 0.54533 0.12447 0.0
C427 C 0.5908 0.40911 0.08025 0.0
C428 C 0.58547 0.4208 0.09962 0.0
H429 H 0.55944 0.47858 0.17112 0.0
H430 H 0.57359 0.43762 0.14641 0.0
H431 H 0.61269 0.56006 0.09591 0.0
H432 H 0.47656 0.46268 0.09672 0.0
H433 H 0.49095 0.47175 0.07158 0.0
H434 H 0.49466 0.51582 0.08693 0.0
H435 H 0.56973 0.57154 0.09042 0.0
H436 H 0.59084 0.55149 0.07144 0.0
C437 C 0.64256 0.44009 0.12738 0.0
C438 C 0.56745 0.36786 0.12784 0.0
C439 C 0.57905 0.46532 0.0125 0.0
C440 C 0.5665 0.49532 0.00624 0.0
C441 C 0.5504 0.513 0.02045 0.0
C442 C 0.54795 0.50184 0.04059 0.0
C443 C 0.56215 0.47302 0.04666 0.0
C444 C 0.57645 0.45458 0.03261 0.0
C445 C 0.59084 0.42509 0.0417 0.0
C446 C 0.58232 0.42838 0.06357 0.0
C447 C 0.56635 0.45721 0.06643 0.0
C448 C 0.64006 0.44485 0.0377 0.0
C449 C 0.5615 0.37835 0.03298 0.0
C450 C 0.54182 0.52251 0.12937 0.0
C451 C 0.5453 0.51571 0.1498 0.0
C452 C 0.55666 0.48449 0.1555 0.0
C453 C 0.56476 0.46067 0.14112 0.0
C454 C 0.56201 0.46847 0.12079 0.0
C455 C 0.55013 0.49852 0.11518 0.0
C456 C 0.54766 0.50151 0.09288 0.0
C457 C 0.56032 0.46841 0.08605 0.0
C458 C 0.56927 0.44975 0.10249 0.0
C459 C 0.58172 0.54857 0.0872 0.0
C460 C 0.50015 0.48757 0.08656 0.0
H461 H 0.62031 0.36324 0.05204 0.0
H462 H 0.66096 0.37237 0.12368 0.0
H463 H 0.5504 0.33572 0.1198 0.0
H464 H 0.54143 0.37545 0.13108 0.0
H465 H 0.58099 0.36331 0.14208 0.0
H466 H 0.6725 0.4557 0.1184 0.0
H467 H 0.65003 0.42732 0.14102 0.0
H468 H 0.63743 0.4672 0.13179 0.0
H469 H 0.59219 0.45153 0.00211 0.0
H470 H 0.53979 0.53559 0.01602 0.0
H471 H 0.53577 0.51665 0.0507 0.0
H472 H 0.65738 0.48106 0.03919 0.0
H473 H 0.64512 0.43636 0.02237 0.0
H474 H 0.65712 0.43481 0.04836 0.0
H475 H 0.5279 0.37193 0.0297 0.0
H476 H 0.55731 0.35289 0.04355 0.0
H477 H 0.5745 0.37342 0.01885 0.0
H478 H 0.67507 0.34533 0.06216 0.0
C479 C 0.62778 0.36479 0.0677 0.0
H480 H 0.45021 0.67726 0.18684 0.0
H481 H 0.49707 0.48243 0.18312 0.0
H482 H 0.36684 0.54883 0.20963 0.0
H483 H 0.56768 0.60184 0.15095 0.0
H484 H 0.4666 0.51713 0.20381 0.0
H485 H 0.50933 0.66083 0.18524 0.0
C486 C 0.44466 0.64608 0.19203 0.0
C487 C 0.403 0.61376 0.19762 0.0
C488 C 0.48952 0.53608 0.19252 0.0
C489 C 0.47027 0.59482 0.1958 0.0
C490 C 0.50706 0.51632 0.18072 0.0
C491 C 0.53395 0.53894 0.16491 0.0
C492 C 0.4986 0.57853 0.18831 0.0
C493 C 0.54586 0.5828 0.16256 0.0
C494 C 0.47844 0.63675 0.19114 0.0
C495 C 0.3981 0.57456 0.20487 0.0
N496 N 0.52741 0.60093 0.17386 0.0
N497 N 0.43101 0.56576 0.20326 0.0
H498 H 0.78128 0.3372 0.45774 0.0
H499 H 0.87832 0.58473 0.48226 0.0
H500 H 0.82031 0.39569 0.51664 0.0
H501 H 0.85017 0.52564 0.42329 0.0
H502 H 0.82833 0.5136 0.49585 0.0
H503 H 0.77977 0.4016 0.44642 0.0
C504 C 0.7894 0.36374 0.46829 0.0
C505 C 0.80265 0.36213 0.48791 0.0
C506 C 0.83194 0.51653 0.47985 0.0
C507 C 0.80114 0.43599 0.47511 0.0
C508 C 0.86028 0.55723 0.47204 0.0
C509 C 0.87073 0.56057 0.45177 0.0
C510 C 0.81388 0.47949 0.46716 0.0
C511 C 0.84476 0.52447 0.43915 0.0
C512 C 0.78813 0.40029 0.4619 0.0
C513 C 0.81103 0.39635 0.50125 0.0
N514 N 0.8187 0.48501 0.44713 0.0
N515 N 0.81121 0.4325 0.49448 0.0
H516 H 0.52028 0.76275 0.85001 0.0
H517 H 0.43439 0.79765 0.74929 0.0
H518 H 0.54858 0.73139 0.79193 0.0
H519 H 0.39656 0.82426 0.80619 0.0
H520 H 0.4505 0.74608 0.76497 0.0
H521 H 0.45612 0.76257 0.83542 0.0
C522 C 0.51255 0.75526 0.83425 0.0
C523 C 0.54049 0.74893 0.82193 0.0
C524 C 0.43765 0.76232 0.77405 0.0
C525 C 0.46738 0.74796 0.80523 0.0
C526 C 0.42768 0.79154 0.76497 0.0
C527 C 0.41697 0.81775 0.7767 0.0
C528 C 0.4379 0.76032 0.79496 0.0
C529 C 0.40757 0.8068 0.79681 0.0
C530 C 0.47589 0.7549 0.82594 0.0
C531 C 0.52869 0.73824 0.80174 0.0
N532 N 0.42033 0.78047 0.80558 0.0
N533 N 0.49345 0.73875 0.79397 0.0
H534 H 0.91939 0.52046 0.15702 0.0
H535 H 0.71187 0.34833 0.12789 0.0
H536 H 0.89133 0.58306 0.10861 0.0
H537 H 0.74395 0.40853 0.07036 0.0
H538 H 0.78415 0.40279 0.14056 0.0
H539 H 0.85707 0.45107 0.14606 0.0
C540 C 0.90021 0.51993 0.14418 0.0
C541 C 0.91111 0.55821 0.13374 0.0
C542 C 0.77599 0.40308 0.12497 0.0
C543 C 0.84134 0.47785 0.12043 0.0
C544 C 0.73464 0.37178 0.11768 0.0
C545 C 0.72089 0.37482 0.09825 0.0
C546 C 0.80359 0.43712 0.11258 0.0
C547 C 0.75228 0.40512 0.08557 0.0
C548 C 0.86502 0.47991 0.13775 0.0
C549 C 0.88529 0.55469 0.11693 0.0
N550 N 0.79156 0.43596 0.09315 0.0
N551 N 0.85205 0.51526 0.11073 0.0
H552 H 0.38383 0.87118 0.54166 0.0
H553 H 0.27751 0.6455 0.48485 0.0
H554 H 0.44929 0.8326 0.4994 0.0
H555 H 0.21 0.69152 0.52213 0.0
H556 H 0.34646 0.70092 0.50028 0.0
H557 H 0.328 0.79471 0.54479 0.0
C558 C 0.38687 0.84645 0.53335 0.0
C559 C 0.42036 0.85821 0.51979 0.0
C560 C 0.31638 0.69796 0.50548 0.0
C561 C 0.35651 0.77091 0.52305 0.0
C562 C 0.27698 0.66641 0.49662 0.0
C563 C 0.23796 0.665 0.50154 0.0
C564 C 0.31659 0.72829 0.51923 0.0
C565 C 0.23914 0.6917 0.51748 0.0
C566 C 0.35513 0.8028 0.53519 0.0
C567 C 0.42358 0.82494 0.50981 0.0
N568 N 0.27791 0.72299 0.52537 0.0
N569 N 0.39137 0.78282 0.51124 0.0
H570 H 0.72285 0.39828 0.83391 0.0
H571 H 0.61455 0.15343 0.8555 0.0
H572 H 0.61193 0.32795 0.8711 0.0
H573 H 0.72992 0.22306 0.82069 0.0
H574 H 0.63096 0.22132 0.87191 0.0
H575 H 0.7424 0.34198 0.839 0.0
C576 C 0.70319 0.37142 0.84352 0.0
C577 C 0.66488 0.36683 0.85152 0.0
C578 C 0.6534 0.22178 0.86104 0.0
C579 C 0.6866 0.30215 0.85721 0.0
C580 C 0.64423 0.18268 0.8517 0.0
C581 C 0.6698 0.18265 0.83594 0.0
C582 C 0.68759 0.26116 0.85419 0.0
C583 C 0.70801 0.22184 0.83202 0.0
C584 C 0.71444 0.33938 0.84651 0.0
C585 C 0.64129 0.33229 0.86435 0.0
N586 N 0.71499 0.2598 0.84059 0.0
N587 N 0.65188 0.3006 0.86637 0.0
H588 H 0.60484 0.95543 0.48125 0.0
H589 H 0.74815 0.85007 0.51783 0.0
H590 H 0.73789 1.03081 0.50314 0.0
H591 H 0.61436 0.77308 0.49774 0.0
H592 H 0.7473 0.91639 0.50866 0.0
H593 H 0.60945 0.88897 0.484 0.0
C594 C 0.63519 0.95822 0.48652 0.0
C595 C 0.67102 0.99921 0.49202 0.0
C596 C 0.71828 0.88506 0.50585 0.0
C597 C 0.67645 0.92247 0.4952 0.0
C598 C 0.71896 0.8471 0.51086 0.0
C599 C 0.68153 0.80587 0.5082 0.0
C600 C 0.67962 0.88215 0.49834 0.0
C601 C 0.6442 0.80408 0.49965 0.0
C602 C 0.63775 0.92005 0.48808 0.0
C603 C 0.70933 1.00022 0.49875 0.0
N604 N 0.64405 0.84161 0.49521 0.0
N605 N 0.71093 0.96261 0.5002 0.0
H606 H 0.74638 0.55237 0.81034 0.0
H607 H 0.99103 0.68106 0.85544 0.0
H608 H 0.80076 0.67509 0.84284 0.0
H609 H 0.94245 0.56489 0.8185 0.0
H610 H 0.9226 0.68066 0.84965 0.0
H611 H 0.81764 0.55708 0.81217 0.0
C612 C 0.77325 0.58047 0.81781 0.0
C613 C 0.76711 0.61337 0.82649 0.0
C614 C 0.92684 0.65541 0.84261 0.0
C615 C 0.84948 0.61884 0.82866 0.0
C616 C 0.96608 0.65568 0.84587 0.0
C617 C 0.97268 0.6229 0.83748 0.0
C618 C 0.8932 0.62183 0.83096 0.0
C619 C 0.93905 0.59098 0.82517 0.0
C620 C 0.8141 0.58311 0.81881 0.0
C621 C 0.80355 0.64886 0.83593 0.0
N622 N 0.90069 0.59097 0.82246 0.0
N623 N 0.84286 0.65051 0.83683 0.0
H624 H 0.25338 0.80858 0.17275 0.0
H625 H 0.51047 0.94026 0.15136 0.0
H626 H 0.32211 0.74695 0.14902 0.0
H627 H 0.44431 0.99355 0.18459 0.0
H628 H 0.44048 0.8719 0.14619 0.0
H629 H 0.32155 0.87859 0.17356 0.0
C630 C 0.28269 0.80965 0.16765 0.0
C631 C 0.28166 0.7714 0.16089 0.0
C632 C 0.4412 0.89877 0.1544 0.0
C633 C 0.36046 0.85222 0.16165 0.0
C634 C 0.48109 0.93797 0.15714 0.0
C635 C 0.48329 0.97281 0.16835 0.0
C636 C 0.40309 0.89442 0.16281 0.0
C637 C 0.44418 0.9676 0.17583 0.0
C638 C 0.32176 0.84979 0.16811 0.0
C639 C 0.32107 0.77531 0.15445 0.0
N640 N 0.40598 0.92934 0.173 0.0
N641 N 0.35866 0.81478 0.15499 0.0
H642 H 0.58959 0.20268 0.50845 0.0
H643 H 0.71097 0.45959 0.48574 0.0
H644 H 0.71238 0.2692 0.47888 0.0
H645 H 0.59879 0.39379 0.52259 0.0
H646 H 0.70771 0.38922 0.47945 0.0
H647 H 0.58893 0.27134 0.51058 0.0
C648 C 0.61639 0.23162 0.50231 0.0
C649 C 0.65122 0.22986 0.49357 0.0
C650 C 0.68381 0.39029 0.48885 0.0
C651 C 0.65065 0.30934 0.49596 0.0
C652 C 0.68531 0.43036 0.49225 0.0
C653 C 0.65521 0.43281 0.5048 0.0
C654 C 0.65192 0.35228 0.49798 0.0
C655 C 0.62297 0.39372 0.51299 0.0
C656 C 0.61604 0.27101 0.50358 0.0
C657 C 0.68497 0.26884 0.48591 0.0
N658 N 0.62232 0.35542 0.50952 0.0
N659 N 0.68389 0.30682 0.48731 0.0
H660 H 0.48055 0.52736 0.83704 0.0
H661 H 0.35375 0.66222 0.82972 0.0
H662 H 0.5399 0.65826 0.81512 0.0
H663 H 0.29673 0.53075 0.85042 0.0
H664 H 0.41948 0.65937 0.8208 0.0
H665 H 0.41136 0.52641 0.8392 0.0
C666 C 0.47913 0.55594 0.8326 0.0
C667 C 0.5166 0.59313 0.82608 0.0
C668 C 0.39227 0.63089 0.82695 0.0
C669 C 0.43666 0.59231 0.82858 0.0
C670 C 0.35447 0.63228 0.83176 0.0
C671 C 0.31934 0.59637 0.84052 0.0
C672 C 0.39522 0.59352 0.83114 0.0
C673 C 0.32274 0.55892 0.84342 0.0
C674 C 0.43942 0.55538 0.83384 0.0
C675 C 0.51223 0.62904 0.8205 0.0
N676 N 0.35991 0.55861 0.83893 0.0
N677 N 0.47326 0.62785 0.82199 0.0
H678 H 1.08375 0.48991 0.17165 0.0
H679 H 0.82292 0.34282 0.15873 0.0
H680 H 1.00511 0.53938 0.14587 0.0
H681 H 0.90421 0.30618 0.19203 0.0
H682 H 0.88928 0.40941 0.14849 0.0
H683 H 1.01853 0.41888 0.17473 0.0
C684 C 1.05283 0.48595 0.16652 0.0
C685 C 1.05036 0.52125 0.15856 0.0
C686 C 0.89237 0.38675 0.15805 0.0
C687 C 0.97446 0.43874 0.1621 0.0
C688 C 0.85459 0.34831 0.16359 0.0
C689 C 0.85786 0.31882 0.17638 0.0
C690 C 0.93362 0.396 0.16546 0.0
C691 C 0.89995 0.32803 0.1823 0.0
C692 C 1.01536 0.44509 0.16829 0.0
C693 C 1.0089 0.51339 0.15213 0.0
N694 N 0.93581 0.36571 0.17701 0.0
N695 N 0.97269 0.47318 0.15412 0.0
H696 H 0.17287 0.57944 0.0958 0.0
H697 H 0.14128 0.67992 0.99488 0.0
H698 H 0.16688 0.69808 0.09277 0.0
H699 H 0.16643 0.57267 0.99503 0.0
H700 H 0.14955 0.68547 0.03107 0.0
H701 H 0.16989 0.57484 0.05919 0.0
C702 C 0.1711 0.60456 0.08748 0.0
C703 C 0.16998 0.63912 0.0974 0.0
C704 C 0.15342 0.66074 0.02326 0.0
C705 C 0.16641 0.63396 0.05565 0.0
C706 C 0.14845 0.65742 0.00258 0.0
C707 C 0.15282 0.62556 0.99196 0.0
C708 C 0.16261 0.63182 0.03354 0.0
C709 C 0.16294 0.59779 0.00268 0.0
C710 C 0.16945 0.60193 0.0666 0.0
C711 C 0.16774 0.67077 0.08585 0.0
N712 N 0.16721 0.60135 0.02294 0.0
N713 N 0.16585 0.6673 0.06567 0.0
H714 H 0.72965 0.13135 0.42832 0.0
H715 H 0.59972 0.124 0.32815 0.0
H716 H 0.60196 0.1185 0.42635 0.0
H717 H 0.73068 0.14563 0.32807 0.0
H718 H 0.60167 0.12382 0.36443 0.0
H719 H 0.73227 0.13803 0.39192 0.0
C720 C 0.70221 0.12994 0.42027 0.0
C721 C 0.66543 0.12413 0.43043 0.0
C722 C 0.63015 0.12879 0.35657 0.0
C723 C 0.6683 0.13188 0.38889 0.0
C724 C 0.62897 0.12875 0.33583 0.0
C725 C 0.66493 0.13439 0.3251 0.0
C726 C 0.66752 0.13428 0.3668 0.0
C727 C 0.70229 0.14124 0.33581 0.0
C728 C 0.70379 0.13386 0.39952 0.0
C729 C 0.63094 0.12276 0.41923 0.0
N730 N 0.70252 0.14063 0.35612 0.0
N731 N 0.63322 0.12647 0.39913 0.0
H732 H 0.70182 0.67562 0.76406 0.0
H733 H 0.59973 0.54428 0.66106 0.0
H734 H 0.58394 0.55035 0.75877 0.0
H735 H 0.70724 0.67654 0.66357 0.0
H736 H 0.5943 0.54683 0.69714 0.0
H737 H 0.70513 0.67783 0.72754 0.0
C738 C 0.67657 0.64872 0.75526 0.0
C739 C 0.64271 0.61262 0.76454 0.0
C740 C 0.61904 0.57544 0.68986 0.0
C741 C 0.64639 0.6149 0.72286 0.0
C742 C 0.6223 0.57388 0.66925 0.0
C743 C 0.65423 0.61011 0.65933 0.0
C744 C 0.64812 0.61344 0.70078 0.0
C745 C 0.68208 0.64792 0.67066 0.0
C746 C 0.67847 0.65003 0.73443 0.0
C747 C 0.61082 0.57878 0.75237 0.0
N748 N 0.67861 0.64853 0.69083 0.0
N749 N 0.6136 0.58068 0.73224 0.0
H750 H 0.58291 1.04966 0.55134 0.0
H751 H 0.68002 0.13959 0.66011 0.0
H752 H 0.70865 0.16541 0.56072 0.0
H753 H 0.54199 1.06217 0.64656 0.0
H754 H 0.69372 0.14607 0.62438 0.0
H755 H 0.5703 1.04897 0.5869 0.0
C756 C 0.60803 1.07489 0.5609 0.0
C757 C 0.647 0.10764 0.55305 0.0
C758 C 0.66047 0.12793 0.62929 0.0
C759 C 0.6326 0.10691 0.59389 0.0
C760 C 0.65251 0.12437 0.64969 0.0
C761 C 0.6097 0.10004 0.65647 0.0
C762 C 0.62548 0.10652 0.61557 0.0
C763 C 0.57557 0.08043 0.64215 0.0
C764 C 0.60062 1.0746 0.5812 0.0
C765 C 0.67816 0.13961 0.56618 0.0
N766 N 0.58424 0.08381 0.62242 0.0
N767 N 0.67041 0.13831 0.58604 0.0
H768 H 0.62406 0.63673 0.89486 0.0
H769 H 0.55175 0.4449 0.97254 0.0
H770 H 0.62752 0.51822 0.88351 0.0
H771 H 0.59395 0.57727 0.99174 0.0
H772 H 0.56839 0.46928 0.93837 0.0
H773 H 0.60357 0.61389 0.92936 0.0
C774 C 0.62068 0.60609 0.89962 0.0
C775 C 0.62762 0.57942 0.8863 0.0
C776 C 0.57391 0.493 0.95006 0.0
C777 C 0.60356 0.55292 0.9254 0.0
C778 C 0.56451 0.47912 0.9696 0.0
C779 C 0.57202 0.50914 0.98514 0.0
C780 C 0.59064 0.53721 0.94588 0.0
C781 C 0.58744 0.5529 0.98025 0.0
C782 C 0.60899 0.59311 0.91925 0.0
C783 C 0.62271 0.53998 0.89322 0.0
N784 N 0.59644 0.5657 0.96103 0.0
N785 N 0.61076 0.52788 0.91222 0.0
H786 H 0.22783 0.67673 0.22635 0.0
H787 H 1.06997 0.60764 0.31864 0.0
H788 H 1.08924 0.62624 0.22034 0.0
H789 H 0.20821 0.69812 0.32494 0.0
H790 H 1.07713 0.60753 0.28262 0.0
H791 H 0.222 0.67787 0.26272 0.0
C792 C 0.19622 0.66586 0.23267 0.0
C793 C 0.15898 0.65148 0.22032 0.0
C794 C 1.10588 0.62752 0.29189 0.0
C795 C 0.1521 0.65241 0.26173 0.0
C796 C 1.1018 0.62788 0.3125 0.0
C797 C 0.13849 0.65324 0.32495 0.0
C798 C 0.147 0.65226 0.28358 0.0
C799 C 0.17908 0.6777 0.31601 0.0
C800 C 0.19296 0.66666 0.25338 0.0
C801 C 0.11885 0.63779 0.22928 0.0
N802 N 0.18227 0.67652 0.29587 0.0
N803 N 0.11645 0.63842 0.24943 0.0
loop_
_geom_bond_atom_site_label_1
_geom_bond_atom_site_label_2
_geom_bond_distance
_geom_bond_site_symmetry_2
_ccdc_geom_bond_type
Tb0 C10 2.825 . S
Tb0 O11 2.347 . S
Tb0 O14 2.366 . S
Tb0 O19 2.418 . S
Tb0 O20 2.384 1_455 S
Tb0 O23 2.479 . S
Tb0 O24 2.471 . S
Eu1 O12 2.408 1_655 S
Eu1 O13 2.357 1_655 S
Eu1 O16 2.509 . S
Eu1 O17 2.499 . S
Eu1 O18 2.332 1_655 S
Eu1 O21 2.371 . S
Eu1 C31 2.857 . S
C2 O18 1.259 . S
C2 O19 1.265 . S
C3 O20 1.255 . S
C3 O21 1.265 . S
C4 C6 1.380 . S
C4 C7 1.374 . S
C4 C10 1.507 . S
C5 C6 1.384 . S
C5 C9 1.387 . S
C5 H32 0.930 . S
C6 C4 1.380 . S
C6 C5 1.384 . S
C6 H33 0.931 . S
C7 C4 1.374 . S
C7 C8 1.390 . S
C7 H34 0.930 . S
C8 C7 1.390 . S
C8 C9 1.391 . S
C8 H35 0.930 . S
C9 C5 1.387 . S
C9 C8 1.391 . S
C10 Tb0 2.825 . S
C10 C4 1.507 . S
C10 O23 1.238 . S
C10 O24 1.247 . S
O11 Tb0 2.347 . S
O11 C15 1.259 . S
O12 Eu1 2.408 1_455 S
O12 C15 1.278 . S
O13 Eu1 2.357 1_455 S
O13 C22 1.255 . S
O14 Tb0 2.366 . S
O14 C22 1.265 . S
C15 O11 1.259 . S
C15 O12 1.278 . S
O16 Eu1 2.509 . S
O16 C31 1.238 . S
O17 Eu1 2.499 . S
O17 C31 1.247 . S
O18 Eu1 2.332 1_455 S
O18 C2 1.259 . S
O19 Tb0 2.418 . S
O19 C2 1.265 . S
O20 Tb0 2.384 1_655 S
O20 C3 1.255 . S
O21 Eu1 2.371 . S
O21 C3 1.265 . S
C22 O13 1.255 . S
C22 O14 1.265 . S
O23 Tb0 2.479 . S
O23 C10 1.238 . S
O24 Tb0 2.471 . S
O24 C10 1.247 . S
C25 C28 1.380 . S
C25 C29 1.374 . S
C25 C31 1.507 . S
C26 C27 1.387 . S
C26 C30 1.391 . S
C27 C26 1.387 . S
C27 C28 1.384 . S
C27 H36 0.930 . S
C28 C25 1.380 . S
C28 C27 1.384 . S
C28 H37 0.931 . S
C29 C25 1.374 . S
C29 C30 1.390 . S
C29 H38 0.930 . S
C30 C26 1.391 . S
C30 C29 1.390 . S
C30 H39 0.930 . S
C31 Eu1 2.857 . S
C31 O16 1.238 . S
C31 O17 1.247 . S
C31 C25 1.507 . S
H32 C5 0.930 . S
H33 C6 0.931 . S
H34 C7 0.930 . S
H35 C8 0.930 . S
H36 C27 0.930 . S
H37 C28 0.931 . S
H38 C29 0.930 . S
H39 C30 0.930 . S
Tb40 C50 2.825 . S
Tb40 O51 2.347 . S
Tb40 O54 2.366 . S
Tb40 O59 2.418 . S
Tb40 O60 2.384 1_545 S
Tb40 O63 2.479 . S
Tb40 O64 2.471 . S
Eu41 O52 2.418 . S
Eu41 O53 2.384 . S
Eu41 O56 2.479 1_545 S
Eu41 O57 2.471 1_545 S
Eu41 O58 2.347 . S
Eu41 O61 2.366 1_545 S
Eu41 C71 2.825 1_545 S
C42 O58 1.259 . S
C42 O59 1.265 . S
C43 O60 1.255 . S
C43 O61 1.265 . S
C44 C46 1.380 . S
C44 C47 1.374 . S
C44 C50 1.507 . S
C45 C46 1.384 . S
C45 C49 1.387 . S
C45 H72 0.930 . S
C46 C44 1.380 . S
C46 C45 1.384 . S
C46 H73 0.931 . S
C47 C44 1.374 . S
C47 C48 1.390 . S
C47 H74 0.930 . S
C48 C47 1.390 . S
C48 C49 1.391 . S
C48 H75 0.930 . S
C49 C45 1.387 . S
C49 C48 1.391 . S
C50 Tb40 2.825 . S
C50 C44 1.507 . S
C50 O63 1.238 . S
C50 O64 1.247 . S
O51 Tb40 2.347 . S
O51 C55 1.259 . S
O52 Eu41 2.418 . S
O52 C55 1.265 . S
O53 Eu41 2.384 . S
O53 C62 1.255 . S
O54 Tb40 2.366 . S
O54 C62 1.265 . S
C55 O51 1.259 . S
C55 O52 1.265 . S
O56 Eu41 2.479 1_565 S
O56 C71 1.238 . S
O57 Eu41 2.471 1_565 S
O57 C71 1.247 . S
O58 Eu41 2.347 . S
O58 C42 1.259 . S
O59 Tb40 2.418 . S
O59 C42 1.265 . S
O60 Tb40 2.384 1_565 S
O60 C43 1.255 . S
O61 Eu41 2.366 1_565 S
O61 C43 1.265 . S
C62 O53 1.255 . S
C62 O54 1.265 . S
O63 Tb40 2.479 . S
O63 C50 1.238 . S
O64 Tb40 2.471 . S
O64 C50 1.247 . S
C65 C68 1.380 . S
C65 C69 1.374 . S
C65 C71 1.507 . S
C66 C67 1.387 . S
C66 C70 1.391 . S
C67 C66 1.387 . S
C67 C68 1.384 . S
C67 H76 0.930 . S
C68 C65 1.380 . S
C68 C67 1.384 . S
C68 H77 0.931 . S
C69 C65 1.374 . S
C69 C70 1.390 . S
C69 H78 0.930 . S
C70 C66 1.391 . S
C70 C69 1.390 . S
C70 H79 0.930 . S
C71 Eu41 2.825 1_565 S
C71 O56 1.238 . S
C71 O57 1.247 . S
C71 C65 1.507 . S
H72 C45 0.930 . S
H73 C46 0.931 . S
H74 C47 0.930 . S
H75 C48 0.930 . S
H76 C67 0.930 . S
H77 C68 0.931 . S
H78 C69 0.930 . S
H79 C70 0.930 . S
Tb80 C90 2.825 . S
Tb80 O91 2.347 . S
Tb80 O94 2.366 . S
Tb80 O99 2.418 . S
Tb80 O100 2.384 . S
Tb80 O103 2.479 . S
Tb80 O104 2.471 . S
Eu81 O92 2.418 . S
Eu81 O93 2.384 . S
Eu81 O96 2.479 . S
Eu81 O97 2.471 . S
Eu81 O98 2.347 . S
Eu81 O101 2.366 . S
Eu81 C111 2.825 . S
C82 O98 1.259 . S
C82 O99 1.265 . S
C83 O100 1.255 . S
C83 O101 1.265 . S
C84 C86 1.380 . S
C84 C87 1.374 . S
C84 C90 1.507 . S
C85 C86 1.384 . S
C85 C89 1.387 . S
C85 H112 0.930 . S
C86 C84 1.380 . S
C86 C85 1.384 . S
C86 H113 0.931 . S
C87 C84 1.374 . S
C87 C88 1.390 . S
C87 H114 0.930 . S
C88 C87 1.390 . S
C88 C89 1.391 . S
C88 H115 0.930 . S
C89 C85 1.387 . S
C89 C88 1.391 . S
C90 Tb80 2.825 . S
C90 C84 1.507 . S
C90 O103 1.238 . S
C90 O104 1.247 . S
O91 Tb80 2.347 . S
O91 C95 1.259 . S
O92 Eu81 2.418 . S
O92 C95 1.265 . S
O93 Eu81 2.384 . S
O93 C102 1.255 . S
O94 Tb80 2.366 . S
O94 C102 1.265 . S
C95 O91 1.259 . S
C95 O92 1.265 . S
O96 Eu81 2.479 . S
O96 C111 1.238 . S
O97 Eu81 2.471 . S
O97 C111 1.247 . S
O98 Eu81 2.347 . S
O98 C82 1.259 . S
O99 Tb80 2.418 . S
O99 C82 1.265 . S
O100 Tb80 2.384 . S
O100 C83 1.255 . S
O101 Eu81 2.366 . S
O101 C83 1.265 . S
C102 O93 1.255 . S
C102 O94 1.265 . S
O103 Tb80 2.479 . S
O103 C90 1.238 . S
O104 Tb80 2.471 . S
O104 C90 1.247 . S
C105 C108 1.380 . S
C105 C109 1.374 . S
C105 C111 1.507 . S
C106 C107 1.387 . S
C106 C110 1.391 . S
C107 C106 1.387 . S
C107 C108 1.384 . S
C107 H116 0.930 . S
C108 C105 1.380 . S
C108 C107 1.384 . S
C108 H117 0.931 . S
C109 C105 1.374 . S
C109 C110 1.390 . S
C109 H118 0.930 . S
C110 C106 1.391 . S
C110 C109 1.390 . S
C110 H119 0.930 . S
C111 Eu81 2.825 . S
C111 O96 1.238 . S
C111 O97 1.247 . S
C111 C105 1.507 . S
H112 C85 0.930 . S
H113 C86 0.931 . S
H114 C87 0.930 . S
H115 C88 0.930 . S
H116 C107 0.930 . S
H117 C108 0.931 . S
H118 C109 0.930 . S
H119 C110 0.930 . S
C120 C121 1.391 . S
C120 C124 1.391 . S
C120 H162 0.948 . S
C121 C120 1.391 . S
C121 C122 1.391 . S
C122 C121 1.391 . S
C122 H178 0.947 . S
C122 C179 1.392 . S
C123 C124 1.391 . S
C123 C127 1.397 . S
C123 C179 1.419 . S
C124 C120 1.391 . S
C124 C123 1.391 . S
C124 C125 1.399 . S
C125 C124 1.399 . S
C125 C128 1.396 . S
C125 C137 1.453 . S
C125 C138 1.684 . S
H126 C150 0.948 . S
C127 C123 1.397 . S
C127 C128 1.394 . S
C127 C146 1.723 . S
C128 C125 1.396 . S
C128 C127 1.394 . S
C128 C158 1.723 1_545 S
H129 C152 0.947 . S
H130 C153 0.948 . S
H131 C159 0.982 . S
H132 C160 0.979 . S
H133 C160 0.980 . S
H134 C160 0.983 . S
H135 C159 0.979 . S
H136 C159 0.977 . S
C137 C125 1.453 . S
C137 H166 0.982 . S
C137 H167 0.979 . S
C137 H168 0.977 1_545 S
C138 C125 1.684 . S
C138 H163 0.979 . S
C138 H164 0.980 . S
C138 H165 0.983 . S
C139 C140 1.391 . S
C139 C144 1.391 . S
C139 H169 0.948 . S
C140 C139 1.391 . S
C140 C141 1.391 1_545 S
C141 C140 1.391 1_565 S
C141 C142 1.392 . S
C141 H170 0.947 . S
C142 C141 1.392 . S
C142 C143 1.419 1_565 S
C142 H171 0.948 . S
C143 C142 1.419 1_545 S
C143 C144 1.391 . S
C143 C147 1.397 . S
C144 C139 1.391 . S
C144 C143 1.391 . S
C144 C145 1.399 . S
C145 C144 1.399 . S
C145 C146 1.396 . S
C145 C148 1.453 . S
C145 C149 1.684 . S
C146 C127 1.723 . S
C146 C145 1.396 . S
C146 C147 1.394 . S
C147 C143 1.397 . S
C147 C146 1.394 . S
C147 C157 1.723 1_545 S
C148 C145 1.453 . S
C148 H172 0.982 . S
C148 H173 0.979 . S
C148 H174 0.977 . S
C149 C145 1.684 . S
C149 H175 0.979 . S
C149 H176 0.980 . S
C149 H177 0.983 . S
C150 H126 0.948 . S
C150 C151 1.391 . S
C150 C155 1.391 . S
C151 C150 1.391 . S
C151 C152 1.391 . S
C152 H129 0.947 . S
C152 C151 1.391 . S
C152 C153 1.392 . S
C153 H130 0.948 . S
C153 C152 1.392 . S
C153 C154 1.419 . S
C154 C153 1.419 . S
C154 C155 1.391 . S
C154 C158 1.397 . S
C155 C150 1.391 . S
C155 C154 1.391 . S
C155 C156 1.399 . S
C156 C155 1.399 . S
C156 C157 1.396 . S
C156 C159 1.453 . S
C156 C160 1.684 . S
C157 C147 1.723 1_565 S
C157 C156 1.396 . S
C157 C158 1.394 . S
C158 C128 1.723 1_565 S
C158 C154 1.397 . S
C158 C157 1.394 . S
C159 H131 0.982 . S
C159 H135 0.979 . S
C159 H136 0.977 . S
C159 C156 1.453 . S
C160 H132 0.979 . S
C160 H133 0.980 . S
C160 H134 0.983 . S
C160 C156 1.684 . S
H161 C179 0.948 . S
H162 C120 0.948 . S
H163 C138 0.979 . S
H164 C138 0.980 . S
H165 C138 0.983 . S
H166 C137 0.982 . S
H167 C137 0.979 . S
H168 C137 0.977 1_565 S
H169 C139 0.948 . S
H170 C141 0.947 . S
H171 C142 0.948 . S
H172 C148 0.982 . S
H173 C148 0.979 . S
H174 C148 0.977 . S
H175 C149 0.979 . S
H176 C149 0.980 . S
H177 C149 0.983 . S
H178 C122 0.947 . S
C179 C122 1.392 . S
C179 C123 1.419 . S
C179 H161 0.948 . S
C180 C181 1.391 . S
C180 C184 1.391 . S
C180 H222 0.948 . S
C181 C180 1.391 . S
C181 C182 1.391 . S
C182 C181 1.391 . S
C182 H238 0.947 . S
C182 C239 1.392 . S
C183 C184 1.391 . S
C183 C187 1.397 . S
C183 C239 1.419 . S
C184 C180 1.391 . S
C184 C183 1.391 . S
C184 C185 1.399 . S
C185 C184 1.399 . S
C185 C188 1.396 . S
C185 C197 1.453 . S
C185 C198 1.684 . S
H186 C210 0.948 . S
C187 C183 1.397 . S
C187 C188 1.394 . S
C187 C206 1.723 . S
C188 C185 1.396 . S
C188 C187 1.394 . S
C188 C218 1.723 . S
H189 C212 0.947 . S
H190 C213 0.948 . S
H191 C219 0.982 . S
H192 C220 0.979 . S
H193 C220 0.980 . S
H194 C220 0.983 . S
H195 C219 0.979 . S
H196 C219 0.977 . S
C197 C185 1.453 . S
C197 H226 0.982 . S
C197 H227 0.979 . S
C197 H228 0.977 . S
C198 C185 1.684 . S
C198 H223 0.979 . S
C198 H224 0.980 . S
C198 H225 0.983 . S
C199 C200 1.391 . S
C199 C204 1.391 . S
C199 H229 0.948 . S
C200 C199 1.391 . S
C200 C201 1.391 . S
C201 C200 1.391 . S
C201 C202 1.392 . S
C201 H230 0.947 . S
C202 C201 1.392 . S
C202 C203 1.419 . S
C202 H231 0.948 . S
C203 C202 1.419 . S
C203 C204 1.391 . S
C203 C207 1.397 . S
C204 C199 1.391 . S
C204 C203 1.391 . S
C204 C205 1.399 . S
C205 C204 1.399 . S
C205 C206 1.396 . S
C205 C208 1.453 . S
C205 C209 1.684 . S
C206 C187 1.723 . S
C206 C205 1.396 . S
C206 C207 1.394 . S
C207 C203 1.397 . S
C207 C206 1.394 . S
C207 C217 1.723 . S
C208 C205 1.453 . S
C208 H232 0.982 . S
C208 H233 0.979 . S
C208 H234 0.977 . S
C209 C205 1.684 . S
C209 H235 0.979 . S
C209 H236 0.980 . S
C209 H237 0.983 . S
C210 H186 0.948 . S
C210 C211 1.391 . S
C210 C215 1.391 . S
C211 C210 1.391 . S
C211 C212 1.391 . S
C212 H189 0.947 . S
C212 C211 1.391 . S
C212 C213 1.392 . S
C213 H190 0.948 . S
C213 C212 1.392 . S
C213 C214 1.419 . S
C214 C213 1.419 . S
C214 C215 1.391 . S
C214 C218 1.397 . S
C215 C210 1.391 . S
C215 C214 1.391 . S
C215 C216 1.399 . S
C216 C215 1.399 . S
C216 C217 1.396 . S
C216 C219 1.453 . S
C216 C220 1.684 . S
C217 C207 1.723 . S
C217 C216 1.396 . S
C217 C218 1.394 . S
C218 C188 1.723 . S
C218 C214 1.397 . S
C218 C217 1.394 . S
C219 H191 0.982 . S
C219 H195 0.979 . S
C219 H196 0.977 . S
C219 C216 1.453 . S
C220 H192 0.979 . S
C220 H193 0.980 . S
C220 H194 0.983 . S
C220 C216 1.684 . S
H221 C239 0.948 . S
H222 C180 0.948 . S
H223 C198 0.979 . S
H224 C198 0.980 . S
H225 C198 0.983 . S
H226 C197 0.982 . S
H227 C197 0.979 . S
H228 C197 0.977 . S
H229 C199 0.948 . S
H230 C201 0.947 . S
H231 C202 0.948 . S
H232 C208 0.982 . S
H233 C208 0.979 . S
H234 C208 0.977 . S
H235 C209 0.979 . S
H236 C209 0.980 . S
H237 C209 0.983 . S
H238 C182 0.947 . S
C239 C182 1.392 . S
C239 C183 1.419 . S
C239 H221 0.948 . S
C240 C241 1.391 . S
C240 C244 1.391 . S
C240 H282 0.948 . S
C241 C240 1.391 . S
C241 C242 1.391 . S
C242 C241 1.391 . S
C242 H298 0.947 . S
C242 C299 1.392 . S
C243 C244 1.391 . S
C243 C247 1.397 . S
C243 C299 1.419 . S
C244 C240 1.391 . S
C244 C243 1.391 . S
C244 C245 1.399 . S
C245 C244 1.399 . S
C245 C248 1.396 . S
C245 C257 1.453 . S
C245 C258 1.684 . S
H246 C270 0.948 . S
C247 C243 1.397 . S
C247 C248 1.394 . S
C247 C266 1.723 . S
C248 C245 1.396 . S
C248 C247 1.394 . S
C248 C278 1.723 1_455 S
H249 C272 0.947 . S
H250 C273 0.948 . S
H251 C279 0.982 . S
H252 C280 0.979 . S
H253 C280 0.980 . S
H254 C280 0.983 . S
H255 C279 0.979 . S
H256 C279 0.977 . S
C257 C245 1.453 . S
C257 H286 0.982 . S
C257 H287 0.979 . S
C257 H288 0.959 1_455 S
C258 C245 1.684 . S
C258 H283 0.979 . S
C258 H284 0.980 . S
C258 H285 0.983 . S
C259 C260 1.391 . S
C259 C264 1.391 . S
C259 H289 0.948 . S
C260 C259 1.391 . S
C260 C261 1.391 1_455 S
C261 C260 1.391 1_655 S
C261 C262 1.392 . S
C261 H290 0.947 . S
C262 C261 1.392 . S
C262 C263 1.419 1_655 S
C262 H291 0.948 . S
C263 C262 1.419 1_455 S
C263 C264 1.391 . S
C263 C267 1.397 . S
C264 C259 1.391 . S
C264 C263 1.391 . S
C264 C265 1.399 . S
C265 C264 1.399 . S
C265 C266 1.396 . S
C265 C268 1.453 . S
C265 C269 1.684 . S
C266 C247 1.723 . S
C266 C265 1.396 . S
C266 C267 1.394 . S
C267 C263 1.397 . S
C267 C266 1.394 . S
C267 C277 1.723 1_455 S
C268 C265 1.453 . S
C268 H292 0.982 . S
C268 H293 0.979 . S
C268 H294 0.977 . S
C269 C265 1.684 . S
C269 H295 0.979 . S
C269 H296 0.980 . S
C269 H297 0.983 . S
C270 H246 0.948 . S
C270 C271 1.391 . S
C270 C275 1.391 . S
C271 C270 1.391 . S
C271 C272 1.391 . S
C272 H249 0.947 . S
C272 C271 1.391 . S
C272 C273 1.392 . S
C273 H250 0.948 . S
C273 C272 1.392 . S
C273 C274 1.419 . S
C274 C273 1.419 . S
C274 C275 1.391 . S
C274 C278 1.397 . S
C275 C270 1.391 . S
C275 C274 1.391 . S
C275 C276 1.399 . S
C276 C275 1.399 . S
C276 C277 1.396 . S
C276 C279 1.453 . S
C276 C280 1.684 . S
C277 C267 1.723 1_655 S
C277 C276 1.396 . S
C277 C278 1.394 . S
C278 C248 1.723 1_655 S
C278 C274 1.397 . S
C278 C277 1.394 . S
C279 H251 0.982 . S
C279 H255 0.979 . S
C279 H256 0.977 . S
C279 C276 1.453 . S
C280 H252 0.979 . S
C280 H253 0.980 . S
C280 H254 0.983 . S
C280 C276 1.684 . S
H281 C299 0.948 . S
H282 C240 0.948 . S
H283 C258 0.979 . S
H284 C258 0.980 . S
H285 C258 0.983 . S
H286 C257 0.982 . S
H287 C257 0.979 . S
H288 C257 0.959 1_655 S
H289 C259 0.948 . S
H290 C261 0.947 . S
H291 C262 0.948 . S
H292 C268 0.982 . S
H293 C268 0.979 . S
H294 C268 0.977 . S
H295 C269 0.979 . S
H296 C269 0.980 . S
H297 C269 0.983 . S
H298 C242 0.947 . S
C299 C242 1.392 . S
C299 C243 1.419 . S
C299 H281 0.948 . S
C300 C301 1.391 . S
C300 C304 1.391 . S
C300 H342 0.948 . S
C301 C300 1.391 . S
C301 C302 1.391 . S
C302 C301 1.391 . S
C302 H358 0.947 . S
C302 C359 1.392 . S
C303 C304 1.391 . S
C303 C307 1.397 . S
C303 C359 1.419 . S
C304 C300 1.391 . S
C304 C303 1.391 . S
C304 C305 1.399 . S
C305 C304 1.399 . S
C305 C308 1.396 . S
C305 C317 1.453 1_655 S
C305 C318 1.684 . S
H306 C330 0.948 . S
C307 C303 1.397 . S
C307 C308 1.394 . S
C307 C326 1.723 . S
C308 C305 1.396 . S
C308 C307 1.394 . S
C308 C338 1.723 1_655 S
H309 C332 0.947 . S
H310 C333 0.948 . S
H311 C339 0.982 . S
H312 C340 0.979 . S
H313 C340 0.980 . S
H314 C340 0.983 . S
H315 C339 0.979 . S
H316 C339 0.977 . S
C317 C305 1.453 1_455 S
C317 H346 0.982 . S
C317 H347 0.979 1_455 S
C317 H348 0.977 . S
C318 C305 1.684 . S
C318 H343 0.979 . S
C318 H344 0.991 . S
C318 H345 0.983 . S
C319 C320 1.391 1_655 S
C319 C324 1.391 . S
C319 H349 0.948 . S
C320 C319 1.391 1_455 S
C320 C321 1.391 . S
C321 C320 1.391 . S
C321 C322 1.392 . S
C321 H350 0.947 . S
C322 C321 1.392 . S
C322 C323 1.419 . S
C322 H351 0.948 . S
C323 C322 1.419 . S
C323 C324 1.391 1_455 S
C323 C327 1.397 . S
C324 C319 1.391 . S
C324 C323 1.391 1_655 S
C324 C325 1.399 . S
C325 C324 1.399 . S
C325 C326 1.396 . S
C325 C328 1.453 . S
C325 C329 1.684 . S
C326 C307 1.723 . S
C326 C325 1.396 . S
C326 C327 1.394 1_655 S
C327 C323 1.397 . S
C327 C326 1.394 1_455 S
C327 C337 1.723 . S
C328 C325 1.453 . S
C328 H352 0.982 . S
C328 H353 0.979 . S
C328 H354 0.977 . S
C329 C325 1.684 . S
C329 H355 0.979 . S
C329 H356 0.980 . S
C329 H357 0.983 . S
C330 H306 0.948 . S
C330 C331 1.391 . S
C330 C335 1.391 . S
C331 C330 1.391 . S
C331 C332 1.391 . S
C332 H309 0.947 . S
C332 C331 1.391 . S
C332 C333 1.392 . S
C333 H310 0.948 . S
C333 C332 1.392 . S
C333 C334 1.419 . S
C334 C333 1.419 . S
C334 C335 1.391 . S
C334 C338 1.397 . S
C335 C330 1.391 . S
C335 C334 1.391 . S
C335 C336 1.399 . S
C336 C335 1.399 . S
C336 C337 1.396 . S
C336 C339 1.453 . S
C336 C340 1.684 . S
C337 C327 1.723 . S
C337 C336 1.396 . S
C337 C338 1.394 . S
C338 C308 1.723 1_455 S
C338 C334 1.397 . S
C338 C337 1.394 . S
C339 H311 0.982 . S
C339 H315 0.979 . S
C339 H316 0.977 . S
C339 C336 1.453 . S
C340 H312 0.979 . S
C340 H313 0.980 . S
C340 H314 0.983 . S
C340 C336 1.684 . S
H341 C359 0.948 . S
H342 C300 0.948 . S
H343 C318 0.979 . S
H344 C318 0.991 . S
H345 C318 0.983 . S
H346 C317 0.982 . S
H347 C317 0.979 1_655 S
H348 C317 0.977 . S
H349 C319 0.948 . S
H350 C321 0.947 . S
H351 C322 0.948 . S
H352 C328 0.982 . S
H353 C328 0.979 . S
H354 C328 0.977 . S
H355 C329 0.979 . S
H356 C329 0.980 . S
H357 C329 0.983 . S
H358 C302 0.947 . S
C359 C302 1.392 . S
C359 C303 1.419 . S
C359 H341 0.948 . S
C360 C361 1.391 . S
C360 C364 1.391 . S
C360 H402 0.948 . S
C361 C360 1.391 . S
C361 C362 1.391 . S
C362 C361 1.391 . S
C362 H418 0.947 . S
C362 C419 1.392 . S
C363 C364 1.391 . S
C363 C367 1.397 . S
C363 C419 1.419 . S
C364 C360 1.391 . S
C364 C363 1.391 . S
C364 C365 1.399 . S
C365 C364 1.399 . S
C365 C368 1.396 . S
C365 C377 1.453 . S
C365 C378 1.684 . S
H366 C390 0.948 . S
C367 C363 1.397 . S
C367 C368 1.394 . S
C367 C386 1.723 . S
C368 C365 1.396 . S
C368 C367 1.394 . S
C368 C398 1.723 1_565 S
H369 C392 0.947 . S
H370 C393 0.948 . S
H371 C399 0.982 . S
H372 C400 0.979 . S
H373 C400 0.980 . S
H374 C400 0.983 . S
H375 C399 0.979 . S
H376 C399 0.977 . S
C377 C365 1.453 . S
C377 H406 0.982 1_565 S
C377 H407 0.979 . S
C377 H408 0.977 1_565 S
C378 C365 1.684 . S
C378 H403 0.979 . S
C378 H404 0.980 . S
C378 H405 0.983 . S
C379 C380 1.391 1_565 S
C379 C384 1.391 . S
C379 H409 0.948 . S
C380 C379 1.391 1_545 S
C380 C381 1.391 . S
C381 C380 1.391 . S
C381 C382 1.392 . S
C381 H410 0.947 . S
C382 C381 1.392 . S
C382 C383 1.419 . S
C382 H411 0.948 . S
C383 C382 1.419 . S
C383 C384 1.391 1_545 S
C383 C387 1.397 . S
C384 C379 1.391 . S
C384 C383 1.391 1_565 S
C384 C385 1.399 . S
C385 C384 1.399 . S
C385 C386 1.396 . S
C385 C388 1.453 . S
C385 C389 1.684 . S
C386 C367 1.723 . S
C386 C385 1.396 . S
C386 C387 1.394 1_565 S
C387 C383 1.397 . S
C387 C386 1.394 1_545 S
C387 C397 1.723 . S
C388 C385 1.453 . S
C388 H412 0.982 . S
C388 H413 0.979 . S
C388 H414 0.977 . S
C389 C385 1.684 . S
C389 H415 0.979 . S
C389 H416 0.980 . S
C389 H417 0.983 . S
C390 H366 0.948 . S
C390 C391 1.391 . S
C390 C395 1.391 . S
C391 C390 1.391 . S
C391 C392 1.391 . S
C392 H369 0.947 . S
C392 C391 1.391 . S
C392 C393 1.392 . S
C393 H370 0.948 . S
C393 C392 1.392 . S
C393 C394 1.419 . S
C394 C393 1.419 . S
C394 C395 1.391 . S
C394 C398 1.397 . S
C395 C390 1.391 . S
C395 C394 1.391 . S
C395 C396 1.399 . S
C396 C395 1.399 . S
C396 C397 1.396 . S
C396 C399 1.453 . S
C396 C400 1.684 . S
C397 C387 1.723 . S
C397 C396 1.396 . S
C397 C398 1.394 . S
C398 C368 1.723 1_545 S
C398 C394 1.397 . S
C398 C397 1.394 . S
C399 H371 0.982 . S
C399 H375 0.979 . S
C399 H376 0.977 . S
C399 C396 1.453 . S
C400 H372 0.979 . S
C400 H373 0.980 . S
C400 H374 0.983 . S
C400 C396 1.684 . S
H401 C419 0.948 . S
H402 C360 0.948 . S
H403 C378 0.979 . S
H404 C378 0.980 . S
H405 C378 0.983 . S
H406 C377 0.982 1_545 S
H407 C377 0.979 . S
H408 C377 0.977 1_545 S
H409 C379 0.948 . S
H410 C381 0.947 . S
H411 C382 0.948 . S
H412 C388 0.982 . S
H413 C388 0.979 . S
H414 C388 0.977 . S
H415 C389 0.979 . S
H416 C389 0.980 . S
H417 C389 0.983 . S
H418 C362 0.947 . S
C419 C362 1.392 . S
C419 C363 1.419 . S
C419 H401 0.948 . S
C420 C421 1.391 . S
C420 C424 1.391 . S
C420 H462 0.948 . S
C421 C420 1.391 . S
C421 C422 1.391 . S
C422 C421 1.391 . S
C422 H478 0.947 . S
C422 C479 1.392 . S
C423 C424 1.391 . S
C423 C427 1.397 . S
C423 C479 1.419 . S
C424 C420 1.391 . S
C424 C423 1.391 . S
C424 C425 1.399 . S
C425 C424 1.399 . S
C425 C428 1.396 . S
C425 C437 1.453 . S
C425 C438 1.684 . S
H426 C450 0.948 . S
C427 C423 1.397 . S
C427 C428 1.394 . S
C427 C446 1.723 . S
C428 C425 1.396 . S
C428 C427 1.394 . S
C428 C458 1.723 . S
H429 C452 0.947 . S
H430 C453 0.948 . S
H431 C459 0.982 . S
H432 C460 0.979 . S
H433 C460 0.980 . S
H434 C460 0.983 . S
H435 C459 0.979 . S
H436 C459 0.977 . S
C437 C425 1.453 . S
C437 H466 0.982 . S
C437 H467 0.979 . S
C437 H468 0.977 . S
C438 C425 1.684 . S
C438 H463 0.979 . S
C438 H464 0.980 . S
C438 H465 0.983 . S
C439 C440 1.391 . S
C439 C444 1.391 . S
C439 H469 0.948 . S
C440 C439 1.391 . S
C440 C441 1.391 . S
C441 C440 1.391 . S
C441 C442 1.392 . S
C441 H470 0.947 . S
C442 C441 1.392 . S
C442 C443 1.419 . S
C442 H471 0.948 . S
C443 C442 1.419 . S
C443 C444 1.391 . S
C443 C447 1.397 . S
C444 C439 1.391 . S
C444 C443 1.391 . S
C444 C445 1.399 . S
C445 C444 1.399 . S
C445 C446 1.396 . S
C445 C448 1.453 . S
C445 C449 1.684 . S
C446 C427 1.723 . S
C446 C445 1.396 . S
C446 C447 1.394 . S
C447 C443 1.397 . S
C447 C446 1.394 . S
C447 C457 1.723 . S
C448 C445 1.453 . S
C448 H472 0.982 . S
C448 H473 0.979 . S
C448 H474 0.977 . S
C449 C445 1.684 . S
C449 H475 0.979 . S
C449 H476 0.980 . S
C449 H477 0.983 . S
C450 H426 0.948 . S
C450 C451 1.391 . S
C450 C455 1.391 . S
C451 C450 1.391 . S
C451 C452 1.391 . S
C452 H429 0.947 . S
C452 C451 1.391 . S
C452 C453 1.392 . S
C453 H430 0.948 . S
C453 C452 1.392 . S
C453 C454 1.419 . S
C454 C453 1.419 . S
C454 C455 1.391 . S
C454 C458 1.397 . S
C455 C450 1.391 . S
C455 C454 1.391 . S
C455 C456 1.399 . S
C456 C455 1.399 . S
C456 C457 1.396 . S
C456 C459 1.453 . S
C456 C460 1.684 . S
C457 C447 1.723 . S
C457 C456 1.396 . S
C457 C458 1.394 . S
C458 C428 1.723 . S
C458 C454 1.397 . S
C458 C457 1.394 . S
C459 H431 0.982 . S
C459 H435 0.979 . S
C459 H436 0.977 . S
C459 C456 1.453 . S
C460 H432 0.979 . S
C460 H433 0.980 . S
C460 H434 0.983 . S
C460 C456 1.684 . S
H461 C479 0.948 . S
H462 C420 0.948 . S
H463 C438 0.979 . S
H464 C438 0.980 . S
H465 C438 0.983 . S
H466 C437 0.982 . S
H467 C437 0.979 . S
H468 C437 0.977 . S
H469 C439 0.948 . S
H470 C441 0.947 . S
H471 C442 0.948 . S
H472 C448 0.982 . S
H473 C448 0.979 . S
H474 C448 0.977 . S
H475 C449 0.979 . S
H476 C449 0.980 . S
H477 C449 0.983 . S
H478 C422 0.947 . S
C479 C422 1.392 . S
C479 C423 1.419 . S
C479 H461 0.948 . S
H480 C486 0.930 . S
H481 C490 0.930 . S
H482 C495 0.929 . S
H483 C493 0.929 . S
H484 C488 0.929 . S
H485 C494 0.929 . S
C486 H480 0.930 . S
C486 C487 1.367 . S
C486 C494 1.378 . S
C487 C486 1.367 . S
C487 C495 1.433 . S
C488 H484 0.929 . S
C488 C490 1.378 . S
C488 C492 1.350 . S
C489 C492 1.463 . S
C489 C494 1.350 . S
C489 N497 1.427 . S
C490 H481 0.930 . S
C490 C488 1.378 . S
C490 C491 1.367 . S
C491 C490 1.367 . S
C491 C493 1.433 . S
C492 C488 1.350 . S
C492 C489 1.463 . S
C492 N496 1.427 . S
C493 H483 0.929 . S
C493 C491 1.433 . S
C493 N496 1.384 . S
C494 H485 0.929 . S
C494 C486 1.378 . S
C494 C489 1.350 . S
C495 H482 0.929 . S
C495 C487 1.433 . S
C495 N497 1.384 . S
N496 C492 1.427 . S
N496 C493 1.384 . S
N497 C489 1.427 . S
N497 C495 1.384 . S
H498 C504 0.930 . S
H499 C508 0.930 . S
H500 C513 0.929 . S
H501 C511 0.929 . S
H502 C506 0.929 . S
H503 C512 0.929 . S
C504 H498 0.930 . S
C504 C505 1.367 . S
C504 C512 1.378 . S
C505 C504 1.367 . S
C505 C513 1.433 . S
C506 H502 0.929 . S
C506 C508 1.378 . S
C506 C510 1.350 . S
C507 C510 1.463 . S
C507 C512 1.350 . S
C507 N515 1.427 . S
C508 H499 0.930 . S
C508 C506 1.378 . S
C508 C509 1.367 . S
C509 C508 1.367 . S
C509 C511 1.433 . S
C510 C506 1.350 . S
C510 C507 1.463 . S
C510 N514 1.427 . S
C511 H501 0.929 . S
C511 C509 1.433 . S
C511 N514 1.384 . S
C512 H503 0.929 . S
C512 C504 1.378 . S
C512 C507 1.350 . S
C513 H500 0.929 . S
C513 C505 1.433 . S
C513 N515 1.384 . S
N514 C510 1.427 . S
N514 C511 1.384 . S
N515 C507 1.427 . S
N515 C513 1.384 . S
H516 C522 0.930 . S
H517 C526 0.930 . S
H518 C531 0.929 . S
H519 C529 0.929 . S
H520 C524 0.929 . S
H521 C530 0.929 . S
C522 H516 0.930 . S
C522 C523 1.367 . S
C522 C530 1.378 . S
C523 C522 1.367 . S
C523 C531 1.433 . S
C524 H520 0.929 . S
C524 C526 1.378 . S
C524 C528 1.350 . S
C525 C528 1.463 . S
C525 C530 1.350 . S
C525 N533 1.427 . S
C526 H517 0.930 . S
C526 C524 1.378 . S
C526 C527 1.367 . S
C527 C526 1.367 . S
C527 C529 1.433 . S
C528 C524 1.350 . S
C528 C525 1.463 . S
C528 N532 1.427 . S
C529 H519 0.929 . S
C529 C527 1.433 . S
C529 N532 1.384 . S
C530 H521 0.929 . S
C530 C522 1.378 . S
C530 C525 1.350 . S
C531 H518 0.929 . S
C531 C523 1.433 . S
C531 N533 1.384 . S
N532 C528 1.427 . S
N532 C529 1.384 . S
N533 C525 1.427 . S
N533 C531 1.384 . S
H534 C540 0.930 . S
H535 C544 0.930 . S
H536 C549 0.929 . S
H537 C547 0.929 . S
H538 C542 0.929 . S
H539 C548 0.929 . S
C540 H534 0.930 . S
C540 C541 1.367 . S
C540 C548 1.378 . S
C541 C540 1.367 . S
C541 C549 1.433 . S
C542 H538 0.929 . S
C542 C544 1.378 . S
C542 C546 1.350 . S
C543 C546 1.463 . S
C543 C548 1.350 . S
C543 N551 1.427 . S
C544 H535 0.930 . S
C544 C542 1.378 . S
C544 C545 1.367 . S
C545 C544 1.367 . S
C545 C547 1.433 . S
C546 C542 1.350 . S
C546 C543 1.463 . S
C546 N550 1.427 . S
C547 H537 0.929 . S
C547 C545 1.433 . S
C547 N550 1.384 . S
C548 H539 0.929 . S
C548 C540 1.378 . S
C548 C543 1.350 . S
C549 H536 0.929 . S
C549 C541 1.433 . S
C549 N551 1.384 . S
N550 C546 1.427 . S
N550 C547 1.384 . S
N551 C543 1.427 . S
N551 C549 1.384 . S
H552 C558 0.930 . S
H553 C562 0.930 . S
H554 C567 0.929 . S
H555 C565 0.929 . S
H556 C560 0.929 . S
H557 C566 0.929 . S
C558 H552 0.930 . S
C558 C559 1.367 . S
C558 C566 1.378 . S
C559 C558 1.367 . S
C559 C567 1.433 . S
C560 H556 0.929 . S
C560 C562 1.378 . S
C560 C564 1.350 . S
C561 C564 1.463 . S
C561 C566 1.350 . S
C561 N569 1.427 . S
C562 H553 0.930 . S
C562 C560 1.378 . S
C562 C563 1.367 . S
C563 C562 1.367 . S
C563 C565 1.433 . S
C564 C560 1.350 . S
C564 C561 1.463 . S
C564 N568 1.427 . S
C565 H555 0.929 . S
C565 C563 1.433 . S
C565 N568 1.384 . S
C566 H557 0.929 . S
C566 C558 1.378 . S
C566 C561 1.350 . S
C567 H554 0.929 . S
C567 C559 1.433 . S
C567 N569 1.384 . S
N568 C564 1.427 . S
N568 C565 1.384 . S
N569 C561 1.427 . S
N569 C567 1.384 . S
H570 C576 0.930 . S
H571 C580 0.930 . S
H572 C585 0.929 . S
H573 C583 0.929 . S
H574 C578 0.929 . S
H575 C584 0.929 . S
C576 H570 0.930 . S
C576 C577 1.367 . S
C576 C584 1.378 . S
C577 C576 1.367 . S
C577 C585 1.433 . S
C578 H574 0.929 . S
C578 C580 1.378 . S
C578 C582 1.350 . S
C579 C582 1.463 . S
C579 C584 1.350 . S
C579 N587 1.427 . S
C580 H571 0.930 . S
C580 C578 1.378 . S
C580 C581 1.367 . S
C581 C580 1.367 . S
C581 C583 1.433 . S
C582 C578 1.350 . S
C582 C579 1.463 . S
C582 N586 1.427 . S
C583 H573 0.929 . S
C583 C581 1.433 . S
C583 N586 1.384 . S
C584 H575 0.929 . S
C584 C576 1.378 . S
C584 C579 1.350 . S
C585 H572 0.929 . S
C585 C577 1.433 . S
C585 N587 1.384 . S
N586 C582 1.427 . S
N586 C583 1.384 . S
N587 C579 1.427 . S
N587 C585 1.384 . S
H588 C594 0.930 . S
H589 C598 0.930 . S
H590 C603 0.929 . S
H591 C601 0.929 . S
H592 C596 0.929 . S
H593 C602 0.929 . S
C594 H588 0.930 . S
C594 C595 1.367 . S
C594 C602 1.378 . S
C595 C594 1.367 . S
C595 C603 1.433 . S
C596 H592 0.929 . S
C596 C598 1.378 . S
C596 C600 1.350 . S
C597 C600 1.463 . S
C597 C602 1.350 . S
C597 N605 1.427 . S
C598 H589 0.930 . S
C598 C596 1.378 . S
C598 C599 1.367 . S
C599 C598 1.367 . S
C599 C601 1.433 . S
C600 C596 1.350 . S
C600 C597 1.463 . S
C600 N604 1.427 . S
C601 H591 0.929 . S
C601 C599 1.433 . S
C601 N604 1.384 . S
C602 H593 0.929 . S
C602 C594 1.378 . S
C602 C597 1.350 . S
C603 H590 0.929 . S
C603 C595 1.433 . S
C603 N605 1.384 . S
N604 C600 1.427 . S
N604 C601 1.384 . S
N605 C597 1.427 . S
N605 C603 1.384 . S
H606 C612 0.930 . S
H607 C616 0.930 . S
H608 C621 0.929 . S
H609 C619 0.929 . S
H610 C614 0.929 . S
H611 C620 0.929 . S
C612 H606 0.930 . S
C612 C613 1.367 . S
C612 C620 1.378 . S
C613 C612 1.367 . S
C613 C621 1.433 . S
C614 H610 0.929 . S
C614 C616 1.378 . S
C614 C618 1.350 . S
C615 C618 1.463 . S
C615 C620 1.350 . S
C615 N623 1.427 . S
C616 H607 0.930 . S
C616 C614 1.378 . S
C616 C617 1.367 . S
C617 C616 1.367 . S
C617 C619 1.433 . S
C618 C614 1.350 . S
C618 C615 1.463 . S
C618 N622 1.427 . S
C619 H609 0.929 . S
C619 C617 1.433 . S
C619 N622 1.384 . S
C620 H611 0.929 . S
C620 C612 1.378 . S
C620 C615 1.350 . S
C621 H608 0.929 . S
C621 C613 1.433 . S
C621 N623 1.384 . S
N622 C618 1.427 . S
N622 C619 1.384 . S
N623 C615 1.427 . S
N623 C621 1.384 . S
H624 C630 0.930 . S
H625 C634 0.930 . S
H626 C639 0.929 . S
H627 C637 0.929 . S
H628 C632 0.929 . S
H629 C638 0.929 . S
C630 H624 0.930 . S
C630 C631 1.367 . S
C630 C638 1.378 . S
C631 C630 1.367 . S
C631 C639 1.433 . S
C632 H628 0.929 . S
C632 C634 1.378 . S
C632 C636 1.350 . S
C633 C636 1.463 . S
C633 C638 1.350 . S
C633 N641 1.427 . S
C634 H625 0.930 . S
C634 C632 1.378 . S
C634 C635 1.367 . S
C635 C634 1.367 . S
C635 C637 1.433 . S
C636 C632 1.350 . S
C636 C633 1.463 . S
C636 N640 1.427 . S
C637 H627 0.929 . S
C637 C635 1.433 . S
C637 N640 1.384 . S
C638 H629 0.929 . S
C638 C630 1.378 . S
C638 C633 1.350 . S
C639 H626 0.929 . S
C639 C631 1.433 . S
C639 N641 1.384 . S
N640 C636 1.427 . S
N640 C637 1.384 . S
N641 C633 1.427 . S
N641 C639 1.384 . S
H642 C648 0.930 . S
H643 C652 0.930 . S
H644 C657 0.929 . S
H645 C655 0.929 . S
H646 C650 0.929 . S
H647 C656 0.929 . S
C648 H642 0.930 . S
C648 C649 1.367 . S
C648 C656 1.378 . S
C649 C648 1.367 . S
C649 C657 1.433 . S
C650 H646 0.929 . S
C650 C652 1.378 . S
C650 C654 1.350 . S
C651 C654 1.463 . S
C651 C656 1.350 . S
C651 N659 1.427 . S
C652 H643 0.930 . S
C652 C650 1.378 . S
C652 C653 1.367 . S
C653 C652 1.367 . S
C653 C655 1.433 . S
C654 C650 1.350 . S
C654 C651 1.463 . S
C654 N658 1.427 . S
C655 H645 0.929 . S
C655 C653 1.433 . S
C655 N658 1.384 . S
C656 H647 0.929 . S
C656 C648 1.378 . S
C656 C651 1.350 . S
C657 H644 0.929 . S
C657 C649 1.433 . S
C657 N659 1.384 . S
N658 C654 1.427 . S
N658 C655 1.384 . S
N659 C651 1.427 . S
N659 C657 1.384 . S
H660 C666 0.930 . S
H661 C670 0.930 . S
H662 C675 0.929 . S
H663 C673 0.929 . S
H664 C668 0.929 . S
H665 C674 0.929 . S
C666 H660 0.930 . S
C666 C667 1.367 . S
C666 C674 1.378 . S
C667 C666 1.367 . S
C667 C675 1.433 . S
C668 H664 0.929 . S
C668 C670 1.378 . S
C668 C672 1.350 . S
C669 C672 1.463 . S
C669 C674 1.350 . S
C669 N677 1.427 . S
C670 H661 0.930 . S
C670 C668 1.378 . S
C670 C671 1.367 . S
C671 C670 1.367 . S
C671 C673 1.433 . S
C672 C668 1.350 . S
C672 C669 1.463 . S
C672 N676 1.427 . S
C673 H663 0.929 . S
C673 C671 1.433 . S
C673 N676 1.384 . S
C674 H665 0.929 . S
C674 C666 1.378 . S
C674 C669 1.350 . S
C675 H662 0.929 . S
C675 C667 1.433 . S
C675 N677 1.384 . S
N676 C672 1.427 . S
N676 C673 1.384 . S
N677 C669 1.427 . S
N677 C675 1.384 . S
H678 C684 0.930 . S
H679 C688 0.930 . S
H680 C693 0.929 . S
H681 C691 0.929 . S
H682 C686 0.929 . S
H683 C692 0.929 . S
C684 H678 0.930 . S
C684 C685 1.367 . S
C684 C692 1.378 . S
C685 C684 1.367 . S
C685 C693 1.433 . S
C686 H682 0.929 . S
C686 C688 1.378 . S
C686 C690 1.350 . S
C687 C690 1.463 . S
C687 C692 1.350 . S
C687 N695 1.427 . S
C688 H679 0.930 . S
C688 C686 1.378 . S
C688 C689 1.367 . S
C689 C688 1.367 . S
C689 C691 1.433 . S
C690 C686 1.350 . S
C690 C687 1.463 . S
C690 N694 1.427 . S
C691 H681 0.929 . S
C691 C689 1.433 . S
C691 N694 1.384 . S
C692 H683 0.929 . S
C692 C684 1.378 . S
C692 C687 1.350 . S
C693 H680 0.929 . S
C693 C685 1.433 . S
C693 N695 1.384 . S
N694 C690 1.427 . S
N694 C691 1.384 . S
N695 C687 1.427 . S
N695 C693 1.384 . S
H696 C702 0.930 . S
H697 C706 0.930 . S
H698 C711 0.929 . S
H699 C709 0.927 . S
H700 C704 0.929 . S
H701 C710 0.929 . S
C702 H696 0.930 . S
C702 C703 1.367 . S
C702 C710 1.378 . S
C703 C702 1.367 . S
C703 C711 1.433 . S
C704 H700 0.929 . S
C704 C706 1.378 . S
C704 C708 1.350 . S
C705 C708 1.463 . S
C705 C710 1.350 . S
C705 N713 1.427 . S
C706 H697 0.930 . S
C706 C704 1.378 . S
C706 C707 1.367 . S
C707 C706 1.367 . S
C707 C709 1.433 . S
C708 C704 1.350 . S
C708 C705 1.463 . S
C708 N712 1.427 . S
C709 H699 0.927 . S
C709 C707 1.433 . S
C709 N712 1.384 . S
C710 H701 0.929 . S
C710 C702 1.378 . S
C710 C705 1.350 . S
C711 H698 0.929 . S
C711 C703 1.433 . S
C711 N713 1.384 . S
N712 C708 1.427 . S
N712 C709 1.384 . S
N713 C705 1.427 . S
N713 C711 1.384 . S
H714 C720 0.930 . S
H715 C724 0.930 1_565 S
H716 C729 0.929 1_565 S
H717 C727 0.929 . S
H718 C722 0.929 1_565 S
H719 C728 0.929 . S
C720 H714 0.930 . S
C720 C721 1.367 . S
C720 C728 1.378 . S
C721 C720 1.367 . S
C721 C729 1.433 . S
C722 H718 0.929 1_545 S
C722 C724 1.378 . S
C722 C726 1.350 . S
C723 C726 1.463 . S
C723 C728 1.350 . S
C723 N731 1.427 . S
C724 H715 0.930 1_545 S
C724 C722 1.378 . S
C724 C725 1.367 . S
C725 C724 1.367 . S
C725 C727 1.433 . S
C726 C722 1.350 . S
C726 C723 1.463 . S
C726 N730 1.427 . S
C727 H717 0.929 . S
C727 C725 1.433 . S
C727 N730 1.384 . S
C728 H719 0.929 . S
C728 C720 1.378 . S
C728 C723 1.350 . S
C729 H716 0.929 1_545 S
C729 C721 1.433 . S
C729 N731 1.384 . S
N730 C726 1.427 . S
N730 C727 1.384 . S
N731 C723 1.427 . S
N731 C729 1.384 . S
H732 C738 0.930 . S
H733 C742 0.930 . S
H734 C747 0.929 . S
H735 C745 0.929 . S
H736 C740 0.929 . S
H737 C746 0.929 . S
C738 H732 0.930 . S
C738 C739 1.367 . S
C738 C746 1.378 . S
C739 C738 1.367 . S
C739 C747 1.433 . S
C740 H736 0.929 . S
C740 C742 1.378 . S
C740 C744 1.350 . S
C741 C744 1.463 . S
C741 C746 1.350 . S
C741 N749 1.427 . S
C742 H733 0.930 . S
C742 C740 1.378 . S
C742 C743 1.367 . S
C743 C742 1.367 . S
C743 C745 1.433 . S
C744 C740 1.350 . S
C744 C741 1.463 . S
C744 N748 1.427 . S
C745 H735 0.929 . S
C745 C743 1.433 . S
C745 N748 1.384 . S
C746 H737 0.929 . S
C746 C738 1.378 . S
C746 C741 1.350 . S
C747 H734 0.929 . S
C747 C739 1.433 . S
C747 N749 1.384 . S
N748 C744 1.427 . S
N748 C745 1.384 . S
N749 C741 1.427 . S
N749 C747 1.384 . S
H750 C756 0.930 . S
H751 C760 0.930 . S
H752 C765 0.929 . S
H753 C763 0.929 . S
H754 C758 0.929 . S
H755 C764 0.929 . S
C756 H750 0.930 . S
C756 C757 1.367 1_565 S
C756 C764 1.378 . S
C757 C756 1.367 1_545 S
C757 C765 1.433 . S
C758 H754 0.929 . S
C758 C760 1.378 . S
C758 C762 1.350 . S
C759 C762 1.463 . S
C759 C764 1.350 1_545 S
C759 N767 1.427 . S
C760 H751 0.930 . S
C760 C758 1.378 . S
C760 C761 1.367 . S
C761 C760 1.367 . S
C761 C763 1.433 1_545 S
C762 C758 1.350 . S
C762 C759 1.463 . S
C762 N766 1.427 1_545 S
C763 H753 0.929 . S
C763 C761 1.433 1_565 S
C763 N766 1.384 . S
C764 H755 0.929 . S
C764 C756 1.378 . S
C764 C759 1.350 1_565 S
C765 H752 0.929 . S
C765 C757 1.433 . S
C765 N767 1.384 . S
N766 C762 1.427 1_565 S
N766 C763 1.384 . S
N767 C759 1.427 . S
N767 C765 1.384 . S
H768 C774 0.930 . S
H769 C778 0.930 . S
H770 C783 0.929 . S
H771 C781 0.929 . S
H772 C776 0.929 . S
H773 C782 0.929 . S
C774 H768 0.930 . S
C774 C775 1.367 . S
C774 C782 1.378 . S
C775 C774 1.367 . S
C775 C783 1.433 . S
C776 H772 0.929 . S
C776 C778 1.378 . S
C776 C780 1.350 . S
C777 C780 1.463 . S
C777 C782 1.350 . S
C777 N785 1.427 . S
C778 H769 0.930 . S
C778 C776 1.378 . S
C778 C779 1.367 . S
C779 C778 1.367 . S
C779 C781 1.433 . S
C780 C776 1.350 . S
C780 C777 1.463 . S
C780 N784 1.427 . S
C781 H771 0.929 . S
C781 C779 1.433 . S
C781 N784 1.384 . S
C782 H773 0.929 . S
C782 C774 1.378 . S
C782 C777 1.350 . S
C783 H770 0.929 . S
C783 C775 1.433 . S
C783 N785 1.384 . S
N784 C780 1.427 . S
N784 C781 1.384 . S
N785 C777 1.427 . S
N785 C783 1.384 . S
H786 C792 0.930 . S
H787 C796 0.930 . S
H788 C801 0.929 . S
H789 C799 0.929 . S
H790 C794 0.929 . S
H791 C800 0.929 . S
C792 H786 0.930 . S
C792 C793 1.367 . S
C792 C800 1.378 . S
C793 C792 1.367 . S
C793 C801 1.433 1_455 S
C794 H790 0.929 . S
C794 C796 1.378 . S
C794 C798 1.350 1_655 S
C795 C798 1.463 . S
C795 C800 1.350 . S
C795 N803 1.427 1_455 S
C796 H787 0.930 . S
C796 C794 1.378 . S
C796 C797 1.367 1_655 S
C797 C796 1.367 1_455 S
C797 C799 1.433 . S
C798 C794 1.350 1_455 S
C798 C795 1.463 . S
C798 N802 1.427 . S
C799 H789 0.929 . S
C799 C797 1.433 . S
C799 N802 1.384 . S
C800 H791 0.929 . S
C800 C792 1.378 . S
C800 C795 1.350 . S
C801 H788 0.929 . S
C801 C793 1.433 1_655 S
C801 N803 1.384 . S
N802 C798 1.427 . S
N802 C799 1.384 . S
N803 C795 1.427 1_655 S
N803 C801 1.384 . S
C487 C9 0.520 . S
C491 C451 0.442 . S
C505 C49 0.313 . S
C509 C301 0.418 . S
C523 C89 0.331 . S
C527 C361 0.390 . S
C541 C26 0.409 . S
C545 C421 0.427 . S
C563 C331 0.417 . S
C559 C66 0.529 . S
C581 C391 0.448 . S
C577 C106 0.540 . S
C595 C43 2.956 . S
C599 C181 2.797 . S
C613 C83 3.099 . S
C617 C271 3.082 . S
C631 C22 3.157 . S
C635 C151 3.141 . S
C653 C211 3.137 . S
C649 C62 3.153 . S
C671 C241 2.838 . S
C667 C102 3.006 . S
C685 C3 2.952 . S
C689 C121 2.790 . S
C707 C260 1.762 1_554 S
C703 C15 1.737 . S
C721 C55 1.752 . S
C725 C140 1.755 . S
C739 C95 1.746 . S
C743 C200 1.752 . S
C761 C380 1.055 . S
C757 C42 1.065 . S
C779 C440 1.077 1_556 S
C775 C82 1.065 . S
C793 C2 1.062 . S
C797 C320 1.064 . S
