# Generated by pormake.
# Topology cml, (3,6)-cn, num edge types: 1
# Building blocks:
#     Node 0, Type 0, BuildingBlock: BELTOD_clean_linker_0, # of connection points: 3
#     Node 1, Type 0, BuildingBlock: BELTOD_clean_linker_0, # of connection points: 3
#     Node 2, Type 0, BuildingBlock: BELTOD_clean_linker_0, # of connection points: 3
#     Node 3, Type 0, BuildingBlock: BELTOD_clean_linker_0, # of connection points: 3
#     Node 4, Type 0, BuildingBlock: BELTOD_clean_linker_0, # of connection points: 3
#     Node 5, Type 0, BuildingBlock: BELTOD_clean_linker_0, # of connection points: 3
#     Node 6, Type 0, BuildingBlock: BELTOD_clean_linker_0, # of connection points: 3
#     Node 7, Type 0, BuildingBlock: BELTOD_clean_linker_0, # of connection points: 3
#     Node 8, Type 1, BuildingBlock: IZENUY_clean_sbu_0, # of connection points: 6
#     Node 9, Type 1, BuildingBlock: IZENUY_clean_sbu_0, # of connection points: 6
#     Node 10, Type 1, BuildingBlock: IZENUY_clean_sbu_0, # of connection points: 6
#     Node 11, Type 1, BuildingBlock: IZENUY_clean_sbu_0, # of connection points: 6
#     Edge 12, Type (0, 1), BuildingBlock: EZIPEK_clean_linker_0, # of connection points: 2
#     Edge 13, Type (0, 1), BuildingBlock: EZIPEK_clean_linker_0, # of connection points: 2
#     Edge 14, Type (0, 1), BuildingBlock: EZIPEK_clean_linker_0, # of connection points: 2
#     Edge 15, Type (0, 1), BuildingBlock: EZIPEK_clean_linker_0, # of connection points: 2
#     Edge 16, Type (0, 1), BuildingBlock: EZIPEK_clean_linker_0, # of connection points: 2
#     Edge 17, Type (0, 1), BuildingBlock: EZIPEK_clean_linker_0, # of connection points: 2
#     Edge 18, Type (0, 1), BuildingBlock: EZIPEK_clean_linker_0, # of connection points: 2
#     Edge 19, Type (0, 1), BuildingBlock: EZIPEK_clean_linker_0, # of connection points: 2
#     Edge 20, Type (0, 1), BuildingBlock: EZIPEK_clean_linker_0, # of connection points: 2
#     Edge 21, Type (0, 1), BuildingBlock: EZIPEK_clean_linker_0, # of connection points: 2
#     Edge 22, Type (0, 1), BuildingBlock: EZIPEK_clean_linker_0, # of connection points: 2
#     Edge 23, Type (0, 1), BuildingBlock: EZIPEK_clean_linker_0, # of connection points: 2
#     Edge 24, Type (0, 1), BuildingBlock: EZIPEK_clean_linker_0, # of connection points: 2
#     Edge 25, Type (0, 1), BuildingBlock: EZIPEK_clean_linker_0, # of connection points: 2
#     Edge 26, Type (0, 1), BuildingBlock: EZIPEK_clean_linker_0, # of connection points: 2
#     Edge 27, Type (0, 1), BuildingBlock: EZIPEK_clean_linker_0, # of connection points: 2
#     Edge 28, Type (0, 1), BuildingBlock: EZIPEK_clean_linker_0, # of connection points: 2
#     Edge 29, Type (0, 1), BuildingBlock: EZIPEK_clean_linker_0, # of connection points: 2
#     Edge 30, Type (0, 1), BuildingBlock: EZIPEK_clean_linker_0, # of connection points: 2
#     Edge 31, Type (0, 1), BuildingBlock: EZIPEK_clean_linker_0, # of connection points: 2
#     Edge 32, Type (0, 1), BuildingBlock: EZIPEK_clean_linker_0, # of connection points: 2
#     Edge 33, Type (0, 1), BuildingBlock: EZIPEK_clean_linker_0, # of connection points: 2
#     Edge 34, Type (0, 1), BuildingBlock: EZIPEK_clean_linker_0, # of connection points: 2
#     Edge 35, Type (0, 1), BuildingBlock: EZIPEK_clean_linker_0, # of connection points: 2
# Relax obj value: 0.048
# Max RMSD: 0.064
# Mean RMSD: 0.062
data_MOF--net-cml--node1-IZENUY_clean_sbu_0--node2-BELTOD_clean_linker_0--edge1-EZIPEK_clean_linker_0
_symmetry_space_group_name_H-M    P1
_symmetry_Int_Tables_number       1
_symmetry_cell_setting            triclinic
loop_
_symmetry_equiv_pos_as_xyz
'x, y, z'
_cell_length_a     30.950098
_cell_length_b     35.874996
_cell_length_c     33.018537
_cell_angle_alpha  89.528959
_cell_angle_beta   89.624259
_cell_angle_gamma 90.140619
loop_
_atom_site_label
_atom_site_type_symbol
_atom_site_fract_x
_atom_site_fract_y
_atom_site_fract_z
_atom_type_partial_charge
P0 P 0.33349 0.34042 0.97692 0.0
H1 H 0.40603 0.31604 0.02643 0.0
H2 H 0.42051 0.31973 0.09909 0.0
H3 H 0.29753 0.37339 0.11792 0.0
H4 H 0.28336 0.37048 0.04469 0.0
H5 H 0.28563 0.33919 0.90153 0.0
H6 H 0.21877 0.30754 0.88144 0.0
H7 H 0.20057 0.26779 0.00393 0.0
H8 H 0.26787 0.29843 0.0239 0.0
H9 H 0.41173 0.38083 0.95691 0.0
H10 H 0.27462 0.4022 0.95565 0.0
O11 O 0.36979 0.31223 0.95564 0.0
H12 H 0.42553 0.44341 0.92963 0.0
H13 H 0.28851 0.46496 0.92742 0.0
C14 C 0.34314 0.34217 0.03045 0.0
C15 C 0.38203 0.32846 0.04609 0.0
C16 C 0.39043 0.33071 0.08745 0.0
C17 C 0.36008 0.34681 0.11369 0.0
C18 C 0.3213 0.36093 0.09801 0.0
C19 C 0.31315 0.35906 0.05646 0.0
C20 C 0.28112 0.3221 0.96443 0.0
C21 C 0.26682 0.32433 0.92427 0.0
C22 C 0.22886 0.30625 0.91277 0.0
C23 C 0.20482 0.28566 0.94134 0.0
C24 C 0.2186 0.28396 0.98168 0.0
C25 C 0.25686 0.30167 0.99306 0.0
C26 C 0.34218 0.38661 0.95712 0.0
C27 C 0.38461 0.39894 0.95058 0.0
C28 C 0.39248 0.43464 0.9353 0.0
C29 C 0.35801 0.45865 0.92659 0.0
C30 C 0.31544 0.44675 0.93411 0.0
C31 C 0.30759 0.41095 0.9498 0.0
P32 P 0.75124 0.59489 0.51594 0.0
H33 H 0.77271 0.54304 0.45141 0.0
H34 H 0.72849 0.50065 0.41061 0.0
H35 H 0.61299 0.54522 0.46538 0.0
H36 H 0.65686 0.58837 0.50499 0.0
H37 H 0.83501 0.63001 0.52755 0.0
H38 H 0.87451 0.67867 0.49001 0.0
H39 H 0.76646 0.69201 0.40947 0.0
H40 H 0.72676 0.64296 0.44705 0.0
H41 H 0.70052 0.55447 0.5758 0.0
H42 H 0.73387 0.66931 0.55101 0.0
O43 O 0.78897 0.56613 0.53389 0.0
H44 H 0.65652 0.57391 0.63385 0.0
H45 H 0.69044 0.68867 0.60991 0.0
C46 C 0.71817 0.56815 0.48198 0.0
C47 C 0.73784 0.54405 0.45421 0.0
C48 C 0.71271 0.5199 0.431 0.0
C49 C 0.66757 0.51938 0.43559 0.0
C50 C 0.64781 0.54492 0.46179 0.0
C51 C 0.67292 0.56941 0.48454 0.0
C52 C 0.77836 0.63242 0.48954 0.0
C53 C 0.81971 0.64338 0.50188 0.0
C54 C 0.8422 0.67115 0.48059 0.0
C55 C 0.82342 0.68866 0.44695 0.0
C56 C 0.78141 0.67865 0.43534 0.0
C57 C 0.75891 0.6507 0.45666 0.0
C58 C 0.72002 0.61043 0.55885 0.0
C59 C 0.69844 0.58384 0.58291 0.0
C60 C 0.67342 0.59488 0.61599 0.0
C61 C 0.67002 0.63269 0.62586 0.0
C62 C 0.69252 0.65938 0.60249 0.0
C63 C 0.71721 0.6483 0.56894 0.0
P64 P 0.74123 0.39618 0.02081 0.0
H65 H 0.76362 0.36003 0.09721 0.0
H66 H 0.71997 0.34027 0.15607 0.0
H67 H 0.6037 0.36719 0.09091 0.0
H68 H 0.64707 0.38549 0.03166 0.0
H69 H 0.82069 0.40055 0.97353 0.0
H70 H 0.86568 0.35322 0.94063 0.0
H71 H 0.77176 0.26873 0.97215 0.0
H72 H 0.72661 0.31616 0.00528 0.0
H73 H 0.68629 0.4585 0.04136 0.0
H74 H 0.72635 0.40256 0.93224 0.0
O75 O 0.77778 0.42293 0.0436 0.0
H76 H 0.64252 0.50171 0.0011 0.0
H77 H 0.68324 0.44669 0.89177 0.0
C78 C 0.70868 0.37522 0.0605 0.0
C79 C 0.72872 0.36101 0.09532 0.0
C80 C 0.70389 0.34975 0.12884 0.0
C81 C 0.65867 0.35297 0.12806 0.0
C82 C 0.63856 0.3649 0.09225 0.0
C83 C 0.66339 0.37556 0.05853 0.0
C84 C 0.77068 0.36175 0.99235 0.0
C85 C 0.80951 0.37193 0.97306 0.0
C86 C 0.83514 0.34501 0.95428 0.0
C87 C 0.82208 0.30755 0.95421 0.0
C88 C 0.78231 0.29754 0.97199 0.0
C89 C 0.75666 0.32455 0.99089 0.0
C90 C 0.7091 0.42703 0.98988 0.0
C91 C 0.68558 0.45547 0.00876 0.0
C92 C 0.6607 0.48013 0.98586 0.0
C93 C 0.65955 0.47722 0.94357 0.0
C94 C 0.68365 0.44919 0.92443 0.0
C95 C 0.70816 0.42406 0.94752 0.0
P96 P 0.33326 0.66281 0.47199 0.0
H97 H 0.38623 0.63142 0.40716 0.0
H98 H 0.40223 0.56703 0.38813 0.0
H99 H 0.31184 0.52686 0.47843 0.0
H100 H 0.29564 0.59158 0.49762 0.0
H101 H 0.30729 0.69524 0.39544 0.0
H102 H 0.23936 0.72231 0.37166 0.0
H103 H 0.17835 0.69344 0.48557 0.0
H104 H 0.24565 0.66399 0.5083 0.0
H105 H 0.38998 0.62133 0.52555 0.0
H106 H 0.29621 0.70958 0.53698 0.0
O107 O 0.37172 0.68997 0.45177 0.0
H108 H 0.40678 0.6267 0.59753 0.0
H109 H 0.31121 0.71318 0.60974 0.0
C110 C 0.34037 0.61606 0.45428 0.0
C111 C 0.36938 0.60888 0.42255 0.0
C112 C 0.37834 0.57224 0.41152 0.0
C113 C 0.35821 0.54246 0.43197 0.0
C114 C 0.32745 0.54964 0.4623 0.0
C115 C 0.31843 0.58639 0.47328 0.0
C116 C 0.28197 0.67941 0.45438 0.0
C117 C 0.27922 0.69446 0.41521 0.0
C118 C 0.24052 0.70972 0.40157 0.0
C119 C 0.20421 0.71057 0.42721 0.0
C120 C 0.20625 0.69348 0.46558 0.0
C121 C 0.24474 0.67718 0.47872 0.0
C122 C 0.34053 0.66397 0.52608 0.0
C123 C 0.372 0.64104 0.54369 0.0
C124 C 0.38172 0.64414 0.58471 0.0
C125 C 0.36007 0.67018 0.60883 0.0
C126 C 0.32793 0.69269 0.59156 0.0
C127 C 0.31909 0.69031 0.55014 0.0
P128 P 0.82446 0.84186 0.98798 0.0
H129 H 0.89082 0.80975 0.03966 0.0
H130 H 0.90929 0.81952 0.11059 0.0
H131 H 0.7972 0.88935 0.12543 0.0
H132 H 0.77856 0.8797 0.0537 0.0
H133 H 0.77703 0.84625 0.91262 0.0
H134 H 0.71077 0.81589 0.88962 0.0
H135 H 0.69151 0.76811 0.00863 0.0
H136 H 0.75777 0.79891 0.03197 0.0
H137 H 0.90566 0.87879 0.97065 0.0
H138 H 0.77015 0.90585 0.96345 0.0
O139 O 0.8595 0.81194 0.96768 0.0
H140 H 0.92412 0.93988 0.94174 0.0
H141 H 0.78871 0.9668 0.93312 0.0
C142 C 0.83308 0.84373 0.04162 0.0
C143 C 0.86957 0.82651 0.05819 0.0
C144 C 0.88018 0.83209 0.09863 0.0
C145 C 0.85453 0.85504 0.123 0.0
C146 C 0.8171 0.87133 0.10696 0.0
C147 C 0.80653 0.86581 0.06626 0.0
C148 C 0.7716 0.82575 0.9743 0.0
C149 C 0.75785 0.83032 0.9342 0.0
C150 C 0.72024 0.8129 0.92101 0.0
C151 C 0.69629 0.79011 0.94758 0.0
C152 C 0.70943 0.78604 0.98796 0.0
C153 C 0.74708 0.80369 0.00122 0.0
C154 C 0.83659 0.8874 0.96787 0.0
C155 C 0.8799 0.89781 0.96266 0.0
C156 C 0.89042 0.93266 0.94642 0.0
C157 C 0.85774 0.95766 0.93521 0.0
C158 C 0.81429 0.94779 0.94162 0.0
C159 C 0.80378 0.91296 0.95849 0.0
P160 P 0.2691 0.0857 0.53708 0.0
H161 H 0.28585 0.02154 0.48517 0.0
H162 H 0.23782 0.98104 0.44591 0.0
H163 H 0.12917 0.04997 0.47828 0.0
H164 H 0.17724 0.09099 0.51647 0.0
H165 H 0.359 0.10274 0.51532 0.0
H166 H 0.39261 0.1544 0.47747 0.0
H167 H 0.26705 0.2027 0.45739 0.0
H168 H 0.23316 0.15053 0.4948 0.0
H169 H 0.21042 0.04717 0.59205 0.0
H170 H 0.25924 0.15925 0.57671 0.0
O171 O 0.30765 0.05796 0.55539 0.0
H172 H 0.16351 0.06819 0.64741 0.0
H173 H 0.21209 0.18018 0.63221 0.0
C174 C 0.23487 0.05863 0.50457 0.0
C175 C 0.25178 0.02814 0.48349 0.0
C176 C 0.22448 0.0051 0.46111 0.0
C177 C 0.17991 0.01226 0.45973 0.0
C178 C 0.16341 0.04383 0.47928 0.0
C179 C 0.19081 0.0671 0.50117 0.0
C180 C 0.2936 0.12308 0.50822 0.0
C181 C 0.33857 0.12427 0.50267 0.0
C182 C 0.35779 0.15363 0.48101 0.0
C183 C 0.33228 0.18229 0.46478 0.0
C184 C 0.2872 0.18078 0.46973 0.0
C185 C 0.26795 0.15117 0.49107 0.0
C186 C 0.23752 0.10177 0.57958 0.0
C187 C 0.21116 0.07624 0.60065 0.0
C188 C 0.18453 0.08814 0.63224 0.0
C189 C 0.18431 0.12569 0.64362 0.0
C190 C 0.21186 0.15109 0.62366 0.0
C191 C 0.23851 0.13915 0.59187 0.0
P192 P 0.26151 0.91013 0.02733 0.0
H193 H 0.28056 0.8709 0.10288 0.0
H194 H 0.23547 0.85347 0.16176 0.0
H195 H 0.12242 0.89313 0.09933 0.0
H196 H 0.16696 0.9098 0.04043 0.0
H197 H 0.3456 0.90697 0.98746 0.0
H198 H 0.3848 0.85706 0.95277 0.0
H199 H 0.27615 0.78324 0.97092 0.0
H200 H 0.23684 0.83328 0.00617 0.0
H201 H 0.22884 0.9851 0.03794 0.0
H202 H 0.22494 0.90093 0.94545 0.0
O203 O 0.29934 0.93623 0.04919 0.0
H204 H 0.18112 0.02482 0.99729 0.0
H205 H 0.17752 0.94106 0.9045 0.0
C206 C 0.22731 0.8921 0.06747 0.0
C207 C 0.24599 0.87532 0.10164 0.0
C208 C 0.22037 0.86548 0.1352 0.0
C209 C 0.17575 0.87252 0.13503 0.0
C210 C 0.15684 0.88778 0.10014 0.0
C211 C 0.18238 0.89734 0.06652 0.0
C212 C 0.28868 0.87356 1.00006 0.0
C213 C 0.33012 0.88009 0.98406 0.0
C214 C 0.35245 0.85171 0.96418 0.0
C215 C 0.33341 0.81652 0.95952 0.0
C216 C 0.29134 0.81025 0.97437 0.0
C217 C 0.26905 0.83868 0.99451 0.0
C218 C 0.23093 0.94034 0.99445 0.0
C219 C 0.21843 0.9755 0.00855 0.0
C220 C 0.1912 0.99811 0.98548 0.0
C221 C 0.17611 0.98589 0.94792 0.0
C222 C 0.18923 0.951 0.93332 0.0
C223 C 0.21626 0.92819 0.95664 0.0
P224 P 0.82671 0.16055 0.47865 0.0
H225 H 0.86756 0.1296 0.40647 0.0
H226 H 0.88633 0.0657 0.38769 0.0
H227 H 0.82026 0.02391 0.49418 0.0
H228 H 0.80163 0.08813 0.51328 0.0
H229 H 0.78759 0.23246 0.49332 0.0
H230 H 0.71959 0.26075 0.4709 0.0
H231 H 0.68278 0.15724 0.41518 0.0
H232 H 0.75071 0.1288 0.43761 0.0
H233 H 0.90713 0.15117 0.5212 0.0
H234 H 0.77389 0.17209 0.55273 0.0
O235 O 0.86244 0.18781 0.45452 0.0
H236 H 0.92665 0.15358 0.59292 0.0
H237 H 0.79372 0.17515 0.62472 0.0
C238 C 0.83409 0.1135 0.46171 0.0
C239 C 0.85662 0.10675 0.42557 0.0
C240 C 0.86714 0.07036 0.41474 0.0
C241 C 0.85495 0.04033 0.43977 0.0
C242 C 0.82996 0.04687 0.47462 0.0
C243 C 0.81954 0.08338 0.48553 0.0
C244 C 0.77402 0.17855 0.46734 0.0
C245 C 0.76454 0.21563 0.47695 0.0
C246 C 0.72592 0.23175 0.46419 0.0
C247 C 0.6964 0.21096 0.44153 0.0
C248 C 0.70522 0.17352 0.43287 0.0
C249 C 0.74393 0.15737 0.44569 0.0
C250 C 0.83931 0.16214 0.53167 0.0
C251 C 0.88214 0.15641 0.54355 0.0
C252 C 0.89324 0.15766 0.58436 0.0
C253 C 0.86159 0.16455 0.61392 0.0
C254 C 0.81848 0.16976 0.6022 0.0
C255 C 0.80731 0.16824 0.5612 0.0
Fe256 Fe 0.99936 0.81438 0.31437 0.0
Fe257 Fe 0.99796 0.85165 0.39816 0.0
O258 O 1.00023 0.85525 0.34447 0.0
Fe259 Fe 0.00376 0.89988 0.32114 0.0
O260 O 0.95388 0.89276 0.29384 0.0
O261 O 0.96864 0.83593 0.27302 0.0
O262 O 0.94793 0.79948 0.33565 0.0
C263 C 0.94057 0.79451 0.37283 0.0
C264 C 0.05879 0.85566 0.27159 0.0
O265 O 0.96428 0.80932 0.39935 0.0
C266 C 0.05793 0.91088 0.3847 0.0
O267 O 0.03025 0.78583 0.35046 0.0
O268 O 0.04713 0.82492 0.39903 0.0
O269 O 0.0366 0.88466 0.27771 0.0
O270 O 0.05073 0.82571 0.29034 0.0
C271 C 0.94521 0.91108 0.38661 0.0
O272 O 0.0315 0.89336 0.40735 0.0
O273 O 0.054 0.9102 0.34676 0.0
C274 C 0.05426 0.79562 0.37942 0.0
O275 O 0.94852 0.87848 0.40069 0.0
O276 O 0.97147 0.92343 0.36017 0.0
C277 C 0.94678 0.86565 0.27077 0.0
Fe278 Fe 0.99891 0.14338 0.8949 0.0
Fe279 Fe 0.99824 0.10915 0.80985 0.0
O280 O 0.99988 0.14897 0.84133 0.0
Fe281 Fe 0.00221 0.1943 0.81919 0.0
O282 O 0.05258 0.20467 0.84424 0.0
O283 O 0.0335 0.18404 0.90481 0.0
O284 O 0.04777 0.11551 0.89439 0.0
C285 C 0.05267 0.086 0.87445 0.0
C286 C 0.9448 0.20318 0.88607 0.0
O287 O 0.02848 0.07858 0.8448 0.0
C288 C 0.9458 0.16146 0.76757 0.0
O289 O 0.96459 0.10152 0.89462 0.0
O290 O 0.94663 0.09468 0.83091 0.0
O291 O 0.96994 0.21667 0.85925 0.0
O292 O 0.94986 0.17059 0.89969 0.0
C293 C 0.05763 0.15142 0.76855 0.0
O294 O 0.96803 0.13193 0.76894 0.0
O295 O 0.95197 0.18734 0.79237 0.0
C296 C 0.94101 0.08695 0.8678 0.0
O297 O 0.04961 0.12101 0.78646 0.0
O298 O 0.03493 0.18018 0.7749 0.0
C299 C 0.05886 0.20224 0.88179 0.0
Fe300 Fe 0.48944 0.30416 0.3188 0.0
Fe301 Fe 0.49614 0.35131 0.39557 0.0
O302 O 0.4926 0.34851 0.34214 0.0
Fe303 Fe 0.49122 0.38966 0.31212 0.0
O304 O 0.4393 0.37713 0.29086 0.0
O305 O 0.45635 0.32 0.27612 0.0
O306 O 0.43944 0.29317 0.34592 0.0
C307 C 0.43407 0.29496 0.38385 0.0
C308 C 0.54482 0.34048 0.267 0.0
O309 O 0.46349 0.30933 0.40518 0.0
C310 C 0.55128 0.41018 0.36808 0.0
O311 O 0.52264 0.27996 0.35682 0.0
O312 O 0.54589 0.32514 0.39571 0.0
O313 O 0.52124 0.36927 0.26943 0.0
O314 O 0.53884 0.31262 0.29004 0.0
C315 C 0.44049 0.40846 0.38137 0.0
O316 O 0.52953 0.39378 0.39553 0.0
O317 O 0.54278 0.40575 0.33116 0.0
C318 C 0.55008 0.29307 0.38116 0.0
O319 O 0.44658 0.37784 0.39926 0.0
O320 O 0.46153 0.41729 0.34971 0.0
C321 C 0.43114 0.34746 0.27227 0.0
Fe322 Fe 0.49636 0.64665 0.88974 0.0
Fe323 Fe 0.49369 0.61262 0.80482 0.0
O324 O 0.49722 0.65234 0.83623 0.0
Fe325 Fe 0.5003 0.69762 0.81426 0.0
O326 O 0.55087 0.70747 0.83896 0.0
O327 O 0.53141 0.68721 0.89951 0.0
O328 O 0.54483 0.61843 0.88894 0.0
C329 C 0.54843 0.58842 0.86955 0.0
C330 C 0.44374 0.70731 0.88206 0.0
O331 O 0.52394 0.58163 0.83973 0.0
C332 C 0.44245 0.66622 0.76303 0.0
O333 O 0.46176 0.60475 0.88984 0.0
O334 O 0.44184 0.59986 0.82664 0.0
O335 O 0.46878 0.72044 0.85482 0.0
O336 O 0.44756 0.67419 0.89451 0.0
C337 C 0.55372 0.65304 0.76221 0.0
O338 O 0.46351 0.63603 0.76415 0.0
O339 O 0.44966 0.69161 0.78804 0.0
C340 C 0.43701 0.59117 0.8633 0.0
O341 O 0.54479 0.62287 0.7803 0.0
O342 O 0.5326 0.68265 0.76962 0.0
C343 C 0.55694 0.70546 0.87657 0.0
C344 C 0.12601 0.28161 0.92427 0.0
C345 C 0.1667 0.26384 0.92825 0.0
C346 C 0.13638 0.20545 0.90259 0.0
C347 C 0.09544 0.22294 0.89952 0.0
N348 N 0.04894 0.27529 0.91261 0.0
N349 N 0.21042 0.20831 0.92618 0.0
C350 C 0.08956 0.26038 0.91192 0.0
C351 C 0.17177 0.22552 0.91897 0.0
N352 N 0.12259 0.31899 0.93147 0.0
N353 N 0.14157 0.16991 0.88877 0.0
H354 H 0.23778 0.22244 0.93617 0.0
H355 H 0.21505 0.17964 0.92465 0.0
H356 H 0.11599 0.15399 0.87807 0.0
H357 H 0.17131 0.1568 0.88546 0.0
H358 H 0.09533 0.33471 0.92471 0.0
H359 H 0.14814 0.33502 0.94227 0.0
H360 H 0.04145 0.3009 0.9254 0.0
H361 H 0.02176 0.26085 0.90278 0.0
C362 C 0.84478 0.75499 0.43131 0.0
C363 C 0.84898 0.71642 0.42319 0.0
C364 C 0.91075 0.72915 0.37819 0.0
C365 C 0.9064 0.76786 0.38611 0.0
N366 N 0.86254 0.81829 0.41066 0.0
N367 N 0.8788 0.66736 0.38233 0.0
C368 C 0.87131 0.78099 0.40984 0.0
C369 C 0.87968 0.70373 0.3944 0.0
N370 N 0.81643 0.76667 0.46044 0.0
N371 N 0.94568 0.71639 0.35692 0.0
H372 H 0.85681 0.6479 0.39399 0.0
H373 H 0.89718 0.65719 0.35834 0.0
H374 H 0.96863 0.7339 0.34354 0.0
H375 H 0.95367 0.6883 0.35477 0.0
H376 H 0.81547 0.79388 0.47113 0.0
H377 H 0.7956 0.74852 0.47592 0.0
H378 H 0.83522 0.8295 0.42445 0.0
H379 H 0.88025 0.83771 0.39371 0.0
C380 C 0.84591 0.26531 0.89772 0.0
C381 C 0.85161 0.27865 0.93765 0.0
C382 C 0.9183 0.24222 0.94411 0.0
C383 C 0.91162 0.22759 0.90479 0.0
N384 N 0.86457 0.21859 0.84786 0.0
N385 N 0.88813 0.27483 0.0018 0.0
C386 C 0.87409 0.23726 0.88261 0.0
C387 C 0.8863 0.26556 0.96174 0.0
N388 N 0.8143 0.28019 0.87385 0.0
N389 N 0.95596 0.23495 0.96405 0.0
H390 H 0.86558 0.29221 0.01567 0.0
H391 H 0.90976 0.26293 0.02213 0.0
H392 H 0.97963 0.21716 0.95283 0.0
H393 H 0.96522 0.24853 0.99036 0.0
H394 H 0.81158 0.2748 0.84304 0.0
H395 H 0.79248 0.30014 0.88423 0.0
H396 H 0.83567 0.22174 0.83226 0.0
H397 H 0.8838 0.19712 0.83676 0.0
C398 C 0.12501 0.71336 0.40976 0.0
C399 C 0.16526 0.73177 0.4148 0.0
C400 C 0.1336 0.78989 0.38998 0.0
C401 C 0.09224 0.77286 0.39024 0.0
N402 N 0.04719 0.71999 0.40753 0.0
N403 N 0.20491 0.78981 0.41894 0.0
C404 C 0.08745 0.73494 0.40201 0.0
C405 C 0.16876 0.77072 0.40755 0.0
N406 N 0.12282 0.67533 0.41116 0.0
N407 N 0.13976 0.82379 0.3716 0.0
H408 H 0.23088 0.77717 0.43356 0.0
H409 H 0.20704 0.8188 0.41783 0.0
H410 H 0.11504 0.83832 0.35713 0.0
H411 H 0.17023 0.83567 0.36725 0.0
H412 H 0.09508 0.66043 0.40374 0.0
H413 H 0.14981 0.65856 0.416 0.0
H414 H 0.04188 0.69353 0.41983 0.0
H415 H 0.01899 0.73539 0.40359 0.0
C416 C 0.6696 0.73628 0.90743 0.0
C417 C 0.66004 0.76768 0.93158 0.0
C418 C 0.58248 0.75768 0.9212 0.0
C419 C 0.59233 0.72779 0.89461 0.0
N420 N 0.64556 0.69428 0.85549 0.0
N421 N 0.6086 0.81137 0.95839 0.0
C422 C 0.63598 0.71878 0.88566 0.0
C423 C 0.61674 0.77913 0.9379 0.0
N424 N 0.71077 0.72251 0.90618 0.0
N425 N 0.54037 0.76608 0.92975 0.0
H426 H 0.63291 0.82734 0.9715 0.0
H427 H 0.57827 0.8237 0.96038 0.0
H428 H 0.51454 0.7542 0.91446 0.0
H429 H 0.53083 0.78393 0.9528 0.0
H430 H 0.71875 0.69721 0.89285 0.0
H431 H 0.7364 0.73454 0.92179 0.0
H432 H 0.67674 0.68977 0.84457 0.0
H433 H 0.62198 0.68096 0.83867 0.0
C434 C 0.37357 0.24264 0.4674 0.0
C435 C 0.35299 0.21473 0.44406 0.0
C436 C 0.37049 0.24973 0.38205 0.0
C437 C 0.39834 0.27312 0.40448 0.0
N438 N 0.40509 0.30451 0.46838 0.0
N439 N 0.33303 0.19057 0.37876 0.0
C440 C 0.39394 0.27331 0.44736 0.0
C441 C 0.35138 0.21813 0.40126 0.0
N442 N 0.37428 0.23949 0.50869 0.0
N443 N 0.35849 0.26002 0.34391 0.0
H444 H 0.31844 0.16703 0.39165 0.0
H445 H 0.33539 0.18971 0.34728 0.0
H446 H 0.36535 0.28656 0.33242 0.0
H447 H 0.336 0.24537 0.32688 0.0
H448 H 0.39361 0.25597 0.52705 0.0
H449 H 0.35726 0.21893 0.52468 0.0
H450 H 0.39983 0.30771 0.49932 0.0
H451 H 0.41363 0.32941 0.45392 0.0
C452 C 0.38689 0.76423 0.96424 0.0
C453 C 0.35855 0.78603 0.94027 0.0
C454 C 0.38016 0.75096 0.87998 0.0
C455 C 0.41267 0.73264 0.90282 0.0
N456 N 0.45001 0.72462 0.96648 0.0
N457 N 0.33043 0.80294 0.87481 0.0
C458 C 0.41661 0.73972 0.94502 0.0
C459 C 0.35575 0.78014 0.89796 0.0
N460 N 0.38508 0.7667 0.00553 0.0
N461 N 0.37122 0.73925 0.84166 0.0
H462 H 0.31096 0.82374 0.88711 0.0
H463 H 0.33095 0.80296 0.84327 0.0
H464 H 0.38693 0.71674 0.82843 0.0
H465 H 0.34526 0.74902 0.82475 0.0
H466 H 0.40122 0.74852 0.02493 0.0
H467 H 0.36447 0.78497 0.02064 0.0
H468 H 0.45775 0.73254 0.99582 0.0
H469 H 0.47251 0.70639 0.9541 0.0
C470 C 0.61697 0.22527 0.44345 0.0
C471 C 0.65787 0.22953 0.42432 0.0
C472 C 0.62786 0.27516 0.3767 0.0
C473 C 0.58655 0.26977 0.39469 0.0
N474 N 0.5396 0.23592 0.44057 0.0
N475 N 0.70106 0.25248 0.36836 0.0
C476 C 0.5804 0.24351 0.4266 0.0
C477 C 0.66295 0.2527 0.38959 0.0
N478 N 0.6135 0.20493 0.47854 0.0
N479 N 0.63373 0.30236 0.34791 0.0
H480 H 0.7276 0.23648 0.377 0.0
H481 H 0.70534 0.26562 0.34039 0.0
H482 H 0.6085 0.31851 0.3367 0.0
H483 H 0.66392 0.3108 0.33713 0.0
H484 H 0.58578 0.20412 0.49653 0.0
H485 H 0.63949 0.19069 0.4913 0.0
H486 H 0.53236 0.21433 0.46077 0.0
H487 H 0.51223 0.24949 0.42967 0.0
C488 C 0.38379 0.49491 0.86678 0.0
C489 C 0.36755 0.49505 0.90684 0.0
C490 C 0.38329 0.56178 0.91104 0.0
C491 C 0.4082 0.55947 0.87484 0.0
N492 N 0.43732 0.52021 0.82126 0.0
N493 N 0.35275 0.52824 0.96853 0.0
C494 C 0.40924 0.52533 0.85289 0.0
C495 C 0.36697 0.52851 0.92929 0.0
N496 N 0.37564 0.46522 0.8423 0.0
N497 N 0.37478 0.59577 0.92759 0.0
H498 H 0.33986 0.50452 0.98259 0.0
H499 H 0.3563 0.55085 0.98783 0.0
H500 H 0.38498 0.62069 0.91406 0.0
H501 H 0.35386 0.59942 0.95208 0.0
H502 H 0.38324 0.4652 0.81149 0.0
H503 H 0.35713 0.44239 0.85186 0.0
H504 H 0.44221 0.49436 0.80784 0.0
H505 H 0.45948 0.53996 0.81102 0.0
C506 C 0.64391 0.45279 0.42618 0.0
C507 C 0.64088 0.49091 0.41465 0.0
C508 C 0.57973 0.4762 0.37064 0.0
C509 C 0.58455 0.43774 0.38032 0.0
N510 N 0.62856 0.38881 0.40847 0.0
N511 N 0.61282 0.53754 0.369 0.0
C512 C 0.61898 0.42586 0.40538 0.0
C513 C 0.61095 0.50218 0.38463 0.0
N514 N 0.66891 0.44239 0.45832 0.0
N515 N 0.5442 0.48835 0.35007 0.0
H516 H 0.6355 0.55718 0.37837 0.0
H517 H 0.59473 0.54622 0.34417 0.0
H518 H 0.52034 0.47056 0.33933 0.0
H519 H 0.53653 0.51644 0.34654 0.0
H520 H 0.66851 0.41558 0.47069 0.0
H521 H 0.68704 0.46122 0.4751 0.0
H522 H 0.65583 0.3787 0.42324 0.0
H523 H 0.6119 0.36856 0.39235 0.0
C524 C 0.59026 0.4945 0.90923 0.0
C525 C 0.63308 0.50414 0.91988 0.0
C526 C 0.62236 0.5672 0.89221 0.0
C527 C 0.57799 0.55886 0.88551 0.0
N528 N 0.51804 0.51632 0.89557 0.0
N529 N 0.68985 0.54992 0.92433 0.0
C530 C 0.56155 0.52281 0.89566 0.0
C531 C 0.64917 0.54055 0.91199 0.0
N532 N 0.5768 0.45827 0.91248 0.0
N533 N 0.63919 0.60029 0.87871 0.0
H534 H 0.71132 0.5306 0.93668 0.0
H535 H 0.70162 0.57712 0.92446 0.0
H536 H 0.62042 0.62077 0.86513 0.0
H537 H 0.67207 0.60646 0.87816 0.0
H538 H 0.54769 0.4487 0.90075 0.0
H539 H 0.59628 0.437 0.92386 0.0
H540 H 0.50374 0.49203 0.90684 0.0
H541 H 0.49558 0.53671 0.88836 0.0
C542 C 0.40949 0.49058 0.4465 0.0
C543 C 0.37339 0.50399 0.42449 0.0
C544 C 0.37475 0.44868 0.38139 0.0
C545 C 0.41335 0.43729 0.40064 0.0
N546 N 0.46157 0.44122 0.45766 0.0
N547 N 0.32042 0.49683 0.37208 0.0
C548 C 0.42878 0.45624 0.43529 0.0
C549 C 0.35519 0.48299 0.3926 0.0
N550 N 0.42676 0.51191 0.47659 0.0
N551 N 0.35637 0.42582 0.35337 0.0
H552 H 0.30454 0.52118 0.38066 0.0
H553 H 0.30805 0.48525 0.34581 0.0
H554 H 0.36946 0.39993 0.34607 0.0
H555 H 0.32672 0.43072 0.33972 0.0
H556 H 0.45627 0.50664 0.49034 0.0
H557 H 0.41251 0.53643 0.48685 0.0
H558 H 0.47167 0.45151 0.48538 0.0
H559 H 0.47681 0.41633 0.45043 0.0
C560 C 0.86756 0.02757 0.93395 0.0
C561 C 0.86999 0.99279 0.91403 0.0
C562 C 0.91525 0.02028 0.86076 0.0
C563 C 0.91199 0.05566 0.8799 0.0
N564 N 0.87462 0.0947 0.92776 0.0
N565 N 0.88344 0.95916 0.85246 0.0
C566 C 0.88467 0.05985 0.91429 0.0
C567 C 0.88938 0.99036 0.87526 0.0
N568 N 0.8509 0.02955 0.97228 0.0
N569 N 0.9454 0.01389 0.83118 0.0
H570 H 0.86442 0.93674 0.86229 0.0
H571 H 0.89346 0.95735 0.82234 0.0
H572 H 0.96709 0.03376 0.82031 0.0
H573 H 0.95196 0.98737 0.8201 0.0
H574 H 0.85287 0.05339 0.98997 0.0
H575 H 0.8378 0.00655 0.98751 0.0
H576 H 0.85199 0.09959 0.95059 0.0
H577 H 0.88547 0.11886 0.91308 0.0
C578 C 0.127 0.99726 0.40464 0.0
C579 C 0.15004 0.98582 0.43951 0.0
C580 C 0.11716 0.92378 0.43511 0.0
C581 C 0.09015 0.93655 0.40321 0.0
N582 N 0.06251 0.98916 0.36493 0.0
N583 N 0.16026 0.94053 0.49307 0.0
C584 C 0.09325 0.9743 0.38979 0.0
C585 C 0.14326 0.94971 0.45621 0.0
N586 N 0.13779 0.02979 0.38522 0.0
N587 N 0.11925 0.8867 0.4445 0.0
H588 H 0.17894 0.95887 0.50999 0.0
H589 H 0.15235 0.91604 0.50864 0.0
H590 H 0.1013 0.86663 0.42958 0.0
H591 H 0.142 0.87549 0.46425 0.0
H592 H 0.125 0.03755 0.35728 0.0
H593 H 0.16258 0.04721 0.39504 0.0
H594 H 0.0611 0.01745 0.35769 0.0
H595 H 0.03551 0.97439 0.35531 0.0
C596 C 0.15875 0.03766 0.89879 0.0
C597 C 0.14427 0.0089 0.92537 0.0
C598 C 0.06912 0.02875 0.91613 0.0
C599 C 0.08359 0.05747 0.88935 0.0
N600 N 0.14008 0.08362 0.84748 0.0
N601 N 0.08601 0.9725 0.95422 0.0
C602 C 0.12786 0.06023 0.87837 0.0
C603 C 0.09948 0.003 0.93235 0.0
N604 N 0.20205 0.04396 0.89389 0.0
N605 N 0.0265 0.02678 0.927 0.0
H606 H 0.10729 0.95376 0.96779 0.0
H607 H 0.0539 0.96408 0.95667 0.0
H608 H 0.00296 0.04348 0.91387 0.0
H609 H 0.0145 0.00989 0.95026 0.0
H610 H 0.21477 0.06717 0.87885 0.0
H611 H 0.22555 0.02704 0.90706 0.0
H612 H 0.17114 0.08456 0.83523 0.0
H613 H 0.11799 0.09991 0.8316 0.0
C614 C 0.90899 0.98986 0.45292 0.0
C615 C 0.87241 0.00272 0.43123 0.0
C616 C 0.87845 0.9502 0.38451 0.0
C617 C 0.91539 0.93782 0.40587 0.0
N618 N 0.95851 0.93917 0.46642 0.0
N619 N 0.81643 0.99165 0.38252 0.0
C620 C 0.92808 0.95537 0.44222 0.0
C621 C 0.85516 0.98163 0.39896 0.0
N622 N 0.92716 0.01167 0.48207 0.0
N623 N 0.86646 0.93236 0.34991 0.0
H624 H 0.79882 0.01456 0.39267 0.0
H625 H 0.80007 0.97583 0.36122 0.0
H626 H 0.88116 0.9078 0.34028 0.0
H627 H 0.84312 0.94238 0.33009 0.0
H628 H 0.95696 0.00606 0.4952 0.0
H629 H 0.91418 0.03707 0.49118 0.0
H630 H 0.96608 0.94876 0.4952 0.0
H631 H 0.97313 0.91386 0.45963 0.0
C632 C 0.3776 0.38164 0.1774 0.0
C633 C 0.3688 0.34753 0.1578 0.0
C634 C 0.38669 0.31304 0.21979 0.0
C635 C 0.39874 0.34728 0.2384 0.0
N636 N 0.38071 0.41286 0.24168 0.0
N637 N 0.35145 0.28226 0.16354 0.0
C638 C 0.38639 0.38132 0.21947 0.0
C639 C 0.36903 0.31361 0.18009 0.0
N640 N 0.37928 0.41425 0.15578 0.0
N641 N 0.39212 0.28002 0.23995 0.0
H642 H 0.33779 0.28205 0.13473 0.0
H643 H 0.34683 0.25735 0.17936 0.0
H644 H 0.39842 0.27859 0.27082 0.0
H645 H 0.39066 0.25407 0.22615 0.0
H646 H 0.39019 0.43919 0.16814 0.0
H647 H 0.37333 0.4158 0.12477 0.0
H648 H 0.36913 0.43768 0.22929 0.0
H649 H 0.38053 0.41255 0.27319 0.0
C650 C 0.59985 0.65642 0.6541 0.0
C651 C 0.64245 0.64359 0.66087 0.0
C652 C 0.62849 0.6403 0.73413 0.0
C653 C 0.58507 0.65189 0.7275 0.0
N654 N 0.52735 0.66373 0.68026 0.0
N655 N 0.70073 0.63091 0.70662 0.0
C656 C 0.5704 0.65875 0.68727 0.0
C657 C 0.65774 0.63776 0.70076 0.0
N658 N 0.58754 0.6664 0.61581 0.0
N659 N 0.64116 0.62988 0.77212 0.0
H660 H 0.72286 0.62899 0.68276 0.0
H661 H 0.7154 0.63024 0.73486 0.0
H662 H 0.62093 0.63157 0.79722 0.0
H663 H 0.67044 0.61708 0.77865 0.0
H664 H 0.55906 0.68057 0.60936 0.0
H665 H 0.60732 0.66317 0.59041 0.0
H666 H 0.5135 0.6646 0.65164 0.0
H667 H 0.50437 0.66329 0.7032 0.0
C668 C 0.60228 0.31688 0.16769 0.0
C669 C 0.63244 0.34672 0.16554 0.0
C670 C 0.6124 0.36487 0.23454 0.0
C671 C 0.57773 0.33904 0.23413 0.0
N672 N 0.53665 0.29247 0.19854 0.0
N673 N 0.66125 0.40313 0.19468 0.0
C674 C 0.572 0.31528 0.20036 0.0
C675 C 0.63639 0.37172 0.19847 0.0
N676 N 0.6031 0.28974 0.13891 0.0
N677 N 0.62311 0.38222 0.26975 0.0
H678 H 0.6785 0.40999 0.16844 0.0
H679 H 0.66145 0.42422 0.21618 0.0
H680 H 0.60735 0.37646 0.29706 0.0
H681 H 0.65056 0.3988 0.27281 0.0
H682 H 0.58481 0.26538 0.14096 0.0
H683 H 0.62507 0.28996 0.1148 0.0
H684 H 0.52808 0.27789 0.17264 0.0
H685 H 0.51403 0.29012 0.22194 0.0
C686 C 0.40138 0.70417 0.66222 0.0
C687 C 0.3732 0.67459 0.65172 0.0
C688 C 0.37996 0.64796 0.72002 0.0
C689 C 0.4138 0.67351 0.72794 0.0
N690 N 0.45732 0.72655 0.70668 0.0
N691 N 0.33372 0.61899 0.67014 0.0
C692 C 0.4239 0.70246 0.69958 0.0
C693 C 0.36153 0.64688 0.6807 0.0
N694 N 0.40731 0.73357 0.63611 0.0
N695 N 0.36494 0.62537 0.75057 0.0
H696 H 0.31758 0.61872 0.64249 0.0
H697 H 0.32795 0.59536 0.68788 0.0
H698 H 0.37704 0.62662 0.77995 0.0
H699 H 0.338 0.60815 0.74808 0.0
H700 H 0.42278 0.75822 0.64404 0.0
H701 H 0.39398 0.73476 0.60725 0.0
H702 H 0.47034 0.74443 0.6848 0.0
H703 H 0.47469 0.72721 0.73348 0.0
C704 C 0.85866 0.84076 0.19742 0.0
C705 C 0.86982 0.86413 0.16416 0.0
C706 C 0.92652 0.89403 0.20379 0.0
C707 C 0.91625 0.86987 0.2368 0.0
N708 N 0.86585 0.82806 0.26945 0.0
N709 N 0.9055 0.91925 0.13847 0.0
C710 C 0.88 0.84573 0.235 0.0
C711 C 0.9007 0.89302 0.16845 0.0
N712 N 0.82895 0.81295 0.19252 0.0
N713 N 0.96255 0.91612 0.20502 0.0
H714 H 0.88754 0.91886 0.11184 0.0
H715 H 0.92427 0.94318 0.14145 0.0
H716 H 0.98184 0.91865 0.23054 0.0
H717 H 0.97497 0.93035 0.1799 0.0
H718 H 0.82302 0.79214 0.21402 0.0
H719 H 0.81154 0.80965 0.16582 0.0
H720 H 0.83756 0.81235 0.27112 0.0
H721 H 0.88037 0.83215 0.29751 0.0
C722 C 0.16609 0.1407 0.71607 0.0
C723 C 0.15321 0.13833 0.67503 0.0
C724 C 0.07781 0.14941 0.69461 0.0
C725 C 0.09067 0.15168 0.73575 0.0
N726 N 0.14737 0.15981 0.78431 0.0
N727 N 0.09939 0.14866 0.6238 0.0
C728 C 0.13502 0.1505 0.74606 0.0
C729 C 0.10982 0.14542 0.66387 0.0
N730 N 0.20763 0.13233 0.72653 0.0
N731 N 0.03494 0.14944 0.68504 0.0
H732 H 0.12196 0.14539 0.6005 0.0
H733 H 0.06939 0.15765 0.6136 0.0
H734 H 0.01068 0.1539 0.70634 0.0
H735 H 0.02313 0.14305 0.65647 0.0
H736 H 0.21779 0.12927 0.75637 0.0
H737 H 0.23151 0.1261 0.7052 0.0
H738 H 0.17944 0.16268 0.7931 0.0
H739 H 0.12518 0.16818 0.8063 0.0
C740 C 0.11743 0.83648 0.17165 0.0
C741 C 0.14874 0.8654 0.17182 0.0
C742 C 0.12716 0.88137 0.24115 0.0
C743 C 0.0918 0.8563 0.23866 0.0
N744 N 0.0499 0.81299 0.19911 0.0
N745 N 0.17972 0.91902 0.20466 0.0
C746 C 0.08617 0.83437 0.20339 0.0
C747 C 0.15281 0.88875 0.20611 0.0
N748 N 0.11804 0.81063 0.14147 0.0
N749 N 0.13702 0.89733 0.27738 0.0
H750 H 0.19884 0.92571 0.17951 0.0
H751 H 0.1803 0.93931 0.22703 0.0
H752 H 0.11981 0.89142 0.3039 0.0
H753 H 0.16484 0.91306 0.28206 0.0
H754 H 0.09893 0.78669 0.1419 0.0
H755 H 0.14059 0.81129 0.11784 0.0
H756 H 0.04161 0.80008 0.1721 0.0
H757 H 0.02613 0.81046 0.22142 0.0
C758 C 0.89972 0.19894 0.66849 0.0
C759 C 0.87487 0.16768 0.65686 0.0
C760 C 0.88517 0.13981 0.72401 0.0
C761 C 0.91683 0.16728 0.73245 0.0
N762 N 0.95738 0.22183 0.7104 0.0
N763 N 0.84505 0.10703 0.67249 0.0
C764 C 0.92448 0.19701 0.70446 0.0
C765 C 0.86736 0.13789 0.68451 0.0
N766 N 0.89969 0.23047 0.64496 0.0
N767 N 0.87172 0.11598 0.75404 0.0
H768 H 0.83103 0.10482 0.64397 0.0
H769 H 0.84293 0.08267 0.68976 0.0
H770 H 0.88317 0.11774 0.7836 0.0
H771 H 0.84612 0.09737 0.7508 0.0
H772 H 0.91375 0.25548 0.65388 0.0
H773 H 0.8818 0.23267 0.61836 0.0
H774 H 0.96766 0.24085 0.68834 0.0
H775 H 0.97706 0.2217 0.7358 0.0
loop_
_geom_bond_atom_site_label_1
_geom_bond_atom_site_label_2
_geom_bond_distance
_geom_bond_site_symmetry_2
_ccdc_geom_bond_type
P0 O11 1.490 . S
P0 C14 1.812 1_556 S
P0 C20 1.803 . S
P0 C26 1.819 . S
H1 C15 0.941 . S
H2 C16 0.939 . S
H3 C18 0.940 . S
H4 C19 0.940 . S
H5 C21 0.939 . S
H6 C22 0.942 . S
H7 C24 0.940 1_554 S
H8 C25 0.939 1_554 S
H9 C27 0.941 . S
H10 C31 0.939 . S
O11 P0 1.490 . S
H12 C28 0.939 . S
H13 C30 0.940 . S
C14 P0 1.812 1_554 S
C14 C15 1.389 . S
C14 C19 1.391 . S
C15 H1 0.941 . S
C15 C14 1.389 . S
C15 C16 1.397 . S
C16 H2 0.939 . S
C16 C15 1.397 . S
C16 C17 1.378 . S
C17 C16 1.378 . S
C17 C18 1.378 . S
C18 H3 0.940 . S
C18 C17 1.378 . S
C18 C19 1.396 . S
C19 H4 0.940 . S
C19 C14 1.391 . S
C19 C18 1.396 . S
C20 P0 1.803 . S
C20 C21 1.378 . S
C20 C25 1.400 . S
C21 H5 0.939 . S
C21 C20 1.378 . S
C21 C22 1.361 . S
C22 H6 0.942 . S
C22 C21 1.361 . S
C22 C23 1.369 . S
C23 C22 1.369 . S
C23 C24 1.404 . S
C24 H7 0.940 1_556 S
C24 C23 1.404 . S
C24 C25 1.389 . S
C25 H8 0.939 1_556 S
C25 C20 1.400 . S
C25 C24 1.389 . S
C26 P0 1.819 . S
C26 C27 1.391 . S
C26 C31 1.391 . S
C27 H9 0.941 . S
C27 C26 1.391 . S
C27 C28 1.396 . S
C28 H12 0.939 . S
C28 C27 1.396 . S
C28 C29 1.397 . S
C29 C28 1.397 . S
C29 C30 1.385 . S
C30 H13 0.940 . S
C30 C29 1.385 . S
C30 C31 1.388 . S
C31 H10 0.939 . S
C31 C26 1.391 . S
C31 C30 1.388 . S
P32 O43 1.490 . S
P32 C46 1.812 . S
P32 C52 1.803 . S
P32 C58 1.819 . S
H33 C47 0.941 . S
H34 C48 0.939 . S
H35 C50 0.940 . S
H36 C51 0.940 . S
H37 C53 0.939 . S
H38 C54 0.942 . S
H39 C56 0.940 . S
H40 C57 0.939 . S
H41 C59 0.941 . S
H42 C63 0.939 . S
O43 P32 1.490 . S
H44 C60 0.939 . S
H45 C62 0.940 . S
C46 P32 1.812 . S
C46 C47 1.389 . S
C46 C51 1.391 . S
C47 H33 0.941 . S
C47 C46 1.389 . S
C47 C48 1.397 . S
C48 H34 0.939 . S
C48 C47 1.397 . S
C48 C49 1.378 . S
C49 C48 1.378 . S
C49 C50 1.378 . S
C50 H35 0.940 . S
C50 C49 1.378 . S
C50 C51 1.396 . S
C51 H36 0.940 . S
C51 C46 1.391 . S
C51 C50 1.396 . S
C52 P32 1.803 . S
C52 C53 1.378 . S
C52 C57 1.400 . S
C53 H37 0.939 . S
C53 C52 1.378 . S
C53 C54 1.361 . S
C54 H38 0.942 . S
C54 C53 1.361 . S
C54 C55 1.369 . S
C55 C54 1.369 . S
C55 C56 1.404 . S
C56 H39 0.940 . S
C56 C55 1.404 . S
C56 C57 1.389 . S
C57 H40 0.939 . S
C57 C52 1.400 . S
C57 C56 1.389 . S
C58 P32 1.819 . S
C58 C59 1.391 . S
C58 C63 1.391 . S
C59 H41 0.941 . S
C59 C58 1.391 . S
C59 C60 1.396 . S
C60 H44 0.939 . S
C60 C59 1.396 . S
C60 C61 1.397 . S
C61 C60 1.397 . S
C61 C62 1.385 . S
C62 H45 0.940 . S
C62 C61 1.385 . S
C62 C63 1.388 . S
C63 H42 0.939 . S
C63 C58 1.391 . S
C63 C62 1.388 . S
P64 O75 1.490 . S
P64 C78 1.812 . S
P64 C84 1.803 . S
P64 C90 1.819 1_554 S
H65 C79 0.941 . S
H66 C80 0.939 . S
H67 C82 0.940 . S
H68 C83 0.940 . S
H69 C85 0.939 . S
H70 C86 0.942 . S
H71 C88 0.940 . S
H72 C89 0.939 1_554 S
H73 C91 0.941 . S
H74 C95 0.939 . S
O75 P64 1.490 . S
H76 C92 0.939 . S
H77 C94 0.940 . S
C78 P64 1.812 . S
C78 C79 1.389 . S
C78 C83 1.391 . S
C79 H65 0.941 . S
C79 C78 1.389 . S
C79 C80 1.397 . S
C80 H66 0.939 . S
C80 C79 1.397 . S
C80 C81 1.378 . S
C81 C80 1.378 . S
C81 C82 1.378 . S
C82 H67 0.940 . S
C82 C81 1.378 . S
C82 C83 1.396 . S
C83 H68 0.940 . S
C83 C78 1.391 . S
C83 C82 1.396 . S
C84 P64 1.803 . S
C84 C85 1.378 1_554 S
C84 C89 1.400 1_554 S
C85 H69 0.939 . S
C85 C84 1.378 1_556 S
C85 C86 1.361 . S
C86 H70 0.942 . S
C86 C85 1.361 . S
C86 C87 1.369 . S
C87 C86 1.369 . S
C87 C88 1.404 . S
C88 H71 0.940 . S
C88 C87 1.404 . S
C88 C89 1.389 . S
C89 H72 0.939 1_556 S
C89 C84 1.400 1_556 S
C89 C88 1.389 . S
C90 P64 1.819 1_556 S
C90 C91 1.391 1_556 S
C90 C95 1.391 . S
C91 H73 0.941 . S
C91 C90 1.391 1_554 S
C91 C92 1.396 1_554 S
C92 H76 0.939 . S
C92 C91 1.396 1_556 S
C92 C93 1.397 . S
C93 C92 1.397 . S
C93 C94 1.385 . S
C94 H77 0.940 . S
C94 C93 1.385 . S
C94 C95 1.388 . S
C95 H74 0.939 . S
C95 C90 1.391 . S
C95 C94 1.388 . S
P96 O107 1.490 . S
P96 C110 1.812 . S
P96 C116 1.803 . S
P96 C122 1.819 . S
H97 C111 0.941 . S
H98 C112 0.939 . S
H99 C114 0.940 . S
H100 C115 0.940 . S
H101 C117 0.939 . S
H102 C118 0.942 . S
H103 C120 0.940 . S
H104 C121 0.939 . S
H105 C123 0.941 . S
H106 C127 0.939 . S
O107 P96 1.490 . S
H108 C124 0.939 . S
H109 C126 0.940 . S
C110 P96 1.812 . S
C110 C111 1.389 . S
C110 C115 1.391 . S
C111 H97 0.941 . S
C111 C110 1.389 . S
C111 C112 1.397 . S
C112 H98 0.939 . S
C112 C111 1.397 . S
C112 C113 1.378 . S
C113 C112 1.378 . S
C113 C114 1.378 . S
C114 H99 0.940 . S
C114 C113 1.378 . S
C114 C115 1.396 . S
C115 H100 0.940 . S
C115 C110 1.391 . S
C115 C114 1.396 . S
C116 P96 1.803 . S
C116 C117 1.378 . S
C116 C121 1.400 . S
C117 H101 0.939 . S
C117 C116 1.378 . S
C117 C118 1.361 . S
C118 H102 0.942 . S
C118 C117 1.361 . S
C118 C119 1.369 . S
C119 C118 1.369 . S
C119 C120 1.404 . S
C120 H103 0.940 . S
C120 C119 1.404 . S
C120 C121 1.389 . S
C121 H104 0.939 . S
C121 C116 1.400 . S
C121 C120 1.389 . S
C122 P96 1.819 . S
C122 C123 1.391 . S
C122 C127 1.391 . S
C123 H105 0.941 . S
C123 C122 1.391 . S
C123 C124 1.396 . S
C124 H108 0.939 . S
C124 C123 1.396 . S
C124 C125 1.397 . S
C125 C124 1.397 . S
C125 C126 1.385 . S
C126 H109 0.940 . S
C126 C125 1.385 . S
C126 C127 1.388 . S
C127 H106 0.939 . S
C127 C122 1.391 . S
C127 C126 1.388 . S
P128 O139 1.490 . S
P128 C142 1.812 1_556 S
P128 C148 1.803 . S
P128 C154 1.819 . S
H129 C143 0.941 . S
H130 C144 0.939 . S
H131 C146 0.940 . S
H132 C147 0.940 . S
H133 C149 0.939 . S
H134 C150 0.942 . S
H135 C152 0.940 1_554 S
H136 C153 0.939 1_554 S
H137 C155 0.941 . S
H138 C159 0.939 . S
O139 P128 1.490 . S
H140 C156 0.939 . S
H141 C158 0.940 . S
C142 P128 1.812 1_554 S
C142 C143 1.389 . S
C142 C147 1.391 . S
C143 H129 0.941 . S
C143 C142 1.389 . S
C143 C144 1.397 . S
C144 H130 0.939 . S
C144 C143 1.397 . S
C144 C145 1.378 . S
C145 C144 1.378 . S
C145 C146 1.378 . S
C146 H131 0.940 . S
C146 C145 1.378 . S
C146 C147 1.396 . S
C147 H132 0.940 . S
C147 C142 1.391 . S
C147 C146 1.396 . S
C148 P128 1.803 . S
C148 C149 1.378 . S
C148 C153 1.400 . S
C149 H133 0.939 . S
C149 C148 1.378 . S
C149 C150 1.361 . S
C150 H134 0.942 . S
C150 C149 1.361 . S
C150 C151 1.369 . S
C151 C150 1.369 . S
C151 C152 1.404 . S
C152 H135 0.940 1_556 S
C152 C151 1.404 . S
C152 C153 1.389 . S
C153 H136 0.939 1_556 S
C153 C148 1.400 . S
C153 C152 1.389 . S
C154 P128 1.819 . S
C154 C155 1.391 . S
C154 C159 1.391 . S
C155 H137 0.941 . S
C155 C154 1.391 . S
C155 C156 1.396 . S
C156 H140 0.939 . S
C156 C155 1.396 . S
C156 C157 1.397 . S
C157 C156 1.397 . S
C157 C158 1.385 . S
C158 H141 0.940 . S
C158 C157 1.385 . S
C158 C159 1.388 . S
C159 H138 0.939 . S
C159 C154 1.391 . S
C159 C158 1.388 . S
P160 O171 1.490 . S
P160 C174 1.812 . S
P160 C180 1.803 . S
P160 C186 1.819 . S
H161 C175 0.941 . S
H162 C176 0.939 . S
H163 C178 0.940 . S
H164 C179 0.940 . S
H165 C181 0.939 . S
H166 C182 0.942 . S
H167 C184 0.940 . S
H168 C185 0.939 . S
H169 C187 0.941 . S
H170 C191 0.939 . S
O171 P160 1.490 . S
H172 C188 0.939 . S
H173 C190 0.940 . S
C174 P160 1.812 . S
C174 C175 1.389 . S
C174 C179 1.391 . S
C175 H161 0.941 . S
C175 C174 1.389 . S
C175 C176 1.397 1_545 S
C176 H162 0.939 . S
C176 C175 1.397 1_565 S
C176 C177 1.378 1_565 S
C177 C176 1.378 1_545 S
C177 C178 1.378 . S
C178 H163 0.940 . S
C178 C177 1.378 . S
C178 C179 1.396 . S
C179 H164 0.940 . S
C179 C174 1.391 . S
C179 C178 1.396 . S
C180 P160 1.803 . S
C180 C181 1.378 . S
C180 C185 1.400 . S
C181 H165 0.939 . S
C181 C180 1.378 . S
C181 C182 1.361 . S
C182 H166 0.942 . S
C182 C181 1.361 . S
C182 C183 1.369 . S
C183 C182 1.369 . S
C183 C184 1.404 . S
C184 H167 0.940 . S
C184 C183 1.404 . S
C184 C185 1.389 . S
C185 H168 0.939 . S
C185 C180 1.400 . S
C185 C184 1.389 . S
C186 P160 1.819 . S
C186 C187 1.391 . S
C186 C191 1.391 . S
C187 H169 0.941 . S
C187 C186 1.391 . S
C187 C188 1.396 . S
C188 H172 0.939 . S
C188 C187 1.396 . S
C188 C189 1.397 . S
C189 C188 1.397 . S
C189 C190 1.385 . S
C190 H173 0.940 . S
C190 C189 1.385 . S
C190 C191 1.388 . S
C191 H170 0.939 . S
C191 C186 1.391 . S
C191 C190 1.388 . S
P192 O203 1.490 . S
P192 C206 1.812 . S
P192 C212 1.803 . S
P192 C218 1.819 1_554 S
H193 C207 0.941 . S
H194 C208 0.939 . S
H195 C210 0.940 . S
H196 C211 0.940 . S
H197 C213 0.939 . S
H198 C214 0.942 . S
H199 C216 0.940 . S
H200 C217 0.939 1_554 S
H201 C219 0.941 . S
H202 C223 0.939 . S
O203 P192 1.490 . S
H204 C220 0.939 . S
H205 C222 0.940 . S
C206 P192 1.812 . S
C206 C207 1.389 . S
C206 C211 1.391 . S
C207 H193 0.941 . S
C207 C206 1.389 . S
C207 C208 1.397 . S
C208 H194 0.939 . S
C208 C207 1.397 . S
C208 C209 1.378 . S
C209 C208 1.378 . S
C209 C210 1.378 . S
C210 H195 0.940 . S
C210 C209 1.378 . S
C210 C211 1.396 . S
C211 H196 0.940 . S
C211 C206 1.391 . S
C211 C210 1.396 . S
C212 P192 1.803 . S
C212 C213 1.378 1_554 S
C212 C217 1.400 1_554 S
C213 H197 0.939 . S
C213 C212 1.378 1_556 S
C213 C214 1.361 . S
C214 H198 0.942 . S
C214 C213 1.361 . S
C214 C215 1.369 . S
C215 C214 1.369 . S
C215 C216 1.404 . S
C216 H199 0.940 . S
C216 C215 1.404 . S
C216 C217 1.389 . S
C217 H200 0.939 1_556 S
C217 C212 1.400 1_556 S
C217 C216 1.389 . S
C218 P192 1.819 1_556 S
C218 C219 1.391 1_556 S
C218 C223 1.391 . S
C219 H201 0.941 . S
C219 C218 1.391 1_554 S
C219 C220 1.396 1_564 S
C220 H204 0.939 . S
C220 C219 1.396 1_546 S
C220 C221 1.397 1_545 S
C221 C220 1.397 1_565 S
C221 C222 1.385 . S
C222 H205 0.940 . S
C222 C221 1.385 . S
C222 C223 1.388 . S
C223 H202 0.939 . S
C223 C218 1.391 . S
C223 C222 1.388 . S
P224 O235 1.490 . S
P224 C238 1.812 . S
P224 C244 1.803 . S
P224 C250 1.819 . S
H225 C239 0.941 . S
H226 C240 0.939 . S
H227 C242 0.940 1_565 S
H228 C243 0.940 . S
H229 C245 0.939 . S
H230 C246 0.942 . S
H231 C248 0.940 . S
H232 C249 0.939 . S
H233 C251 0.941 . S
H234 C255 0.939 . S
O235 P224 1.490 . S
H236 C252 0.939 . S
H237 C254 0.940 . S
C238 P224 1.812 . S
C238 C239 1.389 . S
C238 C243 1.391 . S
C239 H225 0.941 . S
C239 C238 1.389 . S
C239 C240 1.397 . S
C240 H226 0.939 . S
C240 C239 1.397 . S
C240 C241 1.378 . S
C241 C240 1.378 . S
C241 C242 1.378 . S
C242 H227 0.940 1_545 S
C242 C241 1.378 . S
C242 C243 1.396 . S
C243 H228 0.940 . S
C243 C238 1.391 . S
C243 C242 1.396 . S
C244 P224 1.803 . S
C244 C245 1.378 . S
C244 C249 1.400 . S
C245 H229 0.939 . S
C245 C244 1.378 . S
C245 C246 1.361 . S
C246 H230 0.942 . S
C246 C245 1.361 . S
C246 C247 1.369 . S
C247 C246 1.369 . S
C247 C248 1.404 . S
C248 H231 0.940 . S
C248 C247 1.404 . S
C248 C249 1.389 . S
C249 H232 0.939 . S
C249 C244 1.400 . S
C249 C248 1.389 . S
C250 P224 1.819 . S
C250 C251 1.391 . S
C250 C255 1.391 . S
C251 H233 0.941 . S
C251 C250 1.391 . S
C251 C252 1.396 . S
C252 H236 0.939 . S
C252 C251 1.396 . S
C252 C253 1.397 . S
C253 C252 1.397 . S
C253 C254 1.385 . S
C254 H237 0.940 . S
C254 C253 1.385 . S
C254 C255 1.388 . S
C255 H234 0.939 . S
C255 C250 1.391 . S
C255 C254 1.388 . S
Fe256 O258 1.918 . S
Fe256 O261 1.997 1_455 S
Fe256 O262 2.002 1_455 S
Fe256 O267 1.976 . S
Fe256 O270 1.996 . S
Fe257 O258 1.918 . S
Fe257 O265 1.997 1_455 S
Fe257 O268 1.996 . S
Fe257 O272 1.976 . S
Fe257 O275 2.002 1_455 S
O258 Fe256 1.918 . S
O258 Fe257 1.918 . S
O258 Fe259 1.918 . S
Fe259 O258 1.918 . S
Fe259 O260 2.002 1_455 S
Fe259 O269 1.976 . S
Fe259 O273 1.996 . S
Fe259 O276 1.997 1_455 S
O260 Fe259 2.002 1_655 S
O260 C277 1.295 . S
O261 Fe256 1.997 1_655 S
O261 C277 1.235 . S
O262 Fe256 2.002 1_655 S
O262 C263 1.295 . S
C263 O262 1.295 . S
C263 O265 1.235 . S
C264 O269 1.287 . S
C264 O270 1.255 . S
O265 Fe257 1.997 1_655 S
O265 C263 1.235 . S
C266 O272 1.287 . S
C266 O273 1.255 . S
O267 Fe256 1.976 . S
O267 C274 1.287 . S
O268 Fe257 1.996 . S
O268 C274 1.255 . S
O269 Fe259 1.976 . S
O269 C264 1.287 . S
O270 Fe256 1.996 . S
O270 C264 1.255 . S
C271 O275 1.295 . S
C271 O276 1.235 . S
O272 Fe257 1.976 . S
O272 C266 1.287 . S
O273 Fe259 1.996 . S
O273 C266 1.255 . S
C274 O267 1.287 . S
C274 O268 1.255 . S
O275 Fe257 2.002 1_655 S
O275 C271 1.295 . S
O276 Fe259 1.997 1_655 S
O276 C271 1.235 . S
C277 O260 1.295 . S
C277 O261 1.235 . S
Fe278 O280 1.919 . S
Fe278 O283 1.977 1_655 S
Fe278 O284 1.983 1_655 S
Fe278 O289 1.995 . S
Fe278 O292 2.015 . S
Fe279 O280 1.919 . S
Fe279 O287 1.978 1_655 S
Fe279 O290 2.014 . S
Fe279 O294 1.995 . S
Fe279 O297 1.983 1_655 S
O280 Fe278 1.919 . S
O280 Fe279 1.919 . S
O280 Fe281 1.919 . S
Fe281 O280 1.919 . S
Fe281 O282 1.983 1_655 S
Fe281 O291 1.995 . S
Fe281 O295 2.014 . S
Fe281 O298 1.978 1_655 S
O282 Fe281 1.983 1_455 S
O282 C299 1.295 . S
O283 Fe278 1.977 1_455 S
O283 C299 1.235 . S
O284 Fe278 1.983 1_455 S
O284 C285 1.295 . S
C285 O284 1.295 . S
C285 O287 1.235 . S
C286 O291 1.287 . S
C286 O292 1.255 . S
O287 Fe279 1.978 1_455 S
O287 C285 1.235 . S
C288 O294 1.287 . S
C288 O295 1.255 . S
O289 Fe278 1.995 . S
O289 C296 1.287 . S
O290 Fe279 2.014 . S
O290 C296 1.255 . S
O291 Fe281 1.995 . S
O291 C286 1.287 . S
O292 Fe278 2.015 . S
O292 C286 1.255 . S
C293 O297 1.295 . S
C293 O298 1.235 . S
O294 Fe279 1.995 . S
O294 C288 1.287 . S
O295 Fe281 2.014 . S
O295 C288 1.255 . S
C296 O289 1.287 . S
C296 O290 1.255 . S
O297 Fe279 1.983 1_455 S
O297 C293 1.295 . S
O298 Fe281 1.978 1_455 S
O298 C293 1.235 . S
C299 O282 1.295 . S
C299 O283 1.235 . S
Fe300 O302 1.918 . S
Fe300 O305 1.997 . S
Fe300 O306 2.002 . S
Fe300 O311 1.976 . S
Fe300 O314 1.996 . S
Fe301 O302 1.918 . S
Fe301 O309 1.997 . S
Fe301 O312 1.996 . S
Fe301 O316 1.976 . S
Fe301 O319 2.002 . S
O302 Fe300 1.918 . S
O302 Fe301 1.918 . S
O302 Fe303 1.918 . S
Fe303 O302 1.918 . S
Fe303 O304 2.002 . S
Fe303 O313 1.976 . S
Fe303 O317 1.996 . S
Fe303 O320 1.997 . S
O304 Fe303 2.002 . S
O304 C321 1.295 . S
O305 Fe300 1.997 . S
O305 C321 1.235 . S
O306 Fe300 2.002 . S
O306 C307 1.295 . S
C307 O306 1.295 . S
C307 O309 1.235 . S
C308 O313 1.287 . S
C308 O314 1.255 . S
O309 Fe301 1.997 . S
O309 C307 1.235 . S
C310 O316 1.287 . S
C310 O317 1.255 . S
O311 Fe300 1.976 . S
O311 C318 1.287 . S
O312 Fe301 1.996 . S
O312 C318 1.255 . S
O313 Fe303 1.976 . S
O313 C308 1.287 . S
O314 Fe300 1.996 . S
O314 C308 1.255 . S
C315 O319 1.295 . S
C315 O320 1.235 . S
O316 Fe301 1.976 . S
O316 C310 1.287 . S
O317 Fe303 1.996 . S
O317 C310 1.255 . S
C318 O311 1.287 . S
C318 O312 1.255 . S
O319 Fe301 2.002 . S
O319 C315 1.295 . S
O320 Fe303 1.997 . S
O320 C315 1.235 . S
C321 O304 1.295 . S
C321 O305 1.235 . S
Fe322 O324 1.918 . S
Fe322 O327 1.997 . S
Fe322 O328 2.002 . S
Fe322 O333 1.976 . S
Fe322 O336 1.996 . S
Fe323 O324 1.918 . S
Fe323 O331 1.997 . S
Fe323 O334 1.996 . S
Fe323 O338 1.976 . S
Fe323 O341 2.002 . S
O324 Fe322 1.918 . S
O324 Fe323 1.918 . S
O324 Fe325 1.918 . S
Fe325 O324 1.918 . S
Fe325 O326 2.002 . S
Fe325 O335 1.976 . S
Fe325 O339 1.996 . S
Fe325 O342 1.997 . S
O326 Fe325 2.002 . S
O326 C343 1.295 . S
O327 Fe322 1.997 . S
O327 C343 1.235 . S
O328 Fe322 2.002 . S
O328 C329 1.295 . S
C329 O328 1.295 . S
C329 O331 1.235 . S
C330 O335 1.287 . S
C330 O336 1.255 . S
O331 Fe323 1.997 . S
O331 C329 1.235 . S
C332 O338 1.287 . S
C332 O339 1.255 . S
O333 Fe322 1.976 . S
O333 C340 1.287 . S
O334 Fe323 1.996 . S
O334 C340 1.255 . S
O335 Fe325 1.976 . S
O335 C330 1.287 . S
O336 Fe322 1.996 . S
O336 C330 1.255 . S
C337 O341 1.295 . S
C337 O342 1.235 . S
O338 Fe323 1.976 . S
O338 C332 1.287 . S
O339 Fe325 1.996 . S
O339 C332 1.255 . S
C340 O333 1.287 . S
C340 O334 1.255 . S
O341 Fe323 2.002 . S
O341 C337 1.295 . S
O342 Fe325 1.997 . S
O342 C337 1.235 . S
C343 O326 1.295 . S
C343 O327 1.235 . S
C344 C345 1.363 . S
C344 C350 1.379 . S
C344 N352 1.356 . S
C345 C344 1.363 . S
C345 C351 1.363 . S
C346 C347 1.363 . S
C346 C351 1.379 . S
C346 N353 1.356 . S
C347 C346 1.363 . S
C347 C350 1.363 . S
N348 C350 1.356 . S
N348 H360 0.984 . S
N348 H361 0.985 . S
N349 C351 1.356 . S
N349 H354 0.984 . S
N349 H355 0.985 . S
C350 C344 1.379 . S
C350 C347 1.363 . S
C350 N348 1.356 . S
C351 C345 1.363 . S
C351 C346 1.379 . S
C351 N349 1.356 . S
N352 C344 1.356 . S
N352 H358 0.984 . S
N352 H359 0.984 . S
N353 C346 1.356 . S
N353 H356 0.984 . S
N353 H357 0.985 . S
H354 N349 0.984 . S
H355 N349 0.985 . S
H356 N353 0.984 . S
H357 N353 0.985 . S
H358 N352 0.984 . S
H359 N352 0.984 . S
H360 N348 0.984 . S
H361 N348 0.985 . S
C362 C363 1.363 . S
C362 C368 1.379 . S
C362 N370 1.356 . S
C363 C362 1.363 . S
C363 C369 1.363 . S
C364 C365 1.363 . S
C364 C369 1.379 . S
C364 N371 1.356 . S
C365 C364 1.363 . S
C365 C368 1.363 . S
N366 C368 1.356 . S
N366 H378 0.984 . S
N366 H379 0.985 . S
N367 C369 1.356 . S
N367 H372 0.984 . S
N367 H373 0.985 . S
C368 C362 1.379 . S
C368 C365 1.363 . S
C368 N366 1.356 . S
C369 C363 1.363 . S
C369 C364 1.379 . S
C369 N367 1.356 . S
N370 C362 1.356 . S
N370 H376 0.984 . S
N370 H377 0.984 . S
N371 C364 1.356 . S
N371 H374 0.984 . S
N371 H375 0.985 . S
H372 N367 0.984 . S
H373 N367 0.985 . S
H374 N371 0.984 . S
H375 N371 0.985 . S
H376 N370 0.984 . S
H377 N370 0.984 . S
H378 N366 0.984 . S
H379 N366 0.985 . S
C380 C381 1.363 . S
C380 C386 1.379 . S
C380 N388 1.356 . S
C381 C380 1.363 . S
C381 C387 1.363 . S
C382 C383 1.363 . S
C382 C387 1.379 . S
C382 N389 1.356 . S
C383 C382 1.363 . S
C383 C386 1.363 . S
N384 C386 1.356 . S
N384 H396 0.984 . S
N384 H397 0.985 . S
N385 C387 1.356 . S
N385 H390 0.984 . S
N385 H391 0.985 . S
C386 C380 1.379 . S
C386 C383 1.363 . S
C386 N384 1.356 . S
C387 C381 1.363 . S
C387 C382 1.379 . S
C387 N385 1.356 . S
N388 C380 1.356 . S
N388 H394 0.984 . S
N388 H395 0.984 . S
N389 C382 1.356 . S
N389 H392 0.984 . S
N389 H393 0.985 . S
H390 N385 0.984 . S
H391 N385 0.985 . S
H392 N389 0.984 . S
H393 N389 0.985 . S
H394 N388 0.984 . S
H395 N388 0.984 . S
H396 N384 0.984 . S
H397 N384 0.985 . S
C398 C399 1.363 . S
C398 C404 1.379 . S
C398 N406 1.356 . S
C399 C398 1.363 . S
C399 C405 1.363 . S
C400 C401 1.363 . S
C400 C405 1.379 . S
C400 N407 1.356 . S
C401 C400 1.363 . S
C401 C404 1.363 . S
N402 C404 1.356 . S
N402 H414 0.984 . S
N402 H415 0.985 . S
N403 C405 1.356 . S
N403 H408 0.984 . S
N403 H409 0.985 . S
C404 C398 1.379 . S
C404 C401 1.363 . S
C404 N402 1.356 . S
C405 C399 1.363 . S
C405 C400 1.379 . S
C405 N403 1.356 . S
N406 C398 1.356 . S
N406 H412 0.984 . S
N406 H413 0.984 . S
N407 C400 1.356 . S
N407 H410 0.984 . S
N407 H411 0.985 . S
H408 N403 0.984 . S
H409 N403 0.985 . S
H410 N407 0.984 . S
H411 N407 0.985 . S
H412 N406 0.984 . S
H413 N406 0.984 . S
H414 N402 0.984 . S
H415 N402 0.985 . S
C416 C417 1.363 . S
C416 C422 1.379 . S
C416 N424 1.356 . S
C417 C416 1.363 . S
C417 C423 1.363 . S
C418 C419 1.363 . S
C418 C423 1.379 . S
C418 N425 1.356 . S
C419 C418 1.363 . S
C419 C422 1.363 . S
N420 C422 1.356 . S
N420 H432 0.984 . S
N420 H433 0.985 . S
N421 C423 1.356 . S
N421 H426 0.984 . S
N421 H427 0.985 . S
C422 C416 1.379 . S
C422 C419 1.363 . S
C422 N420 1.356 . S
C423 C417 1.363 . S
C423 C418 1.379 . S
C423 N421 1.356 . S
N424 C416 1.356 . S
N424 H430 0.984 . S
N424 H431 0.984 . S
N425 C418 1.356 . S
N425 H428 0.984 . S
N425 H429 0.985 . S
H426 N421 0.984 . S
H427 N421 0.985 . S
H428 N425 0.984 . S
H429 N425 0.985 . S
H430 N424 0.984 . S
H431 N424 0.984 . S
H432 N420 0.984 . S
H433 N420 0.985 . S
C434 C435 1.363 . S
C434 C440 1.379 . S
C434 N442 1.356 . S
C435 C434 1.363 . S
C435 C441 1.363 . S
C436 C437 1.363 . S
C436 C441 1.379 . S
C436 N443 1.356 . S
C437 C436 1.363 . S
C437 C440 1.363 . S
N438 C440 1.356 . S
N438 H450 0.984 . S
N438 H451 0.985 . S
N439 C441 1.356 . S
N439 H444 0.984 . S
N439 H445 0.985 . S
C440 C434 1.379 . S
C440 C437 1.363 . S
C440 N438 1.356 . S
C441 C435 1.363 . S
C441 C436 1.379 . S
C441 N439 1.356 . S
N442 C434 1.356 . S
N442 H448 0.984 . S
N442 H449 0.984 . S
N443 C436 1.356 . S
N443 H446 0.984 . S
N443 H447 0.985 . S
H444 N439 0.984 . S
H445 N439 0.985 . S
H446 N443 0.984 . S
H447 N443 0.985 . S
H448 N442 0.984 . S
H449 N442 0.984 . S
H450 N438 0.984 . S
H451 N438 0.985 . S
C452 C453 1.363 . S
C452 C458 1.379 . S
C452 N460 1.356 . S
C453 C452 1.363 . S
C453 C459 1.363 . S
C454 C455 1.363 . S
C454 C459 1.379 . S
C454 N461 1.356 . S
C455 C454 1.363 . S
C455 C458 1.363 . S
N456 C458 1.356 . S
N456 H468 0.984 . S
N456 H469 0.985 . S
N457 C459 1.356 . S
N457 H462 0.984 . S
N457 H463 0.985 . S
C458 C452 1.379 . S
C458 C455 1.363 . S
C458 N456 1.356 . S
C459 C453 1.363 . S
C459 C454 1.379 . S
C459 N457 1.356 . S
N460 C452 1.356 . S
N460 H466 0.984 1_556 S
N460 H467 0.984 . S
N461 C454 1.356 . S
N461 H464 0.984 . S
N461 H465 0.985 . S
H462 N457 0.984 . S
H463 N457 0.985 . S
H464 N461 0.984 . S
H465 N461 0.985 . S
H466 N460 0.984 1_554 S
H467 N460 0.984 . S
H468 N456 0.984 . S
H469 N456 0.985 . S
C470 C471 1.363 . S
C470 C476 1.379 . S
C470 N478 1.356 . S
C471 C470 1.363 . S
C471 C477 1.363 . S
C472 C473 1.363 . S
C472 C477 1.379 . S
C472 N479 1.356 . S
C473 C472 1.363 . S
C473 C476 1.363 . S
N474 C476 1.356 . S
N474 H486 0.984 . S
N474 H487 0.985 . S
N475 C477 1.356 . S
N475 H480 0.984 . S
N475 H481 0.985 . S
C476 C470 1.379 . S
C476 C473 1.363 . S
C476 N474 1.356 . S
C477 C471 1.363 . S
C477 C472 1.379 . S
C477 N475 1.356 . S
N478 C470 1.356 . S
N478 H484 0.984 . S
N478 H485 0.984 . S
N479 C472 1.356 . S
N479 H482 0.984 . S
N479 H483 0.985 . S
H480 N475 0.984 . S
H481 N475 0.985 . S
H482 N479 0.984 . S
H483 N479 0.985 . S
H484 N478 0.984 . S
H485 N478 0.984 . S
H486 N474 0.984 . S
H487 N474 0.985 . S
C488 C489 1.363 . S
C488 C494 1.379 . S
C488 N496 1.356 . S
C489 C488 1.363 . S
C489 C495 1.363 . S
C490 C491 1.363 . S
C490 C495 1.379 . S
C490 N497 1.356 . S
C491 C490 1.363 . S
C491 C494 1.363 . S
N492 C494 1.356 . S
N492 H504 0.984 . S
N492 H505 0.985 . S
N493 C495 1.356 . S
N493 H498 0.984 . S
N493 H499 0.985 . S
C494 C488 1.379 . S
C494 C491 1.363 . S
C494 N492 1.356 . S
C495 C489 1.363 . S
C495 C490 1.379 . S
C495 N493 1.356 . S
N496 C488 1.356 . S
N496 H502 0.984 . S
N496 H503 0.984 . S
N497 C490 1.356 . S
N497 H500 0.984 . S
N497 H501 0.985 . S
H498 N493 0.984 . S
H499 N493 0.985 . S
H500 N497 0.984 . S
H501 N497 0.985 . S
H502 N496 0.984 . S
H503 N496 0.984 . S
H504 N492 0.984 . S
H505 N492 0.985 . S
C506 C507 1.363 . S
C506 C512 1.379 . S
C506 N514 1.356 . S
C507 C506 1.363 . S
C507 C513 1.363 . S
C508 C509 1.363 . S
C508 C513 1.379 . S
C508 N515 1.356 . S
C509 C508 1.363 . S
C509 C512 1.363 . S
N510 C512 1.356 . S
N510 H522 0.984 . S
N510 H523 0.985 . S
N511 C513 1.356 . S
N511 H516 0.984 . S
N511 H517 0.985 . S
C512 C506 1.379 . S
C512 C509 1.363 . S
C512 N510 1.356 . S
C513 C507 1.363 . S
C513 C508 1.379 . S
C513 N511 1.356 . S
N514 C506 1.356 . S
N514 H520 0.984 . S
N514 H521 0.984 . S
N515 C508 1.356 . S
N515 H518 0.984 . S
N515 H519 0.985 . S
H516 N511 0.984 . S
H517 N511 0.985 . S
H518 N515 0.984 . S
H519 N515 0.985 . S
H520 N514 0.984 . S
H521 N514 0.984 . S
H522 N510 0.984 . S
H523 N510 0.985 . S
C524 C525 1.363 . S
C524 C530 1.379 . S
C524 N532 1.356 . S
C525 C524 1.363 . S
C525 C531 1.363 . S
C526 C527 1.363 . S
C526 C531 1.379 . S
C526 N533 1.356 . S
C527 C526 1.363 . S
C527 C530 1.363 . S
N528 C530 1.356 . S
N528 H540 0.984 . S
N528 H541 0.985 . S
N529 C531 1.356 . S
N529 H534 0.984 . S
N529 H535 0.985 . S
C530 C524 1.379 . S
C530 C527 1.363 . S
C530 N528 1.356 . S
C531 C525 1.363 . S
C531 C526 1.379 . S
C531 N529 1.356 . S
N532 C524 1.356 . S
N532 H538 0.984 . S
N532 H539 0.984 . S
N533 C526 1.356 . S
N533 H536 0.984 . S
N533 H537 0.985 . S
H534 N529 0.984 . S
H535 N529 0.985 . S
H536 N533 0.984 . S
H537 N533 0.985 . S
H538 N532 0.984 . S
H539 N532 0.984 . S
H540 N528 0.984 . S
H541 N528 0.985 . S
C542 C543 1.363 . S
C542 C548 1.379 . S
C542 N550 1.356 . S
C543 C542 1.363 . S
C543 C549 1.363 . S
C544 C545 1.363 . S
C544 C549 1.379 . S
C544 N551 1.356 . S
C545 C544 1.363 . S
C545 C548 1.363 . S
N546 C548 1.356 . S
N546 H558 0.984 . S
N546 H559 0.985 . S
N547 C549 1.356 . S
N547 H552 0.984 . S
N547 H553 0.985 . S
C548 C542 1.379 . S
C548 C545 1.363 . S
C548 N546 1.356 . S
C549 C543 1.363 . S
C549 C544 1.379 . S
C549 N547 1.356 . S
N550 C542 1.356 . S
N550 H556 0.984 . S
N550 H557 0.984 . S
N551 C544 1.356 . S
N551 H554 0.984 . S
N551 H555 0.985 . S
H552 N547 0.984 . S
H553 N547 0.985 . S
H554 N551 0.984 . S
H555 N551 0.985 . S
H556 N550 0.984 . S
H557 N550 0.984 . S
H558 N546 0.984 . S
H559 N546 0.985 . S
C560 C561 1.363 . S
C560 C566 1.379 . S
C560 N568 1.356 . S
C561 C560 1.363 . S
C561 C567 1.363 . S
C562 C563 1.363 . S
C562 C567 1.379 . S
C562 N569 1.356 . S
C563 C562 1.363 . S
C563 C566 1.363 . S
N564 C566 1.356 . S
N564 H576 0.984 . S
N564 H577 0.985 . S
N565 C567 1.356 1_565 S
N565 H570 0.984 . S
N565 H571 0.985 . S
C566 C560 1.379 . S
C566 C563 1.363 . S
C566 N564 1.356 . S
C567 C561 1.363 . S
C567 C562 1.379 . S
C567 N565 1.356 1_545 S
N568 C560 1.356 . S
N568 H574 0.984 . S
N568 H575 0.984 . S
N569 C562 1.356 . S
N569 H572 0.984 . S
N569 H573 0.985 . S
H570 N565 0.984 . S
H571 N565 0.985 . S
H572 N569 0.984 . S
H573 N569 0.985 . S
H574 N568 0.984 . S
H575 N568 0.984 . S
H576 N564 0.984 . S
H577 N564 0.985 . S
C578 C579 1.363 . S
C578 C584 1.379 . S
C578 N586 1.356 1_565 S
C579 C578 1.363 . S
C579 C585 1.363 . S
C580 C581 1.363 . S
C580 C585 1.379 . S
C580 N587 1.356 . S
C581 C580 1.363 . S
C581 C584 1.363 . S
N582 C584 1.356 . S
N582 H594 0.984 . S
N582 H595 0.985 . S
N583 C585 1.356 . S
N583 H588 0.984 . S
N583 H589 0.985 . S
C584 C578 1.379 . S
C584 C581 1.363 . S
C584 N582 1.356 . S
C585 C579 1.363 . S
C585 C580 1.379 . S
C585 N583 1.356 . S
N586 C578 1.356 1_545 S
N586 H592 0.984 . S
N586 H593 0.984 . S
N587 C580 1.356 . S
N587 H590 0.984 . S
N587 H591 0.985 . S
H588 N583 0.984 . S
H589 N583 0.985 . S
H590 N587 0.984 . S
H591 N587 0.985 . S
H592 N586 0.984 . S
H593 N586 0.984 . S
H594 N582 0.984 . S
H595 N582 0.985 . S
C596 C597 1.363 . S
C596 C602 1.379 . S
C596 N604 1.356 . S
C597 C596 1.363 . S
C597 C603 1.363 . S
C598 C599 1.363 . S
C598 C603 1.379 . S
C598 N605 1.356 . S
C599 C598 1.363 . S
C599 C602 1.363 . S
N600 C602 1.356 . S
N600 H612 0.984 . S
N600 H613 0.985 . S
N601 C603 1.356 . S
N601 H606 0.984 . S
N601 H607 0.985 1_556 S
C602 C596 1.379 . S
C602 C599 1.363 . S
C602 N600 1.356 . S
C603 C597 1.363 . S
C603 C598 1.379 . S
C603 N601 1.356 . S
N604 C596 1.356 . S
N604 H610 0.985 . S
N604 H611 0.984 1_545 S
N605 C598 1.356 . S
N605 H608 0.984 . S
N605 H609 0.985 . S
H606 N601 0.984 . S
H607 N601 0.985 1_554 S
H608 N605 0.984 . S
H609 N605 0.985 . S
H610 N604 0.985 . S
H611 N604 0.984 1_565 S
H612 N600 0.984 . S
H613 N600 0.985 . S
C614 C615 1.363 . S
C614 C620 1.379 . S
C614 N622 1.356 . S
C615 C614 1.363 . S
C615 C621 1.363 . S
C616 C617 1.363 . S
C616 C621 1.379 . S
C616 N623 1.356 . S
C617 C616 1.363 . S
C617 C620 1.363 . S
N618 C620 1.356 . S
N618 H630 0.984 . S
N618 H631 0.985 . S
N619 C621 1.356 . S
N619 H624 0.984 . S
N619 H625 0.985 . S
C620 C614 1.379 . S
C620 C617 1.363 . S
C620 N618 1.356 . S
C621 C615 1.363 . S
C621 C616 1.379 . S
C621 N619 1.356 . S
N622 C614 1.356 . S
N622 H628 0.984 1_565 S
N622 H629 0.984 1_565 S
N623 C616 1.356 . S
N623 H626 0.984 . S
N623 H627 0.985 . S
H624 N619 0.984 . S
H625 N619 0.985 . S
H626 N623 0.984 . S
H627 N623 0.985 . S
H628 N622 0.984 1_545 S
H629 N622 0.984 1_545 S
H630 N618 0.984 . S
H631 N618 0.985 . S
C632 C633 1.363 . S
C632 C638 1.379 . S
C632 N640 1.356 . S
C633 C632 1.363 . S
C633 C639 1.363 . S
C634 C635 1.363 . S
C634 C639 1.379 . S
C634 N641 1.356 . S
C635 C634 1.363 . S
C635 C638 1.363 . S
N636 C638 1.356 . S
N636 H648 0.984 . S
N636 H649 0.985 . S
N637 C639 1.356 . S
N637 H642 0.984 . S
N637 H643 0.985 . S
C638 C632 1.379 . S
C638 C635 1.363 . S
C638 N636 1.356 . S
C639 C633 1.363 . S
C639 C634 1.379 . S
C639 N637 1.356 . S
N640 C632 1.356 . S
N640 H646 0.984 . S
N640 H647 0.984 . S
N641 C634 1.356 . S
N641 H644 0.984 . S
N641 H645 0.985 . S
H642 N637 0.984 . S
H643 N637 0.985 . S
H644 N641 0.984 . S
H645 N641 0.985 . S
H646 N640 0.984 . S
H647 N640 0.984 . S
H648 N636 0.984 . S
H649 N636 0.985 . S
C650 C651 1.363 . S
C650 C656 1.379 . S
C650 N658 1.356 . S
C651 C650 1.363 . S
C651 C657 1.363 . S
C652 C653 1.363 . S
C652 C657 1.379 . S
C652 N659 1.356 . S
C653 C652 1.363 . S
C653 C656 1.363 . S
N654 C656 1.356 . S
N654 H666 0.984 . S
N654 H667 0.985 . S
N655 C657 1.356 . S
N655 H660 0.984 . S
N655 H661 0.985 . S
C656 C650 1.379 . S
C656 C653 1.363 . S
C656 N654 1.356 . S
C657 C651 1.363 . S
C657 C652 1.379 . S
C657 N655 1.356 . S
N658 C650 1.356 . S
N658 H664 0.984 . S
N658 H665 0.984 . S
N659 C652 1.356 . S
N659 H662 0.984 . S
N659 H663 0.985 . S
H660 N655 0.984 . S
H661 N655 0.985 . S
H662 N659 0.984 . S
H663 N659 0.985 . S
H664 N658 0.984 . S
H665 N658 0.984 . S
H666 N654 0.984 . S
H667 N654 0.985 . S
C668 C669 1.363 . S
C668 C674 1.379 . S
C668 N676 1.356 . S
C669 C668 1.363 . S
C669 C675 1.363 . S
C670 C671 1.363 . S
C670 C675 1.379 . S
C670 N677 1.356 . S
C671 C670 1.363 . S
C671 C674 1.363 . S
N672 C674 1.356 . S
N672 H684 0.984 . S
N672 H685 0.985 . S
N673 C675 1.356 . S
N673 H678 0.984 . S
N673 H679 0.985 . S
C674 C668 1.379 . S
C674 C671 1.363 . S
C674 N672 1.356 . S
C675 C669 1.363 . S
C675 C670 1.379 . S
C675 N673 1.356 . S
N676 C668 1.356 . S
N676 H682 0.984 . S
N676 H683 0.984 . S
N677 C670 1.356 . S
N677 H680 0.984 . S
N677 H681 0.985 . S
H678 N673 0.984 . S
H679 N673 0.985 . S
H680 N677 0.984 . S
H681 N677 0.985 . S
H682 N676 0.984 . S
H683 N676 0.984 . S
H684 N672 0.984 . S
H685 N672 0.985 . S
C686 C687 1.363 . S
C686 C692 1.379 . S
C686 N694 1.356 . S
C687 C686 1.363 . S
C687 C693 1.363 . S
C688 C689 1.363 . S
C688 C693 1.379 . S
C688 N695 1.356 . S
C689 C688 1.363 . S
C689 C692 1.363 . S
N690 C692 1.356 . S
N690 H702 0.984 . S
N690 H703 0.985 . S
N691 C693 1.356 . S
N691 H696 0.984 . S
N691 H697 0.985 . S
C692 C686 1.379 . S
C692 C689 1.363 . S
C692 N690 1.356 . S
C693 C687 1.363 . S
C693 C688 1.379 . S
C693 N691 1.356 . S
N694 C686 1.356 . S
N694 H700 0.984 . S
N694 H701 0.984 . S
N695 C688 1.356 . S
N695 H698 0.984 . S
N695 H699 0.985 . S
H696 N691 0.984 . S
H697 N691 0.985 . S
H698 N695 0.984 . S
H699 N695 0.985 . S
H700 N694 0.984 . S
H701 N694 0.984 . S
H702 N690 0.984 . S
H703 N690 0.985 . S
C704 C705 1.363 . S
C704 C710 1.379 . S
C704 N712 1.356 . S
C705 C704 1.363 . S
C705 C711 1.363 . S
C706 C707 1.363 . S
C706 C711 1.379 . S
C706 N713 1.356 . S
C707 C706 1.363 . S
C707 C710 1.363 . S
N708 C710 1.356 . S
N708 H720 0.984 . S
N708 H721 0.985 . S
N709 C711 1.356 . S
N709 H714 0.984 . S
N709 H715 0.985 . S
C710 C704 1.379 . S
C710 C707 1.363 . S
C710 N708 1.356 . S
C711 C705 1.363 . S
C711 C706 1.379 . S
C711 N709 1.356 . S
N712 C704 1.356 . S
N712 H718 0.984 . S
N712 H719 0.984 . S
N713 C706 1.356 . S
N713 H716 0.984 . S
N713 H717 0.985 . S
H714 N709 0.984 . S
H715 N709 0.985 . S
H716 N713 0.984 . S
H717 N713 0.985 . S
H718 N712 0.984 . S
H719 N712 0.984 . S
H720 N708 0.984 . S
H721 N708 0.985 . S
C722 C723 1.363 . S
C722 C728 1.379 . S
C722 N730 1.356 . S
C723 C722 1.363 . S
C723 C729 1.363 . S
C724 C725 1.363 . S
C724 C729 1.379 . S
C724 N731 1.356 . S
C725 C724 1.363 . S
C725 C728 1.363 . S
N726 C728 1.356 . S
N726 H738 0.984 . S
N726 H739 0.985 . S
N727 C729 1.356 . S
N727 H732 0.984 . S
N727 H733 0.985 . S
C728 C722 1.379 . S
C728 C725 1.363 . S
C728 N726 1.356 . S
C729 C723 1.363 . S
C729 C724 1.379 . S
C729 N727 1.356 . S
N730 C722 1.356 . S
N730 H736 0.984 . S
N730 H737 0.984 . S
N731 C724 1.356 . S
N731 H734 0.984 . S
N731 H735 0.985 . S
H732 N727 0.984 . S
H733 N727 0.985 . S
H734 N731 0.984 . S
H735 N731 0.985 . S
H736 N730 0.984 . S
H737 N730 0.984 . S
H738 N726 0.984 . S
H739 N726 0.985 . S
C740 C741 1.363 . S
C740 C746 1.379 . S
C740 N748 1.356 . S
C741 C740 1.363 . S
C741 C747 1.363 . S
C742 C743 1.363 . S
C742 C747 1.379 . S
C742 N749 1.356 . S
C743 C742 1.363 . S
C743 C746 1.363 . S
N744 C746 1.356 . S
N744 H756 0.984 . S
N744 H757 0.985 . S
N745 C747 1.356 . S
N745 H750 0.984 . S
N745 H751 0.985 . S
C746 C740 1.379 . S
C746 C743 1.363 . S
C746 N744 1.356 . S
C747 C741 1.363 . S
C747 C742 1.379 . S
C747 N745 1.356 . S
N748 C740 1.356 . S
N748 H754 0.984 . S
N748 H755 0.984 . S
N749 C742 1.356 . S
N749 H752 0.984 . S
N749 H753 0.985 . S
H750 N745 0.984 . S
H751 N745 0.985 . S
H752 N749 0.984 . S
H753 N749 0.985 . S
H754 N748 0.984 . S
H755 N748 0.984 . S
H756 N744 0.984 . S
H757 N744 0.985 . S
C758 C759 1.363 . S
C758 C764 1.379 . S
C758 N766 1.356 . S
C759 C758 1.363 . S
C759 C765 1.363 . S
C760 C761 1.363 . S
C760 C765 1.379 . S
C760 N767 1.356 . S
C761 C760 1.363 . S
C761 C764 1.363 . S
N762 C764 1.356 . S
N762 H774 0.984 . S
N762 H775 0.985 . S
N763 C765 1.356 . S
N763 H768 0.984 . S
N763 H769 0.985 . S
C764 C758 1.379 . S
C764 C761 1.363 . S
C764 N762 1.356 . S
C765 C759 1.363 . S
C765 C760 1.379 . S
C765 N763 1.356 . S
N766 C758 1.356 . S
N766 H772 0.984 . S
N766 H773 0.984 . S
N767 C760 1.356 . S
N767 H770 0.984 . S
N767 H771 0.985 . S
H768 N763 0.984 . S
H769 N763 0.985 . S
H770 N767 0.984 . S
H771 N767 0.985 . S
H772 N766 0.984 . S
H773 N766 0.984 . S
H774 N762 0.984 . S
H775 N762 0.985 . S
C345 C23 1.503 . S
C347 C299 1.557 . S
C365 C263 1.519 . S
C363 C55 1.551 . S
C383 C286 1.555 . S
C381 C87 1.576 . S
C401 C274 1.515 . S
C399 C119 1.441 . S
C419 C343 1.557 . S
C417 C151 1.503 . S
C437 C307 1.519 . S
C435 C183 1.550 . S
C453 C215 1.576 . S
C455 C330 1.555 . S
C473 C318 1.515 . S
C471 C247 1.442 . S
C489 C29 1.474 . S
C491 C340 1.567 . S
C509 C310 1.503 . S
C507 C49 1.497 . S
C525 C93 1.581 . S
C527 C329 1.589 . S
C543 C113 1.450 . S
C545 C315 1.526 . S
C563 C296 1.567 . S
C561 C157 1.473 1_545 S
C579 C177 1.497 1_565 S
C581 C266 1.503 . S
C599 C285 1.589 . S
C597 C221 1.581 1_545 S
C617 C271 1.526 . S
C615 C241 1.450 1_565 S
C635 C321 1.541 . S
C633 C17 1.466 . S
C653 C337 1.545 . S
C651 C61 1.549 . S
C669 C81 1.527 . S
C671 C308 1.524 . S
C689 C332 1.529 . S
C687 C125 1.421 . S
C707 C277 1.540 . S
C705 C145 1.465 . S
C723 C189 1.549 . S
C725 C293 1.545 . S
C741 C209 1.527 . S
C743 C264 1.525 . S
C759 C253 1.421 . S
C761 C288 1.529 . S
