# Generated by pormake.
# Topology pyr, (3,6)-cn, num edge types: 1
# Building blocks:
#     Node 0, Type 0, BuildingBlock: CUQRIR_clean_linker_1, # of connection points: 3
#     Node 1, Type 0, BuildingBlock: CUQRIR_clean_linker_1, # of connection points: 3
#     Node 2, Type 0, BuildingBlock: CUQRIR_clean_linker_1, # of connection points: 3
#     Node 3, Type 0, BuildingBlock: CUQRIR_clean_linker_1, # of connection points: 3
#     Node 4, Type 0, BuildingBlock: CUQRIR_clean_linker_1, # of connection points: 3
#     Node 5, Type 0, BuildingBlock: CUQRIR_clean_linker_1, # of connection points: 3
#     Node 6, Type 0, BuildingBlock: CUQRIR_clean_linker_1, # of connection points: 3
#     Node 7, Type 0, BuildingBlock: CUQRIR_clean_linker_1, # of connection points: 3
#     Node 8, Type 1, BuildingBlock: FUNLAD_clean_sbu_0, # of connection points: 6
#     Node 9, Type 1, BuildingBlock: FUNLAD_clean_sbu_0, # of connection points: 6
#     Node 10, Type 1, BuildingBlock: FUNLAD_clean_sbu_0, # of connection points: 6
#     Node 11, Type 1, BuildingBlock: FUNLAD_clean_sbu_0, # of connection points: 6
#     Edge 12, Type (0, 1), BuildingBlock: CIFDUS_clean_linker_0, # of connection points: 2
#     Edge 13, Type (0, 1), BuildingBlock: CIFDUS_clean_linker_0, # of connection points: 2
#     Edge 14, Type (0, 1), BuildingBlock: CIFDUS_clean_linker_0, # of connection points: 2
#     Edge 15, Type (0, 1), BuildingBlock: CIFDUS_clean_linker_0, # of connection points: 2
#     Edge 16, Type (0, 1), BuildingBlock: CIFDUS_clean_linker_0, # of connection points: 2
#     Edge 17, Type (0, 1), BuildingBlock: CIFDUS_clean_linker_0, # of connection points: 2
#     Edge 18, Type (0, 1), BuildingBlock: CIFDUS_clean_linker_0, # of connection points: 2
#     Edge 19, Type (0, 1), BuildingBlock: CIFDUS_clean_linker_0, # of connection points: 2
#     Edge 20, Type (0, 1), BuildingBlock: CIFDUS_clean_linker_0, # of connection points: 2
#     Edge 21, Type (0, 1), BuildingBlock: CIFDUS_clean_linker_0, # of connection points: 2
#     Edge 22, Type (0, 1), BuildingBlock: CIFDUS_clean_linker_0, # of connection points: 2
#     Edge 23, Type (0, 1), BuildingBlock: CIFDUS_clean_linker_0, # of connection points: 2
#     Edge 24, Type (0, 1), BuildingBlock: CIFDUS_clean_linker_0, # of connection points: 2
#     Edge 25, Type (0, 1), BuildingBlock: CIFDUS_clean_linker_0, # of connection points: 2
#     Edge 26, Type (0, 1), BuildingBlock: CIFDUS_clean_linker_0, # of connection points: 2
#     Edge 27, Type (0, 1), BuildingBlock: CIFDUS_clean_linker_0, # of connection points: 2
#     Edge 28, Type (0, 1), BuildingBlock: CIFDUS_clean_linker_0, # of connection points: 2
#     Edge 29, Type (0, 1), BuildingBlock: CIFDUS_clean_linker_0, # of connection points: 2
#     Edge 30, Type (0, 1), BuildingBlock: CIFDUS_clean_linker_0, # of connection points: 2
#     Edge 31, Type (0, 1), BuildingBlock: CIFDUS_clean_linker_0, # of connection points: 2
#     Edge 32, Type (0, 1), BuildingBlock: CIFDUS_clean_linker_0, # of connection points: 2
#     Edge 33, Type (0, 1), BuildingBlock: CIFDUS_clean_linker_0, # of connection points: 2
#     Edge 34, Type (0, 1), BuildingBlock: CIFDUS_clean_linker_0, # of connection points: 2
#     Edge 35, Type (0, 1), BuildingBlock: CIFDUS_clean_linker_0, # of connection points: 2
# Relax obj value: 0.216
# Max RMSD: 0.229
# Mean RMSD: 0.157
data_MOF--net-pry--node1-FUNLAD_clean_sbu_0--node2-CUQRIR_clean_linker_1--edge1-CIFDUS_clean_linker_0
_symmetry_space_group_name_H-M    P1
_symmetry_Int_Tables_number       1
_symmetry_cell_setting            triclinic
loop_
_symmetry_equiv_pos_as_xyz
'x, y, z'
_cell_length_a     27.926974
_cell_length_b     29.952221
_cell_length_c     29.50322
_cell_angle_alpha  87.962209
_cell_angle_beta   91.888736
_cell_angle_gamma 84.49966
loop_
_atom_site_label
_atom_site_type_symbol
_atom_site_fract_x
_atom_site_fract_y
_atom_site_fract_z
_atom_type_partial_charge
C0 C 0.15361 0.27488 0.23621 0.0
N1 N 0.18761 0.23988 0.24575 0.0
N2 N 0.16228 0.29701 0.19681 0.0
C3 C 0.11185 0.28743 0.26563 0.0
C4 C 0.20321 0.27438 0.18286 0.0
N5 N 0.21853 0.23936 0.21215 0.0
C6 C 0.23139 0.28999 0.14355 0.0
H7 H 0.09947 0.25707 0.28243 0.0
H8 H 0.08144 0.30576 0.24545 0.0
H9 H 0.12363 0.30941 0.29249 0.0
H10 H 0.27063 0.28155 0.14998 0.0
H11 H 0.22447 0.32679 0.13714 0.0
H12 H 0.22026 0.27317 0.11255 0.0
C13 C 0.41761 0.94014 0.69237 0.0
N14 N 0.4055 0.97425 0.72029 0.0
N15 N 0.45278 0.91059 0.71166 0.0
C16 C 0.39331 0.9342 0.6467 0.0
C17 C 0.46195 0.92826 0.75257 0.0
N18 N 0.43321 0.96704 0.75811 0.0
C19 C 0.50098 0.90884 0.78589 0.0
H20 H 0.38293 0.89946 0.64459 0.0
H21 H 0.41892 0.93964 0.61961 0.0
H22 H 0.36125 0.95826 0.63915 0.0
H23 H 0.52832 0.88649 0.76896 0.0
H24 H 0.48478 0.88893 0.81277 0.0
H25 H 0.51885 0.93597 0.80222 0.0
C26 C 0.56799 0.56559 1.02454 0.0
N27 N 0.61218 0.54596 1.03809 0.0
N28 N 0.57069 0.59875 0.99241 0.0
C29 C 0.52163 0.5467 1.03624 0.0
C30 C 0.61867 0.60267 0.99194 0.0
N31 N 0.64364 0.57035 1.01863 0.0
C32 C 0.64167 0.63269 0.95873 0.0
H33 H 0.51985 0.51341 1.02129 0.0
H34 H 0.49009 0.56955 1.02346 0.0
H35 H 0.52031 0.5418 0.07362 0.0
H36 H 0.62064 0.66603 0.95526 0.0
H37 H 0.6421 0.61742 0.92499 0.0
H38 H 0.67918 0.63735 0.96972 0.0
C39 C 0.92518 0.59806 0.48002 0.0
N40 N 0.95483 0.62652 0.46171 0.0
N41 N 0.91204 0.61026 0.52195 0.0
C42 C 0.90327 0.56187 0.45469 0.0
C43 C 0.9372 0.64597 0.52939 0.0
N44 N 0.96298 0.65597 0.49296 0.0
C45 C 0.92785 0.67693 0.56786 0.0
H46 H 0.86691 0.57486 0.44102 0.0
H47 H 0.89901 0.53291 0.47825 0.0
H48 H 0.92592 0.55059 0.42626 0.0
H49 H 0.91642 0.65809 0.59808 0.0
H50 H 0.89863 0.70333 0.55721 0.0
H51 H 0.96041 0.69369 0.57679 0.0
C52 C 0.89264 0.93881 0.91754 0.0
N53 N 0.92698 0.93151 0.88645 0.0
N54 N 0.87108 0.98116 0.91318 0.0
C55 C 0.87997 0.90411 0.9524 0.0
C56 C 0.89307 0.99948 0.87771 0.0
N57 N 0.92717 0.96936 0.86096 0.0
C58 C 0.88434 0.04818 0.86249 0.0
H59 H 0.84272 0.9115 0.9638 0.0
H60 H 0.90538 0.90375 0.98216 0.0
H61 H 0.88297 0.87007 0.9387 0.0
H62 H 0.87268 0.06916 0.89113 0.0
H63 H 0.85527 0.05215 0.8357 0.0
H64 H 0.9173 0.06046 0.84853 0.0
C65 C 0.72063 0.2577 0.43951 0.0
N66 N 0.73188 0.22448 0.4103 0.0
N67 N 0.6777 0.28085 0.4276 0.0
C68 C 0.75385 0.27041 0.47721 0.0
C69 C 0.66347 0.26092 0.38949 0.0
N70 N 0.69654 0.22701 0.37843 0.0
C71 C 0.61552 0.27246 0.36495 0.0
H72 H 0.74728 0.3066 0.48412 0.0
H73 H 0.79211 0.26304 0.46862 0.0
H74 H 0.74747 0.25061 0.50856 0.0
H75 H 0.58852 0.28776 0.388 0.0
H76 H 0.60194 0.24213 0.35059 0.0
H77 H 0.61981 0.29691 0.33658 0.0
C78 C 0.41142 0.62425 0.06238 0.0
N79 N 0.44322 0.6471 0.08553 0.0
N80 N 0.39259 0.648 1.02498 0.0
C81 C 0.39303 0.58141 0.0797 0.0
C82 C 0.41857 0.68402 1.02376 0.0
N83 N 0.44836 0.68414 0.06081 0.0
C84 C 0.40739 0.72377 0.99127 0.0
H85 H 0.38922 0.55871 0.05116 0.0
H86 H 0.35684 0.58885 0.09364 0.0
H87 H 0.41782 0.56422 0.10639 0.0
H88 H 0.38499 0.75052 1.00808 0.0
H89 H 0.38763 0.71416 0.96042 0.0
H90 H 0.44131 0.73755 0.98165 0.0
C91 C 0.0863 0.5429 0.54214 0.0
N92 N 0.1323 0.52669 0.53478 0.0
N93 N 0.08435 0.5772 0.57104 0.0
C94 C 0.04293 0.52005 0.52731 0.0
C95 C 0.13123 0.58478 0.57653 0.0
N96 N 0.16004 0.55408 0.55515 0.0
C97 C 0.14925 0.61803 0.60849 0.0
H98 H 1.00919 0.54187 0.53211 0.0
H99 H 0.04184 0.48801 0.54713 0.0
H100 H 0.04557 0.51187 0.49103 0.0
H101 H 0.14893 0.60409 0.64383 0.0
H102 H 0.12538 0.64986 0.60593 0.0
H103 H 0.18643 0.62536 0.60097 0.0
C104 C 0.11747 0.10398 0.46569 0.0
N105 N 0.08834 0.18257 0.57717 0.0
C106 C 0.13264 0.19463 0.56672 0.0
C107 C 0.14285 0.23906 0.56857 0.0
C108 C 0.10756 0.27152 0.5822 0.0
C109 C 0.06286 0.2583 0.59515 0.0
C110 C 0.05371 0.21324 0.59189 0.0
Zn111 Zn 0.07725 0.11823 0.56065 0.0
C112 C 0.98398 0.11305 0.50683 0.0
N113 N 0.06391 0.98574 0.51719 0.0
C114 C 0.10269 0.95901 0.50384 0.0
C115 C 1.02033 0.9697 0.52176 0.0
C116 C 1.01467 0.92496 0.51363 0.0
C117 C 0.0543 0.89623 0.50104 0.0
C118 C 0.09872 0.91376 0.49576 0.0
Zn119 Zn 0.07098 0.04974 0.53582 0.0
O120 O 0.11042 0.13201 0.4967 0.0
C121 C 0.16177 0.05448 0.59295 0.0
O122 O 0.10515 0.06451 0.47256 0.0
H123 H 0.99017 0.99131 0.53304 0.0
H124 H 0.15981 0.17006 0.55492 0.0
H125 H 0.13701 0.9725 0.50051 0.0
O126 O 0.14559 0.09552 0.59306 0.0
O127 O 0.13875 1.0276 0.57021 0.0
H128 H 1.01861 0.20312 0.59955 0.0
O129 O 0.03692 0.03543 0.59835 0.0
O130 O 0.0433 0.10251 0.62452 0.0
O131 O 1.00204 0.07267 0.50374 0.0
O132 O 1.00726 0.14015 0.52916 0.0
C133 C 0.03074 0.06277 0.63012 0.0
H134 H 0.17777 0.24815 0.55869 0.0
H135 H 0.03484 0.28281 0.60583 0.0
H136 H 0.97998 0.91259 0.51882 0.0
H137 H 0.13005 0.89267 0.48591 0.0
C138 C 0.63296 0.07917 1.03023 0.0
N139 N 0.55279 0.20325 1.02912 0.0
C140 C 0.59813 0.21528 1.03693 0.0
C141 C 0.60795 0.25968 1.03132 0.0
C142 C 0.57105 0.29226 1.01691 0.0
C143 C 0.52494 0.27929 1.00695 0.0
C144 C 0.51636 0.23412 1.01376 0.0
Zn145 Zn 0.54452 0.13882 0.0519 0.0
C146 C 0.49935 0.07943 0.99184 0.0
N147 N 0.54557 1.00884 0.11352 0.0
C148 C 0.58567 0.98064 0.12493 0.0
C149 C 0.50174 0.99313 0.10824 0.0
C150 C 0.49737 0.94731 0.11141 0.0
C151 C 0.53852 0.91702 0.11993 0.0
C152 C 0.58294 0.93421 0.12823 0.0
Zn153 Zn 0.54977 0.0732 0.09023 0.0
O154 O 0.60962 0.11695 1.02105 0.0
C155 C 0.59669 0.13112 0.1495 0.0
O156 O 0.61741 0.05288 0.05989 0.0
H157 H 0.47052 1.01582 0.09802 0.0
H158 H 0.62667 0.19078 0.0498 0.0
H159 H 0.62025 0.99382 0.12862 0.0
O160 O 0.58271 0.15505 0.11407 0.0
O161 O 0.58764 0.09029 0.15127 0.0
H162 H 0.48046 0.22412 1.00843 0.0
O163 O 0.4818 0.09506 0.12029 0.0
O164 O 0.4772 0.15946 0.08156 0.0
O165 O 0.51233 0.05603 1.02794 0.0
O166 O 0.50713 0.12078 0.99022 0.0
C167 C 0.45942 0.13336 0.11011 0.0
H168 H 0.6439 0.26868 1.0391 0.0
H169 H 0.49569 0.30398 0.9957 0.0
H170 H 0.46252 0.93574 0.10383 0.0
H171 H 0.61547 0.91199 0.13521 0.0
C172 C 0.55996 0.51579 0.513 0.0
N173 N 0.54273 0.56765 0.64396 0.0
C174 C 0.51518 0.53672 0.66169 0.0
C175 C 0.50894 0.53367 0.7085 0.0
C176 C 0.53106 0.56296 0.73688 0.0
C177 C 0.56139 0.59263 0.71781 0.0
C178 C 0.56673 0.59445 0.67113 0.0
Zn179 Zn 0.538 0.586 0.57686 0.0
C180 C 0.63042 0.61672 0.54342 0.0
N181 N 0.52366 0.63671 0.44051 0.0
C182 C 0.49794 0.60951 0.41536 0.0
C183 C 0.54632 0.67014 0.42046 0.0
C184 C 0.54345 0.67696 0.37308 0.0
C185 C 0.51675 0.64924 0.34675 0.0
C186 C 0.49398 0.61523 0.36855 0.0
Zn187 Zn 0.53027 0.61837 0.50798 0.0
O188 O 0.55711 0.51838 0.55586 0.0
C189 C 0.43722 0.5873 0.53933 0.0
O190 O 0.55013 0.55129 0.48822 0.0
H191 H 0.56724 0.69092 0.44102 0.0
H192 H 0.49596 0.51613 0.63941 0.0
H193 H 0.48132 0.58226 0.43144 0.0
O194 O 0.46277 0.57473 0.57478 0.0
O195 O 0.45663 0.60693 0.50694 0.0
H196 H 0.58785 0.61928 0.65641 0.0
O197 O 0.51241 0.68541 0.5288 0.0
O198 O 0.51966 0.6543 0.5973 0.0
O199 O 0.60281 0.62988 0.50956 0.0
O200 O 0.61345 0.59672 0.57721 0.0
C201 C 0.5115 0.68943 0.57162 0.0
H202 H 0.48554 0.51007 0.72207 0.0
H203 H 0.58013 0.61492 0.73868 0.0
H204 H 0.56156 0.70353 0.35729 0.0
H205 H 0.47395 0.59249 0.34945 0.0
C206 C 0.99803 0.68565 0.97516 0.0
N207 N 1.02445 0.63274 0.11138 0.0
C208 C 0.0494 0.6653 0.12933 0.0
C209 C 0.0486 0.67262 0.17618 0.0
C210 C 1.02137 0.64651 0.2041 0.0
C211 C 0.99651 0.61322 0.18451 0.0
C212 C 0.99878 0.60672 0.13831 0.0
Zn213 Zn 1.0242 0.61446 0.04466 0.0
C214 C 0.92412 0.5873 1.01966 0.0
N215 N 1.01616 0.56413 0.91215 0.0
C216 C 0.03923 0.59099 0.88377 0.0
C217 C 0.98937 0.53222 0.89571 0.0
C218 C 0.98466 0.527 0.84876 0.0
C219 C 1.00714 0.55543 0.81894 0.0
C220 C 0.0352 0.58722 0.83713 0.0
Zn221 Zn 1.01823 0.58181 0.97835 0.0
O222 O 1.00735 0.68308 1.01786 0.0
C223 C 0.11784 0.60833 1.00406 0.0
O224 O 0.99894 0.6496 0.95366 0.0
H225 H 0.97081 0.51161 0.91884 0.0
H226 H 0.07023 0.68519 0.10755 0.0
H227 H 0.05987 0.61658 0.89714 0.0
O228 O 0.09767 0.62244 1.03953 0.0
O229 O 0.09331 0.5903 0.97394 0.0
H230 H 0.98037 0.58002 0.12419 0.0
O231 O 0.03769 0.51452 1.0036 0.0
O232 O 0.04315 0.54556 0.06951 0.0
O233 O 0.94383 0.57251 0.98424 0.0
O234 O 0.94922 0.60652 0.04837 0.0
C235 C 0.04695 0.51046 0.04622 0.0
H236 H 0.0685 0.69848 0.1903 0.0
H237 H 0.976 0.5917 0.205 0.0
H238 H 0.96305 0.50175 0.8359 0.0
H239 H 0.05427 0.60894 0.81548 0.0
H240 H 0.15889 0.15699 0.26074 0.0
H241 H 0.22038 0.26526 0.32596 0.0
H242 H 0.20661 0.23154 0.40074 0.0
H243 H 0.16876 0.17564 0.44748 0.0
H244 H 0.10811 0.06597 0.38292 0.0
H245 H 0.12989 0.09523 0.30858 0.0
C246 C 0.17085 0.17209 0.29144 0.0
C247 C 0.19161 0.21314 0.28789 0.0
C248 C 0.16196 0.15265 0.33455 0.0
C249 C 0.20548 0.2332 0.32794 0.0
C250 C 0.19697 0.21418 0.37066 0.0
C251 C 0.16085 0.15774 0.41724 0.0
C252 C 0.13634 0.11871 0.42108 0.0
C253 C 0.17392 0.1746 0.37444 0.0
C254 C 0.12687 0.09597 0.38129 0.0
C255 C 0.13923 0.11283 0.33859 0.0
H256 H 0.42569 0.9462 0.84739 0.0
H257 H 0.45088 0.05437 0.7543 0.0
H258 H 0.46967 0.10106 0.81797 0.0
H259 H 0.48667 0.10859 0.90098 0.0
H260 H 0.46442 0.9977 0.99289 0.0
H261 H 0.43758 0.95516 0.92973 0.0
C262 C 0.43458 0.98026 0.84114 0.0
C263 C 0.43616 0.99688 0.79591 0.0
C264 C 0.4468 1.00642 0.87811 0.0
C265 C 0.44799 0.04109 0.78854 0.0
C266 C 0.45952 0.06758 0.82513 0.0
C267 C 0.47529 0.07541 0.90729 0.0
C268 C 0.47799 0.05668 0.95219 0.0
C269 C 0.46009 0.05035 0.87021 0.0
C270 C 0.46322 1.0133 0.95911 0.0
C271 C 0.44774 0.9887 0.92281 0.0
H272 H 0.54683 0.52888 0.94585 0.0
H273 H 0.53325 0.67334 0.9435 0.0
H274 H 0.51243 0.67522 0.86176 0.0
H275 H 0.51348 0.63483 0.78995 0.0
H276 H 0.53215 0.48994 0.79461 0.0
H277 H 0.53444 0.48895 0.87734 0.0
C278 C 0.5374 0.56087 0.92808 0.0
C279 C 0.54237 0.60098 0.95047 0.0
C280 C 0.52729 0.56139 0.88147 0.0
C281 C 0.53022 0.64212 0.92671 0.0
C282 C 0.51878 0.64307 0.88006 0.0
C283 C 0.51747 0.60308 0.80919 0.0
C284 C 0.52373 0.56248 0.78633 0.0
C285 C 0.51987 0.60282 0.85677 0.0
C286 C 0.52749 0.52154 0.81143 0.0
C287 C 0.52901 0.52099 0.85869 0.0
H288 H 0.0377 0.6317 0.41823 0.0
H289 H 0.88352 0.6433 0.39865 0.0
H290 H 0.89068 0.65557 0.31708 0.0
H291 H 0.94058 0.65799 0.25096 0.0
H292 H 0.09507 0.64652 0.26803 0.0
H293 H 0.08843 0.64077 0.35089 0.0
C294 C 1.00598 0.63684 0.39577 0.0
C295 C 0.96024 0.63464 0.41377 0.0
C296 C 1.01048 0.64446 0.34873 0.0
C297 C 0.91906 0.64273 0.38498 0.0
C298 C 0.92314 0.65036 0.33854 0.0
C299 C 0.97277 0.65484 0.27292 0.0
C300 C 1.01819 0.65233 0.25363 0.0
C301 C 0.96861 0.65047 0.31998 0.0
C302 C 0.05969 0.64877 0.28226 0.0
C303 C 0.05587 0.64497 0.32953 0.0
H304 H 0.23989 0.19103 0.14009 0.0
H305 H 0.29533 0.22263 0.27149 0.0
H306 H 0.37563 0.18822 0.25331 0.0
H307 H 0.43242 0.15775 0.19536 0.0
H308 H 0.37642 0.13579 0.06101 0.0
H309 H 0.29462 0.15843 0.08414 0.0
C310 C 0.26944 0.18939 0.16505 0.0
C311 C 0.26162 0.20912 0.20713 0.0
C312 C 0.31584 0.17231 0.15311 0.0
C313 C 0.30015 0.20703 0.23921 0.0
C314 C 0.34626 0.18805 0.2284 0.0
C315 C 0.4021 0.15758 0.17148 0.0
C316 C 0.41028 0.14517 0.12646 0.0
C317 C 0.35497 0.17199 0.1848 0.0
C318 C 0.37091 0.14536 0.09567 0.0
C319 C 0.32415 0.15818 0.10895 0.0
H320 H 0.317 0.95113 0.72898 0.0
H321 H 0.39678 0.06108 0.69015 0.0
H322 H 0.32514 0.09912 0.65005 0.0
H323 H 0.24338 0.09459 0.61514 0.0
H324 H 0.1713 0.97588 0.64189 0.0
H325 H 0.23596 0.94699 0.6959 0.0
C326 C 0.31773 0.98444 0.71351 0.0
C327 C 0.36169 1.00388 0.71375 0.0
C328 C 0.27816 1.00336 0.68618 0.0
C329 C 0.36309 0.04616 0.69195 0.0
C330 C 0.32238 0.06725 0.66785 0.0
C331 C 0.24198 0.06243 0.63289 0.0
C332 C 0.20286 0.03712 0.62403 0.0
C333 C 0.28043 0.0451 0.66283 0.0
C334 C 0.20143 0.99556 0.64734 0.0
C335 C 0.23815 0.97926 0.67867 0.0
H336 H 0.70822 0.59323 0.07947 0.0
H337 H 0.69283 0.52662 0.95405 0.0
H338 H 0.77992 0.52345 0.94387 0.0
H339 H 0.85927 0.54666 0.96733 0.0
H340 H 0.87325 0.61662 0.09187 0.0
H341 H 0.78842 0.61177 0.10571 0.0
C342 C 0.72452 0.57681 0.05081 0.0
C343 C 0.69487 0.5592 1.01811 0.0
C344 C 0.77421 0.57674 0.04452 0.0
C345 C 0.71553 0.53919 0.98016 0.0
C346 C 0.7651 0.53804 0.97408 0.0
C347 C 0.84382 0.56062 0.9976 0.0
C348 C 0.87268 0.58243 1.02817 0.0
C349 C 0.79467 0.55785 1.00544 0.0
C350 C 0.85199 0.60002 0.06744 0.0
C351 C 0.80338 0.59716 0.07555 0.0
H352 H 0.83693 0.66764 0.49863 0.0
H353 H 0.87982 0.54559 0.57644 0.0
H354 H 0.79513 0.5383 0.59441 0.0
H355 H 0.70809 0.56496 0.5827 0.0
H356 H 0.66771 0.68545 0.50019 0.0
H357 H 0.75213 0.69575 0.48977 0.0
C358 C 0.82749 0.64 0.52025 0.0
C359 C 0.86387 0.60748 0.53682 0.0
C360 C 0.77928 0.63584 0.52931 0.0
C361 C 0.85196 0.57109 0.56391 0.0
C362 C 0.80373 0.56698 0.57391 0.0
C363 C 0.71799 0.59377 0.5631 0.0
C364 C 0.6818 0.6244 0.54216 0.0
C365 C 0.76692 0.59888 0.55617 0.0
C366 C 0.69493 0.66132 0.51638 0.0
C367 C 0.74316 0.66724 0.51037 0.0
H368 H 0.12876 0.31175 0.11019 0.0
H369 H 0.14141 0.37524 0.23803 0.0
H370 H 0.10452 0.44643 0.20341 0.0
H371 H 0.07212 0.49162 0.13585 0.0
H372 H 0.06146 0.42871 1.00701 0.0
H373 H 0.09415 0.35676 0.04263 0.0
C374 C 0.12313 0.34123 0.13035 0.0
C375 C 0.13747 0.33815 0.17673 0.0
C376 C 0.10254 0.38229 0.10989 0.0
C377 C 0.12998 0.37655 0.20256 0.0
C378 C 0.10924 0.41734 0.18261 0.0
C379 C 0.07662 0.46217 0.11549 0.0
C380 C 0.06427 0.46593 0.06858 0.0
C381 C 0.0958 0.42077 0.13619 0.0
C382 C 0.07054 0.42712 0.04305 0.0
C383 C 0.08934 0.38583 0.06343 0.0
H384 H 0.62071 0.48894 0.97204 0.0
H385 H 0.61489 0.49667 0.11686 0.0
H386 H 0.60333 0.41622 0.12357 0.0
H387 H 0.58625 0.34601 0.0865 0.0
H388 H 0.58063 0.343 0.94054 0.0
H389 H 0.60372 0.41994 0.93519 0.0
C390 C 0.61837 0.47241 1.00505 0.0
C391 C 0.61967 0.49793 0.04403 0.0
C392 C 0.60787 0.42768 1.00797 0.0
C393 C 0.61519 0.47708 0.08671 0.0
C394 C 0.60768 0.4315 0.0903 0.0
C395 C 0.58994 0.36253 0.05365 0.0
C396 C 0.58136 0.33957 1.01386 0.0
C397 C 0.60235 0.40691 0.05099 0.0
C398 C 0.58643 0.36064 0.97139 0.0
C399 C 0.60006 0.40426 0.96842 0.0
H400 H 0.04537 0.68678 0.52081 0.0
H401 H 0.91228 0.72272 0.44507 0.0
H402 H 0.93154 0.80055 0.43616 0.0
H403 H 0.98265 0.85928 0.45631 0.0
H404 H 0.11454 0.82477 0.53525 0.0
H405 H 0.10021 0.74539 0.53605 0.0
C406 C 1.02136 0.7118 0.50176 0.0
C407 C 0.97786 0.69971 0.48318 0.0
C408 C 0.03236 0.75653 0.4977 0.0
C409 C 0.94626 0.7318 0.45889 0.0
C410 C 0.95712 0.77612 0.45416 0.0
C411 C 1.00841 0.8343 0.47338 0.0
C412 C 0.04928 0.84782 0.49605 0.0
C413 C 0.99951 0.78905 0.47435 0.0
C414 C 0.08288 0.81511 0.51737 0.0
C415 C 0.07453 0.76979 0.51814 0.0
H416 H 0.48786 0.89251 0.62909 0.0
H417 H 0.45445 0.82994 0.75626 0.0
H418 H 0.47153 0.75559 0.7249 0.0
H419 H 0.49045 0.70841 0.65939 0.0
H420 H 0.51515 0.77204 0.52983 0.0
H421 H 0.5049 0.84572 0.56326 0.0
C422 C 0.48377 0.86263 0.64976 0.0
C423 C 0.46941 0.86694 0.69492 0.0
C424 C 0.49118 0.82009 0.63068 0.0
C425 C 0.46598 0.82768 0.72168 0.0
C426 C 0.47513 0.78515 0.7035 0.0
C427 C 0.49351 0.73839 0.63838 0.0
C428 C 0.50338 0.73444 0.59192 0.0
C429 C 0.48682 0.78093 0.65774 0.0
C430 C 0.50718 0.77385 0.56544 0.0
C431 C 0.50159 0.81609 0.58465 0.0
H432 H 0.89071 1.00061 0.77938 0.0
H433 H 1.02445 0.95717 0.85135 0.0
H434 H 0.06924 0.98263 0.78634 0.0
H435 H 0.06995 1.02164 0.7096 0.0
H436 H 0.93491 0.06911 0.64143 0.0
H437 H 0.89108 0.03936 0.70452 0.0
C438 C 0.92972 0.99659 0.78078 0.0
C439 C 0.95409 0.97693 0.82037 0.0
C440 C 0.95497 1.01323 0.74417 0.0
C441 C 1.00466 0.97145 0.82128 0.0
C442 C 0.03025 0.98671 0.78426 0.0
C443 C 0.03094 1.02595 0.70904 0.0
C444 C 1.00562 0.04853 0.67126 0.0
C445 C 1.00582 1.00853 0.74578 0.0
C446 C 0.95513 0.05283 0.67044 0.0
C447 C 0.93009 0.03543 0.70637 0.0
H448 H 0.68908 0.2553 0.29137 0.0
H449 H 0.69056 0.13715 0.37843 0.0
H450 H 0.66185 0.09489 0.31444 0.0
H451 H 0.62765 0.0945 0.23484 0.0
H452 H 0.62446 0.21559 0.15028 0.0
H453 H 0.66169 0.25348 0.21162 0.0
C454 C 0.68426 0.21995 0.29589 0.0
C455 C 0.69225 0.19927 0.33944 0.0
C456 C 0.6662 0.19661 0.25939 0.0
C457 C 0.68543 0.15358 0.34511 0.0
C458 C 0.6683 0.12969 0.30859 0.0
C459 C 0.63546 0.12903 0.22973 0.0
C460 C 0.62248 0.15202 0.18765 0.0
C461 C 0.65709 0.15124 0.26575 0.0
C462 C 0.63331 0.19683 0.182 0.0
C463 C 0.65488 0.21872 0.21719 0.0
H464 H 0.52714 0.64874 0.13283 0.0
H465 H 0.37453 0.6448 0.14673 0.0
H466 H 0.38396 0.64764 0.22869 0.0
H467 H 0.43483 0.65196 0.29628 0.0
H468 H 0.58759 0.65784 0.28538 0.0
H469 H 0.57891 0.65575 0.20231 0.0
C470 C 0.49639 0.64772 0.15421 0.0
C471 C 0.45061 0.6442 0.13417 0.0
C472 C 0.50192 0.65104 0.20153 0.0
C473 C 0.41045 0.64473 0.16166 0.0
C474 C 0.41566 0.64739 0.20842 0.0
C475 C 0.46626 0.65282 0.2757 0.0
C476 C 0.51176 0.6546 0.29672 0.0
C477 C 0.46112 0.65055 0.22864 0.0
C478 C 0.5521 0.65669 0.26977 0.0
C479 C 0.5472 0.65497 0.22242 0.0
H480 H 0.06061 0.50876 0.62325 0.0
H481 H 0.03828 0.65241 0.60369 0.0
H482 H 1.00237 0.65801 0.67846 0.0
H483 H 0.99161 0.62222 0.75371 0.0
H484 H 1.01884 0.47837 0.77265 0.0
H485 H 0.03655 0.47217 0.69253 0.0
C486 C 0.04596 0.54115 0.63435 0.0
C487 C 0.05198 0.58025 0.60809 0.0
C488 C 0.02671 0.54387 0.67736 0.0
C489 C 0.03398 0.62206 0.62351 0.0
C490 C 1.01381 0.62513 0.66624 0.0
C491 C 1.00046 0.58946 0.73996 0.0
C492 C 1.00493 0.55084 0.76913 0.0
C493 C 1.01218 0.58635 0.69425 0.0
C494 C 1.01529 0.50851 0.75092 0.0
C495 C 0.02588 0.50503 0.70524 0.0
H496 H 0.78637 1.02498 0.88429 0.0
H497 H 0.87266 0.98319 1.0046 0.0
H498 H 0.80584 1.00795 0.05235 0.0
H499 H 0.72105 0.03902 0.05962 0.0
H500 H 0.63798 0.08798 0.93931 0.0
H501 H 0.70491 0.06335 0.89185 0.0
C502 C 0.79067 1.02216 0.92096 0.0
C503 C 0.83393 1.00155 0.94094 0.0
C504 C 0.75242 0.03742 0.94816 0.0
C505 C 0.83922 0.99809 0.98854 0.0
C506 C 0.80107 1.01227 1.0158 0.0
C507 C 0.71785 0.04424 1.02303 0.0
C508 C 0.67465 0.06479 1.00286 0.0
C509 C 0.75714 0.03131 0.99599 0.0
C510 C 0.671 0.07214 0.9555 0.0
C511 C 0.70922 0.05808 0.92835 0.0
H512 H 0.76055 0.16741 0.47949 0.0
H513 H 0.80331 0.21755 0.3503 0.0
H514 H 0.88663 0.18515 0.36737 0.0
H515 H 0.94937 0.15036 0.42403 0.0
H516 H 0.90512 0.10455 0.55481 0.0
H517 H 0.82089 0.12781 0.53295 0.0
C518 C 0.78796 0.16988 0.45458 0.0
C519 C 0.7758 0.19443 0.41353 0.0
C520 C 0.8359 0.15305 0.46571 0.0
C521 C 0.81163 0.19812 0.3817 0.0
C522 C 0.85941 0.18028 0.39192 0.0
C523 C 0.92109 0.14529 0.44744 0.0
C524 C 0.93333 0.12613 0.4912 0.0
C525 C 0.87238 0.15905 0.43455 0.0
C526 C 0.89649 0.11949 0.52118 0.0
C527 C 0.84834 0.13264 0.5086 0.0
H528 H 0.34217 0.59321 0.97536 0.0
H529 H 0.32851 0.70951 0.05738 0.0
H530 H 0.24144 0.70888 0.05623 0.0
H531 H 0.16998 0.6712 1.03839 0.0
H532 H 0.18104 0.55515 0.95571 0.0
H533 H 0.26796 0.55942 0.9506 0.0
C534 C 0.31972 0.61894 0.99176 0.0
C535 C 0.34141 0.65187 1.01558 0.0
C536 C 0.26938 0.61784 0.99167 0.0
C537 C 0.31232 0.68467 1.03771 0.0
C538 C 0.26264 0.68393 1.03765 0.0
C539 C 0.19141 0.64699 1.01906 0.0
C540 C 0.16947 0.61257 0.99807 0.0
C541 C 0.24092 0.65003 1.01578 0.0
C542 C 0.19736 0.58187 0.97239 0.0
C543 C 0.24701 0.58427 0.96948 0.0
H544 H 0.21745 0.57294 0.48863 0.0
H545 H 0.21746 0.52644 0.62801 0.0
H546 H 0.30492 0.53044 0.63563 0.0
H547 H 0.38028 0.55295 0.60354 0.0
H548 H 0.37805 0.60277 0.4642 0.0
H549 H 0.29306 0.59193 0.45554 0.0
C550 C 0.23713 0.56281 0.52021 0.0
C551 C 0.21182 0.54909 0.55758 0.0
C552 C 0.28685 0.56656 0.52448 0.0
C553 C 0.23685 0.5367 0.59882 0.0
C554 C 0.28658 0.53936 0.60317 0.0
C555 C 0.36124 0.56122 0.57125 0.0
C556 C 0.38565 0.57905 0.53476 0.0
C557 C 0.31186 0.55523 0.56646 0.0
C558 C 0.36029 0.58942 0.49309 0.0
C559 C 0.31158 0.5831 0.48796 0.0
H560 H 0.91556 0.85285 0.84908 0.0
H561 H 1.01022 0.92028 0.93479 0.0
H562 H 0.0421 0.84856 0.97172 0.0
H563 H 0.03268 0.76776 0.98833 0.0
H564 H 0.93681 0.70095 0.90206 0.0
H565 H 0.91506 0.77063 0.85767 0.0
C566 C 0.94522 0.85136 0.87392 0.0
C567 C 0.96092 0.89188 0.8887 0.0
C568 C 0.96131 0.81008 0.89672 0.0
C569 C 0.99835 0.88956 0.92205 0.0
C570 C 1.01552 0.84858 0.94412 0.0
C571 C 1.00703 0.76857 0.95984 0.0
C572 C 0.98555 0.72927 0.94934 0.0
C573 C 0.99537 0.80888 0.93344 0.0
C574 C 0.95339 0.73072 0.91143 0.0
C575 C 0.94114 0.77057 0.88571 0.0
H576 H 0.53057 0.72192 0.04847 0.0
H577 H 0.39577 0.73653 0.11531 0.0
H578 H 0.41562 0.80742 0.14638 0.0
H579 H 0.46818 0.86779 0.14914 0.0
H580 H 0.60056 0.85719 0.07723 0.0
H581 H 0.58614 0.78166 0.05496 0.0
C582 C 0.50609 0.74081 0.07012 0.0
C583 C 0.46198 0.72471 0.07992 0.0
C584 C 0.51752 0.78191 0.08712 0.0
C585 C 0.42997 0.74882 0.10782 0.0
C586 C 0.44132 0.78912 0.12545 0.0
C587 C 0.49407 0.84883 0.12887 0.0
C588 C 0.53504 0.86833 0.11449 0.0
C589 C 0.48457 0.80638 0.11462 0.0
C590 C 0.56884 0.84291 0.0891 0.0
C591 C 0.56031 0.79991 0.07581 0.0
H592 H 0.14246 0.47359 0.60824 0.0
H593 H 0.14385 0.47382 0.4627 0.0
H594 H 0.14002 0.39195 0.46484 0.0
H595 H 0.12595 0.32243 0.50849 0.0
H596 H 0.11156 0.32624 0.65332 0.0
H597 H 0.12934 0.40487 0.65168 0.0
C598 C 0.14346 0.45517 0.57724 0.0
C599 C 0.14436 0.47895 0.53543 0.0
C600 C 0.13716 0.40936 0.57883 0.0
C601 C 0.14426 0.45566 0.49512 0.0
C602 C 0.14119 0.4092 0.49647 0.0
C603 C 0.12697 0.34065 0.53958 0.0
C604 C 0.11737 0.31907 0.581 0.0
C605 C 0.13585 0.38605 0.53807 0.0
C606 C 0.11843 0.3426 0.62117 0.0
C607 C 0.12893 0.38727 0.62021 0.0
H608 H 0.64255 0.3604 0.38855 0.0
H609 H 0.65928 0.28664 0.51677 0.0
H610 H 0.62339 0.35224 0.55542 0.0
H611 H 0.58914 0.43208 0.55278 0.0
H612 H 0.57032 0.50381 0.42281 0.0
H613 H 0.60393 0.4378 0.38513 0.0
C614 C 0.6376 0.35856 0.42482 0.0
C615 C 0.65375 0.31881 0.44978 0.0
C616 C 0.61644 0.39626 0.44665 0.0
C617 C 0.64766 0.31707 0.49693 0.0
C618 C 0.62698 0.35454 0.51897 0.0
C619 C 0.59202 0.43314 0.51621 0.0
C620 C 0.57726 0.4733 0.49098 0.0
C621 C 0.61154 0.39459 0.49426 0.0
C622 C 0.58136 0.47372 0.44346 0.0
C623 C 0.60074 0.43586 0.42165 0.0
loop_
_geom_bond_atom_site_label_1
_geom_bond_atom_site_label_2
_geom_bond_distance
_geom_bond_site_symmetry_2
_ccdc_geom_bond_type
C0 N1 1.317 . S
C0 N2 1.348 . S
C0 C3 1.485 . S
N1 C0 1.317 . S
N1 N5 1.370 . S
N2 C0 1.348 . S
N2 C4 1.346 . S
C3 C0 1.485 . S
C3 H7 0.960 . S
C3 H8 0.961 . S
C3 H9 0.960 . S
C4 N2 1.346 . S
C4 N5 1.307 . S
C4 C6 1.486 . S
N5 N1 1.370 . S
N5 C4 1.307 . S
C6 C4 1.486 . S
C6 H10 0.960 . S
C6 H11 0.960 . S
C6 H12 0.959 . S
H7 C3 0.960 . S
H8 C3 0.961 . S
H9 C3 0.960 . S
H10 C6 0.960 . S
H11 C6 0.960 . S
H12 C6 0.959 . S
C13 N14 1.317 . S
C13 N15 1.348 . S
C13 C16 1.485 . S
N14 C13 1.317 . S
N14 N18 1.370 . S
N15 C13 1.348 . S
N15 C17 1.346 . S
C16 C13 1.485 . S
C16 H20 0.960 . S
C16 H21 0.961 . S
C16 H22 0.960 . S
C17 N15 1.346 . S
C17 N18 1.307 . S
C17 C19 1.486 . S
N18 N14 1.370 . S
N18 C17 1.307 . S
C19 C17 1.486 . S
C19 H23 0.960 . S
C19 H24 0.960 . S
C19 H25 0.959 . S
H20 C16 0.960 . S
H21 C16 0.961 . S
H22 C16 0.960 . S
H23 C19 0.960 . S
H24 C19 0.960 . S
H25 C19 0.959 . S
C26 N27 1.317 . S
C26 N28 1.348 . S
C26 C29 1.485 . S
N27 C26 1.317 . S
N27 N31 1.370 . S
N28 C26 1.348 . S
N28 C30 1.346 . S
C29 C26 1.485 . S
C29 H33 0.960 . S
C29 H34 0.961 . S
C29 H35 0.960 . S
C30 N28 1.346 . S
C30 N31 1.307 . S
C30 C32 1.486 . S
N31 N27 1.370 . S
N31 C30 1.307 . S
C32 C30 1.486 . S
C32 H36 0.960 . S
C32 H37 0.960 . S
C32 H38 0.959 . S
H33 C29 0.960 . S
H34 C29 0.961 . S
H35 C29 0.960 . S
H36 C32 0.960 . S
H37 C32 0.960 . S
H38 C32 0.959 . S
C39 N40 1.317 . S
C39 N41 1.348 . S
C39 C42 1.485 . S
N40 C39 1.317 . S
N40 N44 1.370 . S
N41 C39 1.348 . S
N41 C43 1.346 . S
C42 C39 1.485 . S
C42 H46 0.960 . S
C42 H47 0.961 . S
C42 H48 0.960 . S
C43 N41 1.346 . S
C43 N44 1.307 . S
C43 C45 1.486 . S
N44 N40 1.370 . S
N44 C43 1.307 . S
C45 C43 1.486 . S
C45 H49 0.960 . S
C45 H50 0.960 . S
C45 H51 0.959 . S
H46 C42 0.960 . S
H47 C42 0.961 . S
H48 C42 0.960 . S
H49 C45 0.960 . S
H50 C45 0.960 . S
H51 C45 0.959 . S
C52 N53 1.317 . S
C52 N54 1.348 . S
C52 C55 1.485 . S
N53 C52 1.317 . S
N53 N57 1.370 . S
N54 C52 1.348 . S
N54 C56 1.346 . S
C55 C52 1.485 . S
C55 H59 0.960 . S
C55 H60 0.961 . S
C55 H61 0.960 . S
C56 N54 1.346 . S
C56 N57 1.307 . S
C56 C58 1.486 1_565 S
N57 N53 1.370 . S
N57 C56 1.307 . S
C58 C56 1.486 1_545 S
C58 H62 0.960 . S
C58 H63 0.960 . S
C58 H64 0.959 . S
H59 C55 0.960 . S
H60 C55 0.961 . S
H61 C55 0.960 . S
H62 C58 0.960 . S
H63 C58 0.960 . S
H64 C58 0.959 . S
C65 N66 1.317 . S
C65 N67 1.348 . S
C65 C68 1.485 . S
N66 C65 1.317 . S
N66 N70 1.370 . S
N67 C65 1.348 . S
N67 C69 1.346 . S
C68 C65 1.485 . S
C68 H72 0.960 . S
C68 H73 0.961 . S
C68 H74 0.960 . S
C69 N67 1.346 . S
C69 N70 1.307 . S
C69 C71 1.486 . S
N70 N66 1.370 . S
N70 C69 1.307 . S
C71 C69 1.486 . S
C71 H75 0.960 . S
C71 H76 0.960 . S
C71 H77 0.959 . S
H72 C68 0.960 . S
H73 C68 0.961 . S
H74 C68 0.960 . S
H75 C71 0.960 . S
H76 C71 0.960 . S
H77 C71 0.959 . S
C78 N79 1.317 . S
C78 N80 1.348 . S
C78 C81 1.485 . S
N79 C78 1.317 . S
N79 N83 1.370 . S
N80 C78 1.348 . S
N80 C82 1.346 . S
C81 C78 1.485 . S
C81 H85 0.960 . S
C81 H86 0.961 . S
C81 H87 0.960 . S
C82 N80 1.346 . S
C82 N83 1.307 . S
C82 C84 1.486 . S
N83 N79 1.370 . S
N83 C82 1.307 . S
C84 C82 1.486 . S
C84 H88 0.960 . S
C84 H89 0.960 1_554 S
C84 H90 0.959 . S
H85 C81 0.960 . S
H86 C81 0.961 . S
H87 C81 0.960 . S
H88 C84 0.960 . S
H89 C84 0.960 1_556 S
H90 C84 0.959 . S
C91 N92 1.317 . S
C91 N93 1.348 . S
C91 C94 1.485 . S
N92 C91 1.317 . S
N92 N96 1.370 . S
N93 C91 1.348 . S
N93 C95 1.346 . S
C94 C91 1.485 . S
C94 H98 0.960 . S
C94 H99 0.961 . S
C94 H100 0.960 . S
C95 N93 1.346 . S
C95 N96 1.307 . S
C95 C97 1.486 . S
N96 N92 1.370 . S
N96 C95 1.307 . S
C97 C95 1.486 . S
C97 H101 0.960 . S
C97 H102 0.960 . S
C97 H103 0.959 . S
H98 C94 0.960 . S
H99 C94 0.961 . S
H100 C94 0.960 . S
H101 C97 0.960 . S
H102 C97 0.960 . S
H103 C97 0.959 . S
C104 O120 1.251 . S
C104 O122 1.254 . S
N105 C106 1.333 . S
N105 C110 1.307 . S
N105 Zn111 2.020 . S
C106 N105 1.333 . S
C106 C107 1.379 . S
C106 H124 0.952 . S
C107 C106 1.379 . S
C107 C108 1.390 . S
C107 H134 0.949 . S
C108 C107 1.390 . S
C108 C109 1.357 . S
C109 C108 1.357 . S
C109 C110 1.370 . S
C109 H135 0.950 . S
C110 N105 1.307 . S
C110 C109 1.370 . S
C110 H128 0.948 . S
Zn111 N105 2.020 . S
Zn111 O120 2.039 . S
Zn111 O126 2.034 . S
Zn111 O130 2.025 . S
Zn111 O132 2.024 1_455 S
C112 O131 1.246 . S
C112 O132 1.249 . S
N113 C114 1.307 . S
N113 C115 1.333 1_455 S
N113 Zn119 2.020 1_565 S
C114 N113 1.307 . S
C114 C118 1.370 . S
C114 H125 0.948 . S
C115 N113 1.333 1_655 S
C115 C116 1.379 . S
C115 H123 0.952 . S
C116 C115 1.379 . S
C116 C117 1.390 . S
C116 H136 0.949 . S
C117 C116 1.390 . S
C117 C118 1.357 1_655 S
C118 C114 1.370 . S
C118 C117 1.357 1_455 S
C118 H137 0.950 . S
Zn119 N113 2.020 1_545 S
Zn119 O122 2.025 . S
Zn119 O127 2.024 . S
Zn119 O129 2.039 . S
Zn119 O131 2.034 1_455 S
O120 C104 1.251 . S
O120 Zn111 2.039 . S
C121 O126 1.246 . S
C121 O127 1.249 . S
O122 C104 1.254 . S
O122 Zn119 2.025 . S
H123 C115 0.952 . S
H124 C106 0.952 . S
H125 C114 0.948 . S
O126 Zn111 2.034 . S
O126 C121 1.246 . S
O127 Zn119 2.024 . S
O127 C121 1.249 . S
H128 C110 0.948 . S
O129 Zn119 2.039 . S
O129 C133 1.251 . S
O130 Zn111 2.025 . S
O130 C133 1.254 . S
O131 C112 1.246 . S
O131 Zn119 2.034 1_655 S
O132 Zn111 2.024 1_655 S
O132 C112 1.249 . S
C133 O129 1.251 . S
C133 O130 1.254 . S
H134 C107 0.949 . S
H135 C109 0.950 . S
H136 C116 0.949 . S
H137 C118 0.950 . S
C138 O154 1.251 . S
C138 O156 1.254 . S
N139 C140 1.333 . S
N139 C144 1.307 . S
N139 Zn145 2.020 1_556 S
C140 N139 1.333 . S
C140 C141 1.379 . S
C140 H158 0.952 1_556 S
C141 C140 1.379 . S
C141 C142 1.390 . S
C141 H168 0.949 . S
C142 C141 1.390 . S
C142 C143 1.357 . S
C143 C142 1.357 . S
C143 C144 1.370 . S
C143 H169 0.950 . S
C144 N139 1.307 . S
C144 C143 1.370 . S
C144 H162 0.948 . S
Zn145 N139 2.020 1_554 S
Zn145 O154 2.039 . S
Zn145 O160 2.034 . S
Zn145 O164 2.025 . S
Zn145 O166 2.024 1_554 S
C146 O165 1.246 . S
C146 O166 1.249 . S
N147 C148 1.307 . S
N147 C149 1.333 . S
N147 Zn153 2.020 1_565 S
C148 N147 1.307 . S
C148 C152 1.370 . S
C148 H159 0.948 . S
C149 N147 1.333 . S
C149 C150 1.379 . S
C149 H157 0.952 . S
C150 C149 1.379 . S
C150 C151 1.390 . S
C150 H170 0.949 . S
C151 C150 1.390 . S
C151 C152 1.357 . S
C152 C148 1.370 . S
C152 C151 1.357 . S
C152 H171 0.950 . S
Zn153 N147 2.020 1_545 S
Zn153 O156 2.025 . S
Zn153 O161 2.024 . S
Zn153 O163 2.039 . S
Zn153 O165 2.034 1_554 S
O154 C138 1.251 . S
O154 Zn145 2.039 . S
C155 O160 1.246 . S
C155 O161 1.249 . S
O156 C138 1.254 . S
O156 Zn153 2.025 . S
H157 C149 0.952 . S
H158 C140 0.952 1_554 S
H159 C148 0.948 . S
O160 Zn145 2.034 . S
O160 C155 1.246 . S
O161 Zn153 2.024 . S
O161 C155 1.249 . S
H162 C144 0.948 . S
O163 Zn153 2.039 . S
O163 C167 1.251 . S
O164 Zn145 2.025 . S
O164 C167 1.254 . S
O165 C146 1.246 . S
O165 Zn153 2.034 1_556 S
O166 Zn145 2.024 1_556 S
O166 C146 1.249 . S
C167 O163 1.251 . S
C167 O164 1.254 . S
H168 C141 0.949 . S
H169 C143 0.950 . S
H170 C150 0.949 . S
H171 C152 0.950 . S
C172 O188 1.251 . S
C172 O190 1.254 . S
N173 C174 1.333 . S
N173 C178 1.307 . S
N173 Zn179 2.020 . S
C174 N173 1.333 . S
C174 C175 1.379 . S
C174 H192 0.952 . S
C175 C174 1.379 . S
C175 C176 1.390 . S
C175 H202 0.949 . S
C176 C175 1.390 . S
C176 C177 1.357 . S
C177 C176 1.357 . S
C177 C178 1.370 . S
C177 H203 0.950 . S
C178 N173 1.307 . S
C178 C177 1.370 . S
C178 H196 0.948 . S
Zn179 N173 2.020 . S
Zn179 O188 2.039 . S
Zn179 O194 2.034 . S
Zn179 O198 2.025 . S
Zn179 O200 2.024 . S
C180 O199 1.246 . S
C180 O200 1.249 . S
N181 C182 1.307 . S
N181 C183 1.333 . S
N181 Zn187 2.020 . S
C182 N181 1.307 . S
C182 C186 1.370 . S
C182 H193 0.948 . S
C183 N181 1.333 . S
C183 C184 1.379 . S
C183 H191 0.952 . S
C184 C183 1.379 . S
C184 C185 1.390 . S
C184 H204 0.949 . S
C185 C184 1.390 . S
C185 C186 1.357 . S
C186 C182 1.370 . S
C186 C185 1.357 . S
C186 H205 0.950 . S
Zn187 N181 2.020 . S
Zn187 O190 2.025 . S
Zn187 O195 2.024 . S
Zn187 O197 2.039 . S
Zn187 O199 2.034 . S
O188 C172 1.251 . S
O188 Zn179 2.039 . S
C189 O194 1.246 . S
C189 O195 1.249 . S
O190 C172 1.254 . S
O190 Zn187 2.025 . S
H191 C183 0.952 . S
H192 C174 0.952 . S
H193 C182 0.948 . S
O194 Zn179 2.034 . S
O194 C189 1.246 . S
O195 Zn187 2.024 . S
O195 C189 1.249 . S
H196 C178 0.948 . S
O197 Zn187 2.039 . S
O197 C201 1.251 . S
O198 Zn179 2.025 . S
O198 C201 1.254 . S
O199 C180 1.246 . S
O199 Zn187 2.034 . S
O200 Zn179 2.024 . S
O200 C180 1.249 . S
C201 O197 1.251 . S
C201 O198 1.254 . S
H202 C175 0.949 . S
H203 C177 0.950 . S
H204 C184 0.949 . S
H205 C186 0.950 . S
C206 O222 1.251 1_556 S
C206 O224 1.254 . S
N207 C208 1.333 . S
N207 C212 1.307 . S
N207 Zn213 2.020 . S
C208 N207 1.333 . S
C208 C209 1.379 . S
C208 H226 0.952 . S
C209 C208 1.379 . S
C209 C210 1.390 . S
C209 H236 0.949 . S
C210 C209 1.390 . S
C210 C211 1.357 . S
C211 C210 1.357 . S
C211 C212 1.370 . S
C211 H237 0.950 . S
C212 N207 1.307 . S
C212 C211 1.370 . S
C212 H230 0.948 . S
Zn213 N207 2.020 . S
Zn213 O222 2.039 . S
Zn213 O228 2.034 1_655 S
Zn213 O232 2.025 1_655 S
Zn213 O234 2.024 . S
C214 O233 1.246 . S
C214 O234 1.249 1_556 S
N215 C216 1.307 . S
N215 C217 1.333 . S
N215 Zn221 2.020 . S
C216 N215 1.307 . S
C216 C220 1.370 . S
C216 H227 0.948 . S
C217 N215 1.333 . S
C217 C218 1.379 . S
C217 H225 0.952 . S
C218 C217 1.379 . S
C218 C219 1.390 . S
C218 H238 0.949 . S
C219 C218 1.390 . S
C219 C220 1.357 . S
C220 C216 1.370 . S
C220 C219 1.357 . S
C220 H239 0.950 . S
Zn221 N215 2.020 . S
Zn221 O224 2.025 1_455 S
Zn221 O229 2.024 . S
Zn221 O231 2.039 . S
Zn221 O233 2.034 1_455 S
O222 C206 1.251 1_554 S
O222 Zn213 2.039 . S
C223 O228 1.246 . S
C223 O229 1.249 1_554 S
O224 C206 1.254 . S
O224 Zn221 2.025 1_655 S
H225 C217 0.952 . S
H226 C208 0.952 . S
H227 C216 0.948 . S
O228 Zn213 2.034 1_455 S
O228 C223 1.246 . S
O229 Zn221 2.024 . S
O229 C223 1.249 1_556 S
H230 C212 0.948 . S
O231 Zn221 2.039 . S
O231 C235 1.251 1_556 S
O232 Zn213 2.025 1_455 S
O232 C235 1.254 . S
O233 C214 1.246 . S
O233 Zn221 2.034 1_655 S
O234 Zn213 2.024 . S
O234 C214 1.249 1_554 S
C235 O231 1.251 1_554 S
C235 O232 1.254 . S
H236 C209 0.949 . S
H237 C211 0.950 . S
H238 C218 0.949 . S
H239 C220 0.950 . S
H240 C246 0.930 . S
H241 C249 0.930 . S
H242 C250 0.930 . S
H243 C251 0.930 . S
H244 C254 0.930 . S
H245 C255 0.930 . S
C246 H240 0.930 . S
C246 C247 1.355 . S
C246 C248 1.415 . S
C247 C246 1.355 . S
C247 C249 1.419 . S
C248 C246 1.415 . S
C248 C253 1.425 . S
C248 C255 1.409 . S
C249 H241 0.930 . S
C249 C247 1.419 . S
C249 C250 1.362 . S
C250 H242 0.930 . S
C250 C249 1.362 . S
C250 C253 1.409 . S
C251 H243 0.930 . S
C251 C252 1.355 . S
C251 C253 1.415 . S
C252 C251 1.355 . S
C252 C254 1.419 . S
C253 C248 1.425 . S
C253 C250 1.409 . S
C253 C251 1.415 . S
C254 H244 0.930 . S
C254 C252 1.419 . S
C254 C255 1.362 . S
C255 H245 0.930 . S
C255 C248 1.409 . S
C255 C254 1.362 . S
H256 C262 0.930 . S
H257 C265 0.930 . S
H258 C266 0.930 . S
H259 C267 0.930 . S
H260 C270 0.930 . S
H261 C271 0.930 . S
C262 H256 0.930 . S
C262 C263 1.355 1_545 S
C262 C264 1.415 . S
C263 C262 1.355 1_565 S
C263 C265 1.419 . S
C264 C262 1.415 . S
C264 C269 1.425 . S
C264 C271 1.409 . S
C265 H257 0.930 . S
C265 C263 1.419 . S
C265 C266 1.362 . S
C266 H258 0.930 . S
C266 C265 1.362 . S
C266 C269 1.409 1_565 S
C267 H259 0.930 . S
C267 C268 1.355 . S
C267 C269 1.415 . S
C268 C267 1.355 . S
C268 C270 1.419 . S
C269 C264 1.425 . S
C269 C266 1.409 1_545 S
C269 C267 1.415 . S
C270 H260 0.930 . S
C270 C268 1.419 . S
C270 C271 1.362 . S
C271 H261 0.930 . S
C271 C264 1.409 . S
C271 C270 1.362 . S
H272 C278 0.930 . S
H273 C281 0.930 . S
H274 C282 0.930 . S
H275 C283 0.930 . S
H276 C286 0.930 . S
H277 C287 0.930 . S
C278 H272 0.930 . S
C278 C279 1.355 . S
C278 C280 1.415 . S
C279 C278 1.355 . S
C279 C281 1.419 . S
C280 C278 1.415 . S
C280 C285 1.425 . S
C280 C287 1.409 . S
C281 H273 0.930 . S
C281 C279 1.419 . S
C281 C282 1.362 . S
C282 H274 0.930 . S
C282 C281 1.362 . S
C282 C285 1.409 . S
C283 H275 0.930 . S
C283 C284 1.355 . S
C283 C285 1.415 . S
C284 C283 1.355 . S
C284 C286 1.419 . S
C285 C280 1.425 . S
C285 C282 1.409 . S
C285 C283 1.415 . S
C286 H276 0.930 . S
C286 C284 1.419 . S
C286 C287 1.362 . S
C287 H277 0.930 . S
C287 C280 1.409 . S
C287 C286 1.362 . S
H288 C294 0.930 . S
H289 C297 0.930 . S
H290 C298 0.930 . S
H291 C299 0.930 . S
H292 C302 0.930 . S
H293 C303 0.930 . S
C294 H288 0.930 . S
C294 C295 1.355 . S
C294 C296 1.415 . S
C295 C294 1.355 . S
C295 C297 1.419 . S
C296 C294 1.415 . S
C296 C301 1.425 . S
C296 C303 1.409 . S
C297 H289 0.930 . S
C297 C295 1.419 . S
C297 C298 1.362 . S
C298 H290 0.930 . S
C298 C297 1.362 . S
C298 C301 1.409 . S
C299 H291 0.930 . S
C299 C300 1.355 . S
C299 C301 1.415 . S
C300 C299 1.355 . S
C300 C302 1.419 . S
C301 C296 1.425 . S
C301 C298 1.409 . S
C301 C299 1.415 . S
C302 H292 0.930 . S
C302 C300 1.419 . S
C302 C303 1.362 . S
C303 H293 0.930 . S
C303 C296 1.409 . S
C303 C302 1.362 . S
H304 C310 0.930 . S
H305 C313 0.930 . S
H306 C314 0.930 . S
H307 C315 0.930 . S
H308 C318 0.930 . S
H309 C319 0.930 . S
C310 H304 0.930 . S
C310 C311 1.355 . S
C310 C312 1.415 . S
C311 C310 1.355 . S
C311 C313 1.419 . S
C312 C310 1.415 . S
C312 C317 1.425 . S
C312 C319 1.409 . S
C313 H305 0.930 . S
C313 C311 1.419 . S
C313 C314 1.362 . S
C314 H306 0.930 . S
C314 C313 1.362 . S
C314 C317 1.409 . S
C315 H307 0.930 . S
C315 C316 1.355 . S
C315 C317 1.415 . S
C316 C315 1.355 . S
C316 C318 1.419 . S
C317 C312 1.425 . S
C317 C314 1.409 . S
C317 C315 1.415 . S
C318 H308 0.930 . S
C318 C316 1.419 . S
C318 C319 1.362 . S
C319 H309 0.930 . S
C319 C312 1.409 . S
C319 C318 1.362 . S
H320 C326 0.930 . S
H321 C329 0.930 . S
H322 C330 0.930 . S
H323 C331 0.930 . S
H324 C334 0.930 . S
H325 C335 0.930 . S
C326 H320 0.930 . S
C326 C327 1.355 . S
C326 C328 1.415 1_565 S
C327 C326 1.355 . S
C327 C329 1.419 . S
C328 C326 1.415 1_545 S
C328 C333 1.425 1_545 S
C328 C335 1.409 . S
C329 H321 0.930 . S
C329 C327 1.419 . S
C329 C330 1.362 . S
C330 H322 0.930 . S
C330 C329 1.362 . S
C330 C333 1.409 . S
C331 H323 0.930 . S
C331 C332 1.355 . S
C331 C333 1.415 1_545 S
C332 C331 1.355 . S
C332 C334 1.419 . S
C333 C328 1.425 1_565 S
C333 C330 1.409 . S
C333 C331 1.415 1_565 S
C334 H324 0.930 . S
C334 C332 1.419 . S
C334 C335 1.362 . S
C335 H325 0.930 . S
C335 C328 1.409 . S
C335 C334 1.362 . S
H336 C342 0.930 . S
H337 C345 0.930 . S
H338 C346 0.930 . S
H339 C347 0.930 . S
H340 C350 0.930 . S
H341 C351 0.930 . S
C342 H336 0.930 . S
C342 C343 1.355 . S
C342 C344 1.415 . S
C343 C342 1.355 . S
C343 C345 1.419 . S
C344 C342 1.415 . S
C344 C349 1.425 . S
C344 C351 1.409 . S
C345 H337 0.930 . S
C345 C343 1.419 . S
C345 C346 1.362 . S
C346 H338 0.930 . S
C346 C345 1.362 . S
C346 C349 1.409 . S
C347 H339 0.930 . S
C347 C348 1.355 . S
C347 C349 1.415 . S
C348 C347 1.355 . S
C348 C350 1.419 . S
C349 C344 1.425 . S
C349 C346 1.409 . S
C349 C347 1.415 . S
C350 H340 0.930 . S
C350 C348 1.419 . S
C350 C351 1.362 . S
C351 H341 0.930 . S
C351 C344 1.409 . S
C351 C350 1.362 . S
H352 C358 0.930 . S
H353 C361 0.930 . S
H354 C362 0.930 . S
H355 C363 0.930 . S
H356 C366 0.930 . S
H357 C367 0.930 . S
C358 H352 0.930 . S
C358 C359 1.355 . S
C358 C360 1.415 . S
C359 C358 1.355 . S
C359 C361 1.419 . S
C360 C358 1.415 . S
C360 C365 1.425 . S
C360 C367 1.409 . S
C361 H353 0.930 . S
C361 C359 1.419 . S
C361 C362 1.362 . S
C362 H354 0.930 . S
C362 C361 1.362 . S
C362 C365 1.409 . S
C363 H355 0.930 . S
C363 C364 1.355 . S
C363 C365 1.415 . S
C364 C363 1.355 . S
C364 C366 1.419 . S
C365 C360 1.425 . S
C365 C362 1.409 . S
C365 C363 1.415 . S
C366 H356 0.930 . S
C366 C364 1.419 . S
C366 C367 1.362 . S
C367 H357 0.930 . S
C367 C360 1.409 . S
C367 C366 1.362 . S
H368 C374 0.930 . S
H369 C377 0.930 . S
H370 C378 0.930 . S
H371 C379 0.930 . S
H372 C382 0.930 1_655 S
H373 C383 0.930 1_655 S
C374 H368 0.930 . S
C374 C375 1.355 . S
C374 C376 1.415 . S
C375 C374 1.355 . S
C375 C377 1.419 . S
C376 C374 1.415 . S
C376 C381 1.425 . S
C376 C383 1.409 . S
C377 H369 0.930 . S
C377 C375 1.419 . S
C377 C378 1.362 . S
C378 H370 0.930 . S
C378 C377 1.362 . S
C378 C381 1.409 . S
C379 H371 0.930 . S
C379 C380 1.355 . S
C379 C381 1.415 . S
C380 C379 1.355 . S
C380 C382 1.419 . S
C381 C376 1.425 . S
C381 C378 1.409 . S
C381 C379 1.415 . S
C382 H372 0.930 1_455 S
C382 C380 1.419 . S
C382 C383 1.362 . S
C383 H373 0.930 1_455 S
C383 C376 1.409 . S
C383 C382 1.362 . S
H384 C390 0.930 . S
H385 C393 0.930 . S
H386 C394 0.930 . S
H387 C395 0.930 . S
H388 C398 0.930 . S
H389 C399 0.930 . S
C390 H384 0.930 . S
C390 C391 1.355 . S
C390 C392 1.415 . S
C391 C390 1.355 . S
C391 C393 1.419 . S
C392 C390 1.415 . S
C392 C397 1.425 . S
C392 C399 1.409 . S
C393 H385 0.930 . S
C393 C391 1.419 . S
C393 C394 1.362 . S
C394 H386 0.930 . S
C394 C393 1.362 . S
C394 C397 1.409 . S
C395 H387 0.930 . S
C395 C396 1.355 . S
C395 C397 1.415 . S
C396 C395 1.355 . S
C396 C398 1.419 . S
C397 C392 1.425 . S
C397 C394 1.409 . S
C397 C395 1.415 . S
C398 H388 0.930 . S
C398 C396 1.419 . S
C398 C399 1.362 . S
C399 H389 0.930 . S
C399 C392 1.409 . S
C399 C398 1.362 . S
H400 C406 0.930 . S
H401 C409 0.930 . S
H402 C410 0.930 . S
H403 C411 0.930 . S
H404 C414 0.919 1_455 S
H405 C415 0.930 . S
C406 H400 0.930 . S
C406 C407 1.355 . S
C406 C408 1.415 . S
C407 C406 1.355 . S
C407 C409 1.419 . S
C408 C406 1.415 . S
C408 C413 1.425 . S
C408 C415 1.409 . S
C409 H401 0.930 . S
C409 C407 1.419 . S
C409 C410 1.362 . S
C410 H402 0.930 . S
C410 C409 1.362 . S
C410 C413 1.409 . S
C411 H403 0.930 . S
C411 C412 1.355 . S
C411 C413 1.415 . S
C412 C411 1.355 . S
C412 C414 1.425 . S
C413 C408 1.425 . S
C413 C410 1.409 . S
C413 C411 1.415 . S
C414 H404 0.919 1_655 S
C414 C412 1.425 . S
C414 C415 1.367 . S
C415 H405 0.930 . S
C415 C408 1.409 . S
C415 C414 1.367 . S
H416 C422 0.930 . S
H417 C425 0.930 . S
H418 C426 0.930 . S
H419 C427 0.930 . S
H420 C430 0.930 . S
H421 C431 0.930 . S
C422 H416 0.930 . S
C422 C423 1.355 . S
C422 C424 1.415 . S
C423 C422 1.355 . S
C423 C425 1.419 . S
C424 C422 1.415 . S
C424 C429 1.425 . S
C424 C431 1.409 . S
C425 H417 0.930 . S
C425 C423 1.419 . S
C425 C426 1.362 . S
C426 H418 0.930 . S
C426 C425 1.362 . S
C426 C429 1.409 . S
C427 H419 0.930 . S
C427 C428 1.355 . S
C427 C429 1.415 . S
C428 C427 1.355 . S
C428 C430 1.419 . S
C429 C424 1.425 . S
C429 C426 1.409 . S
C429 C427 1.415 . S
C430 H420 0.930 . S
C430 C428 1.419 . S
C430 C431 1.362 . S
C431 H421 0.930 . S
C431 C424 1.409 . S
C431 C430 1.362 . S
H432 C438 0.930 . S
H433 C441 0.930 1_455 S
H434 C442 0.930 . S
H435 C443 0.930 . S
H436 C446 0.930 . S
H437 C447 0.930 . S
C438 H432 0.930 . S
C438 C439 1.355 . S
C438 C440 1.415 . S
C439 C438 1.355 . S
C439 C441 1.419 1_565 S
C440 C438 1.415 . S
C440 C445 1.425 1_565 S
C440 C447 1.409 . S
C441 H433 0.930 1_655 S
C441 C439 1.419 1_545 S
C441 C442 1.362 1_655 S
C442 H434 0.930 . S
C442 C441 1.362 1_455 S
C442 C445 1.409 1_455 S
C443 H435 0.930 . S
C443 C444 1.355 1_455 S
C443 C445 1.415 1_455 S
C444 C443 1.355 1_655 S
C444 C446 1.419 1_545 S
C445 C440 1.425 1_545 S
C445 C442 1.409 1_655 S
C445 C443 1.415 1_655 S
C446 H436 0.930 . S
C446 C444 1.419 1_565 S
C446 C447 1.362 . S
C447 H437 0.930 . S
C447 C440 1.409 . S
C447 C446 1.362 . S
H448 C454 0.930 . S
H449 C457 0.930 . S
H450 C458 0.930 . S
H451 C459 0.930 . S
H452 C462 0.930 . S
H453 C463 0.930 . S
C454 H448 0.930 . S
C454 C455 1.355 . S
C454 C456 1.415 . S
C455 C454 1.355 . S
C455 C457 1.419 . S
C456 C454 1.415 . S
C456 C461 1.425 . S
C456 C463 1.409 . S
C457 H449 0.930 . S
C457 C455 1.419 . S
C457 C458 1.362 . S
C458 H450 0.930 . S
C458 C457 1.362 . S
C458 C461 1.409 . S
C459 H451 0.930 . S
C459 C460 1.355 . S
C459 C461 1.415 . S
C460 C459 1.355 . S
C460 C462 1.419 . S
C461 C456 1.425 . S
C461 C458 1.409 . S
C461 C459 1.415 . S
C462 H452 0.930 . S
C462 C460 1.419 . S
C462 C463 1.362 . S
C463 H453 0.930 . S
C463 C456 1.409 . S
C463 C462 1.362 . S
H464 C470 0.930 . S
H465 C473 0.930 . S
H466 C474 0.930 . S
H467 C475 0.930 . S
H468 C478 0.930 . S
H469 C479 0.930 . S
C470 H464 0.930 . S
C470 C471 1.355 . S
C470 C472 1.415 . S
C471 C470 1.355 . S
C471 C473 1.419 . S
C472 C470 1.415 . S
C472 C477 1.425 . S
C472 C479 1.409 . S
C473 H465 0.930 . S
C473 C471 1.419 . S
C473 C474 1.362 . S
C474 H466 0.930 . S
C474 C473 1.362 . S
C474 C477 1.409 . S
C475 H467 0.930 . S
C475 C476 1.355 . S
C475 C477 1.415 . S
C476 C475 1.355 . S
C476 C478 1.419 . S
C477 C472 1.425 . S
C477 C474 1.409 . S
C477 C475 1.415 . S
C478 H468 0.930 . S
C478 C476 1.419 . S
C478 C479 1.362 . S
C479 H469 0.930 . S
C479 C472 1.409 . S
C479 C478 1.362 . S
H480 C486 0.930 . S
H481 C489 0.930 . S
H482 C490 0.930 . S
H483 C491 0.930 . S
H484 C494 0.930 . S
H485 C495 0.930 . S
C486 H480 0.930 . S
C486 C487 1.355 . S
C486 C488 1.415 . S
C487 C486 1.355 . S
C487 C489 1.419 . S
C488 C486 1.415 . S
C488 C493 1.425 . S
C488 C495 1.409 . S
C489 H481 0.930 . S
C489 C487 1.419 . S
C489 C490 1.362 . S
C490 H482 0.930 . S
C490 C489 1.362 . S
C490 C493 1.409 . S
C491 H483 0.930 . S
C491 C492 1.355 . S
C491 C493 1.415 . S
C492 C491 1.355 . S
C492 C494 1.419 . S
C493 C488 1.425 . S
C493 C490 1.409 . S
C493 C491 1.415 . S
C494 H484 0.930 . S
C494 C492 1.419 . S
C494 C495 1.362 . S
C495 H485 0.930 . S
C495 C488 1.409 . S
C495 C494 1.362 . S
H496 C502 0.930 . S
H497 C505 0.930 . S
H498 C506 0.930 1_554 S
H499 C507 0.930 1_564 S
H500 C510 0.930 . S
H501 C511 0.930 . S
C502 H496 0.930 . S
C502 C503 1.355 1_545 S
C502 C504 1.415 . S
C503 C502 1.355 1_565 S
C503 C505 1.419 . S
C504 C502 1.415 . S
C504 C509 1.425 . S
C504 C511 1.409 . S
C505 H497 0.930 . S
C505 C503 1.419 . S
C505 C506 1.362 . S
C506 H498 0.930 1_556 S
C506 C505 1.362 . S
C506 C509 1.409 1_565 S
C507 H499 0.930 1_546 S
C507 C508 1.355 . S
C507 C509 1.415 . S
C508 C507 1.355 . S
C508 C510 1.419 . S
C509 C504 1.425 . S
C509 C506 1.409 1_545 S
C509 C507 1.415 . S
C510 H500 0.930 . S
C510 C508 1.419 . S
C510 C511 1.362 . S
C511 H501 0.930 . S
C511 C504 1.409 . S
C511 C510 1.362 . S
H512 C518 0.930 . S
H513 C521 0.930 . S
H514 C522 0.930 . S
H515 C523 0.930 . S
H516 C526 0.930 . S
H517 C527 0.930 . S
C518 H512 0.930 . S
C518 C519 1.355 . S
C518 C520 1.415 . S
C519 C518 1.355 . S
C519 C521 1.419 . S
C520 C518 1.415 . S
C520 C525 1.425 . S
C520 C527 1.409 . S
C521 H513 0.930 . S
C521 C519 1.419 . S
C521 C522 1.362 . S
C522 H514 0.930 . S
C522 C521 1.362 . S
C522 C525 1.409 . S
C523 H515 0.930 . S
C523 C524 1.355 . S
C523 C525 1.415 . S
C524 C523 1.355 . S
C524 C526 1.419 . S
C525 C520 1.425 . S
C525 C522 1.409 . S
C525 C523 1.415 . S
C526 H516 0.930 . S
C526 C524 1.419 . S
C526 C527 1.362 . S
C527 H517 0.930 . S
C527 C520 1.409 . S
C527 C526 1.362 . S
H528 C534 0.930 . S
H529 C537 0.930 . S
H530 C538 0.930 . S
H531 C539 0.930 . S
H532 C542 0.930 . S
H533 C543 0.930 . S
C534 H528 0.930 . S
C534 C535 1.355 . S
C534 C536 1.415 . S
C535 C534 1.355 . S
C535 C537 1.419 . S
C536 C534 1.415 . S
C536 C541 1.425 . S
C536 C543 1.409 . S
C537 H529 0.930 . S
C537 C535 1.419 . S
C537 C538 1.362 . S
C538 H530 0.930 . S
C538 C537 1.362 . S
C538 C541 1.409 . S
C539 H531 0.930 . S
C539 C540 1.355 . S
C539 C541 1.415 . S
C540 C539 1.355 . S
C540 C542 1.419 . S
C541 C536 1.425 . S
C541 C538 1.409 . S
C541 C539 1.415 . S
C542 H532 0.930 . S
C542 C540 1.419 . S
C542 C543 1.362 . S
C543 H533 0.930 . S
C543 C536 1.409 . S
C543 C542 1.362 . S
H544 C550 0.930 . S
H545 C553 0.930 . S
H546 C554 0.930 . S
H547 C555 0.930 . S
H548 C558 0.930 . S
H549 C559 0.930 . S
C550 H544 0.930 . S
C550 C551 1.355 . S
C550 C552 1.415 . S
C551 C550 1.355 . S
C551 C553 1.419 . S
C552 C550 1.415 . S
C552 C557 1.425 . S
C552 C559 1.409 . S
C553 H545 0.930 . S
C553 C551 1.419 . S
C553 C554 1.362 . S
C554 H546 0.930 . S
C554 C553 1.362 . S
C554 C557 1.409 . S
C555 H547 0.930 . S
C555 C556 1.355 . S
C555 C557 1.415 . S
C556 C555 1.355 . S
C556 C558 1.419 . S
C557 C552 1.425 . S
C557 C554 1.409 . S
C557 C555 1.415 . S
C558 H548 0.930 . S
C558 C556 1.419 . S
C558 C559 1.362 . S
C559 H549 0.930 . S
C559 C552 1.409 . S
C559 C558 1.362 . S
H560 C566 0.930 . S
H561 C569 0.930 1_455 S
H562 C570 0.930 . S
H563 C571 0.930 1_455 S
H564 C574 0.930 . S
H565 C575 0.930 . S
C566 H560 0.930 . S
C566 C567 1.355 . S
C566 C568 1.415 . S
C567 C566 1.355 . S
C567 C569 1.419 . S
C568 C566 1.415 . S
C568 C573 1.425 . S
C568 C575 1.409 . S
C569 H561 0.930 1_655 S
C569 C567 1.419 . S
C569 C570 1.362 1_655 S
C570 H562 0.930 . S
C570 C569 1.362 1_455 S
C570 C573 1.409 1_455 S
C571 H563 0.930 1_655 S
C571 C572 1.355 . S
C571 C573 1.415 . S
C572 C571 1.355 . S
C572 C574 1.419 . S
C573 C568 1.425 . S
C573 C570 1.409 1_655 S
C573 C571 1.415 . S
C574 H564 0.930 . S
C574 C572 1.419 . S
C574 C575 1.362 . S
C575 H565 0.930 . S
C575 C568 1.409 . S
C575 C574 1.362 . S
H576 C582 0.930 . S
H577 C585 0.930 . S
H578 C586 0.930 . S
H579 C587 0.930 . S
H580 C590 0.930 . S
H581 C591 0.930 . S
C582 H576 0.930 . S
C582 C583 1.355 . S
C582 C584 1.415 . S
C583 C582 1.355 . S
C583 C585 1.419 . S
C584 C582 1.415 . S
C584 C589 1.425 . S
C584 C591 1.409 . S
C585 H577 0.930 . S
C585 C583 1.419 . S
C585 C586 1.362 . S
C586 H578 0.930 . S
C586 C585 1.362 . S
C586 C589 1.409 . S
C587 H579 0.930 . S
C587 C588 1.355 . S
C587 C589 1.415 . S
C588 C587 1.355 . S
C588 C590 1.419 . S
C589 C584 1.425 . S
C589 C586 1.409 . S
C589 C587 1.415 . S
C590 H580 0.930 . S
C590 C588 1.419 . S
C590 C591 1.362 . S
C591 H581 0.930 . S
C591 C584 1.409 . S
C591 C590 1.362 . S
H592 C598 0.930 . S
H593 C601 0.930 . S
H594 C602 0.930 . S
H595 C603 0.930 . S
H596 C606 0.930 . S
H597 C607 0.930 . S
C598 H592 0.930 . S
C598 C599 1.355 . S
C598 C600 1.415 . S
C599 C598 1.355 . S
C599 C601 1.419 . S
C600 C598 1.415 . S
C600 C605 1.425 . S
C600 C607 1.409 . S
C601 H593 0.930 . S
C601 C599 1.419 . S
C601 C602 1.362 . S
C602 H594 0.930 . S
C602 C601 1.362 . S
C602 C605 1.409 . S
C603 H595 0.930 . S
C603 C604 1.355 . S
C603 C605 1.415 . S
C604 C603 1.355 . S
C604 C606 1.419 . S
C605 C600 1.425 . S
C605 C602 1.409 . S
C605 C603 1.415 . S
C606 H596 0.930 . S
C606 C604 1.419 . S
C606 C607 1.362 . S
C607 H597 0.930 . S
C607 C600 1.409 . S
C607 C606 1.362 . S
H608 C614 0.930 . S
H609 C617 0.930 . S
H610 C618 0.930 . S
H611 C619 0.930 . S
H612 C622 0.930 . S
H613 C623 0.930 . S
C614 H608 0.930 . S
C614 C615 1.355 . S
C614 C616 1.415 . S
C615 C614 1.355 . S
C615 C617 1.419 . S
C616 C614 1.415 . S
C616 C621 1.425 . S
C616 C623 1.409 . S
C617 H609 0.930 . S
C617 C615 1.419 . S
C617 C618 1.362 . S
C618 H610 0.930 . S
C618 C617 1.362 . S
C618 C621 1.409 . S
C619 H611 0.930 . S
C619 C620 1.355 . S
C619 C621 1.415 . S
C620 C619 1.355 . S
C620 C622 1.419 . S
C621 C616 1.425 . S
C621 C618 1.409 . S
C621 C619 1.415 . S
C622 H612 0.930 . S
C622 C620 1.419 . S
C622 C623 1.362 . S
C623 H613 0.930 . S
C623 C616 1.409 . S
C623 C622 1.362 . S
C247 N1 2.145 . S
C252 C104 2.206 . S
C263 N18 2.544 . S
C268 C146 2.593 . S
C284 C176 0.707 . S
C279 N28 0.708 . S
C295 N40 1.134 . S
C300 C210 1.129 . S
C316 C167 2.150 . S
C311 N5 2.099 . S
C332 C121 1.887 . S
C327 N14 1.789 . S
C348 C214 1.280 . S
C343 N31 1.218 . S
C364 C180 0.931 . S
C359 N41 0.945 . S
C375 N2 2.063 . S
C380 C235 2.084 . S
C396 C142 1.183 . S
C391 N27 1.114 . S
C407 N44 1.245 . S
C412 C117 1.275 . S
C423 N15 1.974 . S
C428 C201 1.984 . S
C444 C133 2.573 1_655 S
C439 N57 2.547 . S
C455 N70 2.027 . S
C460 C155 2.068 . S
C471 N79 0.922 . S
C476 C185 0.942 . S
C487 N93 0.852 . S
C492 C219 0.854 . S
C503 N54 1.738 . S
C508 C138 1.743 1_556 S
C524 C112 2.204 . S
C519 N66 2.134 . S
C540 C223 0.714 . S
C535 N80 0.693 . S
C556 C189 1.372 . S
C551 N96 1.304 . S
C567 N53 2.096 . S
C572 C206 2.148 . S
C588 C151 1.183 . S
C583 N83 1.187 . S
C604 C108 1.243 . S
C599 N92 1.177 . S
C615 N67 2.056 . S
C620 C172 2.063 . S
