# Generated by pormake.
# Topology csq, (4,8)-cn, num edge types: 1
# Building blocks:
#     Node 0, Type 0, BuildingBlock: GIZVER_clean_linker_0, # of connection points: 4
#     Node 1, Type 0, BuildingBlock: GIZVER_clean_linker_0, # of connection points: 4
#     Node 2, Type 0, BuildingBlock: GIZVER_clean_linker_0, # of connection points: 4
#     Node 3, Type 0, BuildingBlock: GIZVER_clean_linker_0, # of connection points: 4
#     Node 4, Type 0, BuildingBlock: GIZVER_clean_linker_0, # of connection points: 4
#     Node 5, Type 0, BuildingBlock: GIZVER_clean_linker_0, # of connection points: 4
#     Node 6, Type 1, BuildingBlock: TAGTUT_clean_sbu_1, # of connection points: 8
#     Node 7, Type 1, BuildingBlock: TAGTUT_clean_sbu_1, # of connection points: 8
#     Node 8, Type 1, BuildingBlock: TAGTUT_clean_sbu_1, # of connection points: 8
#     Edge 9, Type (0, 1), BuildingBlock: ZUJKAS_clean_linker_0, # of connection points: 2
#     Edge 10, Type (0, 1), BuildingBlock: ZUJKAS_clean_linker_0, # of connection points: 2
#     Edge 11, Type (0, 1), BuildingBlock: ZUJKAS_clean_linker_0, # of connection points: 2
#     Edge 12, Type (0, 1), BuildingBlock: ZUJKAS_clean_linker_0, # of connection points: 2
#     Edge 13, Type (0, 1), BuildingBlock: ZUJKAS_clean_linker_0, # of connection points: 2
#     Edge 14, Type (0, 1), BuildingBlock: ZUJKAS_clean_linker_0, # of connection points: 2
#     Edge 15, Type (0, 1), BuildingBlock: ZUJKAS_clean_linker_0, # of connection points: 2
#     Edge 16, Type (0, 1), BuildingBlock: ZUJKAS_clean_linker_0, # of connection points: 2
#     Edge 17, Type (0, 1), BuildingBlock: ZUJKAS_clean_linker_0, # of connection points: 2
#     Edge 18, Type (0, 1), BuildingBlock: ZUJKAS_clean_linker_0, # of connection points: 2
#     Edge 19, Type (0, 1), BuildingBlock: ZUJKAS_clean_linker_0, # of connection points: 2
#     Edge 20, Type (0, 1), BuildingBlock: ZUJKAS_clean_linker_0, # of connection points: 2
#     Edge 21, Type (0, 1), BuildingBlock: ZUJKAS_clean_linker_0, # of connection points: 2
#     Edge 22, Type (0, 1), BuildingBlock: ZUJKAS_clean_linker_0, # of connection points: 2
#     Edge 23, Type (0, 1), BuildingBlock: ZUJKAS_clean_linker_0, # of connection points: 2
#     Edge 24, Type (0, 1), BuildingBlock: ZUJKAS_clean_linker_0, # of connection points: 2
#     Edge 25, Type (0, 1), BuildingBlock: ZUJKAS_clean_linker_0, # of connection points: 2
#     Edge 26, Type (0, 1), BuildingBlock: ZUJKAS_clean_linker_0, # of connection points: 2
#     Edge 27, Type (0, 1), BuildingBlock: ZUJKAS_clean_linker_0, # of connection points: 2
#     Edge 28, Type (0, 1), BuildingBlock: ZUJKAS_clean_linker_0, # of connection points: 2
#     Edge 29, Type (0, 1), BuildingBlock: ZUJKAS_clean_linker_0, # of connection points: 2
#     Edge 30, Type (0, 1), BuildingBlock: ZUJKAS_clean_linker_0, # of connection points: 2
#     Edge 31, Type (0, 1), BuildingBlock: ZUJKAS_clean_linker_0, # of connection points: 2
#     Edge 32, Type (0, 1), BuildingBlock: ZUJKAS_clean_linker_0, # of connection points: 2
# Relax obj value: 0.045
# Max RMSD: 0.136
# Mean RMSD: 0.097
data_MOF--net-csq--node1-TAGTUT_clean_sbu_1--node2-GIZVER_clean_linker_0--edge1-ZUJKAS_clean_linker_0
_symmetry_space_group_name_H-M    P1
_symmetry_Int_Tables_number       1
_symmetry_cell_setting            triclinic
loop_
_symmetry_equiv_pos_as_xyz
'x, y, z'
_cell_length_a     69.396227
_cell_length_b     68.728887
_cell_length_c     23.249164
_cell_angle_alpha  92.796786
_cell_angle_beta   91.886591
_cell_angle_gamma 119.78483
loop_
_atom_site_label
_atom_site_type_symbol
_atom_site_fract_x
_atom_site_fract_y
_atom_site_fract_z
_atom_type_partial_charge
H0 H 0.24297 0.50613 0.04111 0.0
H1 H 0.24279 0.51009 0.22658 0.0
H2 H 0.18127 0.48209 0.12251 0.0
H3 H 0.27644 0.53299 0.10128 0.0
H4 H 0.27685 0.53352 0.17791 0.0
H5 H 0.28698 0.50928 0.04645 0.0
H6 H 0.31525 0.47628 0.14189 0.0
H7 H 0.28026 0.5045 0.22943 0.0
C8 C 0.23387 0.50227 0.07987 0.0
C9 C 0.2107 0.49307 0.07544 0.0
C10 C 0.24561 0.50844 0.13423 0.0
C11 C 0.23379 0.50469 0.18459 0.0
C12 C 0.21046 0.49479 0.1807 0.0
C13 C 0.19914 0.48887 0.12593 0.0
C14 C 0.27075 0.52202 0.1379 0.0
C15 C 0.28135 0.50739 0.13739 0.0
C16 C 0.28937 0.50295 0.08626 0.0
C17 C 0.302 0.49202 0.0875 0.0
C18 C 0.30543 0.48456 0.14009 0.0
C19 C 0.29783 0.48913 0.19139 0.0
C20 C 0.2856 0.50034 0.18965 0.0
H21 H 0.80953 0.24071 0.04691 0.0
H22 H 0.79984 0.26308 0.21436 0.0
H23 H 0.83318 0.31064 0.08833 0.0
H24 H 0.79659 0.21501 0.12088 0.0
H25 H 0.80025 0.22624 0.1938 0.0
H26 H 0.76119 0.20718 0.06031 0.0
H27 H 0.70328 0.17971 0.15877 0.0
H28 H 0.76836 0.21772 0.24594 0.0
C29 C 0.81054 0.25394 0.07642 0.0
C30 C 0.82131 0.27616 0.0607 0.0
C31 C 0.80212 0.24901 0.1314 0.0
C32 C 0.80514 0.26666 0.17091 0.0
C33 C 0.81621 0.28901 0.15555 0.0
C34 C 0.82352 0.29338 0.0997 0.0
C35 C 0.7925 0.22547 0.15046 0.0
C36 C 0.76755 0.21414 0.15279 0.0
C37 C 0.75379 0.20525 0.10151 0.0
C38 C 0.7306 0.19268 0.10367 0.0
C39 C 0.7212 0.18979 0.15722 0.0
C40 C 0.73461 0.19887 0.20878 0.0
C41 C 0.75784 0.21104 0.20629 0.0
H42 H 0.54221 0.79189 0.95439 0.0
H43 H 0.57456 0.80762 0.12576 0.0
H44 H 0.53849 0.83993 0.07206 0.0
H45 H 0.57002 0.78125 0.97803 0.0
H46 H 0.58563 0.79039 0.04593 0.0
H47 H 0.53972 0.74365 0.96136 0.0
H48 H 0.52625 0.6982 0.09466 0.0
H49 H 0.56963 0.76881 0.13395 0.0
C50 C 0.54558 0.80042 0.99707 0.0
C51 C 0.53804 0.81569 0.00895 0.0
C52 C 0.5583 0.7969 0.03973 0.0
C53 C 0.56377 0.80918 0.09383 0.0
C54 C 0.55656 0.82464 0.10513 0.0
C55 C 0.54332 0.82732 0.06338 0.0
C56 C 0.56844 0.7824 0.02538 0.0
C57 C 0.55506 0.7591 0.04608 0.0
C58 C 0.54126 0.7408 0.00629 0.0
C59 C 0.53081 0.71869 0.02341 0.0
C60 C 0.5333 0.7152 0.08139 0.0
C61 C 0.54719 0.73308 0.12126 0.0
C62 C 0.5581 0.75508 0.1037 0.0
H63 H 0.76059 0.53971 0.9796 0.0
H64 H 0.76444 0.54923 0.1648 0.0
H65 H 0.70081 0.51694 0.0696 0.0
H66 H 0.79452 0.56947 0.03215 0.0
H67 H 0.7968 0.57251 0.10894 0.0
H68 H 0.80475 0.54455 0.98027 0.0
H69 H 0.83871 0.51835 0.08086 0.0
H70 H 0.80279 0.54621 0.16522 0.0
C71 C 0.75233 0.5372 0.01958 0.0
C72 C 0.72905 0.52685 0.01812 0.0
C73 C 0.76522 0.54544 0.07212 0.0
C74 C 0.75453 0.54255 0.12424 0.0
C75 C 0.73114 0.53166 0.12379 0.0
C76 C 0.71868 0.52396 0.07046 0.0
C77 C 0.7902 0.55981 0.07131 0.0
C78 C 0.80179 0.54611 0.0725 0.0
C79 C 0.80895 0.5404 0.02146 0.0
C80 C 0.82217 0.53011 0.02387 0.0
C81 C 0.82793 0.52553 0.07805 0.0
C82 C 0.82113 0.53133 0.12917 0.0
C83 C 0.80758 0.54108 0.1259 0.0
H84 H 0.28805 0.76557 0.00979 0.0
H85 H 0.29047 0.77245 0.19529 0.0
H86 H 0.3307 0.82989 0.10078 0.0
H87 H 0.27707 0.73278 0.06798 0.0
H88 H 0.27804 0.73585 0.1447 0.0
H89 H 0.24412 0.72434 0.01053 0.0
H90 H 0.18454 0.70609 0.0976 0.0
H91 H 0.2476 0.73776 0.19483 0.0
C92 C 0.29401 0.77611 0.04988 0.0
C93 C 0.30973 0.79907 0.04902 0.0
C94 C 0.28721 0.76639 0.10276 0.0
C95 C 0.29559 0.78 0.15465 0.0
C96 C 0.31123 0.80299 0.15451 0.0
C97 C 0.31807 0.81234 0.10142 0.0
C98 C 0.2734 0.74121 0.10462 0.0
C99 C 0.24883 0.73325 0.10239 0.0
C100 C 0.2361 0.72459 0.04957 0.0
C101 C 0.21288 0.71478 0.04764 0.0
C102 C 0.20257 0.71472 0.09844 0.0
C103 C 0.21485 0.72283 0.15164 0.0
C104 C 0.23807 0.73221 0.15357 0.0
H105 H 0.51155 0.25742 0.03324 0.0
H106 H 0.52334 0.28648 0.20832 0.0
H107 H 0.48397 0.29872 0.08435 0.0
H108 H 0.53847 0.25554 0.1012 0.0
H109 H 0.54395 0.2686 0.17286 0.0
H110 H 0.49879 0.21996 0.07792 0.0
H111 H 0.48032 0.17482 0.21305 0.0
H112 H 0.53257 0.24325 0.24712 0.0
C113 C 0.50849 0.26687 0.0668 0.0
C114 C 0.49646 0.27763 0.0527 0.0
C115 C 0.51711 0.26894 0.12411 0.0
C116 C 0.51513 0.28339 0.16569 0.0
C117 C 0.50394 0.29495 0.15086 0.0
C118 C 0.49323 0.29041 0.09576 0.0
C119 C 0.5304 0.2577 0.13964 0.0
C120 C 0.51578 0.2348 0.16151 0.0
C121 C 0.50013 0.21706 0.12288 0.0
C122 C 0.48771 0.19526 0.14102 0.0
C123 C 0.48994 0.19167 0.19899 0.0
C124 C 0.50646 0.20854 0.23703 0.0
C125 C 0.51936 0.23024 0.21833 0.0
C126 C 0.98552 0.43531 0.72836 0.0
C127 C 0.05278 0.47913 0.67731 0.0
C128 C 0.03416 0.54539 0.69793 0.0
Mg129 Mg 0.00641 0.45436 0.61333 0.0
O130 O 1.00068 0.47699 0.64148 0.0
Mg131 Mg 0.01384 0.49191 0.72014 0.0
Mg132 Mg 0.01079 0.50417 0.59761 0.0
O133 O 0.02087 0.53132 0.55338 0.0
Mg134 Mg 0.01521 0.55417 0.57984 0.0
Mg135 Mg 0.0077 0.51623 0.47479 0.0
C136 C 0.98616 0.46268 0.49715 0.0
C137 C 0.04799 0.50675 0.50917 0.0
O138 O 0.99437 0.4555 0.75209 0.0
O139 O 0.98771 0.43115 0.67537 0.0
O140 O 0.04485 0.48841 0.71049 0.0
O141 O 0.04129 0.46591 0.63357 0.0
O142 O 0.99152 0.45019 0.52537 0.0
O143 O 0.99053 0.48221 0.51797 0.0
C144 C 0.97366 0.50172 0.6864 0.0
O145 O 0.98084 0.50626 0.63563 0.0
O146 O 0.98316 0.49576 0.72422 0.0
O147 O 0.02789 0.5524 0.44253 0.0
O148 O 0.03443 0.57732 0.51764 0.0
O149 O 0.97665 0.51967 0.48377 0.0
C150 C 0.037 0.57274 0.46526 0.0
O151 O 0.98035 0.54227 0.56049 0.0
O152 O 0.02893 0.5577 0.66851 0.0
C153 C 0.96871 0.52883 0.51732 0.0
O154 O 0.03079 0.52616 0.67739 0.0
O155 O 0.04095 0.50224 0.56007 0.0
O156 O 0.03814 0.51229 0.47132 0.0
C157 C 0.4612 0.02225 0.77105 0.0
C158 C 0.44657 0.95846 0.69043 0.0
C159 C 0.53158 0.98476 0.71839 0.0
Mg160 Mg 0.46447 0.0054 0.64695 0.0
O161 O 0.49329 0.01535 0.68045 0.0
Mg162 Mg 0.49564 1.00117 0.7516 0.0
Mg163 Mg 0.51298 0.00928 0.63199 0.0
O164 O 0.53232 0.00289 0.58317 0.0
Mg165 Mg 0.56071 0.01002 0.61365 0.0
Mg166 Mg 0.53014 0.0171 0.51203 0.0
C167 C 0.49418 0.03318 0.54506 0.0
C168 C 0.48155 0.9735 0.52598 0.0
O169 O 0.47501 0.0165 0.79153 0.0
O170 O 0.45518 0.01956 0.71719 0.0
O171 O 0.46316 0.96815 0.72754 0.0
O172 O 0.44409 0.96907 0.64978 0.0
O173 O 0.47538 0.02402 0.56867 0.0
O174 O 0.51051 0.03081 0.56375 0.0
C175 C 0.54401 0.04553 0.73801 0.0
O176 O 0.54221 0.03972 0.68391 0.0
O177 O 0.52862 0.03396 0.77134 0.0
O178 O 0.54896 1.00013 0.46979 0.0
O179 O 0.5672 0.99388 0.54206 0.0
O180 O 0.56357 0.04934 0.53635 0.0
C181 C 0.56116 0.99217 0.4885 0.0
O182 O 0.58283 0.04576 0.6099 0.0
O183 O 0.54998 0.99244 0.69322 0.0
C184 C 0.5806 0.05752 0.57214 0.0
O185 O 0.51583 0.9881 0.70028 0.0
O186 O 0.48367 0.9788 0.58042 0.0
O187 O 0.49675 0.98527 0.49252 0.0
C188 C 0.54774 0.57187 0.47317 0.0
C189 C 0.57485 0.52842 0.51025 0.0
C190 C 0.49008 0.46177 0.50419 0.0
Mg191 Mg 0.5556 0.55264 0.58451 0.0
O192 O 0.52647 0.53002 0.5606 0.0
Mg193 Mg 0.52122 0.51521 0.48097 0.0
Mg194 Mg 0.51123 0.50277 0.60493 0.0
O195 O 0.49608 0.47549 0.64904 0.0
Mg196 Mg 0.46694 0.45267 0.62566 0.0
Mg197 Mg 0.50179 0.49003 0.72903 0.0
C198 C 0.5322 0.54399 0.70591 0.0
C199 C 0.54909 0.49906 0.68295 0.0
O200 O 0.53599 0.5517 0.44947 0.0
O201 O 0.55627 0.57598 0.52516 0.0
O202 O 0.55601 0.51854 0.48141 0.0
O203 O 0.57848 0.5418 0.5547 0.0
O204 O 0.54852 0.5563 0.67524 0.0
O205 O 0.51635 0.52449 0.68655 0.0
C206 C 0.47346 0.50598 0.52487 0.0
O207 O 0.47823 0.50138 0.57445 0.0
O208 O 0.48704 0.51165 0.48472 0.0
O209 O 0.4878 0.45344 0.75905 0.0
O210 O 0.46667 0.42921 0.68421 0.0
O211 O 0.46695 0.48657 0.72977 0.0
C212 C 0.47595 0.43327 0.73537 0.0
O213 O 0.44439 0.46379 0.65595 0.0
O214 O 0.47368 0.44932 0.53443 0.0
C215 C 0.44814 0.47702 0.70078 0.0
O216 O 0.50612 0.48103 0.52411 0.0
O217 O 0.54411 0.50397 0.63415 0.0
O218 O 0.53589 0.49349 0.72388 0.0
H219 H 0.17278 0.45807 0.2113 0.0
H220 H 0.14747 0.45733 0.2833 0.0
H221 H 0.19327 0.52697 0.33651 0.0
H222 H 0.21889 0.52762 0.26533 0.0
H223 H 0.17046 0.50134 0.42936 0.0
H224 H 0.11256 0.48867 0.24202 0.0
H225 H 0.12026 0.46737 0.2453 0.0
H226 H 0.14101 0.49576 0.23392 0.0
C227 C 0.17769 0.47305 0.23938 0.0
C228 C 0.19772 0.49296 0.23239 0.0
C229 C 0.16318 0.47265 0.28032 0.0
C230 C 0.16822 0.49224 0.3144 0.0
C231 C 0.18898 0.51166 0.31058 0.0
H232 H 0.07654 0.53157 0.43106 0.0
H233 H 0.10663 0.52775 0.39161 0.0
C234 C 0.20365 0.51201 0.26999 0.0
C235 C 0.15093 0.49321 0.34881 0.0
H236 H 0.10001 0.48942 0.33423 0.0
C237 C 0.15499 0.49864 0.40873 0.0
C238 C 0.13085 0.48996 0.32173 0.0
C239 C 0.12591 0.48532 0.25718 0.0
C240 C 0.13955 0.50098 0.44213 0.0
C241 C 0.11947 0.49762 0.41489 0.0
C242 C 0.11535 0.4919 0.35519 0.0
C243 C 0.10307 0.50157 0.44571 0.0
C244 C 0.14513 0.50775 0.5058 0.0
C245 C 0.09129 0.48852 0.49061 0.0
C246 C 0.07399 0.49081 0.51379 0.0
C247 C 0.06804 0.50596 0.49189 0.0
C248 C 0.08049 0.51954 0.44859 0.0
C249 C 0.09777 0.51741 0.42597 0.0
H250 H 0.163 0.5141 0.51786 0.0
H251 H 0.14102 0.52095 0.5189 0.0
H252 H 0.13508 0.49293 0.5305 0.0
H253 H 0.0948 0.47591 0.50602 0.0
H254 H 0.0646 0.47996 0.54652 0.0
H255 H 0.69882 0.20221 0.2404 0.0
H256 H 0.67651 0.18609 0.32266 0.0
H257 H 0.72344 0.16682 0.38454 0.0
H258 H 0.74589 0.18298 0.30221 0.0
H259 H 0.65885 0.13986 0.33187 0.0
H260 H 0.70677 0.18843 0.53486 0.0
H261 H 0.71264 0.20007 0.46527 0.0
H262 H 0.72163 0.18078 0.4851 0.0
C263 C 0.70467 0.19504 0.27235 0.0
C264 C 0.72398 0.19367 0.26466 0.0
C265 C 0.69197 0.18593 0.31942 0.0
C266 C 0.69836 0.17535 0.35988 0.0
C267 C 0.71842 0.17528 0.35448 0.0
H268 H 0.62513 0.07325 0.59258 0.0
H269 H 0.65517 0.10531 0.54922 0.0
C270 C 0.73121 0.18448 0.30734 0.0
C271 C 0.68226 0.16127 0.40129 0.0
H272 H 0.67389 0.15336 0.54443 0.0
C273 C 0.66206 0.14297 0.37835 0.0
C274 C 0.68667 0.16515 0.46184 0.0
C275 C 0.70803 0.18476 0.4885 0.0
C276 C 0.6462 0.12826 0.41408 0.0
C277 C 0.65036 0.13228 0.47475 0.0
C278 C 0.67065 0.1505 0.49796 0.0
C279 C 0.63386 0.117 0.51371 0.0
C280 C 0.6254 0.10812 0.38628 0.0
C281 C 0.61226 0.11388 0.51136 0.0
C282 C 0.59507 0.09545 0.53528 0.0
C283 C 0.59929 0.08009 0.56297 0.0
C284 C 0.62139 0.08479 0.57143 0.0
C285 C 0.63857 0.10309 0.54659 0.0
H286 H 0.62736 0.10446 0.34044 0.0
H287 H 0.62092 0.09291 0.40979 0.0
H288 H 0.61137 0.11153 0.38736 0.0
H289 H 0.60838 0.12472 0.48719 0.0
H290 H 0.57823 0.09241 0.52878 0.0
H291 H 0.52192 0.71972 0.21375 0.0
H292 H 0.52523 0.69758 0.28898 0.0
H293 H 0.58667 0.70769 0.22266 0.0
H294 H 0.58386 0.73072 0.14985 0.0
H295 H 0.5219 0.65931 0.26347 0.0
H296 H 0.60229 0.71021 0.38893 0.0
H297 H 0.59058 0.72268 0.34311 0.0
H298 H 0.60638 0.71071 0.31324 0.0
C299 C 0.53673 0.71825 0.21765 0.0
C300 C 0.5529 0.72729 0.17711 0.0
C301 C 0.5385 0.70535 0.26005 0.0
C302 C 0.55626 0.70095 0.26188 0.0
C303 C 0.57315 0.71126 0.22353 0.0
H304 H 0.54085 0.57318 0.35657 0.0
H305 H 0.54363 0.60483 0.30597 0.0
C306 C 0.57158 0.7245 0.18188 0.0
C307 C 0.55533 0.68301 0.29717 0.0
H308 H 0.58641 0.66989 0.38726 0.0
C309 C 0.53593 0.66179 0.29124 0.0
C310 C 0.57351 0.6861 0.33371 0.0
C311 C 0.59425 0.70874 0.34558 0.0
C312 C 0.53433 0.64355 0.3197 0.0
C313 C 0.553 0.64627 0.35338 0.0
C314 C 0.57223 0.66762 0.36055 0.0
C315 C 0.55265 0.62738 0.38302 0.0
C316 C 0.51247 0.62169 0.31404 0.0
C317 C 0.55787 0.62981 0.44269 0.0
C318 C 0.55683 0.61196 0.47141 0.0
C319 C 0.55035 0.59115 0.44122 0.0
C320 C 0.54564 0.58888 0.3812 0.0
C321 C 0.54705 0.60692 0.3523 0.0
H322 H 0.49835 0.62441 0.30265 0.0
H323 H 0.51299 0.61044 0.27899 0.0
H324 H 0.50913 0.61303 0.35467 0.0
H325 H 0.56233 0.64541 0.46739 0.0
H326 H 0.56053 0.61434 0.51769 0.0
H327 H 0.79945 0.51578 0.2283 0.0
H328 H 0.81597 0.51436 0.32233 0.0
H329 H 0.88019 0.54185 0.25107 0.0
H330 H 0.86411 0.54376 0.15847 0.0
H331 H 0.8393 0.49134 0.34854 0.0
H332 H 0.89284 0.58266 0.39843 0.0
H333 H 0.86938 0.57088 0.34578 0.0
H334 H 0.89591 0.5748 0.32609 0.0
C335 C 0.81711 0.52162 0.23304 0.0
C336 C 0.83046 0.52972 0.18593 0.0
C337 C 0.82648 0.52078 0.28659 0.0
C338 C 0.84936 0.52839 0.29382 0.0
C339 C 0.86258 0.53632 0.24673 0.0
H340 H 0.93922 0.50014 0.43127 0.0
H341 H 0.9049 0.49787 0.39609 0.0
C342 C 0.85329 0.53709 0.19354 0.0
C343 C 0.85979 0.52734 0.34923 0.0
H344 H 0.90683 0.55918 0.4364 0.0
C345 C 0.85369 0.50621 0.36906 0.0
C346 C 0.8781 0.54678 0.37726 0.0
C347 C 0.88427 0.57007 0.36116 0.0
C348 C 0.86701 0.50384 0.41177 0.0
C349 C 0.88711 0.523 0.43385 0.0
C350 C 0.89168 0.54436 0.41886 0.0
C351 C 0.90538 0.52115 0.46323 0.0
C352 C 0.85993 0.48068 0.4307 0.0
C353 C 0.9173 0.535 0.51299 0.0
C354 C 0.9374 0.5367 0.5328 0.0
C355 C 0.94596 0.52466 0.50287 0.0
C356 C 0.93326 0.50978 0.45527 0.0
C357 C 0.91333 0.50819 0.43547 0.0
H358 H 0.84152 0.47065 0.43138 0.0
H359 H 0.86509 0.47174 0.39927 0.0
H360 H 0.86746 0.4814 0.47421 0.0
H361 H 0.91158 0.54528 0.53491 0.0
H362 H 0.9467 0.54822 0.56981 0.0
H363 H 0.32224 0.84661 0.18313 0.0
H364 H 0.34669 0.8712 0.26498 0.0
H365 H 0.34953 0.8153 0.3325 0.0
H366 H 0.32584 0.79078 0.2497 0.0
H367 H 0.34703 0.8713 0.38839 0.0
H368 H 0.41413 0.85949 0.29755 0.0
H369 H 0.38801 0.85048 0.25759 0.0
H370 H 0.38954 0.83437 0.31432 0.0
C371 C 0.32789 0.83949 0.21568 0.0
C372 C 0.32238 0.81682 0.20932 0.0
C373 C 0.34169 0.85352 0.26269 0.0
C374 C 0.35019 0.84512 0.30421 0.0
C375 C 0.34335 0.82214 0.30045 0.0
H376 H 0.44922 0.93822 0.58037 0.0
H377 H 0.41561 0.90526 0.53512 0.0
C378 C 0.32965 0.80811 0.25329 0.0
C379 C 0.36814 0.86097 0.347 0.0
H380 H 0.4241 0.88517 0.37795 0.0
C381 C 0.36383 0.87414 0.38688 0.0
C382 C 0.39007 0.86472 0.3444 0.0
C383 C 0.39588 0.85168 0.30098 0.0
C384 C 0.38108 0.89147 0.42305 0.0
C385 C 0.40305 0.89557 0.41911 0.0
C386 C 0.40716 0.88184 0.38091 0.0
C387 C 0.42246 0.91572 0.44828 0.0
C388 C 0.37598 0.90604 0.46304 0.0
C389 C 0.43737 0.93236 0.41444 0.0
C390 C 0.4564 0.95108 0.43998 0.0
C391 C 0.46099 0.95361 0.50008 0.0
C392 C 0.44595 0.93696 0.53414 0.0
C393 C 0.42678 0.91812 0.50838 0.0
H394 H 0.35842 0.90206 0.45672 0.0
H395 H 0.3791 0.90353 0.50846 0.0
H396 H 0.38711 0.92406 0.45614 0.0
H397 H 0.43431 0.93078 0.36797 0.0
H398 H 0.46752 0.9636 0.4124 0.0
H399 H 0.50335 0.29893 0.26998 0.0
H400 H 0.50436 0.3301 0.32882 0.0
H401 H 0.50761 0.36393 0.17471 0.0
H402 H 0.50924 0.33466 0.11747 0.0
H403 H 0.53225 0.39318 0.25079 0.0
H404 H 0.45309 0.33888 0.35021 0.0
H405 H 0.47427 0.3321 0.36826 0.0
H406 H 0.46343 0.32809 0.29445 0.0
C407 C 0.5046 0.31318 0.24894 0.0
C408 C 0.5054 0.31381 0.18868 0.0
C409 C 0.50481 0.33083 0.28247 0.0
C410 C 0.50526 0.34906 0.25606 0.0
C411 C 0.50697 0.35002 0.19631 0.0
H412 H 0.4583 0.43143 0.4242 0.0
H413 H 0.46289 0.40628 0.3549 0.0
C414 C 0.50746 0.33292 0.16333 0.0
C415 C 0.50379 0.36724 0.28933 0.0
H416 H 0.47244 0.37733 0.38297 0.0
C417 C 0.51904 0.38967 0.27941 0.0
C418 C 0.48635 0.36276 0.32586 0.0
C419 C 0.46823 0.33917 0.33489 0.0
C420 C 0.51715 0.40764 0.30399 0.0
C421 C 0.50035 0.40322 0.34263 0.0
C422 C 0.4853 0.38082 0.35322 0.0
C423 C 0.49842 0.42138 0.37453 0.0
C424 C 0.53272 0.43097 0.28632 0.0
C425 C 0.51699 0.43903 0.40626 0.0
C426 C 0.51451 0.45398 0.44371 0.0
C427 C 0.49326 0.45097 0.45206 0.0
C428 C 0.47485 0.43414 0.4182 0.0
C429 C 0.47747 0.41965 0.37913 0.0
H430 H 0.53786 0.43036 0.2418 0.0
H431 H 0.52497 0.44174 0.28806 0.0
H432 H 0.54804 0.43892 0.31562 0.0
H433 H 0.5332 0.44042 0.40519 0.0
H434 H 0.52894 0.46654 0.47014 0.0
H435 H 0.49949 0.81688 0.01221 0.0
H436 H 0.49026 0.84103 0.95754 0.0
H437 H 0.54555 0.85677 0.85259 0.0
H438 H 0.55475 0.83254 0.90711 0.0
H439 H 0.522 0.88646 0.96408 0.0
H440 H 0.49778 0.85283 0.73556 0.0
H441 H 0.49631 0.83547 0.79312 0.0
H442 H 0.52251 0.85344 0.76371 0.0
C443 C 0.50902 0.82468 0.9757 0.0
C444 C 0.52781 0.82285 0.96378 0.0
C445 C 0.50383 0.83859 0.94478 0.0
C446 C 0.51724 0.85077 0.90112 0.0
C447 C 0.53476 0.84729 0.88552 0.0
H448 H 0.56178 0.9809 0.78789 0.0
H449 H 0.55527 0.94791 0.83818 0.0
C450 C 0.53996 0.83333 0.9165 0.0
C451 C 0.5153 0.86967 0.87895 0.0
H452 H 0.50962 0.8919 0.75562 0.0
C453 C 0.51893 0.88747 0.91857 0.0
C454 C 0.51129 0.87099 0.81966 0.0
C455 C 0.50654 0.85208 0.77553 0.0
C456 C 0.51956 0.90692 0.9002 0.0
C457 C 0.51652 0.90864 0.84076 0.0
C458 C 0.51198 0.89051 0.80127 0.0
C459 C 0.51968 0.92975 0.81823 0.0
C460 C 0.52392 0.92573 0.94425 0.0
C461 C 0.50171 0.93073 0.79205 0.0
C462 C 0.50534 0.94974 0.76406 0.0
C463 C 0.52707 0.96786 0.76084 0.0
C464 C 0.54486 0.96727 0.78985 0.0
C465 C 0.54117 0.94841 0.81844 0.0
H466 H 0.5214 0.92008 0.98874 0.0
H467 H 0.54138 0.93951 0.94284 0.0
H468 H 0.51286 0.93268 0.9343 0.0
H469 H 0.48501 0.91645 0.79138 0.0
H470 H 0.49135 0.94951 0.74134 0.0
H471 H 0.73954 0.55101 0.92203 0.0
H472 H 0.71488 0.54529 0.83774 0.0
H473 H 0.66285 0.48567 0.90532 0.0
H474 H 0.68782 0.49044 0.98795 0.0
H475 H 0.66219 0.48133 0.78724 0.0
H476 H 0.66767 0.5624 0.86088 0.0
H477 H 0.69345 0.56413 0.84345 0.0
H478 H 0.67932 0.54922 0.90409 0.0
C479 C 0.7231 0.53626 0.91819 0.0
C480 C 0.71554 0.52138 0.96243 0.0
C481 C 0.70892 0.5332 0.87023 0.0
C482 C 0.68683 0.51545 0.86612 0.0
C483 C 0.67978 0.49964 0.9079 0.0
H484 H 0.55728 0.47341 0.7534 0.0
H485 H 0.59312 0.47705 0.78158 0.0
C486 C 0.69401 0.50252 0.95545 0.0
C487 C 0.67031 0.51435 0.822 0.0
H488 H 0.64191 0.54107 0.78435 0.0
C489 C 0.658 0.49455 0.78589 0.0
C490 C 0.66487 0.53166 0.82016 0.0
C491 C 0.67685 0.55299 0.85942 0.0
C492 C 0.63973 0.49115 0.75011 0.0
C493 C 0.6336 0.50793 0.75077 0.0
C494 C 0.64677 0.5283 0.78384 0.0
C495 C 0.61181 0.50346 0.72547 0.0
C496 C 0.62663 0.46933 0.71342 0.0
C497 C 0.6104 0.51708 0.68436 0.0
C498 C 0.58981 0.515 0.66806 0.0
C499 C 0.57047 0.49961 0.69354 0.0
C500 C 0.57191 0.48552 0.73322 0.0
C501 C 0.59236 0.4874 0.7489 0.0
H502 H 0.63703 0.46163 0.7034 0.0
H503 H 0.61247 0.45731 0.73734 0.0
H504 H 0.61983 0.47188 0.67235 0.0
H505 H 0.62531 0.52981 0.66642 0.0
H506 H 0.58924 0.52623 0.63805 0.0
H507 H 0.21637 0.68217 0.9859 0.0
H508 H 0.1872 0.6518 0.92158 0.0
H509 H 0.14728 0.68373 0.93416 0.0
H510 H 0.17656 0.71433 0.99744 0.0
H511 H 0.1454 0.62455 0.96172 0.0
H512 H 0.13828 0.66274 0.76351 0.0
H513 H 0.16269 0.67612 0.81303 0.0
H514 H 0.13846 0.67811 0.82836 0.0
C515 C 0.20181 0.68323 0.97281 0.0
C516 C 0.1987 0.7006 0.99652 0.0
C517 C 0.18507 0.66574 0.93665 0.0
C518 C 0.16511 0.66553 0.92321 0.0
C519 C 0.16268 0.68372 0.94334 0.0
H520 H 0.03472 0.57764 0.77136 0.0
H521 H 0.06644 0.60465 0.83532 0.0
C522 C 0.17938 0.70118 0.97952 0.0
C523 C 0.14582 0.6452 0.89434 0.0
H524 H 0.10691 0.62737 0.78155 0.0
C525 C 0.13711 0.62503 0.92189 0.0
C526 C 0.13506 0.64596 0.84261 0.0
C527 C 0.14422 0.66684 0.80983 0.0
C528 C 0.11737 0.60578 0.9001 0.0
C529 C 0.10628 0.60679 0.84936 0.0
C530 C 0.11534 0.62677 0.82101 0.0
C531 C 0.08521 0.58747 0.82413 0.0
C532 C 0.10814 0.58479 0.93239 0.0
C533 C 0.08473 0.56814 0.79971 0.0
C534 C 0.06645 0.55248 0.76361 0.0
C535 C 0.04869 0.55627 0.75086 0.0
C536 C 0.04826 0.5744 0.7802 0.0
C537 C 0.0664 0.58989 0.8165 0.0
H538 H 0.11599 0.58822 0.9769 0.0
H539 H 0.08986 0.57712 0.93474 0.0
H540 H 0.11137 0.57232 0.90907 0.0
H541 H 0.09917 0.56608 0.80465 0.0
H542 H 0.06731 0.53876 0.74123 0.0
H543 H 0.45984 0.18919 0.04547 0.0
H544 H 0.44166 0.15601 0.97531 0.0
H545 H 0.47123 0.12425 0.07145 0.0
H546 H 0.48956 0.15684 0.13947 0.0
H547 H 0.46418 0.13892 0.90947 0.0
H548 H 0.40655 0.07393 0.04519 0.0
H549 H 0.41759 0.10363 0.06324 0.0
H550 H 0.43346 0.09035 0.08237 0.0
C551 C 0.4622 0.17497 0.05167 0.0
C552 C 0.47566 0.17542 0.09887 0.0
C553 C 0.45172 0.15605 0.01197 0.0
C554 C 0.45449 0.13739 0.01952 0.0
C555 C 0.46809 0.13803 0.06616 0.0
H556 H 0.47516 0.03854 0.88379 0.0
H557 H 0.46674 0.06413 0.93998 0.0
C558 C 0.47859 0.15677 0.10512 0.0
C559 C 0.44567 0.11804 0.97615 0.0
H560 H 0.42281 0.06104 0.97042 0.0
C561 C 0.45439 0.12181 0.92168 0.0
C562 C 0.43288 0.09577 0.99234 0.0
C563 C 0.4219 0.09069 0.04883 0.0
C564 C 0.4527 0.10402 0.88552 0.0
C565 C 0.44184 0.08203 0.90446 0.0
C566 C 0.43136 0.078 0.95651 0.0
C567 C 0.44375 0.06377 0.87418 0.0
C568 C 0.46411 0.10906 0.82957 0.0
C569 C 0.43292 0.05454 0.81972 0.0
C570 C 0.43767 0.03994 0.78756 0.0
C571 C 0.45339 0.03438 0.80934 0.0
C572 C 0.46306 0.04252 0.86564 0.0
C573 C 0.45826 0.05712 0.89779 0.0
H574 H 0.47342 0.12736 0.82355 0.0
H575 H 0.47588 0.10253 0.82817 0.0
H576 H 0.45152 0.10049 0.79283 0.0
H577 H 0.42151 0.05935 0.80118 0.0
H578 H 0.42967 0.03377 0.74461 0.0
H579 H 0.28647 0.48151 0.97268 0.0
H580 H 0.30634 0.47843 0.8899 0.0
H581 H 0.36372 0.49588 0.00375 0.0
H582 H 0.34453 0.49962 0.08575 0.0
H583 H 0.35883 0.5174 0.86587 0.0
H584 H 0.33846 0.42977 0.90011 0.0
H585 H 0.32014 0.44039 0.91904 0.0
H586 H 0.34513 0.44891 0.96306 0.0
C587 C 0.30338 0.48485 0.97995 0.0
C588 C 0.31371 0.49043 0.03617 0.0
C589 C 0.31466 0.48303 0.93269 0.0
C590 C 0.33641 0.48675 0.94096 0.0
C591 C 0.34687 0.49273 0.9966 0.0
H592 H 0.45205 0.50908 0.78198 0.0
H593 H 0.42237 0.51142 0.82914 0.0
C594 C 0.33573 0.49465 0.04354 0.0
C595 C 0.34851 0.48424 0.89232 0.0
H596 H 0.36719 0.44998 0.83814 0.0
C597 C 0.36035 0.50251 0.85889 0.0
C598 C 0.35041 0.4648 0.8833 0.0
C599 C 0.33781 0.44471 0.91792 0.0
C600 C 0.37488 0.50221 0.81846 0.0
C601 C 0.3778 0.48326 0.81187 0.0
C602 C 0.365 0.46452 0.84314 0.0
C603 C 0.39558 0.48334 0.77755 0.0
C604 C 0.38736 0.52238 0.78405 0.0
C605 C 0.3905 0.46681 0.73245 0.0
C606 C 0.40756 0.46543 0.70505 0.0
C607 C 0.43002 0.48031 0.72307 0.0
C608 C 0.43498 0.4973 0.76695 0.0
C609 C 0.41799 0.49877 0.79383 0.0
H610 H 0.37844 0.53199 0.78025 0.0
H611 H 0.40395 0.53377 0.80631 0.0
H612 H 0.38986 0.51733 0.74007 0.0
H613 H 0.37333 0.45463 0.71941 0.0
H614 H 0.40312 0.45212 0.67156 0.0
H615 H 0.85905 0.27513 0.04308 0.0
H616 H 0.88762 0.29872 0.97928 0.0
H617 H 0.84213 0.31686 0.90057 0.0
H618 H 0.81393 0.29409 0.96647 0.0
H619 H 0.89499 0.30523 0.86746 0.0
H620 H 0.89024 0.37659 0.97323 0.0
H621 H 0.87538 0.34858 0.99709 0.0
H622 H 0.86438 0.35609 0.93618 0.0
C623 C 0.85491 0.28345 0.01051 0.0
C624 C 0.83438 0.28283 0.00931 0.0
C625 C 0.87128 0.29708 0.97442 0.0
C626 C 0.86724 0.31013 0.9365 0.0
C627 C 0.84582 0.30746 0.93076 0.0
H628 H 0.95446 0.39313 0.68535 0.0
H629 H 0.92743 0.36249 0.73759 0.0
C630 C 0.8296 0.29418 0.96761 0.0
C631 C 0.88597 0.32817 0.90793 0.0
H632 H 0.91324 0.38476 0.89453 0.0
C633 C 0.89903 0.32263 0.8734 0.0
C634 C 0.89176 0.35101 0.91741 0.0
C635 C 0.87987 0.35849 0.9585 0.0
C636 C 0.91729 0.33922 0.84674 0.0
C637 C 0.92218 0.36187 0.85327 0.0
C638 C 0.90943 0.36742 0.88898 0.0
C639 C 0.93985 0.38003 0.82216 0.0
C640 C 0.9314 0.33231 0.81296 0.0
C641 C 0.95562 0.40048 0.85196 0.0
C642 C 0.97085 0.41838 0.82189 0.0
C643 C 0.97073 0.41608 0.76147 0.0
C644 C 0.95526 0.39542 0.73197 0.0
C645 C 0.93984 0.37773 0.76189 0.0
H646 H 0.93069 0.31704 0.82925 0.0
H647 H 0.92492 0.32818 0.76711 0.0
H648 H 0.94905 0.34594 0.81508 0.0
H649 H 0.95589 0.40273 0.89849 0.0
H650 H 0.98253 0.43407 0.84586 0.0
H651 H 0.82663 0.49351 0.99461 0.0
H652 H 0.84889 0.48986 0.92028 0.0
H653 H 0.86183 0.55315 0.85862 0.0
H654 H 0.8404 0.55745 0.93496 0.0
H655 H 0.84792 0.48808 0.80405 0.0
H656 H 0.92428 0.56545 0.89406 0.0
H657 H 0.89891 0.55294 0.93111 0.0
H658 H 0.90171 0.56963 0.87138 0.0
C659 C 0.83414 0.50666 0.96517 0.0
C660 C 0.83202 0.52598 0.9716 0.0
C661 C 0.84679 0.50448 0.92236 0.0
C662 C 0.85759 0.5215 0.88463 0.0
C663 C 0.8542 0.54006 0.88816 0.0
H664 H 0.96019 0.5312 0.65245 0.0
H665 H 0.93015 0.53621 0.69031 0.0
C666 C 0.84163 0.54234 0.93137 0.0
C667 C 0.8732 0.52008 0.8441 0.0
H668 H 0.92811 0.54554 0.81451 0.0
C669 C 0.86541 0.50078 0.80599 0.0
C670 C 0.8961 0.53661 0.84647 0.0
C671 C 0.90586 0.55724 0.88823 0.0
C672 C 0.87989 0.49732 0.77152 0.0
C673 C 0.90282 0.5135 0.7753 0.0
C674 C 0.91049 0.53322 0.81145 0.0
C675 C 0.91946 0.5092 0.7472 0.0
C676 C 0.87066 0.47617 0.73201 0.0
C677 C 0.92336 0.49233 0.76625 0.0
C678 C 0.94049 0.48954 0.74485 0.0
C679 C 0.95408 0.50345 0.70351 0.0
C680 C 0.94976 0.51993 0.68317 0.0
C681 C 0.93271 0.52292 0.70519 0.0
H682 H 0.85242 0.46847 0.72253 0.0
H683 H 0.87896 0.47965 0.69069 0.0
H684 H 0.87375 0.46375 0.75312 0.0
H685 H 0.9136 0.48177 0.79924 0.0
H686 H 0.94338 0.4767 0.76156 0.0
H687 H 0.28763 0.79903 0.94865 0.0
H688 H 0.30431 0.81874 0.86207 0.0
H689 H 0.3698 0.84128 0.94089 0.0
H690 H 0.35335 0.82194 0.02689 0.0
H691 H 0.33655 0.86743 0.86589 0.0
H692 H 0.37059 0.81576 0.7744 0.0
H693 H 0.34803 0.80504 0.8221 0.0
H694 H 0.37633 0.82222 0.85101 0.0
C695 C 0.30556 0.80794 0.94689 0.0
C696 C 0.31923 0.80908 0.99445 0.0
C697 C 0.31505 0.81919 0.89762 0.0
C698 C 0.33829 0.83125 0.89483 0.0
C699 C 0.35184 0.83181 0.94173 0.0
H700 H 0.45011 0.92941 0.75942 0.0
H701 H 0.42013 0.89542 0.79374 0.0
C702 C 0.34244 0.8209 0.991 0.0
C703 C 0.34885 0.8449 0.84556 0.0
H704 H 0.38784 0.85406 0.74854 0.0
C705 C 0.34733 0.86428 0.83896 0.0
C706 C 0.36286 0.84069 0.81063 0.0
C707 C 0.36444 0.81968 0.81439 0.0
C708 C 0.3609 0.88055 0.80191 0.0
C709 C 0.37602 0.87702 0.76958 0.0
C710 C 0.37629 0.8568 0.77319 0.0
C711 C 0.39411 0.8955 0.74002 0.0
C712 C 0.36019 0.90214 0.80132 0.0
C713 C 0.38972 0.90638 0.69597 0.0
C714 C 0.40703 0.92613 0.67615 0.0
C715 C 0.42896 0.93522 0.70011 0.0
C716 C 0.43342 0.92313 0.7405 0.0
C717 C 0.41623 0.90357 0.76018 0.0
H718 H 0.35011 0.90361 0.83561 0.0
H719 H 0.37726 0.9169 0.80724 0.0
H720 H 0.35271 0.90275 0.75902 0.0
H721 H 0.37284 0.90014 0.67864 0.0
H722 H 0.40304 0.9349 0.64462 0.0
H723 H 0.52567 0.30063 0.97408 0.0
H724 H 0.51888 0.32223 0.9037 0.0
H725 H 0.4487 0.2849 0.92915 0.0
H726 H 0.45553 0.26353 0.00029 0.0
H727 H 0.48992 0.31717 0.80324 0.0
H728 H 0.4716 0.34948 0.0059 0.0
H729 H 0.48406 0.33186 0.0056 0.0
H730 H 0.4547 0.3197 0.98869 0.0
C731 C 0.50864 0.29605 0.96193 0.0
C732 C 0.49112 0.28049 0.99271 0.0
C733 C 0.50481 0.30862 0.92222 0.0
C734 C 0.48338 0.3056 0.91259 0.0
C735 C 0.46542 0.28773 0.93676 0.0
H736 H 0.44963 0.3883 0.70405 0.0
H737 H 0.45066 0.35697 0.74624 0.0
C738 C 0.46927 0.27526 0.97668 0.0
C739 C 0.48056 0.32339 0.88643 0.0
H740 H 0.46883 0.36519 0.92046 0.0
C741 C 0.48514 0.32757 0.8286 0.0
C742 C 0.47494 0.33735 0.92022 0.0
C743 C 0.47123 0.3346 0.98368 0.0
C744 C 0.48396 0.3452 0.8034 0.0
C745 C 0.47773 0.35877 0.8368 0.0
C746 C 0.47336 0.35466 0.89476 0.0
C747 C 0.47623 0.3777 0.81297 0.0
C748 C 0.49005 0.34955 0.74178 0.0
C749 C 0.48949 0.39973 0.83815 0.0
C750 C 0.48876 0.41774 0.81457 0.0
C751 C 0.4747 0.41407 0.7653 0.0
C752 C 0.4608 0.39184 0.74169 0.0
C753 C 0.4615 0.37387 0.76542 0.0
H754 H 0.49992 0.34173 0.72743 0.0
H755 H 0.4746 0.34224 0.71309 0.0
H756 H 0.49975 0.36787 0.73636 0.0
H757 H 0.50084 0.40307 0.87526 0.0
H758 H 0.49973 0.43459 0.83386 0.0
H759 H 0.21199 0.47216 0.97271 0.0
H760 H 0.19165 0.46854 0.88002 0.0
H761 H 0.16309 0.5056 0.95892 0.0
H762 H 0.183 0.50911 0.0508 0.0
H763 H 0.13916 0.45009 0.87064 0.0
H764 H 0.19355 0.53589 0.80175 0.0
H765 H 0.20376 0.52184 0.84707 0.0
H766 H 0.18851 0.53423 0.87729 0.0
C767 C 0.20138 0.47954 0.96995 0.0
C768 C 0.19884 0.49068 0.01899 0.0
C769 C 0.18984 0.47747 0.91722 0.0
C770 C 0.17605 0.48696 0.91282 0.0
C771 C 0.17377 0.4983 0.9615 0.0
H772 H 0.08306 0.50943 0.75956 0.0
H773 H 0.11606 0.51023 0.8009 0.0
C774 C 0.185 0.50011 0.01403 0.0
C775 C 0.16301 0.4845 0.85867 0.0
H776 H 0.15581 0.5165 0.76212 0.0
C777 C 0.143 0.46431 0.84544 0.0
C778 C 0.16818 0.50316 0.82636 0.0
C779 C 0.18976 0.52501 0.83835 0.0
C780 C 0.12705 0.46292 0.80407 0.0
C781 C 0.13154 0.48216 0.77457 0.0
C782 C 0.15238 0.50177 0.78463 0.0
C783 C 0.11357 0.48359 0.74198 0.0
C784 C 0.10481 0.44152 0.79604 0.0
C785 C 0.10167 0.46899 0.69328 0.0
C786 C 0.0825 0.46836 0.66951 0.0
C787 C 0.07505 0.48237 0.69413 0.0
C788 C 0.08807 0.49814 0.73998 0.0
C789 C 0.10707 0.49871 0.7636 0.0
H790 H 0.10303 0.42929 0.82792 0.0
H791 H 0.09105 0.44526 0.80015 0.0
H792 H 0.10294 0.43343 0.75218 0.0
H793 H 0.10669 0.45752 0.67508 0.0
H794 H 0.07299 0.45619 0.63378 0.0
H795 H 0.70163 0.14809 0.08503 0.0
H796 H 0.67444 0.12854 0.00326 0.0
H797 H 0.69871 0.19102 0.92261 0.0
H798 H 0.72632 0.21075 0.00479 0.0
H799 H 0.65051 0.16512 0.93748 0.0
H800 H 0.68232 0.11361 0.83186 0.0
H801 H 0.68239 0.11299 0.90904 0.0
H802 H 0.69992 0.13895 0.87747 0.0
C803 C 0.70138 0.15759 0.04943 0.0
C804 C 0.71596 0.18089 0.05106 0.0
C805 C 0.68596 0.1464 0.00266 0.0
C806 C 0.68473 0.1583 0.95671 0.0
C807 C 0.69957 0.18154 0.95752 0.0
H808 H 0.5803 0.07563 0.68278 0.0
H809 H 0.61567 0.10627 0.72699 0.0
C810 C 0.7153 0.19275 0.0042 0.0
C811 C 0.66651 0.14646 0.91107 0.0
H812 H 0.64321 0.10043 0.81452 0.0
C813 C 0.64911 0.15131 0.90953 0.0
C814 C 0.66481 0.12858 0.87443 0.0
C815 C 0.68345 0.1233 0.87273 0.0
C816 C 0.62934 0.13767 0.8753 0.0
C817 C 0.62697 0.11872 0.84214 0.0
C818 C 0.64501 0.11487 0.84039 0.0
C819 C 0.60521 0.10137 0.81426 0.0
C820 C 0.61082 0.14313 0.87646 0.0
C821 C 0.58768 0.08849 0.84865 0.0
C822 C 0.56766 0.07076 0.82366 0.0
C823 C 0.56472 0.06549 0.7636 0.0
C824 C 0.58213 0.0789 0.7291 0.0
C825 C 0.6023 0.09653 0.75426 0.0
H826 H 0.61723 0.16112 0.89017 0.0
H827 H 0.60178 0.13921 0.83339 0.0
H828 H 0.59879 0.13281 0.90775 0.0
H829 H 0.58972 0.09175 0.89515 0.0
H830 H 0.55467 0.06088 0.85173 0.0
H831 H 0.49291 0.67791 0.0288 0.0
H832 H 0.4853 0.6425 0.97788 0.0
H833 H 0.54008 0.67905 0.87189 0.0
H834 H 0.54817 0.71439 0.92328 0.0
H835 H 0.49687 0.63653 0.8178 0.0
H836 H 0.53798 0.6275 0.01693 0.0
H837 H 0.51586 0.63384 0.02408 0.0
H838 H 0.54183 0.6544 -0.00124 0.0
C839 C 0.50288 0.67844 0.99338 0.0
C840 C 0.52135 0.69892 0.98064 0.0
C841 C 0.49853 0.65822 0.96448 0.0
C842 C 0.51239 0.65825 0.922 0.0
C843 C 0.52925 0.67877 0.90477 0.0
H844 H 0.56322 0.58214 0.76896 0.0
H845 H 0.55538 0.60666 0.83138 0.0
C846 C 0.53373 0.69899 0.93388 0.0
C847 C 0.51154 0.63718 0.90124 0.0
H848 H 0.52991 0.60135 0.93811 0.0
C849 C 0.50366 0.62851 0.84427 0.0
C850 C 0.52068 0.62704 0.93604 0.0
C851 C 0.52969 0.6361 0.99735 0.0
C852 C 0.50524 0.61021 0.82053 0.0
C853 C 0.51495 0.60046 0.85485 0.0
C854 C 0.52229 0.60877 0.91231 0.0
C855 C 0.51995 0.58349 0.82927 0.0
C856 C 0.49754 0.60211 0.75808 0.0
C857 C 0.50279 0.56182 0.8107 0.0
C858 C 0.50725 0.54766 0.7754 0.0
C859 C 0.52889 0.55512 0.75771 0.0
C860 C 0.54636 0.57596 0.7814 0.0
C861 C 0.5419 0.59002 0.81698 0.0
H862 H 0.49267 0.61309 0.73574 0.0
H863 H 0.5109 0.6014 0.73471 0.0
H864 H 0.48295 0.58485 0.75558 0.0
H865 H 0.48577 0.55644 0.82036 0.0
H866 H 0.4934 0.53175 0.75791 0.0
H867 H 0.47991 0.18802 0.32392 0.0
H868 H 0.48354 0.1615 0.38361 0.0
H869 H 0.54912 0.18364 0.32573 0.0
H870 H 0.5455 0.21015 0.26562 0.0
H871 H 0.49486 0.12958 0.30586 0.0
H872 H 0.54753 0.16969 0.51005 0.0
H873 H 0.53029 0.18003 0.47978 0.0
H874 H 0.55452 0.18426 0.44467 0.0
C875 C 0.49558 0.18812 0.32647 0.0
C876 C 0.51244 0.20116 0.29027 0.0
C877 C 0.49756 0.17282 0.36013 0.0
C878 C 0.51652 0.17052 0.35868 0.0
C879 C 0.53442 0.18529 0.32771 0.0
H880 H 0.53406 0.06461 0.50608 0.0
H881 H 0.54116 0.09754 0.45452 0.0
C882 C 0.53243 0.20062 0.29387 0.0
C883 C 0.5157 0.15017 0.38003 0.0
H884 H 0.53199 0.13047 0.4927 0.0
C885 C 0.50306 0.12975 0.3466 0.0
C886 C 0.52673 0.15059 0.43251 0.0
C887 C 0.54058 0.17225 0.46925 0.0
C888 C 0.50072 0.10957 0.36491 0.0
C889 C 0.51087 0.10971 0.41885 0.0
C890 C 0.52416 0.13032 0.45142 0.0
C891 C 0.50654 0.08852 0.44407 0.0
C892 C 0.48742 0.08831 0.32611 0.0
C893 C 0.4847 0.07221 0.45418 0.0
C894 C 0.48057 0.0533 0.48314 0.0
C895 C 0.49822 0.05034 0.50334 0.0
C896 C 0.52004 0.06619 0.49081 0.0
C897 C 0.52416 0.08517 0.46177 0.0
H898 H 0.48736 0.09204 0.28016 0.0
H899 H 0.4941 0.0767 0.33019 0.0
H900 H 0.46991 0.07961 0.33828 0.0
H901 H 0.47085 0.07457 0.44192 0.0
H902 H 0.46357 0.04156 0.49215 0.0
H903 H 0.29505 0.45035 0.22543 0.0
H904 H 0.31641 0.44699 0.30649 0.0
H905 H 0.34242 0.51705 0.36014 0.0
H906 H 0.32039 0.52009 0.28096 0.0
H907 H 0.35867 0.46731 0.30953 0.0
H908 H 0.33818 0.49392 0.51462 0.0
H909 H 0.32038 0.48659 0.44941 0.0
H910 H 0.34376 0.51464 0.46404 0.0
C911 C 0.30466 0.46474 0.25601 0.0
C912 C 0.30607 0.48546 0.24711 0.0
C913 C 0.31689 0.46285 0.30226 0.0
C914 C 0.33099 0.48172 0.33994 0.0
C915 C 0.33125 0.50205 0.33303 0.0
H916 H 0.46344 0.52717 0.44377 0.0
H917 H 0.42668 0.51936 0.40837 0.0
C918 C 0.31872 0.50383 0.28742 0.0
C919 C 0.34833 0.48141 0.37872 0.0
H920 H 0.37664 0.50135 0.51097 0.0
C921 C 0.36214 0.4742 0.35405 0.0
C922 C 0.35296 0.49022 0.43712 0.0
C923 C 0.33783 0.49652 0.46788 0.0
C924 C 0.38116 0.47696 0.38457 0.0
C925 C 0.38692 0.48772 0.44085 0.0
C926 C 0.37239 0.4935 0.46732 0.0
C927 C 0.40899 0.49482 0.46966 0.0
C928 C 0.39547 0.4691 0.35538 0.0
C929 C 0.41125 0.48442 0.51786 0.0
C930 C 0.43242 0.48897 0.53857 0.0
C931 C 0.45147 0.50387 0.5111 0.0
C932 C 0.44909 0.51532 0.46536 0.0
C933 C 0.4281 0.51091 0.44508 0.0
H934 H 0.38585 0.45583 0.32016 0.0
H935 H 0.40934 0.48352 0.33613 0.0
H936 H 0.40274 0.46246 0.3868 0.0
H937 H 0.39665 0.47201 0.53756 0.0
H938 H 0.4337 0.47992 0.57374 0.0
H939 H 0.81617 0.3286 0.14663 0.0
H940 H 0.84124 0.36417 0.20247 0.0
H941 H 0.86099 0.32902 0.31774 0.0
H942 H 0.83633 0.29355 0.26187 0.0
H943 H 0.85822 0.36838 0.36967 0.0
H944 H 0.90881 0.38479 0.17771 0.0
H945 H 0.88035 0.37815 0.16614 0.0
H946 H 0.88633 0.35711 0.18947 0.0
C947 C 0.8253 0.32837 0.18507 0.0
C948 C 0.82454 0.30834 0.19938 0.0
C949 C 0.83963 0.34869 0.21673 0.0
C950 C 0.85324 0.34919 0.26334 0.0
C951 C 0.85064 0.32892 0.28167 0.0
H952 H 0.97944 0.42641 0.42776 0.0
H953 H 0.94675 0.40262 0.36258 0.0
C954 C 0.83638 0.30861 0.24993 0.0
C955 C 0.87237 0.37068 0.2877 0.0
H956 H 0.92533 0.40985 0.25976 0.0
C957 C 0.87274 0.37778 0.34545 0.0
C958 C 0.89134 0.38267 0.25585 0.0
C959 C 0.89192 0.37535 0.19394 0.0
C960 C 0.89192 0.39618 0.37291 0.0
C961 C 0.91113 0.4077 0.34158 0.0
C962 C 0.91048 0.40108 0.28328 0.0
C963 C 0.93275 0.4245 0.37097 0.0
C964 C 0.89198 0.40241 0.4361 0.0
C965 C 0.93627 0.44528 0.39448 0.0
C966 C 0.95509 0.45905 0.43143 0.0
C967 C 0.97049 0.45207 0.4457 0.0
C968 C 0.96783 0.43219 0.4179 0.0
C969 C 0.94914 0.41855 0.38071 0.0
H970 H 0.87654 0.3902 0.45563 0.0
H971 H 0.90649 0.40331 0.46039 0.0
H972 H 0.8935 0.41926 0.44124 0.0
H973 H 0.92388 0.45024 0.38686 0.0
H974 H 0.95657 0.47419 0.45234 0.0
H975 H 0.54251 0.8175 0.21434 0.0
H976 H 0.5488 0.84705 0.28901 0.0
H977 H 0.594 0.89752 0.18183 0.0
H978 H 0.58829 0.86808 0.10866 0.0
H979 H 0.60684 0.90998 0.29495 0.0
H980 H 0.51709 0.88161 0.25384 0.0
H981 H 0.52243 0.86061 0.28079 0.0
H982 H 0.53121 0.87064 0.21098 0.0
C983 C 0.55447 0.83486 0.20819 0.0
C984 C 0.56501 0.84069 0.15632 0.0
C985 C 0.55783 0.85172 0.25026 0.0
C986 C 0.57139 0.8745 0.24013 0.0
C987 C 0.58339 0.88009 0.19043 0.0
H988 H 0.55068 0.98251 0.37163 0.0
H989 H 0.55572 0.95581 0.3094 0.0
C990 C 0.58021 0.8633 0.14881 0.0
C991 C 0.5713 0.89258 0.2773 0.0
H992 H 0.53732 0.91205 0.3231 0.0
C993 C 0.59164 0.91041 0.30139 0.0
C994 C 0.55152 0.89344 0.28407 0.0
C995 C 0.52935 0.87569 0.25563 0.0
C996 C 0.59273 0.92899 0.33255 0.0
C997 C 0.57284 0.92944 0.34101 0.0
C998 C 0.55254 0.91166 0.31665 0.0
C999 C 0.57243 0.94773 0.37646 0.0
C1000 C 0.61522 0.94819 0.3547 0.0
C1001 C 0.58048 0.95232 0.43444 0.0
C1002 C 0.57785 0.9677 0.46983 0.0
C1003 C 0.56674 0.97856 0.4483 0.0
C1004 C 0.55931 0.97448 0.38964 0.0
C1005 C 0.56213 0.95918 0.35407 0.0
H1006 H 0.62869 0.94876 0.329 0.0
H1007 H 0.61579 0.9646 0.35367 0.0
H1008 H 0.61868 0.94583 0.39998 0.0
H1009 H 0.58798 0.94333 0.4531 0.0
H1010 H 0.58375 0.97031 0.5148 0.0
H1011 H 0.69338 0.49529 0.15575 0.0
H1012 H 0.67006 0.49422 0.23353 0.0
H1013 H 0.71822 0.56266 0.29116 0.0
H1014 H 0.74165 0.56399 0.21269 0.0
H1015 H 0.69513 0.52813 0.38357 0.0
H1016 H 0.63905 0.5343 0.21813 0.0
H1017 H 0.64679 0.51333 0.20208 0.0
H1018 H 0.66761 0.54256 0.20613 0.0
C1019 C 0.69919 0.51004 0.18541 0.0
C1020 C 0.71928 0.52982 0.17752 0.0
C1021 C 0.68586 0.50938 0.22994 0.0
C1022 C 0.69228 0.52843 0.26773 0.0
C1023 C 0.71297 0.54776 0.26246 0.0
H1024 H 0.61998 0.55589 0.53353 0.0
H1025 H 0.64972 0.55561 0.48012 0.0
C1026 C 0.72638 0.54846 0.21772 0.0
C1027 C 0.67637 0.52866 0.30874 0.0
H1028 H 0.62676 0.5277 0.31215 0.0
C1029 C 0.68022 0.52815 0.3682 0.0
C1030 C 0.65695 0.52871 0.28854 0.0
C1031 C 0.65231 0.52992 0.22531 0.0
C1032 C 0.66476 0.52701 0.4078 0.0
C1033 C 0.64517 0.52679 0.38739 0.0
C1034 C 0.64163 0.5277 0.32795 0.0
C1035 C 0.62782 0.52539 0.42604 0.0
C1036 C 0.6692 0.52535 0.47078 0.0
C1037 C 0.60557 0.50839 0.41418 0.0
C1038 C 0.58855 0.50866 0.44414 0.0
C1039 C 0.59331 0.52595 0.48687 0.0
C1040 C 0.61572 0.54225 0.50117 0.0
C1041 C 0.63279 0.54207 0.47071 0.0
H1042 H 0.68145 0.51957 0.47712 0.0
H1043 H 0.67616 0.5422 0.49399 0.0
H1044 H 0.65363 0.51363 0.49058 0.0
H1045 H 0.60125 0.49529 0.38014 0.0
H1046 H 0.57152 0.49574 0.43217 0.0
H1047 H 0.21552 0.69639 0.23373 0.0
H1048 H 0.1856 0.67577 0.29743 0.0
H1049 H 0.1549 0.71444 0.24956 0.0
H1050 H 0.18451 0.73465 0.18458 0.0
H1051 H 0.1643 0.68342 0.38758 0.0
H1052 H 0.10936 0.65085 0.18585 0.0
H1053 H 0.13923 0.66729 0.18554 0.0
H1054 H 0.12321 0.68084 0.1996 0.0
C1055 C 0.20291 0.70114 0.23875 0.0
C1056 C 0.20224 0.71704 0.20424 0.0
C1057 C 0.1857 0.68922 0.27475 0.0
C1058 C 0.16767 0.69311 0.27686 0.0
C1059 C 0.16835 0.71078 0.24744 0.0
H1060 H 0.05632 0.61808 0.49302 0.0
H1061 H 0.08712 0.64839 0.44743 0.0
C1062 C 0.18541 0.72253 0.21098 0.0
C1063 C 0.14718 0.67704 0.30402 0.0
H1064 H 0.09235 0.63802 0.27271 0.0
C1065 C 0.14852 0.6736 0.36266 0.0
C1066 C 0.1267 0.66387 0.27101 0.0
C1067 C 0.12448 0.66567 0.20692 0.0
C1068 C 0.12996 0.65736 0.38922 0.0
C1069 C 0.10938 0.64452 0.35646 0.0
C1070 C 0.10805 0.64804 0.29789 0.0
C1071 C 0.08936 0.62649 0.38123 0.0
C1072 C 0.1328 0.65351 0.45153 0.0
C1073 C 0.07951 0.60422 0.35721 0.0
C1074 C 0.06165 0.58685 0.3826 0.0
C1075 C 0.05328 0.5914 0.43266 0.0
C1076 C 0.06246 0.6139 0.45483 0.0
C1077 C 0.08023 0.63126 0.42915 0.0
H1078 H 0.1506 0.66053 0.46588 0.0
H1079 H 0.12597 0.66194 0.47919 0.0
H1080 H 0.12371 0.6353 0.45851 0.0
H1081 H 0.08616 0.60016 0.3199 0.0
H1082 H 0.05506 0.56977 0.36436 0.0
loop_
_geom_bond_atom_site_label_1
_geom_bond_atom_site_label_2
_geom_bond_distance
_geom_bond_site_symmetry_2
_ccdc_geom_bond_type
H0 C8 0.930 . S
H1 C11 0.930 . S
H2 C13 0.930 . S
H3 C14 0.970 . S
H4 C14 0.970 . S
H5 C16 0.930 . S
H6 C18 0.930 . S
H7 C20 0.930 . S
C8 H0 0.930 . S
C8 C9 1.382 . S
C8 C10 1.426 . S
C9 C8 1.382 . S
C9 C13 1.389 . S
C10 C8 1.426 . S
C10 C11 1.375 . S
C10 C14 1.532 . S
C11 H1 0.930 . S
C11 C10 1.375 . S
C11 C12 1.416 . S
C12 C11 1.416 . S
C12 C13 1.371 . S
C13 H2 0.930 . S
C13 C9 1.389 . S
C13 C12 1.371 . S
C14 H3 0.970 . S
C14 H4 0.970 . S
C14 C10 1.532 . S
C14 C15 1.499 . S
C15 C14 1.499 . S
C15 C16 1.370 . S
C15 C20 1.415 . S
C16 H5 0.930 . S
C16 C15 1.370 . S
C16 C17 1.407 . S
C17 C16 1.407 . S
C17 C18 1.365 . S
C18 H6 0.930 . S
C18 C17 1.365 . S
C18 C19 1.393 . S
C19 C18 1.393 . S
C19 C20 1.387 . S
C20 H7 0.930 . S
C20 C15 1.415 . S
C20 C19 1.387 . S
H21 C29 0.930 . S
H22 C32 0.930 . S
H23 C34 0.930 . S
H24 C35 0.970 . S
H25 C35 0.970 . S
H26 C37 0.930 . S
H27 C39 0.930 . S
H28 C41 0.930 . S
C29 H21 0.930 . S
C29 C30 1.382 . S
C29 C31 1.426 . S
C30 C29 1.382 . S
C30 C34 1.389 . S
C31 C29 1.426 . S
C31 C32 1.375 . S
C31 C35 1.532 . S
C32 H22 0.930 . S
C32 C31 1.375 . S
C32 C33 1.416 . S
C33 C32 1.416 . S
C33 C34 1.371 . S
C34 H23 0.930 . S
C34 C30 1.389 . S
C34 C33 1.371 . S
C35 H24 0.970 . S
C35 H25 0.970 . S
C35 C31 1.532 . S
C35 C36 1.499 . S
C36 C35 1.499 . S
C36 C37 1.370 . S
C36 C41 1.415 . S
C37 H26 0.930 . S
C37 C36 1.370 . S
C37 C38 1.407 . S
C38 C37 1.407 . S
C38 C39 1.365 . S
C39 H27 0.930 . S
C39 C38 1.365 . S
C39 C40 1.393 . S
C40 C39 1.393 . S
C40 C41 1.387 . S
C41 H28 0.930 . S
C41 C36 1.415 . S
C41 C40 1.387 . S
H42 C50 0.930 . S
H43 C53 0.930 . S
H44 C55 0.930 . S
H45 C56 0.970 1_556 S
H46 C56 0.970 . S
H47 C58 0.930 . S
H48 C60 0.930 . S
H49 C62 0.930 . S
C50 H42 0.930 . S
C50 C51 1.382 . S
C50 C52 1.426 1_556 S
C51 C50 1.382 . S
C51 C55 1.389 1_556 S
C52 C50 1.426 1_554 S
C52 C53 1.375 . S
C52 C56 1.532 . S
C53 H43 0.930 . S
C53 C52 1.375 . S
C53 C54 1.416 . S
C54 C53 1.416 . S
C54 C55 1.371 . S
C55 H44 0.930 . S
C55 C51 1.389 1_554 S
C55 C54 1.371 . S
C56 H45 0.970 1_554 S
C56 H46 0.970 . S
C56 C52 1.532 . S
C56 C57 1.499 . S
C57 C56 1.499 . S
C57 C58 1.370 1_554 S
C57 C62 1.415 . S
C58 H47 0.930 . S
C58 C57 1.370 1_556 S
C58 C59 1.407 . S
C59 C58 1.407 . S
C59 C60 1.365 1_556 S
C60 H48 0.930 . S
C60 C59 1.365 1_554 S
C60 C61 1.393 . S
C61 C60 1.393 . S
C61 C62 1.387 . S
C62 H49 0.930 . S
C62 C57 1.415 . S
C62 C61 1.387 . S
H63 C71 0.930 1_556 S
H64 C74 0.930 . S
H65 C76 0.930 . S
H66 C77 0.970 . S
H67 C77 0.970 . S
H68 C79 0.930 1_556 S
H69 C81 0.930 . S
H70 C83 0.930 . S
C71 H63 0.930 1_554 S
C71 C72 1.382 . S
C71 C73 1.426 . S
C72 C71 1.382 . S
C72 C76 1.389 . S
C73 C71 1.426 . S
C73 C74 1.375 . S
C73 C77 1.532 . S
C74 H64 0.930 . S
C74 C73 1.375 . S
C74 C75 1.416 . S
C75 C74 1.416 . S
C75 C76 1.371 . S
C76 H65 0.930 . S
C76 C72 1.389 . S
C76 C75 1.371 . S
C77 H66 0.970 . S
C77 H67 0.970 . S
C77 C73 1.532 . S
C77 C78 1.499 . S
C78 C77 1.499 . S
C78 C79 1.370 . S
C78 C83 1.415 . S
C79 H68 0.930 1_554 S
C79 C78 1.370 . S
C79 C80 1.407 . S
C80 C79 1.407 . S
C80 C81 1.365 . S
C81 H69 0.930 . S
C81 C80 1.365 . S
C81 C82 1.393 . S
C82 C81 1.393 . S
C82 C83 1.387 . S
C83 H70 0.930 . S
C83 C78 1.415 . S
C83 C82 1.387 . S
H84 C92 0.930 . S
H85 C95 0.930 . S
H86 C97 0.930 . S
H87 C98 0.970 . S
H88 C98 0.970 . S
H89 C100 0.930 . S
H90 C102 0.930 . S
H91 C104 0.930 . S
C92 H84 0.930 . S
C92 C93 1.382 . S
C92 C94 1.426 . S
C93 C92 1.382 . S
C93 C97 1.389 . S
C94 C92 1.426 . S
C94 C95 1.375 . S
C94 C98 1.532 . S
C95 H85 0.930 . S
C95 C94 1.375 . S
C95 C96 1.416 . S
C96 C95 1.416 . S
C96 C97 1.371 . S
C97 H86 0.930 . S
C97 C93 1.389 . S
C97 C96 1.371 . S
C98 H87 0.970 . S
C98 H88 0.970 . S
C98 C94 1.532 . S
C98 C99 1.499 . S
C99 C98 1.499 . S
C99 C100 1.370 . S
C99 C104 1.415 . S
C100 H89 0.930 . S
C100 C99 1.370 . S
C100 C101 1.407 . S
C101 C100 1.407 . S
C101 C102 1.365 . S
C102 H90 0.930 . S
C102 C101 1.365 . S
C102 C103 1.393 . S
C103 C102 1.393 . S
C103 C104 1.387 . S
C104 H91 0.930 . S
C104 C99 1.415 . S
C104 C103 1.387 . S
H105 C113 0.930 . S
H106 C116 0.930 . S
H107 C118 0.930 . S
H108 C119 0.970 . S
H109 C119 0.970 . S
H110 C121 0.930 . S
H111 C123 0.930 . S
H112 C125 0.930 . S
C113 H105 0.930 . S
C113 C114 1.382 . S
C113 C115 1.426 . S
C114 C113 1.382 . S
C114 C118 1.389 . S
C115 C113 1.426 . S
C115 C116 1.375 . S
C115 C119 1.532 . S
C116 H106 0.930 . S
C116 C115 1.375 . S
C116 C117 1.416 . S
C117 C116 1.416 . S
C117 C118 1.371 . S
C118 H107 0.930 . S
C118 C114 1.389 . S
C118 C117 1.371 . S
C119 H108 0.970 . S
C119 H109 0.970 . S
C119 C115 1.532 . S
C119 C120 1.499 . S
C120 C119 1.499 . S
C120 C121 1.370 . S
C120 C125 1.415 . S
C121 H110 0.930 . S
C121 C120 1.370 . S
C121 C122 1.407 . S
C122 C121 1.407 . S
C122 C123 1.365 . S
C123 H111 0.930 . S
C123 C122 1.365 . S
C123 C124 1.393 . S
C124 C123 1.393 . S
C124 C125 1.387 . S
C125 H112 0.930 . S
C125 C120 1.415 . S
C125 C124 1.387 . S
C126 O138 1.241 . S
C126 O139 1.280 . S
C127 O140 1.277 . S
C127 O141 1.245 . S
C128 O152 1.247 . S
C128 O154 1.289 . S
Mg129 O130 1.937 1_655 S
Mg129 O139 1.984 . S
Mg129 O141 1.988 1_655 S
Mg129 O142 2.061 . S
O130 Mg129 1.937 1_455 S
O130 Mg131 1.985 . S
O130 Mg132 1.915 . S
Mg131 O130 1.985 . S
Mg131 O138 2.042 1_455 S
Mg131 O140 2.041 . S
Mg131 O146 2.038 1_455 S
Mg131 O154 2.238 . S
Mg132 O130 1.915 . S
Mg132 O133 1.917 . S
Mg132 O143 2.106 1_455 S
Mg132 O145 2.079 1_455 S
Mg132 O154 2.106 . S
Mg132 O155 2.079 . S
O133 Mg132 1.917 . S
O133 Mg134 1.926 . S
O133 Mg135 1.986 . S
Mg134 O133 1.926 . S
Mg134 O148 1.984 . S
Mg134 O151 1.988 1_455 S
Mg134 O152 2.061 . S
Mg135 O133 1.986 . S
Mg135 O143 2.238 1_455 S
Mg135 O147 2.042 . S
Mg135 O149 2.041 1_455 S
Mg135 O156 2.038 . S
C136 O142 1.247 . S
C136 O143 1.289 . S
C137 O155 1.245 . S
C137 O156 1.274 . S
O138 C126 1.241 . S
O138 Mg131 2.042 1_655 S
O139 C126 1.280 . S
O139 Mg129 1.984 . S
O140 C127 1.277 . S
O140 Mg131 2.041 . S
O141 C127 1.245 . S
O141 Mg129 1.988 1_455 S
O142 Mg129 2.061 . S
O142 C136 1.247 . S
O143 Mg132 2.106 1_655 S
O143 Mg135 2.238 1_655 S
O143 C136 1.289 . S
C144 O145 1.245 . S
C144 O146 1.274 . S
O145 Mg132 2.079 1_655 S
O145 C144 1.245 . S
O146 Mg131 2.038 1_655 S
O146 C144 1.274 . S
O147 Mg135 2.042 . S
O147 C150 1.241 . S
O148 Mg134 1.984 . S
O148 C150 1.280 . S
O149 Mg135 2.041 1_655 S
O149 C153 1.277 . S
C150 O147 1.241 . S
C150 O148 1.280 . S
O151 Mg134 1.988 1_655 S
O151 C153 1.245 . S
O152 C128 1.247 . S
O152 Mg134 2.061 . S
C153 O149 1.277 . S
C153 O151 1.245 . S
O154 C128 1.289 . S
O154 Mg131 2.238 . S
O154 Mg132 2.106 . S
O155 Mg132 2.079 . S
O155 C137 1.245 . S
O156 Mg135 2.038 . S
O156 C137 1.274 . S
C157 O169 1.241 . S
C157 O170 1.280 . S
C158 O171 1.277 . S
C158 O172 1.245 . S
C159 O183 1.247 . S
C159 O185 1.289 . S
Mg160 O161 1.926 . S
Mg160 O170 1.984 . S
Mg160 O172 1.988 1_545 S
Mg160 O173 2.061 . S
O161 Mg160 1.926 . S
O161 Mg162 1.986 . S
O161 Mg163 1.917 . S
Mg162 O161 1.986 . S
Mg162 O169 2.042 . S
Mg162 O171 2.041 1_545 S
Mg162 O177 2.038 . S
Mg162 O185 2.238 1_545 S
Mg163 O161 1.917 . S
Mg163 O164 1.917 1_545 S
Mg163 O174 2.106 . S
Mg163 O176 2.079 . S
Mg163 O185 2.106 1_545 S
Mg163 O186 2.079 1_545 S
O164 Mg163 1.917 1_565 S
O164 Mg165 1.926 . S
O164 Mg166 1.986 1_565 S
Mg165 O164 1.926 . S
Mg165 O179 1.984 . S
Mg165 O182 1.988 1_565 S
Mg165 O183 2.061 . S
Mg166 O164 1.986 1_545 S
Mg166 O174 2.238 . S
Mg166 O178 2.042 1_545 S
Mg166 O180 2.041 . S
Mg166 O187 2.038 1_545 S
C167 O173 1.247 . S
C167 O174 1.289 . S
C168 O186 1.245 . S
C168 O187 1.274 . S
O169 C157 1.241 . S
O169 Mg162 2.042 . S
O170 C157 1.280 . S
O170 Mg160 1.984 . S
O171 C158 1.277 . S
O171 Mg162 2.041 1_565 S
O172 C158 1.245 . S
O172 Mg160 1.988 1_565 S
O173 Mg160 2.061 . S
O173 C167 1.247 . S
O174 Mg163 2.106 . S
O174 Mg166 2.238 . S
O174 C167 1.289 . S
C175 O176 1.245 . S
C175 O177 1.274 . S
O176 Mg163 2.079 . S
O176 C175 1.245 . S
O177 Mg162 2.038 . S
O177 C175 1.274 . S
O178 Mg166 2.042 1_565 S
O178 C181 1.241 . S
O179 Mg165 1.984 . S
O179 C181 1.280 . S
O180 Mg166 2.041 . S
O180 C184 1.277 . S
C181 O178 1.241 . S
C181 O179 1.280 . S
O182 Mg165 1.988 1_545 S
O182 C184 1.245 . S
O183 C159 1.247 . S
O183 Mg165 2.061 . S
C184 O180 1.277 . S
C184 O182 1.245 . S
O185 C159 1.289 . S
O185 Mg162 2.238 1_565 S
O185 Mg163 2.106 1_565 S
O186 Mg163 2.079 1_565 S
O186 C168 1.245 . S
O187 Mg166 2.038 1_565 S
O187 C168 1.274 . S
C188 O200 1.241 . S
C188 O201 1.280 . S
C189 O202 1.277 . S
C189 O203 1.245 . S
C190 O214 1.247 . S
C190 O216 1.289 . S
Mg191 O192 1.926 . S
Mg191 O201 1.984 . S
Mg191 O203 1.988 . S
Mg191 O204 2.061 . S
O192 Mg191 1.926 . S
O192 Mg193 1.986 . S
O192 Mg194 1.917 . S
Mg193 O192 1.986 . S
Mg193 O200 2.042 . S
Mg193 O202 2.041 . S
Mg193 O208 2.038 . S
Mg193 O216 2.238 . S
Mg194 O192 1.917 . S
Mg194 O195 1.917 . S
Mg194 O205 2.106 . S
Mg194 O207 2.079 . S
Mg194 O216 2.106 . S
Mg194 O217 2.079 . S
O195 Mg194 1.917 . S
O195 Mg196 1.926 . S
O195 Mg197 1.986 . S
Mg196 O195 1.926 . S
Mg196 O210 1.984 . S
Mg196 O213 1.988 . S
Mg196 O214 2.061 . S
Mg197 O195 1.986 . S
Mg197 O205 2.238 . S
Mg197 O209 2.042 . S
Mg197 O211 2.041 . S
Mg197 O218 2.038 . S
C198 O204 1.247 . S
C198 O205 1.289 . S
C199 O217 1.245 . S
C199 O218 1.274 . S
O200 C188 1.241 . S
O200 Mg193 2.042 . S
O201 C188 1.280 . S
O201 Mg191 1.984 . S
O202 C189 1.277 . S
O202 Mg193 2.041 . S
O203 C189 1.245 . S
O203 Mg191 1.988 . S
O204 Mg191 2.061 . S
O204 C198 1.247 . S
O205 Mg194 2.106 . S
O205 Mg197 2.238 . S
O205 C198 1.289 . S
C206 O207 1.245 . S
C206 O208 1.274 . S
O207 Mg194 2.079 . S
O207 C206 1.245 . S
O208 Mg193 2.038 . S
O208 C206 1.274 . S
O209 Mg197 2.042 . S
O209 C212 1.241 . S
O210 Mg196 1.984 . S
O210 C212 1.280 . S
O211 Mg197 2.041 . S
O211 C215 1.277 . S
C212 O209 1.241 . S
C212 O210 1.280 . S
O213 Mg196 1.988 . S
O213 C215 1.245 . S
O214 C190 1.247 . S
O214 Mg196 2.061 . S
C215 O211 1.277 . S
C215 O213 1.245 . S
O216 C190 1.289 . S
O216 Mg193 2.238 . S
O216 Mg194 2.106 . S
O217 Mg194 2.079 . S
O217 C199 1.245 . S
O218 Mg197 2.038 . S
O218 C199 1.274 . S
H219 C227 0.929 . S
H220 C229 0.930 . S
H221 C231 0.930 . S
H222 C234 0.929 . S
H223 C237 0.930 . S
H224 C239 0.960 . S
H225 C239 0.960 . S
H226 C239 0.960 . S
C227 H219 0.929 . S
C227 C228 1.377 . S
C227 C229 1.384 . S
C228 C227 1.377 . S
C228 C234 1.390 . S
C229 H220 0.930 . S
C229 C227 1.384 . S
C229 C230 1.372 . S
C230 C229 1.372 . S
C230 C231 1.400 . S
C230 C235 1.490 . S
C231 H221 0.930 . S
C231 C230 1.400 . S
C231 C234 1.386 . S
H232 C248 0.930 . S
H233 C249 0.931 . S
C234 H222 0.929 . S
C234 C228 1.390 . S
C234 C231 1.386 . S
C235 C230 1.490 . S
C235 C237 1.395 . S
C235 C238 1.403 . S
H236 C242 0.930 . S
C237 H223 0.930 . S
C237 C235 1.395 . S
C237 C240 1.403 . S
C238 C235 1.403 . S
C238 C239 1.524 . S
C238 C242 1.400 . S
C239 H224 0.960 . S
C239 H225 0.960 . S
C239 H226 0.960 . S
C239 C238 1.524 . S
C240 C237 1.403 . S
C240 C241 1.392 . S
C240 C244 1.495 . S
C241 C240 1.392 . S
C241 C242 1.385 . S
C241 C243 1.478 . S
C242 H236 0.930 . S
C242 C238 1.400 . S
C242 C241 1.385 . S
C243 C241 1.478 . S
C243 C245 1.381 . S
C243 C249 1.383 . S
C244 C240 1.495 . S
C244 H250 0.959 . S
C244 H251 0.961 . S
C244 H252 0.960 . S
C245 C243 1.381 . S
C245 C246 1.394 . S
C245 H253 0.930 . S
C246 C245 1.394 . S
C246 C247 1.383 . S
C246 H254 0.929 . S
C247 C246 1.383 . S
C247 C248 1.377 . S
C248 H232 0.930 . S
C248 C247 1.377 . S
C248 C249 1.379 . S
C249 H233 0.931 . S
C249 C243 1.383 . S
C249 C248 1.379 . S
H250 C244 0.959 . S
H251 C244 0.961 . S
H252 C244 0.960 . S
H253 C245 0.930 . S
H254 C246 0.929 . S
H255 C263 0.929 . S
H256 C265 0.930 . S
H257 C267 0.930 . S
H258 C270 0.929 . S
H259 C273 0.930 . S
H260 C275 0.960 . S
H261 C275 0.960 . S
H262 C275 0.960 . S
C263 H255 0.929 . S
C263 C264 1.377 . S
C263 C265 1.384 . S
C264 C263 1.377 . S
C264 C270 1.390 . S
C265 H256 0.930 . S
C265 C263 1.384 . S
C265 C266 1.372 . S
C266 C265 1.372 . S
C266 C267 1.400 . S
C266 C271 1.490 . S
C267 H257 0.930 . S
C267 C266 1.400 . S
C267 C270 1.386 . S
H268 C284 0.930 . S
H269 C285 0.931 . S
C270 H258 0.929 . S
C270 C264 1.390 . S
C270 C267 1.386 . S
C271 C266 1.490 . S
C271 C273 1.395 . S
C271 C274 1.403 . S
H272 C278 0.930 . S
C273 H259 0.930 . S
C273 C271 1.395 . S
C273 C276 1.403 . S
C274 C271 1.403 . S
C274 C275 1.524 . S
C274 C278 1.400 . S
C275 H260 0.960 . S
C275 H261 0.960 . S
C275 H262 0.960 . S
C275 C274 1.524 . S
C276 C273 1.403 . S
C276 C277 1.392 . S
C276 C280 1.495 . S
C277 C276 1.392 . S
C277 C278 1.385 . S
C277 C279 1.478 . S
C278 H272 0.930 . S
C278 C274 1.400 . S
C278 C277 1.385 . S
C279 C277 1.478 . S
C279 C281 1.381 . S
C279 C285 1.383 . S
C280 C276 1.495 . S
C280 H286 0.959 . S
C280 H287 0.961 . S
C280 H288 0.960 . S
C281 C279 1.381 . S
C281 C282 1.394 . S
C281 H289 0.930 . S
C282 C281 1.394 . S
C282 C283 1.383 . S
C282 H290 0.929 . S
C283 C282 1.383 . S
C283 C284 1.377 . S
C284 H268 0.930 . S
C284 C283 1.377 . S
C284 C285 1.379 . S
C285 H269 0.931 . S
C285 C279 1.383 . S
C285 C284 1.379 . S
H286 C280 0.959 . S
H287 C280 0.961 . S
H288 C280 0.960 . S
H289 C281 0.930 . S
H290 C282 0.929 . S
H291 C299 0.929 . S
H292 C301 0.930 . S
H293 C303 0.930 . S
H294 C306 0.929 . S
H295 C309 0.930 . S
H296 C311 0.960 . S
H297 C311 0.960 . S
H298 C311 0.960 . S
C299 H291 0.929 . S
C299 C300 1.377 . S
C299 C301 1.384 . S
C300 C299 1.377 . S
C300 C306 1.390 . S
C301 H292 0.930 . S
C301 C299 1.384 . S
C301 C302 1.372 . S
C302 C301 1.372 . S
C302 C303 1.400 . S
C302 C307 1.490 . S
C303 H293 0.930 . S
C303 C302 1.400 . S
C303 C306 1.386 . S
H304 C320 0.930 . S
H305 C321 0.931 . S
C306 H294 0.929 . S
C306 C300 1.390 . S
C306 C303 1.386 . S
C307 C302 1.490 . S
C307 C309 1.395 . S
C307 C310 1.403 . S
H308 C314 0.930 . S
C309 H295 0.930 . S
C309 C307 1.395 . S
C309 C312 1.403 . S
C310 C307 1.403 . S
C310 C311 1.524 . S
C310 C314 1.400 . S
C311 H296 0.960 . S
C311 H297 0.960 . S
C311 H298 0.960 . S
C311 C310 1.524 . S
C312 C309 1.403 . S
C312 C313 1.392 . S
C312 C316 1.495 . S
C313 C312 1.392 . S
C313 C314 1.385 . S
C313 C315 1.478 . S
C314 H308 0.930 . S
C314 C310 1.400 . S
C314 C313 1.385 . S
C315 C313 1.478 . S
C315 C317 1.381 . S
C315 C321 1.383 . S
C316 C312 1.495 . S
C316 H322 0.959 . S
C316 H323 0.961 . S
C316 H324 0.960 . S
C317 C315 1.381 . S
C317 C318 1.394 . S
C317 H325 0.930 . S
C318 C317 1.394 . S
C318 C319 1.383 . S
C318 H326 0.929 . S
C319 C318 1.383 . S
C319 C320 1.377 . S
C320 H304 0.930 . S
C320 C319 1.377 . S
C320 C321 1.379 . S
C321 H305 0.931 . S
C321 C315 1.383 . S
C321 C320 1.379 . S
H322 C316 0.959 . S
H323 C316 0.961 . S
H324 C316 0.960 . S
H325 C317 0.930 . S
H326 C318 0.929 . S
H327 C335 0.929 . S
H328 C337 0.930 . S
H329 C339 0.930 . S
H330 C342 0.929 . S
H331 C345 0.930 . S
H332 C347 0.960 . S
H333 C347 0.960 . S
H334 C347 0.960 . S
C335 H327 0.929 . S
C335 C336 1.377 . S
C335 C337 1.384 . S
C336 C335 1.377 . S
C336 C342 1.390 . S
C337 H328 0.930 . S
C337 C335 1.384 . S
C337 C338 1.372 . S
C338 C337 1.372 . S
C338 C339 1.400 . S
C338 C343 1.490 . S
C339 H329 0.930 . S
C339 C338 1.400 . S
C339 C342 1.386 . S
H340 C356 0.930 . S
H341 C357 0.931 . S
C342 H330 0.929 . S
C342 C336 1.390 . S
C342 C339 1.386 . S
C343 C338 1.490 . S
C343 C345 1.395 . S
C343 C346 1.403 . S
H344 C350 0.930 . S
C345 H331 0.930 . S
C345 C343 1.395 . S
C345 C348 1.403 . S
C346 C343 1.403 . S
C346 C347 1.524 . S
C346 C350 1.400 . S
C347 H332 0.960 . S
C347 H333 0.960 . S
C347 H334 0.960 . S
C347 C346 1.524 . S
C348 C345 1.403 . S
C348 C349 1.392 . S
C348 C352 1.495 . S
C349 C348 1.392 . S
C349 C350 1.385 . S
C349 C351 1.478 . S
C350 H344 0.930 . S
C350 C346 1.400 . S
C350 C349 1.385 . S
C351 C349 1.478 . S
C351 C353 1.381 . S
C351 C357 1.383 . S
C352 C348 1.495 . S
C352 H358 0.959 . S
C352 H359 0.961 . S
C352 H360 0.960 . S
C353 C351 1.381 . S
C353 C354 1.394 . S
C353 H361 0.930 . S
C354 C353 1.394 . S
C354 C355 1.383 . S
C354 H362 0.929 . S
C355 C354 1.383 . S
C355 C356 1.377 . S
C356 H340 0.930 . S
C356 C355 1.377 . S
C356 C357 1.379 . S
C357 H341 0.931 . S
C357 C351 1.383 . S
C357 C356 1.379 . S
H358 C352 0.959 . S
H359 C352 0.961 . S
H360 C352 0.960 . S
H361 C353 0.930 . S
H362 C354 0.929 . S
H363 C371 0.929 . S
H364 C373 0.930 . S
H365 C375 0.930 . S
H366 C378 0.929 . S
H367 C381 0.930 . S
H368 C383 0.960 . S
H369 C383 0.960 . S
H370 C383 0.960 . S
C371 H363 0.929 . S
C371 C372 1.377 . S
C371 C373 1.384 . S
C372 C371 1.377 . S
C372 C378 1.390 . S
C373 H364 0.930 . S
C373 C371 1.384 . S
C373 C374 1.372 . S
C374 C373 1.372 . S
C374 C375 1.400 . S
C374 C379 1.490 . S
C375 H365 0.930 . S
C375 C374 1.400 . S
C375 C378 1.386 . S
H376 C392 0.930 . S
H377 C393 0.931 . S
C378 H366 0.929 . S
C378 C372 1.390 . S
C378 C375 1.386 . S
C379 C374 1.490 . S
C379 C381 1.395 . S
C379 C382 1.403 . S
H380 C386 0.930 . S
C381 H367 0.930 . S
C381 C379 1.395 . S
C381 C384 1.403 . S
C382 C379 1.403 . S
C382 C383 1.524 . S
C382 C386 1.400 . S
C383 H368 0.960 . S
C383 H369 0.960 . S
C383 H370 0.960 . S
C383 C382 1.524 . S
C384 C381 1.403 . S
C384 C385 1.392 . S
C384 C388 1.495 . S
C385 C384 1.392 . S
C385 C386 1.385 . S
C385 C387 1.478 . S
C386 H380 0.930 . S
C386 C382 1.400 . S
C386 C385 1.385 . S
C387 C385 1.478 . S
C387 C389 1.381 . S
C387 C393 1.383 . S
C388 C384 1.495 . S
C388 H394 0.959 . S
C388 H395 0.961 . S
C388 H396 0.960 . S
C389 C387 1.381 . S
C389 C390 1.394 . S
C389 H397 0.930 . S
C390 C389 1.394 . S
C390 C391 1.383 . S
C390 H398 0.929 . S
C391 C390 1.383 . S
C391 C392 1.377 . S
C392 H376 0.930 . S
C392 C391 1.377 . S
C392 C393 1.379 . S
C393 H377 0.931 . S
C393 C387 1.383 . S
C393 C392 1.379 . S
H394 C388 0.959 . S
H395 C388 0.961 . S
H396 C388 0.960 . S
H397 C389 0.930 . S
H398 C390 0.929 . S
H399 C407 0.929 . S
H400 C409 0.930 . S
H401 C411 0.930 . S
H402 C414 0.929 . S
H403 C417 0.930 . S
H404 C419 0.960 . S
H405 C419 0.960 . S
H406 C419 0.960 . S
C407 H399 0.929 . S
C407 C408 1.377 . S
C407 C409 1.384 . S
C408 C407 1.377 . S
C408 C414 1.390 . S
C409 H400 0.930 . S
C409 C407 1.384 . S
C409 C410 1.372 . S
C410 C409 1.372 . S
C410 C411 1.400 . S
C410 C415 1.490 . S
C411 H401 0.930 . S
C411 C410 1.400 . S
C411 C414 1.386 . S
H412 C428 0.930 . S
H413 C429 0.931 . S
C414 H402 0.929 . S
C414 C408 1.390 . S
C414 C411 1.386 . S
C415 C410 1.490 . S
C415 C417 1.395 . S
C415 C418 1.403 . S
H416 C422 0.930 . S
C417 H403 0.930 . S
C417 C415 1.395 . S
C417 C420 1.403 . S
C418 C415 1.403 . S
C418 C419 1.524 . S
C418 C422 1.400 . S
C419 H404 0.960 . S
C419 H405 0.960 . S
C419 H406 0.960 . S
C419 C418 1.524 . S
C420 C417 1.403 . S
C420 C421 1.392 . S
C420 C424 1.495 . S
C421 C420 1.392 . S
C421 C422 1.385 . S
C421 C423 1.478 . S
C422 H416 0.930 . S
C422 C418 1.400 . S
C422 C421 1.385 . S
C423 C421 1.478 . S
C423 C425 1.381 . S
C423 C429 1.383 . S
C424 C420 1.495 . S
C424 H430 0.959 . S
C424 H431 0.961 . S
C424 H432 0.960 . S
C425 C423 1.381 . S
C425 C426 1.394 . S
C425 H433 0.930 . S
C426 C425 1.394 . S
C426 C427 1.383 . S
C426 H434 0.929 . S
C427 C426 1.383 . S
C427 C428 1.377 . S
C428 H412 0.930 . S
C428 C427 1.377 . S
C428 C429 1.379 . S
C429 H413 0.931 . S
C429 C423 1.383 . S
C429 C428 1.379 . S
H430 C424 0.959 . S
H431 C424 0.961 . S
H432 C424 0.960 . S
H433 C425 0.930 . S
H434 C426 0.929 . S
H435 C443 0.929 . S
H436 C445 0.930 . S
H437 C447 0.930 . S
H438 C450 0.929 . S
H439 C453 0.930 . S
H440 C455 0.960 . S
H441 C455 0.960 . S
H442 C455 0.960 . S
C443 H435 0.929 . S
C443 C444 1.377 . S
C443 C445 1.384 . S
C444 C443 1.377 . S
C444 C450 1.390 . S
C445 H436 0.930 . S
C445 C443 1.384 . S
C445 C446 1.372 . S
C446 C445 1.372 . S
C446 C447 1.400 . S
C446 C451 1.490 . S
C447 H437 0.930 . S
C447 C446 1.400 . S
C447 C450 1.386 . S
H448 C464 0.930 . S
H449 C465 0.931 . S
C450 H438 0.929 . S
C450 C444 1.390 . S
C450 C447 1.386 . S
C451 C446 1.490 . S
C451 C453 1.395 . S
C451 C454 1.403 . S
H452 C458 0.930 . S
C453 H439 0.930 . S
C453 C451 1.395 . S
C453 C456 1.403 . S
C454 C451 1.403 . S
C454 C455 1.524 . S
C454 C458 1.400 . S
C455 H440 0.960 . S
C455 H441 0.960 . S
C455 H442 0.960 . S
C455 C454 1.524 . S
C456 C453 1.403 . S
C456 C457 1.392 . S
C456 C460 1.495 . S
C457 C456 1.392 . S
C457 C458 1.385 . S
C457 C459 1.478 . S
C458 H452 0.930 . S
C458 C454 1.400 . S
C458 C457 1.385 . S
C459 C457 1.478 . S
C459 C461 1.381 . S
C459 C465 1.383 . S
C460 C456 1.495 . S
C460 H466 0.959 . S
C460 H467 0.961 . S
C460 H468 0.960 . S
C461 C459 1.381 . S
C461 C462 1.394 . S
C461 H469 0.930 . S
C462 C461 1.394 . S
C462 C463 1.383 . S
C462 H470 0.929 . S
C463 C462 1.383 . S
C463 C464 1.377 . S
C464 H448 0.930 . S
C464 C463 1.377 . S
C464 C465 1.379 . S
C465 H449 0.931 . S
C465 C459 1.383 . S
C465 C464 1.379 . S
H466 C460 0.959 . S
H467 C460 0.961 . S
H468 C460 0.960 . S
H469 C461 0.930 . S
H470 C462 0.929 . S
H471 C479 0.929 . S
H472 C481 0.930 . S
H473 C483 0.930 . S
H474 C486 0.929 1_554 S
H475 C489 0.930 . S
H476 C491 0.960 . S
H477 C491 0.960 . S
H478 C491 0.960 . S
C479 H471 0.929 . S
C479 C480 1.377 . S
C479 C481 1.384 . S
C480 C479 1.377 . S
C480 C486 1.390 . S
C481 H472 0.930 . S
C481 C479 1.384 . S
C481 C482 1.372 . S
C482 C481 1.372 . S
C482 C483 1.400 . S
C482 C487 1.490 . S
C483 H473 0.930 . S
C483 C482 1.400 . S
C483 C486 1.386 . S
H484 C500 0.930 . S
H485 C501 0.931 . S
C486 H474 0.929 1_556 S
C486 C480 1.390 . S
C486 C483 1.386 . S
C487 C482 1.490 . S
C487 C489 1.395 . S
C487 C490 1.403 . S
H488 C494 0.930 . S
C489 H475 0.930 . S
C489 C487 1.395 . S
C489 C492 1.403 . S
C490 C487 1.403 . S
C490 C491 1.524 . S
C490 C494 1.400 . S
C491 H476 0.960 . S
C491 H477 0.960 . S
C491 H478 0.960 . S
C491 C490 1.524 . S
C492 C489 1.403 . S
C492 C493 1.392 . S
C492 C496 1.495 . S
C493 C492 1.392 . S
C493 C494 1.385 . S
C493 C495 1.478 . S
C494 H488 0.930 . S
C494 C490 1.400 . S
C494 C493 1.385 . S
C495 C493 1.478 . S
C495 C497 1.381 . S
C495 C501 1.383 . S
C496 C492 1.495 . S
C496 H502 0.959 . S
C496 H503 0.961 . S
C496 H504 0.960 . S
C497 C495 1.381 . S
C497 C498 1.394 . S
C497 H505 0.930 . S
C498 C497 1.394 . S
C498 C499 1.383 . S
C498 H506 0.929 . S
C499 C498 1.383 . S
C499 C500 1.377 . S
C500 H484 0.930 . S
C500 C499 1.377 . S
C500 C501 1.379 . S
C501 H485 0.931 . S
C501 C495 1.383 . S
C501 C500 1.379 . S
H502 C496 0.959 . S
H503 C496 0.961 . S
H504 C496 0.960 . S
H505 C497 0.930 . S
H506 C498 0.929 . S
H507 C515 0.929 . S
H508 C517 0.930 . S
H509 C519 0.930 . S
H510 C522 0.929 1_554 S
H511 C525 0.930 . S
H512 C527 0.960 . S
H513 C527 0.960 . S
H514 C527 0.960 . S
C515 H507 0.929 . S
C515 C516 1.377 . S
C515 C517 1.384 . S
C516 C515 1.377 . S
C516 C522 1.390 . S
C517 H508 0.930 . S
C517 C515 1.384 . S
C517 C518 1.372 . S
C518 C517 1.372 . S
C518 C519 1.400 . S
C518 C523 1.490 . S
C519 H509 0.930 . S
C519 C518 1.400 . S
C519 C522 1.386 . S
H520 C536 0.930 . S
H521 C537 0.931 . S
C522 H510 0.929 1_556 S
C522 C516 1.390 . S
C522 C519 1.386 . S
C523 C518 1.490 . S
C523 C525 1.395 . S
C523 C526 1.403 . S
H524 C530 0.930 . S
C525 H511 0.930 . S
C525 C523 1.395 . S
C525 C528 1.403 . S
C526 C523 1.403 . S
C526 C527 1.524 . S
C526 C530 1.400 . S
C527 H512 0.960 . S
C527 H513 0.960 . S
C527 H514 0.960 . S
C527 C526 1.524 . S
C528 C525 1.403 . S
C528 C529 1.392 . S
C528 C532 1.495 . S
C529 C528 1.392 . S
C529 C530 1.385 . S
C529 C531 1.478 . S
C530 H524 0.930 . S
C530 C526 1.400 . S
C530 C529 1.385 . S
C531 C529 1.478 . S
C531 C533 1.381 . S
C531 C537 1.383 . S
C532 C528 1.495 . S
C532 H538 0.959 . S
C532 H539 0.961 . S
C532 H540 0.960 . S
C533 C531 1.381 . S
C533 C534 1.394 . S
C533 H541 0.930 . S
C534 C533 1.394 . S
C534 C535 1.383 . S
C534 H542 0.929 . S
C535 C534 1.383 . S
C535 C536 1.377 . S
C536 H520 0.930 . S
C536 C535 1.377 . S
C536 C537 1.379 . S
C537 H521 0.931 . S
C537 C531 1.383 . S
C537 C536 1.379 . S
H538 C532 0.959 . S
H539 C532 0.961 . S
H540 C532 0.960 . S
H541 C533 0.930 . S
H542 C534 0.929 . S
H543 C551 0.929 . S
H544 C553 0.930 1_556 S
H545 C555 0.930 . S
H546 C558 0.929 . S
H547 C561 0.930 . S
H548 C563 0.960 . S
H549 C563 0.960 . S
H550 C563 0.960 . S
C551 H543 0.929 . S
C551 C552 1.377 . S
C551 C553 1.384 . S
C552 C551 1.377 . S
C552 C558 1.390 . S
C553 H544 0.930 1_554 S
C553 C551 1.384 . S
C553 C554 1.372 . S
C554 C553 1.372 . S
C554 C555 1.400 . S
C554 C559 1.490 1_554 S
C555 H545 0.930 . S
C555 C554 1.400 . S
C555 C558 1.386 . S
H556 C572 0.930 . S
H557 C573 0.931 . S
C558 H546 0.929 . S
C558 C552 1.390 . S
C558 C555 1.386 . S
C559 C554 1.490 1_556 S
C559 C561 1.395 . S
C559 C562 1.403 . S
H560 C566 0.930 . S
C561 H547 0.930 . S
C561 C559 1.395 . S
C561 C564 1.403 . S
C562 C559 1.403 . S
C562 C563 1.524 1_556 S
C562 C566 1.400 . S
C563 H548 0.960 . S
C563 H549 0.960 . S
C563 H550 0.960 . S
C563 C562 1.524 1_554 S
C564 C561 1.403 . S
C564 C565 1.392 . S
C564 C568 1.495 . S
C565 C564 1.392 . S
C565 C566 1.385 . S
C565 C567 1.478 . S
C566 H560 0.930 . S
C566 C562 1.400 . S
C566 C565 1.385 . S
C567 C565 1.478 . S
C567 C569 1.381 . S
C567 C573 1.383 . S
C568 C564 1.495 . S
C568 H574 0.959 . S
C568 H575 0.961 . S
C568 H576 0.960 . S
C569 C567 1.381 . S
C569 C570 1.394 . S
C569 H577 0.930 . S
C570 C569 1.394 . S
C570 C571 1.383 . S
C570 H578 0.929 . S
C571 C570 1.383 . S
C571 C572 1.377 . S
C572 H556 0.930 . S
C572 C571 1.377 . S
C572 C573 1.379 . S
C573 H557 0.931 . S
C573 C567 1.383 . S
C573 C572 1.379 . S
H574 C568 0.959 . S
H575 C568 0.961 . S
H576 C568 0.960 . S
H577 C569 0.930 . S
H578 C570 0.929 . S
H579 C587 0.930 1_556 S
H580 C589 0.930 . S
H581 C591 0.930 . S
H582 C594 0.929 . S
H583 C597 0.930 . S
H584 C599 0.960 . S
H585 C599 0.960 . S
H586 C599 0.960 . S
C587 H579 0.930 1_554 S
C587 C588 1.376 . S
C587 C589 1.385 1_554 S
C588 C587 1.376 . S
C588 C594 1.390 . S
C589 H580 0.930 . S
C589 C587 1.385 1_556 S
C589 C590 1.372 . S
C590 C589 1.372 . S
C590 C591 1.400 1_556 S
C590 C595 1.490 . S
C591 H581 0.930 . S
C591 C590 1.400 1_554 S
C591 C594 1.386 . S
H592 C608 0.930 . S
H593 C609 0.931 . S
C594 H582 0.929 . S
C594 C588 1.390 . S
C594 C591 1.386 . S
C595 C590 1.490 . S
C595 C597 1.395 . S
C595 C598 1.403 . S
H596 C602 0.930 . S
C597 H583 0.930 . S
C597 C595 1.395 . S
C597 C600 1.403 . S
C598 C595 1.403 . S
C598 C599 1.524 1_556 S
C598 C602 1.400 . S
C599 H584 0.960 . S
C599 H585 0.960 . S
C599 H586 0.960 . S
C599 C598 1.524 1_554 S
C600 C597 1.403 . S
C600 C601 1.392 . S
C600 C604 1.495 . S
C601 C600 1.392 . S
C601 C602 1.385 . S
C601 C603 1.478 . S
C602 H596 0.930 . S
C602 C598 1.400 . S
C602 C601 1.385 . S
C603 C601 1.478 . S
C603 C605 1.381 . S
C603 C609 1.383 . S
C604 C600 1.495 . S
C604 H610 0.959 . S
C604 H611 0.961 . S
C604 H612 0.960 . S
C605 C603 1.381 . S
C605 C606 1.394 . S
C605 H613 0.930 . S
C606 C605 1.394 . S
C606 C607 1.383 . S
C606 H614 0.929 . S
C607 C606 1.383 . S
C607 C608 1.377 . S
C608 H592 0.930 . S
C608 C607 1.377 . S
C608 C609 1.379 . S
C609 H593 0.931 . S
C609 C603 1.383 . S
C609 C608 1.379 . S
H610 C604 0.959 . S
H611 C604 0.961 . S
H612 C604 0.960 . S
H613 C605 0.930 . S
H614 C606 0.929 . S
H615 C623 0.929 . S
H616 C625 0.930 . S
H617 C627 0.930 . S
H618 C630 0.929 . S
H619 C633 0.930 . S
H620 C635 0.960 . S
H621 C635 0.960 . S
H622 C635 0.960 . S
C623 H615 0.929 . S
C623 C624 1.377 . S
C623 C625 1.384 . S
C624 C623 1.377 . S
C624 C630 1.390 1_554 S
C625 H616 0.930 . S
C625 C623 1.384 . S
C625 C626 1.372 1_554 S
C626 C625 1.372 1_556 S
C626 C627 1.400 . S
C626 C631 1.490 . S
C627 H617 0.930 . S
C627 C626 1.400 . S
C627 C630 1.386 . S
H628 C644 0.930 . S
H629 C645 0.931 . S
C630 H618 0.929 . S
C630 C624 1.390 1_556 S
C630 C627 1.386 . S
C631 C626 1.490 . S
C631 C633 1.395 . S
C631 C634 1.403 . S
H632 C638 0.930 . S
C633 H619 0.930 . S
C633 C631 1.395 . S
C633 C636 1.403 . S
C634 C631 1.403 . S
C634 C635 1.524 . S
C634 C638 1.400 . S
C635 H620 0.960 . S
C635 H621 0.960 . S
C635 H622 0.960 . S
C635 C634 1.524 . S
C636 C633 1.403 . S
C636 C637 1.392 . S
C636 C640 1.495 . S
C637 C636 1.392 . S
C637 C638 1.385 . S
C637 C639 1.478 . S
C638 H632 0.930 . S
C638 C634 1.400 . S
C638 C637 1.385 . S
C639 C637 1.478 . S
C639 C641 1.381 . S
C639 C645 1.383 . S
C640 C636 1.495 . S
C640 H646 0.959 . S
C640 H647 0.961 . S
C640 H648 0.960 . S
C641 C639 1.381 . S
C641 C642 1.394 . S
C641 H649 0.930 . S
C642 C641 1.394 . S
C642 C643 1.383 . S
C642 H650 0.929 . S
C643 C642 1.383 . S
C643 C644 1.377 . S
C644 H628 0.930 . S
C644 C643 1.377 . S
C644 C645 1.379 . S
C645 H629 0.931 . S
C645 C639 1.383 . S
C645 C644 1.379 . S
H646 C640 0.959 . S
H647 C640 0.961 . S
H648 C640 0.960 . S
H649 C641 0.930 . S
H650 C642 0.929 . S
H651 C659 0.929 . S
H652 C661 0.930 . S
H653 C663 0.930 . S
H654 C666 0.929 . S
H655 C669 0.930 . S
H656 C671 0.960 . S
H657 C671 0.960 . S
H658 C671 0.960 . S
C659 H651 0.929 . S
C659 C660 1.377 . S
C659 C661 1.384 . S
C660 C659 1.377 . S
C660 C666 1.390 . S
C661 H652 0.930 . S
C661 C659 1.384 . S
C661 C662 1.372 . S
C662 C661 1.372 . S
C662 C663 1.400 . S
C662 C667 1.490 . S
C663 H653 0.930 . S
C663 C662 1.400 . S
C663 C666 1.386 . S
H664 C680 0.930 . S
H665 C681 0.931 . S
C666 H654 0.929 . S
C666 C660 1.390 . S
C666 C663 1.386 . S
C667 C662 1.490 . S
C667 C669 1.395 . S
C667 C670 1.403 . S
H668 C674 0.930 . S
C669 H655 0.930 . S
C669 C667 1.395 . S
C669 C672 1.403 . S
C670 C667 1.403 . S
C670 C671 1.524 . S
C670 C674 1.400 . S
C671 H656 0.960 . S
C671 H657 0.960 . S
C671 H658 0.960 . S
C671 C670 1.524 . S
C672 C669 1.403 . S
C672 C673 1.392 . S
C672 C676 1.495 . S
C673 C672 1.392 . S
C673 C674 1.385 . S
C673 C675 1.478 . S
C674 H668 0.930 . S
C674 C670 1.400 . S
C674 C673 1.385 . S
C675 C673 1.478 . S
C675 C677 1.381 . S
C675 C681 1.383 . S
C676 C672 1.495 . S
C676 H682 0.959 . S
C676 H683 0.961 . S
C676 H684 0.960 . S
C677 C675 1.381 . S
C677 C678 1.394 . S
C677 H685 0.930 . S
C678 C677 1.394 . S
C678 C679 1.383 . S
C678 H686 0.929 . S
C679 C678 1.383 . S
C679 C680 1.377 . S
C680 H664 0.930 . S
C680 C679 1.377 . S
C680 C681 1.379 . S
C681 H665 0.931 . S
C681 C675 1.383 . S
C681 C680 1.379 . S
H682 C676 0.959 . S
H683 C676 0.961 . S
H684 C676 0.960 . S
H685 C677 0.930 . S
H686 C678 0.929 . S
H687 C695 0.929 . S
H688 C697 0.930 . S
H689 C699 0.930 1_554 S
H690 C702 0.929 . S
H691 C705 0.930 . S
H692 C707 0.960 . S
H693 C707 0.960 . S
H694 C707 0.960 . S
C695 H687 0.929 . S
C695 C696 1.377 . S
C695 C697 1.384 . S
C696 C695 1.377 . S
C696 C702 1.390 1_556 S
C697 H688 0.930 . S
C697 C695 1.384 . S
C697 C698 1.372 . S
C698 C697 1.372 . S
C698 C699 1.400 . S
C698 C703 1.490 . S
C699 H689 0.930 1_556 S
C699 C698 1.400 . S
C699 C702 1.386 1_556 S
H700 C716 0.930 . S
H701 C717 0.931 . S
C702 H690 0.929 . S
C702 C696 1.390 1_554 S
C702 C699 1.386 1_554 S
C703 C698 1.490 . S
C703 C705 1.395 . S
C703 C706 1.403 . S
H704 C710 0.930 . S
C705 H691 0.930 . S
C705 C703 1.395 . S
C705 C708 1.403 . S
C706 C703 1.403 . S
C706 C707 1.524 . S
C706 C710 1.400 . S
C707 H692 0.960 . S
C707 H693 0.960 . S
C707 H694 0.960 . S
C707 C706 1.524 . S
C708 C705 1.403 . S
C708 C709 1.392 . S
C708 C712 1.495 . S
C709 C708 1.392 . S
C709 C710 1.385 . S
C709 C711 1.478 . S
C710 H704 0.930 . S
C710 C706 1.400 . S
C710 C709 1.385 . S
C711 C709 1.478 . S
C711 C713 1.381 . S
C711 C717 1.383 . S
C712 C708 1.495 . S
C712 H718 0.959 . S
C712 H719 0.961 . S
C712 H720 0.960 . S
C713 C711 1.381 . S
C713 C714 1.394 . S
C713 H721 0.930 . S
C714 C713 1.394 . S
C714 C715 1.383 . S
C714 H722 0.929 . S
C715 C714 1.383 . S
C715 C716 1.377 . S
C716 H700 0.930 . S
C716 C715 1.377 . S
C716 C717 1.379 . S
C717 H701 0.931 . S
C717 C711 1.383 . S
C717 C716 1.379 . S
H718 C712 0.959 . S
H719 C712 0.961 . S
H720 C712 0.960 . S
H721 C713 0.930 . S
H722 C714 0.929 . S
H723 C731 0.929 . S
H724 C733 0.930 . S
H725 C735 0.930 . S
H726 C738 0.929 . S
H727 C741 0.930 . S
H728 C743 0.960 . S
H729 C743 0.960 . S
H730 C743 0.960 . S
C731 H723 0.929 . S
C731 C732 1.377 . S
C731 C733 1.384 . S
C732 C731 1.377 . S
C732 C738 1.390 . S
C733 H724 0.930 . S
C733 C731 1.384 . S
C733 C734 1.372 . S
C734 C733 1.372 . S
C734 C735 1.400 . S
C734 C739 1.490 1_554 S
C735 H725 0.930 . S
C735 C734 1.400 . S
C735 C738 1.386 . S
H736 C752 0.930 . S
H737 C753 0.931 . S
C738 H726 0.929 . S
C738 C732 1.390 . S
C738 C735 1.386 . S
C739 C734 1.490 1_556 S
C739 C741 1.395 . S
C739 C742 1.403 1_556 S
H740 C746 0.930 . S
C741 H727 0.930 . S
C741 C739 1.395 . S
C741 C744 1.403 . S
C742 C739 1.403 1_554 S
C742 C743 1.524 . S
C742 C746 1.400 1_554 S
C743 H728 0.960 . S
C743 H729 0.960 . S
C743 H730 0.960 . S
C743 C742 1.524 . S
C744 C741 1.403 . S
C744 C745 1.392 . S
C744 C748 1.495 . S
C745 C744 1.392 . S
C745 C746 1.385 . S
C745 C747 1.478 . S
C746 H740 0.930 . S
C746 C742 1.400 1_556 S
C746 C745 1.385 . S
C747 C745 1.478 . S
C747 C749 1.381 . S
C747 C753 1.383 . S
C748 C744 1.495 . S
C748 H754 0.959 . S
C748 H755 0.961 . S
C748 H756 0.960 . S
C749 C747 1.381 . S
C749 C750 1.394 . S
C749 H757 0.930 . S
C750 C749 1.394 . S
C750 C751 1.383 . S
C750 H758 0.929 . S
C751 C750 1.383 . S
C751 C752 1.377 . S
C752 H736 0.930 . S
C752 C751 1.377 . S
C752 C753 1.379 . S
C753 H737 0.931 . S
C753 C747 1.383 . S
C753 C752 1.379 . S
H754 C748 0.959 . S
H755 C748 0.961 . S
H756 C748 0.960 . S
H757 C749 0.930 . S
H758 C750 0.929 . S
H759 C767 0.929 . S
H760 C769 0.930 . S
H761 C771 0.930 . S
H762 C774 0.929 . S
H763 C777 0.930 . S
H764 C779 0.960 . S
H765 C779 0.960 . S
H766 C779 0.960 1_554 S
C767 H759 0.929 . S
C767 C768 1.377 1_556 S
C767 C769 1.384 . S
C768 C767 1.377 1_554 S
C768 C774 1.390 . S
C769 H760 0.930 . S
C769 C767 1.384 . S
C769 C770 1.372 . S
C770 C769 1.372 . S
C770 C771 1.400 1_556 S
C770 C775 1.490 . S
C771 H761 0.930 . S
C771 C770 1.400 1_554 S
C771 C774 1.386 . S
H772 C788 0.930 . S
H773 C789 0.931 . S
C774 H762 0.929 . S
C774 C768 1.390 . S
C774 C771 1.386 . S
C775 C770 1.490 . S
C775 C777 1.395 . S
C775 C778 1.403 . S
H776 C782 0.930 . S
C777 H763 0.930 . S
C777 C775 1.395 . S
C777 C780 1.403 . S
C778 C775 1.403 . S
C778 C779 1.524 . S
C778 C782 1.400 . S
C779 H764 0.960 . S
C779 H765 0.960 . S
C779 H766 0.960 1_556 S
C779 C778 1.524 . S
C780 C777 1.403 . S
C780 C781 1.392 . S
C780 C784 1.495 . S
C781 C780 1.392 . S
C781 C782 1.385 . S
C781 C783 1.478 . S
C782 H776 0.930 . S
C782 C778 1.400 . S
C782 C781 1.385 . S
C783 C781 1.478 . S
C783 C785 1.381 . S
C783 C789 1.383 . S
C784 C780 1.495 . S
C784 H790 0.959 . S
C784 H791 0.961 . S
C784 H792 0.960 . S
C785 C783 1.381 . S
C785 C786 1.394 . S
C785 H793 0.930 . S
C786 C785 1.394 . S
C786 C787 1.383 . S
C786 H794 0.929 . S
C787 C786 1.383 . S
C787 C788 1.377 . S
C788 H772 0.930 . S
C788 C787 1.377 . S
C788 C789 1.379 . S
C789 H773 0.931 . S
C789 C783 1.383 . S
C789 C788 1.379 . S
H790 C784 0.959 . S
H791 C784 0.961 . S
H792 C784 0.960 . S
H793 C785 0.930 . S
H794 C786 0.929 . S
H795 C803 0.929 . S
H796 C805 0.930 . S
H797 C807 0.930 . S
H798 C810 0.929 . S
H799 C813 0.930 . S
H800 C815 0.960 . S
H801 C815 0.960 . S
H802 C815 0.960 . S
C803 H795 0.929 . S
C803 C804 1.377 . S
C803 C805 1.384 . S
C804 C803 1.377 . S
C804 C810 1.390 1_554 S
C805 H796 0.930 . S
C805 C803 1.384 . S
C805 C806 1.372 1_554 S
C806 C805 1.372 1_556 S
C806 C807 1.400 . S
C806 C811 1.490 . S
C807 H797 0.930 . S
C807 C806 1.400 . S
C807 C810 1.386 . S
H808 C824 0.930 . S
H809 C825 0.931 . S
C810 H798 0.929 . S
C810 C804 1.390 1_556 S
C810 C807 1.386 . S
C811 C806 1.490 . S
C811 C813 1.395 . S
C811 C814 1.403 . S
H812 C818 0.930 . S
C813 H799 0.930 . S
C813 C811 1.395 . S
C813 C816 1.403 . S
C814 C811 1.403 . S
C814 C815 1.524 . S
C814 C818 1.400 . S
C815 H800 0.960 . S
C815 H801 0.960 . S
C815 H802 0.960 . S
C815 C814 1.524 . S
C816 C813 1.403 . S
C816 C817 1.392 . S
C816 C820 1.495 . S
C817 C816 1.392 . S
C817 C818 1.385 . S
C817 C819 1.478 . S
C818 H812 0.930 . S
C818 C814 1.400 . S
C818 C817 1.385 . S
C819 C817 1.478 . S
C819 C821 1.381 . S
C819 C825 1.383 . S
C820 C816 1.495 . S
C820 H826 0.959 . S
C820 H827 0.961 . S
C820 H828 0.960 . S
C821 C819 1.381 . S
C821 C822 1.394 . S
C821 H829 0.930 . S
C822 C821 1.394 . S
C822 C823 1.383 . S
C822 H830 0.929 . S
C823 C822 1.383 . S
C823 C824 1.377 . S
C824 H808 0.930 . S
C824 C823 1.377 . S
C824 C825 1.379 . S
C825 H809 0.931 . S
C825 C819 1.383 . S
C825 C824 1.379 . S
H826 C820 0.959 . S
H827 C820 0.961 . S
H828 C820 0.960 . S
H829 C821 0.930 . S
H830 C822 0.929 . S
H831 C839 0.929 . S
H832 C841 0.930 . S
H833 C843 0.930 . S
H834 C846 0.929 . S
H835 C849 0.930 . S
H836 C851 0.960 . S
H837 C851 0.960 . S
H838 C851 0.960 . S
C839 H831 0.929 . S
C839 C840 1.377 . S
C839 C841 1.384 . S
C840 C839 1.377 . S
C840 C846 1.390 . S
C841 H832 0.930 . S
C841 C839 1.384 . S
C841 C842 1.372 . S
C842 C841 1.372 . S
C842 C843 1.400 . S
C842 C847 1.490 . S
C843 H833 0.930 . S
C843 C842 1.400 . S
C843 C846 1.386 . S
H844 C860 0.930 . S
H845 C861 0.931 . S
C846 H834 0.929 . S
C846 C840 1.390 . S
C846 C843 1.386 . S
C847 C842 1.490 . S
C847 C849 1.395 . S
C847 C850 1.403 . S
H848 C854 0.930 . S
C849 H835 0.930 . S
C849 C847 1.395 . S
C849 C852 1.403 . S
C850 C847 1.403 . S
C850 C851 1.524 . S
C850 C854 1.400 . S
C851 H836 0.960 . S
C851 H837 0.960 . S
C851 H838 0.960 . S
C851 C850 1.524 . S
C852 C849 1.403 . S
C852 C853 1.392 . S
C852 C856 1.495 . S
C853 C852 1.392 . S
C853 C854 1.385 . S
C853 C855 1.478 . S
C854 H848 0.930 . S
C854 C850 1.400 . S
C854 C853 1.385 . S
C855 C853 1.478 . S
C855 C857 1.381 . S
C855 C861 1.383 . S
C856 C852 1.495 . S
C856 H862 0.959 . S
C856 H863 0.961 . S
C856 H864 0.960 . S
C857 C855 1.381 . S
C857 C858 1.394 . S
C857 H865 0.930 . S
C858 C857 1.394 . S
C858 C859 1.383 . S
C858 H866 0.929 . S
C859 C858 1.383 . S
C859 C860 1.377 . S
C860 H844 0.930 . S
C860 C859 1.377 . S
C860 C861 1.379 . S
C861 H845 0.931 . S
C861 C855 1.383 . S
C861 C860 1.379 . S
H862 C856 0.959 . S
H863 C856 0.961 . S
H864 C856 0.960 . S
H865 C857 0.930 . S
H866 C858 0.929 . S
H867 C875 0.929 . S
H868 C877 0.930 . S
H869 C879 0.930 . S
H870 C882 0.929 . S
H871 C885 0.930 . S
H872 C887 0.960 . S
H873 C887 0.960 . S
H874 C887 0.960 . S
C875 H867 0.929 . S
C875 C876 1.377 . S
C875 C877 1.384 . S
C876 C875 1.377 . S
C876 C882 1.390 . S
C877 H868 0.930 . S
C877 C875 1.384 . S
C877 C878 1.372 . S
C878 C877 1.372 . S
C878 C879 1.400 . S
C878 C883 1.490 . S
C879 H869 0.930 . S
C879 C878 1.400 . S
C879 C882 1.386 . S
H880 C896 0.930 . S
H881 C897 0.931 . S
C882 H870 0.929 . S
C882 C876 1.390 . S
C882 C879 1.386 . S
C883 C878 1.490 . S
C883 C885 1.395 . S
C883 C886 1.403 . S
H884 C890 0.930 . S
C885 H871 0.930 . S
C885 C883 1.395 . S
C885 C888 1.403 . S
C886 C883 1.403 . S
C886 C887 1.524 . S
C886 C890 1.400 . S
C887 H872 0.960 . S
C887 H873 0.960 . S
C887 H874 0.960 . S
C887 C886 1.524 . S
C888 C885 1.403 . S
C888 C889 1.392 . S
C888 C892 1.495 . S
C889 C888 1.392 . S
C889 C890 1.385 . S
C889 C891 1.478 . S
C890 H884 0.930 . S
C890 C886 1.400 . S
C890 C889 1.385 . S
C891 C889 1.478 . S
C891 C893 1.381 . S
C891 C897 1.383 . S
C892 C888 1.495 . S
C892 H898 0.959 . S
C892 H899 0.961 . S
C892 H900 0.960 . S
C893 C891 1.381 . S
C893 C894 1.394 . S
C893 H901 0.930 . S
C894 C893 1.394 . S
C894 C895 1.383 . S
C894 H902 0.929 . S
C895 C894 1.383 . S
C895 C896 1.377 . S
C896 H880 0.930 . S
C896 C895 1.377 . S
C896 C897 1.379 . S
C897 H881 0.931 . S
C897 C891 1.383 . S
C897 C896 1.379 . S
H898 C892 0.959 . S
H899 C892 0.961 . S
H900 C892 0.960 . S
H901 C893 0.930 . S
H902 C894 0.929 . S
H903 C911 0.929 . S
H904 C913 0.930 . S
H905 C915 0.930 . S
H906 C918 0.929 . S
H907 C921 0.930 . S
H908 C923 0.960 . S
H909 C923 0.960 . S
H910 C923 0.960 . S
C911 H903 0.929 . S
C911 C912 1.377 . S
C911 C913 1.384 . S
C912 C911 1.377 . S
C912 C918 1.390 . S
C913 H904 0.930 . S
C913 C911 1.384 . S
C913 C914 1.372 . S
C914 C913 1.372 . S
C914 C915 1.400 . S
C914 C919 1.490 . S
C915 H905 0.930 . S
C915 C914 1.400 . S
C915 C918 1.386 . S
H916 C932 0.930 . S
H917 C933 0.931 . S
C918 H906 0.929 . S
C918 C912 1.390 . S
C918 C915 1.386 . S
C919 C914 1.490 . S
C919 C921 1.395 . S
C919 C922 1.403 . S
H920 C926 0.930 . S
C921 H907 0.930 . S
C921 C919 1.395 . S
C921 C924 1.403 . S
C922 C919 1.403 . S
C922 C923 1.524 . S
C922 C926 1.400 . S
C923 H908 0.960 . S
C923 H909 0.960 . S
C923 H910 0.960 . S
C923 C922 1.524 . S
C924 C921 1.403 . S
C924 C925 1.392 . S
C924 C928 1.495 . S
C925 C924 1.392 . S
C925 C926 1.385 . S
C925 C927 1.478 . S
C926 H920 0.930 . S
C926 C922 1.400 . S
C926 C925 1.385 . S
C927 C925 1.478 . S
C927 C929 1.381 . S
C927 C933 1.383 . S
C928 C924 1.495 . S
C928 H934 0.959 . S
C928 H935 0.961 . S
C928 H936 0.960 . S
C929 C927 1.381 . S
C929 C930 1.394 . S
C929 H937 0.930 . S
C930 C929 1.394 . S
C930 C931 1.383 . S
C930 H938 0.929 . S
C931 C930 1.383 . S
C931 C932 1.377 . S
C932 H916 0.930 . S
C932 C931 1.377 . S
C932 C933 1.379 . S
C933 H917 0.931 . S
C933 C927 1.383 . S
C933 C932 1.379 . S
H934 C928 0.959 . S
H935 C928 0.961 . S
H936 C928 0.960 . S
H937 C929 0.930 . S
H938 C930 0.929 . S
H939 C947 0.929 . S
H940 C949 0.930 . S
H941 C951 0.930 . S
H942 C954 0.929 . S
H943 C957 0.930 . S
H944 C959 0.960 . S
H945 C959 0.960 . S
H946 C959 0.960 . S
C947 H939 0.929 . S
C947 C948 1.377 . S
C947 C949 1.384 . S
C948 C947 1.377 . S
C948 C954 1.390 . S
C949 H940 0.930 . S
C949 C947 1.384 . S
C949 C950 1.372 . S
C950 C949 1.372 . S
C950 C951 1.400 . S
C950 C955 1.490 . S
C951 H941 0.930 . S
C951 C950 1.400 . S
C951 C954 1.386 . S
H952 C968 0.930 . S
H953 C969 0.931 . S
C954 H942 0.929 . S
C954 C948 1.390 . S
C954 C951 1.386 . S
C955 C950 1.490 . S
C955 C957 1.395 . S
C955 C958 1.403 . S
H956 C962 0.930 . S
C957 H943 0.930 . S
C957 C955 1.395 . S
C957 C960 1.403 . S
C958 C955 1.403 . S
C958 C959 1.524 . S
C958 C962 1.400 . S
C959 H944 0.960 . S
C959 H945 0.960 . S
C959 H946 0.960 . S
C959 C958 1.524 . S
C960 C957 1.403 . S
C960 C961 1.392 . S
C960 C964 1.495 . S
C961 C960 1.392 . S
C961 C962 1.385 . S
C961 C963 1.478 . S
C962 H956 0.930 . S
C962 C958 1.400 . S
C962 C961 1.385 . S
C963 C961 1.478 . S
C963 C965 1.381 . S
C963 C969 1.383 . S
C964 C960 1.495 . S
C964 H970 0.959 . S
C964 H971 0.961 . S
C964 H972 0.960 . S
C965 C963 1.381 . S
C965 C966 1.394 . S
C965 H973 0.930 . S
C966 C965 1.394 . S
C966 C967 1.383 . S
C966 H974 0.929 . S
C967 C966 1.383 . S
C967 C968 1.377 . S
C968 H952 0.930 . S
C968 C967 1.377 . S
C968 C969 1.379 . S
C969 H953 0.931 . S
C969 C963 1.383 . S
C969 C968 1.379 . S
H970 C964 0.959 . S
H971 C964 0.961 . S
H972 C964 0.960 . S
H973 C965 0.930 . S
H974 C966 0.929 . S
H975 C983 0.929 . S
H976 C985 0.930 . S
H977 C987 0.930 . S
H978 C990 0.929 . S
H979 C993 0.930 . S
H980 C995 0.960 . S
H981 C995 0.960 . S
H982 C995 0.960 . S
C983 H975 0.929 . S
C983 C984 1.377 . S
C983 C985 1.384 . S
C984 C983 1.377 . S
C984 C990 1.390 . S
C985 H976 0.930 . S
C985 C983 1.384 . S
C985 C986 1.372 . S
C986 C985 1.372 . S
C986 C987 1.400 . S
C986 C991 1.490 . S
C987 H977 0.930 . S
C987 C986 1.400 . S
C987 C990 1.386 . S
H988 C1004 0.930 . S
H989 C1005 0.931 . S
C990 H978 0.929 . S
C990 C984 1.390 . S
C990 C987 1.386 . S
C991 C986 1.490 . S
C991 C993 1.395 . S
C991 C994 1.403 . S
H992 C998 0.930 . S
C993 H979 0.930 . S
C993 C991 1.395 . S
C993 C996 1.403 . S
C994 C991 1.403 . S
C994 C995 1.524 . S
C994 C998 1.400 . S
C995 H980 0.960 . S
C995 H981 0.960 . S
C995 H982 0.960 . S
C995 C994 1.524 . S
C996 C993 1.403 . S
C996 C997 1.392 . S
C996 C1000 1.495 . S
C997 C996 1.392 . S
C997 C998 1.385 . S
C997 C999 1.478 . S
C998 H992 0.930 . S
C998 C994 1.400 . S
C998 C997 1.385 . S
C999 C997 1.478 . S
C999 C1001 1.381 . S
C999 C1005 1.383 . S
C1000 C996 1.495 . S
C1000 H1006 0.959 . S
C1000 H1007 0.961 . S
C1000 H1008 0.960 . S
C1001 C999 1.381 . S
C1001 C1002 1.394 . S
C1001 H1009 0.930 . S
C1002 C1001 1.394 . S
C1002 C1003 1.383 . S
C1002 H1010 0.929 . S
C1003 C1002 1.383 . S
C1003 C1004 1.377 . S
C1004 H988 0.930 . S
C1004 C1003 1.377 . S
C1004 C1005 1.379 . S
C1005 H989 0.931 . S
C1005 C999 1.383 . S
C1005 C1004 1.379 . S
H1006 C1000 0.959 . S
H1007 C1000 0.961 . S
H1008 C1000 0.960 . S
H1009 C1001 0.930 . S
H1010 C1002 0.929 . S
H1011 C1019 0.929 . S
H1012 C1021 0.930 . S
H1013 C1023 0.930 . S
H1014 C1026 0.929 . S
H1015 C1029 0.930 . S
H1016 C1031 0.960 . S
H1017 C1031 0.960 . S
H1018 C1031 0.960 . S
C1019 H1011 0.929 . S
C1019 C1020 1.377 . S
C1019 C1021 1.384 . S
C1020 C1019 1.377 . S
C1020 C1026 1.390 . S
C1021 H1012 0.930 . S
C1021 C1019 1.384 . S
C1021 C1022 1.372 . S
C1022 C1021 1.372 . S
C1022 C1023 1.400 . S
C1022 C1027 1.490 . S
C1023 H1013 0.930 . S
C1023 C1022 1.400 . S
C1023 C1026 1.386 . S
H1024 C1040 0.930 . S
H1025 C1041 0.931 . S
C1026 H1014 0.929 . S
C1026 C1020 1.390 . S
C1026 C1023 1.386 . S
C1027 C1022 1.490 . S
C1027 C1029 1.395 . S
C1027 C1030 1.403 . S
H1028 C1034 0.930 . S
C1029 H1015 0.930 . S
C1029 C1027 1.395 . S
C1029 C1032 1.403 . S
C1030 C1027 1.403 . S
C1030 C1031 1.524 . S
C1030 C1034 1.400 . S
C1031 H1016 0.960 . S
C1031 H1017 0.960 . S
C1031 H1018 0.960 . S
C1031 C1030 1.524 . S
C1032 C1029 1.403 . S
C1032 C1033 1.392 . S
C1032 C1036 1.495 . S
C1033 C1032 1.392 . S
C1033 C1034 1.385 . S
C1033 C1035 1.478 . S
C1034 H1028 0.930 . S
C1034 C1030 1.400 . S
C1034 C1033 1.385 . S
C1035 C1033 1.478 . S
C1035 C1037 1.381 . S
C1035 C1041 1.383 . S
C1036 C1032 1.495 . S
C1036 H1042 0.959 . S
C1036 H1043 0.961 . S
C1036 H1044 0.960 . S
C1037 C1035 1.381 . S
C1037 C1038 1.394 . S
C1037 H1045 0.930 . S
C1038 C1037 1.394 . S
C1038 C1039 1.383 . S
C1038 H1046 0.929 . S
C1039 C1038 1.383 . S
C1039 C1040 1.377 . S
C1040 H1024 0.930 . S
C1040 C1039 1.377 . S
C1040 C1041 1.379 . S
C1041 H1025 0.931 . S
C1041 C1035 1.383 . S
C1041 C1040 1.379 . S
H1042 C1036 0.959 . S
H1043 C1036 0.961 . S
H1044 C1036 0.960 . S
H1045 C1037 0.930 . S
H1046 C1038 0.929 . S
H1047 C1055 0.929 . S
H1048 C1057 0.930 . S
H1049 C1059 0.930 . S
H1050 C1062 0.929 . S
H1051 C1065 0.930 . S
H1052 C1067 0.960 . S
H1053 C1067 0.960 . S
H1054 C1067 0.960 . S
C1055 H1047 0.929 . S
C1055 C1056 1.377 . S
C1055 C1057 1.384 . S
C1056 C1055 1.377 . S
C1056 C1062 1.390 . S
C1057 H1048 0.930 . S
C1057 C1055 1.384 . S
C1057 C1058 1.372 . S
C1058 C1057 1.372 . S
C1058 C1059 1.400 . S
C1058 C1063 1.490 . S
C1059 H1049 0.930 . S
C1059 C1058 1.400 . S
C1059 C1062 1.386 . S
H1060 C1076 0.930 . S
H1061 C1077 0.931 . S
C1062 H1050 0.929 . S
C1062 C1056 1.390 . S
C1062 C1059 1.386 . S
C1063 C1058 1.490 . S
C1063 C1065 1.395 . S
C1063 C1066 1.403 . S
H1064 C1070 0.930 . S
C1065 H1051 0.930 . S
C1065 C1063 1.395 . S
C1065 C1068 1.403 . S
C1066 C1063 1.403 . S
C1066 C1067 1.524 . S
C1066 C1070 1.400 . S
C1067 H1052 0.960 . S
C1067 H1053 0.960 . S
C1067 H1054 0.960 . S
C1067 C1066 1.524 . S
C1068 C1065 1.403 . S
C1068 C1069 1.392 . S
C1068 C1072 1.495 . S
C1069 C1068 1.392 . S
C1069 C1070 1.385 . S
C1069 C1071 1.478 . S
C1070 H1064 0.930 . S
C1070 C1066 1.400 . S
C1070 C1069 1.385 . S
C1071 C1069 1.478 . S
C1071 C1073 1.381 . S
C1071 C1077 1.383 . S
C1072 C1068 1.495 . S
C1072 H1078 0.959 . S
C1072 H1079 0.961 . S
C1072 H1080 0.960 . S
C1073 C1071 1.381 . S
C1073 C1074 1.394 . S
C1073 H1081 0.930 . S
C1074 C1073 1.394 . S
C1074 C1075 1.383 . S
C1074 H1082 0.929 . S
C1075 C1074 1.383 . S
C1075 C1076 1.377 . S
C1076 H1060 0.930 . S
C1076 C1075 1.377 . S
C1076 C1077 1.379 . S
C1077 H1061 0.931 . S
C1077 C1071 1.383 . S
C1077 C1076 1.379 . S
H1078 C1072 0.959 . S
H1079 C1072 0.961 . S
H1080 C1072 0.960 . S
H1081 C1073 0.930 . S
H1082 C1074 0.929 . S
C228 C12 1.765 . S
C247 C137 1.882 . S
C264 C40 1.658 . S
C283 C184 1.668 . S
C319 C188 1.911 . S
C300 C61 1.923 . S
C355 C153 1.578 . S
C336 C82 1.572 . S
C372 C96 1.681 . S
C391 C168 1.750 . S
C427 C190 1.047 . S
C408 C117 0.981 . S
C463 C159 1.502 . S
C444 C51 1.470 . S
C480 C72 1.402 1_556 S
C499 C199 1.434 . S
C535 C128 1.369 . S
C516 C101 1.297 1_556 S
C552 C122 1.464 . S
C571 C157 1.522 . S
C588 C17 1.944 . S
C607 C215 2.019 . S
C643 C126 1.571 . S
C624 C30 1.582 . S
C679 C144 1.866 . S
C660 C80 1.832 1_556 S
C715 C158 1.667 . S
C696 C93 1.602 1_556 S
C751 C212 1.901 . S
C732 C114 1.856 . S
C787 C127 1.555 . S
C768 C9 1.519 . S
C823 C175 1.736 . S
C804 C38 1.758 . S
C840 C59 1.003 . S
C859 C198 0.975 . S
C895 C167 1.415 . S
C876 C124 1.406 . S
C931 C206 1.343 . S
C912 C19 1.333 . S
C967 C136 1.343 . S
C948 C33 1.312 . S
C1003 C181 1.464 . S
C984 C54 1.481 . S
C1020 C75 1.966 . S
C1039 C189 1.994 . S
C1056 C103 1.520 . S
C1075 C150 1.582 . S
