# Generated by pormake.
# Topology ctn, (3,4)-cn, num edge types: 1
# Building blocks:
#     Node 0, Type 0, BuildingBlock: KAKCAD_clean_linker_0, # of connection points: 3
#     Node 1, Type 0, BuildingBlock: KAKCAD_clean_linker_0, # of connection points: 3
#     Node 2, Type 0, BuildingBlock: KAKCAD_clean_linker_0, # of connection points: 3
#     Node 3, Type 0, BuildingBlock: KAKCAD_clean_linker_0, # of connection points: 3
#     Node 4, Type 0, BuildingBlock: KAKCAD_clean_linker_0, # of connection points: 3
#     Node 5, Type 0, BuildingBlock: KAKCAD_clean_linker_0, # of connection points: 3
#     Node 6, Type 0, BuildingBlock: KAKCAD_clean_linker_0, # of connection points: 3
#     Node 7, Type 0, BuildingBlock: KAKCAD_clean_linker_0, # of connection points: 3
#     Node 8, Type 0, BuildingBlock: KAKCAD_clean_linker_0, # of connection points: 3
#     Node 9, Type 0, BuildingBlock: KAKCAD_clean_linker_0, # of connection points: 3
#     Node 10, Type 0, BuildingBlock: KAKCAD_clean_linker_0, # of connection points: 3
#     Node 11, Type 0, BuildingBlock: KAKCAD_clean_linker_0, # of connection points: 3
#     Node 12, Type 0, BuildingBlock: KAKCAD_clean_linker_0, # of connection points: 3
#     Node 13, Type 0, BuildingBlock: KAKCAD_clean_linker_0, # of connection points: 3
#     Node 14, Type 0, BuildingBlock: KAKCAD_clean_linker_0, # of connection points: 3
#     Node 15, Type 0, BuildingBlock: KAKCAD_clean_linker_0, # of connection points: 3
#     Node 16, Type 1, BuildingBlock: KUFVIS_clean_sbu_0, # of connection points: 4
#     Node 17, Type 1, BuildingBlock: KUFVIS_clean_sbu_0, # of connection points: 4
#     Node 18, Type 1, BuildingBlock: KUFVIS_clean_sbu_0, # of connection points: 4
#     Node 19, Type 1, BuildingBlock: KUFVIS_clean_sbu_0, # of connection points: 4
#     Node 20, Type 1, BuildingBlock: KUFVIS_clean_sbu_0, # of connection points: 4
#     Node 21, Type 1, BuildingBlock: KUFVIS_clean_sbu_0, # of connection points: 4
#     Node 22, Type 1, BuildingBlock: KUFVIS_clean_sbu_0, # of connection points: 4
#     Node 23, Type 1, BuildingBlock: KUFVIS_clean_sbu_0, # of connection points: 4
#     Node 24, Type 1, BuildingBlock: KUFVIS_clean_sbu_0, # of connection points: 4
#     Node 25, Type 1, BuildingBlock: KUFVIS_clean_sbu_0, # of connection points: 4
#     Node 26, Type 1, BuildingBlock: KUFVIS_clean_sbu_0, # of connection points: 4
#     Node 27, Type 1, BuildingBlock: KUFVIS_clean_sbu_0, # of connection points: 4
#     Edge 28, Type (0, 1), None
#     Edge 29, Type (0, 1), None
#     Edge 30, Type (0, 1), None
#     Edge 31, Type (0, 1), None
#     Edge 32, Type (0, 1), None
#     Edge 33, Type (0, 1), None
#     Edge 34, Type (0, 1), None
#     Edge 35, Type (0, 1), None
#     Edge 36, Type (0, 1), None
#     Edge 37, Type (0, 1), None
#     Edge 38, Type (0, 1), None
#     Edge 39, Type (0, 1), None
#     Edge 40, Type (0, 1), None
#     Edge 41, Type (0, 1), None
#     Edge 42, Type (0, 1), None
#     Edge 43, Type (0, 1), None
#     Edge 44, Type (0, 1), None
#     Edge 45, Type (0, 1), None
#     Edge 46, Type (0, 1), None
#     Edge 47, Type (0, 1), None
#     Edge 48, Type (0, 1), None
#     Edge 49, Type (0, 1), None
#     Edge 50, Type (0, 1), None
#     Edge 51, Type (0, 1), None
#     Edge 52, Type (0, 1), None
#     Edge 53, Type (0, 1), None
#     Edge 54, Type (0, 1), None
#     Edge 55, Type (0, 1), None
#     Edge 56, Type (0, 1), None
#     Edge 57, Type (0, 1), None
#     Edge 58, Type (0, 1), None
#     Edge 59, Type (0, 1), None
#     Edge 60, Type (0, 1), None
#     Edge 61, Type (0, 1), None
#     Edge 62, Type (0, 1), None
#     Edge 63, Type (0, 1), None
#     Edge 64, Type (0, 1), None
#     Edge 65, Type (0, 1), None
#     Edge 66, Type (0, 1), None
#     Edge 67, Type (0, 1), None
#     Edge 68, Type (0, 1), None
#     Edge 69, Type (0, 1), None
#     Edge 70, Type (0, 1), None
#     Edge 71, Type (0, 1), None
#     Edge 72, Type (0, 1), None
#     Edge 73, Type (0, 1), None
#     Edge 74, Type (0, 1), None
#     Edge 75, Type (0, 1), None
# Relax obj value: 0.012
# Max RMSD: 0.061
# Mean RMSD: 0.030
data_MOF--net-ctn--node1-KUFVIS_clean_sbu_0--node2-KAKCAD_clean_linker_0--edge1-none
_symmetry_space_group_name_H-M    P1
_symmetry_Int_Tables_number       1
_symmetry_cell_setting            triclinic
loop_
_symmetry_equiv_pos_as_xyz
'x, y, z'
_cell_length_a     36.019363
_cell_length_b     35.846426
_cell_length_c     35.997955
_cell_angle_alpha  91.333707
_cell_angle_beta   90.651629
_cell_angle_gamma 92.016416
loop_
_atom_site_label
_atom_site_type_symbol
_atom_site_fract_x
_atom_site_fract_y
_atom_site_fract_z
_atom_type_partial_charge
C0 C 0.02865 0.14496 0.94967 0.0
C1 C 1.00594 0.1724 0.96472 0.0
C2 C 0.03951 0.1148 0.97095 0.0
C3 C 0.02909 0.11172 0.00852 0.0
C4 C 1.00681 0.13994 0.02359 0.0
C5 C 0.99488 0.16938 1.00182 0.0
C6 C 0.04097 0.07924 0.03153 0.0
C7 C 0.07353 0.05989 0.02304 0.0
C8 C 0.08406 0.02855 0.04323 0.0
C9 C 0.06237 0.01777 0.07382 0.0
C10 C 0.03026 0.03693 0.08375 0.0
C11 C 0.01954 0.06698 0.06187 0.0
C12 C 0.00758 0.02536 0.11668 0.0
C13 C 1.00249 0.98747 0.12555 0.0
C14 C 0.99076 0.05216 0.13965 0.0
C15 C 0.96926 0.04142 0.17017 0.0
C16 C 0.96412 1.00352 0.17891 0.0
C17 C 0.1171 1.00649 0.03174 0.0
C18 C 0.12549 1.00102 0.99389 0.0
C19 C 0.13988 0.98964 0.05822 0.0
C20 C 0.16947 0.96752 0.04719 0.0
C21 C 0.1775 0.96177 0.00933 0.0
C22 C 0.15525 0.9792 0.98289 0.0
C23 C 0.98125 0.97675 0.15621 0.0
H24 H 0.03724 0.14627 0.92097 0.0
H25 H 0.05559 0.09364 0.9574 0.0
H26 H 0.99872 0.13979 0.05242 0.0
H27 H 0.97759 0.19028 0.01428 0.0
H28 H 0.09128 0.06947 1.00094 0.0
H29 H 0.99369 0.0801 0.06808 0.0
H30 H 0.07036 0.99414 0.08988 0.0
H31 H 0.01432 0.96583 0.10839 0.0
H32 H 0.99442 0.08165 0.13427 0.0
H33 H 0.95669 0.06292 0.18694 0.0
H34 H 0.10846 0.01281 0.97247 0.0
H35 H 0.13499 0.99357 0.08764 0.0
H36 H 0.97777 0.94726 0.1617 0.0
H37 H 0.16023 0.97535 0.95346 0.0
H38 H 0.18601 0.95483 0.06846 0.0
C39 C 0.42278 0.75499 0.30229 0.0
C40 C 0.44205 0.72451 0.31553 0.0
C41 C 0.39694 0.75024 0.27321 0.0
C42 C 0.39002 0.7149 0.25638 0.0
C43 C 0.41043 0.68461 0.2688 0.0
C44 C 0.43651 0.68947 0.2979 0.0
C45 C 0.36019 0.7094 0.2275 0.0
C46 C 0.35472 0.73605 0.19999 0.0
C47 C 0.32555 0.73132 0.1738 0.0
C48 C 0.30115 0.69985 0.17571 0.0
C49 C 0.30549 0.6735 0.20373 0.0
C50 C 0.33561 0.67823 0.22884 0.0
C51 C 0.2772 0.64274 0.20914 0.0
C52 C 0.26049 0.62256 0.17891 0.0
C53 C 0.26619 0.63383 0.24533 0.0
C54 C 0.23887 0.60626 0.25123 0.0
C55 C 0.22139 0.58707 0.22117 0.0
C56 C 0.31961 0.76007 0.14537 0.0
C57 C 0.31415 0.79742 0.15612 0.0
C58 C 0.31852 0.75023 0.10737 0.0
C59 C 0.31173 0.7771 0.08065 0.0
C60 C 0.30493 0.81421 0.09143 0.0
C61 C 0.3064 0.82411 0.12947 0.0
C62 C 0.23308 0.59453 0.18494 0.0
H63 H 0.42742 0.78257 0.31479 0.0
H64 H 0.38156 0.77409 0.26472 0.0
H65 H 0.40617 0.65709 0.25609 0.0
H66 H 0.4517 0.66578 0.30714 0.0
H67 H 0.37342 0.76033 0.19861 0.0
H68 H 0.33926 0.65806 0.25042 0.0
H69 H 0.27776 0.69696 0.15652 0.0
H70 H 0.26863 0.62837 0.15071 0.0
H71 H 0.2779 0.64886 0.2693 0.0
H72 H 0.2309 0.60034 0.27949 0.0
H73 H 0.31473 0.8057 0.18527 0.0
H74 H 0.32275 0.72166 0.09836 0.0
H75 H 0.22036 0.57945 0.16139 0.0
H76 H 0.30105 0.85237 0.13867 0.0
H77 H 0.31034 0.76845 0.05162 0.0
C78 C 0.03476 0.53709 0.17113 0.0
C79 C 0.0706 0.52325 0.17373 0.0
C80 C 0.01149 0.52721 0.14075 0.0
C81 C 0.02384 0.50425 0.11124 0.0
C82 C 0.06008 0.49075 0.11396 0.0
C83 C 0.08289 0.4997 0.145 0.0
C84 C 0.99876 0.49415 0.07841 0.0
C85 C 0.97057 0.51822 0.06766 0.0
C86 C 0.94368 0.50764 0.04019 0.0
C87 C 0.94735 0.47317 0.02113 0.0
C88 C 0.97667 0.44953 0.02954 0.0
C89 C 1.00177 0.45999 0.05849 0.0
C90 C 0.97971 0.41285 0.00937 0.0
C91 C 0.94825 0.38898 1.00476 0.0
C92 C 0.01357 0.40157 0.99419 0.0
C93 C 0.01546 0.36772 0.97368 0.0
C94 C 0.98363 0.34414 0.96849 0.0
C95 C 0.911 0.53187 0.03315 0.0
C96 C 0.89683 0.55392 0.06228 0.0
C97 C 0.89297 0.5328 0.99809 0.0
C98 C 0.86179 0.55484 0.99264 0.0
C99 C 0.84838 0.57712 0.02185 0.0
C100 C 0.86651 0.57646 0.05658 0.0
C101 C 0.9502 0.35516 0.98492 0.0
H102 H 0.02444 0.55512 0.19298 0.0
H103 H 0.98358 0.5374 0.14086 0.0
H104 H 0.07132 0.47368 0.09191 0.0
H105 H 0.11064 0.48902 0.14599 0.0
H106 H 0.96953 0.54557 0.08082 0.0
H107 H 0.02266 0.44055 0.0663 0.0
H108 H 0.9271 0.46423 1.00002 0.0
H109 H 0.92191 0.39649 0.01653 0.0
H110 H 0.03834 0.41943 0.99732 0.0
H111 H 0.04163 0.36036 0.96148 0.0
H112 H 0.90856 0.55337 0.09006 0.0
H113 H 0.90296 0.51673 0.97468 0.0
H114 H 0.92492 0.33806 0.98181 0.0
H115 H 0.85661 0.5927 0.07997 0.0
H116 H 0.84843 0.55469 0.96553 0.0
C117 C 0.67442 0.73539 0.09635 0.0
C118 C 0.70842 0.71874 0.08868 0.0
C119 C 0.6715 0.76103 0.12612 0.0
C120 C 0.70265 0.77109 0.14852 0.0
C121 C 0.73656 0.75436 0.14096 0.0
C122 C 0.73936 0.72835 0.1116 0.0
C123 C 0.70014 0.79921 0.17946 0.0
C124 C 0.67121 0.79677 0.20543 0.0
C125 C 0.67047 0.82179 0.23611 0.0
C126 C 0.69822 0.85013 0.23997 0.0
C127 C 0.72682 0.85367 0.21384 0.0
C128 C 0.72764 0.82791 0.18383 0.0
C129 C 0.7566 0.88333 0.21884 0.0
C130 C 0.77153 0.89168 0.25441 0.0
C131 C 0.77056 0.9033 0.18841 0.0
C132 C 0.79912 0.93065 0.19352 0.0
C133 C 0.81466 0.93779 0.22896 0.0
C134 C 0.64193 0.81732 0.26533 0.0
C135 C 0.60388 0.81686 0.2563 0.0
C136 C 0.65277 0.81291 0.30257 0.0
C137 C 0.62614 0.80656 0.32999 0.0
C138 C 0.58807 0.80549 0.32092 0.0
C139 C 0.57719 0.81147 0.28391 0.0
C140 C 0.80001 0.91873 0.2594 0.0
H141 H 0.64998 0.72858 0.07939 0.0
H142 H 0.64504 0.77356 0.13118 0.0
H143 H 0.76098 0.76123 0.15796 0.0
H144 H 0.766 0.71619 0.10656 0.0
H145 H 0.65025 0.77439 0.20273 0.0
H146 H 0.75007 0.82985 0.16407 0.0
H147 H 0.69723 0.8697 0.26332 0.0
H148 H 0.76183 0.87669 0.27842 0.0
H149 H 0.75927 0.89793 0.16072 0.0
H150 H 0.80958 0.9456 0.16979 0.0
H151 H 0.59483 0.8204 0.22784 0.0
H152 H 0.68196 0.8131 0.31024 0.0
H153 H 0.81094 0.92448 0.28719 0.0
H154 H 0.54808 0.81027 0.27594 0.0
H155 H 0.63537 0.80175 0.35817 0.0
C156 C 0.94723 0.99273 0.38531 0.0
C157 C 0.96333 0.98709 0.35031 0.0
C158 C 0.96775 0.98719 0.41803 0.0
C159 C 1.00496 0.97673 0.41633 0.0
C160 C 0.02143 0.97253 0.38135 0.0
C161 C 1.00065 0.97699 0.3487 0.0
C162 C 0.02704 0.97128 0.45085 0.0
C163 C 0.01762 0.94257 0.47552 0.0
C164 C 0.0393 0.9373 0.50787 0.0
C165 C 0.06913 0.96294 0.51604 0.0
C166 C 0.07938 0.99119 0.49138 0.0
C167 C 0.05851 0.99446 0.45845 0.0
C168 C 0.11235 0.01672 0.4996 0.0
C169 C 0.12004 0.03071 0.53595 0.0
C170 C 0.13645 0.02741 0.47097 0.0
C171 C 0.16646 0.05239 0.47815 0.0
C172 C 0.1731 0.06746 0.51404 0.0
C173 C 0.03258 0.90433 0.53234 0.0
C174 C 0.99675 0.88812 0.53751 0.0
C175 C 0.06272 0.8884 0.55073 0.0
C176 C 0.05726 0.85848 0.5744 0.0
C177 C 0.02167 0.84248 0.57966 0.0
C178 C 0.99144 0.85724 0.56061 0.0
C179 C 0.15042 0.05554 0.54316 0.0
H180 H 0.91827 0.99962 0.38733 0.0
H181 H 0.95456 0.99095 0.44469 0.0
H182 H 0.05014 0.96475 0.3793 0.0
H183 H 0.01353 0.97187 0.3221 0.0
H184 H 0.99446 0.92354 0.46848 0.0
H185 H 0.06626 0.01551 0.43872 0.0
H186 H 0.08525 0.96039 0.54135 0.0
H187 H 0.10204 0.02329 0.5587 0.0
H188 H 0.13212 0.01656 0.44287 0.0
H189 H 0.18428 0.06039 0.45541 0.0
H190 H 0.97271 0.89947 0.52416 0.0
H191 H 0.09097 0.89859 0.5466 0.0
H192 H 0.1553 0.06653 0.57114 0.0
H193 H 0.96365 0.84538 0.56408 0.0
H194 H 0.08129 0.84729 0.58803 0.0
C195 C 0.09098 0.6718 0.74422 0.0
C196 C 0.084 0.70623 0.72788 0.0
C197 C 0.12089 0.66846 0.76908 0.0
C198 C 0.14409 0.69961 0.77873 0.0
C199 C 0.1372 0.73396 0.76233 0.0
C200 C 0.10774 0.73717 0.73702 0.0
C201 C 0.1751 0.69668 0.80616 0.0
C202 C 0.20099 0.66829 0.80254 0.0
C203 C 0.23174 0.66721 0.82694 0.0
C204 C 0.23568 0.69406 0.8559 0.0
C205 C 0.20953 0.72206 0.8607 0.0
C206 C 0.17953 0.72324 0.83543 0.0
C207 C 0.21446 0.751 0.89104 0.0
C208 C 0.25005 0.76623 0.89978 0.0
C209 C 0.18386 0.76429 0.91094 0.0
C210 C 0.1888 0.7927 0.93828 0.0
C211 C 0.22426 0.80874 0.94558 0.0
C212 C 0.26071 0.63906 0.82131 0.0
C213 C 0.25133 0.60069 0.82039 0.0
C214 C 0.298 0.65057 0.81616 0.0
C215 C 0.3251 0.6243 0.80889 0.0
C216 C 0.3157 0.58589 0.80761 0.0
C217 C 0.27862 0.57436 0.8141 0.0
C218 C 0.25486 0.79455 0.92682 0.0
H219 H 0.07336 0.64735 0.73776 0.0
H220 H 0.12544 0.64167 0.78137 0.0
H221 H 0.15479 0.75838 0.76893 0.0
H222 H 0.10322 0.76412 0.7251 0.0
H223 H 0.19813 0.64803 0.77976 0.0
H224 H 0.15979 0.74525 0.83816 0.0
H225 H 0.25906 0.69276 0.875 0.0
H226 H 0.27421 0.75715 0.88491 0.0
H227 H 0.15612 0.75278 0.90534 0.0
H228 H 0.1649 0.80281 0.95291 0.0
H229 H 0.22284 0.59109 0.82443 0.0
H230 H 0.30595 0.68001 0.81665 0.0
H231 H 0.28265 0.80593 0.93258 0.0
H232 H 0.27037 0.545 0.81285 0.0
H233 H 0.35334 0.63408 0.80378 0.0
C234 C 0.04016 0.64562 0.57031 0.0
C235 C 0.00998 0.66648 0.58206 0.0
C236 C 0.03476 0.6156 0.54484 0.0
C237 C 0.99912 0.60619 0.53027 0.0
C238 C 0.96922 0.62798 0.54129 0.0
C239 C 0.97469 0.65797 0.56657 0.0
C240 C 0.99296 0.5743 0.50316 0.0
C241 C 0.01679 0.56954 0.47281 0.0
C242 C 0.00939 0.54148 0.44528 0.0
C243 C 0.97803 0.51728 0.44921 0.0
C244 C 0.95386 0.52145 0.47959 0.0
C245 C 0.96178 0.54991 0.50631 0.0
C246 C 0.91846 0.49859 0.48186 0.0
C247 C 0.8955 0.49342 0.45032 0.0
C248 C 0.90627 0.48356 0.51568 0.0
C249 C 0.87211 0.46342 0.51765 0.0
C250 C 0.84912 0.45831 0.48593 0.0
C251 C 0.03248 0.54015 0.41089 0.0
C252 C 0.04159 0.57346 0.39283 0.0
C253 C 0.04532 0.50644 0.39558 0.0
C254 C 0.0674 0.50636 0.36339 0.0
C255 C 0.07654 0.53995 0.34547 0.0
C256 C 0.06304 0.57337 0.36078 0.0
C257 C 0.8614 0.47383 0.45234 0.0
H258 H 0.06781 0.65221 0.58125 0.0
H259 H 0.05839 0.5995 0.53688 0.0
H260 H 0.94158 0.62217 0.52997 0.0
H261 H 0.95126 0.67465 0.57395 0.0
H262 H 0.04051 0.58866 0.46988 0.0
H263 H 0.94282 0.55389 0.52904 0.0
H264 H 0.97169 0.49605 0.42793 0.0
H265 H 0.90359 0.50517 0.42404 0.0
H266 H 0.92337 0.48704 0.54054 0.0
H267 H 0.86384 0.45177 0.54391 0.0
H268 H 0.03174 0.59986 0.4033 0.0
H269 H 0.03877 0.48024 0.40882 0.0
H270 H 0.84482 0.47058 0.4271 0.0
H271 H 0.06925 0.59997 0.34818 0.0
H272 H 0.07719 0.48009 0.35254 0.0
C273 C 0.81174 0.72943 0.9351 0.0
C274 C 0.77367 0.71906 0.93538 0.0
C275 C 0.82547 0.75513 0.90909 0.0
C276 C 0.80129 0.77086 0.88314 0.0
C277 C 0.76368 0.75953 0.88293 0.0
C278 C 0.75013 0.73425 0.90854 0.0
C279 C 0.81414 0.79925 0.85611 0.0
C280 C 0.84544 0.79366 0.83404 0.0
C281 C 0.85497 0.81835 0.80526 0.0
C282 C 0.83244 0.84934 0.79942 0.0
C283 C 0.80063 0.85482 0.82101 0.0
C284 C 0.79225 0.83012 0.84953 0.0
C285 C 0.77371 0.88397 0.81214 0.0
C286 C 0.78415 0.92209 0.81354 0.0
C287 C 0.73656 0.87343 0.80361 0.0
C288 C 0.71047 0.90033 0.79597 0.0
C289 C 0.72071 0.93851 0.7975 0.0
C290 C 0.88621 0.80936 0.77954 0.0
C291 C 0.91706 0.78997 0.79239 0.0
C292 C 0.88404 0.81693 0.74126 0.0
C293 C 0.91072 0.80373 0.71652 0.0
C294 C 0.93977 0.78217 0.72936 0.0
C295 C 0.94306 0.77599 0.76755 0.0
C296 C 0.75778 0.94914 0.80668 0.0
H297 H 0.83071 0.71811 0.95512 0.0
H298 H 0.85472 0.76326 0.90973 0.0
H299 H 0.74447 0.77018 0.86272 0.0
H300 H 0.72076 0.72668 0.90701 0.0
H301 H 0.86085 0.76862 0.8379 0.0
H302 H 0.76779 0.83451 0.86615 0.0
H303 H 0.83874 0.86853 0.77738 0.0
H304 H 0.81253 0.93092 0.82033 0.0
H305 H 0.72779 0.84419 0.8024 0.0
H306 H 0.68226 0.89121 0.78873 0.0
H307 H 0.92059 0.78441 0.82162 0.0
H308 H 0.86067 0.83122 0.72989 0.0
H309 H 0.76666 0.97834 0.80758 0.0
H310 H 0.96523 0.75934 0.77807 0.0
H311 H 0.90725 0.80828 0.68705 0.0
C312 C 0.31175 0.22943 0.4351 0.0
C313 C 0.27368 0.21906 0.43538 0.0
C314 C 0.32547 0.25514 0.40909 0.0
C315 C 0.3013 0.27087 0.38313 0.0
C316 C 0.26369 0.25953 0.38293 0.0
C317 C 0.25013 0.23426 0.40854 0.0
C318 C 0.31414 0.29926 0.3561 0.0
C319 C 0.34545 0.29366 0.33404 0.0
C320 C 0.35498 0.31835 0.30525 0.0
C321 C 0.33244 0.34934 0.29941 0.0
C322 C 0.30063 0.35482 0.32101 0.0
C323 C 0.29226 0.33012 0.34952 0.0
C324 C 0.27372 0.38397 0.31214 0.0
C325 C 0.28415 0.42209 0.31354 0.0
C326 C 0.23656 0.37343 0.3036 0.0
C327 C 0.21048 0.40034 0.29596 0.0
C328 C 0.22071 0.43851 0.29749 0.0
C329 C 0.38621 0.30936 0.27953 0.0
C330 C 0.41707 0.28997 0.29239 0.0
C331 C 0.38404 0.31693 0.24126 0.0
C332 C 0.41072 0.30372 0.21652 0.0
C333 C 0.43977 0.28217 0.22935 0.0
C334 C 0.44306 0.27599 0.26754 0.0
C335 C 0.25779 0.44915 0.30667 0.0
H336 H 0.33071 0.21811 0.45512 0.0
H337 H 0.35472 0.26326 0.40972 0.0
H338 H 0.24448 0.27019 0.36271 0.0
H339 H 0.22077 0.22669 0.40701 0.0
H340 H 0.36086 0.26862 0.3379 0.0
H341 H 0.2678 0.33451 0.36615 0.0
H342 H 0.33874 0.36853 0.27738 0.0
H343 H 0.31254 0.43092 0.32032 0.0
H344 H 0.22779 0.3442 0.3024 0.0
H345 H 0.18227 0.39121 0.28873 0.0
H346 H 0.42059 0.28441 0.32162 0.0
H347 H 0.36068 0.33122 0.22988 0.0
H348 H 0.26666 0.47834 0.30757 0.0
H349 H 0.46523 0.25934 0.27806 0.0
H350 H 0.40725 0.30827 0.18705 0.0
C351 C 0.53475 0.03709 0.67114 0.0
C352 C 0.57059 0.02325 0.67374 0.0
C353 C 0.51148 0.02721 0.64075 0.0
C354 C 0.52384 1.00425 0.61125 0.0
C355 C 0.56008 0.99075 0.61396 0.0
C356 C 0.58288 0.99969 0.645 0.0
C357 C 0.49876 0.99415 0.57841 0.0
C358 C 0.47056 0.01822 0.56766 0.0
C359 C 0.44368 0.00764 0.54019 0.0
C360 C 0.44735 0.97317 0.52114 0.0
C361 C 0.47667 0.94953 0.52954 0.0
C362 C 0.50177 0.95999 0.5585 0.0
C363 C 0.47971 0.91285 0.50937 0.0
C364 C 0.44825 0.88898 0.50476 0.0
C365 C 0.51357 0.90157 0.4942 0.0
C366 C 0.51546 0.86772 0.47369 0.0
C367 C 0.48363 0.84414 0.46849 0.0
C368 C 0.411 0.03187 0.53315 0.0
C369 C 0.39683 0.05393 0.56228 0.0
C370 C 0.39297 0.0328 0.49809 0.0
C371 C 0.36179 0.05484 0.49263 0.0
C372 C 0.34838 0.07712 0.52185 0.0
C373 C 0.36651 0.07646 0.55658 0.0
C374 C 0.4502 0.85516 0.48492 0.0
H375 H 0.52443 0.05512 0.69298 0.0
H376 H 0.48357 0.0374 0.64086 0.0
H377 H 0.57132 0.97368 0.59192 0.0
H378 H 0.61064 0.98902 0.646 0.0
H379 H 0.46953 0.04557 0.58082 0.0
H380 H 0.52266 0.94055 0.5663 0.0
H381 H 0.4271 0.96423 0.50002 0.0
H382 H 0.42191 0.89649 0.51653 0.0
H383 H 0.53834 0.91943 0.49732 0.0
H384 H 0.54163 0.86036 0.46148 0.0
H385 H 0.40856 0.05337 0.59006 0.0
H386 H 0.40297 0.01673 0.47468 0.0
H387 H 0.42492 0.83806 0.48181 0.0
H388 H 0.35661 0.09271 0.57997 0.0
H389 H 0.34843 0.0547 0.46553 0.0
C390 C 0.17442 0.2354 0.59635 0.0
C391 C 0.20842 0.21874 0.58868 0.0
C392 C 0.1715 0.26103 0.62612 0.0
C393 C 0.20265 0.27109 0.64852 0.0
C394 C 0.23656 0.25436 0.64096 0.0
C395 C 0.23936 0.22835 0.6116 0.0
C396 C 0.20014 0.29921 0.67946 0.0
C397 C 0.17122 0.29676 0.70543 0.0
C398 C 0.17048 0.32179 0.73611 0.0
C399 C 0.19822 0.35013 0.73997 0.0
C400 C 0.22683 0.35367 0.71384 0.0
C401 C 0.22764 0.32791 0.68383 0.0
C402 C 0.2566 0.38333 0.71884 0.0
C403 C 0.27153 0.39168 0.75441 0.0
C404 C 0.27056 0.4033 0.68841 0.0
C405 C 0.29913 0.43065 0.69352 0.0
C406 C 0.31467 0.43778 0.72896 0.0
C407 C 0.14193 0.31732 0.76533 0.0
C408 C 0.10389 0.31686 0.7563 0.0
C409 C 0.15278 0.3129 0.80257 0.0
C410 C 0.12614 0.30656 0.82999 0.0
C411 C 0.08807 0.30549 0.82092 0.0
C412 C 0.0772 0.31147 0.78391 0.0
C413 C 0.30001 0.41873 0.75939 0.0
H414 H 0.14998 0.22859 0.57938 0.0
H415 H 0.14504 0.27356 0.63118 0.0
H416 H 0.26098 0.26122 0.65796 0.0
H417 H 0.266 0.2162 0.60656 0.0
H418 H 0.15025 0.27439 0.70273 0.0
H419 H 0.25007 0.32985 0.66407 0.0
H420 H 0.19724 0.3697 0.76332 0.0
H421 H 0.26183 0.37669 0.77841 0.0
H422 H 0.25927 0.39793 0.66072 0.0
H423 H 0.30958 0.4456 0.66978 0.0
H424 H 0.09483 0.3204 0.72784 0.0
H425 H 0.18196 0.3131 0.81024 0.0
H426 H 0.31095 0.42447 0.78719 0.0
H427 H 0.04808 0.31027 0.77594 0.0
H428 H 0.13537 0.30175 0.85816 0.0
C429 C 0.92278 0.25499 0.80229 0.0
C430 C 0.94205 0.22451 0.81552 0.0
C431 C 0.89693 0.25024 0.77321 0.0
C432 C 0.89001 0.2149 0.75638 0.0
C433 C 0.91042 0.18461 0.7688 0.0
C434 C 0.9365 0.18947 0.7979 0.0
C435 C 0.86018 0.2094 0.7275 0.0
C436 C 0.85472 0.23605 0.69999 0.0
C437 C 0.82554 0.23132 0.6738 0.0
C438 C 0.80115 0.19985 0.67571 0.0
C439 C 0.80548 0.1735 0.70374 0.0
C440 C 0.8356 0.17823 0.72884 0.0
C441 C 0.77719 0.14274 0.70915 0.0
C442 C 0.76048 0.12256 0.67892 0.0
C443 C 0.76618 0.13383 0.74533 0.0
C444 C 0.73886 0.10626 0.75123 0.0
C445 C 0.72138 0.08707 0.72118 0.0
C446 C 0.81961 0.26007 0.64537 0.0
C447 C 0.81416 0.29742 0.65612 0.0
C448 C 0.81851 0.25023 0.60737 0.0
C449 C 0.81173 0.27711 0.58065 0.0
C450 C 0.80493 0.31422 0.59143 0.0
C451 C 0.80641 0.32411 0.62947 0.0
C452 C 0.73307 0.09453 0.68495 0.0
H453 H 0.92742 0.28257 0.81479 0.0
H454 H 0.88155 0.27409 0.76472 0.0
H455 H 0.90616 0.15709 0.75609 0.0
H456 H 0.95169 0.16578 0.80714 0.0
H457 H 0.87342 0.26032 0.6986 0.0
H458 H 0.83925 0.15806 0.75042 0.0
H459 H 0.77775 0.19696 0.65653 0.0
H460 H 0.76862 0.12837 0.65072 0.0
H461 H 0.77789 0.14887 0.76931 0.0
H462 H 0.73089 0.10034 0.7795 0.0
H463 H 0.81474 0.3057 0.68527 0.0
H464 H 0.82274 0.22166 0.59836 0.0
H465 H 0.72035 0.07945 0.6614 0.0
H466 H 0.80106 0.35238 0.63867 0.0
H467 H 0.81034 0.26845 0.55162 0.0
C468 C 0.52866 0.64496 0.44968 0.0
C469 C 0.50595 0.6724 0.46473 0.0
C470 C 0.53952 0.6148 0.47096 0.0
C471 C 0.5291 0.61172 0.50852 0.0
C472 C 0.50682 0.63994 0.5236 0.0
C473 C 0.49488 0.66938 0.50183 0.0
C474 C 0.54098 0.57925 0.53153 0.0
C475 C 0.57354 0.5599 0.52304 0.0
C476 C 0.58408 0.52855 0.54323 0.0
C477 C 0.56238 0.51777 0.57382 0.0
C478 C 0.53027 0.53693 0.58375 0.0
C479 C 0.51955 0.56698 0.56187 0.0
C480 C 0.50759 0.52536 0.61668 0.0
C481 C 0.5025 0.48747 0.62555 0.0
C482 C 0.49077 0.55216 0.63965 0.0
C483 C 0.46927 0.54141 0.67017 0.0
C484 C 0.46413 0.50352 0.67891 0.0
C485 C 0.61712 0.50649 0.53174 0.0
C486 C 0.62551 0.50103 0.49389 0.0
C487 C 0.6399 0.48965 0.55823 0.0
C488 C 0.66949 0.46753 0.5472 0.0
C489 C 0.67752 0.46178 0.50933 0.0
C490 C 0.65526 0.47921 0.48289 0.0
C491 C 0.48126 0.47674 0.65621 0.0
H492 H 0.53725 0.64628 0.42098 0.0
H493 H 0.5556 0.59364 0.45741 0.0
H494 H 0.49872 0.63979 0.55243 0.0
H495 H 0.4776 0.69028 0.51428 0.0
H496 H 0.5913 0.56948 0.50095 0.0
H497 H 0.4937 0.5801 0.56809 0.0
H498 H 0.57037 0.49415 0.58988 0.0
H499 H 0.51434 0.46583 0.60839 0.0
H500 H 0.49443 0.58165 0.63427 0.0
H501 H 0.4567 0.56292 0.68694 0.0
H502 H 0.60847 0.51282 0.47248 0.0
H503 H 0.635 0.49358 0.58765 0.0
H504 H 0.47779 0.44726 0.6617 0.0
H505 H 0.66025 0.47537 0.45346 0.0
H506 H 0.68603 0.45484 0.56846 0.0
C507 C 0.44724 0.49272 0.8853 0.0
C508 C 0.46334 0.48708 0.85031 0.0
C509 C 0.46776 0.48719 0.91803 0.0
C510 C 0.50496 0.47673 0.91632 0.0
C511 C 0.52144 0.47252 0.88135 0.0
C512 C 0.50065 0.47699 0.8487 0.0
C513 C 0.52704 0.47127 0.95085 0.0
C514 C 0.51762 0.44256 0.97551 0.0
C515 C 0.5393 0.43729 0.00787 0.0
C516 C 0.56913 0.46293 0.01604 0.0
C517 C 0.57938 0.49119 0.99138 0.0
C518 C 0.55852 0.49445 0.95845 0.0
C519 C 0.61235 0.51671 0.9996 0.0
C520 C 0.62004 0.5307 0.03595 0.0
C521 C 0.63645 0.5274 0.97097 0.0
C522 C 0.66646 0.55239 0.97815 0.0
C523 C 0.6731 0.56746 0.01404 0.0
C524 C 0.53258 0.40432 0.03234 0.0
C525 C 0.49676 0.3881 0.03751 0.0
C526 C 0.56272 0.38838 0.05073 0.0
C527 C 0.55726 0.35847 0.0744 0.0
C528 C 0.52167 0.34247 0.07966 0.0
C529 C 0.49144 0.35723 0.0606 0.0
C530 C 0.65042 0.55553 0.04316 0.0
H531 H 0.41827 0.49961 0.88733 0.0
H532 H 0.45456 0.49094 0.94468 0.0
H533 H 0.55014 0.46474 0.8793 0.0
H534 H 0.51353 0.47186 0.8221 0.0
H535 H 0.49447 0.42353 0.96847 0.0
H536 H 0.56626 0.5155 0.93872 0.0
H537 H 0.58525 0.46038 0.04135 0.0
H538 H 0.60204 0.52328 0.0587 0.0
H539 H 0.63212 0.51656 0.94287 0.0
H540 H 0.68428 0.56038 0.95541 0.0
H541 H 0.47271 0.39946 0.02416 0.0
H542 H 0.59097 0.39858 0.04659 0.0
H543 H 0.65529 0.56652 0.07114 0.0
H544 H 0.46366 0.34537 0.06408 0.0
H545 H 0.58129 0.34728 0.08802 0.0
C546 C 0.59098 0.1718 0.24423 0.0
C547 C 0.584 0.20623 0.22788 0.0
C548 C 0.62089 0.16846 0.26909 0.0
C549 C 0.64409 0.19962 0.27873 0.0
C550 C 0.6372 0.23396 0.26233 0.0
C551 C 0.60774 0.23717 0.23702 0.0
C552 C 0.6751 0.19669 0.30616 0.0
C553 C 0.70099 0.1683 0.30254 0.0
C554 C 0.73174 0.16722 0.32694 0.0
C555 C 0.73569 0.19407 0.35591 0.0
C556 C 0.70953 0.22207 0.3607 0.0
C557 C 0.67954 0.22325 0.33543 0.0
C558 C 0.71447 0.25101 0.39104 0.0
C559 C 0.75005 0.26625 0.39977 0.0
C560 C 0.68387 0.26431 0.41093 0.0
C561 C 0.68881 0.29272 0.43828 0.0
C562 C 0.72427 0.30876 0.44558 0.0
C563 C 0.76071 0.13907 0.32131 0.0
C564 C 0.75133 0.1007 0.3204 0.0
C565 C 0.798 0.15058 0.31616 0.0
C566 C 0.8251 0.12431 0.30889 0.0
C567 C 0.8157 0.0859 0.30762 0.0
C568 C 0.77862 0.07436 0.3141 0.0
C569 C 0.75487 0.29456 0.42681 0.0
H570 H 0.57336 0.14735 0.23776 0.0
H571 H 0.62545 0.14168 0.28137 0.0
H572 H 0.65479 0.25839 0.26893 0.0
H573 H 0.60322 0.26412 0.2251 0.0
H574 H 0.69813 0.14803 0.27977 0.0
H575 H 0.6598 0.24526 0.33816 0.0
H576 H 0.75906 0.19277 0.375 0.0
H577 H 0.77422 0.25716 0.3849 0.0
H578 H 0.65613 0.25279 0.40534 0.0
H579 H 0.66491 0.30283 0.45291 0.0
H580 H 0.72283 0.0911 0.32444 0.0
H581 H 0.80595 0.18002 0.31665 0.0
H582 H 0.78266 0.30595 0.43258 0.0
H583 H 0.77036 0.04501 0.31286 0.0
H584 H 0.85334 0.13408 0.30378 0.0
C585 C 0.54015 0.14561 0.07031 0.0
C586 C 0.50997 0.16647 0.08206 0.0
C587 C 0.53475 0.11559 0.04484 0.0
C588 C 0.49911 0.10618 0.03027 0.0
C589 C 0.46921 0.12797 0.04129 0.0
C590 C 0.47468 0.15796 0.06658 0.0
C591 C 0.49294 0.07429 1.00316 0.0
C592 C 0.51677 0.06953 0.97281 0.0
C593 C 0.50938 0.04146 0.94528 0.0
C594 C 0.47801 0.01727 0.94921 0.0
C595 C 0.45384 0.02144 0.97959 0.0
C596 C 0.46176 0.0499 1.00631 0.0
C597 C 0.41844 0.99858 0.98186 0.0
C598 C 0.39549 0.99341 0.95032 0.0
C599 C 0.40625 0.98355 0.01568 0.0
C600 C 0.37209 0.96342 0.01765 0.0
C601 C 0.3491 0.9583 0.98593 0.0
C602 C 0.53246 0.04014 0.91089 0.0
C603 C 0.54158 0.07345 0.89284 0.0
C604 C 0.5453 1.00643 0.89558 0.0
C605 C 0.56739 1.00635 0.86339 0.0
C606 C 0.57653 0.03994 0.84548 0.0
C607 C 0.56302 0.07336 0.86078 0.0
C608 C 0.36138 0.97382 0.95233 0.0
H609 H 0.56781 0.15219 0.08125 0.0
H610 H 0.55838 0.09948 0.03688 0.0
H611 H 0.44157 0.12216 0.02998 0.0
H612 H 0.45125 0.17464 0.07396 0.0
H613 H 0.54049 0.08864 0.96989 0.0
H614 H 0.4428 0.05388 0.02904 0.0
H615 H 0.47167 0.99605 0.92793 0.0
H616 H 0.40357 1.00516 0.92403 0.0
H617 H 0.42335 0.98704 0.04054 0.0
H618 H 0.36382 0.95177 0.04391 0.0
H619 H 0.53172 0.09985 0.9033 0.0
H620 H 0.53876 0.98023 0.90882 0.0
H621 H 0.34481 0.97056 0.9271 0.0
H622 H 0.56923 0.09997 0.84818 0.0
H623 H 0.57718 0.98009 0.85254 0.0
Mn624 Mn 0.26253 0.87607 0.01832 0.0
Mn625 Mn 0.25114 0.90743 0.93127 0.0
C626 C 0.23067 0.83979 0.97283 0.0
C627 C 0.29251 0.84112 0.06346 0.0
C628 C 0.20788 0.93679 0.9973 0.0
O629 O 0.30477 0.9163 0.01485 0.0
O630 O 0.29476 0.93363 0.95567 0.0
C631 C 0.32 0.88 0.89745 0.0
N632 N 0.28222 0.88096 0.89775 0.0
C633 C 0.27701 0.84012 0.84376 0.0
C634 C 0.31584 0.83895 0.84274 0.0
C635 C 0.33741 0.85892 0.86975 0.0
C636 C 0.26119 0.86181 0.8719 0.0
H637 H 0.33675 0.89507 0.91825 0.0
C638 C 0.31362 0.93529 0.98619 0.0
O639 O 0.27128 0.86827 0.07255 0.0
O640 O 0.29852 0.83603 0.02825 0.0
N641 N 0.21043 0.88294 0.90472 0.0
C642 C 0.17333 0.88471 0.91122 0.0
C643 C 0.14792 0.86508 0.88747 0.0
C644 C 0.16088 0.84389 0.85729 0.0
C645 C 0.19918 0.84253 0.85113 0.0
C646 C 0.22318 0.86289 0.87557 0.0
H647 H 0.16318 0.90078 0.93447 0.0
O648 O 0.22352 0.83515 0.00771 0.0
O649 O 0.25446 0.86653 0.96592 0.0
O650 O 0.22283 0.91612 0.02125 0.0
O651 O 0.21687 0.93603 0.96305 0.0
C652 C 0.21449 0.82115 0.82216 0.0
C653 C 0.25336 0.81989 0.81851 0.0
H654 H 0.32938 0.82249 0.82159 0.0
H655 H 0.3674 0.85795 0.86929 0.0
H656 H 0.11841 0.86613 0.89251 0.0
H657 H 0.14122 0.82849 0.83925 0.0
H658 H 0.19662 0.80512 0.80288 0.0
H659 H 0.26479 0.80282 0.79651 0.0
Mn660 Mn 0.15788 0.51226 0.25879 0.0
Mn661 Mn 0.12601 0.59955 0.25349 0.0
C662 C 0.192 0.55879 0.22889 0.0
C663 C 0.1938 0.46674 0.28622 0.0
C664 C 0.09566 0.53442 0.20542 0.0
O665 O 0.11872 0.51349 0.30063 0.0
O666 O 0.10203 0.57326 0.29535 0.0
C667 C 0.15791 0.63081 0.3243 0.0
N668 N 0.15433 0.63226 0.28665 0.0
C669 C 0.19535 0.68669 0.28492 0.0
C670 C 0.19925 0.6859 0.32368 0.0
C671 C 0.18048 0.6578 0.34343 0.0
C672 C 0.17232 0.65915 0.26736 0.0
H673 H 0.14384 0.60908 0.33961 0.0
C674 C 0.10022 0.54171 0.31148 0.0
O675 O 0.16601 0.45781 0.26413 0.0
O676 O 0.199 0.50194 0.29465 0.0
N677 N 0.14789 0.62814 0.21455 0.0
C678 C 0.14331 0.62346 0.17708 0.0
C679 C 0.1611 0.64869 0.15325 0.0
C680 C 0.18333 0.67849 0.16814 0.0
C681 C 0.18748 0.68287 0.20678 0.0
C682 C 0.16874 0.65709 0.22919 0.0
H683 H 0.12636 0.60054 0.16544 0.0
O684 O 0.19683 0.52391 0.2206 0.0
O685 O 0.16701 0.56517 0.25366 0.0
O686 O 0.1173 0.51027 0.21817 0.0
O687 O 0.09566 0.56827 0.21744 0.0
C688 C 0.21014 0.7113 0.22391 0.0
C689 C 0.21418 0.71313 0.26294 0.0
H690 H 0.21692 0.70645 0.33851 0.0
H691 H 0.18356 0.65685 0.37333 0.0
H692 H 0.15785 0.64506 0.12344 0.0
H693 H 0.19736 0.69762 0.14965 0.0
H694 H 0.22512 0.7315 0.20729 0.0
H695 H 0.23226 0.73467 0.27573 0.0
Mn696 Mn 0.75886 0.63213 0.01888 0.0
Mn697 Mn 0.67822 0.66343 0.98358 0.0
C698 C 0.70368 0.59557 0.02018 0.0
C699 C 0.81499 0.60017 0.01773 0.0
C700 C 0.7119 0.69205 0.05668 0.0
O701 O 0.77745 0.67361 0.98397 0.0
O702 O 0.7215 0.68973 0.96188 0.0
C703 C 0.6855 0.6373 0.9054 0.0
N704 N 0.66581 0.63836 0.93746 0.0
C705 C 0.61391 0.60465 0.90839 0.0
C706 C 0.63356 0.6033 0.875 0.0
C707 C 0.66961 0.61948 0.87359 0.0
C708 C 0.63137 0.62234 0.93929 0.0
H709 H 0.71304 0.65008 0.9041 0.0
C710 C 0.75704 0.69271 0.96255 0.0
O711 O 0.80878 0.62656 0.04174 0.0
O712 O 0.78924 0.59332 0.9926 0.0
N713 N 0.63392 0.63979 1.00195 0.0
C714 C 0.61961 0.64166 0.0368 0.0
C715 C 0.58426 0.62553 0.04333 0.0
C716 C 0.56371 0.60833 0.01384 0.0
C717 C 0.57884 0.60718 0.97814 0.0
C718 C 0.61438 0.62329 0.97341 0.0
H719 H 0.63508 0.65531 0.05943 0.0
O720 O 0.73015 0.59059 0.04415 0.0
O721 O 0.70975 0.62202 0.99691 0.0
O722 O 0.73986 0.67133 0.05573 0.0
O723 O 0.68711 0.69132 0.03112 0.0
C724 C 0.56013 0.59056 0.94707 0.0
C725 C 0.57775 0.58904 0.91227 0.0
H726 H 0.62131 0.58978 0.85034 0.0
H727 H 0.68498 0.61848 0.84795 0.0
H728 H 0.57276 0.62658 0.07096 0.0
H729 H 0.53641 0.59601 0.01895 0.0
H730 H 0.53245 0.57817 0.94979 0.0
H731 H 0.56337 0.57543 0.88879 0.0
Mn732 Mn 0.8795 0.01308 0.26659 0.0
Mn733 Mn 0.91273 0.9265 0.25624 0.0
C734 C 0.84503 0.96588 0.23554 0.0
C735 C 0.84326 0.05824 0.29575 0.0
C736 C 0.9401 0.99173 0.21054 0.0
O737 O 0.91847 0.01187 0.30875 0.0
O738 O 0.93985 0.95402 0.29762 0.0
C739 C 0.88789 0.89562 0.32784 0.0
N740 N 0.8878 0.89393 0.28999 0.0
C741 C 0.84716 0.83912 0.28896 0.0
C742 C 0.84704 0.84017 0.32791 0.0
C743 C 0.86747 0.86857 0.34742 0.0
C744 C 0.86829 0.86665 0.27094 0.0
H745 H 0.90333 0.91748 0.34303 0.0
C746 C 0.93979 0.98501 0.31623 0.0
O747 O 0.87067 0.06751 0.27438 0.0
O748 O 0.83862 0.02297 0.30241 0.0
N749 N 0.888 0.89692 0.21778 0.0
C750 C 0.88908 0.90121 0.18028 0.0
C751 C 0.86912 0.8757 0.15677 0.0
C752 C 0.84829 0.84607 0.17202 0.0
C753 C 0.84772 0.84213 0.21066 0.0
C754 C 0.86847 0.86817 0.2327 0.0
H755 H 0.90479 0.92409 0.16839 0.0
O756 O 0.8401 1.00056 0.22777 0.0
O757 O 0.87109 0.96005 0.2596 0.0
O758 O 0.92016 0.0159 0.22664 0.0
O759 O 0.93937 0.95742 0.21942 0.0
C760 C 0.82672 0.81385 0.2282 0.0
C761 C 0.82644 0.81235 0.26732 0.0
H762 H 0.83107 0.81955 0.34312 0.0
H763 H 0.86734 0.86969 0.37749 0.0
H764 H 0.86958 0.87903 0.12698 0.0
H765 H 0.83256 0.82673 0.15383 0.0
H766 H 0.81024 0.79345 0.21188 0.0
H767 H 0.80975 0.79081 0.28049 0.0
Mn768 Mn 0.25886 0.13213 0.51888 0.0
Mn769 Mn 0.17823 0.16343 0.48358 0.0
C770 C 0.20368 0.09558 0.52017 0.0
C771 C 0.31499 0.10017 0.51773 0.0
C772 C 0.21191 0.19205 0.55668 0.0
O773 O 0.27745 0.17362 0.48396 0.0
O774 O 0.22151 0.18974 0.46187 0.0
C775 C 0.1855 0.13731 0.4054 0.0
N776 N 0.16582 0.13837 0.43746 0.0
C777 C 0.11391 0.10466 0.40838 0.0
C778 C 0.13356 0.1033 0.375 0.0
C779 C 0.16961 0.11949 0.37358 0.0
C780 C 0.13137 0.12235 0.43929 0.0
H781 H 0.21304 0.15008 0.4041 0.0
C782 C 0.25704 0.19272 0.46255 0.0
O783 O 0.30878 0.12656 0.54173 0.0
O784 O 0.28924 0.09332 0.49259 0.0
N785 N 0.13392 0.13979 0.50194 0.0
C786 C 0.11961 0.14167 0.53679 0.0
C787 C 0.08426 0.12553 0.54332 0.0
C788 C 0.06371 0.10833 0.51384 0.0
C789 C 0.07885 0.10718 0.47813 0.0
C790 C 0.11438 0.1233 0.47341 0.0
H791 H 0.13508 0.15532 0.55943 0.0
O792 O 0.23015 0.0906 0.54414 0.0
O793 O 0.20976 0.12203 0.49691 0.0
O794 O 0.23986 0.17133 0.55573 0.0
O795 O 0.18711 0.19133 0.53112 0.0
C796 C 0.06013 0.09057 0.44706 0.0
C797 C 0.07775 0.08905 0.41226 0.0
H798 H 0.12131 0.08979 0.35034 0.0
H799 H 0.18499 0.11849 0.34795 0.0
H800 H 0.07276 0.12658 0.57095 0.0
H801 H 0.03641 0.09602 0.51894 0.0
H802 H 0.03245 0.07818 0.44978 0.0
H803 H 0.06338 0.07544 0.38878 0.0
Mn804 Mn 0.3795 0.51308 0.76659 0.0
Mn805 Mn 0.41274 0.42649 0.75624 0.0
C806 C 0.34503 0.46588 0.73553 0.0
C807 C 0.34326 0.55823 0.79575 0.0
C808 C 0.4401 0.49173 0.71054 0.0
O809 O 0.41848 0.51186 0.80875 0.0
O810 O 0.43986 0.45402 0.79762 0.0
C811 C 0.3879 0.39561 0.82784 0.0
N812 N 0.3878 0.39392 0.78998 0.0
C813 C 0.34716 0.33911 0.78895 0.0
C814 C 0.34704 0.34017 0.8279 0.0
C815 C 0.36747 0.36856 0.84741 0.0
C816 C 0.36829 0.36665 0.77093 0.0
H817 H 0.40333 0.41748 0.84302 0.0
C818 C 0.4398 0.485 0.81623 0.0
O819 O 0.37067 0.56751 0.77438 0.0
O820 O 0.33862 0.52296 0.80241 0.0
N821 N 0.388 0.39692 0.71777 0.0
C822 C 0.38909 0.40121 0.68027 0.0
C823 C 0.36913 0.3757 0.65677 0.0
C824 C 0.3483 0.34607 0.67201 0.0
C825 C 0.34773 0.34212 0.71065 0.0
C826 C 0.36848 0.36817 0.73269 0.0
H827 H 0.4048 0.42409 0.66839 0.0
O828 O 0.34011 0.50056 0.72777 0.0
O829 O 0.3711 0.46004 0.7596 0.0
O830 O 0.42017 0.5159 0.72663 0.0
O831 O 0.43938 0.45742 0.71941 0.0
C832 C 0.32673 0.31384 0.72819 0.0
C833 C 0.32644 0.31234 0.76731 0.0
H834 H 0.33107 0.31954 0.84311 0.0
H835 H 0.36735 0.36968 0.87748 0.0
H836 H 0.36959 0.37903 0.62697 0.0
H837 H 0.33256 0.32673 0.65382 0.0
H838 H 0.31024 0.29345 0.71187 0.0
H839 H 0.30975 0.2908 0.78048 0.0
Mn840 Mn 0.76254 0.37608 0.51832 0.0
Mn841 Mn 0.75116 0.40745 0.43127 0.0
C842 C 0.73069 0.3398 0.47283 0.0
C843 C 0.79252 0.34113 0.56346 0.0
C844 C 0.7079 0.4368 0.4973 0.0
O845 O 0.80479 0.4163 0.51485 0.0
O846 O 0.79478 0.43364 0.45568 0.0
C847 C 0.82002 0.38001 0.39745 0.0
N848 N 0.78224 0.38098 0.39775 0.0
C849 C 0.77703 0.34014 0.34376 0.0
C850 C 0.81586 0.33896 0.34274 0.0
C851 C 0.83743 0.35893 0.36975 0.0
C852 C 0.76121 0.36182 0.3719 0.0
H853 H 0.83677 0.39508 0.41825 0.0
C854 C 0.81364 0.4353 0.48619 0.0
O855 O 0.77129 0.36828 0.57255 0.0
O856 O 0.79853 0.33604 0.52825 0.0
N857 N 0.71045 0.38296 0.40472 0.0
C858 C 0.67335 0.38473 0.41121 0.0
C859 C 0.64794 0.3651 0.38747 0.0
C860 C 0.6609 0.34391 0.35729 0.0
C861 C 0.6992 0.34255 0.35113 0.0
C862 C 0.7232 0.3629 0.37557 0.0
H863 H 0.6632 0.4008 0.43446 0.0
O864 O 0.72354 0.33516 0.50771 0.0
O865 O 0.75447 0.36654 0.46592 0.0
O866 O 0.72285 0.41614 0.52126 0.0
O867 O 0.71688 0.43604 0.46305 0.0
C868 C 0.71451 0.32117 0.32216 0.0
C869 C 0.75338 0.31991 0.31851 0.0
H870 H 0.8294 0.32251 0.32159 0.0
H871 H 0.86742 0.35797 0.36929 0.0
H872 H 0.61843 0.36615 0.39251 0.0
H873 H 0.64124 0.32851 0.33925 0.0
H874 H 0.69664 0.30513 0.30287 0.0
H875 H 0.76481 0.30284 0.29651 0.0
Mn876 Mn 0.65788 0.01225 0.7588 0.0
Mn877 Mn 0.626 0.09955 0.7535 0.0
C878 C 0.69199 0.05879 0.7289 0.0
C879 C 0.69379 0.96673 0.78622 0.0
C880 C 0.59565 0.03442 0.70543 0.0
O881 O 0.61871 0.01349 0.80064 0.0
O882 O 0.60202 0.07325 0.79536 0.0
C883 C 0.6579 0.1308 0.82431 0.0
N884 N 0.65432 0.13226 0.78667 0.0
C885 C 0.69534 0.18669 0.78493 0.0
C886 C 0.69924 0.18589 0.8237 0.0
C887 C 0.68047 0.1578 0.84345 0.0
C888 C 0.67231 0.15915 0.76737 0.0
H889 H 0.64383 0.10908 0.83962 0.0
C890 C 0.60021 0.04171 0.81148 0.0
O891 O 0.66601 0.95781 0.76414 0.0
O892 O 0.69899 1.00194 0.79465 0.0
N893 N 0.64788 0.12814 0.71456 0.0
C894 C 0.6433 0.12346 0.67709 0.0
C895 C 0.66109 0.14869 0.65326 0.0
C896 C 0.68332 0.1785 0.66816 0.0
C897 C 0.68747 0.18287 0.7068 0.0
C898 C 0.66873 0.15709 0.7292 0.0
H899 H 0.62636 0.10055 0.66545 0.0
O900 O 0.69682 0.02391 0.72061 0.0
O901 O 0.667 0.06517 0.75367 0.0
O902 O 0.61729 0.01027 0.71818 0.0
O903 O 0.59565 0.06827 0.71745 0.0
C904 C 0.71013 0.21131 0.72393 0.0
C905 C 0.71416 0.21314 0.76296 0.0
H906 H 0.7169 0.20645 0.83853 0.0
H907 H 0.68354 0.15684 0.87335 0.0
H908 H 0.65784 0.14507 0.62346 0.0
H909 H 0.69736 0.19763 0.64967 0.0
H910 H 0.72511 0.23151 0.70731 0.0
H911 H 0.73224 0.23467 0.77576 0.0
Mn912 Mn 0.01475 0.26144 0.88283 0.0
Mn913 Mn 0.92791 0.24736 0.91515 0.0
C914 C 0.96914 0.23063 0.84629 0.0
C915 C 0.06016 0.29326 0.8485 0.0
C916 C 0.99364 0.20358 0.94147 0.0
O917 O 0.01196 0.30178 0.92472 0.0
O918 O 0.95258 0.29054 0.94214 0.0
C919 C 0.89422 0.31703 0.8906 0.0
N920 N 0.89448 0.27902 0.89022 0.0
C921 C 0.84055 0.27445 0.85004 0.0
C922 C 0.83958 0.31351 0.85023 0.0
C923 C 0.86658 0.33488 0.87054 0.0
C924 C 0.86863 0.25819 0.87075 0.0
H925 H 0.915 0.33364 0.90597 0.0
C926 C 0.98343 0.30958 0.94425 0.0
O927 O 0.06894 0.27091 0.87477 0.0
O928 O 0.02513 0.29968 0.84432 0.0
N929 N 0.90122 0.20693 0.88986 0.0
C930 C 0.90769 0.16972 0.89024 0.0
C931 C 0.88401 0.14456 0.86999 0.0
C932 C 0.85391 0.15788 0.84965 0.0
C933 C 0.84778 0.19628 0.84971 0.0
C934 C 0.8722 0.22002 0.87054 0.0
H935 H 0.93087 0.15933 0.90568 0.0
O936 O 1.00395 0.22424 0.84097 0.0
O937 O 0.96231 0.25318 0.87381 0.0
O938 O 0.0173 0.21924 0.92032 0.0
O939 O 0.95963 0.21253 0.94254 0.0
C940 C 0.81882 0.21201 0.82936 0.0
C941 C 0.81525 0.25105 0.82946 0.0
H942 H 0.81847 0.32739 0.83458 0.0
H943 H 0.86616 0.36505 0.87065 0.0
H944 H 0.88902 0.11497 0.86994 0.0
H945 H 0.83589 0.13842 0.83382 0.0
H946 H 0.79939 0.19441 0.81319 0.0
H947 H 0.79322 0.26281 0.81322 0.0
Mn948 Mn 0.51475 0.76144 0.38283 0.0
Mn949 Mn 0.42791 0.74736 0.41515 0.0
C950 C 0.46915 0.73063 0.34629 0.0
C951 C 0.56016 0.79326 0.3485 0.0
C952 C 0.49364 0.70358 0.44148 0.0
O953 O 0.51196 0.80178 0.42473 0.0
O954 O 0.45258 0.79054 0.44214 0.0
C955 C 0.39422 0.81702 0.3906 0.0
N956 N 0.39449 0.77902 0.39022 0.0
C957 C 0.34055 0.77444 0.35004 0.0
C958 C 0.33958 0.8135 0.35023 0.0
C959 C 0.36658 0.83487 0.37055 0.0
C960 C 0.36863 0.75818 0.37075 0.0
H961 H 0.415 0.83363 0.40597 0.0
C962 C 0.48343 0.80958 0.44426 0.0
O963 O 0.56894 0.77091 0.37477 0.0
O964 O 0.52513 0.79968 0.34432 0.0
N965 N 0.40123 0.70693 0.38986 0.0
C966 C 0.4077 0.66972 0.39024 0.0
C967 C 0.38402 0.64455 0.36999 0.0
C968 C 0.35391 0.65787 0.34966 0.0
C969 C 0.34779 0.69628 0.34971 0.0
C970 C 0.3722 0.72001 0.37055 0.0
H971 H 0.43088 0.65933 0.40568 0.0
O972 O 0.50395 0.72424 0.34098 0.0
O973 O 0.46231 0.75318 0.37382 0.0
O974 O 0.51731 0.71924 0.42033 0.0
O975 O 0.45964 0.71253 0.44255 0.0
C976 C 0.31883 0.712 0.32936 0.0
C977 C 0.31525 0.75104 0.32947 0.0
H978 H 0.31846 0.82738 0.33459 0.0
H979 H 0.36615 0.86504 0.37065 0.0
H980 H 0.38904 0.61497 0.36994 0.0
H981 H 0.3359 0.63841 0.33382 0.0
H982 H 0.29939 0.6944 0.3132 0.0
H983 H 0.29322 0.7628 0.31322 0.0
Mn984 Mn 0.01644 0.7561 0.64017 0.0
Mn985 Mn 0.97606 0.67932 0.67777 0.0
C986 C 0.0155 0.69892 0.60801 0.0
C987 C 0.01735 0.81016 0.6045 0.0
C988 C 0.05185 0.71012 0.70204 0.0
O989 O 0.98317 0.77881 0.6799 0.0
O990 O 0.95938 0.72546 0.70372 0.0
C991 C 0.89855 0.69223 0.65437 0.0
N992 N 0.92835 0.66989 0.65501 0.0
C993 C 0.89426 0.62071 0.62143 0.0
C994 C 0.86313 0.6431 0.62061 0.0
C995 C 0.86534 0.67907 0.63703 0.0
C996 C 0.92661 0.63535 0.63905 0.0
H997 H 0.9001 0.71986 0.66701 0.0
C998 C 0.96268 0.76116 0.7029 0.0
O999 O 0.04161 0.80505 0.63056 0.0
O1000 O 0.99126 0.78442 0.59985 0.0
N1001 N 0.98909 0.63264 0.65555 0.0
C1002 C 0.02221 0.61545 0.65689 0.0
C1003 C 0.02504 0.57967 0.64066 0.0
C1004 C 0.99372 0.56175 0.6237 0.0
C1005 C 0.95983 0.57982 0.62308 0.0
C1006 C 0.9587 0.61549 0.63962 0.0
H1007 H 0.04633 0.62904 0.67001 0.0
O1008 O 0.04068 0.72459 0.6013 0.0
O1009 O 0.99172 0.70719 0.63365 0.0
O1010 O 0.05192 0.73793 0.68057 0.0
O1011 O 0.02516 0.6858 0.70277 0.0
C1012 C 0.92727 0.56406 0.60622 0.0
C1013 C 0.89458 0.58459 0.60515 0.0
H1014 H 0.83747 0.63306 0.60725 0.0
H1015 H 0.84148 0.69658 0.63638 0.0
H1016 H 0.05131 0.56592 0.64123 0.0
H1017 H 0.99606 0.53423 0.61105 0.0
H1018 H 0.92719 0.53636 0.59358 0.0
H1019 H 0.86992 0.57241 0.59151 0.0
Mn1020 Mn 0.51644 0.25609 0.14016 0.0
Mn1021 Mn 0.47606 0.17932 0.17777 0.0
C1022 C 0.5155 0.19891 0.10802 0.0
C1023 C 0.51735 0.31015 0.1045 0.0
C1024 C 0.55185 0.21012 0.20204 0.0
O1025 O 0.48317 0.2788 0.17989 0.0
O1026 O 0.45938 0.22546 0.20372 0.0
C1027 C 0.39855 0.19222 0.15438 0.0
N1028 N 0.42835 0.16988 0.15501 0.0
C1029 C 0.39426 0.12069 0.12144 0.0
C1030 C 0.36313 0.14309 0.12062 0.0
C1031 C 0.36534 0.17906 0.13704 0.0
C1032 C 0.42661 0.13534 0.13906 0.0
H1033 H 0.4001 0.21985 0.16701 0.0
C1034 C 0.46268 0.26116 0.2029 0.0
O1035 O 0.54161 0.30504 0.13056 0.0
O1036 O 0.49126 0.28441 0.09984 0.0
N1037 N 0.48909 0.13263 0.15555 0.0
C1038 C 0.52221 0.11544 0.1569 0.0
C1039 C 0.52505 0.07966 0.14067 0.0
C1040 C 0.49373 0.06174 0.12371 0.0
C1041 C 0.45984 0.07981 0.12309 0.0
C1042 C 0.4587 0.11548 0.13963 0.0
H1043 H 0.54634 0.12904 0.17001 0.0
O1044 O 0.54068 0.22458 0.1013 0.0
O1045 O 0.49172 0.20718 0.13365 0.0
O1046 O 0.55192 0.23792 0.18057 0.0
O1047 O 0.52516 0.1858 0.20278 0.0
C1048 C 0.42727 0.06405 0.10623 0.0
C1049 C 0.39459 0.08457 0.10515 0.0
H1050 H 0.33747 0.13304 0.10726 0.0
H1051 H 0.34148 0.19656 0.13638 0.0
H1052 H 0.55132 0.06592 0.14125 0.0
H1053 H 0.49606 0.03422 0.11106 0.0
H1054 H 0.4272 0.03634 0.09359 0.0
H1055 H 0.36992 0.0724 0.09152 0.0
loop_
_geom_bond_atom_site_label_1
_geom_bond_atom_site_label_2
_geom_bond_distance
_geom_bond_site_symmetry_2
_ccdc_geom_bond_type
C0 C1 1.386 . S
C0 C2 1.397 . S
C0 H24 0.931 . S
C1 C0 1.386 . S
C1 C5 1.397 . S
C2 C0 1.397 . S
C2 C3 1.384 . S
C2 H25 0.930 . S
C3 C2 1.384 . S
C3 C4 1.377 1_556 S
C3 C6 1.481 1_556 S
C4 C3 1.377 1_554 S
C4 C5 1.389 1_554 S
C4 H26 0.929 . S
C5 C1 1.397 . S
C5 C4 1.389 1_556 S
C5 H27 0.931 . S
C6 C3 1.481 1_554 S
C6 C7 1.387 . S
C6 C11 1.390 . S
C7 C6 1.387 . S
C7 C8 1.401 . S
C7 H28 0.930 1_554 S
C8 C7 1.401 . S
C8 C9 1.376 . S
C8 C17 1.511 1_545 S
C9 C8 1.376 . S
C9 C10 1.392 . S
C9 H30 0.931 1_545 S
C10 C9 1.392 . S
C10 C11 1.361 . S
C10 C12 1.500 1_455 S
C11 C6 1.390 . S
C11 C10 1.361 . S
C11 H29 0.931 1_455 S
C12 C10 1.500 1_655 S
C12 C13 1.371 1_545 S
C12 C14 1.365 . S
C13 C12 1.371 1_565 S
C13 C23 1.386 . S
C13 H31 0.931 . S
C14 C12 1.365 . S
C14 C15 1.409 . S
C14 H32 0.929 . S
C15 C14 1.409 . S
C15 C16 1.380 . S
C15 H33 0.930 . S
C16 C15 1.380 . S
C16 C23 1.357 1_545 S
C17 C8 1.511 1_565 S
C17 C18 1.341 1_554 S
C17 C19 1.371 . S
C18 C17 1.341 1_556 S
C18 C22 1.394 . S
C18 H34 0.930 . S
C19 C17 1.371 . S
C19 C20 1.392 . S
C19 H35 0.931 . S
C20 C19 1.392 . S
C20 C21 1.331 . S
C20 H38 0.932 . S
C21 C20 1.331 . S
C21 C22 1.336 1_554 S
C22 C18 1.394 . S
C22 C21 1.336 1_556 S
C22 H37 0.929 . S
C23 C13 1.386 . S
C23 C16 1.357 1_565 S
C23 H36 0.928 . S
H24 C0 0.931 . S
H25 C2 0.930 . S
H26 C4 0.929 . S
H27 C5 0.931 . S
H28 C7 0.930 1_556 S
H29 C11 0.931 1_655 S
H30 C9 0.931 1_565 S
H31 C13 0.931 . S
H32 C14 0.929 . S
H33 C15 0.930 . S
H34 C18 0.930 . S
H35 C19 0.931 . S
H36 C23 0.928 . S
H37 C22 0.929 . S
H38 C20 0.932 . S
C39 C40 1.386 . S
C39 C41 1.397 . S
C39 H63 0.931 . S
C40 C39 1.386 . S
C40 C44 1.397 . S
C41 C39 1.397 . S
C41 C42 1.384 . S
C41 H64 0.930 . S
C42 C41 1.384 . S
C42 C43 1.377 . S
C42 C45 1.481 . S
C43 C42 1.377 . S
C43 C44 1.389 . S
C43 H65 0.929 . S
C44 C40 1.397 . S
C44 C43 1.389 . S
C44 H66 0.931 . S
C45 C42 1.481 . S
C45 C46 1.387 . S
C45 C50 1.390 . S
C46 C45 1.387 . S
C46 C47 1.401 . S
C46 H67 0.930 . S
C47 C46 1.401 . S
C47 C48 1.376 . S
C47 C56 1.511 . S
C48 C47 1.376 . S
C48 C49 1.392 . S
C48 H69 0.931 . S
C49 C48 1.392 . S
C49 C50 1.361 . S
C49 C51 1.500 . S
C50 C45 1.390 . S
C50 C49 1.361 . S
C50 H68 0.931 . S
C51 C49 1.500 . S
C51 C52 1.371 . S
C51 C53 1.365 . S
C52 C51 1.371 . S
C52 C62 1.386 . S
C52 H70 0.931 . S
C53 C51 1.365 . S
C53 C54 1.409 . S
C53 H71 0.929 . S
C54 C53 1.409 . S
C54 C55 1.380 . S
C54 H72 0.930 . S
C55 C54 1.380 . S
C55 C62 1.357 . S
C56 C47 1.511 . S
C56 C57 1.341 . S
C56 C58 1.371 . S
C57 C56 1.341 . S
C57 C61 1.394 . S
C57 H73 0.930 . S
C58 C56 1.371 . S
C58 C59 1.392 . S
C58 H74 0.931 . S
C59 C58 1.392 . S
C59 C60 1.331 . S
C59 H77 0.932 . S
C60 C59 1.331 . S
C60 C61 1.336 . S
C61 C57 1.394 . S
C61 C60 1.336 . S
C61 H76 0.929 . S
C62 C52 1.386 . S
C62 C55 1.357 . S
C62 H75 0.928 . S
H63 C39 0.931 . S
H64 C41 0.930 . S
H65 C43 0.929 . S
H66 C44 0.931 . S
H67 C46 0.930 . S
H68 C50 0.931 . S
H69 C48 0.931 . S
H70 C52 0.931 . S
H71 C53 0.929 . S
H72 C54 0.930 . S
H73 C57 0.930 . S
H74 C58 0.931 . S
H75 C62 0.928 . S
H76 C61 0.929 . S
H77 C59 0.932 . S
C78 C79 1.386 . S
C78 C80 1.397 . S
C78 H102 0.931 . S
C79 C78 1.386 . S
C79 C83 1.397 . S
C80 C78 1.397 . S
C80 C81 1.384 . S
C80 H103 0.930 1_455 S
C81 C80 1.384 . S
C81 C82 1.377 . S
C81 C84 1.481 1_455 S
C82 C81 1.377 . S
C82 C83 1.389 . S
C82 H104 0.929 . S
C83 C79 1.397 . S
C83 C82 1.389 . S
C83 H105 0.931 . S
C84 C81 1.481 1_655 S
C84 C85 1.387 . S
C84 C89 1.390 . S
C85 C84 1.387 . S
C85 C86 1.401 . S
C85 H106 0.930 . S
C86 C85 1.401 . S
C86 C87 1.376 . S
C86 C95 1.511 . S
C87 C86 1.376 . S
C87 C88 1.392 . S
C87 H108 0.931 1_554 S
C88 C87 1.392 . S
C88 C89 1.361 . S
C88 C90 1.500 1_554 S
C89 C84 1.390 . S
C89 C88 1.361 . S
C89 H107 0.931 1_655 S
C90 C88 1.500 1_556 S
C90 C91 1.371 . S
C90 C92 1.365 1_655 S
C91 C90 1.371 . S
C91 C101 1.386 . S
C91 H109 0.931 . S
C92 C90 1.365 1_455 S
C92 C93 1.409 . S
C92 H110 0.929 . S
C93 C92 1.409 . S
C93 C94 1.380 1_455 S
C93 H111 0.930 . S
C94 C93 1.380 1_655 S
C94 C101 1.357 . S
C95 C86 1.511 . S
C95 C96 1.341 . S
C95 C97 1.371 1_554 S
C96 C95 1.341 . S
C96 C100 1.394 . S
C96 H112 0.930 . S
C97 C95 1.371 1_556 S
C97 C98 1.392 . S
C97 H113 0.931 . S
C98 C97 1.392 . S
C98 C99 1.331 1_556 S
C98 H116 0.932 . S
C99 C98 1.331 1_554 S
C99 C100 1.336 . S
C100 C96 1.394 . S
C100 C99 1.336 . S
C100 H115 0.929 . S
C101 C91 1.386 . S
C101 C94 1.357 . S
C101 H114 0.928 . S
H102 C78 0.931 . S
H103 C80 0.930 1_655 S
H104 C82 0.929 . S
H105 C83 0.931 . S
H106 C85 0.930 . S
H107 C89 0.931 1_455 S
H108 C87 0.931 1_556 S
H109 C91 0.931 . S
H110 C92 0.929 . S
H111 C93 0.930 . S
H112 C96 0.930 . S
H113 C97 0.931 . S
H114 C101 0.928 . S
H115 C100 0.929 . S
H116 C98 0.932 . S
C117 C118 1.386 . S
C117 C119 1.397 . S
C117 H141 0.931 . S
C118 C117 1.386 . S
C118 C122 1.397 . S
C119 C117 1.397 . S
C119 C120 1.384 . S
C119 H142 0.930 . S
C120 C119 1.384 . S
C120 C121 1.377 . S
C120 C123 1.481 . S
C121 C120 1.377 . S
C121 C122 1.389 . S
C121 H143 0.929 . S
C122 C118 1.397 . S
C122 C121 1.389 . S
C122 H144 0.931 . S
C123 C120 1.481 . S
C123 C124 1.387 . S
C123 C128 1.390 . S
C124 C123 1.387 . S
C124 C125 1.401 . S
C124 H145 0.930 . S
C125 C124 1.401 . S
C125 C126 1.376 . S
C125 C134 1.511 . S
C126 C125 1.376 . S
C126 C127 1.392 . S
C126 H147 0.931 . S
C127 C126 1.392 . S
C127 C128 1.361 . S
C127 C129 1.500 . S
C128 C123 1.390 . S
C128 C127 1.361 . S
C128 H146 0.931 . S
C129 C127 1.500 . S
C129 C130 1.371 . S
C129 C131 1.365 . S
C130 C129 1.371 . S
C130 C140 1.386 . S
C130 H148 0.931 . S
C131 C129 1.365 . S
C131 C132 1.409 . S
C131 H149 0.929 . S
C132 C131 1.409 . S
C132 C133 1.380 . S
C132 H150 0.930 . S
C133 C132 1.380 . S
C133 C140 1.357 . S
C134 C125 1.511 . S
C134 C135 1.341 . S
C134 C136 1.371 . S
C135 C134 1.341 . S
C135 C139 1.394 . S
C135 H151 0.930 . S
C136 C134 1.371 . S
C136 C137 1.392 . S
C136 H152 0.931 . S
C137 C136 1.392 . S
C137 C138 1.331 . S
C137 H155 0.932 . S
C138 C137 1.331 . S
C138 C139 1.336 . S
C139 C135 1.394 . S
C139 C138 1.336 . S
C139 H154 0.929 . S
C140 C130 1.386 . S
C140 C133 1.357 . S
C140 H153 0.928 . S
H141 C117 0.931 . S
H142 C119 0.930 . S
H143 C121 0.929 . S
H144 C122 0.931 . S
H145 C124 0.930 . S
H146 C128 0.931 . S
H147 C126 0.931 . S
H148 C130 0.931 . S
H149 C131 0.929 . S
H150 C132 0.930 . S
H151 C135 0.930 . S
H152 C136 0.931 . S
H153 C140 0.928 . S
H154 C139 0.929 . S
H155 C137 0.932 . S
C156 C157 1.386 . S
C156 C158 1.397 . S
C156 H180 0.931 . S
C157 C156 1.386 . S
C157 C161 1.397 . S
C158 C156 1.397 . S
C158 C159 1.384 . S
C158 H181 0.930 . S
C159 C158 1.384 . S
C159 C160 1.377 1_655 S
C159 C162 1.481 1_655 S
C160 C159 1.377 1_455 S
C160 C161 1.389 1_455 S
C160 H182 0.929 . S
C161 C157 1.397 . S
C161 C160 1.389 1_655 S
C161 H183 0.931 1_565 S
C162 C159 1.481 1_455 S
C162 C163 1.387 . S
C162 C167 1.390 1_565 S
C163 C162 1.387 . S
C163 C164 1.401 . S
C163 H184 0.930 1_455 S
C164 C163 1.401 . S
C164 C165 1.376 . S
C164 C173 1.511 . S
C165 C164 1.376 . S
C165 C166 1.392 . S
C165 H186 0.931 . S
C166 C165 1.392 . S
C166 C167 1.361 1_565 S
C166 C168 1.500 1_565 S
C167 C162 1.390 1_545 S
C167 C166 1.361 1_545 S
C167 H185 0.931 . S
C168 C166 1.500 1_545 S
C168 C169 1.371 . S
C168 C170 1.365 . S
C169 C168 1.371 . S
C169 C179 1.386 . S
C169 H187 0.931 . S
C170 C168 1.365 . S
C170 C171 1.409 . S
C170 H188 0.929 . S
C171 C170 1.409 . S
C171 C172 1.380 . S
C171 H189 0.930 . S
C172 C171 1.380 . S
C172 C179 1.357 . S
C173 C164 1.511 . S
C173 C174 1.341 1_455 S
C173 C175 1.371 . S
C174 C173 1.341 1_655 S
C174 C178 1.394 . S
C174 H190 0.930 . S
C175 C173 1.371 . S
C175 C176 1.392 . S
C175 H191 0.931 . S
C176 C175 1.392 . S
C176 C177 1.331 . S
C176 H194 0.932 . S
C177 C176 1.331 . S
C177 C178 1.336 1_455 S
C178 C174 1.394 . S
C178 C177 1.336 1_655 S
C178 H193 0.929 . S
C179 C169 1.386 . S
C179 C172 1.357 . S
C179 H192 0.928 . S
H180 C156 0.931 . S
H181 C158 0.930 . S
H182 C160 0.929 . S
H183 C161 0.931 1_545 S
H184 C163 0.930 1_655 S
H185 C167 0.931 . S
H186 C165 0.931 . S
H187 C169 0.931 . S
H188 C170 0.929 . S
H189 C171 0.930 . S
H190 C174 0.930 . S
H191 C175 0.931 . S
H192 C179 0.928 . S
H193 C178 0.929 . S
H194 C176 0.932 . S
C195 C196 1.386 . S
C195 C197 1.397 . S
C195 H219 0.931 . S
C196 C195 1.386 . S
C196 C200 1.397 . S
C197 C195 1.397 . S
C197 C198 1.384 . S
C197 H220 0.930 . S
C198 C197 1.384 . S
C198 C199 1.377 . S
C198 C201 1.481 . S
C199 C198 1.377 . S
C199 C200 1.389 . S
C199 H221 0.929 . S
C200 C196 1.397 . S
C200 C199 1.389 . S
C200 H222 0.931 . S
C201 C198 1.481 . S
C201 C202 1.387 . S
C201 C206 1.390 . S
C202 C201 1.387 . S
C202 C203 1.401 . S
C202 H223 0.930 . S
C203 C202 1.401 . S
C203 C204 1.376 . S
C203 C212 1.511 . S
C204 C203 1.376 . S
C204 C205 1.392 . S
C204 H225 0.931 . S
C205 C204 1.392 . S
C205 C206 1.361 . S
C205 C207 1.500 . S
C206 C201 1.390 . S
C206 C205 1.361 . S
C206 H224 0.931 . S
C207 C205 1.500 . S
C207 C208 1.371 . S
C207 C209 1.365 . S
C208 C207 1.371 . S
C208 C218 1.386 . S
C208 H226 0.931 . S
C209 C207 1.365 . S
C209 C210 1.409 . S
C209 H227 0.929 . S
C210 C209 1.409 . S
C210 C211 1.380 . S
C210 H228 0.930 . S
C211 C210 1.380 . S
C211 C218 1.357 . S
C212 C203 1.511 . S
C212 C213 1.341 . S
C212 C214 1.371 . S
C213 C212 1.341 . S
C213 C217 1.394 . S
C213 H229 0.930 . S
C214 C212 1.371 . S
C214 C215 1.392 . S
C214 H230 0.931 . S
C215 C214 1.392 . S
C215 C216 1.331 . S
C215 H233 0.932 . S
C216 C215 1.331 . S
C216 C217 1.336 . S
C217 C213 1.394 . S
C217 C216 1.336 . S
C217 H232 0.929 . S
C218 C208 1.386 . S
C218 C211 1.357 . S
C218 H231 0.928 . S
H219 C195 0.931 . S
H220 C197 0.930 . S
H221 C199 0.929 . S
H222 C200 0.931 . S
H223 C202 0.930 . S
H224 C206 0.931 . S
H225 C204 0.931 . S
H226 C208 0.931 . S
H227 C209 0.929 . S
H228 C210 0.930 . S
H229 C213 0.930 . S
H230 C214 0.931 . S
H231 C218 0.928 . S
H232 C217 0.929 . S
H233 C215 0.932 . S
C234 C235 1.387 . S
C234 C236 1.397 1_455 S
C234 H258 0.931 . S
C235 C234 1.387 . S
C235 C239 1.396 1_455 S
C236 C234 1.397 1_655 S
C236 C237 1.384 . S
C236 H259 0.930 1_655 S
C237 C236 1.384 . S
C237 C238 1.377 . S
C237 C240 1.481 . S
C238 C237 1.377 . S
C238 C239 1.389 . S
C238 H260 0.929 . S
C239 C235 1.396 1_655 S
C239 C238 1.389 . S
C239 H261 0.931 . S
C240 C237 1.481 . S
C240 C241 1.387 1_655 S
C240 C245 1.390 . S
C241 C240 1.387 1_455 S
C241 C242 1.399 1_455 S
C241 H262 0.930 . S
C242 C241 1.399 1_655 S
C242 C243 1.390 . S
C242 C251 1.500 1_655 S
C243 C242 1.390 . S
C243 C244 1.392 . S
C243 H264 0.931 . S
C244 C243 1.392 . S
C244 C245 1.361 . S
C244 C246 1.500 . S
C245 C240 1.390 . S
C245 C244 1.361 . S
C245 H263 0.931 . S
C246 C244 1.500 . S
C246 C247 1.371 . S
C246 C248 1.365 . S
C247 C246 1.371 . S
C247 C257 1.386 . S
C247 H265 0.931 . S
C248 C246 1.365 . S
C248 C249 1.409 . S
C248 H266 0.929 . S
C249 C248 1.409 . S
C249 C250 1.380 . S
C249 H267 0.930 . S
C250 C249 1.380 . S
C250 C257 1.357 . S
C251 C242 1.500 1_455 S
C251 C252 1.341 . S
C251 C253 1.371 . S
C252 C251 1.341 . S
C252 C256 1.394 . S
C252 H268 0.930 . S
C253 C251 1.371 . S
C253 C254 1.392 . S
C253 H269 0.931 . S
C254 C253 1.392 . S
C254 C255 1.331 . S
C254 H272 0.932 . S
C255 C254 1.331 . S
C255 C256 1.336 . S
C256 C252 1.394 . S
C256 C255 1.336 . S
C256 H271 0.929 . S
C257 C247 1.386 . S
C257 C250 1.357 . S
C257 H270 0.928 . S
H258 C234 0.931 . S
H259 C236 0.930 1_455 S
H260 C238 0.929 . S
H261 C239 0.931 . S
H262 C241 0.930 . S
H263 C245 0.931 . S
H264 C243 0.931 . S
H265 C247 0.931 . S
H266 C248 0.929 . S
H267 C249 0.930 . S
H268 C252 0.930 . S
H269 C253 0.931 . S
H270 C257 0.928 . S
H271 C256 0.929 . S
H272 C254 0.932 . S
C273 C274 1.386 . S
C273 C275 1.397 . S
C273 H297 0.931 . S
C274 C273 1.386 . S
C274 C278 1.397 . S
C275 C273 1.397 . S
C275 C276 1.384 . S
C275 H298 0.930 . S
C276 C275 1.384 . S
C276 C277 1.377 . S
C276 C279 1.481 . S
C277 C276 1.377 . S
C277 C278 1.389 . S
C277 H299 0.929 . S
C278 C274 1.397 . S
C278 C277 1.389 . S
C278 H300 0.931 . S
C279 C276 1.481 . S
C279 C280 1.387 . S
C279 C284 1.390 . S
C280 C279 1.387 . S
C280 C281 1.401 . S
C280 H301 0.930 . S
C281 C280 1.401 . S
C281 C282 1.376 . S
C281 C290 1.511 . S
C282 C281 1.376 . S
C282 C283 1.392 . S
C282 H303 0.931 . S
C283 C282 1.392 . S
C283 C284 1.361 . S
C283 C285 1.500 . S
C284 C279 1.390 . S
C284 C283 1.361 . S
C284 H302 0.931 . S
C285 C283 1.500 . S
C285 C286 1.371 . S
C285 C287 1.365 . S
C286 C285 1.371 . S
C286 C296 1.386 . S
C286 H304 0.931 . S
C287 C285 1.365 . S
C287 C288 1.409 . S
C287 H305 0.929 . S
C288 C287 1.409 . S
C288 C289 1.380 . S
C288 H306 0.930 . S
C289 C288 1.380 . S
C289 C296 1.357 . S
C290 C281 1.511 . S
C290 C291 1.341 . S
C290 C292 1.371 . S
C291 C290 1.341 . S
C291 C295 1.394 . S
C291 H307 0.930 . S
C292 C290 1.371 . S
C292 C293 1.392 . S
C292 H308 0.931 . S
C293 C292 1.392 . S
C293 C294 1.331 . S
C293 H311 0.932 . S
C294 C293 1.331 . S
C294 C295 1.336 . S
C295 C291 1.394 . S
C295 C294 1.336 . S
C295 H310 0.929 . S
C296 C286 1.386 . S
C296 C289 1.357 . S
C296 H309 0.928 . S
H297 C273 0.931 . S
H298 C275 0.930 . S
H299 C277 0.929 . S
H300 C278 0.931 . S
H301 C280 0.930 . S
H302 C284 0.931 . S
H303 C282 0.931 . S
H304 C286 0.931 . S
H305 C287 0.929 . S
H306 C288 0.930 . S
H307 C291 0.930 . S
H308 C292 0.931 . S
H309 C296 0.928 . S
H310 C295 0.929 . S
H311 C293 0.932 . S
C312 C313 1.386 . S
C312 C314 1.397 . S
C312 H336 0.931 . S
C313 C312 1.386 . S
C313 C317 1.397 . S
C314 C312 1.397 . S
C314 C315 1.384 . S
C314 H337 0.930 . S
C315 C314 1.384 . S
C315 C316 1.377 . S
C315 C318 1.481 . S
C316 C315 1.377 . S
C316 C317 1.389 . S
C316 H338 0.929 . S
C317 C313 1.397 . S
C317 C316 1.389 . S
C317 H339 0.931 . S
C318 C315 1.481 . S
C318 C319 1.387 . S
C318 C323 1.390 . S
C319 C318 1.387 . S
C319 C320 1.401 . S
C319 H340 0.930 . S
C320 C319 1.401 . S
C320 C321 1.376 . S
C320 C329 1.511 . S
C321 C320 1.376 . S
C321 C322 1.392 . S
C321 H342 0.931 . S
C322 C321 1.392 . S
C322 C323 1.361 . S
C322 C324 1.500 . S
C323 C318 1.390 . S
C323 C322 1.361 . S
C323 H341 0.931 . S
C324 C322 1.500 . S
C324 C325 1.371 . S
C324 C326 1.365 . S
C325 C324 1.371 . S
C325 C335 1.386 . S
C325 H343 0.931 . S
C326 C324 1.365 . S
C326 C327 1.409 . S
C326 H344 0.929 . S
C327 C326 1.409 . S
C327 C328 1.380 . S
C327 H345 0.930 . S
C328 C327 1.380 . S
C328 C335 1.357 . S
C329 C320 1.511 . S
C329 C330 1.341 . S
C329 C331 1.371 . S
C330 C329 1.341 . S
C330 C334 1.394 . S
C330 H346 0.930 . S
C331 C329 1.371 . S
C331 C332 1.392 . S
C331 H347 0.931 . S
C332 C331 1.392 . S
C332 C333 1.331 . S
C332 H350 0.932 . S
C333 C332 1.331 . S
C333 C334 1.336 . S
C334 C330 1.394 . S
C334 C333 1.336 . S
C334 H349 0.929 . S
C335 C325 1.386 . S
C335 C328 1.357 . S
C335 H348 0.928 . S
H336 C312 0.931 . S
H337 C314 0.930 . S
H338 C316 0.929 . S
H339 C317 0.931 . S
H340 C319 0.930 . S
H341 C323 0.931 . S
H342 C321 0.931 . S
H343 C325 0.931 . S
H344 C326 0.929 . S
H345 C327 0.930 . S
H346 C330 0.930 . S
H347 C331 0.931 . S
H348 C335 0.928 . S
H349 C334 0.929 . S
H350 C332 0.932 . S
C351 C352 1.386 . S
C351 C353 1.397 . S
C351 H375 0.928 1_565 S
C352 C351 1.386 . S
C352 C356 1.397 . S
C353 C351 1.397 . S
C353 C354 1.384 . S
C353 H376 0.930 . S
C354 C353 1.384 . S
C354 C355 1.377 . S
C354 C357 1.481 . S
C355 C354 1.377 . S
C355 C356 1.389 . S
C355 H377 0.929 . S
C356 C352 1.397 . S
C356 C355 1.389 . S
C356 H378 0.931 . S
C357 C354 1.481 . S
C357 C358 1.387 . S
C357 C362 1.390 . S
C358 C357 1.387 . S
C358 C359 1.401 . S
C358 H379 0.930 1_565 S
C359 C358 1.401 . S
C359 C360 1.376 . S
C359 C368 1.511 1_565 S
C360 C359 1.376 . S
C360 C361 1.392 . S
C360 H381 0.931 . S
C361 C360 1.392 . S
C361 C362 1.361 . S
C361 C363 1.500 . S
C362 C357 1.390 . S
C362 C361 1.361 . S
C362 H380 0.931 . S
C363 C361 1.500 . S
C363 C364 1.371 . S
C363 C365 1.365 . S
C364 C363 1.371 . S
C364 C374 1.386 . S
C364 H382 0.931 . S
C365 C363 1.365 . S
C365 C366 1.409 . S
C365 H383 0.929 . S
C366 C365 1.409 . S
C366 C367 1.380 . S
C366 H384 0.930 . S
C367 C366 1.380 . S
C367 C374 1.357 . S
C368 C359 1.511 1_545 S
C368 C369 1.341 . S
C368 C370 1.371 . S
C369 C368 1.341 . S
C369 C373 1.394 . S
C369 H385 0.930 . S
C370 C368 1.371 . S
C370 C371 1.392 . S
C370 H386 0.931 . S
C371 C370 1.392 . S
C371 C372 1.331 . S
C371 H389 0.932 . S
C372 C371 1.331 . S
C372 C373 1.336 . S
C373 C369 1.394 . S
C373 C372 1.336 . S
C373 H388 0.929 . S
C374 C364 1.386 . S
C374 C367 1.357 . S
C374 H387 0.928 . S
H375 C351 0.928 1_545 S
H376 C353 0.930 . S
H377 C355 0.929 . S
H378 C356 0.931 . S
H379 C358 0.930 1_545 S
H380 C362 0.931 . S
H381 C360 0.931 . S
H382 C364 0.931 . S
H383 C365 0.929 . S
H384 C366 0.930 . S
H385 C369 0.930 . S
H386 C370 0.931 . S
H387 C374 0.928 . S
H388 C373 0.929 . S
H389 C371 0.932 . S
C390 C391 1.386 . S
C390 C392 1.397 . S
C390 H414 0.931 . S
C391 C390 1.386 . S
C391 C395 1.397 . S
C392 C390 1.397 . S
C392 C393 1.384 . S
C392 H415 0.930 . S
C393 C392 1.384 . S
C393 C394 1.377 . S
C393 C396 1.481 . S
C394 C393 1.377 . S
C394 C395 1.389 . S
C394 H416 0.929 . S
C395 C391 1.397 . S
C395 C394 1.389 . S
C395 H417 0.931 . S
C396 C393 1.481 . S
C396 C397 1.387 . S
C396 C401 1.390 . S
C397 C396 1.387 . S
C397 C398 1.401 . S
C397 H418 0.930 . S
C398 C397 1.401 . S
C398 C399 1.376 . S
C398 C407 1.511 . S
C399 C398 1.376 . S
C399 C400 1.392 . S
C399 H420 0.931 . S
C400 C399 1.392 . S
C400 C401 1.361 . S
C400 C402 1.500 . S
C401 C396 1.390 . S
C401 C400 1.361 . S
C401 H419 0.931 . S
C402 C400 1.500 . S
C402 C403 1.371 . S
C402 C404 1.365 . S
C403 C402 1.371 . S
C403 C413 1.386 . S
C403 H421 0.931 . S
C404 C402 1.365 . S
C404 C405 1.409 . S
C404 H422 0.929 . S
C405 C404 1.409 . S
C405 C406 1.380 . S
C405 H423 0.930 . S
C406 C405 1.380 . S
C406 C413 1.357 . S
C407 C398 1.511 . S
C407 C408 1.341 . S
C407 C409 1.371 . S
C408 C407 1.341 . S
C408 C412 1.394 . S
C408 H424 0.930 . S
C409 C407 1.371 . S
C409 C410 1.392 . S
C409 H425 0.931 . S
C410 C409 1.392 . S
C410 C411 1.331 . S
C410 H428 0.932 . S
C411 C410 1.331 . S
C411 C412 1.336 . S
C412 C408 1.394 . S
C412 C411 1.336 . S
C412 H427 0.929 . S
C413 C403 1.386 . S
C413 C406 1.357 . S
C413 H426 0.928 . S
H414 C390 0.931 . S
H415 C392 0.930 . S
H416 C394 0.929 . S
H417 C395 0.931 . S
H418 C397 0.930 . S
H419 C401 0.931 . S
H420 C399 0.931 . S
H421 C403 0.931 . S
H422 C404 0.929 . S
H423 C405 0.930 . S
H424 C408 0.930 . S
H425 C409 0.931 . S
H426 C413 0.928 . S
H427 C412 0.929 . S
H428 C410 0.932 . S
C429 C430 1.386 . S
C429 C431 1.397 . S
C429 H453 0.931 . S
C430 C429 1.386 . S
C430 C434 1.397 . S
C431 C429 1.397 . S
C431 C432 1.384 . S
C431 H454 0.930 . S
C432 C431 1.384 . S
C432 C433 1.377 . S
C432 C435 1.481 . S
C433 C432 1.377 . S
C433 C434 1.389 . S
C433 H455 0.929 . S
C434 C430 1.397 . S
C434 C433 1.389 . S
C434 H456 0.931 . S
C435 C432 1.481 . S
C435 C436 1.387 . S
C435 C440 1.390 . S
C436 C435 1.387 . S
C436 C437 1.401 . S
C436 H457 0.930 . S
C437 C436 1.401 . S
C437 C438 1.376 . S
C437 C446 1.511 . S
C438 C437 1.376 . S
C438 C439 1.392 . S
C438 H459 0.931 . S
C439 C438 1.392 . S
C439 C440 1.361 . S
C439 C441 1.500 . S
C440 C435 1.390 . S
C440 C439 1.361 . S
C440 H458 0.931 . S
C441 C439 1.500 . S
C441 C442 1.371 . S
C441 C443 1.365 . S
C442 C441 1.371 . S
C442 C452 1.386 . S
C442 H460 0.931 . S
C443 C441 1.365 . S
C443 C444 1.409 . S
C443 H461 0.929 . S
C444 C443 1.409 . S
C444 C445 1.380 . S
C444 H462 0.930 . S
C445 C444 1.380 . S
C445 C452 1.357 . S
C446 C437 1.511 . S
C446 C447 1.341 . S
C446 C448 1.371 . S
C447 C446 1.341 . S
C447 C451 1.394 . S
C447 H463 0.930 . S
C448 C446 1.371 . S
C448 C449 1.392 . S
C448 H464 0.931 . S
C449 C448 1.392 . S
C449 C450 1.331 . S
C449 H467 0.932 . S
C450 C449 1.331 . S
C450 C451 1.336 . S
C451 C447 1.394 . S
C451 C450 1.336 . S
C451 H466 0.929 . S
C452 C442 1.386 . S
C452 C445 1.357 . S
C452 H465 0.928 . S
H453 C429 0.931 . S
H454 C431 0.930 . S
H455 C433 0.929 . S
H456 C434 0.931 . S
H457 C436 0.930 . S
H458 C440 0.931 . S
H459 C438 0.931 . S
H460 C442 0.931 . S
H461 C443 0.929 . S
H462 C444 0.930 . S
H463 C447 0.930 . S
H464 C448 0.931 . S
H465 C452 0.928 . S
H466 C451 0.929 . S
H467 C449 0.932 . S
C468 C469 1.386 . S
C468 C470 1.397 . S
C468 H492 0.931 . S
C469 C468 1.386 . S
C469 C473 1.397 . S
C470 C468 1.397 . S
C470 C471 1.384 . S
C470 H493 0.930 . S
C471 C470 1.384 . S
C471 C472 1.377 . S
C471 C474 1.481 . S
C472 C471 1.377 . S
C472 C473 1.389 . S
C472 H494 0.929 . S
C473 C469 1.397 . S
C473 C472 1.389 . S
C473 H495 0.931 . S
C474 C471 1.481 . S
C474 C475 1.387 . S
C474 C479 1.390 . S
C475 C474 1.387 . S
C475 C476 1.401 . S
C475 H496 0.930 . S
C476 C475 1.401 . S
C476 C477 1.376 . S
C476 C485 1.511 . S
C477 C476 1.376 . S
C477 C478 1.392 . S
C477 H498 0.931 . S
C478 C477 1.392 . S
C478 C479 1.361 . S
C478 C480 1.500 . S
C479 C474 1.390 . S
C479 C478 1.361 . S
C479 H497 0.931 . S
C480 C478 1.500 . S
C480 C481 1.371 . S
C480 C482 1.365 . S
C481 C480 1.371 . S
C481 C491 1.386 . S
C481 H499 0.931 . S
C482 C480 1.365 . S
C482 C483 1.409 . S
C482 H500 0.929 . S
C483 C482 1.409 . S
C483 C484 1.380 . S
C483 H501 0.930 . S
C484 C483 1.380 . S
C484 C491 1.357 . S
C485 C476 1.511 . S
C485 C486 1.341 . S
C485 C487 1.371 . S
C486 C485 1.341 . S
C486 C490 1.394 . S
C486 H502 0.930 . S
C487 C485 1.371 . S
C487 C488 1.392 . S
C487 H503 0.931 . S
C488 C487 1.392 . S
C488 C489 1.331 . S
C488 H506 0.932 . S
C489 C488 1.331 . S
C489 C490 1.336 . S
C490 C486 1.394 . S
C490 C489 1.336 . S
C490 H505 0.929 . S
C491 C481 1.386 . S
C491 C484 1.357 . S
C491 H504 0.928 . S
H492 C468 0.931 . S
H493 C470 0.930 . S
H494 C472 0.929 . S
H495 C473 0.931 . S
H496 C475 0.930 . S
H497 C479 0.931 . S
H498 C477 0.931 . S
H499 C481 0.931 . S
H500 C482 0.929 . S
H501 C483 0.930 . S
H502 C486 0.930 . S
H503 C487 0.931 . S
H504 C491 0.928 . S
H505 C490 0.929 . S
H506 C488 0.932 . S
C507 C508 1.386 . S
C507 C509 1.397 . S
C507 H531 0.931 . S
C508 C507 1.386 . S
C508 C512 1.397 . S
C509 C507 1.397 . S
C509 C510 1.384 . S
C509 H532 0.930 . S
C510 C509 1.384 . S
C510 C511 1.377 . S
C510 C513 1.481 . S
C511 C510 1.377 . S
C511 C512 1.389 . S
C511 H533 0.929 . S
C512 C508 1.397 . S
C512 C511 1.389 . S
C512 H534 0.931 . S
C513 C510 1.481 . S
C513 C514 1.387 . S
C513 C518 1.390 . S
C514 C513 1.387 . S
C514 C515 1.401 . S
C514 H535 0.930 . S
C515 C514 1.401 . S
C515 C516 1.376 . S
C515 C524 1.511 1_556 S
C516 C515 1.376 . S
C516 C517 1.392 . S
C516 H537 0.931 1_556 S
C517 C516 1.392 . S
C517 C518 1.361 . S
C517 C519 1.500 . S
C518 C513 1.390 . S
C518 C517 1.361 . S
C518 H536 0.931 . S
C519 C517 1.500 . S
C519 C520 1.371 1_556 S
C519 C521 1.365 . S
C520 C519 1.371 1_554 S
C520 C530 1.386 . S
C520 H538 0.931 . S
C521 C519 1.365 . S
C521 C522 1.409 . S
C521 H539 0.929 . S
C522 C521 1.409 . S
C522 C523 1.380 . S
C522 H540 0.930 . S
C523 C522 1.380 . S
C523 C530 1.357 1_556 S
C524 C515 1.511 1_554 S
C524 C525 1.341 . S
C524 C526 1.371 . S
C525 C524 1.341 . S
C525 C529 1.394 . S
C525 H541 0.930 . S
C526 C524 1.371 . S
C526 C527 1.392 . S
C526 H542 0.931 . S
C527 C526 1.392 . S
C527 C528 1.331 . S
C527 H545 0.932 . S
C528 C527 1.331 . S
C528 C529 1.336 . S
C529 C525 1.394 . S
C529 C528 1.336 . S
C529 H544 0.929 . S
C530 C520 1.386 . S
C530 C523 1.357 1_554 S
C530 H543 0.928 . S
H531 C507 0.931 . S
H532 C509 0.930 . S
H533 C511 0.929 . S
H534 C512 0.931 . S
H535 C514 0.930 . S
H536 C518 0.931 . S
H537 C516 0.931 1_554 S
H538 C520 0.931 . S
H539 C521 0.929 . S
H540 C522 0.930 . S
H541 C525 0.930 . S
H542 C526 0.931 . S
H543 C530 0.928 . S
H544 C529 0.929 . S
H545 C527 0.932 . S
C546 C547 1.386 . S
C546 C548 1.397 . S
C546 H570 0.931 . S
C547 C546 1.386 . S
C547 C551 1.397 . S
C548 C546 1.397 . S
C548 C549 1.384 . S
C548 H571 0.930 . S
C549 C548 1.384 . S
C549 C550 1.377 . S
C549 C552 1.481 . S
C550 C549 1.377 . S
C550 C551 1.389 . S
C550 H572 0.929 . S
C551 C547 1.397 . S
C551 C550 1.389 . S
C551 H573 0.931 . S
C552 C549 1.481 . S
C552 C553 1.387 . S
C552 C557 1.390 . S
C553 C552 1.387 . S
C553 C554 1.401 . S
C553 H574 0.930 . S
C554 C553 1.401 . S
C554 C555 1.376 . S
C554 C563 1.511 . S
C555 C554 1.376 . S
C555 C556 1.392 . S
C555 H576 0.931 . S
C556 C555 1.392 . S
C556 C557 1.361 . S
C556 C558 1.500 . S
C557 C552 1.390 . S
C557 C556 1.361 . S
C557 H575 0.931 . S
C558 C556 1.500 . S
C558 C559 1.371 . S
C558 C560 1.365 . S
C559 C558 1.371 . S
C559 C569 1.386 . S
C559 H577 0.931 . S
C560 C558 1.365 . S
C560 C561 1.409 . S
C560 H578 0.929 . S
C561 C560 1.409 . S
C561 C562 1.380 . S
C561 H579 0.930 . S
C562 C561 1.380 . S
C562 C569 1.357 . S
C563 C554 1.511 . S
C563 C564 1.341 . S
C563 C565 1.371 . S
C564 C563 1.341 . S
C564 C568 1.394 . S
C564 H580 0.930 . S
C565 C563 1.371 . S
C565 C566 1.392 . S
C565 H581 0.931 . S
C566 C565 1.392 . S
C566 C567 1.331 . S
C566 H584 0.932 . S
C567 C566 1.331 . S
C567 C568 1.336 . S
C568 C564 1.394 . S
C568 C567 1.336 . S
C568 H583 0.929 . S
C569 C559 1.386 . S
C569 C562 1.357 . S
C569 H582 0.928 . S
H570 C546 0.931 . S
H571 C548 0.930 . S
H572 C550 0.929 . S
H573 C551 0.931 . S
H574 C553 0.930 . S
H575 C557 0.931 . S
H576 C555 0.931 . S
H577 C559 0.931 . S
H578 C560 0.929 . S
H579 C561 0.930 . S
H580 C564 0.930 . S
H581 C565 0.931 . S
H582 C569 0.928 . S
H583 C568 0.929 . S
H584 C566 0.932 . S
C585 C586 1.386 . S
C585 C587 1.397 . S
C585 H609 0.931 . S
C586 C585 1.386 . S
C586 C590 1.397 . S
C587 C585 1.397 . S
C587 C588 1.384 . S
C587 H610 0.930 1_554 S
C588 C587 1.384 . S
C588 C589 1.377 . S
C588 C591 1.473 1_554 S
C589 C588 1.377 . S
C589 C590 1.389 . S
C589 H611 0.929 . S
C590 C586 1.397 . S
C590 C589 1.389 . S
C590 H612 0.931 . S
C591 C588 1.473 1_556 S
C591 C592 1.397 . S
C591 C596 1.388 1_556 S
C592 C591 1.397 . S
C592 C593 1.401 . S
C592 H613 0.930 . S
C593 C592 1.401 . S
C593 C594 1.376 . S
C593 C602 1.511 . S
C594 C593 1.376 . S
C594 C595 1.392 . S
C594 H615 0.931 1_545 S
C595 C594 1.392 . S
C595 C596 1.361 1_556 S
C595 C597 1.500 1_545 S
C596 C591 1.388 1_554 S
C596 C595 1.361 1_554 S
C596 H614 0.931 . S
C597 C595 1.500 1_565 S
C597 C598 1.371 . S
C597 C599 1.365 1_556 S
C598 C597 1.371 . S
C598 C608 1.386 . S
C598 H616 0.931 . S
C599 C597 1.365 1_554 S
C599 C600 1.409 . S
C599 H617 0.929 . S
C600 C599 1.409 . S
C600 C601 1.405 . S
C600 H618 0.930 . S
C601 C600 1.405 . S
C601 C608 1.327 1_554 S
C602 C593 1.511 . S
C602 C603 1.341 . S
C602 C604 1.371 1_545 S
C603 C602 1.341 . S
C603 C607 1.394 . S
C603 H619 0.930 . S
C604 C602 1.371 1_565 S
C604 C605 1.392 . S
C604 H620 0.931 . S
C605 C604 1.392 . S
C605 C606 1.331 1_565 S
C605 H623 0.932 . S
C606 C605 1.331 1_545 S
C606 C607 1.336 . S
C607 C603 1.394 . S
C607 C606 1.336 . S
C607 H622 0.929 . S
C608 C598 1.386 . S
C608 C601 1.327 1_556 S
C608 H621 0.928 . S
H609 C585 0.931 . S
H610 C587 0.930 1_556 S
H611 C589 0.929 . S
H612 C590 0.931 . S
H613 C592 0.930 . S
H614 C596 0.931 . S
H615 C594 0.931 1_565 S
H616 C598 0.931 . S
H617 C599 0.929 . S
H618 C600 0.930 . S
H619 C603 0.930 . S
H620 C604 0.931 . S
H621 C608 0.928 . S
H622 C607 0.929 . S
H623 C605 0.932 . S
Mn624 O629 2.095 . S
Mn624 O639 2.162 . S
Mn624 O640 2.297 . S
Mn624 O648 2.385 1_554 S
Mn624 O649 2.209 1_554 S
Mn624 O650 2.094 . S
Mn625 O630 2.121 . S
Mn625 N632 2.257 . S
Mn625 N641 2.282 . S
Mn625 O649 2.215 . S
Mn625 O651 2.117 . S
C626 O648 1.234 . S
C626 O649 1.283 . S
C627 O639 1.281 . S
C627 O640 1.236 . S
C628 O650 1.240 . S
C628 O651 1.264 1_554 S
O629 Mn624 2.095 . S
O629 C638 1.252 1_554 S
O630 Mn625 2.121 . S
O630 C638 1.256 . S
C631 N632 1.326 . S
C631 C635 1.460 . S
C631 H637 0.929 . S
N632 Mn625 2.257 . S
N632 C631 1.326 . S
N632 C636 1.362 . S
C633 C634 1.258 . S
C633 C636 1.431 . S
C633 C653 1.449 . S
C634 C633 1.258 . S
C634 C635 1.477 . S
C634 H654 0.931 . S
C635 C631 1.460 . S
C635 C634 1.477 . S
C635 H655 0.930 . S
C636 N632 1.362 . S
C636 C633 1.431 . S
C636 C646 1.476 . S
H637 C631 0.929 . S
C638 O629 1.252 1_556 S
C638 O630 1.256 . S
O639 Mn624 2.162 . S
O639 C627 1.281 . S
O640 Mn624 2.297 . S
O640 C627 1.236 . S
N641 Mn625 2.282 . S
N641 C642 1.328 . S
N641 C646 1.318 . S
C642 N641 1.328 . S
C642 C643 1.457 . S
C642 H647 0.929 . S
C643 C642 1.457 . S
C643 C644 1.291 . S
C643 H656 0.931 . S
C644 C643 1.291 . S
C644 C645 1.373 . S
C644 H657 0.929 . S
C645 C644 1.373 . S
C645 C646 1.396 . S
C645 C652 1.403 . S
C646 C636 1.476 . S
C646 N641 1.318 . S
C646 C645 1.396 . S
H647 C642 0.929 . S
O648 Mn624 2.385 1_556 S
O648 C626 1.234 . S
O649 Mn624 2.209 1_556 S
O649 Mn625 2.215 . S
O649 C626 1.283 . S
O650 Mn624 2.094 . S
O650 C628 1.240 . S
O651 Mn625 2.117 . S
O651 C628 1.264 1_556 S
C652 C645 1.403 . S
C652 C653 1.399 . S
C652 H658 0.929 . S
C653 C633 1.449 . S
C653 C652 1.399 . S
C653 H659 0.930 . S
H654 C634 0.931 . S
H655 C635 0.930 . S
H656 C643 0.931 . S
H657 C644 0.929 . S
H658 C652 0.929 . S
H659 C653 0.930 . S
Mn660 O665 2.095 . S
Mn660 O675 2.162 . S
Mn660 O676 2.297 . S
Mn660 O684 2.385 . S
Mn660 O685 2.209 . S
Mn660 O686 2.094 . S
Mn661 O666 2.121 . S
Mn661 N668 2.257 . S
Mn661 N677 2.282 . S
Mn661 O685 2.215 . S
Mn661 O687 2.117 . S
C662 O684 1.234 . S
C662 O685 1.283 . S
C663 O675 1.281 . S
C663 O676 1.236 . S
C664 O686 1.240 . S
C664 O687 1.264 . S
O665 Mn660 2.095 . S
O665 C674 1.250 . S
O666 Mn661 2.121 . S
O666 C674 1.258 . S
C667 N668 1.326 . S
C667 C671 1.460 . S
C667 H673 0.929 . S
N668 Mn661 2.257 . S
N668 C667 1.326 . S
N668 C672 1.362 . S
C669 C670 1.258 . S
C669 C672 1.431 . S
C669 C689 1.449 . S
C670 C669 1.258 . S
C670 C671 1.477 . S
C670 H690 0.931 . S
C671 C667 1.460 . S
C671 C670 1.477 . S
C671 H691 0.930 . S
C672 N668 1.362 . S
C672 C669 1.431 . S
C672 C682 1.476 . S
H673 C667 0.929 . S
C674 O665 1.250 . S
C674 O666 1.258 . S
O675 Mn660 2.162 . S
O675 C663 1.281 . S
O676 Mn660 2.297 . S
O676 C663 1.236 . S
N677 Mn661 2.282 . S
N677 C678 1.328 . S
N677 C682 1.318 . S
C678 N677 1.328 . S
C678 C679 1.457 . S
C678 H683 0.929 . S
C679 C678 1.457 . S
C679 C680 1.291 . S
C679 H692 0.931 . S
C680 C679 1.291 . S
C680 C681 1.373 . S
C680 H693 0.929 . S
C681 C680 1.373 . S
C681 C682 1.396 . S
C681 C688 1.403 . S
C682 C672 1.476 . S
C682 N677 1.318 . S
C682 C681 1.396 . S
H683 C678 0.929 . S
O684 Mn660 2.385 . S
O684 C662 1.234 . S
O685 Mn660 2.209 . S
O685 Mn661 2.215 . S
O685 C662 1.283 . S
O686 Mn660 2.094 . S
O686 C664 1.240 . S
O687 Mn661 2.117 . S
O687 C664 1.264 . S
C688 C681 1.403 . S
C688 C689 1.399 . S
C688 H694 0.929 . S
C689 C669 1.449 . S
C689 C688 1.399 . S
C689 H695 0.930 . S
H690 C670 0.931 . S
H691 C671 0.930 . S
H692 C679 0.931 . S
H693 C680 0.929 . S
H694 C688 0.929 . S
H695 C689 0.930 . S
Mn696 O701 2.095 1_554 S
Mn696 O711 2.162 . S
Mn696 O712 2.297 1_554 S
Mn696 O720 2.385 . S
Mn696 O721 2.209 1_554 S
Mn696 O722 2.094 . S
Mn697 O702 2.121 . S
Mn697 N704 2.257 . S
Mn697 N713 2.282 . S
Mn697 O721 2.215 . S
Mn697 O723 2.117 1_556 S
C698 O720 1.234 . S
C698 O721 1.283 1_554 S
C699 O711 1.281 . S
C699 O712 1.236 1_554 S
C700 O722 1.240 . S
C700 O723 1.264 . S
O701 Mn696 2.095 1_556 S
O701 C710 1.250 . S
O702 Mn697 2.121 . S
O702 C710 1.258 . S
C703 N704 1.326 . S
C703 C707 1.460 . S
C703 H709 0.929 . S
N704 Mn697 2.257 . S
N704 C703 1.326 . S
N704 C708 1.362 . S
C705 C706 1.258 . S
C705 C708 1.431 . S
C705 C725 1.449 . S
C706 C705 1.258 . S
C706 C707 1.477 . S
C706 H726 0.931 . S
C707 C703 1.460 . S
C707 C706 1.477 . S
C707 H727 0.930 . S
C708 N704 1.362 . S
C708 C705 1.431 . S
C708 C718 1.476 . S
H709 C703 0.929 . S
C710 O701 1.250 . S
C710 O702 1.258 . S
O711 Mn696 2.162 . S
O711 C699 1.281 . S
O712 Mn696 2.297 1_556 S
O712 C699 1.236 1_556 S
N713 Mn697 2.282 . S
N713 C714 1.328 1_556 S
N713 C718 1.318 . S
C714 N713 1.328 1_554 S
C714 C715 1.457 . S
C714 H719 0.929 . S
C715 C714 1.457 . S
C715 C716 1.291 . S
C715 H728 0.931 . S
C716 C715 1.291 . S
C716 C717 1.373 1_554 S
C716 H729 0.929 . S
C717 C716 1.373 1_556 S
C717 C718 1.396 . S
C717 C724 1.403 . S
C718 C708 1.476 . S
C718 N713 1.318 . S
C718 C717 1.396 . S
H719 C714 0.929 . S
O720 Mn696 2.385 . S
O720 C698 1.234 . S
O721 Mn696 2.209 1_556 S
O721 Mn697 2.215 . S
O721 C698 1.283 1_556 S
O722 Mn696 2.094 . S
O722 C700 1.240 . S
O723 Mn697 2.117 1_554 S
O723 C700 1.264 . S
C724 C717 1.403 . S
C724 C725 1.399 . S
C724 H730 0.929 . S
C725 C705 1.449 . S
C725 C724 1.399 . S
C725 H731 0.930 . S
H726 C706 0.931 . S
H727 C707 0.930 . S
H728 C715 0.931 . S
H729 C716 0.929 . S
H730 C724 0.929 . S
H731 C725 0.930 . S
Mn732 O737 2.095 . S
Mn732 O747 2.162 . S
Mn732 O748 2.297 . S
Mn732 O756 2.385 1_545 S
Mn732 O757 2.209 1_545 S
Mn732 O758 2.094 . S
Mn733 O738 2.121 . S
Mn733 N740 2.257 . S
Mn733 N749 2.282 . S
Mn733 O757 2.215 . S
Mn733 O759 2.117 . S
C734 O756 1.234 . S
C734 O757 1.283 . S
C735 O747 1.281 . S
C735 O748 1.236 . S
C736 O758 1.240 . S
C736 O759 1.264 1_545 S
O737 Mn732 2.095 . S
O737 C746 1.250 1_545 S
O738 Mn733 2.121 . S
O738 C746 1.258 . S
C739 N740 1.326 . S
C739 C743 1.460 . S
C739 H745 0.929 . S
N740 Mn733 2.257 . S
N740 C739 1.326 . S
N740 C744 1.362 . S
C741 C742 1.258 . S
C741 C744 1.431 . S
C741 C761 1.449 . S
C742 C741 1.258 . S
C742 C743 1.477 . S
C742 H762 0.931 . S
C743 C739 1.460 . S
C743 C742 1.477 . S
C743 H763 0.930 . S
C744 N740 1.362 . S
C744 C741 1.431 . S
C744 C754 1.476 . S
H745 C739 0.929 . S
C746 O737 1.250 1_565 S
C746 O738 1.258 . S
O747 Mn732 2.162 . S
O747 C735 1.281 . S
O748 Mn732 2.297 . S
O748 C735 1.236 . S
N749 Mn733 2.282 . S
N749 C750 1.328 . S
N749 C754 1.318 . S
C750 N749 1.328 . S
C750 C751 1.457 . S
C750 H755 0.929 . S
C751 C750 1.457 . S
C751 C752 1.291 . S
C751 H764 0.931 . S
C752 C751 1.291 . S
C752 C753 1.373 . S
C752 H765 0.929 . S
C753 C752 1.373 . S
C753 C754 1.396 . S
C753 C760 1.403 . S
C754 C744 1.476 . S
C754 N749 1.318 . S
C754 C753 1.396 . S
H755 C750 0.929 . S
O756 Mn732 2.385 1_565 S
O756 C734 1.234 . S
O757 Mn732 2.209 1_565 S
O757 Mn733 2.215 . S
O757 C734 1.283 . S
O758 Mn732 2.094 . S
O758 C736 1.240 . S
O759 Mn733 2.117 . S
O759 C736 1.264 1_565 S
C760 C753 1.403 . S
C760 C761 1.399 . S
C760 H766 0.929 . S
C761 C741 1.449 . S
C761 C760 1.399 . S
C761 H767 0.930 . S
H762 C742 0.931 . S
H763 C743 0.930 . S
H764 C751 0.931 . S
H765 C752 0.929 . S
H766 C760 0.929 . S
H767 C761 0.930 . S
Mn768 O773 2.095 . S
Mn768 O783 2.162 . S
Mn768 O784 2.297 . S
Mn768 O792 2.385 . S
Mn768 O793 2.209 . S
Mn768 O794 2.094 . S
Mn769 O774 2.121 . S
Mn769 N776 2.257 . S
Mn769 N785 2.282 . S
Mn769 O793 2.215 . S
Mn769 O795 2.117 . S
C770 O792 1.234 . S
C770 O793 1.283 . S
C771 O783 1.281 . S
C771 O784 1.236 . S
C772 O794 1.240 . S
C772 O795 1.264 . S
O773 Mn768 2.095 . S
O773 C782 1.250 . S
O774 Mn769 2.121 . S
O774 C782 1.258 . S
C775 N776 1.326 . S
C775 C779 1.460 . S
C775 H781 0.929 . S
N776 Mn769 2.257 . S
N776 C775 1.326 . S
N776 C780 1.362 . S
C777 C778 1.258 . S
C777 C780 1.431 . S
C777 C797 1.449 . S
C778 C777 1.258 . S
C778 C779 1.477 . S
C778 H798 0.931 . S
C779 C775 1.460 . S
C779 C778 1.477 . S
C779 H799 0.930 . S
C780 N776 1.362 . S
C780 C777 1.431 . S
C780 C790 1.476 . S
H781 C775 0.929 . S
C782 O773 1.250 . S
C782 O774 1.258 . S
O783 Mn768 2.162 . S
O783 C771 1.281 . S
O784 Mn768 2.297 . S
O784 C771 1.236 . S
N785 Mn769 2.282 . S
N785 C786 1.328 . S
N785 C790 1.318 . S
C786 N785 1.328 . S
C786 C787 1.457 . S
C786 H791 0.929 . S
C787 C786 1.457 . S
C787 C788 1.291 . S
C787 H800 0.931 . S
C788 C787 1.291 . S
C788 C789 1.373 . S
C788 H801 0.929 . S
C789 C788 1.373 . S
C789 C790 1.396 . S
C789 C796 1.403 . S
C790 C780 1.476 . S
C790 N785 1.318 . S
C790 C789 1.396 . S
H791 C786 0.929 . S
O792 Mn768 2.385 . S
O792 C770 1.234 . S
O793 Mn768 2.209 . S
O793 Mn769 2.215 . S
O793 C770 1.283 . S
O794 Mn768 2.094 . S
O794 C772 1.240 . S
O795 Mn769 2.117 . S
O795 C772 1.264 . S
C796 C789 1.403 . S
C796 C797 1.399 . S
C796 H802 0.929 . S
C797 C777 1.449 . S
C797 C796 1.399 . S
C797 H803 0.930 . S
H798 C778 0.931 . S
H799 C779 0.930 . S
H800 C787 0.931 . S
H801 C788 0.929 . S
H802 C796 0.929 . S
H803 C797 0.930 . S
Mn804 O809 2.095 . S
Mn804 O819 2.162 . S
Mn804 O820 2.297 . S
Mn804 O828 2.385 . S
Mn804 O829 2.209 . S
Mn804 O830 2.094 . S
Mn805 O810 2.121 . S
Mn805 N812 2.257 . S
Mn805 N821 2.282 . S
Mn805 O829 2.215 . S
Mn805 O831 2.117 . S
C806 O828 1.234 . S
C806 O829 1.283 . S
C807 O819 1.281 . S
C807 O820 1.236 . S
C808 O830 1.240 . S
C808 O831 1.264 . S
O809 Mn804 2.095 . S
O809 C818 1.250 . S
O810 Mn805 2.121 . S
O810 C818 1.258 . S
C811 N812 1.326 . S
C811 C815 1.460 . S
C811 H817 0.929 . S
N812 Mn805 2.257 . S
N812 C811 1.326 . S
N812 C816 1.362 . S
C813 C814 1.258 . S
C813 C816 1.431 . S
C813 C833 1.449 . S
C814 C813 1.258 . S
C814 C815 1.477 . S
C814 H834 0.931 . S
C815 C811 1.460 . S
C815 C814 1.477 . S
C815 H835 0.930 . S
C816 N812 1.362 . S
C816 C813 1.431 . S
C816 C826 1.476 . S
H817 C811 0.929 . S
C818 O809 1.250 . S
C818 O810 1.258 . S
O819 Mn804 2.162 . S
O819 C807 1.281 . S
O820 Mn804 2.297 . S
O820 C807 1.236 . S
N821 Mn805 2.282 . S
N821 C822 1.328 . S
N821 C826 1.318 . S
C822 N821 1.328 . S
C822 C823 1.457 . S
C822 H827 0.929 . S
C823 C822 1.457 . S
C823 C824 1.291 . S
C823 H836 0.931 . S
C824 C823 1.291 . S
C824 C825 1.373 . S
C824 H837 0.929 . S
C825 C824 1.373 . S
C825 C826 1.396 . S
C825 C832 1.403 . S
C826 C816 1.476 . S
C826 N821 1.318 . S
C826 C825 1.396 . S
H827 C822 0.929 . S
O828 Mn804 2.385 . S
O828 C806 1.234 . S
O829 Mn804 2.209 . S
O829 Mn805 2.215 . S
O829 C806 1.283 . S
O830 Mn804 2.094 . S
O830 C808 1.240 . S
O831 Mn805 2.117 . S
O831 C808 1.264 . S
C832 C825 1.403 . S
C832 C833 1.399 . S
C832 H838 0.929 . S
C833 C813 1.449 . S
C833 C832 1.399 . S
C833 H839 0.930 . S
H834 C814 0.931 . S
H835 C815 0.930 . S
H836 C823 0.931 . S
H837 C824 0.929 . S
H838 C832 0.929 . S
H839 C833 0.930 . S
Mn840 O845 2.095 . S
Mn840 O855 2.162 . S
Mn840 O856 2.297 . S
Mn840 O864 2.385 . S
Mn840 O865 2.209 . S
Mn840 O866 2.094 . S
Mn841 O846 2.121 . S
Mn841 N848 2.257 . S
Mn841 N857 2.282 . S
Mn841 O865 2.215 . S
Mn841 O867 2.117 . S
C842 O864 1.234 . S
C842 O865 1.283 . S
C843 O855 1.281 . S
C843 O856 1.236 . S
C844 O866 1.240 . S
C844 O867 1.264 . S
O845 Mn840 2.095 . S
O845 C854 1.250 . S
O846 Mn841 2.121 . S
O846 C854 1.258 . S
C847 N848 1.326 . S
C847 C851 1.460 . S
C847 H853 0.929 . S
N848 Mn841 2.257 . S
N848 C847 1.326 . S
N848 C852 1.362 . S
C849 C850 1.258 . S
C849 C852 1.431 . S
C849 C869 1.449 . S
C850 C849 1.258 . S
C850 C851 1.477 . S
C850 H870 0.931 . S
C851 C847 1.460 . S
C851 C850 1.477 . S
C851 H871 0.930 . S
C852 N848 1.362 . S
C852 C849 1.431 . S
C852 C862 1.476 . S
H853 C847 0.929 . S
C854 O845 1.250 . S
C854 O846 1.258 . S
O855 Mn840 2.162 . S
O855 C843 1.281 . S
O856 Mn840 2.297 . S
O856 C843 1.236 . S
N857 Mn841 2.282 . S
N857 C858 1.328 . S
N857 C862 1.318 . S
C858 N857 1.328 . S
C858 C859 1.457 . S
C858 H863 0.929 . S
C859 C858 1.457 . S
C859 C860 1.291 . S
C859 H872 0.931 . S
C860 C859 1.291 . S
C860 C861 1.373 . S
C860 H873 0.929 . S
C861 C860 1.373 . S
C861 C862 1.396 . S
C861 C868 1.403 . S
C862 C852 1.476 . S
C862 N857 1.318 . S
C862 C861 1.396 . S
H863 C858 0.929 . S
O864 Mn840 2.385 . S
O864 C842 1.234 . S
O865 Mn840 2.209 . S
O865 Mn841 2.215 . S
O865 C842 1.283 . S
O866 Mn840 2.094 . S
O866 C844 1.240 . S
O867 Mn841 2.117 . S
O867 C844 1.264 . S
C868 C861 1.403 . S
C868 C869 1.399 . S
C868 H874 0.929 . S
C869 C849 1.449 . S
C869 C868 1.399 . S
C869 H875 0.930 . S
H870 C850 0.931 . S
H871 C851 0.930 . S
H872 C859 0.931 . S
H873 C860 0.929 . S
H874 C868 0.929 . S
H875 C869 0.930 . S
Mn876 O881 2.095 . S
Mn876 O891 2.162 . S
Mn876 O892 2.297 . S
Mn876 O900 2.385 1_565 S
Mn876 O901 2.209 1_565 S
Mn876 O902 2.094 . S
Mn877 O882 2.121 . S
Mn877 N884 2.257 . S
Mn877 N893 2.282 . S
Mn877 O901 2.215 . S
Mn877 O903 2.117 . S
C878 O900 1.234 . S
C878 O901 1.283 . S
C879 O891 1.281 . S
C879 O892 1.236 . S
C880 O902 1.223 1_545 S
C880 O903 1.286 . S
O881 Mn876 2.095 . S
O881 C890 1.250 1_565 S
O882 Mn877 2.121 . S
O882 C890 1.258 . S
C883 N884 1.326 . S
C883 C887 1.460 . S
C883 H889 0.929 . S
N884 Mn877 2.257 . S
N884 C883 1.326 . S
N884 C888 1.362 . S
C885 C886 1.258 . S
C885 C888 1.431 . S
C885 C905 1.449 . S
C886 C885 1.258 . S
C886 C887 1.477 . S
C886 H906 0.931 . S
C887 C883 1.460 . S
C887 C886 1.477 . S
C887 H907 0.930 . S
C888 N884 1.362 . S
C888 C885 1.431 . S
C888 C898 1.476 . S
H889 C883 0.929 . S
C890 O881 1.250 1_545 S
C890 O882 1.258 . S
O891 Mn876 2.162 . S
O891 C879 1.281 . S
O892 Mn876 2.297 . S
O892 C879 1.236 . S
N893 Mn877 2.282 . S
N893 C894 1.328 . S
N893 C898 1.318 . S
C894 N893 1.328 . S
C894 C895 1.457 . S
C894 H899 0.929 . S
C895 C894 1.457 . S
C895 C896 1.291 . S
C895 H908 0.931 . S
C896 C895 1.291 . S
C896 C897 1.373 . S
C896 H909 0.929 . S
C897 C896 1.373 . S
C897 C898 1.396 . S
C897 C904 1.403 . S
C898 C888 1.476 . S
C898 N893 1.318 . S
C898 C897 1.396 . S
H899 C894 0.929 . S
O900 Mn876 2.385 1_545 S
O900 C878 1.234 . S
O901 Mn876 2.209 1_545 S
O901 Mn877 2.215 . S
O901 C878 1.283 . S
O902 Mn876 2.094 . S
O902 C880 1.223 1_565 S
O903 Mn877 2.117 . S
O903 C880 1.286 . S
C904 C897 1.403 . S
C904 C905 1.399 . S
C904 H910 0.929 . S
C905 C885 1.449 . S
C905 C904 1.399 . S
C905 H911 0.930 . S
H906 C886 0.931 . S
H907 C887 0.930 . S
H908 C895 0.931 . S
H909 C896 0.929 . S
H910 C904 0.929 . S
H911 C905 0.930 . S
Mn912 O917 2.095 . S
Mn912 O927 2.162 . S
Mn912 O928 2.297 . S
Mn912 O936 2.385 1_455 S
Mn912 O937 2.209 1_455 S
Mn912 O938 2.094 . S
Mn913 O918 2.121 . S
Mn913 N920 2.257 . S
Mn913 N929 2.282 . S
Mn913 O937 2.215 . S
Mn913 O939 2.117 . S
C914 O936 1.234 . S
C914 O937 1.283 . S
C915 O927 1.281 . S
C915 O928 1.236 . S
C916 O938 1.240 . S
C916 O939 1.264 1_455 S
O917 Mn912 2.095 . S
O917 C926 1.250 1_455 S
O918 Mn913 2.121 . S
O918 C926 1.258 . S
C919 N920 1.326 . S
C919 C923 1.460 . S
C919 H925 0.929 . S
N920 Mn913 2.257 . S
N920 C919 1.326 . S
N920 C924 1.362 . S
C921 C922 1.258 . S
C921 C924 1.431 . S
C921 C941 1.449 . S
C922 C921 1.258 . S
C922 C923 1.477 . S
C922 H942 0.931 . S
C923 C919 1.460 . S
C923 C922 1.477 . S
C923 H943 0.930 . S
C924 N920 1.362 . S
C924 C921 1.431 . S
C924 C934 1.476 . S
H925 C919 0.929 . S
C926 O917 1.250 1_655 S
C926 O918 1.258 . S
O927 Mn912 2.162 . S
O927 C915 1.281 . S
O928 Mn912 2.297 . S
O928 C915 1.236 . S
N929 Mn913 2.282 . S
N929 C930 1.328 . S
N929 C934 1.318 . S
C930 N929 1.328 . S
C930 C931 1.457 . S
C930 H935 0.929 . S
C931 C930 1.457 . S
C931 C932 1.291 . S
C931 H944 0.931 . S
C932 C931 1.291 . S
C932 C933 1.373 . S
C932 H945 0.929 . S
C933 C932 1.373 . S
C933 C934 1.396 . S
C933 C940 1.403 . S
C934 C924 1.476 . S
C934 N929 1.318 . S
C934 C933 1.396 . S
H935 C930 0.929 . S
O936 Mn912 2.385 1_655 S
O936 C914 1.234 . S
O937 Mn912 2.209 1_655 S
O937 Mn913 2.215 . S
O937 C914 1.283 . S
O938 Mn912 2.094 . S
O938 C916 1.240 . S
O939 Mn913 2.117 . S
O939 C916 1.264 1_655 S
C940 C933 1.403 . S
C940 C941 1.399 . S
C940 H946 0.929 . S
C941 C921 1.449 . S
C941 C940 1.399 . S
C941 H947 0.930 . S
H942 C922 0.931 . S
H943 C923 0.930 . S
H944 C931 0.931 . S
H945 C932 0.929 . S
H946 C940 0.929 . S
H947 C941 0.930 . S
Mn948 O953 2.095 . S
Mn948 O963 2.162 . S
Mn948 O964 2.297 . S
Mn948 O972 2.385 . S
Mn948 O973 2.209 . S
Mn948 O974 2.094 . S
Mn949 O954 2.121 . S
Mn949 N956 2.257 . S
Mn949 N965 2.282 . S
Mn949 O973 2.215 . S
Mn949 O975 2.117 . S
C950 O972 1.234 . S
C950 O973 1.283 . S
C951 O963 1.281 . S
C951 O964 1.236 . S
C952 O974 1.240 . S
C952 O975 1.264 . S
O953 Mn948 2.095 . S
O953 C962 1.250 . S
O954 Mn949 2.121 . S
O954 C962 1.258 . S
C955 N956 1.326 . S
C955 C959 1.460 . S
C955 H961 0.929 . S
N956 Mn949 2.257 . S
N956 C955 1.326 . S
N956 C960 1.362 . S
C957 C958 1.258 . S
C957 C960 1.431 . S
C957 C977 1.449 . S
C958 C957 1.258 . S
C958 C959 1.477 . S
C958 H978 0.931 . S
C959 C955 1.460 . S
C959 C958 1.477 . S
C959 H979 0.930 . S
C960 N956 1.362 . S
C960 C957 1.431 . S
C960 C970 1.476 . S
H961 C955 0.929 . S
C962 O953 1.250 . S
C962 O954 1.258 . S
O963 Mn948 2.162 . S
O963 C951 1.281 . S
O964 Mn948 2.297 . S
O964 C951 1.236 . S
N965 Mn949 2.282 . S
N965 C966 1.328 . S
N965 C970 1.318 . S
C966 N965 1.328 . S
C966 C967 1.457 . S
C966 H971 0.929 . S
C967 C966 1.457 . S
C967 C968 1.291 . S
C967 H980 0.931 . S
C968 C967 1.291 . S
C968 C969 1.373 . S
C968 H981 0.929 . S
C969 C968 1.373 . S
C969 C970 1.396 . S
C969 C976 1.403 . S
C970 C960 1.476 . S
C970 N965 1.318 . S
C970 C969 1.396 . S
H971 C966 0.929 . S
O972 Mn948 2.385 . S
O972 C950 1.234 . S
O973 Mn948 2.209 . S
O973 Mn949 2.215 . S
O973 C950 1.283 . S
O974 Mn948 2.094 . S
O974 C952 1.240 . S
O975 Mn949 2.117 . S
O975 C952 1.264 . S
C976 C969 1.403 . S
C976 C977 1.399 . S
C976 H982 0.929 . S
C977 C957 1.449 . S
C977 C976 1.399 . S
C977 H983 0.930 . S
H978 C958 0.931 . S
H979 C959 0.930 . S
H980 C967 0.931 . S
H981 C968 0.929 . S
H982 C976 0.929 . S
H983 C977 0.930 . S
Mn984 O989 2.095 1_455 S
Mn984 O999 2.162 . S
Mn984 O1000 2.297 1_455 S
Mn984 O1008 2.385 . S
Mn984 O1009 2.209 1_455 S
Mn984 O1010 2.094 . S
Mn985 O990 2.121 . S
Mn985 N992 2.257 . S
Mn985 N1001 2.282 1_655 S
Mn985 O1009 2.215 . S
Mn985 O1011 2.117 1_655 S
C986 O1008 1.234 . S
C986 O1009 1.283 1_455 S
C987 O999 1.281 . S
C987 O1000 1.236 1_455 S
C988 O1010 1.240 . S
C988 O1011 1.264 . S
O989 Mn984 2.095 1_655 S
O989 C998 1.250 . S
O990 Mn985 2.121 . S
O990 C998 1.258 . S
C991 N992 1.326 . S
C991 C995 1.460 . S
C991 H997 0.929 . S
N992 Mn985 2.257 . S
N992 C991 1.326 . S
N992 C996 1.362 . S
C993 C994 1.258 . S
C993 C996 1.431 . S
C993 C1013 1.449 . S
C994 C993 1.258 . S
C994 C995 1.477 . S
C994 H1014 0.931 . S
C995 C991 1.460 . S
C995 C994 1.477 . S
C995 H1015 0.930 . S
C996 N992 1.362 . S
C996 C993 1.431 . S
C996 C1006 1.476 . S
H997 C991 0.929 . S
C998 O989 1.250 . S
C998 O990 1.258 . S
O999 Mn984 2.162 . S
O999 C987 1.281 . S
O1000 Mn984 2.297 1_655 S
O1000 C987 1.236 1_655 S
N1001 Mn985 2.282 1_455 S
N1001 C1002 1.328 . S
N1001 C1006 1.318 1_455 S
C1002 N1001 1.328 . S
C1002 C1003 1.457 . S
C1002 H1007 0.929 . S
C1003 C1002 1.457 . S
C1003 C1004 1.291 . S
C1003 H1016 0.931 . S
C1004 C1003 1.291 . S
C1004 C1005 1.373 1_455 S
C1004 H1017 0.929 . S
C1005 C1004 1.373 1_655 S
C1005 C1006 1.396 . S
C1005 C1012 1.403 . S
C1006 C996 1.476 . S
C1006 N1001 1.318 1_655 S
C1006 C1005 1.396 . S
H1007 C1002 0.929 . S
O1008 Mn984 2.385 . S
O1008 C986 1.234 . S
O1009 Mn984 2.209 1_655 S
O1009 Mn985 2.215 . S
O1009 C986 1.283 1_655 S
O1010 Mn984 2.094 . S
O1010 C988 1.240 . S
O1011 Mn985 2.117 1_455 S
O1011 C988 1.264 . S
C1012 C1005 1.403 . S
C1012 C1013 1.399 . S
C1012 H1018 0.929 . S
C1013 C993 1.449 . S
C1013 C1012 1.399 . S
C1013 H1019 0.930 . S
H1014 C994 0.931 . S
H1015 C995 0.930 . S
H1016 C1003 0.931 . S
H1017 C1004 0.929 . S
H1018 C1012 0.929 . S
H1019 C1013 0.930 . S
Mn1020 O1025 2.095 . S
Mn1020 O1035 2.162 . S
Mn1020 O1036 2.297 . S
Mn1020 O1044 2.385 . S
Mn1020 O1045 2.209 . S
Mn1020 O1046 2.094 . S
Mn1021 O1026 2.121 . S
Mn1021 N1028 2.257 . S
Mn1021 N1037 2.282 . S
Mn1021 O1045 2.215 . S
Mn1021 O1047 2.117 . S
C1022 O1044 1.234 . S
C1022 O1045 1.283 . S
C1023 O1035 1.281 . S
C1023 O1036 1.236 . S
C1024 O1046 1.240 . S
C1024 O1047 1.264 . S
O1025 Mn1020 2.095 . S
O1025 C1034 1.250 . S
O1026 Mn1021 2.121 . S
O1026 C1034 1.258 . S
C1027 N1028 1.326 . S
C1027 C1031 1.460 . S
C1027 H1033 0.929 . S
N1028 Mn1021 2.257 . S
N1028 C1027 1.326 . S
N1028 C1032 1.362 . S
C1029 C1030 1.258 . S
C1029 C1032 1.431 . S
C1029 C1049 1.449 . S
C1030 C1029 1.258 . S
C1030 C1031 1.477 . S
C1030 H1050 0.931 . S
C1031 C1027 1.460 . S
C1031 C1030 1.477 . S
C1031 H1051 0.930 . S
C1032 N1028 1.362 . S
C1032 C1029 1.431 . S
C1032 C1042 1.476 . S
H1033 C1027 0.929 . S
C1034 O1025 1.250 . S
C1034 O1026 1.258 . S
O1035 Mn1020 2.162 . S
O1035 C1023 1.281 . S
O1036 Mn1020 2.297 . S
O1036 C1023 1.236 . S
N1037 Mn1021 2.282 . S
N1037 C1038 1.328 . S
N1037 C1042 1.318 . S
C1038 N1037 1.328 . S
C1038 C1039 1.457 . S
C1038 H1043 0.929 . S
C1039 C1038 1.457 . S
C1039 C1040 1.291 . S
C1039 H1052 0.931 . S
C1040 C1039 1.291 . S
C1040 C1041 1.373 . S
C1040 H1053 0.929 . S
C1041 C1040 1.373 . S
C1041 C1042 1.396 . S
C1041 C1048 1.403 . S
C1042 C1032 1.476 . S
C1042 N1037 1.318 . S
C1042 C1041 1.396 . S
H1043 C1038 0.929 . S
O1044 Mn1020 2.385 . S
O1044 C1022 1.234 . S
O1045 Mn1020 2.209 . S
O1045 Mn1021 2.215 . S
O1045 C1022 1.283 . S
O1046 Mn1020 2.094 . S
O1046 C1024 1.240 . S
O1047 Mn1021 2.117 . S
O1047 C1024 1.264 . S
C1048 C1041 1.403 . S
C1048 C1049 1.399 . S
C1048 H1054 0.929 . S
C1049 C1029 1.449 . S
C1049 C1048 1.399 . S
C1049 H1055 0.930 . S
H1050 C1030 0.931 . S
H1051 C1031 0.930 . S
H1052 C1039 0.931 . S
H1053 C1040 0.929 . S
H1054 C1048 0.929 . S
H1055 C1049 0.930 . S
C626 C211 1.616 . S
C674 C255 1.710 . S
C274 C710 1.526 . S
C746 C157 1.647 . S
C772 C391 1.712 . S
C808 C484 1.631 . S
C450 C843 1.721 . S
C880 C352 1.651 1_545 S
C430 C914 1.574 . S
C962 C367 1.652 . S
C411 C915 1.769 . S
C952 C469 1.692 . S
C294 C998 1.589 . S
C177 C987 1.652 . S
C196 C988 1.706 . S
C235 C986 1.696 . S
C133 C734 1.709 . S
C567 C735 1.712 . S
C638 C601 1.692 1_556 S
C663 C328 1.612 . S
C172 C770 1.681 . S
C878 C445 1.665 . S
C771 C372 1.619 . S
C844 C489 1.665 . S
C842 C562 1.616 . S
C606 C890 1.710 . S
C313 C782 1.526 . S
C818 C508 1.647 . S
C118 C700 1.712 . S
C736 C16 1.631 . S
C627 C60 1.721 . S
C664 C79 1.655 . S
C40 C950 1.574 . S
C94 C926 1.652 . S
C138 C951 1.769 . S
C1 C916 1.692 . S
C1034 C333 1.589 . S
C1023 C528 1.652 . S
C1024 C547 1.706 . S
C586 C1022 1.696 . S
C406 C806 1.709 . S
C807 C216 1.712 . S
C854 C250 1.691 . S
C879 C289 1.614 . S
C523 C698 1.681 1_556 S
C662 C55 1.666 . S
C99 C699 1.619 . S
C628 C21 1.665 . S
