# Generated by pormake.
# Topology pyr, (3,6)-cn, num edge types: 1
# Building blocks:
#     Node 0, Type 0, BuildingBlock: BETDIP_clean_linker_0, # of connection points: 3
#     Node 1, Type 0, BuildingBlock: BETDIP_clean_linker_0, # of connection points: 3
#     Node 2, Type 0, BuildingBlock: BETDIP_clean_linker_0, # of connection points: 3
#     Node 3, Type 0, BuildingBlock: BETDIP_clean_linker_0, # of connection points: 3
#     Node 4, Type 0, BuildingBlock: BETDIP_clean_linker_0, # of connection points: 3
#     Node 5, Type 0, BuildingBlock: BETDIP_clean_linker_0, # of connection points: 3
#     Node 6, Type 0, BuildingBlock: BETDIP_clean_linker_0, # of connection points: 3
#     Node 7, Type 0, BuildingBlock: BETDIP_clean_linker_0, # of connection points: 3
#     Node 8, Type 1, BuildingBlock: LEVNOQ01_clean_sbu_1, # of connection points: 6
#     Node 9, Type 1, BuildingBlock: LEVNOQ01_clean_sbu_1, # of connection points: 6
#     Node 10, Type 1, BuildingBlock: LEVNOQ01_clean_sbu_1, # of connection points: 6
#     Node 11, Type 1, BuildingBlock: LEVNOQ01_clean_sbu_1, # of connection points: 6
#     Edge 12, Type (0, 1), BuildingBlock: CIFDUS_clean_linker_0, # of connection points: 2
#     Edge 13, Type (0, 1), BuildingBlock: CIFDUS_clean_linker_0, # of connection points: 2
#     Edge 14, Type (0, 1), BuildingBlock: CIFDUS_clean_linker_0, # of connection points: 2
#     Edge 15, Type (0, 1), BuildingBlock: CIFDUS_clean_linker_0, # of connection points: 2
#     Edge 16, Type (0, 1), BuildingBlock: CIFDUS_clean_linker_0, # of connection points: 2
#     Edge 17, Type (0, 1), BuildingBlock: CIFDUS_clean_linker_0, # of connection points: 2
#     Edge 18, Type (0, 1), BuildingBlock: CIFDUS_clean_linker_0, # of connection points: 2
#     Edge 19, Type (0, 1), BuildingBlock: CIFDUS_clean_linker_0, # of connection points: 2
#     Edge 20, Type (0, 1), BuildingBlock: CIFDUS_clean_linker_0, # of connection points: 2
#     Edge 21, Type (0, 1), BuildingBlock: CIFDUS_clean_linker_0, # of connection points: 2
#     Edge 22, Type (0, 1), BuildingBlock: CIFDUS_clean_linker_0, # of connection points: 2
#     Edge 23, Type (0, 1), BuildingBlock: CIFDUS_clean_linker_0, # of connection points: 2
#     Edge 24, Type (0, 1), BuildingBlock: CIFDUS_clean_linker_0, # of connection points: 2
#     Edge 25, Type (0, 1), BuildingBlock: CIFDUS_clean_linker_0, # of connection points: 2
#     Edge 26, Type (0, 1), BuildingBlock: CIFDUS_clean_linker_0, # of connection points: 2
#     Edge 27, Type (0, 1), BuildingBlock: CIFDUS_clean_linker_0, # of connection points: 2
#     Edge 28, Type (0, 1), BuildingBlock: CIFDUS_clean_linker_0, # of connection points: 2
#     Edge 29, Type (0, 1), BuildingBlock: CIFDUS_clean_linker_0, # of connection points: 2
#     Edge 30, Type (0, 1), BuildingBlock: CIFDUS_clean_linker_0, # of connection points: 2
#     Edge 31, Type (0, 1), BuildingBlock: CIFDUS_clean_linker_0, # of connection points: 2
#     Edge 32, Type (0, 1), BuildingBlock: CIFDUS_clean_linker_0, # of connection points: 2
#     Edge 33, Type (0, 1), BuildingBlock: CIFDUS_clean_linker_0, # of connection points: 2
#     Edge 34, Type (0, 1), BuildingBlock: CIFDUS_clean_linker_0, # of connection points: 2
#     Edge 35, Type (0, 1), BuildingBlock: CIFDUS_clean_linker_0, # of connection points: 2
# Relax obj value: 0.082
# Max RMSD: 0.171
# Mean RMSD: 0.135
data_MOF--net-pry--node1-LEVNOQ01_clean_sbu_1--node2-BETDIP_clean_linker_0--edge1-CIFDUS_clean_linker_0
_symmetry_space_group_name_H-M    P1
_symmetry_Int_Tables_number       1
_symmetry_cell_setting            triclinic
loop_
_symmetry_equiv_pos_as_xyz
'x, y, z'
_cell_length_a     32.111327
_cell_length_b     30.414394
_cell_length_c     32.112963
_cell_angle_alpha  96.041907
_cell_angle_beta   86.713773
_cell_angle_gamma 101.22329
loop_
_atom_site_label
_atom_site_type_symbol
_atom_site_fract_x
_atom_site_fract_y
_atom_site_fract_z
_atom_type_partial_charge
H0 H 0.10135 0.15272 0.1885 0.0
H1 H 0.2017 0.15254 0.09299 0.0
H2 H 0.20428 0.08479 0.20329 0.0
H3 H 0.16987 0.19631 0.06145 0.0
C4 C 0.14301 0.20595 0.0796 0.0
C5 C 0.1304 0.14209 0.1764 0.0
C6 C 0.15046 0.11676 0.20054 0.0
C7 C 0.14841 0.15589 0.1377 0.0
C8 C 0.18664 0.14218 0.12223 0.0
C9 C 0.20704 0.11651 0.14582 0.0
C10 C 0.18865 0.10425 0.18487 0.0
N11 N 0.12834 0.18551 0.11718 0.0
H12 H 0.34941 0.9376 0.665 0.0
H13 H 0.36095 0.83123 0.56983 0.0
H14 H 0.44635 0.85773 0.67107 0.0
H15 H 0.32732 0.87451 0.53287 0.0
C16 C 0.3038 0.88418 0.55588 0.0
C17 C 0.36556 0.91055 0.65334 0.0
C18 C 0.40008 0.9017 0.67438 0.0
C19 C 0.35105 0.8852 0.61628 0.0
C20 C 0.37205 0.85101 0.59844 0.0
C21 C 0.40734 0.84201 0.61754 0.0
C22 C 0.42072 0.86696 0.65566 0.0
N23 N 0.31423 0.89415 0.5987 0.0
H24 H 0.70668 0.46145 0.85599 0.0
H25 H 0.59183 0.36209 0.8572 0.0
H26 H 0.67661 0.37985 0.95903 0.0
H27 H 0.62698 0.35694 0.77937 0.0
C28 C 0.62297 0.3917 0.78038 0.0
C29 C 0.68504 0.43612 0.87206 0.0
C30 C 0.69591 0.42348 0.91004 0.0
C31 C 0.64835 0.41323 0.85261 0.0
C32 C 0.62057 0.37958 0.87228 0.0
C33 C 0.62998 0.3686 0.91146 0.0
C34 C 0.66765 0.39077 0.9303 0.0
N35 N 0.64044 0.42413 0.81272 0.0
H36 H 0.83981 0.525 0.41443 0.0
H37 H 0.94657 0.63116 0.39743 0.0
H38 H 0.8635 0.63868 0.50657 0.0
H39 H 0.89829 0.62087 0.33504 0.0
C40 C 0.89626 0.58478 0.32789 0.0
C41 C 0.861 0.55489 0.42751 0.0
C42 C 0.8489 0.57839 0.46459 0.0
C43 C 0.89571 0.57413 0.40305 0.0
C44 C 0.92127 0.61506 0.41772 0.0
C45 C 0.91037 0.63815 0.45565 0.0
C46 C 0.87446 0.61914 0.47936 0.0
N47 N 0.89828 0.55721 0.3605 0.0
H48 H 0.81447 0.87493 0.93119 0.0
H49 H 0.91884 0.86418 0.84286 0.0
H50 H 0.83304 0.9517 0.82398 0.0
H51 H 0.9483 0.8433 0.8972 0.0
C52 C 0.92233 0.82337 0.91411 0.0
C53 C 0.83277 0.88532 0.9033 0.0
C54 C 0.81895 0.91543 0.87897 0.0
C55 C 0.86935 0.86722 0.8912 0.0
C56 C 0.892 0.87944 0.85379 0.0
C57 C 0.87924 0.90994 0.82914 0.0
C58 C 0.84282 0.92778 0.84229 0.0
N59 N 0.88124 0.83526 0.91594 0.0
H60 H 0.64935 0.09142 0.33806 0.0
H61 H 0.64602 0.18809 0.4451 0.0
H62 H 0.5592 0.17996 0.346 0.0
H63 H 0.71992 0.18112 0.44448 0.0
C64 C 0.71514 0.1447 0.43844 0.0
C65 C 0.63596 0.11892 0.35414 0.0
C66 C 0.60232 0.13331 0.33679 0.0
C67 C 0.65253 0.1392 0.39243 0.0
C68 C 0.63456 0.17377 0.41462 0.0
C69 C 0.6 0.18791 0.39857 0.0
C70 C 0.58468 0.16798 0.35931 0.0
N71 N 0.6852 0.12149 0.40892 0.0
H72 H 0.33496 0.58466 0.14957 0.0
H73 H 0.42366 0.70148 0.19734 0.0
H74 H 0.35771 0.70605 0.08676 0.0
H75 H 0.45514 0.65226 0.22051 0.0
C76 C 0.42809 0.6288 0.2321 0.0
C77 C 0.35202 0.61866 0.14642 0.0
C78 C 0.34207 0.64323 0.11481 0.0
C79 C 0.38257 0.63881 0.1755 0.0
C80 C 0.40228 0.68401 0.17357 0.0
C81 C 0.39376 0.70803 0.14161 0.0
C82 C 0.36418 0.68739 0.11186 0.0
N83 N 0.39142 0.61427 0.20799 0.0
H84 H 0.04316 0.38911 0.59802 0.0
H85 H 0.15735 0.48608 0.61552 0.0
H86 H 0.15899 0.36459 0.53434 0.0
H87 H 0.11977 0.4165 0.67947 0.0
C88 C 0.09968 0.44175 0.68402 0.0
C89 C 0.07582 0.40142 0.58806 0.0
C90 C 0.09744 0.37398 0.56028 0.0
C91 C 0.09799 0.44092 0.6087 0.0
C92 C 0.14069 0.45578 0.59831 0.0
C93 C 0.16344 0.42786 0.57266 0.0
C94 C 0.14137 0.38767 0.55224 0.0
N95 N 0.08286 0.45573 0.64869 0.0
O96 O 0.02269 -0.00048 0.61058 0.0
Mg97 Mg 0.05523 0.0388 0.56345 0.0
O98 O 0.96714 0.98818 0.57183 0.0
Mg99 Mg 0.00257 0.00816 0.50713 0.0
O100 O 0.02906 0.0837 0.5346 0.0
O101 O 0.06755 0.10074 0.59265 0.0
O102 O 0.03742 0.02832 0.44064 0.0
O103 O 0.94583 0.04934 0.49944 0.0
Mg104 Mg 0.95077 0.97907 0.45806 0.0
O105 O 0.97421 0.9304 0.48235 0.0
O106 O 0.97811 0.01502 0.40779 0.0
O107 O 0.8944 0.99281 0.48631 0.0
O108 O 0.93094 0.91854 0.42812 0.0
C109 C 0.09948 0.98323 0.52341 0.0
C110 C 0.98331 0.98533 0.60669 0.0
C111 C 0.04685 0.11283 0.56408 0.0
C112 C 0.01768 0.02937 0.4073 0.0
C113 C 0.90605 0.03419 0.49614 0.0
C114 C 0.95059 0.9031 0.45536 0.0
O115 O 0.11192 0.02372 0.53676 0.0
O116 O 0.05997 0.96933 0.51685 0.0
O117 O 0.45501 0.06997 0.07571 0.0
Mg118 Mg 0.51539 0.08279 0.04393 0.0
O119 O 0.43788 0.02751 0.01848 0.0
Mg120 Mg 0.51036 0.01964 0.00398 0.0
O121 O 0.53003 0.09611 0.98348 0.0
O122 O 0.51355 0.14581 0.0352 0.0
O123 O 0.58212 0.00932 0.98695 0.0
O124 O 0.49473 0.00578 0.93032 0.0
Mg125 Mg 0.50803 0.92247 0.96237 0.0
O126 O 0.49011 0.94762 0.01967 0.0
O127 O 0.57418 0.94106 0.95216 0.0
O128 O 0.46908 0.9331 0.91669 0.0
O129 O 0.48437 0.87395 1.00093 0.0
C130 C 0.55624 0.05582 0.09765 0.0
C131 C 0.42625 0.04828 0.05241 0.0
C132 C 0.52639 0.13704 0.99726 0.0
C133 C 0.59782 0.97742 0.96613 0.0
C134 C 0.47675 0.97247 0.90546 0.0
C135 C 0.47859 0.90649 0.02851 0.0
O136 O 0.56879 0.09128 0.08024 0.0
O137 O 0.52825 0.02522 0.07936 0.0
O138 O 0.5208 0.62034 0.5615 0.0
Mg139 Mg 0.49203 0.55492 0.5766 0.0
O140 O 0.47808 0.58201 0.51561 0.0
Mg141 Mg 0.50695 0.51303 0.51574 0.0
O142 O 0.52925 0.51133 0.58603 0.0
O143 O 0.50147 0.55522 0.63687 0.0
O144 O 0.53582 0.4448 0.51331 0.0
O145 O 0.57318 0.55144 0.4993 0.0
Mg146 Mg 0.51942 0.46677 0.44678 0.0
O147 O 0.48221 0.51287 0.44856 0.0
O148 O 0.49046 0.40567 0.47032 0.0
O149 O 0.58601 0.49558 0.45358 0.0
O150 O 0.49556 0.46835 0.3906 0.0
C151 C 0.41406 0.49092 0.55002 0.0
C152 C 0.49402 0.62012 0.53445 0.0
C153 C 0.52406 0.52509 0.62547 0.0
C154 C 0.51833 0.40633 0.49633 0.0
C155 C 0.59891 0.53267 0.47535 0.0
C156 C 0.4765 0.49891 0.40939 0.0
O157 O 0.42523 0.52892 0.57059 0.0
O158 O 0.44164 0.4726 0.5289 0.0
O159 O 0.06211 0.44971 0.09477 0.0
Mg160 Mg 0.05196 0.51536 0.1131 0.0
O161 O 0.03116 0.44265 0.03402 0.0
Mg162 Mg 0.01552 0.5145 0.02271 0.0
O163 O 0.00034 0.53496 0.0907 0.0
O164 O 0.99886 0.50984 0.1525 0.0
O165 O 0.00053 0.59301 0.01483 0.0
O166 O 0.94554 0.47615 0.02033 0.0
Mg167 Mg 0.99424 0.53127 0.96718 0.0
O168 O 0.03383 0.48763 0.95222 0.0
O169 O 0.02325 0.59403 0.94969 0.0
O170 O 0.93172 0.53234 0.99202 0.0
O171 O 0.9801 0.49277 0.91303 0.0
C172 C 0.10996 0.57184 0.05704 0.0
C173 C 0.04913 0.42608 0.06168 0.0
C174 C 0.97841 0.521 0.1232 0.0
C175 C 0.01083 0.61496 0.9824 0.0
C176 C 0.91837 0.49775 0.01046 0.0
C177 C 0.01474 0.47878 0.91703 0.0
O178 O 0.09981 0.56773 0.09543 0.0
O179 O 0.08652 0.5511 0.02749 0.0
H180 H 0.07028 0.07419 0.22059 0.0
H181 H 0.19051 0.13109 0.27528 0.0
H182 H 0.16146 0.10993 0.34429 0.0
H183 H 0.10083 0.0742 0.38975 0.0
H184 H 0.98184 0.01612 0.33176 0.0
H185 H 0.01139 0.03806 0.26453 0.0
C186 C 0.09004 0.08216 0.24768 0.0
C187 C 0.13243 0.10434 0.24271 0.0
C188 C 0.0733 0.06931 0.28714 0.0
C189 C 0.15777 0.11384 0.27814 0.0
C190 C 0.14112 0.10176 0.3177 0.0
C191 C 0.08144 0.0664 0.36243 0.0
C192 C 0.0388 0.04377 0.36662 0.0
C193 C 0.0988 0.07925 0.32274 0.0
C194 C 0.01449 0.03393 0.33034 0.0
C195 C 0.03137 0.04642 0.29142 0.0
H196 H 0.47663 0.91253 0.71474 0.0
H197 H 0.35276 0.95005 0.7313 0.0
H198 H 0.37049 0.98565 0.79993 0.0
H199 H 0.41495 0.99445 0.8614 0.0
H200 H 0.53467 0.94993 0.84825 0.0
H201 H 0.52362 0.92703 0.77387 0.0
C202 C 0.45283 0.92764 0.73306 0.0
C203 C 0.41281 0.92704 0.7164 0.0
C204 C 0.46218 0.94652 0.77431 0.0
C205 C 0.38407 0.94943 0.74142 0.0
C206 C 0.3939 0.96974 0.78165 0.0
C207 C 0.43935 0.98164 0.84169 0.0
C208 C 0.47602 0.97499 0.85993 0.0
C209 C 0.43212 0.9671 0.79907 0.0
C210 C 0.5068 0.95673 0.83448 0.0
C211 C 0.50017 0.94297 0.79205 0.0
H212 H 0.57898 0.45773 0.7873 0.0
H213 H 0.62485 0.36112 0.69735 0.0
H214 H 0.59918 0.39504 0.63984 0.0
H215 H 0.56548 0.45415 0.61612 0.0
H216 H 0.52064 0.54991 0.70878 0.0
H217 H 0.5446 0.51436 0.76451 0.0
C218 C 0.58334 0.44411 0.75505 0.0
C219 C 0.60402 0.40767 0.74601 0.0
C220 C 0.56902 0.46379 0.72286 0.0
C221 C 0.60878 0.38935 0.70453 0.0
C222 C 0.59446 0.40888 0.67188 0.0
C223 C 0.56132 0.46736 0.64849 0.0
C224 C 0.54161 0.50475 0.65824 0.0
C225 C 0.57499 0.44655 0.68073 0.0
C226 C 0.53596 0.52132 0.70033 0.0
C227 C 0.54947 0.50097 0.73234 0.0
H228 H 0.90853 0.62909 0.25851 0.0
H229 H 0.87185 0.49604 0.29974 0.0
H230 H 0.87652 0.46253 0.2277 0.0
H231 H 0.91057 0.47117 0.15856 0.0
H232 H 0.95789 0.60339 0.12 0.0
H233 H 0.92648 0.6373 0.18348 0.0
C234 C 0.90063 0.59283 0.2514 0.0
C235 C 0.89149 0.56494 0.2842 0.0
C236 C 0.9049 0.57376 0.21004 0.0
C237 C 0.88045 0.51808 0.27498 0.0
C238 C 0.88274 0.49891 0.23377 0.0
C239 C 0.91165 0.50726 0.16307 0.0
C240 C 0.93818 0.53502 0.13633 0.0
C241 C 0.89761 0.52633 0.20157 0.0
C242 C 0.93846 0.58147 0.14103 0.0
C243 C 0.92155 0.60091 0.17798 0.0
H244 H 0.23326 0.07464 0.07053 0.0
H245 H 0.27712 0.13499 0.19173 0.0
H246 H 0.34682 0.1165 0.17435 0.0
H247 H 0.39576 0.08424 0.1256 0.0
H248 H 0.35528 0.02358 0.00353 0.0
H249 H 0.2839 0.04017 0.02057 0.0
C250 C 0.25823 0.08382 0.09293 0.0
C251 C 0.24979 0.10606 0.13259 0.0
C252 C 0.29873 0.07257 0.08279 0.0
C253 C 0.28249 0.11753 0.16129 0.0
C254 C 0.32244 0.10696 0.15137 0.0
C255 C 0.37139 0.07424 0.1026 0.0
C256 C 0.38117 0.05262 0.06326 0.0
C257 C 0.33089 0.08441 0.1124 0.0
C258 C 0.34879 0.03995 0.03416 0.0
C259 C 0.30799 0.0498 0.04383 0.0
H260 H 0.22894 0.88818 0.59929 0.0
H261 H 0.2926 0.9078 0.47897 0.0
H262 H 0.23229 0.93597 0.45554 0.0
H263 H 0.16436 0.96215 0.47215 0.0
H264 H 0.09932 0.93861 0.59106 0.0
H265 H 0.15681 0.90444 0.61221 0.0
C266 C 0.22937 0.89829 0.56784 0.0
C267 C 0.26536 0.89682 0.54106 0.0
C268 C 0.19423 0.91353 0.55435 0.0
C269 C 0.26528 0.90909 0.50015 0.0
C270 C 0.23085 0.9252 0.48679 0.0
C271 C 0.16224 0.94795 0.50198 0.0
C272 C 0.12753 0.95191 0.52975 0.0
C273 C 0.19548 0.92838 0.51388 0.0
C274 C 0.12538 0.93469 0.56886 0.0
C275 C 0.15847 0.91574 0.58115 0.0
H276 H 0.72238 0.45309 0.98908 0.0
H277 H 0.76716 0.42194 0.86201 0.0
H278 H 0.83981 0.43492 0.88452 0.0
H279 H 0.89057 0.45638 0.93923 0.0
H280 H 0.84955 0.495 0.06537 0.0
H281 H 0.77481 0.47564 0.04507 0.0
C282 C 0.74824 0.44946 0.96651 0.0
C283 C 0.73972 0.4371 0.92398 0.0
C284 C 0.7901 0.45691 0.97971 0.0
C285 C 0.77318 0.43244 0.89477 0.0
C286 C 0.81459 0.43913 0.90766 0.0
C287 C 0.86501 0.45933 0.96242 0.0
C288 C 0.87465 0.47582 0.00367 0.0
C289 C 0.82327 0.45112 0.94992 0.0
C290 C 0.8421 0.48105 0.03362 0.0
C291 C 0.79973 0.47079 0.02181 0.0
H292 H 0.78999 0.6274 0.45579 0.0
H293 H 0.80785 0.50476 0.50214 0.0
H294 H 0.73065 0.48113 0.51214 0.0
H295 H 0.65845 0.49213 0.50041 0.0
H296 H 0.6405 0.61375 0.45218 0.0
H297 H 0.71773 0.64115 0.44922 0.0
C298 C 0.77682 0.59611 0.46919 0.0
C299 C 0.80407 0.56797 0.47894 0.0
C300 C 0.7327 0.58229 0.47335 0.0
C301 C 0.78713 0.52694 0.49507 0.0
C302 C 0.74318 0.51338 0.50035 0.0
C303 C 0.67169 0.52479 0.48964 0.0
C304 C 0.64452 0.55097 0.47623 0.0
C305 C 0.71573 0.54018 0.48841 0.0
C306 C 0.66128 0.59335 0.46265 0.0
C307 C 0.70522 0.60887 0.46098 0.0
H308 H 0.07086 0.23759 0.10955 0.0
H309 H 0.17553 0.26008 0.01925 0.0
H310 H 0.15221 0.32699 1.00025 0.0
H311 H 0.1065 0.38424 0.01494 0.0
H312 H 0.0023 0.36183 0.10545 0.0
H313 H 0.02015 0.28984 0.11797 0.0
C314 C 0.08835 0.2569 0.08548 0.0
C315 C 0.1254 0.24416 0.06638 0.0
C316 C 0.07459 0.29546 0.0745 0.0
C317 C 0.1472 0.26933 0.03478 0.0
C318 C 0.13385 0.30767 0.02384 0.0
C319 C 0.08685 0.3627 0.03619 0.0
C320 C 0.05262 0.37792 0.05864 0.0
C321 C 0.09811 0.3217 0.04409 0.0
C322 C 0.02823 0.35037 0.08714 0.0
C323 C 0.0388 0.30944 0.09473 0.0
H324 H 0.60059 0.2846 0.87498 0.0
H325 H 0.60143 0.36835 0.99226 0.0
H326 H 0.56702 0.30338 0.02816 0.0
H327 H 0.54217 0.22361 0.02715 0.0
H328 H 0.54319 0.13675 0.91183 0.0
H329 H 0.57117 0.20289 0.87356 0.0
C330 C 0.59222 0.2886 0.90818 0.0
C331 C 0.60332 0.33091 0.93116 0.0
C332 C 0.57326 0.2509 0.92873 0.0
C333 C 0.59315 0.33592 0.97421 0.0
C334 C 0.57364 0.2989 0.99466 0.0
C335 C 0.54789 0.21881 0.9935 0.0
C336 C 0.54066 0.17538 0.97225 0.0
C337 C 0.56442 0.25629 0.97234 0.0
C338 C 0.54879 0.16994 0.9288 0.0
C339 C 0.56468 0.20765 0.90705 0.0
H340 H 0.86422 0.70123 0.45683 0.0
H341 H 0.99293 0.68365 0.46702 0.0
H342 H 0.01774 0.766 0.47146 0.0
H343 H 0.00182 0.84312 0.4683 0.0
H344 H 0.87208 0.85533 0.45221 0.0
H345 H 0.84848 0.77495 0.45459 0.0
C346 C 0.89762 0.7155 0.46101 0.0
C347 C 0.92664 0.68699 0.46269 0.0
C348 C 0.91138 0.76188 0.46211 0.0
C349 C 0.97006 0.70544 0.46638 0.0
C350 C 0.98413 0.75231 0.46872 0.0
C351 C 0.96848 0.82791 0.46578 0.0
C352 C 0.93869 0.85477 0.45987 0.0
C353 C 0.95502 0.78094 0.46608 0.0
C354 C 0.89556 0.83506 0.45632 0.0
C355 C 0.88196 0.78918 0.45779 0.0
H356 H 0.3728 0.75731 0.58353 0.0
H357 H 0.49291 0.8465 0.60659 0.0
H358 H 0.5307 0.78731 0.57702 0.0
H359 H 0.52956 0.70819 0.55047 0.0
H360 H 0.40969 0.61898 0.52707 0.0
H361 H 0.3719 0.68031 0.55004 0.0
C362 C 0.40725 0.764 0.58158 0.0
C363 C 0.42998 0.80617 0.59787 0.0
C364 C 0.42881 0.7298 0.56432 0.0
C365 C 0.47463 0.81408 0.59524 0.0
C366 C 0.49626 0.78035 0.57802 0.0
C367 C 0.49522 0.7026 0.54925 0.0
C368 C 0.47252 0.65923 0.53671 0.0
C369 C 0.4737 0.73783 0.5632 0.0
C370 C 0.428 0.65225 0.53568 0.0
C371 C 0.40633 0.68719 0.54944 0.0
H372 H 0.84942 0.92264 0.75308 0.0
H373 H 0.96557 0.92771 0.81637 0.0
H374 H 0.00705 0.94922 0.75329 0.0
H375 H 0.01107 0.96818 0.68078 0.0
H376 H 0.89592 0.9645 0.6165 0.0
H377 H 0.8536 0.94118 0.67923 0.0
C378 C 0.88382 0.92872 0.75322 0.0
C379 C 0.90413 0.92325 0.78982 0.0
C380 C 0.90779 0.94137 0.71654 0.0
C381 C 0.94882 0.93085 0.78883 0.0
C382 C 0.97269 0.94346 0.75271 0.0
C383 C 0.97668 0.96215 0.68023 0.0
C384 C 0.95687 0.96821 0.64365 0.0
C385 C 0.95259 0.94889 0.71643 0.0
C386 C 0.91219 0.95998 0.64391 0.0
C387 C 0.88794 0.94678 0.67993 0.0
H388 H 0.64783 0.10808 0.26691 0.0
H389 H 0.51941 0.11106 0.31296 0.0
H390 H 0.49278 0.08034 0.24403 0.0
H391 H 0.50664 0.05821 0.16876 0.0
H392 H 0.63534 0.05857 0.12292 0.0
H393 H 0.66103 0.08061 0.19376 0.0
C394 C 0.61392 0.10123 0.2622 0.0
C395 C 0.58581 0.11225 0.29525 0.0
C396 C 0.59879 0.08349 0.22244 0.0
C397 C 0.54198 0.10377 0.28806 0.0
C398 C 0.52664 0.08579 0.24866 0.0
C399 C 0.54006 0.06138 0.17475 0.0
C400 C 0.56901 0.0554 0.141 0.0
C401 C 0.55478 0.07605 0.2154 0.0
C402 C 0.61245 0.06168 0.14868 0.0
C403 C 0.62717 0.07493 0.18907 0.0
H404 H 0.38776 0.55111 0.26187 0.0
H405 H 0.47242 0.67674 0.29545 0.0
H406 H 0.4859 0.65047 0.36184 0.0
H407 H 0.48521 0.58663 0.40217 0.0
H408 H 0.41072 0.45702 0.36205 0.0
H409 H 0.38017 0.48978 0.30724 0.0
C410 C 0.40833 0.5729 0.28429 0.0
C411 C 0.42977 0.61524 0.2741 0.0
C412 C 0.41776 0.55659 0.32105 0.0
C413 C 0.45634 0.64358 0.3029 0.0
C414 C 0.46396 0.62866 0.3407 0.0
C415 C 0.46131 0.56613 0.3821 0.0
C416 C 0.45034 0.51984 0.38512 0.0
C417 C 0.4466 0.58444 0.34901 0.0
C418 C 0.41967 0.49287 0.35935 0.0
C419 C 0.40249 0.51149 0.32807 0.0
H420 H 0.10554 0.40236 0.75426 0.0
H421 H 0.06766 0.51686 0.70893 0.0
H422 H 0.04168 0.53968 0.77906 0.0
H423 H 0.02394 0.52353 0.85054 0.0
H424 H 0.05862 0.40894 0.89828 0.0
H425 H 0.0922 0.3893 0.82951 0.0
C426 C 0.09176 0.4324 0.76007 0.0
C427 C 0.08739 0.45744 0.72672 0.0
C428 C 0.07611 0.44477 0.80035 0.0
C429 C 0.07026 0.49662 0.73413 0.0
C430 C 0.05558 0.50971 0.77411 0.0
C431 C 0.03871 0.49406 0.84582 0.0
C432 C 0.03789 0.46672 0.87841 0.0
C433 C 0.05723 0.4833 0.80693 0.0
C434 C 0.05846 0.4298 0.87297 0.0
C435 C 0.07748 0.41872 0.83385 0.0
H436 H 0.78777 0.94859 0.95586 0.0
H437 H 0.75729 0.91811 0.82549 0.0
H438 H 0.68914 0.94107 0.84038 0.0
H439 H 0.63533 0.96348 0.89065 0.0
H440 H 0.66301 0.99434 0.02118 0.0
H441 H 0.73498 0.97843 0.00615 0.0
C442 C 0.76622 0.94713 0.93076 0.0
C443 C 0.77792 0.93145 0.88949 0.0
C444 C 0.72657 0.96074 0.93955 0.0
C445 C 0.7496 0.93031 0.85737 0.0
C446 C 0.71041 0.94334 0.86587 0.0
C447 C 0.65759 0.96795 0.91564 0.0
C448 C 0.64408 0.98056 0.95686 0.0
C449 C 0.69832 0.95801 0.9068 0.0
C450 C 0.67296 0.98564 0.98906 0.0
C451 C 0.71389 0.97584 0.98049 0.0
H452 H 0.79528 0.1776 0.46538 0.0
H453 H 0.70094 0.05562 0.44866 0.0
H454 H 0.75064 0.01217 0.47042 0.0
H455 H 0.82163 0.00754 0.48864 0.0
H456 H 0.91941 0.12706 0.50057 0.0
H457 H 0.86747 0.173 0.48722 0.0
C458 C 0.78568 0.1416 0.46702 0.0
C459 C 0.7447 0.11974 0.45509 0.0
C460 C 0.81495 0.11646 0.4787 0.0
C461 C 0.73246 0.0731 0.45717 0.0
C462 C 0.76082 0.04824 0.46973 0.0
C463 C 0.83172 0.04374 0.48885 0.0
C464 C 0.87449 0.06377 0.49536 0.0
C465 C 0.80228 0.06941 0.47973 0.0
C466 C 0.8867 0.11077 0.49573 0.0
C467 C 0.85705 0.13697 0.48779 0.0
H468 H 0.28164 0.6881 0.09834 0.0
H469 H 0.31882 0.55865 0.07388 0.0
H470 H 0.25079 0.52729 0.04146 0.0
H471 H 0.17663 0.53393 0.03314 0.0
H472 H 0.13833 0.66154 0.06587 0.0
H473 H 0.21174 0.6974 0.08019 0.0
C474 C 0.27552 0.6534 0.08466 0.0
C475 C 0.30493 0.62556 0.08872 0.0
C476 C 0.2362 0.63555 0.06738 0.0
C477 C 0.29626 0.58045 0.07161 0.0
C478 C 0.25753 0.56264 0.05299 0.0
C479 C 0.18502 0.57001 0.04138 0.0
C480 C 0.15287 0.59551 0.04796 0.0
C481 C 0.22662 0.58945 0.05237 0.0
C482 C 0.16313 0.64183 0.0599 0.0
C483 C 0.20486 0.66202 0.06874 0.0
H484 H 0.22276 0.41826 0.50937 0.0
H485 H 0.20917 0.45363 0.64265 0.0
H486 H 0.28566 0.47437 0.64764 0.0
H487 H 0.35624 0.48802 0.61365 0.0
H488 H 0.37203 0.44752 0.48197 0.0
H489 H 0.29501 0.4223 0.47691 0.0
C490 C 0.23665 0.43015 0.53946 0.0
C491 C 0.21026 0.43639 0.5751 0.0
C492 C 0.28099 0.44103 0.54247 0.0
C493 C 0.22869 0.45073 0.61421 0.0
C494 C 0.27248 0.46213 0.61731 0.0
C495 C 0.34268 0.4732 0.58402 0.0
C496 C 0.3691 0.47005 0.54818 0.0
C497 C 0.29883 0.45848 0.58152 0.0
C498 C 0.35181 0.45016 0.50996 0.0
C499 C 0.30791 0.43603 0.50702 0.0
H500 H 0.99686 0.79531 0.91071 0.0
H501 H 0.86994 0.76544 0.96498 0.0
H502 H 0.8878 0.70161 0.99663 0.0
H503 H 0.9388 0.65039 0.00429 0.0
H504 H 0.06448 0.681 0.94704 0.0
H505 H 0.0481 0.74821 0.92173 0.0
C506 C 0.97313 0.77506 0.92977 0.0
C507 C 0.9321 0.78517 0.93526 0.0
C508 C 0.98363 0.73846 0.94766 0.0
C509 C 0.90173 0.75842 0.95997 0.0
C510 C 0.91203 0.72191 0.97818 0.0
C511 C 0.96303 0.67282 0.98773 0.0
C512 C 0.00334 0.6612 0.97863 0.0
C513 C 0.95285 0.71121 0.97193 0.0
C514 C 0.03371 0.68967 0.95546 0.0
C515 C 0.02417 0.72789 0.94046 0.0
H516 H 0.36014 0.7806 0.13062 0.0
H517 H 0.47869 0.73885 0.14656 0.0
H518 H 0.51815 0.81066 0.12599 0.0
H519 H 0.51772 0.87369 0.08507 0.0
H520 H 0.39939 0.91039 0.06035 0.0
H521 H 0.36081 0.85376 0.10445 0.0
C522 C 0.3946 0.78785 0.13037 0.0
C523 C 0.41668 0.75443 0.13862 0.0
C524 C 0.41695 0.82843 0.11709 0.0
C525 C 0.4612 0.76413 0.13965 0.0
C526 C 0.48373 0.80507 0.12783 0.0
C527 C 0.48376 0.8708 0.09146 0.0
C528 C 0.46101 0.89511 0.06953 0.0
C529 C 0.46188 0.83606 0.11394 0.0
C530 C 0.41721 0.89172 0.07733 0.0
C531 C 0.39518 0.85876 0.10176 0.0
H532 H 0.0594 0.31721 0.61508 0.0
H533 H 0.09392 0.32379 0.4839 0.0
H534 H 0.07368 0.24144 0.47159 0.0
H535 H 0.05646 0.16744 0.50091 0.0
H536 H 0.02947 0.1637 0.63374 0.0
H537 H 0.03557 0.24518 0.64273 0.0
C538 C 0.06116 0.30079 0.58351 0.0
C539 C 0.07776 0.32625 0.55032 0.0
C540 C 0.05126 0.25391 0.57721 0.0
C541 C 0.08109 0.30456 0.50981 0.0
C542 C 0.06972 0.25763 0.50288 0.0
C543 C 0.05091 0.18463 0.53147 0.0
C544 C 0.04284 0.16015 0.56668 0.0
C545 C 0.05628 0.23185 0.53669 0.0
C546 C 0.03607 0.1823 0.60635 0.0
C547 C 0.0396 0.22877 0.61151 0.0
H548 H 0.63633 0.26684 0.44348 0.0
H549 H 0.51505 0.18547 0.40954 0.0
H550 H 0.47871 0.24353 0.4435 0.0
H551 H 0.48145 0.32012 0.47588 0.0
H552 H 0.6018 0.40365 0.50868 0.0
H553 H 0.63821 0.34148 0.48388 0.0
C554 C 0.60192 0.26155 0.44414 0.0
C555 C 0.57854 0.22217 0.42308 0.0
C556 C 0.581 0.29534 0.46385 0.0
C557 C 0.53394 0.2159 0.42437 0.0
C558 C 0.51305 0.24895 0.44412 0.0
C559 C 0.51556 0.32436 0.47865 0.0
C560 C 0.53885 0.36646 0.49396 0.0
C561 C 0.53627 0.28918 0.46299 0.0
C562 C 0.58302 0.37146 0.49742 0.0
C563 C 0.60392 0.33608 0.48263 0.0
loop_
_geom_bond_atom_site_label_1
_geom_bond_atom_site_label_2
_geom_bond_distance
_geom_bond_site_symmetry_2
_ccdc_geom_bond_type
H0 C5 0.930 . S
H1 C8 0.930 . S
H2 C10 0.930 . S
H3 C4 1.016 . S
C4 H3 1.016 . S
C4 N11 1.286 . S
C5 H0 0.930 . S
C5 C6 1.397 . S
C5 C7 1.361 . S
C6 C5 1.397 . S
C6 C10 1.390 . S
C7 C5 1.361 . S
C7 C8 1.393 . S
C7 N11 1.413 . S
C8 H1 0.930 . S
C8 C7 1.393 . S
C8 C9 1.399 . S
C9 C8 1.399 . S
C9 C10 1.381 . S
C10 H2 0.930 . S
C10 C6 1.390 . S
C10 C9 1.381 . S
N11 C4 1.286 . S
N11 C7 1.413 . S
H12 C17 0.930 . S
H13 C20 0.930 . S
H14 C22 0.930 . S
H15 C16 1.016 . S
C16 H15 1.016 . S
C16 N23 1.286 . S
C17 H12 0.930 . S
C17 C18 1.397 . S
C17 C19 1.361 . S
C18 C17 1.397 . S
C18 C22 1.390 . S
C19 C17 1.361 . S
C19 C20 1.393 . S
C19 N23 1.413 . S
C20 H13 0.930 . S
C20 C19 1.393 . S
C20 C21 1.399 . S
C21 C20 1.399 . S
C21 C22 1.381 . S
C22 H14 0.930 . S
C22 C18 1.390 . S
C22 C21 1.381 . S
N23 C16 1.286 . S
N23 C19 1.413 . S
H24 C29 0.930 . S
H25 C32 0.930 . S
H26 C34 0.930 . S
H27 C28 1.016 . S
C28 H27 1.016 . S
C28 N35 1.286 . S
C29 H24 0.930 . S
C29 C30 1.397 . S
C29 C31 1.361 . S
C30 C29 1.397 . S
C30 C34 1.390 . S
C31 C29 1.361 . S
C31 C32 1.393 . S
C31 N35 1.413 . S
C32 H25 0.930 . S
C32 C31 1.393 . S
C32 C33 1.399 . S
C33 C32 1.399 . S
C33 C34 1.381 . S
C34 H26 0.930 . S
C34 C30 1.390 . S
C34 C33 1.381 . S
N35 C28 1.286 . S
N35 C31 1.413 . S
H36 C41 0.930 . S
H37 C44 0.930 . S
H38 C46 0.930 . S
H39 C40 1.016 . S
C40 H39 1.016 . S
C40 N47 1.286 . S
C41 H36 0.930 . S
C41 C42 1.397 . S
C41 C43 1.361 . S
C42 C41 1.397 . S
C42 C46 1.390 . S
C43 C41 1.361 . S
C43 C44 1.393 . S
C43 N47 1.413 . S
C44 H37 0.930 . S
C44 C43 1.393 . S
C44 C45 1.399 . S
C45 C44 1.399 . S
C45 C46 1.381 . S
C46 H38 0.930 . S
C46 C42 1.390 . S
C46 C45 1.381 . S
N47 C40 1.286 . S
N47 C43 1.413 . S
H48 C53 0.930 . S
H49 C56 0.930 . S
H50 C58 0.930 . S
H51 C52 1.016 . S
C52 H51 1.016 . S
C52 N59 1.286 . S
C53 H48 0.930 . S
C53 C54 1.397 . S
C53 C55 1.361 . S
C54 C53 1.397 . S
C54 C58 1.390 . S
C55 C53 1.361 . S
C55 C56 1.393 . S
C55 N59 1.413 . S
C56 H49 0.930 . S
C56 C55 1.393 . S
C56 C57 1.399 . S
C57 C56 1.399 . S
C57 C58 1.381 . S
C58 H50 0.930 . S
C58 C54 1.390 . S
C58 C57 1.381 . S
N59 C52 1.286 . S
N59 C55 1.413 . S
H60 C65 0.930 . S
H61 C68 0.930 . S
H62 C70 0.930 . S
H63 C64 1.016 . S
C64 H63 1.016 . S
C64 N71 1.286 . S
C65 H60 0.930 . S
C65 C66 1.397 . S
C65 C67 1.361 . S
C66 C65 1.397 . S
C66 C70 1.390 . S
C67 C65 1.361 . S
C67 C68 1.393 . S
C67 N71 1.413 . S
C68 H61 0.930 . S
C68 C67 1.393 . S
C68 C69 1.399 . S
C69 C68 1.399 . S
C69 C70 1.381 . S
C70 H62 0.930 . S
C70 C66 1.390 . S
C70 C69 1.381 . S
N71 C64 1.286 . S
N71 C67 1.413 . S
H72 C77 0.930 . S
H73 C80 0.930 . S
H74 C82 0.930 . S
H75 C76 1.016 . S
C76 H75 1.016 . S
C76 N83 1.286 . S
C77 H72 0.930 . S
C77 C78 1.397 . S
C77 C79 1.361 . S
C78 C77 1.397 . S
C78 C82 1.390 . S
C79 C77 1.361 . S
C79 C80 1.393 . S
C79 N83 1.413 . S
C80 H73 0.930 . S
C80 C79 1.393 . S
C80 C81 1.399 . S
C81 C80 1.399 . S
C81 C82 1.381 . S
C82 H74 0.930 . S
C82 C78 1.390 . S
C82 C81 1.381 . S
N83 C76 1.286 . S
N83 C79 1.413 . S
H84 C89 0.930 . S
H85 C92 0.930 . S
H86 C94 0.930 . S
H87 C88 1.016 . S
C88 H87 1.016 . S
C88 N95 1.286 . S
C89 H84 0.930 . S
C89 C90 1.397 . S
C89 C91 1.361 . S
C90 C89 1.397 . S
C90 C94 1.390 . S
C91 C89 1.361 . S
C91 C92 1.393 . S
C91 N95 1.413 . S
C92 H85 0.930 . S
C92 C91 1.393 . S
C92 C93 1.399 . S
C93 C92 1.399 . S
C93 C94 1.381 . S
C94 H86 0.930 . S
C94 C90 1.390 . S
C94 C93 1.381 . S
N95 C88 1.286 . S
N95 C91 1.413 . S
O96 Mg97 1.990 . S
O96 C110 1.253 1_445 S
Mg97 O96 1.990 . S
Mg97 O100 2.180 . S
Mg97 O101 2.117 . S
Mg97 O115 2.030 1_545 S
O98 Mg99 2.072 1_665 S
O98 C110 1.260 . S
Mg99 O98 2.072 1_445 S
Mg99 O100 2.099 . S
Mg99 O102 2.079 . S
Mg99 O103 2.072 1_455 S
Mg99 O105 2.099 1_445 S
Mg99 O116 2.079 1_545 S
O100 Mg97 2.180 . S
O100 Mg99 2.099 . S
O100 C111 1.279 . S
O101 Mg97 2.117 . S
O101 C111 1.250 . S
O102 Mg99 2.079 . S
O102 C112 1.264 . S
O103 Mg99 2.072 1_655 S
O103 C113 1.260 . S
Mg104 O105 2.180 . S
Mg104 O106 2.030 1_565 S
Mg104 O107 1.990 . S
Mg104 O108 2.117 . S
O105 Mg99 2.099 1_665 S
O105 Mg104 2.180 . S
O105 C114 1.279 . S
O106 Mg104 2.030 1_545 S
O106 C112 1.248 1_655 S
O107 Mg104 1.990 . S
O107 C113 1.253 1_565 S
O108 Mg104 2.117 . S
O108 C114 1.250 . S
C109 O115 1.248 . S
C109 O116 1.264 . S
C110 O96 1.253 1_665 S
C110 O98 1.260 . S
C111 O100 1.279 . S
C111 O101 1.250 . S
C112 O102 1.264 . S
C112 O106 1.248 1_455 S
C113 O103 1.260 . S
C113 O107 1.253 1_545 S
C114 O105 1.279 . S
C114 O108 1.250 . S
O115 Mg97 2.030 1_565 S
O115 C109 1.248 . S
O116 Mg99 2.079 1_565 S
O116 C109 1.264 . S
O117 Mg118 1.990 . S
O117 C131 1.253 . S
Mg118 O117 1.990 . S
Mg118 O121 2.180 . S
Mg118 O122 2.117 1_554 S
Mg118 O136 2.030 . S
O119 Mg120 2.072 . S
O119 C131 1.260 . S
Mg120 O119 2.072 . S
Mg120 O121 2.099 . S
Mg120 O123 2.079 1_554 S
Mg120 O124 2.072 1_554 S
Mg120 O126 2.099 1_545 S
Mg120 O137 2.079 . S
O121 Mg118 2.180 . S
O121 Mg120 2.099 . S
O121 C132 1.279 1_554 S
O122 Mg118 2.117 1_556 S
O122 C132 1.250 . S
O123 Mg120 2.079 1_556 S
O123 C133 1.264 1_545 S
O124 Mg120 2.072 1_556 S
O124 C134 1.260 1_545 S
Mg125 O126 2.180 1_556 S
Mg125 O127 2.030 . S
Mg125 O128 1.990 . S
Mg125 O129 2.117 1_556 S
O126 Mg120 2.099 1_565 S
O126 Mg125 2.180 1_554 S
O126 C135 1.279 . S
O127 Mg125 2.030 . S
O127 C133 1.248 . S
O128 Mg125 1.990 . S
O128 C134 1.253 . S
O129 Mg125 2.117 1_554 S
O129 C135 1.250 . S
C130 O136 1.248 . S
C130 O137 1.264 . S
C131 O117 1.253 . S
C131 O119 1.260 . S
C132 O121 1.279 1_556 S
C132 O122 1.250 . S
C133 O123 1.264 1_565 S
C133 O127 1.248 . S
C134 O124 1.260 1_565 S
C134 O128 1.253 . S
C135 O126 1.279 . S
C135 O129 1.250 . S
O136 Mg118 2.030 . S
O136 C130 1.248 . S
O137 Mg120 2.079 . S
O137 C130 1.264 . S
O138 Mg139 1.990 . S
O138 C152 1.253 . S
Mg139 O138 1.990 . S
Mg139 O142 2.180 . S
Mg139 O143 2.117 . S
Mg139 O157 2.030 . S
O140 Mg141 2.072 . S
O140 C152 1.260 . S
Mg141 O140 2.072 . S
Mg141 O142 2.099 . S
Mg141 O144 2.079 . S
Mg141 O145 2.072 . S
Mg141 O147 2.099 . S
Mg141 O158 2.079 . S
O142 Mg139 2.180 . S
O142 Mg141 2.099 . S
O142 C153 1.279 . S
O143 Mg139 2.117 . S
O143 C153 1.250 . S
O144 Mg141 2.079 . S
O144 C154 1.264 . S
O145 Mg141 2.072 . S
O145 C155 1.260 . S
Mg146 O147 2.180 . S
Mg146 O148 2.030 . S
Mg146 O149 1.990 . S
Mg146 O150 2.117 . S
O147 Mg141 2.099 . S
O147 Mg146 2.180 . S
O147 C156 1.279 . S
O148 Mg146 2.030 . S
O148 C154 1.248 . S
O149 Mg146 1.990 . S
O149 C155 1.253 . S
O150 Mg146 2.117 . S
O150 C156 1.250 . S
C151 O157 1.248 . S
C151 O158 1.264 . S
C152 O138 1.253 . S
C152 O140 1.260 . S
C153 O142 1.279 . S
C153 O143 1.250 . S
C154 O144 1.264 . S
C154 O148 1.248 . S
C155 O145 1.260 . S
C155 O149 1.253 . S
C156 O147 1.279 . S
C156 O150 1.250 . S
O157 Mg139 2.030 . S
O157 C151 1.248 . S
O158 Mg141 2.079 . S
O158 C151 1.264 . S
O159 Mg160 1.990 . S
O159 C173 1.253 . S
Mg160 O159 1.990 . S
Mg160 O163 2.180 . S
Mg160 O164 2.117 1_455 S
Mg160 O178 2.030 . S
O161 Mg162 2.072 . S
O161 C173 1.260 . S
Mg162 O161 2.072 . S
Mg162 O163 2.099 . S
Mg162 O165 2.079 1_554 S
Mg162 O166 2.072 1_455 S
Mg162 O168 2.099 1_554 S
Mg162 O179 2.079 . S
O163 Mg160 2.180 . S
O163 Mg162 2.099 . S
O163 C174 1.279 1_455 S
O164 Mg160 2.117 1_655 S
O164 C174 1.250 . S
O165 Mg162 2.079 1_556 S
O165 C175 1.264 1_455 S
O166 Mg162 2.072 1_655 S
O166 C176 1.260 1_554 S
Mg167 O168 2.180 1_655 S
Mg167 O169 2.030 . S
Mg167 O170 1.990 . S
Mg167 O171 2.117 1_655 S
O168 Mg162 2.099 1_556 S
O168 Mg167 2.180 1_455 S
O168 C177 1.279 . S
O169 Mg167 2.030 . S
O169 C175 1.248 . S
O170 Mg167 1.990 . S
O170 C176 1.253 . S
O171 Mg167 2.117 1_455 S
O171 C177 1.250 . S
C172 O178 1.248 . S
C172 O179 1.264 . S
C173 O159 1.253 . S
C173 O161 1.260 . S
C174 O163 1.279 1_655 S
C174 O164 1.250 . S
C175 O165 1.264 1_655 S
C175 O169 1.248 . S
C176 O166 1.260 1_556 S
C176 O170 1.253 . S
C177 O168 1.279 . S
C177 O171 1.250 . S
O178 Mg160 2.030 . S
O178 C172 1.248 . S
O179 Mg162 2.079 . S
O179 C172 1.264 . S
H180 C186 0.930 . S
H181 C189 0.930 . S
H182 C190 0.930 . S
H183 C191 0.930 . S
H184 C194 0.930 1_655 S
H185 C195 0.930 . S
C186 H180 0.930 . S
C186 C187 1.355 . S
C186 C188 1.415 . S
C187 C186 1.355 . S
C187 C189 1.419 . S
C188 C186 1.415 . S
C188 C193 1.425 . S
C188 C195 1.409 . S
C189 H181 0.930 . S
C189 C187 1.419 . S
C189 C190 1.362 . S
C190 H182 0.930 . S
C190 C189 1.362 . S
C190 C193 1.409 . S
C191 H183 0.930 . S
C191 C192 1.355 . S
C191 C193 1.415 . S
C192 C191 1.355 . S
C192 C194 1.419 . S
C193 C188 1.425 . S
C193 C190 1.409 . S
C193 C191 1.415 . S
C194 H184 0.930 1_455 S
C194 C192 1.419 . S
C194 C195 1.362 . S
C195 H185 0.930 . S
C195 C188 1.409 . S
C195 C194 1.362 . S
H196 C202 0.930 . S
H197 C205 0.930 . S
H198 C206 0.930 . S
H199 C207 0.930 1_545 S
H200 C210 0.930 . S
H201 C211 0.930 . S
C202 H196 0.930 . S
C202 C203 1.355 . S
C202 C204 1.415 . S
C203 C202 1.355 . S
C203 C205 1.419 . S
C204 C202 1.415 . S
C204 C209 1.425 . S
C204 C211 1.409 . S
C205 H197 0.930 . S
C205 C203 1.419 . S
C205 C206 1.362 . S
C206 H198 0.930 . S
C206 C205 1.362 . S
C206 C209 1.409 . S
C207 H199 0.930 1_565 S
C207 C208 1.355 . S
C207 C209 1.415 . S
C208 C207 1.355 . S
C208 C210 1.419 . S
C209 C204 1.425 . S
C209 C206 1.409 . S
C209 C207 1.415 . S
C210 H200 0.930 . S
C210 C208 1.419 . S
C210 C211 1.362 . S
C211 H201 0.930 . S
C211 C204 1.409 . S
C211 C210 1.362 . S
H212 C218 0.930 . S
H213 C221 0.930 . S
H214 C222 0.930 . S
H215 C223 0.930 . S
H216 C226 0.930 . S
H217 C227 0.930 . S
C218 H212 0.930 . S
C218 C219 1.355 . S
C218 C220 1.415 . S
C219 C218 1.355 . S
C219 C221 1.419 . S
C220 C218 1.415 . S
C220 C225 1.425 . S
C220 C227 1.409 . S
C221 H213 0.930 . S
C221 C219 1.419 . S
C221 C222 1.362 . S
C222 H214 0.930 . S
C222 C221 1.362 . S
C222 C225 1.409 . S
C223 H215 0.930 . S
C223 C224 1.355 . S
C223 C225 1.415 . S
C224 C223 1.355 . S
C224 C226 1.419 . S
C225 C220 1.425 . S
C225 C222 1.409 . S
C225 C223 1.415 . S
C226 H216 0.930 . S
C226 C224 1.419 . S
C226 C227 1.362 . S
C227 H217 0.930 . S
C227 C220 1.409 . S
C227 C226 1.362 . S
H228 C234 0.930 . S
H229 C237 0.930 . S
H230 C238 0.930 . S
H231 C239 0.930 . S
H232 C242 0.930 . S
H233 C243 0.930 . S
C234 H228 0.930 . S
C234 C235 1.355 . S
C234 C236 1.415 . S
C235 C234 1.355 . S
C235 C237 1.419 . S
C236 C234 1.415 . S
C236 C241 1.425 . S
C236 C243 1.409 . S
C237 H229 0.930 . S
C237 C235 1.419 . S
C237 C238 1.362 . S
C238 H230 0.930 . S
C238 C237 1.362 . S
C238 C241 1.409 . S
C239 H231 0.930 . S
C239 C240 1.355 . S
C239 C241 1.415 . S
C240 C239 1.355 . S
C240 C242 1.419 . S
C241 C236 1.425 . S
C241 C238 1.409 . S
C241 C239 1.415 . S
C242 H232 0.930 . S
C242 C240 1.419 . S
C242 C243 1.362 . S
C243 H233 0.930 . S
C243 C236 1.409 . S
C243 C242 1.362 . S
H244 C250 0.930 . S
H245 C253 0.930 . S
H246 C254 0.930 . S
H247 C255 0.930 . S
H248 C258 0.930 . S
H249 C259 0.930 . S
C250 H244 0.930 . S
C250 C251 1.355 . S
C250 C252 1.415 . S
C251 C250 1.355 . S
C251 C253 1.419 . S
C252 C250 1.415 . S
C252 C257 1.425 . S
C252 C259 1.409 . S
C253 H245 0.930 . S
C253 C251 1.419 . S
C253 C254 1.362 . S
C254 H246 0.930 . S
C254 C253 1.362 . S
C254 C257 1.409 . S
C255 H247 0.930 . S
C255 C256 1.355 . S
C255 C257 1.415 . S
C256 C255 1.355 . S
C256 C258 1.419 . S
C257 C252 1.425 . S
C257 C254 1.409 . S
C257 C255 1.415 . S
C258 H248 0.930 . S
C258 C256 1.419 . S
C258 C259 1.362 . S
C259 H249 0.930 . S
C259 C252 1.409 . S
C259 C258 1.362 . S
H260 C266 0.930 . S
H261 C269 0.930 . S
H262 C270 0.930 . S
H263 C271 0.930 . S
H264 C274 0.930 . S
H265 C275 0.930 . S
C266 H260 0.930 . S
C266 C267 1.355 . S
C266 C268 1.415 . S
C267 C266 1.355 . S
C267 C269 1.419 . S
C268 C266 1.415 . S
C268 C273 1.425 . S
C268 C275 1.409 . S
C269 H261 0.930 . S
C269 C267 1.419 . S
C269 C270 1.362 . S
C270 H262 0.930 . S
C270 C269 1.362 . S
C270 C273 1.409 . S
C271 H263 0.930 . S
C271 C272 1.355 . S
C271 C273 1.415 . S
C272 C271 1.355 . S
C272 C274 1.419 . S
C273 C268 1.425 . S
C273 C270 1.409 . S
C273 C271 1.415 . S
C274 H264 0.930 . S
C274 C272 1.419 . S
C274 C275 1.362 . S
C275 H265 0.930 . S
C275 C268 1.409 . S
C275 C274 1.362 . S
H276 C282 0.930 . S
H277 C285 0.930 . S
H278 C286 0.930 . S
H279 C287 0.930 . S
H280 C290 0.930 . S
H281 C291 0.930 . S
C282 H276 0.930 . S
C282 C283 1.355 . S
C282 C284 1.415 . S
C283 C282 1.355 . S
C283 C285 1.419 . S
C284 C282 1.415 . S
C284 C289 1.425 . S
C284 C291 1.409 1_556 S
C285 H277 0.930 . S
C285 C283 1.419 . S
C285 C286 1.362 . S
C286 H278 0.930 . S
C286 C285 1.362 . S
C286 C289 1.409 . S
C287 H279 0.930 . S
C287 C288 1.355 . S
C287 C289 1.415 . S
C288 C287 1.355 . S
C288 C290 1.419 1_556 S
C289 C284 1.425 . S
C289 C286 1.409 . S
C289 C287 1.415 . S
C290 H280 0.930 . S
C290 C288 1.419 1_554 S
C290 C291 1.362 . S
C291 H281 0.930 . S
C291 C284 1.409 1_554 S
C291 C290 1.362 . S
H292 C298 0.930 . S
H293 C301 0.930 . S
H294 C302 0.930 . S
H295 C303 0.930 . S
H296 C306 0.930 . S
H297 C307 0.930 . S
C298 H292 0.930 . S
C298 C299 1.355 . S
C298 C300 1.415 . S
C299 C298 1.355 . S
C299 C301 1.419 . S
C300 C298 1.415 . S
C300 C305 1.425 . S
C300 C307 1.409 . S
C301 H293 0.930 . S
C301 C299 1.419 . S
C301 C302 1.362 . S
C302 H294 0.930 . S
C302 C301 1.362 . S
C302 C305 1.409 . S
C303 H295 0.930 . S
C303 C304 1.355 . S
C303 C305 1.415 . S
C304 C303 1.355 . S
C304 C306 1.419 . S
C305 C300 1.425 . S
C305 C302 1.409 . S
C305 C303 1.415 . S
C306 H296 0.930 . S
C306 C304 1.419 . S
C306 C307 1.362 . S
C307 H297 0.930 . S
C307 C300 1.409 . S
C307 C306 1.362 . S
H308 C314 0.930 . S
H309 C317 0.930 . S
H310 C318 0.930 1_556 S
H311 C319 0.931 . S
H312 C322 0.930 . S
H313 C323 0.930 . S
C314 H308 0.930 . S
C314 C315 1.355 . S
C314 C316 1.415 . S
C315 C314 1.355 . S
C315 C317 1.419 . S
C316 C314 1.415 . S
C316 C321 1.425 . S
C316 C323 1.409 . S
C317 H309 0.930 . S
C317 C315 1.419 . S
C317 C318 1.362 . S
C318 H310 0.930 1_554 S
C318 C317 1.362 . S
C318 C321 1.409 . S
C319 H311 0.931 . S
C319 C320 1.355 . S
C319 C321 1.415 . S
C320 C319 1.355 . S
C320 C322 1.419 . S
C321 C316 1.425 . S
C321 C318 1.409 . S
C321 C319 1.415 . S
C322 H312 0.930 . S
C322 C320 1.419 . S
C322 C323 1.362 . S
C323 H313 0.930 . S
C323 C316 1.409 . S
C323 C322 1.362 . S
H324 C330 0.930 . S
H325 C333 0.930 . S
H326 C334 0.930 1_554 S
H327 C335 0.930 1_554 S
H328 C338 0.930 . S
H329 C339 0.930 . S
C330 H324 0.930 . S
C330 C331 1.355 . S
C330 C332 1.415 . S
C331 C330 1.355 . S
C331 C333 1.419 . S
C332 C330 1.415 . S
C332 C337 1.425 . S
C332 C339 1.409 . S
C333 H325 0.930 . S
C333 C331 1.419 . S
C333 C334 1.362 . S
C334 H326 0.930 1_556 S
C334 C333 1.362 . S
C334 C337 1.409 . S
C335 H327 0.930 1_556 S
C335 C336 1.355 . S
C335 C337 1.415 . S
C336 C335 1.355 . S
C336 C338 1.419 . S
C337 C332 1.425 . S
C337 C334 1.409 . S
C337 C335 1.415 . S
C338 H328 0.930 . S
C338 C336 1.419 . S
C338 C339 1.362 . S
C339 H329 0.930 . S
C339 C332 1.409 . S
C339 C338 1.362 . S
H340 C346 0.930 . S
H341 C349 0.930 . S
H342 C350 0.930 . S
H343 C351 0.930 . S
H344 C354 0.930 . S
H345 C355 0.930 . S
C346 H340 0.930 . S
C346 C347 1.355 . S
C346 C348 1.415 . S
C347 C346 1.355 . S
C347 C349 1.419 . S
C348 C346 1.415 . S
C348 C353 1.425 . S
C348 C355 1.409 . S
C349 H341 0.930 . S
C349 C347 1.419 . S
C349 C350 1.362 . S
C350 H342 0.930 . S
C350 C349 1.362 . S
C350 C353 1.409 . S
C351 H343 0.930 . S
C351 C352 1.355 . S
C351 C353 1.415 . S
C352 C351 1.355 . S
C352 C354 1.419 . S
C353 C348 1.425 . S
C353 C350 1.409 . S
C353 C351 1.415 . S
C354 H344 0.930 . S
C354 C352 1.419 . S
C354 C355 1.362 . S
C355 H345 0.930 . S
C355 C348 1.409 . S
C355 C354 1.362 . S
H356 C362 0.930 . S
H357 C365 0.930 . S
H358 C366 0.930 . S
H359 C367 0.930 . S
H360 C370 0.930 . S
H361 C371 0.930 . S
C362 H356 0.930 . S
C362 C363 1.355 . S
C362 C364 1.415 . S
C363 C362 1.355 . S
C363 C365 1.419 . S
C364 C362 1.415 . S
C364 C369 1.425 . S
C364 C371 1.409 . S
C365 H357 0.930 . S
C365 C363 1.419 . S
C365 C366 1.362 . S
C366 H358 0.930 . S
C366 C365 1.362 . S
C366 C369 1.409 . S
C367 H359 0.930 . S
C367 C368 1.355 . S
C367 C369 1.415 . S
C368 C367 1.355 . S
C368 C370 1.419 . S
C369 C364 1.425 . S
C369 C366 1.409 . S
C369 C367 1.415 . S
C370 H360 0.930 . S
C370 C368 1.419 . S
C370 C371 1.362 . S
C371 H361 0.930 . S
C371 C364 1.409 . S
C371 C370 1.362 . S
H372 C378 0.930 . S
H373 C381 0.930 . S
H374 C382 0.930 1_455 S
H375 C383 0.930 1_455 S
H376 C386 0.930 . S
H377 C387 0.930 . S
C378 H372 0.930 . S
C378 C379 1.355 . S
C378 C380 1.415 . S
C379 C378 1.355 . S
C379 C381 1.419 . S
C380 C378 1.415 . S
C380 C385 1.425 . S
C380 C387 1.409 . S
C381 H373 0.930 . S
C381 C379 1.419 . S
C381 C382 1.362 . S
C382 H374 0.930 1_655 S
C382 C381 1.362 . S
C382 C385 1.409 . S
C383 H375 0.930 1_655 S
C383 C384 1.355 . S
C383 C385 1.415 . S
C384 C383 1.355 . S
C384 C386 1.419 . S
C385 C380 1.425 . S
C385 C382 1.409 . S
C385 C383 1.415 . S
C386 H376 0.930 . S
C386 C384 1.419 . S
C386 C387 1.362 . S
C387 H377 0.930 . S
C387 C380 1.409 . S
C387 C386 1.362 . S
H388 C394 0.930 . S
H389 C397 0.930 . S
H390 C398 0.930 . S
H391 C399 0.930 . S
H392 C402 0.930 . S
H393 C403 0.930 . S
C394 H388 0.930 . S
C394 C395 1.355 . S
C394 C396 1.415 . S
C395 C394 1.355 . S
C395 C397 1.419 . S
C396 C394 1.415 . S
C396 C401 1.425 . S
C396 C403 1.409 . S
C397 H389 0.930 . S
C397 C395 1.419 . S
C397 C398 1.362 . S
C398 H390 0.930 . S
C398 C397 1.362 . S
C398 C401 1.409 . S
C399 H391 0.930 . S
C399 C400 1.355 . S
C399 C401 1.415 . S
C400 C399 1.355 . S
C400 C402 1.419 . S
C401 C396 1.425 . S
C401 C398 1.409 . S
C401 C399 1.415 . S
C402 H392 0.930 . S
C402 C400 1.419 . S
C402 C403 1.362 . S
C403 H393 0.930 . S
C403 C396 1.409 . S
C403 C402 1.362 . S
H404 C410 0.930 . S
H405 C413 0.930 . S
H406 C414 0.930 . S
H407 C415 0.930 . S
H408 C418 0.930 . S
H409 C419 0.930 . S
C410 H404 0.930 . S
C410 C411 1.355 . S
C410 C412 1.415 . S
C411 C410 1.355 . S
C411 C413 1.419 . S
C412 C410 1.415 . S
C412 C417 1.425 . S
C412 C419 1.409 . S
C413 H405 0.930 . S
C413 C411 1.419 . S
C413 C414 1.362 . S
C414 H406 0.930 . S
C414 C413 1.362 . S
C414 C417 1.409 . S
C415 H407 0.930 . S
C415 C416 1.355 . S
C415 C417 1.415 . S
C416 C415 1.355 . S
C416 C418 1.419 . S
C417 C412 1.425 . S
C417 C414 1.409 . S
C417 C415 1.415 . S
C418 H408 0.930 . S
C418 C416 1.419 . S
C418 C419 1.362 . S
C419 H409 0.930 . S
C419 C412 1.409 . S
C419 C418 1.362 . S
H420 C426 0.930 . S
H421 C429 0.930 . S
H422 C430 0.930 . S
H423 C431 0.930 . S
H424 C434 0.930 . S
H425 C435 0.930 . S
C426 H420 0.930 . S
C426 C427 1.355 . S
C426 C428 1.415 . S
C427 C426 1.355 . S
C427 C429 1.419 . S
C428 C426 1.415 . S
C428 C433 1.425 . S
C428 C435 1.409 . S
C429 H421 0.930 . S
C429 C427 1.419 . S
C429 C430 1.362 . S
C430 H422 0.930 . S
C430 C429 1.362 . S
C430 C433 1.409 . S
C431 H423 0.930 . S
C431 C432 1.355 . S
C431 C433 1.415 . S
C432 C431 1.355 . S
C432 C434 1.419 . S
C433 C428 1.425 . S
C433 C430 1.409 . S
C433 C431 1.415 . S
C434 H424 0.930 . S
C434 C432 1.419 . S
C434 C435 1.362 . S
C435 H425 0.930 . S
C435 C428 1.409 . S
C435 C434 1.362 . S
H436 C442 0.930 . S
H437 C445 0.930 . S
H438 C446 0.930 . S
H439 C447 0.930 . S
H440 C450 0.930 1_554 S
H441 C451 0.930 1_554 S
C442 H436 0.930 . S
C442 C443 1.355 . S
C442 C444 1.415 . S
C443 C442 1.355 . S
C443 C445 1.419 . S
C444 C442 1.415 . S
C444 C449 1.425 . S
C444 C451 1.409 . S
C445 H437 0.930 . S
C445 C443 1.419 . S
C445 C446 1.362 . S
C446 H438 0.930 . S
C446 C445 1.362 . S
C446 C449 1.409 . S
C447 H439 0.930 . S
C447 C448 1.355 . S
C447 C449 1.415 . S
C448 C447 1.355 . S
C448 C450 1.419 . S
C449 C444 1.425 . S
C449 C446 1.409 . S
C449 C447 1.415 . S
C450 H440 0.930 1_556 S
C450 C448 1.419 . S
C450 C451 1.362 . S
C451 H441 0.930 1_556 S
C451 C444 1.409 . S
C451 C450 1.362 . S
H452 C458 0.930 . S
H453 C461 0.930 . S
H454 C462 0.930 1_565 S
H455 C463 0.930 . S
H456 C466 0.930 . S
H457 C467 0.930 . S
C458 H452 0.930 . S
C458 C459 1.355 . S
C458 C460 1.415 . S
C459 C458 1.355 . S
C459 C461 1.419 . S
C460 C458 1.415 . S
C460 C465 1.425 . S
C460 C467 1.409 . S
C461 H453 0.930 . S
C461 C459 1.419 . S
C461 C462 1.362 . S
C462 H454 0.930 1_545 S
C462 C461 1.362 . S
C462 C465 1.409 . S
C463 H455 0.930 . S
C463 C464 1.355 . S
C463 C465 1.415 . S
C464 C463 1.355 . S
C464 C466 1.419 . S
C465 C460 1.425 . S
C465 C462 1.409 . S
C465 C463 1.415 . S
C466 H456 0.930 . S
C466 C464 1.419 . S
C466 C467 1.362 . S
C467 H457 0.930 . S
C467 C460 1.409 . S
C467 C466 1.362 . S
H468 C474 0.930 . S
H469 C477 0.930 . S
H470 C478 0.930 . S
H471 C479 0.930 . S
H472 C482 0.930 . S
H473 C483 0.930 . S
C474 H468 0.930 . S
C474 C475 1.355 . S
C474 C476 1.415 . S
C475 C474 1.355 . S
C475 C477 1.419 . S
C476 C474 1.415 . S
C476 C481 1.425 . S
C476 C483 1.409 . S
C477 H469 0.930 . S
C477 C475 1.419 . S
C477 C478 1.362 . S
C478 H470 0.930 . S
C478 C477 1.362 . S
C478 C481 1.409 . S
C479 H471 0.930 . S
C479 C480 1.355 . S
C479 C481 1.415 . S
C480 C479 1.355 . S
C480 C482 1.419 . S
C481 C476 1.425 . S
C481 C478 1.409 . S
C481 C479 1.415 . S
C482 H472 0.930 . S
C482 C480 1.419 . S
C482 C483 1.362 . S
C483 H473 0.930 . S
C483 C476 1.409 . S
C483 C482 1.362 . S
H484 C490 0.930 . S
H485 C493 0.930 . S
H486 C494 0.930 . S
H487 C495 0.930 . S
H488 C498 0.930 . S
H489 C499 0.930 . S
C490 H484 0.930 . S
C490 C491 1.355 . S
C490 C492 1.415 . S
C491 C490 1.355 . S
C491 C493 1.419 . S
C492 C490 1.415 . S
C492 C497 1.425 . S
C492 C499 1.409 . S
C493 H485 0.930 . S
C493 C491 1.419 . S
C493 C494 1.362 . S
C494 H486 0.930 . S
C494 C493 1.362 . S
C494 C497 1.409 . S
C495 H487 0.930 . S
C495 C496 1.355 . S
C495 C497 1.415 . S
C496 C495 1.355 . S
C496 C498 1.419 . S
C497 C492 1.425 . S
C497 C494 1.409 . S
C497 C495 1.415 . S
C498 H488 0.930 . S
C498 C496 1.419 . S
C498 C499 1.362 . S
C499 H489 0.930 . S
C499 C492 1.409 . S
C499 C498 1.362 . S
H500 C506 0.930 . S
H501 C509 0.930 . S
H502 C510 0.930 1_554 S
H503 C511 0.930 1_554 S
H504 C514 0.930 . S
H505 C515 0.930 1_455 S
C506 H500 0.930 . S
C506 C507 1.355 . S
C506 C508 1.415 . S
C507 C506 1.355 . S
C507 C509 1.419 . S
C508 C506 1.415 . S
C508 C513 1.425 . S
C508 C515 1.409 . S
C509 H501 0.930 . S
C509 C507 1.419 . S
C509 C510 1.362 . S
C510 H502 0.930 1_556 S
C510 C509 1.362 . S
C510 C513 1.409 . S
C511 H503 0.930 1_556 S
C511 C512 1.355 . S
C511 C513 1.415 . S
C512 C511 1.355 . S
C512 C514 1.419 1_655 S
C513 C508 1.425 . S
C513 C510 1.409 . S
C513 C511 1.415 . S
C514 H504 0.930 . S
C514 C512 1.419 1_455 S
C514 C515 1.362 1_455 S
C515 H505 0.930 1_655 S
C515 C508 1.409 . S
C515 C514 1.362 1_655 S
H516 C522 0.930 . S
H517 C525 0.930 . S
H518 C526 0.930 . S
H519 C527 0.930 . S
H520 C530 0.930 . S
H521 C531 0.930 . S
C522 H516 0.930 . S
C522 C523 1.355 . S
C522 C524 1.415 . S
C523 C522 1.355 . S
C523 C525 1.419 . S
C524 C522 1.415 . S
C524 C529 1.425 . S
C524 C531 1.409 . S
C525 H517 0.930 . S
C525 C523 1.419 . S
C525 C526 1.362 . S
C526 H518 0.930 . S
C526 C525 1.362 . S
C526 C529 1.409 . S
C527 H519 0.930 . S
C527 C528 1.355 . S
C527 C529 1.415 . S
C528 C527 1.355 . S
C528 C530 1.419 . S
C529 C524 1.425 . S
C529 C526 1.409 . S
C529 C527 1.415 . S
C530 H520 0.930 . S
C530 C528 1.419 . S
C530 C531 1.362 . S
C531 H521 0.930 . S
C531 C524 1.409 . S
C531 C530 1.362 . S
H532 C538 0.930 . S
H533 C541 0.930 . S
H534 C542 0.930 . S
H535 C543 0.930 . S
H536 C546 0.930 . S
H537 C547 0.930 . S
C538 H532 0.930 . S
C538 C539 1.355 . S
C538 C540 1.415 . S
C539 C538 1.355 . S
C539 C541 1.419 . S
C540 C538 1.415 . S
C540 C545 1.425 . S
C540 C547 1.409 . S
C541 H533 0.930 . S
C541 C539 1.419 . S
C541 C542 1.362 . S
C542 H534 0.930 . S
C542 C541 1.362 . S
C542 C545 1.409 . S
C543 H535 0.930 . S
C543 C544 1.355 . S
C543 C545 1.415 . S
C544 C543 1.355 . S
C544 C546 1.419 . S
C545 C540 1.425 . S
C545 C542 1.409 . S
C545 C543 1.415 . S
C546 H536 0.930 . S
C546 C544 1.419 . S
C546 C547 1.362 . S
C547 H537 0.930 . S
C547 C540 1.409 . S
C547 C546 1.362 . S
H548 C554 0.930 . S
H549 C557 0.930 . S
H550 C558 0.930 . S
H551 C559 0.930 . S
H552 C562 0.930 . S
H553 C563 0.930 . S
C554 H548 0.930 . S
C554 C555 1.355 . S
C554 C556 1.415 . S
C555 C554 1.355 . S
C555 C557 1.419 . S
C556 C554 1.415 . S
C556 C561 1.425 . S
C556 C563 1.409 . S
C557 H549 0.930 . S
C557 C555 1.419 . S
C557 C558 1.362 . S
C558 H550 0.930 . S
C558 C557 1.362 . S
C558 C561 1.409 . S
C559 H551 0.930 . S
C559 C560 1.355 . S
C559 C561 1.415 . S
C560 C559 1.355 . S
C560 C562 1.419 . S
C561 C556 1.425 . S
C561 C558 1.409 . S
C561 C559 1.415 . S
C562 H552 0.930 . S
C562 C560 1.419 . S
C562 C563 1.362 . S
C563 H553 0.930 . S
C563 C556 1.409 . S
C563 C562 1.362 . S
C187 C6 1.713 . S
C192 C112 1.633 . S
C203 C18 1.701 . S
C208 C134 1.652 . S
C224 C153 1.206 . S
C219 C28 1.475 . S
C235 C40 1.355 . S
C240 C174 1.095 . S
C256 C131 1.892 . S
C251 C9 1.952 . S
C272 C109 1.561 . S
C267 C16 1.637 . S
C288 C176 1.376 . S
C283 C30 1.400 . S
C304 C155 1.114 . S
C299 C42 1.213 . S
C315 C4 1.637 . S
C320 C173 1.553 . S
C336 C132 1.425 . S
C331 C33 1.649 . S
C347 C45 1.454 . S
C352 C114 1.222 . S
C363 C21 1.702 . S
C368 C152 1.657 . S
C384 C110 1.680 . S
C379 C57 1.792 . S
C395 C66 1.593 . S
C400 C130 1.561 . S
C411 C76 1.554 . S
C416 C156 1.278 . S
C427 C88 1.240 . S
C432 C177 1.067 . S
C443 C54 1.869 . S
C448 C133 1.833 . S
C464 C113 1.718 . S
C459 C64 1.746 . S
C480 C172 1.164 . S
C475 C78 1.252 . S
C496 C151 1.292 . S
C491 C93 1.281 . S
C507 C52 1.468 . S
C512 C175 1.400 . S
C528 C135 1.383 . S
C523 C81 1.590 . S
C544 C111 1.093 . S
C539 C90 1.313 . S
C555 C69 1.657 . S
C560 C154 1.612 . S
