# Generated by pormake.
# Topology pyr, (3,6)-cn, num edge types: 1
# Building blocks:
#     Node 0, Type 0, BuildingBlock: BETDAH_clean_linker_0, # of connection points: 3
#     Node 1, Type 0, BuildingBlock: BETDAH_clean_linker_0, # of connection points: 3
#     Node 2, Type 0, BuildingBlock: BETDAH_clean_linker_0, # of connection points: 3
#     Node 3, Type 0, BuildingBlock: BETDAH_clean_linker_0, # of connection points: 3
#     Node 4, Type 0, BuildingBlock: BETDAH_clean_linker_0, # of connection points: 3
#     Node 5, Type 0, BuildingBlock: BETDAH_clean_linker_0, # of connection points: 3
#     Node 6, Type 0, BuildingBlock: BETDAH_clean_linker_0, # of connection points: 3
#     Node 7, Type 0, BuildingBlock: BETDAH_clean_linker_0, # of connection points: 3
#     Node 8, Type 1, BuildingBlock: BETGAK_clean_sbu_0, # of connection points: 6
#     Node 9, Type 1, BuildingBlock: BETGAK_clean_sbu_0, # of connection points: 6
#     Node 10, Type 1, BuildingBlock: BETGAK_clean_sbu_0, # of connection points: 6
#     Node 11, Type 1, BuildingBlock: BETGAK_clean_sbu_0, # of connection points: 6
#     Edge 12, Type (0, 1), BuildingBlock: MIFKUJ_clean_linker_0, # of connection points: 2
#     Edge 13, Type (0, 1), BuildingBlock: MIFKUJ_clean_linker_0, # of connection points: 2
#     Edge 14, Type (0, 1), BuildingBlock: MIFKUJ_clean_linker_0, # of connection points: 2
#     Edge 15, Type (0, 1), BuildingBlock: MIFKUJ_clean_linker_0, # of connection points: 2
#     Edge 16, Type (0, 1), BuildingBlock: MIFKUJ_clean_linker_0, # of connection points: 2
#     Edge 17, Type (0, 1), BuildingBlock: MIFKUJ_clean_linker_0, # of connection points: 2
#     Edge 18, Type (0, 1), BuildingBlock: MIFKUJ_clean_linker_0, # of connection points: 2
#     Edge 19, Type (0, 1), BuildingBlock: MIFKUJ_clean_linker_0, # of connection points: 2
#     Edge 20, Type (0, 1), BuildingBlock: MIFKUJ_clean_linker_0, # of connection points: 2
#     Edge 21, Type (0, 1), BuildingBlock: MIFKUJ_clean_linker_0, # of connection points: 2
#     Edge 22, Type (0, 1), BuildingBlock: MIFKUJ_clean_linker_0, # of connection points: 2
#     Edge 23, Type (0, 1), BuildingBlock: MIFKUJ_clean_linker_0, # of connection points: 2
#     Edge 24, Type (0, 1), BuildingBlock: MIFKUJ_clean_linker_0, # of connection points: 2
#     Edge 25, Type (0, 1), BuildingBlock: MIFKUJ_clean_linker_0, # of connection points: 2
#     Edge 26, Type (0, 1), BuildingBlock: MIFKUJ_clean_linker_0, # of connection points: 2
#     Edge 27, Type (0, 1), BuildingBlock: MIFKUJ_clean_linker_0, # of connection points: 2
#     Edge 28, Type (0, 1), BuildingBlock: MIFKUJ_clean_linker_0, # of connection points: 2
#     Edge 29, Type (0, 1), BuildingBlock: MIFKUJ_clean_linker_0, # of connection points: 2
#     Edge 30, Type (0, 1), BuildingBlock: MIFKUJ_clean_linker_0, # of connection points: 2
#     Edge 31, Type (0, 1), BuildingBlock: MIFKUJ_clean_linker_0, # of connection points: 2
#     Edge 32, Type (0, 1), BuildingBlock: MIFKUJ_clean_linker_0, # of connection points: 2
#     Edge 33, Type (0, 1), BuildingBlock: MIFKUJ_clean_linker_0, # of connection points: 2
#     Edge 34, Type (0, 1), BuildingBlock: MIFKUJ_clean_linker_0, # of connection points: 2
#     Edge 35, Type (0, 1), BuildingBlock: MIFKUJ_clean_linker_0, # of connection points: 2
# Relax obj value: 0.113
# Max RMSD: 0.191
# Mean RMSD: 0.140
data_MOF--net-pyr--node1-BETGAK_clean_sbu_0--node2-BETDAH_clean_linker_0--edge1-MIFKUJ_clean_linker_0
_symmetry_space_group_name_H-M    P1
_symmetry_Int_Tables_number       1
_symmetry_cell_setting            triclinic
loop_
_symmetry_equiv_pos_as_xyz
'x, y, z'
_cell_length_a     48.20421
_cell_length_b     52.68889
_cell_length_c     49.417878
_cell_angle_alpha  92.289372
_cell_angle_beta   89.79374
_cell_angle_gamma 104.64014
loop_
_atom_site_label
_atom_site_type_symbol
_atom_site_fract_x
_atom_site_fract_y
_atom_site_fract_z
_atom_type_partial_charge
H0 H 0.33025 0.23912 0.24344 0.0
H1 H 0.37195 0.29553 0.18613 0.0
H2 H 0.30736 0.31257 0.23898 0.0
C3 C 0.33311 0.25809 0.23456 0.0
C4 C 0.31664 0.27513 0.24386 0.0
C5 C 0.35309 0.26523 0.21375 0.0
C6 C 0.35676 0.28986 0.20239 0.0
C7 C 0.33991 0.30676 0.21089 0.0
C8 C 0.3199 0.29935 0.23174 0.0
N9 N 0.34341 0.33092 0.19792 0.0
C10 C 0.3228 0.34521 0.19844 0.0
H11 H 0.36669 0.88781 0.66942 0.0
H12 H 0.31677 0.94191 0.65046 0.0
H13 H 0.34716 0.89869 0.58644 0.0
C14 C 0.35633 0.89705 0.65463 0.0
C15 C 0.35828 0.89057 0.62697 0.0
C16 C 0.34162 0.91575 0.66328 0.0
C17 C 0.32827 0.92757 0.64392 0.0
C18 C 0.3302 0.92122 0.61617 0.0
C19 C 0.34538 0.90303 0.60792 0.0
N20 N 0.31745 0.933 0.59599 0.0
C21 C 0.29686 0.94658 0.60166 0.0
H22 H 0.70284 0.35918 0.92138 0.0
H23 H 0.69964 0.41364 0.85883 0.0
H24 H 0.63422 0.34115 0.86287 0.0
C25 C 0.69238 0.36437 0.90385 0.0
C26 C 0.66686 0.34681 0.89398 0.0
C27 C 0.70468 0.3886 0.89165 0.0
C28 C 0.69074 0.39527 0.86845 0.0
C29 C 0.66491 0.37819 0.85817 0.0
C30 C 0.6536 0.35428 0.87115 0.0
N31 N 0.64893 0.38318 0.83512 0.0
C32 C 0.65236 0.40429 0.81754 0.0
H33 H 0.8424 0.73489 0.42501 0.0
H34 H 0.89693 0.75468 0.35574 0.0
H35 H 0.83357 0.68108 0.35563 0.0
C36 C 0.84954 0.72983 0.40523 0.0
C37 C 0.8351 0.70565 0.39228 0.0
C38 C 0.87217 0.74797 0.39265 0.0
C39 C 0.88084 0.74075 0.36666 0.0
C40 C 0.86783 0.71636 0.35348 0.0
C41 C 0.84473 0.69908 0.36635 0.0
N42 N 0.87313 0.71306 0.32513 0.0
C43 C 0.88551 0.69454 0.31176 0.0
H44 H 0.79036 0.8177 0.85425 0.0
H45 H 0.72184 0.78256 0.90755 0.0
H46 H 0.7156 0.84785 0.86042 0.0
C47 C 0.76966 0.81712 0.86321 0.0
C48 C 0.75444 0.83506 0.85525 0.0
C49 C 0.75832 0.79818 0.88217 0.0
C50 C 0.73088 0.79686 0.89267 0.0
C51 C 0.71555 0.81489 0.88524 0.0
C52 C 0.72735 0.83393 0.86637 0.0
N53 N 0.68856 0.81366 0.89741 0.0
C54 C 0.67747 0.83545 0.90114 0.0
H55 H 0.75796 0.17969 0.41061 0.0
H56 H 0.7979 0.2186 0.48398 0.0
H57 H 0.72143 0.23579 0.45366 0.0
C58 C 0.75852 0.19346 0.42764 0.0
C59 C 0.73716 0.20719 0.43005 0.0
C60 C 0.78073 0.19759 0.44678 0.0
C61 C 0.78138 0.21569 0.46851 0.0
C62 C 0.76014 0.22933 0.47137 0.0
C63 C 0.73804 0.2253 0.45183 0.0
N64 N 0.76146 0.2464 0.4945 0.0
C65 C 0.73948 0.2577 0.50212 0.0
H66 H 0.35082 0.75891 0.18156 0.0
H67 H 0.35562 0.70016 0.23915 0.0
H68 H 0.42092 0.77285 0.23797 0.0
C69 C 0.36165 0.75229 0.19793 0.0
C70 C 0.38759 0.7691 0.20786 0.0
C71 C 0.34959 0.72713 0.20847 0.0
C72 C 0.36402 0.71919 0.23069 0.0
C73 C 0.38995 0.73578 0.24141 0.0
C74 C 0.40123 0.7603 0.2296 0.0
N75 N 0.40652 0.72932 0.26326 0.0
C76 C 0.40199 0.70842 0.28122 0.0
H77 H 0.21458 0.37711 0.67305 0.0
H78 H 0.2063 0.43459 0.73536 0.0
H79 H 0.14112 0.36202 0.72535 0.0
C80 C 0.20251 0.38307 0.68961 0.0
C81 C 0.17649 0.36595 0.69753 0.0
C82 C 0.21357 0.40779 0.70299 0.0
C83 C 0.19816 0.41562 0.72509 0.0
C84 C 0.17186 0.39886 0.73329 0.0
C85 C 0.16154 0.37441 0.71929 0.0
N86 N 0.15391 0.40522 0.75449 0.0
C87 C 0.15811 0.42591 0.77419 0.0
La88 La 0.03304 0.06761 0.51412 0.0
La89 La 0.01406 0.04949 0.56989 0.0
C90 C 0.04159 0.09168 0.47068 0.0
C91 C 0.06462 0.1125 0.45927 0.0
C92 C 0.09238 0.10905 0.45563 0.0
C93 C 0.11336 0.12793 0.44291 0.0
C94 C 0.10724 0.15088 0.43374 0.0
C95 C 0.07968 0.15468 0.43816 0.0
C96 C 0.05855 0.13561 0.45071 0.0
C97 C 0.06838 0.04634 0.53994 0.0
C98 C 0.0504 0.10804 0.56589 0.0
C99 C 1.00523 0.02628 0.61384 0.0
C100 C 0.98137 1.00751 0.62651 0.0
C101 C 0.95288 1.0087 0.62267 0.0
C102 C 0.93085 0.99325 0.63775 0.0
C103 C 0.93687 0.97616 0.65677 0.0
C104 C 0.96525 0.97395 0.6593 0.0
C105 C 0.98731 0.9896 0.64439 0.0
C106 C 0.97818 0.06987 0.54337 0.0
C107 C 0.99787 1.00877 0.51823 0.0
O108 O 0.04757 0.06915 0.47421 0.0
O109 O 0.02712 0.0986 0.49096 0.0
O110 O 0.06609 0.04577 0.51385 0.0
O111 O 0.05402 0.06097 0.55016 0.0
O112 O 0.0468 0.10482 0.53916 0.0
O113 O 0.04305 0.08761 0.58162 0.0
O114 O 1.00125 0.04957 0.61027 0.0
O115 O 0.01743 0.01757 0.59296 0.0
O116 O 0.98004 0.07054 0.56948 0.0
O117 O 0.99321 0.05564 0.53378 0.0
O118 O 1.00163 1.01214 0.54496 0.0
O119 O 1.0046 0.02918 0.50239 0.0
H120 H 0.09782 0.09147 0.46202 0.0
H121 H 0.13412 0.12403 0.43947 0.0
H122 H 0.07431 0.17226 0.43171 0.0
H123 H 0.03732 0.13873 0.45334 0.0
H124 H 0.94778 0.02231 0.60879 0.0
H125 H 0.90934 0.99564 0.63538 0.0
H126 H 0.97057 0.96056 0.67328 0.0
H127 H 1.00914 0.98829 0.64746 0.0
La128 La 0.5537 0.06749 0.06923 0.0
La129 La 0.50151 0.05168 0.04003 0.0
C130 C 0.59696 0.09307 0.09607 0.0
C131 C 0.60053 0.10618 0.12305 0.0
C132 C 0.57823 0.10061 0.14195 0.0
C133 C 0.58206 0.11249 0.16791 0.0
C134 C 0.60821 0.13023 0.1753 0.0
C135 C 0.6302 0.13628 0.15602 0.0
C136 C 0.62637 0.1243 0.13008 0.0
C137 C 0.52233 0.02003 0.08296 0.0
C138 C 0.4998 0.08517 0.09149 0.0
C139 C 0.45631 0.02721 0.01521 0.0
C140 C 0.44604 0.01864 0.98742 0.0
C141 C 0.42707 0.03097 0.97501 0.0
C142 C 0.416 0.02258 0.94922 0.0
C143 C 0.42344 1.00147 0.93541 0.0
C144 C 0.44233 0.989 0.94783 0.0
C145 C 0.45358 0.99752 0.97361 0.0
C146 C 0.53315 0.09895 0.02564 0.0
C147 C 0.55585 0.03365 0.01783 0.0
O148 O 0.58774 0.06755 0.0956 0.0
O149 O 0.58363 0.10342 0.0783 0.0
O150 O 0.5499 0.02694 0.0806 0.0
O151 O 0.51295 0.03997 0.07865 0.0
O152 O 0.5279 0.09124 0.08951 0.0
O153 O 0.48427 0.0654 0.07676 0.0
O154 O 0.4631 0.05246 0.02069 0.0
O155 O 0.47437 1.01575 0.02614 0.0
O156 O 0.50557 0.09196 0.02749 0.0
O157 O 0.54232 0.07902 0.03037 0.0
O158 O 0.52759 0.02885 0.01822 0.0
O159 O 0.57166 0.05207 0.03403 0.0
H160 H 0.55801 0.0868 0.13676 0.0
H161 H 0.56468 0.10764 0.18227 0.0
H162 H 0.65069 0.14962 0.16125 0.0
H163 H 0.64373 0.12888 0.11565 0.0
H164 H 0.42055 0.04701 0.98538 0.0
H165 H 0.40119 0.03232 0.94029 0.0
H166 H 0.4486 0.97281 0.93752 0.0
H167 H 0.46799 0.98747 0.98272 0.0
La168 La 0.5234 0.53199 0.53104 0.0
La169 La 0.52806 0.57625 0.56607 0.0
C170 C 0.53321 0.49427 0.50304 0.0
C171 C 0.54224 0.47051 0.50903 0.0
C172 C 0.53056 0.4549 0.53075 0.0
C173 C 0.54105 0.43342 0.53711 0.0
C174 C 0.56366 0.4277 0.52215 0.0
C175 C 0.57505 0.44316 0.50031 0.0
C176 C 0.56432 0.46433 0.49373 0.0
C177 C 0.47591 0.52957 0.55975 0.0
C178 C 0.54949 0.53121 0.59137 0.0
C179 C 0.51847 0.61421 0.59377 0.0
C180 C 0.51041 0.63856 0.58758 0.0
C181 C 0.53106 0.66274 0.58917 0.0
C182 C 0.52347 0.68595 0.58398 0.0
C183 C 0.495 0.68544 0.57735 0.0
C184 C 0.47445 0.66117 0.57544 0.0
C185 C 0.48206 0.63799 0.58048 0.0
C186 C 0.57571 0.57876 0.53777 0.0
C187 C 0.50203 0.57721 0.5058 0.0
O188 O 0.50762 0.49535 0.51091 0.0
O189 O 0.55239 0.51633 0.50829 0.0
O190 O 0.47648 0.52302 0.53426 0.0
O191 O 0.5015 0.5371 0.56828 0.0
O192 O 0.54722 0.52123 0.56605 0.0
O193 O 0.54 0.55223 0.59705 0.0
O194 O 0.54409 0.61278 0.58637 0.0
O195 O 0.4992 0.59214 0.58865 0.0
O196 O 0.57482 0.58543 0.56318 0.0
O197 O 0.5502 0.57107 0.52893 0.0
O198 O 0.50439 0.58716 0.53111 0.0
O199 O 0.51127 0.55604 0.5001 0.0
H200 H 0.51373 0.45954 0.54308 0.0
H201 H 0.53211 0.42176 0.5541 0.0
H202 H 0.59236 0.43889 0.48839 0.0
H203 H 0.57366 0.47624 0.47701 0.0
H204 H 0.55307 0.66374 0.59466 0.0
H205 H 0.53983 0.70432 0.5854 0.0
H206 H 0.4522 0.66012 0.57093 0.0
H207 H 0.46556 0.6197 0.5792 0.0
La208 La 0.03144 0.53072 0.05968 0.0
La209 La 0.02391 0.58508 0.03793 0.0
C210 C 0.04971 0.49026 0.06232 0.0
C211 C 0.0677 0.47926 0.08004 0.0
C212 C 0.06911 0.48442 0.10818 0.0
C213 C 0.08838 0.4753 0.12399 0.0
C214 C 0.10675 0.46137 0.11175 0.0
C215 C 0.10482 0.45592 0.08366 0.0
C216 C 0.08543 0.46473 0.068 0.0
C217 C 1.00863 0.55801 0.0972 0.0
C218 C 0.0795 0.58466 0.07408 0.0
C219 C 1.00481 0.62509 0.03551 0.0
C220 C 0.98493 0.63461 0.0181 0.0
C221 C 0.99461 0.6488 0.99493 0.0
C222 C 0.97564 0.65851 0.97939 0.0
C223 C 0.94664 0.65426 0.98675 0.0
C224 C 0.93702 0.63998 1.00984 0.0
C225 C 0.95593 0.63039 0.02538 0.0
C226 C 0.04578 0.5578 0.99971 0.0
C227 C 0.97594 0.53118 0.02353 0.0
O228 O 0.0244 0.49166 0.07128 0.0
O229 O 0.06331 0.51147 0.05019 0.0
O230 O 0.01243 0.5347 0.10037 0.0
O231 O 0.01764 0.56377 0.07364 0.0
O232 O 0.07128 0.55852 0.07469 0.0
O233 O 0.06409 0.59875 0.06183 0.0
O234 O 0.02972 0.62378 0.02539 0.0
O235 O 0.99305 0.60467 0.04972 0.0
O236 O 0.04089 0.58071 0.99662 0.0
O237 O 0.03825 0.55209 0.02375 0.0
O238 O 0.98344 0.55737 0.02435 0.0
O239 O 0.99224 0.5171 0.03439 0.0
H240 H 0.05579 0.49588 0.11779 0.0
H241 H 0.08958 0.47982 0.1456 0.0
H242 H 0.11848 0.44495 0.07378 0.0
H243 H 0.0847 0.46068 0.04629 0.0
H244 H 0.01686 0.6526 0.9889 0.0
H245 H 0.98366 0.66936 0.96162 0.0
H246 H 0.91498 0.63681 0.01639 0.0
H247 H 0.94784 0.61992 0.04336 0.0
H248 H 0.32562 0.25441 0.29168 0.0
H249 H 0.29052 0.23826 0.32681 0.0
H250 H 0.22561 0.26173 0.28122 0.0
H251 H 0.26089 0.27833 0.24613 0.0
H252 H 0.22005 0.27142 0.33458 0.0
H253 H 0.22991 0.19856 0.27797 0.0
H254 H 0.25582 0.16985 0.25377 0.0
H255 H 0.28781 0.15097 0.32936 0.0
H256 H 0.26243 0.17991 0.35401 0.0
H257 H 0.09878 0.17826 0.38969 0.0
H258 H 0.13526 0.20518 0.3612 0.0
H259 H 0.2017 0.19225 0.41301 0.0
H260 H 0.16544 0.16624 0.44235 0.0
H261 H 0.20625 0.17813 0.35717 0.0
H262 H 0.19314 0.25053 0.4135 0.0
H263 H 0.16541 0.27858 0.43611 0.0
H264 H 0.13654 0.29684 0.35888 0.0
H265 H 0.16377 0.26856 0.33579 0.0
C266 C 0.30389 0.25619 0.28921 0.0
C267 C 0.29585 0.26729 0.26604 0.0
C268 C 0.28387 0.24701 0.30928 0.0
C269 C 0.25532 0.24835 0.30638 0.0
C270 C 0.24751 0.26045 0.28382 0.0
C271 C 0.26765 0.26989 0.26381 0.0
C272 C 0.2334 0.23586 0.32618 0.0
C273 C 0.2168 0.25095 0.33932 0.0
C274 C 0.22938 0.20921 0.33255 0.0
C275 C 0.2445 0.19161 0.31782 0.0
C276 C 0.24264 0.18844 0.28942 0.0
C277 C 0.25721 0.17211 0.27562 0.0
C278 C 0.27351 0.15865 0.29001 0.0
C279 C 0.27521 0.16144 0.31824 0.0
C280 C 0.26072 0.17779 0.33214 0.0
C281 C 0.12109 0.18173 0.39555 0.0
C282 C 0.12912 0.16982 0.41824 0.0
C283 C 0.14191 0.19703 0.37913 0.0
C284 C 0.17111 0.20057 0.38499 0.0
C285 C 0.17923 0.18959 0.40811 0.0
C286 C 0.15845 0.17458 0.42473 0.0
C287 C 0.19315 0.21375 0.36576 0.0
C288 C 0.20964 0.19865 0.35255 0.0
C289 C 0.1967 0.24022 0.3591 0.0
C290 C 0.18026 0.2572 0.37293 0.0
C291 C 0.18065 0.26031 0.40134 0.0
C292 C 0.16507 0.2763 0.41424 0.0
C293 C 0.14916 0.28943 0.39895 0.0
C294 C 0.14884 0.28663 0.37071 0.0
C295 C 0.16437 0.27064 0.3577 0.0
H296 H 0.13712 0.30181 0.40898 0.0
H297 H 0.28477 0.14601 0.27929 0.0
H298 H 0.35071 0.96569 0.68477 0.0
H299 H 0.35817 0.98005 0.73235 0.0
H300 H 0.34229 0.89946 0.755 0.0
H301 H 0.33392 0.88482 0.70738 0.0
H302 H 0.32035 0.93058 0.79239 0.0
H303 H 0.40862 0.93198 0.74615 0.0
H304 H 0.44379 0.94364 0.70947 0.0
H305 H 0.45364 0.02556 0.72926 0.0
H306 H 0.41814 1.01436 0.76581 0.0
H307 H 0.40084 0.95109 0.91624 0.0
H308 H 0.38144 0.9366 0.87086 0.0
H309 H 0.39925 0.01724 0.84789 0.0
H310 H 0.41903 0.03182 0.89303 0.0
H311 H 0.4186 0.98613 0.81093 0.0
H312 H 0.33179 0.98425 0.8593 0.0
H313 H 0.29657 0.97198 0.89583 0.0
H314 H 0.28431 0.89046 0.87267 0.0
H315 H 0.3198 0.90223 0.83621 0.0
C316 C 0.34801 0.95097 0.69991 0.0
C317 C 0.34206 0.92413 0.69231 0.0
C318 C 0.35245 0.95922 0.72707 0.0
C319 C 0.35123 0.94081 0.74707 0.0
C320 C 0.34345 0.91395 0.73981 0.0
C321 C 0.33896 0.90565 0.71261 0.0
C322 C 0.3609 0.94971 0.77501 0.0
C323 C 0.34189 0.94253 0.79656 0.0
C324 C 0.38891 0.96554 0.78026 0.0
C325 C 0.41052 0.97233 0.75853 0.0
C326 C 0.41813 0.95248 0.74255 0.0
C327 C 0.43814 0.959 0.7218 0.0
C328 C 0.45089 0.98533 0.71699 0.0
C329 C 0.44371 1.00518 0.73298 0.0
C330 C 0.42366 0.99875 0.75373 0.0
C331 C 0.40068 0.96569 0.90146 0.0
C332 C 0.41146 0.99257 0.90811 0.0
C333 C 0.38935 0.95741 0.87568 0.0
C334 C 0.38868 0.97588 0.85616 0.0
C335 C 0.39946 1.00271 0.86275 0.0
C336 C 0.41063 1.011 0.88853 0.0
C337 C 0.37801 0.96724 0.82843 0.0
C338 C 0.39697 0.97434 0.80686 0.0
C339 C 0.35003 0.95126 0.82327 0.0
C340 C 0.32869 0.94411 0.84519 0.0
C341 C 0.32179 0.96369 0.86215 0.0
C342 C 0.30173 0.95683 0.88281 0.0
C343 C 0.28826 0.93046 0.88662 0.0
C344 C 0.29479 0.91089 0.86972 0.0
C345 C 0.31486 0.91764 0.84904 0.0
H346 H 0.27273 0.92519 0.90262 0.0
H347 H 0.46638 0.99034 0.70091 0.0
H348 H 0.66122 0.39685 0.76361 0.0
H349 H 0.64532 0.41826 0.72555 0.0
H350 H 0.61318 0.46857 0.78169 0.0
H351 H 0.62855 0.44652 0.81978 0.0
H352 H 0.57546 0.45484 0.74381 0.0
H353 H 0.67697 0.48961 0.73901 0.0
H354 H 0.72775 0.48851 0.73639 0.0
H355 H 0.71106 0.44333 0.66128 0.0
H356 H 0.66007 0.44389 0.66362 0.0
H357 H 0.55192 0.544 0.64616 0.0
H358 H 0.57048 0.52347 0.68315 0.0
H359 H 0.59306 0.46813 0.62615 0.0
H360 H 0.57441 0.48875 0.58879 0.0
H361 H 0.63564 0.48428 0.66382 0.0
H362 H 0.53389 0.45067 0.66871 0.0
H363 H 0.48375 0.45382 0.67092 0.0
H364 H 0.50161 0.49862 0.74616 0.0
H365 H 0.55201 0.49608 0.74421 0.0
C366 C 0.65138 0.41291 0.76789 0.0
C367 C 0.64694 0.4203 0.79497 0.0
C368 C 0.64216 0.42527 0.74593 0.0
C369 C 0.62815 0.44567 0.75011 0.0
C370 C 0.62388 0.45312 0.77733 0.0
C371 C 0.63304 0.44065 0.79931 0.0
C372 C 0.61724 0.45849 0.72638 0.0
C373 C 0.58896 0.46158 0.72661 0.0
C374 C 0.63405 0.467 0.70309 0.0
C375 C 0.66464 0.46656 0.70164 0.0
C376 C 0.68408 0.47927 0.72204 0.0
C377 C 0.71291 0.47878 0.72059 0.0
C378 C 0.72261 0.4658 0.69872 0.0
C379 C 0.70351 0.45334 0.67823 0.0
C380 C 0.67465 0.45376 0.67959 0.0
C381 C 0.56079 0.52745 0.64127 0.0
C382 C 0.56142 0.51823 0.61407 0.0
C383 C 0.5714 0.51552 0.66271 0.0
C384 C 0.58313 0.49378 0.65801 0.0
C385 C 0.58422 0.48474 0.63079 0.0
C386 C 0.57339 0.4966 0.60926 0.0
C387 C 0.59403 0.48067 0.6814 0.0
C388 C 0.62223 0.47751 0.68107 0.0
C389 C 0.57722 0.47223 0.70466 0.0
C390 C 0.54681 0.47338 0.70618 0.0
C391 C 0.52717 0.46133 0.68566 0.0
C392 C 0.4987 0.46299 0.68686 0.0
C393 C 0.48952 0.47647 0.70863 0.0
C394 C 0.50877 0.48822 0.7293 0.0
C395 C 0.53729 0.48665 0.72816 0.0
H396 H 0.46747 0.47776 0.70951 0.0
H397 H 0.74494 0.46545 0.69763 0.0
H398 H 0.90667 0.71267 0.26382 0.0
H399 H 0.92763 0.69035 0.22778 0.0
H400 H 0.91516 0.62198 0.27596 0.0
H401 H 0.89435 0.64469 0.31239 0.0
H402 H 0.96591 0.62976 0.25149 0.0
H403 H 0.87122 0.62508 0.21987 0.0
H404 H 0.82961 0.64169 0.20783 0.0
H405 H 0.87992 0.69018 0.14844 0.0
H406 H 0.92197 0.67413 0.1604 0.0
H407 H 0.98274 0.54027 0.14417 0.0
H408 H 0.96308 0.56388 0.17991 0.0
H409 H 0.98571 0.63417 0.13447 0.0
H410 H 1.00652 0.61066 0.09892 0.0
H411 H 0.93012 0.62574 0.15702 0.0
H412 H 0.02464 0.62947 0.18843 0.0
H413 H 0.06564 0.61187 0.2001 0.0
H414 H 0.01481 0.5641 0.25971 0.0
H415 H 0.97333 0.58112 0.24809 0.0
C416 C 0.90844 0.69288 0.26679 0.0
C417 C 0.89878 0.68051 0.29103 0.0
C418 C 0.92032 0.67997 0.24599 0.0
C419 C 0.92278 0.65408 0.24855 0.0
C420 C 0.91357 0.64184 0.27311 0.0
C421 C 0.90159 0.65482 0.29402 0.0
C422 C 0.93492 0.64006 0.22568 0.0
C423 C 0.95769 0.62862 0.23096 0.0
C424 C 0.92503 0.63884 0.19843 0.0
C425 C 0.89983 0.64861 0.19124 0.0
C426 C 0.87348 0.63945 0.2044 0.0
C427 C 0.8498 0.64874 0.19756 0.0
C428 C 0.85214 0.66703 0.17744 0.0
C429 C 0.87816 0.67604 0.16406 0.0
C430 C 0.90192 0.66684 0.17085 0.0
C431 C 0.98352 0.56076 0.1416 0.0
C432 C 0.99576 0.57326 0.1181 0.0
C433 C 0.97226 0.57433 0.16224 0.0
C434 C 0.97274 0.601 0.16024 0.0
C435 C 0.98471 0.61359 0.13665 0.0
C436 C 0.99639 0.60001 0.11604 0.0
C437 C 0.961 0.61548 0.1829 0.0
C438 C 0.93832 0.62696 0.17757 0.0
C439 C 0.97089 0.61664 0.2101 0.0
C440 C 0.99578 0.60638 0.21719 0.0
C441 C 0.02212 0.61504 0.20386 0.0
C442 C 0.04547 0.6052 0.21049 0.0
C443 C 0.04281 0.58683 0.23058 0.0
C444 C 0.01682 0.57831 0.24412 0.0
C445 C 0.99338 0.58806 0.23753 0.0
H446 H 0.06092 0.57924 0.2357 0.0
H447 H 0.83378 0.67419 0.17216 0.0
H448 H 0.41078 0.27458 0.2052 0.0
H449 H 0.43727 0.24344 0.18781 0.0
H450 H 0.35812 0.18284 0.18059 0.0
H451 H 0.33181 0.21369 0.19878 0.0
H452 H 0.39722 0.16272 0.19959 0.0
H453 H 0.39255 0.21692 0.12494 0.0
H454 H 0.39888 0.25825 0.10117 0.0
H455 H 0.48978 0.27602 0.11501 0.0
H456 H 0.48393 0.23494 0.13921 0.0
H457 H 0.44256 0.07747 0.10213 0.0
H458 H 0.4193 0.10748 0.12687 0.0
H459 H 0.5019 0.16034 0.14454 0.0
H460 H 0.52539 0.13044 0.12001 0.0
H461 H 0.46296 0.18456 0.1217 0.0
H462 H 0.46596 0.12712 0.1942 0.0
H463 H 0.45761 0.0843 0.21543 0.0
H464 H 0.36696 0.07096 0.20232 0.0
H465 H 0.3748 0.11356 0.18066 0.0
C466 C 0.39912 0.25461 0.19984 0.0
C467 C 0.36929 0.24652 0.20327 0.0
C468 C 0.41422 0.23684 0.18985 0.0
C469 C 0.39966 0.21084 0.18249 0.0
C470 C 0.36986 0.20274 0.18616 0.0
C471 C 0.35484 0.22037 0.19652 0.0
C472 C 0.41533 0.19205 0.17086 0.0
C473 C 0.41135 0.16743 0.18237 0.0
C474 C 0.43419 0.19827 0.14866 0.0
C475 C 0.43776 0.223 0.13415 0.0
C476 C 0.41386 0.22975 0.12311 0.0
C477 C 0.41737 0.25311 0.10953 0.0
C478 C 0.4447 0.26979 0.10665 0.0
C479 C 0.46861 0.2631 0.1173 0.0
C480 C 0.46521 0.23978 0.13093 0.0
C481 C 0.45582 0.09529 0.11161 0.0
C482 C 0.48581 0.10162 0.109 0.0
C483 C 0.44249 0.11239 0.12578 0.0
C484 C 0.45891 0.13611 0.13752 0.0
C485 C 0.48887 0.14214 0.13557 0.0
C486 C 0.50224 0.12498 0.12161 0.0
C487 C 0.44472 0.15534 0.15038 0.0
C488 C 0.44895 0.18 0.13903 0.0
C489 C 0.42577 0.14898 0.1724 0.0
C490 C 0.421 0.12344 0.18559 0.0
C491 C 0.44426 0.11497 0.19565 0.0
C492 C 0.43962 0.09075 0.2078 0.0
C493 C 0.41178 0.07489 0.21017 0.0
C494 C 0.38852 0.08326 0.20045 0.0
C495 C 0.39305 0.10745 0.18827 0.0
H496 H 0.40823 0.05615 0.21958 0.0
H497 H 0.44738 0.28786 0.09612 0.0
H498 H 0.25596 0.9355 0.63974 0.0
H499 H 0.21385 0.9538 0.6437 0.0
H500 H 0.2451 1.0038 0.5772 0.0
H501 H 0.28714 0.98582 0.57363 0.0
H502 H 0.22057 0.02906 0.61499 0.0
H503 H 0.19889 0.94279 0.56685 0.0
H504 H 0.1943 0.89504 0.56379 0.0
H505 H 0.1357 0.8843 0.63051 0.0
H506 H 0.14022 0.93206 0.63411 0.0
H507 H 0.09662 1.01133 0.52038 0.0
H508 H 0.1312 0.99351 0.54442 0.0
H509 H 0.11791 0.03646 0.61747 0.0
H510 H 0.08296 0.05426 0.59344 0.0
H511 H 0.12896 0.9645 0.5907 0.0
H512 H 0.18736 0.06092 0.64428 0.0
H513 H 0.19417 0.10876 0.64102 0.0
H514 H 0.18139 0.09904 0.55488 0.0
H515 H 0.17485 0.05125 0.55764 0.0
C516 C 0.25391 0.95081 0.62644 0.0
C517 C 0.27431 0.95939 0.60634 0.0
C518 C 0.22999 0.96118 0.62868 0.0
C519 C 0.22632 0.98 0.61062 0.0
C520 C 0.24764 0.98942 0.59144 0.0
C521 C 0.27149 0.97911 0.58929 0.0
C522 C 0.19915 0.98803 0.60928 0.0
C523 C 0.20036 1.01493 0.61033 0.0
C524 C 0.17282 0.96958 0.60313 0.0
C525 C 0.1702 0.94096 0.60099 0.0
C526 C 0.18521 0.93024 0.58098 0.0
C527 C 0.18259 0.90319 0.57913 0.0
C528 C 0.1648 0.88666 0.59701 0.0
C529 C 0.14953 0.89714 0.61673 0.0
C530 C 0.15212 0.92419 0.61869 0.0
C531 C 0.10087 0.01674 0.54163 0.0
C532 C 0.08753 0.03434 0.55504 0.0
C533 C 0.12039 1.0064 0.55538 0.0
C534 C 0.12706 1.01375 0.58265 0.0
C535 C 0.11299 0.03064 0.59641 0.0
C536 C 0.0932 0.04081 0.58267 0.0
C537 C 0.15074 1.00549 0.59547 0.0
C538 C 0.14881 0.97857 0.59664 0.0
C539 C 0.17656 0.02391 0.60311 0.0
C540 C 0.18023 0.05255 0.60125 0.0
C541 C 0.18598 0.06903 0.62467 0.0
C542 C 0.18983 0.09613 0.6229 0.0
C543 C 0.18815 0.10692 0.59776 0.0
C544 C 0.18259 0.09065 0.57435 0.0
C545 C 0.17877 0.06357 0.57601 0.0
H546 H 0.19128 0.1279 0.59637 0.0
H547 H 0.16279 0.86572 0.59554 0.0
H548 H 0.75388 0.4165 0.86593 0.0
H549 H 0.79939 0.44167 0.88666 0.0
H550 H 0.76344 0.42577 0.96601 0.0
H551 H 0.71811 0.40116 0.94551 0.0
H552 H 0.79478 0.47415 0.96749 0.0
H553 H 0.81092 0.39178 0.9359 0.0
H554 H 0.81277 0.35646 0.90218 0.0
H555 H 0.87444 0.41099 0.85607 0.0
H556 H 0.87265 0.44672 0.88936 0.0
H557 H 0.9522 0.47765 0.01518 0.0
H558 H 0.90708 0.45525 0.9923 0.0
H559 H 0.8914 0.5301 0.97573 0.0
H560 H 0.9361 0.55254 0.9989 0.0
H561 H 0.8859 0.4519 0.94301 0.0
H562 H 0.82015 0.52626 0.97245 0.0
H563 H 0.81772 0.55865 1.00929 0.0
H564 H 0.85394 0.5151 0.06493 0.0
H565 H 0.85627 0.48231 0.02852 0.0
C566 C 0.7555 0.41863 0.88779 0.0
C567 C 0.73203 0.40639 0.90386 0.0
C568 C 0.7818 0.43289 0.89974 0.0
C569 C 0.7855 0.43554 0.92818 0.0
C570 C 0.76168 0.42416 0.94414 0.0
C571 C 0.73558 0.40982 0.93226 0.0
C572 C 0.81396 0.44965 0.94149 0.0
C573 C 0.81466 0.46931 0.96188 0.0
C574 C 0.84028 0.44339 0.93495 0.0
C575 C 0.84142 0.42197 0.91496 0.0
C576 C 0.82471 0.39627 0.91846 0.0
C577 C 0.82577 0.37618 0.89945 0.0
C578 C 0.84365 0.3815 0.87695 0.0
C579 C 0.86056 0.40691 0.87347 0.0
C580 C 0.85954 0.42709 0.89241 0.0
C581 C 0.93917 0.48945 1.00679 0.0
C582 C 0.94813 0.51712 1.0093 0.0
C583 C 0.91322 0.47651 0.99348 0.0
C584 C 0.89511 0.4907 0.98231 0.0
C585 C 0.90428 0.51835 0.98445 0.0
C586 C 0.93018 0.53128 0.99774 0.0
C587 C 0.86678 0.47669 0.9687 0.0
C588 C 0.86608 0.45697 0.94837 0.0
C589 C 0.84036 0.48264 0.97555 0.0
C590 C 0.83863 0.502 0.99769 0.0
C591 C 0.82748 0.52356 0.99258 0.0
C592 C 0.82615 0.54199 1.01337 0.0
C593 C 0.83575 0.53898 0.03941 0.0
C594 C 0.8466 0.51746 0.04473 0.0
C595 C 0.84796 0.49896 0.02402 0.0
H596 H 0.83474 0.55329 0.05547 0.0
H597 H 0.84445 0.36591 0.86226 0.0
H598 H 0.82599 0.69482 0.44636 0.0
H599 H 0.78214 0.67123 0.46824 0.0
H600 H 0.74011 0.65332 0.39045 0.0
H601 H 0.78378 0.67795 0.36842 0.0
H602 H 0.70408 0.66683 0.42478 0.0
H603 H 0.76219 0.6059 0.42857 0.0
H604 H 0.80538 0.59078 0.43837 0.0
H605 H 0.79838 0.61004 0.52295 0.0
H606 H 0.75535 0.62562 0.51361 0.0
H607 H 0.58068 0.57845 0.48187 0.0
H608 H 0.62369 0.59658 0.45499 0.0
H609 H 0.6731 0.61936 0.52854 0.0
H610 H 0.63048 0.60096 0.55523 0.0
H611 H 0.70442 0.60081 0.49344 0.0
H612 H 0.64774 0.66393 0.48892 0.0
H613 H 0.60428 0.67861 0.47899 0.0
H614 H 0.60837 0.65445 0.39536 0.0
H615 H 0.65166 0.63931 0.40488 0.0
C616 C 0.80749 0.68595 0.43375 0.0
C617 C 0.80882 0.68855 0.40541 0.0
C618 C 0.78229 0.6721 0.44638 0.0
C619 C 0.75745 0.66 0.4312 0.0
C620 C 0.75875 0.66229 0.40286 0.0
C621 C 0.78402 0.67621 0.39017 0.0
C622 C 0.73018 0.64561 0.44499 0.0
C623 C 0.70419 0.65207 0.43944 0.0
C624 C 0.72986 0.62656 0.46463 0.0
C625 C 0.75568 0.61714 0.47034 0.0
C626 C 0.76997 0.60709 0.44923 0.0
C627 C 0.79441 0.5984 0.45471 0.0
C628 C 0.80465 0.5995 0.48126 0.0
C629 C 0.79044 0.60923 0.50239 0.0
C630 C 0.76601 0.61796 0.49702 0.0
C631 C 0.60076 0.58718 0.49228 0.0
C632 C 0.60195 0.58827 0.5208 0.0
C633 C 0.62543 0.59777 0.47687 0.0
C634 C 0.65196 0.60987 0.48953 0.0
C635 C 0.65317 0.6103 0.51801 0.0
C636 C 0.62861 0.59976 0.53335 0.0
C637 C 0.67844 0.62226 0.47349 0.0
C638 C 0.7043 0.61544 0.47864 0.0
C639 C 0.6786 0.64093 0.45347 0.0
C640 C 0.65275 0.65023 0.44767 0.0
C641 C 0.63926 0.66159 0.46845 0.0
C642 C 0.61467 0.67001 0.46289 0.0
C643 C 0.60352 0.66739 0.43657 0.0
C644 C 0.617 0.65642 0.41574 0.0
C645 C 0.64157 0.64794 0.4212 0.0
H646 H 0.58447 0.6739 0.43231 0.0
H647 H 0.82357 0.59277 0.48546 0.0
H648 H 0.32477 0.38663 0.16804 0.0
H649 H 0.28674 0.40925 0.16222 0.0
H650 H 0.23416 0.35864 0.21939 0.0
H651 H 0.27211 0.33563 0.22467 0.0
H652 H 0.20404 0.3613 0.17603 0.0
H653 H 0.26398 0.42443 0.23544 0.0
H654 H 0.30871 0.45414 0.2533 0.0
H655 H 0.31729 0.49812 0.18111 0.0
H656 H 0.27284 0.46843 0.16259 0.0
H657 H 0.09923 0.43472 0.1588 0.0
H658 H 0.13495 0.41757 0.18257 0.0
H659 H 0.19884 0.45208 0.12428 0.0
H660 H 0.1634 0.46918 0.10062 0.0
H661 H 0.21993 0.45813 0.17732 0.0
H662 H 0.16413 0.38966 0.11602 0.0
H663 H 0.1192 0.35987 0.09858 0.0
H664 H 0.10269 0.32623 0.17658 0.0
H665 H 0.14737 0.35611 0.19456 0.0
C666 C 0.3052 0.38065 0.17958 0.0
C667 C 0.30122 0.35966 0.19689 0.0
C668 C 0.28356 0.39363 0.1764 0.0
C669 C 0.25771 0.38592 0.19069 0.0
C670 C 0.25396 0.36503 0.20829 0.0
C671 C 0.27561 0.35197 0.21137 0.0
C672 C 0.23399 0.3985 0.18562 0.0
C673 C 0.20735 0.38247 0.17698 0.0
C674 C 0.23831 0.42613 0.18654 0.0
C675 C 0.26513 0.44406 0.19755 0.0
C676 C 0.27551 0.4403 0.22326 0.0
C677 C 0.30081 0.45717 0.23352 0.0
C678 C 0.31586 0.47798 0.21833 0.0
C679 C 0.30561 0.48199 0.19285 0.0
C680 C 0.28035 0.46516 0.18248 0.0
C681 C 0.12102 0.43892 0.15138 0.0
C682 C 0.12855 0.45301 0.12776 0.0
C683 C 0.14133 0.42908 0.16487 0.0
C684 C 0.16946 0.43342 0.15503 0.0
C685 C 0.17726 0.44852 0.13219 0.0
C686 C 0.15697 0.45809 0.1186 0.0
C687 C 0.19048 0.42092 0.16718 0.0
C688 C 0.21656 0.43697 0.17706 0.0
C689 C 0.18563 0.39332 0.16756 0.0
C690 C 0.15887 0.37533 0.15672 0.0
C691 C 0.15079 0.37606 0.1295 0.0
C692 C 0.1254 0.35914 0.11951 0.0
C693 C 0.10805 0.34123 0.13649 0.0
C694 C 0.11611 0.34016 0.16347 0.0
C695 C 0.14146 0.35707 0.17357 0.0
H696 H 0.08841 0.32814 0.12871 0.0
H697 H 0.33543 0.49102 0.22631 0.0
H698 H 0.60952 0.32026 0.90014 0.0
H699 H 0.58913 0.27882 0.92169 0.0
H700 H 0.67399 0.27252 0.94151 0.0
H701 H 0.69466 0.31342 0.91889 0.0
H702 H 0.64341 0.22531 0.92738 0.0
H703 H 0.62581 0.29161 0.98972 0.0
H704 H 0.60788 0.32987 1.00418 0.0
H705 H 0.52218 0.28764 0.98174 0.0
H706 H 0.53965 0.24923 0.96682 0.0
H707 H 0.59199 0.1195 0.01857 0.0
H708 H 0.61643 0.16077 0.99763 0.0
H709 H 0.53441 0.1757 0.9807 0.0
H710 H 0.51034 0.13544 1.00255 0.0
H711 H 0.56589 0.21924 0.99476 0.0
H712 H 0.58312 0.15355 0.93074 0.0
H713 H 0.60063 0.11517 0.91581 0.0
H714 H 0.68613 0.15576 0.94065 0.0
H715 H 0.66905 0.19428 0.95602 0.0
C716 C 0.62407 0.31009 0.90875 0.0
C717 C 0.65404 0.32086 0.90755 0.0
C718 C 0.61221 0.28626 0.92155 0.0
C719 C 0.62973 0.27221 0.93397 0.0
C720 C 0.65965 0.28265 0.93242 0.0
C721 C 0.67155 0.30647 0.91959 0.0
C722 C 0.61695 0.24687 0.94848 0.0
C723 C 0.6267 0.2242 0.94236 0.0
C724 C 0.59465 0.24461 0.96786 0.0
C725 C 0.58409 0.26763 0.97693 0.0
C726 C 0.60317 0.29055 0.98771 0.0
C727 C 0.59308 0.31225 0.99601 0.0
C728 C 0.56392 0.31121 0.99382 0.0
C729 C 0.54477 0.28843 0.98339 0.0
C730 C 0.55474 0.26668 0.97504 0.0
C731 C 0.57921 0.13155 1.01034 0.0
C732 C 0.54907 0.1238 1.0123 0.0
C733 C 0.59322 0.15527 0.99806 0.0
C734 C 0.57756 0.1718 0.98685 0.0
C735 C 0.54745 0.16386 0.98898 0.0
C736 C 0.53358 0.1405 1.0015 0.0
C737 C 0.59194 0.19742 0.97337 0.0
C738 C 0.58255 0.22024 0.97975 0.0
C739 C 0.61444 0.19973 0.95414 0.0
C740 C 0.62475 0.17667 0.94479 0.0
C741 C 0.60562 0.15422 0.93317 0.0
C742 C 0.61547 0.13245 0.92461 0.0
C743 C 0.64446 0.133 0.92736 0.0
C744 C 0.66368 0.15535 0.93858 0.0
C745 C 0.65393 0.17716 0.9472 0.0
H746 H 0.65204 0.11612 0.92073 0.0
H747 H 0.55616 0.32804 1.00025 0.0
H748 H 0.84731 0.77835 0.4279 0.0
H749 H 0.86873 0.82076 0.44982 0.0
H750 H 0.94819 0.82347 0.40839 0.0
H751 H 0.92767 0.77973 0.38814 0.0
H752 H 0.96246 0.8443 0.45451 0.0
H753 H 0.89528 0.86023 0.39048 0.0
H754 H 0.84847 0.8543 0.36775 0.0
H755 H 0.81168 0.87413 0.44243 0.0
H756 H 0.8582 0.87987 0.46569 0.0
H757 H 0.99254 0.99318 0.4642 0.0
H758 H 0.97179 0.94927 0.44386 0.0
H759 H 0.95205 0.91905 0.52323 0.0
H760 H 0.97327 0.96282 0.54385 0.0
H761 H 0.90914 0.91349 0.45721 0.0
H762 H 0.97981 0.88552 0.52056 0.0
H763 H 0.02943 0.89513 0.53813 0.0
H764 H 0.06175 0.90249 0.45694 0.0
H765 H 0.01227 0.89334 0.43901 0.0
C766 C 0.86955 0.78744 0.42368 0.0
C767 C 0.88549 0.77487 0.40598 0.0
C768 C 0.88174 0.81232 0.43599 0.0
C769 C 0.91013 0.82616 0.43053 0.0
C770 C 0.92623 0.81366 0.41307 0.0
C771 C 0.9142 0.78851 0.40111 0.0
C772 C 0.92295 0.85337 0.44309 0.0
C773 C 0.95054 0.85922 0.45495 0.0
C774 C 0.90811 0.8736 0.4438 0.0
C775 C 0.88015 0.87024 0.42987 0.0
C776 C 0.87716 0.86316 0.40209 0.0
C777 C 0.85069 0.85986 0.38911 0.0
C778 C 0.8271 0.86377 0.40365 0.0
C779 C 0.82996 0.87107 0.4312 0.0
C780 C 0.85637 0.87438 0.44428 0.0
C781 C 0.98386 0.97725 0.47745 0.0
C782 C 0.98477 0.98181 0.50581 0.0
C783 C 0.97197 0.95204 0.4657 0.0
C784 C 0.96058 0.93057 0.4819 0.0
C785 C 0.9611 0.93506 0.51019 0.0
C786 C 0.97319 0.96025 0.52199 0.0
C787 C 0.94783 0.9037 0.46918 0.0
C788 C 0.92058 0.8982 0.45698 0.0
C789 C 0.963 0.88394 0.46779 0.0
C790 C 0.99251 0.88908 0.47853 0.0
C791 C 0.99754 0.88942 0.50652 0.0
C792 C 0.02561 0.89475 0.51653 0.0
C793 C 0.04874 0.8995 0.49867 0.0
C794 C 0.04383 0.89887 0.47076 0.0
C795 C 0.0158 0.89365 0.46068 0.0
H796 H 0.07045 0.90361 0.50645 0.0
H797 H 0.80662 0.86119 0.39357 0.0
H798 H 0.34233 0.85196 0.58742 0.0
H799 H 0.36818 0.81974 0.57225 0.0
H800 H 0.43476 0.852 0.63132 0.0
H801 H 0.40968 0.88512 0.64576 0.0
H802 H 0.45727 0.8411 0.58404 0.0
H803 H 0.38294 0.79653 0.64308 0.0
H804 H 0.33345 0.78093 0.65958 0.0
H805 H 0.30855 0.73783 0.58424 0.0
H806 H 0.35785 0.75348 0.56714 0.0
H807 H 0.51242 0.73097 0.60799 0.0
H808 H 0.49237 0.76904 0.60799 0.0
H809 H 0.43638 0.73351 0.54151 0.0
H810 H 0.45695 0.69553 0.54078 0.0
H811 H 0.40801 0.74642 0.58693 0.0
H812 H 0.48587 0.78775 0.53082 0.0
H813 H 0.5364 0.80257 0.51702 0.0
H814 H 0.55594 0.8509 0.58994 0.0
H815 H 0.50561 0.83608 0.60439 0.0
C816 C 0.36266 0.85242 0.59694 0.0
C817 C 0.37393 0.87099 0.61787 0.0
C818 C 0.37727 0.83388 0.5884 0.0
C819 C 0.40319 0.83334 0.60089 0.0
C820 C 0.41474 0.85209 0.62148 0.0
C821 C 0.40023 0.87077 0.62992 0.0
C822 C 0.41788 0.81277 0.59301 0.0
C823 C 0.44661 0.82039 0.58484 0.0
C824 C 0.40368 0.78579 0.59351 0.0
C825 C 0.374 0.77643 0.60371 0.0
C826 C 0.36685 0.78392 0.62994 0.0
C827 C 0.33885 0.77503 0.63942 0.0
C828 C 0.31785 0.75847 0.62294 0.0
C829 C 0.32483 0.75071 0.59696 0.0
C830 C 0.3528 0.75957 0.58737 0.0
C831 C 0.49654 0.73158 0.59275 0.0
C832 C 0.48607 0.71012 0.57454 0.0
C833 C 0.48506 0.75335 0.59283 0.0
C834 C 0.46294 0.754 0.57475 0.0
C835 C 0.45343 0.73326 0.55563 0.0
C836 C 0.46506 0.71155 0.55538 0.0
C837 C 0.44747 0.77472 0.57818 0.0
C838 C 0.41856 0.76713 0.58567 0.0
C839 C 0.46165 0.80165 0.57741 0.0
C840 C 0.49197 0.81064 0.56878 0.0
C841 C 0.50098 0.80137 0.54403 0.0
C842 C 0.52959 0.80981 0.53607 0.0
C843 C 0.54938 0.82763 0.55261 0.0
C844 C 0.54059 0.83709 0.57714 0.0
C845 C 0.51201 0.8287 0.58521 0.0
H846 H 0.57152 0.83414 0.54641 0.0
H847 H 0.29618 0.7516 0.63032 0.0
H848 H 0.72979 0.84722 0.8093 0.0
H849 H 0.75385 0.87549 0.77336 0.0
H850 H 0.83231 0.89474 0.82018 0.0
H851 H 0.80835 0.86701 0.85608 0.0
H852 H 0.824 0.93728 0.79498 0.0
H853 H 0.81939 0.8453 0.77202 0.0
H854 H 0.79368 0.79907 0.76229 0.0
H855 H 0.74876 0.8222 0.69651 0.0
H856 H 0.77397 0.86863 0.7061 0.0
H857 H 0.94214 0.96793 0.71053 0.0
H858 H 0.90485 0.94702 0.74156 0.0
H859 H 0.84231 0.93346 0.67689 0.0
H860 H 0.88 0.95323 0.64515 0.0
H861 H 0.83417 0.89161 0.7071 0.0
H862 H 0.84541 0.98295 0.72509 0.0
H863 H 0.8716 0.02907 0.73455 0.0
H864 H 0.90345 1.00797 0.80921 0.0
H865 H 0.87779 0.96166 0.80002 0.0
C866 C 0.75198 0.85798 0.81208 0.0
C867 C 0.76735 0.85476 0.83527 0.0
C868 C 0.76573 0.87395 0.79153 0.0
C869 C 0.79496 0.88691 0.79398 0.0
C870 C 0.80978 0.88488 0.81784 0.0
C871 C 0.79614 0.86891 0.83825 0.0
C872 C 0.81104 0.90109 0.7712 0.0
C873 C 0.82625 0.92735 0.77574 0.0
C874 C 0.81324 0.88832 0.74583 0.0
C875 C 0.79828 0.86042 0.73998 0.0
C876 C 0.80388 0.84053 0.75561 0.0
C877 C 0.78942 0.8143 0.7501 0.0
C878 C 0.76953 0.80771 0.72885 0.0
C879 C 0.76412 0.82733 0.713 0.0
C880 C 0.77849 0.85361 0.71846 0.0
C881 C 0.9206 0.9601 0.70268 0.0
C882 C 0.91414 0.96227 0.67527 0.0
C883 C 0.89916 0.94852 0.7206 0.0
C884 C 0.87065 0.93923 0.7117 0.0
C885 C 0.86413 0.94076 0.68425 0.0
C886 C 0.88567 0.95221 0.66619 0.0
C887 C 0.84796 0.9276 0.7312 0.0
C888 C 0.83147 0.90183 0.72604 0.0
C889 C 0.84451 0.94087 0.756 0.0
C890 C 0.85976 0.96878 0.76178 0.0
C891 C 0.85812 0.98811 0.74345 0.0
C892 C 0.87287 1.0143 0.74878 0.0
C893 C 0.88921 0.02144 0.77245 0.0
C894 C 0.89078 1.00241 0.79088 0.0
C895 C 0.8761 0.9762 0.78565 0.0
H896 H 0.90062 0.04172 0.77653 0.0
H897 H 0.75837 0.78739 0.72461 0.0
H898 H 0.72373 0.242 0.39622 0.0
H899 H 0.69299 0.23115 0.35574 0.0
H900 H 0.66856 0.1499 0.37719 0.0
H901 H 0.69987 0.16065 0.41704 0.0
H902 H 0.68957 0.15396 0.32855 0.0
H903 H 0.61997 0.18867 0.37633 0.0
H904 H 0.60193 0.22149 0.4032 0.0
H905 H 0.62377 0.27558 0.33913 0.0
H906 H 0.64235 0.24322 0.31201 0.0
H907 H 0.59503 0.10361 0.22166 0.0
H908 H 0.60887 0.1197 0.26796 0.0
H909 H 0.64748 0.19677 0.23922 0.0
H910 H 0.63346 0.18083 0.19266 0.0
H911 H 0.6172 0.19571 0.29144 0.0
H912 H 0.68987 0.16179 0.2458 0.0
H913 H 0.70763 0.12873 0.21902 0.0
H914 H 0.67937 0.0728 0.28054 0.0
H915 H 0.661 0.10544 0.30749 0.0
C916 C 0.71109 0.22202 0.39259 0.0
C917 C 0.71415 0.20208 0.40945 0.0
C918 C 0.69351 0.21582 0.36954 0.0
C919 C 0.67851 0.18967 0.36339 0.0
C920 C 0.68004 0.17015 0.38144 0.0
C921 C 0.69783 0.17628 0.40419 0.0
C922 C 0.66445 0.18196 0.33662 0.0
C923 C 0.67334 0.1628 0.32076 0.0
C924 C 0.64398 0.19408 0.32599 0.0
C925 C 0.63282 0.2136 0.34223 0.0
C926 C 0.62117 0.20765 0.36805 0.0
C927 C 0.61079 0.22615 0.38331 0.0
C928 C 0.61177 0.25063 0.37291 0.0
C929 C 0.62306 0.25663 0.34718 0.0
C930 C 0.63349 0.2382 0.33184 0.0
C931 C 0.60581 0.12415 0.22524 0.0
C932 C 0.61337 0.14094 0.20354 0.0
C933 C 0.61374 0.13328 0.25168 0.0
C934 C 0.62929 0.15935 0.25689 0.0
C935 C 0.6354 0.1766 0.23554 0.0
C936 C 0.62765 0.16742 0.20899 0.0
C937 C 0.64207 0.16752 0.28398 0.0
C938 C 0.63321 0.18683 0.2996 0.0
C939 C 0.66258 0.15555 0.29459 0.0
C940 C 0.67377 0.13595 0.2785 0.0
C941 C 0.6872 0.14237 0.25349 0.0
C942 C 0.69742 0.12372 0.23831 0.0
C943 C 0.69455 0.09866 0.24803 0.0
C944 C 0.68153 0.09221 0.27301 0.0
C945 C 0.67121 0.11077 0.28825 0.0
H946 H 0.70249 0.08425 0.23625 0.0
H947 H 0.60372 0.26493 0.38476 0.0
H948 H 0.39575 0.71766 0.33532 0.0
H949 H 0.4105 0.69524 0.3733 0.0
H950 H 0.43633 0.64114 0.31694 0.0
H951 H 0.42122 0.66351 0.27894 0.0
H952 H 0.41327 0.61458 0.35928 0.0
H953 H 0.48532 0.6955 0.35133 0.0
H954 H 0.50417 0.74348 0.34941 0.0
H955 H 0.47116 0.75372 0.42881 0.0
H956 H 0.45177 0.7058 0.43106 0.0
H957 H 0.4986 0.56429 0.45094 0.0
H958 H 0.48047 0.58543 0.41422 0.0
H959 H 0.45983 0.64145 0.4717 0.0
H960 H 0.47881 0.62065 0.50861 0.0
H961 H 0.47916 0.66703 0.42929 0.0
H962 H 0.40739 0.58665 0.43792 0.0
H963 H 0.38801 0.53878 0.44033 0.0
H964 H 0.41932 0.52753 0.36044 0.0
H965 H 0.43923 0.57534 0.35769 0.0
C966 C 0.40404 0.70065 0.33099 0.0
C967 C 0.40673 0.69222 0.30389 0.0
C968 C 0.41292 0.68793 0.35287 0.0
C969 C 0.42523 0.66644 0.34853 0.0
C970 C 0.42708 0.65754 0.32136 0.0
C971 C 0.41823 0.67033 0.29945 0.0
C972 C 0.43649 0.65364 0.37203 0.0
C973 C 0.42797 0.62616 0.37431 0.0
C974 C 0.45522 0.66829 0.39255 0.0
C975 C 0.46682 0.69709 0.39123 0.0
C976 C 0.48188 0.708 0.36829 0.0
C977 C 0.4927 0.73518 0.36716 0.0
C978 C 0.48879 0.75164 0.38893 0.0
C979 C 0.47412 0.74095 0.41193 0.0
C980 C 0.46323 0.71378 0.41315 0.0
C981 C 0.49013 0.58105 0.45598 0.0
C982 C 0.49019 0.59041 0.4832 0.0
C983 C 0.47945 0.59318 0.43471 0.0
C984 C 0.46792 0.61505 0.43963 0.0
C985 C 0.4683 0.62466 0.46681 0.0
C986 C 0.47916 0.61259 0.48815 0.0
C987 C 0.45596 0.62791 0.41656 0.0
C988 C 0.46438 0.65542 0.41433 0.0
C989 C 0.43701 0.61329 0.39616 0.0
C990 C 0.42504 0.58455 0.39771 0.0
C991 C 0.41032 0.57395 0.42094 0.0
C992 C 0.39921 0.54683 0.42236 0.0
C993 C 0.4025 0.53012 0.40058 0.0
C994 C 0.41683 0.5405 0.37731 0.0
C995 C 0.42801 0.56761 0.3758 0.0
H996 H 0.39389 0.50913 0.40171 0.0
H997 H 0.49719 0.77267 0.38802 0.0
H998 H 0.14244 0.47236 0.77471 0.0
H999 H 0.12547 0.49464 0.81368 0.0
H1000 H 0.14219 0.43672 0.86617 0.0
H1001 H 0.15892 0.41443 0.82713 0.0
H1002 H 0.09109 0.44437 0.87793 0.0
H1003 H 0.1845 0.50263 0.86648 0.0
H1004 H 0.2233 0.53175 0.84132 0.0
H1005 H 0.16791 0.58151 0.82434 0.0
H1006 H 0.12866 0.5525 0.84912 0.0
H1007 H 0.0597 0.50919 1.00079 0.0
H1008 H 0.08183 0.48767 0.96493 0.0
H1009 H 0.07928 0.5501 0.91186 0.0
H1010 H 0.05944 0.57241 0.94831 0.0
H1011 H 0.12508 0.5395 0.9013 0.0
H1012 H 0.03099 0.48149 0.90961 0.0
H1013 H 0.99078 0.45266 0.93343 0.0
H1014 H 0.04483 0.4028 0.95423 0.0
H1015 H 0.08545 0.43152 0.9308 0.0
C1016 C 0.14321 0.4648 0.79468 0.0
C1017 C 0.15275 0.44195 0.79784 0.0
C1018 C 0.13334 0.47752 0.81708 0.0
C1019 C 0.13257 0.4677 0.84335 0.0
C1020 C 0.14244 0.44495 0.84641 0.0
C1021 C 0.15238 0.43232 0.82404 0.0
C1022 C 0.12069 0.48048 0.86734 0.0
C1023 C 0.09886 0.46514 0.88319 0.0
C1024 C 0.12996 0.50775 0.87424 0.0
C1025 C 0.15357 0.52526 0.85945 0.0
C1026 C 0.18054 0.51968 0.85722 0.0
C1027 C 0.20262 0.53619 0.84306 0.0
C1028 C 0.19805 0.55843 0.83118 0.0
C1029 C 0.17141 0.56426 0.83352 0.0
C1030 C 0.14925 0.54781 0.84765 0.0
C1031 C 0.06429 0.51856 0.98174 0.0
C1032 C 0.05809 0.54291 0.97796 0.0
C1033 C 0.07659 0.50593 0.96078 0.0
C1034 C 0.08221 0.51678 0.93496 0.0
C1035 C 0.07562 0.541 0.93126 0.0
C1036 C 0.06398 0.55379 0.9523 0.0
C1037 C 0.09507 0.5035 0.91185 0.0
C1038 C 0.11718 0.51873 0.89613 0.0
C1039 C 0.08575 0.47619 0.90484 0.0
C1040 C 0.06131 0.45879 0.9187 0.0
C1041 C 0.03432 0.46445 0.91939 0.0
C1042 C 0.01146 0.44812 0.93281 0.0
C1043 C 0.01527 0.42595 0.94539 0.0
C1044 C 0.04192 0.42 0.94451 0.0
C1045 C 0.06486 0.43628 0.93115 0.0
H1046 H 0.99755 0.41335 0.95578 0.0
H1047 H 0.21517 0.57118 0.82022 0.0
H1048 H 0.70585 0.87974 0.92766 0.0
H1049 H 0.68635 0.91658 0.94299 0.0
H1050 H 0.60516 0.87839 0.90517 0.0
H1051 H 0.62485 0.84157 0.88968 0.0
H1052 H 0.62003 0.93227 0.89849 0.0
H1053 H 0.61292 0.87286 0.97079 0.0
H1054 H 0.63067 0.84574 1.00278 0.0
H1055 H 0.69004 0.91454 0.03666 0.0
H1056 H 0.67291 0.94204 1.00458 0.0
H1057 H 0.53084 0.99568 0.97961 0.0
H1058 H 0.55338 0.9651 0.95482 0.0
H1059 H 0.6348 1.00332 0.99202 0.0
H1060 H 0.61257 0.03395 0.01679 0.0
H1061 H 0.62009 0.95008 0.99786 0.0
H1062 H 0.62531 1.00989 0.92657 0.0
H1063 H 0.60671 0.03671 0.89491 0.0
H1064 H 0.54986 0.96717 0.85953 0.0
H1065 H 0.56784 0.93994 0.89127 0.0
C1066 C 0.68398 0.87949 0.92237 0.0
C1067 C 0.6667 0.85807 0.90766 0.0
C1068 C 0.67285 0.90042 0.93115 0.0
C1069 C 0.6442 0.90007 0.92547 0.0
C1070 C 0.6273 0.87905 0.90975 0.0
C1071 C 0.63847 0.85807 0.90099 0.0
C1072 C 0.63147 0.9208 0.93741 0.0
C1073 C 0.61974 0.93602 0.92022 0.0
C1074 C 0.63152 0.92593 0.96575 0.0
C1075 C 0.64185 0.90946 0.98509 0.0
C1076 C 0.62993 0.88218 0.98491 0.0
C1077 C 0.63984 0.86674 1.00308 0.0
C1078 C 0.66152 0.8784 0.02169 0.0
C1079 C 0.67328 0.90553 0.0222 0.0
C1080 C 0.66346 0.92105 1.00404 0.0
C1081 C 0.55364 0.99785 0.9822 0.0
C1082 C 0.56988 0.0172 1.00028 0.0
C1083 C 0.5665 0.9804 0.96795 0.0
C1084 C 0.59576 0.98196 0.97159 0.0
C1085 C 0.61217 1.00177 0.98896 0.0
C1086 C 0.59942 0.01931 1.00304 0.0
C1087 C 0.60883 0.96177 0.95897 0.0
C1088 C 0.6205 0.9465 0.9761 0.0
C1089 C 0.60858 0.9566 0.93064 0.0
C1090 C 0.59772 0.9729 0.9115 0.0
C1091 C 0.60865 1.00033 0.91221 0.0
C1092 C 0.59826 1.0156 0.89421 0.0
C1093 C 0.57706 1.00366 0.87526 0.0
C1094 C 0.56626 0.9764 0.87424 0.0
C1095 C 0.57656 0.96103 0.89222 0.0
H1096 H 0.56905 1.01552 0.86134 0.0
H1097 H 0.66917 0.86642 0.03575 0.0
H1098 H 0.83834 0.21455 0.45653 0.0
H1099 H 0.87209 0.18751 0.46139 0.0
H1100 H 0.80598 0.1184 0.43742 0.0
H1101 H 0.77169 0.1452 0.43383 0.0
H1102 H 0.82829 0.11113 0.48271 0.0
H1103 H 0.86655 0.13985 0.39817 0.0
H1104 H 0.88501 0.17075 0.36228 0.0
H1105 H 0.95585 0.21043 0.41334 0.0
H1106 H 0.93762 0.18004 0.44973 0.0
H1107 H 0.9696 0.06487 0.48889 0.0
H1108 H 0.93561 0.08164 0.46254 0.0
H1109 H 0.90861 0.11566 0.53577 0.0
H1110 H 0.94239 0.09879 0.5622 0.0
H1111 H 0.93043 0.13108 0.45541 0.0
H1112 H 0.83772 0.10767 0.53374 0.0
H1113 H 0.81862 0.07421 0.56716 0.0
H1114 H 0.85448 0.01871 0.52244 0.0
H1115 H 0.87342 0.05168 0.48853 0.0
C1116 C 0.83107 0.19362 0.45204 0.0
C1117 C 0.80228 0.18195 0.44518 0.0
C1118 C 0.85049 0.17823 0.45442 0.0
C1119 C 0.84159 0.15094 0.44961 0.0
C1120 C 0.81329 0.13944 0.44115 0.0
C1121 C 0.79378 0.15481 0.43897 0.0
C1122 C 0.86062 0.13431 0.45722 0.0
C1123 C 0.85051 0.11526 0.47641 0.0
C1124 C 0.88945 0.13929 0.44859 0.0
C1125 C 0.90061 0.15768 0.42676 0.0
C1126 C 0.88596 0.15528 0.40184 0.0
C1127 C 0.89641 0.17269 0.38138 0.0
C1128 C 0.92157 0.19255 0.38554 0.0
C1129 C 0.93637 0.19502 0.41015 0.0
C1130 C 0.92601 0.17767 0.43069 0.0
C1131 C 0.95642 0.07598 0.4993 0.0
C1132 C 0.95837 0.08048 0.52753 0.0
C1133 C 0.93712 0.08555 0.48425 0.0
C1134 C 0.91942 0.09954 0.49729 0.0
C1135 C 0.9218 0.1045 0.52543 0.0
C1136 C 0.94109 0.09495 0.54048 0.0
C1137 C 0.89827 0.10903 0.4817 0.0
C1138 C 0.90802 0.12664 0.46113 0.0
C1139 C 0.86893 0.10234 0.48859 0.0
C1140 C 0.85714 0.08223 0.50867 0.0
C1141 C 0.84137 0.08828 0.53093 0.0
C1142 C 0.83061 0.0694 0.54999 0.0
C1143 C 0.83539 0.04437 0.54695 0.0
C1144 C 0.85087 0.03813 0.52481 0.0
C1145 C 0.86165 0.05691 0.50568 0.0
H1146 H 0.82707 0.02981 0.56175 0.0
H1147 H 0.92962 0.20601 0.36967 0.0
H1148 H 0.30491 0.68981 0.23196 0.0
H1149 H 0.25974 0.66429 0.21092 0.0
H1150 H 0.28557 0.69986 0.13495 0.0
H1151 H 0.33111 0.72387 0.1549 0.0
H1152 H 0.22737 0.70125 0.15264 0.0
H1153 H 0.28731 0.64041 0.13933 0.0
H1154 H 0.318 0.61279 0.15486 0.0
H1155 H 0.24935 0.57024 0.20376 0.0
H1156 H 0.21838 0.5979 0.18882 0.0
H1157 H 0.11732 0.63174 0.06231 0.0
H1158 H 0.16238 0.6539 0.0851 0.0
H1159 H 0.14858 0.59267 0.1428 0.0
H1160 H 0.1047 0.56952 0.1186 0.0
H1161 H 0.20026 0.60456 0.13754 0.0
H1162 H 0.13994 0.66228 0.15443 0.0
H1163 H 0.10733 0.68994 0.14398 0.0
H1164 H 0.17272 0.73856 0.09612 0.0
H1165 H 0.20561 0.711 0.10603 0.0
C1166 C 0.30136 0.692 0.21066 0.0
C1167 C 0.32211 0.70974 0.19563 0.0
C1168 C 0.27521 0.67741 0.19863 0.0
C1169 C 0.26874 0.68025 0.17125 0.0
C1170 C 0.28953 0.69745 0.15615 0.0
C1171 C 0.31576 0.71153 0.1679 0.0
C1172 C 0.24047 0.66574 0.15815 0.0
C1173 C 0.22156 0.68011 0.14915 0.0
C1174 C 0.23203 0.63803 0.15427 0.0
C1175 C 0.25065 0.62143 0.16321 0.0
C1176 C 0.27886 0.62534 0.15361 0.0
C1177 C 0.29628 0.60964 0.16226 0.0
C1178 C 0.28566 0.58983 0.18035 0.0
C1179 C 0.25757 0.58563 0.18978 0.0
C1180 C 0.24007 0.6013 0.18122 0.0
C1181 C 0.12385 0.62298 0.07987 0.0
C1182 C 0.10703 0.59876 0.08852 0.0
C1183 C 0.14973 0.6359 0.09326 0.0
C1184 C 0.15925 0.62572 0.11657 0.0
C1185 C 0.14235 0.60139 0.12508 0.0
C1186 C 0.11694 0.58807 0.11118 0.0
C1187 C 0.18674 0.64003 0.13172 0.0
C1188 C 0.20566 0.62568 0.14111 0.0
C1189 C 0.1948 0.66777 0.13674 0.0
C1190 C 0.17513 0.68442 0.13076 0.0
C1191 C 0.1473 0.67878 0.14154 0.0
C1192 C 0.12878 0.69445 0.13573 0.0
C1193 C 0.13793 0.71595 0.11934 0.0
C1194 C 0.16565 0.72187 0.10879 0.0
C1195 C 0.18425 0.70625 0.11451 0.0
H1196 H 0.12355 0.72805 0.11486 0.0
H1197 H 0.29918 0.57768 0.18701 0.0
H1198 H 0.22055 0.44113 0.66114 0.0
H1199 H 0.26538 0.464 0.63958 0.0
H1200 H 0.31368 0.43445 0.69857 0.0
H1201 H 0.26866 0.41198 0.72044 0.0
H1202 H 0.34214 0.4836 0.6872 0.0
H1203 H 0.29909 0.40573 0.63342 0.0
H1204 H 0.26011 0.37536 0.60736 0.0
H1205 H 0.25838 0.43589 0.55219 0.0
H1206 H 0.29707 0.46675 0.57817 0.0
H1207 H 0.47311 0.51136 0.61151 0.0
H1208 H 0.43024 0.49188 0.63758 0.0
H1209 H 0.37699 0.50773 0.57359 0.0
H1210 H 0.41986 0.52515 0.54674 0.0
H1211 H 0.3513 0.4647 0.58898 0.0
H1212 H 0.39298 0.54348 0.64343 0.0
H1213 H 0.43166 0.57414 0.66962 0.0
H1214 H 0.43591 0.51302 0.7232 0.0
H1215 H 0.39742 0.48195 0.69718 0.0
C1216 C 0.24078 0.44002 0.66986 0.0
C1217 C 0.24101 0.42505 0.69276 0.0
C1218 C 0.26651 0.45289 0.65732 0.0
C1219 C 0.29331 0.45078 0.66698 0.0
C1220 C 0.29355 0.43655 0.69052 0.0
C1221 C 0.26776 0.42374 0.70314 0.0
C1222 C 0.32075 0.46239 0.65192 0.0
C1223 C 0.34418 0.47926 0.66576 0.0
C1224 C 0.32375 0.45726 0.62377 0.0
C1225 C 0.30081 0.43861 0.60788 0.0
C1226 C 0.29029 0.4126 0.61581 0.0
C1227 C 0.26825 0.3953 0.60106 0.0
C1228 C 0.25674 0.40371 0.57817 0.0
C1229 C 0.2673 0.42941 0.56994 0.0
C1230 C 0.2893 0.44681 0.58467 0.0
C1231 C 0.45224 0.51089 0.60313 0.0
C1232 C 0.45001 0.52003 0.57704 0.0
C1233 C 0.42751 0.49986 0.61822 0.0
C1234 C 0.39973 0.4986 0.60819 0.0
C1235 C 0.39775 0.50818 0.58218 0.0
C1236 C 0.42241 0.5184 0.56678 0.0
C1237 C 0.37275 0.48661 0.62401 0.0
C1238 C 0.34936 0.46938 0.61035 0.0
C1239 C 0.36978 0.49159 0.65228 0.0
C1240 C 0.39248 0.51037 0.66825 0.0
C1241 C 0.40222 0.53658 0.66076 0.0
C1242 C 0.42411 0.55403 0.67557 0.0
C1243 C 0.43627 0.54552 0.69803 0.0
C1244 C 0.42648 0.51958 0.7058 0.0
C1245 C 0.4046 0.50206 0.69106 0.0
H1246 H 0.45324 0.55904 0.70944 0.0
H1247 H 0.23966 0.39029 0.56678 0.0
H1248 H 0.74088 0.74536 0.89122 0.0
H1249 H 0.77062 0.71678 0.90574 0.0
H1250 H 0.84486 0.78283 0.90845 0.0
H1251 H 0.81542 0.81141 0.89437 0.0
H1252 H 0.85634 0.74 0.88294 0.0
H1253 H 0.811 0.76014 0.96582 0.0
H1254 H 0.76979 0.76177 0.99495 0.0
H1255 H 0.73867 0.67796 0.98633 0.0
H1256 H 0.77953 0.67588 0.95683 0.0
H1257 H 0.95692 0.70335 0.96668 0.0
H1258 H 0.92281 0.72331 0.94475 0.0
H1259 H 0.85683 0.65115 0.95038 0.0
H1260 H 0.89093 0.63101 0.97233 0.0
H1261 H 0.83771 0.6919 0.96808 0.0
H1262 H 0.88585 0.6711 0.8892 0.0
H1263 H 0.9271 0.66931 0.86022 0.0
H1264 H 0.9528 0.75353 0.86071 0.0
H1265 H 0.91192 0.75584 0.89003 0.0
C1266 C 0.76349 0.75379 0.89514 0.0
C1267 C 0.77581 0.78062 0.89149 0.0
C1268 C 0.78046 0.73744 0.90333 0.0
C1269 C 0.80996 0.74771 0.90815 0.0
C1270 C 0.82221 0.77446 0.90459 0.0
C1271 C 0.80533 0.79075 0.89648 0.0
C1272 C 0.8283 0.73086 0.91715 0.0
C1273 C 0.8524 0.7296 0.90164 0.0
C1274 C 0.82262 0.71665 0.9411 0.0
C1275 C 0.79811 0.71789 0.95886 0.0
C1276 C 0.79523 0.74209 0.96995 0.0
C1277 C 0.77197 0.74309 0.98656 0.0
C1278 C 0.75157 0.71999 0.99242 0.0
C1279 C 0.75445 0.69584 0.98173 0.0
C1280 C 0.77766 0.69473 0.96507 0.0
C1281 C 0.93532 0.69155 0.96276 0.0
C1282 C 0.92663 0.66561 0.97127 0.0
C1283 C 0.91581 0.70299 0.95024 0.0
C1284 C 0.8873 0.68866 0.94573 0.0
C1285 C 0.8787 0.66258 0.9537 0.0
C1286 C 0.89819 0.65114 0.96628 0.0
C1287 C 0.86616 0.70146 0.93415 0.0
C1288 C 0.8415 0.70196 0.94916 0.0
C1289 C 0.8713 0.71492 0.9097 0.0
C1290 C 0.89591 0.71364 0.892 0.0
C1291 C 0.90041 0.68925 0.88331 0.0
C1292 C 0.92371 0.68814 0.86679 0.0
C1293 C 0.94259 0.71129 0.85868 0.0
C1294 C 0.93817 0.73561 0.86703 0.0
C1295 C 0.91491 0.73683 0.88357 0.0
H1296 H 0.96062 0.71039 0.84588 0.0
H1297 H 0.73358 0.7208 1.00529 0.0
H1298 H 0.44501 0.79514 0.20115 0.0
H1299 H 0.46564 0.83723 0.18088 0.0
H1300 H 0.38091 0.84596 0.16468 0.0
H1301 H 0.36002 0.80408 0.18538 0.0
H1302 H 0.41334 0.86186 0.12199 0.0
H1303 H 0.42523 0.88218 0.21683 0.0
H1304 H 0.44016 0.8777 0.2637 0.0
H1305 H 0.52799 0.89242 0.23862 0.0
H1306 H 0.51352 0.89664 0.1915 0.0
H1307 H 0.46356 0.9995 0.09023 0.0
H1308 H 0.43922 0.95801 0.11111 0.0
H1309 H 0.52112 0.94213 0.12595 0.0
H1310 H 0.54523 0.98306 0.10503 0.0
H1311 H 0.4882 0.93075 0.16997 0.0
H1312 H 0.47572 0.90962 0.07481 0.0
H1313 H 0.46055 0.91493 0.02823 0.0
H1314 H 0.37327 0.90254 0.05439 0.0
H1315 H 0.38801 0.89755 0.10125 0.0
C1316 C 0.43054 0.80601 0.19371 0.0
C1317 C 0.40053 0.7956 0.19532 0.0
C1318 C 0.44253 0.83034 0.18189 0.0
C1319 C 0.4251 0.84546 0.17122 0.0
C1320 C 0.39517 0.83504 0.17251 0.0
C1321 C 0.38314 0.81074 0.18441 0.0
C1322 C 0.43802 0.87192 0.15887 0.0
C1323 C 0.42939 0.87698 0.13278 0.0
C1324 C 0.45945 0.89202 0.17231 0.0
C1325 C 0.46825 0.88946 0.20059 0.0
C1326 C 0.4477 0.88425 0.22127 0.0
C1327 C 0.45609 0.8818 0.24789 0.0
C1328 C 0.485 0.8847 0.25412 0.0
C1329 C 0.50559 0.89013 0.23375 0.0
C1330 C 0.49732 0.89258 0.20709 0.0
C1331 C 0.47637 0.98716 0.09794 0.0
C1332 C 0.5065 0.9949 0.09583 0.0
C1333 C 0.46239 0.96326 0.10986 0.0
C1334 C 0.47811 0.94642 0.12026 0.0
C1335 C 0.50819 0.95442 0.11834 0.0
C1336 C 0.52206 0.97801 0.10619 0.0
C1337 C 0.46367 0.92059 0.13307 0.0
C1338 C 0.47206 0.91565 0.15924 0.0
C1339 C 0.44198 0.90069 0.11975 0.0
C1340 C 0.43302 0.90352 0.0916 0.0
C1341 C 0.45333 0.90824 0.07068 0.0
C1342 C 0.4448 0.91116 0.04422 0.0
C1343 C 0.41598 0.90916 0.03837 0.0
C1344 C 0.3956 0.90414 0.05896 0.0
C1345 C 0.40402 0.90126 0.08547 0.0
H1346 H 0.40942 0.91143 0.01787 0.0
H1347 H 0.49145 0.8828 0.27474 0.0
H1348 H 0.17898 0.35178 0.64298 0.0
H1349 H 0.15948 0.30897 0.62011 0.0
H1350 H 0.12668 0.27679 0.69605 0.0
H1351 H 0.14715 0.31917 0.71923 0.0
H1352 H 0.14772 0.24217 0.66965 0.0
H1353 H 0.08322 0.29373 0.64448 0.0
H1354 H 0.07004 0.33166 0.6254 0.0
H1355 H 0.10423 0.31469 0.54835 0.0
H1356 H 0.11793 0.27684 0.56709 0.0
H1357 H 0.05275 0.12373 0.61972 0.0
H1358 H 0.07424 0.16694 0.64064 0.0
H1359 H 0.10153 0.19655 0.56222 0.0
H1360 H 0.07888 0.1534 0.541 0.0
H1361 H 0.08492 0.23284 0.58871 0.0
H1362 H 0.14819 0.1805 0.61321 0.0
H1363 H 0.16143 0.14258 0.63212 0.0
H1364 H 0.13072 0.16116 0.71017 0.0
H1365 H 0.11676 0.19897 0.69164 0.0
C1366 C 0.1679 0.33561 0.65499 0.0
C1367 C 0.16469 0.33941 0.68317 0.0
C1368 C 0.15635 0.31101 0.64171 0.0
C1369 C 0.14098 0.28934 0.65607 0.0
C1370 C 0.13819 0.29297 0.68424 0.0
C1371 C 0.14976 0.3175 0.69752 0.0
C1372 C 0.12797 0.26295 0.64199 0.0
C1373 C 0.1337 0.24019 0.65215 0.0
C1374 C 0.11021 0.25997 0.61859 0.0
C1375 C 0.10185 0.28262 0.60726 0.0
C1376 C 0.0881 0.2982 0.62352 0.0
C1377 C 0.08051 0.31967 0.61276 0.0
C1378 C 0.08637 0.32563 0.5857 0.0
C1379 C 0.09975 0.31008 0.56932 0.0
C1380 C 0.10741 0.2886 0.57999 0.0
C1381 C 0.06339 0.13935 0.60682 0.0
C1382 C 0.06414 0.13475 0.57855 0.0
C1383 C 0.07594 0.16423 0.61892 0.0
C1384 C 0.09034 0.18534 0.60332 0.0
C1385 C 0.0908 0.18086 0.57499 0.0
C1386 C 0.07786 0.156 0.5628 0.0
C1387 C 0.1045 0.21196 0.61648 0.0
C1388 C 0.099 0.23477 0.60615 0.0
C1389 C 0.12258 0.21501 0.6397 0.0
C1390 C 0.1312 0.19244 0.65096 0.0
C1391 C 0.14409 0.17642 0.63437 0.0
C1392 C 0.15175 0.15494 0.64503 0.0
C1393 C 0.14691 0.14943 0.67231 0.0
C1394 C 0.13444 0.16543 0.68903 0.0
C1395 C 0.12665 0.18689 0.67846 0.0
H1396 H 0.15287 0.13279 0.68049 0.0
H1397 H 0.08048 0.34226 0.57741 0.0
H1398 H 0.74647 0.30707 0.52144 0.0
H1399 H 0.70857 0.32851 0.53425 0.0
H1400 H 0.64454 0.25653 0.51463 0.0
H1401 H 0.68273 0.23524 0.5013 0.0
H1402 H 0.63169 0.29675 0.4922 0.0
H1403 H 0.6562 0.27916 0.58078 0.0
H1404 H 0.68754 0.27684 0.61942 0.0
H1405 H 0.71856 0.36081 0.6227 0.0
H1406 H 0.68776 0.36364 0.58381 0.0
H1407 H 0.53583 0.37617 0.52726 0.0
H1408 H 0.558 0.33952 0.53337 0.0
H1409 H 0.64132 0.39428 0.53929 0.0
H1410 H 0.61935 0.43069 0.53303 0.0
H1411 H 0.63393 0.35302 0.57554 0.0
H1412 H 0.61891 0.36771 0.48009 0.0
H1413 H 0.58881 0.3704 0.44058 0.0
H1414 H 0.54032 0.29098 0.45076 0.0
H1415 H 0.56991 0.28799 0.49062 0.0
C1416 C 0.72427 0.29589 0.52014 0.0
C1417 C 0.71716 0.26973 0.51051 0.0
C1418 C 0.70269 0.30799 0.52767 0.0
C1419 C 0.67374 0.29395 0.52588 0.0
C1420 C 0.66674 0.2676 0.51639 0.0
C1421 C 0.68841 0.25552 0.50878 0.0
C1422 C 0.65104 0.30772 0.53163 0.0
C1423 C 0.6316 0.30842 0.51079 0.0
C1424 C 0.6511 0.32312 0.55578 0.0
C1425 C 0.66969 0.32159 0.57927 0.0
C1426 C 0.66983 0.29713 0.58961 0.0
C1427 C 0.6875 0.29573 0.61159 0.0
C1428 C 0.70505 0.31866 0.62349 0.0
C1429 C 0.70494 0.34306 0.61347 0.0
C1430 C 0.68734 0.34458 0.59148 0.0
C1431 C 0.55879 0.38028 0.53043 0.0
C1432 C 0.57604 0.40604 0.5294 0.0
C1433 C 0.57137 0.35944 0.53389 0.0
C1434 C 0.60125 0.3643 0.53664 0.0
C1435 C 0.61821 0.3902 0.53729 0.0
C1436 C 0.60573 0.41091 0.53351 0.0
C1437 C 0.61556 0.34264 0.53577 0.0
C1438 C 0.63341 0.34054 0.55745 0.0
C1439 C 0.61408 0.32592 0.51243 0.0
C1440 C 0.5963 0.32776 0.48854 0.0
C1441 C 0.60164 0.35092 0.47406 0.0
C1442 C 0.58472 0.35248 0.45158 0.0
C1443 C 0.56259 0.33091 0.44323 0.0
C1444 C 0.5574 0.3077 0.4573 0.0
C1445 C 0.57422 0.30606 0.47984 0.0
H1446 H 0.54953 0.33214 0.4258 0.0
H1447 H 0.71871 0.31753 0.6405 0.0
loop_
_geom_bond_atom_site_label_1
_geom_bond_atom_site_label_2
_geom_bond_distance
_geom_bond_site_symmetry_2
_ccdc_geom_bond_type
H0 C3 0.929 . S
H1 C6 0.929 . S
H2 C8 0.930 . S
C3 H0 0.929 . S
C3 C4 1.398 . S
C3 C5 1.396 . S
C4 C3 1.398 . S
C4 C8 1.407 . S
C5 C3 1.396 . S
C5 C6 1.394 . S
C6 H1 0.929 . S
C6 C5 1.394 . S
C6 C7 1.382 . S
C7 C6 1.382 . S
C7 C8 1.392 . S
C7 N9 1.420 . S
C8 H2 0.930 . S
C8 C4 1.407 . S
C8 C7 1.392 . S
N9 C7 1.420 . S
N9 C10 1.244 . S
C10 N9 1.244 . S
H11 C14 0.929 . S
H12 C17 0.929 . S
H13 C19 0.930 . S
C14 H11 0.929 . S
C14 C15 1.398 . S
C14 C16 1.396 . S
C15 C14 1.398 . S
C15 C19 1.407 . S
C16 C14 1.396 . S
C16 C17 1.394 . S
C17 H12 0.929 . S
C17 C16 1.394 . S
C17 C18 1.382 . S
C18 C17 1.382 . S
C18 C19 1.392 . S
C18 N20 1.420 . S
C19 H13 0.930 . S
C19 C15 1.407 . S
C19 C18 1.392 . S
N20 C18 1.420 . S
N20 C21 1.244 . S
C21 N20 1.244 . S
H22 C25 0.929 . S
H23 C28 0.929 . S
H24 C30 0.930 . S
C25 H22 0.929 . S
C25 C26 1.398 . S
C25 C27 1.396 . S
C26 C25 1.398 . S
C26 C30 1.407 . S
C27 C25 1.396 . S
C27 C28 1.394 . S
C28 H23 0.929 . S
C28 C27 1.394 . S
C28 C29 1.382 . S
C29 C28 1.382 . S
C29 C30 1.392 . S
C29 N31 1.420 . S
C30 H24 0.930 . S
C30 C26 1.407 . S
C30 C29 1.392 . S
N31 C29 1.420 . S
N31 C32 1.244 . S
C32 N31 1.244 . S
H33 C36 0.929 . S
H34 C39 0.929 . S
H35 C41 0.930 . S
C36 H33 0.929 . S
C36 C37 1.398 . S
C36 C38 1.396 . S
C37 C36 1.398 . S
C37 C41 1.407 . S
C38 C36 1.396 . S
C38 C39 1.394 . S
C39 H34 0.929 . S
C39 C38 1.394 . S
C39 C40 1.382 . S
C40 C39 1.382 . S
C40 C41 1.392 . S
C40 N42 1.420 . S
C41 H35 0.930 . S
C41 C37 1.407 . S
C41 C40 1.392 . S
N42 C40 1.420 . S
N42 C43 1.244 . S
C43 N42 1.244 . S
H44 C47 0.929 . S
H45 C50 0.929 . S
H46 C52 0.930 . S
C47 H44 0.929 . S
C47 C48 1.398 . S
C47 C49 1.396 . S
C48 C47 1.398 . S
C48 C52 1.407 . S
C49 C47 1.396 . S
C49 C50 1.394 . S
C50 H45 0.929 . S
C50 C49 1.394 . S
C50 C51 1.382 . S
C51 C50 1.382 . S
C51 C52 1.392 . S
C51 N53 1.420 . S
C52 H46 0.930 . S
C52 C48 1.407 . S
C52 C51 1.392 . S
N53 C51 1.420 . S
N53 C54 1.244 . S
C54 N53 1.244 . S
H55 C58 0.929 . S
H56 C61 0.929 . S
H57 C63 0.930 . S
C58 H55 0.929 . S
C58 C59 1.398 . S
C58 C60 1.396 . S
C59 C58 1.398 . S
C59 C63 1.407 . S
C60 C58 1.396 . S
C60 C61 1.394 . S
C61 H56 0.929 . S
C61 C60 1.394 . S
C61 C62 1.382 . S
C62 C61 1.382 . S
C62 C63 1.392 . S
C62 N64 1.420 . S
C63 H57 0.930 . S
C63 C59 1.407 . S
C63 C62 1.392 . S
N64 C62 1.420 . S
N64 C65 1.244 . S
C65 N64 1.244 . S
H66 C69 0.929 . S
H67 C72 0.929 . S
H68 C74 0.930 . S
C69 H66 0.929 . S
C69 C70 1.398 . S
C69 C71 1.396 . S
C70 C69 1.398 . S
C70 C74 1.407 . S
C71 C69 1.396 . S
C71 C72 1.394 . S
C72 H67 0.929 . S
C72 C71 1.394 . S
C72 C73 1.382 . S
C73 C72 1.382 . S
C73 C74 1.392 . S
C73 N75 1.420 . S
C74 H68 0.930 . S
C74 C70 1.407 . S
C74 C73 1.392 . S
N75 C73 1.420 . S
N75 C76 1.244 . S
C76 N75 1.244 . S
H77 C80 0.929 . S
H78 C83 0.929 . S
H79 C85 0.930 . S
C80 H77 0.929 . S
C80 C81 1.398 . S
C80 C82 1.396 . S
C81 C80 1.398 . S
C81 C85 1.407 . S
C82 C80 1.396 . S
C82 C83 1.394 . S
C83 H78 0.929 . S
C83 C82 1.394 . S
C83 C84 1.382 . S
C84 C83 1.382 . S
C84 C85 1.392 . S
C84 N86 1.420 . S
C85 H79 0.930 . S
C85 C81 1.407 . S
C85 C84 1.392 . S
N86 C84 1.420 . S
N86 C87 1.244 . S
C87 N86 1.244 . S
La88 C90 2.928 . S
La88 O108 2.521 . S
La88 O109 2.628 . S
La88 O110 2.554 . S
La88 O111 2.757 . S
La88 O112 2.470 . S
La88 O117 2.482 1_455 S
La88 O119 2.503 1_545 S
La89 C99 2.928 1_545 S
La89 O111 2.482 1_655 S
La89 O113 2.503 1_655 S
La89 O114 2.521 1_545 S
La89 O115 2.628 1_545 S
La89 O116 2.554 . S
La89 O117 2.757 . S
La89 O118 2.470 1_545 S
C90 La88 2.928 . S
C90 C91 1.503 . S
C90 O108 1.261 . S
C90 O109 1.243 . S
C91 C90 1.503 . S
C91 C92 1.394 . S
C91 C96 1.373 . S
C92 C91 1.394 . S
C92 C93 1.380 . S
C92 H120 0.930 . S
C93 C92 1.380 . S
C93 C94 1.376 . S
C93 H121 0.930 . S
C94 C93 1.376 . S
C94 C95 1.370 . S
C95 C94 1.370 . S
C95 C96 1.396 . S
C95 H122 0.929 . S
C96 C91 1.373 . S
C96 C95 1.396 . S
C96 H123 0.929 . S
C97 O110 1.240 . S
C97 O111 1.289 . S
C98 O112 1.258 . S
C98 O113 1.256 . S
C99 La89 2.928 1_565 S
C99 C100 1.503 . S
C99 O114 1.261 . S
C99 O115 1.243 . S
C100 C99 1.503 . S
C100 C101 1.394 . S
C100 C105 1.373 . S
C101 C100 1.394 . S
C101 C102 1.380 . S
C101 H124 0.930 . S
C102 C101 1.380 . S
C102 C103 1.376 . S
C102 H125 0.930 . S
C103 C102 1.376 . S
C103 C104 1.370 . S
C104 C103 1.370 . S
C104 C105 1.396 . S
C104 H126 0.929 . S
C105 C100 1.373 . S
C105 C104 1.396 . S
C105 H127 0.929 . S
C106 O116 1.240 . S
C106 O117 1.289 . S
C107 O118 1.258 . S
C107 O119 1.256 1_655 S
O108 La88 2.521 . S
O108 C90 1.261 . S
O109 La88 2.628 . S
O109 C90 1.243 . S
O110 La88 2.554 . S
O110 C97 1.240 . S
O111 La88 2.757 . S
O111 La89 2.482 1_455 S
O111 C97 1.289 . S
O112 La88 2.470 . S
O112 C98 1.258 . S
O113 La89 2.503 1_455 S
O113 C98 1.256 . S
O114 La89 2.521 1_565 S
O114 C99 1.261 . S
O115 La89 2.628 1_565 S
O115 C99 1.243 . S
O116 La89 2.554 . S
O116 C106 1.240 . S
O117 La88 2.482 1_655 S
O117 La89 2.757 . S
O117 C106 1.289 . S
O118 La89 2.470 1_565 S
O118 C107 1.258 . S
O119 La88 2.503 1_565 S
O119 C107 1.256 1_455 S
H120 C92 0.930 . S
H121 C93 0.930 . S
H122 C95 0.929 . S
H123 C96 0.929 . S
H124 C101 0.930 . S
H125 C102 0.930 . S
H126 C104 0.929 . S
H127 C105 0.929 . S
La128 C130 2.928 . S
La128 O148 2.521 . S
La128 O149 2.628 . S
La128 O150 2.554 1_545 S
La128 O151 2.757 . S
La128 O152 2.470 . S
La128 O157 2.482 . S
La128 O159 2.503 . S
La129 C139 2.928 1_544 S
La129 O151 2.482 . S
La129 O153 2.503 . S
La129 O154 2.521 1_554 S
La129 O155 2.628 1_544 S
La129 O156 2.549 1_554 S
La129 O157 2.757 . S
La129 O158 2.470 . S
C130 La128 2.928 . S
C130 C131 1.503 . S
C130 O148 1.261 . S
C130 O149 1.243 . S
C131 C130 1.503 . S
C131 C132 1.394 . S
C131 C136 1.373 . S
C132 C131 1.394 . S
C132 C133 1.380 . S
C132 H160 0.930 . S
C133 C132 1.380 . S
C133 C134 1.376 . S
C133 H161 0.930 . S
C134 C133 1.376 . S
C134 C135 1.370 . S
C135 C134 1.370 . S
C135 C136 1.396 . S
C135 H162 0.929 . S
C136 C131 1.373 . S
C136 C135 1.396 . S
C136 H163 0.929 . S
C137 O150 1.240 . S
C137 O151 1.289 1_565 S
C138 O152 1.258 . S
C138 O153 1.256 . S
C139 La129 2.928 1_566 S
C139 C140 1.503 . S
C139 O154 1.261 1_565 S
C139 O155 1.243 . S
C140 C139 1.503 . S
C140 C141 1.394 . S
C140 C145 1.373 . S
C141 C140 1.394 . S
C141 C142 1.380 . S
C141 H164 0.930 1_565 S
C142 C141 1.380 . S
C142 C143 1.376 . S
C142 H165 0.930 . S
C143 C142 1.376 . S
C143 C144 1.370 . S
C144 C143 1.370 . S
C144 C145 1.396 . S
C144 H166 0.929 . S
C145 C140 1.373 . S
C145 C144 1.396 . S
C145 H167 0.929 . S
C146 O156 1.233 1_554 S
C146 O157 1.289 . S
C147 O158 1.259 1_565 S
C147 O159 1.256 1_565 S
O148 La128 2.521 . S
O148 C130 1.261 . S
O149 La128 2.628 . S
O149 C130 1.243 . S
O150 La128 2.554 1_565 S
O150 C137 1.240 . S
O151 La128 2.757 . S
O151 La129 2.482 . S
O151 C137 1.289 1_545 S
O152 La128 2.470 . S
O152 C138 1.258 . S
O153 La129 2.503 . S
O153 C138 1.256 . S
O154 La129 2.521 1_556 S
O154 C139 1.261 1_545 S
O155 La129 2.628 1_566 S
O155 C139 1.243 . S
O156 La129 2.549 1_556 S
O156 C146 1.233 1_556 S
O157 La128 2.482 . S
O157 La129 2.757 . S
O157 C146 1.289 . S
O158 La129 2.470 . S
O158 C147 1.259 1_545 S
O159 La128 2.503 . S
O159 C147 1.256 1_545 S
H160 C132 0.930 . S
H161 C133 0.930 . S
H162 C135 0.929 . S
H163 C136 0.929 . S
H164 C141 0.930 1_545 S
H165 C142 0.930 . S
H166 C144 0.929 . S
H167 C145 0.929 . S
La168 C170 2.928 . S
La168 O188 2.521 . S
La168 O189 2.628 . S
La168 O190 2.554 . S
La168 O191 2.757 . S
La168 O192 2.470 . S
La168 O197 2.482 . S
La168 O199 2.503 . S
La169 C179 2.928 . S
La169 O191 2.482 . S
La169 O193 2.503 . S
La169 O194 2.521 . S
La169 O195 2.628 . S
La169 O196 2.554 . S
La169 O197 2.757 . S
La169 O198 2.470 . S
C170 La168 2.928 . S
C170 C171 1.503 . S
C170 O188 1.261 . S
C170 O189 1.243 . S
C171 C170 1.503 . S
C171 C172 1.394 . S
C171 C176 1.373 . S
C172 C171 1.394 . S
C172 C173 1.380 . S
C172 H200 0.930 . S
C173 C172 1.380 . S
C173 C174 1.376 . S
C173 H201 0.930 . S
C174 C173 1.376 . S
C174 C175 1.370 . S
C175 C174 1.370 . S
C175 C176 1.396 . S
C175 H202 0.929 . S
C176 C171 1.373 . S
C176 C175 1.396 . S
C176 H203 0.929 . S
C177 O190 1.240 . S
C177 O191 1.289 . S
C178 O192 1.258 . S
C178 O193 1.256 . S
C179 La169 2.928 . S
C179 C180 1.503 . S
C179 O194 1.261 . S
C179 O195 1.243 . S
C180 C179 1.503 . S
C180 C181 1.394 . S
C180 C185 1.373 . S
C181 C180 1.394 . S
C181 C182 1.380 . S
C181 H204 0.930 . S
C182 C181 1.380 . S
C182 C183 1.376 . S
C182 H205 0.930 . S
C183 C182 1.376 . S
C183 C184 1.370 . S
C184 C183 1.370 . S
C184 C185 1.396 . S
C184 H206 0.929 . S
C185 C180 1.373 . S
C185 C184 1.396 . S
C185 H207 0.929 . S
C186 O196 1.240 . S
C186 O197 1.289 . S
C187 O198 1.258 . S
C187 O199 1.256 . S
O188 La168 2.521 . S
O188 C170 1.261 . S
O189 La168 2.628 . S
O189 C170 1.243 . S
O190 La168 2.554 . S
O190 C177 1.240 . S
O191 La168 2.757 . S
O191 La169 2.482 . S
O191 C177 1.289 . S
O192 La168 2.470 . S
O192 C178 1.258 . S
O193 La169 2.503 . S
O193 C178 1.256 . S
O194 La169 2.521 . S
O194 C179 1.261 . S
O195 La169 2.628 . S
O195 C179 1.243 . S
O196 La169 2.554 . S
O196 C186 1.240 . S
O197 La168 2.482 . S
O197 La169 2.757 . S
O197 C186 1.289 . S
O198 La169 2.470 . S
O198 C187 1.258 . S
O199 La168 2.503 . S
O199 C187 1.256 . S
H200 C172 0.930 . S
H201 C173 0.930 . S
H202 C175 0.929 . S
H203 C176 0.929 . S
H204 C181 0.930 . S
H205 C182 0.930 . S
H206 C184 0.929 . S
H207 C185 0.929 . S
La208 C210 2.928 . S
La208 O228 2.521 . S
La208 O229 2.628 . S
La208 O230 2.554 . S
La208 O231 2.757 . S
La208 O232 2.470 . S
La208 O237 2.482 1_554 S
La208 O239 2.503 1_455 S
La209 C219 2.928 1_455 S
La209 O231 2.482 1_556 S
La209 O233 2.503 1_556 S
La209 O234 2.521 . S
La209 O235 2.628 1_455 S
La209 O236 2.554 . S
La209 O237 2.757 . S
La209 O238 2.470 1_455 S
C210 La208 2.928 . S
C210 C211 1.503 . S
C210 O228 1.261 . S
C210 O229 1.243 . S
C211 C210 1.503 . S
C211 C212 1.394 . S
C211 C216 1.373 . S
C212 C211 1.394 . S
C212 C213 1.380 . S
C212 H240 0.930 . S
C213 C212 1.380 . S
C213 C214 1.376 . S
C213 H241 0.930 . S
C214 C213 1.376 . S
C214 C215 1.370 . S
C215 C214 1.370 . S
C215 C216 1.396 . S
C215 H242 0.929 . S
C216 C211 1.373 . S
C216 C215 1.396 . S
C216 H243 0.929 . S
C217 O230 1.240 . S
C217 O231 1.289 . S
C218 O232 1.258 . S
C218 O233 1.256 . S
C219 La209 2.928 1_655 S
C219 C220 1.503 . S
C219 O234 1.261 1_655 S
C219 O235 1.243 . S
C220 C219 1.503 . S
C220 C221 1.394 . S
C220 C225 1.373 . S
C221 C220 1.394 . S
C221 C222 1.380 . S
C221 H244 0.930 . S
C222 C221 1.380 . S
C222 C223 1.376 . S
C222 H245 0.930 . S
C223 C222 1.376 . S
C223 C224 1.370 . S
C224 C223 1.370 . S
C224 C225 1.396 . S
C224 H246 0.929 . S
C225 C220 1.373 . S
C225 C224 1.396 . S
C225 H247 0.929 . S
C226 O236 1.240 . S
C226 O237 1.289 . S
C227 O238 1.258 . S
C227 O239 1.256 1_556 S
O228 La208 2.521 . S
O228 C210 1.261 . S
O229 La208 2.628 . S
O229 C210 1.243 . S
O230 La208 2.554 . S
O230 C217 1.240 . S
O231 La208 2.757 . S
O231 La209 2.482 1_554 S
O231 C217 1.289 . S
O232 La208 2.470 . S
O232 C218 1.258 . S
O233 La209 2.503 1_554 S
O233 C218 1.256 . S
O234 La209 2.521 . S
O234 C219 1.261 1_455 S
O235 La209 2.628 1_655 S
O235 C219 1.243 . S
O236 La209 2.554 . S
O236 C226 1.240 . S
O237 La208 2.482 1_556 S
O237 La209 2.757 . S
O237 C226 1.289 . S
O238 La209 2.470 1_655 S
O238 C227 1.258 . S
O239 La208 2.503 1_655 S
O239 C227 1.256 1_554 S
H240 C212 0.930 . S
H241 C213 0.930 . S
H242 C215 0.929 . S
H243 C216 0.929 . S
H244 C221 0.930 . S
H245 C222 0.930 . S
H246 C224 0.929 . S
H247 C225 0.929 . S
H248 C266 0.951 . S
H249 C268 0.951 . S
H250 C270 0.950 . S
H251 C271 0.950 . S
H252 C273 0.950 . S
H253 C276 0.950 . S
H254 C277 0.950 . S
H255 C279 0.950 . S
H256 C280 0.950 . S
H257 C281 0.951 . S
H258 C283 0.951 . S
H259 C285 0.950 . S
H260 C286 0.950 . S
H261 C288 0.950 . S
H262 C291 0.950 . S
H263 C292 0.950 . S
H264 C294 0.950 . S
H265 C295 0.950 . S
C266 H248 0.951 . S
C266 C267 1.366 . S
C266 C268 1.388 . S
C267 C266 1.366 . S
C267 C271 1.385 . S
C268 H249 0.951 . S
C268 C266 1.388 . S
C268 C269 1.366 . S
C269 C268 1.366 . S
C269 C270 1.414 . S
C269 C272 1.499 . S
C270 H250 0.950 . S
C270 C269 1.414 . S
C270 C271 1.374 . S
C271 H251 0.950 . S
C271 C267 1.385 . S
C271 C270 1.374 . S
C272 C269 1.499 . S
C272 C273 1.373 . S
C272 C274 1.389 . S
C273 H252 0.950 . S
C273 C272 1.373 . S
C273 C289 1.377 . S
C274 C272 1.389 . S
C274 C275 1.524 . S
C274 C288 1.377 . S
C275 C274 1.524 . S
C275 C276 1.397 . S
C275 C280 1.363 . S
C276 H253 0.950 . S
C276 C275 1.397 . S
C276 C277 1.334 . S
C277 H254 0.950 . S
C277 C276 1.334 . S
C277 C278 1.287 . S
C278 C277 1.287 . S
C278 C279 1.524 . S
C278 H297 0.913 . S
C279 H255 0.950 . S
C279 C278 1.524 . S
C279 C280 1.415 . S
C280 H256 0.950 . S
C280 C275 1.363 . S
C280 C279 1.415 . S
C281 H257 0.951 . S
C281 C282 1.366 . S
C281 C283 1.388 . S
C282 C281 1.366 . S
C282 C286 1.385 . S
C283 H258 0.951 . S
C283 C281 1.388 . S
C283 C284 1.366 . S
C284 C283 1.366 . S
C284 C285 1.414 . S
C284 C287 1.499 . S
C285 H259 0.950 . S
C285 C284 1.414 . S
C285 C286 1.374 . S
C286 H260 0.950 . S
C286 C282 1.385 . S
C286 C285 1.374 . S
C287 C284 1.499 . S
C287 C288 1.373 . S
C287 C289 1.389 . S
C288 H261 0.950 . S
C288 C274 1.377 . S
C288 C287 1.373 . S
C289 C273 1.377 . S
C289 C287 1.389 . S
C289 C290 1.524 . S
C290 C289 1.524 . S
C290 C291 1.397 . S
C290 C295 1.363 . S
C291 H262 0.950 . S
C291 C290 1.397 . S
C291 C292 1.334 . S
C292 H263 0.950 . S
C292 C291 1.334 . S
C292 C293 1.287 . S
C293 C292 1.287 . S
C293 C294 1.524 . S
C293 H296 0.999 . S
C294 H264 0.950 . S
C294 C293 1.524 . S
C294 C295 1.415 . S
C295 H265 0.950 . S
C295 C290 1.363 . S
C295 C294 1.415 . S
H296 C293 0.999 . S
H297 C278 0.913 . S
H298 C316 0.951 . S
H299 C318 0.951 . S
H300 C320 0.950 . S
H301 C321 0.950 . S
H302 C323 0.950 . S
H303 C326 0.950 . S
H304 C327 0.950 . S
H305 C329 0.950 . S
H306 C330 0.950 . S
H307 C331 0.951 . S
H308 C333 0.951 . S
H309 C335 0.950 . S
H310 C336 0.950 . S
H311 C338 0.950 . S
H312 C341 0.950 . S
H313 C342 0.950 . S
H314 C344 0.950 . S
H315 C345 0.950 . S
C316 H298 0.951 . S
C316 C317 1.366 . S
C316 C318 1.388 . S
C317 C316 1.366 . S
C317 C321 1.385 . S
C318 H299 0.951 . S
C318 C316 1.388 . S
C318 C319 1.366 . S
C319 C318 1.366 . S
C319 C320 1.414 . S
C319 C322 1.499 . S
C320 H300 0.950 . S
C320 C319 1.414 . S
C320 C321 1.374 . S
C321 H301 0.950 . S
C321 C317 1.385 . S
C321 C320 1.374 . S
C322 C319 1.499 . S
C322 C323 1.373 . S
C322 C324 1.389 . S
C323 H302 0.950 . S
C323 C322 1.373 . S
C323 C339 1.377 . S
C324 C322 1.389 . S
C324 C325 1.524 . S
C324 C338 1.377 . S
C325 C324 1.524 . S
C325 C326 1.397 . S
C325 C330 1.363 . S
C326 H303 0.950 . S
C326 C325 1.397 . S
C326 C327 1.334 . S
C327 H304 0.950 . S
C327 C326 1.334 . S
C327 C328 1.287 . S
C328 C327 1.287 . S
C328 C329 1.524 . S
C328 H347 0.913 . S
C329 H305 0.950 . S
C329 C328 1.524 . S
C329 C330 1.415 . S
C330 H306 0.950 . S
C330 C325 1.363 . S
C330 C329 1.415 . S
C331 H307 0.951 . S
C331 C332 1.366 . S
C331 C333 1.388 . S
C332 C331 1.366 . S
C332 C336 1.385 . S
C333 H308 0.951 . S
C333 C331 1.388 . S
C333 C334 1.366 . S
C334 C333 1.366 . S
C334 C335 1.414 . S
C334 C337 1.499 . S
C335 H309 0.950 . S
C335 C334 1.414 . S
C335 C336 1.374 . S
C336 H310 0.950 . S
C336 C332 1.385 . S
C336 C335 1.374 . S
C337 C334 1.499 . S
C337 C338 1.373 . S
C337 C339 1.389 . S
C338 H311 0.950 . S
C338 C324 1.377 . S
C338 C337 1.373 . S
C339 C323 1.377 . S
C339 C337 1.389 . S
C339 C340 1.524 . S
C340 C339 1.524 . S
C340 C341 1.397 . S
C340 C345 1.363 . S
C341 H312 0.950 . S
C341 C340 1.397 . S
C341 C342 1.334 . S
C342 H313 0.950 . S
C342 C341 1.334 . S
C342 C343 1.287 . S
C343 C342 1.287 . S
C343 C344 1.524 . S
C343 H346 0.999 . S
C344 H314 0.950 . S
C344 C343 1.524 . S
C344 C345 1.415 . S
C345 H315 0.950 . S
C345 C340 1.363 . S
C345 C344 1.415 . S
H346 C343 0.999 . S
H347 C328 0.913 . S
H348 C366 0.951 . S
H349 C368 0.951 . S
H350 C370 0.950 . S
H351 C371 0.950 . S
H352 C373 0.950 . S
H353 C376 0.950 . S
H354 C377 0.950 . S
H355 C379 0.950 . S
H356 C380 0.950 . S
H357 C381 0.951 . S
H358 C383 0.951 . S
H359 C385 0.950 . S
H360 C386 0.950 . S
H361 C388 0.950 . S
H362 C391 0.950 . S
H363 C392 0.950 . S
H364 C394 0.950 . S
H365 C395 0.950 . S
C366 H348 0.951 . S
C366 C367 1.366 . S
C366 C368 1.388 . S
C367 C366 1.366 . S
C367 C371 1.385 . S
C368 H349 0.951 . S
C368 C366 1.388 . S
C368 C369 1.366 . S
C369 C368 1.366 . S
C369 C370 1.414 . S
C369 C372 1.499 . S
C370 H350 0.950 . S
C370 C369 1.414 . S
C370 C371 1.374 . S
C371 H351 0.950 . S
C371 C367 1.385 . S
C371 C370 1.374 . S
C372 C369 1.499 . S
C372 C373 1.373 . S
C372 C374 1.389 . S
C373 H352 0.950 . S
C373 C372 1.373 . S
C373 C389 1.377 . S
C374 C372 1.389 . S
C374 C375 1.524 . S
C374 C388 1.377 . S
C375 C374 1.524 . S
C375 C376 1.397 . S
C375 C380 1.363 . S
C376 H353 0.950 . S
C376 C375 1.397 . S
C376 C377 1.334 . S
C377 H354 0.950 . S
C377 C376 1.334 . S
C377 C378 1.287 . S
C378 C377 1.287 . S
C378 C379 1.524 . S
C378 H397 0.913 . S
C379 H355 0.950 . S
C379 C378 1.524 . S
C379 C380 1.415 . S
C380 H356 0.950 . S
C380 C375 1.363 . S
C380 C379 1.415 . S
C381 H357 0.951 . S
C381 C382 1.366 . S
C381 C383 1.388 . S
C382 C381 1.366 . S
C382 C386 1.385 . S
C383 H358 0.951 . S
C383 C381 1.388 . S
C383 C384 1.366 . S
C384 C383 1.366 . S
C384 C385 1.414 . S
C384 C387 1.499 . S
C385 H359 0.950 . S
C385 C384 1.414 . S
C385 C386 1.374 . S
C386 H360 0.950 . S
C386 C382 1.385 . S
C386 C385 1.374 . S
C387 C384 1.499 . S
C387 C388 1.373 . S
C387 C389 1.389 . S
C388 H361 0.950 . S
C388 C374 1.377 . S
C388 C387 1.373 . S
C389 C373 1.377 . S
C389 C387 1.389 . S
C389 C390 1.524 . S
C390 C389 1.524 . S
C390 C391 1.397 . S
C390 C395 1.363 . S
C391 H362 0.950 . S
C391 C390 1.397 . S
C391 C392 1.334 . S
C392 H363 0.950 . S
C392 C391 1.334 . S
C392 C393 1.287 . S
C393 C392 1.287 . S
C393 C394 1.524 . S
C393 H396 0.999 . S
C394 H364 0.950 . S
C394 C393 1.524 . S
C394 C395 1.415 . S
C395 H365 0.950 . S
C395 C390 1.363 . S
C395 C394 1.415 . S
H396 C393 0.999 . S
H397 C378 0.913 . S
H398 C416 0.951 . S
H399 C418 0.951 . S
H400 C420 0.950 . S
H401 C421 0.950 . S
H402 C423 0.950 . S
H403 C426 0.950 . S
H404 C427 0.950 . S
H405 C429 0.950 . S
H406 C430 0.950 . S
H407 C431 0.951 . S
H408 C433 0.951 . S
H409 C435 0.950 . S
H410 C436 0.950 . S
H411 C438 0.950 . S
H412 C441 0.950 . S
H413 C442 0.950 . S
H414 C444 0.950 . S
H415 C445 0.950 1_655 S
C416 H398 0.951 . S
C416 C417 1.366 . S
C416 C418 1.388 . S
C417 C416 1.366 . S
C417 C421 1.385 . S
C418 H399 0.951 . S
C418 C416 1.388 . S
C418 C419 1.366 . S
C419 C418 1.366 . S
C419 C420 1.414 . S
C419 C422 1.499 . S
C420 H400 0.950 . S
C420 C419 1.414 . S
C420 C421 1.374 . S
C421 H401 0.950 . S
C421 C417 1.385 . S
C421 C420 1.374 . S
C422 C419 1.499 . S
C422 C423 1.373 . S
C422 C424 1.389 . S
C423 H402 0.950 . S
C423 C422 1.373 . S
C423 C439 1.377 . S
C424 C422 1.389 . S
C424 C425 1.524 . S
C424 C438 1.377 . S
C425 C424 1.524 . S
C425 C426 1.397 . S
C425 C430 1.363 . S
C426 H403 0.950 . S
C426 C425 1.397 . S
C426 C427 1.334 . S
C427 H404 0.950 . S
C427 C426 1.334 . S
C427 C428 1.287 . S
C428 C427 1.287 . S
C428 C429 1.524 . S
C428 H447 0.913 . S
C429 H405 0.950 . S
C429 C428 1.524 . S
C429 C430 1.415 . S
C430 H406 0.950 . S
C430 C425 1.363 . S
C430 C429 1.415 . S
C431 H407 0.951 . S
C431 C432 1.366 . S
C431 C433 1.388 . S
C432 C431 1.366 . S
C432 C436 1.385 . S
C433 H408 0.951 . S
C433 C431 1.388 . S
C433 C434 1.366 . S
C434 C433 1.366 . S
C434 C435 1.414 . S
C434 C437 1.499 . S
C435 H409 0.950 . S
C435 C434 1.414 . S
C435 C436 1.374 . S
C436 H410 0.950 . S
C436 C432 1.385 . S
C436 C435 1.374 . S
C437 C434 1.499 . S
C437 C438 1.373 . S
C437 C439 1.389 . S
C438 H411 0.950 . S
C438 C424 1.377 . S
C438 C437 1.373 . S
C439 C423 1.377 . S
C439 C437 1.389 . S
C439 C440 1.524 . S
C440 C439 1.524 . S
C440 C441 1.397 1_655 S
C440 C445 1.363 1_655 S
C441 H412 0.950 . S
C441 C440 1.397 1_455 S
C441 C442 1.334 . S
C442 H413 0.950 . S
C442 C441 1.334 . S
C442 C443 1.287 . S
C443 C442 1.287 . S
C443 C444 1.524 . S
C443 H446 0.999 . S
C444 H414 0.950 . S
C444 C443 1.524 . S
C444 C445 1.415 . S
C445 H415 0.950 1_455 S
C445 C440 1.363 1_455 S
C445 C444 1.415 . S
H446 C443 0.999 . S
H447 C428 0.913 . S
H448 C466 0.951 . S
H449 C468 0.951 . S
H450 C470 0.950 . S
H451 C471 0.950 . S
H452 C473 0.950 . S
H453 C476 0.950 . S
H454 C477 0.950 . S
H455 C479 0.950 . S
H456 C480 0.950 . S
H457 C481 0.951 . S
H458 C483 0.951 . S
H459 C485 0.950 . S
H460 C486 0.950 . S
H461 C488 0.950 . S
H462 C491 0.950 . S
H463 C492 0.950 . S
H464 C494 0.950 . S
H465 C495 0.950 . S
C466 H448 0.951 . S
C466 C467 1.366 . S
C466 C468 1.388 . S
C467 C466 1.366 . S
C467 C471 1.385 . S
C468 H449 0.951 . S
C468 C466 1.388 . S
C468 C469 1.366 . S
C469 C468 1.366 . S
C469 C470 1.414 . S
C469 C472 1.499 . S
C470 H450 0.950 . S
C470 C469 1.414 . S
C470 C471 1.374 . S
C471 H451 0.950 . S
C471 C467 1.385 . S
C471 C470 1.374 . S
C472 C469 1.499 . S
C472 C473 1.373 . S
C472 C474 1.389 . S
C473 H452 0.950 . S
C473 C472 1.373 . S
C473 C489 1.377 . S
C474 C472 1.389 . S
C474 C475 1.524 . S
C474 C488 1.377 . S
C475 C474 1.524 . S
C475 C476 1.397 . S
C475 C480 1.363 . S
C476 H453 0.950 . S
C476 C475 1.397 . S
C476 C477 1.334 . S
C477 H454 0.950 . S
C477 C476 1.334 . S
C477 C478 1.287 . S
C478 C477 1.287 . S
C478 C479 1.524 . S
C478 H497 0.913 . S
C479 H455 0.950 . S
C479 C478 1.524 . S
C479 C480 1.415 . S
C480 H456 0.950 . S
C480 C475 1.363 . S
C480 C479 1.415 . S
C481 H457 0.951 . S
C481 C482 1.366 . S
C481 C483 1.388 . S
C482 C481 1.366 . S
C482 C486 1.385 . S
C483 H458 0.951 . S
C483 C481 1.388 . S
C483 C484 1.366 . S
C484 C483 1.366 . S
C484 C485 1.414 . S
C484 C487 1.499 . S
C485 H459 0.950 . S
C485 C484 1.414 . S
C485 C486 1.374 . S
C486 H460 0.950 . S
C486 C482 1.385 . S
C486 C485 1.374 . S
C487 C484 1.499 . S
C487 C488 1.373 . S
C487 C489 1.389 . S
C488 H461 0.950 . S
C488 C474 1.377 . S
C488 C487 1.373 . S
C489 C473 1.377 . S
C489 C487 1.389 . S
C489 C490 1.524 . S
C490 C489 1.524 . S
C490 C491 1.397 . S
C490 C495 1.363 . S
C491 H462 0.950 . S
C491 C490 1.397 . S
C491 C492 1.334 . S
C492 H463 0.950 . S
C492 C491 1.334 . S
C492 C493 1.287 . S
C493 C492 1.287 . S
C493 C494 1.524 . S
C493 H496 0.999 . S
C494 H464 0.950 . S
C494 C493 1.524 . S
C494 C495 1.415 . S
C495 H465 0.950 . S
C495 C490 1.363 . S
C495 C494 1.415 . S
H496 C493 0.999 . S
H497 C478 0.913 . S
H498 C516 0.951 . S
H499 C518 0.951 . S
H500 C520 0.950 . S
H501 C521 0.950 . S
H502 C523 0.950 . S
H503 C526 0.950 . S
H504 C527 0.950 . S
H505 C529 0.950 . S
H506 C530 0.950 . S
H507 C531 0.951 . S
H508 C533 0.951 1_545 S
H509 C535 0.950 . S
H510 C536 0.950 . S
H511 C538 0.950 . S
H512 C541 0.950 . S
H513 C542 0.950 . S
H514 C544 0.950 . S
H515 C545 0.950 . S
C516 H498 0.951 . S
C516 C517 1.366 . S
C516 C518 1.388 . S
C517 C516 1.366 . S
C517 C521 1.385 . S
C518 H499 0.951 . S
C518 C516 1.388 . S
C518 C519 1.366 . S
C519 C518 1.366 . S
C519 C520 1.414 . S
C519 C522 1.499 . S
C520 H500 0.950 . S
C520 C519 1.414 . S
C520 C521 1.374 . S
C521 H501 0.950 . S
C521 C517 1.385 . S
C521 C520 1.374 . S
C522 C519 1.499 . S
C522 C523 1.373 . S
C522 C524 1.389 . S
C523 H502 0.950 . S
C523 C522 1.373 . S
C523 C539 1.377 . S
C524 C522 1.389 . S
C524 C525 1.524 . S
C524 C538 1.377 . S
C525 C524 1.524 . S
C525 C526 1.397 . S
C525 C530 1.363 . S
C526 H503 0.950 . S
C526 C525 1.397 . S
C526 C527 1.334 . S
C527 H504 0.950 . S
C527 C526 1.334 . S
C527 C528 1.287 . S
C528 C527 1.287 . S
C528 C529 1.524 . S
C528 H547 0.913 . S
C529 H505 0.950 . S
C529 C528 1.524 . S
C529 C530 1.415 . S
C530 H506 0.950 . S
C530 C525 1.363 . S
C530 C529 1.415 . S
C531 H507 0.951 . S
C531 C532 1.366 . S
C531 C533 1.388 1_545 S
C532 C531 1.366 . S
C532 C536 1.385 1_545 S
C533 H508 0.951 1_565 S
C533 C531 1.388 1_565 S
C533 C534 1.366 . S
C534 C533 1.366 . S
C534 C535 1.414 . S
C534 C537 1.499 . S
C535 H509 0.950 . S
C535 C534 1.414 . S
C535 C536 1.374 . S
C536 H510 0.950 . S
C536 C532 1.385 1_565 S
C536 C535 1.374 . S
C537 C534 1.499 . S
C537 C538 1.373 . S
C537 C539 1.389 . S
C538 H511 0.950 . S
C538 C524 1.377 . S
C538 C537 1.373 . S
C539 C523 1.377 . S
C539 C537 1.389 . S
C539 C540 1.524 1_565 S
C540 C539 1.524 1_545 S
C540 C541 1.397 . S
C540 C545 1.363 . S
C541 H512 0.950 . S
C541 C540 1.397 . S
C541 C542 1.334 . S
C542 H513 0.950 . S
C542 C541 1.334 . S
C542 C543 1.287 . S
C543 C542 1.287 . S
C543 C544 1.524 . S
C543 H546 0.999 . S
C544 H514 0.950 . S
C544 C543 1.524 . S
C544 C545 1.415 . S
C545 H515 0.950 . S
C545 C540 1.363 . S
C545 C544 1.415 . S
H546 C543 0.999 . S
H547 C528 0.913 . S
H548 C566 0.951 . S
H549 C568 0.951 . S
H550 C570 0.950 . S
H551 C571 0.950 . S
H552 C573 0.950 . S
H553 C576 0.950 . S
H554 C577 0.950 . S
H555 C579 0.950 . S
H556 C580 0.950 . S
H557 C581 0.951 1_554 S
H558 C583 0.951 . S
H559 C585 0.950 . S
H560 C586 0.950 . S
H561 C588 0.950 . S
H562 C591 0.950 . S
H563 C592 0.950 . S
H564 C594 0.950 . S
H565 C595 0.950 . S
C566 H548 0.951 . S
C566 C567 1.366 . S
C566 C568 1.388 . S
C567 C566 1.366 . S
C567 C571 1.385 . S
C568 H549 0.951 . S
C568 C566 1.388 . S
C568 C569 1.366 . S
C569 C568 1.366 . S
C569 C570 1.414 . S
C569 C572 1.499 . S
C570 H550 0.950 . S
C570 C569 1.414 . S
C570 C571 1.374 . S
C571 H551 0.950 . S
C571 C567 1.385 . S
C571 C570 1.374 . S
C572 C569 1.499 . S
C572 C573 1.373 . S
C572 C574 1.389 . S
C573 H552 0.950 . S
C573 C572 1.373 . S
C573 C589 1.377 . S
C574 C572 1.389 . S
C574 C575 1.524 . S
C574 C588 1.377 . S
C575 C574 1.524 . S
C575 C576 1.397 . S
C575 C580 1.363 . S
C576 H553 0.950 . S
C576 C575 1.397 . S
C576 C577 1.334 . S
C577 H554 0.950 . S
C577 C576 1.334 . S
C577 C578 1.287 . S
C578 C577 1.287 . S
C578 C579 1.524 . S
C578 H597 0.913 . S
C579 H555 0.950 . S
C579 C578 1.524 . S
C579 C580 1.415 . S
C580 H556 0.950 . S
C580 C575 1.363 . S
C580 C579 1.415 . S
C581 H557 0.951 1_556 S
C581 C582 1.366 . S
C581 C583 1.388 . S
C582 C581 1.366 . S
C582 C586 1.385 . S
C583 H558 0.951 . S
C583 C581 1.388 . S
C583 C584 1.366 . S
C584 C583 1.366 . S
C584 C585 1.414 . S
C584 C587 1.499 . S
C585 H559 0.950 . S
C585 C584 1.414 . S
C585 C586 1.374 . S
C586 H560 0.950 . S
C586 C582 1.385 . S
C586 C585 1.374 . S
C587 C584 1.499 . S
C587 C588 1.373 . S
C587 C589 1.389 . S
C588 H561 0.950 . S
C588 C574 1.377 . S
C588 C587 1.373 . S
C589 C573 1.377 . S
C589 C587 1.389 . S
C589 C590 1.524 . S
C590 C589 1.524 . S
C590 C591 1.397 . S
C590 C595 1.363 . S
C591 H562 0.950 . S
C591 C590 1.397 . S
C591 C592 1.334 . S
C592 H563 0.950 . S
C592 C591 1.334 . S
C592 C593 1.287 . S
C593 C592 1.287 . S
C593 C594 1.524 1_556 S
C593 H596 0.999 1_556 S
C594 H564 0.950 . S
C594 C593 1.524 1_554 S
C594 C595 1.415 1_554 S
C595 H565 0.950 . S
C595 C590 1.363 . S
C595 C594 1.415 1_556 S
H596 C593 0.999 1_554 S
H597 C578 0.913 . S
H598 C616 0.951 . S
H599 C618 0.951 . S
H600 C620 0.950 . S
H601 C621 0.950 . S
H602 C623 0.950 . S
H603 C626 0.950 . S
H604 C627 0.950 . S
H605 C629 0.950 . S
H606 C630 0.950 . S
H607 C631 0.951 . S
H608 C633 0.951 . S
H609 C635 0.950 . S
H610 C636 0.950 . S
H611 C638 0.950 . S
H612 C641 0.950 . S
H613 C642 0.950 . S
H614 C644 0.950 . S
H615 C645 0.950 . S
C616 H598 0.951 . S
C616 C617 1.366 . S
C616 C618 1.388 . S
C617 C616 1.366 . S
C617 C621 1.385 . S
C618 H599 0.951 . S
C618 C616 1.388 . S
C618 C619 1.366 . S
C619 C618 1.366 . S
C619 C620 1.414 . S
C619 C622 1.499 . S
C620 H600 0.950 . S
C620 C619 1.414 . S
C620 C621 1.374 . S
C621 H601 0.950 . S
C621 C617 1.385 . S
C621 C620 1.374 . S
C622 C619 1.499 . S
C622 C623 1.373 . S
C622 C624 1.389 . S
C623 H602 0.950 . S
C623 C622 1.373 . S
C623 C639 1.377 . S
C624 C622 1.389 . S
C624 C625 1.524 . S
C624 C638 1.377 . S
C625 C624 1.524 . S
C625 C626 1.397 . S
C625 C630 1.363 . S
C626 H603 0.950 . S
C626 C625 1.397 . S
C626 C627 1.334 . S
C627 H604 0.950 . S
C627 C626 1.334 . S
C627 C628 1.287 . S
C628 C627 1.287 . S
C628 C629 1.524 . S
C628 H647 0.913 . S
C629 H605 0.950 . S
C629 C628 1.524 . S
C629 C630 1.415 . S
C630 H606 0.950 . S
C630 C625 1.363 . S
C630 C629 1.415 . S
C631 H607 0.951 . S
C631 C632 1.366 . S
C631 C633 1.388 . S
C632 C631 1.366 . S
C632 C636 1.385 . S
C633 H608 0.951 . S
C633 C631 1.388 . S
C633 C634 1.366 . S
C634 C633 1.366 . S
C634 C635 1.414 . S
C634 C637 1.499 . S
C635 H609 0.950 . S
C635 C634 1.414 . S
C635 C636 1.374 . S
C636 H610 0.950 . S
C636 C632 1.385 . S
C636 C635 1.374 . S
C637 C634 1.499 . S
C637 C638 1.373 . S
C637 C639 1.389 . S
C638 H611 0.950 . S
C638 C624 1.377 . S
C638 C637 1.373 . S
C639 C623 1.377 . S
C639 C637 1.389 . S
C639 C640 1.524 . S
C640 C639 1.524 . S
C640 C641 1.397 . S
C640 C645 1.363 . S
C641 H612 0.950 . S
C641 C640 1.397 . S
C641 C642 1.334 . S
C642 H613 0.950 . S
C642 C641 1.334 . S
C642 C643 1.287 . S
C643 C642 1.287 . S
C643 C644 1.524 . S
C643 H646 0.999 . S
C644 H614 0.950 . S
C644 C643 1.524 . S
C644 C645 1.415 . S
C645 H615 0.950 . S
C645 C640 1.363 . S
C645 C644 1.415 . S
H646 C643 0.999 . S
H647 C628 0.913 . S
H648 C666 0.951 . S
H649 C668 0.951 . S
H650 C670 0.950 . S
H651 C671 0.950 . S
H652 C673 0.950 . S
H653 C676 0.950 . S
H654 C677 0.950 . S
H655 C679 0.950 . S
H656 C680 0.950 . S
H657 C681 0.951 . S
H658 C683 0.951 . S
H659 C685 0.950 . S
H660 C686 0.950 . S
H661 C688 0.950 . S
H662 C691 0.950 . S
H663 C692 0.950 . S
H664 C694 0.950 . S
H665 C695 0.950 . S
C666 H648 0.951 . S
C666 C667 1.366 . S
C666 C668 1.388 . S
C667 C666 1.366 . S
C667 C671 1.385 . S
C668 H649 0.951 . S
C668 C666 1.388 . S
C668 C669 1.366 . S
C669 C668 1.366 . S
C669 C670 1.414 . S
C669 C672 1.499 . S
C670 H650 0.950 . S
C670 C669 1.414 . S
C670 C671 1.374 . S
C671 H651 0.950 . S
C671 C667 1.385 . S
C671 C670 1.374 . S
C672 C669 1.499 . S
C672 C673 1.373 . S
C672 C674 1.389 . S
C673 H652 0.950 . S
C673 C672 1.373 . S
C673 C689 1.377 . S
C674 C672 1.389 . S
C674 C675 1.524 . S
C674 C688 1.377 . S
C675 C674 1.524 . S
C675 C676 1.397 . S
C675 C680 1.363 . S
C676 H653 0.950 . S
C676 C675 1.397 . S
C676 C677 1.334 . S
C677 H654 0.950 . S
C677 C676 1.334 . S
C677 C678 1.287 . S
C678 C677 1.287 . S
C678 C679 1.524 . S
C678 H697 0.913 . S
C679 H655 0.950 . S
C679 C678 1.524 . S
C679 C680 1.415 . S
C680 H656 0.950 . S
C680 C675 1.363 . S
C680 C679 1.415 . S
C681 H657 0.951 . S
C681 C682 1.366 . S
C681 C683 1.388 . S
C682 C681 1.366 . S
C682 C686 1.385 . S
C683 H658 0.951 . S
C683 C681 1.388 . S
C683 C684 1.366 . S
C684 C683 1.366 . S
C684 C685 1.414 . S
C684 C687 1.499 . S
C685 H659 0.950 . S
C685 C684 1.414 . S
C685 C686 1.374 . S
C686 H660 0.950 . S
C686 C682 1.385 . S
C686 C685 1.374 . S
C687 C684 1.499 . S
C687 C688 1.373 . S
C687 C689 1.389 . S
C688 H661 0.950 . S
C688 C674 1.377 . S
C688 C687 1.373 . S
C689 C673 1.377 . S
C689 C687 1.389 . S
C689 C690 1.524 . S
C690 C689 1.524 . S
C690 C691 1.397 . S
C690 C695 1.363 . S
C691 H662 0.950 . S
C691 C690 1.397 . S
C691 C692 1.334 . S
C692 H663 0.950 . S
C692 C691 1.334 . S
C692 C693 1.287 . S
C693 C692 1.287 . S
C693 C694 1.524 . S
C693 H696 0.999 . S
C694 H664 0.950 . S
C694 C693 1.524 . S
C694 C695 1.415 . S
C695 H665 0.950 . S
C695 C690 1.363 . S
C695 C694 1.415 . S
H696 C693 0.999 . S
H697 C678 0.913 . S
H698 C716 0.951 . S
H699 C718 0.951 . S
H700 C720 0.950 . S
H701 C721 0.950 . S
H702 C723 0.950 . S
H703 C726 0.950 . S
H704 C727 0.947 1_554 S
H705 C729 0.949 . S
H706 C730 0.950 . S
H707 C731 0.951 . S
H708 C733 0.951 . S
H709 C735 0.950 . S
H710 C736 0.956 . S
H711 C738 0.950 . S
H712 C741 0.950 . S
H713 C742 0.950 . S
H714 C744 0.950 . S
H715 C745 0.950 . S
C716 H698 0.951 . S
C716 C717 1.366 . S
C716 C718 1.388 . S
C717 C716 1.366 . S
C717 C721 1.385 . S
C718 H699 0.951 . S
C718 C716 1.388 . S
C718 C719 1.366 . S
C719 C718 1.366 . S
C719 C720 1.414 . S
C719 C722 1.499 . S
C720 H700 0.950 . S
C720 C719 1.414 . S
C720 C721 1.374 . S
C721 H701 0.950 . S
C721 C717 1.385 . S
C721 C720 1.374 . S
C722 C719 1.499 . S
C722 C723 1.373 . S
C722 C724 1.389 . S
C723 H702 0.950 . S
C723 C722 1.373 . S
C723 C739 1.377 . S
C724 C722 1.389 . S
C724 C725 1.524 . S
C724 C738 1.377 . S
C725 C724 1.524 . S
C725 C726 1.397 . S
C725 C730 1.363 . S
C726 H703 0.950 . S
C726 C725 1.397 . S
C726 C727 1.343 . S
C727 H704 0.947 1_556 S
C727 C726 1.343 . S
C727 C728 1.282 1_556 S
C728 C727 1.282 1_554 S
C728 C729 1.524 . S
C728 H747 0.913 . S
C729 H705 0.949 . S
C729 C728 1.524 . S
C729 C730 1.415 1_554 S
C730 H706 0.950 . S
C730 C725 1.363 . S
C730 C729 1.415 1_556 S
C731 H707 0.951 . S
C731 C732 1.367 1_556 S
C731 C733 1.388 . S
C732 C731 1.367 1_554 S
C732 C736 1.385 1_554 S
C733 H708 0.951 . S
C733 C731 1.388 . S
C733 C734 1.366 . S
C734 C733 1.366 . S
C734 C735 1.414 . S
C734 C737 1.499 . S
C735 H709 0.950 . S
C735 C734 1.414 . S
C735 C736 1.374 . S
C736 H710 0.956 . S
C736 C732 1.385 1_556 S
C736 C735 1.374 . S
C737 C734 1.499 . S
C737 C738 1.373 . S
C737 C739 1.389 . S
C738 H711 0.950 . S
C738 C724 1.377 . S
C738 C737 1.373 . S
C739 C723 1.377 . S
C739 C737 1.389 . S
C739 C740 1.524 . S
C740 C739 1.524 . S
C740 C741 1.397 . S
C740 C745 1.363 . S
C741 H712 0.950 . S
C741 C740 1.397 . S
C741 C742 1.334 . S
C742 H713 0.950 . S
C742 C741 1.334 . S
C742 C743 1.287 . S
C743 C742 1.287 . S
C743 C744 1.524 . S
C743 H746 0.999 . S
C744 H714 0.950 . S
C744 C743 1.524 . S
C744 C745 1.415 . S
C745 H715 0.950 . S
C745 C740 1.363 . S
C745 C744 1.415 . S
H746 C743 0.999 . S
H747 C728 0.913 . S
H748 C766 0.951 . S
H749 C768 0.951 . S
H750 C770 0.950 . S
H751 C771 0.950 . S
H752 C773 0.950 . S
H753 C776 0.950 . S
H754 C777 0.950 . S
H755 C779 0.950 . S
H756 C780 0.950 . S
H757 C781 0.915 1_455 S
H758 C783 0.951 . S
H759 C785 0.950 . S
H760 C786 0.950 . S
H761 C788 0.950 . S
H762 C791 0.950 . S
H763 C792 0.950 . S
H764 C794 0.950 . S
H765 C795 0.950 . S
C766 H748 0.951 . S
C766 C767 1.366 . S
C766 C768 1.388 . S
C767 C766 1.366 . S
C767 C771 1.385 . S
C768 H749 0.951 . S
C768 C766 1.388 . S
C768 C769 1.366 . S
C769 C768 1.366 . S
C769 C770 1.414 . S
C769 C772 1.499 . S
C770 H750 0.950 . S
C770 C769 1.414 . S
C770 C771 1.374 . S
C771 H751 0.950 . S
C771 C767 1.385 . S
C771 C770 1.374 . S
C772 C769 1.499 . S
C772 C773 1.373 . S
C772 C774 1.389 . S
C773 H752 0.950 . S
C773 C772 1.373 . S
C773 C789 1.377 . S
C774 C772 1.389 . S
C774 C775 1.524 . S
C774 C788 1.377 . S
C775 C774 1.524 . S
C775 C776 1.397 . S
C775 C780 1.363 . S
C776 H753 0.950 . S
C776 C775 1.397 . S
C776 C777 1.334 . S
C777 H754 0.950 . S
C777 C776 1.334 . S
C777 C778 1.287 . S
C778 C777 1.287 . S
C778 C779 1.524 . S
C778 H797 0.913 . S
C779 H755 0.950 . S
C779 C778 1.524 . S
C779 C780 1.415 . S
C780 H756 0.950 . S
C780 C775 1.363 . S
C780 C779 1.415 . S
C781 H757 0.915 1_655 S
C781 C782 1.366 . S
C781 C783 1.388 . S
C782 C781 1.366 . S
C782 C786 1.385 . S
C783 H758 0.951 . S
C783 C781 1.388 . S
C783 C784 1.366 . S
C784 C783 1.366 . S
C784 C785 1.414 . S
C784 C787 1.499 . S
C785 H759 0.950 . S
C785 C784 1.414 . S
C785 C786 1.374 . S
C786 H760 0.950 . S
C786 C782 1.385 . S
C786 C785 1.374 . S
C787 C784 1.499 . S
C787 C788 1.373 . S
C787 C789 1.389 . S
C788 H761 0.950 . S
C788 C774 1.377 . S
C788 C787 1.373 . S
C789 C773 1.377 . S
C789 C787 1.389 . S
C789 C790 1.524 . S
C790 C789 1.524 . S
C790 C791 1.397 . S
C790 C795 1.363 . S
C791 H762 0.950 . S
C791 C790 1.397 . S
C791 C792 1.334 . S
C792 H763 0.950 . S
C792 C791 1.334 . S
C792 C793 1.287 1_655 S
C793 C792 1.287 1_455 S
C793 C794 1.524 . S
C793 H796 0.999 . S
C794 H764 0.950 . S
C794 C793 1.524 . S
C794 C795 1.415 1_455 S
C795 H765 0.950 . S
C795 C790 1.363 . S
C795 C794 1.415 1_655 S
H796 C793 0.999 . S
H797 C778 0.913 . S
H798 C816 0.951 . S
H799 C818 0.951 . S
H800 C820 0.950 . S
H801 C821 0.950 . S
H802 C823 0.950 . S
H803 C826 0.950 . S
H804 C827 0.950 . S
H805 C829 0.950 . S
H806 C830 0.950 . S
H807 C831 0.951 . S
H808 C833 0.951 . S
H809 C835 0.950 . S
H810 C836 0.950 . S
H811 C838 0.950 . S
H812 C841 0.950 . S
H813 C842 0.950 . S
H814 C844 0.950 . S
H815 C845 0.950 . S
C816 H798 0.951 . S
C816 C817 1.366 . S
C816 C818 1.388 . S
C817 C816 1.366 . S
C817 C821 1.385 . S
C818 H799 0.951 . S
C818 C816 1.388 . S
C818 C819 1.366 . S
C819 C818 1.366 . S
C819 C820 1.414 . S
C819 C822 1.499 . S
C820 H800 0.950 . S
C820 C819 1.414 . S
C820 C821 1.374 . S
C821 H801 0.950 . S
C821 C817 1.385 . S
C821 C820 1.374 . S
C822 C819 1.499 . S
C822 C823 1.373 . S
C822 C824 1.389 . S
C823 H802 0.950 . S
C823 C822 1.373 . S
C823 C839 1.377 . S
C824 C822 1.389 . S
C824 C825 1.524 . S
C824 C838 1.377 . S
C825 C824 1.524 . S
C825 C826 1.397 . S
C825 C830 1.363 . S
C826 H803 0.950 . S
C826 C825 1.397 . S
C826 C827 1.334 . S
C827 H804 0.950 . S
C827 C826 1.334 . S
C827 C828 1.287 . S
C828 C827 1.287 . S
C828 C829 1.524 . S
C828 H847 0.913 . S
C829 H805 0.950 . S
C829 C828 1.524 . S
C829 C830 1.415 . S
C830 H806 0.950 . S
C830 C825 1.363 . S
C830 C829 1.415 . S
C831 H807 0.951 . S
C831 C832 1.366 . S
C831 C833 1.388 . S
C832 C831 1.366 . S
C832 C836 1.385 . S
C833 H808 0.951 . S
C833 C831 1.388 . S
C833 C834 1.366 . S
C834 C833 1.366 . S
C834 C835 1.414 . S
C834 C837 1.499 . S
C835 H809 0.950 . S
C835 C834 1.414 . S
C835 C836 1.374 . S
C836 H810 0.950 . S
C836 C832 1.385 . S
C836 C835 1.374 . S
C837 C834 1.499 . S
C837 C838 1.373 . S
C837 C839 1.389 . S
C838 H811 0.950 . S
C838 C824 1.377 . S
C838 C837 1.373 . S
C839 C823 1.377 . S
C839 C837 1.389 . S
C839 C840 1.524 . S
C840 C839 1.524 . S
C840 C841 1.397 . S
C840 C845 1.363 . S
C841 H812 0.950 . S
C841 C840 1.397 . S
C841 C842 1.334 . S
C842 H813 0.950 . S
C842 C841 1.334 . S
C842 C843 1.287 . S
C843 C842 1.287 . S
C843 C844 1.524 . S
C843 H846 0.999 . S
C844 H814 0.950 . S
C844 C843 1.524 . S
C844 C845 1.415 . S
C845 H815 0.950 . S
C845 C840 1.363 . S
C845 C844 1.415 . S
H846 C843 0.999 . S
H847 C828 0.913 . S
H848 C866 0.951 . S
H849 C868 0.951 . S
H850 C870 0.950 . S
H851 C871 0.950 . S
H852 C873 0.950 . S
H853 C876 0.950 . S
H854 C877 0.950 . S
H855 C879 0.950 . S
H856 C880 0.950 . S
H857 C881 0.951 . S
H858 C883 0.951 . S
H859 C885 0.950 . S
H860 C886 0.950 . S
H861 C888 0.950 . S
H862 C891 0.950 . S
H863 C892 0.950 . S
H864 C894 0.950 . S
H865 C895 0.950 . S
C866 H848 0.951 . S
C866 C867 1.366 . S
C866 C868 1.388 . S
C867 C866 1.366 . S
C867 C871 1.385 . S
C868 H849 0.951 . S
C868 C866 1.388 . S
C868 C869 1.366 . S
C869 C868 1.366 . S
C869 C870 1.414 . S
C869 C872 1.499 . S
C870 H850 0.950 . S
C870 C869 1.414 . S
C870 C871 1.374 . S
C871 H851 0.950 . S
C871 C867 1.385 . S
C871 C870 1.374 . S
C872 C869 1.499 . S
C872 C873 1.373 . S
C872 C874 1.389 . S
C873 H852 0.950 . S
C873 C872 1.373 . S
C873 C889 1.377 . S
C874 C872 1.389 . S
C874 C875 1.524 . S
C874 C888 1.377 . S
C875 C874 1.524 . S
C875 C876 1.397 . S
C875 C880 1.363 . S
C876 H853 0.950 . S
C876 C875 1.397 . S
C876 C877 1.334 . S
C877 H854 0.950 . S
C877 C876 1.334 . S
C877 C878 1.287 . S
C878 C877 1.287 . S
C878 C879 1.524 . S
C878 H897 0.913 . S
C879 H855 0.950 . S
C879 C878 1.524 . S
C879 C880 1.415 . S
C880 H856 0.950 . S
C880 C875 1.363 . S
C880 C879 1.415 . S
C881 H857 0.951 . S
C881 C882 1.366 . S
C881 C883 1.388 . S
C882 C881 1.366 . S
C882 C886 1.385 . S
C883 H858 0.951 . S
C883 C881 1.388 . S
C883 C884 1.366 . S
C884 C883 1.366 . S
C884 C885 1.414 . S
C884 C887 1.499 . S
C885 H859 0.950 . S
C885 C884 1.414 . S
C885 C886 1.374 . S
C886 H860 0.950 . S
C886 C882 1.385 . S
C886 C885 1.374 . S
C887 C884 1.499 . S
C887 C888 1.373 . S
C887 C889 1.389 . S
C888 H861 0.950 . S
C888 C874 1.377 . S
C888 C887 1.373 . S
C889 C873 1.377 . S
C889 C887 1.389 . S
C889 C890 1.524 . S
C890 C889 1.524 . S
C890 C891 1.397 . S
C890 C895 1.363 . S
C891 H862 0.950 . S
C891 C890 1.397 . S
C891 C892 1.334 . S
C892 H863 0.950 . S
C892 C891 1.334 . S
C892 C893 1.287 . S
C893 C892 1.287 . S
C893 C894 1.524 . S
C893 H896 0.999 . S
C894 H864 0.950 . S
C894 C893 1.524 . S
C894 C895 1.415 . S
C895 H865 0.950 . S
C895 C890 1.363 . S
C895 C894 1.415 . S
H896 C893 0.999 . S
H897 C878 0.913 . S
H898 C916 0.951 . S
H899 C918 0.951 . S
H900 C920 0.950 . S
H901 C921 0.950 . S
H902 C923 0.950 . S
H903 C926 0.950 . S
H904 C927 0.950 . S
H905 C929 0.950 . S
H906 C930 0.950 . S
H907 C931 0.951 . S
H908 C933 0.951 . S
H909 C935 0.950 . S
H910 C936 0.950 . S
H911 C938 0.950 . S
H912 C941 0.950 . S
H913 C942 0.950 . S
H914 C944 0.950 . S
H915 C945 0.950 . S
C916 H898 0.951 . S
C916 C917 1.366 . S
C916 C918 1.388 . S
C917 C916 1.366 . S
C917 C921 1.385 . S
C918 H899 0.951 . S
C918 C916 1.388 . S
C918 C919 1.366 . S
C919 C918 1.366 . S
C919 C920 1.414 . S
C919 C922 1.499 . S
C920 H900 0.950 . S
C920 C919 1.414 . S
C920 C921 1.374 . S
C921 H901 0.950 . S
C921 C917 1.385 . S
C921 C920 1.374 . S
C922 C919 1.499 . S
C922 C923 1.373 . S
C922 C924 1.389 . S
C923 H902 0.950 . S
C923 C922 1.373 . S
C923 C939 1.377 . S
C924 C922 1.389 . S
C924 C925 1.524 . S
C924 C938 1.377 . S
C925 C924 1.524 . S
C925 C926 1.397 . S
C925 C930 1.363 . S
C926 H903 0.950 . S
C926 C925 1.397 . S
C926 C927 1.334 . S
C927 H904 0.950 . S
C927 C926 1.334 . S
C927 C928 1.287 . S
C928 C927 1.287 . S
C928 C929 1.524 . S
C928 H947 0.913 . S
C929 H905 0.950 . S
C929 C928 1.524 . S
C929 C930 1.415 . S
C930 H906 0.950 . S
C930 C925 1.363 . S
C930 C929 1.415 . S
C931 H907 0.951 . S
C931 C932 1.366 . S
C931 C933 1.388 . S
C932 C931 1.366 . S
C932 C936 1.385 . S
C933 H908 0.951 . S
C933 C931 1.388 . S
C933 C934 1.366 . S
C934 C933 1.366 . S
C934 C935 1.414 . S
C934 C937 1.499 . S
C935 H909 0.950 . S
C935 C934 1.414 . S
C935 C936 1.374 . S
C936 H910 0.950 . S
C936 C932 1.385 . S
C936 C935 1.374 . S
C937 C934 1.499 . S
C937 C938 1.373 . S
C937 C939 1.389 . S
C938 H911 0.950 . S
C938 C924 1.377 . S
C938 C937 1.373 . S
C939 C923 1.377 . S
C939 C937 1.389 . S
C939 C940 1.524 . S
C940 C939 1.524 . S
C940 C941 1.397 . S
C940 C945 1.363 . S
C941 H912 0.950 . S
C941 C940 1.397 . S
C941 C942 1.334 . S
C942 H913 0.950 . S
C942 C941 1.334 . S
C942 C943 1.287 . S
C943 C942 1.287 . S
C943 C944 1.524 . S
C943 H946 0.999 . S
C944 H914 0.950 . S
C944 C943 1.524 . S
C944 C945 1.415 . S
C945 H915 0.950 . S
C945 C940 1.363 . S
C945 C944 1.415 . S
H946 C943 0.999 . S
H947 C928 0.913 . S
H948 C966 0.951 . S
H949 C968 0.951 . S
H950 C970 0.950 . S
H951 C971 0.950 . S
H952 C973 0.950 . S
H953 C976 0.950 . S
H954 C977 0.950 . S
H955 C979 0.950 . S
H956 C980 0.950 . S
H957 C981 0.951 . S
H958 C983 0.951 . S
H959 C985 0.950 . S
H960 C986 0.950 . S
H961 C988 0.950 . S
H962 C991 0.950 . S
H963 C992 0.950 . S
H964 C994 0.950 . S
H965 C995 0.950 . S
C966 H948 0.951 . S
C966 C967 1.366 . S
C966 C968 1.388 . S
C967 C966 1.366 . S
C967 C971 1.385 . S
C968 H949 0.951 . S
C968 C966 1.388 . S
C968 C969 1.366 . S
C969 C968 1.366 . S
C969 C970 1.414 . S
C969 C972 1.499 . S
C970 H950 0.950 . S
C970 C969 1.414 . S
C970 C971 1.374 . S
C971 H951 0.950 . S
C971 C967 1.385 . S
C971 C970 1.374 . S
C972 C969 1.499 . S
C972 C973 1.373 . S
C972 C974 1.389 . S
C973 H952 0.950 . S
C973 C972 1.373 . S
C973 C989 1.377 . S
C974 C972 1.389 . S
C974 C975 1.524 . S
C974 C988 1.377 . S
C975 C974 1.524 . S
C975 C976 1.397 . S
C975 C980 1.363 . S
C976 H953 0.950 . S
C976 C975 1.397 . S
C976 C977 1.334 . S
C977 H954 0.950 . S
C977 C976 1.334 . S
C977 C978 1.287 . S
C978 C977 1.287 . S
C978 C979 1.524 . S
C978 H997 0.913 . S
C979 H955 0.950 . S
C979 C978 1.524 . S
C979 C980 1.415 . S
C980 H956 0.950 . S
C980 C975 1.363 . S
C980 C979 1.415 . S
C981 H957 0.951 . S
C981 C982 1.366 . S
C981 C983 1.388 . S
C982 C981 1.366 . S
C982 C986 1.385 . S
C983 H958 0.951 . S
C983 C981 1.388 . S
C983 C984 1.366 . S
C984 C983 1.366 . S
C984 C985 1.414 . S
C984 C987 1.499 . S
C985 H959 0.950 . S
C985 C984 1.414 . S
C985 C986 1.374 . S
C986 H960 0.950 . S
C986 C982 1.385 . S
C986 C985 1.374 . S
C987 C984 1.499 . S
C987 C988 1.373 . S
C987 C989 1.389 . S
C988 H961 0.950 . S
C988 C974 1.377 . S
C988 C987 1.373 . S
C989 C973 1.377 . S
C989 C987 1.389 . S
C989 C990 1.524 . S
C990 C989 1.524 . S
C990 C991 1.397 . S
C990 C995 1.363 . S
C991 H962 0.950 . S
C991 C990 1.397 . S
C991 C992 1.334 . S
C992 H963 0.950 . S
C992 C991 1.334 . S
C992 C993 1.287 . S
C993 C992 1.287 . S
C993 C994 1.524 . S
C993 H996 0.999 . S
C994 H964 0.950 . S
C994 C993 1.524 . S
C994 C995 1.415 . S
C995 H965 0.950 . S
C995 C990 1.363 . S
C995 C994 1.415 . S
H996 C993 0.999 . S
H997 C978 0.913 . S
H998 C1016 0.951 . S
H999 C1018 0.951 . S
H1000 C1020 0.950 . S
H1001 C1021 0.950 . S
H1002 C1023 0.950 . S
H1003 C1026 0.950 . S
H1004 C1027 0.950 . S
H1005 C1029 0.950 . S
H1006 C1030 0.950 . S
H1007 C1031 0.951 . S
H1008 C1033 0.951 . S
H1009 C1035 0.950 . S
H1010 C1036 0.950 . S
H1011 C1038 0.950 . S
H1012 C1041 0.950 . S
H1013 C1042 0.950 . S
H1014 C1044 0.950 . S
H1015 C1045 0.950 . S
C1016 H998 0.951 . S
C1016 C1017 1.366 . S
C1016 C1018 1.388 . S
C1017 C1016 1.366 . S
C1017 C1021 1.385 . S
C1018 H999 0.951 . S
C1018 C1016 1.388 . S
C1018 C1019 1.366 . S
C1019 C1018 1.366 . S
C1019 C1020 1.414 . S
C1019 C1022 1.499 . S
C1020 H1000 0.950 . S
C1020 C1019 1.414 . S
C1020 C1021 1.374 . S
C1021 H1001 0.950 . S
C1021 C1017 1.385 . S
C1021 C1020 1.374 . S
C1022 C1019 1.499 . S
C1022 C1023 1.373 . S
C1022 C1024 1.389 . S
C1023 H1002 0.950 . S
C1023 C1022 1.373 . S
C1023 C1039 1.377 . S
C1024 C1022 1.389 . S
C1024 C1025 1.524 . S
C1024 C1038 1.377 . S
C1025 C1024 1.524 . S
C1025 C1026 1.397 . S
C1025 C1030 1.363 . S
C1026 H1003 0.950 . S
C1026 C1025 1.397 . S
C1026 C1027 1.334 . S
C1027 H1004 0.950 . S
C1027 C1026 1.334 . S
C1027 C1028 1.287 . S
C1028 C1027 1.287 . S
C1028 C1029 1.524 . S
C1028 H1047 0.913 . S
C1029 H1005 0.950 . S
C1029 C1028 1.524 . S
C1029 C1030 1.415 . S
C1030 H1006 0.950 . S
C1030 C1025 1.363 . S
C1030 C1029 1.415 . S
C1031 H1007 0.951 . S
C1031 C1032 1.366 . S
C1031 C1033 1.388 . S
C1032 C1031 1.366 . S
C1032 C1036 1.385 . S
C1033 H1008 0.951 . S
C1033 C1031 1.388 . S
C1033 C1034 1.366 . S
C1034 C1033 1.366 . S
C1034 C1035 1.414 . S
C1034 C1037 1.499 . S
C1035 H1009 0.950 . S
C1035 C1034 1.414 . S
C1035 C1036 1.374 . S
C1036 H1010 0.950 . S
C1036 C1032 1.385 . S
C1036 C1035 1.374 . S
C1037 C1034 1.499 . S
C1037 C1038 1.373 . S
C1037 C1039 1.389 . S
C1038 H1011 0.950 . S
C1038 C1024 1.377 . S
C1038 C1037 1.373 . S
C1039 C1023 1.377 . S
C1039 C1037 1.389 . S
C1039 C1040 1.524 . S
C1040 C1039 1.524 . S
C1040 C1041 1.397 . S
C1040 C1045 1.363 . S
C1041 H1012 0.950 . S
C1041 C1040 1.397 . S
C1041 C1042 1.334 . S
C1042 H1013 0.950 . S
C1042 C1041 1.334 . S
C1042 C1043 1.287 . S
C1043 C1042 1.287 . S
C1043 C1044 1.524 . S
C1043 H1046 0.999 . S
C1044 H1014 0.950 . S
C1044 C1043 1.524 . S
C1044 C1045 1.415 . S
C1045 H1015 0.950 . S
C1045 C1040 1.363 . S
C1045 C1044 1.415 . S
H1046 C1043 0.999 . S
H1047 C1028 0.913 . S
H1048 C1066 0.951 . S
H1049 C1068 0.951 . S
H1050 C1070 0.950 . S
H1051 C1071 0.950 . S
H1052 C1073 0.950 . S
H1053 C1076 0.950 . S
H1054 C1077 0.950 . S
H1055 C1079 0.950 1_554 S
H1056 C1080 0.950 . S
H1057 C1081 0.951 . S
H1058 C1083 0.951 . S
H1059 C1085 0.950 . S
H1060 C1086 0.950 1_554 S
H1061 C1088 0.950 . S
H1062 C1091 0.950 . S
H1063 C1092 0.977 . S
H1064 C1094 0.950 . S
H1065 C1095 0.950 . S
C1066 H1048 0.951 . S
C1066 C1067 1.366 . S
C1066 C1068 1.388 . S
C1067 C1066 1.366 . S
C1067 C1071 1.385 . S
C1068 H1049 0.951 . S
C1068 C1066 1.388 . S
C1068 C1069 1.366 . S
C1069 C1068 1.366 . S
C1069 C1070 1.414 . S
C1069 C1072 1.499 . S
C1070 H1050 0.950 . S
C1070 C1069 1.414 . S
C1070 C1071 1.374 . S
C1071 H1051 0.950 . S
C1071 C1067 1.385 . S
C1071 C1070 1.374 . S
C1072 C1069 1.499 . S
C1072 C1073 1.373 . S
C1072 C1074 1.389 . S
C1073 H1052 0.950 . S
C1073 C1072 1.373 . S
C1073 C1089 1.377 . S
C1074 C1072 1.389 . S
C1074 C1075 1.524 . S
C1074 C1088 1.377 . S
C1075 C1074 1.524 . S
C1075 C1076 1.397 . S
C1075 C1080 1.363 . S
C1076 H1053 0.950 . S
C1076 C1075 1.397 . S
C1076 C1077 1.334 . S
C1077 H1054 0.950 . S
C1077 C1076 1.334 . S
C1077 C1078 1.287 . S
C1078 C1077 1.287 . S
C1078 C1079 1.524 . S
C1078 H1097 0.913 . S
C1079 H1055 0.950 1_556 S
C1079 C1078 1.524 . S
C1079 C1080 1.415 . S
C1080 H1056 0.950 . S
C1080 C1075 1.363 . S
C1080 C1079 1.415 . S
C1081 H1057 0.951 . S
C1081 C1082 1.366 . S
C1081 C1083 1.388 . S
C1082 C1081 1.366 . S
C1082 C1086 1.385 . S
C1083 H1058 0.951 . S
C1083 C1081 1.388 . S
C1083 C1084 1.366 . S
C1084 C1083 1.366 . S
C1084 C1085 1.414 . S
C1084 C1087 1.499 . S
C1085 H1059 0.950 . S
C1085 C1084 1.414 . S
C1085 C1086 1.374 . S
C1086 H1060 0.950 1_556 S
C1086 C1082 1.385 . S
C1086 C1085 1.374 . S
C1087 C1084 1.499 . S
C1087 C1088 1.373 . S
C1087 C1089 1.389 . S
C1088 H1061 0.950 . S
C1088 C1074 1.377 . S
C1088 C1087 1.373 . S
C1089 C1073 1.377 . S
C1089 C1087 1.389 . S
C1089 C1090 1.524 . S
C1090 C1089 1.524 . S
C1090 C1091 1.397 . S
C1090 C1095 1.363 . S
C1091 H1062 0.950 . S
C1091 C1090 1.397 . S
C1091 C1092 1.334 . S
C1092 H1063 0.977 . S
C1092 C1091 1.334 . S
C1092 C1093 1.287 . S
C1093 C1092 1.287 . S
C1093 C1094 1.524 . S
C1093 H1096 0.967 1_565 S
C1094 H1064 0.950 . S
C1094 C1093 1.524 . S
C1094 C1095 1.415 . S
C1095 H1065 0.950 . S
C1095 C1090 1.363 . S
C1095 C1094 1.415 . S
H1096 C1093 0.967 1_545 S
H1097 C1078 0.913 . S
H1098 C1116 0.951 . S
H1099 C1118 0.951 . S
H1100 C1120 0.950 . S
H1101 C1121 0.950 . S
H1102 C1123 0.950 . S
H1103 C1126 0.950 . S
H1104 C1127 0.950 . S
H1105 C1129 0.950 . S
H1106 C1130 0.950 . S
H1107 C1131 0.951 . S
H1108 C1133 0.951 . S
H1109 C1135 0.950 . S
H1110 C1136 0.950 . S
H1111 C1138 0.950 . S
H1112 C1141 0.950 . S
H1113 C1142 0.950 . S
H1114 C1144 0.950 . S
H1115 C1145 0.950 . S
C1116 H1098 0.951 . S
C1116 C1117 1.366 . S
C1116 C1118 1.388 . S
C1117 C1116 1.366 . S
C1117 C1121 1.385 . S
C1118 H1099 0.951 . S
C1118 C1116 1.388 . S
C1118 C1119 1.366 . S
C1119 C1118 1.366 . S
C1119 C1120 1.414 . S
C1119 C1122 1.499 . S
C1120 H1100 0.950 . S
C1120 C1119 1.414 . S
C1120 C1121 1.374 . S
C1121 H1101 0.950 . S
C1121 C1117 1.385 . S
C1121 C1120 1.374 . S
C1122 C1119 1.499 . S
C1122 C1123 1.373 . S
C1122 C1124 1.389 . S
C1123 H1102 0.950 . S
C1123 C1122 1.373 . S
C1123 C1139 1.377 . S
C1124 C1122 1.389 . S
C1124 C1125 1.524 . S
C1124 C1138 1.377 . S
C1125 C1124 1.524 . S
C1125 C1126 1.397 . S
C1125 C1130 1.363 . S
C1126 H1103 0.950 . S
C1126 C1125 1.397 . S
C1126 C1127 1.334 . S
C1127 H1104 0.950 . S
C1127 C1126 1.334 . S
C1127 C1128 1.287 . S
C1128 C1127 1.287 . S
C1128 C1129 1.524 . S
C1128 H1147 0.913 . S
C1129 H1105 0.950 . S
C1129 C1128 1.524 . S
C1129 C1130 1.415 . S
C1130 H1106 0.950 . S
C1130 C1125 1.363 . S
C1130 C1129 1.415 . S
C1131 H1107 0.951 . S
C1131 C1132 1.366 . S
C1131 C1133 1.388 . S
C1132 C1131 1.366 . S
C1132 C1136 1.385 . S
C1133 H1108 0.951 . S
C1133 C1131 1.388 . S
C1133 C1134 1.366 . S
C1134 C1133 1.366 . S
C1134 C1135 1.414 . S
C1134 C1137 1.499 . S
C1135 H1109 0.950 . S
C1135 C1134 1.414 . S
C1135 C1136 1.374 . S
C1136 H1110 0.950 . S
C1136 C1132 1.385 . S
C1136 C1135 1.374 . S
C1137 C1134 1.499 . S
C1137 C1138 1.373 . S
C1137 C1139 1.389 . S
C1138 H1111 0.950 . S
C1138 C1124 1.377 . S
C1138 C1137 1.373 . S
C1139 C1123 1.377 . S
C1139 C1137 1.389 . S
C1139 C1140 1.524 . S
C1140 C1139 1.524 . S
C1140 C1141 1.397 . S
C1140 C1145 1.363 . S
C1141 H1112 0.950 . S
C1141 C1140 1.397 . S
C1141 C1142 1.334 . S
C1142 H1113 0.950 . S
C1142 C1141 1.334 . S
C1142 C1143 1.287 . S
C1143 C1142 1.287 . S
C1143 C1144 1.524 . S
C1143 H1146 0.999 . S
C1144 H1114 0.950 . S
C1144 C1143 1.524 . S
C1144 C1145 1.415 . S
C1145 H1115 0.950 . S
C1145 C1140 1.363 . S
C1145 C1144 1.415 . S
H1146 C1143 0.999 . S
H1147 C1128 0.913 . S
H1148 C1166 0.951 . S
H1149 C1168 0.951 . S
H1150 C1170 0.950 . S
H1151 C1171 0.950 . S
H1152 C1173 0.950 . S
H1153 C1176 0.950 . S
H1154 C1177 0.950 . S
H1155 C1179 0.950 . S
H1156 C1180 0.950 . S
H1157 C1181 0.951 . S
H1158 C1183 0.951 . S
H1159 C1185 0.950 . S
H1160 C1186 0.950 . S
H1161 C1188 0.950 . S
H1162 C1191 0.950 . S
H1163 C1192 0.950 . S
H1164 C1194 0.950 . S
H1165 C1195 0.950 . S
C1166 H1148 0.951 . S
C1166 C1167 1.366 . S
C1166 C1168 1.388 . S
C1167 C1166 1.366 . S
C1167 C1171 1.385 . S
C1168 H1149 0.951 . S
C1168 C1166 1.388 . S
C1168 C1169 1.366 . S
C1169 C1168 1.366 . S
C1169 C1170 1.414 . S
C1169 C1172 1.499 . S
C1170 H1150 0.950 . S
C1170 C1169 1.414 . S
C1170 C1171 1.374 . S
C1171 H1151 0.950 . S
C1171 C1167 1.385 . S
C1171 C1170 1.374 . S
C1172 C1169 1.499 . S
C1172 C1173 1.373 . S
C1172 C1174 1.389 . S
C1173 H1152 0.950 . S
C1173 C1172 1.373 . S
C1173 C1189 1.377 . S
C1174 C1172 1.389 . S
C1174 C1175 1.524 . S
C1174 C1188 1.377 . S
C1175 C1174 1.524 . S
C1175 C1176 1.397 . S
C1175 C1180 1.363 . S
C1176 H1153 0.950 . S
C1176 C1175 1.397 . S
C1176 C1177 1.334 . S
C1177 H1154 0.950 . S
C1177 C1176 1.334 . S
C1177 C1178 1.287 . S
C1178 C1177 1.287 . S
C1178 C1179 1.524 . S
C1178 H1197 0.913 . S
C1179 H1155 0.950 . S
C1179 C1178 1.524 . S
C1179 C1180 1.415 . S
C1180 H1156 0.950 . S
C1180 C1175 1.363 . S
C1180 C1179 1.415 . S
C1181 H1157 0.951 . S
C1181 C1182 1.366 . S
C1181 C1183 1.388 . S
C1182 C1181 1.366 . S
C1182 C1186 1.385 . S
C1183 H1158 0.951 . S
C1183 C1181 1.388 . S
C1183 C1184 1.366 . S
C1184 C1183 1.366 . S
C1184 C1185 1.414 . S
C1184 C1187 1.499 . S
C1185 H1159 0.950 . S
C1185 C1184 1.414 . S
C1185 C1186 1.374 . S
C1186 H1160 0.950 . S
C1186 C1182 1.385 . S
C1186 C1185 1.374 . S
C1187 C1184 1.499 . S
C1187 C1188 1.373 . S
C1187 C1189 1.389 . S
C1188 H1161 0.950 . S
C1188 C1174 1.377 . S
C1188 C1187 1.373 . S
C1189 C1173 1.377 . S
C1189 C1187 1.389 . S
C1189 C1190 1.524 . S
C1190 C1189 1.524 . S
C1190 C1191 1.397 . S
C1190 C1195 1.363 . S
C1191 H1162 0.950 . S
C1191 C1190 1.397 . S
C1191 C1192 1.334 . S
C1192 H1163 0.950 . S
C1192 C1191 1.334 . S
C1192 C1193 1.287 . S
C1193 C1192 1.287 . S
C1193 C1194 1.524 . S
C1193 H1196 0.999 . S
C1194 H1164 0.950 . S
C1194 C1193 1.524 . S
C1194 C1195 1.415 . S
C1195 H1165 0.950 . S
C1195 C1190 1.363 . S
C1195 C1194 1.415 . S
H1196 C1193 0.999 . S
H1197 C1178 0.913 . S
H1198 C1216 0.951 . S
H1199 C1218 0.951 . S
H1200 C1220 0.950 . S
H1201 C1221 0.950 . S
H1202 C1223 0.950 . S
H1203 C1226 0.950 . S
H1204 C1227 0.950 . S
H1205 C1229 0.950 . S
H1206 C1230 0.950 . S
H1207 C1231 0.951 . S
H1208 C1233 0.951 . S
H1209 C1235 0.950 . S
H1210 C1236 0.950 . S
H1211 C1238 0.950 . S
H1212 C1241 0.950 . S
H1213 C1242 0.950 . S
H1214 C1244 0.950 . S
H1215 C1245 0.950 . S
C1216 H1198 0.951 . S
C1216 C1217 1.366 . S
C1216 C1218 1.388 . S
C1217 C1216 1.366 . S
C1217 C1221 1.385 . S
C1218 H1199 0.951 . S
C1218 C1216 1.388 . S
C1218 C1219 1.366 . S
C1219 C1218 1.366 . S
C1219 C1220 1.414 . S
C1219 C1222 1.499 . S
C1220 H1200 0.950 . S
C1220 C1219 1.414 . S
C1220 C1221 1.374 . S
C1221 H1201 0.950 . S
C1221 C1217 1.385 . S
C1221 C1220 1.374 . S
C1222 C1219 1.499 . S
C1222 C1223 1.373 . S
C1222 C1224 1.389 . S
C1223 H1202 0.950 . S
C1223 C1222 1.373 . S
C1223 C1239 1.377 . S
C1224 C1222 1.389 . S
C1224 C1225 1.524 . S
C1224 C1238 1.377 . S
C1225 C1224 1.524 . S
C1225 C1226 1.397 . S
C1225 C1230 1.363 . S
C1226 H1203 0.950 . S
C1226 C1225 1.397 . S
C1226 C1227 1.334 . S
C1227 H1204 0.950 . S
C1227 C1226 1.334 . S
C1227 C1228 1.287 . S
C1228 C1227 1.287 . S
C1228 C1229 1.524 . S
C1228 H1247 0.913 . S
C1229 H1205 0.950 . S
C1229 C1228 1.524 . S
C1229 C1230 1.415 . S
C1230 H1206 0.950 . S
C1230 C1225 1.363 . S
C1230 C1229 1.415 . S
C1231 H1207 0.951 . S
C1231 C1232 1.366 . S
C1231 C1233 1.388 . S
C1232 C1231 1.366 . S
C1232 C1236 1.385 . S
C1233 H1208 0.951 . S
C1233 C1231 1.388 . S
C1233 C1234 1.366 . S
C1234 C1233 1.366 . S
C1234 C1235 1.414 . S
C1234 C1237 1.499 . S
C1235 H1209 0.950 . S
C1235 C1234 1.414 . S
C1235 C1236 1.374 . S
C1236 H1210 0.950 . S
C1236 C1232 1.385 . S
C1236 C1235 1.374 . S
C1237 C1234 1.499 . S
C1237 C1238 1.373 . S
C1237 C1239 1.389 . S
C1238 H1211 0.950 . S
C1238 C1224 1.377 . S
C1238 C1237 1.373 . S
C1239 C1223 1.377 . S
C1239 C1237 1.389 . S
C1239 C1240 1.524 . S
C1240 C1239 1.524 . S
C1240 C1241 1.397 . S
C1240 C1245 1.363 . S
C1241 H1212 0.950 . S
C1241 C1240 1.397 . S
C1241 C1242 1.334 . S
C1242 H1213 0.950 . S
C1242 C1241 1.334 . S
C1242 C1243 1.287 . S
C1243 C1242 1.287 . S
C1243 C1244 1.524 . S
C1243 H1246 0.999 . S
C1244 H1214 0.950 . S
C1244 C1243 1.524 . S
C1244 C1245 1.415 . S
C1245 H1215 0.950 . S
C1245 C1240 1.363 . S
C1245 C1244 1.415 . S
H1246 C1243 0.999 . S
H1247 C1228 0.913 . S
H1248 C1266 0.951 . S
H1249 C1268 0.951 . S
H1250 C1270 0.950 . S
H1251 C1271 0.950 . S
H1252 C1273 0.950 . S
H1253 C1276 0.950 . S
H1254 C1277 0.950 . S
H1255 C1279 0.950 . S
H1256 C1280 0.950 . S
H1257 C1281 0.951 . S
H1258 C1283 0.951 . S
H1259 C1285 0.950 . S
H1260 C1286 0.950 . S
H1261 C1288 0.950 . S
H1262 C1291 0.950 . S
H1263 C1292 0.950 . S
H1264 C1294 0.950 . S
H1265 C1295 0.950 . S
C1266 H1248 0.951 . S
C1266 C1267 1.366 . S
C1266 C1268 1.388 . S
C1267 C1266 1.366 . S
C1267 C1271 1.385 . S
C1268 H1249 0.951 . S
C1268 C1266 1.388 . S
C1268 C1269 1.366 . S
C1269 C1268 1.366 . S
C1269 C1270 1.414 . S
C1269 C1272 1.499 . S
C1270 H1250 0.950 . S
C1270 C1269 1.414 . S
C1270 C1271 1.374 . S
C1271 H1251 0.950 . S
C1271 C1267 1.385 . S
C1271 C1270 1.374 . S
C1272 C1269 1.499 . S
C1272 C1273 1.373 . S
C1272 C1274 1.389 . S
C1273 H1252 0.950 . S
C1273 C1272 1.373 . S
C1273 C1289 1.377 . S
C1274 C1272 1.389 . S
C1274 C1275 1.524 . S
C1274 C1288 1.377 . S
C1275 C1274 1.524 . S
C1275 C1276 1.397 . S
C1275 C1280 1.363 . S
C1276 H1253 0.950 . S
C1276 C1275 1.397 . S
C1276 C1277 1.334 . S
C1277 H1254 0.950 . S
C1277 C1276 1.334 . S
C1277 C1278 1.287 . S
C1278 C1277 1.287 . S
C1278 C1279 1.524 . S
C1278 H1297 0.913 . S
C1279 H1255 0.950 . S
C1279 C1278 1.524 . S
C1279 C1280 1.415 . S
C1280 H1256 0.950 . S
C1280 C1275 1.363 . S
C1280 C1279 1.415 . S
C1281 H1257 0.951 . S
C1281 C1282 1.366 . S
C1281 C1283 1.388 . S
C1282 C1281 1.366 . S
C1282 C1286 1.385 . S
C1283 H1258 0.951 . S
C1283 C1281 1.388 . S
C1283 C1284 1.366 . S
C1284 C1283 1.366 . S
C1284 C1285 1.414 . S
C1284 C1287 1.499 . S
C1285 H1259 0.950 . S
C1285 C1284 1.414 . S
C1285 C1286 1.374 . S
C1286 H1260 0.950 . S
C1286 C1282 1.385 . S
C1286 C1285 1.374 . S
C1287 C1284 1.499 . S
C1287 C1288 1.373 . S
C1287 C1289 1.389 . S
C1288 H1261 0.950 . S
C1288 C1274 1.377 . S
C1288 C1287 1.373 . S
C1289 C1273 1.377 . S
C1289 C1287 1.389 . S
C1289 C1290 1.524 . S
C1290 C1289 1.524 . S
C1290 C1291 1.397 . S
C1290 C1295 1.363 . S
C1291 H1262 0.950 . S
C1291 C1290 1.397 . S
C1291 C1292 1.334 . S
C1292 H1263 0.950 . S
C1292 C1291 1.334 . S
C1292 C1293 1.287 . S
C1293 C1292 1.287 . S
C1293 C1294 1.524 . S
C1293 H1296 0.999 . S
C1294 H1264 0.950 . S
C1294 C1293 1.524 . S
C1294 C1295 1.415 . S
C1295 H1265 0.950 . S
C1295 C1290 1.363 . S
C1295 C1294 1.415 . S
H1296 C1293 0.999 . S
H1297 C1278 0.913 . S
H1298 C1316 0.951 . S
H1299 C1318 0.951 . S
H1300 C1320 0.950 . S
H1301 C1321 0.950 . S
H1302 C1323 0.950 . S
H1303 C1326 0.950 . S
H1304 C1327 0.950 . S
H1305 C1329 0.950 . S
H1306 C1330 0.950 . S
H1307 C1331 0.951 . S
H1308 C1333 0.951 . S
H1309 C1335 0.950 . S
H1310 C1336 0.950 . S
H1311 C1338 0.950 . S
H1312 C1341 0.950 . S
H1313 C1342 0.950 . S
H1314 C1344 0.950 . S
H1315 C1345 0.950 . S
C1316 H1298 0.951 . S
C1316 C1317 1.366 . S
C1316 C1318 1.388 . S
C1317 C1316 1.366 . S
C1317 C1321 1.385 . S
C1318 H1299 0.951 . S
C1318 C1316 1.388 . S
C1318 C1319 1.366 . S
C1319 C1318 1.366 . S
C1319 C1320 1.414 . S
C1319 C1322 1.499 . S
C1320 H1300 0.950 . S
C1320 C1319 1.414 . S
C1320 C1321 1.374 . S
C1321 H1301 0.950 . S
C1321 C1317 1.385 . S
C1321 C1320 1.374 . S
C1322 C1319 1.499 . S
C1322 C1323 1.373 . S
C1322 C1324 1.389 . S
C1323 H1302 0.950 . S
C1323 C1322 1.373 . S
C1323 C1339 1.377 . S
C1324 C1322 1.389 . S
C1324 C1325 1.524 . S
C1324 C1338 1.377 . S
C1325 C1324 1.524 . S
C1325 C1326 1.397 . S
C1325 C1330 1.363 . S
C1326 H1303 0.950 . S
C1326 C1325 1.397 . S
C1326 C1327 1.334 . S
C1327 H1304 0.950 . S
C1327 C1326 1.334 . S
C1327 C1328 1.287 . S
C1328 C1327 1.287 . S
C1328 C1329 1.524 . S
C1328 H1347 0.913 . S
C1329 H1305 0.950 . S
C1329 C1328 1.524 . S
C1329 C1330 1.415 . S
C1330 H1306 0.950 . S
C1330 C1325 1.363 . S
C1330 C1329 1.415 . S
C1331 H1307 0.951 . S
C1331 C1332 1.366 . S
C1331 C1333 1.388 . S
C1332 C1331 1.366 . S
C1332 C1336 1.385 . S
C1333 H1308 0.951 . S
C1333 C1331 1.388 . S
C1333 C1334 1.366 . S
C1334 C1333 1.366 . S
C1334 C1335 1.414 . S
C1334 C1337 1.499 . S
C1335 H1309 0.950 . S
C1335 C1334 1.414 . S
C1335 C1336 1.374 . S
C1336 H1310 0.950 . S
C1336 C1332 1.385 . S
C1336 C1335 1.374 . S
C1337 C1334 1.499 . S
C1337 C1338 1.373 . S
C1337 C1339 1.389 . S
C1338 H1311 0.950 . S
C1338 C1324 1.377 . S
C1338 C1337 1.373 . S
C1339 C1323 1.377 . S
C1339 C1337 1.389 . S
C1339 C1340 1.524 . S
C1340 C1339 1.524 . S
C1340 C1341 1.397 . S
C1340 C1345 1.363 . S
C1341 H1312 0.950 . S
C1341 C1340 1.397 . S
C1341 C1342 1.334 . S
C1342 H1313 0.950 . S
C1342 C1341 1.334 . S
C1342 C1343 1.287 . S
C1343 C1342 1.287 . S
C1343 C1344 1.524 . S
C1343 H1346 0.999 . S
C1344 H1314 0.950 . S
C1344 C1343 1.524 . S
C1344 C1345 1.415 . S
C1345 H1315 0.950 . S
C1345 C1340 1.363 . S
C1345 C1344 1.415 . S
H1346 C1343 0.999 . S
H1347 C1328 0.913 . S
H1348 C1366 0.951 . S
H1349 C1368 0.951 . S
H1350 C1370 0.950 . S
H1351 C1371 0.950 . S
H1352 C1373 0.950 . S
H1353 C1376 0.950 . S
H1354 C1377 0.950 . S
H1355 C1379 0.950 . S
H1356 C1380 0.950 . S
H1357 C1381 0.951 . S
H1358 C1383 0.951 . S
H1359 C1385 0.950 . S
H1360 C1386 0.950 . S
H1361 C1388 0.950 . S
H1362 C1391 0.950 . S
H1363 C1392 0.950 . S
H1364 C1394 0.950 . S
H1365 C1395 0.950 . S
C1366 H1348 0.951 . S
C1366 C1367 1.366 . S
C1366 C1368 1.388 . S
C1367 C1366 1.366 . S
C1367 C1371 1.385 . S
C1368 H1349 0.951 . S
C1368 C1366 1.388 . S
C1368 C1369 1.366 . S
C1369 C1368 1.366 . S
C1369 C1370 1.414 . S
C1369 C1372 1.499 . S
C1370 H1350 0.950 . S
C1370 C1369 1.414 . S
C1370 C1371 1.374 . S
C1371 H1351 0.950 . S
C1371 C1367 1.385 . S
C1371 C1370 1.374 . S
C1372 C1369 1.499 . S
C1372 C1373 1.373 . S
C1372 C1374 1.389 . S
C1373 H1352 0.950 . S
C1373 C1372 1.373 . S
C1373 C1389 1.377 . S
C1374 C1372 1.389 . S
C1374 C1375 1.524 . S
C1374 C1388 1.377 . S
C1375 C1374 1.524 . S
C1375 C1376 1.397 . S
C1375 C1380 1.363 . S
C1376 H1353 0.950 . S
C1376 C1375 1.397 . S
C1376 C1377 1.334 . S
C1377 H1354 0.950 . S
C1377 C1376 1.334 . S
C1377 C1378 1.287 . S
C1378 C1377 1.287 . S
C1378 C1379 1.524 . S
C1378 H1397 0.913 . S
C1379 H1355 0.950 . S
C1379 C1378 1.524 . S
C1379 C1380 1.415 . S
C1380 H1356 0.950 . S
C1380 C1375 1.363 . S
C1380 C1379 1.415 . S
C1381 H1357 0.951 . S
C1381 C1382 1.366 . S
C1381 C1383 1.388 . S
C1382 C1381 1.366 . S
C1382 C1386 1.385 . S
C1383 H1358 0.951 . S
C1383 C1381 1.388 . S
C1383 C1384 1.366 . S
C1384 C1383 1.366 . S
C1384 C1385 1.414 . S
C1384 C1387 1.499 . S
C1385 H1359 0.950 . S
C1385 C1384 1.414 . S
C1385 C1386 1.374 . S
C1386 H1360 0.950 . S
C1386 C1382 1.385 . S
C1386 C1385 1.374 . S
C1387 C1384 1.499 . S
C1387 C1388 1.373 . S
C1387 C1389 1.389 . S
C1388 H1361 0.950 . S
C1388 C1374 1.377 . S
C1388 C1387 1.373 . S
C1389 C1373 1.377 . S
C1389 C1387 1.389 . S
C1389 C1390 1.524 . S
C1390 C1389 1.524 . S
C1390 C1391 1.397 . S
C1390 C1395 1.363 . S
C1391 H1362 0.950 . S
C1391 C1390 1.397 . S
C1391 C1392 1.334 . S
C1392 H1363 0.950 . S
C1392 C1391 1.334 . S
C1392 C1393 1.287 . S
C1393 C1392 1.287 . S
C1393 C1394 1.524 . S
C1393 H1396 0.999 . S
C1394 H1364 0.950 . S
C1394 C1393 1.524 . S
C1394 C1395 1.415 . S
C1395 H1365 0.950 . S
C1395 C1390 1.363 . S
C1395 C1394 1.415 . S
H1396 C1393 0.999 . S
H1397 C1378 0.913 . S
H1398 C1416 0.951 . S
H1399 C1418 0.951 . S
H1400 C1420 0.950 . S
H1401 C1421 0.950 . S
H1402 C1423 0.950 . S
H1403 C1426 0.950 . S
H1404 C1427 0.950 . S
H1405 C1429 0.950 . S
H1406 C1430 0.950 . S
H1407 C1431 0.951 . S
H1408 C1433 0.951 . S
H1409 C1435 0.950 . S
H1410 C1436 0.950 . S
H1411 C1438 0.950 . S
H1412 C1441 0.950 . S
H1413 C1442 0.950 . S
H1414 C1444 0.950 . S
H1415 C1445 0.950 . S
C1416 H1398 0.951 . S
C1416 C1417 1.366 . S
C1416 C1418 1.388 . S
C1417 C1416 1.366 . S
C1417 C1421 1.385 . S
C1418 H1399 0.951 . S
C1418 C1416 1.388 . S
C1418 C1419 1.366 . S
C1419 C1418 1.366 . S
C1419 C1420 1.414 . S
C1419 C1422 1.499 . S
C1420 H1400 0.950 . S
C1420 C1419 1.414 . S
C1420 C1421 1.374 . S
C1421 H1401 0.950 . S
C1421 C1417 1.385 . S
C1421 C1420 1.374 . S
C1422 C1419 1.499 . S
C1422 C1423 1.373 . S
C1422 C1424 1.389 . S
C1423 H1402 0.950 . S
C1423 C1422 1.373 . S
C1423 C1439 1.377 . S
C1424 C1422 1.389 . S
C1424 C1425 1.524 . S
C1424 C1438 1.377 . S
C1425 C1424 1.524 . S
C1425 C1426 1.397 . S
C1425 C1430 1.363 . S
C1426 H1403 0.950 . S
C1426 C1425 1.397 . S
C1426 C1427 1.334 . S
C1427 H1404 0.950 . S
C1427 C1426 1.334 . S
C1427 C1428 1.287 . S
C1428 C1427 1.287 . S
C1428 C1429 1.524 . S
C1428 H1447 0.913 . S
C1429 H1405 0.950 . S
C1429 C1428 1.524 . S
C1429 C1430 1.415 . S
C1430 H1406 0.950 . S
C1430 C1425 1.363 . S
C1430 C1429 1.415 . S
C1431 H1407 0.951 . S
C1431 C1432 1.366 . S
C1431 C1433 1.388 . S
C1432 C1431 1.366 . S
C1432 C1436 1.385 . S
C1433 H1408 0.951 . S
C1433 C1431 1.388 . S
C1433 C1434 1.366 . S
C1434 C1433 1.366 . S
C1434 C1435 1.414 . S
C1434 C1437 1.499 . S
C1435 H1409 0.950 . S
C1435 C1434 1.414 . S
C1435 C1436 1.374 . S
C1436 H1410 0.950 . S
C1436 C1432 1.385 . S
C1436 C1435 1.374 . S
C1437 C1434 1.499 . S
C1437 C1438 1.373 . S
C1437 C1439 1.389 . S
C1438 H1411 0.950 . S
C1438 C1424 1.377 . S
C1438 C1437 1.373 . S
C1439 C1423 1.377 . S
C1439 C1437 1.389 . S
C1439 C1440 1.524 . S
C1440 C1439 1.524 . S
C1440 C1441 1.397 . S
C1440 C1445 1.363 . S
C1441 H1412 0.950 . S
C1441 C1440 1.397 . S
C1441 C1442 1.334 . S
C1442 H1413 0.950 . S
C1442 C1441 1.334 . S
C1442 C1443 1.287 . S
C1443 C1442 1.287 . S
C1443 C1444 1.524 . S
C1443 H1446 0.999 . S
C1444 H1414 0.950 . S
C1444 C1443 1.524 . S
C1444 C1445 1.415 . S
C1445 H1415 0.950 . S
C1445 C1440 1.363 . S
C1445 C1444 1.415 . S
H1446 C1443 0.999 . S
H1447 C1428 0.913 . S
C267 C4 1.092 . S
C282 C94 1.111 . S
C317 C16 1.253 . S
C332 C143 1.259 . S
C382 C178 1.953 . S
C367 C32 1.989 . S
C417 C43 2.200 . S
C432 C217 2.143 1_655 S
C482 C138 2.794 . S
C467 C5 2.716 . S
C532 C97 0.504 . S
C517 C21 0.464 . S
C582 C227 1.797 . S
C567 C27 1.844 . S
C632 C186 1.452 . S
C617 C37 1.465 . S
C667 C10 1.493 . S
C682 C214 1.511 . S
C732 C146 2.522 . S
C717 C26 2.616 . S
C767 C38 2.045 . S
C782 C107 2.033 . S
C817 C15 0.899 . S
C832 C183 0.900 . S
C882 C103 1.329 . S
C867 C48 1.312 . S
C917 C59 0.987 . S
C932 C134 0.988 . S
C967 C76 2.448 . S
C982 C187 2.397 . S
C1017 C87 2.001 . S
C1032 C226 1.974 . S
C1067 C54 1.945 . S
C1082 C147 1.997 1_556 S
C1132 C106 1.527 . S
C1117 C60 1.585 . S
C1182 C218 1.666 . S
C1167 C71 1.706 . S
C1232 C177 1.403 . S
C1217 C82 1.455 . S
C1267 C49 1.790 . S
C1282 C223 1.858 . S
C1332 C137 1.913 . S
C1317 C70 1.994 . S
C1382 C98 2.554 . S
C1367 C81 2.575 . S
C1417 C65 0.748 . S
C1432 C174 0.749 . S
