# Generated by pormake.
# Topology pyr, (3,6)-cn, num edge types: 1
# Building blocks:
#     Node 0, Type 0, BuildingBlock: PAMTOO_clean_linker_0, # of connection points: 3
#     Node 1, Type 0, BuildingBlock: PAMTOO_clean_linker_0, # of connection points: 3
#     Node 2, Type 0, BuildingBlock: PAMTOO_clean_linker_0, # of connection points: 3
#     Node 3, Type 0, BuildingBlock: PAMTOO_clean_linker_0, # of connection points: 3
#     Node 4, Type 0, BuildingBlock: PAMTOO_clean_linker_0, # of connection points: 3
#     Node 5, Type 0, BuildingBlock: PAMTOO_clean_linker_0, # of connection points: 3
#     Node 6, Type 0, BuildingBlock: PAMTOO_clean_linker_0, # of connection points: 3
#     Node 7, Type 0, BuildingBlock: PAMTOO_clean_linker_0, # of connection points: 3
#     Node 8, Type 1, BuildingBlock: PAMTOO_clean_sbu_0, # of connection points: 6
#     Node 9, Type 1, BuildingBlock: PAMTOO_clean_sbu_0, # of connection points: 6
#     Node 10, Type 1, BuildingBlock: PAMTOO_clean_sbu_0, # of connection points: 6
#     Node 11, Type 1, BuildingBlock: PAMTOO_clean_sbu_0, # of connection points: 6
#     Edge 12, Type (0, 1), BuildingBlock: AJUNOK_clean_linker_0, # of connection points: 2
#     Edge 13, Type (0, 1), BuildingBlock: AJUNOK_clean_linker_0, # of connection points: 2
#     Edge 14, Type (0, 1), BuildingBlock: AJUNOK_clean_linker_0, # of connection points: 2
#     Edge 15, Type (0, 1), BuildingBlock: AJUNOK_clean_linker_0, # of connection points: 2
#     Edge 16, Type (0, 1), BuildingBlock: AJUNOK_clean_linker_0, # of connection points: 2
#     Edge 17, Type (0, 1), BuildingBlock: AJUNOK_clean_linker_0, # of connection points: 2
#     Edge 18, Type (0, 1), BuildingBlock: AJUNOK_clean_linker_0, # of connection points: 2
#     Edge 19, Type (0, 1), BuildingBlock: AJUNOK_clean_linker_0, # of connection points: 2
#     Edge 20, Type (0, 1), BuildingBlock: AJUNOK_clean_linker_0, # of connection points: 2
#     Edge 21, Type (0, 1), BuildingBlock: AJUNOK_clean_linker_0, # of connection points: 2
#     Edge 22, Type (0, 1), BuildingBlock: AJUNOK_clean_linker_0, # of connection points: 2
#     Edge 23, Type (0, 1), BuildingBlock: AJUNOK_clean_linker_0, # of connection points: 2
#     Edge 24, Type (0, 1), BuildingBlock: AJUNOK_clean_linker_0, # of connection points: 2
#     Edge 25, Type (0, 1), BuildingBlock: AJUNOK_clean_linker_0, # of connection points: 2
#     Edge 26, Type (0, 1), BuildingBlock: AJUNOK_clean_linker_0, # of connection points: 2
#     Edge 27, Type (0, 1), BuildingBlock: AJUNOK_clean_linker_0, # of connection points: 2
#     Edge 28, Type (0, 1), BuildingBlock: AJUNOK_clean_linker_0, # of connection points: 2
#     Edge 29, Type (0, 1), BuildingBlock: AJUNOK_clean_linker_0, # of connection points: 2
#     Edge 30, Type (0, 1), BuildingBlock: AJUNOK_clean_linker_0, # of connection points: 2
#     Edge 31, Type (0, 1), BuildingBlock: AJUNOK_clean_linker_0, # of connection points: 2
#     Edge 32, Type (0, 1), BuildingBlock: AJUNOK_clean_linker_0, # of connection points: 2
#     Edge 33, Type (0, 1), BuildingBlock: AJUNOK_clean_linker_0, # of connection points: 2
#     Edge 34, Type (0, 1), BuildingBlock: AJUNOK_clean_linker_0, # of connection points: 2
#     Edge 35, Type (0, 1), BuildingBlock: AJUNOK_clean_linker_0, # of connection points: 2
# Relax obj value: 0.240
# Max RMSD: 0.283
# Mean RMSD: 0.148
data_MOF--net-pyr--node1-PAMTOO_clean_sbu_0--node2-PAMTOO_clean_linker_0--edge1-AJUNOK_clean_linker_0
_symmetry_space_group_name_H-M    P1
_symmetry_Int_Tables_number       1
_symmetry_cell_setting            triclinic
loop_
_symmetry_equiv_pos_as_xyz
'x, y, z'
_cell_length_a     26.920061
_cell_length_b     29.099741
_cell_length_c     27.822518
_cell_angle_alpha  91.918126
_cell_angle_beta   90.309677
_cell_angle_gamma 110.74434
loop_
_atom_site_label
_atom_site_type_symbol
_atom_site_fract_x
_atom_site_fract_y
_atom_site_fract_z
_atom_type_partial_charge
H0 H 0.32019 0.31749 0.32276 0.0
H1 H 0.44331 0.26202 0.28558 0.0
H2 H 0.41469 0.36921 0.1979 0.0
H3 H 0.53294 0.3302 0.25667 0.0
C4 C 0.52336 0.32025 0.21786 0.0
O5 O 0.47049 0.31196 0.2072 0.0
H6 H 0.54821 0.35159 0.1967 0.0
C7 C 0.35307 0.31831 0.30003 0.0
C8 C 0.36443 0.34787 0.25985 0.0
C9 C 0.38162 0.28765 0.30981 0.0
C10 C 0.42228 0.28682 0.27913 0.0
C11 C 0.43514 0.31703 0.23942 0.0
C12 C 0.40634 0.34771 0.22989 0.0
H13 H 0.17106 0.87754 0.81334 0.0
H14 H 0.15791 0.84486 0.66107 0.0
H15 H 0.23901 0.77614 0.75141 0.0
H16 H 0.26075 0.84717 0.63398 0.0
C17 C 0.25195 0.80676 0.63393 0.0
O18 O 0.2095 0.78379 0.66291 0.0
H19 H 0.24054 0.79333 0.59618 0.0
C20 C 0.17737 0.85661 0.78248 0.0
C21 C 0.20508 0.82435 0.78833 0.0
C22 C 0.16111 0.86503 0.73681 0.0
C23 C 0.16996 0.83857 0.69675 0.0
C24 C 0.198 0.80655 0.7021 0.0
C25 C 0.2159 0.79972 0.74777 0.0
H26 H 0.74828 0.36353 1.00381 0.0
H27 H 0.6409 0.34366 0.88337 0.0
H28 H 0.76177 0.48508 0.91428 0.0
H29 H 0.65335 0.48213 0.88424 0.0
C30 C 0.64791 0.45702 0.85205 0.0
O31 O 0.68578 0.43472 0.85338 0.0
H32 H 0.6078 0.42824 0.85446 0.0
C33 C 0.73382 0.37882 0.97422 0.0
C34 C 0.75968 0.42861 0.96403 0.0
C35 C 0.6904 0.34769 0.94635 0.0
C36 C 0.67323 0.36717 0.90621 0.0
C37 C 0.69933 0.4168 0.89432 0.0
C38 C 0.74205 0.44714 0.92359 0.0
H39 H 0.89472 0.79975 0.52536 0.0
H40 H 0.87945 0.6814 0.42228 0.0
H41 H 1.01036 0.81856 0.41455 0.0
H42 H 0.9587 0.7627 0.3175 0.0
C43 C 0.94884 0.72465 0.33006 0.0
O44 O 0.96715 0.7271 0.37724 0.0
H45 H 0.90478 0.7071 0.32875 0.0
C46 C 0.90871 0.78528 0.49393 0.0
C47 C 0.95484 0.81565 0.47168 0.0
C48 C 0.88054 0.73688 0.47683 0.0
C49 C 0.90067 0.71811 0.437 0.0
C50 C 0.94767 0.74703 0.41461 0.0
C51 C 0.97462 0.79599 0.43204 0.0
H52 H 0.64508 0.85654 0.88561 0.0
H53 H 0.65218 0.82056 1.03298 0.0
H54 H 0.73351 0.76596 0.92642 0.0
H55 H 0.68419 0.70083 1.00209 0.0
C56 C 0.71233 0.72753 1.02808 0.0
O57 O 0.71854 0.77529 1.01818 0.0
H58 H 0.69532 0.71935 1.06445 0.0
C59 C 0.65572 0.8349 0.912 0.0
C60 C 0.68798 0.80783 0.89894 0.0
C61 C 0.64241 0.83965 0.96003 0.0
C62 C 0.65936 0.81489 0.99533 0.0
C63 C 0.69228 0.78857 0.98302 0.0
C64 C 0.70612 0.78467 0.93499 0.0
H65 H 0.01751 0.25383 0.39115 0.0
H66 H 0.90966 0.33256 0.3769 0.0
H67 H 0.9594 0.30774 0.51623 0.0
H68 H 0.85084 0.28789 0.51146 0.0
C69 C 0.84727 0.30654 0.47805 0.0
O70 O 0.89668 0.34071 0.46828 0.0
H71 H 0.83362 0.27823 0.44815 0.0
C72 C 0.99655 0.27618 0.40683 0.0
C73 C 0.99287 0.27928 0.45701 0.0
C74 C 0.96679 0.29544 0.377 0.0
C75 C 0.9365 0.32105 0.39844 0.0
C76 C 0.93441 0.32583 0.44843 0.0
C77 C 0.96406 0.30657 0.47757 0.0
H78 H 0.3817 0.78601 0.18831 0.0
H79 H 0.37384 0.67164 0.28575 0.0
H80 H 0.5023 0.81094 0.29857 0.0
H81 H 0.53156 0.72102 0.32541 0.0
C82 C 0.49141 0.6968 0.3364 0.0
O83 O 0.45781 0.72365 0.33715 0.0
H84 H 0.47707 0.6664 0.30865 0.0
C85 C 0.39829 0.77268 0.21805 0.0
C86 C 0.44539 0.80425 0.24087 0.0
C87 C 0.37149 0.72489 0.23381 0.0
C88 C 0.39336 0.70836 0.27302 0.0
C89 C 0.44039 0.73905 0.2966 0.0
C90 C 0.46661 0.7869 0.28002 0.0
H91 H 0.10128 0.35508 0.86483 0.0
H92 H 0.226 0.49688 0.85247 0.0
H93 H 0.21749 0.37991 0.75263 0.0
H94 H 0.32231 0.44339 0.80082 0.0
C95 C 0.31949 0.47767 0.78648 0.0
O96 O 0.26733 0.47151 0.77561 0.0
H97 H 0.33451 0.50671 0.81545 0.0
C98 C 0.1366 0.37868 0.84752 0.0
C99 C 0.15588 0.36065 0.80618 0.0
C100 C 0.16166 0.42826 0.86485 0.0
C101 C 0.2062 0.45893 0.84032 0.0
C102 C 0.2258 0.44125 0.80006 0.0
C103 C 0.20114 0.39259 0.7837 0.0
Dy104 Dy 0.12385 0.10273 0.62849 0.0
Dy105 Dy 1.00056 0.06754 0.66279 0.0
C106 C 0.08637 0.16717 0.70653 0.0
O107 O 0.11471 0.06626 0.69867 0.0
O108 O 0.03296 1.01049 0.6834 0.0
O109 O 0.19962 0.16045 0.6198 0.0
O110 O 0.19326 0.08432 0.61266 0.0
O111 O 0.99671 1.01828 0.59775 0.0
O112 O 0.08526 1.03169 0.58552 0.0
O113 O 1.01427 0.1317 0.61688 0.0
O114 O 0.08222 0.12661 0.56994 0.0
O115 O 0.91674 1.04758 0.64656 0.0
O116 O 0.94486 1.05071 0.72038 0.0
C117 C 0.0805 1.02155 0.70211 0.0
O118 O 0.11535 0.16747 0.6687 0.0
O119 O 0.04644 0.12733 0.71706 0.0
C120 C 0.25591 0.14218 0.56479 0.0
C121 C 0.31005 0.1752 0.47936 0.0
C122 C 0.32663 0.20262 0.52281 0.0
C123 C 0.29996 0.18603 0.56521 0.0
C124 C 0.24071 0.11342 0.522 0.0
C125 C 0.26783 0.12973 0.47963 0.0
C126 C 0.22363 0.13008 0.60805 0.0
C127 C 0.03454 1.00654 0.57658 0.0
C128 C 0.04238 0.14197 0.57767 0.0
C129 C 0.86358 0.9898 0.69965 0.0
C130 C 0.79426 0.9018 0.73593 0.0
C131 C 0.84264 0.90363 0.71581 0.0
C132 C 0.87712 0.94743 0.69764 0.0
C133 C 0.81369 0.98707 0.71606 0.0
C134 C 0.77916 0.94334 0.73405 0.0
C135 C 0.90368 1.03793 0.69119 0.0
H136 H 0.35801 0.23839 0.5236 0.0
H137 H 0.312 0.20879 0.59789 0.0
H138 H 0.20663 0.07949 0.5208 0.0
H139 H 0.25429 0.1079 0.44661 0.0
H140 H 0.85525 0.87221 0.71709 0.0
H141 H 0.9157 0.94911 0.68496 0.0
H142 H 0.80287 1.01958 0.71797 0.0
H143 H 0.74271 0.94343 0.75029 0.0
Dy144 Dy 0.50807 1.05784 1.06815 0.0
Dy145 Dy 0.63155 0.08377 0.10556 0.0
C146 C 0.53448 0.99499 0.14994 0.0
O147 O 0.5218 0.1233 0.11597 0.0
O148 O 0.60299 0.13363 0.15221 0.0
O149 O 0.42345 1.03536 0.07966 0.0
O150 O 0.45483 1.04716 1.0076 0.0
O151 O 0.63692 0.15001 1.06501 0.0
O152 O 0.5574 0.1205 1.02267 0.0
O153 O 0.61985 1.04224 1.03521 0.0
O154 O 0.53318 0.99598 1.04376 0.0
O155 O 0.71407 0.10144 0.08755 0.0
O156 O 0.6881 0.08424 0.16071 0.0
C157 C 0.56031 0.14545 0.14711 0.0
O158 O 0.50201 1.01687 0.13599 0.0
O159 O 0.58404 1.01032 0.13572 0.0
C160 C 0.37449 0.98264 1.01636 0.0
C161 C 0.30981 0.8986 0.96375 0.0
C162 C 0.3588 0.90042 0.983 0.0
C163 C 0.39086 0.94214 1.00944 0.0
C164 C 0.32402 0.97943 1.00041 0.0
C165 C 0.29177 0.93761 0.97437 0.0
C166 C 0.41248 1.03022 1.03364 0.0
C167 C 0.60473 0.15441 1.03129 0.0
C168 C 0.57989 1.0012 1.02697 0.0
C169 C 0.77543 0.13899 0.15041 0.0
C170 C 0.86309 0.20701 0.20017 0.0
C171 C 0.81457 0.21499 0.1977 0.0
C172 C 0.77096 0.18118 0.17286 0.0
C173 C 0.82478 0.13301 0.14947 0.0
C174 C 0.86842 0.16686 0.17412 0.0
C175 C 0.72839 0.09879 0.13187 0.0
H176 H 0.37364 0.87097 0.97505 0.0
H177 H 0.42981 0.94407 1.02173 0.0
H178 H 0.31099 1.01047 1.00531 0.0
H179 H 0.25468 0.93768 0.95911 0.0
H180 H 0.80901 0.24509 0.21814 0.0
H181 H 0.73306 0.18641 0.1736 0.0
H182 H 0.82885 0.10075 0.13192 0.0
H183 H 0.90537 0.15992 0.17553 0.0
Dy184 Dy 0.5686 0.53539 0.56877 0.0
Dy185 Dy 0.58048 0.63788 0.62846 0.0
C186 C 0.61816 0.55379 0.67624 0.0
O187 O 0.50234 0.51662 0.62134 0.0
O188 O 0.49412 0.59166 0.62613 0.0
O189 O 0.54839 0.45652 0.56485 0.0
O190 O 0.57166 0.49838 0.50087 0.0
O191 O 0.56645 0.65053 0.55122 0.0
O192 O 0.52129 0.57115 0.52611 0.0
O193 O 0.66374 0.6521 0.60538 0.0
O194 O 0.64813 0.58879 0.54842 0.0
O195 O 0.59529 0.71612 0.63173 0.0
O196 O 0.56999 0.67353 0.69498 0.0
C197 C 0.47581 0.54471 0.635 0.0
O198 O 0.61826 0.53328 0.63333 0.0
O199 O 0.60074 0.59059 0.68239 0.0
C200 C 0.60357 0.43426 0.5115 0.0
C201 C 0.68194 0.39221 0.49761 0.0
C202 C 0.69518 0.43927 0.51949 0.0
C203 C 0.65623 0.45998 0.52664 0.0
C204 C 0.59018 0.38756 0.48905 0.0
C205 C 0.62917 0.36657 0.48217 0.0
C206 C 0.56296 0.45619 0.52032 0.0
C207 C 0.53554 0.61869 0.51943 0.0
C208 C 0.67925 0.63032 0.56931 0.0
C209 C 0.53114 0.73325 0.67945 0.0
C210 C 0.44155 0.76205 0.6775 0.0
C211 C 0.43991 0.7201 0.70179 0.0
C212 C 0.48448 0.70617 0.70331 0.0
C213 C 0.53331 0.77634 0.65676 0.0
C214 C 0.48898 0.79079 0.65605 0.0
C215 C 0.57559 0.71469 0.67456 0.0
H216 H 0.73546 0.45954 0.532 0.0
H217 H 0.66699 0.49591 0.54448 0.0
H218 H 0.54967 0.36731 0.47719 0.0
H219 H 0.61816 0.3304 0.46476 0.0
H220 H 0.40372 0.69752 0.7187 0.0
H221 H 0.48167 0.67325 0.72183 0.0
H222 H 0.56881 0.79803 0.63834 0.0
H223 H 0.49094 0.82315 0.63684 0.0
Dy224 Dy 0.07182 0.61989 1.07332 0.0
Dy225 Dy 0.05236 0.52402 0.13898 0.0
C226 C 0.02248 0.61409 0.18087 0.0
O227 O 0.15427 0.62779 0.09737 0.0
O228 O 0.12824 0.58251 0.16424 0.0
O229 O 0.09827 0.699 1.0678 0.0
O230 O 0.06044 0.6515 1.00673 0.0
O231 O 0.09653 0.51089 1.07422 0.0
O232 O 0.08582 0.56544 1.0213 0.0
O233 O 0.97648 0.50228 0.09607 0.0
O234 O 0.98448 0.57745 1.0663 0.0
O235 O 0.03415 0.44607 0.14654 0.0
O236 O 0.06032 0.49589 0.20848 0.0
C237 C 0.16493 0.61534 0.14015 0.0
O238 O 0.05392 0.64074 0.14825 0.0
O239 O 1.00769 0.56578 0.17844 0.0
C240 C 0.02844 0.71404 1.02738 0.0
C241 C 0.92841 0.72497 1.02514 0.0
C242 C 0.95072 0.71809 1.0688 0.0
C243 C 1.00009 0.71269 1.06992 0.0
C244 C 1.00764 0.7235 0.98403 0.0
C245 C 0.95818 0.72937 0.98296 0.0
C246 C 0.0725 0.6951 1.0271 0.0
C247 C 0.09784 0.5265 1.0302 0.0
C248 C 0.95737 0.53067 1.07206 0.0
C249 C 0.09814 0.43532 0.19835 0.0
C250 C 0.18944 0.41226 0.21693 0.0
C251 C 0.18526 0.43596 0.17487 0.0
C252 C 0.14025 0.44772 0.16588 0.0
C253 C 0.10163 0.41081 0.24 0.0
C254 C 0.14699 0.39927 0.24923 0.0
C255 C 0.05339 0.45217 0.19037 0.0
H256 H 0.92881 0.71433 0.10188 0.0
H257 H 1.01446 0.7045 0.10381 0.0
H258 H 0.02828 0.7238 0.95066 0.0
H259 H 0.94259 0.73592 0.94895 0.0
H260 H 0.21741 0.44646 0.14951 0.0
H261 H 0.1389 0.46748 0.13397 0.0
H262 H 0.06983 0.4014 0.2657 0.0
H263 H 0.14895 0.38025 0.28159 0.0
C264 C 0.31208 0.22596 0.35614 0.0
C265 C 0.36599 0.25432 0.35044 0.0
C266 C 0.2949 0.19824 0.39681 0.0
C267 C 0.33101 0.19762 0.43327 0.0
H268 H 0.28267 0.2263 0.32955 0.0
H269 H 0.25262 0.17913 0.40074 0.0
S270 S 0.47726 0.26122 0.43292 0.0
N271 N 0.456 0.27754 0.38276 0.0
N272 N 0.42377 0.22404 0.45896 0.0
C273 C 0.38546 0.22355 0.42672 0.0
C274 C 0.40297 0.2521 0.38527 0.0
C275 C 0.28574 0.84099 0.83943 0.0
C276 C 0.23005 0.82431 0.83573 0.0
C277 C 0.31184 0.85978 0.88334 0.0
C278 C 0.28293 0.86246 0.9247 0.0
H279 H 0.30937 0.84456 0.8074 0.0
H280 H 0.35472 0.87708 0.88356 0.0
S281 S 0.13671 0.81122 0.93612 0.0
N282 N 0.14693 0.80217 0.87864 0.0
N283 N 0.19618 0.83778 0.96137 0.0
C284 C 0.22743 0.8398 0.92273 0.0
C285 C 0.20089 0.82056 0.8781 0.0
C286 C 0.63766 0.45925 0.76067 0.0
C287 C 0.64951 0.48475 0.80571 0.0
C288 C 0.63029 0.48238 0.71866 0.0
C289 C 0.63367 0.53201 0.7198 0.0
H290 H 0.63204 0.42049 0.75823 0.0
H291 H 0.61945 0.46042 0.68545 0.0
S292 S 0.66869 0.6167 0.8278 0.0
N293 N 0.66813 0.56376 0.84787 0.0
N294 N 0.6538 0.60672 0.76981 0.0
C295 C 0.64768 0.55842 0.76429 0.0
C296 C 0.65568 0.53502 0.80686 0.0
C297 C 1.00688 0.71908 0.25953 0.0
C298 C 0.97189 0.6952 0.29583 0.0
C299 C 0.02301 0.69255 0.22336 0.0
C300 C 1.00509 0.64057 0.2214 0.0
H301 H 0.02089 0.75879 0.25821 0.0
H302 H 0.04937 0.71336 0.19622 0.0
S303 S 0.91479 0.56023 0.30966 0.0
N304 N 0.9212 0.61649 0.32866 0.0
N305 N 0.95148 0.56652 0.26118 0.0
C306 C 0.97117 0.61623 0.25842 0.0
C307 C 0.95472 0.64346 0.29537 0.0
C308 C 0.49534 0.22764 0.20462 0.0
C309 C 0.53578 0.27443 0.20505 0.0
C310 C 0.505 0.18549 0.18918 0.0
C311 C 0.55557 0.18802 0.17423 0.0
H312 H 0.45509 0.22333 0.21404 0.0
H313 H 0.4719 0.15079 0.18697 0.0
S314 S 0.67656 0.30015 0.17352 0.0
N315 N 0.62963 0.31994 0.19332 0.0
N316 N 0.64768 0.24012 0.16397 0.0
C317 C 0.59732 0.23373 0.17749 0.0
C318 C 0.58742 0.27701 0.19304 0.0
C319 C 0.09106 0.89527 0.70624 0.0
C320 C 0.13954 0.90479 0.73081 0.0
C321 C 0.07095 0.93292 0.6993 0.0
C322 C 0.09903 0.98161 0.71608 0.0
H323 H 0.0687 0.85853 0.69207 0.0
H324 H 0.034 0.924 0.6791 0.0
S325 S 0.22802 1.02535 0.78278 0.0
N326 N 0.21516 0.96606 0.7722 0.0
N327 N 0.17741 1.03683 0.7592 0.0
C328 C 0.14724 0.99136 0.74133 0.0
C329 C 0.1675 0.95297 0.74865 0.0
C330 C 0.85301 0.4913 0.97143 0.0
C331 C 0.80751 0.45944 0.99382 0.0
C332 C 0.90054 0.51569 0.99756 0.0
C333 C 0.90503 0.50847 1.04693 0.0
H334 H 0.85277 0.49601 0.933 0.0
H335 H 0.93481 0.53873 0.97845 0.0
S336 S 0.7965 0.4356 0.12472 0.0
N337 N 0.76875 0.42813 1.07054 0.0
N338 N 0.85916 0.47117 0.11829 0.0
C339 C 0.85971 0.47853 1.0703 0.0
C340 C 0.81077 0.45482 1.04413 0.0
C341 C 0.79467 0.73174 0.51626 0.0
C342 C 0.82929 0.70776 0.50026 0.0
C343 C 0.74747 0.70671 0.54003 0.0
C344 C 0.73172 0.65617 0.54778 0.0
H345 H 0.80367 0.77035 0.50994 0.0
H346 H 0.72224 0.7269 0.55111 0.0
S347 S 0.80723 0.57546 0.51477 0.0
N348 N 0.84459 0.63006 0.49629 0.0
N349 N 0.75417 0.58268 0.53834 0.0
C350 C 0.76517 0.6313 0.53174 0.0
C351 C 0.81417 0.65707 0.50856 0.0
C352 C 0.30082 0.36176 0.20146 0.0
C353 C 0.32703 0.37268 0.24656 0.0
C354 C 0.25716 0.37583 0.1917 0.0
C355 C 0.23805 0.40103 0.22679 0.0
H356 H 0.31224 0.33986 0.17447 0.0
H357 H 0.23684 0.3651 0.15715 0.0
S358 S 0.29759 0.4446 0.34787 0.0
N359 N 0.33442 0.41483 0.32465 0.0
N360 N 0.25217 0.44104 0.30634 0.0
C361 C 0.26575 0.41457 0.27099 0.0
C362 C 0.31033 0.40053 0.28082 0.0
C363 C 0.69836 0.2686 0.97291 0.0
C364 C 0.66542 0.29485 0.96003 0.0
C365 C 0.67796 0.22271 0.99422 0.0
C366 C 0.62337 0.20005 1.0029 0.0
H367 H 0.74087 0.28449 0.96797 0.0
H368 H 0.70556 0.20524 1.0049 0.0
S369 S 0.51908 0.25119 0.97364 0.0
N370 N 0.57467 0.29339 0.95612 0.0
N371 N 0.53612 0.20636 0.9948 0.0
C372 C 0.58937 0.22437 0.98787 0.0
C373 C 0.61037 0.27176 0.9667 0.0
C374 C 0.94773 0.89644 0.49859 0.0
C375 C 0.97992 0.86783 0.4909 0.0
C376 C 0.96644 0.94184 0.52448 0.0
C377 C 0.01851 0.96126 0.5439 0.0
H378 H 0.90679 0.88267 0.48587 0.0
H379 H 0.93919 0.96126 0.53033 0.0
S380 S 0.11976 0.90181 0.5329 0.0
N381 N 0.06711 0.86302 0.50383 0.0
N382 N 0.10273 0.94845 0.55202 0.0
C383 C 0.05201 0.93406 0.53473 0.0
C384 C 0.0327 0.8875 0.50837 0.0
C385 C 0.30332 0.74942 0.63508 0.0
C386 C 0.30003 0.79516 0.64877 0.0
C387 C 0.34877 0.73855 0.64584 0.0
C388 C 0.39251 0.77313 0.67055 0.0
H389 H 0.27091 0.72229 0.61501 0.0
H390 H 0.35037 0.70338 0.63353 0.0
S391 S 0.40117 0.89579 0.71935 0.0
N392 N 0.34225 0.87347 0.69224 0.0
N393 N 0.42825 0.85326 0.7117 0.0
C394 C 0.38896 0.81823 0.68608 0.0
C395 C 0.34244 0.82912 0.67556 0.0
C396 C 0.76766 0.82867 0.84714 0.0
C397 C 0.71209 0.81427 0.85055 0.0
C398 C 0.79388 0.85194 0.80654 0.0
C399 C 0.76552 0.86199 0.76819 0.0
H400 H 0.79175 0.82688 0.87781 0.0
H401 H 0.83692 0.86681 0.80765 0.0
S402 S 0.61926 0.82077 0.75446 0.0
N403 N 0.62908 0.8021 0.80786 0.0
N404 N 0.67882 0.84778 0.73209 0.0
C405 C 0.70982 0.84224 0.76849 0.0
C406 C 0.683 0.81778 0.80954 0.0
C407 C 0.94269 0.22697 0.3151 0.0
C408 C 0.95526 0.27748 0.32602 0.0
C409 C 0.91726 0.20545 0.27186 0.0
C410 C 0.90286 0.23337 0.23792 0.0
H411 H 0.94806 0.20273 0.3417 0.0
H412 H 0.90464 0.16583 0.26703 0.0
S413 S 0.93666 0.36844 0.24418 0.0
N414 N 0.95955 0.35624 0.29558 0.0
N415 N 0.91013 0.3151 0.21436 0.0
C416 C 0.91955 0.28453 0.2461 0.0
C417 C 0.94618 0.30673 0.29009 0.0
C418 C 0.52867 0.70728 0.42223 0.0
C419 C 0.4963 0.67634 0.38561 0.0
C420 C 0.5397 0.68846 0.46551 0.0
C421 C 0.519 0.63762 0.47442 0.0
H422 H 0.54708 0.74632 0.41671 0.0
H423 H 0.56599 0.71414 0.49168 0.0
S424 S 0.42807 0.54119 0.39159 0.0
N425 N 0.44067 0.59253 0.3625 0.0
N426 N 0.46139 0.55717 0.44318 0.0
C427 C 0.48477 0.60651 0.43874 0.0
C428 C 0.47339 0.6258 0.39471 0.0
C429 C 0.13562 0.49609 0.90337 0.0
C430 C 0.14155 0.45006 0.9071 0.0
C431 C 0.12163 0.52007 0.94302 0.0
C432 C 0.11318 0.49959 0.98885 0.0
H433 H 0.14215 0.51408 0.86929 0.0
H434 H 0.11791 0.55539 0.93754 0.0
S435 S 0.12289 0.37918 1.01821 0.0
N436 N 0.13722 0.38456 0.96053 0.0
N437 N 0.11087 0.42918 1.03496 0.0
C438 C 0.11834 0.45314 0.99303 0.0
C439 C 0.13232 0.42852 0.95233 0.0
C440 C 0.64822 0.92685 0.95903 0.0
C441 C 0.62143 0.87873 0.97406 0.0
C442 C 0.63305 0.96594 0.97482 0.0
C443 C 0.59018 0.95836 1.00584 0.0
H444 H 0.68254 0.93475 0.93625 0.0
H445 H 0.65588 1.00258 0.96349 0.0
S446 S 0.50605 0.8391 1.0547 0.0
N447 N 0.5494 0.82532 1.0208 0.0
N448 N 0.52026 0.89887 1.05044 0.0
C449 C 0.56192 0.91016 1.02007 0.0
C450 C 0.57786 0.87034 1.00435 0.0
C451 C 0.05793 0.24273 0.48901 0.0
C452 C 1.00612 0.24374 0.48659 0.0
C453 C 0.06958 0.20842 0.51723 0.0
C454 C 0.02961 0.17414 0.5435 0.0
H455 H 0.08963 0.2691 0.46974 0.0
H456 H 0.11023 0.20973 0.51963 0.0
S457 S 0.88622 0.15698 0.54258 0.0
N458 N 0.91374 0.20415 0.50823 0.0
N459 N 0.93538 0.1402 0.56107 0.0
C460 C 0.9773 0.17349 0.53931 0.0
C461 C 0.9656 0.20815 0.51086 0.0
C462 C 0.31239 0.69249 0.15987 0.0
C463 C 0.3194 0.69391 0.21034 0.0
C464 C 0.26276 0.66691 0.13732 0.0
C465 C 0.21796 0.64114 0.16417 0.0
H466 H 0.34556 0.7116 0.13745 0.0
H467 H 0.25956 0.66738 0.09853 0.0
S468 S 0.2141 0.63457 0.29755 0.0
N469 N 0.2762 0.66842 0.28642 0.0
N470 N 0.18398 0.6194 0.2445 0.0
C471 C 0.22456 0.64178 0.21466 0.0
C472 C 0.27488 0.66825 0.23756 0.0
C473 C 0.37316 0.54206 0.72957 0.0
C474 C 0.35381 0.49264 0.74255 0.0
C475 C 0.40995 0.55795 0.69252 0.0
C476 C 0.42928 0.52515 0.66716 0.0
H477 H 0.3612 0.56899 0.7494 0.0
H478 H 0.42492 0.59668 0.68516 0.0
S479 S 0.3836 0.39012 0.68199 0.0
N480 N 0.35091 0.40977 0.72301 0.0
N481 N 0.42058 0.43945 0.65403 0.0
C482 C 0.40716 0.47491 0.6776 0.0
C483 C 0.3693 0.45873 0.71505 0.0
C484 C 0.80506 0.75124 1.06159 0.0
C485 C 0.7666 0.72351 1.02738 0.0
C486 C 0.85738 0.75223 1.05996 0.0
C487 C 0.87331 0.72533 1.02411 0.0
H488 H 0.7947 0.77303 0.08942 0.0
H489 H 0.8857 0.77454 0.08686 0.0
S490 S 0.78698 0.64531 0.92703 0.0
N491 N 0.74758 0.66826 0.95673 0.0
N492 N 0.84557 0.66854 0.95456 0.0
C493 C 0.83502 0.69703 0.98984 0.0
C494 C 0.78175 0.69644 0.99129 0.0
C495 C 0.52277 0.87325 0.20725 0.0
C496 C 0.47027 0.85569 0.2238 0.0
C497 C 0.54381 0.91891 0.18493 0.0
C498 C 0.51331 0.94912 0.17834 0.0
H499 H 0.54707 0.85063 0.20977 0.0
H500 H 0.58379 0.92977 0.17136 0.0
S501 S 0.37521 0.92193 0.22026 0.0
N502 N 0.38972 0.87376 0.23553 0.0
N503 N 0.42863 0.95887 0.19403 0.0
C504 C 0.46145 0.93269 0.19678 0.0
C505 C 0.44018 0.88631 0.21933 0.0
C506 C 0.12452 0.30442 0.73288 0.0
C507 C 0.12939 0.30988 0.78351 0.0
C508 C 0.10939 0.25817 0.70897 0.0
C509 C 0.09681 0.21464 0.73432 0.0
H510 H 0.13425 0.33654 0.71115 0.0
H511 H 0.10822 0.25661 0.66999 0.0
S512 S 0.09805 0.20696 0.8671 0.0
N513 N 0.11737 0.2666 0.85829 0.0
N514 N 0.08655 0.17934 0.81314 0.0
C515 C 0.09799 0.21883 0.78495 0.0
C516 C 0.11463 0.26641 0.80955 0.0
C517 C 0.81151 0.37553 0.46518 0.0
C518 C 0.80551 0.32967 0.48427 0.0
C519 C 0.7713 0.39552 0.46962 0.0
C520 C 0.72323 0.36983 0.49212 0.0
H521 H 0.84736 0.39619 0.4467 0.0
H522 H 0.77759 0.43111 0.4549 0.0
S523 S 0.68708 0.24781 0.54613 0.0
N524 N 0.74731 0.2587 0.52518 0.0
N525 N 0.67169 0.29618 0.53322 0.0
C526 C 0.71635 0.32366 0.51044 0.0
C527 C 0.75741 0.30358 0.50641 0.0
loop_
_geom_bond_atom_site_label_1
_geom_bond_atom_site_label_2
_geom_bond_distance
_geom_bond_site_symmetry_2
_ccdc_geom_bond_type
H0 C7 0.929 . S
H1 C10 0.930 . S
H2 C12 0.929 . S
H3 C4 0.969 . S
C4 H3 0.969 . S
C4 O5 1.550 . S
C4 H6 0.973 . S
O5 C4 1.550 . S
O5 C11 1.412 . S
H6 C4 0.973 . S
C7 H0 0.929 . S
C7 C8 1.400 . S
C7 C9 1.364 . S
C8 C7 1.400 . S
C8 C12 1.377 . S
C9 C7 1.364 . S
C9 C10 1.374 . S
C10 H1 0.930 . S
C10 C9 1.374 . S
C10 C11 1.383 . S
C11 O5 1.412 . S
C11 C10 1.383 . S
C11 C12 1.394 . S
C12 H2 0.929 . S
C12 C8 1.377 . S
C12 C11 1.394 . S
H13 C20 0.929 . S
H14 C23 0.930 . S
H15 C25 0.929 . S
H16 C17 0.969 . S
C17 H16 0.969 . S
C17 O18 1.550 . S
C17 H19 0.973 . S
O18 C17 1.550 . S
O18 C24 1.412 . S
H19 C17 0.973 . S
C20 H13 0.929 . S
C20 C21 1.400 . S
C20 C22 1.364 . S
C21 C20 1.400 . S
C21 C25 1.377 . S
C22 C20 1.364 . S
C22 C23 1.374 . S
C23 H14 0.930 . S
C23 C22 1.374 . S
C23 C24 1.383 . S
C24 O18 1.412 . S
C24 C23 1.383 . S
C24 C25 1.394 . S
C25 H15 0.929 . S
C25 C21 1.377 . S
C25 C24 1.394 . S
H26 C33 0.929 . S
H27 C36 0.930 . S
H28 C38 0.929 . S
H29 C30 0.969 . S
C30 H29 0.969 . S
C30 O31 1.550 . S
C30 H32 0.973 . S
O31 C30 1.550 . S
O31 C37 1.412 . S
H32 C30 0.973 . S
C33 H26 0.929 . S
C33 C34 1.400 . S
C33 C35 1.364 . S
C34 C33 1.400 . S
C34 C38 1.377 . S
C35 C33 1.364 . S
C35 C36 1.374 . S
C36 H27 0.930 . S
C36 C35 1.374 . S
C36 C37 1.383 . S
C37 O31 1.412 . S
C37 C36 1.383 . S
C37 C38 1.394 . S
C38 H28 0.929 . S
C38 C34 1.377 . S
C38 C37 1.394 . S
H39 C46 0.929 . S
H40 C49 0.930 . S
H41 C51 0.929 . S
H42 C43 0.969 . S
C43 H42 0.969 . S
C43 O44 1.550 . S
C43 H45 0.973 . S
O44 C43 1.550 . S
O44 C50 1.412 . S
H45 C43 0.973 . S
C46 H39 0.929 . S
C46 C47 1.400 . S
C46 C48 1.364 . S
C47 C46 1.400 . S
C47 C51 1.377 . S
C48 C46 1.364 . S
C48 C49 1.374 . S
C49 H40 0.930 . S
C49 C48 1.374 . S
C49 C50 1.383 . S
C50 O44 1.412 . S
C50 C49 1.383 . S
C50 C51 1.394 . S
C51 H41 0.929 . S
C51 C47 1.377 . S
C51 C50 1.394 . S
H52 C59 0.929 . S
H53 C62 0.930 . S
H54 C64 0.929 . S
H55 C56 0.969 . S
C56 H55 0.969 . S
C56 O57 1.550 . S
C56 H58 0.973 . S
O57 C56 1.550 . S
O57 C63 1.412 . S
H58 C56 0.973 . S
C59 H52 0.929 . S
C59 C60 1.400 . S
C59 C61 1.364 . S
C60 C59 1.400 . S
C60 C64 1.377 . S
C61 C59 1.364 . S
C61 C62 1.374 . S
C62 H53 0.930 . S
C62 C61 1.374 . S
C62 C63 1.383 . S
C63 O57 1.412 . S
C63 C62 1.383 . S
C63 C64 1.394 . S
C64 H54 0.929 . S
C64 C60 1.377 . S
C64 C63 1.394 . S
H65 C72 0.929 . S
H66 C75 0.930 . S
H67 C77 0.929 . S
H68 C69 0.969 . S
C69 H68 0.969 . S
C69 O70 1.550 . S
C69 H71 0.973 . S
O70 C69 1.550 . S
O70 C76 1.412 . S
H71 C69 0.973 . S
C72 H65 0.929 . S
C72 C73 1.400 . S
C72 C74 1.364 . S
C73 C72 1.400 . S
C73 C77 1.377 . S
C74 C72 1.364 . S
C74 C75 1.374 . S
C75 H66 0.930 . S
C75 C74 1.374 . S
C75 C76 1.383 . S
C76 O70 1.412 . S
C76 C75 1.383 . S
C76 C77 1.394 . S
C77 H67 0.929 . S
C77 C73 1.377 . S
C77 C76 1.394 . S
H78 C85 0.929 . S
H79 C88 0.930 . S
H80 C90 0.929 . S
H81 C82 0.969 . S
C82 H81 0.969 . S
C82 O83 1.550 . S
C82 H84 0.973 . S
O83 C82 1.550 . S
O83 C89 1.412 . S
H84 C82 0.973 . S
C85 H78 0.929 . S
C85 C86 1.400 . S
C85 C87 1.364 . S
C86 C85 1.400 . S
C86 C90 1.377 . S
C87 C85 1.364 . S
C87 C88 1.374 . S
C88 H79 0.930 . S
C88 C87 1.374 . S
C88 C89 1.383 . S
C89 O83 1.412 . S
C89 C88 1.383 . S
C89 C90 1.394 . S
C90 H80 0.929 . S
C90 C86 1.377 . S
C90 C89 1.394 . S
H91 C98 0.929 . S
H92 C101 0.930 . S
H93 C103 0.929 . S
H94 C95 0.969 . S
C95 H94 0.969 . S
C95 O96 1.550 . S
C95 H97 0.973 . S
O96 C95 1.550 . S
O96 C102 1.412 . S
H97 C95 0.973 . S
C98 H91 0.929 . S
C98 C99 1.400 . S
C98 C100 1.364 . S
C99 C98 1.400 . S
C99 C103 1.377 . S
C100 C98 1.364 . S
C100 C101 1.374 . S
C101 H92 0.930 . S
C101 C100 1.374 . S
C101 C102 1.383 . S
C102 O96 1.412 . S
C102 C101 1.383 . S
C102 C103 1.394 . S
C103 H93 0.929 . S
C103 C99 1.377 . S
C103 C102 1.394 . S
Dy104 O107 2.307 1_545 S
Dy104 O109 2.395 . S
Dy104 O110 2.379 . S
Dy104 O112 2.339 1_545 S
Dy104 O114 2.298 . S
Dy104 O118 2.275 . S
Dy104 C126 2.738 . S
Dy105 O108 2.298 1_645 S
Dy105 O111 2.275 1_545 S
Dy105 O113 2.307 . S
Dy105 O115 2.395 1_545 S
Dy105 O116 2.379 1_545 S
Dy105 O119 2.339 1_655 S
Dy105 C135 2.738 1_545 S
C106 O118 1.254 . S
C106 O119 1.257 . S
O107 Dy104 2.307 1_565 S
O107 C117 1.266 . S
O108 Dy105 2.298 1_465 S
O108 C117 1.236 . S
O109 Dy104 2.395 . S
O109 C126 1.255 . S
O110 Dy104 2.379 . S
O110 C126 1.249 . S
O111 Dy105 2.275 1_565 S
O111 C127 1.254 . S
O112 Dy104 2.339 1_565 S
O112 C127 1.257 1_455 S
O113 Dy105 2.307 . S
O113 C128 1.266 . S
O114 Dy104 2.298 . S
O114 C128 1.236 1_455 S
O115 Dy105 2.395 1_565 S
O115 C135 1.255 . S
O116 Dy105 2.379 1_565 S
O116 C135 1.249 . S
C117 O107 1.266 . S
C117 O108 1.236 . S
O118 Dy104 2.275 . S
O118 C106 1.254 . S
O119 Dy105 2.339 1_455 S
O119 C106 1.257 . S
C120 C123 1.344 . S
C120 C124 1.328 . S
C120 C126 1.516 . S
C121 C122 1.304 . S
C121 C125 1.323 . S
C122 C121 1.304 . S
C122 C123 1.371 . S
C122 H136 0.930 . S
C123 C120 1.344 . S
C123 C122 1.371 . S
C123 H137 0.931 . S
C124 C120 1.328 . S
C124 C125 1.433 . S
C124 H138 0.931 . S
C125 C121 1.323 . S
C125 C124 1.433 . S
C125 H139 0.933 . S
C126 Dy104 2.738 . S
C126 O109 1.255 . S
C126 O110 1.249 . S
C126 C120 1.516 . S
C127 O111 1.254 . S
C127 O112 1.257 1_655 S
C128 O113 1.266 . S
C128 O114 1.236 1_655 S
C129 C132 1.344 . S
C129 C133 1.328 . S
C129 C135 1.516 . S
C130 C131 1.304 . S
C130 C134 1.323 . S
C131 C130 1.304 . S
C131 C132 1.371 . S
C131 H140 0.930 . S
C132 C129 1.344 . S
C132 C131 1.371 . S
C132 H141 0.931 . S
C133 C129 1.328 . S
C133 C134 1.433 . S
C133 H142 0.931 . S
C134 C130 1.323 . S
C134 C133 1.433 . S
C134 H143 0.933 . S
C135 Dy105 2.738 1_565 S
C135 O115 1.255 . S
C135 O116 1.249 . S
C135 C129 1.516 . S
H136 C122 0.930 . S
H137 C123 0.931 . S
H138 C124 0.931 . S
H139 C125 0.933 . S
H140 C131 0.930 . S
H141 C132 0.931 . S
H142 C133 0.931 . S
H143 C134 0.933 . S
Dy144 O147 2.307 1_556 S
Dy144 O149 2.395 1_545 S
Dy144 O150 2.379 1_545 S
Dy144 O152 2.339 . S
Dy144 O154 2.298 1_545 S
Dy144 O158 2.275 1_546 S
Dy144 C166 2.738 1_545 S
Dy145 O148 2.298 . S
Dy145 O151 2.275 1_554 S
Dy145 O153 2.307 1_544 S
Dy145 O155 2.395 . S
Dy145 O156 2.379 . S
Dy145 O159 2.339 1_545 S
Dy145 C175 2.738 . S
C146 O158 1.254 . S
C146 O159 1.257 . S
O147 Dy144 2.307 1_554 S
O147 C157 1.266 . S
O148 Dy145 2.298 . S
O148 C157 1.236 . S
O149 Dy144 2.395 1_565 S
O149 C166 1.255 . S
O150 Dy144 2.379 1_565 S
O150 C166 1.249 . S
O151 Dy145 2.275 1_556 S
O151 C167 1.254 . S
O152 Dy144 2.339 . S
O152 C167 1.257 . S
O153 Dy145 2.307 1_566 S
O153 C168 1.266 . S
O154 Dy144 2.298 1_565 S
O154 C168 1.236 . S
O155 Dy145 2.395 . S
O155 C175 1.255 . S
O156 Dy145 2.379 . S
O156 C175 1.249 . S
C157 O147 1.266 . S
C157 O148 1.236 . S
O158 Dy144 2.275 1_564 S
O158 C146 1.254 . S
O159 Dy145 2.339 1_565 S
O159 C146 1.257 . S
C160 C163 1.344 . S
C160 C164 1.328 . S
C160 C166 1.516 . S
C161 C162 1.304 . S
C161 C165 1.323 . S
C162 C161 1.304 . S
C162 C163 1.371 . S
C162 H176 0.930 . S
C163 C160 1.344 . S
C163 C162 1.371 . S
C163 H177 0.931 . S
C164 C160 1.328 . S
C164 C165 1.433 . S
C164 H178 0.931 . S
C165 C161 1.323 . S
C165 C164 1.433 . S
C165 H179 0.933 . S
C166 Dy144 2.738 1_565 S
C166 O149 1.255 . S
C166 O150 1.249 . S
C166 C160 1.516 . S
C167 O151 1.254 . S
C167 O152 1.257 . S
C168 O153 1.266 . S
C168 O154 1.236 . S
C169 C172 1.344 . S
C169 C173 1.328 . S
C169 C175 1.516 . S
C170 C171 1.304 . S
C170 C174 1.323 . S
C171 C170 1.304 . S
C171 C172 1.371 . S
C171 H180 0.930 . S
C172 C169 1.344 . S
C172 C171 1.371 . S
C172 H181 0.931 . S
C173 C169 1.328 . S
C173 C174 1.433 . S
C173 H182 0.931 . S
C174 C170 1.323 . S
C174 C173 1.433 . S
C174 H183 0.933 . S
C175 Dy145 2.738 . S
C175 O155 1.255 . S
C175 O156 1.249 . S
C175 C169 1.516 . S
H176 C162 0.930 . S
H177 C163 0.931 . S
H178 C164 0.931 . S
H179 C165 0.933 . S
H180 C171 0.930 . S
H181 C172 0.931 . S
H182 C173 0.931 . S
H183 C174 0.933 . S
Dy184 O187 2.307 . S
Dy184 O189 2.395 . S
Dy184 O190 2.379 . S
Dy184 O192 2.339 . S
Dy184 O194 2.298 . S
Dy184 O198 2.275 . S
Dy184 C206 2.738 . S
Dy185 O188 2.298 . S
Dy185 O191 2.275 . S
Dy185 O193 2.307 . S
Dy185 O195 2.395 . S
Dy185 O196 2.379 . S
Dy185 O199 2.339 . S
Dy185 C215 2.738 . S
C186 O198 1.254 . S
C186 O199 1.257 . S
O187 Dy184 2.307 . S
O187 C197 1.266 . S
O188 Dy185 2.298 . S
O188 C197 1.236 . S
O189 Dy184 2.395 . S
O189 C206 1.255 . S
O190 Dy184 2.379 . S
O190 C206 1.249 . S
O191 Dy185 2.275 . S
O191 C207 1.254 . S
O192 Dy184 2.339 . S
O192 C207 1.257 . S
O193 Dy185 2.307 . S
O193 C208 1.266 . S
O194 Dy184 2.298 . S
O194 C208 1.236 . S
O195 Dy185 2.395 . S
O195 C215 1.255 . S
O196 Dy185 2.379 . S
O196 C215 1.249 . S
C197 O187 1.266 . S
C197 O188 1.236 . S
O198 Dy184 2.275 . S
O198 C186 1.254 . S
O199 Dy185 2.339 . S
O199 C186 1.257 . S
C200 C203 1.344 . S
C200 C204 1.328 . S
C200 C206 1.516 . S
C201 C202 1.304 . S
C201 C205 1.323 . S
C202 C201 1.304 . S
C202 C203 1.371 . S
C202 H216 0.930 . S
C203 C200 1.344 . S
C203 C202 1.371 . S
C203 H217 0.931 . S
C204 C200 1.328 . S
C204 C205 1.433 . S
C204 H218 0.931 . S
C205 C201 1.323 . S
C205 C204 1.433 . S
C205 H219 0.933 . S
C206 Dy184 2.738 . S
C206 O189 1.255 . S
C206 O190 1.249 . S
C206 C200 1.516 . S
C207 O191 1.254 . S
C207 O192 1.257 . S
C208 O193 1.266 . S
C208 O194 1.236 . S
C209 C212 1.344 . S
C209 C213 1.328 . S
C209 C215 1.516 . S
C210 C211 1.304 . S
C210 C214 1.323 . S
C211 C210 1.304 . S
C211 C212 1.371 . S
C211 H220 0.930 . S
C212 C209 1.344 . S
C212 C211 1.371 . S
C212 H221 0.931 . S
C213 C209 1.328 . S
C213 C214 1.433 . S
C213 H222 0.931 . S
C214 C210 1.323 . S
C214 C213 1.433 . S
C214 H223 0.933 . S
C215 Dy185 2.738 . S
C215 O195 1.255 . S
C215 O196 1.249 . S
C215 C209 1.516 . S
H216 C202 0.930 . S
H217 C203 0.931 . S
H218 C204 0.931 . S
H219 C205 0.933 . S
H220 C211 0.930 . S
H221 C212 0.931 . S
H222 C213 0.931 . S
H223 C214 0.933 . S
Dy224 O227 2.307 . S
Dy224 O229 2.395 1_455 S
Dy224 O230 2.379 1_454 S
Dy224 O232 2.339 1_554 S
Dy224 O234 2.298 1_455 S
Dy224 O238 2.275 . S
Dy224 C246 2.738 1_454 S
Dy225 O228 2.298 . S
Dy225 O231 2.275 . S
Dy225 O233 2.307 1_455 S
Dy225 O235 2.395 . S
Dy225 O236 2.379 . S
Dy225 O239 2.339 1_455 S
Dy225 C255 2.738 . S
C226 O238 1.254 1_655 S
C226 O239 1.257 . S
O227 Dy224 2.307 . S
O227 C237 1.266 . S
O228 Dy225 2.298 . S
O228 C237 1.236 . S
O229 Dy224 2.395 1_655 S
O229 C246 1.255 1_554 S
O230 Dy224 2.379 1_656 S
O230 C246 1.249 . S
O231 Dy225 2.275 . S
O231 C247 1.254 1_554 S
O232 Dy224 2.339 1_556 S
O232 C247 1.257 . S
O233 Dy225 2.307 1_655 S
O233 C248 1.266 . S
O234 Dy224 2.298 1_655 S
O234 C248 1.236 . S
O235 Dy225 2.395 . S
O235 C255 1.255 . S
O236 Dy225 2.379 . S
O236 C255 1.249 . S
C237 O227 1.266 . S
C237 O228 1.236 . S
O238 Dy224 2.275 . S
O238 C226 1.254 1_455 S
O239 Dy225 2.339 1_655 S
O239 C226 1.257 . S
C240 C243 1.344 . S
C240 C244 1.328 . S
C240 C246 1.516 . S
C241 C242 1.304 . S
C241 C245 1.323 . S
C242 C241 1.304 . S
C242 C243 1.371 . S
C242 H256 0.930 . S
C243 C240 1.344 . S
C243 C242 1.371 . S
C243 H257 0.931 1_556 S
C244 C240 1.328 . S
C244 C245 1.433 . S
C244 H258 0.931 . S
C245 C241 1.323 . S
C245 C244 1.433 . S
C245 H259 0.933 . S
C246 Dy224 2.738 1_656 S
C246 O229 1.255 1_556 S
C246 O230 1.249 . S
C246 C240 1.516 . S
C247 O231 1.254 1_556 S
C247 O232 1.257 . S
C248 O233 1.266 . S
C248 O234 1.236 . S
C249 C252 1.344 . S
C249 C253 1.328 . S
C249 C255 1.516 . S
C250 C251 1.304 . S
C250 C254 1.323 . S
C251 C250 1.304 . S
C251 C252 1.371 . S
C251 H260 0.930 . S
C252 C249 1.344 . S
C252 C251 1.371 . S
C252 H261 0.931 . S
C253 C249 1.328 . S
C253 C254 1.433 . S
C253 H262 0.931 . S
C254 C250 1.323 . S
C254 C253 1.433 . S
C254 H263 0.933 . S
C255 Dy225 2.738 . S
C255 O235 1.255 . S
C255 O236 1.249 . S
C255 C249 1.516 . S
H256 C242 0.930 . S
H257 C243 0.931 1_554 S
H258 C244 0.931 . S
H259 C245 0.933 . S
H260 C251 0.930 . S
H261 C252 0.931 . S
H262 C253 0.931 . S
H263 C254 0.933 . S
C264 C265 1.369 . S
C264 C266 1.419 . S
C264 H268 0.930 . S
C265 C264 1.369 . S
C265 C274 1.429 . S
C266 C264 1.419 . S
C266 C267 1.363 . S
C266 H269 0.929 . S
C267 C266 1.363 . S
C267 C273 1.428 . S
H268 C264 0.930 . S
H269 C266 0.929 . S
S270 N271 1.613 . S
S270 N272 1.610 . S
N271 S270 1.613 . S
N271 C274 1.350 . S
N272 S270 1.610 . S
N272 C273 1.351 . S
C273 C267 1.428 . S
C273 N272 1.351 . S
C273 C274 1.434 . S
C274 C265 1.429 . S
C274 N271 1.350 . S
C274 C273 1.434 . S
C275 C276 1.369 . S
C275 C277 1.419 . S
C275 H279 0.930 . S
C276 C275 1.369 . S
C276 C285 1.429 . S
C277 C275 1.419 . S
C277 C278 1.363 . S
C277 H280 0.929 . S
C278 C277 1.363 . S
C278 C284 1.428 . S
H279 C275 0.930 . S
H280 C277 0.929 . S
S281 N282 1.613 . S
S281 N283 1.610 . S
N282 S281 1.613 . S
N282 C285 1.350 . S
N283 S281 1.610 . S
N283 C284 1.351 . S
C284 C278 1.428 . S
C284 N283 1.351 . S
C284 C285 1.434 . S
C285 C276 1.429 . S
C285 N282 1.350 . S
C285 C284 1.434 . S
C286 C287 1.369 . S
C286 C288 1.419 . S
C286 H290 0.930 . S
C287 C286 1.369 . S
C287 C296 1.429 . S
C288 C286 1.419 . S
C288 C289 1.363 . S
C288 H291 0.929 . S
C289 C288 1.363 . S
C289 C295 1.428 . S
H290 C286 0.930 . S
H291 C288 0.929 . S
S292 N293 1.613 . S
S292 N294 1.610 . S
N293 S292 1.613 . S
N293 C296 1.350 . S
N294 S292 1.610 . S
N294 C295 1.351 . S
C295 C289 1.428 . S
C295 N294 1.351 . S
C295 C296 1.434 . S
C296 C287 1.429 . S
C296 N293 1.350 . S
C296 C295 1.434 . S
C297 C298 1.369 . S
C297 C299 1.419 . S
C297 H301 0.930 . S
C298 C297 1.369 . S
C298 C307 1.429 . S
C299 C297 1.419 . S
C299 C300 1.363 . S
C299 H302 0.929 . S
C300 C299 1.363 . S
C300 C306 1.428 . S
H301 C297 0.930 . S
H302 C299 0.929 . S
S303 N304 1.613 . S
S303 N305 1.610 . S
N304 S303 1.613 . S
N304 C307 1.350 . S
N305 S303 1.610 . S
N305 C306 1.351 . S
C306 C300 1.428 . S
C306 N305 1.351 . S
C306 C307 1.434 . S
C307 C298 1.429 . S
C307 N304 1.350 . S
C307 C306 1.434 . S
C308 C309 1.369 . S
C308 C310 1.419 . S
C308 H312 0.930 . S
C309 C308 1.369 . S
C309 C318 1.429 . S
C310 C308 1.419 . S
C310 C311 1.363 . S
C310 H313 0.929 . S
C311 C310 1.363 . S
C311 C317 1.428 . S
H312 C308 0.930 . S
H313 C310 0.929 . S
S314 N315 1.613 . S
S314 N316 1.610 . S
N315 S314 1.613 . S
N315 C318 1.350 . S
N316 S314 1.610 . S
N316 C317 1.351 . S
C317 C311 1.428 . S
C317 N316 1.351 . S
C317 C318 1.434 . S
C318 C309 1.429 . S
C318 N315 1.350 . S
C318 C317 1.434 . S
C319 C320 1.369 . S
C319 C321 1.419 . S
C319 H323 0.930 . S
C320 C319 1.369 . S
C320 C329 1.429 . S
C321 C319 1.419 . S
C321 C322 1.363 . S
C321 H324 0.929 . S
C322 C321 1.363 . S
C322 C328 1.428 . S
H323 C319 0.930 . S
H324 C321 0.929 . S
S325 N326 1.613 . S
S325 N327 1.610 . S
N326 S325 1.613 . S
N326 C329 1.350 . S
N327 S325 1.610 . S
N327 C328 1.351 . S
C328 C322 1.428 . S
C328 N327 1.351 . S
C328 C329 1.434 . S
C329 C320 1.429 . S
C329 N326 1.350 . S
C329 C328 1.434 . S
C330 C331 1.369 . S
C330 C332 1.419 . S
C330 H334 0.930 . S
C331 C330 1.369 . S
C331 C340 1.429 . S
C332 C330 1.419 . S
C332 C333 1.363 . S
C332 H335 0.929 . S
C333 C332 1.363 . S
C333 C339 1.428 1_556 S
H334 C330 0.930 . S
H335 C332 0.929 . S
S336 N337 1.613 1_554 S
S336 N338 1.610 . S
N337 S336 1.613 1_556 S
N337 C340 1.350 . S
N338 S336 1.610 . S
N338 C339 1.351 . S
C339 C333 1.428 1_554 S
C339 N338 1.351 . S
C339 C340 1.434 1_554 S
C340 C331 1.429 . S
C340 N337 1.350 . S
C340 C339 1.434 1_556 S
C341 C342 1.369 . S
C341 C343 1.419 . S
C341 H345 0.930 . S
C342 C341 1.369 . S
C342 C351 1.429 . S
C343 C341 1.419 . S
C343 C344 1.363 . S
C343 H346 0.929 . S
C344 C343 1.363 . S
C344 C350 1.428 . S
H345 C341 0.930 . S
H346 C343 0.929 . S
S347 N348 1.613 . S
S347 N349 1.610 . S
N348 S347 1.613 . S
N348 C351 1.350 . S
N349 S347 1.610 . S
N349 C350 1.351 . S
C350 C344 1.428 . S
C350 N349 1.351 . S
C350 C351 1.434 . S
C351 C342 1.429 . S
C351 N348 1.350 . S
C351 C350 1.434 . S
C352 C353 1.369 . S
C352 C354 1.419 . S
C352 H356 0.930 . S
C353 C352 1.369 . S
C353 C362 1.429 . S
C354 C352 1.419 . S
C354 C355 1.363 . S
C354 H357 0.929 . S
C355 C354 1.363 . S
C355 C361 1.428 . S
H356 C352 0.930 . S
H357 C354 0.929 . S
S358 N359 1.613 . S
S358 N360 1.610 . S
N359 S358 1.613 . S
N359 C362 1.350 . S
N360 S358 1.610 . S
N360 C361 1.351 . S
C361 C355 1.428 . S
C361 N360 1.351 . S
C361 C362 1.434 . S
C362 C353 1.429 . S
C362 N359 1.350 . S
C362 C361 1.434 . S
C363 C364 1.369 . S
C363 C365 1.419 . S
C363 H367 0.930 . S
C364 C363 1.369 . S
C364 C373 1.429 . S
C365 C363 1.419 . S
C365 C366 1.363 . S
C365 H368 0.929 . S
C366 C365 1.363 . S
C366 C372 1.428 . S
H367 C363 0.930 . S
H368 C365 0.929 . S
S369 N370 1.613 . S
S369 N371 1.610 . S
N370 S369 1.613 . S
N370 C373 1.350 . S
N371 S369 1.610 . S
N371 C372 1.351 . S
C372 C366 1.428 . S
C372 N371 1.351 . S
C372 C373 1.434 . S
C373 C364 1.429 . S
C373 N370 1.350 . S
C373 C372 1.434 . S
C374 C375 1.369 . S
C374 C376 1.419 . S
C374 H378 0.930 . S
C375 C374 1.369 . S
C375 C384 1.429 . S
C376 C374 1.419 . S
C376 C377 1.363 . S
C376 H379 0.929 . S
C377 C376 1.363 . S
C377 C383 1.428 1_655 S
H378 C374 0.930 . S
H379 C376 0.929 . S
S380 N381 1.613 . S
S380 N382 1.610 . S
N381 S380 1.613 . S
N381 C384 1.350 1_455 S
N382 S380 1.610 . S
N382 C383 1.351 . S
C383 C377 1.428 1_455 S
C383 N382 1.351 . S
C383 C384 1.434 1_455 S
C384 C375 1.429 . S
C384 N381 1.350 1_655 S
C384 C383 1.434 1_655 S
C385 C386 1.369 . S
C385 C387 1.419 . S
C385 H389 0.930 . S
C386 C385 1.369 . S
C386 C395 1.429 . S
C387 C385 1.419 . S
C387 C388 1.363 . S
C387 H390 0.929 . S
C388 C387 1.363 . S
C388 C394 1.428 . S
H389 C385 0.930 . S
H390 C387 0.929 . S
S391 N392 1.613 . S
S391 N393 1.610 . S
N392 S391 1.613 . S
N392 C395 1.350 . S
N393 S391 1.610 . S
N393 C394 1.351 . S
C394 C388 1.428 . S
C394 N393 1.351 . S
C394 C395 1.434 . S
C395 C386 1.429 . S
C395 N392 1.350 . S
C395 C394 1.434 . S
C396 C397 1.369 . S
C396 C398 1.419 . S
C396 H400 0.930 . S
C397 C396 1.369 . S
C397 C406 1.429 . S
C398 C396 1.419 . S
C398 C399 1.363 . S
C398 H401 0.929 . S
C399 C398 1.363 . S
C399 C405 1.428 . S
H400 C396 0.930 . S
H401 C398 0.929 . S
S402 N403 1.613 . S
S402 N404 1.610 . S
N403 S402 1.613 . S
N403 C406 1.350 . S
N404 S402 1.610 . S
N404 C405 1.351 . S
C405 C399 1.428 . S
C405 N404 1.351 . S
C405 C406 1.434 . S
C406 C397 1.429 . S
C406 N403 1.350 . S
C406 C405 1.434 . S
C407 C408 1.369 . S
C407 C409 1.419 . S
C407 H411 0.930 . S
C408 C407 1.369 . S
C408 C417 1.429 . S
C409 C407 1.419 . S
C409 C410 1.363 . S
C409 H412 0.929 . S
C410 C409 1.363 . S
C410 C416 1.428 . S
H411 C407 0.930 . S
H412 C409 0.929 . S
S413 N414 1.613 . S
S413 N415 1.610 . S
N414 S413 1.613 . S
N414 C417 1.350 . S
N415 S413 1.610 . S
N415 C416 1.351 . S
C416 C410 1.428 . S
C416 N415 1.351 . S
C416 C417 1.434 . S
C417 C408 1.429 . S
C417 N414 1.350 . S
C417 C416 1.434 . S
C418 C419 1.369 . S
C418 C420 1.419 . S
C418 H422 0.930 . S
C419 C418 1.369 . S
C419 C428 1.429 . S
C420 C418 1.419 . S
C420 C421 1.363 . S
C420 H423 0.929 . S
C421 C420 1.363 . S
C421 C427 1.428 . S
H422 C418 0.930 . S
H423 C420 0.929 . S
S424 N425 1.613 . S
S424 N426 1.610 . S
N425 S424 1.613 . S
N425 C428 1.350 . S
N426 S424 1.610 . S
N426 C427 1.351 . S
C427 C421 1.428 . S
C427 N426 1.351 . S
C427 C428 1.434 . S
C428 C419 1.429 . S
C428 N425 1.350 . S
C428 C427 1.434 . S
C429 C430 1.369 . S
C429 C431 1.419 . S
C429 H433 0.930 . S
C430 C429 1.369 . S
C430 C439 1.429 . S
C431 C429 1.419 . S
C431 C432 1.363 . S
C431 H434 0.929 . S
C432 C431 1.363 . S
C432 C438 1.428 . S
H433 C429 0.930 . S
H434 C431 0.929 . S
S435 N436 1.613 . S
S435 N437 1.610 . S
N436 S435 1.613 . S
N436 C439 1.350 . S
N437 S435 1.610 . S
N437 C438 1.351 . S
C438 C432 1.428 . S
C438 N437 1.351 . S
C438 C439 1.434 . S
C439 C430 1.429 . S
C439 N436 1.350 . S
C439 C438 1.434 . S
C440 C441 1.369 . S
C440 C442 1.419 . S
C440 H444 0.930 . S
C441 C440 1.369 . S
C441 C450 1.429 . S
C442 C440 1.419 . S
C442 C443 1.363 . S
C442 H445 0.929 . S
C443 C442 1.363 . S
C443 C449 1.428 . S
H444 C440 0.930 . S
H445 C442 0.929 . S
S446 N447 1.613 . S
S446 N448 1.610 . S
N447 S446 1.613 . S
N447 C450 1.350 . S
N448 S446 1.610 . S
N448 C449 1.351 . S
C449 C443 1.428 . S
C449 N448 1.351 . S
C449 C450 1.434 . S
C450 C441 1.429 . S
C450 N447 1.350 . S
C450 C449 1.434 . S
C451 C452 1.369 . S
C451 C453 1.419 . S
C451 H455 0.930 . S
C452 C451 1.369 . S
C452 C461 1.429 1_455 S
C453 C451 1.419 . S
C453 C454 1.363 1_455 S
C453 H456 0.929 . S
C454 C453 1.363 1_655 S
C454 C460 1.428 . S
H455 C451 0.930 . S
H456 C453 0.929 . S
S457 N458 1.613 . S
S457 N459 1.610 . S
N458 S457 1.613 . S
N458 C461 1.350 . S
N459 S457 1.610 . S
N459 C460 1.351 . S
C460 C454 1.428 . S
C460 N459 1.351 . S
C460 C461 1.434 . S
C461 C452 1.429 1_655 S
C461 N458 1.350 . S
C461 C460 1.434 . S
C462 C463 1.369 . S
C462 C464 1.419 . S
C462 H466 0.930 . S
C463 C462 1.369 . S
C463 C472 1.429 . S
C464 C462 1.419 . S
C464 C465 1.363 . S
C464 H467 0.929 . S
C465 C464 1.363 . S
C465 C471 1.428 . S
H466 C462 0.930 . S
H467 C464 0.929 . S
S468 N469 1.613 . S
S468 N470 1.610 . S
N469 S468 1.613 . S
N469 C472 1.350 . S
N470 S468 1.610 . S
N470 C471 1.351 . S
C471 C465 1.428 . S
C471 N470 1.351 . S
C471 C472 1.434 . S
C472 C463 1.429 . S
C472 N469 1.350 . S
C472 C471 1.434 . S
C473 C474 1.369 . S
C473 C475 1.419 . S
C473 H477 0.930 . S
C474 C473 1.369 . S
C474 C483 1.429 . S
C475 C473 1.419 . S
C475 C476 1.363 . S
C475 H478 0.929 . S
C476 C475 1.363 . S
C476 C482 1.428 . S
H477 C473 0.930 . S
H478 C475 0.929 . S
S479 N480 1.613 . S
S479 N481 1.610 . S
N480 S479 1.613 . S
N480 C483 1.350 . S
N481 S479 1.610 . S
N481 C482 1.351 . S
C482 C476 1.428 . S
C482 N481 1.351 . S
C482 C483 1.434 . S
C483 C474 1.429 . S
C483 N480 1.350 . S
C483 C482 1.434 . S
C484 C485 1.369 . S
C484 C486 1.419 . S
C484 H488 0.930 . S
C485 C484 1.369 . S
C485 C494 1.429 . S
C486 C484 1.419 . S
C486 C487 1.363 . S
C486 H489 0.929 . S
C487 C486 1.363 . S
C487 C493 1.428 . S
H488 C484 0.930 . S
H489 C486 0.929 . S
S490 N491 1.613 . S
S490 N492 1.610 . S
N491 S490 1.613 . S
N491 C494 1.350 . S
N492 S490 1.610 . S
N492 C493 1.351 . S
C493 C487 1.428 . S
C493 N492 1.351 . S
C493 C494 1.434 . S
C494 C485 1.429 . S
C494 N491 1.350 . S
C494 C493 1.434 . S
C495 C496 1.369 . S
C495 C497 1.419 . S
C495 H499 0.930 . S
C496 C495 1.369 . S
C496 C505 1.429 . S
C497 C495 1.419 . S
C497 C498 1.363 . S
C497 H500 0.929 . S
C498 C497 1.363 . S
C498 C504 1.428 . S
H499 C495 0.930 . S
H500 C497 0.929 . S
S501 N502 1.613 . S
S501 N503 1.610 . S
N502 S501 1.613 . S
N502 C505 1.350 . S
N503 S501 1.610 . S
N503 C504 1.351 . S
C504 C498 1.428 . S
C504 N503 1.351 . S
C504 C505 1.434 . S
C505 C496 1.429 . S
C505 N502 1.350 . S
C505 C504 1.434 . S
C506 C507 1.369 . S
C506 C508 1.419 . S
C506 H510 0.930 . S
C507 C506 1.369 . S
C507 C516 1.429 . S
C508 C506 1.419 . S
C508 C509 1.363 . S
C508 H511 0.929 . S
C509 C508 1.363 . S
C509 C515 1.428 . S
H510 C506 0.930 . S
H511 C508 0.929 . S
S512 N513 1.613 . S
S512 N514 1.610 . S
N513 S512 1.613 . S
N513 C516 1.350 . S
N514 S512 1.610 . S
N514 C515 1.351 . S
C515 C509 1.428 . S
C515 N514 1.351 . S
C515 C516 1.434 . S
C516 C507 1.429 . S
C516 N513 1.350 . S
C516 C515 1.434 . S
C517 C518 1.369 . S
C517 C519 1.419 . S
C517 H521 0.930 . S
C518 C517 1.369 . S
C518 C527 1.429 . S
C519 C517 1.419 . S
C519 C520 1.363 . S
C519 H522 0.929 . S
C520 C519 1.363 . S
C520 C526 1.428 . S
H521 C517 0.930 . S
H522 C519 0.929 . S
S523 N524 1.613 . S
S523 N525 1.610 . S
N524 S523 1.613 . S
N524 C527 1.350 . S
N525 S523 1.610 . S
N525 C526 1.351 . S
C526 C520 1.428 . S
C526 N525 1.351 . S
C526 C527 1.434 . S
C527 C518 1.429 . S
C527 N524 1.350 . S
C527 C526 1.434 . S
C265 C9 1.331 . S
C267 C121 1.415 . S
C276 C21 1.130 . S
C278 C161 1.195 . S
C289 C186 2.256 . S
C287 C30 2.301 . S
C298 C43 2.295 . S
C300 C226 2.398 . S
C311 C157 1.701 . S
C309 C4 1.425 . S
C322 C117 2.129 . S
C320 C22 2.019 . S
C333 C248 1.550 1_556 S
C331 C34 1.614 . S
C344 C208 1.708 . S
C342 C48 1.735 . S
C353 C8 1.534 . S
C355 C250 1.575 . S
C366 C167 2.174 . S
C364 C35 2.203 . S
C375 C47 2.443 . S
C377 C127 2.377 . S
C386 C17 1.480 . S
C388 C210 1.506 . S
C399 C130 1.007 . S
C397 C60 0.994 . S
C408 C74 1.100 . S
C410 C170 1.117 . S
C419 C82 1.993 . S
C421 C207 2.025 . S
C430 C100 2.907 . S
C432 C247 2.828 . S
C441 C61 1.843 . S
C443 C168 1.960 . S
C454 C128 1.624 . S
C452 C73 1.493 1_455 S
C465 C237 1.945 . S
C463 C87 1.980 . S
C476 C197 1.635 . S
C474 C95 1.707 . S
C485 C56 1.407 . S
C487 C241 1.348 . S
C498 C146 2.360 . S
C496 C86 2.392 . S
C509 C106 2.374 . S
C507 C99 2.410 . S
C518 C69 1.082 . S
C520 C201 1.327 . S
