# Generated by pormake.
# Topology ctn, (3,4)-cn, num edge types: 1
# Building blocks:
#     Node 0, Type 0, BuildingBlock: BETDIP_clean_linker_0, # of connection points: 3
#     Node 1, Type 0, BuildingBlock: BETDIP_clean_linker_0, # of connection points: 3
#     Node 2, Type 0, BuildingBlock: BETDIP_clean_linker_0, # of connection points: 3
#     Node 3, Type 0, BuildingBlock: BETDIP_clean_linker_0, # of connection points: 3
#     Node 4, Type 0, BuildingBlock: BETDIP_clean_linker_0, # of connection points: 3
#     Node 5, Type 0, BuildingBlock: BETDIP_clean_linker_0, # of connection points: 3
#     Node 6, Type 0, BuildingBlock: BETDIP_clean_linker_0, # of connection points: 3
#     Node 7, Type 0, BuildingBlock: BETDIP_clean_linker_0, # of connection points: 3
#     Node 8, Type 0, BuildingBlock: BETDIP_clean_linker_0, # of connection points: 3
#     Node 9, Type 0, BuildingBlock: BETDIP_clean_linker_0, # of connection points: 3
#     Node 10, Type 0, BuildingBlock: BETDIP_clean_linker_0, # of connection points: 3
#     Node 11, Type 0, BuildingBlock: BETDIP_clean_linker_0, # of connection points: 3
#     Node 12, Type 0, BuildingBlock: BETDIP_clean_linker_0, # of connection points: 3
#     Node 13, Type 0, BuildingBlock: BETDIP_clean_linker_0, # of connection points: 3
#     Node 14, Type 0, BuildingBlock: BETDIP_clean_linker_0, # of connection points: 3
#     Node 15, Type 0, BuildingBlock: BETDIP_clean_linker_0, # of connection points: 3
#     Node 16, Type 1, BuildingBlock: QUQFOY_clean_sbu_1, # of connection points: 4
#     Node 17, Type 1, BuildingBlock: QUQFOY_clean_sbu_1, # of connection points: 4
#     Node 18, Type 1, BuildingBlock: QUQFOY_clean_sbu_1, # of connection points: 4
#     Node 19, Type 1, BuildingBlock: QUQFOY_clean_sbu_1, # of connection points: 4
#     Node 20, Type 1, BuildingBlock: QUQFOY_clean_sbu_1, # of connection points: 4
#     Node 21, Type 1, BuildingBlock: QUQFOY_clean_sbu_1, # of connection points: 4
#     Node 22, Type 1, BuildingBlock: QUQFOY_clean_sbu_1, # of connection points: 4
#     Node 23, Type 1, BuildingBlock: QUQFOY_clean_sbu_1, # of connection points: 4
#     Node 24, Type 1, BuildingBlock: QUQFOY_clean_sbu_1, # of connection points: 4
#     Node 25, Type 1, BuildingBlock: QUQFOY_clean_sbu_1, # of connection points: 4
#     Node 26, Type 1, BuildingBlock: QUQFOY_clean_sbu_1, # of connection points: 4
#     Node 27, Type 1, BuildingBlock: QUQFOY_clean_sbu_1, # of connection points: 4
#     Edge 28, Type (0, 1), None
#     Edge 29, Type (0, 1), None
#     Edge 30, Type (0, 1), None
#     Edge 31, Type (0, 1), None
#     Edge 32, Type (0, 1), None
#     Edge 33, Type (0, 1), None
#     Edge 34, Type (0, 1), None
#     Edge 35, Type (0, 1), None
#     Edge 36, Type (0, 1), None
#     Edge 37, Type (0, 1), None
#     Edge 38, Type (0, 1), None
#     Edge 39, Type (0, 1), None
#     Edge 40, Type (0, 1), None
#     Edge 41, Type (0, 1), None
#     Edge 42, Type (0, 1), None
#     Edge 43, Type (0, 1), None
#     Edge 44, Type (0, 1), None
#     Edge 45, Type (0, 1), None
#     Edge 46, Type (0, 1), None
#     Edge 47, Type (0, 1), None
#     Edge 48, Type (0, 1), None
#     Edge 49, Type (0, 1), None
#     Edge 50, Type (0, 1), None
#     Edge 51, Type (0, 1), None
#     Edge 52, Type (0, 1), None
#     Edge 53, Type (0, 1), None
#     Edge 54, Type (0, 1), None
#     Edge 55, Type (0, 1), None
#     Edge 56, Type (0, 1), None
#     Edge 57, Type (0, 1), None
#     Edge 58, Type (0, 1), None
#     Edge 59, Type (0, 1), None
#     Edge 60, Type (0, 1), None
#     Edge 61, Type (0, 1), None
#     Edge 62, Type (0, 1), None
#     Edge 63, Type (0, 1), None
#     Edge 64, Type (0, 1), None
#     Edge 65, Type (0, 1), None
#     Edge 66, Type (0, 1), None
#     Edge 67, Type (0, 1), None
#     Edge 68, Type (0, 1), None
#     Edge 69, Type (0, 1), None
#     Edge 70, Type (0, 1), None
#     Edge 71, Type (0, 1), None
#     Edge 72, Type (0, 1), None
#     Edge 73, Type (0, 1), None
#     Edge 74, Type (0, 1), None
#     Edge 75, Type (0, 1), None
# Relax obj value: 0.106
# Max RMSD: 0.207
# Mean RMSD: 0.129
data_MOF--net-ctn--node1-QUQFOY_clean_sbu_1--node2-BETDIP_clean_linker_0--edge1-none
_symmetry_space_group_name_H-M    P1
_symmetry_Int_Tables_number       1
_symmetry_cell_setting            triclinic
loop_
_symmetry_equiv_pos_as_xyz
'x, y, z'
_cell_length_a     23.152198
_cell_length_b     22.571983
_cell_length_c     26.430783
_cell_angle_alpha  97.710587
_cell_angle_beta   95.315238
_cell_angle_gamma 96.775362
loop_
_atom_site_label
_atom_site_type_symbol
_atom_site_fract_x
_atom_site_fract_y
_atom_site_fract_z
_atom_type_partial_charge
H0 H 0.00627 0.07603 0.12195 0.0
H1 H 0.09902 0.02329 -0.00585 0.0
H2 H 0.11784 0.93642 0.12919 0.0
H3 H 0.08966 0.1183 0.98093 0.0
C4 C 0.04779 0.12716 -0.00642 0.0
C5 C 0.0365 0.04809 0.10497 0.0
C6 C 0.05989 0.00525 0.1319 0.0
C7 C 0.05103 0.05556 0.05594 0.0
C8 C 0.0887 0.01853 0.0326 0.0
C9 C 0.11365 0.97564 0.05874 0.0
C10 C 0.09895 0.96919 0.10862 0.0
N11 N 0.02546 0.0998 0.03098 0.0
H12 H 0.2079 0.69936 0.20411 0.0
H13 H 0.38718 0.7752 0.24598 0.0
H14 H 0.30365 0.65637 0.33929 0.0
H15 H 0.38612 0.77295 0.16101 0.0
C16 C 0.34403 0.78714 0.15017 0.0
C17 C 0.24788 0.70378 0.22992 0.0
C18 C 0.24992 0.67316 0.27289 0.0
C19 C 0.29776 0.73877 0.21891 0.0
C20 C 0.34947 0.7452 0.25248 0.0
C21 C 0.35193 0.71583 0.29611 0.0
C22 C 0.30218 0.67908 0.30565 0.0
N23 N 0.29438 0.76834 0.17471 0.0
H24 H 0.91386 0.5236 0.99205 0.0
H25 H 0.00013 0.47334 0.1262 0.0
H26 H 0.94269 0.64937 0.133 0.0
H27 H 0.00247 0.47158 0.96842 0.0
C28 C 0.98763 0.43151 0.98489 0.0
C29 C 0.93128 0.53574 0.03209 0.0
C30 C 0.92393 0.59177 0.05937 0.0
C31 C 0.9582 0.49341 0.05677 0.0
C32 C 0.97889 0.50686 0.10843 0.0
C33 C 0.97586 0.56365 0.13605 0.0
C34 C 0.94686 0.60589 0.11171 0.0
N35 N 0.96552 0.43671 0.03003 0.0
H36 H 0.67559 0.78482 0.18189 0.0
H37 H 0.77456 0.90214 0.30879 0.0
H38 H 0.85366 0.85602 0.16957 0.0
H39 H 0.69739 0.77503 0.32317 0.0
C40 C 0.664 0.80236 0.31208 0.0
C41 C 0.71669 0.81133 0.1987 0.0
C42 C 0.7646 0.81607 0.17023 0.0
C43 C 0.72118 0.84052 0.24898 0.0
C44 C 0.77275 0.87717 0.27053 0.0
C45 C 0.82079 0.88336 0.24195 0.0
C46 C 0.81723 0.85085 0.19231 0.0
N47 N 0.67127 0.83756 0.2756 0.0
H48 H -0.00458 0.96394 0.45188 0.0
H49 H 0.14143 0.04393 0.56128 0.0
H50 H 0.14082 0.06894 0.40238 0.0
H51 H 0.11189 0.94836 0.59392 0.0
C52 C 0.06442 0.94454 0.58792 0.0
C53 C 0.03908 0.9888 0.46017 0.0
C54 C 0.06624 0.01339 0.42106 0.0
C55 C 0.06693 0.99704 0.5102 0.0
C56 C 0.12142 0.03342 0.52188 0.0
C57 C 0.14826 0.05922 0.48279 0.0
C58 C 0.12166 0.04685 0.43205 0.0
N59 N 0.03694 0.97136 0.54816 0.0
H60 H 0.21885 0.79746 0.84554 0.0
H61 H 0.29788 0.65743 0.76309 0.0
H62 H 0.36098 0.72265 0.92124 0.0
H63 H 0.21468 0.81355 0.74029 0.0
C64 C 0.18773 0.77039 0.73883 0.0
C65 C 0.25214 0.7675 0.84466 0.0
C66 C 0.2903 0.76647 0.88913 0.0
C67 C 0.25538 0.72821 0.79937 0.0
C68 C 0.29722 0.68879 0.79789 0.0
C69 C 0.33566 0.68679 0.84132 0.0
C70 C 0.33197 0.72526 0.88722 0.0
N71 N 0.21214 0.72168 0.757 0.0
H72 H 0.9833 0.69711 0.49444 0.0
H73 H 0.88823 0.5231 0.43635 0.0
H74 H 0.89389 0.59384 0.59651 0.0
H75 H 0.01468 0.5406 0.43903 0.0
C76 C 0.00627 0.56943 0.40995 0.0
C77 C 0.95413 0.65805 0.50049 0.0
C78 C 0.93883 0.6521 0.54974 0.0
C79 C 0.93728 0.61079 0.4602 0.0
C80 C 0.9007 0.55977 0.46789 0.0
C81 C 0.88467 0.55345 0.51677 0.0
C82 C 0.90507 0.59904 0.55827 0.0
N83 N 0.96743 0.60873 0.41617 0.0
H84 H 0.78115 0.91156 0.78602 0.0
H85 H 0.855 0.78302 0.86995 0.0
H86 H 0.71083 0.8679 0.92351 0.0
H87 H 0.91873 0.78553 0.818 0.0
C88 C 0.90927 0.8115 0.78736 0.0
C89 C 0.7814 0.88621 0.81812 0.0
C90 C 0.74088 0.89396 0.8537 0.0
C91 C 0.82381 0.84797 0.82407 0.0
C92 C 0.82406 0.81458 0.86554 0.0
C93 C 0.78326 0.82056 0.90154 0.0
C94 C 0.74222 0.86174 0.89593 0.0
N95 N 0.86431 0.84396 0.78673 0.0
H96 H 0.28118 0.41158 0.28605 0.0
H97 H 0.35502 0.28303 0.36996 0.0
H98 H 0.21083 0.36789 0.42352 0.0
H99 H 0.41881 0.28561 0.31806 0.0
C100 C 0.40933 0.31156 0.28741 0.0
C101 C 0.28143 0.38623 0.31814 0.0
C102 C 0.24089 0.39396 0.35372 0.0
C103 C 0.32384 0.34798 0.32409 0.0
C104 C 0.32408 0.31459 0.36555 0.0
C105 C 0.28327 0.32055 0.40155 0.0
C106 C 0.24223 0.36173 0.39594 0.0
N107 N 0.36435 0.34398 0.28676 0.0
H108 H 0.41387 0.0236 0.49206 0.0
H109 H 0.50013 0.97334 0.62623 0.0
H110 H 0.44268 0.14937 0.63302 0.0
H111 H 0.50248 0.97158 0.46844 0.0
C112 C 0.48765 0.93151 0.48491 0.0
C113 C 0.43128 0.03574 0.53211 0.0
C114 C 0.42393 0.09177 0.55939 0.0
C115 C 0.45821 0.9934 0.55679 0.0
C116 C 0.47889 0.00686 0.60845 0.0
C117 C 0.47586 0.06365 0.63607 0.0
C118 C 0.44685 0.10588 0.61173 0.0
N119 N 0.46553 0.93671 0.53005 0.0
H120 H 0.1756 0.28482 0.68189 0.0
H121 H 0.27456 0.40217 0.80877 0.0
H122 H 0.35366 0.35602 0.66956 0.0
H123 H 0.19738 0.27502 0.82315 0.0
C124 C 0.16399 0.30236 0.81206 0.0
C125 C 0.21669 0.31133 0.6987 0.0
C126 C 0.2646 0.31607 0.67023 0.0
C127 C 0.22118 0.34054 0.74897 0.0
C128 C 0.27275 0.37719 0.77052 0.0
C129 C 0.32079 0.38337 0.74194 0.0
C130 C 0.31723 0.35086 0.6923 0.0
N131 N 0.17126 0.33757 0.7756 0.0
H132 H 0.70789 0.19936 0.7041 0.0
H133 H 0.88717 0.27519 0.74596 0.0
H134 H 0.80365 0.15637 0.83928 0.0
H135 H 0.8861 0.27295 0.66099 0.0
C136 C 0.84401 0.28714 0.65015 0.0
C137 C 0.74787 0.20378 0.72991 0.0
C138 C 0.74991 0.17316 0.77288 0.0
C139 C 0.79774 0.23876 0.71889 0.0
C140 C 0.84946 0.2452 0.75246 0.0
C141 C 0.85192 0.21583 0.79609 0.0
C142 C 0.80218 0.17908 0.80564 0.0
N143 N 0.79436 0.26833 0.6747 0.0
H144 H 0.50628 0.57602 0.62195 0.0
H145 H 0.599 0.52327 0.49413 0.0
H146 H 0.61783 0.43639 0.62918 0.0
H147 H 0.58966 0.61829 0.48093 0.0
C148 C 0.5478 0.62715 0.49358 0.0
C149 C 0.5365 0.54808 0.60496 0.0
C150 C 0.55989 0.50524 0.63189 0.0
C151 C 0.55102 0.55555 0.55594 0.0
C152 C 0.58869 0.5185 0.53259 0.0
C153 C 0.61364 0.47561 0.55872 0.0
C154 C 0.59894 0.46916 0.60861 0.0
N155 N 0.52546 0.59979 0.53098 0.0
H156 H 0.49541 0.46395 0.95188 0.0
H157 H 0.64142 0.54396 0.06128 0.0
H158 H 0.64082 0.56895 0.90238 0.0
H159 H 0.61189 0.4484 0.09393 0.0
C160 C 0.56442 0.44457 0.08793 0.0
C161 C 0.53907 0.48882 0.96017 0.0
C162 C 0.56624 0.5134 0.92106 0.0
C163 C 0.56693 0.49706 0.0102 0.0
C164 C 0.62141 0.53344 0.02188 0.0
C165 C 0.64826 0.55923 0.98279 0.0
C166 C 0.62165 0.54686 0.93205 0.0
N167 N 0.53694 0.47138 0.04816 0.0
H168 H 0.71888 0.29747 0.34549 0.0
H169 H 0.79795 0.15747 0.26305 0.0
H170 H 0.86095 0.22262 0.42123 0.0
H171 H 0.71475 0.3136 0.24024 0.0
C172 C 0.68779 0.27044 0.23879 0.0
C173 C 0.75217 0.26751 0.34462 0.0
C174 C 0.79031 0.26646 0.3891 0.0
C175 C 0.75544 0.22824 0.29933 0.0
C176 C 0.79727 0.18881 0.29785 0.0
C177 C 0.83568 0.18679 0.3413 0.0
C178 C 0.83196 0.22525 0.3872 0.0
N179 N 0.71222 0.22173 0.25693 0.0
H180 H 0.48332 0.19714 -0.00553 0.0
H181 H 0.38827 0.02312 0.93639 0.0
H182 H 0.39393 0.09387 0.09655 0.0
H183 H 0.5147 0.04062 0.93905 0.0
C184 C 0.50629 0.06946 0.90998 0.0
C185 C 0.45415 0.15808 0.00053 0.0
C186 C 0.43886 0.15213 0.04978 0.0
C187 C 0.43731 0.11082 0.96024 0.0
C188 C 0.40073 0.05979 0.96793 0.0
C189 C 0.3847 0.05347 0.01682 0.0
C190 C 0.4051 0.09907 0.05831 0.0
N191 N 0.46745 0.10876 0.91621 0.0
O192 O 0.33056 0.82034 0.97113 0.0
Cd193 Cd 0.33385 0.87216 0.04254 0.0
Cd194 Cd 0.24016 0.90928 -0.00146 0.0
O195 O 0.24151 0.83493 0.94263 0.0
O196 O 0.38509 0.83357 0.08889 0.0
O197 O 0.29071 0.83691 0.09621 0.0
C198 C 0.3397 0.81952 0.11176 0.0
C199 C 0.15815 0.94208 0.03451 0.0
C200 C 0.28685 0.80861 0.93688 0.0
C201 C 0.34859 0.99773 0.02312 0.0
O202 O 0.30106 0.98161 -0.00591 0.0
O203 O 0.36849 0.96224 0.05169 0.0
O204 O 0.1655 0.94396 0.98693 0.0
O205 O 0.19462 0.91585 0.06092 0.0
O206 O 0.20423 0.59141 0.30869 0.0
Cd207 Cd 0.15073 0.52055 0.3295 0.0
Cd208 Cd 0.06564 0.60133 0.26645 0.0
O209 O 0.14776 0.64409 0.26439 0.0
O210 O 0.20361 0.48655 0.38039 0.0
O211 O 0.16843 0.43696 0.30397 0.0
C212 C 0.20061 0.43904 0.34693 0.0
C213 C 0.00709 0.57821 0.18857 0.0
C214 C 0.19775 0.63451 0.28304 0.0
C215 C 0.03958 0.56752 0.36925 0.0
O216 O 0.03001 0.5997 0.33421 0.0
O217 O 0.08024 0.53428 0.36945 0.0
O218 O 0.01125 0.63144 0.21465 0.0
O219 O 0.0347 0.53845 0.20801 0.0
O220 O 0.74294 0.78263 0.97315 0.0
Cd221 Cd 0.74198 0.73505 0.03499 0.0
Cd222 Cd 0.81313 0.67303 0.98964 0.0
O223 O 0.82029 0.74481 0.94689 0.0
O224 O 0.70789 0.78295 0.08946 0.0
O225 O 0.79993 0.76336 0.09673 0.0
C226 C 0.75766 0.787 0.11678 0.0
C227 C 0.88794 0.6314 0.03308 0.0
C228 C 0.78268 0.78161 0.94307 0.0
C229 C 0.69725 0.60789 -0.00445 0.0
O230 O 0.73991 0.60992 0.96876 0.0
O231 O 0.69223 0.65239 0.0287 0.0
O232 O 0.87895 0.62386 0.98353 0.0
O233 O 0.85832 0.66804 0.05828 0.0
O234 O 0.04655 0.99221 0.33003 0.0
Cd235 Cd -0.00108 0.97999 0.25801 0.0
Cd236 Cd 0.91823 0.05101 0.32383 0.0
O237 O 0.98436 0.03874 0.37548 0.0
O238 O 0.04842 0.9498 0.20353 0.0
O239 O 0.01202 0.03638 0.20677 0.0
C240 C 0.04067 0.99741 0.18301 0.0
C241 C 0.87373 0.13889 0.3386 0.0
C242 C 0.03113 0.01501 0.37262 0.0
C243 C 0.87139 0.92894 0.26137 0.0
O244 O 0.86317 0.97553 0.29111 0.0
O245 O 0.92082 0.92311 0.24529 0.0
O246 O 0.86865 0.09841 0.36839 0.0
O247 O 0.90523 0.13038 0.30109 0.0
O248 O 0.24294 0.28261 0.47315 0.0
Cd249 Cd 0.24199 0.23503 0.53499 0.0
Cd250 Cd 0.31314 0.17302 0.48964 0.0
O251 O 0.32029 0.2448 0.44689 0.0
O252 O 0.20789 0.28294 0.58946 0.0
O253 O 0.29993 0.26335 0.59674 0.0
C254 C 0.25766 0.28699 0.61678 0.0
C255 C 0.38794 0.13139 0.53309 0.0
C256 C 0.28268 0.2816 0.44307 0.0
C257 C 0.19726 0.10788 0.49556 0.0
O258 O 0.23991 0.10991 0.46876 0.0
O259 O 0.19223 0.15237 0.5287 0.0
O260 O 0.37895 0.12385 0.48354 0.0
O261 O 0.35832 0.16803 0.55829 0.0
O262 O 0.54655 0.49221 0.83002 0.0
Cd263 Cd 0.49893 0.47998 0.758 0.0
Cd264 Cd 0.41822 0.55102 0.82383 0.0
O265 O 0.48436 0.53875 0.87547 0.0
O266 O 0.54842 0.44978 0.70353 0.0
O267 O 0.51203 0.53637 0.70677 0.0
C268 C 0.54068 0.4974 0.683 0.0
C269 C 0.37372 0.63889 0.83862 0.0
C270 C 0.53113 0.51502 0.87262 0.0
C271 C 0.37139 0.42895 0.76136 0.0
O272 O 0.36317 0.47555 0.79109 0.0
O273 O 0.42082 0.42312 0.74529 0.0
O274 O 0.36865 0.59841 0.8684 0.0
O275 O 0.40522 0.6304 0.8011 0.0
O276 O 0.83053 0.32032 0.4711 0.0
Cd277 Cd 0.83382 0.37214 0.54252 0.0
Cd278 Cd 0.74014 0.40925 0.49851 0.0
O279 O 0.74149 0.3349 0.44259 0.0
O280 O 0.88506 0.33357 0.58887 0.0
O281 O 0.79068 0.33689 0.59619 0.0
C282 C 0.83968 0.31951 0.61174 0.0
C283 C 0.65813 0.44205 0.53449 0.0
C284 C 0.78683 0.30859 0.43685 0.0
C285 C 0.84855 0.49771 0.52308 0.0
O286 O 0.80103 0.48158 0.49404 0.0
O287 O 0.86844 0.46223 0.55166 0.0
O288 O 0.66546 0.44392 0.48691 0.0
O289 O 0.69461 0.41582 0.5609 0.0
O290 O 0.70422 0.09141 0.80868 0.0
Cd291 Cd 0.65072 0.02056 0.8295 0.0
Cd292 Cd 0.56563 0.10135 0.76647 0.0
O293 O 0.64775 0.1441 0.76439 0.0
O294 O 0.7036 0.98655 0.88038 0.0
O295 O 0.66841 0.93696 0.80396 0.0
C296 C 0.7006 0.93904 0.84692 0.0
C297 C 0.50708 0.07822 0.68859 0.0
C298 C 0.69774 0.13452 0.78303 0.0
C299 C 0.53959 0.06754 0.86927 0.0
O300 O 0.53002 0.09973 0.83424 0.0
O301 O 0.58024 0.0343 0.86946 0.0
O302 O 0.51124 0.13145 0.71467 0.0
O303 O 0.53469 0.03845 0.70804 0.0
O304 O 0.97385 0.32757 0.9761 0.0
Cd305 Cd 0.96995 0.24136 0.93714 0.0
Cd306 Cd 0.02367 0.29656 0.86883 0.0
O307 O 0.01424 0.3726 0.91647 0.0
O308 O 0.96876 0.18197 0.98648 0.0
O309 O 0.0407 0.19844 0.93789 0.0
C310 C 0.0185 0.16983 0.97222 0.0
C311 C 0.11189 0.29941 0.83392 0.0
C312 C -0.00756 0.37531 0.95873 0.0
C313 C 0.90477 0.22848 0.83356 0.0
O314 O 0.95041 0.25789 0.82164 0.0
O315 O 0.90272 0.21562 0.87877 0.0
O316 O 0.07235 0.33117 0.81985 0.0
O317 O 0.1014 0.26476 0.86792 0.0
O318 O 0.47386 0.82757 0.47612 0.0
Cd319 Cd 0.46996 0.74137 0.43716 0.0
Cd320 Cd 0.52368 0.79656 0.36885 0.0
O321 O 0.51425 0.8726 0.41649 0.0
O322 O 0.46877 0.68197 0.48649 0.0
O323 O 0.54071 0.69844 0.4379 0.0
C324 C 0.5185 0.66982 0.47223 0.0
C325 C 0.6119 0.79941 0.33394 0.0
C326 C 0.49246 0.87532 0.45875 0.0
C327 C 0.40478 0.72849 0.33358 0.0
O328 O 0.45042 0.75789 0.32166 0.0
O329 O 0.40273 0.71563 0.37879 0.0
O330 O 0.57236 0.83117 0.31987 0.0
O331 O 0.60141 0.76477 0.36794 0.0
O332 O 0.9799 0.7695 0.74637 0.0
Cd333 Cd 0.03308 0.75057 0.69107 0.0
Cd334 Cd 0.97739 0.82854 0.64344 0.0
O335 O 0.93586 0.83756 0.71004 0.0
O336 O 0.09838 0.71361 0.72278 0.0
O337 O 0.10975 0.8039 0.69801 0.0
C338 C 0.13192 0.76242 0.71929 0.0
C339 C 0.03232 0.90598 0.61177 0.0
C340 C 0.94311 0.80689 0.74678 0.0
C341 C 0.96155 0.70008 0.59218 0.0
O342 O 0.94846 0.75286 0.59052 0.0
O343 O -0.00325 0.68919 0.62842 0.0
O344 O 0.97582 0.89849 0.60412 0.0
O345 O 0.0573 0.87228 0.64038 0.0
O346 O 0.47996 0.26957 0.24642 0.0
Cd347 Cd 0.53312 0.25062 0.1911 0.0
Cd348 Cd 0.47741 0.32858 0.14346 0.0
O349 O 0.43589 0.33759 0.21007 0.0
O350 O 0.59844 0.21367 0.22278 0.0
O351 O 0.60979 0.30396 0.19801 0.0
C352 C 0.63197 0.26247 0.21928 0.0
C353 C 0.53233 0.40602 0.11179 0.0
C354 C 0.44316 0.30694 0.24682 0.0
C355 C 0.46157 0.20011 0.09222 0.0
O356 O 0.44849 0.25289 0.09055 0.0
O357 O 0.49677 0.18923 0.12846 0.0
O358 O 0.47583 0.39852 0.10414 0.0
O359 O 0.55731 0.37233 0.14039 0.0
loop_
_geom_bond_atom_site_label_1
_geom_bond_atom_site_label_2
_geom_bond_distance
_geom_bond_site_symmetry_2
_ccdc_geom_bond_type
H0 C5 0.930 . S
H1 C8 0.930 . S
H2 C10 0.930 . S
H3 C4 1.016 . S
C4 H3 1.016 . S
C4 N11 1.286 . S
C5 H0 0.930 . S
C5 C6 1.397 . S
C5 C7 1.361 . S
C6 C5 1.397 . S
C6 C10 1.390 . S
C7 C5 1.361 . S
C7 C8 1.393 . S
C7 N11 1.413 . S
C8 H1 0.930 . S
C8 C7 1.393 . S
C8 C9 1.399 . S
C9 C8 1.399 . S
C9 C10 1.381 . S
C10 H2 0.930 . S
C10 C6 1.390 . S
C10 C9 1.381 . S
N11 C4 1.286 . S
N11 C7 1.413 . S
H12 C17 0.930 . S
H13 C20 0.930 . S
H14 C22 0.930 . S
H15 C16 1.016 . S
C16 H15 1.016 . S
C16 N23 1.286 . S
C17 H12 0.930 . S
C17 C18 1.397 . S
C17 C19 1.361 . S
C18 C17 1.397 . S
C18 C22 1.390 . S
C19 C17 1.361 . S
C19 C20 1.393 . S
C19 N23 1.413 . S
C20 H13 0.930 . S
C20 C19 1.393 . S
C20 C21 1.399 . S
C21 C20 1.399 . S
C21 C22 1.381 . S
C22 H14 0.930 . S
C22 C18 1.390 . S
C22 C21 1.381 . S
N23 C16 1.286 . S
N23 C19 1.413 . S
H24 C29 0.930 . S
H25 C32 0.930 . S
H26 C34 0.930 . S
H27 C28 1.016 . S
C28 H27 1.016 . S
C28 N35 1.286 . S
C29 H24 0.930 . S
C29 C30 1.397 . S
C29 C31 1.361 . S
C30 C29 1.397 . S
C30 C34 1.390 . S
C31 C29 1.361 . S
C31 C32 1.393 . S
C31 N35 1.413 . S
C32 H25 0.930 . S
C32 C31 1.393 . S
C32 C33 1.399 . S
C33 C32 1.399 . S
C33 C34 1.381 . S
C34 H26 0.930 . S
C34 C30 1.390 . S
C34 C33 1.381 . S
N35 C28 1.286 . S
N35 C31 1.413 . S
H36 C41 0.930 . S
H37 C44 0.930 . S
H38 C46 0.930 . S
H39 C40 1.016 . S
C40 H39 1.016 . S
C40 N47 1.286 . S
C41 H36 0.930 . S
C41 C42 1.397 . S
C41 C43 1.361 . S
C42 C41 1.397 . S
C42 C46 1.390 . S
C43 C41 1.361 . S
C43 C44 1.393 . S
C43 N47 1.413 . S
C44 H37 0.930 . S
C44 C43 1.393 . S
C44 C45 1.399 . S
C45 C44 1.399 . S
C45 C46 1.381 . S
C46 H38 0.930 . S
C46 C42 1.390 . S
C46 C45 1.381 . S
N47 C40 1.286 . S
N47 C43 1.413 . S
H48 C53 0.930 . S
H49 C56 0.930 . S
H50 C58 0.930 . S
H51 C52 1.016 . S
C52 H51 1.016 . S
C52 N59 1.286 . S
C53 H48 0.930 . S
C53 C54 1.397 1_565 S
C53 C55 1.361 . S
C54 C53 1.397 1_545 S
C54 C58 1.390 . S
C55 C53 1.361 . S
C55 C56 1.393 . S
C55 N59 1.413 . S
C56 H49 0.930 . S
C56 C55 1.393 . S
C56 C57 1.399 1_565 S
C57 C56 1.399 1_545 S
C57 C58 1.381 . S
C58 H50 0.930 . S
C58 C54 1.390 . S
C58 C57 1.381 . S
N59 C52 1.286 . S
N59 C55 1.413 . S
H60 C65 0.930 . S
H61 C68 0.930 . S
H62 C70 0.930 . S
H63 C64 1.016 . S
C64 H63 1.016 . S
C64 N71 1.286 . S
C65 H60 0.930 . S
C65 C66 1.397 . S
C65 C67 1.361 . S
C66 C65 1.397 . S
C66 C70 1.390 . S
C67 C65 1.361 . S
C67 C68 1.393 . S
C67 N71 1.413 . S
C68 H61 0.930 . S
C68 C67 1.393 . S
C68 C69 1.399 . S
C69 C68 1.399 . S
C69 C70 1.381 . S
C70 H62 0.930 . S
C70 C66 1.390 . S
C70 C69 1.381 . S
N71 C64 1.286 . S
N71 C67 1.413 . S
H72 C77 0.930 . S
H73 C80 0.930 . S
H74 C82 0.930 . S
H75 C76 1.016 . S
C76 H75 1.016 . S
C76 N83 1.286 . S
C77 H72 0.930 . S
C77 C78 1.397 . S
C77 C79 1.361 . S
C78 C77 1.397 . S
C78 C82 1.390 . S
C79 C77 1.361 . S
C79 C80 1.393 . S
C79 N83 1.413 . S
C80 H73 0.930 . S
C80 C79 1.393 . S
C80 C81 1.399 . S
C81 C80 1.399 . S
C81 C82 1.381 . S
C82 H74 0.930 . S
C82 C78 1.390 . S
C82 C81 1.381 . S
N83 C76 1.286 . S
N83 C79 1.413 . S
H84 C89 0.930 . S
H85 C92 0.930 . S
H86 C94 0.930 . S
H87 C88 1.016 . S
C88 H87 1.016 . S
C88 N95 1.286 . S
C89 H84 0.930 . S
C89 C90 1.397 . S
C89 C91 1.361 . S
C90 C89 1.397 . S
C90 C94 1.390 . S
C91 C89 1.361 . S
C91 C92 1.393 . S
C91 N95 1.413 . S
C92 H85 0.930 . S
C92 C91 1.393 . S
C92 C93 1.399 . S
C93 C92 1.399 . S
C93 C94 1.381 . S
C94 H86 0.930 . S
C94 C90 1.390 . S
C94 C93 1.381 . S
N95 C88 1.286 . S
N95 C91 1.413 . S
H96 C101 0.930 . S
H97 C104 0.930 . S
H98 C106 0.930 . S
H99 C100 1.016 . S
C100 H99 1.016 . S
C100 N107 1.286 . S
C101 H96 0.930 . S
C101 C102 1.397 . S
C101 C103 1.361 . S
C102 C101 1.397 . S
C102 C106 1.390 . S
C103 C101 1.361 . S
C103 C104 1.393 . S
C103 N107 1.413 . S
C104 H97 0.930 . S
C104 C103 1.393 . S
C104 C105 1.399 . S
C105 C104 1.399 . S
C105 C106 1.381 . S
C106 H98 0.930 . S
C106 C102 1.390 . S
C106 C105 1.381 . S
N107 C100 1.286 . S
N107 C103 1.413 . S
H108 C113 0.930 . S
H109 C116 0.930 . S
H110 C118 0.930 . S
H111 C112 1.016 . S
C112 H111 1.016 . S
C112 N119 1.286 . S
C113 H108 0.930 . S
C113 C114 1.397 . S
C113 C115 1.361 . S
C114 C113 1.397 . S
C114 C118 1.390 1_565 S
C115 C113 1.361 . S
C115 C116 1.393 . S
C115 N119 1.413 . S
C116 H109 0.930 . S
C116 C115 1.393 . S
C116 C117 1.399 . S
C117 C116 1.399 . S
C117 C118 1.381 1_565 S
C118 H110 0.930 . S
C118 C114 1.390 1_545 S
C118 C117 1.381 1_545 S
N119 C112 1.286 . S
N119 C115 1.413 . S
H120 C125 0.930 . S
H121 C128 0.930 . S
H122 C130 0.930 . S
H123 C124 1.016 . S
C124 H123 1.016 . S
C124 N131 1.286 . S
C125 H120 0.930 . S
C125 C126 1.397 . S
C125 C127 1.361 . S
C126 C125 1.397 . S
C126 C130 1.390 . S
C127 C125 1.361 . S
C127 C128 1.393 . S
C127 N131 1.413 . S
C128 H121 0.930 . S
C128 C127 1.393 . S
C128 C129 1.399 . S
C129 C128 1.399 . S
C129 C130 1.381 . S
C130 H122 0.930 . S
C130 C126 1.390 . S
C130 C129 1.381 . S
N131 C124 1.286 . S
N131 C127 1.413 . S
H132 C137 0.930 . S
H133 C140 0.930 . S
H134 C142 0.930 . S
H135 C136 1.016 . S
C136 H135 1.016 . S
C136 N143 1.286 . S
C137 H132 0.930 . S
C137 C138 1.397 . S
C137 C139 1.361 . S
C138 C137 1.397 . S
C138 C142 1.390 . S
C139 C137 1.361 . S
C139 C140 1.393 . S
C139 N143 1.413 . S
C140 H133 0.930 . S
C140 C139 1.393 . S
C140 C141 1.399 . S
C141 C140 1.399 . S
C141 C142 1.381 . S
C142 H134 0.930 . S
C142 C138 1.390 . S
C142 C141 1.381 . S
N143 C136 1.286 . S
N143 C139 1.413 . S
H144 C149 0.930 . S
H145 C152 0.930 . S
H146 C154 0.930 . S
H147 C148 1.016 . S
C148 H147 1.016 . S
C148 N155 1.286 . S
C149 H144 0.930 . S
C149 C150 1.397 . S
C149 C151 1.361 . S
C150 C149 1.397 . S
C150 C154 1.390 . S
C151 C149 1.361 . S
C151 C152 1.393 . S
C151 N155 1.413 . S
C152 H145 0.930 . S
C152 C151 1.393 . S
C152 C153 1.399 . S
C153 C152 1.399 . S
C153 C154 1.381 . S
C154 H146 0.930 . S
C154 C150 1.390 . S
C154 C153 1.381 . S
N155 C148 1.286 . S
N155 C151 1.413 . S
H156 C161 0.930 . S
H157 C164 0.916 1_554 S
H158 C166 0.930 . S
H159 C160 1.016 . S
C160 H159 1.016 . S
C160 N167 1.286 1_554 S
C161 H156 0.930 . S
C161 C162 1.397 . S
C161 C163 1.361 . S
C162 C161 1.397 . S
C162 C166 1.390 . S
C163 C161 1.361 . S
C163 C164 1.393 . S
C163 N167 1.413 . S
C164 H157 0.916 1_556 S
C164 C163 1.393 . S
C164 C165 1.399 . S
C165 C164 1.399 . S
C165 C166 1.381 . S
C166 H158 0.930 . S
C166 C162 1.390 . S
C166 C165 1.381 . S
N167 C160 1.286 1_556 S
N167 C163 1.413 . S
H168 C173 0.930 . S
H169 C176 0.930 . S
H170 C178 0.930 . S
H171 C172 1.016 . S
C172 H171 1.016 . S
C172 N179 1.286 . S
C173 H168 0.930 . S
C173 C174 1.397 . S
C173 C175 1.361 . S
C174 C173 1.397 . S
C174 C178 1.390 . S
C175 C173 1.361 . S
C175 C176 1.393 . S
C175 N179 1.413 . S
C176 H169 0.930 . S
C176 C175 1.393 . S
C176 C177 1.399 . S
C177 C176 1.399 . S
C177 C178 1.381 . S
C178 H170 0.930 . S
C178 C174 1.390 . S
C178 C177 1.381 . S
N179 C172 1.286 . S
N179 C175 1.413 . S
H180 C185 0.930 . S
H181 C188 0.930 . S
H182 C190 0.930 . S
H183 C184 1.016 . S
C184 H183 1.016 . S
C184 N191 1.286 . S
C185 H180 0.930 . S
C185 C186 1.397 1_556 S
C185 C187 1.361 . S
C186 C185 1.397 1_554 S
C186 C190 1.390 . S
C187 C185 1.361 . S
C187 C188 1.393 . S
C187 N191 1.413 . S
C188 H181 0.930 . S
C188 C187 1.393 . S
C188 C189 1.408 . S
C189 C188 1.408 . S
C189 C190 1.376 1_556 S
C190 H182 0.930 . S
C190 C186 1.390 . S
C190 C189 1.376 1_554 S
N191 C184 1.286 . S
N191 C187 1.413 . S
O192 Cd193 2.223 . S
O192 C200 1.315 . S
Cd193 O192 2.223 . S
Cd193 O196 2.297 . S
Cd193 O197 2.439 . S
Cd193 O203 2.233 1_565 S
Cd194 O195 2.240 . S
Cd194 O202 2.223 1_564 S
Cd194 O204 2.297 1_565 S
Cd194 O205 2.439 1_565 S
O195 Cd194 2.240 . S
O195 C200 1.279 . S
O196 Cd193 2.297 . S
O196 C198 1.247 . S
O197 Cd193 2.439 . S
O197 C198 1.208 . S
C198 O196 1.247 . S
C198 O197 1.208 . S
C199 O204 1.247 . S
C199 O205 1.208 . S
C200 O192 1.315 . S
C200 O195 1.279 . S
C201 O202 1.315 1_554 S
C201 O203 1.282 . S
O202 Cd194 2.223 1_546 S
O202 C201 1.315 1_556 S
O203 Cd193 2.233 1_545 S
O203 C201 1.282 . S
O204 Cd194 2.297 1_545 S
O204 C199 1.247 . S
O205 Cd194 2.439 1_545 S
O205 C199 1.208 . S
O206 Cd207 2.223 . S
O206 C214 1.315 . S
Cd207 O206 2.223 . S
Cd207 O210 2.297 . S
Cd207 O211 2.439 . S
Cd207 O217 2.240 . S
Cd208 O209 2.240 . S
Cd208 O216 2.223 . S
Cd208 O218 2.297 1_455 S
Cd208 O219 2.439 . S
O209 Cd208 2.240 . S
O209 C214 1.279 . S
O210 Cd207 2.297 . S
O210 C212 1.247 . S
O211 Cd207 2.439 . S
O211 C212 1.208 . S
C212 O210 1.247 . S
C212 O211 1.208 . S
C213 O218 1.247 . S
C213 O219 1.208 1_655 S
C214 O206 1.315 . S
C214 O209 1.279 . S
C215 O216 1.315 . S
C215 O217 1.279 . S
O216 Cd208 2.223 . S
O216 C215 1.315 . S
O217 Cd207 2.240 . S
O217 C215 1.279 . S
O218 Cd208 2.297 1_655 S
O218 C213 1.247 . S
O219 Cd208 2.439 . S
O219 C213 1.208 1_455 S
O220 Cd221 2.223 1_556 S
O220 C228 1.315 . S
Cd221 O220 2.223 1_554 S
Cd221 O224 2.297 . S
Cd221 O225 2.439 . S
Cd221 O231 2.240 . S
Cd222 O223 2.240 . S
Cd222 O230 2.223 . S
Cd222 O232 2.297 1_556 S
Cd222 O233 2.439 1_556 S
O223 Cd222 2.240 . S
O223 C228 1.279 . S
O224 Cd221 2.297 . S
O224 C226 1.247 . S
O225 Cd221 2.439 . S
O225 C226 1.208 . S
C226 O224 1.247 . S
C226 O225 1.208 . S
C227 O232 1.247 . S
C227 O233 1.208 . S
C228 O220 1.315 . S
C228 O223 1.279 . S
C229 O230 1.315 . S
C229 O231 1.279 1_556 S
O230 Cd222 2.223 . S
O230 C229 1.315 . S
O231 Cd221 2.240 . S
O231 C229 1.279 1_554 S
O232 Cd222 2.297 1_554 S
O232 C227 1.247 . S
O233 Cd222 2.439 1_554 S
O233 C227 1.208 . S
O234 Cd235 2.223 1_465 S
O234 C242 1.315 1_565 S
Cd235 O234 2.223 1_645 S
Cd235 O238 2.297 1_655 S
Cd235 O239 2.439 1_655 S
Cd235 O245 2.240 . S
Cd236 O237 2.240 1_655 S
Cd236 O244 2.223 . S
Cd236 O246 2.297 . S
Cd236 O247 2.439 . S
O237 Cd236 2.240 1_455 S
O237 C242 1.279 . S
O238 Cd235 2.297 1_455 S
O238 C240 1.247 . S
O239 Cd235 2.439 1_455 S
O239 C240 1.208 . S
C240 O238 1.247 . S
C240 O239 1.208 . S
C241 O246 1.247 . S
C241 O247 1.208 . S
C242 O234 1.315 1_545 S
C242 O237 1.279 . S
C243 O244 1.315 1_565 S
C243 O245 1.279 1_565 S
O244 Cd236 2.223 . S
O244 C243 1.315 1_545 S
O245 Cd235 2.240 . S
O245 C243 1.279 1_545 S
O246 Cd236 2.297 . S
O246 C241 1.247 . S
O247 Cd236 2.439 . S
O247 C241 1.208 . S
O248 Cd249 2.223 . S
O248 C256 1.315 . S
Cd249 O248 2.223 . S
Cd249 O252 2.297 . S
Cd249 O253 2.439 . S
Cd249 O259 2.240 . S
Cd250 O251 2.240 . S
Cd250 O258 2.223 . S
Cd250 O260 2.297 . S
Cd250 O261 2.439 . S
O251 Cd250 2.240 . S
O251 C256 1.279 . S
O252 Cd249 2.297 . S
O252 C254 1.247 . S
O253 Cd249 2.439 . S
O253 C254 1.208 . S
C254 O252 1.247 . S
C254 O253 1.208 . S
C255 O260 1.247 . S
C255 O261 1.208 . S
C256 O248 1.315 . S
C256 O251 1.279 . S
C257 O258 1.315 . S
C257 O259 1.279 . S
O258 Cd250 2.223 . S
O258 C257 1.315 . S
O259 Cd249 2.240 . S
O259 C257 1.279 . S
O260 Cd250 2.297 . S
O260 C255 1.247 . S
O261 Cd250 2.439 . S
O261 C255 1.208 . S
O262 Cd263 2.223 . S
O262 C270 1.315 . S
Cd263 O262 2.223 . S
Cd263 O266 2.297 . S
Cd263 O267 2.439 . S
Cd263 O273 2.240 . S
Cd264 O265 2.240 . S
Cd264 O272 2.223 . S
Cd264 O274 2.297 . S
Cd264 O275 2.439 . S
O265 Cd264 2.240 . S
O265 C270 1.279 . S
O266 Cd263 2.297 . S
O266 C268 1.247 . S
O267 Cd263 2.439 . S
O267 C268 1.208 . S
C268 O266 1.247 . S
C268 O267 1.208 . S
C269 O274 1.247 . S
C269 O275 1.208 . S
C270 O262 1.315 . S
C270 O265 1.279 . S
C271 O272 1.315 . S
C271 O273 1.279 . S
O272 Cd264 2.223 . S
O272 C271 1.315 . S
O273 Cd263 2.240 . S
O273 C271 1.279 . S
O274 Cd264 2.297 . S
O274 C269 1.247 . S
O275 Cd264 2.439 . S
O275 C269 1.208 . S
O276 Cd277 2.223 . S
O276 C284 1.315 . S
Cd277 O276 2.223 . S
Cd277 O280 2.297 . S
Cd277 O281 2.439 . S
Cd277 O287 2.240 . S
Cd278 O279 2.240 . S
Cd278 O286 2.223 . S
Cd278 O288 2.297 . S
Cd278 O289 2.439 . S
O279 Cd278 2.240 . S
O279 C284 1.279 . S
O280 Cd277 2.297 . S
O280 C282 1.247 . S
O281 Cd277 2.439 . S
O281 C282 1.208 . S
C282 O280 1.247 . S
C282 O281 1.208 . S
C283 O288 1.247 . S
C283 O289 1.208 . S
C284 O276 1.315 . S
C284 O279 1.279 . S
C285 O286 1.315 . S
C285 O287 1.279 . S
O286 Cd278 2.223 . S
O286 C285 1.315 . S
O287 Cd277 2.240 . S
O287 C285 1.279 . S
O288 Cd278 2.297 . S
O288 C283 1.247 . S
O289 Cd278 2.439 . S
O289 C283 1.208 . S
O290 Cd291 2.223 1_545 S
O290 C298 1.315 . S
Cd291 O290 2.223 1_565 S
Cd291 O294 2.297 . S
Cd291 O295 2.439 . S
Cd291 O301 2.240 1_565 S
Cd292 O293 2.240 . S
Cd292 O300 2.223 . S
Cd292 O302 2.297 . S
Cd292 O303 2.439 1_545 S
O293 Cd292 2.240 . S
O293 C298 1.279 . S
O294 Cd291 2.297 . S
O294 C296 1.247 . S
O295 Cd291 2.439 . S
O295 C296 1.208 . S
C296 O294 1.247 . S
C296 O295 1.208 . S
C297 O302 1.247 1_565 S
C297 O303 1.208 . S
C298 O290 1.315 . S
C298 O293 1.279 . S
C299 O300 1.315 . S
C299 O301 1.279 . S
O300 Cd292 2.223 . S
O300 C299 1.315 . S
O301 Cd291 2.240 1_545 S
O301 C299 1.279 . S
O302 Cd292 2.297 . S
O302 C297 1.247 1_545 S
O303 Cd292 2.439 1_565 S
O303 C297 1.208 . S
O304 Cd305 2.223 . S
O304 C312 1.315 . S
Cd305 O304 2.223 . S
Cd305 O308 2.297 1_656 S
Cd305 O309 2.439 1_655 S
Cd305 O315 2.240 . S
Cd306 O307 2.240 . S
Cd306 O314 2.223 1_455 S
Cd306 O316 2.297 . S
Cd306 O317 2.439 . S
O307 Cd306 2.240 . S
O307 C312 1.279 1_455 S
O308 Cd305 2.297 1_454 S
O308 C310 1.247 1_554 S
O309 Cd305 2.439 1_455 S
O309 C310 1.208 . S
C310 O308 1.247 1_556 S
C310 O309 1.208 . S
C311 O316 1.247 . S
C311 O317 1.208 . S
C312 O304 1.315 . S
C312 O307 1.279 1_655 S
C313 O314 1.315 . S
C313 O315 1.279 . S
O314 Cd306 2.223 1_655 S
O314 C313 1.315 . S
O315 Cd305 2.240 . S
O315 C313 1.279 . S
O316 Cd306 2.297 . S
O316 C311 1.247 . S
O317 Cd306 2.439 . S
O317 C311 1.208 . S
O318 Cd319 2.223 . S
O318 C326 1.315 . S
Cd319 O318 2.223 . S
Cd319 O322 2.297 . S
Cd319 O323 2.439 . S
Cd319 O329 2.240 . S
Cd320 O321 2.240 . S
Cd320 O328 2.223 . S
Cd320 O330 2.297 . S
Cd320 O331 2.439 . S
O321 Cd320 2.240 . S
O321 C326 1.279 . S
O322 Cd319 2.297 . S
O322 C324 1.247 . S
O323 Cd319 2.439 . S
O323 C324 1.208 . S
C324 O322 1.247 . S
C324 O323 1.208 . S
C325 O330 1.247 . S
C325 O331 1.208 . S
C326 O318 1.315 . S
C326 O321 1.279 . S
C327 O328 1.315 . S
C327 O329 1.279 . S
O328 Cd320 2.223 . S
O328 C327 1.315 . S
O329 Cd319 2.240 . S
O329 C327 1.279 . S
O330 Cd320 2.297 . S
O330 C325 1.247 . S
O331 Cd320 2.439 . S
O331 C325 1.208 . S
O332 Cd333 2.223 1_655 S
O332 C340 1.315 . S
Cd333 O332 2.223 1_455 S
Cd333 O336 2.297 . S
Cd333 O337 2.439 . S
Cd333 O343 2.240 . S
Cd334 O335 2.240 . S
Cd334 O342 2.223 . S
Cd334 O344 2.297 1_655 S
Cd334 O345 2.439 1_655 S
O335 Cd334 2.240 . S
O335 C340 1.279 . S
O336 Cd333 2.297 . S
O336 C338 1.247 . S
O337 Cd333 2.439 . S
O337 C338 1.208 . S
C338 O336 1.247 . S
C338 O337 1.208 . S
C339 O344 1.247 . S
C339 O345 1.208 . S
C340 O332 1.315 . S
C340 O335 1.279 . S
C341 O342 1.315 . S
C341 O343 1.279 1_655 S
O342 Cd334 2.223 . S
O342 C341 1.315 . S
O343 Cd333 2.240 . S
O343 C341 1.279 1_455 S
O344 Cd334 2.297 1_455 S
O344 C339 1.247 . S
O345 Cd334 2.439 1_455 S
O345 C339 1.208 . S
O346 Cd347 2.223 . S
O346 C354 1.315 . S
Cd347 O346 2.223 . S
Cd347 O350 2.297 . S
Cd347 O351 2.439 . S
Cd347 O357 2.240 . S
Cd348 O349 2.240 . S
Cd348 O356 2.223 . S
Cd348 O358 2.297 . S
Cd348 O359 2.439 . S
O349 Cd348 2.240 . S
O349 C354 1.279 . S
O350 Cd347 2.297 . S
O350 C352 1.247 . S
O351 Cd347 2.439 . S
O351 C352 1.208 . S
C352 O350 1.247 . S
C352 O351 1.208 . S
C353 O358 1.247 . S
C353 O359 1.208 . S
C354 O346 1.315 . S
C354 O349 1.279 . S
C355 O356 1.315 . S
C355 O357 1.279 . S
O356 Cd348 2.223 . S
O356 C355 1.315 . S
O357 Cd347 2.240 . S
O357 C355 1.279 . S
O358 Cd348 2.297 . S
O358 C353 1.247 . S
O359 Cd348 2.439 . S
O359 C353 1.208 . S
C200 C66 1.888 1_554 S
C215 C76 1.728 1_455 S
C93 C228 2.292 . S
C242 C54 1.499 . S
C254 C126 1.786 . S
C268 C150 1.588 . S
C136 C282 1.579 . S
C297 C117 1.880 . S
C141 C313 1.525 . S
C326 C112 1.405 . S
C124 C311 1.690 . S
C324 C148 2.018 . S
C88 C340 1.652 . S
C52 C339 1.726 . S
C64 C338 1.403 . S
C78 C341 1.426 . S
C45 C243 2.464 . S
C177 C241 1.778 . S
C201 C189 1.509 1_554 S
C212 C102 2.038 . S
C57 C257 1.769 . S
C298 C138 2.038 . S
C255 C114 2.470 1_545 S
C283 C153 1.716 . S
C284 C174 1.888 . S
C184 C299 1.728 . S
C105 C256 2.292 . S
C270 C162 1.499 . S
C42 C226 1.786 . S
C240 C6 1.588 . S
C198 C16 1.579 . S
C213 C33 1.880 . S
C21 C327 1.525 . S
C28 C312 1.405 1_554 S
C40 C325 1.690 . S
C4 C310 2.019 1_554 S
C354 C100 1.652 . S
C353 C160 1.726 . S
C352 C172 1.403 . S
C186 C355 1.426 . S
C129 C271 2.464 . S
C269 C69 1.778 . S
C285 C81 1.516 . S
C296 C90 2.038 . S
C165 C229 1.769 . S
C214 C18 2.038 . S
C30 C227 2.469 . S
C199 C9 1.716 . S
