# Generated by pormake.
# Topology zzz, (3,6)-cn, num edge types: 1
# Building blocks:
#     Node 0, Type 0, BuildingBlock: BETDAH_clean_linker_0, # of connection points: 3
#     Node 1, Type 0, BuildingBlock: BETDAH_clean_linker_0, # of connection points: 3
#     Node 2, Type 0, BuildingBlock: BETDAH_clean_linker_0, # of connection points: 3
#     Node 3, Type 0, BuildingBlock: BETDAH_clean_linker_0, # of connection points: 3
#     Node 4, Type 0, BuildingBlock: BETDAH_clean_linker_0, # of connection points: 3
#     Node 5, Type 0, BuildingBlock: BETDAH_clean_linker_0, # of connection points: 3
#     Node 6, Type 0, BuildingBlock: BETDAH_clean_linker_0, # of connection points: 3
#     Node 7, Type 0, BuildingBlock: BETDAH_clean_linker_0, # of connection points: 3
#     Node 8, Type 1, BuildingBlock: FUNLAD_clean_sbu_0, # of connection points: 6
#     Node 9, Type 1, BuildingBlock: FUNLAD_clean_sbu_0, # of connection points: 6
#     Node 10, Type 1, BuildingBlock: FUNLAD_clean_sbu_0, # of connection points: 6
#     Node 11, Type 1, BuildingBlock: FUNLAD_clean_sbu_0, # of connection points: 6
#     Edge 12, Type (0, 1), BuildingBlock: AJUNOK_clean_linker_0, # of connection points: 2
#     Edge 13, Type (0, 1), BuildingBlock: AJUNOK_clean_linker_0, # of connection points: 2
#     Edge 14, Type (0, 1), BuildingBlock: AJUNOK_clean_linker_0, # of connection points: 2
#     Edge 15, Type (0, 1), BuildingBlock: AJUNOK_clean_linker_0, # of connection points: 2
#     Edge 16, Type (0, 1), BuildingBlock: AJUNOK_clean_linker_0, # of connection points: 2
#     Edge 17, Type (0, 1), BuildingBlock: AJUNOK_clean_linker_0, # of connection points: 2
#     Edge 18, Type (0, 1), BuildingBlock: AJUNOK_clean_linker_0, # of connection points: 2
#     Edge 19, Type (0, 1), BuildingBlock: AJUNOK_clean_linker_0, # of connection points: 2
#     Edge 20, Type (0, 1), BuildingBlock: AJUNOK_clean_linker_0, # of connection points: 2
#     Edge 21, Type (0, 1), BuildingBlock: AJUNOK_clean_linker_0, # of connection points: 2
#     Edge 22, Type (0, 1), BuildingBlock: AJUNOK_clean_linker_0, # of connection points: 2
#     Edge 23, Type (0, 1), BuildingBlock: AJUNOK_clean_linker_0, # of connection points: 2
#     Edge 24, Type (0, 1), BuildingBlock: AJUNOK_clean_linker_0, # of connection points: 2
#     Edge 25, Type (0, 1), BuildingBlock: AJUNOK_clean_linker_0, # of connection points: 2
#     Edge 26, Type (0, 1), BuildingBlock: AJUNOK_clean_linker_0, # of connection points: 2
#     Edge 27, Type (0, 1), BuildingBlock: AJUNOK_clean_linker_0, # of connection points: 2
#     Edge 28, Type (0, 1), BuildingBlock: AJUNOK_clean_linker_0, # of connection points: 2
#     Edge 29, Type (0, 1), BuildingBlock: AJUNOK_clean_linker_0, # of connection points: 2
#     Edge 30, Type (0, 1), BuildingBlock: AJUNOK_clean_linker_0, # of connection points: 2
#     Edge 31, Type (0, 1), BuildingBlock: AJUNOK_clean_linker_0, # of connection points: 2
#     Edge 32, Type (0, 1), BuildingBlock: AJUNOK_clean_linker_0, # of connection points: 2
#     Edge 33, Type (0, 1), BuildingBlock: AJUNOK_clean_linker_0, # of connection points: 2
#     Edge 34, Type (0, 1), BuildingBlock: AJUNOK_clean_linker_0, # of connection points: 2
#     Edge 35, Type (0, 1), BuildingBlock: AJUNOK_clean_linker_0, # of connection points: 2
# Relax obj value: 0.112
# Max RMSD: 0.175
# Mean RMSD: 0.094
data_MOF--net-zzz--node1-FUNLAD_clean_sbu_0--node2-BETDAH_clean_linker_0--edge1-AJUNOK_clean_linker_0
_symmetry_space_group_name_H-M    P1
_symmetry_Int_Tables_number       1
_symmetry_cell_setting            triclinic
loop_
_symmetry_equiv_pos_as_xyz
'x, y, z'
_cell_length_a     37.568711
_cell_length_b     43.061025
_cell_length_c     13.583991
_cell_angle_alpha  84.165593
_cell_angle_beta   82.318945
_cell_angle_gamma 89.500375
loop_
_atom_site_label
_atom_site_type_symbol
_atom_site_fract_x
_atom_site_fract_y
_atom_site_fract_z
_atom_type_partial_charge
H0 H 0.92851 0.49821 0.29873 0.0
H1 H 0.83366 0.49989 0.15454 0.0
H2 H 0.82921 0.52973 0.45009 0.0
C3 C 0.89979 0.50187 0.30101 0.0
C4 C 0.8807 0.51388 0.38385 0.0
C5 C 0.88298 0.49673 0.21847 0.0
C6 C 0.84629 0.50319 0.21991 0.0
C7 C 0.82653 0.51486 0.304 0.0
C8 C 0.844 0.52024 0.38592 0.0
N9 N 0.78957 0.52237 0.30666 0.0
C10 C 0.77046 0.51914 0.22746 0.0
H11 H 0.98475 0.88842 0.02767 0.0
H12 H 0.02582 0.7969 -0.01154 0.0
H13 H 0.98718 0.82129 0.28323 0.0
C14 C 0.98964 0.86488 0.05967 0.0
C15 C 0.98673 0.85854 0.16332 0.0
C16 C 1.00727 0.84392 -0.00205 0.0
C17 C 1.01229 0.81313 0.03665 0.0
C18 C 1.00149 0.80407 0.13897 0.0
C19 C 0.99075 0.82732 0.20314 0.0
N20 N 1.00392 0.77249 0.17986 0.0
C21 C 1.01002 0.74762 0.12157 0.0
H22 H 0.67087 0.02705 0.16907 0.0
H23 H 0.77292 1.00847 0.00151 0.0
H24 H 0.75824 0.99445 0.324 0.0
C25 C 0.69898 0.02067 0.16713 0.0
C26 C 0.71219 1.01169 0.25661 0.0
C27 C 0.72036 0.01947 0.07525 0.0
C28 C 0.75647 1.01002 0.07265 0.0
C29 C 0.77054 1.00148 0.16305 0.0
C30 C 0.74789 1.00172 0.25457 0.0
N31 N 0.80656 0.99122 0.16584 0.0
C32 C 0.83503 0.99573 0.0885 0.0
H33 H 0.54832 0.61422 0.19593 0.0
H34 H 0.54665 0.70416 0.02665 0.0
H35 H 0.58634 0.69495 0.31188 0.0
C36 C 0.55325 0.6392 0.1887 0.0
C37 C 0.56839 0.65231 0.26346 0.0
C38 C 0.54491 0.65769 0.10401 0.0
C39 C 0.55224 0.68996 0.09328 0.0
C40 C 0.56696 0.70352 0.16928 0.0
C41 C 0.57481 0.68454 0.25389 0.0
N42 N 0.5747 0.7359 0.16413 0.0
C43 C 0.56931 0.75846 0.08676 0.0
H44 H 0.16475 0.53387 0.18103 0.0
H45 H 0.26015 0.53324 0.32249 0.0
H46 H 0.26412 0.50326 0.02722 0.0
C47 C 0.19351 0.53034 0.17812 0.0
C48 C 0.2125 0.51839 0.09499 0.0
C49 C 0.21061 0.53589 0.2598 0.0
C50 C 0.24736 0.52969 0.2576 0.0
C51 C 0.26701 0.51806 0.1733 0.0
C52 C 0.24937 0.51259 0.09173 0.0
N53 N 0.30402 0.51066 0.1702 0.0
C54 C 0.32293 0.51312 0.25031 0.0
H55 H 0.10533 0.14083 0.46758 0.0
H56 H 0.06468 0.23222 0.50978 0.0
H57 H 0.10105 0.20814 0.21336 0.0
C58 C 0.10032 0.1644 0.43619 0.0
C59 C 0.10266 0.17086 0.33268 0.0
C60 C 0.08308 0.1853 0.49884 0.0
C61 C 0.07791 0.21611 0.4608 0.0
C62 C 0.08772 0.22524 0.35819 0.0
C63 C 0.09812 0.20207 0.2934 0.0
N64 N 0.08442 0.25678 0.31786 0.0
C65 C 0.07957 0.28171 0.37637 0.0
H66 H 0.42028 1.00353 0.32903 0.0
H67 H 0.31848 0.02251 0.49732 0.0
H68 H 0.33298 0.03682 0.17493 0.0
C69 C 0.39221 1.01003 0.33117 0.0
C70 C 0.37899 0.0192 0.24183 0.0
C71 C 0.37093 1.0113 0.42319 0.0
C72 C 0.33485 0.02089 0.4261 0.0
C73 C 0.32075 0.02958 0.3359 0.0
C74 C 0.34333 0.02936 0.24421 0.0
N75 N 0.28486 0.0402 0.33353 0.0
C76 C 0.25612 0.03527 0.41001 0.0
H77 H 0.54179 0.41517 0.28873 0.0
H78 H 0.54312 0.32594 0.46199 0.0
H79 H 0.5015 0.33415 0.17942 0.0
C80 C 0.53656 0.39022 0.29742 0.0
C81 C 0.5207 0.37688 0.22437 0.0
C82 C 0.54514 0.37204 0.38239 0.0
C83 C 0.53743 0.33985 0.39491 0.0
C84 C 0.52186 0.32603 0.32093 0.0
C85 C 0.51365 0.34471 0.23604 0.0
N86 N 0.51328 0.29372 0.32945 0.0
C87 C 0.52284 0.27125 0.40221 0.0
C88 C 0.05646 0.95215 0.7923 0.0
N89 N 1.0175 0.99745 0.55021 0.0
C90 C 0.04297 0.97998 0.50053 0.0
C91 C 0.03405 0.96061 0.43214 0.0
C92 C 0.99845 0.9587 0.41363 0.0
C93 C 0.97248 0.97739 0.463 0.0
C94 C 0.98272 0.99693 0.53138 0.0
Zn95 Zn 0.03296 1.01265 0.67754 0.0
C96 C 0.97513 1.00649 0.84677 0.0
N97 N 0.07269 0.03203 0.94454 0.0
C98 C 0.10741 0.03256 0.96393 0.0
C99 C 0.04712 0.04944 -0.00585 0.0
C100 C 0.05585 0.0687 0.0631 0.0
C101 C 0.09136 0.07063 0.08217 0.0
C102 C 0.11746 0.052 0.03292 0.0
Zn103 Zn 0.05725 0.0167 0.81705 0.0
O104 O 0.04321 0.96543 0.71809 0.0
C105 C 0.11489 0.02306 0.64643 0.0
O106 O 0.06699 0.96875 0.85553 0.0
H107 H 1.02022 0.05075 0.97494 0.0
H108 H 0.06994 0.97874 0.51931 0.0
H109 H 0.12772 0.0194 0.92205 0.0
O110 O 0.0871 0.01997 0.60415 0.0
O111 O 0.11109 0.02245 0.74102 0.0
H112 H 0.96251 1.01019 0.57322 0.0
O113 O 0.04751 0.06409 0.77553 0.0
O114 O 0.02256 0.06036 0.64001 0.0
O115 O 1.00256 1.00991 0.89044 0.0
O116 O 0.97958 1.00645 0.75251 0.0
C117 C 0.03338 0.07711 0.70239 0.0
H118 H 0.05471 0.94603 0.39724 0.0
H119 H 0.94466 0.97639 0.45046 0.0
H120 H 0.0351 0.08323 0.09788 0.0
H121 H 0.14522 0.05302 0.04593 0.0
C122 C 0.48585 1.00794 0.65641 0.0
N123 N 0.54273 0.08853 0.69174 0.0
C124 C 0.54019 0.09588 0.59307 0.0
C125 C 0.53923 0.12692 0.55304 0.0
C126 C 0.54053 0.15093 0.61487 0.0
C127 C 0.54281 0.14289 0.71678 0.0
C128 C 0.54402 0.1113 0.75387 0.0
Zn129 Zn 0.54479 0.04156 0.73841 0.0
C130 C 0.49632 0.02079 0.91655 0.0
N131 N 0.54888 0.94247 0.8056 0.0
C132 C 0.54553 0.91982 0.74424 0.0
C133 C 0.55463 0.93497 0.90195 0.0
C134 C 0.55798 0.90391 0.9395 0.0
C135 C 0.55506 0.88007 0.87802 0.0
C136 C 0.54838 0.8882 0.77937 0.0
Zn137 Zn 0.54651 0.98944 0.75982 0.0
O138 O 0.49987 0.03413 0.66481 0.0
C139 C 0.59496 1.01012 0.58184 0.0
O140 O 0.50133 0.98296 0.68578 0.0
H141 H 0.55692 0.95318 0.95 0.0
H142 H 0.53891 0.07756 0.5448 0.0
H143 H 0.54097 0.92627 0.66789 0.0
O144 O 0.58199 0.03561 0.60998 0.0
O145 O 0.58322 0.9845 0.62953 0.0
H146 H 0.54608 0.10499 0.83204 0.0
O147 O 0.59176 0.99696 0.83202 0.0
O148 O 0.58975 0.04812 0.81361 0.0
O149 O 0.50969 0.9953 0.88932 0.0
O150 O 0.50769 0.04642 0.868 0.0
C151 C 0.60554 0.02314 0.8416 0.0
H152 H 0.53705 0.1321 0.47435 0.0
H153 H 0.54409 0.16079 0.76675 0.0
H154 H 0.56279 0.89856 0.01627 0.0
H155 H 0.54619 0.87041 0.72958 0.0
C156 C 0.56396 0.46436 0.63914 0.0
N157 N 0.47069 0.51736 0.66505 0.0
C158 C 0.47753 0.51672 0.56424 0.0
C159 C 0.44971 0.51775 0.50638 0.0
C160 C 0.41428 0.51898 0.55224 0.0
C161 C 0.40738 0.5191 0.65637 0.0
C162 C 0.43637 0.51848 0.71204 0.0
Zn163 Zn 0.51622 0.51598 0.73365 0.0
C164 C 0.51846 0.47078 0.89614 0.0
N165 N 0.61991 0.51186 0.82167 0.0
C166 C 0.65411 0.51153 0.77342 0.0
C167 C 0.61344 0.51188 0.92274 0.0
C168 C 0.64155 0.51096 -0.02043 0.0
C169 C 0.67689 0.51058 0.93235 0.0
C170 C 0.68337 0.51114 0.82797 0.0
Zn171 Zn 0.57427 0.51327 0.75381 0.0
O172 O 0.53346 0.47729 0.65402 0.0
C173 C 0.57193 0.55837 0.59116 0.0
O174 O 0.59086 0.47563 0.67109 0.0
H175 H 0.58625 0.51286 0.96002 0.0
H176 H 0.50479 0.51528 0.52789 0.0
H177 H 0.65866 0.51176 0.69302 0.0
O178 O 0.53967 0.54937 0.61731 0.0
O179 O 0.59685 0.54586 0.63586 0.0
H180 H 0.43151 0.51879 0.79224 0.0
O181 O 0.55706 0.55184 0.83401 0.0
O182 O 0.49975 0.55383 0.81581 0.0
O183 O 0.55078 0.47966 0.86992 0.0
O184 O 0.49357 0.48352 0.85183 0.0
C185 C 0.52664 0.56497 0.84824 0.0
H186 H 0.4558 0.5173 0.42625 0.0
H187 H 0.38009 0.51988 0.69369 0.0
H188 H 0.63577 0.51098 0.05991 0.0
H189 H 0.71056 0.51109 0.78958 0.0
C190 C 0.09881 0.53666 0.58554 0.0
N191 N 0.05535 0.44774 0.67832 0.0
C192 C 0.05657 0.44778 0.57762 0.0
C193 C 0.06075 0.42006 0.53263 0.0
C194 C 0.06347 0.39164 0.59127 0.0
C195 C 0.0618 0.392 0.6953 0.0
C196 C 0.0578 0.42051 0.73756 0.0
Zn197 Zn 0.04972 0.49127 0.73092 0.0
C198 C 0.1025 0.50772 0.84949 0.0
N199 N 0.03805 0.58674 0.79527 0.0
C200 C 0.06778 0.60336 0.80552 0.0
C201 C 1.00455 0.59727 0.82651 0.0
C202 C 1.00008 0.62479 0.8735 0.0
C203 C 0.03036 0.64153 0.88944 0.0
C204 C 0.06454 0.63088 0.85261 0.0
Zn205 Zn 0.04392 0.54275 0.74628 0.0
O206 O 0.089 0.50867 0.61395 0.0
C207 C 0.99124 0.52614 0.62709 0.0
O208 O 0.08252 0.55902 0.626 0.0
H209 H 0.9812 0.58374 0.81829 0.0
H210 H 0.05431 0.46949 0.53142 0.0
H211 H 0.09418 0.59478 0.77995 0.0
O212 O 1.00734 0.5005 0.64472 0.0
O213 O 1.00202 0.5508 0.65809 0.0
H214 H 0.0568 0.4209 0.81739 0.0
O215 O 1.00517 0.52538 0.86507 0.0
O216 O 1.01093 0.47503 0.85026 0.0
O217 O 0.08642 0.53346 0.83278 0.0
O218 O 0.09148 0.48302 0.81902 0.0
C219 C 0.99517 0.49734 0.8925 0.0
H220 H 0.06155 0.42083 0.45239 0.0
H221 H 0.06415 0.37058 0.74311 0.0
H222 H 0.97326 0.6322 0.90075 0.0
H223 H 0.08856 0.64342 0.86163 0.0
C224 C 0.21711 0.02851 0.57493 0.0
C225 C 0.22104 0.03206 0.47011 0.0
C226 C 0.18274 0.0259 0.63168 0.0
C227 C 0.15114 0.02671 0.58545 0.0
H228 H 0.24066 0.02774 0.61325 0.0
H229 H 0.18097 0.02301 0.71233 0.0
S230 S 0.14791 0.03656 0.31144 0.0
N231 N 0.19117 0.03686 0.32195 0.0
N232 N 0.1269 0.03208 0.42676 0.0
C233 C 0.15515 0.03054 0.48006 0.0
C234 C 0.19001 0.03318 0.42294 0.0
C235 C 0.55767 0.22343 0.4311 0.0
C236 C 0.5307 0.24383 0.46619 0.0
C237 C 0.56183 0.19399 0.48268 0.0
C238 C 0.53912 0.18396 0.57117 0.0
H239 H 0.5747 0.2297 0.3611 0.0
H240 H 0.58222 0.17852 0.45131 0.0
S241 S 0.46525 0.22972 0.69535 0.0
N242 N 0.48185 0.25294 0.59569 0.0
N243 N 0.48953 0.19754 0.69323 0.0
C244 C 0.51304 0.20486 0.60917 0.0
C245 C 0.50879 0.23482 0.55627 0.0
C246 C 0.34614 0.48994 0.40248 0.0
C247 C 0.34229 0.51597 0.33368 0.0
C248 C 0.36749 0.49169 0.47911 0.0
C249 C 0.3854 0.51952 0.48864 0.0
H250 H 0.3336 0.46789 0.39505 0.0
H251 H 0.3715 0.47079 0.52786 0.0
S252 S 0.38137 0.59465 0.33153 0.0
N253 N 0.35592 0.5707 0.28316 0.0
N254 N 0.39638 0.57393 0.42654 0.0
C255 C 0.38042 0.54597 0.42263 0.0
C256 C 0.35868 0.54421 0.34511 0.0
C257 C 0.09846 0.33431 0.40566 0.0
C258 C 0.07583 0.30832 0.43432 0.0
C259 C 0.09476 0.36082 0.45836 0.0
C260 C 0.06842 0.3622 0.54209 0.0
H261 H 0.11893 0.33432 0.34137 0.0
H262 H 0.11257 0.38051 0.43301 0.0
S263 S 1.00239 0.29988 0.64634 0.0
N264 N 0.02624 0.28523 0.55079 0.0
N265 N 1.01927 0.33496 0.65049 0.0
C266 C 0.04596 0.33601 0.57217 0.0
C267 C 0.04963 0.30909 0.51795 0.0
C268 C 0.90066 1.00247 0.06815 0.0
C269 C 0.8693 0.99891 0.02458 0.0
C270 C 0.93458 1.00468 0.01014 0.0
C271 C 0.93855 1.00342 0.90586 0.0
H272 H 0.89902 1.00342 0.14806 0.0
H273 H 0.95786 1.00745 0.04774 0.0
S274 S 0.864 0.99374 0.75661 0.0
N275 N 0.84377 0.99381 0.87234 0.0
N276 N 0.90733 0.99802 0.76218 0.0
C277 C 0.90707 0.99973 0.86159 0.0
C278 C 0.8725 0.99746 0.92119 0.0
C279 C 0.59406 0.80942 0.01497 0.0
C280 C 0.56711 0.78673 0.02071 0.0
C281 C 0.59056 0.83911 0.96468 0.0
C282 C 0.55999 0.84713 0.91809 0.0
H283 H 0.61743 0.8046 0.05286 0.0
H284 H 0.6115 0.85627 0.96462 0.0
S285 S 0.48256 0.79517 0.90869 0.0
N286 N 0.50954 0.77343 0.9735 0.0
N287 N 0.50287 0.82936 0.87794 0.0
C288 C 0.5335 0.82409 0.91987 0.0
C289 C 0.53704 0.79383 0.97179 0.0
C290 C 0.74665 0.54086 0.07459 0.0
C291 C 0.75058 0.51547 0.14569 0.0
C292 C 0.72468 0.53844 -0.00021 0.0
C293 C 0.70615 0.51057 -0.00542 0.0
H294 H 0.75962 0.56298 0.07883 0.0
H295 H 0.72067 0.55889 0.94913 0.0
S296 S 0.71034 0.43681 0.15854 0.0
N297 N 0.73652 0.46119 0.20264 0.0
N298 N 0.69486 0.45669 0.06276 0.0
C299 C 0.71124 0.48469 0.0628 0.0
C300 C 0.73364 0.48714 0.13839 0.0
C301 C 0.99728 0.71903 -0.01918 0.0
C302 C 1.01604 0.72139 0.06253 0.0
C303 C 1.00217 0.69324 0.92464 0.0
C304 C 0.02623 0.66914 0.9479 0.0
H305 H 0.97856 0.7371 0.96059 0.0
H306 H 0.98714 0.69221 0.86231 0.0
S307 S 0.08074 0.66442 0.1575 0.0
N308 N 0.05885 0.69769 0.16549 0.0
N309 N 0.06817 0.64922 0.06067 0.0
C310 C 0.04511 0.67147 0.02975 0.0
C311 C 0.03995 0.69762 0.08694 0.0
C312 C 0.07848 0.15545 0.66385 0.0
C313 C 0.06073 0.17069 0.58841 0.0
C314 C 0.06654 0.12619 0.71022 0.0
C315 C 0.03687 0.11131 0.68105 0.0
H316 H 0.10445 0.16386 0.67633 0.0
H317 H 0.08328 0.11374 0.75997 0.0
S318 S 0.97503 0.14655 0.5113 0.0
N319 N 1.00698 0.173 0.50651 0.0
N320 N 0.98518 0.11733 0.59119 0.0
C321 C 1.01564 0.12867 0.61851 0.0
C322 C 0.02723 0.15887 0.57373 0.0
C323 C 0.41013 0.97985 0.52808 0.0
C324 C 0.38999 1.00722 0.51192 0.0
C325 C 0.4402 0.97972 0.57922 0.0
C326 C 0.45129 1.00705 0.61518 0.0
H327 H 0.40451 0.95925 0.49303 0.0
H328 H 0.4561 0.95867 0.58484 0.0
S329 S 0.40352 0.08307 0.60791 0.0
N330 N 0.3802 0.0609 0.54723 0.0
N331 N 0.43628 0.06085 0.64463 0.0
C332 C 0.4292 0.03365 0.608 0.0
C333 C 0.39852 0.03363 0.55648 0.0
C334 C 0.53467 0.38993 0.55124 0.0
C335 C 0.55775 0.38845 0.46174 0.0
C336 C 0.53876 0.41346 0.61276 0.0
C337 C 0.56642 0.43584 0.58766 0.0
H338 H 0.51137 0.37474 0.56903 0.0
H339 H 0.51877 0.41534 0.67724 0.0
S340 S 0.63703 0.43903 0.36936 0.0
N341 N 0.61154 0.409 0.35653 0.0
N342 N 0.6196 0.45293 0.47415 0.0
C343 C 0.59179 0.43271 0.50393 0.0
C344 C 0.58735 0.40901 0.44034 0.0
C345 C 0.18708 0.52029 0.43604 0.0
C346 C 0.1881 0.54246 0.35264 0.0
C347 C 0.15882 0.51988 0.51395 0.0
C348 C 0.13091 0.54183 0.51154 0.0
H349 H 0.20657 0.50159 0.4374 0.0
H350 H 0.15792 0.50129 0.57438 0.0
S351 S 0.12467 0.60779 0.31797 0.0
N352 N 0.16154 0.58919 0.27737 0.0
N353 N 0.10835 0.58866 0.42598 0.0
C354 C 0.1334 0.56592 0.43351 0.0
C355 C 0.16206 0.56614 0.35326 0.0
C356 C 0.06223 0.87159 0.92517 0.0
C357 C 0.02962 0.85846 0.90825 0.0
C358 C 0.07313 0.90133 0.88023 0.0
C359 C 0.05273 0.91785 0.81322 0.0
H360 H 0.07596 0.86138 -0.01413 0.0
H361 H 0.0956 0.9125 0.90503 0.0
S362 S 0.97261 0.88799 0.71808 0.0
N363 N 0.98214 0.86034 0.8039 0.0
N364 N 1.00384 0.91509 0.71241 0.0
C365 C 0.02418 0.90206 0.78123 0.0
C366 C 1.01251 0.87232 0.82981 0.0
C367 C 0.68126 0.05107 0.97041 0.0
C368 C 0.7014 0.02369 -0.01371 0.0
C369 C 0.6512 0.05127 0.91917 0.0
C370 C 0.64014 0.02401 0.88276 0.0
H371 H 0.68683 0.07161 0.00581 0.0
H372 H 0.63528 0.07232 0.91384 0.0
S373 S 0.68799 0.94802 0.88906 0.0
N374 N 0.71126 0.97009 0.95017 0.0
N375 N 0.65523 0.97028 0.85254 0.0
C376 C 0.66226 0.99741 0.88959 0.0
C377 C 0.69292 0.99736 0.94125 0.0
C378 C 0.55645 0.63933 0.936 0.0
C379 C 0.53263 0.6415 0.02375 0.0
C380 C 0.55253 0.6156 0.87505 0.0
C381 C 0.52434 0.59366 0.89899 0.0
H382 H 0.58012 0.65412 0.91945 0.0
H383 H 0.57299 0.61322 0.81204 0.0
S384 S 0.45188 0.59235 0.11231 0.0
N385 N 0.47771 0.62207 0.12588 0.0
N386 N 0.46995 0.5778 0.00925 0.0
C387 C 0.49832 0.59751 -0.01929 0.0
C388 C 0.50258 0.62142 0.04374 0.0
C389 C 0.90677 0.51296 0.04277 0.0
C390 C 0.90582 0.49057 0.12563 0.0
C391 C 0.93515 0.51379 0.9651 0.0
C392 C 0.96324 0.49203 0.96705 0.0
H393 H 0.88708 0.5315 0.04168 0.0
H394 H 0.93592 0.5325 0.90507 0.0
S395 S 0.97021 0.42587 0.15975 0.0
N396 N 0.93298 0.44402 0.20027 0.0
N397 N 0.98636 0.44533 0.05208 0.0
C398 C 0.96098 0.4678 0.04471 0.0
C399 C 0.93221 0.46716 0.12476 0.0
C400 C 0.12398 0.14396 0.17743 0.0
C401 C 0.10268 0.1439 0.27108 0.0
C402 C 0.12252 0.11891 0.11862 0.0
C403 C 0.09979 0.09304 0.15181 0.0
H404 H 0.14138 0.16366 0.14879 0.0
H405 H 0.13793 0.12047 0.04495 0.0
S406 S 0.03902 0.08073 0.39044 0.0
N407 N 0.05752 0.11523 0.39207 0.0
N408 N 0.0571 0.06799 0.28483 0.0
C409 C 0.07956 0.09213 0.24636 0.0
C410 C 0.0803 0.11761 0.30493 0.0
C411 C 0.41734 0.04725 0.09542 0.0
C412 C 0.4043 0.01903 0.1485 0.0
C413 C 0.44729 0.04774 0.02104 0.0
C414 C 0.46533 0.02002 -0.00242 0.0
H415 H 0.40528 0.06917 0.11452 0.0
H416 H 0.45659 0.07006 -0.01737 0.0
S417 S 0.43999 0.93987 0.11352 0.0
N418 N 0.41036 0.96277 0.17083 0.0
N419 N 0.46643 0.96331 0.03217 0.0
C420 C 0.45167 0.99156 0.04888 0.0
C421 C 0.42123 0.99117 0.12389 0.0
C422 C 0.49251 0.42432 0.14547 0.0
C423 C 0.5132 0.39709 0.13476 0.0
C424 C 0.49154 0.44737 0.06492 0.0
C425 C 0.51169 0.44395 0.97206 0.0
H426 H 0.4785 0.42851 0.21792 0.0
H427 H 0.47708 0.46882 0.07722 0.0
S428 S 0.56761 0.37615 0.90314 0.0
N429 N 0.55192 0.36715 0.02206 0.0
N430 N 0.55062 0.41065 0.87132 0.0
C431 C 0.53072 0.41612 0.95896 0.0
C432 C 0.5313 0.39255 0.04023 0.0
C433 C 0.16981 0.48516 0.02766 0.0
C434 C 0.19214 0.51173 0.01442 0.0
C435 C 0.14185 0.48294 0.96975 0.0
C436 C 0.13505 0.50762 0.89898 0.0
H437 H 0.17254 0.46698 0.08742 0.0
H438 H 0.12411 0.46283 -0.01505 0.0
S439 S 0.18881 0.5803 0.82857 0.0
N440 N 0.20793 0.56159 0.91989 0.0
N441 N 0.15545 0.55769 0.81084 0.0
C442 C 0.15879 0.53329 0.88077 0.0
C443 C 0.18736 0.5353 0.93873 0.0
C444 C 0.96546 0.88551 0.31852 0.0
C445 C 0.98671 0.88553 0.22479 0.0
C446 C 0.96707 0.91052 0.3774 0.0
C447 C 0.98982 0.93637 0.34402 0.0
H448 H 0.94802 0.86584 0.34726 0.0
H449 H 0.95178 0.90895 0.45124 0.0
S450 S 0.05078 0.94846 0.1057 0.0
N451 N 0.03219 0.914 0.10419 0.0
N452 N 0.03254 0.96135 0.21093 0.0
C453 C 1.00996 0.93728 0.24937 0.0
C454 C 1.00922 0.91176 0.19099 0.0
C455 C 0.67412 0.98373 0.40367 0.0
C456 C 0.68685 1.01192 0.3498 0.0
C457 C 0.64418 0.98321 0.47806 0.0
C458 C 0.62588 1.01088 0.50073 0.0
H459 H 0.68641 0.96185 0.38521 0.0
H460 H 0.63512 0.96092 0.51717 0.0
S461 S 0.65028 0.09095 0.3823 0.0
N462 N 0.68019 0.06811 0.32575 0.0
N463 N 0.62412 0.06752 0.46436 0.0
C464 C 0.63921 0.03933 0.44858 0.0
C465 C 0.66964 0.03975 0.37358 0.0
C466 C 0.59652 0.60459 0.34106 0.0
C467 C 0.57591 0.63185 0.35254 0.0
C468 C 0.59799 0.58161 0.42153 0.0
C469 C 0.57851 0.58517 0.51518 0.0
H470 H 0.61014 0.60037 0.2682 0.0
H471 H 0.6123 0.56014 0.40871 0.0
S472 S 0.52303 0.65298 0.58621 0.0
N473 N 0.53791 0.66187 0.46671 0.0
N474 N 0.54026 0.61854 0.61737 0.0
C475 C 0.55958 0.613 0.52897 0.0
C476 C 0.55843 0.63647 0.44773 0.0
C477 C 0.91073 0.49517 0.52875 0.0
C478 C 0.90096 0.52042 0.46467 0.0
C479 C 0.93916 0.49785 0.58392 0.0
C480 C 0.95886 0.52587 0.57665 0.0
H481 H 0.89789 0.47262 0.53103 0.0
H482 H 0.94658 0.47738 0.62984 0.0
S483 S 0.94185 0.59939 0.42377 0.0
N484 N 0.91143 0.57468 0.40013 0.0
N485 N 0.96481 0.58003 0.50564 0.0
C486 C 0.9478 0.55192 0.51764 0.0
C487 C 0.91885 0.54909 0.46091 0.0
loop_
_geom_bond_atom_site_label_1
_geom_bond_atom_site_label_2
_geom_bond_distance
_geom_bond_site_symmetry_2
_ccdc_geom_bond_type
H0 C3 0.929 . S
H1 C6 0.929 . S
H2 C8 0.930 . S
C3 H0 0.929 . S
C3 C4 1.398 . S
C3 C5 1.396 . S
C4 C3 1.398 . S
C4 C8 1.407 . S
C5 C3 1.396 . S
C5 C6 1.394 . S
C6 H1 0.929 . S
C6 C5 1.394 . S
C6 C7 1.382 . S
C7 C6 1.382 . S
C7 C8 1.392 . S
C7 N9 1.420 . S
C8 H2 0.930 . S
C8 C4 1.407 . S
C8 C7 1.392 . S
N9 C7 1.420 . S
N9 C10 1.244 . S
C10 N9 1.244 . S
H11 C14 0.929 . S
H12 C17 0.929 . S
H13 C19 0.930 . S
C14 H11 0.929 . S
C14 C15 1.398 . S
C14 C16 1.396 1_554 S
C15 C14 1.398 . S
C15 C19 1.407 . S
C16 C14 1.396 1_556 S
C16 C17 1.394 . S
C17 H12 0.929 . S
C17 C16 1.394 . S
C17 C18 1.382 1_556 S
C18 C17 1.382 1_554 S
C18 C19 1.392 . S
C18 N20 1.420 . S
C19 H13 0.930 . S
C19 C15 1.407 . S
C19 C18 1.392 . S
N20 C18 1.420 . S
N20 C21 1.244 1_554 S
C21 N20 1.244 1_556 S
H22 C25 0.929 . S
H23 C28 0.929 1_556 S
H24 C30 0.930 . S
C25 H22 0.929 . S
C25 C26 1.392 1_565 S
C25 C27 1.396 1_565 S
C26 C25 1.392 1_545 S
C26 C30 1.413 . S
C27 C25 1.396 1_545 S
C27 C28 1.397 . S
C28 H23 0.929 1_554 S
C28 C27 1.397 . S
C28 C29 1.382 . S
C29 C28 1.382 . S
C29 C30 1.392 . S
C29 N31 1.420 . S
C30 H24 0.930 . S
C30 C26 1.413 . S
C30 C29 1.392 . S
N31 C29 1.420 . S
N31 C32 1.229 1_545 S
C32 N31 1.229 1_565 S
H33 C36 0.929 . S
H34 C39 0.929 1_556 S
H35 C41 0.930 . S
C36 H33 0.929 . S
C36 C37 1.398 . S
C36 C38 1.396 . S
C37 C36 1.398 . S
C37 C41 1.407 . S
C38 C36 1.396 . S
C38 C39 1.394 . S
C39 H34 0.929 1_554 S
C39 C38 1.394 . S
C39 C40 1.382 . S
C40 C39 1.382 . S
C40 C41 1.392 . S
C40 N42 1.420 . S
C41 H35 0.930 . S
C41 C37 1.407 . S
C41 C40 1.392 . S
N42 C40 1.420 . S
N42 C43 1.244 . S
C43 N42 1.244 . S
H44 C47 0.929 . S
H45 C50 0.929 . S
H46 C52 0.930 . S
C47 H44 0.929 . S
C47 C48 1.398 . S
C47 C49 1.396 . S
C48 C47 1.398 . S
C48 C52 1.407 . S
C49 C47 1.396 . S
C49 C50 1.394 . S
C50 H45 0.929 . S
C50 C49 1.394 . S
C50 C51 1.382 . S
C51 C50 1.382 . S
C51 C52 1.392 . S
C51 N53 1.420 . S
C52 H46 0.930 . S
C52 C48 1.407 . S
C52 C51 1.392 . S
N53 C51 1.420 . S
N53 C54 1.244 . S
C54 N53 1.244 . S
H55 C58 0.929 . S
H56 C61 0.929 . S
H57 C63 0.930 . S
C58 H55 0.929 . S
C58 C59 1.398 . S
C58 C60 1.396 . S
C59 C58 1.398 . S
C59 C63 1.407 . S
C60 C58 1.396 . S
C60 C61 1.394 . S
C61 H56 0.929 . S
C61 C60 1.394 . S
C61 C62 1.382 . S
C62 C61 1.382 . S
C62 C63 1.392 . S
C62 N64 1.420 . S
C63 H57 0.930 . S
C63 C59 1.407 . S
C63 C62 1.392 . S
N64 C62 1.420 . S
N64 C65 1.244 . S
C65 N64 1.244 . S
H66 C69 0.929 . S
H67 C72 0.929 . S
H68 C74 0.930 . S
C69 H66 0.929 . S
C69 C70 1.398 1_565 S
C69 C71 1.391 1_565 S
C70 C69 1.398 1_545 S
C70 C74 1.407 . S
C71 C69 1.391 1_545 S
C71 C72 1.399 . S
C72 H67 0.929 . S
C72 C71 1.399 . S
C72 C73 1.382 . S
C73 C72 1.382 . S
C73 C74 1.392 . S
C73 N75 1.420 . S
C74 H68 0.930 . S
C74 C70 1.407 . S
C74 C73 1.392 . S
N75 C73 1.420 . S
N75 C76 1.237 1_545 S
C76 N75 1.237 1_565 S
H77 C80 0.929 . S
H78 C83 0.929 . S
H79 C85 0.930 . S
C80 H77 0.929 . S
C80 C81 1.398 . S
C80 C82 1.396 . S
C81 C80 1.398 . S
C81 C85 1.407 . S
C82 C80 1.396 . S
C82 C83 1.394 . S
C83 H78 0.929 . S
C83 C82 1.394 . S
C83 C84 1.382 . S
C84 C83 1.382 . S
C84 C85 1.392 . S
C84 N86 1.420 . S
C85 H79 0.930 . S
C85 C81 1.407 . S
C85 C84 1.392 . S
N86 C84 1.420 . S
N86 C87 1.244 . S
C87 N86 1.244 . S
C88 O104 1.251 . S
C88 O106 1.254 . S
N89 C90 1.333 . S
N89 C94 1.307 1_455 S
N89 Zn95 2.020 . S
C90 N89 1.333 . S
C90 C91 1.379 . S
C90 H108 0.952 . S
C91 C90 1.379 . S
C91 C92 1.390 1_455 S
C91 H118 0.949 . S
C92 C91 1.390 1_655 S
C92 C93 1.357 . S
C93 C92 1.357 . S
C93 C94 1.370 . S
C93 H119 0.950 . S
C94 N89 1.307 1_655 S
C94 C93 1.370 . S
C94 H112 0.948 1_565 S
Zn95 N89 2.020 . S
Zn95 O104 2.039 . S
Zn95 O110 2.034 . S
Zn95 O114 2.025 1_565 S
Zn95 O116 2.024 1_455 S
C96 O115 1.246 . S
C96 O116 1.249 1_545 S
N97 C98 1.307 1_556 S
N97 C99 1.333 1_556 S
N97 Zn103 2.020 . S
C98 N97 1.307 1_554 S
C98 C102 1.370 . S
C98 H109 0.948 1_545 S
C99 N97 1.333 1_554 S
C99 C100 1.380 . S
C99 H107 0.951 1_554 S
C100 C99 1.380 . S
C100 C101 1.390 . S
C100 H120 0.949 . S
C101 C100 1.390 . S
C101 C102 1.357 . S
C102 C98 1.370 . S
C102 C101 1.357 . S
C102 H121 0.950 . S
Zn103 N97 2.020 . S
Zn103 O106 2.025 1_545 S
Zn103 O111 2.024 . S
Zn103 O113 2.039 . S
Zn103 O115 2.034 1_455 S
O104 C88 1.251 . S
O104 Zn95 2.039 . S
C105 O110 1.246 . S
C105 O111 1.249 1_565 S
O106 C88 1.254 . S
O106 Zn103 2.025 1_565 S
H107 C99 0.951 1_556 S
H108 C90 0.952 . S
H109 C98 0.948 1_565 S
O110 Zn95 2.034 . S
O110 C105 1.246 . S
O111 Zn103 2.024 . S
O111 C105 1.249 1_545 S
H112 C94 0.948 1_545 S
O113 Zn103 2.039 . S
O113 C117 1.251 . S
O114 Zn95 2.025 1_545 S
O114 C117 1.254 . S
O115 C96 1.246 . S
O115 Zn103 2.034 1_655 S
O116 Zn95 2.024 1_655 S
O116 C96 1.249 1_565 S
C117 O113 1.251 . S
C117 O114 1.254 . S
H118 C91 0.949 . S
H119 C93 0.950 . S
H120 C100 0.949 . S
H121 C102 0.950 . S
C122 O138 1.251 1_565 S
C122 O140 1.254 . S
N123 C124 1.333 . S
N123 C128 1.307 . S
N123 Zn129 2.020 . S
C124 N123 1.333 . S
C124 C125 1.379 . S
C124 H142 0.952 . S
C125 C124 1.379 . S
C125 C126 1.390 . S
C125 H152 0.949 . S
C126 C125 1.390 . S
C126 C127 1.357 . S
C127 C126 1.357 . S
C127 C128 1.370 . S
C127 H153 0.950 . S
C128 N123 1.307 . S
C128 C127 1.370 . S
C128 H146 0.948 . S
Zn129 N123 2.020 . S
Zn129 O138 2.039 . S
Zn129 O144 2.034 . S
Zn129 O148 2.025 . S
Zn129 O150 2.024 . S
C130 O149 1.246 1_545 S
C130 O150 1.249 . S
N131 C132 1.307 . S
N131 C133 1.333 . S
N131 Zn137 2.020 . S
C132 N131 1.307 . S
C132 C136 1.370 . S
C132 H143 0.948 . S
C133 N131 1.333 . S
C133 C134 1.379 . S
C133 H141 0.952 . S
C134 C133 1.379 . S
C134 C135 1.390 . S
C134 H154 0.949 1_556 S
C135 C134 1.390 . S
C135 C136 1.357 . S
C136 C132 1.370 . S
C136 C135 1.357 . S
C136 H155 0.950 . S
Zn137 N131 2.020 . S
Zn137 O140 2.025 . S
Zn137 O145 2.024 . S
Zn137 O147 2.039 . S
Zn137 O149 2.034 . S
O138 C122 1.251 1_545 S
O138 Zn129 2.039 . S
C139 O144 1.246 1_565 S
C139 O145 1.249 . S
O140 C122 1.254 . S
O140 Zn137 2.025 . S
H141 C133 0.952 . S
H142 C124 0.952 . S
H143 C132 0.948 . S
O144 Zn129 2.034 . S
O144 C139 1.246 1_545 S
O145 Zn137 2.024 . S
O145 C139 1.249 . S
H146 C128 0.948 . S
O147 Zn137 2.039 . S
O147 C151 1.251 1_565 S
O148 Zn129 2.025 . S
O148 C151 1.254 . S
O149 C130 1.246 1_565 S
O149 Zn137 2.034 . S
O150 Zn129 2.024 . S
O150 C130 1.249 . S
C151 O147 1.251 1_545 S
C151 O148 1.254 . S
H152 C125 0.949 . S
H153 C127 0.950 . S
H154 C134 0.949 1_554 S
H155 C136 0.950 . S
C156 O172 1.251 . S
C156 O174 1.254 . S
N157 C158 1.333 . S
N157 C162 1.307 . S
N157 Zn163 2.020 . S
C158 N157 1.333 . S
C158 C159 1.379 . S
C158 H176 0.952 . S
C159 C158 1.379 . S
C159 C160 1.390 . S
C159 H186 0.949 . S
C160 C159 1.390 . S
C160 C161 1.357 . S
C161 C160 1.357 . S
C161 C162 1.370 . S
C161 H187 0.950 . S
C162 N157 1.307 . S
C162 C161 1.370 . S
C162 H180 0.948 . S
Zn163 N157 2.020 . S
Zn163 O172 2.039 . S
Zn163 O178 2.034 . S
Zn163 O182 2.025 . S
Zn163 O184 2.024 . S
C164 O183 1.246 . S
C164 O184 1.249 . S
N165 C166 1.307 . S
N165 C167 1.333 . S
N165 Zn171 2.020 . S
C166 N165 1.307 . S
C166 C170 1.370 . S
C166 H177 0.948 . S
C167 N165 1.333 . S
C167 C168 1.379 . S
C167 H175 0.952 . S
C168 C167 1.379 . S
C168 C169 1.390 . S
C168 H188 0.949 . S
C169 C168 1.390 . S
C169 C170 1.357 . S
C170 C166 1.370 . S
C170 C169 1.357 . S
C170 H189 0.950 . S
Zn171 N165 2.020 . S
Zn171 O174 2.025 . S
Zn171 O179 2.024 . S
Zn171 O181 2.039 . S
Zn171 O183 2.034 . S
O172 C156 1.251 . S
O172 Zn163 2.039 . S
C173 O178 1.246 . S
C173 O179 1.249 . S
O174 C156 1.254 . S
O174 Zn171 2.025 . S
H175 C167 0.952 . S
H176 C158 0.952 . S
H177 C166 0.948 . S
O178 Zn163 2.034 . S
O178 C173 1.246 . S
O179 Zn171 2.024 . S
O179 C173 1.249 . S
H180 C162 0.948 . S
O181 Zn171 2.039 . S
O181 C185 1.251 . S
O182 Zn163 2.025 . S
O182 C185 1.254 . S
O183 C164 1.246 . S
O183 Zn171 2.034 . S
O184 Zn163 2.024 . S
O184 C164 1.249 . S
C185 O181 1.251 . S
C185 O182 1.254 . S
H186 C159 0.949 . S
H187 C161 0.950 . S
H188 C168 0.949 . S
H189 C170 0.950 . S
C190 O206 1.251 . S
C190 O208 1.254 . S
N191 C192 1.333 . S
N191 C196 1.307 . S
N191 Zn197 2.020 . S
C192 N191 1.333 . S
C192 C193 1.379 . S
C192 H210 0.952 . S
C193 C192 1.379 . S
C193 C194 1.390 . S
C193 H220 0.949 . S
C194 C193 1.390 . S
C194 C195 1.357 . S
C195 C194 1.357 . S
C195 C196 1.370 . S
C195 H221 0.950 . S
C196 N191 1.307 . S
C196 C195 1.370 . S
C196 H214 0.948 . S
Zn197 N191 2.020 . S
Zn197 O206 2.039 . S
Zn197 O212 2.034 1_455 S
Zn197 O216 2.025 1_455 S
Zn197 O218 2.024 . S
C198 O217 1.246 . S
C198 O218 1.249 . S
N199 C200 1.307 . S
N199 C201 1.333 . S
N199 Zn205 2.020 . S
C200 N199 1.307 . S
C200 C204 1.370 . S
C200 H211 0.948 . S
C201 N199 1.333 . S
C201 C202 1.378 1_455 S
C201 H209 0.952 1_455 S
C202 C201 1.378 1_655 S
C202 C203 1.384 1_655 S
C202 H222 0.958 . S
C203 C202 1.384 1_455 S
C203 C204 1.357 . S
C204 C200 1.370 . S
C204 C203 1.357 . S
C204 H223 0.950 . S
Zn205 N199 2.020 . S
Zn205 O208 2.025 . S
Zn205 O213 2.024 1_455 S
Zn205 O215 2.039 1_455 S
Zn205 O217 2.034 . S
O206 C190 1.251 . S
O206 Zn197 2.039 . S
C207 O212 1.246 . S
C207 O213 1.249 . S
O208 C190 1.254 . S
O208 Zn205 2.025 . S
H209 C201 0.952 1_655 S
H210 C192 0.952 . S
H211 C200 0.948 . S
O212 Zn197 2.034 1_655 S
O212 C207 1.246 . S
O213 Zn205 2.024 1_655 S
O213 C207 1.249 . S
H214 C196 0.948 . S
O215 Zn205 2.039 1_655 S
O215 C219 1.251 . S
O216 Zn197 2.025 1_655 S
O216 C219 1.254 . S
O217 C198 1.246 . S
O217 Zn205 2.034 . S
O218 Zn197 2.024 . S
O218 C198 1.249 . S
C219 O215 1.251 . S
C219 O216 1.254 . S
H220 C193 0.949 . S
H221 C195 0.950 . S
H222 C202 0.958 . S
H223 C204 0.950 . S
C224 C225 1.353 1_545 S
C224 C226 1.419 . S
C224 H228 0.930 . S
C225 C224 1.353 1_565 S
C225 C234 1.445 . S
C226 C224 1.419 . S
C226 C227 1.363 1_545 S
C226 H229 0.929 . S
C227 C226 1.363 1_565 S
C227 C233 1.428 . S
H228 C224 0.930 . S
H229 C226 0.929 . S
S230 N231 1.613 . S
S230 N232 1.610 . S
N231 S230 1.613 . S
N231 C234 1.350 . S
N232 S230 1.610 . S
N232 C233 1.351 . S
C233 C227 1.428 . S
C233 N232 1.351 . S
C233 C234 1.434 . S
C234 C225 1.445 . S
C234 N231 1.350 . S
C234 C233 1.434 . S
C235 C236 1.369 . S
C235 C237 1.419 . S
C235 H239 0.930 . S
C236 C235 1.369 . S
C236 C245 1.429 . S
C237 C235 1.419 . S
C237 C238 1.363 . S
C237 H240 0.929 . S
C238 C237 1.363 . S
C238 C244 1.428 . S
H239 C235 0.930 . S
H240 C237 0.929 . S
S241 N242 1.613 . S
S241 N243 1.610 . S
N242 S241 1.613 . S
N242 C245 1.350 . S
N243 S241 1.610 . S
N243 C244 1.351 . S
C244 C238 1.428 . S
C244 N243 1.351 . S
C244 C245 1.434 . S
C245 C236 1.429 . S
C245 N242 1.350 . S
C245 C244 1.434 . S
C246 C247 1.369 . S
C246 C248 1.419 . S
C246 H250 0.930 . S
C247 C246 1.369 . S
C247 C256 1.429 . S
C248 C246 1.419 . S
C248 C249 1.363 . S
C248 H251 0.929 . S
C249 C248 1.363 . S
C249 C255 1.428 . S
H250 C246 0.930 . S
H251 C248 0.929 . S
S252 N253 1.613 . S
S252 N254 1.610 . S
N253 S252 1.613 . S
N253 C256 1.350 . S
N254 S252 1.610 . S
N254 C255 1.351 . S
C255 C249 1.428 . S
C255 N254 1.351 . S
C255 C256 1.434 . S
C256 C247 1.429 . S
C256 N253 1.350 . S
C256 C255 1.434 . S
C257 C258 1.369 . S
C257 C259 1.419 . S
C257 H261 0.930 . S
C258 C257 1.369 . S
C258 C267 1.429 . S
C259 C257 1.419 . S
C259 C260 1.363 . S
C259 H262 0.929 . S
C260 C259 1.363 . S
C260 C266 1.428 . S
H261 C257 0.930 . S
H262 C259 0.929 . S
S263 N264 1.613 . S
S263 N265 1.610 . S
N264 S263 1.613 . S
N264 C267 1.350 . S
N265 S263 1.610 . S
N265 C266 1.351 . S
C266 C260 1.428 . S
C266 N265 1.351 . S
C266 C267 1.434 . S
C267 C258 1.429 . S
C267 N264 1.350 . S
C267 C266 1.434 . S
C268 C269 1.375 1_554 S
C268 C270 1.419 1_554 S
C268 H272 0.930 . S
C269 C268 1.375 1_556 S
C269 C278 1.419 1_545 S
C270 C268 1.419 1_556 S
C270 C271 1.363 . S
C270 H273 0.929 1_556 S
C271 C270 1.363 . S
C271 C277 1.432 . S
H272 C268 0.930 . S
H273 C270 0.929 1_554 S
S274 N275 1.613 . S
S274 N276 1.610 . S
N275 S274 1.613 . S
N275 C278 1.357 . S
N276 S274 1.610 . S
N276 C277 1.346 1_565 S
C277 C271 1.432 . S
C277 N276 1.346 1_545 S
C277 C278 1.435 1_545 S
C278 C269 1.419 1_565 S
C278 N275 1.357 . S
C278 C277 1.435 1_565 S
C279 C280 1.369 . S
C279 C281 1.419 . S
C279 H283 0.930 . S
C280 C279 1.369 . S
C280 C289 1.429 1_554 S
C281 C279 1.419 . S
C281 C282 1.363 1_554 S
C281 H284 0.929 . S
C282 C281 1.363 1_556 S
C282 C288 1.428 . S
H283 C279 0.930 . S
H284 C281 0.929 . S
S285 N286 1.613 . S
S285 N287 1.610 . S
N286 S285 1.613 . S
N286 C289 1.350 . S
N287 S285 1.610 . S
N287 C288 1.351 . S
C288 C282 1.428 . S
C288 N287 1.351 . S
C288 C289 1.434 . S
C289 C280 1.429 1_556 S
C289 N286 1.350 . S
C289 C288 1.434 . S
C290 C291 1.369 1_556 S
C290 C292 1.419 . S
C290 H294 0.930 . S
C291 C290 1.369 1_554 S
C291 C300 1.429 . S
C292 C290 1.419 . S
C292 C293 1.363 . S
C292 H295 0.929 . S
C293 C292 1.363 . S
C293 C299 1.428 1_556 S
H294 C290 0.930 . S
H295 C292 0.929 . S
S296 N297 1.613 . S
S296 N298 1.610 . S
N297 S296 1.613 . S
N297 C300 1.350 . S
N298 S296 1.610 . S
N298 C299 1.351 . S
C299 C293 1.428 1_554 S
C299 N298 1.351 . S
C299 C300 1.434 . S
C300 C291 1.429 . S
C300 N297 1.350 . S
C300 C299 1.434 . S
C301 C302 1.369 . S
C301 C303 1.418 . S
C301 H305 0.930 . S
C302 C301 1.369 . S
C302 C311 1.429 . S
C303 C301 1.418 . S
C303 C304 1.364 1_655 S
C303 H306 0.929 1_655 S
C304 C303 1.364 1_455 S
C304 C310 1.428 1_455 S
H305 C301 0.930 . S
H306 C303 0.929 1_455 S
S307 N308 1.613 . S
S307 N309 1.608 1_655 S
N308 S307 1.613 . S
N308 C311 1.350 1_554 S
N309 S307 1.608 1_455 S
N309 C310 1.346 1_454 S
C310 C304 1.428 1_655 S
C310 N309 1.346 1_656 S
C310 C311 1.434 . S
C311 C302 1.429 . S
C311 N308 1.350 1_556 S
C311 C310 1.434 . S
C312 C313 1.369 . S
C312 C314 1.419 . S
C312 H316 0.930 . S
C313 C312 1.369 . S
C313 C322 1.429 . S
C314 C312 1.419 . S
C314 C315 1.363 . S
C314 H317 0.929 . S
C315 C314 1.363 . S
C315 C321 1.428 . S
H316 C312 0.930 . S
H317 C314 0.929 . S
S318 N319 1.613 1_655 S
S318 N320 1.610 . S
N319 S318 1.613 1_455 S
N319 C322 1.350 . S
N320 S318 1.610 . S
N320 C321 1.351 1_655 S
C321 C315 1.428 . S
C321 N320 1.351 1_455 S
C321 C322 1.434 . S
C322 C313 1.429 . S
C322 N319 1.350 . S
C322 C321 1.434 . S
C323 C324 1.370 . S
C323 C325 1.419 . S
C323 H327 0.930 . S
C324 C323 1.370 . S
C324 C333 1.427 1_565 S
C325 C323 1.419 . S
C325 C326 1.363 . S
C325 H328 0.929 . S
C326 C325 1.363 . S
C326 C332 1.428 1_565 S
H327 C323 0.930 . S
H328 C325 0.929 . S
S329 N330 1.613 . S
S329 N331 1.610 . S
N330 S329 1.613 . S
N330 C333 1.350 . S
N331 S329 1.610 . S
N331 C332 1.351 . S
C332 C326 1.428 1_545 S
C332 N331 1.351 . S
C332 C333 1.434 . S
C333 C324 1.427 1_545 S
C333 N330 1.350 . S
C333 C332 1.434 . S
C334 C335 1.369 . S
C334 C336 1.419 . S
C334 H338 0.930 . S
C335 C334 1.369 . S
C335 C344 1.429 . S
C336 C334 1.419 . S
C336 C337 1.363 . S
C336 H339 0.929 . S
C337 C336 1.363 . S
C337 C343 1.428 . S
H338 C334 0.930 . S
H339 C336 0.929 . S
S340 N341 1.613 . S
S340 N342 1.610 . S
N341 S340 1.613 . S
N341 C344 1.350 . S
N342 S340 1.610 . S
N342 C343 1.351 . S
C343 C337 1.428 . S
C343 N342 1.351 . S
C343 C344 1.434 . S
C344 C335 1.429 . S
C344 N341 1.350 . S
C344 C343 1.434 . S
C345 C346 1.369 . S
C345 C347 1.419 . S
C345 H349 0.930 . S
C346 C345 1.369 . S
C346 C355 1.429 . S
C347 C345 1.419 . S
C347 C348 1.363 . S
C347 H350 0.929 . S
C348 C347 1.363 . S
C348 C354 1.428 . S
H349 C345 0.930 . S
H350 C347 0.929 . S
S351 N352 1.613 . S
S351 N353 1.610 . S
N352 S351 1.613 . S
N352 C355 1.350 . S
N353 S351 1.610 . S
N353 C354 1.351 . S
C354 C348 1.428 . S
C354 N353 1.351 . S
C354 C355 1.434 . S
C355 C346 1.429 . S
C355 N352 1.350 . S
C355 C354 1.434 . S
C356 C357 1.369 1_455 S
C356 C358 1.419 . S
C356 H360 0.930 . S
C357 C356 1.369 1_655 S
C357 C366 1.429 . S
C358 C356 1.419 . S
C358 C359 1.363 . S
C358 H361 0.929 . S
C359 C358 1.363 . S
C359 C365 1.428 1_455 S
H360 C356 0.930 . S
H361 C358 0.929 . S
S362 N363 1.613 . S
S362 N364 1.610 . S
N363 S362 1.613 . S
N363 C366 1.350 . S
N364 S362 1.610 . S
N364 C365 1.351 . S
C365 C359 1.428 1_655 S
C365 N364 1.351 . S
C365 C366 1.434 . S
C366 C357 1.429 . S
C366 N363 1.350 . S
C366 C365 1.434 . S
C367 C368 1.383 . S
C367 C369 1.419 1_554 S
C367 H371 0.930 . S
C368 C367 1.383 . S
C368 C377 1.415 1_544 S
C369 C367 1.419 1_556 S
C369 C370 1.363 . S
C369 H372 0.929 1_556 S
C370 C369 1.363 . S
C370 C376 1.428 1_545 S
H371 C367 0.930 . S
H372 C369 0.929 1_554 S
S373 N374 1.613 . S
S373 N375 1.610 . S
N374 S373 1.613 . S
N374 C377 1.350 . S
N375 S373 1.610 . S
N375 C376 1.351 . S
C376 C370 1.428 1_565 S
C376 N375 1.351 . S
C376 C377 1.434 . S
C377 C368 1.415 1_566 S
C377 N374 1.350 . S
C377 C376 1.434 . S
C378 C379 1.369 1_556 S
C378 C380 1.419 . S
C378 H382 0.930 . S
C379 C378 1.369 1_554 S
C379 C388 1.429 . S
C380 C378 1.419 . S
C380 C381 1.363 . S
C380 H383 0.929 . S
C381 C380 1.363 . S
C381 C387 1.428 1_556 S
H382 C378 0.930 . S
H383 C380 0.929 . S
S384 N385 1.613 . S
S384 N386 1.610 . S
N385 S384 1.613 . S
N385 C388 1.350 . S
N386 S384 1.610 . S
N386 C387 1.351 . S
C387 C381 1.428 1_554 S
C387 N386 1.351 . S
C387 C388 1.434 . S
C388 C379 1.429 . S
C388 N385 1.350 . S
C388 C387 1.434 . S
C389 C390 1.369 . S
C389 C391 1.419 . S
C389 H393 0.930 . S
C390 C389 1.369 . S
C390 C399 1.419 1_554 S
C391 C389 1.419 . S
C391 C392 1.363 1_554 S
C391 H394 0.929 . S
C392 C391 1.363 1_556 S
C392 C398 1.428 . S
H393 C389 0.930 . S
H394 C391 0.929 . S
S395 N396 1.613 . S
S395 N397 1.610 . S
N396 S395 1.613 . S
N396 C399 1.353 . S
N397 S395 1.610 . S
N397 C398 1.351 . S
C398 C392 1.428 . S
C398 N397 1.351 . S
C398 C399 1.441 . S
C399 C390 1.419 1_556 S
C399 N396 1.353 . S
C399 C398 1.441 . S
C400 C401 1.369 . S
C400 C402 1.419 . S
C400 H404 0.930 . S
C401 C400 1.369 . S
C401 C410 1.429 . S
C402 C400 1.419 . S
C402 C403 1.363 . S
C402 H405 0.929 . S
C403 C402 1.363 . S
C403 C409 1.428 . S
H404 C400 0.930 . S
H405 C402 0.929 . S
S406 N407 1.615 1_655 S
S406 N408 1.611 1_655 S
N407 S406 1.615 1_455 S
N407 C410 1.350 . S
N408 S406 1.611 1_455 S
N408 C409 1.351 . S
C409 C403 1.428 . S
C409 N408 1.351 . S
C409 C410 1.434 . S
C410 C401 1.429 . S
C410 N407 1.350 . S
C410 C409 1.434 . S
C411 C412 1.384 . S
C411 C413 1.419 . S
C411 H415 0.930 . S
C412 C411 1.384 . S
C412 C421 1.412 1_545 S
C413 C411 1.419 . S
C413 C414 1.363 . S
C413 H416 0.929 . S
C414 C413 1.363 . S
C414 C420 1.428 1_545 S
H415 C411 0.930 . S
H416 C413 0.929 . S
S417 N418 1.613 . S
S417 N419 1.610 . S
N418 S417 1.613 . S
N418 C421 1.350 . S
N419 S417 1.610 . S
N419 C420 1.351 . S
C420 C414 1.428 1_565 S
C420 N419 1.351 . S
C420 C421 1.434 . S
C421 C412 1.412 1_565 S
C421 N418 1.350 . S
C421 C420 1.434 . S
C422 C423 1.369 . S
C422 C424 1.419 . S
C422 H426 0.930 . S
C423 C422 1.369 . S
C423 C432 1.429 . S
C424 C422 1.419 . S
C424 C425 1.363 . S
C424 H427 0.929 . S
C425 C424 1.363 . S
C425 C431 1.428 1_554 S
H426 C422 0.930 . S
H427 C424 0.929 . S
S428 N429 1.613 1_556 S
S428 N430 1.610 . S
N429 S428 1.613 1_554 S
N429 C432 1.350 . S
N430 S428 1.610 . S
N430 C431 1.351 . S
C431 C425 1.428 1_556 S
C431 N430 1.351 . S
C431 C432 1.434 1_556 S
C432 C423 1.429 . S
C432 N429 1.350 . S
C432 C431 1.434 1_554 S
C433 C434 1.369 . S
C433 C435 1.419 . S
C433 H437 0.930 . S
C434 C433 1.369 . S
C434 C443 1.429 . S
C435 C433 1.419 . S
C435 C436 1.363 1_554 S
C435 H438 0.929 . S
C436 C435 1.363 1_556 S
C436 C442 1.428 . S
H437 C433 0.930 . S
H438 C435 0.929 . S
S439 N440 1.613 . S
S439 N441 1.610 . S
N440 S439 1.613 . S
N440 C443 1.350 1_556 S
N441 S439 1.610 . S
N441 C442 1.351 . S
C442 C436 1.428 . S
C442 N441 1.351 . S
C442 C443 1.434 1_556 S
C443 C434 1.429 . S
C443 N440 1.350 1_554 S
C443 C442 1.434 1_554 S
C444 C445 1.369 . S
C444 C446 1.419 . S
C444 H448 0.930 . S
C445 C444 1.369 . S
C445 C454 1.429 . S
C446 C444 1.419 . S
C446 C447 1.363 . S
C446 H449 0.929 . S
C447 C446 1.363 . S
C447 C453 1.428 . S
H448 C444 0.930 . S
H449 C446 0.929 . S
S450 N451 1.613 . S
S450 N452 1.610 . S
N451 S450 1.613 . S
N451 C454 1.350 1_455 S
N452 S450 1.610 . S
N452 C453 1.351 1_455 S
C453 C447 1.428 . S
C453 N452 1.351 1_655 S
C453 C454 1.434 . S
C454 C445 1.429 . S
C454 N451 1.350 1_655 S
C454 C453 1.434 . S
C455 C456 1.374 . S
C455 C457 1.419 . S
C455 H459 0.930 . S
C456 C455 1.374 . S
C456 C465 1.423 1_565 S
C457 C455 1.419 . S
C457 C458 1.363 . S
C457 H460 0.929 . S
C458 C457 1.363 . S
C458 C464 1.428 1_565 S
H459 C455 0.930 . S
H460 C457 0.929 . S
S461 N462 1.613 . S
S461 N463 1.610 . S
N462 S461 1.613 . S
N462 C465 1.350 . S
N463 S461 1.610 . S
N463 C464 1.351 . S
C464 C458 1.428 1_545 S
C464 N463 1.351 . S
C464 C465 1.434 . S
C465 C456 1.423 1_545 S
C465 N462 1.350 . S
C465 C464 1.434 . S
C466 C467 1.369 . S
C466 C468 1.419 . S
C466 H470 0.930 . S
C467 C466 1.369 . S
C467 C476 1.429 . S
C468 C466 1.419 . S
C468 C469 1.363 . S
C468 H471 0.929 . S
C469 C468 1.363 . S
C469 C475 1.428 . S
H470 C466 0.930 . S
H471 C468 0.929 . S
S472 N473 1.613 . S
S472 N474 1.610 . S
N473 S472 1.613 . S
N473 C476 1.350 . S
N474 S472 1.610 . S
N474 C475 1.351 . S
C475 C469 1.428 . S
C475 N474 1.351 . S
C475 C476 1.434 . S
C476 C467 1.429 . S
C476 N473 1.350 . S
C476 C475 1.434 . S
C477 C478 1.369 . S
C477 C479 1.419 . S
C477 H481 0.930 . S
C478 C477 1.369 . S
C478 C487 1.429 . S
C479 C477 1.419 . S
C479 C480 1.363 . S
C479 H482 0.929 . S
C480 C479 1.363 . S
C480 C486 1.428 . S
H481 C477 0.930 . S
H482 C479 0.929 . S
S483 N484 1.613 . S
S483 N485 1.610 . S
N484 S483 1.613 . S
N484 C487 1.350 . S
N485 S483 1.610 . S
N485 C486 1.351 . S
C486 C480 1.428 . S
C486 N485 1.351 . S
C486 C487 1.434 . S
C487 C478 1.429 . S
C487 N484 1.350 . S
C487 C486 1.434 . S
C225 C76 1.853 . S
C227 C105 1.875 . S
C238 C126 1.535 . S
C236 C87 1.504 . S
C249 C160 1.468 . S
C247 C54 1.433 . S
C260 C194 1.555 . S
C258 C65 1.529 . S
C271 C96 1.876 . S
C269 C32 1.850 1_546 S
C280 C43 1.513 . S
C282 C135 1.539 . S
C291 C10 1.433 . S
C293 C169 1.468 . S
C302 C21 1.541 . S
C304 C203 1.553 . S
C315 C117 0.868 . S
C313 C60 0.829 . S
C326 C122 1.268 . S
C324 C71 1.235 1_565 S
C337 C156 1.182 . S
C335 C82 1.162 . S
C346 C49 0.622 . S
C348 C190 0.619 . S
C357 C16 0.834 . S
C359 C88 0.868 . S
C370 C151 1.268 . S
C368 C27 1.237 . S
C381 C185 1.180 . S
C379 C38 1.151 . S
C390 C5 0.620 . S
C392 C219 0.622 . S
C401 C59 1.337 . S
C403 C101 1.387 . S
C412 C70 1.714 . S
C414 C130 1.766 1_554 S
C425 C164 1.545 1_554 S
C423 C81 1.517 . S
C436 C198 1.609 . S
C434 C48 1.561 . S
C445 C15 1.332 . S
C447 C92 1.392 . S
C458 C139 1.767 . S
C456 C26 1.717 1_565 S
C469 C173 1.545 . S
C467 C37 1.516 . S
C478 C4 1.564 . S
C480 C207 1.609 . S
