# Generated by pormake.
# Topology ptr, (4,4)-cn, num edge types: 1
# Building blocks:
#     Node 0, Type 0, BuildingBlock: CEKHIL_clean_sbu_0, # of connection points: 4
#     Node 1, Type 0, BuildingBlock: CEKHIL_clean_sbu_0, # of connection points: 4
#     Node 2, Type 0, BuildingBlock: CEKHIL_clean_sbu_0, # of connection points: 4
#     Node 3, Type 0, BuildingBlock: CEKHIL_clean_sbu_0, # of connection points: 4
#     Node 4, Type 0, BuildingBlock: CEKHIL_clean_sbu_0, # of connection points: 4
#     Node 5, Type 0, BuildingBlock: CEKHIL_clean_sbu_0, # of connection points: 4
#     Node 6, Type 0, BuildingBlock: CEKHIL_clean_sbu_0, # of connection points: 4
#     Node 7, Type 0, BuildingBlock: CEKHIL_clean_sbu_0, # of connection points: 4
#     Node 8, Type 0, BuildingBlock: CEKHIL_clean_sbu_0, # of connection points: 4
#     Node 9, Type 0, BuildingBlock: CEKHIL_clean_sbu_0, # of connection points: 4
#     Node 10, Type 0, BuildingBlock: CEKHIL_clean_sbu_0, # of connection points: 4
#     Node 11, Type 0, BuildingBlock: CEKHIL_clean_sbu_0, # of connection points: 4
#     Node 12, Type 0, BuildingBlock: CEKHIL_clean_sbu_0, # of connection points: 4
#     Node 13, Type 0, BuildingBlock: CEKHIL_clean_sbu_0, # of connection points: 4
#     Node 14, Type 0, BuildingBlock: CEKHIL_clean_sbu_0, # of connection points: 4
#     Node 15, Type 0, BuildingBlock: CEKHIL_clean_sbu_0, # of connection points: 4
#     Node 16, Type 0, BuildingBlock: CEKHIL_clean_sbu_0, # of connection points: 4
#     Node 17, Type 0, BuildingBlock: CEKHIL_clean_sbu_0, # of connection points: 4
#     Node 18, Type 1, BuildingBlock: AZAVOO_clean_linker_0, # of connection points: 4
#     Node 19, Type 1, BuildingBlock: AZAVOO_clean_linker_0, # of connection points: 4
#     Node 20, Type 1, BuildingBlock: AZAVOO_clean_linker_0, # of connection points: 4
#     Node 21, Type 1, BuildingBlock: AZAVOO_clean_linker_0, # of connection points: 4
#     Node 22, Type 1, BuildingBlock: AZAVOO_clean_linker_0, # of connection points: 4
#     Node 23, Type 1, BuildingBlock: AZAVOO_clean_linker_0, # of connection points: 4
#     Node 24, Type 1, BuildingBlock: AZAVOO_clean_linker_0, # of connection points: 4
#     Node 25, Type 1, BuildingBlock: AZAVOO_clean_linker_0, # of connection points: 4
#     Node 26, Type 1, BuildingBlock: AZAVOO_clean_linker_0, # of connection points: 4
#     Node 27, Type 1, BuildingBlock: AZAVOO_clean_linker_0, # of connection points: 4
#     Node 28, Type 1, BuildingBlock: AZAVOO_clean_linker_0, # of connection points: 4
#     Node 29, Type 1, BuildingBlock: AZAVOO_clean_linker_0, # of connection points: 4
#     Node 30, Type 1, BuildingBlock: AZAVOO_clean_linker_0, # of connection points: 4
#     Node 31, Type 1, BuildingBlock: AZAVOO_clean_linker_0, # of connection points: 4
#     Node 32, Type 1, BuildingBlock: AZAVOO_clean_linker_0, # of connection points: 4
#     Node 33, Type 1, BuildingBlock: AZAVOO_clean_linker_0, # of connection points: 4
#     Node 34, Type 1, BuildingBlock: AZAVOO_clean_linker_0, # of connection points: 4
#     Node 35, Type 1, BuildingBlock: AZAVOO_clean_linker_0, # of connection points: 4
#     Edge 36, Type (0, 1), BuildingBlock: CIFDUS_clean_linker_0, # of connection points: 2
#     Edge 37, Type (0, 1), BuildingBlock: CIFDUS_clean_linker_0, # of connection points: 2
#     Edge 38, Type (0, 1), BuildingBlock: CIFDUS_clean_linker_0, # of connection points: 2
#     Edge 39, Type (0, 1), BuildingBlock: CIFDUS_clean_linker_0, # of connection points: 2
#     Edge 40, Type (0, 1), BuildingBlock: CIFDUS_clean_linker_0, # of connection points: 2
#     Edge 41, Type (0, 1), BuildingBlock: CIFDUS_clean_linker_0, # of connection points: 2
#     Edge 42, Type (0, 1), BuildingBlock: CIFDUS_clean_linker_0, # of connection points: 2
#     Edge 43, Type (0, 1), BuildingBlock: CIFDUS_clean_linker_0, # of connection points: 2
#     Edge 44, Type (0, 1), BuildingBlock: CIFDUS_clean_linker_0, # of connection points: 2
#     Edge 45, Type (0, 1), BuildingBlock: CIFDUS_clean_linker_0, # of connection points: 2
#     Edge 46, Type (0, 1), BuildingBlock: CIFDUS_clean_linker_0, # of connection points: 2
#     Edge 47, Type (0, 1), BuildingBlock: CIFDUS_clean_linker_0, # of connection points: 2
#     Edge 48, Type (0, 1), BuildingBlock: CIFDUS_clean_linker_0, # of connection points: 2
#     Edge 49, Type (0, 1), BuildingBlock: CIFDUS_clean_linker_0, # of connection points: 2
#     Edge 50, Type (0, 1), BuildingBlock: CIFDUS_clean_linker_0, # of connection points: 2
#     Edge 51, Type (0, 1), BuildingBlock: CIFDUS_clean_linker_0, # of connection points: 2
#     Edge 52, Type (0, 1), BuildingBlock: CIFDUS_clean_linker_0, # of connection points: 2
#     Edge 53, Type (0, 1), BuildingBlock: CIFDUS_clean_linker_0, # of connection points: 2
#     Edge 54, Type (0, 1), BuildingBlock: CIFDUS_clean_linker_0, # of connection points: 2
#     Edge 55, Type (0, 1), BuildingBlock: CIFDUS_clean_linker_0, # of connection points: 2
#     Edge 56, Type (0, 1), BuildingBlock: CIFDUS_clean_linker_0, # of connection points: 2
#     Edge 57, Type (0, 1), BuildingBlock: CIFDUS_clean_linker_0, # of connection points: 2
#     Edge 58, Type (0, 1), BuildingBlock: CIFDUS_clean_linker_0, # of connection points: 2
#     Edge 59, Type (0, 1), BuildingBlock: CIFDUS_clean_linker_0, # of connection points: 2
#     Edge 60, Type (0, 1), BuildingBlock: CIFDUS_clean_linker_0, # of connection points: 2
#     Edge 61, Type (0, 1), BuildingBlock: CIFDUS_clean_linker_0, # of connection points: 2
#     Edge 62, Type (0, 1), BuildingBlock: CIFDUS_clean_linker_0, # of connection points: 2
#     Edge 63, Type (0, 1), BuildingBlock: CIFDUS_clean_linker_0, # of connection points: 2
#     Edge 64, Type (0, 1), BuildingBlock: CIFDUS_clean_linker_0, # of connection points: 2
#     Edge 65, Type (0, 1), BuildingBlock: CIFDUS_clean_linker_0, # of connection points: 2
#     Edge 66, Type (0, 1), BuildingBlock: CIFDUS_clean_linker_0, # of connection points: 2
#     Edge 67, Type (0, 1), BuildingBlock: CIFDUS_clean_linker_0, # of connection points: 2
#     Edge 68, Type (0, 1), BuildingBlock: CIFDUS_clean_linker_0, # of connection points: 2
#     Edge 69, Type (0, 1), BuildingBlock: CIFDUS_clean_linker_0, # of connection points: 2
#     Edge 70, Type (0, 1), BuildingBlock: CIFDUS_clean_linker_0, # of connection points: 2
#     Edge 71, Type (0, 1), BuildingBlock: CIFDUS_clean_linker_0, # of connection points: 2
#     Edge 72, Type (0, 1), BuildingBlock: CIFDUS_clean_linker_0, # of connection points: 2
#     Edge 73, Type (0, 1), BuildingBlock: CIFDUS_clean_linker_0, # of connection points: 2
#     Edge 74, Type (0, 1), BuildingBlock: CIFDUS_clean_linker_0, # of connection points: 2
#     Edge 75, Type (0, 1), BuildingBlock: CIFDUS_clean_linker_0, # of connection points: 2
#     Edge 76, Type (0, 1), BuildingBlock: CIFDUS_clean_linker_0, # of connection points: 2
#     Edge 77, Type (0, 1), BuildingBlock: CIFDUS_clean_linker_0, # of connection points: 2
#     Edge 78, Type (0, 1), BuildingBlock: CIFDUS_clean_linker_0, # of connection points: 2
#     Edge 79, Type (0, 1), BuildingBlock: CIFDUS_clean_linker_0, # of connection points: 2
#     Edge 80, Type (0, 1), BuildingBlock: CIFDUS_clean_linker_0, # of connection points: 2
#     Edge 81, Type (0, 1), BuildingBlock: CIFDUS_clean_linker_0, # of connection points: 2
#     Edge 82, Type (0, 1), BuildingBlock: CIFDUS_clean_linker_0, # of connection points: 2
#     Edge 83, Type (0, 1), BuildingBlock: CIFDUS_clean_linker_0, # of connection points: 2
#     Edge 84, Type (0, 1), BuildingBlock: CIFDUS_clean_linker_0, # of connection points: 2
#     Edge 85, Type (0, 1), BuildingBlock: CIFDUS_clean_linker_0, # of connection points: 2
#     Edge 86, Type (0, 1), BuildingBlock: CIFDUS_clean_linker_0, # of connection points: 2
#     Edge 87, Type (0, 1), BuildingBlock: CIFDUS_clean_linker_0, # of connection points: 2
#     Edge 88, Type (0, 1), BuildingBlock: CIFDUS_clean_linker_0, # of connection points: 2
#     Edge 89, Type (0, 1), BuildingBlock: CIFDUS_clean_linker_0, # of connection points: 2
#     Edge 90, Type (0, 1), BuildingBlock: CIFDUS_clean_linker_0, # of connection points: 2
#     Edge 91, Type (0, 1), BuildingBlock: CIFDUS_clean_linker_0, # of connection points: 2
#     Edge 92, Type (0, 1), BuildingBlock: CIFDUS_clean_linker_0, # of connection points: 2
#     Edge 93, Type (0, 1), BuildingBlock: CIFDUS_clean_linker_0, # of connection points: 2
#     Edge 94, Type (0, 1), BuildingBlock: CIFDUS_clean_linker_0, # of connection points: 2
#     Edge 95, Type (0, 1), BuildingBlock: CIFDUS_clean_linker_0, # of connection points: 2
#     Edge 96, Type (0, 1), BuildingBlock: CIFDUS_clean_linker_0, # of connection points: 2
#     Edge 97, Type (0, 1), BuildingBlock: CIFDUS_clean_linker_0, # of connection points: 2
#     Edge 98, Type (0, 1), BuildingBlock: CIFDUS_clean_linker_0, # of connection points: 2
#     Edge 99, Type (0, 1), BuildingBlock: CIFDUS_clean_linker_0, # of connection points: 2
#     Edge 100, Type (0, 1), BuildingBlock: CIFDUS_clean_linker_0, # of connection points: 2
#     Edge 101, Type (0, 1), BuildingBlock: CIFDUS_clean_linker_0, # of connection points: 2
#     Edge 102, Type (0, 1), BuildingBlock: CIFDUS_clean_linker_0, # of connection points: 2
#     Edge 103, Type (0, 1), BuildingBlock: CIFDUS_clean_linker_0, # of connection points: 2
#     Edge 104, Type (0, 1), BuildingBlock: CIFDUS_clean_linker_0, # of connection points: 2
#     Edge 105, Type (0, 1), BuildingBlock: CIFDUS_clean_linker_0, # of connection points: 2
#     Edge 106, Type (0, 1), BuildingBlock: CIFDUS_clean_linker_0, # of connection points: 2
#     Edge 107, Type (0, 1), BuildingBlock: CIFDUS_clean_linker_0, # of connection points: 2
# Relax obj value: 0.052
# Max RMSD: 0.176
# Mean RMSD: 0.116
data_MOF--net-ptr--node1-CEKHIL_clean_sbu_0--node2-AZAVOO_clean_linker_0--edge1-CIFDUS_clean_linker_0
_symmetry_space_group_name_H-M    P1
_symmetry_Int_Tables_number       1
_symmetry_cell_setting            triclinic
loop_
_symmetry_equiv_pos_as_xyz
'x, y, z'
_cell_length_a     74.047701
_cell_length_b     71.726512
_cell_length_c     62.177013
_cell_angle_alpha  93.812117
_cell_angle_beta   91.889444
_cell_angle_gamma 121.22088
loop_
_atom_site_label
_atom_site_type_symbol
_atom_site_fract_x
_atom_site_fract_y
_atom_site_fract_z
_atom_type_partial_charge
Co0 Co 0.014 0.35546 0.01496 0.0
O1 O 0.02069 0.34294 0.03797 0.0
O2 O 0.04422 0.37223 0.02288 0.0
C3 C 0.99242 0.32367 0.99462 0.0
O4 O 0.01272 0.3726 0.99055 0.0
Co5 Co 0.96722 0.34314 0.00564 0.0
O6 O 0.97845 0.35883 0.97972 0.0
C7 C 0.99323 0.37457 0.04295 0.0
C8 C 0.04029 0.35839 0.03718 0.0
C9 C 0.99814 0.37154 0.97764 0.0
O10 O 0.00963 0.37454 0.03678 0.0
O11 O 0.9746 0.36203 0.03363 0.0
O12 O 0.0128 0.33327 0.99374 0.0
O13 O 0.9861 0.33233 0.00902 0.0
Co14 Co 0.64264 0.62738 0.06372 0.0
O15 O 0.65944 0.64244 0.04084 0.0
O16 O 0.6554 0.61173 0.0516 0.0
C17 C 0.65498 0.65724 0.08731 0.0
O18 O 0.62672 0.60774 0.08716 0.0
Co19 Co 0.60925 0.63836 0.07911 0.0
O20 O 0.60795 0.62075 0.10294 0.0
C21 C 0.60152 0.6127 0.03727 0.0
C22 C 0.66386 0.62718 0.03869 0.0
C23 C 0.615 0.60785 0.10198 0.0
O24 O 0.61713 0.6103 0.04236 0.0
O25 O 0.59704 0.62505 0.04875 0.0
O26 O 0.66571 0.64762 0.08521 0.0
O27 O 0.63857 0.64985 0.07386 0.0
Co28 Co 0.37069 0.99259 0.01505 0.0
O29 O 0.35885 0.00065 0.99236 0.0
O30 O 0.38793 0.02404 0.01322 0.0
C31 C 0.34009 0.97186 0.03006 0.0
O32 O 0.38666 0.98937 0.04069 0.0
Co33 Co 0.35615 0.94356 0.01507 0.0
O34 O 0.36871 0.95339 0.04537 0.0
C35 C 0.38483 0.96963 0.98303 0.0
C36 C 0.37416 0.02064 0.99751 0.0
C37 C 0.38244 0.97328 0.05191 0.0
O38 O 0.38756 0.98705 0.99359 0.0
O39 O 0.37154 0.95031 0.9879 0.0
O40 O 0.35103 0.99296 0.03468 0.0
O41 O 0.34684 0.9643 0.01492 0.0
Co42 Co 0.00103 0.64817 0.04696 0.0
O43 O 0.99679 0.66416 0.026 0.0
O44 O 0.97134 0.63268 0.03602 0.0
C45 C 0.02107 0.67726 0.07131 0.0
O46 O 1.0004 0.62777 0.06882 0.0
Co47 Co 0.04778 0.66032 0.05728 0.0
O48 O 0.0344 0.63927 0.0792 0.0
C49 C 0.02446 0.63429 0.01673 0.0
C50 C 0.97698 0.64881 0.02405 0.0
C51 C 0.01451 0.62653 0.08035 0.0
O52 O 0.00722 0.63191 0.02354 0.0
O53 O 0.04274 0.64702 0.02668 0.0
O54 O 1.00055 0.66748 0.07058 0.0
O55 O 0.02838 0.67057 0.05612 0.0
Co56 Co 0.35857 0.37015 0.00122 0.0
O57 O 0.33887 0.35517 0.02217 0.0
O58 O 0.34781 0.38798 0.01286 0.0
C59 C 0.34501 0.34099 0.97654 0.0
O60 O 0.37776 0.39022 0.97959 0.0
Co61 Co 0.38919 0.35509 0.98714 0.0
O62 O 0.39697 0.3768 0.96584 0.0
C63 C 0.39761 0.38027 0.02946 0.0
C64 C 0.33655 0.37189 0.02443 0.0
C65 C 0.39119 0.39074 0.96662 0.0
O66 O 0.38261 0.38372 0.02458 0.0
O67 O 0.40162 0.3679 0.0174 0.0
O68 O 0.33654 0.35294 0.97779 0.0
O69 O 0.36002 0.3459 0.99106 0.0
Co70 Co 0.62906 0.99753 0.05085 0.0
O71 O 0.64583 0.99189 0.07029 0.0
O72 O 0.61356 0.96685 0.05601 0.0
C73 C 0.65511 0.01656 0.02935 0.0
O74 O 0.6079 0.99738 0.0289 0.0
Co75 Co 0.64037 0.04504 0.04832 0.0
O76 O 0.61911 0.03231 0.02317 0.0
C77 C 0.61791 0.02212 0.08496 0.0
C78 C 0.63045 0.97162 0.06797 0.0
C79 C 0.60655 0.01176 0.01877 0.0
O80 O 0.61628 0.00462 0.07589 0.0
O81 O 0.62834 0.04069 0.07733 0.0
O82 O 0.64414 0.99531 0.02703 0.0
O83 O 0.65148 0.0257 0.046 0.0
Co84 Co 0.66832 0.68404 0.3553 0.0
O85 O 0.67603 0.67333 0.37926 0.0
O86 O 0.69888 0.69935 0.3602 0.0
C87 C 0.64362 0.65075 0.33934 0.0
O88 O 0.66615 0.6988 0.32918 0.0
Co89 Co 0.62251 0.67473 0.34741 0.0
O90 O 0.63173 0.68406 0.31844 0.0
C91 C 0.65233 0.70925 0.38128 0.0
C92 C 0.69561 0.68717 0.37599 0.0
C93 C 0.65132 0.69607 0.3155 0.0
O94 O 0.66745 0.70659 0.37554 0.0
O95 O 0.63321 0.69741 0.37292 0.0
O96 O 0.66348 0.65878 0.33617 0.0
O97 O 0.63969 0.66227 0.353 0.0
Co98 Co 0.31533 0.9743 0.40193 0.0
O99 O 0.33802 0.99156 0.38444 0.0
O100 O 0.32891 0.95842 0.39302 0.0
C101 C 0.32317 0.00155 0.42757 0.0
O102 O 0.29347 0.9523 0.42055 0.0
Co103 Co 0.28045 0.98582 0.40868 0.0
O104 O 0.26993 0.96231 0.42835 0.0
C105 C 0.28166 0.96539 0.36679 0.0
C106 C 0.34132 0.97546 0.38307 0.0
C107 C 0.27727 0.9498 0.43008 0.0
O108 O 0.29481 0.96082 0.37532 0.0
O109 O 0.27592 0.97741 0.37679 0.0
O110 O 0.3335 0.99142 0.42821 0.0
O111 O 0.31037 0.99636 0.41068 0.0
Co112 Co 0.04899 0.3339 0.36005 0.0
O113 O 0.03281 0.34098 0.34141 0.0
O114 O 0.06542 0.36481 0.35535 0.0
C115 C 0.02264 0.31521 0.38147 0.0
O116 O 0.06991 0.33215 0.38098 0.0
Co117 Co 0.03475 0.2852 0.36125 0.0
O118 O 0.05717 0.29656 0.38518 0.0
C119 C 0.05704 0.30813 0.3244 0.0
C120 C 0.04873 0.36096 0.34357 0.0
C121 C 0.07076 0.31686 0.3899 0.0
O122 O 0.0604 0.32617 0.33414 0.0
O123 O 0.04578 0.28955 0.3318 0.0
O124 O 0.03461 0.33639 0.38461 0.0
O125 O 0.02576 0.30619 0.36443 0.0
Co126 Co 0.66203 0.98004 0.38074 0.0
O127 O 0.65813 0.99547 0.35886 0.0
O128 O 0.63276 0.9637 0.36841 0.0
C129 C 0.6803 0.0092 0.40535 0.0
O130 O 0.66099 0.96008 0.40333 0.0
Co131 Co 0.70893 0.99384 0.39377 0.0
O132 O 0.69484 0.97185 0.41471 0.0
C133 C 0.68782 0.96749 0.35268 0.0
C134 C 0.63849 0.97969 0.35623 0.0
C135 C 0.6749 0.95898 0.41536 0.0
O136 O 0.66997 0.96427 0.35849 0.0
O137 O 0.70559 0.98086 0.3633 0.0
O138 O 0.65976 0.99903 0.40342 0.0
O139 O 0.68879 0.00302 0.39105 0.0
Co140 Co 0.02663 0.70021 0.33882 0.0
O141 O 0.00409 0.68464 0.35705 0.0
O142 O 0.01508 0.71805 0.34792 0.0
C143 C 0.01614 0.67191 0.31362 0.0
O144 O 0.04878 0.7208 0.3195 0.0
Co145 Co 0.0587 0.68505 0.33097 0.0
O146 O 0.06837 0.70656 0.30918 0.0
C147 C 0.06111 0.70832 0.37274 0.0
C148 C 0.00209 0.70158 0.35823 0.0
C149 C 0.06308 0.72083 0.3082 0.0
O150 O 0.0479 0.71311 0.3648 0.0
O151 O 0.06584 0.69552 0.36254 0.0
O152 O 0.00722 0.68344 0.31318 0.0
O153 O 0.02929 0.67652 0.33006 0.0
Co154 Co 0.29616 0.32505 0.38019 0.0
O155 O 0.31319 0.31884 0.3986 0.0
O156 O 0.28195 0.29368 0.38218 0.0
C157 C 0.32293 0.34783 0.36109 0.0
O158 O 0.27505 0.32573 0.35883 0.0
Co159 Co 0.30522 0.37229 0.38268 0.0
O160 O 0.28453 0.36089 0.35703 0.0
C161 C 0.28306 0.34483 0.41701 0.0
C162 C 0.29869 0.29835 0.39436 0.0
C163 C 0.27292 0.34056 0.3506 0.0
O164 O 0.28153 0.32835 0.40565 0.0
O165 O 0.29372 0.36444 0.41171 0.0
O166 O 0.31304 0.32677 0.35641 0.0
O167 O 0.31767 0.35439 0.37837 0.0
Co168 Co 0.34506 0.02636 0.6907 0.0
O169 O 0.35334 0.01231 0.71066 0.0
O170 O 0.37531 0.044 0.69811 0.0
C171 C 0.3242 0.99611 0.6678 0.0
O172 O 0.34225 0.04567 0.66978 0.0
Co173 Co 0.29739 0.01183 0.68376 0.0
O174 O 0.30771 0.03385 0.66256 0.0
C175 C 0.3232 0.04088 0.72252 0.0
C176 C 0.37251 0.02888 0.71043 0.0
C177 C 0.32728 0.04695 0.66022 0.0
O178 O 0.33992 0.0421 0.71558 0.0
O179 O 0.30465 0.02863 0.71295 0.0
O180 O 0.34456 0.00722 0.66634 0.0
O181 O 0.31759 0.0025 0.68396 0.0
Co182 Co 0.97601 0.29362 0.72668 0.0
O183 O 0.999 0.30916 0.709 0.0
O184 O 0.98923 0.27676 0.72029 0.0
C185 C 0.98444 0.32276 0.75008 0.0
O186 O 0.95365 0.27346 0.74615 0.0
Co187 Co 0.94206 0.30684 0.73053 0.0
O188 O 0.93298 0.28713 0.75386 0.0
C189 C 0.94123 0.28118 0.69112 0.0
C190 C 0.00207 0.29297 0.70961 0.0
C191 C 0.9388 0.27347 0.75642 0.0
O192 O 0.95568 0.27865 0.70003 0.0
O193 O 0.93504 0.2933 0.7 0.0
O194 O 0.99413 0.31215 0.75245 0.0
O195 O 0.97178 0.31669 0.7329 0.0
Co196 Co 0.70372 0.65792 0.68546 0.0
O197 O 0.68618 0.66309 0.66658 0.0
O198 O 0.71816 0.68882 0.68083 0.0
C199 C 0.67754 0.63785 0.70661 0.0
O200 O 0.72555 0.6585 0.70701 0.0
Co201 Co 0.69355 0.61078 0.68766 0.0
O202 O 0.71473 0.62371 0.71282 0.0
C203 C 0.71533 0.63433 0.65084 0.0
C204 C 0.7009 0.6836 0.66929 0.0
C205 C 0.72726 0.64429 0.71711 0.0
O206 O 0.71667 0.6517 0.65994 0.0
O207 O 0.70538 0.61578 0.6586 0.0
O208 O 0.68837 0.65907 0.7096 0.0
O209 O 0.68169 0.62936 0.68987 0.0
Co210 Co 0.33388 0.31523 0.72618 0.0
O211 O 0.3336 0.3308 0.70229 0.0
O212 O 0.30549 0.30119 0.71215 0.0
C213 C 0.35318 0.34521 0.74972 0.0
O214 O 0.32814 0.29524 0.75038 0.0
Co215 Co 0.37668 0.32303 0.74641 0.0
O216 O 0.35902 0.30717 0.76975 0.0
C217 C 0.35746 0.29534 0.70505 0.0
C218 C 0.31344 0.31661 0.69917 0.0
C219 C 0.33893 0.29492 0.76692 0.0
O220 O 0.34078 0.29655 0.7066 0.0
O221 O 0.37386 0.30579 0.71847 0.0
O222 O 0.33291 0.33689 0.74634 0.0
O223 O 0.36115 0.33642 0.73765 0.0
Co224 Co 0.69823 0.04473 0.66742 0.0
O225 O 0.68051 0.03136 0.69036 0.0
O226 O 0.68562 0.0614 0.67689 0.0
C227 C 0.68607 0.0134 0.64612 0.0
O228 O 0.71467 0.0626 0.64307 0.0
Co229 Co 0.73168 0.03296 0.65473 0.0
O230 O 0.73119 0.04656 0.62818 0.0
C231 C 0.7393 0.06114 0.69496 0.0
C232 C 0.67629 0.0468 0.69048 0.0
C233 C 0.72485 0.06 0.62791 0.0
O234 O 0.72326 0.06265 0.68925 0.0
O235 O 0.74437 0.04892 0.68414 0.0
O236 O 0.67553 0.0233 0.64619 0.0
O237 O 0.70233 0.02167 0.65994 0.0
Co238 Co 0.96575 0.67573 0.7158 0.0
O239 O 0.9813 0.67129 0.73801 0.0
O240 O 0.95182 0.64483 0.71973 0.0
C241 C 0.99398 0.69781 0.69807 0.0
O242 O 0.94597 0.67433 0.69117 0.0
Co243 Co 0.97371 0.72224 0.71293 0.0
O244 O 0.9543 0.70869 0.68641 0.0
C245 C 0.94934 0.69676 0.74759 0.0
C246 C 0.96719 0.65058 0.73443 0.0
C247 C 0.94357 0.6881 0.68103 0.0
O248 O 0.94892 0.67996 0.73831 0.0
O249 O 0.95987 0.71583 0.74098 0.0
O250 O 0.98499 0.67669 0.69486 0.0
O251 O 0.98701 0.705 0.71332 0.0
H252 H 0.17715 0.37156 0.02445 0.0
H253 H 0.28397 0.31462 0.20162 0.0
H254 H 0.16549 0.37834 0.14576 0.0
H255 H 0.13713 0.38056 0.127 0.0
H256 H 0.09776 0.30988 0.12089 0.0
H257 H 0.12609 0.30794 0.13995 0.0
H258 H 0.20145 0.37938 0.11662 0.0
H259 H 0.19589 0.3826 0.07833 0.0
H260 H 0.14715 0.31383 0.06954 0.0
H261 H 0.15302 0.31084 0.1078 0.0
H262 H 0.23819 0.37842 0.1432 0.0
H263 H 0.26518 0.38156 0.1194 0.0
H264 H 0.22193 0.31534 0.09094 0.0
H265 H 0.19525 0.31224 0.11513 0.0
H266 H 0.23901 0.37375 0.18908 0.0
H267 H 0.26907 0.3713 0.20263 0.0
H268 H 0.23596 0.303 0.17764 0.0
H269 H 0.20597 0.30568 0.16434 0.0
H270 H 0.20875 0.37429 0.21285 0.0
H271 H 0.2202 0.37383 0.24989 0.0
H272 H 0.18633 0.30302 0.24134 0.0
H273 H 0.17547 0.30383 0.20384 0.0
H274 H 0.17271 0.37253 0.20325 0.0
H275 H 0.14891 0.36931 0.23101 0.0
H276 H 0.10638 0.30115 0.20766 0.0
H277 H 0.13099 0.30435 0.18079 0.0
O278 O 0.17916 0.36991 0.0395 0.0
O279 O 0.15421 0.3345 0.03586 0.0
O280 O 0.28868 0.35123 0.20898 0.0
O281 O 0.27234 0.31607 0.19641 0.0
C282 C 0.16593 0.34168 0.15264 0.0
C283 C 0.18083 0.34307 0.13818 0.0
C284 C 0.19891 0.34301 0.1459 0.0
C285 C 0.20197 0.34122 0.16799 0.0
C286 C 0.18718 0.33997 0.18248 0.0
C287 C 0.16909 0.34013 0.17481 0.0
C288 C 0.14769 0.343 0.14441 0.0
C289 C 0.15053 0.36341 0.14078 0.0
C290 C 0.13443 0.36461 0.12986 0.0
C291 C 0.11523 0.34539 0.12234 0.0
C292 C 0.11223 0.325 0.12671 0.0
C293 C 0.12835 0.32383 0.13763 0.0
C294 C 0.1776 0.3449 0.11492 0.0
C295 C 0.18964 0.36504 0.10635 0.0
C296 C 0.1864 0.36682 0.0845 0.0
C297 C 0.17105 0.34848 0.07087 0.0
C298 C 0.15908 0.32829 0.07958 0.0
C299 C 0.16236 0.32653 0.10142 0.0
C300 C 0.21487 0.34508 0.1309 0.0
C301 C 0.2346 0.36464 0.13178 0.0
C302 C 0.2499 0.36645 0.11809 0.0
C303 C 0.24569 0.34869 0.10334 0.0
C304 C 0.22573 0.32921 0.10232 0.0
C305 C 0.21045 0.32744 0.11601 0.0
C306 C 0.22034 0.33987 0.17586 0.0
C307 C 0.23829 0.35828 0.18662 0.0
C308 C 0.25543 0.35683 0.1943 0.0
C309 C 0.2549 0.33693 0.19125 0.0
C310 C 0.23688 0.31855 0.18029 0.0
C311 C 0.21975 0.32003 0.17266 0.0
C312 C 0.19121 0.33911 0.20578 0.0
C313 C 0.20346 0.35868 0.21914 0.0
C314 C 0.20992 0.35833 0.24035 0.0
C315 C 0.20417 0.33836 0.24868 0.0
C316 C 0.19123 0.31868 0.23539 0.0
C317 C 0.18484 0.31908 0.21407 0.0
C318 C 0.15358 0.33866 0.1901 0.0
C319 C 0.15819 0.35695 0.20413 0.0
C320 C 0.14445 0.35509 0.21986 0.0
C321 C 0.12569 0.33493 0.22168 0.0
C322 C 0.12083 0.31682 0.20702 0.0
C323 C 0.13474 0.31865 0.19148 0.0
C324 C 0.16757 0.35045 0.04769 0.0
C325 C 0.27303 0.33527 0.19944 0.0
H326 H 0.67137 0.80325 0.03717 0.0
H327 H 0.69168 0.97113 0.22938 0.0
H328 H 0.64294 0.7911 0.1537 0.0
H329 H 0.63616 0.75489 0.14225 0.0
H330 H 0.70061 0.7759 0.16429 0.0
H331 H 0.70766 0.8129 0.17387 0.0
H332 H 0.6476 0.81395 0.12384 0.0
H333 H 0.65118 0.80555 0.08602 0.0
H334 H 0.71935 0.84602 0.09742 0.0
H335 H 0.71551 0.85425 0.13526 0.0
H336 H 0.64463 0.84612 0.13371 0.0
H337 H 0.63872 0.86856 0.11011 0.0
H338 H 0.70105 0.92387 0.13168 0.0
H339 H 0.70739 0.90064 0.15369 0.0
H340 H 0.64538 0.87032 0.17853 0.0
H341 H 0.6436 0.90242 0.19089 0.0
H342 H 0.70876 0.93526 0.2173 0.0
H343 H 0.71041 0.90321 0.20452 0.0
H344 H 0.64364 0.84433 0.21708 0.0
H345 H 0.64153 0.86179 0.25113 0.0
H346 H 0.70838 0.88878 0.26686 0.0
H347 H 0.71039 0.87173 0.23226 0.0
H348 H 0.64545 0.79841 0.20817 0.0
H349 H 0.64503 0.77366 0.23367 0.0
H350 H 0.71355 0.81014 0.23939 0.0
H351 H 0.71368 0.83521 0.21439 0.0
O352 O 0.67032 0.80678 0.05219 0.0
O353 O 0.70527 0.82777 0.05891 0.0
O354 O 0.65875 0.941 0.20967 0.0
O355 O 0.69202 0.95834 0.22405 0.0
C356 C 0.6793 0.8265 0.17099 0.0
C357 C 0.67934 0.83983 0.15524 0.0
C358 C 0.67879 0.85877 0.16157 0.0
C359 C 0.67889 0.86472 0.18371 0.0
C360 C 0.67928 0.85158 0.19944 0.0
C361 C 0.67975 0.83265 0.19314 0.0
C362 C 0.67587 0.80467 0.16418 0.0
C363 C 0.65569 0.78796 0.15567 0.0
C364 C 0.65176 0.76709 0.14958 0.0
C365 C 0.66776 0.76223 0.15253 0.0
C366 C 0.68797 0.77904 0.16149 0.0
C367 C 0.69202 0.80016 0.1671 0.0
C368 C 0.6813 0.83468 0.13226 0.0
C369 C 0.66329 0.82096 0.11815 0.0
C370 C 0.66538 0.81621 0.09654 0.0
C371 C 0.68556 0.82511 0.08869 0.0
C372 C 0.70358 0.83888 0.10294 0.0
C373 C 0.70144 0.84361 0.12454 0.0
C374 C 0.67656 0.87165 0.14514 0.0
C375 C 0.6573 0.86284 0.13263 0.0
C376 C 0.65379 0.87587 0.11951 0.0
C377 C 0.66929 0.89817 0.1191 0.0
C378 C 0.68884 0.90673 0.13123 0.0
C379 C 0.6925 0.89352 0.14395 0.0
C380 C 0.67804 0.88449 0.19058 0.0
C381 C 0.65929 0.88455 0.18681 0.0
C382 C 0.65831 0.90286 0.19396 0.0
C383 C 0.67604 0.9214 0.20513 0.0
C384 C 0.69482 0.92127 0.20878 0.0
C385 C 0.69581 0.903 0.20151 0.0
C386 C 0.67718 0.8569 0.22225 0.0
C387 C 0.65766 0.85345 0.22822 0.0
C388 C 0.6565 0.86345 0.24769 0.0
C389 C 0.67486 0.87697 0.26155 0.0
C390 C 0.69405 0.87882 0.2563 0.0
C391 C 0.6952 0.86887 0.23673 0.0
C392 C 0.67958 0.81855 0.20956 0.0
C393 C 0.66033 0.80112 0.21513 0.0
C394 C 0.66016 0.78688 0.22949 0.0
C395 C 0.67928 0.78976 0.23843 0.0
C396 C 0.69856 0.80754 0.23298 0.0
C397 C 0.69869 0.82184 0.21869 0.0
C398 C 0.68773 0.82002 0.06573 0.0
C399 C 0.675 0.94079 0.21303 0.0
H400 H 0.1388 0.83271 0.0288 0.0
H401 H 0.31856 0.98214 0.1963 0.0
H402 H 0.13063 0.83476 0.14325 0.0
H403 H 0.10141 0.79827 0.12898 0.0
H404 H 0.13584 0.76968 0.1539 0.0
H405 H 0.16518 0.80617 0.16736 0.0
H406 H 0.16587 0.87483 0.11732 0.0
H407 H 0.15326 0.86198 0.07927 0.0
H408 H 0.1663 0.81015 0.08429 0.0
H409 H 0.17909 0.82334 0.12224 0.0
H410 H 0.20858 0.91625 0.13674 0.0
H411 H 0.23484 0.93752 0.11156 0.0
H412 H 0.24975 0.8867 0.10335 0.0
H413 H 0.22294 0.86535 0.12774 0.0
H414 H 0.21288 0.92314 0.1915 0.0
H415 H 0.24619 0.95785 0.20149 0.0
H416 H 0.28098 0.9286 0.17749 0.0
H417 H 0.2476 0.89395 0.16786 0.0
H418 H 0.1821 0.88695 0.22284 0.0
H419 H 0.19909 0.90079 0.25962 0.0
H420 H 0.24759 0.88705 0.24311 0.0
H421 H 0.23014 0.87267 0.20671 0.0
H422 H 0.13713 0.8414 0.19563 0.0
H423 H 0.11543 0.81411 0.21999 0.0
H424 H 0.16746 0.80483 0.23528 0.0
H425 H 0.1886 0.83133 0.21025 0.0
O426 O 0.14393 0.83757 0.04384 0.0
O427 O 0.15084 0.81116 0.0473 0.0
O428 O 0.28654 0.9829 0.20463 0.0
O429 O 0.30516 0.96863 0.1925 0.0
C430 C 0.16893 0.84512 0.16215 0.0
C431 C 0.18074 0.85776 0.14566 0.0
C432 C 0.20012 0.87759 0.15112 0.0
C433 C 0.20754 0.88505 0.17301 0.0
C434 C 0.19589 0.87226 0.18947 0.0
C435 C 0.17644 0.85242 0.1841 0.0
C436 C 0.15 0.82305 0.15623 0.0
C437 C 0.13165 0.82054 0.14588 0.0
C438 C 0.11496 0.79972 0.13791 0.0
C439 C 0.11645 0.78118 0.14024 0.0
C440 C 0.13439 0.78371 0.15167 0.0
C441 C 0.15107 0.80449 0.1595 0.0
C442 C 0.17324 0.84992 0.12254 0.0
C443 C 0.16602 0.86073 0.11014 0.0
C444 C 0.1588 0.85334 0.08843 0.0
C445 C 0.15871 0.83499 0.07875 0.0
C446 C 0.1661 0.82428 0.09125 0.0
C447 C 0.17336 0.83174 0.11294 0.0
C448 C 0.21392 0.88932 0.13397 0.0
C449 C 0.21726 0.90961 0.1291 0.0
C450 C 0.23239 0.92177 0.11489 0.0
C451 C 0.24456 0.91391 0.10555 0.0
C452 C 0.2405 0.89314 0.10993 0.0
C453 C 0.22524 0.88093 0.12394 0.0
C454 C 0.22783 0.90612 0.17879 0.0
C455 C 0.22772 0.9243 0.1884 0.0
C456 C 0.24676 0.94408 0.19408 0.0
C457 C 0.26626 0.94602 0.19023 0.0
C458 C 0.26627 0.92771 0.18062 0.0
C459 C 0.24722 0.90792 0.17501 0.0
C460 C 0.20503 0.87904 0.21216 0.0
C461 C 0.19623 0.8867 0.22733 0.0
C462 C 0.20603 0.8947 0.24821 0.0
C463 C 0.22478 0.89517 0.25417 0.0
C464 C 0.23309 0.88674 0.23908 0.0
C465 C 0.22326 0.87871 0.21826 0.0
C466 C 0.16446 0.83839 0.20121 0.0
C467 C 0.14389 0.83366 0.20449 0.0
C468 C 0.13156 0.81814 0.21847 0.0
C469 C 0.13965 0.80714 0.22942 0.0
C470 C 0.16063 0.81273 0.22681 0.0
C471 C 0.17286 0.82809 0.21275 0.0
C472 C 0.15095 0.82713 0.0557 0.0
C473 C 0.28654 0.96699 0.19625 0.0
H474 H 0.30667 0.17004 0.04505 0.0
H475 H 0.36315 0.05599 0.87021 0.0
H476 H 0.28504 0.16669 0.92864 0.0
H477 H 0.28198 0.19825 0.9404 0.0
H478 H 0.34492 0.24185 0.92113 0.0
H479 H 0.34778 0.21037 0.90952 0.0
H480 H 0.29389 0.13223 0.95552 0.0
H481 H 0.29388 0.14228 0.99391 0.0
H482 H 0.3518 0.20435 0.98983 0.0
H483 H 0.35173 0.19399 0.95151 0.0
H484 H 0.3042 0.0973 0.93132 0.0
H485 H 0.31811 0.0789 0.95196 0.0
H486 H 0.37689 0.14052 0.96768 0.0
H487 H 0.36305 0.15881 0.94655 0.0
H488 H 0.29636 0.09162 0.88141 0.0
H489 H 0.30267 0.06231 0.86989 0.0
H490 H 0.36933 0.10548 0.88962 0.0
H491 H 0.36283 0.13473 0.90074 0.0
H492 H 0.28637 0.11887 0.85564 0.0
H493 H 0.28463 0.10112 0.82006 0.0
H494 H 0.35311 0.13643 0.82318 0.0
H495 H 0.35454 0.15332 0.85919 0.0
H496 H 0.28542 0.16619 0.87598 0.0
H497 H 0.2874 0.19457 0.85414 0.0
H498 H 0.35298 0.21722 0.84538 0.0
H499 H 0.35096 0.18911 0.86704 0.0
O500 O 0.30704 0.16635 0.02987 0.0
O501 O 0.3368 0.19804 0.02691 0.0
O502 O 0.3259 0.04594 0.86419 0.0
O503 O 0.36022 0.06732 0.87453 0.0
C504 C 0.31878 0.16746 0.91155 0.0
C505 C 0.32245 0.15628 0.9274 0.0
C506 C 0.32619 0.1394 0.921 0.0
C507 C 0.32523 0.13303 0.89879 0.0
C508 C 0.32133 0.14407 0.88302 0.0
C509 C 0.31854 0.16158 0.88933 0.0
C510 C 0.3166 0.18634 0.91822 0.0
C511 C 0.29806 0.18309 0.92688 0.0
C512 C 0.29634 0.20107 0.93352 0.0
C513 C 0.31314 0.22249 0.9315 0.0
C514 C 0.33153 0.22555 0.92246 0.0
C515 C 0.33327 0.20763 0.91598 0.0
C516 C 0.32272 0.16244 0.95073 0.0
C517 C 0.30658 0.14797 0.96298 0.0
C518 C 0.3066 0.15377 0.98489 0.0
C519 C 0.32281 0.17415 0.99493 0.0
C520 C 0.33905 0.18856 0.98259 0.0
C521 C 0.33902 0.18271 0.96069 0.0
C522 C 0.33267 0.12933 0.9373 0.0
C523 C 0.3199 0.1069 0.93959 0.0
C524 C 0.32789 0.09644 0.95126 0.0
C525 C 0.34866 0.10831 0.96112 0.0
C526 C 0.36084 0.13106 0.96023 0.0
C527 C 0.35293 0.1415 0.94827 0.0
C528 C 0.32913 0.11525 0.8919 0.0
C529 C 0.31231 0.09471 0.88314 0.0
C530 C 0.31597 0.07801 0.87662 0.0
C531 C 0.33652 0.08155 0.87886 0.0
C532 C 0.35332 0.10219 0.88768 0.0
C533 C 0.34966 0.11891 0.89409 0.0
C534 C 0.32055 0.13727 0.85989 0.0
C535 C 0.30095 0.12312 0.84835 0.0
C536 C 0.30003 0.11303 0.82803 0.0
C537 C 0.31875 0.11714 0.81887 0.0
C538 C 0.3384 0.13253 0.82997 0.0
C539 C 0.33929 0.14241 0.85038 0.0
C540 C 0.31804 0.17555 0.873 0.0
C541 C 0.30003 0.17696 0.86886 0.0
C542 C 0.30117 0.19312 0.85647 0.0
C543 C 0.3204 0.20816 0.84836 0.0
C544 C 0.33803 0.20594 0.85165 0.0
C545 C 0.33684 0.18976 0.86381 0.0
C546 C 0.32272 0.18031 0.01818 0.0
C547 C 0.34047 0.06382 0.87206 0.0
H548 H 0.84464 0.17474 0.04719 0.0
H549 H 0.6928 0.01388 0.86619 0.0
H550 H 0.83664 0.19225 0.93574 0.0
H551 H 0.86784 0.2271 0.94882 0.0
H552 H 0.90727 0.20774 0.9164 0.0
H553 H 0.87571 0.17181 0.90489 0.0
H554 H 0.80684 0.16121 0.95917 0.0
H555 H 0.81858 0.16885 0.99766 0.0
H556 H 0.86267 0.14767 0.98538 0.0
H557 H 0.85057 0.1398 0.94694 0.0
H558 H 0.76976 0.13548 0.92932 0.0
H559 H 0.74255 0.11802 0.95484 0.0
H560 H 0.76727 0.07718 0.97018 0.0
H561 H 0.79479 0.09507 0.9448 0.0
H562 H 0.76074 0.12203 0.87891 0.0
H563 H 0.72557 0.09069 0.8666 0.0
H564 H 0.74488 0.04676 0.88726 0.0
H565 H 0.78005 0.07825 0.89928 0.0
H566 H 0.79728 0.15609 0.85602 0.0
H567 H 0.78369 0.14582 0.81795 0.0
H568 H 0.78931 0.08878 0.81827 0.0
H569 H 0.80338 0.09951 0.85615 0.0
H570 H 0.83647 0.19368 0.8846 0.0
H571 H 0.8571 0.21793 0.85775 0.0
H572 H 0.86976 0.16907 0.83084 0.0
H573 H 0.84963 0.14513 0.85849 0.0
O574 O 0.84014 0.17149 0.03191 0.0
O575 O 0.8626 0.16051 0.02472 0.0
O576 O 0.69747 0.04984 0.86047 0.0
O577 O 0.70659 0.02655 0.87085 0.0
C578 C 0.83436 0.15823 0.91179 0.0
C579 C 0.82061 0.14494 0.92688 0.0
C580 C 0.80024 0.12718 0.91962 0.0
C581 C 0.79429 0.12138 0.89728 0.0
C582 C 0.80833 0.13408 0.88214 0.0
C583 C 0.8282 0.1528 0.88938 0.0
C584 C 0.85389 0.17932 0.91967 0.0
C585 C 0.85205 0.19532 0.93183 0.0
C586 C 0.86994 0.21548 0.93891 0.0
C587 C 0.89017 0.22048 0.93343 0.0
C588 C 0.89201 0.20442 0.92111 0.0
C589 C 0.874 0.18394 0.9144 0.0
C590 C 0.82764 0.14965 0.95031 0.0
C591 C 0.81884 0.15796 0.96486 0.0
C592 C 0.82567 0.16245 0.98682 0.0
C593 C 0.84153 0.15881 0.99462 0.0
C594 C 0.8504 0.15061 0.97993 0.0
C595 C 0.84352 0.1461 0.95798 0.0
C596 C 0.78413 0.11645 0.93527 0.0
C597 C 0.76934 0.12284 0.93831 0.0
C598 C 0.75396 0.11301 0.95293 0.0
C599 C 0.75293 0.09637 0.96447 0.0
C600 C 0.76778 0.08998 0.96141 0.0
C601 C 0.78342 0.10011 0.947 0.0
C602 C 0.77294 0.10237 0.88984 0.0
C603 C 0.75736 0.10561 0.88063 0.0
C604 C 0.73728 0.0877 0.87368 0.0
C605 C 0.73242 0.06621 0.87592 0.0
C606 C 0.74809 0.06307 0.88527 0.0
C607 C 0.76818 0.08101 0.89217 0.0
C608 C 0.80142 0.1286 0.85874 0.0
C609 C 0.79588 0.14158 0.84772 0.0
C610 C 0.78796 0.13559 0.82608 0.0
C611 C 0.78541 0.11649 0.81512 0.0
C612 C 0.79136 0.10375 0.82616 0.0
C613 C 0.79928 0.10976 0.84781 0.0
C614 C 0.84163 0.16771 0.87355 0.0
C615 C 0.84395 0.18834 0.87312 0.0
C616 C 0.85557 0.20207 0.85762 0.0
C617 C 0.8649 0.19533 0.84203 0.0
C618 C 0.8629 0.17478 0.84273 0.0
C619 C 0.85133 0.16106 0.85839 0.0
C620 C 0.84878 0.16363 0.01796 0.0
C621 C 0.71109 0.04711 0.86859 0.0
H622 H 0.84783 0.65741 0.05138 0.0
H623 H 0.69177 0.63001 0.86956 0.0
H624 H 0.87099 0.681 0.94089 0.0
H625 H 0.89759 0.67685 0.96062 0.0
H626 H 0.86926 0.61092 0.92981 0.0
H627 H 0.84248 0.6152 0.91031 0.0
H628 H 0.83224 0.67732 0.96548 0.0
H629 H 0.83983 0.67502 0.0035 0.0
H630 H 0.82678 0.60937 0.98731 0.0
H631 H 0.81897 0.6118 0.9494 0.0
H632 H 0.79255 0.67487 0.94259 0.0
H633 H 0.76521 0.66765 0.96751 0.0
H634 H 0.7486 0.60017 0.96585 0.0
H635 H 0.7763 0.60775 0.94131 0.0
H636 H 0.7966 0.68287 0.89121 0.0
H637 H 0.76497 0.68329 0.87935 0.0
H638 H 0.72624 0.61414 0.88702 0.0
H639 H 0.75804 0.61393 0.89862 0.0
H640 H 0.8293 0.68509 0.86298 0.0
H641 H 0.81758 0.68448 0.82524 0.0
H642 H 0.77343 0.61473 0.82361 0.0
H643 H 0.78526 0.61552 0.86091 0.0
H644 H 0.87108 0.68691 0.89166 0.0
H645 H 0.8957 0.69263 0.86388 0.0
H646 H 0.85211 0.62705 0.83401 0.0
H647 H 0.82798 0.62132 0.86223 0.0
O648 O 0.84457 0.65788 0.0363 0.0
O649 O 0.83774 0.62421 0.02713 0.0
O650 O 0.72519 0.66578 0.87027 0.0
O651 O 0.70453 0.63029 0.87412 0.0
C652 C 0.83601 0.64906 0.9166 0.0
C653 C 0.82113 0.64655 0.9316 0.0
C654 C 0.80252 0.64598 0.92472 0.0
C655 C 0.79887 0.64832 0.90293 0.0
C656 C 0.81354 0.65052 0.88783 0.0
C657 C 0.83221 0.65099 0.89468 0.0
C658 C 0.8549 0.64845 0.92411 0.0
C659 C 0.87094 0.66592 0.93791 0.0
C660 C 0.88607 0.66346 0.94922 0.0
C661 C 0.8854 0.64345 0.94693 0.0
C662 C 0.87 0.6264 0.93213 0.0
C663 C 0.85491 0.62892 0.92074 0.0
C664 C 0.82516 0.64477 0.95472 0.0
C665 C 0.83094 0.66242 0.97022 0.0
C666 C 0.83531 0.66108 0.9919 0.0
C667 C 0.83397 0.64203 0.99844 0.0
C668 C 0.828 0.62429 0.98283 0.0
C669 C 0.82357 0.62564 0.96116 0.0
C670 C 0.78632 0.64182 0.94018 0.0
C671 C 0.78301 0.65858 0.94769 0.0
C672 C 0.76733 0.65436 0.96181 0.0
C673 C 0.75463 0.63327 0.96856 0.0
C674 C 0.75824 0.61662 0.96116 0.0
C675 C 0.77396 0.62088 0.94709 0.0
C676 C 0.77957 0.64839 0.89582 0.0
C677 C 0.78126 0.66783 0.89026 0.0
C678 C 0.76318 0.66802 0.88353 0.0
C679 C 0.74306 0.64874 0.88227 0.0
C680 C 0.74147 0.62928 0.88784 0.0
C681 C 0.75958 0.62911 0.89452 0.0
C682 C 0.80817 0.65032 0.86457 0.0
C683 C 0.81731 0.66969 0.85427 0.0
C684 C 0.81052 0.66933 0.83284 0.0
C685 C 0.79466 0.64954 0.82141 0.0
C686 C 0.78592 0.63018 0.83179 0.0
C687 C 0.79258 0.63058 0.85313 0.0
C688 C 0.84775 0.65374 0.87888 0.0
C689 C 0.86703 0.67371 0.87926 0.0
C690 C 0.88096 0.677 0.86328 0.0
C691 C 0.87581 0.66034 0.84664 0.0
C692 C 0.85667 0.64013 0.8467 0.0
C693 C 0.8428 0.63686 0.86271 0.0
C694 C 0.83884 0.64075 0.02145 0.0
C695 C 0.72379 0.64887 0.87518 0.0
H696 H 0.8234 0.69584 0.35406 0.0
H697 H 0.95145 0.6557 0.53648 0.0
H698 H 0.82287 0.70728 0.48237 0.0
H699 H 0.79331 0.70854 0.4649 0.0
H700 H 0.76095 0.63891 0.44639 0.0
H701 H 0.7907 0.63789 0.46353 0.0
H702 H 0.84582 0.7081 0.44713 0.0
H703 H 0.83788 0.7093 0.40892 0.0
H704 H 0.82068 0.64185 0.3959 0.0
H705 H 0.82853 0.64085 0.43425 0.0
H706 H 0.88485 0.70762 0.44966 0.0
H707 H 0.90961 0.70978 0.4235 0.0
H708 H 0.89642 0.64571 0.43731 0.0
H709 H 0.8705 0.64308 0.46197 0.0
H710 H 0.90554 0.70742 0.49851 0.0
H711 H 0.93764 0.70813 0.51095 0.0
H712 H 0.89956 0.63978 0.52206 0.0
H713 H 0.86766 0.63928 0.50944 0.0
H714 H 0.87719 0.70845 0.53703 0.0
H715 H 0.8905 0.71108 0.57424 0.0
H716 H 0.85123 0.64076 0.574 0.0
H717 H 0.83783 0.63833 0.53648 0.0
H718 H 0.8364 0.70269 0.53469 0.0
H719 H 0.81222 0.69867 0.56236 0.0
H720 H 0.76866 0.63184 0.53563 0.0
H721 H 0.79344 0.6358 0.50865 0.0
O722 O 0.82641 0.69499 0.36911 0.0
O723 O 0.81756 0.66023 0.36328 0.0
O724 O 0.95791 0.69108 0.52572 0.0
O725 O 0.93904 0.6559 0.53147 0.0
C726 C 0.8279 0.67237 0.48183 0.0
C727 C 0.84223 0.67364 0.46667 0.0
C728 C 0.86069 0.67383 0.47356 0.0
C729 C 0.86486 0.67292 0.49568 0.0
C730 C 0.85068 0.67197 0.51087 0.0
C731 C 0.83204 0.67143 0.50393 0.0
C732 C 0.80878 0.67247 0.47428 0.0
C733 C 0.80921 0.69227 0.47486 0.0
C734 C 0.79246 0.69299 0.46476 0.0
C735 C 0.77493 0.67383 0.45427 0.0
C736 C 0.77421 0.65388 0.45451 0.0
C737 C 0.79111 0.65324 0.4643 0.0
C738 C 0.83764 0.67437 0.44342 0.0
C739 C 0.84023 0.69358 0.43601 0.0
C740 C 0.83574 0.69423 0.41417 0.0
C741 C 0.82862 0.67566 0.39935 0.0
C742 C 0.82612 0.65643 0.40688 0.0
C743 C 0.83061 0.65582 0.42874 0.0
C744 C 0.87579 0.67515 0.45766 0.0
C745 C 0.88711 0.69393 0.44673 0.0
C746 C 0.90149 0.69524 0.43199 0.0
C747 C 0.90514 0.67794 0.42819 0.0
C748 C 0.8938 0.6592 0.43937 0.0
C749 C 0.87913 0.65774 0.45373 0.0
C750 C 0.88433 0.67333 0.50313 0.0
C751 C 0.90421 0.69263 0.5036 0.0
C752 C 0.92249 0.69298 0.51074 0.0
C753 C 0.92116 0.674 0.51753 0.0
C754 C 0.90116 0.65468 0.51698 0.0
C755 C 0.88291 0.65436 0.50983 0.0
C756 C 0.85646 0.67325 0.5342 0.0
C757 C 0.87116 0.69366 0.54516 0.0
C758 C 0.8787 0.69511 0.5664 0.0
C759 C 0.87185 0.67612 0.57706 0.0
C760 C 0.85682 0.65564 0.56614 0.0
C761 C 0.84906 0.65424 0.54486 0.0
C762 C 0.81673 0.66949 0.51978 0.0
C763 C 0.82163 0.6872 0.53486 0.0
C764 C 0.80768 0.68491 0.55053 0.0
C765 C 0.78847 0.66489 0.55131 0.0
C766 C 0.78344 0.64736 0.53576 0.0
C767 C 0.79748 0.64964 0.5202 0.0
C768 C 0.82384 0.6764 0.37616 0.0
C769 C 0.94052 0.67427 0.52514 0.0
H770 H 0.34868 0.125 0.38435 0.0
H771 H 0.35721 0.3138 0.5422 0.0
H772 H 0.33227 0.13361 0.52042 0.0
H773 H 0.33033 0.09894 0.51329 0.0
H774 H 0.39093 0.13223 0.48572 0.0
H775 H 0.39379 0.16742 0.4953 0.0
H776 H 0.33211 0.14536 0.47144 0.0
H777 H 0.33333 0.13115 0.435 0.0
H778 H 0.39397 0.18998 0.42976 0.0
H779 H 0.39265 0.20388 0.46635 0.0
H780 H 0.32495 0.18295 0.46725 0.0
H781 H 0.31613 0.20069 0.44004 0.0
H782 H 0.37533 0.26134 0.45887 0.0
H783 H 0.38443 0.24309 0.48498 0.0
H784 H 0.32141 0.20922 0.5087 0.0
H785 H 0.31515 0.23948 0.51408 0.0
H786 H 0.38006 0.28219 0.54037 0.0
H787 H 0.38615 0.25185 0.53464 0.0
H788 H 0.32264 0.19002 0.55238 0.0
H789 H 0.31783 0.20605 0.58602 0.0
H790 H 0.38577 0.24365 0.60076 0.0
H791 H 0.39022 0.22676 0.56748 0.0
H792 H 0.32949 0.15625 0.556 0.0
H793 H 0.32775 0.13166 0.58191 0.0
H794 H 0.39468 0.15668 0.5782 0.0
H795 H 0.3958 0.18045 0.55108 0.0
O796 O 0.34852 0.13094 0.39873 0.0
O797 O 0.37959 0.16156 0.3968 0.0
O798 O 0.32609 0.27899 0.52602 0.0
O799 O 0.35926 0.30157 0.53983 0.0
C800 C 0.36333 0.17384 0.51191 0.0
C801 C 0.36176 0.18407 0.49382 0.0
C802 C 0.35897 0.20208 0.49688 0.0
C803 C 0.35798 0.20998 0.51796 0.0
C804 C 0.35961 0.19981 0.53596 0.0
C805 C 0.36248 0.1819 0.53303 0.0
C806 C 0.36325 0.1531 0.50858 0.0
C807 C 0.34554 0.13357 0.51365 0.0
C808 C 0.34431 0.11369 0.50921 0.0
C809 C 0.36027 0.11269 0.49852 0.0
C810 C 0.37843 0.13238 0.49413 0.0
C811 C 0.37998 0.15248 0.49931 0.0
C812 C 0.36236 0.17557 0.47158 0.0
C813 C 0.34568 0.1551 0.46243 0.0
C814 C 0.3464 0.14705 0.44159 0.0
C815 C 0.36377 0.15941 0.42948 0.0
C816 C 0.38038 0.18002 0.43866 0.0
C817 C 0.37966 0.18802 0.45953 0.0
C818 C 0.35534 0.21175 0.47806 0.0
C819 C 0.33627 0.19989 0.46496 0.0
C820 C 0.33113 0.21015 0.44965 0.0
C821 C 0.34488 0.23253 0.44737 0.0
C822 C 0.36444 0.24403 0.45989 0.0
C823 C 0.36967 0.23368 0.47495 0.0
C824 C 0.35424 0.2284 0.52123 0.0
C825 C 0.33426 0.22516 0.51553 0.0
C826 C 0.33073 0.24245 0.51867 0.0
C827 C 0.34712 0.26326 0.52766 0.0
C828 C 0.3671 0.26638 0.53341 0.0
C829 C 0.37062 0.24909 0.53019 0.0
C830 C 0.35675 0.2072 0.55766 0.0
C831 C 0.3364 0.20135 0.56318 0.0
C832 C 0.33373 0.21072 0.58225 0.0
C833 C 0.35142 0.2263 0.59601 0.0
C834 C 0.37177 0.2315 0.59072 0.0
C835 C 0.3744 0.22193 0.57172 0.0
C836 C 0.36279 0.17025 0.55178 0.0
C837 C 0.34389 0.15683 0.5612 0.0
C838 C 0.34298 0.14273 0.57609 0.0
C839 C 0.36111 0.14207 0.58232 0.0
C840 C 0.38032 0.1564 0.57357 0.0
C841 C 0.38109 0.17024 0.5583 0.0
C842 C 0.36451 0.15079 0.40736 0.0
C843 C 0.34344 0.28168 0.53108 0.0
H844 H 0.80012 0.16739 0.34925 0.0
H845 H 0.98164 0.29155 0.53909 0.0
H846 H 0.78777 0.17733 0.48315 0.0
H847 H 0.75314 0.14409 0.47249 0.0
H848 H 0.78481 0.11021 0.45206 0.0
H849 H 0.81893 0.14291 0.46361 0.0
H850 H 0.8172 0.20109 0.44059 0.0
H851 H 0.80658 0.18991 0.40197 0.0
H852 H 0.84243 0.15776 0.4006 0.0
H853 H 0.8527 0.16882 0.43925 0.0
H854 H 0.875 0.24432 0.45012 0.0
H855 H 0.90573 0.26118 0.42831 0.0
H856 H 0.91897 0.21089 0.4415 0.0
H857 H 0.88859 0.19447 0.46363 0.0
H858 H 0.8859 0.26039 0.49383 0.0
H859 H 0.92213 0.28962 0.50615 0.0
H860 H 0.93541 0.24125 0.52686 0.0
H861 H 0.89919 0.2122 0.5143 0.0
H862 H 0.85761 0.24274 0.53255 0.0
H863 H 0.87104 0.25653 0.57028 0.0
H864 H 0.87558 0.19968 0.57849 0.0
H865 H 0.86239 0.18618 0.54055 0.0
H866 H 0.80942 0.20008 0.5291 0.0
H867 H 0.78448 0.17803 0.55515 0.0
H868 H 0.79801 0.12696 0.54014 0.0
H869 H 0.82234 0.1488 0.51405 0.0
O870 O 0.80455 0.17168 0.36449 0.0
O871 O 0.8233 0.15551 0.36463 0.0
O872 O 0.95962 0.30455 0.52313 0.0
O873 O 0.96724 0.28033 0.53408 0.0
C874 C 0.8268 0.18206 0.48125 0.0
C875 C 0.84194 0.19258 0.46611 0.0
C876 C 0.86275 0.20935 0.47342 0.0
C877 C 0.86808 0.21659 0.49561 0.0
C878 C 0.85286 0.20637 0.51067 0.0
C879 C 0.83237 0.18878 0.50358 0.0
C880 C 0.80582 0.16253 0.47394 0.0
C881 C 0.7871 0.16265 0.47639 0.0
C882 C 0.7674 0.14372 0.47027 0.0
C883 C 0.76621 0.12444 0.46164 0.0
C884 C 0.78509 0.12459 0.4591 0.0
C885 C 0.80465 0.14337 0.46535 0.0
C886 C 0.83593 0.18601 0.44262 0.0
C887 C 0.82279 0.19169 0.43188 0.0
C888 C 0.81674 0.18528 0.40983 0.0
C889 C 0.82372 0.17301 0.39817 0.0
C890 C 0.83686 0.16728 0.40906 0.0
C891 C 0.84286 0.1737 0.43111 0.0
C892 C 0.8796 0.21816 0.45825 0.0
C893 C 0.8844 0.23683 0.44802 0.0
C894 C 0.90192 0.24644 0.43572 0.0
C895 C 0.91461 0.23726 0.43329 0.0
C896 C 0.90929 0.21811 0.44298 0.0
C897 C 0.89202 0.20876 0.45557 0.0
C898 C 0.89 0.23425 0.50321 0.0
C899 C 0.8967 0.25618 0.501 0.0
C900 C 0.91737 0.27282 0.50807 0.0
C901 C 0.93168 0.26777 0.5175 0.0
C902 C 0.92482 0.24571 0.51968 0.0
C903 C 0.90416 0.2291 0.51256 0.0
C904 C 0.85896 0.21347 0.53397 0.0
C905 C 0.86126 0.23317 0.54261 0.0
C906 C 0.86886 0.24096 0.56413 0.0
C907 C 0.87436 0.22916 0.5773 0.0
C908 C 0.87164 0.20918 0.56865 0.0
C909 C 0.86396 0.20137 0.54712 0.0
C910 C 0.81749 0.1759 0.51961 0.0
C911 C 0.80687 0.18409 0.53148 0.0
C912 C 0.79271 0.17151 0.54635 0.0
C913 C 0.78903 0.1506 0.54953 0.0
C914 C 0.80001 0.14272 0.53772 0.0
C915 C 0.81405 0.15522 0.52291 0.0
C916 C 0.81723 0.16617 0.37476 0.0
C917 C 0.95365 0.28538 0.52504 0.0
H918 H 0.00199 0.52859 0.36546 0.0
H919 H 0.00658 0.37064 0.17494 0.0
H920 H 0.97517 0.52 0.2271 0.0
H921 H 0.98059 0.55629 0.23628 0.0
H922 H 0.04281 0.57796 0.26632 0.0
H923 H 0.03796 0.54246 0.25521 0.0
H924 H 0.97698 0.49688 0.27392 0.0
H925 H 0.98155 0.50924 0.31243 0.0
H926 H 0.04497 0.52061 0.31561 0.0
H927 H 0.04028 0.50845 0.27704 0.0
H928 H 0.9803 0.45058 0.27364 0.0
H929 H 0.98694 0.42788 0.29654 0.0
H930 H 0.04623 0.44899 0.26803 0.0
H931 H 0.03969 0.47201 0.24571 0.0
H932 H 0.96871 0.4259 0.2273 0.0
H933 H 0.96539 0.39096 0.21534 0.0
H934 H 0.02444 0.42574 0.18522 0.0
H935 H 0.02773 0.46054 0.19758 0.0
H936 H 0.9614 0.44526 0.18461 0.0
H937 H 0.95682 0.42686 0.14854 0.0
H938 H 0.02102 0.47602 0.13732 0.0
H939 H 0.02558 0.49404 0.17367 0.0
H940 H 0.96897 0.49444 0.1821 0.0
H941 H 0.97257 0.51864 0.15415 0.0
H942 H 0.03838 0.56231 0.17678 0.0
H943 H 0.03484 0.53787 0.20392 0.0
O944 O 1.00053 0.52376 0.35025 0.0
O945 O 0.033 0.52926 0.35104 0.0
O946 O 0.97747 0.36712 0.19608 0.0
O947 O 0.00758 0.38422 0.18002 0.0
C948 C 0.00343 0.50692 0.23376 0.0
C949 C 0.00536 0.49431 0.24928 0.0
C950 C 0.0046 0.47473 0.24239 0.0
C951 C 1.00017 0.46685 0.22028 0.0
C952 C 0.99779 0.47919 0.20486 0.0
C953 C 1.00021 0.49961 0.21146 0.0
C954 C 0.00609 0.5285 0.24065 0.0
C955 C 0.99002 0.5327 0.23554 0.0
C956 C 0.9931 0.55343 0.24095 0.0
C957 C 0.01219 0.57023 0.25201 0.0
C958 C 0.0281 0.56573 0.25735 0.0
C959 C 0.0252 0.54523 0.25144 0.0
C960 C 0.00824 0.50164 0.27272 0.0
C961 C 0.99185 0.50205 0.28297 0.0
C962 C 0.9945 0.5091 0.30497 0.0
C963 C 0.01361 0.51588 0.31712 0.0
C964 C 0.03003 0.51545 0.30675 0.0
C965 C 0.02736 0.50843 0.28475 0.0
C966 C 0.00946 0.46281 0.25797 0.0
C967 C 0.99487 0.45057 0.27267 0.0
C968 C 0.99865 0.43753 0.2856 0.0
C969 C 0.01706 0.43651 0.28398 0.0
C970 C 0.03203 0.44956 0.26985 0.0
C971 C 0.02825 0.4626 0.25698 0.0
C972 C 0.99839 0.44571 0.2132 0.0
C973 C 0.98094 0.42591 0.21819 0.0
C974 C 0.97907 0.406 0.2113 0.0
C975 C 0.99463 0.40556 0.19926 0.0
C976 C 0.01216 0.42548 0.19441 0.0
C977 C 0.01405 0.44538 0.20139 0.0
C978 C 0.99382 0.4709 0.1817 0.0
C979 C 0.97427 0.45232 0.17413 0.0
C980 C 0.97169 0.44189 0.15353 0.0
C981 C 0.98864 0.44991 0.1402 0.0
C982 C 0.00779 0.46933 0.14737 0.0
C983 C 0.01036 0.47976 0.16799 0.0
C984 C 0.00168 0.51437 0.19499 0.0
C985 C 0.98413 0.50924 0.18094 0.0
C986 C 0.98616 0.52314 0.16513 0.0
C987 C 0.0058 0.54229 0.16314 0.0
C988 C 0.02313 0.5475 0.17762 0.0
C989 C 0.02112 0.53365 0.19325 0.0
C990 C 0.01638 0.52338 0.34048 0.0
C991 C 0.99263 0.38444 0.19174 0.0
H992 H 0.50887 0.50226 0.37637 0.0
H993 H 0.36572 0.33585 0.18875 0.0
H994 H 0.51002 0.51832 0.25034 0.0
H995 H 0.54147 0.55252 0.26547 0.0
H996 H 0.5756 0.51891 0.27132 0.0
H997 H 0.54401 0.48473 0.2553 0.0
H998 H 0.47911 0.4872 0.28493 0.0
H999 H 0.48822 0.49656 0.32395 0.0
H1000 H 0.52393 0.46426 0.32177 0.0
H1001 H 0.51461 0.45496 0.28276 0.0
H1002 H 0.43848 0.45264 0.25915 0.0
H1003 H 0.40945 0.43067 0.28139 0.0
H1004 H 0.43757 0.39245 0.29506 0.0
H1005 H 0.46653 0.4145 0.27256 0.0
H1006 H 0.43194 0.44378 0.2098 0.0
H1007 H 0.39724 0.4128 0.1956 0.0
H1008 H 0.41732 0.36811 0.21135 0.0
H1009 H 0.45205 0.39929 0.22526 0.0
H1010 H 0.46644 0.47711 0.18811 0.0
H1011 H 0.45058 0.46614 0.15094 0.0
H1012 H 0.46122 0.41219 0.14802 0.0
H1013 H 0.47808 0.42408 0.18483 0.0
H1014 H 0.49874 0.5083 0.20626 0.0
H1015 H 0.52482 0.53717 0.18614 0.0
H1016 H 0.5612 0.50563 0.1841 0.0
H1017 H 0.53442 0.47625 0.20384 0.0
O1018 O 0.50538 0.49831 0.36096 0.0
O1019 O 0.5235 0.48147 0.35897 0.0
O1020 O 0.36982 0.37208 0.18633 0.0
O1021 O 0.37932 0.3484 0.19422 0.0
C1022 C 0.50534 0.4786 0.24314 0.0
C1023 C 0.49088 0.46503 0.25749 0.0
C1024 C 0.47086 0.4473 0.24933 0.0
C1025 C 0.46561 0.44257 0.22682 0.0
C1026 C 0.48013 0.45613 0.21244 0.0
C1027 C 0.49994 0.47428 0.22063 0.0
C1028 C 0.52482 0.49916 0.25187 0.0
C1029 C 0.52436 0.51841 0.25474 0.0
C1030 C 0.54229 0.53786 0.26348 0.0
C1031 C 0.56094 0.53834 0.26982 0.0
C1032 C 0.5615 0.51906 0.26646 0.0
C1033 C 0.5435 0.49955 0.25751 0.0
C1034 C 0.49617 0.47037 0.28114 0.0
C1035 C 0.48883 0.48211 0.29297 0.0
C1036 C 0.49409 0.48745 0.31522 0.0
C1037 C 0.50681 0.48115 0.32599 0.0
C1038 C 0.5141 0.46935 0.31399 0.0
C1039 C 0.50881 0.46401 0.29174 0.0
C1040 C 0.45447 0.43504 0.26427 0.0
C1041 C 0.43844 0.43966 0.26716 0.0
C1042 C 0.42197 0.42719 0.27992 0.0
C1043 C 0.42124 0.40983 0.2899 0.0
C1044 C 0.43766 0.40561 0.28737 0.0
C1045 C 0.45421 0.4182 0.27468 0.0
C1046 C 0.44451 0.42374 0.21838 0.0
C1047 C 0.42883 0.42729 0.21004 0.0
C1048 C 0.40902 0.40957 0.202 0.0
C1049 C 0.40452 0.38796 0.2023 0.0
C1050 C 0.42027 0.38452 0.21084 0.0
C1051 C 0.4401 0.40227 0.21881 0.0
C1052 C 0.47382 0.45167 0.18896 0.0
C1053 C 0.46612 0.46348 0.17912 0.0
C1054 C 0.45667 0.45691 0.15803 0.0
C1055 C 0.45448 0.43819 0.14653 0.0
C1056 C 0.46292 0.42686 0.15625 0.0
C1057 C 0.47255 0.43359 0.17728 0.0
C1058 C 0.51449 0.49 0.20608 0.0
C1059 C 0.51203 0.5073 0.20096 0.0
C1060 C 0.52716 0.52397 0.1898 0.0
C1061 C 0.54523 0.52383 0.18377 0.0
C1062 C 0.5474 0.50613 0.18843 0.0
C1063 C 0.53214 0.48935 0.19962 0.0
C1064 C 0.51244 0.48694 0.34962 0.0
C1065 C 0.38349 0.36907 0.19379 0.0
H1066 H 0.50751 0.98762 0.38255 0.0
H1067 H 0.35253 0.95364 0.19358 0.0
H1068 H 0.53219 0.01033 0.27215 0.0
H1069 H 0.55892 0.0063 0.29182 0.0
H1070 H 0.5306 0.9403 0.26123 0.0
H1071 H 0.50375 0.94448 0.24169 0.0
H1072 H 0.49264 0.00686 0.29605 0.0
H1073 H 0.49986 0.00483 0.33425 0.0
H1074 H 0.48807 0.93958 0.31872 0.0
H1075 H 0.4806 0.94172 0.28063 0.0
H1076 H 0.45179 0.00445 0.26781 0.0
H1077 H 0.42528 -0.00041 0.29273 0.0
H1078 H 0.41451 0.93573 0.30358 0.0
H1079 H 0.43987 0.94013 0.27725 0.0
H1080 H 0.45673 0.0113 0.22031 0.0
H1081 H 0.42468 0.00969 0.20617 0.0
H1082 H 0.38798 0.94066 0.21492 0.0
H1083 H 0.42023 0.94244 0.22877 0.0
H1084 H 0.49323 0.01716 0.19685 0.0
H1085 H 0.48025 0.02102 0.16151 0.0
H1086 H 0.43487 0.95134 0.15354 0.0
H1087 H 0.44768 0.94775 0.18881 0.0
H1088 H 0.53419 0.01566 0.22478 0.0
H1089 H 0.56016 0.02068 0.19879 0.0
H1090 H 0.51501 0.95727 0.16541 0.0
H1091 H 0.48951 0.95214 0.19189 0.0
O1092 O 0.50443 0.98801 0.3674 0.0
O1093 O 0.49831 0.95455 0.35854 0.0
O1094 O 0.38508 0.99022 0.19481 0.0
O1095 O 0.36544 0.95475 0.19919 0.0
C1096 C 0.49735 0.97845 0.2476 0.0
C1097 C 0.48229 0.97605 0.26237 0.0
C1098 C 0.46376 0.97559 0.25518 0.0
C1099 C 0.46043 0.97782 0.23324 0.0
C1100 C 0.47556 0.98044 0.21848 0.0
C1101 C 0.49407 0.98078 0.22565 0.0
C1102 C 0.51611 0.97774 0.25545 0.0
C1103 C 0.53214 0.99524 0.26924 0.0
C1104 C 0.54735 0.99287 0.28049 0.0
C1105 C 0.54675 0.9729 0.27821 0.0
C1106 C 0.5313 0.95577 0.26351 0.0
C1107 C 0.51615 0.95822 0.25213 0.0
C1108 C 0.4862 0.97449 0.28559 0.0
C1109 C 0.49154 0.99212 0.30097 0.0
C1110 C 0.4957 0.99093 0.32275 0.0
C1111 C 0.4946 0.97206 0.32953 0.0
C1112 C 0.4891 0.95436 0.31404 0.0
C1113 C 0.48488 0.95556 0.29228 0.0
C1114 C 0.44778 0.97266 0.27067 0.0
C1115 C 0.44352 0.98932 0.2754 0.0
C1116 C 0.42853 0.98659 0.28993 0.0
C1117 C 0.41778 0.96731 0.30043 0.0
C1118 C 0.4222 0.95068 0.29566 0.0
C1119 C 0.4369 0.95326 0.28079 0.0
C1120 C 0.44079 0.97698 0.2255 0.0
C1121 C 0.44175 0.99584 0.21912 0.0
C1122 C 0.42342 0.99488 0.21108 0.0
C1123 C 0.40375 0.97502 0.20938 0.0
C1124 C 0.40285 0.9562 0.216 0.0
C1125 C 0.42122 0.95718 0.22398 0.0
C1126 C 0.47131 0.98219 0.1954 0.0
C1127 C 0.48088 0.00269 0.18716 0.0
C1128 C 0.47341 0.00487 0.16703 0.0
C1129 C 0.45624 0.98655 0.15496 0.0
C1130 C 0.44778 0.96584 0.16268 0.0
C1131 C 0.45522 0.9637 0.1827 0.0
C1132 C 0.50996 0.98356 0.21019 0.0
C1133 C 0.53002 0.0028 0.21194 0.0
C1134 C 0.54476 0.00571 0.19698 0.0
C1135 C 0.53967 0.9894 0.17997 0.0
C1136 C 0.51958 0.97004 0.17845 0.0
C1137 C 0.5049 0.96714 0.19345 0.0
C1138 C 0.4992 0.97092 0.35266 0.0
C1139 C 0.38425 0.97388 0.20069 0.0
H1140 H 0.5195 0.05563 0.69382 0.0
H1141 H 0.6285 0.99462 0.86196 0.0
H1142 H 0.50404 0.05203 0.81 0.0
H1143 H 0.47451 0.05312 0.79266 0.0
H1144 H 0.43532 0.98262 0.79137 0.0
H1145 H 0.46478 0.98191 0.80941 0.0
H1146 H 0.54272 0.0566 0.78491 0.0
H1147 H 0.53786 0.06259 0.74741 0.0
H1148 H 0.48686 0.99495 0.7351 0.0
H1149 H 0.49206 0.98915 0.77259 0.0
H1150 H 0.57792 0.05421 0.80917 0.0
H1151 H 0.60505 0.05757 0.78537 0.0
H1152 H 0.56172 0.99178 0.75599 0.0
H1153 H 0.53478 0.98855 0.7799 0.0
H1154 H 0.57612 0.04722 0.85791 0.0
H1155 H 0.60732 0.04638 0.87061 0.0
H1156 H 0.58006 0.9814 0.83763 0.0
H1157 H 0.54888 0.9824 0.82523 0.0
H1158 H 0.54097 0.04439 0.88071 0.0
H1159 H 0.55113 0.0429 0.91789 0.0
H1160 H 0.52869 0.97403 0.90366 0.0
H1161 H 0.51998 0.97631 0.866 0.0
H1162 H 0.4965 0.04127 0.856 0.0
H1163 H 0.47202 0.03604 0.88368 0.0
H1164 H 0.45943 0.97044 0.8882 0.0
H1165 H 0.48264 0.97535 0.85945 0.0
O1166 O 0.52124 0.05287 0.70854 0.0
O1167 O 0.4951 0.01798 0.70307 0.0
O1168 O 0.62959 0.02875 0.87396 0.0
O1169 O 0.61633 0.99537 0.85721 0.0
C1170 C 0.50515 0.01609 0.81879 0.0
C1171 C 0.52053 0.01901 0.80428 0.0
C1172 C 0.53856 0.01857 0.81149 0.0
C1173 C 0.54132 0.01535 0.83319 0.0
C1174 C 0.52598 0.01241 0.84768 0.0
C1175 C 0.50769 0.01246 0.84045 0.0
C1176 C 0.48647 0.0169 0.81099 0.0
C1177 C 0.48891 0.0369 0.80631 0.0
C1178 C 0.4721 0.03744 0.79619 0.0
C1179 C 0.45257 0.01794 0.79039 0.0
C1180 C 0.45002 0.99799 0.79581 0.0
C1181 C 0.46682 0.9975 0.8061 0.0
C1182 C 0.51773 0.02247 0.78143 0.0
C1183 C 0.53058 0.04309 0.77404 0.0
C1184 C 0.52773 0.04647 0.75264 0.0
C1185 C 0.51194 0.02926 0.73825 0.0
C1186 C 0.49914 0.00856 0.74575 0.0
C1187 C 0.50205 0.00521 0.76714 0.0
C1188 C 0.55447 0.02113 0.79623 0.0
C1189 C 0.5743 0.04063 0.79746 0.0
C1190 C 0.58969 0.04254 0.78383 0.0
C1191 C 0.58549 0.0249 0.76891 0.0
C1192 C 0.56544 0.00554 0.76749 0.0
C1193 C 0.55003 0.00371 0.78101 0.0
C1194 C 0.56027 0.01485 0.84073 0.0
C1195 C 0.57691 0.03281 0.85353 0.0
C1196 C 0.59471 0.03229 0.86071 0.0
C1197 C 0.59618 0.0138 0.85514 0.0
C1198 C 0.57945 0.99587 0.84222 0.0
C1199 C 0.56164 0.9964 0.8351 0.0
C1200 C 0.52979 0.01049 0.87075 0.0
C1201 C 0.5381 0.02896 0.88574 0.0
C1202 C 0.54372 0.02796 0.90708 0.0
C1203 C 0.54075 0.00829 0.914 0.0
C1204 C 0.53162 0.98956 0.89895 0.0
C1205 C 0.52642 0.99073 0.87746 0.0
C1206 C 0.49141 0.00872 0.85576 0.0
C1207 C 0.48805 0.02562 0.86265 0.0
C1208 C 0.47427 0.02267 0.87872 0.0
C1209 C 0.46384 0.00287 0.88845 0.0
C1210 C 0.46687 0.9858 0.88098 0.0
C1211 C 0.48033 0.98864 0.86467 0.0
C1212 C 0.50886 0.03294 0.71556 0.0
C1213 C 0.61507 0.01318 0.86271 0.0
H1214 H 0.96373 0.44448 0.70018 0.0
H1215 H 0.01736 0.63855 0.8809 0.0
H1216 H 0.96373 0.44895 0.83563 0.0
H1217 H 0.95813 0.41298 0.82393 0.0
H1218 H 0.0195 0.44422 0.79802 0.0
H1219 H 0.02517 0.48027 0.81021 0.0
H1220 H 0.96067 0.46472 0.79218 0.0
H1221 H 0.95599 0.45101 0.75407 0.0
H1222 H 0.01877 0.50475 0.74471 0.0
H1223 H 0.02331 0.51815 0.78294 0.0
H1224 H 0.95836 0.5062 0.79617 0.0
H1225 H 0.94967 0.5279 0.77404 0.0
H1226 H 0.01479 0.58151 0.78377 0.0
H1227 H 0.02325 0.55976 0.80607 0.0
H1228 H 0.96486 0.53423 0.83863 0.0
H1229 H 0.96514 0.56781 0.84946 0.0
H1230 H 0.03184 0.60033 0.86995 0.0
H1231 H 0.03141 0.56675 0.85872 0.0
H1232 H 0.96678 0.51281 0.87787 0.0
H1233 H 0.96827 0.53111 0.91293 0.0
H1234 H 0.03449 0.55246 0.92388 0.0
H1235 H 0.03293 0.53461 0.88824 0.0
H1236 H 0.96977 0.4732 0.87909 0.0
H1237 H 0.96878 0.44678 0.90262 0.0
H1238 H 0.03056 0.46212 0.88464 0.0
H1239 H 0.03162 0.489 0.86141 0.0
O1240 O 0.96593 0.45017 0.71521 0.0
O1241 O 0.99827 0.47815 0.71123 0.0
O1242 O 0.98266 0.60779 0.86509 0.0
O1243 O 0.01685 0.62511 0.8763 0.0
C1244 C 0.99733 0.48868 0.82972 0.0
C1245 C 0.99527 0.50051 0.8135 0.0
C1246 C 0.9955 0.51996 0.81938 0.0
C1247 C 0.99793 0.52764 0.84142 0.0
C1248 C 0.99964 0.51558 0.8576 0.0
C1249 C 0.99973 0.49631 0.85179 0.0
C1250 C 0.99481 0.46711 0.82369 0.0
C1251 C 0.97609 0.448 0.82774 0.0
C1252 C 0.9729 0.42753 0.82101 0.0
C1253 C 0.98837 0.42588 0.81005 0.0
C1254 C 0.00745 0.44507 0.80666 0.0
C1255 C 0.01062 0.4656 0.8134 0.0
C1256 C 0.99238 0.49231 0.79033 0.0
C1257 C 0.97343 0.47342 0.78189 0.0
C1258 C 0.97078 0.46567 0.76011 0.0
C1259 C 0.98703 0.47676 0.74634 0.0
C1260 C 0.00596 0.4958 0.75487 0.0
C1261 C 0.00859 0.5035 0.77667 0.0
C1262 C 0.99141 0.53148 0.80275 0.0
C1263 C 0.97084 0.52242 0.79302 0.0
C1264 C 0.96591 0.53483 0.78042 0.0
C1265 C 0.98148 0.5565 0.77744 0.0
C1266 C 0.00238 0.56499 0.78613 0.0
C1267 C 0.00729 0.55257 0.7987 0.0
C1268 C 0.99815 0.54813 0.84774 0.0
C1269 C 0.97955 0.54869 0.84527 0.0
C1270 C 0.97974 0.56786 0.85155 0.0
C1271 C 0.99853 0.58678 0.86056 0.0
C1272 C 0.01712 0.58609 0.86305 0.0
C1273 C 0.01692 0.56693 0.85667 0.0
C1274 C 0.9998 0.52261 0.88053 0.0
C1275 C 0.98148 0.52105 0.88807 0.0
C1276 C 0.98235 0.53145 0.90815 0.0
C1277 C 0.00157 0.54346 0.92109 0.0
C1278 C 0.01956 0.54366 0.91409 0.0
C1279 C 0.01868 0.53331 0.89389 0.0
C1280 C 1.0008 0.48308 0.86862 0.0
C1281 C 0.98334 0.47131 0.88068 0.0
C1282 C 0.98269 0.45603 0.89387 0.0
C1283 C 0.99948 0.45217 0.89521 0.0
C1284 C 0.01744 0.4648 0.88398 0.0
C1285 C 0.01807 0.48011 0.87073 0.0
C1286 C 0.98416 0.46848 0.7232 0.0
C1287 C 0.99878 0.60714 0.86741 0.0
H1288 H 0.46353 0.51722 0.69276 0.0
H1289 H 0.64086 0.65488 0.87768 0.0
H1290 H 0.45056 0.51512 0.82844 0.0
H1291 H 0.41794 0.47981 0.81745 0.0
H1292 H 0.45546 0.45474 0.79121 0.0
H1293 H 0.48768 0.48938 0.80321 0.0
H1294 H 0.47928 0.54599 0.78534 0.0
H1295 H 0.46887 0.53651 0.74653 0.0
H1296 H 0.50827 0.50847 0.74165 0.0
H1297 H 0.51831 0.5178 0.78047 0.0
H1298 H 0.53744 0.5937 0.79675 0.0
H1299 H 0.56787 0.61259 0.77491 0.0
H1300 H 0.58264 0.56242 0.78324 0.0
H1301 H 0.55215 0.54365 0.80457 0.0
H1302 H 0.5365 0.60313 0.85282 0.0
H1303 H 0.56979 0.63651 0.86642 0.0
H1304 H 0.60298 0.602 0.85718 0.0
H1305 H 0.56957 0.56873 0.84384 0.0
H1306 H 0.50144 0.56833 0.88368 0.0
H1307 H 0.51368 0.58001 0.9219 0.0
H1308 H 0.55895 0.55948 0.91429 0.0
H1309 H 0.54528 0.54627 0.87676 0.0
H1310 H 0.46923 0.53064 0.87537 0.0
H1311 H 0.45089 0.5035 0.9012 0.0
H1312 H 0.47835 0.46686 0.87588 0.0
H1313 H 0.49745 0.49462 0.85134 0.0
O1314 O 0.46788 0.52087 0.70806 0.0
O1315 O 0.48846 0.50678 0.70641 0.0
O1316 O 0.60968 0.65893 0.87682 0.0
O1317 O 0.62749 0.64194 0.87234 0.0
C1318 C 0.49131 0.52563 0.8241 0.0
C1319 C 0.50569 0.53846 0.80922 0.0
C1320 C 0.52564 0.5567 0.81687 0.0
C1321 C 0.53039 0.56343 0.83921 0.0
C1322 C 0.51606 0.55063 0.85409 0.0
C1323 C 0.4969 0.53124 0.84656 0.0
C1324 C 0.47144 0.50489 0.81629 0.0
C1325 C 0.45162 0.50194 0.82026 0.0
C1326 C 0.43304 0.48183 0.81394 0.0
C1327 C 0.43409 0.46439 0.80361 0.0
C1328 C 0.45405 0.46763 0.79951 0.0
C1329 C 0.47251 0.48757 0.80598 0.0
C1330 C 0.49976 0.53286 0.78564 0.0
C1331 C 0.48568 0.53787 0.77582 0.0
C1332 C 0.47977 0.53242 0.75367 0.0
C1333 C 0.48781 0.52181 0.74096 0.0
C1334 C 0.50187 0.51674 0.75093 0.0
C1335 C 0.50775 0.52218 0.77308 0.0
C1336 C 0.54253 0.56724 0.80195 0.0
C1337 C 0.54709 0.58669 0.79348 0.0
C1338 C 0.56454 0.59749 0.78121 0.0
C1339 C 0.57767 0.58898 0.77735 0.0
C1340 C 0.57268 0.56922 0.78557 0.0
C1341 C 0.5553 0.55849 0.79778 0.0
C1342 C 0.55071 0.58364 0.84714 0.0
C1343 C 0.55101 0.60287 0.8537 0.0
C1344 C 0.57002 0.62188 0.86146 0.0
C1345 C 0.58907 0.62195 0.86282 0.0
C1346 C 0.58864 0.60256 0.85627 0.0
C1347 C 0.5696 0.58356 0.84855 0.0
C1348 C 0.52241 0.55637 0.87756 0.0
C1349 C 0.51363 0.5659 0.89051 0.0
C1350 C 0.52089 0.57284 0.91227 0.0
C1351 C 0.53745 0.57085 0.92131 0.0
C1352 C 0.54592 0.56094 0.90819 0.0
C1353 C 0.5383 0.55356 0.88662 0.0
C1354 C 0.4849 0.51473 0.86177 0.0
C1355 C 0.47142 0.51686 0.87568 0.0
C1356 C 0.46078 0.50121 0.89021 0.0
C1357 C 0.46333 0.48309 0.89082 0.0
C1358 C 0.47643 0.48085 0.87632 0.0
C1359 C 0.48722 0.49659 0.86212 0.0
C1360 C 0.48146 0.516 0.71744 0.0
C1361 C 0.60931 0.64209 0.87109 0.0
H1362 H 0.64066 0.83878 0.70141 0.0
H1363 H 0.6864 0.71809 0.5112 0.0
H1364 H 0.63485 0.85438 0.5668 0.0
H1365 H 0.64189 0.89131 0.57665 0.0
H1366 H 0.70351 0.91 0.60607 0.0
H1367 H 0.69712 0.87407 0.59427 0.0
H1368 H 0.62974 0.81614 0.60785 0.0
H1369 H 0.6279 0.82282 0.64659 0.0
H1370 H 0.69591 0.85356 0.65634 0.0
H1371 H 0.69754 0.847 0.61758 0.0
H1372 H 0.64029 0.76747 0.591 0.0
H1373 H 0.65182 0.74605 0.60953 0.0
H1374 H 0.71601 0.80202 0.61682 0.0
H1375 H 0.70448 0.82244 0.59651 0.0
H1376 H 0.62923 0.76062 0.5443 0.0
H1377 H 0.63085 0.72916 0.52915 0.0
H1378 H 0.69923 0.76958 0.5329 0.0
H1379 H 0.69732 0.80089 0.54793 0.0
H1380 H 0.62298 0.78616 0.51686 0.0
H1381 H 0.62003 0.77018 0.48001 0.0
H1382 H 0.68752 0.81321 0.47679 0.0
H1383 H 0.6903 0.82875 0.51396 0.0
H1384 H 0.6289 0.82946 0.5202 0.0
H1385 H 0.63266 0.85374 0.49233 0.0
H1386 H 0.69795 0.89816 0.51635 0.0
H1387 H 0.69431 0.87353 0.54334 0.0
O1388 O 0.64176 0.83629 0.68615 0.0
O1389 O 0.67676 0.85192 0.69031 0.0
O1390 O 0.65011 0.71014 0.51568 0.0
O1391 O 0.6853 0.73022 0.51726 0.0
C1392 C 0.6625 0.84007 0.57183 0.0
C1393 C 0.66438 0.82666 0.58636 0.0
C1394 C 0.66532 0.80835 0.57827 0.0
C1395 C 0.66209 0.80211 0.55584 0.0
C1396 C 0.65907 0.8148 0.54142 0.0
C1397 C 0.66008 0.83424 0.54926 0.0
C1398 C 0.66536 0.86141 0.58008 0.0
C1399 C 0.64983 0.86653 0.57541 0.0
C1400 C 0.65386 0.88762 0.58116 0.0
C1401 C 0.67338 0.90382 0.592 0.0
C1402 C 0.68852 0.89825 0.59725 0.0
C1403 C 0.6847 0.87745 0.59102 0.0
C1404 C 0.66373 0.83084 0.60993 0.0
C1405 C 0.64422 0.82427 0.6184 0.0
C1406 C 0.64321 0.82811 0.64053 0.0
C1407 C 0.66176 0.83865 0.65459 0.0
C1408 C 0.68132 0.8453 0.64599 0.0
C1409 C 0.68228 0.84144 0.62385 0.0
C1410 C 0.67145 0.79665 0.59283 0.0
C1411 C 0.65676 0.77514 0.59692 0.0
C1412 C 0.66344 0.76297 0.60763 0.0
C1413 C 0.68494 0.77225 0.61484 0.0
C1414 C 0.69943 0.79414 0.61129 0.0
C1415 C 0.6928 0.80606 0.6001 0.0
C1416 C 0.66315 0.78294 0.54719 0.0
C1417 C 0.64452 0.76259 0.54185 0.0
C1418 C 0.64551 0.74468 0.5332 0.0
C1419 C 0.66519 0.74686 0.52979 0.0
C1420 C 0.68383 0.76733 0.5353 0.0
C1421 C 0.6828 0.78522 0.54392 0.0
C1422 C 0.65683 0.80849 0.51795 0.0
C1423 C 0.637 0.79247 0.50796 0.0
C1424 C 0.63537 0.78345 0.4869 0.0
C1425 C 0.65359 0.79035 0.47557 0.0
C1426 C 0.67327 0.8074 0.48524 0.0
C1427 C 0.67488 0.81639 0.50633 0.0
C1428 C 0.66137 0.84969 0.53372 0.0
C1429 C 0.64396 0.8445 0.51943 0.0
C1430 C 0.64608 0.85844 0.50366 0.0
C1431 C 0.66567 0.87774 0.50197 0.0
C1432 C 0.68277 0.88322 0.51693 0.0
C1433 C 0.68068 0.86927 0.5325 0.0
C1434 C 0.66064 0.84273 0.67809 0.0
C1435 C 0.66632 0.72793 0.52049 0.0
H1436 H 0.20591 0.862 0.70893 0.0
H1437 H 0.03695 0.68025 0.52781 0.0
H1438 H 0.17855 0.86621 0.57605 0.0
H1439 H 0.20791 0.90198 0.59118 0.0
H1440 H 0.24334 0.87225 0.60958 0.0
H1441 H 0.21388 0.83636 0.59386 0.0
H1442 H 0.16894 0.84896 0.62061 0.0
H1443 H 0.18391 0.85982 0.65816 0.0
H1444 H 0.19125 0.80375 0.65692 0.0
H1445 H 0.17654 0.79325 0.61923 0.0
H1446 H 0.12785 0.81067 0.61962 0.0
H1447 H 0.10233 0.79047 0.64541 0.0
H1448 H 0.09966 0.73121 0.62037 0.0
H1449 H 0.12697 0.7522 0.59637 0.0
H1450 H 0.0965 0.78252 0.57487 0.0
H1451 H 0.0615 0.74989 0.56496 0.0
H1452 H 0.09099 0.71724 0.53505 0.0
H1453 H 0.1259 0.74987 0.54531 0.0
H1454 H 0.11352 0.802 0.53254 0.0
H1455 H 0.09633 0.78771 0.49603 0.0
H1456 H 0.14396 0.77232 0.48054 0.0
H1457 H 0.16044 0.78574 0.51746 0.0
H1458 H 0.15859 0.84794 0.53627 0.0
H1459 H 0.17785 0.87152 0.50847 0.0
H1460 H 0.2201 0.84667 0.50862 0.0
H1461 H 0.2013 0.82407 0.53752 0.0
O1462 O 0.20006 0.85742 0.69405 0.0
O1463 O 0.20336 0.82827 0.69262 0.0
O1464 O 0.03621 0.71079 0.54777 0.0
O1465 O 0.05059 0.69333 0.53203 0.0
C1466 C 0.17485 0.82694 0.57779 0.0
C1467 C 0.16313 0.81399 0.59419 0.0
C1468 C 0.14298 0.79493 0.58877 0.0
C1469 C 0.13498 0.78837 0.56684 0.0
C1470 C 0.14696 0.80107 0.55048 0.0
C1471 C 0.16682 0.82035 0.55595 0.0
C1472 C 0.19413 0.84874 0.58381 0.0
C1473 C 0.1929 0.8675 0.58272 0.0
C1474 C 0.20958 0.88786 0.59154 0.0
C1475 C 0.22778 0.88981 0.60172 0.0
C1476 C 0.22954 0.8712 0.60169 0.0
C1477 C 0.21276 0.85074 0.59282 0.0
C1478 C 0.17187 0.82044 0.61714 0.0
C1479 C 0.17394 0.83914 0.62842 0.0
C1480 C 0.18242 0.84526 0.64991 0.0
C1481 C 0.18883 0.83268 0.66054 0.0
C1482 C 0.18652 0.81382 0.64921 0.0
C1483 C 0.1781 0.80777 0.6277 0.0
C1484 C 0.12932 0.78295 0.60608 0.0
C1485 C 0.12228 0.79347 0.62024 0.0
C1486 C 0.10729 0.78173 0.63469 0.0
C1487 C 0.09845 0.75899 0.63482 0.0
C1488 C 0.10615 0.74868 0.62107 0.0
C1489 C 0.12166 0.76062 0.60711 0.0
C1490 C 0.11372 0.7685 0.5609 0.0
C1491 C 0.09536 0.76825 0.56629 0.0
C1492 C 0.07539 0.74962 0.56055 0.0
C1493 C 0.07345 0.73094 0.54921 0.0
C1494 C 0.09192 0.73132 0.54378 0.0
C1495 C 0.11187 0.74993 0.5496 0.0
C1496 C 0.13806 0.79467 0.52765 0.0
C1497 C 0.12026 0.79562 0.52119 0.0
C1498 C 0.11057 0.78761 0.50028 0.0
C1499 C 0.11867 0.7787 0.48541 0.0
C1500 C 0.1371 0.77868 0.49173 0.0
C1501 C 0.14666 0.78653 0.51271 0.0
C1502 C 0.1786 0.83438 0.53886 0.0
C1503 C 0.17206 0.84769 0.53031 0.0
C1504 C 0.183 0.86099 0.51424 0.0
C1505 C 0.20048 0.86092 0.50603 0.0
C1506 C 0.20692 0.84741 0.51468 0.0
C1507 C 0.19614 0.83438 0.53109 0.0
C1508 C 0.19785 0.83924 0.68336 0.0
C1509 C 0.05227 0.71114 0.54301 0.0
H1510 H 0.1957 0.33775 0.72475 0.0
H1511 H 0.03863 0.3123 0.54039 0.0
H1512 H 0.21918 0.36076 0.61083 0.0
H1513 H 0.24439 0.35425 0.63037 0.0
H1514 H 0.20679 0.28563 0.60697 0.0
H1515 H 0.18157 0.29227 0.58781 0.0
H1516 H 0.18151 0.3596 0.63932 0.0
H1517 H 0.18929 0.35676 0.67712 0.0
H1518 H 0.16814 0.28849 0.66127 0.0
H1519 H 0.16016 0.29151 0.6236 0.0
H1520 H 0.1389 0.35937 0.61364 0.0
H1521 H 0.11215 0.35483 0.63797 0.0
H1522 H 0.09794 0.28922 0.64637 0.0
H1523 H 0.12332 0.29331 0.62023 0.0
H1524 H 0.1424 0.3677 0.56937 0.0
H1525 H 0.11064 0.36748 0.55674 0.0
H1526 H 0.07368 0.29709 0.5576 0.0
H1527 H 0.10565 0.29754 0.56999 0.0
H1528 H 0.17266 0.37301 0.54387 0.0
H1529 H 0.1602 0.37622 0.50806 0.0
H1530 H 0.12489 0.30564 0.49541 0.0
H1531 H 0.13786 0.30275 0.53087 0.0
H1532 H 0.20623 0.37187 0.55307 0.0
H1533 H 0.23063 0.37732 0.52542 0.0
H1534 H 0.21151 0.30902 0.52373 0.0
H1535 H 0.18578 0.30346 0.54996 0.0
O1536 O 0.19232 0.33845 0.70977 0.0
O1537 O 0.18138 0.30345 0.70075 0.0
O1538 O 0.07119 0.34902 0.545 0.0
O1539 O 0.05144 0.31285 0.54535 0.0
C1540 C 0.18095 0.32976 0.59059 0.0
C1541 C 0.1664 0.32793 0.60574 0.0
C1542 C 0.14865 0.32922 0.59928 0.0
C1543 C 0.14567 0.33271 0.5777 0.0
C1544 C 0.16059 0.33534 0.56272 0.0
C1545 C 0.17831 0.33391 0.56915 0.0
C1546 C 0.19872 0.32705 0.59768 0.0
C1547 C 0.21682 0.34449 0.60935 0.0
C1548 C 0.23114 0.3407 0.62056 0.0
C1549 C 0.22747 0.31937 0.62037 0.0
C1550 C 0.20992 0.30218 0.60763 0.0
C1551 C 0.19568 0.306 0.5964 0.0
C1552 C 0.1704 0.3258 0.62875 0.0
C1553 C 0.17849 0.34403 0.64409 0.0
C1554 C 0.18296 0.34237 0.66565 0.0
C1555 C 0.17941 0.32242 0.67221 0.0
C1556 C 0.17111 0.30412 0.65676 0.0
C1557 C 0.16659 0.3058 0.63523 0.0
C1558 C 0.13304 0.32668 0.61507 0.0
C1559 C 0.12982 0.34394 0.62056 0.0
C1560 C 0.11469 0.34137 0.6348 0.0
C1561 C 0.10282 0.32166 0.64441 0.0
C1562 C 0.10642 0.30451 0.63911 0.0
C1563 C 0.12118 0.30692 0.62439 0.0
C1564 C 0.12631 0.33262 0.57044 0.0
C1565 C 0.12744 0.35225 0.5667 0.0
C1566 C 0.10927 0.35208 0.55955 0.0
C1567 C 0.08961 0.33225 0.55612 0.0
C1568 C 0.08855 0.31263 0.56005 0.0
C1569 C 0.10676 0.31283 0.56715 0.0
C1570 C 0.15632 0.33765 0.53984 0.0
C1571 C 0.16273 0.35832 0.53306 0.0
C1572 C 0.15539 0.36009 0.51271 0.0
C1573 C 0.14146 0.3412 0.49884 0.0
C1574 C 0.13584 0.32057 0.50545 0.0
C1575 C 0.14322 0.31884 0.52574 0.0
C1576 C 0.19421 0.33728 0.55353 0.0
C1577 C 0.20727 0.35808 0.54661 0.0
C1578 C 0.22144 0.3612 0.53097 0.0
C1579 C 0.22319 0.34363 0.52221 0.0
C1580 C 0.21041 0.32289 0.5297 0.0
C1581 C 0.19589 0.31971 0.545 0.0
C1582 C 0.18439 0.32077 0.69507 0.0
C1583 C 0.07025 0.33197 0.5485 0.0
H1584 H 0.96526 0.3862 0.05536 0.0
H1585 H 0.02762 0.39795 0.07228 0.0
H1586 H 0.03203 0.42318 0.10318 0.0
H1587 H 0.01767 0.44075 0.12614 0.0
H1588 H 0.95553 0.42932 0.1091 0.0
H1589 H 0.95153 0.40498 0.07744 0.0
C1590 C 0.97982 0.39424 0.0658 0.0
C1591 C 0.99602 0.39006 0.06155 0.0
C1592 C 0.9823 0.40878 0.08348 0.0
C1593 C 0.01488 0.40084 0.07515 0.0
C1594 C 0.01742 0.41527 0.09283 0.0
C1595 C 0.00342 0.43327 0.11526 0.0
C1596 C 0.98694 0.43687 0.1199 0.0
C1597 C 0.00121 0.41927 0.09719 0.0
C1598 C 0.96838 0.42668 0.10593 0.0
C1599 C 0.96609 0.4128 0.08784 0.0
H1600 H 0.6033 0.61104 0.14201 0.0
H1601 H 0.60905 0.56675 0.0964 0.0
H1602 H 0.58941 0.53677 0.11897 0.0
H1603 H 0.56658 0.52234 0.14924 0.0
H1604 H 0.56123 0.56724 0.1945 0.0
H1605 H 0.58464 0.59776 0.17441 0.0
C1606 C 0.60053 0.59489 0.13716 0.0
C1607 C 0.60731 0.59101 0.11743 0.0
C1608 C 0.58899 0.57777 0.14997 0.0
C1609 C 0.60397 0.57014 0.11153 0.0
C1610 C 0.59258 0.55296 0.12433 0.0
C1611 C 0.57088 0.53886 0.15491 0.0
C1612 C 0.56175 0.54243 0.17303 0.0
C1613 C 0.58439 0.55643 0.14323 0.0
C1614 C 0.56754 0.56396 0.18023 0.0
C1615 C 0.58102 0.58145 0.16884 0.0
H1616 H 0.42489 -0.00043 0.06405 0.0
H1617 H 0.36452 0.95532 0.08783 0.0
H1618 H 0.38204 0.9568 0.12235 0.0
H1619 H 0.41435 0.96819 0.1447 0.0
H1620 H 0.47527 0.01076 0.12107 0.0
H1621 H 0.45783 0.01268 0.08775 0.0
C1622 C 0.41566 0.99062 0.07698 0.0
C1623 C 0.39348 0.97732 0.07347 0.0
C1624 C 0.42594 0.99103 0.09669 0.0
C1625 C 0.38163 0.96557 0.0902 0.0
C1626 C 0.39162 0.96636 0.1099 0.0
C1627 C 0.42385 0.97779 0.1322 0.0
C1628 C 0.44606 0.98896 0.13517 0.0
C1629 C 0.41376 0.97854 0.1131 0.0
C1630 C 0.45813 0.00192 0.11913 0.0
C1631 C 0.44816 0.00296 0.10006 0.0
H1632 H 0.41985 0.00674 0.97271 0.0
H1633 H 0.37815 0.93817 0.95094 0.0
H1634 H 0.39831 0.94263 0.91939 0.0
H1635 H 0.42752 0.96601 0.89784 0.0
H1636 H 0.47057 0.034 0.92105 0.0
H1637 H 0.44969 0.0298 0.9518 0.0
C1638 C 0.41514 0.99273 0.96109 0.0
C1639 C 0.39748 0.97215 0.96424 0.0
C1640 C 0.4269 0.99534 0.94308 0.0
C1641 C 0.39173 0.95419 0.94903 0.0
C1642 C 0.40321 0.95673 0.93091 0.0
C1643 C 0.43254 0.97989 0.90971 0.0
C1644 C 0.45063 0.00033 0.90692 0.0
C1645 C 0.42082 0.97724 0.92778 0.0
C1646 C 0.45652 0.01818 0.92238 0.0
C1647 C 0.4447 0.01575 0.94016 0.0
H1648 H 0.97295 0.36847 0.94346 0.0
H1649 H 0.03607 0.40983 0.97441 0.0
H1650 H 0.04272 0.4382 0.95049 0.0
H1651 H 0.02904 0.45261 0.92329 0.0
H1652 H 0.9654 0.41087 0.89366 0.0
H1653 H 0.96044 0.38141 0.91482 0.0
C1654 C 0.98828 0.38359 0.94491 0.0
C1655 C 0.00388 0.38711 0.96092 0.0
C1656 C 0.99176 0.39993 0.93156 0.0
C1657 C 0.02375 0.40668 0.96225 0.0
C1658 C 0.0275 0.42298 0.94869 0.0
C1659 C 0.0142 0.43697 0.92133 0.0
C1660 C 0.99746 0.43408 0.90724 0.0
C1661 C 0.01139 0.42002 0.93369 0.0
C1662 C 0.97833 0.41371 0.9048 0.0
C1663 C 0.97552 0.39679 0.91677 0.0
H1664 H 0.57988 0.62506 0.01185 0.0
H1665 H 0.59412 0.57424 0.01696 0.0
H1666 H 0.57389 0.55575 0.98238 0.0
H1667 H 0.55336 0.55481 0.95022 0.0
H1668 H 0.54257 0.60793 0.94341 0.0
H1669 H 0.5596 0.62426 0.97945 0.0
C1670 C 0.57838 0.60982 0.00548 0.0
C1671 C 0.58844 0.601 0.01692 0.0
C1672 C 0.56724 0.59962 0.98534 0.0
C1673 C 0.58659 0.5814 0.00837 0.0
C1674 C 0.57501 0.57081 0.98864 0.0
C1675 C 0.55488 0.57007 0.95645 0.0
C1676 C 0.54664 0.58004 0.94392 0.0
C1677 C 0.56552 0.57995 0.97685 0.0
C1678 C 0.54835 0.59956 0.95268 0.0
C1679 C 0.55833 0.6091 0.97326 0.0
H1680 H 0.99229 0.59324 0.00348 0.0
H1681 H 0.05375 0.64406 0.98725 0.0
H1682 H 0.05228 0.62013 0.95645 0.0
H1683 H 0.03345 0.58492 0.93419 0.0
H1684 H 0.97296 0.53326 0.95175 0.0
H1685 H 0.97412 0.55743 0.98205 0.0
C1686 C 0.00525 0.59912 0.99304 0.0
C1687 C 0.023 0.6204 0.99742 0.0
C1688 C 0.00454 0.5851 0.97577 0.0
C1689 C 0.0399 0.62772 0.9841 0.0
C1690 C 0.03908 0.61405 0.96656 0.0
C1691 C 0.0207 0.57878 0.94488 0.0
C1692 C 0.00316 0.5573 0.94072 0.0
C1693 C 0.02155 0.59267 0.96234 0.0
C1694 C 0.98656 0.54979 0.95448 0.0
C1695 C 0.98721 0.56358 0.97181 0.0
H1696 H 0.43083 0.40914 0.95429 0.0
H1697 H 0.37492 0.41338 0.94849 0.0
H1698 H 0.39241 0.44282 0.92469 0.0
H1699 H 0.42335 0.4663 0.90451 0.0
H1700 H 0.47981 0.4631 0.91306 0.0
H1701 H 0.46221 0.43412 0.93668 0.0
C1702 C 0.42242 0.41645 0.94777 0.0
C1703 C 0.40154 0.40893 0.95284 0.0
C1704 C 0.43265 0.43348 0.93453 0.0
C1705 C 0.391 0.41888 0.9447 0.0
C1706 C 0.40099 0.43566 0.9311 0.0
C1707 C 0.43191 0.45949 0.91177 0.0
C1708 C 0.45278 0.46664 0.90659 0.0
C1709 C 0.4218 0.443 0.92579 0.0
C1710 C 0.46355 0.45752 0.91618 0.0
C1711 C 0.45356 0.44103 0.92985 0.0
H1712 H 0.58209 0.02825 0.00934 0.0
H1713 H 0.59631 0.97957 0.9865 0.0
H1714 H 0.5757 0.97288 0.95216 0.0
H1715 H 0.55765 0.98442 0.92735 0.0
H1716 H 0.54108 0.03115 0.95143 0.0
H1717 H 0.55884 0.03519 0.98657 0.0
C1718 C 0.58028 0.01587 0.99696 0.0
C1719 C 0.59076 0.00453 0.00023 0.0
C1720 C 0.56836 0.01207 0.97741 0.0
C1721 C 0.58824 0.9884 0.98429 0.0
C1722 C 0.57663 0.98472 0.96462 0.0
C1723 C 0.55732 0.99505 0.94036 0.0
C1724 C 0.54845 0.0079 0.93637 0.0
C1725 C 0.56714 0.99694 0.96079 0.0
C1726 C 0.54842 0.02164 0.95363 0.0
C1727 C 0.55843 0.02385 0.97386 0.0
H1728 H 0.59579 0.98633 0.10712 0.0
H1729 H 0.61325 0.05385 0.10647 0.0
H1730 H 0.59134 0.04991 0.13633 0.0
H1731 H 0.56548 0.02671 0.16112 0.0
H1732 H 0.54836 0.95935 0.1619 0.0
H1733 H 0.5717 0.96383 0.13331 0.0
C1734 C 0.59495 0.00027 0.11355 0.0
C1735 C 0.6061 0.02032 0.10436 0.0
C1736 C 0.58219 0.99788 0.13063 0.0
C1737 C 0.60486 0.03819 0.11312 0.0
C1738 C 0.59226 0.03595 0.13018 0.0
C1739 C 0.5671 0.01309 0.15529 0.0
C1740 C 0.55501 0.99266 0.16357 0.0
C1741 C 0.58062 0.01579 0.13886 0.0
C1742 C 0.55714 0.97514 0.15558 0.0
C1743 C 0.57059 0.97772 0.1393 0.0
H1744 H 0.03665 0.60827 0.09192 0.0
H1745 H 0.97773 0.60512 0.10133 0.0
H1746 H 0.96912 0.57778 0.1273 0.0
H1747 H 0.97971 0.55637 0.14883 0.0
H1748 H 0.03862 0.55989 0.13769 0.0
H1749 H 0.0459 0.58564 0.11094 0.0
C1750 C 0.02189 0.60168 0.09965 0.0
C1751 C 0.008 0.60899 0.09498 0.0
C1752 C 0.01713 0.58611 0.11434 0.0
C1753 C 0.98873 0.59983 0.10474 0.0
C1754 C 0.98386 0.58426 0.11962 0.0
C1755 C 0.99399 0.5626 0.14034 0.0
C1756 C 0.0088 0.55652 0.14559 0.0
C1757 C 0.9981 0.57747 0.12475 0.0
C1758 C 0.02723 0.56471 0.1344 0.0
C1759 C 0.03137 0.57936 0.119 0.0
H1760 H 0.39045 0.40127 0.06319 0.0
H1761 H 0.43511 0.3838 0.04164 0.0
H1762 H 0.45705 0.40106 0.07543 0.0
H1763 H 0.46335 0.42052 0.11133 0.0
H1764 H 0.41789 0.43641 0.13368 0.0
H1765 H 0.39682 0.42085 0.09915 0.0
C1766 C 0.40503 0.40132 0.06582 0.0
C1767 C 0.41104 0.39118 0.04988 0.0
C1768 C 0.41754 0.41112 0.08539 0.0
C1769 C 0.42997 0.39134 0.05365 0.0
C1770 C 0.44259 0.40126 0.07297 0.0
C1771 C 0.44878 0.42049 0.10871 0.0
C1772 C 0.44229 0.42969 0.12509 0.0
C1773 C 0.43646 0.41106 0.089 0.0
C1774 C 0.42351 0.4298 0.12125 0.0
C1775 C 0.41131 0.42071 0.10156 0.0
H1776 H 0.62926 0.72798 0.38982 0.0
H1777 H 0.68613 0.72966 0.41155 0.0
H1778 H 0.69246 0.75647 0.44174 0.0
H1779 H 0.68027 0.77704 0.46344 0.0
H1780 H 0.62362 0.77564 0.44152 0.0
H1781 H 0.61876 0.75098 0.40982 0.0
C1782 C 0.64309 0.73425 0.40112 0.0
C1783 C 0.65705 0.72662 0.39861 0.0
C1784 C 0.64663 0.74963 0.41839 0.0
C1785 C 0.67509 0.73521 0.41316 0.0
C1786 C 0.6787 0.7505 0.43044 0.0
C1787 C 0.66715 0.77178 0.45146 0.0
C1788 C 0.65228 0.77808 0.45486 0.0
C1789 C 0.6644 0.75755 0.43338 0.0
C1790 C 0.63514 0.7708 0.43938 0.0
C1791 C 0.63236 0.75673 0.42127 0.0
H1792 H 0.23522 0.9244 0.4323 0.0
H1793 H 0.29469 0.93458 0.45825 0.0
H1794 H 0.2761 0.9072 0.4838 0.0
H1795 H 0.24309 0.88267 0.50045 0.0
H1796 H 0.18353 0.8708 0.47206 0.0
H1797 H 0.2021 0.8968 0.44592 0.0
C1798 C 0.24407 0.92047 0.44345 0.0
C1799 C 0.26624 0.93159 0.44366 0.0
C1800 C 0.23331 0.90466 0.4578 0.0
C1801 C 0.27757 0.92617 0.45786 0.0
C1802 C 0.26696 0.91063 0.47251 0.0
C1803 C 0.23408 0.88539 0.48831 0.0
C1804 C 0.2119 0.87508 0.48869 0.0
C1805 C 0.24483 0.90005 0.47286 0.0
C1806 C 0.20063 0.879 0.47276 0.0
C1807 C 0.21121 0.89375 0.45762 0.0
H1808 H 0.08733 0.34936 0.42325 0.0
H1809 H 0.09225 0.29615 0.3939 0.0
H1810 H 0.11662 0.30069 0.42398 0.0
H1811 H 0.13368 0.31719 0.46015 0.0
H1812 H 0.12664 0.36838 0.49132 0.0
H1813 H 0.10651 0.36762 0.45899 0.0
C1814 C 0.09414 0.33913 0.4233 0.0
C1815 C 0.08801 0.32243 0.40646 0.0
C1816 C 0.10766 0.34135 0.44109 0.0
C1817 C 0.09668 0.30904 0.40678 0.0
C1818 C 0.11058 0.31159 0.42399 0.0
C1819 C 0.12779 0.32823 0.45989 0.0
C1820 C 0.13155 0.34266 0.47826 0.0
C1821 C 0.11567 0.32724 0.44152 0.0
C1822 C 0.12417 0.35719 0.47739 0.0
C1823 C 0.11247 0.35665 0.45894 0.0
H1824 H 0.07503 0.34168 0.29875 0.0
H1825 H 0.0628 0.27655 0.3048 0.0
H1826 H 0.08229 0.27887 0.27325 0.0
H1827 H 0.10452 0.30009 0.24531 0.0
H1828 H 0.11563 0.36462 0.23813 0.0
H1829 H 0.09513 0.36189 0.26898 0.0
C1830 C 0.07655 0.32795 0.29312 0.0
C1831 C 0.06757 0.30904 0.30428 0.0
C1832 C 0.08775 0.32933 0.27489 0.0
C1833 C 0.06951 0.29132 0.29657 0.0
C1834 C 0.08073 0.29264 0.27855 0.0
C1835 C 0.10215 0.31343 0.25015 0.0
C1836 C 0.1118 0.3326 0.23941 0.0
C1837 C 0.09011 0.31166 0.26773 0.0
C1838 C 0.10878 0.34982 0.2463 0.0
C1839 C 0.09693 0.34823 0.26388 0.0
H1840 H 0.68419 0.7377 0.31425 0.0
H1841 H 0.6301 0.68465 0.27579 0.0
H1842 H 0.6352 0.70869 0.24754 0.0
H1843 H 0.65293 0.74546 0.23538 0.0
H1844 H 0.70512 0.79935 0.27527 0.0
H1845 H 0.70311 0.77429 0.30113 0.0
C1846 C 0.67384 0.73132 0.29946 0.0
C1847 C 0.65682 0.70947 0.29705 0.0
C1848 C 0.67637 0.74546 0.28366 0.0
C1849 C 0.6433 0.70145 0.27797 0.0
C1850 C 0.64614 0.7152 0.26189 0.0
C1851 C 0.66382 0.75177 0.24977 0.0
C1852 C 0.67899 0.77432 0.25345 0.0
C1853 C 0.66223 0.73738 0.26486 0.0
C1854 C 0.69334 0.78207 0.27192 0.0
C1855 C 0.69213 0.76777 0.28681 0.0
H1856 H 0.27694 0.92861 0.3453 0.0
H1857 H 0.26389 0.98019 0.33898 0.0
H1858 H 0.24525 0.96299 0.30363 0.0
H1859 H 0.23208 0.9331 0.27486 0.0
H1860 H 0.24369 0.8806 0.28136 0.0
H1861 H 0.26363 0.89847 0.31624 0.0
C1862 C 0.27018 0.93617 0.33608 0.0
C1863 C 0.27176 0.95561 0.34476 0.0
C1864 C 0.25914 0.92599 0.31588 0.0
C1865 C 0.26277 0.96513 0.33272 0.0
C1866 C 0.2521 0.95532 0.3125 0.0
C1867 C 0.23873 0.9254 0.28403 0.0
C1868 C 0.23629 0.9055 0.27562 0.0
C1869 C 0.24998 0.93564 0.30406 0.0
C1870 C 0.24545 0.89601 0.28745 0.0
C1871 C 0.2568 0.90617 0.3074 0.0
H1872 H 0.65766 0.9255 0.33935 0.0
H1873 H 0.7184 0.9788 0.32451 0.0
H1874 H 0.71981 0.9553 0.29511 0.0
H1875 H 0.70396 0.91964 0.27398 0.0
H1876 H 0.6443 0.86556 0.29025 0.0
H1877 H 0.64226 0.88939 0.31877 0.0
C1878 C 0.67107 0.932 0.32949 0.0
C1879 C 0.68782 0.95385 0.3339 0.0
C1880 C 0.67206 0.91824 0.31307 0.0
C1881 C 0.70531 0.96201 0.32133 0.0
C1882 C 0.70615 0.94859 0.3046 0.0
C1883 C 0.6907 0.91292 0.28403 0.0
C1884 C 0.67437 0.8908 0.28006 0.0
C1885 C 0.68972 0.92662 0.30048 0.0
C1886 C 0.65702 0.88255 0.29288 0.0
C1887 C 0.65585 0.89615 0.30919 0.0
H1888 H 0.0897 0.72267 0.27843 0.0
H1889 H 0.06264 0.75878 0.30583 0.0
H1890 H 0.08373 0.78866 0.28367 0.0
H1891 H 0.111 0.80507 0.25747 0.0
H1892 H 0.13719 0.76803 0.2302 0.0
H1893 H 0.11549 0.73813 0.25169 0.0
C1894 C 0.08832 0.73703 0.27962 0.0
C1895 C 0.07467 0.73849 0.29393 0.0
C1896 C 0.10052 0.75411 0.267 0.0
C1897 C 0.073 0.75719 0.29497 0.0
C1898 C 0.08512 0.77432 0.28236 0.0
C1899 C 0.11182 0.79038 0.25613 0.0
C1900 C 0.12596 0.78897 0.24246 0.0
C1901 C 0.0991 0.77305 0.26845 0.0
C1902 C 0.12687 0.76983 0.24097 0.0
C1903 C 0.11433 0.75261 0.25312 0.0
H1904 H 0.25125 0.36022 0.34131 0.0
H1905 H 0.2591 0.30688 0.31872 0.0
H1906 H 0.23684 0.30017 0.28561 0.0
H1907 H 0.21849 0.31223 0.2616 0.0
H1908 H 0.20966 0.36475 0.28522 0.0
H1909 H 0.22907 0.36905 0.31943 0.0
C1910 C 0.24788 0.34696 0.32924 0.0
C1911 C 0.25699 0.33424 0.33228 0.0
C1912 C 0.23511 0.34321 0.31036 0.0
C1913 C 0.25224 0.31689 0.31672 0.0
C1914 C 0.23963 0.31314 0.29775 0.0
C1915 C 0.22033 0.32426 0.27439 0.0
C1916 C 0.21295 0.33843 0.27061 0.0
C1917 C 0.23141 0.32656 0.29417 0.0
C1918 C 0.21565 0.35401 0.28742 0.0
C1919 C 0.22666 0.35642 0.30706 0.0
H1920 H 0.29088 0.37334 0.45231 0.0
H1921 H 0.24747 0.3069 0.42488 0.0
H1922 H 0.22538 0.30059 0.45506 0.0
H1923 H 0.2173 0.31451 0.48797 0.0
H1924 H 0.26208 0.38001 0.51714 0.0
H1925 H 0.28443 0.38617 0.48729 0.0
C1926 C 0.27664 0.35745 0.45301 0.0
C1927 C 0.27076 0.34069 0.43628 0.0
C1928 C 0.2641 0.35381 0.47057 0.0
C1929 C 0.2524 0.32009 0.43755 0.0
C1930 C 0.23969 0.31648 0.45477 0.0
C1931 C 0.23214 0.33001 0.48818 0.0
C1932 C 0.23773 0.34681 0.50483 0.0
C1933 C 0.24527 0.33329 0.47124 0.0
C1934 C 0.25696 0.36689 0.50436 0.0
C1935 C 0.26991 0.37041 0.48735 0.0
H1936 H 0.6972 0.9415 0.42879 0.0
H1937 H 0.63751 0.93747 0.43536 0.0
H1938 H 0.62874 0.91105 0.46238 0.0
H1939 H 0.63941 0.89085 0.48569 0.0
H1940 H 0.69923 0.89538 0.4775 0.0
H1941 H 0.70664 0.92008 0.44966 0.0
C1942 C 0.68223 0.9349 0.43611 0.0
C1943 C 0.66817 0.94169 0.43033 0.0
C1944 C 0.67742 0.91994 0.45147 0.0
C1945 C 0.64864 0.93255 0.4396 0.0
C1946 C 0.64369 0.91753 0.45509 0.0
C1947 C 0.65395 0.8971 0.47764 0.0
C1948 C 0.66895 0.89162 0.48403 0.0
C1949 C 0.65813 0.91134 0.46139 0.0
C1950 C 0.68768 0.89979 0.47337 0.0
C1951 C 0.69189 0.91381 0.45732 0.0
H1952 H 0.06651 0.74541 0.39422 0.0
H1953 H 0.08022 0.69422 0.39984 0.0
H1954 H 0.09918 0.71151 0.43508 0.0
H1955 H 0.11183 0.74102 0.46425 0.0
H1956 H 0.09974 0.79326 0.45817 0.0
H1957 H 0.07995 0.77553 0.42325 0.0
C1958 C 0.07354 0.73798 0.40322 0.0
C1959 C 0.07192 0.71854 0.39441 0.0
C1960 C 0.08472 0.74818 0.42336 0.0
C1961 C 0.0813 0.70923 0.40619 0.0
C1962 C 0.09214 0.71909 0.42636 0.0
C1963 C 0.10516 0.74873 0.45516 0.0
C1964 C 0.10734 0.76848 0.4638 0.0
C1965 C 0.09405 0.73862 0.43503 0.0
C1966 C 0.09814 0.77795 0.452 0.0
C1967 C 0.08688 0.76787 0.43199 0.0
H1968 H 0.29906 0.0581 0.73121 0.0
H1969 H 0.35284 0.05614 0.75687 0.0
H1970 H 0.35646 0.08003 0.78886 0.0
H1971 H 0.34364 0.1005 0.80976 0.0
H1972 H 0.29123 0.10427 0.7828 0.0
H1973 H 0.28764 0.08035 0.75105 0.0
C1974 C 0.3115 0.0628 0.74387 0.0
C1975 C 0.32551 0.05519 0.74188 0.0
C1976 C 0.31372 0.07683 0.7619 0.0
C1977 C 0.34184 0.06177 0.75814 0.0
C1978 C 0.3439 0.0754 0.77638 0.0
C1979 C 0.3317 0.09649 0.79677 0.0
C1980 C 0.31769 0.10416 0.79873 0.0
C1981 C 0.32991 0.083 0.77842 0.0
C1982 C 0.30202 0.09836 0.78189 0.0
C1983 C 0.3 0.08475 0.76369 0.0
H1984 H 0.9007 0.26139 0.77099 0.0
H1985 H 0.95108 0.24798 0.77598 0.0
H1986 H 0.93236 0.22195 0.80259 0.0
H1987 H 0.9022 0.2043 0.82558 0.0
H1988 H 0.85196 0.21788 0.81917 0.0
H1989 H 0.87031 0.24278 0.79206 0.0
C1990 C 0.90769 0.25284 0.77787 0.0
C1991 C 0.92739 0.25682 0.77166 0.0
C1992 C 0.89691 0.23803 0.79301 0.0
C1993 C 0.93595 0.24525 0.7805 0.0
C1994 C 0.92528 0.23042 0.79575 0.0
C1995 C 0.8952 0.21255 0.81807 0.0
C1996 C 0.87588 0.20948 0.82467 0.0
C1997 C 0.90581 0.22684 0.80227 0.0
C1998 C 0.86704 0.22033 0.81481 0.0
C1999 C 0.87745 0.23448 0.79919 0.0
H2000 H 0.7471 0.62354 0.72892 0.0
H2001 H 0.74437 0.68127 0.74566 0.0
H2002 H 0.76712 0.68948 0.77885 0.0
H2003 H 0.78413 0.67749 0.80507 0.0
H2004 H 0.78661 0.61967 0.78744 0.0
H2005 H 0.76766 0.61428 0.7526 0.0
C2006 C 0.75171 0.63809 0.7397 0.0
C2007 C 0.74385 0.65162 0.73503 0.0
C2008 C 0.76457 0.64254 0.75869 0.0
C2009 C 0.75023 0.6706 0.74892 0.0
C2010 C 0.76311 0.6752 0.76796 0.0
C2011 C 0.78094 0.66402 0.79339 0.0
C2012 C 0.78643 0.64876 0.79902 0.0
C2013 C 0.76988 0.66092 0.77331 0.0
C2014 C 0.78214 0.63136 0.78371 0.0
C2015 C 0.77135 0.62828 0.76376 0.0
H2016 H 0.73481 0.6691 0.62662 0.0
H2017 H 0.72185 0.60343 0.63082 0.0
H2018 H 0.74273 0.60693 0.60023 0.0
H2019 H 0.76616 0.62915 0.57348 0.0
H2020 H 0.77852 0.69443 0.56841 0.0
H2021 H 0.75664 0.6906 0.59831 0.0
C2022 C 0.73645 0.65549 0.6208 0.0
C2023 C 0.7268 0.63607 0.63119 0.0
C2024 C 0.74854 0.65758 0.60314 0.0
C2025 C 0.72903 0.61859 0.62323 0.0
C2026 C 0.74105 0.62058 0.60573 0.0
C2027 C 0.76381 0.64244 0.57862 0.0
C2028 C 0.77412 0.6621 0.56871 0.0
C2029 C 0.75106 0.64007 0.59571 0.0
C2030 C 0.77111 0.67924 0.57594 0.0
C2031 C 0.75848 0.67702 0.59298 0.0
H2032 H 0.35784 0.06571 0.63163 0.0
H2033 H 0.30877 0.07076 0.66193 0.0
H2034 H 0.31648 0.10201 0.64229 0.0
H2035 H 0.33618 0.12713 0.61593 0.0
H2036 H 0.38229 0.11977 0.58174 0.0
H2037 H 0.37732 0.09091 0.60396 0.0
C2038 C 0.34895 0.07376 0.63388 0.0
C2039 C 0.33268 0.0659 0.64804 0.0
C2040 C 0.35304 0.09144 0.62199 0.0
C2041 C 0.32117 0.07636 0.65086 0.0
C2042 C 0.32563 0.09429 0.63973 0.0
C2043 C 0.345 0.1191 0.61304 0.0
C2044 C 0.35948 0.12567 0.59697 0.0
C2045 C 0.34133 0.10179 0.62507 0.0
C2046 C 0.37123 0.11541 0.59414 0.0
C2047 C 0.36822 0.09865 0.6067 0.0
H2048 H 0.90543 0.27593 0.6717 0.0
H2049 H 0.95344 0.2597 0.66243 0.0
H2050 H 0.93637 0.24127 0.62663 0.0
H2051 H 0.90856 0.23115 0.59745 0.0
H2052 H 0.86077 0.2475 0.60738 0.0
H2053 H 0.87718 0.26468 0.64355 0.0
C2054 C 0.91226 0.2684 0.66191 0.0
C2055 C 0.93081 0.26937 0.6697 0.0
C2056 C 0.90243 0.25791 0.64146 0.0
C2057 C 0.93919 0.25924 0.65683 0.0
C2058 C 0.92946 0.24873 0.63635 0.0
C2059 C 0.90159 0.2382 0.60768 0.0
C2060 C 0.88354 0.23816 0.59975 0.0
C2061 C 0.91115 0.24811 0.62846 0.0
C2062 C 0.87482 0.2476 0.61303 0.0
C2063 C 0.88414 0.25735 0.63372 0.0
H2064 H 0.33276 0.28004 0.66705 0.0
H2065 H 0.38327 0.27884 0.70242 0.0
H2066 H 0.38506 0.25646 0.67232 0.0
H2067 H 0.37296 0.23797 0.63569 0.0
H2068 H 0.324 0.24101 0.59933 0.0
H2069 H 0.32062 0.26144 0.63025 0.0
C2070 C 0.34406 0.27476 0.66822 0.0
C2071 C 0.35789 0.28118 0.68693 0.0
C2072 C 0.34524 0.26213 0.65071 0.0
C2073 C 0.37254 0.2743 0.68813 0.0
C2074 C 0.37356 0.26145 0.67095 0.0
C2075 C 0.36164 0.24322 0.63445 0.0
C2076 C 0.34876 0.2379 0.6152 0.0
C2077 C 0.36014 0.25545 0.65208 0.0
C2078 C 0.3339 0.24452 0.61406 0.0
C2079 C 0.33207 0.25639 0.63168 0.0
H2080 H 0.74193 0.10404 0.63031 0.0
H2081 H 0.72224 0.04712 0.58558 0.0
H2082 H 0.73812 0.07039 0.55642 0.0
H2083 H 0.76095 0.10676 0.54474 0.0
H2084 H 0.784 0.16402 0.59011 0.0
H2085 H 0.76311 0.14094 0.61772 0.0
C2086 C 0.74073 0.09682 0.61403 0.0
C2087 C 0.73098 0.07399 0.60998 0.0
C2088 C 0.75069 0.11038 0.59754 0.0
C2089 C 0.72974 0.0647 0.58898 0.0
C2090 C 0.73887 0.07799 0.57235 0.0
C2091 C 0.76141 0.11422 0.56067 0.0
C2092 C 0.7743 0.13705 0.56543 0.0
C2093 C 0.74999 0.10083 0.57663 0.0
C2094 C 0.7742 0.14649 0.58596 0.0
C2095 C 0.76237 0.13328 0.60183 0.0
H2096 H 0.9211 0.70595 0.66888 0.0
H2097 H 0.93038 0.6525 0.65136 0.0
H2098 H 0.90714 0.64259 0.61816 0.0
H2099 H 0.88701 0.65163 0.59257 0.0
H2100 H 0.8779 0.70508 0.61108 0.0
H2101 H 0.89817 0.71242 0.64555 0.0
C2102 C 0.91792 0.69202 0.65787 0.0
C2103 C 0.92767 0.68017 0.66235 0.0
C2104 C 0.90466 0.68651 0.63897 0.0
C2105 C 0.92308 0.6619 0.6482 0.0
C2106 C 0.90988 0.65631 0.62919 0.0
C2107 C 0.88911 0.66457 0.60436 0.0
C2108 C 0.88124 0.67802 0.59916 0.0
C2109 C 0.90095 0.66881 0.62419 0.0
C2110 C 0.88414 0.69478 0.61455 0.0
C2111 C 0.8957 0.69898 0.63427 0.0
H2112 H 0.92987 0.66083 0.76997 0.0
H2113 H 0.94065 0.72592 0.76809 0.0
H2114 H 0.91934 0.72055 0.79881 0.0
H2115 H 0.89676 0.69701 0.8255 0.0
H2116 H 0.88655 0.63223 0.82776 0.0
H2117 H 0.90836 0.63782 0.79741 0.0
C2118 C 0.92758 0.67388 0.77623 0.0
C2119 C 0.93681 0.69372 0.76659 0.0
C2120 C 0.91533 0.67072 0.79393 0.0
C2121 C 0.93377 0.71047 0.77513 0.0
C2122 C 0.92155 0.70741 0.79271 0.0
C2123 C 0.89955 0.68422 0.81957 0.0
C2124 C 0.88997 0.6642 0.82889 0.0
C2125 C 0.91219 0.68758 0.80217 0.0
C2126 C 0.89348 0.64768 0.82072 0.0
C2127 C 0.90603 0.6509 0.80342 0.0
H2128 H 0.35292 0.29679 0.80805 0.0
H2129 H 0.30186 0.25483 0.75983 0.0
H2130 H 0.2898 0.22424 0.78226 0.0
H2131 H 0.29713 0.20829 0.8133 0.0
H2132 H 0.3495 0.2507 0.86006 0.0
H2133 H 0.35771 0.28222 0.84052 0.0
C2134 C 0.33893 0.28105 0.80256 0.0
C2135 C 0.32851 0.278 0.78216 0.0
C2136 C 0.33253 0.26351 0.81518 0.0
C2137 C 0.31019 0.25761 0.77547 0.0
C2138 C 0.30342 0.24006 0.78821 0.0
C2139 C 0.31007 0.22453 0.81932 0.0
C2140 C 0.32296 0.22721 0.83782 0.0
C2141 C 0.31496 0.24261 0.80772 0.0
C2142 C 0.33965 0.24827 0.8456 0.0
C2143 C 0.34431 0.26628 0.83448 0.0
H2144 H 0.73023 0.08313 0.72595 0.0
H2145 H 0.77664 0.06601 0.71054 0.0
H2146 H 0.79558 0.08269 0.74588 0.0
H2147 H 0.79796 0.10032 0.78192 0.0
H2148 H 0.75099 0.11637 0.79777 0.0
H2149 H 0.73353 0.10226 0.76138 0.0
C2150 C 0.74462 0.08324 0.73019 0.0
C2151 C 0.75187 0.07317 0.71559 0.0
C2152 C 0.75534 0.09264 0.75067 0.0
C2153 C 0.77056 0.07349 0.72146 0.0
C2154 C 0.78143 0.08302 0.7417 0.0
C2155 C 0.78389 0.1007 0.7774 0.0
C2156 C 0.77574 0.10929 0.79256 0.0
C2157 C 0.77376 0.09229 0.75656 0.0
C2158 C 0.75772 0.11004 0.78635 0.0
C2159 C 0.74763 0.10184 0.76559 0.0
H2160 H 0.03499 0.33473 0.07105 0.0
H2161 H 0.08331 0.38524 0.03658 0.0
H2162 H 0.11084 0.3862 0.06043 0.0
H2163 H 0.12101 0.37153 0.09013 0.0
H2164 H 0.07236 0.32146 0.12477 0.0
H2165 H 0.04507 0.32137 0.10159 0.0
C2166 C 0.05154 0.346 0.06874 0.0
C2167 C 0.0571 0.3598 0.05198 0.0
C2168 C 0.0672 0.34646 0.08248 0.0
C2169 C 0.07862 0.37442 0.04935 0.0
C2170 C 0.09435 0.37495 0.06296 0.0
C2171 C 0.10445 0.36085 0.09284 0.0
C2172 C 0.09875 0.34646 0.10914 0.0
C2173 C 0.08881 0.36093 0.07948 0.0
C2174 C 0.07719 0.33247 0.11217 0.0
C2175 C 0.06157 0.33247 0.09899 0.0
H2176 H 0.63045 0.66546 0.11222 0.0
H2177 H 0.69494 0.6922 0.0962 0.0
H2178 H 0.70532 0.72718 0.11664 0.0
H2179 H 0.69478 0.75107 0.13507 0.0
H2180 H 0.6308 0.72285 0.15412 0.0
H2181 H 0.62147 0.68741 0.13639 0.0
C2182 C 0.64683 0.67885 0.11358 0.0
C2183 C 0.6619 0.67656 0.10263 0.0
C2184 C 0.65267 0.69864 0.12558 0.0
C2185 C 0.68314 0.69377 0.1046 0.0
C2186 C 0.68902 0.71375 0.11615 0.0
C2187 C 0.67894 0.73712 0.13592 0.0
C2188 C 0.66336 0.73995 0.14531 0.0
C2189 C 0.67375 0.71654 0.12618 0.0
C2190 C 0.64293 0.72148 0.14621 0.0
C2191 C 0.63758 0.7011 0.13623 0.0
H2192 H 0.32582 0.98453 0.06394 0.0
H2193 H 0.31222 0.92769 0.02193 0.0
H2194 H 0.28073 0.90482 0.04095 0.0
H2195 H 0.25724 0.90117 0.06957 0.0
H2196 H 0.27238 0.95806 0.11257 0.0
H2197 H 0.30281 0.98085 0.09263 0.0
C2198 C 0.31597 0.96713 0.05891 0.0
C2199 C 0.32129 0.95779 0.04156 0.0
C2200 C 0.29806 0.95416 0.06993 0.0
C2201 C 0.30844 0.93523 0.03528 0.0
C2202 C 0.29043 0.92218 0.04611 0.0
C2203 C 0.26726 0.91852 0.07467 0.0
C2204 C 0.26239 0.92785 0.09251 0.0
C2205 C 0.28512 0.93149 0.06348 0.0
C2206 C 0.27541 0.95046 0.09866 0.0
C2207 C 0.29299 0.9635 0.08741 0.0
H2208 H 0.38404 0.06095 0.01526 0.0
H2209 H 0.36346 0.01903 0.95542 0.0
H2210 H 0.35519 0.04364 0.93835 0.0
H2211 H 0.3498 0.07446 0.94162 0.0
H2212 H 0.36888 0.11618 0.00139 0.0
H2213 H 0.38184 0.09443 0.01738 0.0
C2214 C 0.37834 0.05764 0.99833 0.0
C2215 C 0.37433 0.03828 0.98656 0.0
C2216 C 0.37292 0.07155 0.98879 0.0
C2217 C 0.36662 0.03387 0.96474 0.0
C2218 C 0.36176 0.04783 0.95502 0.0
C2219 C 0.35685 0.07878 0.95814 0.0
C2220 C 0.35802 0.09651 0.97052 0.0
C2221 C 0.36411 0.06623 0.96711 0.0
C2222 C 0.36767 0.10241 0.99168 0.0
C2223 C 0.37505 0.08998 0.00079 0.0
H2224 H 0.95579 0.31567 0.97537 0.0
H2225 H 0.99513 0.28814 0.98194 0.0
H2226 H 0.96721 0.25359 0.96223 0.0
H2227 H 0.93025 0.23044 0.94645 0.0
H2228 H 0.89283 0.26004 0.93696 0.0
H2229 H 0.9215 0.2947 0.95455 0.0
C2230 C 0.95837 0.30222 0.9722 0.0
C2231 C 0.97724 0.3042 0.98023 0.0
C2232 C 0.94254 0.28278 0.96059 0.0
C2233 C 0.9806 0.28683 0.97585 0.0
C2234 C 0.96464 0.26711 0.9647 0.0
C2235 C 0.92849 0.24455 0.94775 0.0
C2236 C 0.90904 0.24231 0.941 0.0
C2237 C 0.94532 0.26475 0.95741 0.0
C2238 C 0.90723 0.26094 0.94279 0.0
C2239 C 0.92369 0.28088 0.95269 0.0
H2240 H 0.68743 0.60796 0.03852 0.0
H2241 H 0.67307 0.64893 0.00289 0.0
H2242 H 0.69926 0.65367 0.9776 0.0
H2243 H 0.72718 0.64752 0.96642 0.0
H2244 H 0.74335 0.60838 0.0029 0.0
H2245 H 0.71538 0.60134 0.02683 0.0
C2246 C 0.68991 0.6177 0.02506 0.0
C2247 C 0.6784 0.62811 0.02258 0.0
C2248 C 0.70538 0.62078 0.0108 0.0
C2249 C 0.68185 0.64085 0.0052 0.0
C2250 C 0.69682 0.64359 0.99074 0.0
C2251 C 0.72473 0.63761 0.97972 0.0
C2252 C 0.73744 0.62863 0.98294 0.0
C2253 C 0.70891 0.63394 0.99359 0.0
C2254 C 0.73369 0.61537 -5e-05 0.0
C2255 C 0.71776 0.61142 0.01371 0.0
H2256 H 0.93492 0.61839 0.01269 0.0
H2257 H 0.98581 0.68272 0.00075 0.0
H2258 H 0.96238 0.6863 0.97544 0.0
H2259 H 0.92748 0.67172 0.95688 0.0
H2260 H 0.87599 0.60778 0.96851 0.0
H2261 H 0.89959 0.60337 0.9933 0.0
C2262 C 0.94082 0.63316 0.00455 0.0
C2263 C 0.96209 0.65025 0.00873 0.0
C2264 C 0.92719 0.63517 0.98979 0.0
C2265 C 0.96953 0.66926 0.99792 0.0
C2266 C 0.95614 0.67138 0.98338 0.0
C2267 C 0.9214 0.65683 0.96487 0.0
C2268 C 0.90003 0.64014 0.96085 0.0
C2269 C 0.93496 0.65451 0.97924 0.0
C2270 C 0.89247 0.6208 0.97111 0.0
C2271 C 0.90592 0.61833 0.98543 0.0
H2272 H 0.32092 0.30138 0.98955 0.0
H2273 H 0.3486 0.33479 0.93362 0.0
H2274 H 0.33838 0.29974 0.91321 0.0
H2275 H 0.32568 0.26044 0.91327 0.0
H2276 H 0.29956 0.2278 0.97026 0.0
H2277 H 0.30441 0.26154 0.98814 0.0
C2278 C 0.32419 0.30078 0.97271 0.0
C2279 C 0.33535 0.32028 0.9629 0.0
C2280 C 0.31863 0.28078 0.9614 0.0
C2281 C 0.33981 0.31973 0.94124 0.0
C2282 C 0.33411 0.29979 0.9297 0.0
C2283 C 0.32084 0.2607 0.92951 0.0
C2284 C 0.31253 0.24175 0.94054 0.0
C2285 C 0.32416 0.28032 0.9399 0.0
C2286 C 0.3059 0.24213 0.96139 0.0
C2287 C 0.30885 0.26147 0.97171 0.0
H2288 H 0.68183 0.06093 0.03048 0.0
H2289 H 0.66661 -0.00045 0.99617 0.0
H2290 H 0.69581 0.01879 0.97364 0.0
H2291 H 0.72597 0.05286 0.96376 0.0
H2292 H 0.74108 0.11457 0.99676 0.0
H2293 H 0.71174 0.09548 0.01973 0.0
C2294 C 0.68489 0.05183 0.01801 0.0
C2295 C 0.67213 0.02887 0.0151 0.0
C2296 C 0.70177 0.06303 0.00495 0.0
C2297 C 0.6762 0.01726 0.99881 0.0
C2298 C 0.69295 0.02821 0.98591 0.0
C2299 C 0.72291 0.06206 0.97613 0.0
C2300 C 0.73568 0.08497 0.9788 0.0
C2301 C 0.70592 0.05105 0.98894 0.0
C2302 C 0.73138 0.09685 0.99452 0.0
C2303 C 0.71464 0.08596 0.00761 0.0
H2304 H 0.66654 0.97174 0.07162 0.0
H2305 H 0.6007 0.93394 0.08424 0.0
H2306 H 0.60685 0.90742 0.10102 0.0
H2307 H 0.63156 0.89641 0.11353 0.0
H2308 H 0.69672 0.93287 0.09749 0.0
H2309 H 0.69025 0.95881 0.08081 0.0
C2310 C 0.65354 0.95767 0.07805 0.0
C2311 C 0.63329 0.95484 0.07708 0.0
C2312 C 0.65712 0.94243 0.08712 0.0
C2313 C 0.61643 0.93638 0.08496 0.0
C2314 C 0.61997 0.92131 0.09455 0.0
C2315 C 0.64428 0.90971 0.10599 0.0
C2316 C 0.66472 0.91274 0.10709 0.0
C2317 C 0.64033 0.9243 0.09586 0.0
C2318 C 0.68099 0.93037 0.09746 0.0
C2319 C 0.67728 0.94516 0.08775 0.0
H2320 H 0.06277 0.69384 0.07955 0.0
H2321 H 0.01139 0.70107 0.09977 0.0
H2322 H 0.03635 0.73347 0.12421 0.0
H2323 H 0.0733 0.76112 0.13779 0.0
H2324 H 0.12412 0.75332 0.11645 0.0
H2325 H 0.09876 0.71952 0.09467 0.0
C2326 C 0.05696 0.70238 0.08941 0.0
C2327 C 0.03536 0.69528 0.08773 0.0
C2328 C 0.07132 0.72088 0.10321 0.0
C2329 C 0.02802 0.70633 0.10079 0.0
C2330 C 0.04228 0.72486 0.11467 0.0
C2331 C 0.07874 0.75191 0.12844 0.0
C2332 C 0.10054 0.75969 0.12875 0.0
C2333 C 0.06404 0.73253 0.11569 0.0
C2334 C 0.10741 0.74753 0.11674 0.0
C2335 C 0.09295 0.72829 0.10414 0.0
H2336 H 0.31093 0.33942 0.04819 0.0
H2337 H 0.32756 0.40413 0.0334 0.0
H2338 H 0.30099 0.40282 0.0568 0.0
H2339 H 0.2724 0.3827 0.08079 0.0
H2340 H 0.25628 0.31797 0.09506 0.0
H2341 H 0.28319 0.3198 0.07226 0.0
C2342 C 0.30884 0.35332 0.0501 0.0
C2343 C 0.32119 0.37185 0.03906 0.0
C2344 C 0.29352 0.35236 0.06336 0.0
C2345 C 0.31824 0.38967 0.04173 0.0
C2346 C 0.30304 0.3889 0.05508 0.0
C2347 C 0.27492 0.36908 0.07902 0.0
C2348 C 0.26226 0.35016 0.08951 0.0
C2349 C 0.29051 0.37026 0.06588 0.0
C2350 C 0.26555 0.33256 0.08689 0.0
C2351 C 0.28103 0.33364 0.07397 0.0
H2352 H 0.69219 0.66185 0.4078 0.0
H2353 H 0.73833 0.71547 0.37461 0.0
H2354 H 0.76704 0.71676 0.3967 0.0
H2355 H 0.77893 0.70176 0.42474 0.0
H2356 H 0.73248 0.64748 0.45692 0.0
H2357 H 0.7039 0.64734 0.43592 0.0
C2358 C 0.70852 0.67389 0.40541 0.0
C2359 C 0.71312 0.68853 0.38956 0.0
C2360 C 0.72485 0.67439 0.41799 0.0
C2361 C 0.73437 0.704 0.38668 0.0
C2362 C 0.75078 0.70475 0.39931 0.0
C2363 C 0.76253 0.6901 0.42729 0.0
C2364 C 0.75775 0.67467 0.44236 0.0
C2365 C 0.7462 0.68993 0.41494 0.0
C2366 C 0.73649 0.65941 0.44532 0.0
C2367 C 0.72018 0.65935 0.43335 0.0
H2368 H 0.35899 0.03037 0.45317 0.0
H2369 H 0.2938 0.01097 0.43886 0.0
H2370 H 0.29932 0.04283 0.46127 0.0
H2371 H 0.32333 0.07809 0.48071 0.0
H2372 H 0.3889 0.09907 0.49545 0.0
H2373 H 0.3827 0.06485 0.47667 0.0
C2374 C 0.34596 0.03296 0.45542 0.0
C2375 C 0.32608 0.01854 0.44427 0.0
C2376 C 0.3494 0.05175 0.46796 0.0
C2377 C 0.3093 0.02202 0.44709 0.0
C2378 C 0.31244 0.04024 0.45987 0.0
C2379 C 0.33621 0.07503 0.48051 0.0
C2380 C 0.35654 0.09115 0.48956 0.0
C2381 C 0.33255 0.05553 0.46977 0.0
C2382 C 0.37312 0.08703 0.48841 0.0
C2383 C 0.36956 0.06743 0.47777 0.0
H2384 H 0.99264 0.27167 0.37611 0.0
H2385 H 0.01192 0.33152 0.41609 0.0
H2386 H 0.98012 0.31264 0.43551 0.0
H2387 H 0.94614 0.27956 0.44026 0.0
H2388 H 0.92679 0.21943 0.40101 0.0
H2389 H 0.95927 0.23794 0.38213 0.0
C2390 C 0.98995 0.2805 0.38921 0.0
C2391 C 0.00453 0.30297 0.39455 0.0
C2392 C 0.97154 0.26956 0.40028 0.0
C2393 C 0.0009 0.31421 0.4116 0.0
C2394 C 0.98268 0.30347 0.42268 0.0
C2395 C 0.94903 0.2706 0.42746 0.0
C2396 C 0.93409 0.24833 0.42176 0.0
C2397 C 0.96775 0.28125 0.41694 0.0
C2398 C 0.93812 0.23666 0.40555 0.0
C2399 C 0.95665 0.24722 0.39479 0.0
H2400 H 0.01355 0.3566 0.32422 0.0
H2401 H 0.0798 0.40407 0.34089 0.0
H2402 H 0.07581 0.43203 0.32435 0.0
H2403 H 0.05322 0.44264 0.30486 0.0
H2404 H 0.98705 0.39426 0.28859 0.0
H2405 H 0.99126 0.36704 0.30566 0.0
C2406 C 0.02721 0.37304 0.32423 0.0
C2407 C 0.047 0.37822 0.33365 0.0
C2408 C 0.02474 0.38889 0.31493 0.0
C2409 C 0.06442 0.39966 0.33368 0.0
C2410 C 0.06212 0.41562 0.32425 0.0
C2411 C 0.03975 0.42613 0.30506 0.0
C2412 C 0.0198 0.42056 0.29556 0.0
C2413 C 0.04232 0.41039 0.31478 0.0
C2414 C 0.00247 0.39914 0.29611 0.0
C2415 C 0.0049 0.38348 0.3057 0.0
H2416 H 0.64643 0.62345 0.30857 0.0
H2417 H 0.60177 0.63174 0.34461 0.0
H2418 H 0.57261 0.59767 0.32655 0.0
H2419 H 0.55962 0.56551 0.30096 0.0
H2420 H 0.60327 0.55667 0.26383 0.0
H2421 H 0.63304 0.59074 0.28219 0.0
C2422 C 0.63031 0.61777 0.3124 0.0
C2423 C 0.62629 0.63013 0.32787 0.0
C2424 C 0.61345 0.59804 0.30189 0.0
C2425 C 0.60533 0.62259 0.33273 0.0
C2426 C 0.5886 0.60307 0.32244 0.0
C2427 C 0.57562 0.57115 0.29665 0.0
C2428 C 0.57922 0.55871 0.28093 0.0
C2429 C 0.59248 0.59071 0.30702 0.0
C2430 C 0.60011 0.56593 0.27598 0.0
C2431 C 0.6171 0.58545 0.28638 0.0
H2432 H 0.34168 0.94222 0.35965 0.0
H2433 H 0.37887 0.01184 0.37787 0.0
H2434 H 0.40642 0.01522 0.35505 0.0
H2435 H 0.41934 0.99874 0.32904 0.0
H2436 H 0.38061 0.92975 0.30754 0.0
H2437 H 0.35459 0.92569 0.33282 0.0
C2438 C 0.35595 0.95804 0.35875 0.0
C2439 C 0.35836 0.97674 0.37043 0.0
C2440 C 0.37144 0.95998 0.34499 0.0
C2441 C 0.37671 0.99723 0.36895 0.0
C2442 C 0.39245 0.99918 0.35591 0.0
C2443 C 0.40511 0.98283 0.3296 0.0
C2444 C 0.40204 0.96463 0.31623 0.0
C2445 C 0.38984 0.98073 0.34362 0.0
C2446 C 0.38367 0.94405 0.31777 0.0
C2447 C 0.36864 0.94172 0.33214 0.0
H2448 H 0.59657 0.94892 0.34472 0.0
H2449 H 0.6475 0.01276 0.33157 0.0
H2450 H 0.62403 0.01581 0.3058 0.0
H2451 H 0.58894 0.00109 0.28751 0.0
H2452 H 0.5375 0.93757 0.30028 0.0
H2453 H 0.56124 0.93352 0.32523 0.0
C2454 C 0.6025 0.96344 0.33616 0.0
C2455 C 0.62376 0.9806 0.34021 0.0
C2456 C 0.58884 0.96516 0.32116 0.0
C2457 C 0.63122 0.99928 0.32888 0.0
C2458 C 0.6178 0.00109 0.31408 0.0
C2459 C 0.58293 0.98636 0.29577 0.0
C2460 C 0.5615 0.96971 0.29207 0.0
C2461 C 0.59658 0.98424 0.3102 0.0
C2462 C 0.55401 0.95056 0.30265 0.0
C2463 C 0.56754 0.94831 0.31706 0.0
H2464 H 0.0436 0.66584 0.29183 0.0
H2465 H 0.97712 0.63712 0.30006 0.0
H2466 H 0.96945 0.60287 0.27988 0.0
H2467 H 0.98266 0.58002 0.26466 0.0
H2468 H 0.04909 0.61021 0.25395 0.0
H2469 H 0.05582 0.64511 0.27053 0.0
C2470 C 0.0274 0.65225 0.2887 0.0
C2471 C 0.01094 0.65373 0.29741 0.0
C2472 C 0.0232 0.63285 0.27709 0.0
C2473 C 0.98997 0.6362 0.29329 0.0
C2474 C 0.98564 0.61663 0.28196 0.0
C2475 C 0.99853 0.59429 0.26535 0.0
C2476 C 0.01544 0.59216 0.25868 0.0
C2477 C 0.00227 0.61455 0.27443 0.0
C2478 C 0.03588 0.61102 0.25978 0.0
C2479 C 0.03975 0.6311 0.26907 0.0
H2480 H 0.34161 0.33637 0.33092 0.0
H2481 H 0.34472 0.39271 0.36447 0.0
H2482 H 0.37562 0.41705 0.34535 0.0
H2483 H 0.4021 0.4221 0.31952 0.0
H2484 H 0.39891 0.36534 0.28687 0.0
H2485 H 0.3678 0.3413 0.30554 0.0
C2486 C 0.34894 0.35398 0.33399 0.0
C2487 C 0.34088 0.36276 0.34902 0.0
C2488 C 0.3668 0.36775 0.32328 0.0
C2489 C 0.35066 0.38559 0.35294 0.0
C2490 C 0.36833 0.39948 0.34205 0.0
C2491 C 0.39451 0.40446 0.31648 0.0
C2492 C 0.40282 0.39549 0.30192 0.0
C2493 C 0.3766 0.39072 0.32727 0.0
C2494 C 0.393 0.37262 0.29825 0.0
C2495 C 0.37512 0.35888 0.30878 0.0
H2496 H 0.33525 0.29944 0.39516 0.0
H2497 H 0.27042 0.25991 0.41057 0.0
H2498 H 0.27872 0.23483 0.42734 0.0
H2499 H 0.30543 0.22657 0.44042 0.0
H2500 H 0.36974 0.26528 0.42251 0.0
H2501 H 0.36061 0.28844 0.40391 0.0
C2502 C 0.3229 0.28519 0.40204 0.0
C2503 C 0.30237 0.28156 0.40202 0.0
C2504 C 0.32775 0.27091 0.4113 0.0
C2505 C 0.28635 0.26293 0.41052 0.0
C2506 C 0.29114 0.24872 0.42015 0.0
C2507 C 0.31735 0.23971 0.43201 0.0
C2508 C 0.33839 0.24438 0.43328 0.0
C2509 C 0.31192 0.25283 0.42101 0.0
C2510 C 0.3536 0.26164 0.42236 0.0
C2511 C 0.34837 0.27484 0.4116 0.0
H2512 H 0.68237 0.04783 0.41151 0.0
H2513 H 0.70821 0.01081 0.43551 0.0
H2514 H 0.73534 0.04309 0.45834 0.0
H2515 H 0.75446 0.08264 0.46742 0.0
H2516 H 0.73158 0.12096 0.43989 0.0
H2517 H 0.70022 0.08748 0.42306 0.0
C2518 C 0.69365 0.04684 0.42222 0.0
C2519 C 0.69343 0.02716 0.42204 0.0
C2520 C 0.70983 0.06577 0.43446 0.0
C2521 C 0.70821 0.0259 0.43553 0.0
C2522 C 0.72373 0.04434 0.44848 0.0
C2523 C 0.74258 0.08368 0.45779 0.0
C2524 C 0.74557 0.10427 0.45454 0.0
C2525 C 0.72518 0.06452 0.4474 0.0
C2526 C 0.72969 0.10531 0.44263 0.0
C2527 C 0.71184 0.08617 0.43285 0.0
H2528 H 0.96405 0.66671 0.36413 0.0
H2529 H 0.00311 0.73654 0.38015 0.0
H2530 H 0.97638 0.73554 0.4032 0.0
H2531 H 0.9428 0.71426 0.42015 0.0
H2532 H 0.90266 0.64478 0.40117 0.0
H2533 H 0.92915 0.64619 0.37815 0.0
C2534 C 0.96665 0.68173 0.37261 0.0
C2535 C 0.98552 0.70163 0.37069 0.0
C2536 C 0.95115 0.68104 0.38544 0.0
C2537 C 0.98863 0.72104 0.38142 0.0
C2538 C 0.97341 0.72043 0.39464 0.0
C2539 C 0.93959 0.69946 0.41071 0.0
C2540 C 0.92079 0.67935 0.41284 0.0
C2541 C 0.95469 0.70045 0.39693 0.0
C2542 C 0.91719 0.66038 0.40051 0.0
C2543 C 0.93226 0.66118 0.38713 0.0
H2544 H 0.36931 0.00507 0.74359 0.0
H2545 H 0.41513 0.05606 0.70761 0.0
H2546 H 0.444 0.0574 0.72944 0.0
H2547 H 0.45601 0.04314 0.75789 0.0
H2548 H 0.40996 0.99334 0.79488 0.0
H2549 H 0.38133 0.99229 0.77323 0.0
C2550 C 0.38562 0.01649 0.7405 0.0
C2551 C 0.39009 0.03033 0.72391 0.0
C2552 C 0.40206 0.0173 0.7532 0.0
C2553 C 0.41129 0.04521 0.72028 0.0
C2554 C 0.42778 0.04596 0.73273 0.0
C2555 C 0.43975 0.03231 0.7615 0.0
C2556 C 0.43521 0.01826 0.77798 0.0
C2557 C 0.42333 0.03199 0.74917 0.0
C2558 C 0.41395 0.00407 0.78209 0.0
C2559 C 0.39755 0.00354 0.76979 0.0
H2560 H 0.95738 0.33666 0.75525 0.0
H2561 H 0.01822 0.3491 0.77954 0.0
H2562 H 0.02457 0.38196 0.80159 0.0
H2563 H 0.01366 0.40861 0.81144 0.0
H2564 H 0.95255 0.39513 0.7864 0.0
H2565 H 0.94533 0.36097 0.76723 0.0
C2566 C 0.97197 0.34642 0.76549 0.0
C2567 C 0.98744 0.34071 0.7656 0.0
C2568 C 0.97544 0.3651 0.7779 0.0
C2569 C 0.00611 0.35328 0.77922 0.0
C2570 C 0.00977 0.37208 0.79169 0.0
C2571 C 0.99875 0.39806 0.80188 0.0
C2572 C 0.98367 0.40435 0.80026 0.0
C2573 C 0.99471 0.37841 0.79076 0.0
C2574 C 0.96429 0.39051 0.78805 0.0
C2575 C 0.9602 0.37106 0.77698 0.0
H2576 H 0.66326 0.65357 0.73799 0.0
H2577 H 0.65033 0.59331 0.70314 0.0
H2578 H 0.61808 0.57278 0.72195 0.0
H2579 H 0.59295 0.57233 0.74725 0.0
H2580 H 0.60631 0.63295 0.78177 0.0
H2581 H 0.63884 0.65307 0.76365 0.0
C2582 C 0.6535 0.63591 0.73459 0.0
C2583 C 0.65916 0.62496 0.71919 0.0
C2584 C 0.63491 0.62436 0.74514 0.0
C2585 C 0.64631 0.6021 0.71496 0.0
C2586 C 0.62785 0.59039 0.72563 0.0
C2587 C 0.60306 0.58993 0.75091 0.0
C2588 C 0.59712 0.60113 0.76575 0.0
C2589 C 0.62188 0.6014 0.74057 0.0
C2590 C 0.61028 0.62397 0.77012 0.0
C2591 C 0.62899 0.63547 0.75993 0.0
H2592 H 0.72621 0.71977 0.64837 0.0
H2593 H 0.66513 0.68359 0.67399 0.0
H2594 H 0.65542 0.7088 0.661 0.0
H2595 H 0.66364 0.74017 0.64144 0.0
H2596 H 0.72285 0.77404 0.61161 0.0
H2597 H 0.73412 0.75123 0.6276 0.0
C2598 C 0.7109 0.71765 0.6512 0.0
C2599 C 0.69639 0.69999 0.66209 0.0
C2600 C 0.70509 0.73181 0.64298 0.0
C2601 C 0.67648 0.69709 0.66551 0.0
C2602 C 0.67092 0.71148 0.65813 0.0
C2603 C 0.67892 0.74247 0.63813 0.0
C2604 C 0.69226 0.75889 0.62525 0.0
C2605 C 0.68497 0.72871 0.64659 0.0
C2606 C 0.71227 0.76185 0.62175 0.0
C2607 C 0.71871 0.74864 0.63073 0.0
H2608 H 0.28167 0.97549 0.6649 0.0
H2609 H 0.33338 0.9742 0.63641 0.0
H2610 H 0.30808 0.94113 0.61293 0.0
H2611 H 0.27095 0.9118 0.60154 0.0
H2612 H 0.21992 0.91416 0.63053 0.0
H2613 H 0.2453 0.9477 0.65273 0.0
C2614 C 0.28746 0.96808 0.65348 0.0
C2615 C 0.30933 0.97717 0.65246 0.0
C2616 C 0.27292 0.94924 0.64015 0.0
C2617 C 0.31657 0.96746 0.63748 0.0
C2618 C 0.30212 0.94854 0.62412 0.0
C2619 C 0.26549 0.91975 0.6127 0.0
C2620 C 0.24363 0.91062 0.61433 0.0
C2621 C 0.28023 0.93914 0.62549 0.0
C2622 C 0.23667 0.92107 0.62877 0.0
C2623 C 0.25115 0.94017 0.64156 0.0
H2624 H 0.04064 0.32828 0.7072 0.0
H2625 H 0.00261 0.25906 0.68738 0.0
H2626 H 0.03076 0.26163 0.66559 0.0
H2627 H 0.065 0.28434 0.65026 0.0
H2628 H 0.10412 0.35302 0.67331 0.0
H2629 H 0.07647 0.3499 0.6955 0.0
C2630 C 0.03863 0.31373 0.69824 0.0
C2631 C 0.01963 0.29357 0.69862 0.0
C2632 C 0.05491 0.31531 0.68613 0.0
C2633 C 0.0172 0.27474 0.68729 0.0
C2634 C 0.03322 0.27625 0.67477 0.0
C2635 C 0.06777 0.29857 0.66044 0.0
C2636 C 0.0866 0.31903 0.65958 0.0
C2637 C 0.05202 0.29656 0.67381 0.0
C2638 C 0.0896 0.33723 0.6729 0.0
C2639 C 0.07385 0.33545 0.68584 0.0
H2640 H 0.27068 0.29066 0.68945 0.0
H2641 H 0.32673 0.34761 0.67077 0.0
H2642 H 0.30531 0.35306 0.64428 0.0
H2643 H 0.27051 0.34257 0.62724 0.0
H2644 H 0.21435 0.28597 0.6461 0.0
H2645 H 0.23591 0.27935 0.67138 0.0
C2646 C 0.27821 0.30417 0.67948 0.0
C2647 C 0.30027 0.31874 0.6822 0.0
C2648 C 0.26576 0.3073 0.66425 0.0
C2649 C 0.30977 0.33615 0.6691 0.0
C2650 C 0.29753 0.33932 0.65393 0.0
C2651 C 0.26302 0.32878 0.63688 0.0
C2652 C 0.24087 0.31478 0.63473 0.0
C2653 C 0.27549 0.32516 0.65153 0.0
C2654 C 0.2314 0.29684 0.64719 0.0
C2655 C 0.2437 0.29312 0.66178 0.0
H2656 H 0.71133 0.00248 0.62611 0.0
H2657 H 0.64588 0.97891 0.63589 0.0
H2658 H 0.63561 0.94263 0.61864 0.0
H2659 H 0.64617 0.91693 0.6047 0.0
H2660 H 0.71154 0.94212 0.59202 0.0
H2661 H 0.72094 0.97855 0.60663 0.0
C2662 C 0.69478 0.9895 0.62409 0.0
C2663 C 0.67938 0.99311 0.63237 0.0
C2664 C 0.68907 0.96896 0.61399 0.0
C2665 C 0.65796 0.97636 0.62952 0.0
C2666 C 0.65214 0.95563 0.61982 0.0
C2667 C 0.66239 0.93042 0.60464 0.0
C2668 C 0.67822 0.92649 0.59794 0.0
C2669 C 0.66767 0.9516 0.61253 0.0
C2670 C 0.69914 0.94435 0.59794 0.0
C2671 C 0.70455 0.9653 0.6061 0.0
H2672 H 0.02518 0.69105 0.68789 0.0
H2673 H 0.00468 0.73709 0.68362 0.0
H2674 H 0.03535 0.76024 0.66351 0.0
H2675 H 0.06693 0.76625 0.64605 0.0
H2676 H 0.08949 0.72212 0.65434 0.0
H2677 H 0.05873 0.69908 0.6737 0.0
C2678 C 0.02749 0.70619 0.68254 0.0
C2679 C 0.01272 0.71235 0.68688 0.0
C2680 C 0.04537 0.71959 0.67164 0.0
C2681 C 0.01594 0.73212 0.68034 0.0
C2682 C 0.0334 0.74526 0.66885 0.0
C2683 C 0.06553 0.75191 0.65247 0.0
C2684 C 0.08059 0.74593 0.64836 0.0
C2685 C 0.04816 0.73908 0.66432 0.0
C2686 C 0.07799 0.72694 0.6566 0.0
C2687 C 0.06046 0.71379 0.66789 0.0
H2688 H 0.95039 0.60712 0.72219 0.0
H2689 H 0.98966 0.65853 0.77262 0.0
H2690 H 0.99706 0.63374 0.79053 0.0
H2691 H 0.99369 0.59815 0.79118 0.0
H2692 H 0.95577 0.54672 0.74038 0.0
H2693 H 0.94636 0.57072 0.72337 0.0
C2694 C 0.96033 0.61274 0.73723 0.0
C2695 C 0.9695 0.63459 0.74606 0.0
C2696 C 0.96491 0.59849 0.74726 0.0
C2697 C 0.9825 0.64179 0.76546 0.0
C2698 C 0.98678 0.62766 0.7757 0.0
C2699 C 0.98357 0.59226 0.77624 0.0
C2700 C 0.9757 0.57083 0.76687 0.0
C2701 C 0.97839 0.60613 0.76655 0.0
C2702 C 0.96206 0.5632 0.74788 0.0
C2703 C 0.95671 0.57692 0.73815 0.0
H2704 H 0.35128 0.38173 0.75782 0.0
H2705 H 0.38611 0.3514 0.77576 0.0
H2706 H 0.41276 0.38514 0.79696 0.0
H2707 H 0.42828 0.42419 0.80669 0.0
H2708 H 0.39611 0.45624 0.78524 0.0
H2709 H 0.36608 0.42095 0.76966 0.0
C2710 C 0.36448 0.38248 0.76682 0.0
C2711 C 0.36682 0.36423 0.76534 0.0
C2712 C 0.38031 0.40231 0.77815 0.0
C2713 C 0.38407 0.36531 0.7767 0.0
C2714 C 0.39934 0.38461 0.78875 0.0
C2715 C 0.41471 0.42349 0.79859 0.0
C2716 C 0.41464 0.44287 0.79677 0.0
C2717 C 0.398 0.40339 0.78893 0.0
C2718 C 0.39661 0.44157 0.78687 0.0
C2719 C 0.37949 0.42141 0.77781 0.0
H2720 H 0.65146 0.01523 0.71553 0.0
H2721 H 0.66639 0.07852 0.69766 0.0
H2722 H 0.63986 0.07763 0.72083 0.0
H2723 H 0.61174 0.05824 0.74552 0.0
H2724 H 0.59675 0.99459 0.76232 0.0
H2725 H 0.62393 0.99618 0.74004 0.0
C2726 C 0.64902 0.02891 0.71675 0.0
C2727 C 0.66089 0.04693 0.70492 0.0
C2728 C 0.63363 0.02814 0.7298 0.0
C2729 C 0.65743 0.06445 0.70661 0.0
C2730 C 0.64226 0.06394 0.71983 0.0
C2731 C 0.61456 0.04481 0.74437 0.0
C2732 C 0.6022 0.02627 0.75544 0.0
C2733 C 0.63018 0.04578 0.73141 0.0
C2734 C 0.60586 0.00889 0.7537 0.0
C2735 C 0.62146 0.00983 0.74107 0.0
loop_
_geom_bond_atom_site_label_1
_geom_bond_atom_site_label_2
_geom_bond_distance
_geom_bond_site_symmetry_2
_ccdc_geom_bond_type
Co0 O1 2.216 . S
Co0 O2 2.091 . S
Co0 O4 2.026 . S
Co0 O10 2.021 . S
Co0 O12 2.137 1_455 S
Co0 O13 2.244 1_455 S
O1 Co0 2.216 . S
O1 C8 1.247 . S
O2 Co0 2.091 . S
O2 C8 1.261 . S
C3 O12 1.247 . S
C3 O13 1.272 . S
O4 Co0 2.026 . S
O4 C9 1.251 1_554 S
Co5 O6 2.054 1_554 S
Co5 O11 2.052 . S
Co5 O13 2.135 . S
O6 Co5 2.054 1_556 S
O6 C9 1.239 1_655 S
C7 O10 1.238 1_655 S
C7 O11 1.241 . S
C8 O1 1.247 . S
C8 O2 1.261 . S
C9 O4 1.251 1_556 S
C9 O6 1.239 1_455 S
O10 Co0 2.021 . S
O10 C7 1.238 1_455 S
O11 Co5 2.052 . S
O11 C7 1.241 . S
O12 Co0 2.137 1_655 S
O12 C3 1.247 . S
O13 Co0 2.244 1_655 S
O13 C3 1.272 . S
O13 Co5 2.135 . S
Co14 O15 2.216 . S
Co14 O16 2.091 . S
Co14 O18 2.004 . S
Co14 O24 2.021 . S
Co14 O26 2.137 . S
Co14 O27 2.244 . S
O15 Co14 2.216 . S
O15 C22 1.247 . S
O16 Co14 2.091 . S
O16 C22 1.261 . S
C17 O26 1.247 . S
C17 O27 1.272 . S
O18 Co14 2.004 . S
O18 C23 1.259 . S
Co19 O20 2.061 . S
Co19 O25 2.052 . S
Co19 O27 2.135 . S
O20 Co19 2.061 . S
O20 C23 1.235 . S
C21 O24 1.238 . S
C21 O25 1.241 . S
C22 O15 1.247 . S
C22 O16 1.261 . S
C23 O18 1.259 . S
C23 O20 1.235 . S
O24 Co14 2.021 . S
O24 C21 1.238 . S
O25 Co19 2.052 . S
O25 C21 1.241 . S
O26 Co14 2.137 . S
O26 C17 1.247 . S
O27 Co14 2.244 . S
O27 C17 1.272 . S
O27 Co19 2.135 . S
Co28 O29 2.216 . S
Co28 O30 2.091 . S
Co28 O32 2.004 . S
Co28 O38 2.021 . S
Co28 O40 2.137 1_545 S
Co28 O41 2.244 1_545 S
O29 Co28 2.216 . S
O29 C36 1.247 . S
O30 Co28 2.091 . S
O30 C36 1.261 . S
C31 O40 1.247 . S
C31 O41 1.272 . S
O32 Co28 2.004 . S
O32 C37 1.259 . S
Co33 O34 2.061 . S
Co33 O39 2.052 . S
Co33 O41 2.135 . S
O34 Co33 2.061 . S
O34 C37 1.235 1_565 S
C35 O38 1.238 1_566 S
C35 O39 1.241 1_556 S
C36 O29 1.247 . S
C36 O30 1.261 . S
C37 O32 1.259 . S
C37 O34 1.235 1_545 S
O38 Co28 2.021 . S
O38 C35 1.238 1_544 S
O39 Co33 2.052 . S
O39 C35 1.241 1_554 S
O40 Co28 2.137 1_565 S
O40 C31 1.247 . S
O41 Co28 2.244 1_565 S
O41 C31 1.272 . S
O41 Co33 2.135 . S
Co42 O43 2.216 . S
Co42 O44 2.091 . S
Co42 O46 2.004 . S
Co42 O52 2.021 . S
Co42 O54 2.137 1_655 S
Co42 O55 2.244 1_655 S
O43 Co42 2.216 . S
O43 C50 1.247 . S
O44 Co42 2.091 . S
O44 C50 1.261 . S
C45 O54 1.247 . S
C45 O55 1.272 . S
O46 Co42 2.004 . S
O46 C51 1.317 . S
Co47 O48 2.061 . S
Co47 O53 2.052 . S
Co47 O55 2.135 . S
O48 Co47 2.061 . S
O48 C51 1.174 1_455 S
C49 O52 1.238 1_455 S
C49 O53 1.241 . S
C50 O43 1.247 . S
C50 O44 1.261 . S
C51 O46 1.317 . S
C51 O48 1.174 1_655 S
O52 Co42 2.021 . S
O52 C49 1.238 1_655 S
O53 Co47 2.052 . S
O53 C49 1.241 . S
O54 Co42 2.137 1_455 S
O54 C45 1.247 . S
O55 Co42 2.244 1_455 S
O55 C45 1.272 . S
O55 Co47 2.135 . S
Co56 O57 2.216 . S
Co56 O58 2.091 . S
Co56 O60 2.004 1_554 S
Co56 O66 2.021 . S
Co56 O68 2.137 1_554 S
Co56 O69 2.244 1_554 S
O57 Co56 2.216 . S
O57 C64 1.247 . S
O58 Co56 2.091 . S
O58 C64 1.261 . S
C59 O68 1.247 . S
C59 O69 1.272 . S
O60 Co56 2.004 1_556 S
O60 C65 1.259 . S
Co61 O62 2.061 . S
Co61 O67 2.052 1_556 S
Co61 O69 2.135 . S
O62 Co61 2.061 . S
O62 C65 1.235 . S
C63 O66 1.238 . S
C63 O67 1.241 . S
C64 O57 1.247 . S
C64 O58 1.261 . S
C65 O60 1.259 . S
C65 O62 1.235 . S
O66 Co56 2.021 . S
O66 C63 1.238 . S
O67 Co61 2.052 1_554 S
O67 C63 1.241 . S
O68 Co56 2.137 1_556 S
O68 C59 1.247 . S
O69 Co56 2.244 1_556 S
O69 C59 1.272 . S
O69 Co61 2.135 . S
Co70 O71 2.216 . S
Co70 O72 2.091 . S
Co70 O74 2.004 . S
Co70 O80 2.021 . S
Co70 O82 2.137 1_565 S
Co70 O83 2.244 1_565 S
O71 Co70 2.216 . S
O71 C78 1.247 . S
O72 Co70 2.091 . S
O72 C78 1.261 . S
C73 O82 1.247 . S
C73 O83 1.272 . S
O74 Co70 2.004 . S
O74 C79 1.259 . S
Co75 O76 2.061 . S
Co75 O81 2.052 . S
Co75 O83 2.135 . S
O76 Co75 2.061 . S
O76 C79 1.235 1_545 S
C77 O80 1.238 1_545 S
C77 O81 1.241 . S
C78 O71 1.247 . S
C78 O72 1.261 . S
C79 O74 1.259 . S
C79 O76 1.235 1_565 S
O80 Co70 2.021 . S
O80 C77 1.238 1_565 S
O81 Co75 2.052 . S
O81 C77 1.241 . S
O82 Co70 2.137 1_545 S
O82 C73 1.247 . S
O83 Co70 2.244 1_545 S
O83 C73 1.272 . S
O83 Co75 2.135 . S
Co84 O85 2.216 . S
Co84 O86 2.091 . S
Co84 O88 2.004 . S
Co84 O94 2.021 . S
Co84 O96 2.137 . S
Co84 O97 2.244 . S
O85 Co84 2.216 . S
O85 C92 1.247 . S
O86 Co84 2.091 . S
O86 C92 1.261 . S
C87 O96 1.247 . S
C87 O97 1.272 . S
O88 Co84 2.004 . S
O88 C93 1.259 . S
Co89 O90 2.061 . S
Co89 O95 2.052 . S
Co89 O97 2.135 . S
O90 Co89 2.061 . S
O90 C93 1.235 . S
C91 O94 1.238 . S
C91 O95 1.241 . S
C92 O85 1.247 . S
C92 O86 1.261 . S
C93 O88 1.259 . S
C93 O90 1.235 . S
O94 Co84 2.021 . S
O94 C91 1.238 . S
O95 Co89 2.052 . S
O95 C91 1.241 . S
O96 Co84 2.137 . S
O96 C87 1.247 . S
O97 Co84 2.244 . S
O97 C87 1.272 . S
O97 Co89 2.135 . S
Co98 O99 2.216 . S
Co98 O100 2.091 . S
Co98 O102 2.004 . S
Co98 O108 2.021 . S
Co98 O110 2.137 . S
Co98 O111 2.244 . S
O99 Co98 2.216 . S
O99 C106 1.247 . S
O100 Co98 2.091 . S
O100 C106 1.261 . S
C101 O110 1.247 . S
C101 O111 1.272 . S
O102 Co98 2.004 . S
O102 C107 1.259 . S
Co103 O104 2.061 . S
Co103 O109 2.052 . S
Co103 O111 2.135 . S
O104 Co103 2.061 . S
O104 C107 1.235 . S
C105 O108 1.238 . S
C105 O109 1.241 . S
C106 O99 1.247 . S
C106 O100 1.261 . S
C107 O102 1.259 . S
C107 O104 1.235 . S
O108 Co98 2.021 . S
O108 C105 1.238 . S
O109 Co103 2.052 . S
O109 C105 1.241 . S
O110 Co98 2.137 . S
O110 C101 1.247 . S
O111 Co98 2.244 . S
O111 C101 1.272 . S
O111 Co103 2.135 . S
Co112 O113 2.216 . S
Co112 O114 2.091 . S
Co112 O116 2.004 . S
Co112 O122 2.021 . S
Co112 O124 2.137 . S
Co112 O125 2.244 . S
O113 Co112 2.216 . S
O113 C120 1.247 . S
O114 Co112 2.091 . S
O114 C120 1.261 . S
C115 O124 1.247 . S
C115 O125 1.272 . S
O116 Co112 2.004 . S
O116 C121 1.259 . S
Co117 O118 2.061 . S
Co117 O123 2.052 . S
Co117 O125 2.135 . S
O118 Co117 2.061 . S
O118 C121 1.235 . S
C119 O122 1.238 . S
C119 O123 1.241 . S
C120 O113 1.247 . S
C120 O114 1.261 . S
C121 O116 1.259 . S
C121 O118 1.235 . S
O122 Co112 2.021 . S
O122 C119 1.238 . S
O123 Co117 2.052 . S
O123 C119 1.241 . S
O124 Co112 2.137 . S
O124 C115 1.247 . S
O125 Co112 2.244 . S
O125 C115 1.272 . S
O125 Co117 2.135 . S
Co126 O127 2.216 . S
Co126 O128 2.091 . S
Co126 O130 2.004 . S
Co126 O136 2.021 . S
Co126 O138 2.137 . S
Co126 O139 2.244 . S
O127 Co126 2.216 . S
O127 C134 1.247 . S
O128 Co126 2.091 . S
O128 C134 1.261 . S
C129 O138 1.254 1_545 S
C129 O139 1.251 1_545 S
O130 Co126 2.004 . S
O130 C135 1.259 . S
Co131 O132 2.061 . S
Co131 O137 2.052 . S
Co131 O139 2.135 . S
O132 Co131 2.061 . S
O132 C135 1.235 . S
C133 O136 1.238 . S
C133 O137 1.241 . S
C134 O127 1.247 . S
C134 O128 1.261 . S
C135 O130 1.259 . S
C135 O132 1.235 . S
O136 Co126 2.021 . S
O136 C133 1.238 . S
O137 Co131 2.052 . S
O137 C133 1.241 . S
O138 Co126 2.137 . S
O138 C129 1.254 1_565 S
O139 Co126 2.244 . S
O139 C129 1.251 1_565 S
O139 Co131 2.135 . S
Co140 O141 2.216 . S
Co140 O142 2.091 . S
Co140 O144 2.004 . S
Co140 O150 2.021 . S
Co140 O152 2.137 . S
Co140 O153 2.244 . S
O141 Co140 2.216 . S
O141 C148 1.247 1_455 S
O142 Co140 2.091 . S
O142 C148 1.261 1_455 S
C143 O152 1.247 . S
C143 O153 1.272 . S
O144 Co140 2.004 . S
O144 C149 1.259 . S
Co145 O146 2.061 . S
Co145 O151 2.052 . S
Co145 O153 2.135 . S
O146 Co145 2.061 . S
O146 C149 1.235 . S
C147 O150 1.238 . S
C147 O151 1.241 . S
C148 O141 1.247 1_655 S
C148 O142 1.261 1_655 S
C149 O144 1.259 . S
C149 O146 1.235 . S
O150 Co140 2.021 . S
O150 C147 1.238 . S
O151 Co145 2.052 . S
O151 C147 1.241 . S
O152 Co140 2.137 . S
O152 C143 1.247 . S
O153 Co140 2.244 . S
O153 C143 1.272 . S
O153 Co145 2.135 . S
Co154 O155 2.216 . S
Co154 O156 2.091 . S
Co154 O158 2.004 . S
Co154 O164 2.021 . S
Co154 O166 2.137 . S
Co154 O167 2.244 . S
O155 Co154 2.216 . S
O155 C162 1.247 . S
O156 Co154 2.091 . S
O156 C162 1.261 . S
C157 O166 1.247 . S
C157 O167 1.272 . S
O158 Co154 2.004 . S
O158 C163 1.259 . S
Co159 O160 2.061 . S
Co159 O165 2.052 . S
Co159 O167 2.135 . S
O160 Co159 2.061 . S
O160 C163 1.235 . S
C161 O164 1.238 . S
C161 O165 1.241 . S
C162 O155 1.247 . S
C162 O156 1.261 . S
C163 O158 1.259 . S
C163 O160 1.235 . S
O164 Co154 2.021 . S
O164 C161 1.238 . S
O165 Co159 2.052 . S
O165 C161 1.241 . S
O166 Co154 2.137 . S
O166 C157 1.247 . S
O167 Co154 2.244 . S
O167 C157 1.272 . S
O167 Co159 2.135 . S
Co168 O169 2.216 . S
Co168 O170 2.091 . S
Co168 O172 2.004 . S
Co168 O178 2.021 . S
Co168 O180 2.137 . S
Co168 O181 2.244 . S
O169 Co168 2.216 . S
O169 C176 1.247 . S
O170 Co168 2.091 . S
O170 C176 1.261 . S
C171 O180 1.247 . S
C171 O181 1.272 . S
O172 Co168 2.004 . S
O172 C177 1.259 . S
Co173 O174 2.061 . S
Co173 O179 2.052 . S
Co173 O181 2.135 . S
O174 Co173 2.061 . S
O174 C177 1.235 . S
C175 O178 1.238 . S
C175 O179 1.241 . S
C176 O169 1.247 . S
C176 O170 1.261 . S
C177 O172 1.259 . S
C177 O174 1.235 . S
O178 Co168 2.021 . S
O178 C175 1.238 . S
O179 Co173 2.052 . S
O179 C175 1.241 . S
O180 Co168 2.137 . S
O180 C171 1.247 . S
O181 Co168 2.244 . S
O181 C171 1.272 . S
O181 Co173 2.135 . S
Co182 O183 2.216 . S
Co182 O184 2.091 . S
Co182 O186 2.004 . S
Co182 O192 2.021 . S
Co182 O194 2.137 . S
Co182 O195 2.244 . S
O183 Co182 2.216 . S
O183 C190 1.247 1_655 S
O184 Co182 2.091 . S
O184 C190 1.261 1_655 S
C185 O194 1.247 . S
C185 O195 1.272 . S
O186 Co182 2.004 . S
O186 C191 1.259 . S
Co187 O188 2.061 . S
Co187 O193 2.052 . S
Co187 O195 2.135 . S
O188 Co187 2.061 . S
O188 C191 1.235 . S
C189 O192 1.238 . S
C189 O193 1.241 . S
C190 O183 1.247 1_455 S
C190 O184 1.261 1_455 S
C191 O186 1.259 . S
C191 O188 1.235 . S
O192 Co182 2.021 . S
O192 C189 1.238 . S
O193 Co187 2.052 . S
O193 C189 1.241 . S
O194 Co182 2.137 . S
O194 C185 1.247 . S
O195 Co182 2.244 . S
O195 C185 1.272 . S
O195 Co187 2.135 . S
Co196 O197 2.216 . S
Co196 O198 2.091 . S
Co196 O200 2.004 . S
Co196 O206 2.021 . S
Co196 O208 2.137 . S
Co196 O209 2.244 . S
O197 Co196 2.216 . S
O197 C204 1.247 . S
O198 Co196 2.091 . S
O198 C204 1.261 . S
C199 O208 1.247 . S
C199 O209 1.272 . S
O200 Co196 2.004 . S
O200 C205 1.259 . S
Co201 O202 2.061 . S
Co201 O207 2.052 . S
Co201 O209 2.135 . S
O202 Co201 2.061 . S
O202 C205 1.235 . S
C203 O206 1.238 . S
C203 O207 1.241 . S
C204 O197 1.247 . S
C204 O198 1.261 . S
C205 O200 1.259 . S
C205 O202 1.235 . S
O206 Co196 2.021 . S
O206 C203 1.238 . S
O207 Co201 2.052 . S
O207 C203 1.241 . S
O208 Co196 2.137 . S
O208 C199 1.247 . S
O209 Co196 2.244 . S
O209 C199 1.272 . S
O209 Co201 2.135 . S
Co210 O211 2.216 . S
Co210 O212 2.091 . S
Co210 O214 2.004 . S
Co210 O220 2.021 . S
Co210 O222 2.137 . S
Co210 O223 2.244 . S
O211 Co210 2.216 . S
O211 C218 1.247 . S
O212 Co210 2.091 . S
O212 C218 1.261 . S
C213 O222 1.247 . S
C213 O223 1.272 . S
O214 Co210 2.004 . S
O214 C219 1.259 . S
Co215 O216 2.061 . S
Co215 O221 2.052 . S
Co215 O223 2.135 . S
O216 Co215 2.061 . S
O216 C219 1.235 . S
C217 O220 1.238 . S
C217 O221 1.241 . S
C218 O211 1.247 . S
C218 O212 1.261 . S
C219 O214 1.259 . S
C219 O216 1.235 . S
O220 Co210 2.021 . S
O220 C217 1.238 . S
O221 Co215 2.052 . S
O221 C217 1.241 . S
O222 Co210 2.137 . S
O222 C213 1.247 . S
O223 Co210 2.244 . S
O223 C213 1.272 . S
O223 Co215 2.135 . S
Co224 O225 2.216 . S
Co224 O226 2.091 . S
Co224 O228 2.004 . S
Co224 O234 2.021 . S
Co224 O236 2.137 . S
Co224 O237 2.244 . S
O225 Co224 2.216 . S
O225 C232 1.247 . S
O226 Co224 2.091 . S
O226 C232 1.261 . S
C227 O236 1.247 . S
C227 O237 1.272 . S
O228 Co224 2.004 . S
O228 C233 1.259 . S
Co229 O230 2.061 . S
Co229 O235 2.052 . S
Co229 O237 2.135 . S
O230 Co229 2.061 . S
O230 C233 1.235 . S
C231 O234 1.238 . S
C231 O235 1.241 . S
C232 O225 1.247 . S
C232 O226 1.261 . S
C233 O228 1.259 . S
C233 O230 1.235 . S
O234 Co224 2.021 . S
O234 C231 1.238 . S
O235 Co229 2.052 . S
O235 C231 1.241 . S
O236 Co224 2.137 . S
O236 C227 1.247 . S
O237 Co224 2.244 . S
O237 C227 1.272 . S
O237 Co229 2.135 . S
Co238 O239 2.216 . S
Co238 O240 2.091 . S
Co238 O242 2.004 . S
Co238 O248 2.021 . S
Co238 O250 2.137 . S
Co238 O251 2.244 . S
O239 Co238 2.216 . S
O239 C246 1.247 . S
O240 Co238 2.091 . S
O240 C246 1.261 . S
C241 O250 1.247 . S
C241 O251 1.272 . S
O242 Co238 2.004 . S
O242 C247 1.259 . S
Co243 O244 2.061 . S
Co243 O249 2.052 . S
Co243 O251 2.135 . S
O244 Co243 2.061 . S
O244 C247 1.235 . S
C245 O248 1.238 . S
C245 O249 1.241 . S
C246 O239 1.247 . S
C246 O240 1.261 . S
C247 O242 1.259 . S
C247 O244 1.235 . S
O248 Co238 2.021 . S
O248 C245 1.238 . S
O249 Co243 2.052 . S
O249 C245 1.241 . S
O250 Co238 2.137 . S
O250 C241 1.247 . S
O251 Co238 2.244 . S
O251 C241 1.272 . S
O251 Co243 2.135 . S
H252 O278 0.856 . S
H253 O281 0.854 . S
H254 C289 0.930 . S
H255 C290 0.930 . S
H256 C292 0.930 . S
H257 C293 0.930 . S
H258 C295 0.931 . S
H259 C296 0.930 . S
H260 C298 0.930 . S
H261 C299 0.929 . S
H262 C301 0.930 . S
H263 C302 0.931 . S
H264 C304 0.930 . S
H265 C305 0.929 . S
H266 C307 0.931 . S
H267 C308 0.930 . S
H268 C310 0.930 . S
H269 C311 0.932 . S
H270 C313 0.930 . S
H271 C314 0.929 . S
H272 C316 0.931 . S
H273 C317 0.930 . S
H274 C319 0.929 . S
H275 C320 0.931 . S
H276 C322 0.930 . S
H277 C323 0.929 . S
O278 H252 0.856 . S
O278 C324 1.300 . S
O279 C324 1.209 . S
O280 C325 1.199 . S
O281 H253 0.854 . S
O281 C325 1.297 . S
C282 C283 1.404 . S
C282 C287 1.397 . S
C282 C288 1.492 . S
C283 C282 1.404 . S
C283 C284 1.396 . S
C283 C294 1.492 . S
C284 C283 1.396 . S
C284 C285 1.397 . S
C284 C300 1.509 . S
C285 C284 1.397 . S
C285 C286 1.412 . S
C285 C306 1.485 . S
C286 C285 1.412 . S
C286 C287 1.388 . S
C286 C312 1.490 . S
C287 C282 1.397 . S
C287 C286 1.388 . S
C287 C318 1.519 . S
C288 C282 1.492 . S
C288 C289 1.363 . S
C288 C293 1.390 . S
C289 H254 0.930 . S
C289 C288 1.363 . S
C289 C290 1.372 . S
C290 H255 0.930 . S
C290 C289 1.372 . S
C290 C291 1.383 . S
C291 C290 1.383 . S
C291 C292 1.395 . S
C292 H256 0.930 . S
C292 C291 1.395 . S
C292 C293 1.362 . S
C293 H257 0.930 . S
C293 C288 1.390 . S
C293 C292 1.362 . S
C294 C283 1.492 . S
C294 C295 1.377 . S
C294 C299 1.397 . S
C295 H258 0.931 . S
C295 C294 1.377 . S
C295 C296 1.376 . S
C296 H259 0.930 . S
C296 C295 1.376 . S
C296 C297 1.376 . S
C297 C296 1.376 . S
C297 C298 1.378 . S
C297 C324 1.486 . S
C298 H260 0.930 . S
C298 C297 1.378 . S
C298 C299 1.376 . S
C299 H261 0.929 . S
C299 C294 1.397 . S
C299 C298 1.376 . S
C300 C284 1.509 . S
C300 C301 1.391 . S
C300 C305 1.386 . S
C301 H262 0.930 . S
C301 C300 1.391 . S
C301 C302 1.375 . S
C302 H263 0.931 . S
C302 C301 1.375 . S
C302 C303 1.375 . S
C303 C302 1.375 . S
C303 C304 1.361 . S
C304 H264 0.930 . S
C304 C303 1.361 . S
C304 C305 1.399 . S
C305 H265 0.929 . S
C305 C300 1.386 . S
C305 C304 1.399 . S
C306 C285 1.485 . S
C306 C307 1.394 . S
C306 C311 1.360 . S
C307 H266 0.931 . S
C307 C306 1.394 . S
C307 C308 1.372 . S
C308 H267 0.930 . S
C308 C307 1.372 . S
C308 C309 1.397 . S
C309 C308 1.397 . S
C309 C310 1.390 . S
C309 C325 1.476 . S
C310 H268 0.930 . S
C310 C309 1.390 . S
C310 C311 1.366 . S
C311 H269 0.932 . S
C311 C306 1.360 . S
C311 C310 1.366 . S
C312 C286 1.490 . S
C312 C313 1.380 . S
C312 C317 1.386 . S
C313 H270 0.930 . S
C313 C312 1.380 . S
C313 C314 1.381 . S
C314 H271 0.929 . S
C314 C313 1.381 . S
C314 C315 1.371 . S
C315 C314 1.371 . S
C315 C316 1.380 . S
C316 H272 0.931 . S
C316 C315 1.380 . S
C316 C317 1.387 . S
C317 H273 0.930 . S
C317 C312 1.386 . S
C317 C316 1.387 . S
C318 C287 1.519 . S
C318 C319 1.377 . S
C318 C323 1.361 . S
C319 H274 0.929 . S
C319 C318 1.377 . S
C319 C320 1.386 . S
C320 H275 0.931 . S
C320 C319 1.386 . S
C320 C321 1.363 . S
C321 C320 1.363 . S
C321 C322 1.385 . S
C322 H276 0.930 . S
C322 C321 1.385 . S
C322 C323 1.396 . S
C323 H277 0.929 . S
C323 C318 1.361 . S
C323 C322 1.396 . S
C324 O278 1.300 . S
C324 O279 1.209 . S
C324 C297 1.486 . S
C325 O280 1.199 . S
C325 O281 1.297 . S
C325 C309 1.476 . S
H326 O352 0.856 . S
H327 O355 0.854 . S
H328 C363 0.930 . S
H329 C364 0.930 . S
H330 C366 0.930 . S
H331 C367 0.930 . S
H332 C369 0.931 . S
H333 C370 0.930 . S
H334 C372 0.930 . S
H335 C373 0.929 . S
H336 C375 0.930 . S
H337 C376 0.931 . S
H338 C378 0.930 . S
H339 C379 0.929 . S
H340 C381 0.931 . S
H341 C382 0.930 . S
H342 C384 0.930 . S
H343 C385 0.932 . S
H344 C387 0.930 . S
H345 C388 0.929 . S
H346 C390 0.931 . S
H347 C391 0.930 . S
H348 C393 0.929 . S
H349 C394 0.931 . S
H350 C396 0.930 . S
H351 C397 0.929 . S
O352 H326 0.856 . S
O352 C398 1.300 . S
O353 C398 1.209 . S
O354 C399 1.199 . S
O355 H327 0.854 . S
O355 C399 1.297 . S
C356 C357 1.404 . S
C356 C361 1.397 . S
C356 C362 1.492 . S
C357 C356 1.404 . S
C357 C358 1.396 . S
C357 C368 1.492 . S
C358 C357 1.396 . S
C358 C359 1.397 . S
C358 C374 1.509 . S
C359 C358 1.397 . S
C359 C360 1.412 . S
C359 C380 1.485 . S
C360 C359 1.412 . S
C360 C361 1.388 . S
C360 C386 1.490 . S
C361 C356 1.397 . S
C361 C360 1.388 . S
C361 C392 1.519 . S
C362 C356 1.492 . S
C362 C363 1.363 . S
C362 C367 1.390 . S
C363 H328 0.930 . S
C363 C362 1.363 . S
C363 C364 1.372 . S
C364 H329 0.930 . S
C364 C363 1.372 . S
C364 C365 1.383 . S
C365 C364 1.383 . S
C365 C366 1.395 . S
C366 H330 0.930 . S
C366 C365 1.395 . S
C366 C367 1.362 . S
C367 H331 0.930 . S
C367 C362 1.390 . S
C367 C366 1.362 . S
C368 C357 1.492 . S
C368 C369 1.377 . S
C368 C373 1.397 . S
C369 H332 0.931 . S
C369 C368 1.377 . S
C369 C370 1.376 . S
C370 H333 0.930 . S
C370 C369 1.376 . S
C370 C371 1.376 . S
C371 C370 1.376 . S
C371 C372 1.378 . S
C371 C398 1.486 . S
C372 H334 0.930 . S
C372 C371 1.378 . S
C372 C373 1.376 . S
C373 H335 0.929 . S
C373 C368 1.397 . S
C373 C372 1.376 . S
C374 C358 1.509 . S
C374 C375 1.391 . S
C374 C379 1.386 . S
C375 H336 0.930 . S
C375 C374 1.391 . S
C375 C376 1.375 . S
C376 H337 0.931 . S
C376 C375 1.375 . S
C376 C377 1.375 . S
C377 C376 1.375 . S
C377 C378 1.361 . S
C378 H338 0.930 . S
C378 C377 1.361 . S
C378 C379 1.399 . S
C379 H339 0.929 . S
C379 C374 1.386 . S
C379 C378 1.399 . S
C380 C359 1.485 . S
C380 C381 1.394 . S
C380 C385 1.360 . S
C381 H340 0.931 . S
C381 C380 1.394 . S
C381 C382 1.372 . S
C382 H341 0.930 . S
C382 C381 1.372 . S
C382 C383 1.397 . S
C383 C382 1.397 . S
C383 C384 1.390 . S
C383 C399 1.476 . S
C384 H342 0.930 . S
C384 C383 1.390 . S
C384 C385 1.366 . S
C385 H343 0.932 . S
C385 C380 1.360 . S
C385 C384 1.366 . S
C386 C360 1.490 . S
C386 C387 1.380 . S
C386 C391 1.386 . S
C387 H344 0.930 . S
C387 C386 1.380 . S
C387 C388 1.381 . S
C388 H345 0.929 . S
C388 C387 1.381 . S
C388 C389 1.371 . S
C389 C388 1.371 . S
C389 C390 1.380 . S
C390 H346 0.931 . S
C390 C389 1.380 . S
C390 C391 1.387 . S
C391 H347 0.930 . S
C391 C386 1.386 . S
C391 C390 1.387 . S
C392 C361 1.519 . S
C392 C393 1.377 . S
C392 C397 1.361 . S
C393 H348 0.929 . S
C393 C392 1.377 . S
C393 C394 1.386 . S
C394 H349 0.931 . S
C394 C393 1.386 . S
C394 C395 1.363 . S
C395 C394 1.363 . S
C395 C396 1.385 . S
C396 H350 0.930 . S
C396 C395 1.385 . S
C396 C397 1.396 . S
C397 H351 0.929 . S
C397 C392 1.361 . S
C397 C396 1.396 . S
C398 O352 1.300 . S
C398 O353 1.209 . S
C398 C371 1.486 . S
C399 O354 1.199 . S
C399 O355 1.297 . S
C399 C383 1.476 . S
H400 O426 0.856 . S
H401 O429 0.854 . S
H402 C437 0.930 . S
H403 C438 0.930 . S
H404 C440 0.930 . S
H405 C441 0.930 . S
H406 C443 0.931 . S
H407 C444 0.930 . S
H408 C446 0.930 . S
H409 C447 0.929 . S
H410 C449 0.930 . S
H411 C450 0.931 . S
H412 C452 0.930 . S
H413 C453 0.929 . S
H414 C455 0.931 . S
H415 C456 0.930 . S
H416 C458 0.930 . S
H417 C459 0.932 . S
H418 C461 0.930 . S
H419 C462 0.929 . S
H420 C464 0.931 . S
H421 C465 0.930 . S
H422 C467 0.929 . S
H423 C468 0.931 . S
H424 C470 0.930 . S
H425 C471 0.929 . S
O426 H400 0.856 . S
O426 C472 1.300 . S
O427 C472 1.209 . S
O428 C473 1.199 . S
O429 H401 0.854 . S
O429 C473 1.297 . S
C430 C431 1.404 . S
C430 C435 1.397 . S
C430 C436 1.492 . S
C431 C430 1.404 . S
C431 C432 1.396 . S
C431 C442 1.492 . S
C432 C431 1.396 . S
C432 C433 1.397 . S
C432 C448 1.509 . S
C433 C432 1.397 . S
C433 C434 1.412 . S
C433 C454 1.485 . S
C434 C433 1.412 . S
C434 C435 1.388 . S
C434 C460 1.490 . S
C435 C430 1.397 . S
C435 C434 1.388 . S
C435 C466 1.519 . S
C436 C430 1.492 . S
C436 C437 1.363 . S
C436 C441 1.390 . S
C437 H402 0.930 . S
C437 C436 1.363 . S
C437 C438 1.372 . S
C438 H403 0.930 . S
C438 C437 1.372 . S
C438 C439 1.383 . S
C439 C438 1.383 . S
C439 C440 1.395 . S
C440 H404 0.930 . S
C440 C439 1.395 . S
C440 C441 1.362 . S
C441 H405 0.930 . S
C441 C436 1.390 . S
C441 C440 1.362 . S
C442 C431 1.492 . S
C442 C443 1.377 . S
C442 C447 1.397 . S
C443 H406 0.931 . S
C443 C442 1.377 . S
C443 C444 1.376 . S
C444 H407 0.930 . S
C444 C443 1.376 . S
C444 C445 1.376 . S
C445 C444 1.376 . S
C445 C446 1.378 . S
C445 C472 1.486 . S
C446 H408 0.930 . S
C446 C445 1.378 . S
C446 C447 1.376 . S
C447 H409 0.929 . S
C447 C442 1.397 . S
C447 C446 1.376 . S
C448 C432 1.509 . S
C448 C449 1.391 . S
C448 C453 1.386 . S
C449 H410 0.930 . S
C449 C448 1.391 . S
C449 C450 1.375 . S
C450 H411 0.931 . S
C450 C449 1.375 . S
C450 C451 1.375 . S
C451 C450 1.375 . S
C451 C452 1.361 . S
C452 H412 0.930 . S
C452 C451 1.361 . S
C452 C453 1.399 . S
C453 H413 0.929 . S
C453 C448 1.386 . S
C453 C452 1.399 . S
C454 C433 1.485 . S
C454 C455 1.394 . S
C454 C459 1.360 . S
C455 H414 0.931 . S
C455 C454 1.394 . S
C455 C456 1.372 . S
C456 H415 0.930 . S
C456 C455 1.372 . S
C456 C457 1.397 . S
C457 C456 1.397 . S
C457 C458 1.390 . S
C457 C473 1.476 . S
C458 H416 0.930 . S
C458 C457 1.390 . S
C458 C459 1.366 . S
C459 H417 0.932 . S
C459 C454 1.360 . S
C459 C458 1.366 . S
C460 C434 1.490 . S
C460 C461 1.380 . S
C460 C465 1.386 . S
C461 H418 0.930 . S
C461 C460 1.380 . S
C461 C462 1.381 . S
C462 H419 0.929 . S
C462 C461 1.381 . S
C462 C463 1.371 . S
C463 C462 1.371 . S
C463 C464 1.380 . S
C464 H420 0.931 . S
C464 C463 1.380 . S
C464 C465 1.387 . S
C465 H421 0.930 . S
C465 C460 1.386 . S
C465 C464 1.387 . S
C466 C435 1.519 . S
C466 C467 1.377 . S
C466 C471 1.361 . S
C467 H422 0.929 . S
C467 C466 1.377 . S
C467 C468 1.386 . S
C468 H423 0.931 . S
C468 C467 1.386 . S
C468 C469 1.363 . S
C469 C468 1.363 . S
C469 C470 1.385 . S
C470 H424 0.930 . S
C470 C469 1.385 . S
C470 C471 1.396 . S
C471 H425 0.929 . S
C471 C466 1.361 . S
C471 C470 1.396 . S
C472 O426 1.300 . S
C472 O427 1.209 . S
C472 C445 1.486 . S
C473 O428 1.199 . S
C473 O429 1.297 . S
C473 C457 1.476 . S
H474 O500 0.856 . S
H475 O503 0.854 . S
H476 C511 0.930 . S
H477 C512 0.930 . S
H478 C514 0.930 . S
H479 C515 0.930 . S
H480 C517 0.931 . S
H481 C518 0.930 . S
H482 C520 0.930 . S
H483 C521 0.929 . S
H484 C523 0.930 . S
H485 C524 0.931 . S
H486 C526 0.930 . S
H487 C527 0.929 . S
H488 C529 0.931 . S
H489 C530 0.930 . S
H490 C532 0.930 . S
H491 C533 0.932 . S
H492 C535 0.930 . S
H493 C536 0.929 . S
H494 C538 0.931 . S
H495 C539 0.930 . S
H496 C541 0.929 . S
H497 C542 0.931 . S
H498 C544 0.930 . S
H499 C545 0.929 . S
O500 H474 0.856 . S
O500 C546 1.300 . S
O501 C546 1.209 . S
O502 C547 1.199 . S
O503 H475 0.854 . S
O503 C547 1.297 . S
C504 C505 1.404 . S
C504 C509 1.397 . S
C504 C510 1.492 . S
C505 C504 1.404 . S
C505 C506 1.396 . S
C505 C516 1.492 . S
C506 C505 1.396 . S
C506 C507 1.397 . S
C506 C522 1.509 . S
C507 C506 1.397 . S
C507 C508 1.412 . S
C507 C528 1.485 . S
C508 C507 1.412 . S
C508 C509 1.388 . S
C508 C534 1.490 . S
C509 C504 1.397 . S
C509 C508 1.388 . S
C509 C540 1.519 . S
C510 C504 1.492 . S
C510 C511 1.363 . S
C510 C515 1.390 . S
C511 H476 0.930 . S
C511 C510 1.363 . S
C511 C512 1.372 . S
C512 H477 0.930 . S
C512 C511 1.372 . S
C512 C513 1.383 . S
C513 C512 1.383 . S
C513 C514 1.395 . S
C514 H478 0.930 . S
C514 C513 1.395 . S
C514 C515 1.362 . S
C515 H479 0.930 . S
C515 C510 1.390 . S
C515 C514 1.362 . S
C516 C505 1.492 . S
C516 C517 1.377 . S
C516 C521 1.397 . S
C517 H480 0.931 . S
C517 C516 1.377 . S
C517 C518 1.376 . S
C518 H481 0.930 . S
C518 C517 1.376 . S
C518 C519 1.376 . S
C519 C518 1.376 . S
C519 C520 1.378 . S
C519 C546 1.486 1_556 S
C520 H482 0.930 . S
C520 C519 1.378 . S
C520 C521 1.376 . S
C521 H483 0.929 . S
C521 C516 1.397 . S
C521 C520 1.376 . S
C522 C506 1.509 . S
C522 C523 1.391 . S
C522 C527 1.386 . S
C523 H484 0.930 . S
C523 C522 1.391 . S
C523 C524 1.375 . S
C524 H485 0.931 . S
C524 C523 1.375 . S
C524 C525 1.375 . S
C525 C524 1.375 . S
C525 C526 1.361 . S
C526 H486 0.930 . S
C526 C525 1.361 . S
C526 C527 1.399 . S
C527 H487 0.929 . S
C527 C522 1.386 . S
C527 C526 1.399 . S
C528 C507 1.485 . S
C528 C529 1.394 . S
C528 C533 1.360 . S
C529 H488 0.931 . S
C529 C528 1.394 . S
C529 C530 1.372 . S
C530 H489 0.930 . S
C530 C529 1.372 . S
C530 C531 1.397 . S
C531 C530 1.397 . S
C531 C532 1.390 . S
C531 C547 1.476 . S
C532 H490 0.930 . S
C532 C531 1.390 . S
C532 C533 1.366 . S
C533 H491 0.932 . S
C533 C528 1.360 . S
C533 C532 1.366 . S
C534 C508 1.490 . S
C534 C535 1.380 . S
C534 C539 1.386 . S
C535 H492 0.930 . S
C535 C534 1.380 . S
C535 C536 1.381 . S
C536 H493 0.929 . S
C536 C535 1.381 . S
C536 C537 1.371 . S
C537 C536 1.371 . S
C537 C538 1.380 . S
C538 H494 0.931 . S
C538 C537 1.380 . S
C538 C539 1.387 . S
C539 H495 0.930 . S
C539 C534 1.386 . S
C539 C538 1.387 . S
C540 C509 1.519 . S
C540 C541 1.377 . S
C540 C545 1.361 . S
C541 H496 0.929 . S
C541 C540 1.377 . S
C541 C542 1.386 . S
C542 H497 0.931 . S
C542 C541 1.386 . S
C542 C543 1.363 . S
C543 C542 1.363 . S
C543 C544 1.385 . S
C544 H498 0.930 . S
C544 C543 1.385 . S
C544 C545 1.396 . S
C545 H499 0.929 . S
C545 C540 1.361 . S
C545 C544 1.396 . S
C546 O500 1.300 . S
C546 O501 1.209 . S
C546 C519 1.486 1_554 S
C547 O502 1.199 . S
C547 O503 1.297 . S
C547 C531 1.476 . S
H548 O574 0.856 . S
H549 O577 0.854 1_565 S
H550 C585 0.930 . S
H551 C586 0.930 . S
H552 C588 0.930 . S
H553 C589 0.930 . S
H554 C591 0.931 . S
H555 C592 0.930 . S
H556 C594 0.930 . S
H557 C595 0.929 . S
H558 C597 0.930 . S
H559 C598 0.931 . S
H560 C600 0.930 . S
H561 C601 0.929 . S
H562 C603 0.931 . S
H563 C604 0.930 . S
H564 C606 0.930 . S
H565 C607 0.932 . S
H566 C609 0.930 . S
H567 C610 0.929 . S
H568 C612 0.931 . S
H569 C613 0.930 . S
H570 C615 0.929 . S
H571 C616 0.931 . S
H572 C618 0.930 . S
H573 C619 0.929 . S
O574 H548 0.856 . S
O574 C620 1.300 . S
O575 C620 1.209 . S
O576 C621 1.199 . S
O577 H549 0.854 1_545 S
O577 C621 1.297 . S
C578 C579 1.404 . S
C578 C583 1.397 . S
C578 C584 1.492 . S
C579 C578 1.404 . S
C579 C580 1.396 . S
C579 C590 1.492 . S
C580 C579 1.396 . S
C580 C581 1.397 . S
C580 C596 1.509 . S
C581 C580 1.397 . S
C581 C582 1.412 . S
C581 C602 1.485 . S
C582 C581 1.412 . S
C582 C583 1.388 . S
C582 C608 1.490 . S
C583 C578 1.397 . S
C583 C582 1.388 . S
C583 C614 1.519 . S
C584 C578 1.492 . S
C584 C585 1.363 . S
C584 C589 1.390 . S
C585 H550 0.930 . S
C585 C584 1.363 . S
C585 C586 1.372 . S
C586 H551 0.930 . S
C586 C585 1.372 . S
C586 C587 1.383 . S
C587 C586 1.383 . S
C587 C588 1.395 . S
C588 H552 0.930 . S
C588 C587 1.395 . S
C588 C589 1.362 . S
C589 H553 0.930 . S
C589 C584 1.390 . S
C589 C588 1.362 . S
C590 C579 1.492 . S
C590 C591 1.377 . S
C590 C595 1.397 . S
C591 H554 0.931 . S
C591 C590 1.377 . S
C591 C592 1.376 . S
C592 H555 0.930 . S
C592 C591 1.376 . S
C592 C593 1.376 . S
C593 C592 1.376 . S
C593 C594 1.378 . S
C593 C620 1.486 1_556 S
C594 H556 0.930 . S
C594 C593 1.378 . S
C594 C595 1.376 . S
C595 H557 0.929 . S
C595 C590 1.397 . S
C595 C594 1.376 . S
C596 C580 1.509 . S
C596 C597 1.391 . S
C596 C601 1.386 . S
C597 H558 0.930 . S
C597 C596 1.391 . S
C597 C598 1.375 . S
C598 H559 0.931 . S
C598 C597 1.375 . S
C598 C599 1.375 . S
C599 C598 1.375 . S
C599 C600 1.361 . S
C600 H560 0.930 . S
C600 C599 1.361 . S
C600 C601 1.399 . S
C601 H561 0.929 . S
C601 C596 1.386 . S
C601 C600 1.399 . S
C602 C581 1.485 . S
C602 C603 1.394 . S
C602 C607 1.360 . S
C603 H562 0.931 . S
C603 C602 1.394 . S
C603 C604 1.372 . S
C604 H563 0.930 . S
C604 C603 1.372 . S
C604 C605 1.397 . S
C605 C604 1.397 . S
C605 C606 1.390 . S
C605 C621 1.476 . S
C606 H564 0.930 . S
C606 C605 1.390 . S
C606 C607 1.366 . S
C607 H565 0.932 . S
C607 C602 1.360 . S
C607 C606 1.366 . S
C608 C582 1.490 . S
C608 C609 1.380 . S
C608 C613 1.386 . S
C609 H566 0.930 . S
C609 C608 1.380 . S
C609 C610 1.381 . S
C610 H567 0.929 . S
C610 C609 1.381 . S
C610 C611 1.371 . S
C611 C610 1.371 . S
C611 C612 1.380 . S
C612 H568 0.931 . S
C612 C611 1.380 . S
C612 C613 1.387 . S
C613 H569 0.930 . S
C613 C608 1.386 . S
C613 C612 1.387 . S
C614 C583 1.519 . S
C614 C615 1.377 . S
C614 C619 1.361 . S
C615 H570 0.929 . S
C615 C614 1.377 . S
C615 C616 1.386 . S
C616 H571 0.931 . S
C616 C615 1.386 . S
C616 C617 1.363 . S
C617 C616 1.363 . S
C617 C618 1.385 . S
C618 H572 0.930 . S
C618 C617 1.385 . S
C618 C619 1.396 . S
C619 H573 0.929 . S
C619 C614 1.361 . S
C619 C618 1.396 . S
C620 O574 1.300 . S
C620 O575 1.209 . S
C620 C593 1.486 1_554 S
C621 O576 1.199 . S
C621 O577 1.297 . S
C621 C605 1.476 . S
H622 O648 0.856 . S
H623 O651 0.854 . S
H624 C659 0.930 . S
H625 C660 0.930 . S
H626 C662 0.930 . S
H627 C663 0.930 . S
H628 C665 0.931 . S
H629 C666 0.966 . S
H630 C668 0.930 . S
H631 C669 0.929 . S
H632 C671 0.930 . S
H633 C672 0.931 . S
H634 C674 0.930 . S
H635 C675 0.929 . S
H636 C677 0.931 . S
H637 C678 0.930 . S
H638 C680 0.930 . S
H639 C681 0.932 . S
H640 C683 0.930 . S
H641 C684 0.929 . S
H642 C686 0.931 . S
H643 C687 0.930 . S
H644 C689 0.929 . S
H645 C690 0.931 . S
H646 C692 0.930 . S
H647 C693 0.929 . S
O648 H622 0.856 . S
O648 C694 1.300 . S
O649 C694 1.209 . S
O650 C695 1.199 . S
O651 H623 0.854 . S
O651 C695 1.297 . S
C652 C653 1.404 . S
C652 C657 1.397 . S
C652 C658 1.492 . S
C653 C652 1.404 . S
C653 C654 1.396 . S
C653 C664 1.492 . S
C654 C653 1.396 . S
C654 C655 1.397 . S
C654 C670 1.509 . S
C655 C654 1.397 . S
C655 C656 1.412 . S
C655 C676 1.485 . S
C656 C655 1.412 . S
C656 C657 1.388 . S
C656 C682 1.490 . S
C657 C652 1.397 . S
C657 C656 1.388 . S
C657 C688 1.519 . S
C658 C652 1.492 . S
C658 C659 1.363 . S
C658 C663 1.390 . S
C659 H624 0.930 . S
C659 C658 1.363 . S
C659 C660 1.372 . S
C660 H625 0.930 . S
C660 C659 1.372 . S
C660 C661 1.383 . S
C661 C660 1.383 . S
C661 C662 1.395 . S
C662 H626 0.930 . S
C662 C661 1.395 . S
C662 C663 1.362 . S
C663 H627 0.930 . S
C663 C658 1.390 . S
C663 C662 1.362 . S
C664 C653 1.492 . S
C664 C665 1.377 . S
C664 C669 1.397 . S
C665 H628 0.931 . S
C665 C664 1.377 . S
C665 C666 1.327 1_556 S
C666 H629 0.966 . S
C666 C665 1.327 1_554 S
C666 C667 1.389 . S
C667 C666 1.389 . S
C667 C668 1.378 1_554 S
C667 C694 1.486 . S
C668 H630 0.930 . S
C668 C667 1.378 1_556 S
C668 C669 1.376 . S
C669 H631 0.929 . S
C669 C664 1.397 . S
C669 C668 1.376 . S
C670 C654 1.509 . S
C670 C671 1.391 . S
C670 C675 1.386 . S
C671 H632 0.930 . S
C671 C670 1.391 . S
C671 C672 1.375 . S
C672 H633 0.931 . S
C672 C671 1.375 . S
C672 C673 1.375 . S
C673 C672 1.375 . S
C673 C674 1.361 . S
C674 H634 0.930 . S
C674 C673 1.361 . S
C674 C675 1.399 . S
C675 H635 0.929 . S
C675 C670 1.386 . S
C675 C674 1.399 . S
C676 C655 1.485 . S
C676 C677 1.394 . S
C676 C681 1.360 . S
C677 H636 0.931 . S
C677 C676 1.394 . S
C677 C678 1.372 . S
C678 H637 0.930 . S
C678 C677 1.372 . S
C678 C679 1.397 . S
C679 C678 1.397 . S
C679 C680 1.390 . S
C679 C695 1.476 . S
C680 H638 0.930 . S
C680 C679 1.390 . S
C680 C681 1.366 . S
C681 H639 0.932 . S
C681 C676 1.360 . S
C681 C680 1.366 . S
C682 C656 1.490 . S
C682 C683 1.380 . S
C682 C687 1.386 . S
C683 H640 0.930 . S
C683 C682 1.380 . S
C683 C684 1.381 . S
C684 H641 0.929 . S
C684 C683 1.381 . S
C684 C685 1.371 . S
C685 C684 1.371 . S
C685 C686 1.380 . S
C686 H642 0.931 . S
C686 C685 1.380 . S
C686 C687 1.387 . S
C687 H643 0.930 . S
C687 C682 1.386 . S
C687 C686 1.387 . S
C688 C657 1.519 . S
C688 C689 1.377 . S
C688 C693 1.361 . S
C689 H644 0.929 . S
C689 C688 1.377 . S
C689 C690 1.386 . S
C690 H645 0.931 . S
C690 C689 1.386 . S
C690 C691 1.363 . S
C691 C690 1.363 . S
C691 C692 1.385 . S
C692 H646 0.930 . S
C692 C691 1.385 . S
C692 C693 1.396 . S
C693 H647 0.929 . S
C693 C688 1.361 . S
C693 C692 1.396 . S
C694 O648 1.300 . S
C694 O649 1.209 . S
C694 C667 1.486 . S
C695 O650 1.199 . S
C695 O651 1.297 . S
C695 C679 1.476 . S
H696 O722 0.856 . S
H697 O725 0.854 . S
H698 C733 0.930 . S
H699 C734 0.930 . S
H700 C736 0.930 . S
H701 C737 0.930 . S
H702 C739 0.931 . S
H703 C740 0.930 . S
H704 C742 0.930 . S
H705 C743 0.929 . S
H706 C745 0.930 . S
H707 C746 0.931 . S
H708 C748 0.930 . S
H709 C749 0.929 . S
H710 C751 0.931 . S
H711 C752 0.930 . S
H712 C754 0.930 . S
H713 C755 0.932 . S
H714 C757 0.930 . S
H715 C758 0.929 . S
H716 C760 0.931 . S
H717 C761 0.930 . S
H718 C763 0.929 . S
H719 C764 0.931 . S
H720 C766 0.930 . S
H721 C767 0.929 . S
O722 H696 0.856 . S
O722 C768 1.300 . S
O723 C768 1.209 . S
O724 C769 1.199 . S
O725 H697 0.854 . S
O725 C769 1.297 . S
C726 C727 1.404 . S
C726 C731 1.397 . S
C726 C732 1.492 . S
C727 C726 1.404 . S
C727 C728 1.396 . S
C727 C738 1.492 . S
C728 C727 1.396 . S
C728 C729 1.397 . S
C728 C744 1.509 . S
C729 C728 1.397 . S
C729 C730 1.412 . S
C729 C750 1.485 . S
C730 C729 1.412 . S
C730 C731 1.388 . S
C730 C756 1.490 . S
C731 C726 1.397 . S
C731 C730 1.388 . S
C731 C762 1.519 . S
C732 C726 1.492 . S
C732 C733 1.363 . S
C732 C737 1.390 . S
C733 H698 0.930 . S
C733 C732 1.363 . S
C733 C734 1.372 . S
C734 H699 0.930 . S
C734 C733 1.372 . S
C734 C735 1.383 . S
C735 C734 1.383 . S
C735 C736 1.395 . S
C736 H700 0.930 . S
C736 C735 1.395 . S
C736 C737 1.362 . S
C737 H701 0.930 . S
C737 C732 1.390 . S
C737 C736 1.362 . S
C738 C727 1.492 . S
C738 C739 1.377 . S
C738 C743 1.397 . S
C739 H702 0.931 . S
C739 C738 1.377 . S
C739 C740 1.376 . S
C740 H703 0.930 . S
C740 C739 1.376 . S
C740 C741 1.376 . S
C741 C740 1.376 . S
C741 C742 1.378 . S
C741 C768 1.486 . S
C742 H704 0.930 . S
C742 C741 1.378 . S
C742 C743 1.376 . S
C743 H705 0.929 . S
C743 C738 1.397 . S
C743 C742 1.376 . S
C744 C728 1.509 . S
C744 C745 1.391 . S
C744 C749 1.386 . S
C745 H706 0.930 . S
C745 C744 1.391 . S
C745 C746 1.375 . S
C746 H707 0.931 . S
C746 C745 1.375 . S
C746 C747 1.375 . S
C747 C746 1.375 . S
C747 C748 1.361 . S
C748 H708 0.930 . S
C748 C747 1.361 . S
C748 C749 1.399 . S
C749 H709 0.929 . S
C749 C744 1.386 . S
C749 C748 1.399 . S
C750 C729 1.485 . S
C750 C751 1.394 . S
C750 C755 1.360 . S
C751 H710 0.931 . S
C751 C750 1.394 . S
C751 C752 1.372 . S
C752 H711 0.930 . S
C752 C751 1.372 . S
C752 C753 1.397 . S
C753 C752 1.397 . S
C753 C754 1.390 . S
C753 C769 1.476 . S
C754 H712 0.930 . S
C754 C753 1.390 . S
C754 C755 1.366 . S
C755 H713 0.932 . S
C755 C750 1.360 . S
C755 C754 1.366 . S
C756 C730 1.490 . S
C756 C757 1.380 . S
C756 C761 1.386 . S
C757 H714 0.930 . S
C757 C756 1.380 . S
C757 C758 1.381 . S
C758 H715 0.929 . S
C758 C757 1.381 . S
C758 C759 1.371 . S
C759 C758 1.371 . S
C759 C760 1.380 . S
C760 H716 0.931 . S
C760 C759 1.380 . S
C760 C761 1.387 . S
C761 H717 0.930 . S
C761 C756 1.386 . S
C761 C760 1.387 . S
C762 C731 1.519 . S
C762 C763 1.377 . S
C762 C767 1.361 . S
C763 H718 0.929 . S
C763 C762 1.377 . S
C763 C764 1.386 . S
C764 H719 0.931 . S
C764 C763 1.386 . S
C764 C765 1.363 . S
C765 C764 1.363 . S
C765 C766 1.385 . S
C766 H720 0.930 . S
C766 C765 1.385 . S
C766 C767 1.396 . S
C767 H721 0.929 . S
C767 C762 1.361 . S
C767 C766 1.396 . S
C768 O722 1.300 . S
C768 O723 1.209 . S
C768 C741 1.486 . S
C769 O724 1.199 . S
C769 O725 1.297 . S
C769 C753 1.476 . S
H770 O796 0.856 . S
H771 O799 0.854 . S
H772 C807 0.930 . S
H773 C808 0.930 . S
H774 C810 0.930 . S
H775 C811 0.930 . S
H776 C813 0.931 . S
H777 C814 0.930 . S
H778 C816 0.930 . S
H779 C817 0.929 . S
H780 C819 0.930 . S
H781 C820 0.931 . S
H782 C822 0.930 . S
H783 C823 0.929 . S
H784 C825 0.931 . S
H785 C826 0.930 . S
H786 C828 0.930 . S
H787 C829 0.932 . S
H788 C831 0.930 . S
H789 C832 0.929 . S
H790 C834 0.931 . S
H791 C835 0.930 . S
H792 C837 0.929 . S
H793 C838 0.931 . S
H794 C840 0.930 . S
H795 C841 0.929 . S
O796 H770 0.856 . S
O796 C842 1.300 . S
O797 C842 1.209 . S
O798 C843 1.199 . S
O799 H771 0.854 . S
O799 C843 1.297 . S
C800 C801 1.404 . S
C800 C805 1.397 . S
C800 C806 1.492 . S
C801 C800 1.404 . S
C801 C802 1.396 . S
C801 C812 1.492 . S
C802 C801 1.396 . S
C802 C803 1.397 . S
C802 C818 1.509 . S
C803 C802 1.397 . S
C803 C804 1.412 . S
C803 C824 1.485 . S
C804 C803 1.412 . S
C804 C805 1.388 . S
C804 C830 1.490 . S
C805 C800 1.397 . S
C805 C804 1.388 . S
C805 C836 1.519 . S
C806 C800 1.492 . S
C806 C807 1.363 . S
C806 C811 1.390 . S
C807 H772 0.930 . S
C807 C806 1.363 . S
C807 C808 1.372 . S
C808 H773 0.930 . S
C808 C807 1.372 . S
C808 C809 1.383 . S
C809 C808 1.383 . S
C809 C810 1.395 . S
C810 H774 0.930 . S
C810 C809 1.395 . S
C810 C811 1.362 . S
C811 H775 0.930 . S
C811 C806 1.390 . S
C811 C810 1.362 . S
C812 C801 1.492 . S
C812 C813 1.377 . S
C812 C817 1.397 . S
C813 H776 0.931 . S
C813 C812 1.377 . S
C813 C814 1.376 . S
C814 H777 0.930 . S
C814 C813 1.376 . S
C814 C815 1.376 . S
C815 C814 1.376 . S
C815 C816 1.378 . S
C815 C842 1.486 . S
C816 H778 0.930 . S
C816 C815 1.378 . S
C816 C817 1.376 . S
C817 H779 0.929 . S
C817 C812 1.397 . S
C817 C816 1.376 . S
C818 C802 1.509 . S
C818 C819 1.391 . S
C818 C823 1.386 . S
C819 H780 0.930 . S
C819 C818 1.391 . S
C819 C820 1.375 . S
C820 H781 0.931 . S
C820 C819 1.375 . S
C820 C821 1.375 . S
C821 C820 1.375 . S
C821 C822 1.361 . S
C822 H782 0.930 . S
C822 C821 1.361 . S
C822 C823 1.399 . S
C823 H783 0.929 . S
C823 C818 1.386 . S
C823 C822 1.399 . S
C824 C803 1.485 . S
C824 C825 1.394 . S
C824 C829 1.360 . S
C825 H784 0.931 . S
C825 C824 1.394 . S
C825 C826 1.372 . S
C826 H785 0.930 . S
C826 C825 1.372 . S
C826 C827 1.397 . S
C827 C826 1.397 . S
C827 C828 1.390 . S
C827 C843 1.476 . S
C828 H786 0.930 . S
C828 C827 1.390 . S
C828 C829 1.366 . S
C829 H787 0.932 . S
C829 C824 1.360 . S
C829 C828 1.366 . S
C830 C804 1.490 . S
C830 C831 1.380 . S
C830 C835 1.386 . S
C831 H788 0.930 . S
C831 C830 1.380 . S
C831 C832 1.381 . S
C832 H789 0.929 . S
C832 C831 1.381 . S
C832 C833 1.371 . S
C833 C832 1.371 . S
C833 C834 1.380 . S
C834 H790 0.931 . S
C834 C833 1.380 . S
C834 C835 1.387 . S
C835 H791 0.930 . S
C835 C830 1.386 . S
C835 C834 1.387 . S
C836 C805 1.519 . S
C836 C837 1.377 . S
C836 C841 1.361 . S
C837 H792 0.929 . S
C837 C836 1.377 . S
C837 C838 1.386 . S
C838 H793 0.931 . S
C838 C837 1.386 . S
C838 C839 1.363 . S
C839 C838 1.363 . S
C839 C840 1.385 . S
C840 H794 0.930 . S
C840 C839 1.385 . S
C840 C841 1.396 . S
C841 H795 0.929 . S
C841 C836 1.361 . S
C841 C840 1.396 . S
C842 O796 1.300 . S
C842 O797 1.209 . S
C842 C815 1.486 . S
C843 O798 1.199 . S
C843 O799 1.297 . S
C843 C827 1.476 . S
H844 O870 0.856 . S
H845 O873 0.854 . S
H846 C881 0.930 . S
H847 C882 0.930 . S
H848 C884 0.930 . S
H849 C885 0.930 . S
H850 C887 0.931 . S
H851 C888 0.930 . S
H852 C890 0.930 . S
H853 C891 0.929 . S
H854 C893 0.930 . S
H855 C894 0.931 . S
H856 C896 0.930 . S
H857 C897 0.929 . S
H858 C899 0.931 . S
H859 C900 0.930 . S
H860 C902 0.930 . S
H861 C903 0.932 . S
H862 C905 0.930 . S
H863 C906 0.929 . S
H864 C908 0.931 . S
H865 C909 0.930 . S
H866 C911 0.929 . S
H867 C912 0.931 . S
H868 C914 0.930 . S
H869 C915 0.929 . S
O870 H844 0.856 . S
O870 C916 1.300 . S
O871 C916 1.209 . S
O872 C917 1.199 . S
O873 H845 0.854 . S
O873 C917 1.297 . S
C874 C875 1.404 . S
C874 C879 1.397 . S
C874 C880 1.492 . S
C875 C874 1.404 . S
C875 C876 1.396 . S
C875 C886 1.492 . S
C876 C875 1.396 . S
C876 C877 1.397 . S
C876 C892 1.509 . S
C877 C876 1.397 . S
C877 C878 1.412 . S
C877 C898 1.485 . S
C878 C877 1.412 . S
C878 C879 1.388 . S
C878 C904 1.490 . S
C879 C874 1.397 . S
C879 C878 1.388 . S
C879 C910 1.519 . S
C880 C874 1.492 . S
C880 C881 1.363 . S
C880 C885 1.390 . S
C881 H846 0.930 . S
C881 C880 1.363 . S
C881 C882 1.372 . S
C882 H847 0.930 . S
C882 C881 1.372 . S
C882 C883 1.383 . S
C883 C882 1.383 . S
C883 C884 1.395 . S
C884 H848 0.930 . S
C884 C883 1.395 . S
C884 C885 1.362 . S
C885 H849 0.930 . S
C885 C880 1.390 . S
C885 C884 1.362 . S
C886 C875 1.492 . S
C886 C887 1.377 . S
C886 C891 1.397 . S
C887 H850 0.931 . S
C887 C886 1.377 . S
C887 C888 1.376 . S
C888 H851 0.930 . S
C888 C887 1.376 . S
C888 C889 1.376 . S
C889 C888 1.376 . S
C889 C890 1.378 . S
C889 C916 1.486 . S
C890 H852 0.930 . S
C890 C889 1.378 . S
C890 C891 1.376 . S
C891 H853 0.929 . S
C891 C886 1.397 . S
C891 C890 1.376 . S
C892 C876 1.509 . S
C892 C893 1.391 . S
C892 C897 1.386 . S
C893 H854 0.930 . S
C893 C892 1.391 . S
C893 C894 1.375 . S
C894 H855 0.931 . S
C894 C893 1.375 . S
C894 C895 1.375 . S
C895 C894 1.375 . S
C895 C896 1.361 . S
C896 H856 0.930 . S
C896 C895 1.361 . S
C896 C897 1.399 . S
C897 H857 0.929 . S
C897 C892 1.386 . S
C897 C896 1.399 . S
C898 C877 1.485 . S
C898 C899 1.394 . S
C898 C903 1.360 . S
C899 H858 0.931 . S
C899 C898 1.394 . S
C899 C900 1.372 . S
C900 H859 0.930 . S
C900 C899 1.372 . S
C900 C901 1.397 . S
C901 C900 1.397 . S
C901 C902 1.390 . S
C901 C917 1.476 . S
C902 H860 0.930 . S
C902 C901 1.390 . S
C902 C903 1.366 . S
C903 H861 0.932 . S
C903 C898 1.360 . S
C903 C902 1.366 . S
C904 C878 1.490 . S
C904 C905 1.380 . S
C904 C909 1.386 . S
C905 H862 0.930 . S
C905 C904 1.380 . S
C905 C906 1.381 . S
C906 H863 0.929 . S
C906 C905 1.381 . S
C906 C907 1.371 . S
C907 C906 1.371 . S
C907 C908 1.380 . S
C908 H864 0.931 . S
C908 C907 1.380 . S
C908 C909 1.387 . S
C909 H865 0.930 . S
C909 C904 1.386 . S
C909 C908 1.387 . S
C910 C879 1.519 . S
C910 C911 1.377 . S
C910 C915 1.361 . S
C911 H866 0.929 . S
C911 C910 1.377 . S
C911 C912 1.386 . S
C912 H867 0.931 . S
C912 C911 1.386 . S
C912 C913 1.363 . S
C913 C912 1.363 . S
C913 C914 1.385 . S
C914 H868 0.930 . S
C914 C913 1.385 . S
C914 C915 1.396 . S
C915 H869 0.929 . S
C915 C910 1.361 . S
C915 C914 1.396 . S
C916 O870 1.300 . S
C916 O871 1.209 . S
C916 C889 1.486 . S
C917 O872 1.199 . S
C917 O873 1.297 . S
C917 C901 1.476 . S
H918 O944 0.856 . S
H919 O947 0.854 . S
H920 C955 0.930 . S
H921 C956 0.930 . S
H922 C958 0.930 . S
H923 C959 0.930 . S
H924 C961 0.931 . S
H925 C962 0.930 1_655 S
H926 C964 0.930 . S
H927 C965 0.929 . S
H928 C967 0.930 . S
H929 C968 0.931 1_655 S
H930 C970 0.930 . S
H931 C971 0.929 . S
H932 C973 0.931 . S
H933 C974 0.930 . S
H934 C976 0.930 . S
H935 C977 0.932 . S
H936 C979 0.930 . S
H937 C980 0.929 . S
H938 C982 0.931 . S
H939 C983 0.930 . S
H940 C985 0.929 . S
H941 C986 0.931 . S
H942 C988 0.930 . S
H943 C989 0.929 . S
O944 H918 0.856 . S
O944 C990 1.300 . S
O945 C990 1.209 . S
O946 C991 1.199 1_655 S
O947 H919 0.854 . S
O947 C991 1.297 . S
C948 C949 1.404 . S
C948 C953 1.394 . S
C948 C954 1.492 . S
C949 C948 1.404 . S
C949 C950 1.396 . S
C949 C960 1.492 . S
C950 C949 1.396 . S
C950 C951 1.397 . S
C950 C966 1.509 . S
C951 C950 1.397 . S
C951 C952 1.428 . S
C951 C972 1.485 . S
C952 C951 1.428 . S
C952 C953 1.401 . S
C952 C978 1.491 1_455 S
C953 C948 1.394 . S
C953 C952 1.401 . S
C953 C984 1.481 1_455 S
C954 C948 1.492 . S
C954 C955 1.363 1_455 S
C954 C959 1.390 . S
C955 H920 0.930 . S
C955 C954 1.363 1_655 S
C955 C956 1.372 . S
C956 H921 0.930 . S
C956 C955 1.372 . S
C956 C957 1.383 . S
C957 C956 1.383 . S
C957 C958 1.395 1_655 S
C958 H922 0.930 . S
C958 C957 1.395 1_455 S
C958 C959 1.362 . S
C959 H923 0.930 . S
C959 C954 1.390 . S
C959 C958 1.362 . S
C960 C949 1.492 . S
C960 C961 1.377 1_455 S
C960 C965 1.397 . S
C961 H924 0.931 . S
C961 C960 1.377 1_655 S
C961 C962 1.376 1_655 S
C962 H925 0.930 1_455 S
C962 C961 1.376 1_455 S
C962 C963 1.376 . S
C963 C962 1.376 . S
C963 C964 1.378 . S
C963 C990 1.486 . S
C964 H926 0.930 . S
C964 C963 1.378 . S
C964 C965 1.376 . S
C965 H927 0.929 . S
C965 C960 1.397 . S
C965 C964 1.376 . S
C966 C950 1.509 . S
C966 C967 1.391 1_455 S
C966 C971 1.386 . S
C967 H928 0.930 . S
C967 C966 1.391 1_655 S
C967 C968 1.375 1_655 S
C968 H929 0.931 1_455 S
C968 C967 1.375 1_455 S
C968 C969 1.375 . S
C969 C968 1.375 . S
C969 C970 1.361 . S
C970 H930 0.930 . S
C970 C969 1.361 . S
C970 C971 1.399 . S
C971 H931 0.929 . S
C971 C966 1.386 . S
C971 C970 1.399 . S
C972 C951 1.485 . S
C972 C973 1.394 1_455 S
C972 C977 1.360 . S
C973 H932 0.931 . S
C973 C972 1.394 1_655 S
C973 C974 1.372 . S
C974 H933 0.930 . S
C974 C973 1.372 . S
C974 C975 1.397 1_655 S
C975 C974 1.397 1_455 S
C975 C976 1.390 . S
C975 C991 1.476 . S
C976 H934 0.930 . S
C976 C975 1.390 . S
C976 C977 1.366 . S
C977 H935 0.932 . S
C977 C972 1.360 . S
C977 C976 1.366 . S
C978 C952 1.491 1_655 S
C978 C979 1.380 . S
C978 C983 1.386 1_655 S
C979 H936 0.930 . S
C979 C978 1.380 . S
C979 C980 1.381 . S
C980 H937 0.929 . S
C980 C979 1.381 . S
C980 C981 1.371 . S
C981 C980 1.371 . S
C981 C982 1.380 1_655 S
C982 H938 0.931 . S
C982 C981 1.380 1_455 S
C982 C983 1.387 . S
C983 H939 0.930 . S
C983 C978 1.386 1_455 S
C983 C982 1.387 . S
C984 C953 1.481 1_655 S
C984 C985 1.423 . S
C984 C989 1.332 1_655 S
C985 H940 0.929 . S
C985 C984 1.423 . S
C985 C986 1.386 . S
C986 H941 0.931 . S
C986 C985 1.386 . S
C986 C987 1.405 . S
C987 C986 1.405 . S
C987 C988 1.321 1_655 S
C988 H942 0.930 . S
C988 C987 1.321 1_455 S
C988 C989 1.396 . S
C989 H943 0.929 . S
C989 C984 1.332 1_455 S
C989 C988 1.396 . S
C990 O944 1.300 . S
C990 O945 1.209 . S
C990 C963 1.486 . S
C991 O946 1.199 1_455 S
C991 O947 1.297 . S
C991 C975 1.476 . S
H992 O1018 0.856 . S
H993 O1021 0.854 . S
H994 C1029 0.930 . S
H995 C1030 0.930 . S
H996 C1032 0.930 . S
H997 C1033 0.930 . S
H998 C1035 0.931 . S
H999 C1036 0.930 . S
H1000 C1038 0.930 . S
H1001 C1039 0.929 . S
H1002 C1041 0.930 . S
H1003 C1042 0.931 . S
H1004 C1044 0.930 . S
H1005 C1045 0.929 . S
H1006 C1047 0.931 . S
H1007 C1048 0.930 . S
H1008 C1050 0.930 . S
H1009 C1051 0.932 . S
H1010 C1053 0.930 . S
H1011 C1054 0.929 . S
H1012 C1056 0.931 . S
H1013 C1057 0.930 . S
H1014 C1059 0.929 . S
H1015 C1060 0.931 . S
H1016 C1062 0.930 . S
H1017 C1063 0.929 . S
O1018 H992 0.856 . S
O1018 C1064 1.300 . S
O1019 C1064 1.209 . S
O1020 C1065 1.199 . S
O1021 H993 0.854 . S
O1021 C1065 1.297 . S
C1022 C1023 1.404 . S
C1022 C1027 1.397 . S
C1022 C1028 1.492 . S
C1023 C1022 1.404 . S
C1023 C1024 1.396 . S
C1023 C1034 1.492 . S
C1024 C1023 1.396 . S
C1024 C1025 1.397 . S
C1024 C1040 1.509 . S
C1025 C1024 1.397 . S
C1025 C1026 1.412 . S
C1025 C1046 1.485 . S
C1026 C1025 1.412 . S
C1026 C1027 1.388 . S
C1026 C1052 1.490 . S
C1027 C1022 1.397 . S
C1027 C1026 1.388 . S
C1027 C1058 1.519 . S
C1028 C1022 1.492 . S
C1028 C1029 1.363 . S
C1028 C1033 1.390 . S
C1029 H994 0.930 . S
C1029 C1028 1.363 . S
C1029 C1030 1.372 . S
C1030 H995 0.930 . S
C1030 C1029 1.372 . S
C1030 C1031 1.383 . S
C1031 C1030 1.383 . S
C1031 C1032 1.395 . S
C1032 H996 0.930 . S
C1032 C1031 1.395 . S
C1032 C1033 1.362 . S
C1033 H997 0.930 . S
C1033 C1028 1.390 . S
C1033 C1032 1.362 . S
C1034 C1023 1.492 . S
C1034 C1035 1.377 . S
C1034 C1039 1.397 . S
C1035 H998 0.931 . S
C1035 C1034 1.377 . S
C1035 C1036 1.376 . S
C1036 H999 0.930 . S
C1036 C1035 1.376 . S
C1036 C1037 1.376 . S
C1037 C1036 1.376 . S
C1037 C1038 1.378 . S
C1037 C1064 1.486 . S
C1038 H1000 0.930 . S
C1038 C1037 1.378 . S
C1038 C1039 1.376 . S
C1039 H1001 0.929 . S
C1039 C1034 1.397 . S
C1039 C1038 1.376 . S
C1040 C1024 1.509 . S
C1040 C1041 1.391 . S
C1040 C1045 1.386 . S
C1041 H1002 0.930 . S
C1041 C1040 1.391 . S
C1041 C1042 1.375 . S
C1042 H1003 0.931 . S
C1042 C1041 1.375 . S
C1042 C1043 1.375 . S
C1043 C1042 1.375 . S
C1043 C1044 1.361 . S
C1044 H1004 0.930 . S
C1044 C1043 1.361 . S
C1044 C1045 1.399 . S
C1045 H1005 0.929 . S
C1045 C1040 1.386 . S
C1045 C1044 1.399 . S
C1046 C1025 1.485 . S
C1046 C1047 1.394 . S
C1046 C1051 1.360 . S
C1047 H1006 0.931 . S
C1047 C1046 1.394 . S
C1047 C1048 1.372 . S
C1048 H1007 0.930 . S
C1048 C1047 1.372 . S
C1048 C1049 1.397 . S
C1049 C1048 1.397 . S
C1049 C1050 1.390 . S
C1049 C1065 1.476 . S
C1050 H1008 0.930 . S
C1050 C1049 1.390 . S
C1050 C1051 1.366 . S
C1051 H1009 0.932 . S
C1051 C1046 1.360 . S
C1051 C1050 1.366 . S
C1052 C1026 1.490 . S
C1052 C1053 1.380 . S
C1052 C1057 1.386 . S
C1053 H1010 0.930 . S
C1053 C1052 1.380 . S
C1053 C1054 1.381 . S
C1054 H1011 0.929 . S
C1054 C1053 1.381 . S
C1054 C1055 1.371 . S
C1055 C1054 1.371 . S
C1055 C1056 1.380 . S
C1056 H1012 0.931 . S
C1056 C1055 1.380 . S
C1056 C1057 1.387 . S
C1057 H1013 0.930 . S
C1057 C1052 1.386 . S
C1057 C1056 1.387 . S
C1058 C1027 1.519 . S
C1058 C1059 1.377 . S
C1058 C1063 1.361 . S
C1059 H1014 0.929 . S
C1059 C1058 1.377 . S
C1059 C1060 1.386 . S
C1060 H1015 0.931 . S
C1060 C1059 1.386 . S
C1060 C1061 1.363 . S
C1061 C1060 1.363 . S
C1061 C1062 1.385 . S
C1062 H1016 0.930 . S
C1062 C1061 1.385 . S
C1062 C1063 1.396 . S
C1063 H1017 0.929 . S
C1063 C1058 1.361 . S
C1063 C1062 1.396 . S
C1064 O1018 1.300 . S
C1064 O1019 1.209 . S
C1064 C1037 1.486 . S
C1065 O1020 1.199 . S
C1065 O1021 1.297 . S
C1065 C1049 1.476 . S
H1066 O1092 0.856 . S
H1067 O1095 0.854 . S
H1068 C1103 0.930 . S
H1069 C1104 0.930 . S
H1070 C1106 0.930 . S
H1071 C1107 0.930 . S
H1072 C1109 0.931 . S
H1073 C1110 0.945 . S
H1074 C1112 0.930 . S
H1075 C1113 0.929 . S
H1076 C1115 0.930 . S
H1077 C1116 0.931 . S
H1078 C1118 0.930 . S
H1079 C1119 0.929 . S
H1080 C1121 0.931 . S
H1081 C1122 0.930 . S
H1082 C1124 0.930 . S
H1083 C1125 0.932 . S
H1084 C1127 0.930 . S
H1085 C1128 0.929 . S
H1086 C1130 0.931 . S
H1087 C1131 0.930 . S
H1088 C1133 0.929 . S
H1089 C1134 0.931 . S
H1090 C1136 0.930 . S
H1091 C1137 0.929 . S
O1092 H1066 0.856 . S
O1092 C1138 1.300 . S
O1093 C1138 1.209 . S
O1094 C1139 1.199 1_545 S
O1095 H1067 0.854 . S
O1095 C1139 1.297 . S
C1096 C1097 1.404 . S
C1096 C1101 1.414 . S
C1096 C1102 1.492 . S
C1097 C1096 1.404 . S
C1097 C1098 1.396 . S
C1097 C1108 1.492 . S
C1098 C1097 1.396 . S
C1098 C1099 1.397 . S
C1098 C1114 1.509 . S
C1099 C1098 1.397 . S
C1099 C1100 1.412 . S
C1099 C1120 1.485 . S
C1100 C1099 1.412 . S
C1100 C1101 1.364 . S
C1100 C1126 1.489 1_565 S
C1101 C1096 1.414 . S
C1101 C1100 1.364 . S
C1101 C1132 1.533 1_565 S
C1102 C1096 1.492 . S
C1102 C1103 1.363 1_565 S
C1102 C1107 1.390 . S
C1103 H1068 0.930 . S
C1103 C1102 1.363 1_545 S
C1103 C1104 1.372 . S
C1104 H1069 0.930 . S
C1104 C1103 1.372 . S
C1104 C1105 1.383 . S
C1105 C1104 1.383 . S
C1105 C1106 1.395 1_545 S
C1106 H1070 0.930 . S
C1106 C1105 1.395 1_565 S
C1106 C1107 1.362 . S
C1107 H1071 0.930 . S
C1107 C1102 1.390 . S
C1107 C1106 1.362 . S
C1108 C1097 1.492 . S
C1108 C1109 1.377 1_565 S
C1108 C1113 1.397 . S
C1109 H1072 0.931 . S
C1109 C1108 1.377 1_545 S
C1109 C1110 1.384 . S
C1110 H1073 0.945 . S
C1110 C1109 1.384 . S
C1110 C1111 1.352 1_545 S
C1111 C1110 1.352 1_565 S
C1111 C1112 1.378 . S
C1111 C1138 1.486 . S
C1112 H1074 0.930 . S
C1112 C1111 1.378 . S
C1112 C1113 1.376 . S
C1113 H1075 0.929 . S
C1113 C1108 1.397 . S
C1113 C1112 1.376 . S
C1114 C1098 1.509 . S
C1114 C1115 1.391 1_565 S
C1114 C1119 1.386 . S
C1115 H1076 0.930 . S
C1115 C1114 1.391 1_545 S
C1115 C1116 1.375 . S
C1116 H1077 0.931 . S
C1116 C1115 1.375 . S
C1116 C1117 1.375 1_545 S
C1117 C1116 1.375 1_565 S
C1117 C1118 1.361 . S
C1118 H1078 0.930 . S
C1118 C1117 1.361 . S
C1118 C1119 1.399 . S
C1119 H1079 0.929 . S
C1119 C1114 1.386 . S
C1119 C1118 1.399 . S
C1120 C1099 1.485 . S
C1120 C1121 1.394 1_565 S
C1120 C1125 1.360 . S
C1121 H1080 0.931 . S
C1121 C1120 1.394 1_545 S
C1121 C1122 1.372 . S
C1122 H1081 0.930 . S
C1122 C1121 1.372 . S
C1122 C1123 1.397 1_545 S
C1123 C1122 1.397 1_565 S
C1123 C1124 1.390 . S
C1123 C1139 1.476 . S
C1124 H1082 0.930 . S
C1124 C1123 1.390 . S
C1124 C1125 1.366 . S
C1125 H1083 0.932 . S
C1125 C1120 1.360 . S
C1125 C1124 1.366 . S
C1126 C1100 1.489 1_545 S
C1126 C1127 1.380 . S
C1126 C1131 1.386 1_545 S
C1127 H1084 0.930 . S
C1127 C1126 1.380 . S
C1127 C1128 1.381 . S
C1128 H1085 0.929 . S
C1128 C1127 1.381 . S
C1128 C1129 1.371 . S
C1129 C1128 1.371 . S
C1129 C1130 1.380 1_545 S
C1130 H1086 0.931 . S
C1130 C1129 1.380 1_565 S
C1130 C1131 1.387 . S
C1131 H1087 0.930 . S
C1131 C1126 1.386 1_565 S
C1131 C1130 1.387 . S
C1132 C1101 1.533 1_545 S
C1132 C1133 1.376 . S
C1132 C1137 1.362 1_545 S
C1133 H1088 0.929 . S
C1133 C1132 1.376 . S
C1133 C1134 1.386 . S
C1134 H1089 0.931 . S
C1134 C1133 1.386 . S
C1134 C1135 1.363 1_545 S
C1135 C1134 1.363 1_565 S
C1135 C1136 1.385 . S
C1136 H1090 0.930 . S
C1136 C1135 1.385 . S
C1136 C1137 1.396 . S
C1137 H1091 0.929 . S
C1137 C1132 1.362 1_565 S
C1137 C1136 1.396 . S
C1138 O1092 1.300 . S
C1138 O1093 1.209 . S
C1138 C1111 1.486 . S
C1139 O1094 1.199 1_565 S
C1139 O1095 1.297 . S
C1139 C1123 1.476 . S
H1140 O1166 0.856 . S
H1141 O1169 0.854 . S
H1142 C1177 0.930 . S
H1143 C1178 0.930 . S
H1144 C1180 0.930 . S
H1145 C1181 0.930 . S
H1146 C1183 0.931 . S
H1147 C1184 0.930 . S
H1148 C1186 0.930 . S
H1149 C1187 0.929 . S
H1150 C1189 0.930 . S
H1151 C1190 0.931 . S
H1152 C1192 0.930 . S
H1153 C1193 0.929 . S
H1154 C1195 0.931 . S
H1155 C1196 0.930 . S
H1156 C1198 0.930 . S
H1157 C1199 0.932 . S
H1158 C1201 0.930 . S
H1159 C1202 0.929 . S
H1160 C1204 0.931 . S
H1161 C1205 0.930 . S
H1162 C1207 0.929 . S
H1163 C1208 0.931 . S
H1164 C1210 0.930 . S
H1165 C1211 0.929 . S
O1166 H1140 0.856 . S
O1166 C1212 1.300 . S
O1167 C1212 1.209 1_565 S
O1168 C1213 1.199 1_545 S
O1169 H1141 0.854 . S
O1169 C1213 1.297 . S
C1170 C1171 1.404 . S
C1170 C1175 1.397 1_545 S
C1170 C1176 1.492 . S
C1171 C1170 1.404 . S
C1171 C1172 1.431 . S
C1171 C1182 1.492 . S
C1172 C1171 1.431 . S
C1172 C1173 1.375 1_545 S
C1172 C1188 1.504 . S
C1173 C1172 1.375 1_565 S
C1173 C1174 1.417 . S
C1173 C1194 1.505 . S
C1174 C1173 1.417 . S
C1174 C1175 1.364 . S
C1174 C1200 1.502 . S
C1175 C1170 1.397 1_565 S
C1175 C1174 1.364 . S
C1175 C1206 1.518 . S
C1176 C1170 1.492 . S
C1176 C1177 1.363 . S
C1176 C1181 1.390 1_545 S
C1177 H1142 0.930 . S
C1177 C1176 1.363 . S
C1177 C1178 1.372 . S
C1178 H1143 0.930 . S
C1178 C1177 1.372 . S
C1178 C1179 1.383 . S
C1179 C1178 1.383 . S
C1179 C1180 1.395 1_545 S
C1180 H1144 0.930 . S
C1180 C1179 1.395 1_565 S
C1180 C1181 1.362 . S
C1181 H1145 0.930 . S
C1181 C1176 1.390 1_565 S
C1181 C1180 1.362 . S
C1182 C1171 1.492 . S
C1182 C1183 1.377 . S
C1182 C1187 1.397 1_545 S
C1183 H1146 0.931 . S
C1183 C1182 1.377 . S
C1183 C1184 1.376 . S
C1184 H1147 0.930 . S
C1184 C1183 1.376 . S
C1184 C1185 1.376 . S
C1185 C1184 1.376 . S
C1185 C1186 1.378 1_545 S
C1185 C1212 1.486 . S
C1186 H1148 0.930 . S
C1186 C1185 1.378 1_565 S
C1186 C1187 1.376 . S
C1187 H1149 0.929 . S
C1187 C1182 1.397 1_565 S
C1187 C1186 1.376 . S
C1188 C1172 1.504 . S
C1188 C1189 1.410 . S
C1188 C1193 1.354 1_545 S
C1189 H1150 0.930 . S
C1189 C1188 1.410 . S
C1189 C1190 1.375 . S
C1190 H1151 0.931 . S
C1190 C1189 1.375 . S
C1190 C1191 1.384 . S
C1191 C1190 1.384 . S
C1191 C1192 1.357 1_545 S
C1192 H1152 0.930 . S
C1192 C1191 1.357 1_565 S
C1192 C1193 1.399 . S
C1193 H1153 0.929 . S
C1193 C1188 1.354 1_565 S
C1193 C1192 1.399 . S
C1194 C1173 1.505 . S
C1194 C1195 1.394 1_565 S
C1194 C1199 1.360 . S
C1195 H1154 0.931 . S
C1195 C1194 1.394 1_545 S
C1195 C1196 1.372 . S
C1196 H1155 0.930 . S
C1196 C1195 1.372 . S
C1196 C1197 1.397 1_545 S
C1197 C1196 1.397 1_565 S
C1197 C1198 1.390 . S
C1197 C1213 1.476 . S
C1198 H1156 0.930 . S
C1198 C1197 1.390 . S
C1198 C1199 1.366 . S
C1199 H1157 0.932 . S
C1199 C1194 1.360 . S
C1199 C1198 1.366 . S
C1200 C1174 1.502 . S
C1200 C1201 1.380 1_565 S
C1200 C1205 1.386 . S
C1201 H1158 0.930 . S
C1201 C1200 1.380 1_545 S
C1201 C1202 1.381 . S
C1202 H1159 0.929 . S
C1202 C1201 1.381 . S
C1202 C1203 1.369 . S
C1203 C1202 1.369 . S
C1203 C1204 1.381 1_545 S
C1204 H1160 0.931 . S
C1204 C1203 1.381 1_565 S
C1204 C1205 1.387 . S
C1205 H1161 0.930 . S
C1205 C1200 1.386 . S
C1205 C1204 1.387 . S
C1206 C1175 1.518 . S
C1206 C1207 1.377 1_565 S
C1206 C1211 1.361 . S
C1207 H1162 0.929 . S
C1207 C1206 1.377 1_545 S
C1207 C1208 1.386 . S
C1208 H1163 0.931 . S
C1208 C1207 1.386 . S
C1208 C1209 1.363 1_545 S
C1209 C1208 1.363 1_565 S
C1209 C1210 1.385 . S
C1210 H1164 0.930 . S
C1210 C1209 1.385 . S
C1210 C1211 1.396 . S
C1211 H1165 0.929 . S
C1211 C1206 1.361 . S
C1211 C1210 1.396 . S
C1212 O1166 1.300 . S
C1212 O1167 1.209 1_545 S
C1212 C1185 1.486 . S
C1213 O1168 1.199 1_565 S
C1213 O1169 1.297 . S
C1213 C1197 1.476 . S
H1214 O1240 0.856 . S
H1215 O1243 0.854 . S
H1216 C1251 0.930 . S
H1217 C1252 0.930 . S
H1218 C1254 0.930 . S
H1219 C1255 0.930 . S
H1220 C1257 0.931 . S
H1221 C1258 0.930 . S
H1222 C1260 0.930 . S
H1223 C1261 0.929 . S
H1224 C1263 0.930 . S
H1225 C1264 0.931 . S
H1226 C1266 0.930 . S
H1227 C1267 0.929 . S
H1228 C1269 0.931 . S
H1229 C1270 0.930 . S
H1230 C1272 0.930 . S
H1231 C1273 0.932 . S
H1232 C1275 0.930 . S
H1233 C1276 0.929 . S
H1234 C1278 0.931 . S
H1235 C1279 0.930 . S
H1236 C1281 0.929 . S
H1237 C1282 0.931 . S
H1238 C1284 0.930 . S
H1239 C1285 0.929 . S
O1240 H1214 0.856 . S
O1240 C1286 1.300 . S
O1241 C1286 1.209 1_455 S
O1242 C1287 1.199 1_655 S
O1243 H1215 0.854 . S
O1243 C1287 1.297 . S
C1244 C1245 1.404 . S
C1244 C1249 1.398 . S
C1244 C1250 1.492 . S
C1245 C1244 1.404 . S
C1245 C1246 1.396 . S
C1245 C1256 1.492 . S
C1246 C1245 1.396 . S
C1246 C1247 1.395 . S
C1246 C1262 1.509 . S
C1247 C1246 1.395 . S
C1247 C1248 1.391 1_655 S
C1247 C1268 1.523 1_655 S
C1248 C1247 1.391 1_455 S
C1248 C1249 1.402 1_455 S
C1248 C1274 1.486 . S
C1249 C1244 1.398 . S
C1249 C1248 1.402 1_655 S
C1249 C1280 1.522 1_655 S
C1250 C1244 1.492 . S
C1250 C1251 1.363 . S
C1250 C1255 1.390 1_655 S
C1251 H1216 0.930 . S
C1251 C1250 1.363 . S
C1251 C1252 1.372 . S
C1252 H1217 0.930 . S
C1252 C1251 1.372 . S
C1252 C1253 1.383 . S
C1253 C1252 1.383 . S
C1253 C1254 1.395 1_655 S
C1254 H1218 0.930 . S
C1254 C1253 1.395 1_455 S
C1254 C1255 1.362 . S
C1255 H1219 0.930 . S
C1255 C1250 1.390 1_455 S
C1255 C1254 1.362 . S
C1256 C1245 1.492 . S
C1256 C1257 1.377 . S
C1256 C1261 1.397 1_655 S
C1257 H1220 0.931 . S
C1257 C1256 1.377 . S
C1257 C1258 1.376 . S
C1258 H1221 0.930 . S
C1258 C1257 1.376 . S
C1258 C1259 1.376 . S
C1259 C1258 1.376 . S
C1259 C1260 1.378 1_655 S
C1259 C1286 1.486 . S
C1260 H1222 0.930 . S
C1260 C1259 1.378 1_455 S
C1260 C1261 1.376 . S
C1261 H1223 0.929 . S
C1261 C1256 1.397 1_455 S
C1261 C1260 1.376 . S
C1262 C1246 1.509 . S
C1262 C1263 1.391 . S
C1262 C1267 1.386 1_655 S
C1263 H1224 0.930 . S
C1263 C1262 1.391 . S
C1263 C1264 1.375 . S
C1264 H1225 0.931 . S
C1264 C1263 1.375 . S
C1264 C1265 1.375 . S
C1265 C1264 1.375 . S
C1265 C1266 1.361 1_655 S
C1266 H1226 0.930 . S
C1266 C1265 1.361 1_455 S
C1266 C1267 1.399 . S
C1267 H1227 0.929 . S
C1267 C1262 1.386 1_455 S
C1267 C1266 1.399 . S
C1268 C1247 1.523 1_455 S
C1268 C1269 1.351 1_455 S
C1268 C1273 1.379 . S
C1269 H1228 0.931 . S
C1269 C1268 1.351 1_655 S
C1269 C1270 1.372 . S
C1270 H1229 0.930 . S
C1270 C1269 1.372 . S
C1270 C1271 1.397 1_655 S
C1271 C1270 1.397 1_455 S
C1271 C1272 1.390 . S
C1271 C1287 1.476 . S
C1272 H1230 0.930 . S
C1272 C1271 1.390 . S
C1272 C1273 1.366 . S
C1273 H1231 0.932 . S
C1273 C1268 1.379 . S
C1273 C1272 1.366 . S
C1274 C1248 1.486 . S
C1274 C1275 1.380 1_455 S
C1274 C1279 1.386 . S
C1275 H1232 0.930 . S
C1275 C1274 1.380 1_655 S
C1275 C1276 1.381 . S
C1276 H1233 0.929 . S
C1276 C1275 1.381 . S
C1276 C1277 1.371 1_655 S
C1277 C1276 1.371 1_455 S
C1277 C1278 1.380 . S
C1278 H1234 0.931 . S
C1278 C1277 1.380 . S
C1278 C1279 1.387 . S
C1279 H1235 0.930 . S
C1279 C1274 1.386 . S
C1279 C1278 1.387 . S
C1280 C1249 1.522 1_455 S
C1280 C1281 1.377 1_455 S
C1280 C1285 1.361 . S
C1281 H1236 0.929 . S
C1281 C1280 1.377 1_655 S
C1281 C1282 1.386 . S
C1282 H1237 0.931 . S
C1282 C1281 1.386 . S
C1282 C1283 1.363 1_655 S
C1283 C1282 1.363 1_455 S
C1283 C1284 1.385 . S
C1284 H1238 0.930 . S
C1284 C1283 1.385 . S
C1284 C1285 1.396 . S
C1285 H1239 0.929 . S
C1285 C1280 1.361 . S
C1285 C1284 1.396 . S
C1286 O1240 1.300 . S
C1286 O1241 1.209 1_655 S
C1286 C1259 1.486 . S
C1287 O1242 1.199 1_455 S
C1287 O1243 1.297 . S
C1287 C1271 1.476 . S
H1288 O1314 0.856 . S
H1289 O1317 0.854 . S
H1290 C1325 0.930 . S
H1291 C1326 0.930 . S
H1292 C1328 0.930 . S
H1293 C1329 0.930 . S
H1294 C1331 0.931 . S
H1295 C1332 0.930 . S
H1296 C1334 0.930 . S
H1297 C1335 0.929 . S
H1298 C1337 0.930 . S
H1299 C1338 0.931 . S
H1300 C1340 0.930 . S
H1301 C1341 0.929 . S
H1302 C1343 0.931 . S
H1303 C1344 0.930 . S
H1304 C1346 0.930 . S
H1305 C1347 0.932 . S
H1306 C1349 0.930 . S
H1307 C1350 0.929 . S
H1308 C1352 0.931 . S
H1309 C1353 0.930 . S
H1310 C1355 0.929 . S
H1311 C1356 0.931 . S
H1312 C1358 0.930 . S
H1313 C1359 0.929 . S
O1314 H1288 0.856 . S
O1314 C1360 1.300 . S
O1315 C1360 1.209 . S
O1316 C1361 1.199 . S
O1317 H1289 0.854 . S
O1317 C1361 1.297 . S
C1318 C1319 1.404 . S
C1318 C1323 1.397 . S
C1318 C1324 1.492 . S
C1319 C1318 1.404 . S
C1319 C1320 1.396 . S
C1319 C1330 1.492 . S
C1320 C1319 1.396 . S
C1320 C1321 1.397 . S
C1320 C1336 1.509 . S
C1321 C1320 1.397 . S
C1321 C1322 1.412 . S
C1321 C1342 1.485 . S
C1322 C1321 1.412 . S
C1322 C1323 1.388 . S
C1322 C1348 1.490 . S
C1323 C1318 1.397 . S
C1323 C1322 1.388 . S
C1323 C1354 1.519 . S
C1324 C1318 1.492 . S
C1324 C1325 1.363 . S
C1324 C1329 1.390 . S
C1325 H1290 0.930 . S
C1325 C1324 1.363 . S
C1325 C1326 1.372 . S
C1326 H1291 0.930 . S
C1326 C1325 1.372 . S
C1326 C1327 1.383 . S
C1327 C1326 1.383 . S
C1327 C1328 1.395 . S
C1328 H1292 0.930 . S
C1328 C1327 1.395 . S
C1328 C1329 1.362 . S
C1329 H1293 0.930 . S
C1329 C1324 1.390 . S
C1329 C1328 1.362 . S
C1330 C1319 1.492 . S
C1330 C1331 1.377 . S
C1330 C1335 1.397 . S
C1331 H1294 0.931 . S
C1331 C1330 1.377 . S
C1331 C1332 1.376 . S
C1332 H1295 0.930 . S
C1332 C1331 1.376 . S
C1332 C1333 1.376 . S
C1333 C1332 1.376 . S
C1333 C1334 1.378 . S
C1333 C1360 1.486 . S
C1334 H1296 0.930 . S
C1334 C1333 1.378 . S
C1334 C1335 1.376 . S
C1335 H1297 0.929 . S
C1335 C1330 1.397 . S
C1335 C1334 1.376 . S
C1336 C1320 1.509 . S
C1336 C1337 1.391 . S
C1336 C1341 1.386 . S
C1337 H1298 0.930 . S
C1337 C1336 1.391 . S
C1337 C1338 1.375 . S
C1338 H1299 0.931 . S
C1338 C1337 1.375 . S
C1338 C1339 1.375 . S
C1339 C1338 1.375 . S
C1339 C1340 1.361 . S
C1340 H1300 0.930 . S
C1340 C1339 1.361 . S
C1340 C1341 1.399 . S
C1341 H1301 0.929 . S
C1341 C1336 1.386 . S
C1341 C1340 1.399 . S
C1342 C1321 1.485 . S
C1342 C1343 1.394 . S
C1342 C1347 1.360 . S
C1343 H1302 0.931 . S
C1343 C1342 1.394 . S
C1343 C1344 1.372 . S
C1344 H1303 0.930 . S
C1344 C1343 1.372 . S
C1344 C1345 1.397 . S
C1345 C1344 1.397 . S
C1345 C1346 1.390 . S
C1345 C1361 1.476 . S
C1346 H1304 0.930 . S
C1346 C1345 1.390 . S
C1346 C1347 1.366 . S
C1347 H1305 0.932 . S
C1347 C1342 1.360 . S
C1347 C1346 1.366 . S
C1348 C1322 1.490 . S
C1348 C1349 1.380 . S
C1348 C1353 1.386 . S
C1349 H1306 0.930 . S
C1349 C1348 1.380 . S
C1349 C1350 1.381 . S
C1350 H1307 0.929 . S
C1350 C1349 1.381 . S
C1350 C1351 1.371 . S
C1351 C1350 1.371 . S
C1351 C1352 1.380 . S
C1352 H1308 0.931 . S
C1352 C1351 1.380 . S
C1352 C1353 1.387 . S
C1353 H1309 0.930 . S
C1353 C1348 1.386 . S
C1353 C1352 1.387 . S
C1354 C1323 1.519 . S
C1354 C1355 1.377 . S
C1354 C1359 1.361 . S
C1355 H1310 0.929 . S
C1355 C1354 1.377 . S
C1355 C1356 1.386 . S
C1356 H1311 0.931 . S
C1356 C1355 1.386 . S
C1356 C1357 1.363 . S
C1357 C1356 1.363 . S
C1357 C1358 1.385 . S
C1358 H1312 0.930 . S
C1358 C1357 1.385 . S
C1358 C1359 1.396 . S
C1359 H1313 0.929 . S
C1359 C1354 1.361 . S
C1359 C1358 1.396 . S
C1360 O1314 1.300 . S
C1360 O1315 1.209 . S
C1360 C1333 1.486 . S
C1361 O1316 1.199 . S
C1361 O1317 1.297 . S
C1361 C1345 1.476 . S
H1362 O1388 0.856 . S
H1363 O1391 0.854 . S
H1364 C1399 0.930 . S
H1365 C1400 0.930 . S
H1366 C1402 0.930 . S
H1367 C1403 0.930 . S
H1368 C1405 0.931 . S
H1369 C1406 0.930 . S
H1370 C1408 0.930 . S
H1371 C1409 0.929 . S
H1372 C1411 0.930 . S
H1373 C1412 0.931 . S
H1374 C1414 0.930 . S
H1375 C1415 0.929 . S
H1376 C1417 0.931 . S
H1377 C1418 0.930 . S
H1378 C1420 0.930 . S
H1379 C1421 0.932 . S
H1380 C1423 0.930 . S
H1381 C1424 0.929 . S
H1382 C1426 0.931 . S
H1383 C1427 0.930 . S
H1384 C1429 0.929 . S
H1385 C1430 0.931 . S
H1386 C1432 0.930 . S
H1387 C1433 0.929 . S
O1388 H1362 0.856 . S
O1388 C1434 1.300 . S
O1389 C1434 1.209 . S
O1390 C1435 1.199 . S
O1391 H1363 0.854 . S
O1391 C1435 1.297 . S
C1392 C1393 1.404 . S
C1392 C1397 1.397 . S
C1392 C1398 1.492 . S
C1393 C1392 1.404 . S
C1393 C1394 1.396 . S
C1393 C1404 1.492 . S
C1394 C1393 1.396 . S
C1394 C1395 1.397 . S
C1394 C1410 1.509 . S
C1395 C1394 1.397 . S
C1395 C1396 1.412 . S
C1395 C1416 1.485 . S
C1396 C1395 1.412 . S
C1396 C1397 1.388 . S
C1396 C1422 1.490 . S
C1397 C1392 1.397 . S
C1397 C1396 1.388 . S
C1397 C1428 1.519 . S
C1398 C1392 1.492 . S
C1398 C1399 1.363 . S
C1398 C1403 1.390 . S
C1399 H1364 0.930 . S
C1399 C1398 1.363 . S
C1399 C1400 1.372 . S
C1400 H1365 0.930 . S
C1400 C1399 1.372 . S
C1400 C1401 1.383 . S
C1401 C1400 1.383 . S
C1401 C1402 1.395 . S
C1402 H1366 0.930 . S
C1402 C1401 1.395 . S
C1402 C1403 1.362 . S
C1403 H1367 0.930 . S
C1403 C1398 1.390 . S
C1403 C1402 1.362 . S
C1404 C1393 1.492 . S
C1404 C1405 1.377 . S
C1404 C1409 1.397 . S
C1405 H1368 0.931 . S
C1405 C1404 1.377 . S
C1405 C1406 1.376 . S
C1406 H1369 0.930 . S
C1406 C1405 1.376 . S
C1406 C1407 1.376 . S
C1407 C1406 1.376 . S
C1407 C1408 1.378 . S
C1407 C1434 1.486 . S
C1408 H1370 0.930 . S
C1408 C1407 1.378 . S
C1408 C1409 1.376 . S
C1409 H1371 0.929 . S
C1409 C1404 1.397 . S
C1409 C1408 1.376 . S
C1410 C1394 1.509 . S
C1410 C1411 1.391 . S
C1410 C1415 1.386 . S
C1411 H1372 0.930 . S
C1411 C1410 1.391 . S
C1411 C1412 1.375 . S
C1412 H1373 0.931 . S
C1412 C1411 1.375 . S
C1412 C1413 1.375 . S
C1413 C1412 1.375 . S
C1413 C1414 1.361 . S
C1414 H1374 0.930 . S
C1414 C1413 1.361 . S
C1414 C1415 1.399 . S
C1415 H1375 0.929 . S
C1415 C1410 1.386 . S
C1415 C1414 1.399 . S
C1416 C1395 1.485 . S
C1416 C1417 1.394 . S
C1416 C1421 1.360 . S
C1417 H1376 0.931 . S
C1417 C1416 1.394 . S
C1417 C1418 1.372 . S
C1418 H1377 0.930 . S
C1418 C1417 1.372 . S
C1418 C1419 1.397 . S
C1419 C1418 1.397 . S
C1419 C1420 1.390 . S
C1419 C1435 1.476 . S
C1420 H1378 0.930 . S
C1420 C1419 1.390 . S
C1420 C1421 1.366 . S
C1421 H1379 0.932 . S
C1421 C1416 1.360 . S
C1421 C1420 1.366 . S
C1422 C1396 1.490 . S
C1422 C1423 1.380 . S
C1422 C1427 1.386 . S
C1423 H1380 0.930 . S
C1423 C1422 1.380 . S
C1423 C1424 1.381 . S
C1424 H1381 0.929 . S
C1424 C1423 1.381 . S
C1424 C1425 1.371 . S
C1425 C1424 1.371 . S
C1425 C1426 1.380 . S
C1426 H1382 0.931 . S
C1426 C1425 1.380 . S
C1426 C1427 1.387 . S
C1427 H1383 0.930 . S
C1427 C1422 1.386 . S
C1427 C1426 1.387 . S
C1428 C1397 1.519 . S
C1428 C1429 1.377 . S
C1428 C1433 1.361 . S
C1429 H1384 0.929 . S
C1429 C1428 1.377 . S
C1429 C1430 1.386 . S
C1430 H1385 0.931 . S
C1430 C1429 1.386 . S
C1430 C1431 1.363 . S
C1431 C1430 1.363 . S
C1431 C1432 1.385 . S
C1432 H1386 0.930 . S
C1432 C1431 1.385 . S
C1432 C1433 1.396 . S
C1433 H1387 0.929 . S
C1433 C1428 1.361 . S
C1433 C1432 1.396 . S
C1434 O1388 1.300 . S
C1434 O1389 1.209 . S
C1434 C1407 1.486 . S
C1435 O1390 1.199 . S
C1435 O1391 1.297 . S
C1435 C1419 1.476 . S
H1436 O1462 0.856 . S
H1437 O1465 0.854 . S
H1438 C1473 0.930 . S
H1439 C1474 0.930 . S
H1440 C1476 0.930 . S
H1441 C1477 0.930 . S
H1442 C1479 0.931 . S
H1443 C1480 0.930 . S
H1444 C1482 0.930 . S
H1445 C1483 0.929 . S
H1446 C1485 0.930 . S
H1447 C1486 0.931 . S
H1448 C1488 0.930 . S
H1449 C1489 0.929 . S
H1450 C1491 0.931 . S
H1451 C1492 0.930 . S
H1452 C1494 0.930 . S
H1453 C1495 0.932 . S
H1454 C1497 0.930 . S
H1455 C1498 0.929 . S
H1456 C1500 0.931 . S
H1457 C1501 0.930 . S
H1458 C1503 0.929 . S
H1459 C1504 0.931 . S
H1460 C1506 0.930 . S
H1461 C1507 0.929 . S
O1462 H1436 0.856 . S
O1462 C1508 1.300 . S
O1463 C1508 1.209 . S
O1464 C1509 1.199 . S
O1465 H1437 0.854 . S
O1465 C1509 1.297 . S
C1466 C1467 1.404 . S
C1466 C1471 1.397 . S
C1466 C1472 1.492 . S
C1467 C1466 1.404 . S
C1467 C1468 1.396 . S
C1467 C1478 1.492 . S
C1468 C1467 1.396 . S
C1468 C1469 1.397 . S
C1468 C1484 1.509 . S
C1469 C1468 1.397 . S
C1469 C1470 1.412 . S
C1469 C1490 1.485 . S
C1470 C1469 1.412 . S
C1470 C1471 1.388 . S
C1470 C1496 1.490 . S
C1471 C1466 1.397 . S
C1471 C1470 1.388 . S
C1471 C1502 1.519 . S
C1472 C1466 1.492 . S
C1472 C1473 1.363 . S
C1472 C1477 1.390 . S
C1473 H1438 0.930 . S
C1473 C1472 1.363 . S
C1473 C1474 1.372 . S
C1474 H1439 0.930 . S
C1474 C1473 1.372 . S
C1474 C1475 1.383 . S
C1475 C1474 1.383 . S
C1475 C1476 1.395 . S
C1476 H1440 0.930 . S
C1476 C1475 1.395 . S
C1476 C1477 1.362 . S
C1477 H1441 0.930 . S
C1477 C1472 1.390 . S
C1477 C1476 1.362 . S
C1478 C1467 1.492 . S
C1478 C1479 1.377 . S
C1478 C1483 1.397 . S
C1479 H1442 0.931 . S
C1479 C1478 1.377 . S
C1479 C1480 1.376 . S
C1480 H1443 0.930 . S
C1480 C1479 1.376 . S
C1480 C1481 1.376 . S
C1481 C1480 1.376 . S
C1481 C1482 1.378 . S
C1481 C1508 1.486 . S
C1482 H1444 0.930 . S
C1482 C1481 1.378 . S
C1482 C1483 1.376 . S
C1483 H1445 0.929 . S
C1483 C1478 1.397 . S
C1483 C1482 1.376 . S
C1484 C1468 1.509 . S
C1484 C1485 1.391 . S
C1484 C1489 1.386 . S
C1485 H1446 0.930 . S
C1485 C1484 1.391 . S
C1485 C1486 1.375 . S
C1486 H1447 0.931 . S
C1486 C1485 1.375 . S
C1486 C1487 1.375 . S
C1487 C1486 1.375 . S
C1487 C1488 1.361 . S
C1488 H1448 0.930 . S
C1488 C1487 1.361 . S
C1488 C1489 1.399 . S
C1489 H1449 0.929 . S
C1489 C1484 1.386 . S
C1489 C1488 1.399 . S
C1490 C1469 1.485 . S
C1490 C1491 1.394 . S
C1490 C1495 1.360 . S
C1491 H1450 0.931 . S
C1491 C1490 1.394 . S
C1491 C1492 1.372 . S
C1492 H1451 0.930 . S
C1492 C1491 1.372 . S
C1492 C1493 1.397 . S
C1493 C1492 1.397 . S
C1493 C1494 1.390 . S
C1493 C1509 1.476 . S
C1494 H1452 0.930 . S
C1494 C1493 1.390 . S
C1494 C1495 1.366 . S
C1495 H1453 0.932 . S
C1495 C1490 1.360 . S
C1495 C1494 1.366 . S
C1496 C1470 1.490 . S
C1496 C1497 1.380 . S
C1496 C1501 1.386 . S
C1497 H1454 0.930 . S
C1497 C1496 1.380 . S
C1497 C1498 1.381 . S
C1498 H1455 0.929 . S
C1498 C1497 1.381 . S
C1498 C1499 1.371 . S
C1499 C1498 1.371 . S
C1499 C1500 1.380 . S
C1500 H1456 0.931 . S
C1500 C1499 1.380 . S
C1500 C1501 1.387 . S
C1501 H1457 0.930 . S
C1501 C1496 1.386 . S
C1501 C1500 1.387 . S
C1502 C1471 1.519 . S
C1502 C1503 1.377 . S
C1502 C1507 1.361 . S
C1503 H1458 0.929 . S
C1503 C1502 1.377 . S
C1503 C1504 1.386 . S
C1504 H1459 0.931 . S
C1504 C1503 1.386 . S
C1504 C1505 1.363 . S
C1505 C1504 1.363 . S
C1505 C1506 1.385 . S
C1506 H1460 0.930 . S
C1506 C1505 1.385 . S
C1506 C1507 1.396 . S
C1507 H1461 0.929 . S
C1507 C1502 1.361 . S
C1507 C1506 1.396 . S
C1508 O1462 1.300 . S
C1508 O1463 1.209 . S
C1508 C1481 1.486 . S
C1509 O1464 1.199 . S
C1509 O1465 1.297 . S
C1509 C1493 1.476 . S
H1510 O1536 0.856 . S
H1511 O1539 0.854 . S
H1512 C1547 0.930 . S
H1513 C1548 0.930 . S
H1514 C1550 0.930 . S
H1515 C1551 0.930 . S
H1516 C1553 0.931 . S
H1517 C1554 0.930 . S
H1518 C1556 0.930 . S
H1519 C1557 0.929 . S
H1520 C1559 0.930 . S
H1521 C1560 0.931 . S
H1522 C1562 0.930 . S
H1523 C1563 0.929 . S
H1524 C1565 0.931 . S
H1525 C1566 0.930 . S
H1526 C1568 0.930 . S
H1527 C1569 0.932 . S
H1528 C1571 0.930 . S
H1529 C1572 0.929 . S
H1530 C1574 0.931 . S
H1531 C1575 0.930 . S
H1532 C1577 0.929 . S
H1533 C1578 0.931 . S
H1534 C1580 0.930 . S
H1535 C1581 0.929 . S
O1536 H1510 0.856 . S
O1536 C1582 1.300 . S
O1537 C1582 1.209 . S
O1538 C1583 1.199 . S
O1539 H1511 0.854 . S
O1539 C1583 1.297 . S
C1540 C1541 1.404 . S
C1540 C1545 1.397 . S
C1540 C1546 1.492 . S
C1541 C1540 1.404 . S
C1541 C1542 1.396 . S
C1541 C1552 1.492 . S
C1542 C1541 1.396 . S
C1542 C1543 1.397 . S
C1542 C1558 1.509 . S
C1543 C1542 1.397 . S
C1543 C1544 1.412 . S
C1543 C1564 1.485 . S
C1544 C1543 1.412 . S
C1544 C1545 1.388 . S
C1544 C1570 1.490 . S
C1545 C1540 1.397 . S
C1545 C1544 1.388 . S
C1545 C1576 1.519 . S
C1546 C1540 1.492 . S
C1546 C1547 1.363 . S
C1546 C1551 1.390 . S
C1547 H1512 0.930 . S
C1547 C1546 1.363 . S
C1547 C1548 1.372 . S
C1548 H1513 0.930 . S
C1548 C1547 1.372 . S
C1548 C1549 1.383 . S
C1549 C1548 1.383 . S
C1549 C1550 1.395 . S
C1550 H1514 0.930 . S
C1550 C1549 1.395 . S
C1550 C1551 1.362 . S
C1551 H1515 0.930 . S
C1551 C1546 1.390 . S
C1551 C1550 1.362 . S
C1552 C1541 1.492 . S
C1552 C1553 1.377 . S
C1552 C1557 1.397 . S
C1553 H1516 0.931 . S
C1553 C1552 1.377 . S
C1553 C1554 1.376 . S
C1554 H1517 0.930 . S
C1554 C1553 1.376 . S
C1554 C1555 1.376 . S
C1555 C1554 1.376 . S
C1555 C1556 1.378 . S
C1555 C1582 1.486 . S
C1556 H1518 0.930 . S
C1556 C1555 1.378 . S
C1556 C1557 1.376 . S
C1557 H1519 0.929 . S
C1557 C1552 1.397 . S
C1557 C1556 1.376 . S
C1558 C1542 1.509 . S
C1558 C1559 1.391 . S
C1558 C1563 1.386 . S
C1559 H1520 0.930 . S
C1559 C1558 1.391 . S
C1559 C1560 1.375 . S
C1560 H1521 0.931 . S
C1560 C1559 1.375 . S
C1560 C1561 1.375 . S
C1561 C1560 1.375 . S
C1561 C1562 1.361 . S
C1562 H1522 0.930 . S
C1562 C1561 1.361 . S
C1562 C1563 1.399 . S
C1563 H1523 0.929 . S
C1563 C1558 1.386 . S
C1563 C1562 1.399 . S
C1564 C1543 1.485 . S
C1564 C1565 1.394 . S
C1564 C1569 1.360 . S
C1565 H1524 0.931 . S
C1565 C1564 1.394 . S
C1565 C1566 1.372 . S
C1566 H1525 0.930 . S
C1566 C1565 1.372 . S
C1566 C1567 1.397 . S
C1567 C1566 1.397 . S
C1567 C1568 1.390 . S
C1567 C1583 1.476 . S
C1568 H1526 0.930 . S
C1568 C1567 1.390 . S
C1568 C1569 1.366 . S
C1569 H1527 0.932 . S
C1569 C1564 1.360 . S
C1569 C1568 1.366 . S
C1570 C1544 1.490 . S
C1570 C1571 1.380 . S
C1570 C1575 1.386 . S
C1571 H1528 0.930 . S
C1571 C1570 1.380 . S
C1571 C1572 1.381 . S
C1572 H1529 0.929 . S
C1572 C1571 1.381 . S
C1572 C1573 1.371 . S
C1573 C1572 1.371 . S
C1573 C1574 1.380 . S
C1574 H1530 0.931 . S
C1574 C1573 1.380 . S
C1574 C1575 1.387 . S
C1575 H1531 0.930 . S
C1575 C1570 1.386 . S
C1575 C1574 1.387 . S
C1576 C1545 1.519 . S
C1576 C1577 1.377 . S
C1576 C1581 1.361 . S
C1577 H1532 0.929 . S
C1577 C1576 1.377 . S
C1577 C1578 1.386 . S
C1578 H1533 0.931 . S
C1578 C1577 1.386 . S
C1578 C1579 1.363 . S
C1579 C1578 1.363 . S
C1579 C1580 1.385 . S
C1580 H1534 0.930 . S
C1580 C1579 1.385 . S
C1580 C1581 1.396 . S
C1581 H1535 0.929 . S
C1581 C1576 1.361 . S
C1581 C1580 1.396 . S
C1582 O1536 1.300 . S
C1582 O1537 1.209 . S
C1582 C1555 1.486 . S
C1583 O1538 1.199 . S
C1583 O1539 1.297 . S
C1583 C1567 1.476 . S
H1584 C1590 0.930 . S
H1585 C1593 0.930 . S
H1586 C1594 0.930 1_455 S
H1587 C1595 0.930 . S
H1588 C1598 0.930 . S
H1589 C1599 0.930 . S
C1590 H1584 0.930 . S
C1590 C1591 1.355 . S
C1590 C1592 1.415 . S
C1591 C1590 1.355 . S
C1591 C1593 1.419 1_655 S
C1592 C1590 1.415 . S
C1592 C1597 1.425 . S
C1592 C1599 1.409 . S
C1593 H1585 0.930 . S
C1593 C1591 1.419 1_455 S
C1593 C1594 1.362 1_455 S
C1594 H1586 0.930 1_655 S
C1594 C1593 1.362 1_655 S
C1594 C1597 1.409 . S
C1595 H1587 0.930 . S
C1595 C1596 1.355 . S
C1595 C1597 1.415 . S
C1596 C1595 1.355 . S
C1596 C1598 1.419 . S
C1597 C1592 1.425 . S
C1597 C1594 1.409 . S
C1597 C1595 1.415 . S
C1598 H1588 0.930 . S
C1598 C1596 1.419 . S
C1598 C1599 1.362 . S
C1599 H1589 0.930 . S
C1599 C1592 1.409 . S
C1599 C1598 1.362 . S
H1600 C1606 0.930 . S
H1601 C1609 0.930 . S
H1602 C1610 0.930 . S
H1603 C1611 0.930 . S
H1604 C1614 0.930 . S
H1605 C1615 0.930 . S
C1606 H1600 0.930 . S
C1606 C1607 1.355 . S
C1606 C1608 1.415 . S
C1607 C1606 1.355 . S
C1607 C1609 1.419 . S
C1608 C1606 1.415 . S
C1608 C1613 1.425 . S
C1608 C1615 1.409 . S
C1609 H1601 0.930 . S
C1609 C1607 1.419 . S
C1609 C1610 1.362 . S
C1610 H1602 0.930 . S
C1610 C1609 1.362 . S
C1610 C1613 1.409 . S
C1611 H1603 0.930 . S
C1611 C1612 1.355 . S
C1611 C1613 1.415 . S
C1612 C1611 1.355 . S
C1612 C1614 1.419 . S
C1613 C1608 1.425 . S
C1613 C1610 1.409 . S
C1613 C1611 1.415 . S
C1614 H1604 0.930 . S
C1614 C1612 1.419 . S
C1614 C1615 1.362 . S
C1615 H1605 0.930 . S
C1615 C1608 1.409 . S
C1615 C1614 1.362 . S
H1616 C1622 0.930 . S
H1617 C1625 0.927 . S
H1618 C1626 0.930 . S
H1619 C1627 0.930 . S
H1620 C1630 0.930 . S
H1621 C1631 0.930 . S
C1622 H1616 0.930 . S
C1622 C1623 1.355 . S
C1622 C1624 1.415 . S
C1623 C1622 1.355 . S
C1623 C1625 1.406 1_545 S
C1624 C1622 1.415 . S
C1624 C1629 1.425 . S
C1624 C1631 1.409 . S
C1625 H1617 0.927 . S
C1625 C1623 1.406 1_565 S
C1625 C1626 1.381 . S
C1626 H1618 0.930 . S
C1626 C1625 1.381 . S
C1626 C1629 1.409 1_565 S
C1627 H1619 0.930 . S
C1627 C1628 1.355 . S
C1627 C1629 1.415 . S
C1628 C1627 1.355 . S
C1628 C1630 1.419 . S
C1629 C1624 1.425 . S
C1629 C1626 1.409 1_545 S
C1629 C1627 1.415 . S
C1630 H1620 0.930 . S
C1630 C1628 1.419 . S
C1630 C1631 1.362 . S
C1631 H1621 0.930 . S
C1631 C1624 1.409 . S
C1631 C1630 1.362 . S
H1632 C1638 0.930 . S
H1633 C1641 0.930 . S
H1634 C1642 0.930 . S
H1635 C1643 0.930 . S
H1636 C1646 0.930 . S
H1637 C1647 0.930 . S
C1638 H1632 0.930 . S
C1638 C1639 1.355 1_545 S
C1638 C1640 1.415 1_545 S
C1639 C1638 1.355 1_565 S
C1639 C1641 1.419 . S
C1640 C1638 1.415 1_565 S
C1640 C1645 1.425 . S
C1640 C1647 1.409 1_565 S
C1641 H1633 0.930 . S
C1641 C1639 1.419 . S
C1641 C1642 1.362 . S
C1642 H1634 0.930 . S
C1642 C1641 1.362 . S
C1642 C1645 1.409 . S
C1643 H1635 0.930 . S
C1643 C1644 1.355 . S
C1643 C1645 1.415 . S
C1644 C1643 1.355 . S
C1644 C1646 1.419 1_565 S
C1645 C1640 1.425 . S
C1645 C1642 1.409 . S
C1645 C1643 1.415 . S
C1646 H1636 0.930 . S
C1646 C1644 1.419 1_545 S
C1646 C1647 1.362 . S
C1647 H1637 0.930 . S
C1647 C1640 1.409 1_545 S
C1647 C1646 1.362 . S
H1648 C1654 0.930 . S
H1649 C1657 0.930 . S
H1650 C1658 0.930 . S
H1651 C1659 0.930 1_655 S
H1652 C1662 0.930 . S
H1653 C1663 0.930 . S
C1654 H1648 0.930 . S
C1654 C1655 1.355 . S
C1654 C1656 1.415 . S
C1655 C1654 1.355 . S
C1655 C1657 1.419 1_455 S
C1656 C1654 1.415 . S
C1656 C1661 1.425 . S
C1656 C1663 1.409 . S
C1657 H1649 0.930 . S
C1657 C1655 1.419 1_655 S
C1657 C1658 1.362 . S
C1658 H1650 0.930 . S
C1658 C1657 1.362 . S
C1658 C1661 1.409 1_655 S
C1659 H1651 0.930 1_455 S
C1659 C1660 1.355 . S
C1659 C1661 1.415 . S
C1660 C1659 1.355 . S
C1660 C1662 1.419 . S
C1661 C1656 1.425 . S
C1661 C1658 1.409 1_455 S
C1661 C1659 1.415 . S
C1662 H1652 0.930 . S
C1662 C1660 1.419 . S
C1662 C1663 1.362 . S
C1663 H1653 0.930 . S
C1663 C1656 1.409 . S
C1663 C1662 1.362 . S
H1664 C1670 0.930 . S
H1665 C1673 0.930 . S
H1666 C1674 0.930 . S
H1667 C1675 0.930 . S
H1668 C1678 0.930 . S
H1669 C1679 0.930 . S
C1670 H1664 0.930 . S
C1670 C1671 1.355 1_556 S
C1670 C1672 1.415 . S
C1671 C1670 1.355 1_554 S
C1671 C1673 1.419 . S
C1672 C1670 1.415 . S
C1672 C1677 1.425 . S
C1672 C1679 1.409 . S
C1673 H1665 0.930 . S
C1673 C1671 1.419 . S
C1673 C1674 1.362 1_554 S
C1674 H1666 0.930 . S
C1674 C1673 1.362 1_556 S
C1674 C1677 1.409 . S
C1675 H1667 0.930 . S
C1675 C1676 1.355 . S
C1675 C1677 1.415 . S
C1676 C1675 1.355 . S
C1676 C1678 1.419 . S
C1677 C1672 1.425 . S
C1677 C1674 1.409 . S
C1677 C1675 1.415 . S
C1678 H1668 0.930 . S
C1678 C1676 1.419 . S
C1678 C1679 1.362 . S
C1679 H1669 0.930 . S
C1679 C1672 1.409 . S
C1679 C1678 1.362 . S
H1680 C1686 0.930 1_554 S
H1681 C1689 0.930 . S
H1682 C1690 0.930 . S
H1683 C1691 0.930 . S
H1684 C1694 0.930 . S
H1685 C1695 0.930 . S
C1686 H1680 0.930 1_556 S
C1686 C1687 1.355 1_655 S
C1686 C1688 1.415 . S
C1687 C1686 1.355 1_455 S
C1687 C1689 1.419 . S
C1688 C1686 1.415 . S
C1688 C1693 1.425 1_655 S
C1688 C1695 1.409 . S
C1689 H1681 0.930 . S
C1689 C1687 1.419 . S
C1689 C1690 1.362 . S
C1690 H1682 0.930 . S
C1690 C1689 1.362 . S
C1690 C1693 1.409 . S
C1691 H1683 0.930 . S
C1691 C1692 1.355 1_455 S
C1691 C1693 1.415 . S
C1692 C1691 1.355 1_655 S
C1692 C1694 1.418 . S
C1693 C1688 1.425 1_455 S
C1693 C1690 1.409 . S
C1693 C1691 1.415 . S
C1694 H1684 0.930 . S
C1694 C1692 1.418 . S
C1694 C1695 1.362 . S
C1695 H1685 0.930 . S
C1695 C1688 1.409 . S
C1695 C1694 1.362 . S
H1696 C1702 0.930 . S
H1697 C1705 0.930 . S
H1698 C1706 0.930 . S
H1699 C1707 0.930 . S
H1700 C1710 0.930 . S
H1701 C1711 0.930 . S
C1702 H1696 0.930 . S
C1702 C1703 1.355 . S
C1702 C1704 1.415 . S
C1703 C1702 1.355 . S
C1703 C1705 1.419 . S
C1704 C1702 1.415 . S
C1704 C1709 1.425 . S
C1704 C1711 1.409 . S
C1705 H1697 0.930 . S
C1705 C1703 1.419 . S
C1705 C1706 1.362 . S
C1706 H1698 0.930 . S
C1706 C1705 1.362 . S
C1706 C1709 1.409 . S
C1707 H1699 0.930 . S
C1707 C1708 1.355 . S
C1707 C1709 1.415 . S
C1708 C1707 1.355 . S
C1708 C1710 1.419 . S
C1709 C1704 1.425 . S
C1709 C1706 1.409 . S
C1709 C1707 1.415 . S
C1710 H1700 0.930 . S
C1710 C1708 1.419 . S
C1710 C1711 1.362 . S
C1711 H1701 0.930 . S
C1711 C1704 1.409 . S
C1711 C1710 1.362 . S
H1712 C1718 0.930 1_554 S
H1713 C1721 0.930 . S
H1714 C1722 0.930 . S
H1715 C1723 0.930 . S
H1716 C1726 0.930 . S
H1717 C1727 0.930 . S
C1718 H1712 0.930 1_556 S
C1718 C1719 1.355 1_545 S
C1718 C1720 1.415 . S
C1719 C1718 1.355 1_565 S
C1719 C1721 1.419 . S
C1720 C1718 1.415 . S
C1720 C1725 1.425 1_545 S
C1720 C1727 1.409 . S
C1721 H1713 0.930 . S
C1721 C1719 1.419 . S
C1721 C1722 1.362 . S
C1722 H1714 0.930 . S
C1722 C1721 1.362 . S
C1722 C1725 1.409 . S
C1723 H1715 0.930 . S
C1723 C1724 1.355 1_565 S
C1723 C1725 1.415 . S
C1724 C1723 1.355 1_545 S
C1724 C1726 1.419 . S
C1725 C1720 1.425 1_565 S
C1725 C1722 1.409 . S
C1725 C1723 1.415 . S
C1726 H1716 0.930 . S
C1726 C1724 1.419 . S
C1726 C1727 1.362 . S
C1727 H1717 0.930 . S
C1727 C1720 1.409 . S
C1727 C1726 1.362 . S
H1728 C1734 0.930 . S
H1729 C1737 0.930 . S
H1730 C1738 0.930 . S
H1731 C1739 0.930 . S
H1732 C1742 0.930 . S
H1733 C1743 0.930 . S
C1734 H1728 0.930 . S
C1734 C1735 1.355 1_565 S
C1734 C1736 1.415 . S
C1735 C1734 1.355 1_545 S
C1735 C1737 1.419 . S
C1736 C1734 1.415 . S
C1736 C1741 1.425 1_565 S
C1736 C1743 1.409 . S
C1737 H1729 0.930 . S
C1737 C1735 1.419 . S
C1737 C1738 1.362 . S
C1738 H1730 0.930 . S
C1738 C1737 1.362 . S
C1738 C1741 1.409 . S
C1739 H1731 0.930 . S
C1739 C1740 1.355 1_545 S
C1739 C1741 1.415 . S
C1740 C1739 1.355 1_565 S
C1740 C1742 1.419 . S
C1741 C1736 1.425 1_545 S
C1741 C1738 1.409 . S
C1741 C1739 1.415 . S
C1742 H1732 0.930 . S
C1742 C1740 1.419 . S
C1742 C1743 1.362 . S
C1743 H1733 0.930 . S
C1743 C1736 1.409 . S
C1743 C1742 1.362 . S
H1744 C1750 0.930 . S
H1745 C1753 0.930 . S
H1746 C1754 0.930 . S
H1747 C1755 0.930 . S
H1748 C1758 0.930 . S
H1749 C1759 0.930 . S
C1750 H1744 0.930 . S
C1750 C1751 1.355 1_455 S
C1750 C1752 1.415 . S
C1751 C1750 1.355 1_655 S
C1751 C1753 1.419 . S
C1752 C1750 1.415 . S
C1752 C1757 1.425 1_455 S
C1752 C1759 1.409 . S
C1753 H1745 0.930 . S
C1753 C1751 1.419 . S
C1753 C1754 1.362 . S
C1754 H1746 0.930 . S
C1754 C1753 1.362 . S
C1754 C1757 1.409 . S
C1755 H1747 0.930 . S
C1755 C1756 1.327 1_655 S
C1755 C1757 1.415 . S
C1756 C1755 1.327 1_455 S
C1756 C1758 1.441 . S
C1757 C1752 1.425 1_655 S
C1757 C1754 1.409 . S
C1757 C1755 1.415 . S
C1758 H1748 0.930 . S
C1758 C1756 1.441 . S
C1758 C1759 1.362 . S
C1759 H1749 0.930 . S
C1759 C1752 1.409 . S
C1759 C1758 1.362 . S
H1760 C1766 0.930 . S
H1761 C1769 0.930 . S
H1762 C1770 0.930 . S
H1763 C1771 0.930 . S
H1764 C1774 0.930 . S
H1765 C1775 0.930 . S
C1766 H1760 0.930 . S
C1766 C1767 1.355 . S
C1766 C1768 1.415 . S
C1767 C1766 1.355 . S
C1767 C1769 1.419 . S
C1768 C1766 1.415 . S
C1768 C1773 1.425 . S
C1768 C1775 1.409 . S
C1769 H1761 0.930 . S
C1769 C1767 1.419 . S
C1769 C1770 1.362 . S
C1770 H1762 0.930 . S
C1770 C1769 1.362 . S
C1770 C1773 1.409 . S
C1771 H1763 0.930 . S
C1771 C1772 1.355 . S
C1771 C1773 1.415 . S
C1772 C1771 1.355 . S
C1772 C1774 1.419 . S
C1773 C1768 1.425 . S
C1773 C1770 1.409 . S
C1773 C1771 1.415 . S
C1774 H1764 0.930 . S
C1774 C1772 1.419 . S
C1774 C1775 1.362 . S
C1775 H1765 0.930 . S
C1775 C1768 1.409 . S
C1775 C1774 1.362 . S
H1776 C1782 0.930 . S
H1777 C1785 0.930 . S
H1778 C1786 0.930 . S
H1779 C1787 0.930 . S
H1780 C1790 0.930 . S
H1781 C1791 0.930 . S
C1782 H1776 0.930 . S
C1782 C1783 1.355 . S
C1782 C1784 1.415 . S
C1783 C1782 1.355 . S
C1783 C1785 1.419 . S
C1784 C1782 1.415 . S
C1784 C1789 1.425 . S
C1784 C1791 1.409 . S
C1785 H1777 0.930 . S
C1785 C1783 1.419 . S
C1785 C1786 1.362 . S
C1786 H1778 0.930 . S
C1786 C1785 1.362 . S
C1786 C1789 1.409 . S
C1787 H1779 0.930 . S
C1787 C1788 1.355 . S
C1787 C1789 1.415 . S
C1788 C1787 1.355 . S
C1788 C1790 1.419 . S
C1789 C1784 1.425 . S
C1789 C1786 1.409 . S
C1789 C1787 1.415 . S
C1790 H1780 0.930 . S
C1790 C1788 1.419 . S
C1790 C1791 1.362 . S
C1791 H1781 0.930 . S
C1791 C1784 1.409 . S
C1791 C1790 1.362 . S
H1792 C1798 0.930 . S
H1793 C1801 0.930 . S
H1794 C1802 0.930 . S
H1795 C1803 0.930 . S
H1796 C1806 0.930 . S
H1797 C1807 0.930 . S
C1798 H1792 0.930 . S
C1798 C1799 1.355 . S
C1798 C1800 1.415 . S
C1799 C1798 1.355 . S
C1799 C1801 1.419 . S
C1800 C1798 1.415 . S
C1800 C1805 1.425 . S
C1800 C1807 1.409 . S
C1801 H1793 0.930 . S
C1801 C1799 1.419 . S
C1801 C1802 1.362 . S
C1802 H1794 0.930 . S
C1802 C1801 1.362 . S
C1802 C1805 1.409 . S
C1803 H1795 0.930 . S
C1803 C1804 1.355 . S
C1803 C1805 1.415 . S
C1804 C1803 1.355 . S
C1804 C1806 1.419 . S
C1805 C1800 1.425 . S
C1805 C1802 1.409 . S
C1805 C1803 1.415 . S
C1806 H1796 0.930 . S
C1806 C1804 1.419 . S
C1806 C1807 1.362 . S
C1807 H1797 0.930 . S
C1807 C1800 1.409 . S
C1807 C1806 1.362 . S
H1808 C1814 0.930 . S
H1809 C1817 0.930 . S
H1810 C1818 0.930 . S
H1811 C1819 0.930 . S
H1812 C1822 0.930 . S
H1813 C1823 0.930 . S
C1814 H1808 0.930 . S
C1814 C1815 1.355 . S
C1814 C1816 1.415 . S
C1815 C1814 1.355 . S
C1815 C1817 1.419 . S
C1816 C1814 1.415 . S
C1816 C1821 1.425 . S
C1816 C1823 1.409 . S
C1817 H1809 0.930 . S
C1817 C1815 1.419 . S
C1817 C1818 1.362 . S
C1818 H1810 0.930 . S
C1818 C1817 1.362 . S
C1818 C1821 1.409 . S
C1819 H1811 0.930 . S
C1819 C1820 1.355 . S
C1819 C1821 1.415 . S
C1820 C1819 1.355 . S
C1820 C1822 1.419 . S
C1821 C1816 1.425 . S
C1821 C1818 1.409 . S
C1821 C1819 1.415 . S
C1822 H1812 0.930 . S
C1822 C1820 1.419 . S
C1822 C1823 1.362 . S
C1823 H1813 0.930 . S
C1823 C1816 1.409 . S
C1823 C1822 1.362 . S
H1824 C1830 0.930 . S
H1825 C1833 0.930 . S
H1826 C1834 0.930 . S
H1827 C1835 0.930 . S
H1828 C1838 0.930 . S
H1829 C1839 0.930 . S
C1830 H1824 0.930 . S
C1830 C1831 1.355 . S
C1830 C1832 1.415 . S
C1831 C1830 1.355 . S
C1831 C1833 1.419 . S
C1832 C1830 1.415 . S
C1832 C1837 1.425 . S
C1832 C1839 1.409 . S
C1833 H1825 0.930 . S
C1833 C1831 1.419 . S
C1833 C1834 1.362 . S
C1834 H1826 0.930 . S
C1834 C1833 1.362 . S
C1834 C1837 1.409 . S
C1835 H1827 0.930 . S
C1835 C1836 1.355 . S
C1835 C1837 1.415 . S
C1836 C1835 1.355 . S
C1836 C1838 1.419 . S
C1837 C1832 1.425 . S
C1837 C1834 1.409 . S
C1837 C1835 1.415 . S
C1838 H1828 0.930 . S
C1838 C1836 1.419 . S
C1838 C1839 1.362 . S
C1839 H1829 0.930 . S
C1839 C1832 1.409 . S
C1839 C1838 1.362 . S
H1840 C1846 0.930 . S
H1841 C1849 0.930 . S
H1842 C1850 0.930 . S
H1843 C1851 0.930 . S
H1844 C1854 0.930 . S
H1845 C1855 0.930 . S
C1846 H1840 0.930 . S
C1846 C1847 1.355 . S
C1846 C1848 1.415 . S
C1847 C1846 1.355 . S
C1847 C1849 1.419 . S
C1848 C1846 1.415 . S
C1848 C1853 1.425 . S
C1848 C1855 1.409 . S
C1849 H1841 0.930 . S
C1849 C1847 1.419 . S
C1849 C1850 1.362 . S
C1850 H1842 0.930 . S
C1850 C1849 1.362 . S
C1850 C1853 1.409 . S
C1851 H1843 0.930 . S
C1851 C1852 1.355 . S
C1851 C1853 1.415 . S
C1852 C1851 1.355 . S
C1852 C1854 1.419 . S
C1853 C1848 1.425 . S
C1853 C1850 1.409 . S
C1853 C1851 1.415 . S
C1854 H1844 0.930 . S
C1854 C1852 1.419 . S
C1854 C1855 1.362 . S
C1855 H1845 0.930 . S
C1855 C1848 1.409 . S
C1855 C1854 1.362 . S
H1856 C1862 0.930 . S
H1857 C1865 0.930 . S
H1858 C1866 0.930 . S
H1859 C1867 0.930 . S
H1860 C1870 0.930 . S
H1861 C1871 0.930 . S
C1862 H1856 0.930 . S
C1862 C1863 1.355 . S
C1862 C1864 1.415 . S
C1863 C1862 1.355 . S
C1863 C1865 1.419 . S
C1864 C1862 1.415 . S
C1864 C1869 1.425 . S
C1864 C1871 1.409 . S
C1865 H1857 0.930 . S
C1865 C1863 1.419 . S
C1865 C1866 1.362 . S
C1866 H1858 0.930 . S
C1866 C1865 1.362 . S
C1866 C1869 1.409 . S
C1867 H1859 0.930 . S
C1867 C1868 1.355 . S
C1867 C1869 1.415 . S
C1868 C1867 1.355 . S
C1868 C1870 1.419 . S
C1869 C1864 1.425 . S
C1869 C1866 1.409 . S
C1869 C1867 1.415 . S
C1870 H1860 0.930 . S
C1870 C1868 1.419 . S
C1870 C1871 1.362 . S
C1871 H1861 0.930 . S
C1871 C1864 1.409 . S
C1871 C1870 1.362 . S
H1872 C1878 0.930 . S
H1873 C1881 0.930 . S
H1874 C1882 0.930 . S
H1875 C1883 0.930 . S
H1876 C1886 0.930 . S
H1877 C1887 0.930 . S
C1878 H1872 0.930 . S
C1878 C1879 1.355 . S
C1878 C1880 1.415 . S
C1879 C1878 1.355 . S
C1879 C1881 1.419 . S
C1880 C1878 1.415 . S
C1880 C1885 1.425 . S
C1880 C1887 1.409 . S
C1881 H1873 0.930 . S
C1881 C1879 1.419 . S
C1881 C1882 1.362 . S
C1882 H1874 0.930 . S
C1882 C1881 1.362 . S
C1882 C1885 1.409 . S
C1883 H1875 0.930 . S
C1883 C1884 1.355 . S
C1883 C1885 1.415 . S
C1884 C1883 1.355 . S
C1884 C1886 1.419 . S
C1885 C1880 1.425 . S
C1885 C1882 1.409 . S
C1885 C1883 1.415 . S
C1886 H1876 0.930 . S
C1886 C1884 1.419 . S
C1886 C1887 1.362 . S
C1887 H1877 0.930 . S
C1887 C1880 1.409 . S
C1887 C1886 1.362 . S
H1888 C1894 0.930 . S
H1889 C1897 0.930 . S
H1890 C1898 0.930 . S
H1891 C1899 0.930 . S
H1892 C1902 0.930 . S
H1893 C1903 0.930 . S
C1894 H1888 0.930 . S
C1894 C1895 1.355 . S
C1894 C1896 1.415 . S
C1895 C1894 1.355 . S
C1895 C1897 1.419 . S
C1896 C1894 1.415 . S
C1896 C1901 1.425 . S
C1896 C1903 1.409 . S
C1897 H1889 0.930 . S
C1897 C1895 1.419 . S
C1897 C1898 1.362 . S
C1898 H1890 0.930 . S
C1898 C1897 1.362 . S
C1898 C1901 1.409 . S
C1899 H1891 0.930 . S
C1899 C1900 1.355 . S
C1899 C1901 1.415 . S
C1900 C1899 1.355 . S
C1900 C1902 1.419 . S
C1901 C1896 1.425 . S
C1901 C1898 1.409 . S
C1901 C1899 1.415 . S
C1902 H1892 0.930 . S
C1902 C1900 1.419 . S
C1902 C1903 1.362 . S
C1903 H1893 0.930 . S
C1903 C1896 1.409 . S
C1903 C1902 1.362 . S
H1904 C1910 0.930 . S
H1905 C1913 0.930 . S
H1906 C1914 0.930 . S
H1907 C1915 0.930 . S
H1908 C1918 0.930 . S
H1909 C1919 0.930 . S
C1910 H1904 0.930 . S
C1910 C1911 1.355 . S
C1910 C1912 1.415 . S
C1911 C1910 1.355 . S
C1911 C1913 1.419 . S
C1912 C1910 1.415 . S
C1912 C1917 1.425 . S
C1912 C1919 1.409 . S
C1913 H1905 0.930 . S
C1913 C1911 1.419 . S
C1913 C1914 1.362 . S
C1914 H1906 0.930 . S
C1914 C1913 1.362 . S
C1914 C1917 1.409 . S
C1915 H1907 0.930 . S
C1915 C1916 1.355 . S
C1915 C1917 1.415 . S
C1916 C1915 1.355 . S
C1916 C1918 1.419 . S
C1917 C1912 1.425 . S
C1917 C1914 1.409 . S
C1917 C1915 1.415 . S
C1918 H1908 0.930 . S
C1918 C1916 1.419 . S
C1918 C1919 1.362 . S
C1919 H1909 0.930 . S
C1919 C1912 1.409 . S
C1919 C1918 1.362 . S
H1920 C1926 0.930 . S
H1921 C1929 0.930 . S
H1922 C1930 0.930 . S
H1923 C1931 0.930 . S
H1924 C1934 0.930 . S
H1925 C1935 0.930 . S
C1926 H1920 0.930 . S
C1926 C1927 1.355 . S
C1926 C1928 1.415 . S
C1927 C1926 1.355 . S
C1927 C1929 1.419 . S
C1928 C1926 1.415 . S
C1928 C1933 1.425 . S
C1928 C1935 1.409 . S
C1929 H1921 0.930 . S
C1929 C1927 1.419 . S
C1929 C1930 1.362 . S
C1930 H1922 0.930 . S
C1930 C1929 1.362 . S
C1930 C1933 1.409 . S
C1931 H1923 0.930 . S
C1931 C1932 1.355 . S
C1931 C1933 1.415 . S
C1932 C1931 1.355 . S
C1932 C1934 1.419 . S
C1933 C1928 1.425 . S
C1933 C1930 1.409 . S
C1933 C1931 1.415 . S
C1934 H1924 0.930 . S
C1934 C1932 1.419 . S
C1934 C1935 1.362 . S
C1935 H1925 0.930 . S
C1935 C1928 1.409 . S
C1935 C1934 1.362 . S
H1936 C1942 0.930 . S
H1937 C1945 0.930 . S
H1938 C1946 0.930 . S
H1939 C1947 0.930 . S
H1940 C1950 0.930 . S
H1941 C1951 0.930 . S
C1942 H1936 0.930 . S
C1942 C1943 1.355 . S
C1942 C1944 1.415 . S
C1943 C1942 1.355 . S
C1943 C1945 1.419 . S
C1944 C1942 1.415 . S
C1944 C1949 1.425 . S
C1944 C1951 1.409 . S
C1945 H1937 0.930 . S
C1945 C1943 1.419 . S
C1945 C1946 1.362 . S
C1946 H1938 0.930 . S
C1946 C1945 1.362 . S
C1946 C1949 1.409 . S
C1947 H1939 0.930 . S
C1947 C1948 1.355 . S
C1947 C1949 1.415 . S
C1948 C1947 1.355 . S
C1948 C1950 1.419 . S
C1949 C1944 1.425 . S
C1949 C1946 1.409 . S
C1949 C1947 1.415 . S
C1950 H1940 0.930 . S
C1950 C1948 1.419 . S
C1950 C1951 1.362 . S
C1951 H1941 0.930 . S
C1951 C1944 1.409 . S
C1951 C1950 1.362 . S
H1952 C1958 0.930 . S
H1953 C1961 0.930 . S
H1954 C1962 0.930 . S
H1955 C1963 0.930 . S
H1956 C1966 0.930 . S
H1957 C1967 0.930 . S
C1958 H1952 0.930 . S
C1958 C1959 1.355 . S
C1958 C1960 1.415 . S
C1959 C1958 1.355 . S
C1959 C1961 1.419 . S
C1960 C1958 1.415 . S
C1960 C1965 1.425 . S
C1960 C1967 1.409 . S
C1961 H1953 0.930 . S
C1961 C1959 1.419 . S
C1961 C1962 1.362 . S
C1962 H1954 0.930 . S
C1962 C1961 1.362 . S
C1962 C1965 1.409 . S
C1963 H1955 0.930 . S
C1963 C1964 1.355 . S
C1963 C1965 1.415 . S
C1964 C1963 1.355 . S
C1964 C1966 1.419 . S
C1965 C1960 1.425 . S
C1965 C1962 1.409 . S
C1965 C1963 1.415 . S
C1966 H1956 0.930 . S
C1966 C1964 1.419 . S
C1966 C1967 1.362 . S
C1967 H1957 0.930 . S
C1967 C1960 1.409 . S
C1967 C1966 1.362 . S
H1968 C1974 0.930 . S
H1969 C1977 0.930 . S
H1970 C1978 0.930 . S
H1971 C1979 0.930 . S
H1972 C1982 0.930 . S
H1973 C1983 0.930 . S
C1974 H1968 0.930 . S
C1974 C1975 1.355 . S
C1974 C1976 1.415 . S
C1975 C1974 1.355 . S
C1975 C1977 1.419 . S
C1976 C1974 1.415 . S
C1976 C1981 1.425 . S
C1976 C1983 1.409 . S
C1977 H1969 0.930 . S
C1977 C1975 1.419 . S
C1977 C1978 1.362 . S
C1978 H1970 0.930 . S
C1978 C1977 1.362 . S
C1978 C1981 1.409 . S
C1979 H1971 0.930 . S
C1979 C1980 1.355 . S
C1979 C1981 1.415 . S
C1980 C1979 1.355 . S
C1980 C1982 1.419 . S
C1981 C1976 1.425 . S
C1981 C1978 1.409 . S
C1981 C1979 1.415 . S
C1982 H1972 0.930 . S
C1982 C1980 1.419 . S
C1982 C1983 1.362 . S
C1983 H1973 0.930 . S
C1983 C1976 1.409 . S
C1983 C1982 1.362 . S
H1984 C1990 0.930 . S
H1985 C1993 0.930 . S
H1986 C1994 0.930 . S
H1987 C1995 0.930 . S
H1988 C1998 0.930 . S
H1989 C1999 0.930 . S
C1990 H1984 0.930 . S
C1990 C1991 1.355 . S
C1990 C1992 1.415 . S
C1991 C1990 1.355 . S
C1991 C1993 1.419 . S
C1992 C1990 1.415 . S
C1992 C1997 1.425 . S
C1992 C1999 1.409 . S
C1993 H1985 0.930 . S
C1993 C1991 1.419 . S
C1993 C1994 1.362 . S
C1994 H1986 0.930 . S
C1994 C1993 1.362 . S
C1994 C1997 1.409 . S
C1995 H1987 0.930 . S
C1995 C1996 1.355 . S
C1995 C1997 1.415 . S
C1996 C1995 1.355 . S
C1996 C1998 1.419 . S
C1997 C1992 1.425 . S
C1997 C1994 1.409 . S
C1997 C1995 1.415 . S
C1998 H1988 0.930 . S
C1998 C1996 1.419 . S
C1998 C1999 1.362 . S
C1999 H1989 0.930 . S
C1999 C1992 1.409 . S
C1999 C1998 1.362 . S
H2000 C2006 0.930 . S
H2001 C2009 0.930 . S
H2002 C2010 0.930 . S
H2003 C2011 0.930 . S
H2004 C2014 0.930 . S
H2005 C2015 0.930 . S
C2006 H2000 0.930 . S
C2006 C2007 1.355 . S
C2006 C2008 1.415 . S
C2007 C2006 1.355 . S
C2007 C2009 1.419 . S
C2008 C2006 1.415 . S
C2008 C2013 1.425 . S
C2008 C2015 1.409 . S
C2009 H2001 0.930 . S
C2009 C2007 1.419 . S
C2009 C2010 1.362 . S
C2010 H2002 0.930 . S
C2010 C2009 1.362 . S
C2010 C2013 1.409 . S
C2011 H2003 0.930 . S
C2011 C2012 1.355 . S
C2011 C2013 1.415 . S
C2012 C2011 1.355 . S
C2012 C2014 1.419 . S
C2013 C2008 1.425 . S
C2013 C2010 1.409 . S
C2013 C2011 1.415 . S
C2014 H2004 0.930 . S
C2014 C2012 1.419 . S
C2014 C2015 1.362 . S
C2015 H2005 0.930 . S
C2015 C2008 1.409 . S
C2015 C2014 1.362 . S
H2016 C2022 0.930 . S
H2017 C2025 0.930 . S
H2018 C2026 0.930 . S
H2019 C2027 0.930 . S
H2020 C2030 0.930 . S
H2021 C2031 0.930 . S
C2022 H2016 0.930 . S
C2022 C2023 1.355 . S
C2022 C2024 1.415 . S
C2023 C2022 1.355 . S
C2023 C2025 1.419 . S
C2024 C2022 1.415 . S
C2024 C2029 1.425 . S
C2024 C2031 1.409 . S
C2025 H2017 0.930 . S
C2025 C2023 1.419 . S
C2025 C2026 1.362 . S
C2026 H2018 0.930 . S
C2026 C2025 1.362 . S
C2026 C2029 1.409 . S
C2027 H2019 0.930 . S
C2027 C2028 1.355 . S
C2027 C2029 1.415 . S
C2028 C2027 1.355 . S
C2028 C2030 1.419 . S
C2029 C2024 1.425 . S
C2029 C2026 1.409 . S
C2029 C2027 1.415 . S
C2030 H2020 0.930 . S
C2030 C2028 1.419 . S
C2030 C2031 1.362 . S
C2031 H2021 0.930 . S
C2031 C2024 1.409 . S
C2031 C2030 1.362 . S
H2032 C2038 0.930 . S
H2033 C2041 0.930 . S
H2034 C2042 0.930 . S
H2035 C2043 0.930 . S
H2036 C2046 0.930 . S
H2037 C2047 0.930 . S
C2038 H2032 0.930 . S
C2038 C2039 1.355 . S
C2038 C2040 1.415 . S
C2039 C2038 1.355 . S
C2039 C2041 1.419 . S
C2040 C2038 1.415 . S
C2040 C2045 1.425 . S
C2040 C2047 1.409 . S
C2041 H2033 0.930 . S
C2041 C2039 1.419 . S
C2041 C2042 1.362 . S
C2042 H2034 0.930 . S
C2042 C2041 1.362 . S
C2042 C2045 1.409 . S
C2043 H2035 0.930 . S
C2043 C2044 1.355 . S
C2043 C2045 1.415 . S
C2044 C2043 1.355 . S
C2044 C2046 1.419 . S
C2045 C2040 1.425 . S
C2045 C2042 1.409 . S
C2045 C2043 1.415 . S
C2046 H2036 0.930 . S
C2046 C2044 1.419 . S
C2046 C2047 1.362 . S
C2047 H2037 0.930 . S
C2047 C2040 1.409 . S
C2047 C2046 1.362 . S
H2048 C2054 0.930 . S
H2049 C2057 0.930 . S
H2050 C2058 0.930 . S
H2051 C2059 0.930 . S
H2052 C2062 0.930 . S
H2053 C2063 0.930 . S
C2054 H2048 0.930 . S
C2054 C2055 1.355 . S
C2054 C2056 1.415 . S
C2055 C2054 1.355 . S
C2055 C2057 1.419 . S
C2056 C2054 1.415 . S
C2056 C2061 1.425 . S
C2056 C2063 1.409 . S
C2057 H2049 0.930 . S
C2057 C2055 1.419 . S
C2057 C2058 1.362 . S
C2058 H2050 0.930 . S
C2058 C2057 1.362 . S
C2058 C2061 1.409 . S
C2059 H2051 0.930 . S
C2059 C2060 1.355 . S
C2059 C2061 1.415 . S
C2060 C2059 1.355 . S
C2060 C2062 1.419 . S
C2061 C2056 1.425 . S
C2061 C2058 1.409 . S
C2061 C2059 1.415 . S
C2062 H2052 0.930 . S
C2062 C2060 1.419 . S
C2062 C2063 1.362 . S
C2063 H2053 0.930 . S
C2063 C2056 1.409 . S
C2063 C2062 1.362 . S
H2064 C2070 0.930 . S
H2065 C2073 0.930 . S
H2066 C2074 0.930 . S
H2067 C2075 0.930 . S
H2068 C2078 0.930 . S
H2069 C2079 0.930 . S
C2070 H2064 0.930 . S
C2070 C2071 1.355 . S
C2070 C2072 1.415 . S
C2071 C2070 1.355 . S
C2071 C2073 1.419 . S
C2072 C2070 1.415 . S
C2072 C2077 1.425 . S
C2072 C2079 1.409 . S
C2073 H2065 0.930 . S
C2073 C2071 1.419 . S
C2073 C2074 1.362 . S
C2074 H2066 0.930 . S
C2074 C2073 1.362 . S
C2074 C2077 1.409 . S
C2075 H2067 0.930 . S
C2075 C2076 1.355 . S
C2075 C2077 1.415 . S
C2076 C2075 1.355 . S
C2076 C2078 1.419 . S
C2077 C2072 1.425 . S
C2077 C2074 1.409 . S
C2077 C2075 1.415 . S
C2078 H2068 0.930 . S
C2078 C2076 1.419 . S
C2078 C2079 1.362 . S
C2079 H2069 0.930 . S
C2079 C2072 1.409 . S
C2079 C2078 1.362 . S
H2080 C2086 0.930 . S
H2081 C2089 0.930 . S
H2082 C2090 0.930 . S
H2083 C2091 0.930 . S
H2084 C2094 0.930 . S
H2085 C2095 0.930 . S
C2086 H2080 0.930 . S
C2086 C2087 1.355 . S
C2086 C2088 1.415 . S
C2087 C2086 1.355 . S
C2087 C2089 1.419 . S
C2088 C2086 1.415 . S
C2088 C2093 1.425 . S
C2088 C2095 1.409 . S
C2089 H2081 0.930 . S
C2089 C2087 1.419 . S
C2089 C2090 1.362 . S
C2090 H2082 0.930 . S
C2090 C2089 1.362 . S
C2090 C2093 1.409 . S
C2091 H2083 0.930 . S
C2091 C2092 1.355 . S
C2091 C2093 1.415 . S
C2092 C2091 1.355 . S
C2092 C2094 1.419 . S
C2093 C2088 1.425 . S
C2093 C2090 1.409 . S
C2093 C2091 1.415 . S
C2094 H2084 0.930 . S
C2094 C2092 1.419 . S
C2094 C2095 1.362 . S
C2095 H2085 0.930 . S
C2095 C2088 1.409 . S
C2095 C2094 1.362 . S
H2096 C2102 0.930 . S
H2097 C2105 0.930 . S
H2098 C2106 0.930 . S
H2099 C2107 0.930 . S
H2100 C2110 0.930 . S
H2101 C2111 0.930 . S
C2102 H2096 0.930 . S
C2102 C2103 1.355 . S
C2102 C2104 1.415 . S
C2103 C2102 1.355 . S
C2103 C2105 1.419 . S
C2104 C2102 1.415 . S
C2104 C2109 1.425 . S
C2104 C2111 1.409 . S
C2105 H2097 0.930 . S
C2105 C2103 1.419 . S
C2105 C2106 1.362 . S
C2106 H2098 0.930 . S
C2106 C2105 1.362 . S
C2106 C2109 1.409 . S
C2107 H2099 0.930 . S
C2107 C2108 1.355 . S
C2107 C2109 1.415 . S
C2108 C2107 1.355 . S
C2108 C2110 1.419 . S
C2109 C2104 1.425 . S
C2109 C2106 1.409 . S
C2109 C2107 1.415 . S
C2110 H2100 0.930 . S
C2110 C2108 1.419 . S
C2110 C2111 1.362 . S
C2111 H2101 0.930 . S
C2111 C2104 1.409 . S
C2111 C2110 1.362 . S
H2112 C2118 0.930 . S
H2113 C2121 0.930 . S
H2114 C2122 0.930 . S
H2115 C2123 0.930 . S
H2116 C2126 0.930 . S
H2117 C2127 0.930 . S
C2118 H2112 0.930 . S
C2118 C2119 1.355 . S
C2118 C2120 1.415 . S
C2119 C2118 1.355 . S
C2119 C2121 1.419 . S
C2120 C2118 1.415 . S
C2120 C2125 1.425 . S
C2120 C2127 1.409 . S
C2121 H2113 0.930 . S
C2121 C2119 1.419 . S
C2121 C2122 1.362 . S
C2122 H2114 0.930 . S
C2122 C2121 1.362 . S
C2122 C2125 1.409 . S
C2123 H2115 0.930 . S
C2123 C2124 1.355 . S
C2123 C2125 1.415 . S
C2124 C2123 1.355 . S
C2124 C2126 1.419 . S
C2125 C2120 1.425 . S
C2125 C2122 1.409 . S
C2125 C2123 1.415 . S
C2126 H2116 0.930 . S
C2126 C2124 1.419 . S
C2126 C2127 1.362 . S
C2127 H2117 0.930 . S
C2127 C2120 1.409 . S
C2127 C2126 1.362 . S
H2128 C2134 0.930 . S
H2129 C2137 0.930 . S
H2130 C2138 0.930 . S
H2131 C2139 0.930 . S
H2132 C2142 0.930 . S
H2133 C2143 0.930 . S
C2134 H2128 0.930 . S
C2134 C2135 1.355 . S
C2134 C2136 1.415 . S
C2135 C2134 1.355 . S
C2135 C2137 1.419 . S
C2136 C2134 1.415 . S
C2136 C2141 1.425 . S
C2136 C2143 1.409 . S
C2137 H2129 0.930 . S
C2137 C2135 1.419 . S
C2137 C2138 1.362 . S
C2138 H2130 0.930 . S
C2138 C2137 1.362 . S
C2138 C2141 1.409 . S
C2139 H2131 0.930 . S
C2139 C2140 1.355 . S
C2139 C2141 1.415 . S
C2140 C2139 1.355 . S
C2140 C2142 1.419 . S
C2141 C2136 1.425 . S
C2141 C2138 1.409 . S
C2141 C2139 1.415 . S
C2142 H2132 0.930 . S
C2142 C2140 1.419 . S
C2142 C2143 1.362 . S
C2143 H2133 0.930 . S
C2143 C2136 1.409 . S
C2143 C2142 1.362 . S
H2144 C2150 0.930 . S
H2145 C2153 0.930 . S
H2146 C2154 0.930 . S
H2147 C2155 0.930 . S
H2148 C2158 0.930 . S
H2149 C2159 0.930 . S
C2150 H2144 0.930 . S
C2150 C2151 1.355 . S
C2150 C2152 1.415 . S
C2151 C2150 1.355 . S
C2151 C2153 1.419 . S
C2152 C2150 1.415 . S
C2152 C2157 1.425 . S
C2152 C2159 1.409 . S
C2153 H2145 0.930 . S
C2153 C2151 1.419 . S
C2153 C2154 1.362 . S
C2154 H2146 0.930 . S
C2154 C2153 1.362 . S
C2154 C2157 1.409 . S
C2155 H2147 0.930 . S
C2155 C2156 1.355 . S
C2155 C2157 1.415 . S
C2156 C2155 1.355 . S
C2156 C2158 1.419 . S
C2157 C2152 1.425 . S
C2157 C2154 1.409 . S
C2157 C2155 1.415 . S
C2158 H2148 0.930 . S
C2158 C2156 1.419 . S
C2158 C2159 1.362 . S
C2159 H2149 0.930 . S
C2159 C2152 1.409 . S
C2159 C2158 1.362 . S
H2160 C2166 0.930 . S
H2161 C2169 0.930 . S
H2162 C2170 0.930 . S
H2163 C2171 0.930 . S
H2164 C2174 0.930 . S
H2165 C2175 0.930 . S
C2166 H2160 0.930 . S
C2166 C2167 1.355 . S
C2166 C2168 1.415 . S
C2167 C2166 1.355 . S
C2167 C2169 1.419 . S
C2168 C2166 1.415 . S
C2168 C2173 1.425 . S
C2168 C2175 1.409 . S
C2169 H2161 0.930 . S
C2169 C2167 1.419 . S
C2169 C2170 1.362 . S
C2170 H2162 0.930 . S
C2170 C2169 1.362 . S
C2170 C2173 1.409 . S
C2171 H2163 0.930 . S
C2171 C2172 1.355 . S
C2171 C2173 1.415 . S
C2172 C2171 1.355 . S
C2172 C2174 1.419 . S
C2173 C2168 1.425 . S
C2173 C2170 1.409 . S
C2173 C2171 1.415 . S
C2174 H2164 0.930 . S
C2174 C2172 1.419 . S
C2174 C2175 1.362 . S
C2175 H2165 0.930 . S
C2175 C2168 1.409 . S
C2175 C2174 1.362 . S
H2176 C2182 0.930 . S
H2177 C2185 0.930 . S
H2178 C2186 0.930 . S
H2179 C2187 0.930 . S
H2180 C2190 0.930 . S
H2181 C2191 0.930 . S
C2182 H2176 0.930 . S
C2182 C2183 1.355 . S
C2182 C2184 1.415 . S
C2183 C2182 1.355 . S
C2183 C2185 1.419 . S
C2184 C2182 1.415 . S
C2184 C2189 1.425 . S
C2184 C2191 1.409 . S
C2185 H2177 0.930 . S
C2185 C2183 1.419 . S
C2185 C2186 1.362 . S
C2186 H2178 0.930 . S
C2186 C2185 1.362 . S
C2186 C2189 1.409 . S
C2187 H2179 0.930 . S
C2187 C2188 1.355 . S
C2187 C2189 1.415 . S
C2188 C2187 1.355 . S
C2188 C2190 1.419 . S
C2189 C2184 1.425 . S
C2189 C2186 1.409 . S
C2189 C2187 1.415 . S
C2190 H2180 0.930 . S
C2190 C2188 1.419 . S
C2190 C2191 1.362 . S
C2191 H2181 0.930 . S
C2191 C2184 1.409 . S
C2191 C2190 1.362 . S
H2192 C2198 0.930 . S
H2193 C2201 0.930 . S
H2194 C2202 0.930 . S
H2195 C2203 0.930 . S
H2196 C2206 0.930 . S
H2197 C2207 0.930 . S
C2198 H2192 0.930 . S
C2198 C2199 1.355 . S
C2198 C2200 1.415 . S
C2199 C2198 1.355 . S
C2199 C2201 1.419 . S
C2200 C2198 1.415 . S
C2200 C2205 1.425 . S
C2200 C2207 1.409 . S
C2201 H2193 0.930 . S
C2201 C2199 1.419 . S
C2201 C2202 1.362 . S
C2202 H2194 0.930 . S
C2202 C2201 1.362 . S
C2202 C2205 1.409 . S
C2203 H2195 0.930 . S
C2203 C2204 1.355 . S
C2203 C2205 1.415 . S
C2204 C2203 1.355 . S
C2204 C2206 1.419 . S
C2205 C2200 1.425 . S
C2205 C2202 1.409 . S
C2205 C2203 1.415 . S
C2206 H2196 0.930 . S
C2206 C2204 1.419 . S
C2206 C2207 1.362 . S
C2207 H2197 0.930 . S
C2207 C2200 1.409 . S
C2207 C2206 1.362 . S
H2208 C2214 0.930 1_554 S
H2209 C2217 0.930 . S
H2210 C2218 0.930 . S
H2211 C2219 0.930 . S
H2212 C2222 0.930 . S
H2213 C2223 0.930 . S
C2214 H2208 0.930 1_556 S
C2214 C2215 1.359 . S
C2214 C2216 1.415 . S
C2215 C2214 1.359 . S
C2215 C2217 1.422 . S
C2216 C2214 1.415 . S
C2216 C2221 1.425 . S
C2216 C2223 1.409 . S
C2217 H2209 0.930 . S
C2217 C2215 1.422 . S
C2217 C2218 1.362 . S
C2218 H2210 0.930 . S
C2218 C2217 1.362 . S
C2218 C2221 1.409 . S
C2219 H2211 0.930 . S
C2219 C2220 1.355 . S
C2219 C2221 1.415 . S
C2220 C2219 1.355 . S
C2220 C2222 1.419 . S
C2221 C2216 1.425 . S
C2221 C2218 1.409 . S
C2221 C2219 1.415 . S
C2222 H2212 0.930 . S
C2222 C2220 1.419 . S
C2222 C2223 1.362 . S
C2223 H2213 0.930 . S
C2223 C2216 1.409 . S
C2223 C2222 1.362 . S
H2224 C2230 0.930 . S
H2225 C2233 0.930 1_554 S
H2226 C2234 0.930 . S
H2227 C2235 0.930 . S
H2228 C2238 0.930 . S
H2229 C2239 0.930 . S
C2230 H2224 0.930 . S
C2230 C2231 1.355 . S
C2230 C2232 1.415 . S
C2231 C2230 1.355 . S
C2231 C2233 1.419 . S
C2232 C2230 1.415 . S
C2232 C2237 1.425 . S
C2232 C2239 1.409 . S
C2233 H2225 0.930 1_556 S
C2233 C2231 1.419 . S
C2233 C2234 1.362 . S
C2234 H2226 0.930 . S
C2234 C2233 1.362 . S
C2234 C2237 1.409 . S
C2235 H2227 0.930 . S
C2235 C2236 1.355 . S
C2235 C2237 1.415 . S
C2236 C2235 1.355 . S
C2236 C2238 1.419 . S
C2237 C2232 1.425 . S
C2237 C2234 1.409 . S
C2237 C2235 1.415 . S
C2238 H2228 0.930 . S
C2238 C2236 1.419 . S
C2238 C2239 1.362 . S
C2239 H2229 0.930 . S
C2239 C2232 1.409 . S
C2239 C2238 1.362 . S
H2240 C2246 0.930 . S
H2241 C2249 0.930 . S
H2242 C2250 0.930 1_556 S
H2243 C2251 0.930 . S
H2244 C2254 0.930 . S
H2245 C2255 0.930 . S
C2246 H2240 0.930 . S
C2246 C2247 1.355 . S
C2246 C2248 1.415 . S
C2247 C2246 1.355 . S
C2247 C2249 1.419 . S
C2248 C2246 1.415 . S
C2248 C2253 1.425 . S
C2248 C2255 1.409 . S
C2249 H2241 0.930 . S
C2249 C2247 1.419 . S
C2249 C2250 1.362 . S
C2250 H2242 0.930 1_554 S
C2250 C2249 1.362 . S
C2250 C2253 1.409 . S
C2251 H2243 0.930 . S
C2251 C2252 1.355 . S
C2251 C2253 1.415 1_556 S
C2252 C2251 1.355 . S
C2252 C2254 1.419 1_556 S
C2253 C2248 1.425 . S
C2253 C2250 1.409 . S
C2253 C2251 1.415 1_554 S
C2254 H2244 0.930 . S
C2254 C2252 1.419 1_554 S
C2254 C2255 1.362 . S
C2255 H2245 0.930 . S
C2255 C2248 1.409 . S
C2255 C2254 1.362 . S
H2256 C2262 0.930 . S
H2257 C2265 0.930 . S
H2258 C2266 0.930 1_554 S
H2259 C2267 0.930 . S
H2260 C2270 0.930 . S
H2261 C2271 0.930 . S
C2262 H2256 0.930 . S
C2262 C2263 1.355 1_556 S
C2262 C2264 1.415 . S
C2263 C2262 1.355 1_554 S
C2263 C2265 1.419 . S
C2264 C2262 1.415 . S
C2264 C2269 1.425 . S
C2264 C2271 1.409 . S
C2265 H2257 0.930 . S
C2265 C2263 1.419 . S
C2265 C2266 1.362 1_554 S
C2266 H2258 0.930 1_556 S
C2266 C2265 1.362 1_556 S
C2266 C2269 1.409 . S
C2267 H2259 0.930 . S
C2267 C2268 1.355 . S
C2267 C2269 1.415 . S
C2268 C2267 1.355 . S
C2268 C2270 1.419 . S
C2269 C2264 1.425 . S
C2269 C2266 1.409 . S
C2269 C2267 1.415 . S
C2270 H2260 0.930 . S
C2270 C2268 1.419 . S
C2270 C2271 1.362 . S
C2271 H2261 0.930 . S
C2271 C2264 1.409 . S
C2271 C2270 1.362 . S
H2272 C2278 0.930 . S
H2273 C2281 0.930 . S
H2274 C2282 0.930 . S
H2275 C2283 0.930 . S
H2276 C2286 0.930 . S
H2277 C2287 0.930 . S
C2278 H2272 0.930 . S
C2278 C2279 1.355 . S
C2278 C2280 1.415 . S
C2279 C2278 1.355 . S
C2279 C2281 1.419 . S
C2280 C2278 1.415 . S
C2280 C2285 1.425 . S
C2280 C2287 1.409 . S
C2281 H2273 0.930 . S
C2281 C2279 1.419 . S
C2281 C2282 1.362 . S
C2282 H2274 0.930 . S
C2282 C2281 1.362 . S
C2282 C2285 1.409 . S
C2283 H2275 0.930 . S
C2283 C2284 1.355 . S
C2283 C2285 1.415 . S
C2284 C2283 1.355 . S
C2284 C2286 1.419 . S
C2285 C2280 1.425 . S
C2285 C2282 1.409 . S
C2285 C2283 1.415 . S
C2286 H2276 0.930 . S
C2286 C2284 1.419 . S
C2286 C2287 1.362 . S
C2287 H2277 0.930 . S
C2287 C2280 1.409 . S
C2287 C2286 1.362 . S
H2288 C2294 0.930 1_556 S
H2289 C2297 0.930 . S
H2290 C2298 0.930 . S
H2291 C2299 0.930 1_554 S
H2292 C2302 0.930 . S
H2293 C2303 0.930 . S
C2294 H2288 0.930 1_554 S
C2294 C2295 1.355 . S
C2294 C2296 1.415 1_554 S
C2295 C2294 1.355 . S
C2295 C2297 1.419 . S
C2296 C2294 1.415 1_556 S
C2296 C2301 1.425 1_556 S
C2296 C2303 1.409 . S
C2297 H2289 0.930 . S
C2297 C2295 1.419 . S
C2297 C2298 1.362 . S
C2298 H2290 0.930 . S
C2298 C2297 1.362 . S
C2298 C2301 1.409 . S
C2299 H2291 0.930 1_556 S
C2299 C2300 1.355 . S
C2299 C2301 1.415 1_556 S
C2300 C2299 1.355 . S
C2300 C2302 1.419 . S
C2301 C2296 1.425 1_554 S
C2301 C2298 1.409 . S
C2301 C2299 1.415 1_554 S
C2302 H2292 0.930 . S
C2302 C2300 1.419 . S
C2302 C2303 1.362 . S
C2303 H2293 0.930 . S
C2303 C2296 1.409 . S
C2303 C2302 1.362 . S
H2304 C2310 0.930 . S
H2305 C2313 0.930 . S
H2306 C2314 0.930 . S
H2307 C2315 0.930 . S
H2308 C2318 0.930 . S
H2309 C2319 0.930 . S
C2310 H2304 0.930 . S
C2310 C2311 1.355 . S
C2310 C2312 1.415 . S
C2311 C2310 1.355 . S
C2311 C2313 1.419 . S
C2312 C2310 1.415 . S
C2312 C2317 1.425 . S
C2312 C2319 1.409 . S
C2313 H2305 0.930 . S
C2313 C2311 1.419 . S
C2313 C2314 1.362 . S
C2314 H2306 0.930 . S
C2314 C2313 1.362 . S
C2314 C2317 1.409 . S
C2315 H2307 0.930 . S
C2315 C2316 1.355 . S
C2315 C2317 1.415 . S
C2316 C2315 1.355 . S
C2316 C2318 1.419 . S
C2317 C2312 1.425 . S
C2317 C2314 1.409 . S
C2317 C2315 1.415 . S
C2318 H2308 0.930 . S
C2318 C2316 1.419 . S
C2318 C2319 1.362 . S
C2319 H2309 0.930 . S
C2319 C2312 1.409 . S
C2319 C2318 1.362 . S
H2320 C2326 0.930 . S
H2321 C2329 0.930 . S
H2322 C2330 0.930 . S
H2323 C2331 0.930 . S
H2324 C2334 0.930 . S
H2325 C2335 0.930 . S
C2326 H2320 0.930 . S
C2326 C2327 1.355 . S
C2326 C2328 1.415 . S
C2327 C2326 1.355 . S
C2327 C2329 1.419 . S
C2328 C2326 1.415 . S
C2328 C2333 1.425 . S
C2328 C2335 1.409 . S
C2329 H2321 0.930 . S
C2329 C2327 1.419 . S
C2329 C2330 1.362 . S
C2330 H2322 0.930 . S
C2330 C2329 1.362 . S
C2330 C2333 1.409 . S
C2331 H2323 0.930 . S
C2331 C2332 1.355 . S
C2331 C2333 1.415 . S
C2332 C2331 1.355 . S
C2332 C2334 1.419 . S
C2333 C2328 1.425 . S
C2333 C2330 1.409 . S
C2333 C2331 1.415 . S
C2334 H2324 0.930 . S
C2334 C2332 1.419 . S
C2334 C2335 1.362 . S
C2335 H2325 0.930 . S
C2335 C2328 1.409 . S
C2335 C2334 1.362 . S
H2336 C2342 0.930 . S
H2337 C2345 0.930 . S
H2338 C2346 0.930 . S
H2339 C2347 0.930 . S
H2340 C2350 0.930 . S
H2341 C2351 0.930 . S
C2342 H2336 0.930 . S
C2342 C2343 1.355 . S
C2342 C2344 1.415 . S
C2343 C2342 1.355 . S
C2343 C2345 1.419 . S
C2344 C2342 1.415 . S
C2344 C2349 1.425 . S
C2344 C2351 1.409 . S
C2345 H2337 0.930 . S
C2345 C2343 1.419 . S
C2345 C2346 1.362 . S
C2346 H2338 0.930 . S
C2346 C2345 1.362 . S
C2346 C2349 1.409 . S
C2347 H2339 0.930 . S
C2347 C2348 1.355 . S
C2347 C2349 1.415 . S
C2348 C2347 1.355 . S
C2348 C2350 1.419 . S
C2349 C2344 1.425 . S
C2349 C2346 1.409 . S
C2349 C2347 1.415 . S
C2350 H2340 0.930 . S
C2350 C2348 1.419 . S
C2350 C2351 1.362 . S
C2351 H2341 0.930 . S
C2351 C2344 1.409 . S
C2351 C2350 1.362 . S
H2352 C2358 0.930 . S
H2353 C2361 0.930 . S
H2354 C2362 0.930 . S
H2355 C2363 0.930 . S
H2356 C2366 0.930 . S
H2357 C2367 0.930 . S
C2358 H2352 0.930 . S
C2358 C2359 1.355 . S
C2358 C2360 1.415 . S
C2359 C2358 1.355 . S
C2359 C2361 1.419 . S
C2360 C2358 1.415 . S
C2360 C2365 1.425 . S
C2360 C2367 1.409 . S
C2361 H2353 0.930 . S
C2361 C2359 1.419 . S
C2361 C2362 1.362 . S
C2362 H2354 0.930 . S
C2362 C2361 1.362 . S
C2362 C2365 1.409 . S
C2363 H2355 0.930 . S
C2363 C2364 1.355 . S
C2363 C2365 1.415 . S
C2364 C2363 1.355 . S
C2364 C2366 1.419 . S
C2365 C2360 1.425 . S
C2365 C2362 1.409 . S
C2365 C2363 1.415 . S
C2366 H2356 0.930 . S
C2366 C2364 1.419 . S
C2366 C2367 1.362 . S
C2367 H2357 0.930 . S
C2367 C2360 1.409 . S
C2367 C2366 1.362 . S
H2368 C2374 0.930 . S
H2369 C2377 0.930 . S
H2370 C2378 0.930 . S
H2371 C2379 0.930 . S
H2372 C2382 0.930 . S
H2373 C2383 0.930 . S
C2374 H2368 0.930 . S
C2374 C2375 1.355 . S
C2374 C2376 1.415 . S
C2375 C2374 1.355 . S
C2375 C2377 1.419 . S
C2376 C2374 1.415 . S
C2376 C2381 1.425 . S
C2376 C2383 1.409 . S
C2377 H2369 0.930 . S
C2377 C2375 1.419 . S
C2377 C2378 1.362 . S
C2378 H2370 0.930 . S
C2378 C2377 1.362 . S
C2378 C2381 1.409 . S
C2379 H2371 0.930 . S
C2379 C2380 1.355 . S
C2379 C2381 1.415 . S
C2380 C2379 1.355 . S
C2380 C2382 1.419 . S
C2381 C2376 1.425 . S
C2381 C2378 1.409 . S
C2381 C2379 1.415 . S
C2382 H2372 0.930 . S
C2382 C2380 1.419 . S
C2382 C2383 1.362 . S
C2383 H2373 0.930 . S
C2383 C2376 1.409 . S
C2383 C2382 1.362 . S
H2384 C2390 0.930 . S
H2385 C2393 0.930 . S
H2386 C2394 0.930 . S
H2387 C2395 0.930 . S
H2388 C2398 0.930 . S
H2389 C2399 0.930 . S
C2390 H2384 0.930 . S
C2390 C2391 1.355 . S
C2390 C2392 1.415 . S
C2391 C2390 1.355 . S
C2391 C2393 1.419 . S
C2392 C2390 1.415 . S
C2392 C2397 1.425 . S
C2392 C2399 1.409 . S
C2393 H2385 0.930 . S
C2393 C2391 1.419 . S
C2393 C2394 1.362 . S
C2394 H2386 0.930 . S
C2394 C2393 1.362 . S
C2394 C2397 1.409 . S
C2395 H2387 0.930 . S
C2395 C2396 1.355 . S
C2395 C2397 1.415 . S
C2396 C2395 1.355 . S
C2396 C2398 1.419 . S
C2397 C2392 1.425 . S
C2397 C2394 1.409 . S
C2397 C2395 1.415 . S
C2398 H2388 0.930 . S
C2398 C2396 1.419 . S
C2398 C2399 1.362 . S
C2399 H2389 0.930 . S
C2399 C2392 1.409 . S
C2399 C2398 1.362 . S
H2400 C2406 0.930 . S
H2401 C2409 0.930 . S
H2402 C2410 0.930 . S
H2403 C2411 0.930 . S
H2404 C2414 0.930 1_655 S
H2405 C2415 0.930 1_655 S
C2406 H2400 0.930 . S
C2406 C2407 1.355 . S
C2406 C2408 1.415 . S
C2407 C2406 1.355 . S
C2407 C2409 1.419 . S
C2408 C2406 1.415 . S
C2408 C2413 1.425 . S
C2408 C2415 1.409 . S
C2409 H2401 0.930 . S
C2409 C2407 1.419 . S
C2409 C2410 1.362 . S
C2410 H2402 0.930 . S
C2410 C2409 1.362 . S
C2410 C2413 1.409 . S
C2411 H2403 0.930 . S
C2411 C2412 1.355 . S
C2411 C2413 1.415 . S
C2412 C2411 1.355 . S
C2412 C2414 1.419 . S
C2413 C2408 1.425 . S
C2413 C2410 1.409 . S
C2413 C2411 1.415 . S
C2414 H2404 0.930 1_455 S
C2414 C2412 1.419 . S
C2414 C2415 1.362 . S
C2415 H2405 0.930 1_455 S
C2415 C2408 1.409 . S
C2415 C2414 1.362 . S
H2416 C2422 0.930 . S
H2417 C2425 0.930 . S
H2418 C2426 0.930 . S
H2419 C2427 0.930 . S
H2420 C2430 0.930 . S
H2421 C2431 0.930 . S
C2422 H2416 0.930 . S
C2422 C2423 1.355 . S
C2422 C2424 1.415 . S
C2423 C2422 1.355 . S
C2423 C2425 1.419 . S
C2424 C2422 1.415 . S
C2424 C2429 1.425 . S
C2424 C2431 1.409 . S
C2425 H2417 0.930 . S
C2425 C2423 1.419 . S
C2425 C2426 1.362 . S
C2426 H2418 0.930 . S
C2426 C2425 1.362 . S
C2426 C2429 1.409 . S
C2427 H2419 0.930 . S
C2427 C2428 1.355 . S
C2427 C2429 1.415 . S
C2428 C2427 1.355 . S
C2428 C2430 1.419 . S
C2429 C2424 1.425 . S
C2429 C2426 1.409 . S
C2429 C2427 1.415 . S
C2430 H2420 0.930 . S
C2430 C2428 1.419 . S
C2430 C2431 1.362 . S
C2431 H2421 0.930 . S
C2431 C2424 1.409 . S
C2431 C2430 1.362 . S
H2432 C2438 0.930 . S
H2433 C2441 0.930 . S
H2434 C2442 0.930 1_545 S
H2435 C2443 0.930 . S
H2436 C2446 0.930 . S
H2437 C2447 0.930 . S
C2438 H2432 0.930 . S
C2438 C2439 1.355 . S
C2438 C2440 1.415 . S
C2439 C2438 1.355 . S
C2439 C2441 1.419 . S
C2440 C2438 1.415 . S
C2440 C2445 1.425 . S
C2440 C2447 1.409 . S
C2441 H2433 0.930 . S
C2441 C2439 1.419 . S
C2441 C2442 1.362 . S
C2442 H2434 0.930 1_565 S
C2442 C2441 1.362 . S
C2442 C2445 1.409 . S
C2443 H2435 0.930 . S
C2443 C2444 1.355 . S
C2443 C2445 1.415 . S
C2444 C2443 1.355 . S
C2444 C2446 1.419 . S
C2445 C2440 1.425 . S
C2445 C2442 1.409 . S
C2445 C2443 1.415 . S
C2446 H2436 0.930 . S
C2446 C2444 1.419 . S
C2446 C2447 1.362 . S
C2447 H2437 0.930 . S
C2447 C2440 1.409 . S
C2447 C2446 1.362 . S
H2448 C2454 0.930 . S
H2449 C2457 0.930 . S
H2450 C2458 0.930 . S
H2451 C2459 0.930 . S
H2452 C2462 0.930 . S
H2453 C2463 0.930 . S
C2454 H2448 0.930 . S
C2454 C2455 1.355 . S
C2454 C2456 1.415 . S
C2455 C2454 1.355 . S
C2455 C2457 1.419 1_565 S
C2456 C2454 1.415 . S
C2456 C2461 1.381 1_565 S
C2456 C2463 1.409 . S
C2457 H2449 0.930 . S
C2457 C2455 1.419 1_545 S
C2457 C2458 1.362 . S
C2458 H2450 0.930 . S
C2458 C2457 1.362 . S
C2458 C2461 1.417 . S
C2459 H2451 0.930 . S
C2459 C2460 1.355 1_545 S
C2459 C2461 1.451 . S
C2460 C2459 1.355 1_565 S
C2460 C2462 1.419 . S
C2461 C2456 1.381 1_545 S
C2461 C2458 1.417 . S
C2461 C2459 1.451 . S
C2462 H2452 0.930 . S
C2462 C2460 1.419 . S
C2462 C2463 1.362 . S
C2463 H2453 0.930 . S
C2463 C2456 1.409 . S
C2463 C2462 1.362 . S
H2464 C2470 0.930 . S
H2465 C2473 0.887 1_655 S
H2466 C2474 0.930 . S
H2467 C2475 0.930 . S
H2468 C2478 0.930 . S
H2469 C2479 0.930 . S
C2470 H2464 0.930 . S
C2470 C2471 1.355 . S
C2470 C2472 1.415 . S
C2471 C2470 1.355 . S
C2471 C2473 1.461 . S
C2472 C2470 1.415 . S
C2472 C2477 1.425 . S
C2472 C2479 1.409 . S
C2473 H2465 0.887 1_455 S
C2473 C2471 1.461 . S
C2473 C2474 1.366 1_455 S
C2474 H2466 0.930 . S
C2474 C2473 1.366 1_655 S
C2474 C2477 1.409 1_655 S
C2475 H2467 0.930 . S
C2475 C2476 1.355 1_655 S
C2475 C2477 1.415 1_655 S
C2476 C2475 1.355 1_455 S
C2476 C2478 1.419 . S
C2477 C2472 1.425 . S
C2477 C2474 1.409 1_455 S
C2477 C2475 1.415 1_455 S
C2478 H2468 0.930 . S
C2478 C2476 1.419 . S
C2478 C2479 1.362 . S
C2479 H2469 0.930 . S
C2479 C2472 1.409 . S
C2479 C2478 1.362 . S
H2480 C2486 0.930 . S
H2481 C2489 0.930 . S
H2482 C2490 0.930 . S
H2483 C2491 0.930 . S
H2484 C2494 0.930 . S
H2485 C2495 0.930 . S
C2486 H2480 0.930 . S
C2486 C2487 1.355 . S
C2486 C2488 1.415 . S
C2487 C2486 1.355 . S
C2487 C2489 1.419 . S
C2488 C2486 1.415 . S
C2488 C2493 1.425 . S
C2488 C2495 1.409 . S
C2489 H2481 0.930 . S
C2489 C2487 1.419 . S
C2489 C2490 1.362 . S
C2490 H2482 0.930 . S
C2490 C2489 1.362 . S
C2490 C2493 1.409 . S
C2491 H2483 0.930 . S
C2491 C2492 1.355 . S
C2491 C2493 1.415 . S
C2492 C2491 1.355 . S
C2492 C2494 1.419 . S
C2493 C2488 1.425 . S
C2493 C2490 1.409 . S
C2493 C2491 1.415 . S
C2494 H2484 0.930 . S
C2494 C2492 1.419 . S
C2494 C2495 1.362 . S
C2495 H2485 0.930 . S
C2495 C2488 1.409 . S
C2495 C2494 1.362 . S
H2496 C2502 0.930 . S
H2497 C2505 0.930 . S
H2498 C2506 0.930 . S
H2499 C2507 0.930 . S
H2500 C2510 0.930 . S
H2501 C2511 0.930 . S
C2502 H2496 0.930 . S
C2502 C2503 1.355 . S
C2502 C2504 1.415 . S
C2503 C2502 1.355 . S
C2503 C2505 1.419 . S
C2504 C2502 1.415 . S
C2504 C2509 1.425 . S
C2504 C2511 1.409 . S
C2505 H2497 0.930 . S
C2505 C2503 1.419 . S
C2505 C2506 1.362 . S
C2506 H2498 0.930 . S
C2506 C2505 1.362 . S
C2506 C2509 1.409 . S
C2507 H2499 0.930 . S
C2507 C2508 1.355 . S
C2507 C2509 1.415 . S
C2508 C2507 1.355 . S
C2508 C2510 1.419 . S
C2509 C2504 1.425 . S
C2509 C2506 1.409 . S
C2509 C2507 1.415 . S
C2510 H2500 0.930 . S
C2510 C2508 1.419 . S
C2510 C2511 1.362 . S
C2511 H2501 0.930 . S
C2511 C2504 1.409 . S
C2511 C2510 1.362 . S
H2512 C2518 0.930 . S
H2513 C2521 0.930 . S
H2514 C2522 0.930 . S
H2515 C2523 0.930 . S
H2516 C2526 0.930 . S
H2517 C2527 0.930 . S
C2518 H2512 0.930 . S
C2518 C2519 1.355 . S
C2518 C2520 1.415 . S
C2519 C2518 1.355 . S
C2519 C2521 1.419 . S
C2520 C2518 1.415 . S
C2520 C2525 1.425 . S
C2520 C2527 1.409 . S
C2521 H2513 0.930 . S
C2521 C2519 1.419 . S
C2521 C2522 1.362 . S
C2522 H2514 0.930 . S
C2522 C2521 1.362 . S
C2522 C2525 1.409 . S
C2523 H2515 0.930 . S
C2523 C2524 1.355 . S
C2523 C2525 1.415 . S
C2524 C2523 1.355 . S
C2524 C2526 1.419 . S
C2525 C2520 1.425 . S
C2525 C2522 1.409 . S
C2525 C2523 1.415 . S
C2526 H2516 0.930 . S
C2526 C2524 1.419 . S
C2526 C2527 1.362 . S
C2527 H2517 0.930 . S
C2527 C2520 1.409 . S
C2527 C2526 1.362 . S
H2528 C2534 0.930 . S
H2529 C2537 0.930 . S
H2530 C2538 0.930 . S
H2531 C2539 0.930 . S
H2532 C2542 0.930 . S
H2533 C2543 0.930 . S
C2534 H2528 0.930 . S
C2534 C2535 1.355 . S
C2534 C2536 1.415 . S
C2535 C2534 1.355 . S
C2535 C2537 1.419 . S
C2536 C2534 1.415 . S
C2536 C2541 1.425 . S
C2536 C2543 1.409 . S
C2537 H2529 0.930 . S
C2537 C2535 1.419 . S
C2537 C2538 1.362 . S
C2538 H2530 0.930 . S
C2538 C2537 1.362 . S
C2538 C2541 1.409 . S
C2539 H2531 0.930 . S
C2539 C2540 1.355 . S
C2539 C2541 1.415 . S
C2540 C2539 1.355 . S
C2540 C2542 1.419 . S
C2541 C2536 1.425 . S
C2541 C2538 1.409 . S
C2541 C2539 1.415 . S
C2542 H2532 0.930 . S
C2542 C2540 1.419 . S
C2542 C2543 1.362 . S
C2543 H2533 0.930 . S
C2543 C2536 1.409 . S
C2543 C2542 1.362 . S
H2544 C2550 0.930 . S
H2545 C2553 0.930 . S
H2546 C2554 0.930 . S
H2547 C2555 0.930 . S
H2548 C2558 0.930 . S
H2549 C2559 0.930 . S
C2550 H2544 0.930 . S
C2550 C2551 1.355 . S
C2550 C2552 1.415 . S
C2551 C2550 1.355 . S
C2551 C2553 1.419 . S
C2552 C2550 1.415 . S
C2552 C2557 1.425 . S
C2552 C2559 1.409 . S
C2553 H2545 0.930 . S
C2553 C2551 1.419 . S
C2553 C2554 1.362 . S
C2554 H2546 0.930 . S
C2554 C2553 1.362 . S
C2554 C2557 1.409 . S
C2555 H2547 0.930 . S
C2555 C2556 1.355 . S
C2555 C2557 1.415 . S
C2556 C2555 1.355 . S
C2556 C2558 1.419 . S
C2557 C2552 1.425 . S
C2557 C2554 1.409 . S
C2557 C2555 1.415 . S
C2558 H2548 0.930 . S
C2558 C2556 1.419 . S
C2558 C2559 1.362 . S
C2559 H2549 0.930 . S
C2559 C2552 1.409 . S
C2559 C2558 1.362 . S
H2560 C2566 0.930 . S
H2561 C2569 0.930 . S
H2562 C2570 0.930 . S
H2563 C2571 0.930 . S
H2564 C2574 0.930 . S
H2565 C2575 0.930 . S
C2566 H2560 0.930 . S
C2566 C2567 1.355 . S
C2566 C2568 1.415 . S
C2567 C2566 1.355 . S
C2567 C2569 1.419 . S
C2568 C2566 1.415 . S
C2568 C2573 1.425 . S
C2568 C2575 1.409 . S
C2569 H2561 0.930 . S
C2569 C2567 1.419 . S
C2569 C2570 1.362 . S
C2570 H2562 0.930 . S
C2570 C2569 1.362 . S
C2570 C2573 1.409 . S
C2571 H2563 0.930 . S
C2571 C2572 1.355 . S
C2571 C2573 1.415 . S
C2572 C2571 1.355 . S
C2572 C2574 1.419 . S
C2573 C2568 1.425 . S
C2573 C2570 1.409 . S
C2573 C2571 1.415 . S
C2574 H2564 0.930 . S
C2574 C2572 1.419 . S
C2574 C2575 1.362 . S
C2575 H2565 0.930 . S
C2575 C2568 1.409 . S
C2575 C2574 1.362 . S
H2576 C2582 0.930 . S
H2577 C2585 0.930 . S
H2578 C2586 0.930 . S
H2579 C2587 0.930 . S
H2580 C2590 0.930 . S
H2581 C2591 0.930 . S
C2582 H2576 0.930 . S
C2582 C2583 1.355 . S
C2582 C2584 1.415 . S
C2583 C2582 1.355 . S
C2583 C2585 1.419 . S
C2584 C2582 1.415 . S
C2584 C2589 1.425 . S
C2584 C2591 1.409 . S
C2585 H2577 0.930 . S
C2585 C2583 1.419 . S
C2585 C2586 1.362 . S
C2586 H2578 0.930 . S
C2586 C2585 1.362 . S
C2586 C2589 1.409 . S
C2587 H2579 0.930 . S
C2587 C2588 1.355 . S
C2587 C2589 1.415 . S
C2588 C2587 1.355 . S
C2588 C2590 1.419 . S
C2589 C2584 1.425 . S
C2589 C2586 1.409 . S
C2589 C2587 1.415 . S
C2590 H2580 0.930 . S
C2590 C2588 1.419 . S
C2590 C2591 1.362 . S
C2591 H2581 0.930 . S
C2591 C2584 1.409 . S
C2591 C2590 1.362 . S
H2592 C2598 0.930 . S
H2593 C2601 0.930 . S
H2594 C2602 0.930 . S
H2595 C2603 0.930 . S
H2596 C2606 0.930 . S
H2597 C2607 0.930 . S
C2598 H2592 0.930 . S
C2598 C2599 1.355 . S
C2598 C2600 1.415 . S
C2599 C2598 1.355 . S
C2599 C2601 1.419 . S
C2600 C2598 1.415 . S
C2600 C2605 1.425 . S
C2600 C2607 1.409 . S
C2601 H2593 0.930 . S
C2601 C2599 1.419 . S
C2601 C2602 1.362 . S
C2602 H2594 0.930 . S
C2602 C2601 1.362 . S
C2602 C2605 1.409 . S
C2603 H2595 0.930 . S
C2603 C2604 1.355 . S
C2603 C2605 1.415 . S
C2604 C2603 1.355 . S
C2604 C2606 1.419 . S
C2605 C2600 1.425 . S
C2605 C2602 1.409 . S
C2605 C2603 1.415 . S
C2606 H2596 0.930 . S
C2606 C2604 1.419 . S
C2606 C2607 1.362 . S
C2607 H2597 0.930 . S
C2607 C2600 1.409 . S
C2607 C2606 1.362 . S
H2608 C2614 0.930 . S
H2609 C2617 0.930 . S
H2610 C2618 0.930 . S
H2611 C2619 0.930 . S
H2612 C2622 0.930 . S
H2613 C2623 0.930 . S
C2614 H2608 0.930 . S
C2614 C2615 1.355 . S
C2614 C2616 1.415 . S
C2615 C2614 1.355 . S
C2615 C2617 1.419 . S
C2616 C2614 1.415 . S
C2616 C2621 1.425 . S
C2616 C2623 1.409 . S
C2617 H2609 0.930 . S
C2617 C2615 1.419 . S
C2617 C2618 1.362 . S
C2618 H2610 0.930 . S
C2618 C2617 1.362 . S
C2618 C2621 1.409 . S
C2619 H2611 0.930 . S
C2619 C2620 1.355 . S
C2619 C2621 1.415 . S
C2620 C2619 1.355 . S
C2620 C2622 1.419 . S
C2621 C2616 1.425 . S
C2621 C2618 1.409 . S
C2621 C2619 1.415 . S
C2622 H2612 0.930 . S
C2622 C2620 1.419 . S
C2622 C2623 1.362 . S
C2623 H2613 0.930 . S
C2623 C2616 1.409 . S
C2623 C2622 1.362 . S
H2624 C2630 0.930 . S
H2625 C2633 0.930 . S
H2626 C2634 0.930 . S
H2627 C2635 0.930 . S
H2628 C2638 0.930 . S
H2629 C2639 0.930 . S
C2630 H2624 0.930 . S
C2630 C2631 1.355 . S
C2630 C2632 1.415 . S
C2631 C2630 1.355 . S
C2631 C2633 1.419 . S
C2632 C2630 1.415 . S
C2632 C2637 1.425 . S
C2632 C2639 1.409 . S
C2633 H2625 0.930 . S
C2633 C2631 1.419 . S
C2633 C2634 1.362 . S
C2634 H2626 0.930 . S
C2634 C2633 1.362 . S
C2634 C2637 1.409 . S
C2635 H2627 0.930 . S
C2635 C2636 1.355 . S
C2635 C2637 1.415 . S
C2636 C2635 1.355 . S
C2636 C2638 1.419 . S
C2637 C2632 1.425 . S
C2637 C2634 1.409 . S
C2637 C2635 1.415 . S
C2638 H2628 0.930 . S
C2638 C2636 1.419 . S
C2638 C2639 1.362 . S
C2639 H2629 0.930 . S
C2639 C2632 1.409 . S
C2639 C2638 1.362 . S
H2640 C2646 0.930 . S
H2641 C2649 0.930 . S
H2642 C2650 0.930 . S
H2643 C2651 0.930 . S
H2644 C2654 0.930 . S
H2645 C2655 0.930 . S
C2646 H2640 0.930 . S
C2646 C2647 1.355 . S
C2646 C2648 1.415 . S
C2647 C2646 1.355 . S
C2647 C2649 1.419 . S
C2648 C2646 1.415 . S
C2648 C2653 1.425 . S
C2648 C2655 1.409 . S
C2649 H2641 0.930 . S
C2649 C2647 1.419 . S
C2649 C2650 1.362 . S
C2650 H2642 0.930 . S
C2650 C2649 1.362 . S
C2650 C2653 1.409 . S
C2651 H2643 0.930 . S
C2651 C2652 1.355 . S
C2651 C2653 1.415 . S
C2652 C2651 1.355 . S
C2652 C2654 1.419 . S
C2653 C2648 1.425 . S
C2653 C2650 1.409 . S
C2653 C2651 1.415 . S
C2654 H2644 0.930 . S
C2654 C2652 1.419 . S
C2654 C2655 1.362 . S
C2655 H2645 0.930 . S
C2655 C2648 1.409 . S
C2655 C2654 1.362 . S
H2656 C2662 0.930 . S
H2657 C2665 0.930 . S
H2658 C2666 0.930 . S
H2659 C2667 0.930 . S
H2660 C2670 0.930 . S
H2661 C2671 0.930 . S
C2662 H2656 0.930 . S
C2662 C2663 1.355 . S
C2662 C2664 1.415 . S
C2663 C2662 1.355 . S
C2663 C2665 1.419 . S
C2664 C2662 1.415 . S
C2664 C2669 1.425 . S
C2664 C2671 1.409 . S
C2665 H2657 0.930 . S
C2665 C2663 1.419 . S
C2665 C2666 1.362 . S
C2666 H2658 0.930 . S
C2666 C2665 1.362 . S
C2666 C2669 1.409 . S
C2667 H2659 0.930 . S
C2667 C2668 1.355 . S
C2667 C2669 1.415 . S
C2668 C2667 1.355 . S
C2668 C2670 1.419 . S
C2669 C2664 1.425 . S
C2669 C2666 1.409 . S
C2669 C2667 1.415 . S
C2670 H2660 0.930 . S
C2670 C2668 1.419 . S
C2670 C2671 1.362 . S
C2671 H2661 0.930 . S
C2671 C2664 1.409 . S
C2671 C2670 1.362 . S
H2672 C2678 0.930 . S
H2673 C2681 0.935 . S
H2674 C2682 0.930 . S
H2675 C2683 0.930 . S
H2676 C2686 0.930 . S
H2677 C2687 0.930 . S
C2678 H2672 0.930 . S
C2678 C2679 1.355 . S
C2678 C2680 1.415 . S
C2679 C2678 1.355 . S
C2679 C2681 1.419 . S
C2680 C2678 1.415 . S
C2680 C2685 1.425 . S
C2680 C2687 1.409 . S
C2681 H2673 0.935 . S
C2681 C2679 1.419 . S
C2681 C2682 1.362 . S
C2682 H2674 0.930 . S
C2682 C2681 1.362 . S
C2682 C2685 1.409 . S
C2683 H2675 0.930 . S
C2683 C2684 1.355 . S
C2683 C2685 1.415 . S
C2684 C2683 1.355 . S
C2684 C2686 1.419 . S
C2685 C2680 1.425 . S
C2685 C2682 1.409 . S
C2685 C2683 1.415 . S
C2686 H2676 0.930 . S
C2686 C2684 1.419 . S
C2686 C2687 1.362 . S
C2687 H2677 0.930 . S
C2687 C2680 1.409 . S
C2687 C2686 1.362 . S
H2688 C2694 0.930 . S
H2689 C2697 0.930 . S
H2690 C2698 0.926 1_455 S
H2691 C2699 0.961 . S
H2692 C2702 0.930 . S
H2693 C2703 0.930 . S
C2694 H2688 0.930 . S
C2694 C2695 1.355 . S
C2694 C2696 1.415 . S
C2695 C2694 1.355 . S
C2695 C2697 1.419 . S
C2696 C2694 1.415 . S
C2696 C2701 1.425 . S
C2696 C2703 1.409 . S
C2697 H2689 0.930 . S
C2697 C2695 1.419 . S
C2697 C2698 1.367 . S
C2698 H2690 0.926 1_655 S
C2698 C2697 1.367 . S
C2698 C2701 1.409 . S
C2699 H2691 0.961 . S
C2699 C2700 1.355 1_455 S
C2699 C2701 1.385 1_455 S
C2700 C2699 1.355 1_655 S
C2700 C2702 1.419 . S
C2701 C2696 1.425 . S
C2701 C2698 1.409 . S
C2701 C2699 1.385 1_655 S
C2702 H2692 0.930 . S
C2702 C2700 1.419 . S
C2702 C2703 1.362 . S
C2703 H2693 0.930 . S
C2703 C2696 1.409 . S
C2703 C2702 1.362 . S
H2704 C2710 0.930 . S
H2705 C2713 0.930 . S
H2706 C2714 0.930 . S
H2707 C2715 0.930 . S
H2708 C2718 0.930 . S
H2709 C2719 0.930 . S
C2710 H2704 0.930 . S
C2710 C2711 1.355 . S
C2710 C2712 1.415 . S
C2711 C2710 1.355 . S
C2711 C2713 1.419 . S
C2712 C2710 1.415 . S
C2712 C2717 1.425 . S
C2712 C2719 1.409 . S
C2713 H2705 0.930 . S
C2713 C2711 1.419 . S
C2713 C2714 1.362 . S
C2714 H2706 0.930 . S
C2714 C2713 1.362 . S
C2714 C2717 1.409 . S
C2715 H2707 0.930 . S
C2715 C2716 1.355 . S
C2715 C2717 1.415 . S
C2716 C2715 1.355 . S
C2716 C2718 1.419 . S
C2717 C2712 1.425 . S
C2717 C2714 1.409 . S
C2717 C2715 1.415 . S
C2718 H2708 0.930 . S
C2718 C2716 1.419 . S
C2718 C2719 1.362 . S
C2719 H2709 0.930 . S
C2719 C2712 1.409 . S
C2719 C2718 1.362 . S
H2720 C2726 0.969 . S
H2721 C2729 0.930 . S
H2722 C2730 0.930 . S
H2723 C2731 0.930 . S
H2724 C2734 0.930 . S
H2725 C2735 0.930 . S
C2726 H2720 0.969 . S
C2726 C2727 1.355 . S
C2726 C2728 1.415 . S
C2727 C2726 1.355 . S
C2727 C2729 1.419 . S
C2728 C2726 1.415 . S
C2728 C2733 1.425 . S
C2728 C2735 1.409 1_545 S
C2729 H2721 0.930 . S
C2729 C2727 1.419 . S
C2729 C2730 1.362 . S
C2730 H2722 0.930 . S
C2730 C2729 1.362 . S
C2730 C2733 1.409 . S
C2731 H2723 0.930 . S
C2731 C2732 1.355 . S
C2731 C2733 1.415 . S
C2732 C2731 1.355 . S
C2732 C2734 1.419 1_545 S
C2733 C2728 1.425 . S
C2733 C2730 1.409 . S
C2733 C2731 1.415 . S
C2734 H2724 0.930 . S
C2734 C2732 1.419 1_565 S
C2734 C2735 1.362 . S
C2735 H2725 0.930 . S
C2735 C2728 1.409 1_565 S
C2735 C2734 1.362 . S
C1591 C7 1.275 . S
C1596 C981 1.254 . S
C1607 C23 1.650 . S
C1612 C1061 1.591 . S
C1628 C1129 1.381 . S
C1623 C37 1.354 . S
C1639 C35 1.723 . S
C1644 C1209 1.676 . S
C1655 C9 1.514 . S
C1660 C1283 1.542 . S
C1671 C21 1.667 . S
C1676 C1351 1.605 . S
C1687 C49 1.151 1_556 S
C1692 C1277 1.150 1_655 S
C1708 C1357 1.473 . S
C1703 C65 1.491 . S
C1724 C1203 1.345 . S
C1719 C79 1.354 1_556 S
C1735 C77 1.680 . S
C1740 C1135 1.674 . S
C1756 C987 1.522 1_455 S
C1751 C51 1.485 . S
C1767 C63 1.463 . S
C1772 C1055 1.461 . S
C1783 C91 1.552 . S
C1788 C1425 1.497 . S
C1799 C107 1.702 . S
C1804 C1505 1.601 . S
C1820 C1573 1.520 . S
C1815 C121 1.664 . S
C1831 C119 1.945 . S
C1836 C321 1.899 . S
C1847 C93 1.817 . S
C1852 C395 1.734 . S
C1863 C105 1.691 . S
C1868 C463 1.633 . S
C1879 C133 1.161 . S
C1884 C389 1.170 . S
C1895 C149 1.525 . S
C1900 C469 1.526 . S
C1916 C315 1.423 . S
C1911 C163 1.464 . S
C1932 C1579 1.886 . S
C1927 C161 1.886 . S
C1948 C1431 1.573 . S
C1943 C135 1.596 . S
C1964 C1499 1.523 . S
C1959 C147 1.499 . S
C1975 C175 1.462 . S
C1980 C537 1.409 . S
C1991 C191 1.712 . S
C1996 C617 1.601 . S
C2007 C205 1.677 . S
C2012 C685 1.602 . S
C2023 C203 2.023 . S
C2028 C765 1.967 . S
C2044 C839 1.733 . S
C2039 C177 1.810 . S
C2060 C907 1.687 . S
C2055 C189 1.733 . S
C2076 C833 1.263 . S
C2071 C217 1.277 . S
C2092 C913 1.504 . S
C2087 C233 1.503 . S
C2103 C247 1.421 . S
C2108 C759 1.379 . S
C2124 C691 1.784 . S
C2119 C245 1.777 . S
C2135 C219 1.620 . S
C2140 C543 1.618 . S
C2156 C611 1.489 . S
C2151 C231 1.482 . S
C2172 C291 1.936 . S
C2167 C8 1.987 . S
C2183 C17 1.458 . S
C2188 C365 1.458 . S
C2204 C451 1.559 . S
C2199 C31 1.575 . S
C2220 C525 1.309 . S
C2215 C36 1.327 1_556 S
C2236 C587 1.624 . S
C2231 C3 1.627 1_556 S
C2252 C673 1.533 . S
C2247 C22 1.545 . S
C2263 C50 2.142 . S
C2268 C661 2.009 . S
C2279 C59 1.703 . S
C2284 C513 1.625 . S
C2295 C73 1.757 . S
C2300 C599 1.722 . S
C2311 C78 1.665 . S
C2316 C377 1.609 . S
C2332 C439 1.729 . S
C2327 C45 1.823 . S
C2343 C64 1.803 . S
C2348 C303 1.726 . S
C2364 C735 1.888 . S
C2359 C92 1.931 . S
C2375 C101 1.631 1_545 S
C2380 C809 1.620 . S
C2391 C115 1.605 1_655 S
C2396 C895 1.596 . S
C2412 C969 1.131 . S
C2407 C120 1.151 . S
C2423 C87 1.583 . S
C2428 C1031 1.584 . S
C2439 C106 1.420 . S
C2444 C1117 1.402 . S
C2455 C134 1.835 . S
C2460 C1105 1.743 1_565 S
C2471 C143 1.410 . S
C2476 C957 1.359 1_455 S
C2492 C1043 1.667 . S
C2487 C157 1.722 . S
C2503 C162 1.647 . S
C2508 C821 1.579 . S
C2519 C129 1.909 . S
C2524 C883 1.824 . S
C2540 C747 1.834 . S
C2535 C148 1.891 . S
C2556 C1179 1.772 . S
C2551 C176 1.795 . S
C2567 C185 1.329 . S
C2572 C1253 1.304 . S
C2583 C199 1.536 . S
C2588 C1339 1.515 . S
C2604 C1413 1.281 . S
C2599 C204 1.321 . S
C2620 C1475 1.647 . S
C2615 C171 1.669 1_565 S
C2631 C190 1.655 . S
C2636 C1561 1.648 . S
C2647 C218 2.093 . S
C2652 C1549 1.954 . S
C2663 C227 1.802 1_565 S
C2668 C1401 1.700 . S
C2684 C1487 1.811 . S
C2679 C241 1.851 1_455 S
C2700 C1265 1.215 . S
C2695 C246 1.255 . S
C2716 C1327 1.725 . S
C2711 C213 1.793 . S
C2727 C232 1.518 . S
C2732 C1191 1.505 . S
