# Generated by pormake.
# Topology eea, (3,6)-cn, num edge types: 1
# Building blocks:
#     Node 0, Type 0, BuildingBlock: VETTIZ_charged_linker_0, # of connection points: 3
#     Node 1, Type 0, BuildingBlock: VETTIZ_charged_linker_0, # of connection points: 3
#     Node 2, Type 0, BuildingBlock: VETTIZ_charged_linker_0, # of connection points: 3
#     Node 3, Type 0, BuildingBlock: VETTIZ_charged_linker_0, # of connection points: 3
#     Node 4, Type 0, BuildingBlock: VETTIZ_charged_linker_0, # of connection points: 3
#     Node 5, Type 0, BuildingBlock: VETTIZ_charged_linker_0, # of connection points: 3
#     Node 6, Type 0, BuildingBlock: VETTIZ_charged_linker_0, # of connection points: 3
#     Node 7, Type 0, BuildingBlock: VETTIZ_charged_linker_0, # of connection points: 3
#     Node 8, Type 0, BuildingBlock: VETTIZ_charged_linker_0, # of connection points: 3
#     Node 9, Type 0, BuildingBlock: VETTIZ_charged_linker_0, # of connection points: 3
#     Node 10, Type 0, BuildingBlock: VETTIZ_charged_linker_0, # of connection points: 3
#     Node 11, Type 0, BuildingBlock: VETTIZ_charged_linker_0, # of connection points: 3
#     Node 12, Type 0, BuildingBlock: VETTIZ_charged_linker_0, # of connection points: 3
#     Node 13, Type 0, BuildingBlock: VETTIZ_charged_linker_0, # of connection points: 3
#     Node 14, Type 0, BuildingBlock: VETTIZ_charged_linker_0, # of connection points: 3
#     Node 15, Type 0, BuildingBlock: VETTIZ_charged_linker_0, # of connection points: 3
#     Node 16, Type 0, BuildingBlock: VETTIZ_charged_linker_0, # of connection points: 3
#     Node 17, Type 0, BuildingBlock: VETTIZ_charged_linker_0, # of connection points: 3
#     Node 18, Type 1, BuildingBlock: HISSIN_clean_sbu_0, # of connection points: 6
#     Node 19, Type 1, BuildingBlock: HISSIN_clean_sbu_0, # of connection points: 6
#     Node 20, Type 1, BuildingBlock: HISSIN_clean_sbu_0, # of connection points: 6
#     Node 21, Type 1, BuildingBlock: HISSIN_clean_sbu_0, # of connection points: 6
#     Node 22, Type 1, BuildingBlock: HISSIN_clean_sbu_0, # of connection points: 6
#     Node 23, Type 1, BuildingBlock: HISSIN_clean_sbu_0, # of connection points: 6
#     Node 24, Type 1, BuildingBlock: HISSIN_clean_sbu_0, # of connection points: 6
#     Node 25, Type 1, BuildingBlock: HISSIN_clean_sbu_0, # of connection points: 6
#     Node 26, Type 1, BuildingBlock: HISSIN_clean_sbu_0, # of connection points: 6
#     Edge 27, Type (0, 1), None
#     Edge 28, Type (0, 1), None
#     Edge 29, Type (0, 1), None
#     Edge 30, Type (0, 1), None
#     Edge 31, Type (0, 1), None
#     Edge 32, Type (0, 1), None
#     Edge 33, Type (0, 1), None
#     Edge 34, Type (0, 1), None
#     Edge 35, Type (0, 1), None
#     Edge 36, Type (0, 1), None
#     Edge 37, Type (0, 1), None
#     Edge 38, Type (0, 1), None
#     Edge 39, Type (0, 1), None
#     Edge 40, Type (0, 1), None
#     Edge 41, Type (0, 1), None
#     Edge 42, Type (0, 1), None
#     Edge 43, Type (0, 1), None
#     Edge 44, Type (0, 1), None
#     Edge 45, Type (0, 1), None
#     Edge 46, Type (0, 1), None
#     Edge 47, Type (0, 1), None
#     Edge 48, Type (0, 1), None
#     Edge 49, Type (0, 1), None
#     Edge 50, Type (0, 1), None
#     Edge 51, Type (0, 1), None
#     Edge 52, Type (0, 1), None
#     Edge 53, Type (0, 1), None
#     Edge 54, Type (0, 1), None
#     Edge 55, Type (0, 1), None
#     Edge 56, Type (0, 1), None
#     Edge 57, Type (0, 1), None
#     Edge 58, Type (0, 1), None
#     Edge 59, Type (0, 1), None
#     Edge 60, Type (0, 1), None
#     Edge 61, Type (0, 1), None
#     Edge 62, Type (0, 1), None
#     Edge 63, Type (0, 1), None
#     Edge 64, Type (0, 1), None
#     Edge 65, Type (0, 1), None
#     Edge 66, Type (0, 1), None
#     Edge 67, Type (0, 1), None
#     Edge 68, Type (0, 1), None
#     Edge 69, Type (0, 1), None
#     Edge 70, Type (0, 1), None
#     Edge 71, Type (0, 1), None
#     Edge 72, Type (0, 1), None
#     Edge 73, Type (0, 1), None
#     Edge 74, Type (0, 1), None
#     Edge 75, Type (0, 1), None
#     Edge 76, Type (0, 1), None
#     Edge 77, Type (0, 1), None
#     Edge 78, Type (0, 1), None
#     Edge 79, Type (0, 1), None
#     Edge 80, Type (0, 1), None
# Relax obj value: 0.035
# Max RMSD: 0.131
# Mean RMSD: 0.112
data_MOF--net-eea--node1-HISSIN_clean_sbu_0--node2-VETTIZ_charged_linker_0--edge1-none
_symmetry_space_group_name_H-M    P1
_symmetry_Int_Tables_number       1
_symmetry_cell_setting            triclinic
loop_
_symmetry_equiv_pos_as_xyz
'x, y, z'
_cell_length_a     33.605377
_cell_length_b     33.631317
_cell_length_c     55.24429
_cell_angle_alpha  92.165591
_cell_angle_beta   92.102243
_cell_angle_gamma 119.98424
loop_
_atom_site_label
_atom_site_type_symbol
_atom_site_fract_x
_atom_site_fract_y
_atom_site_fract_z
_atom_type_partial_charge
C0 C 0.20103 0.20448 0.37625 0.0
C1 C 0.21202 0.2487 0.38495 0.0
C2 C 0.23906 0.26761 0.40704 0.0
C3 C 0.2434 0.19866 0.41132 0.0
C4 C 0.21738 0.1804 0.38956 0.0
C5 C 0.2098 0.13354 0.38252 0.0
H6 H 0.24261 0.95718 0.40767 0.0
C7 C 0.25529 0.165 0.42045 0.0
C8 C 0.2361 0.12707 0.40341 0.0
H9 H 0.16067 0.96523 0.34787 0.0
H10 H 0.18287 0.04268 0.3618 0.0
H11 H 0.32967 0.06141 0.40678 0.0
H12 H 0.20742 -0.00535 0.4456 0.0
H13 H 0.24773 0.03793 0.46634 0.0
H14 H 0.25847 -0.00654 0.45482 0.0
H15 H 0.32249 0.02435 0.43079 0.0
H16 H 0.34591 0.08544 0.43676 0.0
C17 C 0.23195 0.13597 0.35809 0.0
C18 C 0.15733 0.0987 0.38194 0.0
C19 C 0.33684 0.18925 0.50406 0.0
C20 C 0.3494 0.16122 0.51677 0.0
C21 C 0.34528 0.12158 0.5048 0.0
C22 C 0.32678 0.10853 0.48095 0.0
C23 C 0.3117 0.13507 0.46892 0.0
C24 C 0.31785 0.17536 0.4801 0.0
C25 C 0.30013 0.19911 0.4639 0.0
C26 C 0.28029 0.16495 0.44182 0.0
C27 C 0.28717 0.12764 0.44514 0.0
C28 C 0.34153 0.24568 0.45781 0.0
C29 C 0.26236 0.2035 0.47689 0.0
C30 C 0.23003 0.97591 0.39738 0.0
C31 C 0.2 0.95536 0.37671 0.0
C32 C 0.18366 0.98044 0.36401 0.0
C33 C 0.19662 0.0254 0.37211 0.0
C34 C 0.22576 0.04515 0.39325 0.0
C35 C 0.24198 0.02047 0.40544 0.0
C36 C 0.27002 0.04557 0.42837 0.0
C37 C 0.26815 0.08962 0.42788 0.0
C38 C 0.24256 0.08928 0.40723 0.0
C39 C 0.31961 0.05454 0.42581 0.0
C40 C 0.24514 0.01661 0.44999 0.0
H41 H 0.27478 0.2589 0.43695 0.0
H42 H 0.18055 0.18905 0.35935 0.0
H43 H 0.13987 0.11036 0.39476 0.0
H44 H 0.14953 0.06467 0.38792 0.0
H45 H 0.14062 0.09425 0.36354 0.0
H46 H 0.26501 0.16895 0.35756 0.0
H47 H 0.20891 0.13388 0.34254 0.0
H48 H 0.24101 0.1089 0.35511 0.0
H49 H 0.33997 0.22008 0.51289 0.0
H50 H 0.35566 0.10011 0.51412 0.0
H51 H 0.32381 0.07749 0.47308 0.0
H52 H 0.37362 0.24377 0.4574 0.0
H53 H 0.34786 0.27356 0.47153 0.0
H54 H 0.33707 0.25581 0.43955 0.0
H55 H 0.23835 0.17058 0.48481 0.0
H56 H 0.24078 0.21109 0.46459 0.0
H57 H 0.27774 0.2308 0.4919 0.0
H58 H 0.24796 0.30161 0.41431 0.0
C59 C 0.25467 0.24282 0.42026 0.0
C60 C 0.00361 0.21298 0.37775 0.0
C61 C 0.04416 0.25061 0.38807 0.0
C62 C 0.0457 0.26522 0.41267 0.0
C63 C 0.96752 0.2035 0.41635 0.0
C64 C 0.96633 0.1897 0.39222 0.0
C65 C 0.92294 0.14615 0.38443 0.0
H66 H 0.72854 0.96048 0.41267 0.0
C67 C 0.92374 0.16975 0.42652 0.0
C68 C 0.89814 0.13593 0.4077 0.0
H69 H 0.78977 0.99079 0.34333 0.0
H70 H 0.84815 0.06561 0.35977 0.0
H71 H 0.82075 0.00294 0.44663 0.0
H72 H 0.73388 0.05368 0.42127 0.0
H73 H 0.76036 0.08703 0.44843 0.0
H74 H 0.72416 0.02537 0.44903 0.0
H75 H 0.76398 0.98464 0.45621 0.0
H76 H 0.81406 0.03284 0.47154 0.0
C77 C 0.93601 0.10932 0.37692 0.0
C78 C 0.89718 0.15683 0.36411 0.0
C79 C 0.88092 0.18827 0.5132 0.0
C80 C 0.84066 0.16072 0.52533 0.0
C81 C 0.80604 0.11898 0.51395 0.0
C82 C 0.81047 0.10475 0.49072 0.0
C83 C 0.84988 0.13262 0.47842 0.0
C84 C 0.88465 0.17357 0.4895 0.0
C85 C 0.92383 0.19789 0.47294 0.0
C86 C 0.90523 0.16582 0.44985 0.0
C87 C 0.86217 0.12749 0.45368 0.0
C88 C 0.96707 0.1995 0.48475 0.0
C89 C 0.93042 0.24586 0.46874 0.0
C90 C 0.75469 0.98329 0.40109 0.0
C91 C 0.75524 0.96961 0.37687 0.0
C92 C 0.78887 0.00058 0.36213 0.0
C93 C 0.82289 0.04398 0.37175 0.0
C94 C 0.82317 0.0565 0.39633 0.0
C95 C 0.78871 0.02694 0.41034 0.0
C96 C 0.79302 0.04718 0.43563 0.0
C97 C 0.83752 0.0928 0.43487 0.0
C98 C 0.85504 0.09764 0.41194 0.0
C99 C 0.79794 0.01533 0.45361 0.0
C100 C 0.75072 0.0535 0.43896 0.0
H101 H 0.01084 0.25468 0.4453 0.0
H102 H 0.0015 0.20055 0.35909 0.0
H103 H 0.9032 0.19241 0.36692 0.0
H104 H 0.85936 0.13452 0.36385 0.0
H105 H 0.90898 0.15383 0.34597 0.0
H106 H 0.96756 0.11519 0.38747 0.0
H107 H 0.9429 0.11009 0.35738 0.0
H108 H 0.90968 0.07404 0.38072 0.0
H109 H 0.90817 0.22043 0.52177 0.0
H110 H 0.7752 0.09726 0.52314 0.0
H111 H 0.78275 0.07245 0.48329 0.0
H112 H 0.95785 0.16631 0.49273 0.0
H113 H 0.98351 0.22717 0.49955 0.0
H114 H 0.99284 0.20461 0.47158 0.0
H115 H 0.89671 0.24317 0.46386 0.0
H116 H 0.95251 0.26226 0.45371 0.0
H117 H 0.94579 0.26916 0.4854 0.0
H118 H 0.0766 0.29456 0.42109 0.0
C119 C 0.00756 0.24208 0.42678 0.0
C120 C -0.00228 0.78598 0.38104 0.0
C121 C 0.03373 0.77997 0.3901 0.0
C122 C 0.02968 0.7606 0.41283 0.0
C123 C 0.95562 0.75539 0.41737 0.0
C124 C 0.9596 0.77404 0.39501 0.0
C125 C 0.92024 0.78148 0.38859 0.0
H126 H 0.72034 0.77029 0.41392 0.0
C127 C 0.91197 0.748 0.42739 0.0
C128 C 0.89152 0.76361 0.41044 0.0
H129 H 0.80304 0.82545 0.35234 0.0
H130 H 0.85726 0.80552 0.36804 0.0
H131 H 0.73162 0.6801 0.41598 0.0
H132 H 0.80784 0.81336 0.45447 0.0
H133 H 0.79659 0.77107 0.47521 0.0
H134 H 0.7492 0.77273 0.45993 0.0
H135 H 0.70828 0.69705 0.44036 0.0
H136 H 0.74374 0.6716 0.44591 0.0
C137 C 0.89474 0.75148 0.36498 0.0
C138 C 0.93991 0.834 0.38677 0.0
C139 C 0.85942 0.67554 0.50892 0.0
C140 C 0.81941 0.66311 0.52162 0.0
C141 C 0.78611 0.67259 0.51144 0.0
C142 C 0.79204 0.69348 0.4893 0.0
C143 C 0.83177 0.70528 0.47678 0.0
C144 C 0.8647 0.69619 0.48653 0.0
C145 C 0.90427 0.71046 0.4702 0.0
C146 C 0.88954 0.72938 0.44914 0.0
C147 C 0.84701 0.72653 0.45328 0.0
C148 C 0.90635 0.6671 0.46205 0.0
C149 C 0.94872 0.74824 0.48424 0.0
C150 C 0.75019 0.77792 0.40389 0.0
C151 C 0.75733 0.79975 0.38183 0.0
C152 C 0.79669 0.80915 0.36943 0.0
C153 C 0.8284 0.79743 0.37862 0.0
C154 C 0.8214 0.77627 0.40069 0.0
C155 C 0.78293 0.76681 0.41305 0.0
C156 C 0.78223 0.74463 0.43647 0.0
C157 C 0.82679 0.74291 0.43603 0.0
C158 C 0.84916 0.76136 0.41489 0.0
C159 C 0.73916 0.69588 0.43486 0.0
C160 C 0.78373 0.77672 0.45776 0.0
H161 H 0.99029 0.73397 0.44356 0.0
H162 H -0.00013 0.80126 0.36387 0.0
H163 H 0.97262 0.85462 0.39815 0.0
H164 H 0.91686 0.84581 0.39374 0.0
H165 H 0.94725 0.84394 0.3678 0.0
H166 H 0.89432 0.71816 0.36474 0.0
H167 H 0.91189 0.76915 0.34867 0.0
H168 H 0.85808 0.74171 0.36315 0.0
H169 H 0.88567 0.66863 0.51602 0.0
H170 H 0.75542 0.66436 0.52082 0.0
H171 H 0.7653 0.69966 0.48276 0.0
H172 H 0.87113 0.63762 0.45728 0.0
H173 H 0.92227 0.657 0.47677 0.0
H174 H 0.92546 0.67156 0.44561 0.0
H175 H 0.94187 0.773 0.49458 0.0
H176 H 0.97604 0.76914 0.47218 0.0
H177 H 0.96229 0.73307 0.49742 0.0
H178 H 0.05653 0.75482 0.42013 0.0
C179 C 0.99099 0.74823 0.42642 0.0
C180 C 0.2026 0.1994 0.65382 0.0
C181 C 0.24277 0.20434 0.64423 0.0
C182 C 0.25381 0.22106 0.6209 0.0
C183 C 0.18497 0.22724 0.61712 0.0
C184 C 0.17408 0.21036 0.63985 0.0
C185 C 0.12846 0.20367 0.64666 0.0
H186 H 0.93713 0.21618 0.62246 0.0
C187 C 0.14748 0.23452 0.60737 0.0
C188 C 0.11417 0.22033 0.62455 0.0
H189 H 0.97453 0.16346 0.68433 0.0
H190 H 0.04529 0.18147 0.66757 0.0
H191 H 0.04564 0.30764 0.61766 0.0
H192 H 0.97504 0.17178 0.58066 0.0
H193 H 0.00298 0.21475 0.55996 0.0
H194 H 0.9566 0.21291 0.57606 0.0
H195 H 0.99463 0.2881 0.59801 0.0
H196 H 0.05032 0.31053 0.58593 0.0
C197 C 0.13705 0.23514 0.66983 0.0
C198 C 0.0958 0.15143 0.64942 0.0
C199 C 0.16211 0.30555 0.52615 0.0
C200 C 0.13491 0.3185 0.51229 0.0
C201 C 0.09272 0.31021 0.52134 0.0
C202 C 0.07817 0.28961 0.54359 0.0
C203 C 0.10611 0.27725 0.55725 0.0
C204 C 0.14734 0.28539 0.54832 0.0
C205 C 0.17319 0.27058 0.565 0.0
C206 C 0.14122 0.25259 0.58557 0.0
C207 C 0.10151 0.25619 0.58111 0.0
C208 C 0.21984 0.31366 0.57347 0.0
C209 C 0.17752 0.23189 0.55136 0.0
C210 C 0.96078 0.20863 0.6323 0.0
C211 C 0.94976 0.1881 0.6549 0.0
C212 C 0.98152 0.17882 0.66698 0.0
C213 C 0.02301 0.1894 0.65712 0.0
C214 C 0.03357 0.20939 0.6347 0.0
C215 C 0.00295 0.21883 0.62248 0.0
C216 C 0.0212 0.24016 0.59865 0.0
C217 C 0.06714 0.24089 0.59863 0.0
C218 C 0.07381 0.22306 0.62006 0.0
C219 C 0.02821 0.28921 0.59992 0.0
C220 C 0.9872 0.2085 0.5776 0.0
H221 H 0.23582 0.24539 0.58984 0.0
H222 H 0.19269 0.18581 0.67145 0.0
H223 H 0.10629 0.12998 0.63859 0.0
H224 H 0.06004 0.13932 0.6424 0.0
H225 H 0.09566 0.14278 0.66863 0.0
H226 H 0.17 0.26827 0.66939 0.0
H227 H 0.13921 0.21848 0.68642 0.0
H228 H 0.11063 0.24523 0.67171 0.0
H229 H 0.19489 0.3117 0.52009 0.0
H230 H 0.07058 0.31914 0.51104 0.0
H231 H 0.04569 0.28399 0.54934 0.0
H232 H 0.21536 0.34387 0.57727 0.0
H233 H 0.24508 0.32264 0.5593 0.0
H234 H 0.23511 0.30966 0.59057 0.0
H235 H 0.14718 0.2108 0.53842 0.0
H236 H 0.17818 0.20699 0.56362 0.0
H237 H 0.2087 0.24634 0.54077 0.0
H238 H 0.28467 0.22526 0.61307 0.0
C239 C 0.22538 0.23278 0.6074 0.0
C240 C 0.77782 0.77313 0.66183 0.0
C241 C 0.78053 0.73682 0.65041 0.0
C242 C 0.76424 0.72328 0.62585 0.0
C243 C 0.74516 0.78362 0.6242 0.0
C244 C 0.76074 0.79635 0.64835 0.0
C245 C 0.76064 0.83895 0.6571 0.0
H246 H 0.74865 0.02521 0.62993 0.0
C247 C 0.73269 0.81694 0.61507 0.0
C248 C 0.74224 0.84961 0.63432 0.0
H249 H 0.79097 -0.00383 0.69873 0.0
H250 H 0.76866 0.91951 0.68275 0.0
H251 H 0.79206 0.98347 0.59651 0.0
H252 H 0.65663 0.92904 0.62169 0.0
H253 H 0.64784 0.89931 0.59341 0.0
H254 H 0.67293 0.96113 0.59511 0.0
H255 H 0.7518 0.00074 0.5866 0.0
H256 H 0.75322 0.95321 0.57148 0.0
C257 C 0.81111 0.87654 0.66478 0.0
C258 C 0.72683 0.82636 0.67759 0.0
C259 C 0.6715 0.80448 0.52719 0.0
C260 C 0.66026 0.83338 0.5144 0.0
C261 C 0.66354 0.87245 0.52657 0.0
C262 C 0.67848 0.88333 0.55101 0.0
C263 C 0.69096 0.85525 0.56349 0.0
C264 C 0.68705 0.81628 0.5518 0.0
C265 C 0.70298 0.79148 0.56836 0.0
C266 C 0.71565 0.82148 0.59193 0.0
C267 C 0.70895 0.85892 0.58862 0.0
C268 C 0.74546 0.79242 0.55776 0.0
C269 C 0.66208 0.74256 0.57093 0.0
C270 C 0.75297 0.00222 0.64156 0.0
C271 C 0.77256 0.01674 0.66532 0.0
C272 C 0.77634 0.98563 0.68022 0.0
C273 C 0.76359 0.94131 0.67087 0.0
C274 C 0.74696 0.92834 0.64646 0.0
C275 C 0.7403 0.95799 0.63256 0.0
C276 C 0.72134 0.9382 0.60724 0.0
C277 C 0.72026 0.89266 0.60779 0.0
C278 C 0.73574 0.88739 0.63065 0.0
C279 C 0.75599 0.97045 0.58936 0.0
C280 C 0.6723 0.93174 0.60398 0.0
H281 H 0.73456 0.73458 0.59414 0.0
H282 H 0.79059 0.78463 0.68055 0.0
H283 H 0.69615 0.79157 0.67358 0.0
H284 H 0.71279 0.84975 0.67956 0.0
H285 H 0.74347 0.82605 0.69527 0.0
H286 H 0.83616 0.87126 0.6545 0.0
H287 H 0.81937 0.87617 0.68439 0.0
H288 H 0.81892 0.91153 0.66077 0.0
H289 H 0.6694 0.77432 0.51811 0.0
H290 H 0.65455 0.89476 0.51706 0.0
H291 H 0.68052 0.9138 0.55907 0.0
H292 H 0.76656 0.82486 0.54868 0.0
H293 H 0.73491 0.7633 0.54406 0.0
H294 H 0.76929 0.79178 0.57183 0.0
H295 H 0.63014 0.74378 0.57393 0.0
H296 H 0.66725 0.72591 0.5866 0.0
H297 H 0.65561 0.72018 0.55423 0.0
H298 H 0.76557 0.69492 0.61671 0.0
C299 C 0.74623 0.74625 0.61275 0.0
C300 C 0.98763 0.78725 0.65844 0.0
C301 C 0.95432 0.74165 0.65139 0.0
C302 C 0.96029 0.72069 0.63016 0.0
C303 C 0.03108 0.79025 0.62337 0.0
C304 C 0.02577 0.81047 0.6444 0.0
C305 C 0.06548 0.85809 0.6502 0.0
H306 H 0.27182 0.03289 0.62387 0.0
C307 C 0.07517 0.82337 0.61341 0.0
C308 C 0.09559 0.86287 0.62942 0.0
H309 H 0.18841 0.02571 0.68329 0.0
H310 H 0.13111 0.94916 0.6693 0.0
H311 H 0.25948 0.93614 0.62642 0.0
H312 H 0.18613 0.9855 0.58369 0.0
H313 H 0.19483 0.94838 0.5643 0.0
H314 H 0.24388 -0.00132 0.5789 0.0
H315 H 0.28013 0.96245 0.5985 0.0
H316 H 0.24172 0.90117 0.59935 0.0
C317 C 0.0888 0.8587 0.67511 0.0
C318 C 0.04696 0.89206 0.64915 0.0
C319 C 0.12586 0.79096 0.53194 0.0
C320 C 0.16702 0.81615 0.5201 0.0
C321 C 0.20292 0.85723 0.53156 0.0
C322 C 0.19796 0.87389 0.55403 0.0
C323 C 0.1566 0.84938 0.56542 0.0
C324 C 0.1217 0.80797 0.55488 0.0
C325 C 0.08201 0.78542 0.57122 0.0
C326 C 0.09794 0.82179 0.59234 0.0
C327 C 0.14151 0.85917 0.58844 0.0
C328 C 0.0787 0.7403 0.57923 0.0
C329 C 0.03784 0.77828 0.55745 0.0
C330 C 0.24131 0.01462 0.63391 0.0
C331 C 0.23465 0.03537 0.65466 0.0
C332 C 0.1943 0.01063 0.66712 0.0
C333 C 0.16094 0.96598 0.65899 0.0
C334 C 0.16776 0.94571 0.63811 0.0
C335 C 0.20728 0.96993 0.62591 0.0
C336 C 0.20781 0.94318 0.60369 0.0
C337 C 0.16214 0.89879 0.60474 0.0
C338 C 0.13908 0.9006 0.62496 0.0
C339 C 0.24949 0.93544 0.60691 0.0
C340 C 0.2085 0.97014 0.58137 0.0
H341 H 0.00016 0.72709 0.6 0.0
H342 H 0.98457 0.80434 0.67469 0.0
H343 H 0.01748 0.87949 0.6354 0.0
H344 H 0.07261 0.9262 0.64338 0.0
H345 H 0.03475 0.8964 0.66693 0.0
H346 H 0.08663 0.82504 0.67774 0.0
H347 H 0.07193 0.86562 0.69032 0.0
H348 H 0.12605 0.88395 0.67684 0.0
H349 H 0.09798 0.75889 0.52364 0.0
H350 H 0.23467 0.87732 0.52274 0.0
H351 H 0.22652 0.90569 0.56148 0.0
H352 H 0.11323 0.74331 0.58063 0.0
H353 H 0.05645 0.71093 0.56603 0.0
H354 H 0.06579 0.73179 0.59751 0.0
H355 H 0.04439 0.81051 0.54921 0.0
H356 H 0.00927 0.76904 0.56938 0.0
H357 H 0.02608 0.75084 0.5426 0.0
H358 H 0.9357 0.68537 0.62431 0.0
C359 C -0.00198 0.74479 0.61603 0.0
C360 C 0.8677 0.53782 0.70958 0.0
C361 C 0.87869 0.58203 0.71829 0.0
C362 C 0.90572 0.60094 0.74037 0.0
C363 C 0.91006 0.53199 0.74465 0.0
C364 C 0.88405 0.51374 0.72289 0.0
C365 C 0.87647 0.46688 0.71585 0.0
H366 H 0.90929 0.29052 0.741 0.0
C367 C 0.92196 0.49833 0.75378 0.0
C368 C 0.90277 0.4604 0.73674 0.0
H369 H 0.82734 0.29857 0.6812 0.0
H370 H 0.84954 0.37602 0.69514 0.0
H371 H -0.00365 0.39474 0.74012 0.0
H372 H 0.87409 0.32799 0.77894 0.0
H373 H 0.91441 0.37127 0.79967 0.0
H374 H 0.92514 0.3268 0.78815 0.0
H375 H 0.98916 0.35769 0.76412 0.0
H376 H 0.01258 0.41878 0.77009 0.0
C377 C 0.89862 0.46931 0.69142 0.0
C378 C 0.824 0.43203 0.71527 0.0
C379 C 0.00351 0.52258 0.8374 0.0
C380 C 0.01607 0.49455 0.8501 0.0
C381 C 0.01195 0.45492 0.83813 0.0
C382 C 0.99345 0.44187 0.81428 0.0
C383 C 0.97838 0.46841 0.80225 0.0
C384 C 0.98452 0.5087 0.81343 0.0
C385 C 0.9668 0.53245 0.79723 0.0
C386 C 0.94696 0.49829 0.77515 0.0
C387 C 0.95384 0.46098 0.77848 0.0
C388 C 0.0082 0.57902 0.79114 0.0
C389 C 0.92903 0.53683 0.81023 0.0
C390 C 0.8967 0.30925 0.73072 0.0
C391 C 0.86667 0.2887 0.71004 0.0
C392 C 0.85033 0.31378 0.69734 0.0
C393 C 0.86329 0.35874 0.70544 0.0
C394 C 0.89244 0.37848 0.72658 0.0
C395 C 0.90865 0.35381 0.73877 0.0
C396 C 0.93669 0.37891 0.7617 0.0
C397 C 0.93482 0.42296 0.76122 0.0
C398 C 0.90923 0.42261 0.74056 0.0
C399 C 0.98628 0.38788 0.75914 0.0
C400 C 0.91181 0.34995 0.78332 0.0
H401 H 0.94145 0.59224 0.77028 0.0
H402 H 0.84722 0.52238 0.69268 0.0
H403 H 0.80654 0.44369 0.72809 0.0
H404 H 0.8162 0.398 0.72125 0.0
H405 H 0.80729 0.42758 0.69688 0.0
H406 H 0.93168 0.50229 0.6909 0.0
H407 H 0.87558 0.46722 0.67587 0.0
H408 H 0.90768 0.44224 0.68845 0.0
H409 H 0.00664 0.55342 0.84622 0.0
H410 H 0.02233 0.43345 0.84746 0.0
H411 H 0.99048 0.41083 0.80641 0.0
H412 H 0.04029 0.57711 0.79073 0.0
H413 H 0.01453 0.60689 0.80486 0.0
H414 H 0.00374 0.58915 0.77288 0.0
H415 H 0.90502 0.50391 0.81815 0.0
H416 H 0.90745 0.54442 0.79792 0.0
H417 H 0.94441 0.56414 0.82523 0.0
H418 H 0.91463 0.63494 0.74764 0.0
C419 C 0.92134 0.57615 0.75359 0.0
C420 C 0.67027 0.54631 0.71108 0.0
C421 C 0.71083 0.58394 0.7214 0.0
C422 C 0.71236 0.59855 0.746 0.0
C423 C 0.63419 0.53683 0.74969 0.0
C424 C 0.633 0.52303 0.72555 0.0
C425 C 0.58961 0.47949 0.71777 0.0
H426 H 0.39521 0.29381 0.746 0.0
C427 C 0.5904 0.50308 0.75985 0.0
C428 C 0.56481 0.46926 0.74104 0.0
H429 H 0.45643 0.32412 0.67667 0.0
H430 H 0.51482 0.39894 0.6931 0.0
H431 H 0.48742 0.33627 0.77996 0.0
H432 H 0.40055 0.38701 0.7546 0.0
H433 H 0.42702 0.42036 0.78176 0.0
H434 H 0.39083 0.3587 0.78236 0.0
H435 H 0.43064 0.31797 0.78955 0.0
H436 H 0.48073 0.36617 0.80487 0.0
C437 C 0.60268 0.44265 0.71025 0.0
C438 C 0.56384 0.49016 0.69744 0.0
C439 C 0.54758 0.5216 0.84653 0.0
C440 C 0.50733 0.49405 0.85866 0.0
C441 C 0.47271 0.45231 0.84728 0.0
C442 C 0.47713 0.43808 0.82406 0.0
C443 C 0.51654 0.46595 0.81176 0.0
C444 C 0.55132 0.5069 0.82283 0.0
C445 C 0.5905 0.53122 0.80627 0.0
C446 C 0.57189 0.49915 0.78318 0.0
C447 C 0.52884 0.46082 0.78701 0.0
C448 C 0.63374 0.53283 0.81808 0.0
C449 C 0.59708 0.57919 0.80207 0.0
C450 C 0.42136 0.31662 0.73443 0.0
C451 C 0.42191 0.30294 0.7102 0.0
C452 C 0.45554 0.33391 0.69546 0.0
C453 C 0.48956 0.37731 0.70509 0.0
C454 C 0.48984 0.38983 0.72967 0.0
C455 C 0.45538 0.36027 0.74368 0.0
C456 C 0.45969 0.38051 0.76896 0.0
C457 C 0.50419 0.42613 0.7682 0.0
C458 C 0.52171 0.43097 0.74527 0.0
C459 C 0.46461 0.34866 0.78694 0.0
C460 C 0.41739 0.38684 0.77229 0.0
H461 H 0.6775 0.58801 0.77864 0.0
H462 H 0.66817 0.53388 0.69242 0.0
H463 H 0.56986 0.52574 0.70025 0.0
H464 H 0.52602 0.46785 0.69718 0.0
H465 H 0.57565 0.48716 0.6793 0.0
H466 H 0.63422 0.44853 0.72081 0.0
H467 H 0.60957 0.44342 0.69072 0.0
H468 H 0.57634 0.40737 0.71406 0.0
H469 H 0.57483 0.55376 0.85511 0.0
H470 H 0.44186 0.43059 0.85647 0.0
H471 H 0.44942 0.40578 0.81663 0.0
H472 H 0.62452 0.49964 0.82606 0.0
H473 H 0.65018 0.5605 0.83288 0.0
H474 H 0.6595 0.53795 0.80491 0.0
H475 H 0.56337 0.5765 0.7972 0.0
H476 H 0.61918 0.59559 0.78704 0.0
H477 H 0.61245 0.60249 0.81874 0.0
H478 H 0.74327 0.62789 0.75442 0.0
C479 C 0.67422 0.57542 0.76011 0.0
C480 C 0.66439 0.11931 0.71437 0.0
C481 C 0.7004 0.1133 0.72343 0.0
C482 C 0.69635 0.09393 0.74616 0.0
C483 C 0.62229 0.08873 0.7507 0.0
C484 C 0.62627 0.10737 0.72835 0.0
C485 C 0.5869 0.11481 0.72193 0.0
H486 H 0.38701 0.10362 0.74725 0.0
C487 C 0.57864 0.08134 0.76072 0.0
C488 C 0.55819 0.09694 0.74377 0.0
H489 H 0.46971 0.15878 0.68568 0.0
H490 H 0.52393 0.13885 0.70138 0.0
H491 H 0.39829 0.01344 0.74931 0.0
H492 H 0.47451 0.14669 0.7878 0.0
H493 H 0.46326 0.1044 0.80854 0.0
H494 H 0.41587 0.10607 0.79326 0.0
H495 H 0.37495 0.03039 0.7737 0.0
H496 H 0.41041 0.00494 0.77924 0.0
C497 C 0.56141 0.08481 0.69831 0.0
C498 C 0.60658 0.16733 0.7201 0.0
C499 C 0.52609 0.00888 0.84225 0.0
C500 C 0.48608 -0.00355 0.85496 0.0
C501 C 0.45278 0.00593 0.84478 0.0
C502 C 0.45871 0.02681 0.82263 0.0
C503 C 0.49843 0.03862 0.81012 0.0
C504 C 0.53136 0.02953 0.81987 0.0
C505 C 0.57094 0.04379 0.80354 0.0
C506 C 0.5562 0.06272 0.78247 0.0
C507 C 0.51368 0.05986 0.78662 0.0
C508 C 0.57302 0.00044 0.79538 0.0
C509 C 0.61539 0.08158 0.81757 0.0
C510 C 0.41686 0.11125 0.73723 0.0
C511 C 0.424 0.13309 0.71516 0.0
C512 C 0.46336 0.14249 0.70276 0.0
C513 C 0.49507 0.13076 0.71195 0.0
C514 C 0.48807 0.10961 0.73402 0.0
C515 C 0.4496 0.10014 0.74639 0.0
C516 C 0.4489 0.07796 0.7698 0.0
C517 C 0.49346 0.07624 0.76937 0.0
C518 C 0.51583 0.0947 0.74823 0.0
C519 C 0.40583 0.02921 0.7682 0.0
C520 C 0.4504 0.11005 0.7911 0.0
H521 H 0.65696 0.06731 0.77689 0.0
H522 H 0.66654 0.13459 0.6972 0.0
H523 H 0.63928 0.18795 0.73149 0.0
H524 H 0.58353 0.17914 0.72707 0.0
H525 H 0.61392 0.17728 0.70114 0.0
H526 H 0.56099 0.05149 0.69807 0.0
H527 H 0.57856 0.10249 0.682 0.0
H528 H 0.52475 0.07504 0.69648 0.0
H529 H 0.55234 0.00197 0.84936 0.0
H530 H 0.42209 -0.00231 0.85415 0.0
H531 H 0.43197 0.03299 0.81609 0.0
H532 H 0.5378 0.97096 0.79061 0.0
H533 H 0.58894 0.99033 0.81011 0.0
H534 H 0.59213 0.0049 0.77895 0.0
H535 H 0.60854 0.10633 0.82791 0.0
H536 H 0.64271 0.10248 0.80551 0.0
H537 H 0.62896 0.06641 0.83076 0.0
H538 H 0.7232 0.08816 0.75347 0.0
C539 C 0.65766 0.08157 0.75975 0.0
C540 C 0.86927 0.53273 0.98715 0.0
C541 C 0.90943 0.53767 0.97756 0.0
C542 C 0.92047 0.5544 0.95424 0.0
C543 C 0.85164 0.56057 0.95045 0.0
C544 C 0.84075 0.54369 0.97318 0.0
C545 C 0.79512 0.53701 0.97999 0.0
H546 H 0.6038 0.54951 0.95579 0.0
C547 C 0.81414 0.56785 0.9407 0.0
C548 C 0.78084 0.55366 0.95789 0.0
H549 H 0.64119 0.49679 0.01766 0.0
H550 H 0.71196 0.5148 1.0009 0.0
H551 H 0.7123 0.64097 0.951 0.0
H552 H 0.64171 0.50511 0.91399 0.0
H553 H 0.66964 0.54808 0.89329 0.0
H554 H 0.62327 0.54624 0.90939 0.0
H555 H 0.6613 0.62143 0.93134 0.0
H556 H 0.71699 0.64386 0.91926 0.0
C557 C 0.80372 0.56848 1.00317 0.0
C558 C 0.76247 0.48477 0.98275 0.0
C559 C 0.82878 0.63888 0.85948 0.0
C560 C 0.80158 0.65183 0.84562 0.0
C561 C 0.75938 0.64354 0.85467 0.0
C562 C 0.74484 0.62294 0.87692 0.0
C563 C 0.77278 0.61059 0.89058 0.0
C564 C 0.81401 0.61872 0.88165 0.0
C565 C 0.83986 0.60392 0.89833 0.0
C566 C 0.80789 0.58593 0.9189 0.0
C567 C 0.76818 0.58952 0.91444 0.0
C568 C 0.88651 0.64699 0.90681 0.0
C569 C 0.84418 0.56523 0.88469 0.0
C570 C 0.62745 0.54197 0.96564 0.0
C571 C 0.61642 0.52143 0.98823 0.0
C572 C 0.64819 0.51216 1.00031 0.0
C573 C 0.68968 0.52273 0.99046 0.0
C574 C 0.70024 0.54273 0.96803 0.0
C575 C 0.66962 0.55216 0.95581 0.0
C576 C 0.68786 0.57349 0.93198 0.0
C577 C 0.7338 0.57422 0.93196 0.0
C578 C 0.74047 0.55639 0.9534 0.0
C579 C 0.69487 0.62254 0.93325 0.0
C580 C 0.65386 0.54183 0.91093 0.0
H581 H 0.90249 0.57872 0.92317 0.0
H582 H 0.85935 0.51914 1.00478 0.0
H583 H 0.77295 0.46332 0.97193 0.0
H584 H 0.7267 0.47265 0.97573 0.0
H585 H 0.76232 0.47611 1.00196 0.0
H586 H 0.83667 0.6016 1.00272 0.0
H587 H 0.80588 0.55181 0.01976 0.0
H588 H 0.77729 0.57856 1.00504 0.0
H589 H 0.86156 0.64503 0.85343 0.0
H590 H 0.73724 0.65248 0.84437 0.0
H591 H 0.71235 0.61732 0.88267 0.0
H592 H 0.88203 0.6772 0.91061 0.0
H593 H 0.91175 0.65597 0.89264 0.0
H594 H 0.90178 0.64299 0.9239 0.0
H595 H 0.81384 0.54413 0.87176 0.0
H596 H 0.84485 0.54032 0.89695 0.0
H597 H 0.87537 0.57968 0.8741 0.0
H598 H 0.95134 0.55859 0.94641 0.0
C599 C 0.89204 0.56611 0.94073 0.0
C600 C 0.44449 0.10647 0.99516 0.0
C601 C 0.4472 0.07016 0.98374 0.0
C602 C 0.4309 0.05661 0.95919 0.0
C603 C 0.41183 0.11696 0.95753 0.0
C604 C 0.42741 0.12968 0.98168 0.0
C605 C 0.42731 0.17229 0.99043 0.0
H606 H 0.41531 0.35855 0.96327 0.0
C607 C 0.39935 0.15028 0.9484 0.0
C608 C 0.40891 0.18295 0.96766 0.0
H609 H 0.45763 0.3295 0.03206 0.0
H610 H 0.43533 0.25284 1.01608 0.0
H611 H 0.45873 0.3168 0.92984 0.0
H612 H 0.3233 0.26237 0.95502 0.0
H613 H 0.3145 0.23264 0.92674 0.0
H614 H 0.3396 0.29446 0.92845 0.0
H615 H 0.41847 0.33407 0.91993 0.0
H616 H 0.41989 0.28655 0.90481 0.0
C617 C 0.47778 0.20987 0.99811 0.0
C618 C 0.39349 0.1597 1.01092 0.0
C619 C 0.33817 0.13781 0.86052 0.0
C620 C 0.32692 0.16671 0.84773 0.0
C621 C 0.33021 0.20578 0.85991 0.0
C622 C 0.34515 0.21667 0.88435 0.0
C623 C 0.35762 0.18858 0.89682 0.0
C624 C 0.35372 0.14961 0.88513 0.0
C625 C 0.36964 0.12481 0.90169 0.0
C626 C 0.38232 0.15481 0.92527 0.0
C627 C 0.37562 0.19225 0.92195 0.0
C628 C 0.41213 0.12576 0.89109 0.0
C629 C 0.32874 0.07589 0.90426 0.0
C630 C 0.41964 0.33555 0.97489 0.0
C631 C 0.43923 0.35007 0.99865 0.0
C632 C 0.44301 0.31896 1.01356 0.0
C633 C 0.43025 0.27465 1.00421 0.0
C634 C 0.41363 0.26167 0.97979 0.0
C635 C 0.40697 0.29133 0.9659 0.0
C636 C 0.38801 0.27154 0.94057 0.0
C637 C 0.38693 0.226 0.94112 0.0
C638 C 0.40241 0.22073 0.96399 0.0
C639 C 0.42266 0.30379 0.92269 0.0
C640 C 0.33896 0.26508 0.93732 0.0
H641 H 0.40123 0.06791 0.92747 0.0
H642 H 0.45725 0.11796 1.01388 0.0
H643 H 0.36282 0.12491 1.00692 0.0
H644 H 0.37946 0.18308 1.01289 0.0
H645 H 0.41014 0.15938 0.0286 0.0
H646 H 0.50283 0.2046 0.98784 0.0
H647 H 0.48604 0.2095 0.01772 0.0
H648 H 0.48559 0.24487 0.99411 0.0
H649 H 0.33607 0.10765 0.85144 0.0
H650 H 0.32122 0.22809 0.85039 0.0
H651 H 0.34719 0.24713 0.8924 0.0
H652 H 0.43323 0.15819 0.88202 0.0
H653 H 0.40158 0.09663 0.8774 0.0
H654 H 0.43596 0.12512 0.90516 0.0
H655 H 0.29681 0.07712 0.90726 0.0
H656 H 0.33392 0.05924 0.91994 0.0
H657 H 0.32228 0.05351 0.88756 0.0
H658 H 0.43224 0.02825 0.95005 0.0
C659 C 0.41289 0.07959 0.94608 0.0
C660 C 0.6543 0.12058 0.99177 0.0
C661 C 0.62098 0.07498 0.98473 0.0
C662 C 0.62696 0.05402 0.96349 0.0
C663 C 0.69775 0.12359 0.9567 0.0
C664 C 0.69244 0.14381 0.97774 0.0
C665 C 0.73215 0.19142 0.98353 0.0
H666 H 0.93849 0.36622 0.95721 0.0
C667 C 0.74184 0.15671 0.94674 0.0
C668 C 0.76226 0.19621 0.96276 0.0
H669 H 0.85507 0.35904 1.01663 0.0
H670 H 0.79778 0.2825 1.00263 0.0
H671 H 0.92615 0.26948 0.95976 0.0
H672 H 0.8528 0.31883 0.91702 0.0
H673 H 0.8615 0.28171 0.89763 0.0
H674 H 0.91055 0.33201 0.91223 0.0
H675 H 0.9468 0.29578 0.93183 0.0
H676 H 0.90839 0.2345 0.93268 0.0
C677 C 0.75546 0.19204 1.00844 0.0
C678 C 0.71363 0.22539 0.98248 0.0
C679 C 0.79253 0.12429 0.86528 0.0
C680 C 0.83368 0.14949 0.85343 0.0
C681 C 0.86959 0.19056 0.86489 0.0
C682 C 0.86462 0.20722 0.88737 0.0
C683 C 0.82326 0.18271 0.89876 0.0
C684 C 0.78837 0.14131 0.88821 0.0
C685 C 0.74868 0.11876 0.90456 0.0
C686 C 0.76461 0.15513 0.92567 0.0
C687 C 0.80818 0.1925 0.92178 0.0
C688 C 0.74537 0.07363 0.91257 0.0
C689 C 0.70451 0.11161 0.89078 0.0
C690 C 0.90797 0.34796 0.96724 0.0
C691 C 0.90131 0.36871 0.98799 0.0
C692 C 0.86096 0.34397 1.00045 0.0
C693 C 0.82761 0.29932 0.99232 0.0
C694 C 0.83443 0.27904 0.97145 0.0
C695 C 0.87395 0.30326 0.95924 0.0
C696 C 0.87447 0.27652 0.93702 0.0
C697 C 0.82881 0.23212 0.93808 0.0
C698 C 0.80574 0.23393 0.95829 0.0
C699 C 0.91616 0.26877 0.94024 0.0
C700 C 0.87517 0.30348 0.9147 0.0
H701 H 0.66682 0.06042 0.93334 0.0
H702 H 0.65124 0.13767 1.00802 0.0
H703 H 0.68415 0.21282 0.96873 0.0
H704 H 0.73928 0.25953 0.97671 0.0
H705 H 0.70142 0.22973 1.00026 0.0
H706 H 0.7533 0.15837 1.01107 0.0
H707 H 0.7386 0.19896 0.02366 0.0
H708 H 0.79272 0.21728 1.01017 0.0
H709 H 0.76465 0.09223 0.85697 0.0
H710 H 0.90134 0.21065 0.85607 0.0
H711 H 0.89319 0.23902 0.89481 0.0
H712 H 0.7799 0.07665 0.91396 0.0
H713 H 0.72312 0.04427 0.89936 0.0
H714 H 0.73245 0.06512 0.93085 0.0
H715 H 0.71106 0.14385 0.88254 0.0
H716 H 0.67594 0.10238 0.90271 0.0
H717 H 0.69274 0.08418 0.87594 0.0
H718 H 0.60237 0.0187 0.95765 0.0
C719 C 0.66469 0.07812 0.94937 0.0
C720 C 0.53436 0.87115 0.04291 0.0
C721 C 0.54536 0.91536 0.05162 0.0
C722 C 0.57239 0.93428 0.07371 0.0
C723 C 0.57673 0.86533 0.07799 0.0
C724 C 0.55071 0.84707 0.05623 0.0
C725 C 0.54313 0.80021 0.04918 0.0
H726 H 0.57595 0.62385 0.07434 0.0
C727 C 0.58862 0.83167 0.08711 0.0
C728 C 0.56944 0.79373 0.07008 0.0
H729 H 0.49401 0.6319 1.01453 0.0
H730 H 0.5162 0.70935 0.02847 0.0
H731 H 0.66301 0.72808 0.07345 0.0
H732 H 0.54076 0.66132 0.11227 0.0
H733 H 0.58107 0.7046 0.133 0.0
H734 H 0.5918 0.66013 0.12148 0.0
H735 H 0.65582 0.69102 0.09746 0.0
H736 H 0.67924 0.75211 0.10342 0.0
C737 C 0.56528 0.80264 0.02475 0.0
C738 C 0.49067 0.76536 0.04861 0.0
C739 C 0.67018 0.85592 0.17073 0.0
C740 C 0.68274 0.82789 0.18343 0.0
C741 C 0.67862 0.78825 0.17146 0.0
C742 C 0.66012 0.7752 0.14761 0.0
C743 C 0.64504 0.80174 0.13558 0.0
C744 C 0.65118 0.84203 0.14676 0.0
C745 C 0.63347 0.86578 0.13056 0.0
C746 C 0.61362 0.83162 0.10848 0.0
C747 C 0.62051 0.79431 0.11181 0.0
C748 C 0.67487 0.91235 0.12447 0.0
C749 C 0.59569 0.87017 0.14356 0.0
C750 C 0.56336 0.64258 0.06405 0.0
C751 C 0.53333 0.62203 0.04338 0.0
C752 C 0.517 0.64711 0.03068 0.0
C753 C 0.52996 0.69207 0.03878 0.0
C754 C 0.5591 0.71182 0.05991 0.0
C755 C 0.57532 0.68714 0.0721 0.0
C756 C 0.60336 0.71224 0.09504 0.0
C757 C 0.60149 0.75629 0.09455 0.0
C758 C 0.5759 0.75595 0.0739 0.0
C759 C 0.65294 0.72121 0.09248 0.0
C760 C 0.57847 0.68328 0.11665 0.0
H761 H 0.60812 0.92557 0.10361 0.0
H762 H 0.51389 0.85571 0.02602 0.0
H763 H 0.47321 0.77702 0.06143 0.0
H764 H 0.48286 0.73134 0.05459 0.0
H765 H 0.47395 0.76092 0.03021 0.0
H766 H 0.59835 0.83562 0.02423 0.0
H767 H 0.54225 0.80055 1.00921 0.0
H768 H 0.57434 0.77557 0.02178 0.0
H769 H 0.67331 0.88675 0.17955 0.0
H770 H 0.68899 0.76679 0.18079 0.0
H771 H 0.65715 0.74416 0.13975 0.0
H772 H 0.70696 0.91044 0.12407 0.0
H773 H 0.6812 0.94022 0.1382 0.0
H774 H 0.6704 0.92248 0.10622 0.0
H775 H 0.57169 0.83725 0.15148 0.0
H776 H 0.57411 0.87776 0.13125 0.0
H777 H 0.61108 0.89747 0.15856 0.0
H778 H 0.5813 0.96828 0.08097 0.0
C779 C 0.58801 0.90949 0.08692 0.0
C780 C 0.33694 0.87964 0.04441 0.0
C781 C 0.3775 0.91727 0.05474 0.0
C782 C 0.37903 0.93188 0.07933 0.0
C783 C 0.30086 0.87017 0.08302 0.0
C784 C 0.29966 0.85636 0.05888 0.0
C785 C 0.25627 0.81282 0.0511 0.0
H786 H 0.06187 0.62714 0.07933 0.0
C787 C 0.25707 0.83642 0.09318 0.0
C788 C 0.23148 0.80259 0.07437 0.0
H789 H 0.1231 0.65746 1.01 0.0
H790 H 0.18149 0.73228 0.02643 0.0
H791 H 0.15408 0.66961 0.1133 0.0
H792 H 0.06721 0.72035 0.08793 0.0
H793 H 0.09369 0.75369 0.11509 0.0
H794 H 0.0575 0.69203 0.1157 0.0
H795 H 0.09731 0.65131 0.12288 0.0
H796 H 0.1474 0.6995 0.1382 0.0
C797 C 0.26935 0.77598 0.04359 0.0
C798 C 0.23051 0.82349 0.03078 0.0
C799 C 0.21425 0.85493 0.17986 0.0
C800 C 0.17399 0.82738 0.19199 0.0
C801 C 0.13937 0.78565 0.18062 0.0
C802 C 0.1438 0.77142 0.15739 0.0
C803 C 0.18321 0.79928 0.14509 0.0
C804 C 0.21798 0.84023 0.15617 0.0
C805 C 0.25717 0.86455 0.13961 0.0
C806 C 0.23856 0.83248 0.11652 0.0
C807 C 0.1955 0.79416 0.12034 0.0
C808 C 0.3004 0.86617 0.15141 0.0
C809 C 0.26375 0.91252 0.1354 0.0
C810 C 0.08802 0.64995 0.06776 0.0
C811 C 0.08858 0.63627 0.04353 0.0
C812 C 0.12221 0.66724 0.0288 0.0
C813 C 0.15622 0.71064 0.03842 0.0
C814 C 0.15651 0.72317 0.063 0.0
C815 C 0.12204 0.6936 0.07701 0.0
C816 C 0.12636 0.71384 0.10229 0.0
C817 C 0.17086 0.75947 0.10153 0.0
C818 C 0.18838 0.7643 0.0786 0.0
C819 C 0.13128 0.682 0.12028 0.0
C820 C 0.08406 0.72017 0.10562 0.0
H821 H 0.34417 0.92135 0.11197 0.0
H822 H 0.33483 0.86722 0.02576 0.0
H823 H 0.23653 0.85908 0.03359 0.0
H824 H 0.19269 0.80119 0.03051 0.0
H825 H 0.24232 0.82049 1.01264 0.0
H826 H 0.30089 0.78186 0.05414 0.0
H827 H 0.27624 0.77675 0.02405 0.0
H828 H 0.24301 0.7407 0.04739 0.0
H829 H 0.2415 0.8871 0.18844 0.0
H830 H 0.10853 0.76392 0.18981 0.0
H831 H 0.11609 0.73911 0.14996 0.0
H832 H 0.29119 0.83298 0.15939 0.0
H833 H 0.31685 0.89384 0.16621 0.0
H834 H 0.32617 0.87128 0.13824 0.0
H835 H 0.23004 0.90983 0.13053 0.0
H836 H 0.28584 0.92893 0.12037 0.0
H837 H 0.27912 0.93582 0.15207 0.0
H838 H 0.40994 0.96122 0.08776 0.0
C839 C 0.34089 0.90875 0.09345 0.0
C840 C 0.33106 0.45265 0.0477 0.0
C841 C 0.36707 0.44663 0.05676 0.0
C842 C 0.36301 0.42727 0.07949 0.0
C843 C 0.28896 0.42206 0.08403 0.0
C844 C 0.29294 0.4407 0.06168 0.0
C845 C 0.25357 0.44814 0.05526 0.0
H846 H 0.05368 0.43696 0.08059 0.0
C847 C 0.2453 0.41467 0.09406 0.0
C848 C 0.22485 0.43028 0.0771 0.0
H849 H 0.13637 0.49212 0.01901 0.0
H850 H 0.19059 0.47218 0.03471 0.0
H851 H 0.06496 0.34677 0.08265 0.0
H852 H 0.14117 0.48003 0.12113 0.0
H853 H 0.12993 0.43774 0.14187 0.0
H854 H 0.08254 0.4394 0.1266 0.0
H855 H 0.04161 0.36372 0.10703 0.0
H856 H 0.07708 0.33827 0.11258 0.0
C857 C 0.22808 0.41814 0.03165 0.0
C858 C 0.27325 0.50067 0.05343 0.0
C859 C 0.19276 0.34221 0.17559 0.0
C860 C 0.15275 0.32978 0.18829 0.0
C861 C 0.11944 0.33926 0.17811 0.0
C862 C 0.12538 0.36014 0.15596 0.0
C863 C 0.1651 0.37195 0.14345 0.0
C864 C 0.19803 0.36286 0.1532 0.0
C865 C 0.2376 0.37713 0.13687 0.0
C866 C 0.22287 0.39605 0.1158 0.0
C867 C 0.18034 0.3932 0.11995 0.0
C868 C 0.23969 0.33377 0.12871 0.0
C869 C 0.28206 0.41491 0.15091 0.0
C870 C 0.08353 0.44458 0.07056 0.0
C871 C 0.09066 0.46642 0.0485 0.0
C872 C 0.13003 0.47582 0.0361 0.0
C873 C 0.16173 0.4641 0.04528 0.0
C874 C 0.15473 0.44294 0.06736 0.0
C875 C 0.11627 0.43347 0.07972 0.0
C876 C 0.11557 0.41129 0.10314 0.0
C877 C 0.16012 0.40957 0.1027 0.0
C878 C 0.1825 0.42803 0.08156 0.0
C879 C 0.07249 0.36255 0.10153 0.0
C880 C 0.11706 0.44339 0.12443 0.0
H881 H 0.32362 0.40064 0.11023 0.0
H882 H 0.33321 0.46793 0.03054 0.0
H883 H 0.30595 0.52129 0.06482 0.0
H884 H 0.25019 0.51247 0.0604 0.0
H885 H 0.28059 0.51061 0.03447 0.0
H886 H 0.22766 0.38483 0.0314 0.0
H887 H 0.24522 0.43582 1.01533 0.0
H888 H 0.19142 0.40837 0.02982 0.0
H889 H 0.21901 0.3353 0.18269 0.0
H890 H 0.08875 0.33102 0.18749 0.0
H891 H 0.09864 0.36632 0.14942 0.0
H892 H 0.20446 0.30429 0.12394 0.0
H893 H 0.25561 0.32367 0.14344 0.0
H894 H 0.25879 0.33823 0.11228 0.0
H895 H 0.2752 0.43967 0.16125 0.0
H896 H 0.30938 0.43581 0.13884 0.0
H897 H 0.29563 0.39974 0.16409 0.0
H898 H 0.38987 0.42149 0.0868 0.0
C899 C 0.32432 0.4149 0.09309 0.0
C900 C 0.53593 0.86606 0.32048 0.0
C901 C 0.5761 0.87101 0.31089 0.0
C902 C 0.58714 0.88773 0.28757 0.0
C903 C 0.5183 0.8939 0.28378 0.0
C904 C 0.50741 0.87703 0.30652 0.0
C905 C 0.46179 0.87034 0.31332 0.0
H906 H 0.27046 0.88285 0.28912 0.0
C907 C 0.48081 0.90119 0.27403 0.0
C908 C 0.44751 0.88699 0.29122 0.0
H909 H 0.30786 0.83012 0.35099 0.0
H910 H 0.37862 0.84813 0.33423 0.0
H911 H 0.37897 0.9743 0.28433 0.0
H912 H 0.30837 0.83844 0.24732 0.0
H913 H 0.33631 0.88141 0.22662 0.0
H914 H 0.28993 0.87957 0.24273 0.0
H915 H 0.32796 0.95476 0.26468 0.0
H916 H 0.38365 0.97719 0.25259 0.0
C917 C 0.47039 0.90181 0.3365 0.0
C918 C 0.42913 0.8181 0.31608 0.0
C919 C 0.49544 0.97222 0.19281 0.0
C920 C 0.46824 0.98517 0.17896 0.0
C921 C 0.42605 0.97688 0.18801 0.0
C922 C 0.4115 0.95627 0.21026 0.0
C923 C 0.43944 0.94392 0.22392 0.0
C924 C 0.48067 0.95205 0.21499 0.0
C925 C 0.50653 0.93725 0.23166 0.0
C926 C 0.47455 0.91926 0.25224 0.0
C927 C 0.43484 0.92285 0.24777 0.0
C928 C 0.55317 0.98033 0.24014 0.0
C929 C 0.51085 0.89856 0.21802 0.0
C930 C 0.29411 0.8753 0.29897 0.0
C931 C 0.28309 0.85476 0.32157 0.0
C932 C 0.31485 0.84549 0.33364 0.0
C933 C 0.35634 0.85606 0.32379 0.0
C934 C 0.3669 0.87606 0.30136 0.0
C935 C 0.33628 0.8855 0.28914 0.0
C936 C 0.35453 0.90682 0.26532 0.0
C937 C 0.40047 0.90755 0.2653 0.0
C938 C 0.40714 0.88972 0.28673 0.0
C939 C 0.36154 0.95587 0.26658 0.0
C940 C 0.32053 0.87517 0.24426 0.0
H941 H 0.56915 0.91206 0.25651 0.0
H942 H 0.52602 0.85248 0.33811 0.0
H943 H 0.43962 0.79665 0.30526 0.0
H944 H 0.39337 0.80598 0.30907 0.0
H945 H 0.42899 0.80944 0.33529 0.0
H946 H 0.50333 0.93493 0.33605 0.0
H947 H 0.47254 0.88515 0.35309 0.0
H948 H 0.44396 0.91189 0.33838 0.0
H949 H 0.52822 0.97836 0.18676 0.0
H950 H 0.40391 0.98581 0.17771 0.0
H951 H 0.37902 0.95065 0.216 0.0
H952 H 0.54869 0.01054 0.24394 0.0
H953 H 0.57841 0.98931 0.22597 0.0
H954 H 0.56844 0.97633 0.25723 0.0
H955 H 0.48051 0.87747 0.20509 0.0
H956 H 0.51151 0.87366 0.23029 0.0
H957 H 0.54203 0.91301 0.20743 0.0
H958 H 0.618 0.89193 0.27974 0.0
C959 C 0.55871 0.89945 0.27407 0.0
C960 C 0.11115 0.4398 0.3285 0.0
C961 C 0.11386 0.40349 0.31708 0.0
C962 C 0.09757 0.38994 0.29252 0.0
C963 C 0.07849 0.45029 0.29086 0.0
C964 C 0.09407 0.46302 0.31502 0.0
C965 C 0.09397 0.50562 0.32377 0.0
H966 H 0.08198 0.69188 0.2966 0.0
C967 C 0.06602 0.48361 0.28173 0.0
C968 C 0.07557 0.51628 0.30099 0.0
H969 H 0.1243 0.66284 0.36539 0.0
H970 H 0.10199 0.58617 0.34941 0.0
H971 H 0.12539 0.65013 0.26318 0.0
H972 H 0.98996 0.5957 0.28836 0.0
H973 H 0.98117 0.56597 0.26007 0.0
H974 H 0.00626 0.62779 0.26178 0.0
H975 H 0.08513 0.6674 0.25326 0.0
H976 H 0.08655 0.61988 0.23815 0.0
C977 C 0.14445 0.5432 0.33145 0.0
C978 C 0.06016 0.49303 0.34425 0.0
C979 C 0.00483 0.47114 0.19386 0.0
C980 C 0.99359 0.50004 0.18106 0.0
C981 C -0.00313 0.53911 0.19324 0.0
C982 C 0.01181 0.55 0.21768 0.0
C983 C 0.02429 0.52192 0.23015 0.0
C984 C 0.02038 0.48294 0.21847 0.0
C985 C 0.03631 0.45814 0.23503 0.0
C986 C 0.04898 0.48814 0.2586 0.0
C987 C 0.04229 0.52558 0.25529 0.0
C988 C 0.0788 0.45909 0.22442 0.0
C989 C 0.99541 0.40922 0.23759 0.0
C990 C 0.0863 0.66888 0.30822 0.0
C991 C 0.10589 0.68341 0.33199 0.0
C992 C 0.10967 0.65229 0.34689 0.0
C993 C 0.09692 0.60798 0.33754 0.0
C994 C 0.08029 0.595 0.31313 0.0
C995 C 0.07363 0.62466 0.29923 0.0
C996 C 0.05467 0.60487 0.27391 0.0
C997 C 0.05359 0.55933 0.27445 0.0
C998 C 0.06907 0.55406 0.29732 0.0
C999 C 0.08932 0.63712 0.25602 0.0
C1000 C 0.00563 0.59841 0.27065 0.0
H1001 H 0.0679 0.40124 0.26081 0.0
H1002 H 0.12392 0.45129 0.34721 0.0
H1003 H 0.02948 0.45824 0.34025 0.0
H1004 H 0.04612 0.51641 0.34622 0.0
H1005 H 0.0768 0.49271 0.36194 0.0
H1006 H 0.16949 0.53793 0.32117 0.0
H1007 H 0.15271 0.54284 0.35106 0.0
H1008 H 0.15225 0.5782 0.32744 0.0
H1009 H 0.00274 0.44098 0.18477 0.0
H1010 H 0.98788 0.56142 0.18373 0.0
H1011 H 0.01385 0.58046 0.22573 0.0
H1012 H 0.0999 0.49152 0.21535 0.0
H1013 H 0.06824 0.42997 0.21073 0.0
H1014 H 0.10262 0.45845 0.23849 0.0
H1015 H 0.96347 0.41045 0.2406 0.0
H1016 H 0.00058 0.39257 0.25327 0.0
H1017 H 0.98895 0.38684 0.22089 0.0
H1018 H 0.0989 0.36159 0.28338 0.0
C1019 C 0.07956 0.41292 0.27942 0.0
C1020 C 0.32096 0.45391 0.32511 0.0
C1021 C 0.28765 0.40831 0.31806 0.0
C1022 C 0.29363 0.38735 0.29682 0.0
C1023 C 0.36442 0.45692 0.29003 0.0
C1024 C 0.35911 0.47714 0.31107 0.0
C1025 C 0.39882 0.52476 0.31686 0.0
H1026 H 0.60515 0.69956 0.29054 0.0
C1027 C 0.40851 0.49004 0.28008 0.0
C1028 C 0.42893 0.52954 0.29609 0.0
H1029 H 0.52174 0.69238 0.34996 0.0
H1030 H 0.46444 0.61583 0.33596 0.0
H1031 H 0.59281 0.60281 0.29309 0.0
H1032 H 0.51946 0.65217 0.25035 0.0
H1033 H 0.52817 0.61505 0.23097 0.0
H1034 H 0.57722 0.66535 0.24557 0.0
H1035 H 0.61346 0.62912 0.26516 0.0
H1036 H 0.57505 0.56784 0.26601 0.0
C1037 C 0.42213 0.52537 0.34178 0.0
C1038 C 0.38029 0.55873 0.31581 0.0
C1039 C 0.4592 0.45763 0.19861 0.0
C1040 C 0.50035 0.48282 0.18676 0.0
C1041 C 0.53625 0.5239 0.19822 0.0
C1042 C 0.53129 0.54056 0.2207 0.0
C1043 C 0.48993 0.51605 0.23209 0.0
C1044 C 0.45504 0.47464 0.22155 0.0
C1045 C 0.41535 0.45209 0.23789 0.0
C1046 C 0.43127 0.48846 0.259 0.0
C1047 C 0.47485 0.52584 0.25511 0.0
C1048 C 0.41204 0.40697 0.2459 0.0
C1049 C 0.37118 0.44494 0.22412 0.0
C1050 C 0.57464 0.68129 0.30057 0.0
C1051 C 0.56798 0.70204 0.32133 0.0
C1052 C 0.52763 0.6773 0.33378 0.0
C1053 C 0.49428 0.63265 0.32566 0.0
C1054 C 0.50109 0.61238 0.30478 0.0
C1055 C 0.54062 0.6366 0.29258 0.0
C1056 C 0.54114 0.60985 0.27035 0.0
C1057 C 0.49547 0.56546 0.27141 0.0
C1058 C 0.47241 0.56727 0.29162 0.0
C1059 C 0.58282 0.60211 0.27358 0.0
C1060 C 0.54184 0.63681 0.24803 0.0
H1061 H 0.33349 0.39376 0.26667 0.0
H1062 H 0.31791 0.47101 0.34135 0.0
H1063 H 0.35081 0.54615 0.30206 0.0
H1064 H 0.40594 0.59287 0.31005 0.0
H1065 H 0.36808 0.56307 0.3336 0.0
H1066 H 0.41996 0.49171 0.3444 0.0
H1067 H 0.40527 0.53229 0.35699 0.0
H1068 H 0.45938 0.55061 0.3435 0.0
H1069 H 0.43132 0.42556 0.1903 0.0
H1070 H 0.56801 0.54399 0.1894 0.0
H1071 H 0.55985 0.57236 0.22815 0.0
H1072 H 0.44657 0.40998 0.24729 0.0
H1073 H 0.38979 0.3776 0.2327 0.0
H1074 H 0.39912 0.39846 0.26418 0.0
H1075 H 0.37773 0.47718 0.21587 0.0
H1076 H 0.3426 0.43571 0.23604 0.0
H1077 H 0.35941 0.41751 0.20927 0.0
H1078 H 0.26904 0.35204 0.29098 0.0
C1079 C 0.33136 0.41146 0.2827 0.0
Eu1080 Eu 0.47735 0.95899 0.99319 0.0
Eu1081 Eu 0.51574 0.03076 0.04368 0.0
C1082 C 0.46799 0.04706 0.99689 0.0
C1083 C 0.46192 0.93529 0.92497 0.0
C1084 C 0.50608 0.97048 0.91981 0.0
C1085 C 0.43448 0.9383 0.88387 0.0
C1086 C 0.51437 0.98936 0.89698 0.0
C1087 C 0.42636 0.91923 0.90662 0.0
C1088 C 0.47851 0.97402 0.87874 0.0
C1089 C 0.45183 0.91735 0.94969 0.0
O1090 O 0.45857 0.9629 0.05291 0.0
O1091 O 0.4163 0.93839 1.01669 0.0
C1092 C 0.41892 0.94051 0.04064 0.0
O1093 O 0.49556 0.9217 0.02082 0.0
O1094 O 0.49667 0.06429 0.07203 0.0
O1095 O 0.56168 0.06595 0.07616 0.0
O1096 O 0.54737 0.98586 0.04506 0.0
C1097 C 0.52875 0.94202 0.03825 0.0
O1098 O 0.5538 0.00468 0.9923 0.0
O1099 O 0.56896 0.06902 1.01629 0.0
O1100 O 0.46943 0.04742 0.02069 0.0
O1101 O 0.48589 0.91991 0.9632 0.0
O1102 O 0.42646 0.92882 0.96219 0.0
O1103 O 0.48488 0.02621 0.98421 0.0
C1104 C 0.51686 0.05058 0.1111 0.0
C1105 C 0.52201 0.01317 0.11744 0.0
C1106 C 0.47867 0.04448 0.14884 0.0
C1107 C 0.50619 0.99207 0.13927 0.0
C1108 C 0.49485 0.06583 0.12705 0.0
C1109 C 0.48423 0.00733 0.15535 0.0
C1110 C 0.53053 0.07108 0.08714 0.0
C1111 C 0.57968 0.0487 0.99874 0.0
H1112 H 0.53406 0.98411 0.93362 0.0
H1113 H 0.40605 0.92512 0.87027 0.0
H1114 H 0.54856 0.01707 0.89391 0.0
H1115 H 0.39195 0.89236 0.91002 0.0
H1116 H 0.53774 -0.0003 0.10536 0.0
H1117 H 0.46231 0.05752 0.16074 0.0
H1118 H 0.51052 0.96316 0.14334 0.0
H1119 H 0.48975 0.0941 0.12254 0.0
Eu1120 Eu 0.02776 0.51259 0.99095 0.0
Eu1121 Eu 0.96906 0.49174 0.04023 0.0
C1122 C 0.93541 0.41597 0.99681 0.0
C1123 C 0.05984 0.52076 0.9257 0.0
C1124 C 0.02434 0.47721 0.91675 0.0
C1125 C 0.06594 0.54809 0.88514 0.0
C1126 C 0.0102 0.46904 0.89217 0.0
C1127 C 0.08049 0.55616 0.90977 0.0
C1128 C 0.0309 0.50434 0.87616 0.0
C1129 C 0.07322 0.53065 0.95177 0.0
O1130 O 0.01607 0.46183 0.04486 0.0
O1131 O 0.0726 0.50938 0.02091 0.0
C1132 C 0.05829 0.47997 0.0379 0.0
O1133 O 0.04863 0.58045 1.01043 0.0
O1134 O 0.93084 0.44363 0.06739 0.0
O1135 O 0.94076 0.51262 0.0697 0.0
O1136 O 0.03531 0.55716 0.04907 0.0
C1137 C 0.05549 0.58939 0.03394 0.0
O1138 O 0.96282 0.51047 0.97835 0.0
O1139 O 0.94104 0.52554 1.01507 0.0
O1140 O 0.92266 0.43657 1.01263 0.0
O1141 O 0.06244 0.55878 0.96253 0.0
O1142 O 0.06483 0.49577 0.96464 0.0
O1143 O 0.97716 0.43614 0.98899 0.0
C1144 C 0.94584 0.48065 0.10632 0.0
C1145 C 0.98633 0.52086 0.11498 0.0
C1146 C 0.93988 0.4502 0.14612 0.0
C1147 C 0.00267 0.52618 0.13911 0.0
C1148 C 0.92313 0.44506 0.12193 0.0
C1149 C 0.97928 0.49119 0.15494 0.0
C1150 C 0.92835 0.47492 0.08085 0.0
C1151 C 0.93909 0.52399 0.99108 0.0
H1152 H 0.00715 0.44961 0.92876 0.0
H1153 H 0.08241 0.57573 0.87309 0.0
H1154 H 0.98262 0.43516 0.8857 0.0
H1155 H 0.10753 0.59015 0.91645 0.0
H1156 H 0.00516 0.54845 0.1032 0.0
H1157 H 0.9212 0.42297 0.15811 0.0
H1158 H 0.03328 0.55802 0.14555 0.0
H1159 H 0.89224 0.41352 0.11547 0.0
Eu1160 Eu 0.51366 0.47979 0.04702 0.0
Eu1161 Eu 0.46974 0.49455 0.99529 0.0
C1162 C 0.51794 0.57421 0.03558 0.0
C1163 C 0.52999 0.46527 0.11382 0.0
C1164 C 0.48835 0.46351 0.11852 0.0
C1165 C 0.547 0.46851 0.15714 0.0
C1166 C 0.47647 0.46509 0.14244 0.0
C1167 C 0.55859 0.46648 0.13325 0.0
C1168 C 0.50649 0.46917 0.16197 0.0
C1169 C 0.54565 0.46998 0.089 0.0
O1170 O 0.54626 0.52482 0.99128 0.0
O1171 O 0.56154 0.48354 0.01848 0.0
C1172 C 0.57255 0.50919 0.99968 0.0
O1173 O 0.46279 0.40974 0.03029 0.0
O1174 O 0.47338 0.54159 0.96822 0.0
O1175 O 0.42506 0.46861 0.96192 0.0
O1176 O 0.47104 0.42906 0.99086 0.0
C1177 C 0.45793 0.39824 1.00704 0.0
O1178 O 0.44818 0.47652 0.05712 0.0
O1179 O 0.4089 0.46203 0.01961 0.0
O1180 O 0.4805 0.55132 0.02142 0.0
O1181 O 0.52036 0.4359 0.07319 0.0
O1182 O 0.55828 0.50963 0.08015 0.0
O1183 O 0.54193 0.55537 0.04288 0.0
C1184 C 0.46509 0.50929 0.92868 0.0
C1185 C 0.4995 0.49743 0.92645 0.0
C1186 C 0.46602 0.52046 0.88548 0.0
C1187 C 0.51631 0.49614 0.90378 0.0
C1188 C 0.44922 0.52179 0.90815 0.0
C1189 C 0.49925 0.50706 0.88306 0.0
C1190 C 0.44589 0.50848 0.95235 0.0
C1191 C 0.40992 0.46242 0.04366 0.0
H1192 H 0.4662 0.46316 0.10374 0.0
H1193 H 0.57081 0.47184 0.17191 0.0
H1194 H 0.44548 0.46634 0.14565 0.0
H1195 H 0.59088 0.46794 0.12999 0.0
H1196 H 0.51228 0.48776 0.94213 0.0
H1197 H 0.45153 0.52784 0.86959 0.0
H1198 H 0.5407 0.48418 0.90219 0.0
H1199 H 0.42292 0.53127 0.90952 0.0
Eu1200 Eu 0.14402 0.29232 0.32653 0.0
Eu1201 Eu 0.18241 0.3641 0.37702 0.0
C1202 C 0.13466 0.38039 0.33022 0.0
C1203 C 0.12859 0.26863 0.2583 0.0
C1204 C 0.17275 0.30381 0.25314 0.0
C1205 C 0.10115 0.27164 0.2172 0.0
C1206 C 0.18104 0.32269 0.23031 0.0
C1207 C 0.09303 0.25257 0.23995 0.0
C1208 C 0.14518 0.30735 0.21207 0.0
C1209 C 0.1185 0.25069 0.28302 0.0
O1210 O 0.12524 0.29623 0.38624 0.0
O1211 O 0.08297 0.27173 0.35003 0.0
C1212 C 0.08559 0.27385 0.37398 0.0
O1213 O 0.16223 0.25503 0.35415 0.0
O1214 O 0.16334 0.39762 0.40536 0.0
O1215 O 0.22834 0.39928 0.40949 0.0
O1216 O 0.21404 0.3192 0.37839 0.0
C1217 C 0.19542 0.27535 0.37158 0.0
O1218 O 0.22046 0.33801 0.32563 0.0
O1219 O 0.23563 0.40236 0.34962 0.0
O1220 O 0.1361 0.38076 0.35402 0.0
O1221 O 0.15256 0.25324 0.29654 0.0
O1222 O 0.09313 0.26215 0.29553 0.0
O1223 O 0.15155 0.35954 0.31754 0.0
C1224 C 0.18352 0.38391 0.44444 0.0
C1225 C 0.18867 0.3465 0.45077 0.0
C1226 C 0.14534 0.37781 0.48217 0.0
C1227 C 0.17286 0.3254 0.4726 0.0
C1228 C 0.16152 0.39917 0.46038 0.0
C1229 C 0.1509 0.34067 0.48868 0.0
C1230 C 0.1972 0.40442 0.42047 0.0
C1231 C 0.24634 0.38204 0.33208 0.0
H1232 H 0.20073 0.31744 0.26695 0.0
H1233 H 0.07271 0.25846 0.20361 0.0
H1234 H 0.21523 0.3504 0.22724 0.0
H1235 H 0.05862 0.22569 0.24335 0.0
H1236 H 0.20441 0.33304 0.43869 0.0
H1237 H 0.12898 0.39085 0.49407 0.0
H1238 H 0.17719 0.29649 0.47667 0.0
H1239 H 0.15642 0.42744 0.45587 0.0
Eu1240 Eu 0.69443 0.84593 0.32428 0.0
Eu1241 Eu 0.63572 0.82508 0.37356 0.0
C1242 C 0.60208 0.74931 0.33014 0.0
C1243 C 0.72651 0.8541 0.25903 0.0
C1244 C 0.69101 0.81055 0.25009 0.0
C1245 C 0.73261 0.88142 0.21847 0.0
C1246 C 0.67687 0.80237 0.22551 0.0
C1247 C 0.74716 0.88949 0.2431 0.0
C1248 C 0.69756 0.83768 0.20949 0.0
C1249 C 0.73989 0.86399 0.28511 0.0
O1250 O 0.68273 0.79516 0.3782 0.0
O1251 O 0.73927 0.84271 0.35425 0.0
C1252 C 0.72495 0.8133 0.37124 0.0
O1253 O 0.71529 0.91379 0.34376 0.0
O1254 O 0.5975 0.77696 0.40072 0.0
O1255 O 0.60743 0.84596 0.40303 0.0
O1256 O 0.70197 0.8905 0.38241 0.0
C1257 C 0.72216 0.92273 0.36728 0.0
O1258 O 0.62949 0.8438 0.31168 0.0
O1259 O 0.60771 0.85888 0.34841 0.0
O1260 O 0.58932 0.7699 0.34596 0.0
O1261 O 0.72911 0.89211 0.29587 0.0
O1262 O 0.7315 0.82911 0.29797 0.0
O1263 O 0.64382 0.76947 0.32232 0.0
C1264 C 0.61251 0.81398 0.43965 0.0
C1265 C 0.653 0.85419 0.44831 0.0
C1266 C 0.60655 0.78353 0.47945 0.0
C1267 C 0.66933 0.85951 0.47244 0.0
C1268 C 0.5898 0.77839 0.45527 0.0
C1269 C 0.64595 0.82452 0.48828 0.0
C1270 C 0.59501 0.80826 0.41418 0.0
C1271 C 0.60575 0.85732 0.32442 0.0
H1272 H 0.67382 0.78294 0.26209 0.0
H1273 H 0.74908 0.90907 0.20642 0.0
H1274 H 0.64929 0.76849 0.21904 0.0
H1275 H 0.7742 0.92349 0.24979 0.0
H1276 H 0.67183 0.88178 0.43653 0.0
H1277 H 0.58787 0.7563 0.49144 0.0
H1278 H 0.69994 0.89135 0.47889 0.0
H1279 H 0.5589 0.74685 0.44881 0.0
Eu1280 Eu 0.18032 0.81312 0.38035 0.0
Eu1281 Eu 0.1364 0.82788 0.32862 0.0
C1282 C 0.1846 0.90754 0.36891 0.0
C1283 C 0.19666 0.7986 0.44716 0.0
C1284 C 0.15502 0.79684 0.45186 0.0
C1285 C 0.21366 0.80184 0.49047 0.0
C1286 C 0.14313 0.79842 0.47577 0.0
C1287 C 0.22526 0.79981 0.46658 0.0
C1288 C 0.17315 0.8025 0.4953 0.0
C1289 C 0.21231 0.80331 0.42234 0.0
O1290 O 0.21293 0.85816 0.32462 0.0
O1291 O 0.22821 0.81687 0.35181 0.0
C1292 C 0.23922 0.84252 0.33301 0.0
O1293 O 0.12945 0.74307 0.36362 0.0
O1294 O 0.14004 0.87492 0.30155 0.0
O1295 O 0.09172 0.80194 0.29526 0.0
O1296 O 0.1377 0.76239 0.32419 0.0
C1297 C 0.12459 0.73157 0.34038 0.0
O1298 O 0.11485 0.80985 0.39045 0.0
O1299 O 0.07556 0.79536 0.35294 0.0
O1300 O 0.14716 0.88465 0.35476 0.0
O1301 O 0.18702 0.76923 0.40652 0.0
O1302 O 0.22494 0.84296 0.41349 0.0
O1303 O 0.20859 0.8887 0.37622 0.0
C1304 C 0.13175 0.84262 0.26201 0.0
C1305 C 0.16617 0.83077 0.25979 0.0
C1306 C 0.13268 0.85379 0.21881 0.0
C1307 C 0.18298 0.82947 0.23711 0.0
C1308 C 0.11589 0.85512 0.24148 0.0
C1309 C 0.16591 0.84039 0.21639 0.0
C1310 C 0.11256 0.84181 0.28569 0.0
C1311 C 0.07658 0.79575 0.37699 0.0
H1312 H 0.13287 0.79649 0.43707 0.0
H1313 H 0.23748 0.80517 0.50524 0.0
H1314 H 0.11215 0.79967 0.47898 0.0
H1315 H 0.25755 0.80127 0.46332 0.0
H1316 H 0.17894 0.82109 0.27546 0.0
H1317 H 0.1182 0.86117 0.20293 0.0
H1318 H 0.20737 0.81751 0.23553 0.0
H1319 H 0.08958 0.86461 0.24285 0.0
Eu1320 Eu 0.81069 0.62565 0.65986 0.0
Eu1321 Eu 0.84908 0.69743 0.71035 0.0
C1322 C 0.80132 0.71372 0.66356 0.0
C1323 C 0.79525 0.60196 0.59163 0.0
C1324 C 0.83941 0.63714 0.58648 0.0
C1325 C 0.76781 0.60497 0.55053 0.0
C1326 C 0.84771 0.65602 0.56364 0.0
C1327 C 0.75969 0.5859 0.57328 0.0
C1328 C 0.81184 0.64068 0.5454 0.0
C1329 C 0.78516 0.58402 0.61636 0.0
O1330 O 0.7919 0.62957 0.71957 0.0
O1331 O 0.74964 0.60506 0.68336 0.0
C1332 C 0.75226 0.60718 0.70731 0.0
O1333 O 0.8289 0.58837 0.68748 0.0
O1334 O 0.83 0.73095 0.73869 0.0
O1335 O 0.89501 0.73261 0.74283 0.0
O1336 O 0.8807 0.65253 0.71172 0.0
C1337 C 0.86208 0.60868 0.70491 0.0
O1338 O 0.88713 0.67134 0.65897 0.0
O1339 O 0.90229 0.73569 0.68295 0.0
O1340 O 0.80276 0.71409 0.68736 0.0
O1341 O 0.81922 0.58657 0.62987 0.0
O1342 O 0.75979 0.59548 0.62886 0.0
O1343 O 0.81822 0.69287 0.65088 0.0
C1344 C 0.85019 0.71725 0.77777 0.0
C1345 C 0.85534 0.67984 0.7841 0.0
C1346 C 0.812 0.71115 0.8155 0.0
C1347 C 0.83952 0.65874 0.80593 0.0
C1348 C 0.82819 0.7325 0.79372 0.0
C1349 C 0.81756 0.674 0.82202 0.0
C1350 C 0.86387 0.73775 0.7538 0.0
C1351 C 0.91301 0.71537 0.66541 0.0
H1352 H 0.86739 0.65077 0.60029 0.0
H1353 H 0.73938 0.59179 0.53694 0.0
H1354 H 0.88189 0.68373 0.56057 0.0
H1355 H 0.72528 0.55903 0.57669 0.0
H1356 H 0.87107 0.66637 0.77202 0.0
H1357 H 0.79565 0.72418 0.82741 0.0
H1358 H 0.84386 0.62983 0.81001 0.0
H1359 H 0.82308 0.76077 0.7892 0.0
Eu1360 Eu 0.36109 0.17926 0.65761 0.0
Eu1361 Eu 0.30239 0.15841 0.7069 0.0
C1362 C 0.26875 0.08264 0.66347 0.0
C1363 C 0.39318 0.18743 0.59236 0.0
C1364 C 0.35767 0.14388 0.58342 0.0
C1365 C 0.39928 0.21475 0.5518 0.0
C1366 C 0.34354 0.1357 0.55884 0.0
C1367 C 0.41382 0.22282 0.57644 0.0
C1368 C 0.36423 0.17101 0.54282 0.0
C1369 C 0.40656 0.19732 0.61844 0.0
O1370 O 0.3494 0.12849 0.71153 0.0
O1371 O 0.40593 0.17605 0.68758 0.0
C1372 C 0.39162 0.14663 0.70457 0.0
O1373 O 0.38196 0.24712 0.67709 0.0
O1374 O 0.26417 0.11029 0.73405 0.0
O1375 O 0.2741 0.17929 0.73637 0.0
O1376 O 0.36864 0.22383 0.71574 0.0
C1377 C 0.38883 0.25606 0.70061 0.0
O1378 O 0.29615 0.17713 0.64501 0.0
O1379 O 0.27438 0.19221 0.68174 0.0
O1380 O 0.25599 0.10323 0.6793 0.0
O1381 O 0.39577 0.22544 0.6292 0.0
O1382 O 0.39816 0.16244 0.6313 0.0
O1383 O 0.31049 0.1028 0.65565 0.0
C1384 C 0.27918 0.14731 0.77298 0.0
C1385 C 0.31966 0.18752 0.78164 0.0
C1386 C 0.27321 0.11687 0.81278 0.0
C1387 C 0.336 0.19285 0.80578 0.0
C1388 C 0.25647 0.11172 0.7886 0.0
C1389 C 0.31262 0.15785 0.82161 0.0
C1390 C 0.26168 0.14159 0.74751 0.0
C1391 C 0.27242 0.19065 0.65775 0.0
H1392 H 0.34048 0.11627 0.59543 0.0
H1393 H 0.41575 0.2424 0.53975 0.0
H1394 H 0.31595 0.10182 0.55237 0.0
H1395 H 0.44086 0.25682 0.58312 0.0
H1396 H 0.33849 0.21512 0.76986 0.0
H1397 H 0.25454 0.08964 0.82478 0.0
H1398 H 0.36661 0.22469 0.81222 0.0
H1399 H 0.22557 0.08018 0.78214 0.0
Eu1400 Eu 0.84699 0.14645 0.71369 0.0
Eu1401 Eu 0.80307 0.16121 0.66195 0.0
C1402 C 0.85127 0.24087 0.70224 0.0
C1403 C 0.86333 0.13194 0.78049 0.0
C1404 C 0.82169 0.13017 0.78519 0.0
C1405 C 0.88033 0.13517 0.82381 0.0
C1406 C 0.8098 0.13176 0.80911 0.0
C1407 C 0.89192 0.13315 0.79992 0.0
C1408 C 0.83982 0.13583 0.82864 0.0
C1409 C 0.87898 0.13664 0.75567 0.0
O1410 O 0.8796 0.19149 0.65795 0.0
O1411 O 0.89488 0.1502 0.68515 0.0
C1412 C 0.90589 0.17585 0.66634 0.0
O1413 O 0.79612 0.0764 0.69696 0.0
O1414 O 0.80671 0.20826 0.63488 0.0
O1415 O 0.75839 0.13528 0.62859 0.0
O1416 O 0.80438 0.09573 0.65753 0.0
C1417 C 0.79126 0.06491 0.67371 0.0
O1418 O 0.78152 0.14318 0.72379 0.0
O1419 O 0.74223 0.1287 0.68627 0.0
O1420 O 0.81383 0.21799 0.68809 0.0
O1421 O 0.85369 0.10257 0.73985 0.0
O1422 O 0.89161 0.17629 0.74682 0.0
O1423 O 0.87526 0.22204 0.70955 0.0
C1424 C 0.79842 0.17596 0.59534 0.0
C1425 C 0.83284 0.1641 0.59312 0.0
C1426 C 0.79935 0.18713 0.55214 0.0
C1427 C 0.84965 0.1628 0.57045 0.0
C1428 C 0.78256 0.18846 0.57482 0.0
C1429 C 0.83258 0.17373 0.54973 0.0
C1430 C 0.77923 0.17515 0.61902 0.0
C1431 C 0.74325 0.12908 0.71033 0.0
H1432 H 0.79954 0.12983 0.7704 0.0
H1433 H 0.90414 0.13851 0.83857 0.0
H1434 H 0.77882 0.133 0.81232 0.0
H1435 H 0.92421 0.13461 0.79665 0.0
H1436 H 0.84561 0.15443 0.6088 0.0
H1437 H 0.78487 0.19451 0.53626 0.0
H1438 H 0.87404 0.15085 0.56886 0.0
H1439 H 0.75625 0.19794 0.57619 0.0
loop_
_geom_bond_atom_site_label_1
_geom_bond_atom_site_label_2
_geom_bond_distance
_geom_bond_site_symmetry_2
_ccdc_geom_bond_type
C0 C1 1.391 . S
C0 C4 1.391 . S
C0 H42 0.948 . S
C1 C0 1.391 . S
C1 C2 1.391 . S
C2 C1 1.391 . S
C2 H58 0.947 . S
C2 C59 1.392 . S
C3 C4 1.391 . S
C3 C7 1.397 . S
C3 C59 1.419 . S
C4 C0 1.391 . S
C4 C3 1.391 . S
C4 C5 1.399 . S
C5 C4 1.399 . S
C5 C8 1.396 . S
C5 C17 1.453 . S
C5 C18 1.684 . S
H6 C30 0.948 1_565 S
C7 C3 1.397 . S
C7 C8 1.394 . S
C7 C26 1.723 . S
C8 C5 1.396 . S
C8 C7 1.394 . S
C8 C38 1.723 . S
H9 C32 0.947 . S
H10 C33 0.948 . S
H11 C39 0.982 . S
H12 C40 0.979 . S
H13 C40 0.980 . S
H14 C40 0.983 . S
H15 C39 0.979 . S
H16 C39 0.977 . S
C17 C5 1.453 . S
C17 H46 0.982 . S
C17 H47 0.979 . S
C17 H48 0.977 . S
C18 C5 1.684 . S
C18 H43 0.979 . S
C18 H44 0.980 . S
C18 H45 0.983 . S
C19 C20 1.391 . S
C19 C24 1.391 . S
C19 H49 0.948 . S
C20 C19 1.391 . S
C20 C21 1.391 . S
C21 C20 1.391 . S
C21 C22 1.392 . S
C21 H50 0.947 . S
C22 C21 1.392 . S
C22 C23 1.419 . S
C22 H51 0.948 . S
C23 C22 1.419 . S
C23 C24 1.391 . S
C23 C27 1.397 . S
C24 C19 1.391 . S
C24 C23 1.391 . S
C24 C25 1.399 . S
C25 C24 1.399 . S
C25 C26 1.396 . S
C25 C28 1.453 . S
C25 C29 1.684 . S
C26 C7 1.723 . S
C26 C25 1.396 . S
C26 C27 1.394 . S
C27 C23 1.397 . S
C27 C26 1.394 . S
C27 C37 1.723 . S
C28 C25 1.453 . S
C28 H52 0.982 . S
C28 H53 0.979 . S
C28 H54 0.977 . S
C29 C25 1.684 . S
C29 H55 0.979 . S
C29 H56 0.980 . S
C29 H57 0.983 . S
C30 H6 0.948 1_545 S
C30 C31 1.391 1_545 S
C30 C35 1.391 . S
C31 C30 1.391 1_565 S
C31 C32 1.391 1_565 S
C32 H9 0.947 . S
C32 C31 1.391 1_545 S
C32 C33 1.392 . S
C33 H10 0.948 . S
C33 C32 1.392 . S
C33 C34 1.419 . S
C34 C33 1.419 . S
C34 C35 1.391 . S
C34 C38 1.397 . S
C35 C30 1.391 . S
C35 C34 1.391 . S
C35 C36 1.399 . S
C36 C35 1.399 . S
C36 C37 1.396 . S
C36 C39 1.453 . S
C36 C40 1.684 . S
C37 C27 1.723 . S
C37 C36 1.396 . S
C37 C38 1.394 . S
C38 C8 1.723 . S
C38 C34 1.397 . S
C38 C37 1.394 . S
C39 H11 0.982 . S
C39 H15 0.979 . S
C39 H16 0.977 . S
C39 C36 1.453 . S
C40 H12 0.979 . S
C40 H13 0.980 . S
C40 H14 0.983 . S
C40 C36 1.684 . S
H41 C59 0.948 . S
H42 C0 0.948 . S
H43 C18 0.979 . S
H44 C18 0.980 . S
H45 C18 0.983 . S
H46 C17 0.982 . S
H47 C17 0.979 . S
H48 C17 0.977 . S
H49 C19 0.948 . S
H50 C21 0.947 . S
H51 C22 0.948 . S
H52 C28 0.982 . S
H53 C28 0.979 . S
H54 C28 0.977 . S
H55 C29 0.979 . S
H56 C29 0.980 . S
H57 C29 0.983 . S
H58 C2 0.947 . S
C59 C2 1.392 . S
C59 C3 1.419 . S
C59 H41 0.948 . S
C60 C61 1.391 1_655 S
C60 C64 1.391 . S
C60 H102 0.948 . S
C61 C60 1.391 1_455 S
C61 C62 1.391 . S
C62 C61 1.391 . S
C62 H118 0.947 . S
C62 C119 1.392 1_455 S
C63 C64 1.391 . S
C63 C67 1.397 . S
C63 C119 1.419 . S
C64 C60 1.391 . S
C64 C63 1.391 . S
C64 C65 1.399 . S
C65 C64 1.399 . S
C65 C68 1.396 . S
C65 C77 1.453 . S
C65 C78 1.684 . S
H66 C90 0.948 1_565 S
C67 C63 1.397 . S
C67 C68 1.394 . S
C67 C86 1.723 . S
C68 C65 1.396 . S
C68 C67 1.394 . S
C68 C98 1.723 . S
H69 C92 0.947 . S
H70 C93 0.948 . S
H71 C99 0.982 . S
H72 C100 0.979 . S
H73 C100 0.980 . S
H74 C100 0.983 . S
H75 C99 0.979 . S
H76 C99 0.977 . S
C77 C65 1.453 . S
C77 H106 0.982 . S
C77 H107 0.979 . S
C77 H108 0.977 . S
C78 C65 1.684 . S
C78 H103 0.979 . S
C78 H104 0.980 . S
C78 H105 0.983 . S
C79 C80 1.391 . S
C79 C84 1.391 . S
C79 H109 0.948 . S
C80 C79 1.391 . S
C80 C81 1.391 . S
C81 C80 1.391 . S
C81 C82 1.392 . S
C81 H110 0.947 . S
C82 C81 1.392 . S
C82 C83 1.419 . S
C82 H111 0.948 . S
C83 C82 1.419 . S
C83 C84 1.391 . S
C83 C87 1.397 . S
C84 C79 1.391 . S
C84 C83 1.391 . S
C84 C85 1.399 . S
C85 C84 1.399 . S
C85 C86 1.396 . S
C85 C88 1.453 . S
C85 C89 1.684 . S
C86 C67 1.723 . S
C86 C85 1.396 . S
C86 C87 1.394 . S
C87 C83 1.397 . S
C87 C86 1.394 . S
C87 C97 1.723 . S
C88 C85 1.453 . S
C88 H112 0.982 . S
C88 H113 0.979 . S
C88 H114 0.977 . S
C89 C85 1.684 . S
C89 H115 0.979 . S
C89 H116 0.980 . S
C89 H117 0.983 . S
C90 H66 0.948 1_545 S
C90 C91 1.391 1_545 S
C90 C95 1.391 . S
C91 C90 1.391 1_565 S
C91 C92 1.391 1_565 S
C92 H69 0.947 . S
C92 C91 1.391 1_545 S
C92 C93 1.392 . S
C93 H70 0.948 . S
C93 C92 1.392 . S
C93 C94 1.419 . S
C94 C93 1.419 . S
C94 C95 1.391 . S
C94 C98 1.397 . S
C95 C90 1.391 . S
C95 C94 1.391 . S
C95 C96 1.399 . S
C96 C95 1.399 . S
C96 C97 1.396 . S
C96 C99 1.453 . S
C96 C100 1.684 . S
C97 C87 1.723 . S
C97 C96 1.396 . S
C97 C98 1.394 . S
C98 C68 1.723 . S
C98 C94 1.397 . S
C98 C97 1.394 . S
C99 H71 0.982 . S
C99 H75 0.979 . S
C99 H76 0.977 . S
C99 C96 1.453 . S
C100 H72 0.979 . S
C100 H73 0.980 . S
C100 H74 0.983 . S
C100 C96 1.684 . S
H101 C119 0.948 . S
H102 C60 0.948 . S
H103 C78 0.979 . S
H104 C78 0.980 . S
H105 C78 0.983 . S
H106 C77 0.982 . S
H107 C77 0.979 . S
H108 C77 0.977 . S
H109 C79 0.948 . S
H110 C81 0.947 . S
H111 C82 0.948 . S
H112 C88 0.982 . S
H113 C88 0.979 . S
H114 C88 0.977 . S
H115 C89 0.979 . S
H116 C89 0.980 . S
H117 C89 0.983 . S
H118 C62 0.947 . S
C119 C62 1.392 1_655 S
C119 C63 1.419 . S
C119 H101 0.948 . S
C120 C121 1.391 . S
C120 C124 1.391 1_455 S
C120 H162 0.948 . S
C121 C120 1.391 . S
C121 C122 1.391 . S
C122 C121 1.391 . S
C122 H178 0.947 . S
C122 C179 1.392 . S
C123 C124 1.391 . S
C123 C127 1.397 . S
C123 C179 1.419 1_655 S
C124 C120 1.391 1_655 S
C124 C123 1.391 . S
C124 C125 1.399 . S
C125 C124 1.399 . S
C125 C128 1.396 . S
C125 C137 1.453 . S
C125 C138 1.684 . S
H126 C150 0.948 . S
C127 C123 1.397 . S
C127 C128 1.394 . S
C127 C146 1.723 . S
C128 C125 1.396 . S
C128 C127 1.394 . S
C128 C158 1.723 . S
H129 C152 0.947 . S
H130 C153 0.948 . S
H131 C159 0.982 . S
H132 C160 0.979 . S
H133 C160 0.980 . S
H134 C160 0.983 . S
H135 C159 0.979 . S
H136 C159 0.977 . S
C137 C125 1.453 . S
C137 H166 0.982 . S
C137 H167 0.979 . S
C137 H168 0.977 . S
C138 C125 1.684 . S
C138 H163 0.979 . S
C138 H164 0.980 . S
C138 H165 0.983 . S
C139 C140 1.391 . S
C139 C144 1.391 . S
C139 H169 0.948 . S
C140 C139 1.391 . S
C140 C141 1.391 . S
C141 C140 1.391 . S
C141 C142 1.392 . S
C141 H170 0.947 . S
C142 C141 1.392 . S
C142 C143 1.419 . S
C142 H171 0.948 . S
C143 C142 1.419 . S
C143 C144 1.391 . S
C143 C147 1.397 . S
C144 C139 1.391 . S
C144 C143 1.391 . S
C144 C145 1.399 . S
C145 C144 1.399 . S
C145 C146 1.396 . S
C145 C148 1.453 . S
C145 C149 1.684 . S
C146 C127 1.723 . S
C146 C145 1.396 . S
C146 C147 1.394 . S
C147 C143 1.397 . S
C147 C146 1.394 . S
C147 C157 1.723 . S
C148 C145 1.453 . S
C148 H172 0.982 . S
C148 H173 0.979 . S
C148 H174 0.977 . S
C149 C145 1.684 . S
C149 H175 0.979 . S
C149 H176 0.980 1_655 S
C149 H177 0.983 . S
C150 H126 0.948 . S
C150 C151 1.391 . S
C150 C155 1.391 . S
C151 C150 1.391 . S
C151 C152 1.391 . S
C152 H129 0.947 . S
C152 C151 1.391 . S
C152 C153 1.392 . S
C153 H130 0.948 . S
C153 C152 1.392 . S
C153 C154 1.419 . S
C154 C153 1.419 . S
C154 C155 1.391 . S
C154 C158 1.397 . S
C155 C150 1.391 . S
C155 C154 1.391 . S
C155 C156 1.399 . S
C156 C155 1.399 . S
C156 C157 1.396 . S
C156 C159 1.453 . S
C156 C160 1.684 . S
C157 C147 1.723 . S
C157 C156 1.396 . S
C157 C158 1.394 . S
C158 C128 1.723 . S
C158 C154 1.397 . S
C158 C157 1.394 . S
C159 H131 0.982 . S
C159 H135 0.979 . S
C159 H136 0.977 . S
C159 C156 1.453 . S
C160 H132 0.979 . S
C160 H133 0.980 . S
C160 H134 0.983 . S
C160 C156 1.684 . S
H161 C179 0.948 . S
H162 C120 0.948 . S
H163 C138 0.979 . S
H164 C138 0.980 . S
H165 C138 0.983 . S
H166 C137 0.982 . S
H167 C137 0.979 . S
H168 C137 0.977 . S
H169 C139 0.948 . S
H170 C141 0.947 . S
H171 C142 0.948 . S
H172 C148 0.982 . S
H173 C148 0.979 . S
H174 C148 0.977 . S
H175 C149 0.979 . S
H176 C149 0.980 1_455 S
H177 C149 0.983 . S
H178 C122 0.947 . S
C179 C122 1.392 . S
C179 C123 1.419 1_455 S
C179 H161 0.948 . S
C180 C181 1.391 . S
C180 C184 1.391 . S
C180 H222 0.948 . S
C181 C180 1.391 . S
C181 C182 1.391 . S
C182 C181 1.391 . S
C182 H238 0.947 . S
C182 C239 1.392 . S
C183 C184 1.391 . S
C183 C187 1.397 . S
C183 C239 1.419 . S
C184 C180 1.391 . S
C184 C183 1.391 . S
C184 C185 1.399 . S
C185 C184 1.399 . S
C185 C188 1.396 . S
C185 C197 1.453 . S
C185 C198 1.684 . S
H186 C210 0.948 . S
C187 C183 1.397 . S
C187 C188 1.394 . S
C187 C206 1.723 . S
C188 C185 1.396 . S
C188 C187 1.394 . S
C188 C218 1.723 . S
H189 C212 0.947 . S
H190 C213 0.948 . S
H191 C219 0.982 . S
H192 C220 0.979 . S
H193 C220 0.980 1_455 S
H194 C220 0.983 . S
H195 C219 0.979 . S
H196 C219 0.977 . S
C197 C185 1.453 . S
C197 H226 0.982 . S
C197 H227 0.979 . S
C197 H228 0.977 . S
C198 C185 1.684 . S
C198 H223 0.979 . S
C198 H224 0.980 . S
C198 H225 0.983 . S
C199 C200 1.391 . S
C199 C204 1.391 . S
C199 H229 0.948 . S
C200 C199 1.391 . S
C200 C201 1.391 . S
C201 C200 1.391 . S
C201 C202 1.392 . S
C201 H230 0.947 . S
C202 C201 1.392 . S
C202 C203 1.419 . S
C202 H231 0.948 . S
C203 C202 1.419 . S
C203 C204 1.391 . S
C203 C207 1.397 . S
C204 C199 1.391 . S
C204 C203 1.391 . S
C204 C205 1.399 . S
C205 C204 1.399 . S
C205 C206 1.396 . S
C205 C208 1.453 . S
C205 C209 1.684 . S
C206 C187 1.723 . S
C206 C205 1.396 . S
C206 C207 1.394 . S
C207 C203 1.397 . S
C207 C206 1.394 . S
C207 C217 1.723 . S
C208 C205 1.453 . S
C208 H232 0.982 . S
C208 H233 0.979 . S
C208 H234 0.977 . S
C209 C205 1.684 . S
C209 H235 0.979 . S
C209 H236 0.980 . S
C209 H237 0.983 . S
C210 H186 0.948 . S
C210 C211 1.391 . S
C210 C215 1.391 1_655 S
C211 C210 1.391 . S
C211 C212 1.391 . S
C212 H189 0.947 . S
C212 C211 1.391 . S
C212 C213 1.392 1_655 S
C213 H190 0.948 . S
C213 C212 1.392 1_455 S
C213 C214 1.419 . S
C214 C213 1.419 . S
C214 C215 1.391 . S
C214 C218 1.397 . S
C215 C210 1.391 1_455 S
C215 C214 1.391 . S
C215 C216 1.399 . S
C216 C215 1.399 . S
C216 C217 1.396 . S
C216 C219 1.453 . S
C216 C220 1.684 1_455 S
C217 C207 1.723 . S
C217 C216 1.396 . S
C217 C218 1.394 . S
C218 C188 1.723 . S
C218 C214 1.397 . S
C218 C217 1.394 . S
C219 H191 0.982 . S
C219 H195 0.979 . S
C219 H196 0.977 . S
C219 C216 1.453 . S
C220 H192 0.979 . S
C220 H193 0.980 1_655 S
C220 H194 0.983 . S
C220 C216 1.684 1_655 S
H221 C239 0.948 . S
H222 C180 0.948 . S
H223 C198 0.979 . S
H224 C198 0.980 . S
H225 C198 0.983 . S
H226 C197 0.982 . S
H227 C197 0.979 . S
H228 C197 0.977 . S
H229 C199 0.948 . S
H230 C201 0.947 . S
H231 C202 0.948 . S
H232 C208 0.982 . S
H233 C208 0.979 . S
H234 C208 0.977 . S
H235 C209 0.979 . S
H236 C209 0.980 . S
H237 C209 0.983 . S
H238 C182 0.947 . S
C239 C182 1.392 . S
C239 C183 1.419 . S
C239 H221 0.948 . S
C240 C241 1.391 . S
C240 C244 1.391 . S
C240 H282 0.948 . S
C241 C240 1.391 . S
C241 C242 1.391 . S
C242 C241 1.391 . S
C242 H298 0.947 . S
C242 C299 1.392 . S
C243 C244 1.391 . S
C243 C247 1.397 . S
C243 C299 1.419 . S
C244 C240 1.391 . S
C244 C243 1.391 . S
C244 C245 1.399 . S
C245 C244 1.399 . S
C245 C248 1.396 . S
C245 C257 1.453 . S
C245 C258 1.684 . S
H246 C270 0.948 1_545 S
C247 C243 1.397 . S
C247 C248 1.394 . S
C247 C266 1.723 . S
C248 C245 1.396 . S
C248 C247 1.394 . S
C248 C278 1.723 . S
H249 C272 0.947 . S
H250 C273 0.948 . S
H251 C279 0.982 . S
H252 C280 0.979 . S
H253 C280 0.980 . S
H254 C280 0.983 . S
H255 C279 0.979 . S
H256 C279 0.977 . S
C257 C245 1.453 . S
C257 H286 0.982 . S
C257 H287 0.979 . S
C257 H288 0.977 . S
C258 C245 1.684 . S
C258 H283 0.979 . S
C258 H284 0.980 . S
C258 H285 0.983 . S
C259 C260 1.391 . S
C259 C264 1.391 . S
C259 H289 0.948 . S
C260 C259 1.391 . S
C260 C261 1.391 . S
C261 C260 1.391 . S
C261 C262 1.392 . S
C261 H290 0.947 . S
C262 C261 1.392 . S
C262 C263 1.419 . S
C262 H291 0.948 . S
C263 C262 1.419 . S
C263 C264 1.391 . S
C263 C267 1.397 . S
C264 C259 1.391 . S
C264 C263 1.391 . S
C264 C265 1.399 . S
C265 C264 1.399 . S
C265 C266 1.396 . S
C265 C268 1.453 . S
C265 C269 1.684 . S
C266 C247 1.723 . S
C266 C265 1.396 . S
C266 C267 1.394 . S
C267 C263 1.397 . S
C267 C266 1.394 . S
C267 C277 1.723 . S
C268 C265 1.453 . S
C268 H292 0.982 . S
C268 H293 0.979 . S
C268 H294 0.977 . S
C269 C265 1.684 . S
C269 H295 0.979 . S
C269 H296 0.980 . S
C269 H297 0.983 . S
C270 H246 0.948 1_565 S
C270 C271 1.391 . S
C270 C275 1.391 . S
C271 C270 1.391 . S
C271 C272 1.391 . S
C272 H249 0.947 . S
C272 C271 1.391 . S
C272 C273 1.392 . S
C273 H250 0.948 . S
C273 C272 1.392 . S
C273 C274 1.419 . S
C274 C273 1.419 . S
C274 C275 1.391 . S
C274 C278 1.397 . S
C275 C270 1.391 . S
C275 C274 1.391 . S
C275 C276 1.399 . S
C276 C275 1.399 . S
C276 C277 1.396 . S
C276 C279 1.453 . S
C276 C280 1.684 . S
C277 C267 1.723 . S
C277 C276 1.396 . S
C277 C278 1.394 . S
C278 C248 1.723 . S
C278 C274 1.397 . S
C278 C277 1.394 . S
C279 H251 0.982 . S
C279 H255 0.979 . S
C279 H256 0.977 . S
C279 C276 1.453 . S
C280 H252 0.979 . S
C280 H253 0.980 . S
C280 H254 0.983 . S
C280 C276 1.684 . S
H281 C299 0.948 . S
H282 C240 0.948 . S
H283 C258 0.979 . S
H284 C258 0.980 . S
H285 C258 0.983 . S
H286 C257 0.982 . S
H287 C257 0.979 . S
H288 C257 0.977 . S
H289 C259 0.948 . S
H290 C261 0.947 . S
H291 C262 0.948 . S
H292 C268 0.982 . S
H293 C268 0.979 . S
H294 C268 0.977 . S
H295 C269 0.979 . S
H296 C269 0.980 . S
H297 C269 0.983 . S
H298 C242 0.947 . S
C299 C242 1.392 . S
C299 C243 1.419 . S
C299 H281 0.948 . S
C300 C301 1.391 1_455 S
C300 C304 1.391 . S
C300 H342 0.948 . S
C301 C300 1.391 1_655 S
C301 C302 1.391 . S
C302 C301 1.391 . S
C302 H358 0.947 . S
C302 C359 1.392 1_655 S
C303 C304 1.391 . S
C303 C307 1.397 . S
C303 C359 1.419 . S
C304 C300 1.391 . S
C304 C303 1.391 . S
C304 C305 1.399 . S
C305 C304 1.399 . S
C305 C308 1.396 . S
C305 C317 1.453 . S
C305 C318 1.684 . S
H306 C330 0.952 . S
C307 C303 1.397 . S
C307 C308 1.394 . S
C307 C326 1.723 . S
C308 C305 1.396 . S
C308 C307 1.394 . S
C308 C338 1.723 . S
H309 C332 0.947 . S
H310 C333 0.948 . S
H311 C339 0.982 . S
H312 C340 0.979 . S
H313 C340 0.980 . S
H314 C340 0.976 1_545 S
H315 C339 0.979 . S
H316 C339 0.977 . S
C317 C305 1.453 . S
C317 H346 0.982 . S
C317 H347 0.979 . S
C317 H348 0.977 . S
C318 C305 1.684 . S
C318 H343 0.979 . S
C318 H344 0.980 . S
C318 H345 0.983 . S
C319 C320 1.391 . S
C319 C324 1.391 . S
C319 H349 0.948 . S
C320 C319 1.391 . S
C320 C321 1.391 . S
C321 C320 1.391 . S
C321 C322 1.392 . S
C321 H350 0.947 . S
C322 C321 1.392 . S
C322 C323 1.419 . S
C322 H351 0.948 . S
C323 C322 1.419 . S
C323 C324 1.391 . S
C323 C327 1.397 . S
C324 C319 1.391 . S
C324 C323 1.391 . S
C324 C325 1.399 . S
C325 C324 1.399 . S
C325 C326 1.396 . S
C325 C328 1.453 . S
C325 C329 1.684 . S
C326 C307 1.723 . S
C326 C325 1.396 . S
C326 C327 1.394 . S
C327 C323 1.397 . S
C327 C326 1.394 . S
C327 C337 1.723 . S
C328 C325 1.453 . S
C328 H352 0.982 . S
C328 H353 0.979 . S
C328 H354 0.977 . S
C329 C325 1.684 . S
C329 H355 0.979 . S
C329 H356 0.980 . S
C329 H357 0.983 . S
C330 H306 0.952 . S
C330 C331 1.393 . S
C330 C335 1.385 1_545 S
C331 C330 1.393 . S
C331 C332 1.391 1_545 S
C332 H309 0.947 . S
C332 C331 1.391 1_565 S
C332 C333 1.392 . S
C333 H310 0.948 . S
C333 C332 1.392 . S
C333 C334 1.419 . S
C334 C333 1.419 . S
C334 C335 1.391 . S
C334 C338 1.397 . S
C335 C330 1.385 1_565 S
C335 C334 1.391 . S
C335 C336 1.399 . S
C336 C335 1.399 . S
C336 C337 1.396 . S
C336 C339 1.453 . S
C336 C340 1.684 . S
C337 C327 1.723 . S
C337 C336 1.396 . S
C337 C338 1.394 . S
C338 C308 1.723 . S
C338 C334 1.397 . S
C338 C337 1.394 . S
C339 H311 0.982 . S
C339 H315 0.979 . S
C339 H316 0.977 . S
C339 C336 1.453 . S
C340 H312 0.979 . S
C340 H313 0.980 . S
C340 H314 0.976 1_565 S
C340 C336 1.684 . S
H341 C359 0.948 . S
H342 C300 0.948 . S
H343 C318 0.979 . S
H344 C318 0.980 . S
H345 C318 0.983 . S
H346 C317 0.982 . S
H347 C317 0.979 . S
H348 C317 0.977 . S
H349 C319 0.948 . S
H350 C321 0.947 . S
H351 C322 0.948 . S
H352 C328 0.982 . S
H353 C328 0.979 . S
H354 C328 0.977 . S
H355 C329 0.979 . S
H356 C329 0.980 . S
H357 C329 0.983 . S
H358 C302 0.947 . S
C359 C302 1.392 1_455 S
C359 C303 1.419 . S
C359 H341 0.948 . S
C360 C361 1.391 . S
C360 C364 1.391 . S
C360 H402 0.948 . S
C361 C360 1.391 . S
C361 C362 1.391 . S
C362 C361 1.391 . S
C362 H418 0.947 . S
C362 C419 1.392 . S
C363 C364 1.391 . S
C363 C367 1.397 . S
C363 C419 1.419 . S
C364 C360 1.391 . S
C364 C363 1.391 . S
C364 C365 1.399 . S
C365 C364 1.399 . S
C365 C368 1.396 . S
C365 C377 1.453 . S
C365 C378 1.684 . S
H366 C390 0.948 . S
C367 C363 1.397 . S
C367 C368 1.394 . S
C367 C386 1.723 . S
C368 C365 1.396 . S
C368 C367 1.394 . S
C368 C398 1.723 . S
H369 C392 0.947 . S
H370 C393 0.948 . S
H371 C399 0.982 . S
H372 C400 0.979 . S
H373 C400 0.980 . S
H374 C400 0.983 . S
H375 C399 0.979 1_655 S
H376 C399 0.977 . S
C377 C365 1.453 . S
C377 H406 0.982 . S
C377 H407 0.979 . S
C377 H408 0.977 . S
C378 C365 1.684 . S
C378 H403 0.979 . S
C378 H404 0.980 . S
C378 H405 0.983 . S
C379 C380 1.391 1_655 S
C379 C384 1.391 . S
C379 H409 0.948 1_655 S
C380 C379 1.391 1_455 S
C380 C381 1.391 1_455 S
C381 C380 1.391 1_655 S
C381 C382 1.392 . S
C381 H410 0.947 1_655 S
C382 C381 1.392 . S
C382 C383 1.419 . S
C382 H411 0.948 . S
C383 C382 1.419 . S
C383 C384 1.391 . S
C383 C387 1.397 . S
C384 C379 1.391 . S
C384 C383 1.391 . S
C384 C385 1.399 . S
C385 C384 1.399 . S
C385 C386 1.396 . S
C385 C388 1.453 1_655 S
C385 C389 1.684 . S
C386 C367 1.723 . S
C386 C385 1.396 . S
C386 C387 1.394 . S
C387 C383 1.397 . S
C387 C386 1.394 . S
C387 C397 1.723 . S
C388 C385 1.453 1_455 S
C388 H412 0.982 . S
C388 H413 0.979 . S
C388 H414 0.977 . S
C389 C385 1.684 . S
C389 H415 0.979 . S
C389 H416 0.980 . S
C389 H417 0.983 . S
C390 H366 0.948 . S
C390 C391 1.391 . S
C390 C395 1.391 . S
C391 C390 1.391 . S
C391 C392 1.391 . S
C392 H369 0.947 . S
C392 C391 1.391 . S
C392 C393 1.392 . S
C393 H370 0.948 . S
C393 C392 1.392 . S
C393 C394 1.419 . S
C394 C393 1.419 . S
C394 C395 1.391 . S
C394 C398 1.397 . S
C395 C390 1.391 . S
C395 C394 1.391 . S
C395 C396 1.399 . S
C396 C395 1.399 . S
C396 C397 1.396 . S
C396 C399 1.453 1_655 S
C396 C400 1.684 . S
C397 C387 1.723 . S
C397 C396 1.396 . S
C397 C398 1.394 . S
C398 C368 1.723 . S
C398 C394 1.397 . S
C398 C397 1.394 . S
C399 H371 0.982 . S
C399 H375 0.979 1_455 S
C399 H376 0.977 . S
C399 C396 1.453 1_455 S
C400 H372 0.979 . S
C400 H373 0.980 . S
C400 H374 0.983 . S
C400 C396 1.684 . S
H401 C419 0.948 . S
H402 C360 0.948 . S
H403 C378 0.979 . S
H404 C378 0.980 . S
H405 C378 0.983 . S
H406 C377 0.982 . S
H407 C377 0.979 . S
H408 C377 0.977 . S
H409 C379 0.948 1_455 S
H410 C381 0.947 1_455 S
H411 C382 0.948 . S
H412 C388 0.982 . S
H413 C388 0.979 . S
H414 C388 0.977 . S
H415 C389 0.979 . S
H416 C389 0.980 . S
H417 C389 0.983 . S
H418 C362 0.947 . S
C419 C362 1.392 . S
C419 C363 1.419 . S
C419 H401 0.948 . S
C420 C421 1.391 . S
C420 C424 1.391 . S
C420 H462 0.948 . S
C421 C420 1.391 . S
C421 C422 1.391 . S
C422 C421 1.391 . S
C422 H478 0.947 . S
C422 C479 1.392 . S
C423 C424 1.391 . S
C423 C427 1.397 . S
C423 C479 1.419 . S
C424 C420 1.391 . S
C424 C423 1.391 . S
C424 C425 1.399 . S
C425 C424 1.399 . S
C425 C428 1.396 . S
C425 C437 1.453 . S
C425 C438 1.684 . S
H426 C450 0.948 . S
C427 C423 1.397 . S
C427 C428 1.394 . S
C427 C446 1.723 . S
C428 C425 1.396 . S
C428 C427 1.394 . S
C428 C458 1.723 . S
H429 C452 0.947 . S
H430 C453 0.948 . S
H431 C459 0.982 . S
H432 C460 0.979 . S
H433 C460 0.980 . S
H434 C460 0.983 . S
H435 C459 0.979 . S
H436 C459 0.977 . S
C437 C425 1.453 . S
C437 H466 0.982 . S
C437 H467 0.979 . S
C437 H468 0.977 . S
C438 C425 1.684 . S
C438 H463 0.979 . S
C438 H464 0.980 . S
C438 H465 0.983 . S
C439 C440 1.391 . S
C439 C444 1.391 . S
C439 H469 0.948 . S
C440 C439 1.391 . S
C440 C441 1.391 . S
C441 C440 1.391 . S
C441 C442 1.392 . S
C441 H470 0.947 . S
C442 C441 1.392 . S
C442 C443 1.419 . S
C442 H471 0.948 . S
C443 C442 1.419 . S
C443 C444 1.391 . S
C443 C447 1.397 . S
C444 C439 1.391 . S
C444 C443 1.391 . S
C444 C445 1.399 . S
C445 C444 1.399 . S
C445 C446 1.396 . S
C445 C448 1.453 . S
C445 C449 1.684 . S
C446 C427 1.723 . S
C446 C445 1.396 . S
C446 C447 1.394 . S
C447 C443 1.397 . S
C447 C446 1.394 . S
C447 C457 1.723 . S
C448 C445 1.453 . S
C448 H472 0.982 . S
C448 H473 0.979 . S
C448 H474 0.977 . S
C449 C445 1.684 . S
C449 H475 0.979 . S
C449 H476 0.980 . S
C449 H477 0.983 . S
C450 H426 0.948 . S
C450 C451 1.391 . S
C450 C455 1.391 . S
C451 C450 1.391 . S
C451 C452 1.391 . S
C452 H429 0.947 . S
C452 C451 1.391 . S
C452 C453 1.392 . S
C453 H430 0.948 . S
C453 C452 1.392 . S
C453 C454 1.419 . S
C454 C453 1.419 . S
C454 C455 1.391 . S
C454 C458 1.397 . S
C455 C450 1.391 . S
C455 C454 1.391 . S
C455 C456 1.399 . S
C456 C455 1.399 . S
C456 C457 1.396 . S
C456 C459 1.453 . S
C456 C460 1.684 . S
C457 C447 1.723 . S
C457 C456 1.396 . S
C457 C458 1.394 . S
C458 C428 1.723 . S
C458 C454 1.397 . S
C458 C457 1.394 . S
C459 H431 0.982 . S
C459 H435 0.979 . S
C459 H436 0.977 . S
C459 C456 1.453 . S
C460 H432 0.979 . S
C460 H433 0.980 . S
C460 H434 0.983 . S
C460 C456 1.684 . S
H461 C479 0.948 . S
H462 C420 0.948 . S
H463 C438 0.979 . S
H464 C438 0.980 . S
H465 C438 0.983 . S
H466 C437 0.982 . S
H467 C437 0.979 . S
H468 C437 0.977 . S
H469 C439 0.948 . S
H470 C441 0.947 . S
H471 C442 0.948 . S
H472 C448 0.982 . S
H473 C448 0.979 . S
H474 C448 0.977 . S
H475 C449 0.979 . S
H476 C449 0.980 . S
H477 C449 0.983 . S
H478 C422 0.947 . S
C479 C422 1.392 . S
C479 C423 1.419 . S
C479 H461 0.948 . S
C480 C481 1.391 . S
C480 C484 1.391 . S
C480 H522 0.948 . S
C481 C480 1.391 . S
C481 C482 1.391 . S
C482 C481 1.391 . S
C482 H538 0.947 . S
C482 C539 1.392 . S
C483 C484 1.391 . S
C483 C487 1.397 . S
C483 C539 1.419 . S
C484 C480 1.391 . S
C484 C483 1.391 . S
C484 C485 1.399 . S
C485 C484 1.399 . S
C485 C488 1.396 . S
C485 C497 1.453 . S
C485 C498 1.684 . S
H486 C510 0.948 . S
C487 C483 1.397 . S
C487 C488 1.394 . S
C487 C506 1.723 . S
C488 C485 1.396 . S
C488 C487 1.394 . S
C488 C518 1.723 . S
H489 C512 0.947 . S
H490 C513 0.948 . S
H491 C519 0.982 . S
H492 C520 0.979 . S
H493 C520 0.980 . S
H494 C520 0.983 . S
H495 C519 0.979 . S
H496 C519 0.977 . S
C497 C485 1.453 . S
C497 H526 0.982 . S
C497 H527 0.979 . S
C497 H528 0.977 . S
C498 C485 1.684 . S
C498 H523 0.979 . S
C498 H524 0.980 . S
C498 H525 0.983 . S
C499 C500 1.391 . S
C499 C504 1.391 . S
C499 H529 0.948 . S
C500 C499 1.391 . S
C500 C501 1.391 . S
C501 C500 1.391 . S
C501 C502 1.392 . S
C501 H530 0.947 . S
C502 C501 1.392 . S
C502 C503 1.419 . S
C502 H531 0.948 . S
C503 C502 1.419 . S
C503 C504 1.391 . S
C503 C507 1.397 . S
C504 C499 1.391 . S
C504 C503 1.391 . S
C504 C505 1.399 . S
C505 C504 1.399 . S
C505 C506 1.396 . S
C505 C508 1.453 . S
C505 C509 1.684 . S
C506 C487 1.723 . S
C506 C505 1.396 . S
C506 C507 1.394 . S
C507 C503 1.397 . S
C507 C506 1.394 . S
C507 C517 1.723 . S
C508 C505 1.453 . S
C508 H532 0.982 1_545 S
C508 H533 0.979 . S
C508 H534 0.977 . S
C509 C505 1.684 . S
C509 H535 0.979 . S
C509 H536 0.980 . S
C509 H537 0.983 . S
C510 H486 0.948 . S
C510 C511 1.391 . S
C510 C515 1.391 . S
C511 C510 1.391 . S
C511 C512 1.391 . S
C512 H489 0.947 . S
C512 C511 1.391 . S
C512 C513 1.392 . S
C513 H490 0.948 . S
C513 C512 1.392 . S
C513 C514 1.419 . S
C514 C513 1.419 . S
C514 C515 1.391 . S
C514 C518 1.397 . S
C515 C510 1.391 . S
C515 C514 1.391 . S
C515 C516 1.399 . S
C516 C515 1.399 . S
C516 C517 1.396 . S
C516 C519 1.453 . S
C516 C520 1.684 . S
C517 C507 1.723 . S
C517 C516 1.396 . S
C517 C518 1.394 . S
C518 C488 1.723 . S
C518 C514 1.397 . S
C518 C517 1.394 . S
C519 H491 0.982 . S
C519 H495 0.979 . S
C519 H496 0.977 . S
C519 C516 1.453 . S
C520 H492 0.979 . S
C520 H493 0.980 . S
C520 H494 0.983 . S
C520 C516 1.684 . S
H521 C539 0.948 . S
H522 C480 0.948 . S
H523 C498 0.979 . S
H524 C498 0.980 . S
H525 C498 0.983 . S
H526 C497 0.982 . S
H527 C497 0.979 . S
H528 C497 0.977 . S
H529 C499 0.948 . S
H530 C501 0.947 . S
H531 C502 0.948 . S
H532 C508 0.982 1_565 S
H533 C508 0.979 . S
H534 C508 0.977 . S
H535 C509 0.979 . S
H536 C509 0.980 . S
H537 C509 0.983 . S
H538 C482 0.947 . S
C539 C482 1.392 . S
C539 C483 1.419 . S
C539 H521 0.948 . S
C540 C541 1.391 . S
C540 C544 1.391 . S
C540 H582 0.948 . S
C541 C540 1.391 . S
C541 C542 1.391 . S
C542 C541 1.391 . S
C542 H598 0.947 . S
C542 C599 1.392 . S
C543 C544 1.391 . S
C543 C547 1.397 . S
C543 C599 1.419 . S
C544 C540 1.391 . S
C544 C543 1.391 . S
C544 C545 1.399 . S
C545 C544 1.399 . S
C545 C548 1.396 . S
C545 C557 1.453 . S
C545 C558 1.684 . S
H546 C570 0.948 . S
C547 C543 1.397 . S
C547 C548 1.394 . S
C547 C566 1.723 . S
C548 C545 1.396 . S
C548 C547 1.394 . S
C548 C578 1.723 . S
H549 C572 0.947 1_554 S
H550 C573 0.948 . S
H551 C579 0.982 . S
H552 C580 0.979 . S
H553 C580 0.980 . S
H554 C580 0.983 . S
H555 C579 0.979 . S
H556 C579 0.977 . S
C557 C545 1.453 . S
C557 H586 0.982 . S
C557 H587 0.979 1_556 S
C557 H588 0.977 . S
C558 C545 1.684 . S
C558 H583 0.979 . S
C558 H584 0.980 . S
C558 H585 0.983 1_556 S
C559 C560 1.391 . S
C559 C564 1.391 . S
C559 H589 0.948 . S
C560 C559 1.391 . S
C560 C561 1.391 . S
C561 C560 1.391 . S
C561 C562 1.392 . S
C561 H590 0.947 . S
C562 C561 1.392 . S
C562 C563 1.419 . S
C562 H591 0.948 . S
C563 C562 1.419 . S
C563 C564 1.391 . S
C563 C567 1.397 . S
C564 C559 1.391 . S
C564 C563 1.391 . S
C564 C565 1.399 . S
C565 C564 1.399 . S
C565 C566 1.396 . S
C565 C568 1.453 . S
C565 C569 1.684 . S
C566 C547 1.723 . S
C566 C565 1.396 . S
C566 C567 1.394 . S
C567 C563 1.397 . S
C567 C566 1.394 . S
C567 C577 1.723 . S
C568 C565 1.453 . S
C568 H592 0.982 . S
C568 H593 0.979 . S
C568 H594 0.977 . S
C569 C565 1.684 . S
C569 H595 0.979 . S
C569 H596 0.980 . S
C569 H597 0.983 . S
C570 H546 0.948 . S
C570 C571 1.391 . S
C570 C575 1.391 . S
C571 C570 1.391 . S
C571 C572 1.391 . S
C572 H549 0.947 1_556 S
C572 C571 1.391 . S
C572 C573 1.392 . S
C573 H550 0.948 . S
C573 C572 1.392 . S
C573 C574 1.419 . S
C574 C573 1.419 . S
C574 C575 1.391 . S
C574 C578 1.397 . S
C575 C570 1.391 . S
C575 C574 1.391 . S
C575 C576 1.399 . S
C576 C575 1.399 . S
C576 C577 1.396 . S
C576 C579 1.453 . S
C576 C580 1.684 . S
C577 C567 1.723 . S
C577 C576 1.396 . S
C577 C578 1.394 . S
C578 C548 1.723 . S
C578 C574 1.397 . S
C578 C577 1.394 . S
C579 H551 0.982 . S
C579 H555 0.979 . S
C579 H556 0.977 . S
C579 C576 1.453 . S
C580 H552 0.979 . S
C580 H553 0.980 . S
C580 H554 0.983 . S
C580 C576 1.684 . S
H581 C599 0.948 . S
H582 C540 0.948 . S
H583 C558 0.979 . S
H584 C558 0.980 . S
H585 C558 0.983 1_554 S
H586 C557 0.982 . S
H587 C557 0.979 1_554 S
H588 C557 0.977 . S
H589 C559 0.948 . S
H590 C561 0.947 . S
H591 C562 0.948 . S
H592 C568 0.982 . S
H593 C568 0.979 . S
H594 C568 0.977 . S
H595 C569 0.979 . S
H596 C569 0.980 . S
H597 C569 0.983 . S
H598 C542 0.947 . S
C599 C542 1.392 . S
C599 C543 1.419 . S
C599 H581 0.948 . S
C600 C601 1.402 . S
C600 C604 1.406 . S
C600 H642 0.923 1_556 S
C601 C600 1.402 . S
C601 C602 1.391 . S
C602 C601 1.391 . S
C602 H658 0.947 1_545 S
C602 C659 1.392 . S
C603 C604 1.391 . S
C603 C607 1.397 . S
C603 C659 1.419 . S
C604 C600 1.406 . S
C604 C603 1.391 . S
C604 C605 1.399 . S
C605 C604 1.399 . S
C605 C608 1.396 . S
C605 C617 1.453 1_556 S
C605 C618 1.684 1_556 S
H606 C630 0.948 . S
C607 C603 1.397 . S
C607 C608 1.394 . S
C607 C626 1.723 . S
C608 C605 1.396 . S
C608 C607 1.394 . S
C608 C638 1.723 . S
H609 C632 0.947 . S
H610 C633 0.948 . S
H611 C639 0.982 . S
H612 C640 0.979 . S
H613 C640 0.980 . S
H614 C640 0.983 . S
H615 C639 0.979 . S
H616 C639 0.977 . S
C617 C605 1.453 1_554 S
C617 H646 0.982 1_554 S
C617 H647 0.979 . S
C617 H648 0.977 . S
C618 C605 1.684 1_554 S
C618 H643 0.979 . S
C618 H644 0.980 . S
C618 H645 0.983 . S
C619 C620 1.391 . S
C619 C624 1.391 . S
C619 H649 0.948 . S
C620 C619 1.391 . S
C620 C621 1.391 . S
C621 C620 1.391 . S
C621 C622 1.392 . S
C621 H650 0.947 . S
C622 C621 1.392 . S
C622 C623 1.419 . S
C622 H651 0.948 . S
C623 C622 1.419 . S
C623 C624 1.391 . S
C623 C627 1.397 . S
C624 C619 1.391 . S
C624 C623 1.391 . S
C624 C625 1.399 . S
C625 C624 1.399 . S
C625 C626 1.396 . S
C625 C628 1.453 . S
C625 C629 1.684 . S
C626 C607 1.723 . S
C626 C625 1.396 . S
C626 C627 1.394 . S
C627 C623 1.397 . S
C627 C626 1.394 . S
C627 C637 1.723 . S
C628 C625 1.453 . S
C628 H652 0.982 . S
C628 H653 0.979 . S
C628 H654 0.977 . S
C629 C625 1.684 . S
C629 H655 0.979 . S
C629 H656 0.980 . S
C629 H657 0.983 . S
C630 H606 0.948 . S
C630 C631 1.391 1_556 S
C630 C635 1.391 . S
C631 C630 1.391 1_554 S
C631 C632 1.391 . S
C632 H609 0.947 . S
C632 C631 1.391 . S
C632 C633 1.392 . S
C633 H610 0.948 . S
C633 C632 1.392 . S
C633 C634 1.419 1_554 S
C634 C633 1.419 1_556 S
C634 C635 1.391 . S
C634 C638 1.397 . S
C635 C630 1.391 . S
C635 C634 1.391 . S
C635 C636 1.399 . S
C636 C635 1.399 . S
C636 C637 1.396 . S
C636 C639 1.453 . S
C636 C640 1.684 . S
C637 C627 1.723 . S
C637 C636 1.396 . S
C637 C638 1.394 . S
C638 C608 1.723 . S
C638 C634 1.397 . S
C638 C637 1.394 . S
C639 H611 0.982 . S
C639 H615 0.979 . S
C639 H616 0.977 . S
C639 C636 1.453 . S
C640 H612 0.979 . S
C640 H613 0.980 . S
C640 H614 0.983 . S
C640 C636 1.684 . S
H641 C659 0.948 . S
H642 C600 0.923 1_554 S
H643 C618 0.979 . S
H644 C618 0.980 . S
H645 C618 0.983 . S
H646 C617 0.982 1_556 S
H647 C617 0.979 . S
H648 C617 0.977 . S
H649 C619 0.948 . S
H650 C621 0.947 . S
H651 C622 0.948 . S
H652 C628 0.982 . S
H653 C628 0.979 . S
H654 C628 0.977 . S
H655 C629 0.979 . S
H656 C629 0.980 . S
H657 C629 0.983 . S
H658 C602 0.947 1_565 S
C659 C602 1.392 . S
C659 C603 1.419 . S
C659 H641 0.948 . S
C660 C661 1.391 . S
C660 C664 1.391 . S
C660 H702 0.948 1_556 S
C661 C660 1.391 . S
C661 C662 1.391 . S
C662 C661 1.391 . S
C662 H718 0.947 . S
C662 C719 1.392 . S
C663 C664 1.391 . S
C663 C667 1.397 . S
C663 C719 1.419 . S
C664 C660 1.391 . S
C664 C663 1.391 . S
C664 C665 1.399 . S
C665 C664 1.399 . S
C665 C668 1.396 . S
C665 C677 1.453 1_556 S
C665 C678 1.672 1_556 S
H666 C690 0.948 . S
C667 C663 1.397 . S
C667 C668 1.394 . S
C667 C686 1.723 . S
C668 C665 1.396 . S
C668 C667 1.394 . S
C668 C698 1.723 . S
H669 C692 0.947 . S
H670 C693 0.948 1_554 S
H671 C699 0.982 . S
H672 C700 0.979 . S
H673 C700 0.980 . S
H674 C700 0.983 . S
H675 C699 0.979 . S
H676 C699 0.977 . S
C677 C665 1.453 1_554 S
C677 H706 0.982 1_554 S
C677 H707 0.979 . S
C677 H708 0.977 . S
C678 C665 1.672 1_554 S
C678 H703 0.969 1_554 S
C678 H704 0.983 . S
C678 H705 1.001 . S
C679 C680 1.391 . S
C679 C684 1.391 . S
C679 H709 0.948 . S
C680 C679 1.391 . S
C680 C681 1.391 . S
C681 C680 1.391 . S
C681 C682 1.392 . S
C681 H710 0.947 . S
C682 C681 1.392 . S
C682 C683 1.419 . S
C682 H711 0.948 . S
C683 C682 1.419 . S
C683 C684 1.391 . S
C683 C687 1.397 . S
C684 C679 1.391 . S
C684 C683 1.391 . S
C684 C685 1.399 . S
C685 C684 1.399 . S
C685 C686 1.396 . S
C685 C688 1.453 . S
C685 C689 1.684 . S
C686 C667 1.723 . S
C686 C685 1.396 . S
C686 C687 1.394 . S
C687 C683 1.397 . S
C687 C686 1.394 . S
C687 C697 1.723 . S
C688 C685 1.453 . S
C688 H712 0.982 . S
C688 H713 0.979 . S
C688 H714 0.977 . S
C689 C685 1.684 . S
C689 H715 0.979 . S
C689 H716 0.980 . S
C689 H717 0.983 . S
C690 H666 0.948 . S
C690 C691 1.391 . S
C690 C695 1.391 . S
C691 C690 1.391 . S
C691 C692 1.391 1_556 S
C692 H669 0.947 . S
C692 C691 1.391 1_554 S
C692 C693 1.392 1_554 S
C693 H670 0.948 1_556 S
C693 C692 1.392 1_556 S
C693 C694 1.419 . S
C694 C693 1.419 . S
C694 C695 1.391 . S
C694 C698 1.397 . S
C695 C690 1.391 . S
C695 C694 1.391 . S
C695 C696 1.399 . S
C696 C695 1.399 . S
C696 C697 1.396 . S
C696 C699 1.453 . S
C696 C700 1.684 . S
C697 C687 1.723 . S
C697 C696 1.396 . S
C697 C698 1.394 . S
C698 C668 1.723 . S
C698 C694 1.397 . S
C698 C697 1.394 . S
C699 H671 0.982 . S
C699 H675 0.979 . S
C699 H676 0.977 . S
C699 C696 1.453 . S
C700 H672 0.979 . S
C700 H673 0.980 . S
C700 H674 0.983 . S
C700 C696 1.684 . S
H701 C719 0.948 . S
H702 C660 0.948 1_554 S
H703 C678 0.969 1_556 S
H704 C678 0.983 . S
H705 C678 1.001 . S
H706 C677 0.982 1_556 S
H707 C677 0.979 . S
H708 C677 0.977 . S
H709 C679 0.948 . S
H710 C681 0.947 . S
H711 C682 0.948 . S
H712 C688 0.982 . S
H713 C688 0.979 . S
H714 C688 0.977 . S
H715 C689 0.979 . S
H716 C689 0.980 . S
H717 C689 0.983 . S
H718 C662 0.947 . S
C719 C662 1.392 . S
C719 C663 1.419 . S
C719 H701 0.948 . S
C720 C721 1.391 . S
C720 C724 1.391 . S
C720 H762 0.948 1_554 S
C721 C720 1.391 . S
C721 C722 1.391 . S
C722 C721 1.391 . S
C722 H778 0.947 1_565 S
C722 C779 1.392 . S
C723 C724 1.391 . S
C723 C727 1.397 . S
C723 C779 1.419 . S
C724 C720 1.391 . S
C724 C723 1.391 . S
C724 C725 1.399 . S
C725 C724 1.399 . S
C725 C728 1.396 . S
C725 C737 1.453 1_554 S
C725 C738 1.684 1_554 S
H726 C750 0.948 . S
C727 C723 1.397 . S
C727 C728 1.394 . S
C727 C746 1.723 . S
C728 C725 1.396 . S
C728 C727 1.394 . S
C728 C758 1.723 . S
H729 C752 0.947 . S
H730 C753 0.960 . S
H731 C759 0.982 . S
H732 C760 0.979 . S
H733 C760 0.980 . S
H734 C760 0.983 . S
H735 C759 0.979 . S
H736 C759 0.977 . S
C737 C725 1.453 1_556 S
C737 H766 0.982 . S
C737 H767 0.979 . S
C737 H768 0.977 . S
C738 C725 1.684 1_556 S
C738 H763 0.979 . S
C738 H764 0.980 . S
C738 H765 0.983 . S
C739 C740 1.391 . S
C739 C744 1.391 . S
C739 H769 0.948 . S
C740 C739 1.391 . S
C740 C741 1.391 . S
C741 C740 1.391 . S
C741 C742 1.392 . S
C741 H770 0.947 . S
C742 C741 1.392 . S
C742 C743 1.419 . S
C742 H771 0.948 . S
C743 C742 1.419 . S
C743 C744 1.391 . S
C743 C747 1.397 . S
C744 C739 1.391 . S
C744 C743 1.391 . S
C744 C745 1.399 . S
C745 C744 1.399 . S
C745 C746 1.396 . S
C745 C748 1.453 . S
C745 C749 1.684 . S
C746 C727 1.723 . S
C746 C745 1.396 . S
C746 C747 1.394 . S
C747 C743 1.397 . S
C747 C746 1.394 . S
C747 C757 1.723 . S
C748 C745 1.453 . S
C748 H772 0.982 . S
C748 H773 0.979 . S
C748 H774 0.977 . S
C749 C745 1.684 . S
C749 H775 0.979 . S
C749 H776 0.980 . S
C749 H777 0.983 . S
C750 H726 0.948 . S
C750 C751 1.391 . S
C750 C755 1.391 . S
C751 C750 1.391 . S
C751 C752 1.391 1_554 S
C752 H729 0.947 . S
C752 C751 1.391 1_556 S
C752 C753 1.400 . S
C753 H730 0.960 . S
C753 C752 1.400 . S
C753 C754 1.398 1_556 S
C754 C753 1.398 1_554 S
C754 C755 1.391 . S
C754 C758 1.397 . S
C755 C750 1.391 . S
C755 C754 1.391 . S
C755 C756 1.399 . S
C756 C755 1.399 . S
C756 C757 1.396 . S
C756 C759 1.453 . S
C756 C760 1.684 . S
C757 C747 1.723 . S
C757 C756 1.396 . S
C757 C758 1.394 . S
C758 C728 1.723 . S
C758 C754 1.397 . S
C758 C757 1.394 . S
C759 H731 0.982 . S
C759 H735 0.979 . S
C759 H736 0.977 . S
C759 C756 1.453 . S
C760 H732 0.979 . S
C760 H733 0.980 . S
C760 H734 0.983 . S
C760 C756 1.684 . S
H761 C779 0.948 . S
H762 C720 0.948 1_556 S
H763 C738 0.979 . S
H764 C738 0.980 . S
H765 C738 0.983 . S
H766 C737 0.982 . S
H767 C737 0.979 . S
H768 C737 0.977 . S
H769 C739 0.948 . S
H770 C741 0.947 . S
H771 C742 0.948 . S
H772 C748 0.982 . S
H773 C748 0.979 . S
H774 C748 0.977 . S
H775 C749 0.979 . S
H776 C749 0.980 . S
H777 C749 0.983 . S
H778 C722 0.947 1_545 S
C779 C722 1.392 . S
C779 C723 1.419 . S
C779 H761 0.948 . S
C780 C781 1.391 . S
C780 C784 1.391 . S
C780 H822 0.948 1_554 S
C781 C780 1.391 . S
C781 C782 1.391 . S
C782 C781 1.391 . S
C782 H838 0.947 . S
C782 C839 1.392 . S
C783 C784 1.391 . S
C783 C787 1.397 . S
C783 C839 1.419 . S
C784 C780 1.391 . S
C784 C783 1.391 . S
C784 C785 1.399 . S
C785 C784 1.399 . S
C785 C788 1.396 . S
C785 C797 1.453 . S
C785 C798 1.684 1_554 S
H786 C810 0.948 . S
C787 C783 1.397 . S
C787 C788 1.394 . S
C787 C806 1.723 . S
C788 C785 1.396 . S
C788 C787 1.394 . S
C788 C818 1.723 . S
H789 C812 0.947 . S
H790 C813 0.948 1_556 S
H791 C819 0.982 . S
H792 C820 0.979 . S
H793 C820 0.980 . S
H794 C820 0.983 . S
H795 C819 0.979 . S
H796 C819 0.977 . S
C797 C785 1.453 . S
C797 H826 0.982 . S
C797 H827 0.979 1_554 S
C797 H828 0.977 . S
C798 C785 1.684 1_556 S
C798 H823 0.979 . S
C798 H824 0.980 . S
C798 H825 0.983 . S
C799 C800 1.391 . S
C799 C804 1.391 . S
C799 H829 0.948 . S
C800 C799 1.391 . S
C800 C801 1.391 . S
C801 C800 1.391 . S
C801 C802 1.392 . S
C801 H830 0.947 . S
C802 C801 1.392 . S
C802 C803 1.419 . S
C802 H831 0.948 . S
C803 C802 1.419 . S
C803 C804 1.391 . S
C803 C807 1.397 . S
C804 C799 1.391 . S
C804 C803 1.391 . S
C804 C805 1.399 . S
C805 C804 1.399 . S
C805 C806 1.396 . S
C805 C808 1.453 . S
C805 C809 1.684 . S
C806 C787 1.723 . S
C806 C805 1.396 . S
C806 C807 1.394 . S
C807 C803 1.397 . S
C807 C806 1.394 . S
C807 C817 1.723 . S
C808 C805 1.453 . S
C808 H832 0.982 . S
C808 H833 0.979 . S
C808 H834 0.977 . S
C809 C805 1.684 . S
C809 H835 0.979 . S
C809 H836 0.980 . S
C809 H837 0.983 . S
C810 H786 0.948 . S
C810 C811 1.391 . S
C810 C815 1.391 . S
C811 C810 1.391 . S
C811 C812 1.391 1_554 S
C812 H789 0.947 . S
C812 C811 1.391 1_556 S
C812 C813 1.392 1_556 S
C813 H790 0.948 1_554 S
C813 C812 1.392 1_554 S
C813 C814 1.419 . S
C814 C813 1.419 . S
C814 C815 1.391 . S
C814 C818 1.397 . S
C815 C810 1.391 . S
C815 C814 1.391 . S
C815 C816 1.399 . S
C816 C815 1.399 . S
C816 C817 1.396 . S
C816 C819 1.453 . S
C816 C820 1.684 . S
C817 C807 1.723 . S
C817 C816 1.396 . S
C817 C818 1.394 . S
C818 C788 1.723 . S
C818 C814 1.397 . S
C818 C817 1.394 . S
C819 H791 0.982 . S
C819 H795 0.979 . S
C819 H796 0.977 . S
C819 C816 1.453 . S
C820 H792 0.979 . S
C820 H793 0.980 . S
C820 H794 0.983 . S
C820 C816 1.684 . S
H821 C839 0.948 . S
H822 C780 0.948 1_556 S
H823 C798 0.979 . S
H824 C798 0.980 . S
H825 C798 0.983 . S
H826 C797 0.982 . S
H827 C797 0.979 1_556 S
H828 C797 0.977 . S
H829 C799 0.948 . S
H830 C801 0.947 . S
H831 C802 0.948 . S
H832 C808 0.982 . S
H833 C808 0.979 . S
H834 C808 0.977 . S
H835 C809 0.979 . S
H836 C809 0.980 . S
H837 C809 0.983 . S
H838 C782 0.947 . S
C839 C782 1.392 . S
C839 C783 1.419 . S
C839 H821 0.948 . S
C840 C841 1.391 . S
C840 C844 1.391 . S
C840 H882 0.948 . S
C841 C840 1.391 . S
C841 C842 1.391 . S
C842 C841 1.391 . S
C842 H898 0.947 . S
C842 C899 1.392 . S
C843 C844 1.391 . S
C843 C847 1.397 . S
C843 C899 1.419 . S
C844 C840 1.391 . S
C844 C843 1.391 . S
C844 C845 1.399 . S
C845 C844 1.399 . S
C845 C848 1.396 . S
C845 C857 1.453 . S
C845 C858 1.684 . S
H846 C870 0.948 . S
C847 C843 1.397 . S
C847 C848 1.394 . S
C847 C866 1.723 . S
C848 C845 1.396 . S
C848 C847 1.394 . S
C848 C878 1.723 . S
H849 C872 0.947 1_556 S
H850 C873 0.948 . S
H851 C879 0.982 . S
H852 C880 0.979 . S
H853 C880 0.980 . S
H854 C880 0.983 . S
H855 C879 0.979 . S
H856 C879 0.977 . S
C857 C845 1.453 . S
C857 H886 0.982 . S
C857 H887 0.979 1_554 S
C857 H888 0.977 . S
C858 C845 1.684 . S
C858 H883 0.979 . S
C858 H884 0.980 . S
C858 H885 0.983 . S
C859 C860 1.391 . S
C859 C864 1.391 . S
C859 H889 0.948 . S
C860 C859 1.391 . S
C860 C861 1.391 . S
C861 C860 1.391 . S
C861 C862 1.392 . S
C861 H890 0.947 . S
C862 C861 1.392 . S
C862 C863 1.419 . S
C862 H891 0.948 . S
C863 C862 1.419 . S
C863 C864 1.391 . S
C863 C867 1.397 . S
C864 C859 1.391 . S
C864 C863 1.391 . S
C864 C865 1.399 . S
C865 C864 1.399 . S
C865 C866 1.396 . S
C865 C868 1.453 . S
C865 C869 1.684 . S
C866 C847 1.723 . S
C866 C865 1.396 . S
C866 C867 1.394 . S
C867 C863 1.397 . S
C867 C866 1.394 . S
C867 C877 1.723 . S
C868 C865 1.453 . S
C868 H892 0.982 . S
C868 H893 0.979 . S
C868 H894 0.977 . S
C869 C865 1.684 . S
C869 H895 0.979 . S
C869 H896 0.980 . S
C869 H897 0.983 . S
C870 H846 0.948 . S
C870 C871 1.391 . S
C870 C875 1.391 . S
C871 C870 1.391 . S
C871 C872 1.391 . S
C872 H849 0.947 1_554 S
C872 C871 1.391 . S
C872 C873 1.392 . S
C873 H850 0.948 . S
C873 C872 1.392 . S
C873 C874 1.419 . S
C874 C873 1.419 . S
C874 C875 1.391 . S
C874 C878 1.397 . S
C875 C870 1.391 . S
C875 C874 1.391 . S
C875 C876 1.399 . S
C876 C875 1.399 . S
C876 C877 1.396 . S
C876 C879 1.453 . S
C876 C880 1.684 . S
C877 C867 1.723 . S
C877 C876 1.396 . S
C877 C878 1.394 . S
C878 C848 1.723 . S
C878 C874 1.397 . S
C878 C877 1.394 . S
C879 H851 0.982 . S
C879 H855 0.979 . S
C879 H856 0.977 . S
C879 C876 1.453 . S
C880 H852 0.979 . S
C880 H853 0.980 . S
C880 H854 0.983 . S
C880 C876 1.684 . S
H881 C899 0.948 . S
H882 C840 0.948 . S
H883 C858 0.979 . S
H884 C858 0.980 . S
H885 C858 0.983 . S
H886 C857 0.982 . S
H887 C857 0.979 1_556 S
H888 C857 0.977 . S
H889 C859 0.948 . S
H890 C861 0.947 . S
H891 C862 0.948 . S
H892 C868 0.982 . S
H893 C868 0.979 . S
H894 C868 0.977 . S
H895 C869 0.979 . S
H896 C869 0.980 . S
H897 C869 0.983 . S
H898 C842 0.947 . S
C899 C842 1.392 . S
C899 C843 1.419 . S
C899 H881 0.948 . S
C900 C901 1.391 . S
C900 C904 1.391 . S
C900 H942 0.948 . S
C901 C900 1.391 . S
C901 C902 1.391 . S
C902 C901 1.391 . S
C902 H958 0.947 . S
C902 C959 1.392 . S
C903 C904 1.391 . S
C903 C907 1.397 . S
C903 C959 1.419 . S
C904 C900 1.391 . S
C904 C903 1.391 . S
C904 C905 1.399 . S
C905 C904 1.399 . S
C905 C908 1.396 . S
C905 C917 1.453 . S
C905 C918 1.684 . S
H906 C930 0.948 . S
C907 C903 1.397 . S
C907 C908 1.394 . S
C907 C926 1.723 . S
C908 C905 1.396 . S
C908 C907 1.394 . S
C908 C938 1.723 . S
H909 C932 0.947 . S
H910 C933 0.948 . S
H911 C939 0.979 1_545 S
H912 C940 0.979 . S
H913 C940 0.980 . S
H914 C940 0.983 . S
H915 C939 0.979 . S
H916 C939 0.977 . S
C917 C905 1.453 . S
C917 H946 0.982 . S
C917 H947 0.979 . S
C917 H948 0.977 . S
C918 C905 1.684 . S
C918 H943 0.979 . S
C918 H944 0.980 . S
C918 H945 0.983 . S
C919 C920 1.391 . S
C919 C924 1.391 . S
C919 H949 0.948 . S
C920 C919 1.391 . S
C920 C921 1.391 . S
C921 C920 1.391 . S
C921 C922 1.392 . S
C921 H950 0.947 . S
C922 C921 1.392 . S
C922 C923 1.419 . S
C922 H951 0.948 . S
C923 C922 1.419 . S
C923 C924 1.391 . S
C923 C927 1.397 . S
C924 C919 1.391 . S
C924 C923 1.391 . S
C924 C925 1.399 . S
C925 C924 1.399 . S
C925 C926 1.396 . S
C925 C928 1.453 . S
C925 C929 1.684 . S
C926 C907 1.723 . S
C926 C925 1.396 . S
C926 C927 1.394 . S
C927 C923 1.397 . S
C927 C926 1.394 . S
C927 C937 1.723 . S
C928 C925 1.453 . S
C928 H952 0.982 1_565 S
C928 H953 0.979 . S
C928 H954 0.977 . S
C929 C925 1.684 . S
C929 H955 0.979 . S
C929 H956 0.980 . S
C929 H957 0.983 . S
C930 H906 0.948 . S
C930 C931 1.391 . S
C930 C935 1.391 . S
C931 C930 1.391 . S
C931 C932 1.391 . S
C932 H909 0.947 . S
C932 C931 1.391 . S
C932 C933 1.392 . S
C933 H910 0.948 . S
C933 C932 1.392 . S
C933 C934 1.419 . S
C934 C933 1.419 . S
C934 C935 1.391 . S
C934 C938 1.397 . S
C935 C930 1.391 . S
C935 C934 1.391 . S
C935 C936 1.399 . S
C936 C935 1.399 . S
C936 C937 1.396 . S
C936 C939 1.453 . S
C936 C940 1.684 . S
C937 C927 1.723 . S
C937 C936 1.396 . S
C937 C938 1.394 . S
C938 C908 1.723 . S
C938 C934 1.397 . S
C938 C937 1.394 . S
C939 H911 0.979 1_565 S
C939 H915 0.979 . S
C939 H916 0.977 . S
C939 C936 1.453 . S
C940 H912 0.979 . S
C940 H913 0.980 . S
C940 H914 0.983 . S
C940 C936 1.684 . S
H941 C959 0.948 . S
H942 C900 0.948 . S
H943 C918 0.979 . S
H944 C918 0.980 . S
H945 C918 0.983 . S
H946 C917 0.982 . S
H947 C917 0.979 . S
H948 C917 0.977 . S
H949 C919 0.948 . S
H950 C921 0.947 . S
H951 C922 0.948 . S
H952 C928 0.982 1_545 S
H953 C928 0.979 . S
H954 C928 0.977 . S
H955 C929 0.979 . S
H956 C929 0.980 . S
H957 C929 0.983 . S
H958 C902 0.947 . S
C959 C902 1.392 . S
C959 C903 1.419 . S
C959 H941 0.948 . S
C960 C961 1.391 . S
C960 C964 1.391 . S
C960 H1002 0.948 . S
C961 C960 1.391 . S
C961 C962 1.391 . S
C962 C961 1.391 . S
C962 H1018 0.947 . S
C962 C1019 1.392 . S
C963 C964 1.391 . S
C963 C967 1.397 . S
C963 C1019 1.419 . S
C964 C960 1.391 . S
C964 C963 1.391 . S
C964 C965 1.399 . S
C965 C964 1.399 . S
C965 C968 1.396 . S
C965 C977 1.453 . S
C965 C978 1.684 . S
H966 C990 0.948 . S
C967 C963 1.397 . S
C967 C968 1.394 . S
C967 C986 1.723 . S
C968 C965 1.396 . S
C968 C967 1.394 . S
C968 C998 1.723 . S
H969 C992 0.947 . S
H970 C993 0.948 . S
H971 C999 0.982 . S
H972 C1000 0.979 . S
H973 C1000 0.980 . S
H974 C1000 0.983 . S
H975 C999 0.979 . S
H976 C999 0.977 . S
C977 C965 1.453 . S
C977 H1006 0.982 . S
C977 H1007 0.979 . S
C977 H1008 0.977 . S
C978 C965 1.684 . S
C978 H1003 0.992 . S
C978 H1004 0.980 . S
C978 H1005 0.983 . S
C979 C980 1.391 . S
C979 C984 1.391 1_655 S
C979 H1009 0.948 . S
C980 C979 1.391 . S
C980 C981 1.391 . S
C981 C980 1.391 . S
C981 C982 1.392 1_655 S
C981 H1010 0.947 . S
C982 C981 1.392 1_455 S
C982 C983 1.419 . S
C982 H1011 0.948 . S
C983 C982 1.419 . S
C983 C984 1.391 . S
C983 C987 1.397 . S
C984 C979 1.391 1_455 S
C984 C983 1.391 . S
C984 C985 1.399 . S
C985 C984 1.399 . S
C985 C986 1.396 . S
C985 C988 1.453 . S
C985 C989 1.684 1_455 S
C986 C967 1.723 . S
C986 C985 1.396 . S
C986 C987 1.394 . S
C987 C983 1.397 . S
C987 C986 1.394 . S
C987 C997 1.723 . S
C988 C985 1.453 . S
C988 H1012 0.982 . S
C988 H1013 0.979 . S
C988 H1014 0.977 . S
C989 C985 1.684 1_655 S
C989 H1015 0.979 . S
C989 H1016 0.980 . S
C989 H1017 0.983 . S
C990 H966 0.948 . S
C990 C991 1.391 . S
C990 C995 1.391 . S
C991 C990 1.391 . S
C991 C992 1.391 . S
C992 H969 0.947 . S
C992 C991 1.391 . S
C992 C993 1.392 . S
C993 H970 0.948 . S
C993 C992 1.392 . S
C993 C994 1.419 . S
C994 C993 1.419 . S
C994 C995 1.391 . S
C994 C998 1.397 . S
C995 C990 1.391 . S
C995 C994 1.391 . S
C995 C996 1.399 . S
C996 C995 1.399 . S
C996 C997 1.396 . S
C996 C999 1.453 . S
C996 C1000 1.684 1_455 S
C997 C987 1.723 . S
C997 C996 1.396 . S
C997 C998 1.394 . S
C998 C968 1.723 . S
C998 C994 1.397 . S
C998 C997 1.394 . S
C999 H971 0.982 . S
C999 H975 0.979 . S
C999 H976 0.977 . S
C999 C996 1.453 . S
C1000 H972 0.979 . S
C1000 H973 0.980 . S
C1000 H974 0.983 . S
C1000 C996 1.684 1_655 S
H1001 C1019 0.948 . S
H1002 C960 0.948 . S
H1003 C978 0.992 . S
H1004 C978 0.980 . S
H1005 C978 0.983 . S
H1006 C977 0.982 . S
H1007 C977 0.979 . S
H1008 C977 0.977 . S
H1009 C979 0.948 . S
H1010 C981 0.947 . S
H1011 C982 0.948 . S
H1012 C988 0.982 . S
H1013 C988 0.979 . S
H1014 C988 0.977 . S
H1015 C989 0.979 . S
H1016 C989 0.980 . S
H1017 C989 0.983 . S
H1018 C962 0.947 . S
C1019 C962 1.392 . S
C1019 C963 1.419 . S
C1019 H1001 0.948 . S
C1020 C1021 1.391 . S
C1020 C1024 1.391 . S
C1020 H1062 0.948 . S
C1021 C1020 1.391 . S
C1021 C1022 1.391 . S
C1022 C1021 1.391 . S
C1022 H1078 0.947 . S
C1022 C1079 1.392 . S
C1023 C1024 1.391 . S
C1023 C1027 1.397 . S
C1023 C1079 1.419 . S
C1024 C1020 1.391 . S
C1024 C1023 1.391 . S
C1024 C1025 1.399 . S
C1025 C1024 1.399 . S
C1025 C1028 1.396 . S
C1025 C1037 1.453 . S
C1025 C1038 1.684 . S
H1026 C1050 0.948 . S
C1027 C1023 1.397 . S
C1027 C1028 1.394 . S
C1027 C1046 1.723 . S
C1028 C1025 1.396 . S
C1028 C1027 1.394 . S
C1028 C1058 1.723 . S
H1029 C1052 0.947 . S
H1030 C1053 0.948 . S
H1031 C1059 0.982 . S
H1032 C1060 0.979 . S
H1033 C1060 0.980 . S
H1034 C1060 0.983 . S
H1035 C1059 0.979 . S
H1036 C1059 0.977 . S
C1037 C1025 1.453 . S
C1037 H1066 0.982 . S
C1037 H1067 0.979 . S
C1037 H1068 0.977 . S
C1038 C1025 1.684 . S
C1038 H1063 0.979 . S
C1038 H1064 0.980 . S
C1038 H1065 0.983 . S
C1039 C1040 1.391 . S
C1039 C1044 1.391 . S
C1039 H1069 0.948 . S
C1040 C1039 1.391 . S
C1040 C1041 1.391 . S
C1041 C1040 1.391 . S
C1041 C1042 1.392 . S
C1041 H1070 0.947 . S
C1042 C1041 1.392 . S
C1042 C1043 1.419 . S
C1042 H1071 0.948 . S
C1043 C1042 1.419 . S
C1043 C1044 1.391 . S
C1043 C1047 1.397 . S
C1044 C1039 1.391 . S
C1044 C1043 1.391 . S
C1044 C1045 1.399 . S
C1045 C1044 1.399 . S
C1045 C1046 1.396 . S
C1045 C1048 1.453 . S
C1045 C1049 1.684 . S
C1046 C1027 1.723 . S
C1046 C1045 1.396 . S
C1046 C1047 1.394 . S
C1047 C1043 1.397 . S
C1047 C1046 1.394 . S
C1047 C1057 1.723 . S
C1048 C1045 1.453 . S
C1048 H1072 0.982 . S
C1048 H1073 0.979 . S
C1048 H1074 0.977 . S
C1049 C1045 1.684 . S
C1049 H1075 0.979 . S
C1049 H1076 0.980 . S
C1049 H1077 0.983 . S
C1050 H1026 0.948 . S
C1050 C1051 1.391 . S
C1050 C1055 1.391 . S
C1051 C1050 1.391 . S
C1051 C1052 1.391 . S
C1052 H1029 0.947 . S
C1052 C1051 1.391 . S
C1052 C1053 1.392 . S
C1053 H1030 0.948 . S
C1053 C1052 1.392 . S
C1053 C1054 1.419 . S
C1054 C1053 1.419 . S
C1054 C1055 1.391 . S
C1054 C1058 1.397 . S
C1055 C1050 1.391 . S
C1055 C1054 1.391 . S
C1055 C1056 1.399 . S
C1056 C1055 1.399 . S
C1056 C1057 1.396 . S
C1056 C1059 1.453 . S
C1056 C1060 1.684 . S
C1057 C1047 1.723 . S
C1057 C1056 1.396 . S
C1057 C1058 1.394 . S
C1058 C1028 1.723 . S
C1058 C1054 1.397 . S
C1058 C1057 1.394 . S
C1059 H1031 0.982 . S
C1059 H1035 0.979 . S
C1059 H1036 0.977 . S
C1059 C1056 1.453 . S
C1060 H1032 0.979 . S
C1060 H1033 0.980 . S
C1060 H1034 0.983 . S
C1060 C1056 1.684 . S
H1061 C1079 0.948 . S
H1062 C1020 0.948 . S
H1063 C1038 0.979 . S
H1064 C1038 0.980 . S
H1065 C1038 0.983 . S
H1066 C1037 0.982 . S
H1067 C1037 0.979 . S
H1068 C1037 0.977 . S
H1069 C1039 0.948 . S
H1070 C1041 0.947 . S
H1071 C1042 0.948 . S
H1072 C1048 0.982 . S
H1073 C1048 0.979 . S
H1074 C1048 0.977 . S
H1075 C1049 0.979 . S
H1076 C1049 0.980 . S
H1077 C1049 0.983 . S
H1078 C1022 0.947 . S
C1079 C1022 1.392 . S
C1079 C1023 1.419 . S
C1079 H1061 0.948 . S
Eu1080 C1089 2.828 . S
Eu1080 O1091 2.392 . S
Eu1080 O1093 2.418 . S
Eu1080 O1098 2.373 1_565 S
Eu1080 O1101 2.488 . S
Eu1080 O1102 2.471 . S
Eu1080 O1103 2.349 1_565 S
Eu1081 O1090 2.373 1_545 S
Eu1081 O1094 2.488 . S
Eu1081 O1095 2.471 . S
Eu1081 O1096 2.349 1_545 S
Eu1081 O1099 2.392 . S
Eu1081 O1100 2.418 . S
Eu1081 C1110 2.828 . S
C1082 O1100 1.244 1_556 S
C1082 O1103 1.265 . S
C1083 C1084 1.379 1_565 S
C1083 C1087 1.373 . S
C1083 C1089 1.505 . S
C1084 C1083 1.379 1_545 S
C1084 C1086 1.369 . S
C1084 H1112 0.930 . S
C1085 C1087 1.383 . S
C1085 C1088 1.382 . S
C1085 H1113 0.930 . S
C1086 C1084 1.369 . S
C1086 C1088 1.392 1_545 S
C1086 H1114 0.930 . S
C1087 C1083 1.373 . S
C1087 C1085 1.383 . S
C1087 H1115 0.931 . S
C1088 C1085 1.382 . S
C1088 C1086 1.392 1_565 S
C1089 Eu1080 2.828 . S
C1089 C1083 1.505 . S
C1089 O1101 1.249 . S
C1089 O1102 1.244 . S
O1090 Eu1081 2.373 1_565 S
O1090 C1092 1.258 . S
O1091 Eu1080 2.392 . S
O1091 C1092 1.242 1_556 S
C1092 O1090 1.258 . S
C1092 O1091 1.242 1_554 S
O1093 Eu1080 2.418 . S
O1093 C1097 1.244 1_556 S
O1094 Eu1081 2.488 . S
O1094 C1110 1.249 . S
O1095 Eu1081 2.471 . S
O1095 C1110 1.244 . S
O1096 Eu1081 2.349 1_565 S
O1096 C1097 1.265 . S
C1097 O1093 1.244 1_554 S
C1097 O1096 1.265 . S
O1098 Eu1080 2.373 1_545 S
O1098 C1111 1.258 . S
O1099 Eu1081 2.392 . S
O1099 C1111 1.242 1_554 S
O1100 Eu1081 2.418 . S
O1100 C1082 1.244 1_554 S
O1101 Eu1080 2.488 . S
O1101 C1089 1.249 . S
O1102 Eu1080 2.471 . S
O1102 C1089 1.244 . S
O1103 Eu1080 2.349 1_545 S
O1103 C1082 1.265 . S
C1104 C1105 1.379 1_545 S
C1104 C1108 1.373 . S
C1104 C1110 1.505 . S
C1105 C1104 1.379 1_565 S
C1105 C1107 1.369 . S
C1105 H1116 0.930 . S
C1106 C1108 1.383 . S
C1106 C1109 1.382 . S
C1106 H1117 0.930 . S
C1107 C1105 1.369 . S
C1107 C1109 1.392 1_565 S
C1107 H1118 0.930 . S
C1108 C1104 1.373 . S
C1108 C1106 1.383 . S
C1108 H1119 0.931 . S
C1109 C1106 1.382 . S
C1109 C1107 1.392 1_545 S
C1110 Eu1081 2.828 . S
C1110 O1094 1.249 . S
C1110 O1095 1.244 . S
C1110 C1104 1.505 . S
C1111 O1098 1.258 . S
C1111 O1099 1.242 1_556 S
H1112 C1084 0.930 . S
H1113 C1085 0.930 . S
H1114 C1086 0.930 . S
H1115 C1087 0.931 . S
H1116 C1105 0.930 . S
H1117 C1106 0.930 . S
H1118 C1107 0.930 . S
H1119 C1108 0.931 . S
Eu1120 C1129 2.828 . S
Eu1120 O1131 2.392 1_556 S
Eu1120 O1133 2.418 . S
Eu1120 O1138 2.373 1_455 S
Eu1120 O1141 2.488 . S
Eu1120 O1142 2.471 1_455 S
Eu1120 O1143 2.349 1_455 S
Eu1121 O1130 2.373 1_655 S
Eu1121 O1134 2.488 . S
Eu1121 O1135 2.471 1_655 S
Eu1121 O1136 2.349 1_655 S
Eu1121 O1139 2.392 1_554 S
Eu1121 O1140 2.418 . S
Eu1121 C1150 2.828 . S
C1122 O1140 1.244 1_556 S
C1122 O1143 1.265 . S
C1123 C1124 1.379 1_455 S
C1123 C1127 1.373 . S
C1123 C1129 1.505 . S
C1124 C1123 1.379 1_655 S
C1124 C1126 1.369 . S
C1124 H1152 0.930 . S
C1125 C1127 1.383 . S
C1125 C1128 1.382 1_455 S
C1125 H1153 0.930 . S
C1126 C1124 1.369 . S
C1126 C1128 1.392 . S
C1126 H1154 0.930 . S
C1127 C1123 1.373 . S
C1127 C1125 1.383 . S
C1127 H1155 0.931 . S
C1128 C1125 1.382 1_655 S
C1128 C1126 1.392 . S
C1129 Eu1120 2.828 . S
C1129 C1123 1.505 . S
C1129 O1141 1.249 . S
C1129 O1142 1.244 1_455 S
O1130 Eu1121 2.373 1_455 S
O1130 C1132 1.258 . S
O1131 Eu1120 2.392 1_554 S
O1131 C1132 1.242 . S
C1132 O1130 1.258 . S
C1132 O1131 1.242 . S
O1133 Eu1120 2.418 . S
O1133 C1137 1.244 1_556 S
O1134 Eu1121 2.488 . S
O1134 C1150 1.249 . S
O1135 Eu1121 2.471 1_455 S
O1135 C1150 1.244 1_455 S
O1136 Eu1121 2.349 1_455 S
O1136 C1137 1.265 . S
C1137 O1133 1.244 1_554 S
C1137 O1136 1.265 . S
O1138 Eu1120 2.373 1_655 S
O1138 C1151 1.258 . S
O1139 Eu1121 2.392 1_556 S
O1139 C1151 1.242 . S
O1140 Eu1121 2.418 . S
O1140 C1122 1.244 1_554 S
O1141 Eu1120 2.488 . S
O1141 C1129 1.249 . S
O1142 Eu1120 2.471 1_655 S
O1142 C1129 1.244 1_655 S
O1143 Eu1120 2.349 1_655 S
O1143 C1122 1.265 . S
C1144 C1145 1.379 1_655 S
C1144 C1148 1.373 . S
C1144 C1150 1.505 . S
C1145 C1144 1.379 1_455 S
C1145 C1147 1.369 . S
C1145 H1156 0.930 . S
C1146 C1148 1.383 . S
C1146 C1149 1.382 1_655 S
C1146 H1157 0.930 . S
C1147 C1145 1.369 . S
C1147 C1149 1.392 . S
C1147 H1158 0.930 . S
C1148 C1144 1.373 . S
C1148 C1146 1.383 . S
C1148 H1159 0.931 . S
C1149 C1146 1.382 1_455 S
C1149 C1147 1.392 . S
C1150 Eu1121 2.828 . S
C1150 O1134 1.249 . S
C1150 O1135 1.244 1_655 S
C1150 C1144 1.505 . S
C1151 O1138 1.258 . S
C1151 O1139 1.242 . S
H1152 C1124 0.930 . S
H1153 C1125 0.930 . S
H1154 C1126 0.930 . S
H1155 C1127 0.931 . S
H1156 C1145 0.930 . S
H1157 C1146 0.930 . S
H1158 C1147 0.930 . S
H1159 C1148 0.931 . S
Eu1160 C1169 2.828 . S
Eu1160 O1171 2.394 1_554 S
Eu1160 O1173 2.418 . S
Eu1160 O1178 2.373 . S
Eu1160 O1181 2.488 . S
Eu1160 O1182 2.471 . S
Eu1160 O1183 2.349 . S
Eu1161 O1170 2.373 . S
Eu1161 O1174 2.488 . S
Eu1161 O1175 2.471 . S
Eu1161 O1176 2.349 . S
Eu1161 O1179 2.392 1_556 S
Eu1161 O1180 2.418 . S
Eu1161 C1190 2.828 . S
C1162 O1180 1.244 1_554 S
C1162 O1183 1.265 . S
C1163 C1164 1.379 . S
C1163 C1167 1.373 . S
C1163 C1169 1.505 . S
C1164 C1163 1.379 . S
C1164 C1166 1.369 . S
C1164 H1192 0.930 . S
C1165 C1167 1.383 . S
C1165 C1168 1.382 . S
C1165 H1193 0.930 . S
C1166 C1164 1.369 . S
C1166 C1168 1.392 . S
C1166 H1194 0.930 . S
C1167 C1163 1.373 . S
C1167 C1165 1.383 . S
C1167 H1195 0.931 . S
C1168 C1165 1.382 . S
C1168 C1166 1.392 . S
C1169 Eu1160 2.828 . S
C1169 C1163 1.505 . S
C1169 O1181 1.249 . S
C1169 O1182 1.244 . S
O1170 Eu1161 2.373 . S
O1170 C1172 1.258 . S
O1171 Eu1160 2.394 1_556 S
O1171 C1172 1.241 . S
C1172 O1170 1.258 . S
C1172 O1171 1.241 . S
O1173 Eu1160 2.418 . S
O1173 C1177 1.244 1_554 S
O1174 Eu1161 2.488 . S
O1174 C1190 1.249 . S
O1175 Eu1161 2.471 . S
O1175 C1190 1.244 . S
O1176 Eu1161 2.349 . S
O1176 C1177 1.265 . S
C1177 O1173 1.244 1_556 S
C1177 O1176 1.265 . S
O1178 Eu1160 2.373 . S
O1178 C1191 1.258 . S
O1179 Eu1161 2.392 1_554 S
O1179 C1191 1.242 . S
O1180 Eu1161 2.418 . S
O1180 C1162 1.244 1_556 S
O1181 Eu1160 2.488 . S
O1181 C1169 1.249 . S
O1182 Eu1160 2.471 . S
O1182 C1169 1.244 . S
O1183 Eu1160 2.349 . S
O1183 C1162 1.265 . S
C1184 C1185 1.379 . S
C1184 C1188 1.373 . S
C1184 C1190 1.505 . S
C1185 C1184 1.379 . S
C1185 C1187 1.369 . S
C1185 H1196 0.930 . S
C1186 C1188 1.383 . S
C1186 C1189 1.382 . S
C1186 H1197 0.930 . S
C1187 C1185 1.369 . S
C1187 C1189 1.392 . S
C1187 H1198 0.930 . S
C1188 C1184 1.373 . S
C1188 C1186 1.383 . S
C1188 H1199 0.931 . S
C1189 C1186 1.382 . S
C1189 C1187 1.392 . S
C1190 Eu1161 2.828 . S
C1190 O1174 1.249 . S
C1190 O1175 1.244 . S
C1190 C1184 1.505 . S
C1191 O1178 1.258 . S
C1191 O1179 1.242 . S
H1192 C1164 0.930 . S
H1193 C1165 0.930 . S
H1194 C1166 0.930 . S
H1195 C1167 0.931 . S
H1196 C1185 0.930 . S
H1197 C1186 0.930 . S
H1198 C1187 0.930 . S
H1199 C1188 0.931 . S
Eu1200 C1209 2.828 . S
Eu1200 O1211 2.392 . S
Eu1200 O1213 2.418 . S
Eu1200 O1218 2.373 . S
Eu1200 O1221 2.488 . S
Eu1200 O1222 2.471 . S
Eu1200 O1223 2.349 . S
Eu1201 O1210 2.373 . S
Eu1201 O1214 2.488 . S
Eu1201 O1215 2.471 . S
Eu1201 O1216 2.349 . S
Eu1201 O1219 2.392 . S
Eu1201 O1220 2.418 . S
Eu1201 C1230 2.828 . S
C1202 O1220 1.244 . S
C1202 O1223 1.265 . S
C1203 C1204 1.379 . S
C1203 C1207 1.373 . S
C1203 C1209 1.505 . S
C1204 C1203 1.379 . S
C1204 C1206 1.369 . S
C1204 H1232 0.930 . S
C1205 C1207 1.383 . S
C1205 C1208 1.382 . S
C1205 H1233 0.930 . S
C1206 C1204 1.369 . S
C1206 C1208 1.392 . S
C1206 H1234 0.930 . S
C1207 C1203 1.373 . S
C1207 C1205 1.383 . S
C1207 H1235 0.931 . S
C1208 C1205 1.382 . S
C1208 C1206 1.392 . S
C1209 Eu1200 2.828 . S
C1209 C1203 1.505 . S
C1209 O1221 1.249 . S
C1209 O1222 1.244 . S
O1210 Eu1201 2.373 . S
O1210 C1212 1.258 . S
O1211 Eu1200 2.392 . S
O1211 C1212 1.242 . S
C1212 O1210 1.258 . S
C1212 O1211 1.242 . S
O1213 Eu1200 2.418 . S
O1213 C1217 1.244 . S
O1214 Eu1201 2.488 . S
O1214 C1230 1.249 . S
O1215 Eu1201 2.471 . S
O1215 C1230 1.244 . S
O1216 Eu1201 2.349 . S
O1216 C1217 1.265 . S
C1217 O1213 1.244 . S
C1217 O1216 1.265 . S
O1218 Eu1200 2.373 . S
O1218 C1231 1.258 . S
O1219 Eu1201 2.392 . S
O1219 C1231 1.242 . S
O1220 Eu1201 2.418 . S
O1220 C1202 1.244 . S
O1221 Eu1200 2.488 . S
O1221 C1209 1.249 . S
O1222 Eu1200 2.471 . S
O1222 C1209 1.244 . S
O1223 Eu1200 2.349 . S
O1223 C1202 1.265 . S
C1224 C1225 1.379 . S
C1224 C1228 1.373 . S
C1224 C1230 1.505 . S
C1225 C1224 1.379 . S
C1225 C1227 1.369 . S
C1225 H1236 0.930 . S
C1226 C1228 1.383 . S
C1226 C1229 1.382 . S
C1226 H1237 0.930 . S
C1227 C1225 1.369 . S
C1227 C1229 1.392 . S
C1227 H1238 0.930 . S
C1228 C1224 1.373 . S
C1228 C1226 1.383 . S
C1228 H1239 0.931 . S
C1229 C1226 1.382 . S
C1229 C1227 1.392 . S
C1230 Eu1201 2.828 . S
C1230 O1214 1.249 . S
C1230 O1215 1.244 . S
C1230 C1224 1.505 . S
C1231 O1218 1.258 . S
C1231 O1219 1.242 . S
H1232 C1204 0.930 . S
H1233 C1205 0.930 . S
H1234 C1206 0.930 . S
H1235 C1207 0.931 . S
H1236 C1225 0.930 . S
H1237 C1226 0.930 . S
H1238 C1227 0.930 . S
H1239 C1228 0.931 . S
Eu1240 C1249 2.828 . S
Eu1240 O1251 2.392 . S
Eu1240 O1253 2.418 . S
Eu1240 O1258 2.373 . S
Eu1240 O1261 2.488 . S
Eu1240 O1262 2.471 . S
Eu1240 O1263 2.349 . S
Eu1241 O1250 2.373 . S
Eu1241 O1254 2.488 . S
Eu1241 O1255 2.471 . S
Eu1241 O1256 2.349 . S
Eu1241 O1259 2.392 . S
Eu1241 O1260 2.418 . S
Eu1241 C1270 2.828 . S
C1242 O1260 1.244 . S
C1242 O1263 1.265 . S
C1243 C1244 1.379 . S
C1243 C1247 1.373 . S
C1243 C1249 1.505 . S
C1244 C1243 1.379 . S
C1244 C1246 1.369 . S
C1244 H1272 0.930 . S
C1245 C1247 1.383 . S
C1245 C1248 1.382 . S
C1245 H1273 0.930 . S
C1246 C1244 1.369 . S
C1246 C1248 1.392 . S
C1246 H1274 0.930 . S
C1247 C1243 1.373 . S
C1247 C1245 1.383 . S
C1247 H1275 0.931 . S
C1248 C1245 1.382 . S
C1248 C1246 1.392 . S
C1249 Eu1240 2.828 . S
C1249 C1243 1.505 . S
C1249 O1261 1.249 . S
C1249 O1262 1.244 . S
O1250 Eu1241 2.373 . S
O1250 C1252 1.258 . S
O1251 Eu1240 2.392 . S
O1251 C1252 1.242 . S
C1252 O1250 1.258 . S
C1252 O1251 1.242 . S
O1253 Eu1240 2.418 . S
O1253 C1257 1.244 . S
O1254 Eu1241 2.488 . S
O1254 C1270 1.249 . S
O1255 Eu1241 2.471 . S
O1255 C1270 1.244 . S
O1256 Eu1241 2.349 . S
O1256 C1257 1.265 . S
C1257 O1253 1.244 . S
C1257 O1256 1.265 . S
O1258 Eu1240 2.373 . S
O1258 C1271 1.258 . S
O1259 Eu1241 2.392 . S
O1259 C1271 1.242 . S
O1260 Eu1241 2.418 . S
O1260 C1242 1.244 . S
O1261 Eu1240 2.488 . S
O1261 C1249 1.249 . S
O1262 Eu1240 2.471 . S
O1262 C1249 1.244 . S
O1263 Eu1240 2.349 . S
O1263 C1242 1.265 . S
C1264 C1265 1.379 . S
C1264 C1268 1.373 . S
C1264 C1270 1.505 . S
C1265 C1264 1.379 . S
C1265 C1267 1.369 . S
C1265 H1276 0.930 . S
C1266 C1268 1.383 . S
C1266 C1269 1.382 . S
C1266 H1277 0.930 . S
C1267 C1265 1.369 . S
C1267 C1269 1.392 . S
C1267 H1278 0.930 . S
C1268 C1264 1.373 . S
C1268 C1266 1.383 . S
C1268 H1279 0.931 . S
C1269 C1266 1.382 . S
C1269 C1267 1.392 . S
C1270 Eu1241 2.828 . S
C1270 O1254 1.249 . S
C1270 O1255 1.244 . S
C1270 C1264 1.505 . S
C1271 O1258 1.258 . S
C1271 O1259 1.242 . S
H1272 C1244 0.930 . S
H1273 C1245 0.930 . S
H1274 C1246 0.930 . S
H1275 C1247 0.931 . S
H1276 C1265 0.930 . S
H1277 C1266 0.930 . S
H1278 C1267 0.930 . S
H1279 C1268 0.931 . S
Eu1280 C1289 2.828 . S
Eu1280 O1291 2.392 . S
Eu1280 O1293 2.418 . S
Eu1280 O1298 2.373 . S
Eu1280 O1301 2.488 . S
Eu1280 O1302 2.471 . S
Eu1280 O1303 2.349 . S
Eu1281 O1290 2.373 . S
Eu1281 O1294 2.488 . S
Eu1281 O1295 2.471 . S
Eu1281 O1296 2.349 . S
Eu1281 O1299 2.392 . S
Eu1281 O1300 2.418 . S
Eu1281 C1310 2.828 . S
C1282 O1300 1.244 . S
C1282 O1303 1.265 . S
C1283 C1284 1.379 . S
C1283 C1287 1.373 . S
C1283 C1289 1.505 . S
C1284 C1283 1.379 . S
C1284 C1286 1.369 . S
C1284 H1312 0.930 . S
C1285 C1287 1.383 . S
C1285 C1288 1.382 . S
C1285 H1313 0.930 . S
C1286 C1284 1.369 . S
C1286 C1288 1.392 . S
C1286 H1314 0.930 . S
C1287 C1283 1.373 . S
C1287 C1285 1.383 . S
C1287 H1315 0.931 . S
C1288 C1285 1.382 . S
C1288 C1286 1.392 . S
C1289 Eu1280 2.828 . S
C1289 C1283 1.505 . S
C1289 O1301 1.249 . S
C1289 O1302 1.244 . S
O1290 Eu1281 2.373 . S
O1290 C1292 1.258 . S
O1291 Eu1280 2.392 . S
O1291 C1292 1.242 . S
C1292 O1290 1.258 . S
C1292 O1291 1.242 . S
O1293 Eu1280 2.418 . S
O1293 C1297 1.244 . S
O1294 Eu1281 2.488 . S
O1294 C1310 1.249 . S
O1295 Eu1281 2.471 . S
O1295 C1310 1.244 . S
O1296 Eu1281 2.349 . S
O1296 C1297 1.265 . S
C1297 O1293 1.244 . S
C1297 O1296 1.265 . S
O1298 Eu1280 2.373 . S
O1298 C1311 1.258 . S
O1299 Eu1281 2.392 . S
O1299 C1311 1.242 . S
O1300 Eu1281 2.418 . S
O1300 C1282 1.244 . S
O1301 Eu1280 2.488 . S
O1301 C1289 1.249 . S
O1302 Eu1280 2.471 . S
O1302 C1289 1.244 . S
O1303 Eu1280 2.349 . S
O1303 C1282 1.265 . S
C1304 C1305 1.379 . S
C1304 C1308 1.373 . S
C1304 C1310 1.505 . S
C1305 C1304 1.379 . S
C1305 C1307 1.369 . S
C1305 H1316 0.930 . S
C1306 C1308 1.383 . S
C1306 C1309 1.382 . S
C1306 H1317 0.930 . S
C1307 C1305 1.369 . S
C1307 C1309 1.392 . S
C1307 H1318 0.930 . S
C1308 C1304 1.373 . S
C1308 C1306 1.383 . S
C1308 H1319 0.931 . S
C1309 C1306 1.382 . S
C1309 C1307 1.392 . S
C1310 Eu1281 2.828 . S
C1310 O1294 1.249 . S
C1310 O1295 1.244 . S
C1310 C1304 1.505 . S
C1311 O1298 1.258 . S
C1311 O1299 1.242 . S
H1312 C1284 0.930 . S
H1313 C1285 0.930 . S
H1314 C1286 0.930 . S
H1315 C1287 0.931 . S
H1316 C1305 0.930 . S
H1317 C1306 0.930 . S
H1318 C1307 0.930 . S
H1319 C1308 0.931 . S
Eu1320 C1329 2.828 . S
Eu1320 O1331 2.392 . S
Eu1320 O1333 2.418 . S
Eu1320 O1338 2.373 . S
Eu1320 O1341 2.488 . S
Eu1320 O1342 2.471 . S
Eu1320 O1343 2.349 . S
Eu1321 O1330 2.373 . S
Eu1321 O1334 2.488 . S
Eu1321 O1335 2.471 . S
Eu1321 O1336 2.349 . S
Eu1321 O1339 2.392 . S
Eu1321 O1340 2.418 . S
Eu1321 C1350 2.828 . S
C1322 O1340 1.244 . S
C1322 O1343 1.265 . S
C1323 C1324 1.379 . S
C1323 C1327 1.373 . S
C1323 C1329 1.505 . S
C1324 C1323 1.379 . S
C1324 C1326 1.369 . S
C1324 H1352 0.930 . S
C1325 C1327 1.383 . S
C1325 C1328 1.382 . S
C1325 H1353 0.930 . S
C1326 C1324 1.369 . S
C1326 C1328 1.392 . S
C1326 H1354 0.930 . S
C1327 C1323 1.373 . S
C1327 C1325 1.383 . S
C1327 H1355 0.931 . S
C1328 C1325 1.382 . S
C1328 C1326 1.392 . S
C1329 Eu1320 2.828 . S
C1329 C1323 1.505 . S
C1329 O1341 1.249 . S
C1329 O1342 1.244 . S
O1330 Eu1321 2.373 . S
O1330 C1332 1.258 . S
O1331 Eu1320 2.392 . S
O1331 C1332 1.242 . S
C1332 O1330 1.258 . S
C1332 O1331 1.242 . S
O1333 Eu1320 2.418 . S
O1333 C1337 1.244 . S
O1334 Eu1321 2.488 . S
O1334 C1350 1.249 . S
O1335 Eu1321 2.471 . S
O1335 C1350 1.244 . S
O1336 Eu1321 2.349 . S
O1336 C1337 1.265 . S
C1337 O1333 1.244 . S
C1337 O1336 1.265 . S
O1338 Eu1320 2.373 . S
O1338 C1351 1.258 . S
O1339 Eu1321 2.392 . S
O1339 C1351 1.242 . S
O1340 Eu1321 2.418 . S
O1340 C1322 1.244 . S
O1341 Eu1320 2.488 . S
O1341 C1329 1.249 . S
O1342 Eu1320 2.471 . S
O1342 C1329 1.244 . S
O1343 Eu1320 2.349 . S
O1343 C1322 1.265 . S
C1344 C1345 1.379 . S
C1344 C1348 1.373 . S
C1344 C1350 1.505 . S
C1345 C1344 1.379 . S
C1345 C1347 1.369 . S
C1345 H1356 0.930 . S
C1346 C1348 1.383 . S
C1346 C1349 1.382 . S
C1346 H1357 0.930 . S
C1347 C1345 1.369 . S
C1347 C1349 1.392 . S
C1347 H1358 0.930 . S
C1348 C1344 1.373 . S
C1348 C1346 1.383 . S
C1348 H1359 0.931 . S
C1349 C1346 1.382 . S
C1349 C1347 1.392 . S
C1350 Eu1321 2.828 . S
C1350 O1334 1.249 . S
C1350 O1335 1.244 . S
C1350 C1344 1.505 . S
C1351 O1338 1.258 . S
C1351 O1339 1.242 . S
H1352 C1324 0.930 . S
H1353 C1325 0.930 . S
H1354 C1326 0.930 . S
H1355 C1327 0.931 . S
H1356 C1345 0.930 . S
H1357 C1346 0.930 . S
H1358 C1347 0.930 . S
H1359 C1348 0.931 . S
Eu1360 C1369 2.828 . S
Eu1360 O1371 2.392 . S
Eu1360 O1373 2.418 . S
Eu1360 O1378 2.373 . S
Eu1360 O1381 2.488 . S
Eu1360 O1382 2.471 . S
Eu1360 O1383 2.349 . S
Eu1361 O1370 2.373 . S
Eu1361 O1374 2.488 . S
Eu1361 O1375 2.471 . S
Eu1361 O1376 2.349 . S
Eu1361 O1379 2.392 . S
Eu1361 O1380 2.418 . S
Eu1361 C1390 2.828 . S
C1362 O1380 1.244 . S
C1362 O1383 1.265 . S
C1363 C1364 1.379 . S
C1363 C1367 1.373 . S
C1363 C1369 1.505 . S
C1364 C1363 1.379 . S
C1364 C1366 1.369 . S
C1364 H1392 0.930 . S
C1365 C1367 1.383 . S
C1365 C1368 1.382 . S
C1365 H1393 0.930 . S
C1366 C1364 1.369 . S
C1366 C1368 1.392 . S
C1366 H1394 0.930 . S
C1367 C1363 1.373 . S
C1367 C1365 1.383 . S
C1367 H1395 0.931 . S
C1368 C1365 1.382 . S
C1368 C1366 1.392 . S
C1369 Eu1360 2.828 . S
C1369 C1363 1.505 . S
C1369 O1381 1.249 . S
C1369 O1382 1.244 . S
O1370 Eu1361 2.373 . S
O1370 C1372 1.258 . S
O1371 Eu1360 2.392 . S
O1371 C1372 1.242 . S
C1372 O1370 1.258 . S
C1372 O1371 1.242 . S
O1373 Eu1360 2.418 . S
O1373 C1377 1.244 . S
O1374 Eu1361 2.488 . S
O1374 C1390 1.249 . S
O1375 Eu1361 2.471 . S
O1375 C1390 1.244 . S
O1376 Eu1361 2.349 . S
O1376 C1377 1.265 . S
C1377 O1373 1.244 . S
C1377 O1376 1.265 . S
O1378 Eu1360 2.373 . S
O1378 C1391 1.258 . S
O1379 Eu1361 2.392 . S
O1379 C1391 1.242 . S
O1380 Eu1361 2.418 . S
O1380 C1362 1.244 . S
O1381 Eu1360 2.488 . S
O1381 C1369 1.249 . S
O1382 Eu1360 2.471 . S
O1382 C1369 1.244 . S
O1383 Eu1360 2.349 . S
O1383 C1362 1.265 . S
C1384 C1385 1.379 . S
C1384 C1388 1.373 . S
C1384 C1390 1.505 . S
C1385 C1384 1.379 . S
C1385 C1387 1.369 . S
C1385 H1396 0.930 . S
C1386 C1388 1.383 . S
C1386 C1389 1.382 . S
C1386 H1397 0.930 . S
C1387 C1385 1.369 . S
C1387 C1389 1.392 . S
C1387 H1398 0.930 . S
C1388 C1384 1.373 . S
C1388 C1386 1.383 . S
C1388 H1399 0.931 . S
C1389 C1386 1.382 . S
C1389 C1387 1.392 . S
C1390 Eu1361 2.828 . S
C1390 O1374 1.249 . S
C1390 O1375 1.244 . S
C1390 C1384 1.505 . S
C1391 O1378 1.258 . S
C1391 O1379 1.242 . S
H1392 C1364 0.930 . S
H1393 C1365 0.930 . S
H1394 C1366 0.930 . S
H1395 C1367 0.931 . S
H1396 C1385 0.930 . S
H1397 C1386 0.930 . S
H1398 C1387 0.930 . S
H1399 C1388 0.931 . S
Eu1400 C1409 2.828 . S
Eu1400 O1411 2.392 . S
Eu1400 O1413 2.418 . S
Eu1400 O1418 2.373 . S
Eu1400 O1421 2.488 . S
Eu1400 O1422 2.471 . S
Eu1400 O1423 2.349 . S
Eu1401 O1410 2.373 . S
Eu1401 O1414 2.488 . S
Eu1401 O1415 2.471 . S
Eu1401 O1416 2.349 . S
Eu1401 O1419 2.392 . S
Eu1401 O1420 2.418 . S
Eu1401 C1430 2.828 . S
C1402 O1420 1.244 . S
C1402 O1423 1.265 . S
C1403 C1404 1.379 . S
C1403 C1407 1.373 . S
C1403 C1409 1.505 . S
C1404 C1403 1.379 . S
C1404 C1406 1.369 . S
C1404 H1432 0.930 . S
C1405 C1407 1.383 . S
C1405 C1408 1.382 . S
C1405 H1433 0.930 . S
C1406 C1404 1.369 . S
C1406 C1408 1.392 . S
C1406 H1434 0.930 . S
C1407 C1403 1.373 . S
C1407 C1405 1.383 . S
C1407 H1435 0.931 . S
C1408 C1405 1.382 . S
C1408 C1406 1.392 . S
C1409 Eu1400 2.828 . S
C1409 C1403 1.505 . S
C1409 O1421 1.249 . S
C1409 O1422 1.244 . S
O1410 Eu1401 2.373 . S
O1410 C1412 1.258 . S
O1411 Eu1400 2.392 . S
O1411 C1412 1.242 . S
C1412 O1410 1.258 . S
C1412 O1411 1.242 . S
O1413 Eu1400 2.418 . S
O1413 C1417 1.244 . S
O1414 Eu1401 2.488 . S
O1414 C1430 1.249 . S
O1415 Eu1401 2.471 . S
O1415 C1430 1.244 . S
O1416 Eu1401 2.349 . S
O1416 C1417 1.265 . S
C1417 O1413 1.244 . S
C1417 O1416 1.265 . S
O1418 Eu1400 2.373 . S
O1418 C1431 1.258 . S
O1419 Eu1401 2.392 . S
O1419 C1431 1.242 . S
O1420 Eu1401 2.418 . S
O1420 C1402 1.244 . S
O1421 Eu1400 2.488 . S
O1421 C1409 1.249 . S
O1422 Eu1400 2.471 . S
O1422 C1409 1.244 . S
O1423 Eu1400 2.349 . S
O1423 C1402 1.265 . S
C1424 C1425 1.379 . S
C1424 C1428 1.373 . S
C1424 C1430 1.505 . S
C1425 C1424 1.379 . S
C1425 C1427 1.369 . S
C1425 H1436 0.930 . S
C1426 C1428 1.383 . S
C1426 C1429 1.382 . S
C1426 H1437 0.930 . S
C1427 C1425 1.369 . S
C1427 C1429 1.392 . S
C1427 H1438 0.930 . S
C1428 C1424 1.373 . S
C1428 C1426 1.383 . S
C1428 H1439 0.931 . S
C1429 C1426 1.382 . S
C1429 C1427 1.392 . S
C1430 Eu1401 2.828 . S
C1430 O1414 1.249 . S
C1430 O1415 1.244 . S
C1430 C1424 1.505 . S
C1431 O1418 1.258 . S
C1431 O1419 1.242 . S
H1432 C1404 0.930 . S
H1433 C1405 0.930 . S
H1434 C1406 0.930 . S
H1435 C1407 0.931 . S
H1436 C1425 0.930 . S
H1437 C1426 0.930 . S
H1438 C1427 0.930 . S
H1439 C1428 0.931 . S
C781 C1092 2.523 . S
C871 C1132 2.110 . S
C751 C1162 2.473 . S
C691 C1122 2.067 . S
C1172 C571 1.706 . S
C601 C1082 2.443 . S
C1111 C661 2.298 . S
C1151 C541 2.028 . S
C631 C1177 2.703 1_554 S
C811 C1137 2.294 . S
C841 C1191 1.847 . S
C1097 C721 2.192 . S
C1212 C61 2.525 . S
C151 C1252 2.112 . S
C31 C1282 2.473 . S
C1051 C1242 2.068 . S
C931 C1292 1.705 . S
C961 C1202 2.444 . S
C1021 C1231 2.296 . S
C901 C1271 2.027 . S
C1297 C991 2.704 . S
C91 C1257 2.293 . S
C1311 C121 1.847 . S
C1 C1217 2.192 . S
C1332 C421 2.524 . S
C511 C1372 2.112 . S
C1402 C391 2.474 . S
C1362 C331 2.069 . S
C1412 C211 1.705 . S
C241 C1322 2.443 . S
C301 C1351 2.297 . S
C181 C1391 2.027 . S
C1417 C271 2.703 1_545 S
C451 C1377 2.293 . S
C481 C1431 1.847 . S
C361 C1337 2.193 . S
C920 C1109 1.489 1_565 S
C1149 C980 2.247 1_455 S
C1040 C1168 1.541 . S
C380 C1128 2.094 1_455 S
C440 C1189 1.628 . S
C1088 C500 1.626 1_565 S
C200 C1229 1.488 . S
C260 C1269 2.246 . S
C320 C1288 1.542 . S
C740 C1248 2.094 . S
C1309 C800 1.627 . S
C860 C1208 1.628 . S
C560 C1349 1.487 . S
C620 C1389 2.246 . S
C1408 C680 1.541 . S
C20 C1368 2.095 . S
C80 C1429 1.628 . S
C140 C1328 1.627 . S
