# Generated by pormake.
# Topology pto, (3,4)-cn, num edge types: 1
# Building blocks:
#     Node 0, Type 0, BuildingBlock: CUQRIR_clean_linker_1, # of connection points: 3
#     Node 1, Type 0, BuildingBlock: CUQRIR_clean_linker_1, # of connection points: 3
#     Node 2, Type 0, BuildingBlock: CUQRIR_clean_linker_1, # of connection points: 3
#     Node 3, Type 0, BuildingBlock: CUQRIR_clean_linker_1, # of connection points: 3
#     Node 4, Type 0, BuildingBlock: CUQRIR_clean_linker_1, # of connection points: 3
#     Node 5, Type 0, BuildingBlock: CUQRIR_clean_linker_1, # of connection points: 3
#     Node 6, Type 0, BuildingBlock: CUQRIR_clean_linker_1, # of connection points: 3
#     Node 7, Type 0, BuildingBlock: CUQRIR_clean_linker_1, # of connection points: 3
#     Node 8, Type 1, BuildingBlock: KOZSID_clean_sbu_0, # of connection points: 4
#     Node 9, Type 1, BuildingBlock: KOZSID_clean_sbu_0, # of connection points: 4
#     Node 10, Type 1, BuildingBlock: KOZSID_clean_sbu_0, # of connection points: 4
#     Node 11, Type 1, BuildingBlock: KOZSID_clean_sbu_0, # of connection points: 4
#     Node 12, Type 1, BuildingBlock: KOZSID_clean_sbu_0, # of connection points: 4
#     Node 13, Type 1, BuildingBlock: KOZSID_clean_sbu_0, # of connection points: 4
#     Edge 14, Type (0, 1), BuildingBlock: CIFDUS_clean_linker_0, # of connection points: 2
#     Edge 15, Type (0, 1), BuildingBlock: CIFDUS_clean_linker_0, # of connection points: 2
#     Edge 16, Type (0, 1), BuildingBlock: CIFDUS_clean_linker_0, # of connection points: 2
#     Edge 17, Type (0, 1), BuildingBlock: CIFDUS_clean_linker_0, # of connection points: 2
#     Edge 18, Type (0, 1), BuildingBlock: CIFDUS_clean_linker_0, # of connection points: 2
#     Edge 19, Type (0, 1), BuildingBlock: CIFDUS_clean_linker_0, # of connection points: 2
#     Edge 20, Type (0, 1), BuildingBlock: CIFDUS_clean_linker_0, # of connection points: 2
#     Edge 21, Type (0, 1), BuildingBlock: CIFDUS_clean_linker_0, # of connection points: 2
#     Edge 22, Type (0, 1), BuildingBlock: CIFDUS_clean_linker_0, # of connection points: 2
#     Edge 23, Type (0, 1), BuildingBlock: CIFDUS_clean_linker_0, # of connection points: 2
#     Edge 24, Type (0, 1), BuildingBlock: CIFDUS_clean_linker_0, # of connection points: 2
#     Edge 25, Type (0, 1), BuildingBlock: CIFDUS_clean_linker_0, # of connection points: 2
#     Edge 26, Type (0, 1), BuildingBlock: CIFDUS_clean_linker_0, # of connection points: 2
#     Edge 27, Type (0, 1), BuildingBlock: CIFDUS_clean_linker_0, # of connection points: 2
#     Edge 28, Type (0, 1), BuildingBlock: CIFDUS_clean_linker_0, # of connection points: 2
#     Edge 29, Type (0, 1), BuildingBlock: CIFDUS_clean_linker_0, # of connection points: 2
#     Edge 30, Type (0, 1), BuildingBlock: CIFDUS_clean_linker_0, # of connection points: 2
#     Edge 31, Type (0, 1), BuildingBlock: CIFDUS_clean_linker_0, # of connection points: 2
#     Edge 32, Type (0, 1), BuildingBlock: CIFDUS_clean_linker_0, # of connection points: 2
#     Edge 33, Type (0, 1), BuildingBlock: CIFDUS_clean_linker_0, # of connection points: 2
#     Edge 34, Type (0, 1), BuildingBlock: CIFDUS_clean_linker_0, # of connection points: 2
#     Edge 35, Type (0, 1), BuildingBlock: CIFDUS_clean_linker_0, # of connection points: 2
#     Edge 36, Type (0, 1), BuildingBlock: CIFDUS_clean_linker_0, # of connection points: 2
#     Edge 37, Type (0, 1), BuildingBlock: CIFDUS_clean_linker_0, # of connection points: 2
# Relax obj value: 0.021
# Max RMSD: 0.183
# Mean RMSD: 0.077
data_MOF--net-pto--node1-KOZSID_clean_sbu_0--node2-CUQRIR_clean_linker_1--edge1-CIFDUS_clean_linker_0
_symmetry_space_group_name_H-M    P1
_symmetry_Int_Tables_number       1
_symmetry_cell_setting            triclinic
loop_
_symmetry_equiv_pos_as_xyz
'x, y, z'
_cell_length_a     31.831448
_cell_length_b     40.830172
_cell_length_c     36.161904
_cell_angle_alpha  77.344707
_cell_angle_beta   92.074601
_cell_angle_gamma 99.294495
loop_
_atom_site_label
_atom_site_type_symbol
_atom_site_fract_x
_atom_site_fract_y
_atom_site_fract_z
_atom_type_partial_charge
C0 C 0.31296 0.28442 0.3113 0.0
N1 N 0.33544 0.26423 0.29759 0.0
N2 N 0.30393 0.31031 0.28344 0.0
C3 C 0.29826 0.27815 0.35171 0.0
C4 C 0.32143 0.30505 0.25204 0.0
N5 N 0.34038 0.27676 0.26054 0.0
C6 C 0.32373 0.32945 0.21411 0.0
H7 H 0.26883 0.28908 0.35337 0.0
H8 H 0.32348 0.29045 0.36845 0.0
H9 H 0.29218 0.25052 0.36452 0.0
H10 H 0.35443 0.33071 0.19987 0.0
H11 H 0.32012 0.35534 0.21699 0.0
H12 H 0.29757 0.32042 0.19589 0.0
C13 C 0.2992 0.75903 0.70866 0.0
N14 N 0.32836 0.77941 0.72515 0.0
N15 N 0.29095 0.7275 0.73097 0.0
C16 C 0.27676 0.77054 0.67182 0.0
C17 C 0.3155 0.72946 0.76194 0.0
N18 N 0.33789 0.76121 0.75878 0.0
C19 C 0.31717 0.70017 0.79521 0.0
H20 H 0.267 0.79562 0.6708 0.0
H21 H 0.24845 0.75203 0.66756 0.0
H22 H 0.29901 0.77351 0.64799 0.0
H23 H 0.34891 0.70209 0.809 0.0
H24 H 0.31013 0.67555 0.78628 0.0
H25 H 0.29273 0.70042 0.8162 0.0
C26 C 0.88188 0.79093 0.35508 0.0
N27 N 0.86941 0.77108 0.32988 0.0
N28 N 0.85606 0.81464 0.35319 0.0
C29 C 0.91838 0.78653 0.38228 0.0
C30 C 0.82734 0.80828 0.32603 0.0
N31 N 0.83527 0.7817 0.31207 0.0
C32 C 0.79312 0.82933 0.31154 0.0
H33 H 0.92315 0.75955 0.39007 0.0
H34 H 0.913 0.79551 0.40828 0.0
H35 H 0.94786 0.80184 0.36838 0.0
H36 H 0.80147 0.85541 0.31667 0.0
H37 H 0.76296 0.81707 0.32657 0.0
H38 H 0.78774 0.83086 0.28076 0.0
C39 C 0.79385 0.22958 0.77472 0.0
N40 N 0.82551 0.24437 0.74937 0.0
N41 N 0.78269 0.25239 0.79311 0.0
C42 C 0.77509 0.19246 0.78321 0.0
C43 C 0.80866 0.28162 0.77834 0.0
N44 N 0.83475 0.2768 0.75192 0.0
C45 C 0.80655 0.31569 0.78728 0.0
H46 H 0.74698 0.18845 0.76475 0.0
H47 H 0.76433 0.18402 0.81313 0.0
H48 H 0.79861 0.1767 0.77791 0.0
H49 H 0.83918 0.32927 0.79037 0.0
H50 H 0.78814 0.31359 0.81328 0.0
H51 H 0.79109 0.33133 0.76328 0.0
C52 C 0.82084 0.74719 0.79136 0.0
N53 N 0.83903 0.76249 0.75729 0.0
N54 N 0.81833 0.77012 0.8127 0.0
C55 C 0.80814 0.7094 0.80463 0.0
C56 C 0.83566 0.80005 0.79054 0.0
N57 N 0.84771 0.79578 0.75633 0.0
C58 C 0.84216 0.83326 0.80331 0.0
H59 H 0.78749 0.69929 0.78299 0.0
H60 H 0.79128 0.70267 0.83221 0.0
H61 H 0.83706 0.69706 0.80766 0.0
H62 H 0.86533 0.8528 0.78507 0.0
H63 H 0.85414 0.8296 0.83285 0.0
H64 H 0.81116 0.84245 0.80297 0.0
C65 C 0.87136 0.26233 0.24304 0.0
N66 N 0.89269 0.26602 0.27563 0.0
N67 N 0.853 0.28982 0.22758 0.0
C68 C 0.87065 0.23235 0.22479 0.0
C69 C 0.867 0.31181 0.24996 0.0
N70 N 0.89129 0.29778 0.279 0.0
C71 C 0.86018 0.34844 0.2408 0.0
H72 H 0.89039 0.21383 0.24053 0.0
H73 H 0.88394 0.24139 0.19578 0.0
H74 H 0.83739 0.21966 0.22245 0.0
H75 H 0.84017 0.35296 0.2631 0.0
H76 H 0.8444 0.35505 0.2129 0.0
H77 H 0.89113 0.36556 0.2401 0.0
C78 C 0.24193 0.2711 0.74794 0.0
N79 N 0.26497 0.24616 0.74702 0.0
N80 N 0.22557 0.28259 0.71331 0.0
C81 C 0.23842 0.28625 0.78192 0.0
C82 C 0.24013 0.26404 0.6911 0.0
N83 N 0.26442 0.24203 0.71155 0.0
C84 C 0.22881 0.26624 0.65002 0.0
H85 H 0.21084 0.27151 0.79928 0.0
H86 H 0.23342 0.31313 0.77326 0.0
H87 H 0.26739 0.28501 0.79985 0.0
H88 H 0.25483 0.28312 0.63233 0.0
H89 H 0.19887 0.27691 0.64296 0.0
H90 H 0.22527 0.24079 0.64302 0.0
C91 C 0.33234 0.78616 0.33035 0.0
N92 N 0.33892 0.76956 0.30295 0.0
N93 N 0.36581 0.81067 0.33285 0.0
C94 C 0.29404 0.77751 0.35589 0.0
C95 C 0.39318 0.80836 0.30601 0.0
N96 N 0.37705 0.78315 0.28794 0.0
C97 C 0.43351 0.83303 0.29495 0.0
H98 H 0.26887 0.79195 0.34218 0.0
H99 H 0.30211 0.78454 0.38354 0.0
H100 H 0.28123 0.74997 0.36081 0.0
H101 H 0.4324 0.85751 0.30315 0.0
H102 H 0.43901 0.83799 0.26396 0.0
H103 H 0.46077 0.82196 0.30975 0.0
C104 C 0.17305 0.58034 0.33145 0.0
C105 C 0.19318 0.58764 0.36415 0.0
C106 C 0.16647 0.57194 0.39383 0.0
C107 C 0.13157 0.55596 0.37786 0.0
N108 N 0.13489 0.56012 0.34 0.0
Co109 Co 0.09025 0.5424 0.30637 0.0
N110 N 0.05994 0.5099 0.34973 0.0
C111 C 0.06399 0.51171 0.38639 0.0
C112 C 0.04017 0.48469 0.41005 0.0
C113 C 0.02004 0.46464 0.38676 0.0
C114 C 0.03262 0.48072 0.35004 0.0
N115 N 0.04571 0.52409 0.27328 0.0
C116 C 0.01989 0.49357 0.27986 0.0
C117 C 0.99409 0.49022 0.24874 0.0
C118 C 0.00459 0.51968 0.22176 0.0
C119 C 0.03603 0.53936 0.23789 0.0
N120 N 0.11999 0.57512 0.26275 0.0
C121 C 0.10291 0.5846 0.22814 0.0
C122 C 0.13029 0.6082 0.20365 0.0
C123 C 0.16653 0.61443 0.2243 0.0
C124 C 0.15915 0.59442 0.26053 0.0
N125 N 0.12404 0.50804 0.29997 0.0
C126 C 0.16677 0.45562 0.29015 0.0
C127 C 0.15004 0.47656 0.25907 0.0
C128 C 0.12898 0.50252 0.26455 0.0
C129 C 0.16263 0.46215 0.32626 0.0
C130 C 0.14118 0.48847 0.33055 0.0
N131 N 0.05628 0.57725 0.31212 0.0
C132 C 0.98844 0.59619 0.3142 0.0
C133 C 0.00867 0.62994 0.31131 0.0
C134 C 0.05327 0.63608 0.31082 0.0
C135 C 0.0762 0.60975 0.3109 0.0
C136 C 0.01282 0.57022 0.31484 0.0
H137 H 0.11023 0.6162 0.30898 0.0
H138 H 0.99647 0.54463 0.31646 0.0
H139 H 0.11601 0.51776 0.24004 0.0
H140 H 0.13773 0.49256 0.35867 0.0
C141 C 0.09728 0.53421 0.39775 0.0
C142 C 0.18796 0.59748 0.29287 0.0
C143 C 0.01772 0.46834 0.31592 0.0
C144 C 0.06323 0.56799 0.21853 0.0
H145 H 0.22329 0.60372 0.36635 0.0
H146 H 0.17198 0.57206 0.42351 0.0
H147 H 0.03966 0.47902 0.44072 0.0
H148 H 0.99923 0.44068 0.39589 0.0
H149 H 0.9705 0.46867 0.24578 0.0
H150 H 0.99245 0.52519 0.19309 0.0
H151 H 0.12486 0.61919 0.17415 0.0
H152 H 0.19475 0.63235 0.21413 0.0
H153 H 0.15315 0.47296 0.23056 0.0
H154 H 0.17487 0.44653 0.35116 0.0
H155 H 0.95407 0.58993 0.31482 0.0
H156 H 0.07075 0.66129 0.30995 0.0
C157 C 0.09808 0.55278 0.73741 0.0
C158 C 0.10979 0.55658 0.77383 0.0
C159 C 0.07391 0.54601 0.79579 0.0
C160 C 0.0424 0.53607 0.77184 0.0
N161 N 0.05651 0.53914 0.73631 0.0
Co162 Co 0.0212 0.52804 0.69318 0.0
N163 N 0.97553 0.50072 0.72749 0.0
C164 C 0.969 0.50245 0.76345 0.0
C165 C 0.9356 0.47865 0.7801 0.0
C166 C 0.92068 0.46085 0.75285 0.0
C167 C 0.94602 0.47484 0.72117 0.0
N168 N 0.98516 0.51676 0.65057 0.0
C169 C 0.95503 0.48926 0.65073 0.0
C170 C 0.93967 0.48879 0.61445 0.0
C171 C 0.96118 0.51722 0.59095 0.0
C172 C 0.98857 0.53327 0.61408 0.0
N173 N 0.06694 0.55505 0.65831 0.0
C174 C 0.06243 0.56706 0.62082 0.0
C175 C 0.09919 0.58574 0.60398 0.0
C176 C 0.12838 0.586 0.63277 0.0
C177 C 0.10775 0.56737 0.66579 0.0
N178 N 0.04743 0.48725 0.69616 0.0
C179 C 0.08347 0.42794 0.7012 0.0
C180 C 0.07885 0.44985 0.66604 0.0
C181 C 0.06076 0.47928 0.66414 0.0
C182 C 0.06984 0.43665 0.73371 0.0
C183 C 0.05205 0.46623 0.7306 0.0
N184 N 0.99523 0.56922 0.69075 0.0
C185 C 0.00468 0.62799 0.69527 0.0
C186 C 0.96076 0.62667 0.69903 0.0
C187 C 0.93412 0.59642 0.69566 0.0
C188 C 0.95199 0.56809 0.69118 0.0
C189 C 0.02108 0.59923 0.69166 0.0
H190 H 0.93092 0.54487 0.68962 0.0
H191 H 0.05507 0.60123 0.69116 0.0
H192 H 0.05729 0.49547 0.6367 0.0
H193 H 0.04187 0.47203 0.7562 0.0
C194 C 1.00089 0.52006 0.78265 0.0
C195 C 0.12552 0.5671 0.70399 0.0
C196 C 0.94135 0.46375 0.68518 0.0
C197 C 0.02481 0.55719 0.60191 0.0
H198 H 0.14073 0.56705 0.78324 0.0
H199 H 0.07131 0.54525 0.82574 0.0
H200 H 0.92527 0.4732 0.8093 0.0
H201 H 0.89488 0.43962 0.75608 0.0
H202 H 0.91652 0.46958 0.60557 0.0
H203 H 0.95952 0.52374 0.56032 0.0
H204 H 0.10431 0.59755 0.5743 0.0
H205 H 0.16069 0.59948 0.62998 0.0
H206 H 0.08856 0.4441 0.64008 0.0
H207 H 0.07335 0.42095 0.76161 0.0
H208 H 0.02674 0.65092 0.69637 0.0
H209 H 0.89992 0.59406 0.69815 0.0
C210 C 0.40038 0.98748 0.58547 0.0
C211 C 0.4394 0.98303 0.60247 0.0
C212 C 0.46798 0.01086 0.58596 0.0
C213 C 0.44477 0.03065 0.56001 0.0
N214 N 0.40348 0.01699 0.55926 0.0
Co215 Co 0.35874 0.03648 0.52602 0.0
N216 N 0.40172 0.06677 0.49043 0.0
C217 C 0.44365 0.07418 0.49757 0.0
C218 C 0.46601 0.09449 0.46702 0.0
C219 C 0.43628 0.10073 0.43913 0.0
C220 C 0.39706 0.08426 0.45445 0.0
N221 N 0.31374 0.05602 0.49295 0.0
C222 C 0.31626 0.07571 0.45737 0.0
C223 C 0.27704 0.08548 0.44608 0.0
C224 C 0.24945 0.07165 0.47562 0.0
C225 C 0.27307 0.05435 0.50336 0.0
N226 N 0.31608 1.00618 0.5619 0.0
C227 C 0.27526 0.0099 0.56506 0.0
C228 C 0.2533 0.98436 0.59187 0.0
C229 C 0.28225 0.96336 0.6065 0.0
C230 C 0.32041 0.97749 0.58785 0.0
N231 N 0.35998 0.07207 0.55515 0.0
C232 C 0.35188 0.1221 0.59605 0.0
C233 C 0.35558 0.0887 0.61484 0.0
C234 C 0.35961 0.06417 0.59395 0.0
C235 C 0.35391 0.12992 0.5563 0.0
C236 C 0.35832 0.10483 0.5366 0.0
N237 N 0.3569 1.00102 0.49681 0.0
C238 C 0.31583 0.9595 0.46626 0.0
C239 C 0.3529 0.95207 0.45216 0.0
C240 C 0.39219 0.96924 0.46194 0.0
C241 C 0.39349 0.99343 0.48434 0.0
C242 C 0.3185 0.98401 0.48819 0.0
H243 H 0.42412 1.00633 0.49112 0.0
H244 H 0.28928 0.98935 0.49793 0.0
H245 H 0.36146 0.03858 0.60921 0.0
H246 H 0.35904 0.1119 0.50613 0.0
C247 C 0.46168 0.05771 0.53099 0.0
C248 C 0.36065 0.9642 0.59597 0.0
C249 C 0.356 0.08939 0.43573 0.0
C250 C 0.2572 0.03341 0.53762 0.0
H251 H 0.44639 0.96183 0.62429 0.0
H252 H 0.50197 0.01521 0.59089 0.0
H253 H 0.50003 0.10297 0.46487 0.0
H254 H 0.44266 0.11632 0.411 0.0
H255 H 0.26923 0.10179 0.41978 0.0
H256 H 0.21606 0.07375 0.47657 0.0
H257 H 0.21976 0.98044 0.5986 0.0
H258 H 0.27575 0.94027 0.62813 0.0
H259 H 0.35508 0.08137 0.64548 0.0
H260 H 0.35065 0.15503 0.54013 0.0
H261 H 0.28469 0.94649 0.46046 0.0
H262 H 0.42179 0.96472 0.45166 0.0
C263 C 0.53759 0.79672 0.09387 0.0
C264 C 0.53127 0.82877 0.09724 0.0
C265 C 0.55057 0.85134 0.06646 0.0
C266 C 0.56749 0.83184 0.04614 0.0
N267 N 0.56012 0.79849 0.06221 0.0
Co268 Co 0.57929 0.76146 0.0427 0.0
N269 N 0.62227 0.79406 0.00882 0.0
C270 C 0.62311 0.82798 0.99871 0.0
C271 C 0.65518 0.84417 0.97378 0.0
C272 C 0.67539 0.81887 0.96715 0.0
C273 C 0.65443 0.78846 0.98851 0.0
N274 N 0.59855 0.72412 0.02371 0.0
C275 C 0.63319 0.72432 1.0028 0.0
C276 C 0.63411 0.69234 0.99576 0.0
C277 C 0.5982 0.67175 0.01176 0.0
C278 C 0.57755 0.69211 0.02791 0.0
N279 N 0.53563 0.72914 0.07602 0.0
C280 C 0.52027 0.69711 0.0731 0.0
C281 C 0.49039 0.68091 0.10026 0.0
C282 C 0.48671 0.70423 0.12159 0.0
C283 C 0.51466 0.7334 0.10612 0.0
N284 N 0.53722 0.76671 1.0016 0.0
C285 C 0.47686 0.7736 0.94265 0.0
C286 C 0.51804 0.76793 0.93627 0.0
C287 C 0.54762 0.76495 0.9658 0.0
C288 C 0.46696 0.77618 0.97937 0.0
C289 C 0.49727 0.7723 0.00837 0.0
N290 N 0.62119 0.75641 0.08381 0.0
C291 C 0.64951 0.72194 0.13889 0.0
C292 C 0.67589 0.75058 0.14657 0.0
C293 C 0.67529 0.78198 0.12167 0.0
C294 C 0.64746 0.78441 0.09075 0.0
C295 C 0.62292 0.7253 0.10703 0.0
H296 H 0.64644 0.80919 0.0731 0.0
H297 H 0.603 0.70283 0.10176 0.0
H298 H 0.57882 0.76086 0.95952 0.0
H299 H 0.48823 0.77373 0.03634 0.0
C300 C 0.59619 0.84403 0.01607 0.0
C301 C 0.51949 0.76502 0.1197 0.0
C302 C 0.66213 0.75491 0.9843 0.0
C303 C 0.54057 0.68135 0.04984 0.0
H304 H 0.51442 0.83511 0.11952 0.0
H305 H 0.55338 0.87876 0.0605 0.0
H306 H 0.66314 0.87115 0.962 0.0
H307 H 0.70167 0.82237 0.94779 0.0
H308 H 0.65751 0.685 0.97949 0.0
H309 H 0.58844 0.6451 0.01176 0.0
H310 H 0.47477 0.65475 0.10521 0.0
H311 H 0.46612 0.70014 0.14588 0.0
H312 H 0.52741 0.76496 0.90888 0.0
H313 H 0.43599 0.78112 0.98593 0.0
H314 H 0.64922 0.6972 0.15752 0.0
H315 H 0.69494 0.80476 0.12693 0.0
C316 C 0.91422 0.98936 0.59709 0.0
C317 C 0.94766 0.97991 0.62069 0.0
C318 C 0.98151 1.00547 0.61153 0.0
C319 C 0.96696 0.02926 0.58326 0.0
N320 N 0.92604 0.02035 0.57389 0.0
Co321 Co 0.89245 0.04923 0.53641 0.0
N322 N 0.94472 0.07961 0.51309 0.0
C323 C 0.98438 0.07985 0.52742 0.0
C324 C 0.01474 0.10124 0.50396 0.0
C325 C 0.99284 0.11603 0.47322 0.0
C326 C 0.94996 0.10344 0.48005 0.0
N327 N 0.85842 0.07876 0.50015 0.0
C328 C 0.87101 0.10601 0.4716 0.0
C329 C 0.83721 0.12358 0.4594 0.0
C330 C 0.80239 0.10633 0.48003 0.0
C331 C 0.81673 0.07976 0.50428 0.0
N332 N 0.84044 0.0182 0.55886 0.0
C333 C 0.8001 0.02422 0.55324 0.0
C334 C 0.77038 0.99657 0.56773 0.0
C335 C 0.79337 0.97161 0.58401 0.0
C336 C 0.83614 0.98577 0.57955 0.0
N337 N 0.88938 0.07845 0.57261 0.0
C338 C 0.87354 0.12102 0.61996 0.0
C339 C 0.86514 0.08563 0.63234 0.0
C340 C 0.87404 0.06478 0.6085 0.0
C341 C 0.89202 0.13469 0.58442 0.0
C342 C 0.89943 0.11307 0.56116 0.0
N343 N 0.89504 0.02 0.50032 0.0
C344 C 0.85884 0.98557 0.45893 0.0
C345 C 0.89553 0.97129 0.45603 0.0
C346 C 0.93246 0.98315 0.47462 0.0
C347 C 0.93159 1.00749 0.49638 0.0
C348 C 0.8593 0.00982 0.48102 0.0
H349 H 0.96028 0.0154 0.5109 0.0
H350 H 0.83029 0.01965 0.48324 0.0
H351 H 0.86702 0.03762 0.61867 0.0
H352 H 0.91171 0.12475 0.53331 0.0
C353 C 0.99232 0.05709 0.56083 0.0
C354 C 0.87125 0.96918 0.5991 0.0
C355 C 0.91502 0.11765 0.45735 0.0
C356 C 0.79134 0.05396 0.52925 0.0
H357 H 0.94781 0.95704 0.64242 0.0
H358 H 0.01335 1.00606 0.62321 0.0
H359 H 0.04886 0.10508 0.50826 0.0
H360 H 0.00704 0.13441 0.44895 0.0
H361 H 0.8375 0.14711 0.43867 0.0
H362 H 0.77049 0.11258 0.47779 0.0
H363 H 0.73608 0.99434 0.56536 0.0
H364 H 0.77995 0.94603 0.59802 0.0
H365 H 0.85089 0.07421 0.65984 0.0
H366 H 0.89868 0.16196 0.57387 0.0
H367 H 0.82976 0.97794 0.44442 0.0
H368 H 0.96162 0.97293 0.47348 0.0
C369 C 0.47613 0.27988 0.05864 0.0
C370 C 0.46512 0.31093 0.0609 0.0
C371 C 0.48768 0.33492 0.03343 0.0
C372 C 0.51104 0.31727 0.01596 0.0
N373 N 0.50467 0.28337 0.03052 0.0
Co374 Co 0.53205 0.24829 0.01328 0.0
N375 N 0.56919 0.28405 0.97621 0.0
C376 C 0.57072 0.3181 0.97039 0.0
C377 C 0.60075 0.33633 0.94444 0.0
C378 C 0.62002 0.31254 0.93337 0.0
C379 C 0.60049 0.28104 0.9533 0.0
N380 N 0.55797 0.21308 0.99494 0.0
C381 C 0.58898 0.21672 0.96897 0.0
C382 C 0.5972 0.18546 0.96438 0.0
C383 C 0.57046 0.16122 0.98834 0.0
C384 C 0.54755 0.17895 0.00611 0.0
N385 N 0.4965 0.21269 0.05183 0.0
C386 C 0.49592 0.17872 0.05849 0.0
C387 C 0.47005 0.16075 0.08797 0.0
C388 C 0.45342 0.1847 0.10132 0.0
C389 C 0.47012 0.21599 0.07902 0.0
N390 N 0.48686 0.24511 0.97398 0.0
C391 C 0.43432 0.23993 0.91026 0.0
C392 C 0.4375 0.21134 0.939 0.0
C393 C 0.46375 0.21449 0.97047 0.0
C394 C 0.45534 0.27137 0.91534 0.0
C395 C 0.48071 0.27341 0.94725 0.0
N396 N 0.57797 0.2516 0.05151 0.0
C397 C 0.63502 0.22744 0.088 0.0
C398 C 0.65253 0.25913 0.09497 0.0
C399 C 0.63082 0.28648 0.08194 0.0
C400 C 0.59396 0.28226 0.06025 0.0
C401 C 0.5974 0.22411 0.067 0.0
H402 H 0.57976 0.30443 0.0499 0.0
H403 H 0.58518 0.19925 0.0628 0.0
H404 H 0.46558 0.19169 0.99105 0.0
H405 H 0.49578 0.29817 0.94907 0.0
C406 C 0.54269 0.3321 0.98896 0.0
C407 C 0.45982 0.24805 0.08476 0.0
C408 C 0.61273 0.24906 0.94935 0.0
C409 C 0.51948 0.16445 0.03614 0.0
H410 H 0.44372 0.31583 0.08093 0.0
H411 H 0.48817 0.36213 0.02777 0.0
H412 H 0.60779 0.36366 0.93474 0.0
H413 H 0.64557 0.31777 0.91293 0.0
H414 H 0.62076 0.18065 0.94624 0.0
H415 H 0.56892 0.13393 0.99316 0.0
H416 H 0.4641 0.13349 0.09857 0.0
H417 H 0.43154 0.17974 0.12485 0.0
H418 H 0.42107 0.1865 0.93662 0.0
H419 H 0.45255 0.29444 0.8945 0.0
H420 H 0.65043 0.20541 0.09852 0.0
H421 H 0.64318 0.3114 0.08715 0.0
H422 H 0.23403 0.33039 0.24797 0.0
H423 H 0.33078 0.35372 0.32851 0.0
H424 H 0.29676 0.40093 0.33827 0.0
H425 H 0.23919 0.43537 0.32388 0.0
H426 H 0.14127 0.41125 0.24405 0.0
H427 H 0.176 0.36492 0.23366 0.0
C428 C 0.24755 0.34609 0.2674 0.0
C429 C 0.28459 0.33883 0.2876 0.0
C430 C 0.22762 0.37299 0.27294 0.0
C431 C 0.30204 0.35896 0.31295 0.0
C432 C 0.28264 0.38586 0.31845 0.0
C433 C 0.22525 0.4198 0.30447 0.0
C434 C 0.18775 0.42695 0.28469 0.0
C435 C 0.24526 0.39301 0.29876 0.0
C436 C 0.17046 0.40671 0.25924 0.0
C437 C 0.19017 0.38006 0.2534 0.0
H438 H 0.2974 0.66741 0.71484 0.0
H439 H 0.20826 0.72867 0.73893 0.0
H440 H 0.14861 0.68413 0.73224 0.0
H441 H 0.12223 0.62799 0.71939 0.0
H442 H 0.21039 0.56527 0.69655 0.0
H443 H 0.27049 0.60998 0.70269 0.0
C444 C 0.2648 0.67065 0.71861 0.0
C445 C 0.25665 0.70095 0.72715 0.0
C446 C 0.2309 0.64481 0.71493 0.0
C447 C 0.21466 0.70539 0.73216 0.0
C448 C 0.18082 0.68003 0.72837 0.0
C449 C 0.15469 0.62418 0.71593 0.0
C450 C 0.16231 0.59358 0.70784 0.0
C451 C 0.18859 0.6497 0.71974 0.0
C452 C 0.20419 0.58873 0.70302 0.0
C453 C 0.23834 0.61421 0.70652 0.0
H454 H 0.93796 0.76971 0.28995 0.0
H455 H 0.83938 0.70646 0.3627 0.0
H456 H 0.87264 0.65608 0.36282 0.0
H457 H 0.93272 0.63101 0.34517 0.0
H458 H 0.02911 0.69469 0.26895 0.0
H459 H 0.99421 0.74369 0.26736 0.0
C460 C 0.92371 0.74471 0.30527 0.0
C461 C 0.8865 0.74139 0.32622 0.0
C462 C 0.94296 0.71605 0.30497 0.0
C463 C 0.86799 0.70918 0.34626 0.0
C464 C 0.88711 0.68056 0.34642 0.0
C465 C 0.94581 0.65543 0.32774 0.0
C466 C 0.98429 0.65898 0.30801 0.0
C467 C 0.92502 0.68374 0.32627 0.0
C468 C 1.00047 0.69111 0.28559 0.0
C469 C 0.9803 0.71928 0.28431 0.0
H470 H 0.81707 0.32588 0.69467 0.0
H471 H 0.91854 0.28923 0.765 0.0
H472 H 0.9643 0.34415 0.74486 0.0
H473 H 0.97005 0.40545 0.71693 0.0
H474 H 0.86422 0.44398 0.65433 0.0
H475 H 0.82531 0.38612 0.66158 0.0
C476 C 0.84993 0.32969 0.70398 0.0
C477 C 0.86508 0.30332 0.73013 0.0
C478 C 0.87465 0.36216 0.69454 0.0
C479 C 0.90699 0.30868 0.74353 0.0
C480 C 0.9327 0.34037 0.73276 0.0
C481 C 0.93886 0.40092 0.70417 0.0
C482 C 0.92025 0.42869 0.6845 0.0
C483 C 0.91612 0.36771 0.70973 0.0
C484 C 0.87957 0.42286 0.66865 0.0
C485 C 0.8572 0.38981 0.67312 0.0
H486 H 0.31694 0.19904 0.29073 0.0
H487 H 0.39018 0.26525 0.35517 0.0
H488 H 0.40512 0.21627 0.40332 0.0
H489 H 0.3892 0.15539 0.43087 0.0
H490 H 0.31952 0.0876 0.36614 0.0
H491 H 0.31057 0.13623 0.31433 0.0
C492 C 0.33717 0.20243 0.31481 0.0
C493 C 0.35214 0.23545 0.31994 0.0
C494 C 0.34536 0.17399 0.34252 0.0
C495 C 0.37821 0.2399 0.35114 0.0
C496 C 0.38646 0.21198 0.37866 0.0
C497 C 0.37317 0.15118 0.40494 0.0
C498 C 0.35519 0.11805 0.40212 0.0
C499 C 0.36897 0.17901 0.37529 0.0
C500 C 0.33368 0.11296 0.36875 0.0
C501 C 0.32857 0.14072 0.33924 0.0
H502 H 0.32039 0.75531 0.83206 0.0
H503 H 0.41899 0.79349 0.74829 0.0
H504 H 0.47048 0.80483 0.79798 0.0
H505 H 0.48854 0.79799 0.8658 0.0
H506 H 0.39061 0.75188 0.94948 0.0
H507 H 0.33791 0.7497 0.89951 0.0
C508 C 0.3532 0.76612 0.82483 0.0
C509 C 0.36625 0.77299 0.78683 0.0
C510 C 0.38278 0.77087 0.85364 0.0
C511 C 0.40839 0.788 0.77743 0.0
C512 C 0.43781 0.79412 0.80587 0.0
C513 C 0.4558 0.7872 0.8733 0.0
C514 C 0.44408 0.77495 0.91178 0.0
C515 C 0.42563 0.78459 0.84422 0.0
C516 C 0.40096 0.76205 0.92048 0.0
C517 C 0.37063 0.76044 0.89179 0.0
H518 H 0.92136 0.86446 0.35775 0.0
H519 H 0.79421 0.82238 0.39758 0.0
H520 H 0.79493 0.86717 0.43316 0.0
H521 H 0.83172 0.91842 0.4526 0.0
H522 H 0.95844 0.96189 0.4111 0.0
H523 H 0.95827 0.91639 0.37708 0.0
C524 C 0.8941 0.86512 0.37454 0.0
C525 C 0.85779 0.84029 0.37527 0.0
C526 C 0.8947 0.89119 0.39458 0.0
C527 C 0.82235 0.8414 0.39668 0.0
C528 C 0.82282 0.86696 0.41694 0.0
C529 C 0.85916 0.91826 0.43577 0.0
C530 C 0.89502 0.94378 0.43454 0.0
C531 C 0.85872 0.89214 0.41592 0.0
C532 C 0.93055 0.94251 0.41309 0.0
C533 C 0.93043 0.91653 0.3934 0.0
H534 H 0.78643 0.2605 0.86472 0.0
H535 H 0.70031 0.23401 0.77773 0.0
H536 H 0.63922 0.22945 0.81909 0.0
H537 H 0.61049 0.2356 0.8793 0.0
H538 H 0.69655 0.26368 0.96575 0.0
H539 H 0.75776 0.26561 0.92549 0.0
C540 C 0.75418 0.2537 0.85514 0.0
C541 C 0.74742 0.24778 0.81845 0.0
C542 C 0.71947 0.25176 0.87884 0.0
C543 C 0.70583 0.23858 0.80603 0.0
C544 C 0.67109 0.23618 0.82953 0.0
C545 C 0.64275 0.24198 0.88914 0.0
C546 C 0.64948 0.24949 0.92513 0.0
C547 C 0.67751 0.2431 0.86583 0.0
C548 C 0.69109 0.25785 0.93798 0.0
C549 C 0.72589 0.2589 0.91505 0.0
H550 H 0.36609 0.80824 0.65866 0.0
H551 H 0.31889 0.83057 0.75879 0.0
H552 H 0.32765 0.8913 0.72841 0.0
H553 H 0.34167 0.93697 0.67046 0.0
H554 H 0.38397 0.91323 0.56901 0.0
H555 H 0.38394 0.85406 0.60225 0.0
C556 C 0.35828 0.82662 0.6738 0.0
C557 C 0.3417 0.81525 0.71065 0.0
C558 C 0.36174 0.861 0.65555 0.0
C559 C 0.33207 0.83901 0.73048 0.0
C560 C 0.33657 0.87356 0.71293 0.0
C561 C 0.35072 0.91867 0.65581 0.0
C562 C 0.36182 0.9289 0.61724 0.0
C563 C 0.35009 0.88467 0.67504 0.0
C564 C 0.3747 0.90551 0.59858 0.0
C565 C 0.37476 0.87183 0.61757 0.0
H566 H 0.75465 0.7511 0.30905 0.0
H567 H 0.86899 0.78883 0.24342 0.0
H568 H 0.8301 0.78069 0.18538 0.0
H569 H 0.76154 0.76831 0.15279 0.0
H570 H 0.64748 0.72871 0.21897 0.0
H571 H 0.68784 0.73181 0.27741 0.0
C572 C 0.77096 0.75665 0.28205 0.0
C573 C 0.81438 0.7704 0.28011 0.0
C574 C 0.74827 0.75198 0.24901 0.0
C575 C 0.8356 0.77786 0.24526 0.0
C576 C 0.81329 0.77352 0.21218 0.0
C577 C 0.74581 0.75993 0.18011 0.0
C578 C 0.70167 0.7485 0.18174 0.0
C579 C 0.76935 0.76146 0.21357 0.0
C580 C 0.68149 0.73748 0.21718 0.0
C581 C 0.70451 0.73938 0.25053 0.0
H582 H 0.7804 0.21003 0.70228 0.0
H583 H 0.90843 0.24149 0.7372 0.0
H584 H 0.93557 0.20764 0.69801 0.0
H585 H 0.92182 0.16497 0.6575 0.0
H586 H 0.79239 0.12805 0.63038 0.0
H587 H 0.76644 0.16688 0.66381 0.0
C588 C 0.81425 0.20944 0.70123 0.0
C589 C 0.84238 0.22845 0.7224 0.0
C590 C 0.82913 0.18817 0.68071 0.0
C591 C 0.88622 0.22789 0.72045 0.0
C592 C 0.90163 0.20798 0.69855 0.0
C593 C 0.888 0.1655 0.65916 0.0
C594 C 0.85888 0.14364 0.6419 0.0
C595 C 0.87328 0.1874 0.67921 0.0
C596 C 0.81515 0.14444 0.64393 0.0
C597 C 0.8004 0.16675 0.66279 0.0
H598 H 0.31611 0.26187 0.19366 0.0
H599 H 0.4223 0.2672 0.2703 0.0
H600 H 0.4687 0.25596 0.22334 0.0
H601 H 0.48027 0.24994 0.15786 0.0
H602 H 0.37448 0.24726 0.08042 0.0
H603 H 0.3266 0.25249 0.12975 0.0
C604 C 0.34933 0.26016 0.20003 0.0
C605 C 0.36591 0.26529 0.23522 0.0
C606 C 0.37587 0.25466 0.17249 0.0
C607 C 0.40885 0.26287 0.24353 0.0
C608 C 0.43541 0.25683 0.21654 0.0
C609 C 0.44661 0.25012 0.15218 0.0
C610 C 0.43061 0.24831 0.11584 0.0
C611 C 0.4195 0.25347 0.18059 0.0
C612 C 0.38715 0.24864 0.10835 0.0
C613 C 0.35992 0.25166 0.13647 0.0
H614 H 0.91719 0.74792 0.76662 0.0
H615 H 0.80344 0.73337 0.70091 0.0
H616 H 0.83151 0.69022 0.67501 0.0
H617 H 0.88664 0.65301 0.6759 0.0
H618 H 0.99732 0.66581 0.74724 0.0
H619 H 0.97266 0.71296 0.76583 0.0
C620 C 0.8994 0.73602 0.74559 0.0
C621 C 0.85903 0.74432 0.73473 0.0
C622 C 0.91499 0.71038 0.73239 0.0
C623 C 0.83516 0.72796 0.70869 0.0
C624 C 0.851 0.70297 0.69443 0.0
C625 C 0.90535 0.66612 0.69547 0.0
C626 C 0.94425 0.65583 0.70958 0.0
C627 C 0.8905 0.69326 0.70689 0.0
C628 C 0.96791 0.67339 0.73496 0.0
C629 C 0.9537 0.7004 0.74593 0.0
H630 H 0.87721 0.33831 0.32505 0.0
H631 H 0.9761 0.30587 0.27069 0.0
H632 H 0.02644 0.35548 0.28029 0.0
H633 H 0.03863 0.41309 0.29457 0.0
H634 H 0.93708 0.44772 0.34331 0.0
H635 H 0.89115 0.39318 0.34474 0.0
C636 C 0.91023 0.34161 0.31663 0.0
C637 C 0.923 0.31845 0.29731 0.0
C638 C 0.93804 0.3714 0.32 0.0
C639 C 0.96574 0.32307 0.28611 0.0
C640 C 0.99424 0.35184 0.29089 0.0
C641 C 0.00661 0.40834 0.30593 0.0
C642 C 0.99119 0.43418 0.31901 0.0
C643 C 0.98018 0.377 0.30615 0.0
C644 C 0.9496 0.42804 0.33339 0.0
C645 C 0.92341 0.39687 0.33422 0.0
H646 H 0.15187 0.28702 0.74392 0.0
H647 H 0.24514 0.3398 0.65947 0.0
H648 H 0.20795 0.38934 0.64627 0.0
H649 H 0.15178 0.41902 0.66252 0.0
H650 H 0.05815 0.36551 0.74709 0.0
H651 H 0.09266 0.31513 0.75684 0.0
C652 C 0.1636 0.30933 0.7224 0.0
C653 C 0.20104 0.30999 0.70266 0.0
C654 C 0.1423 0.3377 0.71541 0.0
C655 C 0.21614 0.33881 0.67471 0.0
C656 C 0.19505 0.36713 0.66742 0.0
C657 C 0.13849 0.39619 0.68265 0.0
C658 C 0.10268 0.39638 0.70441 0.0
C659 C 0.15847 0.3671 0.68807 0.0
C660 C 0.0862 0.36649 0.73056 0.0
C661 C 0.10577 0.33752 0.73602 0.0
H662 H 0.35211 0.70559 0.3048 0.0
H663 H 0.2594 0.77307 0.27741 0.0
H664 H 0.20468 0.72578 0.26883 0.0
H665 H 0.18162 0.66438 0.27554 0.0
H666 H 0.27332 0.59595 0.30315 0.0
H667 H 0.33014 0.64407 0.30524 0.0
C668 C 0.3201 0.7098 0.29617 0.0
C669 C 0.30943 0.74254 0.292 0.0
C670 C 0.28867 0.68226 0.29176 0.0
C671 C 0.26793 0.74794 0.28104 0.0
C672 C 0.23674 0.72094 0.27624 0.0
C673 C 0.21427 0.66018 0.28111 0.0
C674 C 0.22351 0.62683 0.28888 0.0
C675 C 0.24646 0.68787 0.28247 0.0
C676 C 0.2657 0.62151 0.29679 0.0
C677 C 0.29805 0.64899 0.29813 0.0
H678 H 0.80448 0.84792 0.73505 0.0
H679 H 0.90685 0.80437 0.69992 0.0
H680 H 0.92043 0.85254 0.64535 0.0
H681 H 0.90574 0.90977 0.60999 0.0
H682 H 0.81694 0.95796 0.6586 0.0
H683 H 0.79671 0.90621 0.7064 0.0
C684 C 0.83066 0.84923 0.71621 0.0
C685 C 0.85509 0.82268 0.72238 0.0
C686 C 0.8408 0.87826 0.68726 0.0
C687 C 0.88726 0.82415 0.69611 0.0
C688 C 0.89541 0.85202 0.6651 0.0
C689 C 0.88201 0.90882 0.63112 0.0
C690 C 0.8613 0.93728 0.62943 0.0
C691 C 0.87283 0.87962 0.66075 0.0
C692 C 0.83176 0.93602 0.65789 0.0
C693 C 0.82046 0.9065 0.68554 0.0
H694 H 0.84052 0.27363 0.1586 0.0
H695 H 0.77856 0.30513 0.24595 0.0
H696 H 0.71135 0.3004 0.2115 0.0
H697 H 0.66889 0.28389 0.15846 0.0
H698 H 0.72839 0.24542 0.07525 0.0
H699 H 0.79742 0.25483 0.10677 0.0
C700 C 0.81225 0.27898 0.17033 0.0
C701 C 0.81468 0.28969 0.20485 0.0
C702 C 0.77306 0.27441 0.15135 0.0
C703 C 0.77779 0.29747 0.21907 0.0
C704 C 0.73919 0.29437 0.19964 0.0
C705 C 0.69707 0.27763 0.14734 0.0
C706 C 0.69381 0.26397 0.11477 0.0
C707 C 0.73629 0.28238 0.16606 0.0
C708 C 0.7303 0.2557 0.10057 0.0
C709 C 0.76971 0.26125 0.11844 0.0
H710 H 0.32047 0.25163 0.65488 0.0
H711 H 0.24774 0.17465 0.7391 0.0
H712 H 0.27025 0.12996 0.71228 0.0
H713 H 0.30559 0.11329 0.66128 0.0
H714 H 0.38138 0.19078 0.57869 0.0
H715 H 0.36234 0.23463 0.608 0.0
C716 C 0.31007 0.22501 0.66743 0.0
C717 C 0.28231 0.21622 0.69862 0.0
C718 C 0.32317 0.19961 0.65179 0.0
C719 C 0.26923 0.18179 0.71512 0.0
C720 C 0.28189 0.15635 0.69963 0.0
C721 C 0.31877 0.13965 0.65005 0.0
C722 C 0.34432 0.14845 0.61714 0.0
C723 C 0.30821 0.16496 0.66746 0.0
C724 C 0.36064 0.18302 0.60317 0.0
C725 C 0.35002 0.20825 0.62011 0.0
H726 H 0.45603 0.76958 0.28196 0.0
H727 H 0.33926 0.78111 0.22027 0.0
H728 H 0.37256 0.7751 0.16257 0.0
H729 H 0.43674 0.7703 0.12862 0.0
H730 H 0.55446 0.76159 0.18964 0.0
H731 H 0.51969 0.76352 0.24848 0.0
C732 C 0.43799 0.7706 0.25584 0.0
C733 C 0.39527 0.77567 0.25528 0.0
C734 C 0.45783 0.76819 0.2226 0.0
C735 C 0.37194 0.77667 0.22147 0.0
C736 C 0.39115 0.77365 0.18842 0.0
C737 C 0.45451 0.76875 0.15494 0.0
C738 C 0.49795 0.76594 0.15515 0.0
C739 C 0.43428 0.76999 0.18848 0.0
C740 C 0.52099 0.76389 0.18912 0.0
C741 C 0.5011 0.76491 0.22264 0.0
H742 H 0.94941 0.25867 0.33589 0.0
H743 H 0.83457 0.20858 0.29188 0.0
H744 H 0.84023 0.15649 0.3367 0.0
H745 H 0.87572 0.12447 0.38957 0.0
H746 H 0.96943 0.17942 0.4517 0.0
H747 H 0.97555 0.2292 0.39895 0.0
C748 C 0.92556 0.23655 0.33607 0.0
C749 C 0.89397 0.23717 0.30751 0.0
C750 C 0.92586 0.20696 0.36529 0.0
C751 C 0.86188 0.20838 0.31053 0.0
C752 C 0.86451 0.17841 0.33679 0.0
C753 C 0.89768 0.14729 0.39161 0.0
C754 C 0.92306 0.14747 0.42411 0.0
C755 C 0.8966 0.17723 0.36402 0.0
C756 C 0.9508 0.17766 0.42638 0.0
C757 C 0.95355 0.20657 0.39652 0.0
H758 H 0.34938 0.26116 0.74836 0.0
H759 H 0.24124 0.20344 0.81316 0.0
H760 H 0.28585 0.19263 0.87005 0.0
H761 H 0.35374 0.20669 0.90285 0.0
H762 H 0.46059 0.26809 0.83802 0.0
H763 H 0.41891 0.2705 0.77975 0.0
C764 C 0.33624 0.24526 0.77474 0.0
C765 C 0.29256 0.23266 0.77686 0.0
C766 C 0.36173 0.24057 0.80745 0.0
C767 C 0.27508 0.21284 0.81115 0.0
C768 C 0.30046 0.20707 0.84361 0.0
C769 C 0.36804 0.22003 0.87585 0.0
C770 C 0.40998 0.23757 0.87481 0.0
C771 C 0.34354 0.22186 0.84242 0.0
C772 C 0.4281 0.2549 0.83963 0.0
C773 C 0.40436 0.25619 0.80627 0.0
H774 H 0.31295 0.85494 0.33569 0.0
H775 H 0.42819 0.821 0.38333 0.0
H776 H 0.43493 0.86182 0.42489 0.0
H777 H 0.40688 0.90652 0.44834 0.0
H778 H 0.29284 0.94196 0.39785 0.0
H779 H 0.28634 0.90097 0.35744 0.0
C780 C 0.33936 0.85655 0.35534 0.0
C781 C 0.36993 0.83503 0.3568 0.0
C782 C 0.34305 0.88019 0.37881 0.0
C783 C 0.40441 0.83745 0.38188 0.0
C784 C 0.40814 0.8607 0.4056 0.0
C785 C 0.38083 0.90561 0.42826 0.0
C786 C 0.35015 0.92729 0.42675 0.0
C787 C 0.37757 0.88221 0.40438 0.0
C788 C 0.31644 0.92522 0.40058 0.0
C789 C 0.31281 0.9019 0.37709 0.0
H790 H 0.7346 0.7542 0.82398 0.0
H791 H 0.85381 0.775 0.88053 0.0
H792 H 0.81621 0.7709 0.94001 0.0
H793 H 0.74841 0.7638 0.97502 0.0
H794 H 0.62942 0.74359 0.91731 0.0
H795 H 0.66738 0.74472 0.85935 0.0
C796 C 0.75206 0.75742 0.84958 0.0
C797 C 0.79662 0.76501 0.84824 0.0
C798 C 0.73017 0.75518 0.88333 0.0
C799 C 0.81938 0.76935 0.88122 0.0
C800 C 0.7979 0.767 0.91506 0.0
C801 C 0.73107 0.75932 0.94977 0.0
C802 C 0.68633 0.75339 0.95031 0.0
C803 C 0.7532 0.76031 0.91637 0.0
C804 C 0.66391 0.74793 0.91747 0.0
C805 C 0.68557 0.74868 0.88435 0.0
loop_
_geom_bond_atom_site_label_1
_geom_bond_atom_site_label_2
_geom_bond_distance
_geom_bond_site_symmetry_2
_ccdc_geom_bond_type
C0 N1 1.317 . S
C0 N2 1.348 . S
C0 C3 1.485 . S
N1 C0 1.317 . S
N1 N5 1.370 . S
N2 C0 1.348 . S
N2 C4 1.346 . S
C3 C0 1.485 . S
C3 H7 0.960 . S
C3 H8 0.961 . S
C3 H9 0.960 . S
C4 N2 1.346 . S
C4 N5 1.307 . S
C4 C6 1.486 . S
N5 N1 1.370 . S
N5 C4 1.307 . S
C6 C4 1.486 . S
C6 H10 0.960 . S
C6 H11 0.960 . S
C6 H12 0.959 . S
H7 C3 0.960 . S
H8 C3 0.961 . S
H9 C3 0.960 . S
H10 C6 0.960 . S
H11 C6 0.960 . S
H12 C6 0.959 . S
C13 N14 1.317 . S
C13 N15 1.348 . S
C13 C16 1.485 . S
N14 C13 1.317 . S
N14 N18 1.370 . S
N15 C13 1.348 . S
N15 C17 1.346 . S
C16 C13 1.485 . S
C16 H20 0.960 . S
C16 H21 0.961 . S
C16 H22 0.960 . S
C17 N15 1.346 . S
C17 N18 1.307 . S
C17 C19 1.486 . S
N18 N14 1.370 . S
N18 C17 1.307 . S
C19 C17 1.486 . S
C19 H23 0.960 . S
C19 H24 0.960 . S
C19 H25 0.959 . S
H20 C16 0.960 . S
H21 C16 0.961 . S
H22 C16 0.960 . S
H23 C19 0.960 . S
H24 C19 0.960 . S
H25 C19 0.959 . S
C26 N27 1.317 . S
C26 N28 1.348 . S
C26 C29 1.485 . S
N27 C26 1.317 . S
N27 N31 1.370 . S
N28 C26 1.348 . S
N28 C30 1.346 . S
C29 C26 1.485 . S
C29 H33 0.960 . S
C29 H34 0.961 . S
C29 H35 0.960 . S
C30 N28 1.346 . S
C30 N31 1.307 . S
C30 C32 1.486 . S
N31 N27 1.370 . S
N31 C30 1.307 . S
C32 C30 1.486 . S
C32 H36 0.960 . S
C32 H37 0.960 . S
C32 H38 0.959 . S
H33 C29 0.960 . S
H34 C29 0.961 . S
H35 C29 0.960 . S
H36 C32 0.960 . S
H37 C32 0.960 . S
H38 C32 0.959 . S
C39 N40 1.317 . S
C39 N41 1.348 . S
C39 C42 1.485 . S
N40 C39 1.317 . S
N40 N44 1.370 . S
N41 C39 1.348 . S
N41 C43 1.346 . S
C42 C39 1.485 . S
C42 H46 0.960 . S
C42 H47 0.961 . S
C42 H48 0.960 . S
C43 N41 1.346 . S
C43 N44 1.307 . S
C43 C45 1.486 . S
N44 N40 1.370 . S
N44 C43 1.307 . S
C45 C43 1.486 . S
C45 H49 0.960 . S
C45 H50 0.960 . S
C45 H51 0.959 . S
H46 C42 0.960 . S
H47 C42 0.961 . S
H48 C42 0.960 . S
H49 C45 0.960 . S
H50 C45 0.960 . S
H51 C45 0.959 . S
C52 N53 1.317 . S
C52 N54 1.348 . S
C52 C55 1.485 . S
N53 C52 1.317 . S
N53 N57 1.370 . S
N54 C52 1.348 . S
N54 C56 1.346 . S
C55 C52 1.485 . S
C55 H59 0.960 . S
C55 H60 0.961 . S
C55 H61 0.960 . S
C56 N54 1.346 . S
C56 N57 1.307 . S
C56 C58 1.486 . S
N57 N53 1.370 . S
N57 C56 1.307 . S
C58 C56 1.486 . S
C58 H62 0.960 . S
C58 H63 0.960 . S
C58 H64 0.959 . S
H59 C55 0.960 . S
H60 C55 0.961 . S
H61 C55 0.960 . S
H62 C58 0.960 . S
H63 C58 0.960 . S
H64 C58 0.959 . S
C65 N66 1.317 . S
C65 N67 1.348 . S
C65 C68 1.485 . S
N66 C65 1.317 . S
N66 N70 1.370 . S
N67 C65 1.348 . S
N67 C69 1.346 . S
C68 C65 1.485 . S
C68 H72 0.960 . S
C68 H73 0.961 . S
C68 H74 0.960 . S
C69 N67 1.346 . S
C69 N70 1.307 . S
C69 C71 1.486 . S
N70 N66 1.370 . S
N70 C69 1.307 . S
C71 C69 1.486 . S
C71 H75 0.960 . S
C71 H76 0.960 . S
C71 H77 0.959 . S
H72 C68 0.960 . S
H73 C68 0.961 . S
H74 C68 0.960 . S
H75 C71 0.960 . S
H76 C71 0.960 . S
H77 C71 0.959 . S
C78 N79 1.317 . S
C78 N80 1.348 . S
C78 C81 1.485 . S
N79 C78 1.317 . S
N79 N83 1.370 . S
N80 C78 1.348 . S
N80 C82 1.346 . S
C81 C78 1.485 . S
C81 H85 0.960 . S
C81 H86 0.961 . S
C81 H87 0.960 . S
C82 N80 1.346 . S
C82 N83 1.307 . S
C82 C84 1.486 . S
N83 N79 1.370 . S
N83 C82 1.307 . S
C84 C82 1.486 . S
C84 H88 0.960 . S
C84 H89 0.960 . S
C84 H90 0.959 . S
H85 C81 0.960 . S
H86 C81 0.961 . S
H87 C81 0.960 . S
H88 C84 0.960 . S
H89 C84 0.960 . S
H90 C84 0.959 . S
C91 N92 1.317 . S
C91 N93 1.348 . S
C91 C94 1.485 . S
N92 C91 1.317 . S
N92 N96 1.370 . S
N93 C91 1.348 . S
N93 C95 1.346 . S
C94 C91 1.485 . S
C94 H98 0.960 . S
C94 H99 0.961 . S
C94 H100 0.960 . S
C95 N93 1.346 . S
C95 N96 1.307 . S
C95 C97 1.486 . S
N96 N92 1.370 . S
N96 C95 1.307 . S
C97 C95 1.486 . S
C97 H101 0.960 . S
C97 H102 0.960 . S
C97 H103 0.959 . S
H98 C94 0.960 . S
H99 C94 0.961 . S
H100 C94 0.960 . S
H101 C97 0.960 . S
H102 C97 0.960 . S
H103 C97 0.959 . S
C104 C105 1.443 . S
C104 N108 1.376 . S
C104 C142 1.389 . S
C105 C104 1.443 . S
C105 C106 1.340 . S
C105 H145 0.951 . S
C106 C105 1.340 . S
C106 C107 1.439 . S
C106 H146 0.950 . S
C107 C106 1.439 . S
C107 N108 1.374 . S
C107 C141 1.395 . S
N108 C104 1.376 . S
N108 C107 1.374 . S
N108 Co109 2.008 . S
Co109 N108 2.008 . S
Co109 N110 1.995 . S
Co109 N115 2.008 . S
Co109 N120 1.995 . S
Co109 N125 2.282 . S
Co109 N131 2.282 . S
N110 Co109 1.995 . S
N110 C111 1.376 . S
N110 C114 1.383 . S
C111 N110 1.376 . S
C111 C112 1.446 . S
C111 C141 1.391 . S
C112 C111 1.446 . S
C112 C113 1.339 . S
C112 H147 0.949 . S
C113 C112 1.339 . S
C113 C114 1.439 . S
C113 H148 0.950 1_455 S
C114 N110 1.383 . S
C114 C113 1.439 . S
C114 C143 1.392 . S
N115 Co109 2.008 . S
N115 C116 1.376 . S
N115 C119 1.374 . S
C116 N115 1.376 . S
C116 C117 1.443 . S
C116 C143 1.389 . S
C117 C116 1.443 . S
C117 C118 1.340 . S
C117 H149 0.951 . S
C118 C117 1.340 . S
C118 C119 1.439 . S
C118 H150 0.950 . S
C119 N115 1.374 . S
C119 C118 1.439 . S
C119 C144 1.395 . S
N120 Co109 1.995 . S
N120 C121 1.376 . S
N120 C124 1.383 . S
C121 N120 1.376 . S
C121 C122 1.446 . S
C121 C144 1.391 . S
C122 C121 1.446 . S
C122 C123 1.339 . S
C122 H151 0.949 . S
C123 C122 1.339 . S
C123 C124 1.439 . S
C123 H152 0.950 . S
C124 N120 1.383 . S
C124 C123 1.439 . S
C124 C142 1.392 . S
N125 Co109 2.282 . S
N125 C128 1.332 . S
N125 C130 1.332 . S
C126 C127 1.386 . S
C126 C129 1.388 . S
C127 C126 1.386 . S
C127 C128 1.382 . S
C127 H153 0.950 . S
C128 N125 1.332 . S
C128 C127 1.382 . S
C128 H139 0.952 . S
C129 C126 1.388 . S
C129 C130 1.382 . S
C129 H154 0.950 . S
C130 N125 1.332 . S
C130 C129 1.382 . S
C130 H140 0.948 . S
N131 Co109 2.282 . S
N131 C135 1.332 . S
N131 C136 1.332 . S
C132 C133 1.388 . S
C132 C136 1.382 . S
C132 H155 0.950 . S
C133 C132 1.388 . S
C133 C134 1.386 . S
C134 C133 1.386 . S
C134 C135 1.382 . S
C134 H156 0.950 . S
C135 N131 1.332 . S
C135 C134 1.382 . S
C135 H137 0.952 . S
C136 N131 1.332 . S
C136 C132 1.382 . S
C136 H138 0.948 . S
H137 C135 0.952 . S
H138 C136 0.948 . S
H139 C128 0.952 . S
H140 C130 0.948 . S
C141 C107 1.395 . S
C141 C111 1.391 . S
C142 C104 1.389 . S
C142 C124 1.392 . S
C143 C114 1.392 . S
C143 C116 1.389 . S
C144 C119 1.395 . S
C144 C121 1.391 . S
H145 C105 0.951 . S
H146 C106 0.950 . S
H147 C112 0.949 . S
H148 C113 0.950 1_655 S
H149 C117 0.951 . S
H150 C118 0.950 . S
H151 C122 0.949 . S
H152 C123 0.950 . S
H153 C127 0.950 . S
H154 C129 0.950 . S
H155 C132 0.950 . S
H156 C134 0.950 . S
C157 C158 1.443 . S
C157 N161 1.376 . S
C157 C195 1.389 . S
C158 C157 1.443 . S
C158 C159 1.340 . S
C158 H198 0.951 . S
C159 C158 1.340 . S
C159 C160 1.439 . S
C159 H199 0.950 . S
C160 C159 1.439 . S
C160 N161 1.374 . S
C160 C194 1.395 1_455 S
N161 C157 1.376 . S
N161 C160 1.374 . S
N161 Co162 2.008 . S
Co162 N161 2.008 . S
Co162 N163 1.995 1_455 S
Co162 N168 2.008 1_455 S
Co162 N173 1.995 . S
Co162 N178 2.282 . S
Co162 N184 2.282 1_455 S
N163 Co162 1.995 1_655 S
N163 C164 1.376 . S
N163 C167 1.383 . S
C164 N163 1.376 . S
C164 C165 1.446 . S
C164 C194 1.391 . S
C165 C164 1.446 . S
C165 C166 1.339 . S
C165 H200 0.949 . S
C166 C165 1.339 . S
C166 C167 1.439 . S
C166 H201 0.950 . S
C167 N163 1.383 . S
C167 C166 1.439 . S
C167 C196 1.392 . S
N168 Co162 2.008 1_655 S
N168 C169 1.376 . S
N168 C172 1.374 . S
C169 N168 1.376 . S
C169 C170 1.443 . S
C169 C196 1.389 . S
C170 C169 1.443 . S
C170 C171 1.340 . S
C170 H202 0.951 . S
C171 C170 1.340 . S
C171 C172 1.439 . S
C171 H203 0.950 . S
C172 N168 1.374 . S
C172 C171 1.439 . S
C172 C197 1.395 1_655 S
N173 Co162 1.995 . S
N173 C174 1.376 . S
N173 C177 1.383 . S
C174 N173 1.376 . S
C174 C175 1.446 . S
C174 C197 1.391 . S
C175 C174 1.446 . S
C175 C176 1.339 . S
C175 H204 0.949 . S
C176 C175 1.339 . S
C176 C177 1.439 . S
C176 H205 0.950 . S
C177 N173 1.383 . S
C177 C176 1.439 . S
C177 C195 1.392 . S
N178 Co162 2.282 . S
N178 C181 1.332 . S
N178 C183 1.332 . S
C179 C180 1.386 . S
C179 C182 1.388 . S
C180 C179 1.386 . S
C180 C181 1.382 . S
C180 H206 0.950 . S
C181 N178 1.332 . S
C181 C180 1.382 . S
C181 H192 0.952 . S
C182 C179 1.388 . S
C182 C183 1.382 . S
C182 H207 0.950 . S
C183 N178 1.332 . S
C183 C182 1.382 . S
C183 H193 0.948 . S
N184 Co162 2.282 1_655 S
N184 C188 1.332 . S
N184 C189 1.332 . S
C185 C186 1.388 . S
C185 C189 1.382 . S
C185 H208 0.950 . S
C186 C185 1.388 . S
C186 C187 1.386 . S
C187 C186 1.386 . S
C187 C188 1.382 . S
C187 H209 0.950 . S
C188 N184 1.332 . S
C188 C187 1.382 . S
C188 H190 0.952 . S
C189 N184 1.332 . S
C189 C185 1.382 . S
C189 H191 0.948 . S
H190 C188 0.952 . S
H191 C189 0.948 . S
H192 C181 0.952 . S
H193 C183 0.948 . S
C194 C160 1.395 1_655 S
C194 C164 1.391 . S
C195 C157 1.389 . S
C195 C177 1.392 . S
C196 C167 1.392 . S
C196 C169 1.389 . S
C197 C172 1.395 1_455 S
C197 C174 1.391 . S
H198 C158 0.951 . S
H199 C159 0.950 . S
H200 C165 0.949 . S
H201 C166 0.950 . S
H202 C170 0.951 . S
H203 C171 0.950 . S
H204 C175 0.949 . S
H205 C176 0.950 . S
H206 C180 0.950 . S
H207 C182 0.950 . S
H208 C185 0.950 . S
H209 C187 0.950 . S
C210 C211 1.443 . S
C210 N214 1.376 1_565 S
C210 C248 1.389 . S
C211 C210 1.443 . S
C211 C212 1.340 . S
C211 H251 0.951 . S
C212 C211 1.340 . S
C212 C213 1.439 1_565 S
C212 H252 0.950 . S
C213 C212 1.439 1_545 S
C213 N214 1.374 . S
C213 C247 1.395 . S
N214 C210 1.376 1_545 S
N214 C213 1.374 . S
N214 Co215 2.008 . S
Co215 N214 2.008 . S
Co215 N216 1.995 . S
Co215 N221 2.008 . S
Co215 N226 1.995 1_545 S
Co215 N231 2.282 . S
Co215 N237 2.282 1_545 S
N216 Co215 1.995 . S
N216 C217 1.376 . S
N216 C220 1.383 . S
C217 N216 1.376 . S
C217 C218 1.446 . S
C217 C247 1.391 . S
C218 C217 1.446 . S
C218 C219 1.339 . S
C218 H253 0.949 . S
C219 C218 1.339 . S
C219 C220 1.439 . S
C219 H254 0.950 . S
C220 N216 1.383 . S
C220 C219 1.439 . S
C220 C249 1.392 . S
N221 Co215 2.008 . S
N221 C222 1.376 . S
N221 C225 1.374 . S
C222 N221 1.376 . S
C222 C223 1.443 . S
C222 C249 1.389 . S
C223 C222 1.443 . S
C223 C224 1.340 . S
C223 H255 0.951 . S
C224 C223 1.340 . S
C224 C225 1.439 . S
C224 H256 0.950 . S
C225 N221 1.374 . S
C225 C224 1.439 . S
C225 C250 1.395 . S
N226 Co215 1.995 1_565 S
N226 C227 1.376 . S
N226 C230 1.383 . S
C227 N226 1.376 . S
C227 C228 1.446 . S
C227 C250 1.391 1_565 S
C228 C227 1.446 . S
C228 C229 1.339 . S
C228 H257 0.949 . S
C229 C228 1.339 . S
C229 C230 1.439 . S
C229 H258 0.950 . S
C230 N226 1.383 . S
C230 C229 1.439 . S
C230 C248 1.392 . S
N231 Co215 2.282 . S
N231 C234 1.332 . S
N231 C236 1.332 . S
C232 C233 1.386 . S
C232 C235 1.388 . S
C233 C232 1.386 . S
C233 C234 1.382 . S
C233 H259 0.950 . S
C234 N231 1.332 . S
C234 C233 1.382 . S
C234 H245 0.952 . S
C235 C232 1.388 . S
C235 C236 1.382 . S
C235 H260 0.950 . S
C236 N231 1.332 . S
C236 C235 1.382 . S
C236 H246 0.948 . S
N237 Co215 2.282 1_565 S
N237 C241 1.332 . S
N237 C242 1.332 . S
C238 C239 1.388 . S
C238 C242 1.382 . S
C238 H261 0.950 . S
C239 C238 1.388 . S
C239 C240 1.386 . S
C240 C239 1.386 . S
C240 C241 1.382 . S
C240 H262 0.950 . S
C241 N237 1.332 . S
C241 C240 1.382 . S
C241 H243 0.952 1_565 S
C242 N237 1.332 . S
C242 C238 1.382 . S
C242 H244 0.948 . S
H243 C241 0.952 1_545 S
H244 C242 0.948 . S
H245 C234 0.952 . S
H246 C236 0.948 . S
C247 C213 1.395 . S
C247 C217 1.391 . S
C248 C210 1.389 . S
C248 C230 1.392 . S
C249 C220 1.392 . S
C249 C222 1.389 . S
C250 C225 1.395 . S
C250 C227 1.391 1_545 S
H251 C211 0.951 . S
H252 C212 0.950 . S
H253 C218 0.949 . S
H254 C219 0.950 . S
H255 C223 0.951 . S
H256 C224 0.950 . S
H257 C228 0.949 . S
H258 C229 0.950 . S
H259 C233 0.950 . S
H260 C235 0.950 . S
H261 C238 0.950 . S
H262 C240 0.950 . S
C263 C264 1.443 . S
C263 N267 1.376 . S
C263 C301 1.389 . S
C264 C263 1.443 . S
C264 C265 1.340 . S
C264 H304 0.951 . S
C265 C264 1.340 . S
C265 C266 1.439 . S
C265 H305 0.950 . S
C266 C265 1.439 . S
C266 N267 1.374 . S
C266 C300 1.395 . S
N267 C263 1.376 . S
N267 C266 1.374 . S
N267 Co268 2.008 . S
Co268 N267 2.008 . S
Co268 N269 1.995 . S
Co268 N274 2.008 . S
Co268 N279 1.995 . S
Co268 N284 2.282 . S
Co268 N290 2.282 . S
N269 Co268 1.995 . S
N269 C270 1.376 . S
N269 C273 1.383 1_554 S
C270 N269 1.376 . S
C270 C271 1.446 1_554 S
C270 C300 1.391 . S
C271 C270 1.446 1_556 S
C271 C272 1.339 . S
C271 H306 0.949 . S
C272 C271 1.339 . S
C272 C273 1.439 . S
C272 H307 0.950 . S
C273 N269 1.383 1_556 S
C273 C272 1.439 . S
C273 C302 1.392 . S
N274 Co268 2.008 . S
N274 C275 1.376 1_554 S
N274 C278 1.374 . S
C275 N274 1.376 1_556 S
C275 C276 1.443 . S
C275 C302 1.389 . S
C276 C275 1.443 . S
C276 C277 1.340 1_556 S
C276 H308 0.951 . S
C277 C276 1.340 1_554 S
C277 C278 1.439 . S
C277 H309 0.950 . S
C278 N274 1.374 . S
C278 C277 1.439 . S
C278 C303 1.395 . S
N279 Co268 1.995 . S
N279 C280 1.376 . S
N279 C283 1.383 . S
C280 N279 1.376 . S
C280 C281 1.446 . S
C280 C303 1.391 . S
C281 C280 1.446 . S
C281 C282 1.339 . S
C281 H310 0.949 . S
C282 C281 1.339 . S
C282 C283 1.439 . S
C282 H311 0.950 . S
C283 N279 1.383 . S
C283 C282 1.439 . S
C283 C301 1.392 . S
N284 Co268 2.282 . S
N284 C287 1.332 . S
N284 C289 1.332 1_554 S
C285 C286 1.386 . S
C285 C288 1.388 . S
C286 C285 1.386 . S
C286 C287 1.382 1_556 S
C286 H312 0.950 . S
C287 N284 1.332 . S
C287 C286 1.382 1_554 S
C287 H298 0.952 . S
C288 C285 1.388 . S
C288 C289 1.382 . S
C288 H313 0.950 . S
C289 N284 1.332 1_556 S
C289 C288 1.382 . S
C289 H299 0.948 . S
N290 Co268 2.282 . S
N290 C294 1.332 . S
N290 C295 1.332 . S
C291 C292 1.388 . S
C291 C295 1.382 . S
C291 H314 0.950 . S
C292 C291 1.388 . S
C292 C293 1.386 . S
C293 C292 1.386 . S
C293 C294 1.382 . S
C293 H315 0.950 . S
C294 N290 1.332 . S
C294 C293 1.382 . S
C294 H296 0.952 . S
C295 N290 1.332 . S
C295 C291 1.382 . S
C295 H297 0.948 . S
H296 C294 0.952 . S
H297 C295 0.948 . S
H298 C287 0.952 . S
H299 C289 0.948 . S
C300 C266 1.395 . S
C300 C270 1.391 . S
C301 C263 1.389 . S
C301 C283 1.392 . S
C302 C273 1.392 . S
C302 C275 1.389 . S
C303 C278 1.395 . S
C303 C280 1.391 . S
H304 C264 0.951 . S
H305 C265 0.950 . S
H306 C271 0.949 . S
H307 C272 0.950 . S
H308 C276 0.951 . S
H309 C277 0.950 . S
H310 C281 0.949 . S
H311 C282 0.950 . S
H312 C286 0.950 . S
H313 C288 0.950 . S
H314 C291 0.950 . S
H315 C293 0.950 . S
C316 C317 1.443 1_645 S
C316 N320 1.376 . S
C316 C354 1.389 1_545 S
C317 C316 1.443 1_465 S
C317 C318 1.340 1_565 S
C317 H357 0.951 . S
C318 C317 1.340 1_545 S
C318 C319 1.439 . S
C318 H358 0.950 . S
C319 C318 1.439 . S
C319 N320 1.374 1_455 S
C319 C353 1.395 . S
N320 C316 1.376 . S
N320 C319 1.374 1_655 S
N320 Co321 2.008 . S
Co321 N320 2.008 . S
Co321 N322 1.995 . S
Co321 N327 2.008 . S
Co321 N332 1.995 . S
Co321 N337 2.282 . S
Co321 N343 2.282 . S
N322 Co321 1.995 . S
N322 C323 1.376 1_655 S
N322 C326 1.383 . S
C323 N322 1.376 1_455 S
C323 C324 1.446 . S
C323 C353 1.391 . S
C324 C323 1.446 . S
C324 C325 1.339 . S
C324 H359 0.949 . S
C325 C324 1.339 . S
C325 C326 1.439 1_455 S
C325 H360 0.950 . S
C326 N322 1.383 . S
C326 C325 1.439 1_655 S
C326 C355 1.392 . S
N327 Co321 2.008 . S
N327 C328 1.376 . S
N327 C331 1.374 . S
C328 N327 1.376 . S
C328 C329 1.443 . S
C328 C355 1.389 . S
C329 C328 1.443 . S
C329 C330 1.340 . S
C329 H361 0.951 . S
C330 C329 1.340 . S
C330 C331 1.439 . S
C330 H362 0.950 . S
C331 N327 1.374 . S
C331 C330 1.439 . S
C331 C356 1.395 . S
N332 Co321 1.995 . S
N332 C333 1.376 . S
N332 C336 1.383 1_545 S
C333 N332 1.376 . S
C333 C334 1.446 1_545 S
C333 C356 1.391 . S
C334 C333 1.446 1_565 S
C334 C335 1.339 . S
C334 H363 0.949 . S
C335 C334 1.339 . S
C335 C336 1.439 . S
C335 H364 0.950 . S
C336 N332 1.383 1_565 S
C336 C335 1.439 . S
C336 C354 1.392 . S
N337 Co321 2.282 . S
N337 C340 1.332 . S
N337 C342 1.332 . S
C338 C339 1.386 . S
C338 C341 1.388 . S
C339 C338 1.386 . S
C339 C340 1.382 . S
C339 H365 0.950 . S
C340 N337 1.332 . S
C340 C339 1.382 . S
C340 H351 0.952 . S
C341 C338 1.388 . S
C341 C342 1.382 . S
C341 H366 0.950 . S
C342 N337 1.332 . S
C342 C341 1.382 . S
C342 H352 0.948 . S
N343 Co321 2.282 . S
N343 C347 1.332 . S
N343 C348 1.332 1_545 S
C344 C345 1.388 . S
C344 C348 1.382 . S
C344 H367 0.950 . S
C345 C344 1.388 . S
C345 C346 1.384 1_655 S
C346 C345 1.384 1_455 S
C346 C347 1.380 1_465 S
C346 H368 0.953 . S
C347 N343 1.332 . S
C347 C346 1.380 1_645 S
C347 H349 0.952 1_655 S
C348 N343 1.332 1_565 S
C348 C344 1.382 . S
C348 H350 0.954 . S
H349 C347 0.952 1_455 S
H350 C348 0.954 . S
H351 C340 0.952 . S
H352 C342 0.948 . S
C353 C319 1.395 . S
C353 C323 1.391 . S
C354 C316 1.389 1_565 S
C354 C336 1.392 . S
C355 C326 1.392 . S
C355 C328 1.389 . S
C356 C331 1.395 . S
C356 C333 1.391 . S
H357 C317 0.951 . S
H358 C318 0.950 . S
H359 C324 0.949 . S
H360 C325 0.950 . S
H361 C329 0.951 . S
H362 C330 0.950 . S
H363 C334 0.949 . S
H364 C335 0.950 . S
H365 C339 0.950 . S
H366 C341 0.950 . S
H367 C344 0.950 . S
H368 C346 0.953 . S
C369 C370 1.443 . S
C369 N373 1.376 . S
C369 C407 1.389 . S
C370 C369 1.443 . S
C370 C371 1.340 . S
C370 H410 0.951 . S
C371 C370 1.340 . S
C371 C372 1.439 . S
C371 H411 0.950 . S
C372 C371 1.439 . S
C372 N373 1.374 . S
C372 C406 1.395 . S
N373 C369 1.376 . S
N373 C372 1.374 . S
N373 Co374 2.008 . S
Co374 N373 2.008 . S
Co374 N375 1.995 1_554 S
Co374 N380 2.008 . S
Co374 N385 1.995 . S
Co374 N390 2.282 1_554 S
Co374 N396 2.282 . S
N375 Co374 1.995 1_556 S
N375 C376 1.376 . S
N375 C379 1.383 . S
C376 N375 1.376 . S
C376 C377 1.446 . S
C376 C406 1.391 1_556 S
C377 C376 1.446 . S
C377 C378 1.339 . S
C377 H412 0.949 . S
C378 C377 1.339 . S
C378 C379 1.439 . S
C378 H413 0.950 . S
C379 N375 1.383 . S
C379 C378 1.439 . S
C379 C408 1.392 . S
N380 Co374 2.008 . S
N380 C381 1.376 1_554 S
N380 C384 1.374 . S
C381 N380 1.376 1_556 S
C381 C382 1.443 . S
C381 C408 1.389 . S
C382 C381 1.443 . S
C382 C383 1.340 . S
C382 H414 0.951 . S
C383 C382 1.340 . S
C383 C384 1.439 1_556 S
C383 H415 0.950 . S
C384 N380 1.374 . S
C384 C383 1.439 1_554 S
C384 C409 1.395 . S
N385 Co374 1.995 . S
N385 C386 1.376 . S
N385 C389 1.383 . S
C386 N385 1.376 . S
C386 C387 1.446 . S
C386 C409 1.391 . S
C387 C386 1.446 . S
C387 C388 1.339 . S
C387 H416 0.949 . S
C388 C387 1.339 . S
C388 C389 1.439 . S
C388 H417 0.950 . S
C389 N385 1.383 . S
C389 C388 1.439 . S
C389 C407 1.392 . S
N390 Co374 2.282 1_556 S
N390 C393 1.332 . S
N390 C395 1.332 . S
C391 C392 1.386 . S
C391 C394 1.388 . S
C392 C391 1.386 . S
C392 C393 1.382 . S
C392 H418 0.950 . S
C393 N390 1.332 . S
C393 C392 1.382 . S
C393 H404 0.952 . S
C394 C391 1.388 . S
C394 C395 1.382 . S
C394 H419 0.950 . S
C395 N390 1.332 . S
C395 C394 1.382 . S
C395 H405 0.948 . S
N396 Co374 2.282 . S
N396 C400 1.332 . S
N396 C401 1.332 . S
C397 C398 1.388 . S
C397 C401 1.382 . S
C397 H420 0.950 . S
C398 C397 1.388 . S
C398 C399 1.386 . S
C399 C398 1.386 . S
C399 C400 1.382 . S
C399 H421 0.950 . S
C400 N396 1.332 . S
C400 C399 1.382 . S
C400 H402 0.952 . S
C401 N396 1.332 . S
C401 C397 1.382 . S
C401 H403 0.948 . S
H402 C400 0.952 . S
H403 C401 0.948 . S
H404 C393 0.952 . S
H405 C395 0.948 . S
C406 C372 1.395 . S
C406 C376 1.391 1_554 S
C407 C369 1.389 . S
C407 C389 1.392 . S
C408 C379 1.392 . S
C408 C381 1.389 . S
C409 C384 1.395 . S
C409 C386 1.391 . S
H410 C370 0.951 . S
H411 C371 0.950 . S
H412 C377 0.949 . S
H413 C378 0.950 . S
H414 C382 0.951 . S
H415 C383 0.950 . S
H416 C387 0.949 . S
H417 C388 0.950 . S
H418 C392 0.950 . S
H419 C394 0.950 . S
H420 C397 0.950 . S
H421 C399 0.950 . S
H422 C428 0.930 . S
H423 C431 0.930 . S
H424 C432 0.930 . S
H425 C433 0.930 . S
H426 C436 0.930 . S
H427 C437 0.930 . S
C428 H422 0.930 . S
C428 C429 1.355 . S
C428 C430 1.415 . S
C429 C428 1.355 . S
C429 C431 1.419 . S
C430 C428 1.415 . S
C430 C435 1.425 . S
C430 C437 1.409 . S
C431 H423 0.930 . S
C431 C429 1.419 . S
C431 C432 1.362 . S
C432 H424 0.930 . S
C432 C431 1.362 . S
C432 C435 1.409 . S
C433 H425 0.930 . S
C433 C434 1.355 . S
C433 C435 1.415 . S
C434 C433 1.355 . S
C434 C436 1.419 . S
C435 C430 1.425 . S
C435 C432 1.409 . S
C435 C433 1.415 . S
C436 H426 0.930 . S
C436 C434 1.419 . S
C436 C437 1.362 . S
C437 H427 0.930 . S
C437 C430 1.409 . S
C437 C436 1.362 . S
H438 C444 0.930 . S
H439 C447 0.930 . S
H440 C448 0.930 . S
H441 C449 0.930 . S
H442 C452 0.930 . S
H443 C453 0.930 . S
C444 H438 0.930 . S
C444 C445 1.355 . S
C444 C446 1.415 . S
C445 C444 1.355 . S
C445 C447 1.419 . S
C446 C444 1.415 . S
C446 C451 1.425 . S
C446 C453 1.409 . S
C447 H439 0.930 . S
C447 C445 1.419 . S
C447 C448 1.362 . S
C448 H440 0.930 . S
C448 C447 1.362 . S
C448 C451 1.409 . S
C449 H441 0.930 . S
C449 C450 1.355 . S
C449 C451 1.415 . S
C450 C449 1.355 . S
C450 C452 1.419 . S
C451 C446 1.425 . S
C451 C448 1.409 . S
C451 C449 1.415 . S
C452 H442 0.930 . S
C452 C450 1.419 . S
C452 C453 1.362 . S
C453 H443 0.930 . S
C453 C446 1.409 . S
C453 C452 1.362 . S
H454 C460 0.930 . S
H455 C463 0.930 . S
H456 C464 0.930 . S
H457 C465 0.930 . S
H458 C468 0.930 . S
H459 C469 0.930 . S
C460 H454 0.930 . S
C460 C461 1.355 . S
C460 C462 1.415 . S
C461 C460 1.355 . S
C461 C463 1.419 . S
C462 C460 1.415 . S
C462 C467 1.425 . S
C462 C469 1.409 1_655 S
C463 H455 0.930 . S
C463 C461 1.419 . S
C463 C464 1.362 . S
C464 H456 0.930 . S
C464 C463 1.362 . S
C464 C467 1.409 . S
C465 H457 0.930 . S
C465 C466 1.355 . S
C465 C467 1.415 . S
C466 C465 1.355 . S
C466 C468 1.419 1_655 S
C467 C462 1.425 . S
C467 C464 1.409 . S
C467 C465 1.415 . S
C468 H458 0.930 . S
C468 C466 1.419 1_455 S
C468 C469 1.362 . S
C469 H459 0.930 . S
C469 C462 1.409 1_455 S
C469 C468 1.362 . S
H470 C476 0.930 . S
H471 C479 0.930 . S
H472 C480 0.930 . S
H473 C481 0.930 . S
H474 C484 0.930 . S
H475 C485 0.930 . S
C476 H470 0.930 . S
C476 C477 1.355 . S
C476 C478 1.415 . S
C477 C476 1.355 . S
C477 C479 1.419 . S
C478 C476 1.415 . S
C478 C483 1.425 . S
C478 C485 1.409 . S
C479 H471 0.930 . S
C479 C477 1.419 . S
C479 C480 1.362 . S
C480 H472 0.930 . S
C480 C479 1.362 . S
C480 C483 1.409 . S
C481 H473 0.930 . S
C481 C482 1.355 . S
C481 C483 1.415 . S
C482 C481 1.355 . S
C482 C484 1.419 . S
C483 C478 1.425 . S
C483 C480 1.409 . S
C483 C481 1.415 . S
C484 H474 0.930 . S
C484 C482 1.419 . S
C484 C485 1.362 . S
C485 H475 0.930 . S
C485 C478 1.409 . S
C485 C484 1.362 . S
H486 C492 0.930 . S
H487 C495 0.930 . S
H488 C496 0.930 . S
H489 C497 0.930 . S
H490 C500 0.930 . S
H491 C501 0.930 . S
C492 H486 0.930 . S
C492 C493 1.355 . S
C492 C494 1.415 . S
C493 C492 1.355 . S
C493 C495 1.419 . S
C494 C492 1.415 . S
C494 C499 1.425 . S
C494 C501 1.409 . S
C495 H487 0.930 . S
C495 C493 1.419 . S
C495 C496 1.362 . S
C496 H488 0.930 . S
C496 C495 1.362 . S
C496 C499 1.409 . S
C497 H489 0.930 . S
C497 C498 1.355 . S
C497 C499 1.415 . S
C498 C497 1.355 . S
C498 C500 1.419 . S
C499 C494 1.425 . S
C499 C496 1.409 . S
C499 C497 1.415 . S
C500 H490 0.930 . S
C500 C498 1.419 . S
C500 C501 1.362 . S
C501 H491 0.930 . S
C501 C494 1.409 . S
C501 C500 1.362 . S
H502 C508 0.930 . S
H503 C511 0.930 . S
H504 C512 0.930 . S
H505 C513 0.930 . S
H506 C516 0.930 . S
H507 C517 0.930 . S
C508 H502 0.930 . S
C508 C509 1.355 . S
C508 C510 1.415 . S
C509 C508 1.355 . S
C509 C511 1.419 . S
C510 C508 1.415 . S
C510 C515 1.425 . S
C510 C517 1.409 . S
C511 H503 0.930 . S
C511 C509 1.419 . S
C511 C512 1.362 . S
C512 H504 0.930 . S
C512 C511 1.362 . S
C512 C515 1.409 . S
C513 H505 0.930 . S
C513 C514 1.355 . S
C513 C515 1.415 . S
C514 C513 1.355 . S
C514 C516 1.419 . S
C515 C510 1.425 . S
C515 C512 1.409 . S
C515 C513 1.415 . S
C516 H506 0.930 . S
C516 C514 1.419 . S
C516 C517 1.362 . S
C517 H507 0.930 . S
C517 C510 1.409 . S
C517 C516 1.362 . S
H518 C524 0.930 . S
H519 C527 0.930 . S
H520 C528 0.930 . S
H521 C529 0.930 . S
H522 C532 0.930 1_455 S
H523 C533 0.930 . S
C524 H518 0.930 . S
C524 C525 1.355 . S
C524 C526 1.415 . S
C525 C524 1.355 . S
C525 C527 1.419 . S
C526 C524 1.415 . S
C526 C531 1.425 . S
C526 C533 1.409 . S
C527 H519 0.930 . S
C527 C525 1.419 . S
C527 C528 1.362 . S
C528 H520 0.930 . S
C528 C527 1.362 . S
C528 C531 1.409 . S
C529 H521 0.930 . S
C529 C530 1.355 . S
C529 C531 1.415 . S
C530 C529 1.355 . S
C530 C532 1.419 . S
C531 C526 1.425 . S
C531 C528 1.409 . S
C531 C529 1.415 . S
C532 H522 0.930 1_655 S
C532 C530 1.419 . S
C532 C533 1.362 . S
C533 H523 0.930 . S
C533 C526 1.409 . S
C533 C532 1.362 . S
H534 C540 0.930 . S
H535 C543 0.930 . S
H536 C544 0.930 . S
H537 C545 0.930 . S
H538 C548 0.930 . S
H539 C549 0.930 . S
C540 H534 0.930 . S
C540 C541 1.355 . S
C540 C542 1.415 . S
C541 C540 1.355 . S
C541 C543 1.419 . S
C542 C540 1.415 . S
C542 C547 1.425 . S
C542 C549 1.409 . S
C543 H535 0.930 . S
C543 C541 1.419 . S
C543 C544 1.362 . S
C544 H536 0.930 . S
C544 C543 1.362 . S
C544 C547 1.409 . S
C545 H537 0.930 . S
C545 C546 1.355 . S
C545 C547 1.415 . S
C546 C545 1.355 . S
C546 C548 1.419 . S
C547 C542 1.425 . S
C547 C544 1.409 . S
C547 C545 1.415 . S
C548 H538 0.930 . S
C548 C546 1.419 . S
C548 C549 1.362 . S
C549 H539 0.930 . S
C549 C542 1.409 . S
C549 C548 1.362 . S
H550 C556 0.930 . S
H551 C559 0.930 . S
H552 C560 0.930 . S
H553 C561 0.930 . S
H554 C564 0.930 . S
H555 C565 0.930 . S
C556 H550 0.930 . S
C556 C557 1.355 . S
C556 C558 1.415 . S
C557 C556 1.355 . S
C557 C559 1.419 . S
C558 C556 1.415 . S
C558 C563 1.425 . S
C558 C565 1.409 . S
C559 H551 0.930 . S
C559 C557 1.419 . S
C559 C560 1.362 . S
C560 H552 0.930 . S
C560 C559 1.362 . S
C560 C563 1.409 . S
C561 H553 0.930 . S
C561 C562 1.355 . S
C561 C563 1.415 . S
C562 C561 1.355 . S
C562 C564 1.419 . S
C563 C558 1.425 . S
C563 C560 1.409 . S
C563 C561 1.415 . S
C564 H554 0.930 . S
C564 C562 1.419 . S
C564 C565 1.362 . S
C565 H555 0.930 . S
C565 C558 1.409 . S
C565 C564 1.362 . S
H566 C572 0.930 . S
H567 C575 0.930 . S
H568 C576 0.930 . S
H569 C577 0.930 . S
H570 C580 0.930 . S
H571 C581 0.930 . S
C572 H566 0.930 . S
C572 C573 1.355 . S
C572 C574 1.415 . S
C573 C572 1.355 . S
C573 C575 1.419 . S
C574 C572 1.415 . S
C574 C579 1.425 . S
C574 C581 1.409 . S
C575 H567 0.930 . S
C575 C573 1.419 . S
C575 C576 1.362 . S
C576 H568 0.930 . S
C576 C575 1.362 . S
C576 C579 1.409 . S
C577 H569 0.930 . S
C577 C578 1.355 . S
C577 C579 1.415 . S
C578 C577 1.355 . S
C578 C580 1.419 . S
C579 C574 1.425 . S
C579 C576 1.409 . S
C579 C577 1.415 . S
C580 H570 0.930 . S
C580 C578 1.419 . S
C580 C581 1.362 . S
C581 H571 0.930 . S
C581 C574 1.409 . S
C581 C580 1.362 . S
H582 C588 0.930 . S
H583 C591 0.930 . S
H584 C592 0.930 . S
H585 C593 0.930 . S
H586 C596 0.930 . S
H587 C597 0.930 . S
C588 H582 0.930 . S
C588 C589 1.355 . S
C588 C590 1.415 . S
C589 C588 1.355 . S
C589 C591 1.419 . S
C590 C588 1.415 . S
C590 C595 1.425 . S
C590 C597 1.409 . S
C591 H583 0.930 . S
C591 C589 1.419 . S
C591 C592 1.362 . S
C592 H584 0.930 . S
C592 C591 1.362 . S
C592 C595 1.409 . S
C593 H585 0.930 . S
C593 C594 1.355 . S
C593 C595 1.415 . S
C594 C593 1.355 . S
C594 C596 1.419 . S
C595 C590 1.425 . S
C595 C592 1.409 . S
C595 C593 1.415 . S
C596 H586 0.930 . S
C596 C594 1.419 . S
C596 C597 1.362 . S
C597 H587 0.930 . S
C597 C590 1.409 . S
C597 C596 1.362 . S
H598 C604 0.930 . S
H599 C607 0.930 . S
H600 C608 0.930 . S
H601 C609 0.930 . S
H602 C612 0.930 . S
H603 C613 0.930 . S
C604 H598 0.930 . S
C604 C605 1.355 . S
C604 C606 1.415 . S
C605 C604 1.355 . S
C605 C607 1.419 . S
C606 C604 1.415 . S
C606 C611 1.425 . S
C606 C613 1.409 . S
C607 H599 0.930 . S
C607 C605 1.419 . S
C607 C608 1.362 . S
C608 H600 0.930 . S
C608 C607 1.362 . S
C608 C611 1.409 . S
C609 H601 0.930 . S
C609 C610 1.355 . S
C609 C611 1.415 . S
C610 C609 1.355 . S
C610 C612 1.419 . S
C611 C606 1.425 . S
C611 C608 1.409 . S
C611 C609 1.415 . S
C612 H602 0.930 . S
C612 C610 1.419 . S
C612 C613 1.362 . S
C613 H603 0.930 . S
C613 C606 1.409 . S
C613 C612 1.362 . S
H614 C620 0.930 . S
H615 C623 0.930 . S
H616 C624 0.930 . S
H617 C625 0.930 . S
H618 C628 0.930 . S
H619 C629 0.930 . S
C620 H614 0.930 . S
C620 C621 1.355 . S
C620 C622 1.415 . S
C621 C620 1.355 . S
C621 C623 1.419 . S
C622 C620 1.415 . S
C622 C627 1.425 . S
C622 C629 1.409 . S
C623 H615 0.930 . S
C623 C621 1.419 . S
C623 C624 1.362 . S
C624 H616 0.930 . S
C624 C623 1.362 . S
C624 C627 1.409 . S
C625 H617 0.930 . S
C625 C626 1.355 . S
C625 C627 1.415 . S
C626 C625 1.355 . S
C626 C628 1.419 . S
C627 C622 1.425 . S
C627 C624 1.409 . S
C627 C625 1.415 . S
C628 H618 0.930 . S
C628 C626 1.419 . S
C628 C629 1.362 . S
C629 H619 0.930 . S
C629 C622 1.409 . S
C629 C628 1.362 . S
H630 C636 0.930 . S
H631 C639 0.930 . S
H632 C640 0.930 . S
H633 C641 0.930 1_455 S
H634 C644 0.930 . S
H635 C645 0.930 . S
C636 H630 0.930 . S
C636 C637 1.355 . S
C636 C638 1.415 . S
C637 C636 1.355 . S
C637 C639 1.419 . S
C638 C636 1.415 . S
C638 C643 1.425 . S
C638 C645 1.409 . S
C639 H631 0.930 . S
C639 C637 1.419 . S
C639 C640 1.362 . S
C640 H632 0.930 . S
C640 C639 1.362 . S
C640 C643 1.409 . S
C641 H633 0.930 1_655 S
C641 C642 1.355 . S
C641 C643 1.415 . S
C642 C641 1.355 . S
C642 C644 1.419 . S
C643 C638 1.425 . S
C643 C640 1.409 . S
C643 C641 1.415 . S
C644 H634 0.930 . S
C644 C642 1.419 . S
C644 C645 1.362 . S
C645 H635 0.930 . S
C645 C638 1.409 . S
C645 C644 1.362 . S
H646 C652 0.930 . S
H647 C655 0.930 . S
H648 C656 0.930 . S
H649 C657 0.930 . S
H650 C660 0.930 . S
H651 C661 0.930 . S
C652 H646 0.930 . S
C652 C653 1.355 . S
C652 C654 1.415 . S
C653 C652 1.355 . S
C653 C655 1.419 . S
C654 C652 1.415 . S
C654 C659 1.425 . S
C654 C661 1.409 . S
C655 H647 0.930 . S
C655 C653 1.419 . S
C655 C656 1.362 . S
C656 H648 0.930 . S
C656 C655 1.362 . S
C656 C659 1.409 . S
C657 H649 0.930 . S
C657 C658 1.355 . S
C657 C659 1.415 . S
C658 C657 1.355 . S
C658 C660 1.419 . S
C659 C654 1.425 . S
C659 C656 1.409 . S
C659 C657 1.415 . S
C660 H650 0.930 . S
C660 C658 1.419 . S
C660 C661 1.362 . S
C661 H651 0.930 . S
C661 C654 1.409 . S
C661 C660 1.362 . S
H662 C668 0.930 . S
H663 C671 0.930 . S
H664 C672 0.930 . S
H665 C673 0.930 . S
H666 C676 0.930 . S
H667 C677 0.930 . S
C668 H662 0.930 . S
C668 C669 1.355 . S
C668 C670 1.415 . S
C669 C668 1.355 . S
C669 C671 1.419 . S
C670 C668 1.415 . S
C670 C675 1.425 . S
C670 C677 1.409 . S
C671 H663 0.930 . S
C671 C669 1.419 . S
C671 C672 1.362 . S
C672 H664 0.930 . S
C672 C671 1.362 . S
C672 C675 1.409 . S
C673 H665 0.930 . S
C673 C674 1.355 . S
C673 C675 1.415 . S
C674 C673 1.355 . S
C674 C676 1.419 . S
C675 C670 1.425 . S
C675 C672 1.409 . S
C675 C673 1.415 . S
C676 H666 0.930 . S
C676 C674 1.419 . S
C676 C677 1.362 . S
C677 H667 0.930 . S
C677 C670 1.409 . S
C677 C676 1.362 . S
H678 C684 0.930 . S
H679 C687 0.930 . S
H680 C688 0.930 . S
H681 C689 0.930 . S
H682 C692 0.930 . S
H683 C693 0.930 . S
C684 H678 0.930 . S
C684 C685 1.355 . S
C684 C686 1.415 . S
C685 C684 1.355 . S
C685 C687 1.419 . S
C686 C684 1.415 . S
C686 C691 1.425 . S
C686 C693 1.409 . S
C687 H679 0.930 . S
C687 C685 1.419 . S
C687 C688 1.362 . S
C688 H680 0.930 . S
C688 C687 1.362 . S
C688 C691 1.409 . S
C689 H681 0.930 . S
C689 C690 1.355 . S
C689 C691 1.415 . S
C690 C689 1.355 . S
C690 C692 1.419 . S
C691 C686 1.425 . S
C691 C688 1.409 . S
C691 C689 1.415 . S
C692 H682 0.930 . S
C692 C690 1.419 . S
C692 C693 1.362 . S
C693 H683 0.930 . S
C693 C686 1.409 . S
C693 C692 1.362 . S
H694 C700 0.930 . S
H695 C703 0.930 . S
H696 C704 0.930 . S
H697 C705 0.930 . S
H698 C708 0.930 . S
H699 C709 0.930 . S
C700 H694 0.930 . S
C700 C701 1.355 . S
C700 C702 1.415 . S
C701 C700 1.355 . S
C701 C703 1.419 . S
C702 C700 1.415 . S
C702 C707 1.425 . S
C702 C709 1.409 . S
C703 H695 0.930 . S
C703 C701 1.419 . S
C703 C704 1.362 . S
C704 H696 0.930 . S
C704 C703 1.362 . S
C704 C707 1.409 . S
C705 H697 0.930 . S
C705 C706 1.355 . S
C705 C707 1.415 . S
C706 C705 1.355 . S
C706 C708 1.419 . S
C707 C702 1.425 . S
C707 C704 1.409 . S
C707 C705 1.415 . S
C708 H698 0.930 . S
C708 C706 1.419 . S
C708 C709 1.362 . S
C709 H699 0.930 . S
C709 C702 1.409 . S
C709 C708 1.362 . S
H710 C716 0.930 . S
H711 C719 0.930 . S
H712 C720 0.930 . S
H713 C721 0.930 . S
H714 C724 0.930 . S
H715 C725 0.930 . S
C716 H710 0.930 . S
C716 C717 1.355 . S
C716 C718 1.415 . S
C717 C716 1.355 . S
C717 C719 1.419 . S
C718 C716 1.415 . S
C718 C723 1.425 . S
C718 C725 1.409 . S
C719 H711 0.930 . S
C719 C717 1.419 . S
C719 C720 1.362 . S
C720 H712 0.930 . S
C720 C719 1.362 . S
C720 C723 1.409 . S
C721 H713 0.930 . S
C721 C722 1.355 . S
C721 C723 1.415 . S
C722 C721 1.355 . S
C722 C724 1.419 . S
C723 C718 1.425 . S
C723 C720 1.409 . S
C723 C721 1.415 . S
C724 H714 0.930 . S
C724 C722 1.419 . S
C724 C725 1.362 . S
C725 H715 0.930 . S
C725 C718 1.409 . S
C725 C724 1.362 . S
H726 C732 0.930 . S
H727 C735 0.930 . S
H728 C736 0.930 . S
H729 C737 0.930 . S
H730 C740 0.930 . S
H731 C741 0.930 . S
C732 H726 0.930 . S
C732 C733 1.355 . S
C732 C734 1.415 . S
C733 C732 1.355 . S
C733 C735 1.419 . S
C734 C732 1.415 . S
C734 C739 1.425 . S
C734 C741 1.409 . S
C735 H727 0.930 . S
C735 C733 1.419 . S
C735 C736 1.362 . S
C736 H728 0.930 . S
C736 C735 1.362 . S
C736 C739 1.409 . S
C737 H729 0.930 . S
C737 C738 1.355 . S
C737 C739 1.415 . S
C738 C737 1.355 . S
C738 C740 1.419 . S
C739 C734 1.425 . S
C739 C736 1.409 . S
C739 C737 1.415 . S
C740 H730 0.930 . S
C740 C738 1.419 . S
C740 C741 1.362 . S
C741 H731 0.930 . S
C741 C734 1.409 . S
C741 C740 1.362 . S
H742 C748 0.930 . S
H743 C751 0.930 . S
H744 C752 0.930 . S
H745 C753 0.930 . S
H746 C756 0.930 . S
H747 C757 0.930 . S
C748 H742 0.930 . S
C748 C749 1.355 . S
C748 C750 1.415 . S
C749 C748 1.355 . S
C749 C751 1.419 . S
C750 C748 1.415 . S
C750 C755 1.425 . S
C750 C757 1.409 . S
C751 H743 0.930 . S
C751 C749 1.419 . S
C751 C752 1.362 . S
C752 H744 0.930 . S
C752 C751 1.362 . S
C752 C755 1.409 . S
C753 H745 0.930 . S
C753 C754 1.355 . S
C753 C755 1.415 . S
C754 C753 1.355 . S
C754 C756 1.419 . S
C755 C750 1.425 . S
C755 C752 1.409 . S
C755 C753 1.415 . S
C756 H746 0.930 . S
C756 C754 1.419 . S
C756 C757 1.362 . S
C757 H747 0.930 . S
C757 C750 1.409 . S
C757 C756 1.362 . S
H758 C764 0.930 . S
H759 C767 0.930 . S
H760 C768 0.930 . S
H761 C769 0.930 . S
H762 C772 0.930 . S
H763 C773 0.930 . S
C764 H758 0.930 . S
C764 C765 1.355 . S
C764 C766 1.415 . S
C765 C764 1.355 . S
C765 C767 1.419 . S
C766 C764 1.415 . S
C766 C771 1.425 . S
C766 C773 1.409 . S
C767 H759 0.930 . S
C767 C765 1.419 . S
C767 C768 1.362 . S
C768 H760 0.930 . S
C768 C767 1.362 . S
C768 C771 1.409 . S
C769 H761 0.930 . S
C769 C770 1.355 . S
C769 C771 1.415 . S
C770 C769 1.355 . S
C770 C772 1.419 . S
C771 C766 1.425 . S
C771 C768 1.409 . S
C771 C769 1.415 . S
C772 H762 0.930 . S
C772 C770 1.419 . S
C772 C773 1.362 . S
C773 H763 0.930 . S
C773 C766 1.409 . S
C773 C772 1.362 . S
H774 C780 0.930 . S
H775 C783 0.930 . S
H776 C784 0.930 . S
H777 C785 0.930 . S
H778 C788 0.930 . S
H779 C789 0.930 . S
C780 H774 0.930 . S
C780 C781 1.355 . S
C780 C782 1.415 . S
C781 C780 1.355 . S
C781 C783 1.419 . S
C782 C780 1.415 . S
C782 C787 1.425 . S
C782 C789 1.409 . S
C783 H775 0.930 . S
C783 C781 1.419 . S
C783 C784 1.362 . S
C784 H776 0.930 . S
C784 C783 1.362 . S
C784 C787 1.409 . S
C785 H777 0.930 . S
C785 C786 1.355 . S
C785 C787 1.415 . S
C786 C785 1.355 . S
C786 C788 1.419 . S
C787 C782 1.425 . S
C787 C784 1.409 . S
C787 C785 1.415 . S
C788 H778 0.930 . S
C788 C786 1.419 . S
C788 C789 1.362 . S
C789 H779 0.930 . S
C789 C782 1.409 . S
C789 C788 1.362 . S
H790 C796 0.930 . S
H791 C799 0.930 . S
H792 C800 0.930 . S
H793 C801 0.930 . S
H794 C804 0.930 . S
H795 C805 0.930 . S
C796 H790 0.930 . S
C796 C797 1.355 . S
C796 C798 1.415 . S
C797 C796 1.355 . S
C797 C799 1.419 . S
C798 C796 1.415 . S
C798 C803 1.425 . S
C798 C805 1.409 . S
C799 H791 0.930 . S
C799 C797 1.419 . S
C799 C800 1.362 . S
C800 H792 0.930 . S
C800 C799 1.362 . S
C800 C803 1.409 . S
C801 H793 0.930 . S
C801 C802 1.355 . S
C801 C803 1.415 . S
C802 C801 1.355 . S
C802 C804 1.419 . S
C803 C798 1.425 . S
C803 C800 1.409 . S
C803 C801 1.415 . S
C804 H794 0.930 . S
C804 C802 1.419 . S
C804 C805 1.362 . S
C805 H795 0.930 . S
C805 C798 1.409 . S
C805 C804 1.362 . S
C434 C126 1.402 . S
C429 N2 1.395 . S
C450 C195 1.569 . S
C445 N15 1.611 . S
C466 C133 1.529 1_655 S
C461 N27 1.531 . S
C482 C196 1.773 . S
C477 N44 1.817 . S
C498 C249 1.679 . S
C493 N1 1.693 . S
C514 C285 1.714 . S
C509 N18 1.706 . S
C525 N28 1.736 . S
C530 C345 1.690 . S
C546 C408 1.629 . S
C541 N41 1.649 . S
C562 C248 1.617 . S
C557 N14 1.666 . S
C573 N31 1.662 . S
C578 C292 1.647 . S
C594 C338 1.860 . S
C589 N40 1.890 . S
C610 C407 1.686 . S
C605 N5 1.740 . S
C621 N53 1.900 . S
C626 C186 1.884 . S
C642 C143 1.595 1_655 S
C637 N70 1.571 . S
C653 N80 1.681 . S
C658 C179 1.621 . S
C669 N92 1.574 . S
C674 C142 1.576 . S
C690 C354 1.873 . S
C685 N57 1.925 . S
C706 C398 1.584 . S
C701 N67 1.591 . S
C722 C232 1.745 . S
C717 N83 1.769 . S
C733 N96 1.614 . S
C738 C301 1.629 . S
C754 C355 1.735 . S
C749 N66 1.753 . S
C770 C391 1.592 . S
C765 N79 1.647 . S
C786 C239 1.630 . S
C781 N93 1.680 . S
C797 N54 1.471 . S
C802 C302 1.484 . S
