# Generated by pormake.
# Topology ssa, (4,4)-cn, num edge types: 1
# Building blocks:
#     Node 0, Type 0, BuildingBlock: KOZSID_clean_sbu_0, # of connection points: 4
#     Node 1, Type 0, BuildingBlock: KOZSID_clean_sbu_0, # of connection points: 4
#     Node 2, Type 0, BuildingBlock: KOZSID_clean_sbu_0, # of connection points: 4
#     Node 3, Type 0, BuildingBlock: KOZSID_clean_sbu_0, # of connection points: 4
#     Node 4, Type 0, BuildingBlock: KOZSID_clean_sbu_0, # of connection points: 4
#     Node 5, Type 0, BuildingBlock: KOZSID_clean_sbu_0, # of connection points: 4
#     Node 6, Type 1, BuildingBlock: MUDLON_clean_linker_0, # of connection points: 4
#     Node 7, Type 1, BuildingBlock: MUDLON_clean_linker_0, # of connection points: 4
#     Node 8, Type 1, BuildingBlock: MUDLON_clean_linker_0, # of connection points: 4
#     Node 9, Type 1, BuildingBlock: MUDLON_clean_linker_0, # of connection points: 4
#     Node 10, Type 1, BuildingBlock: MUDLON_clean_linker_0, # of connection points: 4
#     Node 11, Type 1, BuildingBlock: MUDLON_clean_linker_0, # of connection points: 4
#     Edge 12, Type (0, 1), None
#     Edge 13, Type (0, 1), None
#     Edge 14, Type (0, 1), None
#     Edge 15, Type (0, 1), None
#     Edge 16, Type (0, 1), None
#     Edge 17, Type (0, 1), None
#     Edge 18, Type (0, 1), None
#     Edge 19, Type (0, 1), None
#     Edge 20, Type (0, 1), None
#     Edge 21, Type (0, 1), None
#     Edge 22, Type (0, 1), None
#     Edge 23, Type (0, 1), None
#     Edge 24, Type (0, 1), None
#     Edge 25, Type (0, 1), None
#     Edge 26, Type (0, 1), None
#     Edge 27, Type (0, 1), None
#     Edge 28, Type (0, 1), None
#     Edge 29, Type (0, 1), None
#     Edge 30, Type (0, 1), None
#     Edge 31, Type (0, 1), None
#     Edge 32, Type (0, 1), None
#     Edge 33, Type (0, 1), None
#     Edge 34, Type (0, 1), None
#     Edge 35, Type (0, 1), None
# Relax obj value: 0.012
# Max RMSD: 0.047
# Mean RMSD: 0.029
data_MOF--net-ssa--node1-KOZSID_clean_sbu_0--node2-MUDLON_clean_linker_0--edge1-none
_symmetry_space_group_name_H-M    P1
_symmetry_Int_Tables_number       1
_symmetry_cell_setting            triclinic
loop_
_symmetry_equiv_pos_as_xyz
'x, y, z'
_cell_length_a     46.071096
_cell_length_b     47.552156
_cell_length_c     26.164222
_cell_angle_alpha  86.165641
_cell_angle_beta   89.849096
_cell_angle_gamma 123.10488
loop_
_atom_site_label
_atom_site_type_symbol
_atom_site_fract_x
_atom_site_fract_y
_atom_site_fract_z
_atom_type_partial_charge
C0 C 0.96571 0.51353 0.0164 0.0
C1 C 0.93239 0.50425 0.0307 0.0
C2 C 0.9247 0.48742 0.0782 0.0
C3 C 0.95368 0.48747 0.09024 0.0
N4 N 0.97942 0.5034 0.05331 0.0
Co5 Co 0.026 0.50957 0.05521 0.0
N6 N 0.01274 0.48016 0.12086 0.0
C7 C 0.98324 0.4669 0.15011 0.0
C8 C 0.98392 0.45237 0.19669 0.0
C9 C 0.01514 0.45532 0.19601 0.0
C10 C 0.031 0.46996 0.14782 0.0
N11 N 0.07283 0.51669 0.05826 0.0
C12 C 0.08519 0.50443 0.09401 0.0
C13 C 0.12123 0.52346 0.09151 0.0
C14 C 0.13153 0.54538 0.04866 0.0
C15 C 0.10141 0.53995 0.02943 0.0
N16 N 0.03904 0.53754 0.98824 0.0
C17 C 0.06998 0.55309 0.96175 0.0
C18 C 0.07045 0.56813 0.91498 0.0
C19 C 0.03779 0.56156 0.91115 0.0
C20 C 0.01929 0.54314 0.95636 0.0
N21 N 0.04362 0.55054 0.09412 0.0
C22 C 0.07482 0.60587 0.1554 0.0
C23 C 0.08818 0.60881 0.10606 0.0
C24 C 0.07195 0.58135 0.07605 0.0
C25 C 0.04417 0.57567 0.17211 0.0
C26 C 0.02904 0.54875 0.14105 0.0
N27 N 0.00886 0.46951 0.01667 0.0
C28 C 0.01612 0.44404 0.94525 0.0
C29 C 0.98134 0.41714 0.95097 0.0
C30 C 0.96126 0.41591 0.99232 0.0
C31 C 0.97558 0.44204 0.02491 0.0
C32 C 0.02932 0.46969 0.97849 0.0
H33 H 0.95917 0.44009 0.05584 0.0
H34 H 0.05586 0.49008 0.97181 0.0
H35 H 0.08325 0.58592 0.03861 0.0
H36 H 0.00583 0.52682 0.15656 0.0
C37 C 0.95663 0.47085 0.13408 0.0
C38 C 0.98324 0.53194 0.96749 0.0
C39 C 0.06296 0.47362 0.12787 0.0
C40 C 0.09862 0.55477 0.98333 0.0
H41 H 0.91532 0.50895 0.00887 0.0
H42 H 0.90062 0.47595 0.10083 0.0
H43 H 0.96446 0.44167 0.2279 0.0
H44 H 0.02505 0.44775 0.22776 0.0
H45 H 0.13841 0.52134 0.11723 0.0
H46 H 0.15778 0.56299 0.03331 0.0
H47 H 0.09201 0.58236 0.88713 0.0
H48 H 0.02874 0.56959 0.87876 0.0
H49 H 0.11125 0.63218 0.0907 0.0
H50 H 0.03247 0.57226 0.20989 0.0
H51 H 0.03278 0.44616 0.91391 0.0
H52 H 0.93448 0.39514 -0.00091 0.0
C53 C 0.58425 0.02582 0.60293 0.0
C54 C 0.58116 0.00927 0.65051 0.0
C55 C 0.54999 0.97922 0.65286 0.0
C56 C 0.53558 0.97917 0.60719 0.0
N57 N 0.55573 0.00734 0.57548 0.0
Co58 Co 0.54308 0.019 0.50756 0.0
N59 N 0.49637 0.97534 0.51247 0.0
C60 C 0.48372 0.95033 0.55062 0.0
C61 C 0.45115 0.9232 0.54303 0.0
C62 C 0.44248 0.93116 0.49703 0.0
C63 C 0.47044 0.9628 0.47916 0.0
N64 N 0.53013 0.03103 0.44022 0.0
C65 C 0.5007 0.0135 0.41425 0.0
C66 C 0.50249 0.03111 0.36852 0.0
C67 C 0.53404 0.06084 0.36557 0.0
C68 C 0.54972 0.05971 0.40935 0.0
N69 N 0.59005 0.06233 0.50212 0.0
C70 C 0.60337 0.08648 0.46262 0.0
C71 C 0.63647 0.11302 0.46917 0.0
C72 C 0.6448 0.10559 0.51587 0.0
C73 C 0.61602 0.07494 0.53537 0.0
N74 N 0.5625 0.99672 0.4719 0.0
C75 C 0.5878 0.96398 0.41895 0.0
C76 C 0.59491 0.99545 0.40025 0.0
C77 C 0.58209 0.01117 0.427 0.0
C78 C 0.5682 0.94935 0.46499 0.0
C79 C 0.55613 0.96613 0.49082 0.0
N80 N 0.52365 0.04117 0.54327 0.0
C81 C 0.52141 0.09004 0.55537 0.0
C82 C 0.49804 0.07311 0.5975 0.0
C83 C 0.48737 0.03985 0.61145 0.0
C84 C 0.50037 0.02456 0.58416 0.0
C85 C 0.5336 0.07362 0.52873 0.0
H86 H 0.49152 0.99941 0.59745 0.0
H87 H 0.55127 0.08777 0.49684 0.0
H88 H 0.58803 0.03482 0.41017 0.0
H89 H 0.54151 0.9537 0.52581 0.0
C90 C 0.50273 0.95347 0.59373 0.0
C91 C 0.61438 0.05932 0.58613 0.0
C92 C 0.47108 0.97972 0.43025 0.0
C93 C 0.58348 0.08433 0.42112 0.0
H94 H 0.59917 0.01807 0.681 0.0
H95 H 0.53883 0.95999 0.68458 0.0
H96 H 0.43554 0.9004 0.56805 0.0
H97 H 0.4183 0.91545 0.47867 0.0
H98 H 0.48323 0.02314 0.33977 0.0
H99 H 0.54457 0.08064 0.33469 0.0
H100 H 0.65243 0.13537 0.44343 0.0
H101 H 0.66916 0.12122 0.53383 0.0
H102 H 0.60956 0.00762 0.36427 0.0
H103 H 0.56226 0.9251 0.48118 0.0
H104 H 0.53024 0.1158 0.54295 0.0
H105 H 0.46976 0.02582 0.64438 0.0
C106 C 0.59458 0.55779 0.91785 0.0
C107 C 0.60123 0.57891 0.87393 0.0
C108 C 0.57376 0.58227 0.8699 0.0
C109 C 0.55192 0.56303 0.91122 0.0
N110 N 0.56376 0.54758 0.94161 0.0
Co111 Co 0.53979 0.5167 0.00511 0.0
N112 N 0.49832 0.52 0.99715 0.0
C113 C 0.49348 0.53749 0.95897 0.0
C114 C 0.46212 0.53425 0.96279 0.0
C115 C 0.44591 0.51357 0.00617 0.0
C116 C 0.46859 0.50561 0.02665 0.0
N117 N 0.51608 0.48625 0.06907 0.0
C118 C 0.48536 0.47624 0.09304 0.0
C119 C 0.47993 0.45702 0.13883 0.0
C120 C 0.50773 0.45426 0.1434 0.0
C121 C 0.52875 0.47216 0.10079 0.0
N122 N 0.581 0.51293 0.01256 0.0
C123 C 0.58559 0.49486 0.05005 0.0
C124 C 0.61609 0.49655 0.04446 0.0
C125 C 0.63189 0.51665 0.00044 0.0
C126 C 0.60994 0.52601 0.98166 0.0
N127 N 0.56173 0.55626 0.04677 0.0
C128 C 0.59008 0.61068 0.10916 0.0
C129 C 0.59306 0.58333 0.12107 0.0
C130 C 0.57883 0.55669 0.08974 0.0
C131 C 0.57318 0.61067 0.06494 0.0
C132 C 0.55955 0.58353 0.0343 0.0
N133 N 0.51786 0.47716 0.96358 0.0
C134 C 0.50317 0.42114 0.94914 0.0
C135 C 0.48892 0.42212 0.90259 0.0
C136 C 0.489 0.45086 0.88738 0.0
C137 C 0.50359 0.47789 0.91805 0.0
C138 C 0.51711 0.44862 0.97905 0.0
H139 H 0.50339 0.49924 0.90377 0.0
H140 H 0.52732 0.44626 0.01433 0.0
H141 H 0.58161 0.53654 0.10165 0.0
H142 H 0.5471 0.58508 0.00103 0.0
C143 C 0.5192 0.5573 0.9206 0.0
C144 C 0.61768 0.54712 0.93415 0.0
C145 C 0.46084 0.48467 0.0745 0.0
C146 C 0.56077 0.47663 0.09009 0.0
H147 H 0.6233 0.59025 0.84692 0.0
H148 H 0.56979 0.5964 0.83973 0.0
H149 H 0.45229 0.54569 0.93721 0.0
H150 H 0.42034 0.50542 0.02116 0.0
H151 H 0.45838 0.44635 0.16663 0.0
H152 H 0.51232 0.44114 0.17448 0.0
H153 H 0.62562 0.48448 0.06931 0.0
H154 H 0.65671 0.52355 0.98387 0.0
H155 H 0.60544 0.5819 0.1554 0.0
H156 H 0.57049 0.63148 0.05399 0.0
H157 H 0.50345 0.39924 0.96254 0.0
H158 H 0.47867 0.45294 0.85118 0.0
C159 C 0.99169 0.43964 0.56611 0.0
C160 C 0.96103 0.41312 0.5488 0.0
C161 C 0.95913 0.42243 0.49875 0.0
C162 C 0.98866 0.45395 0.48842 0.0
N163 N 0.00888 0.46504 0.52886 0.0
Co164 Co 0.05376 0.50899 0.53095 0.0
N165 N 0.04331 0.5284 0.46986 0.0
C166 C 0.01934 0.51071 0.43567 0.0
C167 C 0.01858 0.53073 0.39619 0.0
C168 C 0.04392 0.56298 0.40571 0.0
C169 C 0.05889 0.56085 0.4507 0.0
N170 N 0.09861 0.55303 0.53353 0.0
C171 C 0.10938 0.58352 0.50946 0.0
C172 C 0.14305 0.60762 0.52157 0.0
C173 C 0.15388 0.59141 0.5535 0.0
C174 C 0.12631 0.55849 0.55925 0.0
N175 N 0.06426 0.48918 0.59144 0.0
C176 C 0.09574 0.50113 0.6103 0.0
C177 C 0.0947 0.48228 0.65322 0.0
C178 C 0.06044 0.45686 0.66172 0.0
C179 C 0.04249 0.46157 0.62314 0.0
N180 N 0.07576 0.49391 0.48584 0.0
C181 C 0.10113 0.47068 0.41291 0.0
C182 C 0.07792 0.44886 0.45345 0.0
C183 C 0.06627 0.46112 0.48999 0.0
C184 C 0.11303 0.50493 0.41238 0.0
C185 C 0.09945 0.51575 0.44805 0.0
N186 N 0.03162 0.52396 0.57565 0.0
C187 C 0.03128 0.54933 0.65194 0.0
C188 C 0.99863 0.54334 0.64133 0.0
C189 C 0.98306 0.52778 0.59678 0.0
C190 C 1.00002 0.51845 0.56441 0.0
C191 C 0.04726 0.53941 0.61875 0.0
H192 H 0.98738 0.50648 0.53047 0.0
H193 H 0.0721 0.54387 0.6283 0.0
H194 H 0.04847 0.44365 0.52047 0.0
H195 H 0.10757 0.54174 0.4439 0.0
C196 C 0.99528 0.476 0.44531 0.0
C197 C 0.00518 0.43891 0.61641 0.0
C198 C 0.09039 0.58962 0.47006 0.0
C199 C 0.12394 0.53317 0.59307 0.0
H200 H 0.9422 0.3895 0.56999 0.0
H201 H 0.93809 0.40842 0.47364 0.0
H202 H 0.00129 0.5229 0.36472 0.0
H203 H 0.05113 0.58541 0.38149 0.0
H204 H 0.15848 0.63396 0.50766 0.0
H205 H 0.17867 0.60247 0.57108 0.0
H206 H 0.11596 0.48737 0.67706 0.0
H207 H 0.04996 0.43737 0.69302 0.0
H208 H 0.06749 0.42217 0.45635 0.0
H209 H 0.1321 0.52351 0.3839 0.0
H210 H 0.04407 0.56088 0.68631 0.0
H211 H 0.95799 0.52294 0.58687 0.0
C212 C 0.49936 0.00551 0.10976 0.0
C213 C 0.50404 0.02202 0.15392 0.0
C214 C 0.53571 0.05151 0.148 0.0
C215 C 0.54883 0.05124 0.10119 0.0
N216 N 0.52744 0.02336 0.07662 0.0
Co217 Co 0.53814 0.01119 0.01037 0.0
N218 N 0.58488 0.05479 0.00198 0.0
C219 C 0.5987 0.0799 0.03385 0.0
C220 C 0.63086 0.10702 0.01756 0.0
C221 C 0.63797 0.09898 0.9722 0.0
C222 C 0.60955 0.06729 0.96348 0.0
N223 N 0.54925 0.99864 0.94481 0.0
C224 C 0.5777 0.01615 0.91233 0.0
C225 C 0.57487 0.99813 0.87092 0.0
C226 C 0.5436 0.96816 0.8775 0.0
C227 C 0.52912 0.96958 0.92227 0.0
N228 N 0.49097 0.96806 0.01797 0.0
C229 C 0.47672 0.94357 0.98501 0.0
C230 C 0.44346 0.91769 -0.00093 0.0
C231 C 0.43595 0.92598 0.04387 0.0
C232 C 0.46538 0.95641 0.05492 0.0
N233 N 0.51797 0.0333 0.97148 0.0
C234 C 0.49326 0.0665 0.91143 0.0
C235 C 0.48386 0.03411 0.9021 0.0
C236 C 0.49666 0.01821 0.93206 0.0
C237 C 0.51434 0.08173 0.95215 0.0
C238 C 0.52584 0.06453 0.9821 0.0
N239 N 0.5584 0.98906 0.0493 0.0
C240 C 0.5581 0.93908 0.07535 0.0
C241 C 0.5839 0.95668 0.10971 0.0
C242 C 0.59759 0.99087 0.11224 0.0
C243 C 0.5844 0.00637 0.08226 0.0
C244 C 0.5462 0.95579 0.0451 0.0
H245 H 0.59525 0.03219 0.08739 0.0
H246 H 0.52675 0.94106 0.01926 0.0
H247 H 0.48955 0.99404 0.92183 0.0
H248 H 0.54152 0.07719 0.01308 0.0
C249 C 0.5812 0.07676 0.07956 0.0
C250 C 0.46797 0.97283 0.10144 0.0
C251 C 0.60726 0.05028 0.91799 0.0
C252 C 0.4957 0.94515 0.94198 0.0
H253 H 0.48668 0.01362 0.18744 0.0
H254 H 0.54791 0.07069 0.17492 0.0
H255 H 0.64722 0.12985 0.03648 0.0
H256 H 0.66143 0.11466 0.94822 0.0
H257 H 0.59322 0.00603 0.83875 0.0
H258 H 0.53237 0.94809 0.852 0.0
H259 H 0.42676 0.89534 0.97929 0.0
H260 H 0.4116 0.91111 0.06606 0.0
H261 H 0.46784 0.02162 0.87043 0.0
H262 H 0.52206 0.10685 0.96061 0.0
H263 H 0.54695 0.91249 0.07218 0.0
H264 H 0.61742 0.00532 0.1389 0.0
C265 C 0.55712 0.58238 0.47485 0.0
C266 C 0.55252 0.60719 0.48991 0.0
C267 C 0.53025 0.59358 0.53201 0.0
C268 C 0.52269 0.56145 0.54031 0.0
N269 N 0.5389 0.55368 0.5062 0.0
Co270 Co 0.53562 0.50984 0.50447 0.0
N271 N 0.50176 0.48944 0.56516 0.0
C272 C 0.48848 0.50406 0.5908 0.0
C273 C 0.46595 0.48388 0.63099 0.0
C274 C 0.46483 0.45462 0.6313 0.0
C275 C 0.48683 0.45868 0.59099 0.0
N276 N 0.53285 0.46623 0.50338 0.0
C277 C 0.51554 0.43798 0.53583 0.0
C278 C 0.52123 0.41361 0.52215 0.0
C279 C 0.54327 0.42707 0.47976 0.0
C280 C 0.54971 0.45872 0.47007 0.0
N281 N 0.56904 0.53009 0.44323 0.0
C282 C 0.58113 0.51497 0.41621 0.0
C283 C 0.60294 0.53486 0.3752 0.0
C284 C 0.60477 0.56444 0.37575 0.0
C285 C 0.58396 0.56089 0.4174 0.0
N286 N 0.57489 0.52637 0.55077 0.0
C287 C 0.62979 0.5487 0.61781 0.0
C288 C 0.62937 0.53361 0.57364 0.0
C289 C 0.602 0.52294 0.54068 0.0
C290 C 0.60239 0.55252 0.62778 0.0
C291 C 0.5754 0.54115 0.59422 0.0
N292 N 0.49626 0.49319 0.45817 0.0
C293 C 0.4663 0.46324 0.38477 0.0
C294 C 0.44133 0.47086 0.3912 0.0
C295 C 0.44394 0.4894 0.43206 0.0
C296 C 0.4712 0.49995 0.46509 0.0
C297 C 0.49345 0.47477 0.41815 0.0
H298 H 0.47155 0.51378 0.49563 0.0
H299 H 0.51207 0.46883 0.41028 0.0
H300 H 0.60331 0.5119 0.50741 0.0
H301 H 0.55509 0.54433 0.60453 0.0
C302 C 0.49927 0.53749 0.57825 0.0
C303 C 0.57834 0.58708 0.42976 0.0
C304 C 0.49395 0.43324 0.58044 0.0
C305 C 0.57156 0.48204 0.43025 0.0
H306 H 0.56381 0.6324 0.47189 0.0
H307 H 0.52033 0.6055 0.55353 0.0
H308 H 0.45258 0.49 0.65767 0.0
H309 H 0.45001 0.43302 0.65877 0.0
H310 H 0.51069 0.38876 0.54112 0.0
H311 H 0.55359 0.41531 0.45875 0.0
H312 H 0.61577 0.52852 0.34791 0.0
H313 H 0.61949 0.58604 0.34823 0.0
H314 H 0.65019 0.5303 0.56429 0.0
H315 H 0.60133 0.56359 0.66204 0.0
H316 H 0.46556 0.44937 0.35303 0.0
H317 H 0.42505 0.4958 0.43847 0.0
H318 H 0.38686 0.49951 0.27108 0.0
N319 N 0.35183 0.44013 0.22426 0.0
H320 H 0.42444 0.51178 0.34215 0.0
H321 H 0.3593 0.39676 0.28252 0.0
H322 H 0.39839 0.40948 0.35353 0.0
H323 H 0.35942 0.40147 0.16433 0.0
H324 H 0.40639 0.42027 0.09933 0.0
H325 H 0.39513 0.50478 0.18271 0.0
H326 H 0.4435 0.52371 0.12049 0.0
H327 H 0.33888 0.48917 0.23923 0.0
H328 H 0.29197 0.38713 0.19944 0.0
H329 H 0.28294 0.48221 0.24132 0.0
H330 H 0.23594 0.38089 0.195 0.0
H331 H 0.13209 0.47556 0.24148 0.0
H332 H 0.12173 0.49854 0.3129 0.0
H333 H 0.10234 0.41277 0.41253 0.0
H334 H 0.10865 0.38795 0.33807 0.0
H335 H 0.05154 0.38546 0.23534 0.0
H336 H 0.02507 0.4092 0.18401 0.0
H337 H 0.11931 0.47007 0.09192 0.0
H338 H 0.14593 0.44669 0.14189 0.0
H339 H 0.18209 0.47164 0.21386 0.0
H340 H 0.23815 0.47889 0.20247 0.0
H341 H 0.18986 0.37191 0.24073 0.0
N342 N 0.11984 0.41233 0.23987 0.0
H343 H 0.13347 0.36482 0.2464 0.0
C344 C 0.36924 0.44672 0.27193 0.0
C345 C 0.38763 0.47909 0.28987 0.0
C346 C 0.40958 0.48629 0.33052 0.0
C347 C 0.41432 0.4616 0.35329 0.0
C348 C 0.39521 0.42899 0.33652 0.0
C349 C 0.37271 0.42163 0.29641 0.0
C350 C 0.37421 0.45167 0.17886 0.0
C351 C 0.37697 0.42814 0.15352 0.0
C352 C 0.40385 0.43886 0.11691 0.0
C353 C 0.42885 0.47335 0.10613 0.0
C354 C 0.42466 0.49696 0.12873 0.0
C355 C 0.39717 0.48618 0.16437 0.0
C356 C 0.31953 0.43812 0.22126 0.0
C357 C 0.31659 0.46516 0.23092 0.0
C358 C 0.28422 0.46128 0.23083 0.0
C359 C 0.25415 0.43073 0.21885 0.0
C360 C 0.25783 0.40442 0.20629 0.0
C361 C 0.29001 0.408 0.20815 0.0
C362 C 0.11994 0.42928 0.28396 0.0
C363 C 0.12549 0.46154 0.27861 0.0
C364 C 0.12002 0.47505 0.32037 0.0
C365 C 0.11061 0.45762 0.36953 0.0
C366 C 0.10816 0.42664 0.37543 0.0
C367 C 0.11228 0.41248 0.33298 0.0
C368 C 0.10227 0.41712 0.19732 0.0
C369 C 0.06691 0.40462 0.20459 0.0
C370 C 0.05231 0.41975 0.17686 0.0
C371 C 0.07328 0.44877 0.14314 0.0
C372 C 0.10503 0.45393 0.12574 0.0
C373 C 0.12004 0.43925 0.15358 0.0
C374 C 0.15327 0.41738 0.2294 0.0
C375 C 0.18349 0.44963 0.21823 0.0
C376 C 0.21584 0.45378 0.21272 0.0
C377 C 0.2192 0.42607 0.22077 0.0
C378 C 0.18877 0.39391 0.23262 0.0
C379 C 0.15631 0.38969 0.23628 0.0
H380 H 0.70159 0.07145 0.8173 0.0
N381 N 0.70608 0.11739 0.74811 0.0
H382 H 0.65875 0.04162 0.88988 0.0
H383 H 0.65783 0.13021 0.78006 0.0
H384 H 0.61548 0.10059 0.85181 0.0
H385 H 0.67522 0.14493 0.69447 0.0
H386 H 0.63399 0.1182 0.627 0.0
H387 H 0.69791 0.0682 0.69493 0.0
H388 H 0.65847 0.04273 0.62489 0.0
H389 H 0.7699 0.13245 0.73192 0.0
H390 H 0.71282 0.17703 0.76634 0.0
H391 H 0.82441 0.18656 0.73843 0.0
H392 H 0.76699 0.23075 0.77582 0.0
H393 H 0.98848 0.35295 0.83125 0.0
H394 H 0.01002 0.38735 0.90452 0.0
H395 H 0.91793 0.39028 0.90878 0.0
H396 H 0.89636 0.35525 0.83622 0.0
H397 H 0.92375 0.38799 0.75246 0.0
H398 H 0.95584 0.43209 0.68258 0.0
H399 H 0.00556 0.38229 0.6368 0.0
H400 H 0.97387 0.33834 0.70747 0.0
H401 H 0.91455 0.27432 0.80899 0.0
H402 H 0.85871 0.22173 0.80121 0.0
H403 H 0.81772 0.2781 0.73463 0.0
N404 N 0.93234 0.33637 0.78025 0.0
H405 H 0.87318 0.33056 0.74524 0.0
C406 C 0.68328 0.10325 0.79343 0.0
C407 C 0.68319 0.07825 0.82518 0.0
C408 C 0.65872 0.06115 0.86613 0.0
C409 C 0.63394 0.06884 0.87563 0.0
C410 C 0.63442 0.09433 0.84477 0.0
C411 C 0.65885 0.11141 0.80394 0.0
C412 C 0.68896 0.10796 0.70049 0.0
C413 C 0.67192 0.1228 0.67936 0.0
C414 C 0.64853 0.10764 0.64071 0.0
C415 C 0.64265 0.07806 0.62185 0.0
C416 C 0.66223 0.06521 0.63958 0.0
C417 C 0.68487 0.07984 0.67907 0.0
C418 C 0.7373 0.15042 0.74925 0.0
C419 C 0.76919 0.15396 0.74103 0.0
C420 C 0.80031 0.18487 0.74537 0.0
C421 C 0.80029 0.21307 0.75868 0.0
C422 C 0.76815 0.20973 0.76536 0.0
C423 C 0.73696 0.17877 0.76036 0.0
C424 C 0.94099 0.35163 0.82831 0.0
C425 C 0.97264 0.36038 0.84892 0.0
C426 C 0.985 0.38027 0.89041 0.0
C427 C 0.96589 0.3919 0.91213 0.0
C428 C 0.93317 0.38153 0.89323 0.0
C429 C 0.92082 0.36158 0.85161 0.0
C430 C 0.94672 0.35994 0.73542 0.0
C431 C 0.94119 0.38623 0.72718 0.0
C432 C 0.95949 0.41142 0.68737 0.0
C433 C 0.98337 0.4106 0.65532 0.0
C434 C 0.98746 0.38344 0.66169 0.0
C435 C 0.96936 0.35839 0.70165 0.0
C436 C 0.89828 0.30628 0.77721 0.0
C437 C 0.89336 0.27523 0.79312 0.0
C438 C 0.86148 0.24519 0.78806 0.0
C439 C 0.83369 0.24545 0.76634 0.0
C440 C 0.83838 0.2768 0.75169 0.0
C441 C 0.87028 0.30694 0.75738 0.0
H442 H 0.56754 0.87118 0.33781 0.0
N443 N 0.62607 0.90448 0.27413 0.0
H444 H 0.551 0.8975 0.39875 0.0
H445 H 0.66732 0.96409 0.30974 0.0
H446 H 0.65131 0.99049 0.37123 0.0
H447 H 0.66683 0.94906 0.19811 0.0
H448 H 0.6494 0.97257 0.12724 0.0
H449 H 0.55931 0.88048 0.24755 0.0
H450 H 0.54197 0.90261 0.17609 0.0
H451 H 0.56934 0.84009 0.26479 0.0
H452 H 0.67813 0.89761 0.29524 0.0
H453 H 0.5697 0.78933 0.26479 0.0
H454 H 0.67835 0.84625 0.29856 0.0
H455 H 0.56117 0.64382 0.2955 0.0
H456 H 0.54038 0.59758 0.362 0.0
H457 H 0.64407 0.64284 0.41494 0.0
H458 H 0.66517 0.68964 0.34798 0.0
H459 H 0.66782 0.67828 0.22703 0.0
H460 H 0.65164 0.64185 0.15651 0.0
H461 H 0.55748 0.64048 0.14236 0.0
H462 H 0.57423 0.67743 0.21226 0.0
H463 H 0.57392 0.69785 0.3086 0.0
H464 H 0.5729 0.74807 0.31332 0.0
H465 H 0.67675 0.80852 0.24366 0.0
N466 N 0.62904 0.69525 0.27342 0.0
H467 H 0.67822 0.75806 0.24188 0.0
C468 C 0.61871 0.91584 0.31907 0.0
C469 C 0.58628 0.89691 0.34592 0.0
C470 C 0.57687 0.91202 0.38078 0.0
C471 C 0.59966 0.94626 0.3891 0.0
C472 C 0.63296 0.96427 0.36494 0.0
C473 C 0.64232 0.94915 0.33034 0.0
C474 C 0.61456 0.91256 0.22758 0.0
C475 C 0.63951 0.93819 0.19252 0.0
C476 C 0.62958 0.95165 0.15239 0.0
C477 C 0.59438 0.93916 0.14628 0.0
C478 C 0.56923 0.9122 0.17954 0.0
C479 C 0.57921 0.8993 0.22028 0.0
C480 C 0.62404 0.87306 0.27911 0.0
C481 C 0.59332 0.84193 0.27197 0.0
C482 C 0.59348 0.81258 0.27254 0.0
C483 C 0.62415 0.81354 0.28113 0.0
C484 C 0.65443 0.84454 0.29046 0.0
C485 C 0.65432 0.87391 0.28918 0.0
C486 C 0.61491 0.67054 0.31697 0.0
C487 C 0.57946 0.64444 0.32191 0.0
C488 C 0.56755 0.61789 0.3597 0.0
C489 C 0.59079 0.61686 0.3929 0.0
C490 C 0.62585 0.64334 0.38943 0.0
C491 C 0.63779 0.67002 0.35164 0.0
C492 C 0.62228 0.68041 0.22506 0.0
C493 C 0.64424 0.67093 0.20759 0.0
C494 C 0.63477 0.64988 0.16773 0.0
C495 C 0.603 0.63785 0.14452 0.0
C496 C 0.58217 0.64942 0.15938 0.0
C497 C 0.5917 0.67053 0.19941 0.0
C498 C 0.62656 0.72415 0.27548 0.0
C499 C 0.59666 0.72177 0.29473 0.0
C500 C 0.59596 0.75072 0.29699 0.0
C501 C 0.62482 0.7826 0.27922 0.0
C502 C 0.65432 0.78465 0.25894 0.0
C503 C 0.65515 0.75579 0.25739 0.0
H504 H 0.97285 0.61081 0.8705 0.0
N505 N 0.93409 0.57262 0.79791 0.0
H506 H 0.9945 0.5937 0.944 0.0
H507 H 0.91053 0.50767 0.83233 0.0
H508 H 0.9325 0.49066 0.90528 0.0
H509 H 0.90218 0.51799 0.74038 0.0
H510 H 0.93033 0.50561 0.67465 0.0
H511 H 0.99774 0.6133 0.75651 0.0
H512 H 0.02619 0.6012 0.69021 0.0
H513 H 0.93019 0.62602 0.78503 0.0
H514 H 0.86687 0.51768 0.80448 0.0
H515 H 0.87825 0.62765 0.78078 0.0
H516 H 0.81464 0.51869 0.79683 0.0
H517 H 0.72404 0.62335 0.84891 0.0
H518 H 0.67843 0.60814 0.91475 0.0
H519 H 0.62356 0.50493 0.87673 0.0
H520 H 0.66914 0.51992 0.81172 0.0
H521 H 0.69823 0.52897 0.72506 0.0
H522 H 0.65773 0.51389 0.65576 0.0
H523 H 0.66493 0.608 0.66278 0.0
H524 H 0.70529 0.62278 0.73203 0.0
H525 H 0.78332 0.62278 0.72847 0.0
H526 H 0.8335 0.61824 0.72921 0.0
H527 H 0.77801 0.53078 0.83805 0.0
N528 N 0.72305 0.58396 0.78043 0.0
H529 H 0.7274 0.53423 0.83448 0.0
C530 C 0.94027 0.56066 0.84597 0.0
C531 C 0.96312 0.58441 0.87888 0.0
C532 C 0.9755 0.57469 0.9205 0.0
C533 C 0.96525 0.54102 0.92953 0.0
C534 C 0.94062 0.51676 0.89875 0.0
C535 C 0.92806 0.52648 0.85723 0.0
C536 C 0.94786 0.56683 0.75321 0.0
C537 C 0.92896 0.53667 0.72899 0.0
C538 C 0.94515 0.52958 0.6913 0.0
C539 C 0.98057 0.55233 0.67748 0.0
C540 C 0.999 0.58298 0.70046 0.0
C541 C 0.98274 0.5901 0.73785 0.0
C542 C 0.90253 0.5719 0.79427 0.0
C543 C 0.90497 0.60255 0.78753 0.0
C544 C 0.87516 0.60333 0.78466 0.0
C545 C 0.84197 0.57326 0.78776 0.0
C546 C 0.8396 0.54239 0.79468 0.0
C547 C 0.86957 0.54172 0.79837 0.0
C548 C 0.70014 0.57292 0.8255 0.0
C549 C 0.70273 0.59729 0.85592 0.0
C550 C 0.67668 0.58869 0.89305 0.0
C551 C 0.64757 0.55554 0.89995 0.0
C552 C 0.64583 0.53067 0.8717 0.0
C553 C 0.67191 0.53924 0.83475 0.0
C554 C 0.70478 0.57711 0.73356 0.0
C555 C 0.69177 0.54669 0.71073 0.0
C556 C 0.66863 0.53811 0.6712 0.0
C557 C 0.6579 0.55963 0.65435 0.0
C558 C 0.67238 0.59074 0.67549 0.0
C559 C 0.69564 0.59937 0.71459 0.0
C560 C 0.75156 0.57928 0.78159 0.0
C561 C 0.78194 0.60248 0.75216 0.0
C562 C 0.81076 0.59998 0.75309 0.0
C563 C 0.81023 0.57441 0.78434 0.0
C564 C 0.77945 0.55065 0.81312 0.0
C565 C 0.75033 0.55283 0.81145 0.0
H566 H 0.16209 0.65082 0.32797 0.0
N567 N 0.14288 0.69587 0.31203 0.0
H568 H 0.13963 0.60588 0.39678 0.0
H569 H 0.10536 0.68828 0.39546 0.0
H570 H 0.08199 0.64229 0.46425 0.0
H571 H 0.07799 0.66954 0.28528 0.0
H572 H 0.04791 0.63043 0.21909 0.0
H573 H 0.17379 0.68103 0.23726 0.0
H574 H 0.14411 0.64236 0.17155 0.0
H575 H 0.2073 0.70465 0.30784 0.0
H576 H 0.15525 0.75733 0.30558 0.0
H577 H 0.26302 0.75781 0.2965 0.0
H578 H 0.21127 0.8111 0.2977 0.0
H579 H 0.41847 0.90157 0.31006 0.0
H580 H 0.46064 0.92896 0.37534 0.0
H581 H 0.41955 0.98924 0.40406 0.0
H582 H 0.37704 0.96181 0.3378 0.0
H583 H 0.38797 0.97085 0.2125 0.0
H584 H 0.42847 0.99462 0.13701 0.0
H585 H 0.44311 0.9124 0.15606 0.0
H586 H 0.40038 0.88726 0.22874 0.0
H587 H 0.35972 0.85877 0.32569 0.0
H588 H 0.30429 0.80524 0.33548 0.0
H589 H 0.2581 0.84786 0.24182 0.0
N590 N 0.37272 0.91789 0.27532 0.0
H591 H 0.31345 0.90218 0.2352 0.0
C592 C 0.13585 0.67342 0.35697 0.0
C593 C 0.14601 0.65034 0.3586 0.0
C594 C 0.133 0.62448 0.39778 0.0
C595 C 0.10946 0.62107 0.4357 0.0
C596 C 0.10054 0.6449 0.43566 0.0
C597 C 0.11384 0.67104 0.3966 0.0
C598 C 0.12816 0.67854 0.26642 0.0
C599 C 0.09272 0.66437 0.25963 0.0
C600 C 0.07554 0.64182 0.22218 0.0
C601 C 0.09362 0.63317 0.19035 0.0
C602 C 0.12953 0.64878 0.19517 0.0
C603 C 0.14662 0.67105 0.23301 0.0
C604 C 0.17675 0.72687 0.3068 0.0
C605 C 0.20769 0.7276 0.3051 0.0
C606 C 0.23987 0.75832 0.29918 0.0
C607 C 0.24199 0.78908 0.29593 0.0
C608 C 0.21091 0.78812 0.29874 0.0
C609 C 0.17877 0.75739 0.30373 0.0
C610 C 0.39427 0.92955 0.31896 0.0
C611 C 0.41787 0.92019 0.33064 0.0
C612 C 0.44209 0.93586 0.36795 0.0
C613 C 0.44323 0.96117 0.39411 0.0
C614 C 0.41898 0.96973 0.38406 0.0
C615 C 0.39471 0.95402 0.34665 0.0
C616 C 0.39185 0.92783 0.22678 0.0
C617 C 0.39922 0.95753 0.19942 0.0
C618 C 0.42241 0.97112 0.15674 0.0
C619 C 0.43938 0.95568 0.14175 0.0
C620 C 0.43055 0.9249 0.16735 0.0
C621 C 0.40644 0.91072 0.20904 0.0
C622 C 0.3408 0.88499 0.28025 0.0
C623 C 0.33782 0.85692 0.30749 0.0
C624 C 0.30587 0.82592 0.31266 0.0
C625 C 0.27632 0.82197 0.28979 0.0
C626 C 0.27982 0.84991 0.26122 0.0
C627 C 0.31157 0.88099 0.2569 0.0
H628 H 0.41519 0.07074 0.70187 0.0
N629 N 0.45637 0.12552 0.74959 0.0
H630 H 0.43245 0.04761 0.63634 0.0
H631 H 0.51863 0.15998 0.6947 0.0
H632 H 0.53646 0.13672 0.63017 0.0
H633 H 0.52149 0.15086 0.78533 0.0
H634 H 0.53642 0.12568 0.85572 0.0
H635 H 0.41294 0.07435 0.81591 0.0
H636 H 0.42817 0.04788 0.88536 0.0
H637 H 0.40263 0.13041 0.73302 0.0
H638 H 0.51177 0.19018 0.7607 0.0
H639 H 0.40077 0.18085 0.73089 0.0
H640 H 0.50984 0.24005 0.76199 0.0
H641 H 0.41004 0.33189 0.66821 0.0
H642 H 0.42961 0.37575 0.59677 0.0
H643 H 0.53343 0.42727 0.65077 0.0
H644 H 0.51418 0.38388 0.72165 0.0
H645 H 0.50156 0.34994 0.80822 0.0
H646 H 0.51935 0.38926 0.87488 0.0
H647 H 0.42832 0.39249 0.853 0.0
H648 H 0.41064 0.35309 0.78632 0.0
H649 H 0.39928 0.26914 0.78203 0.0
H650 H 0.40212 0.21926 0.78408 0.0
H651 H 0.50519 0.27976 0.71174 0.0
N652 N 0.44707 0.33148 0.74583 0.0
H653 H 0.50289 0.32941 0.71277 0.0
C654 C 0.46557 0.11681 0.70341 0.0
C655 C 0.44139 0.08567 0.68512 0.0
C656 C 0.45142 0.0724 0.64815 0.0
C657 C 0.486 0.09006 0.62886 0.0
C658 C 0.50963 0.12252 0.64426 0.0
C659 C 0.49949 0.13582 0.68134 0.0
C660 C 0.46579 0.115 0.79604 0.0
C661 C 0.50067 0.12951 0.80829 0.0
C662 C 0.50931 0.11488 0.84838 0.0
C663 C 0.4834 0.08502 0.87588 0.0
C664 C 0.44853 0.07107 0.86477 0.0
C665 C 0.43984 0.08618 0.82544 0.0
C666 C 0.45704 0.1562 0.74768 0.0
C667 C 0.42611 0.15439 0.73907 0.0
C668 C 0.42509 0.18323 0.7384 0.0
C669 C 0.45508 0.21464 0.7469 0.0
C670 C 0.48627 0.21646 0.75482 0.0
C671 C 0.48733 0.18763 0.75473 0.0
C672 C 0.46047 0.35442 0.70019 0.0
C673 C 0.43715 0.35221 0.66386 0.0
C674 C 0.44823 0.37716 0.62343 0.0
C675 C 0.48285 0.40461 0.619 0.0
C676 C 0.50662 0.40614 0.65376 0.0
C677 C 0.49557 0.3813 0.69413 0.0
C678 C 0.4546 0.34852 0.79228 0.0
C679 C 0.48486 0.35825 0.81879 0.0
C680 C 0.49506 0.38079 0.85686 0.0
C681 C 0.4754 0.3942 0.86863 0.0
C682 C 0.44417 0.38287 0.84423 0.0
C683 C 0.43387 0.36017 0.80658 0.0
C684 C 0.45046 0.303 0.74679 0.0
C685 C 0.4225 0.27154 0.76691 0.0
C686 C 0.42411 0.24302 0.76755 0.0
C687 C 0.45376 0.24526 0.74753 0.0
C688 C 0.48205 0.27699 0.728 0.0
C689 C 0.48059 0.30559 0.72806 0.0
loop_
_geom_bond_atom_site_label_1
_geom_bond_atom_site_label_2
_geom_bond_distance
_geom_bond_site_symmetry_2
_ccdc_geom_bond_type
C0 C1 1.443 . S
C0 N4 1.376 . S
C0 C38 1.389 . S
C1 C0 1.443 . S
C1 C2 1.340 . S
C1 H41 0.951 . S
C2 C1 1.340 . S
C2 C3 1.439 . S
C2 H42 0.950 . S
C3 C2 1.439 . S
C3 N4 1.374 . S
C3 C37 1.395 . S
N4 C0 1.376 . S
N4 C3 1.374 . S
N4 Co5 2.008 1_655 S
Co5 N4 2.008 1_455 S
Co5 N6 1.990 . S
Co5 N11 2.008 . S
Co5 N16 1.995 1_554 S
Co5 N21 2.282 . S
Co5 N27 2.282 1_455 S
N6 Co5 1.990 . S
N6 C7 1.367 1_455 S
N6 C10 1.399 . S
C7 N6 1.367 1_655 S
C7 C8 1.446 . S
C7 C37 1.391 . S
C8 C7 1.446 . S
C8 C9 1.339 1_655 S
C8 H43 0.949 . S
C9 C8 1.339 1_455 S
C9 C10 1.439 . S
C9 H44 0.950 . S
C10 N6 1.399 . S
C10 C9 1.439 . S
C10 C39 1.392 . S
N11 Co5 2.008 . S
N11 C12 1.376 . S
N11 C15 1.374 1_554 S
C12 N11 1.376 . S
C12 C13 1.443 . S
C12 C39 1.389 . S
C13 C12 1.443 . S
C13 C14 1.341 1_554 S
C13 H45 0.951 . S
C14 C13 1.341 1_556 S
C14 C15 1.439 . S
C14 H46 0.949 . S
C15 N11 1.374 1_556 S
C15 C14 1.439 . S
C15 C40 1.395 . S
N16 Co5 1.995 1_556 S
N16 C17 1.376 . S
N16 C20 1.383 1_455 S
C17 N16 1.376 . S
C17 C18 1.446 . S
C17 C40 1.391 . S
C18 C17 1.446 . S
C18 C19 1.339 1_455 S
C18 H47 0.949 . S
C19 C18 1.339 1_655 S
C19 C20 1.439 . S
C19 H48 0.950 . S
C20 N16 1.383 1_655 S
C20 C19 1.439 . S
C20 C38 1.392 1_556 S
N21 Co5 2.282 . S
N21 C24 1.332 . S
N21 C26 1.332 . S
C22 C23 1.386 . S
C22 C25 1.388 . S
C23 C22 1.386 . S
C23 C24 1.382 . S
C23 H49 0.950 . S
C24 N21 1.332 . S
C24 C23 1.382 . S
C24 H35 0.952 . S
C25 C22 1.388 . S
C25 C26 1.382 . S
C25 H50 0.950 . S
C26 N21 1.332 . S
C26 C25 1.382 . S
C26 H36 0.948 . S
N27 Co5 2.282 1_655 S
N27 C31 1.332 . S
N27 C32 1.332 1_554 S
C28 C29 1.388 . S
C28 C32 1.382 . S
C28 H51 0.950 . S
C29 C28 1.388 . S
C29 C30 1.386 1_556 S
C30 C29 1.386 1_554 S
C30 C31 1.382 . S
C30 H52 0.950 . S
C31 N27 1.332 . S
C31 C30 1.382 . S
C31 H33 0.952 . S
C32 N27 1.332 1_556 S
C32 C28 1.382 . S
C32 H34 0.948 . S
H33 C31 0.952 . S
H34 C32 0.948 . S
H35 C24 0.952 . S
H36 C26 0.948 . S
C37 C3 1.395 . S
C37 C7 1.391 . S
C38 C0 1.389 . S
C38 C20 1.392 1_554 S
C39 C10 1.392 . S
C39 C12 1.389 . S
C40 C15 1.395 . S
C40 C17 1.391 . S
H41 C1 0.951 . S
H42 C2 0.950 . S
H43 C8 0.949 . S
H44 C9 0.950 . S
H45 C13 0.951 . S
H46 C14 0.949 . S
H47 C18 0.949 . S
H48 C19 0.950 . S
H49 C23 0.950 . S
H50 C25 0.950 . S
H51 C28 0.950 . S
H52 C30 0.950 . S
C53 C54 1.443 . S
C53 N57 1.376 . S
C53 C91 1.389 . S
C54 C53 1.443 . S
C54 C55 1.340 . S
C54 H94 0.951 . S
C55 C54 1.340 . S
C55 C56 1.439 1_545 S
C55 H95 0.950 1_545 S
C56 C55 1.439 1_565 S
C56 N57 1.374 1_565 S
C56 C90 1.395 . S
N57 C53 1.376 . S
N57 C56 1.374 1_545 S
N57 Co58 2.008 . S
Co58 N57 2.008 . S
Co58 N59 1.995 1_545 S
Co58 N64 2.008 . S
Co58 N69 1.995 . S
Co58 N74 2.282 1_545 S
Co58 N80 2.282 . S
N59 Co58 1.995 1_565 S
N59 C60 1.376 . S
N59 C63 1.383 . S
C60 N59 1.376 . S
C60 C61 1.446 . S
C60 C90 1.391 . S
C61 C60 1.446 . S
C61 C62 1.339 . S
C61 H96 0.949 . S
C62 C61 1.339 . S
C62 C63 1.439 . S
C62 H97 0.950 . S
C63 N59 1.383 . S
C63 C62 1.439 . S
C63 C92 1.392 . S
N64 Co58 2.008 . S
N64 C65 1.376 1_545 S
N64 C68 1.374 . S
C65 N64 1.376 1_565 S
C65 C66 1.443 . S
C65 C92 1.389 . S
C66 C65 1.443 . S
C66 C67 1.340 1_565 S
C66 H98 0.951 . S
C67 C66 1.340 1_545 S
C67 C68 1.439 . S
C67 H99 0.950 . S
C68 N64 1.374 . S
C68 C67 1.439 . S
C68 C93 1.395 . S
N69 Co58 1.995 . S
N69 C70 1.376 . S
N69 C73 1.383 . S
C70 N69 1.376 . S
C70 C71 1.446 . S
C70 C93 1.391 . S
C71 C70 1.446 . S
C71 C72 1.339 . S
C71 H100 0.949 . S
C72 C71 1.339 . S
C72 C73 1.439 . S
C72 H101 0.950 . S
C73 N69 1.383 . S
C73 C72 1.439 . S
C73 C91 1.392 . S
N74 Co58 2.282 1_565 S
N74 C77 1.332 . S
N74 C79 1.332 . S
C75 C76 1.386 . S
C75 C78 1.388 . S
C76 C75 1.386 . S
C76 C77 1.382 . S
C76 H102 0.950 . S
C77 N74 1.332 . S
C77 C76 1.382 . S
C77 H88 0.952 1_565 S
C78 C75 1.388 . S
C78 C79 1.382 . S
C78 H103 0.950 . S
C79 N74 1.332 . S
C79 C78 1.382 . S
C79 H89 0.948 . S
N80 Co58 2.282 . S
N80 C84 1.332 . S
N80 C85 1.332 . S
C81 C82 1.388 . S
C81 C85 1.382 . S
C81 H104 0.950 . S
C82 C81 1.388 . S
C82 C83 1.386 . S
C83 C82 1.386 . S
C83 C84 1.382 . S
C83 H105 0.950 . S
C84 N80 1.332 . S
C84 C83 1.382 . S
C84 H86 0.952 . S
C85 N80 1.332 . S
C85 C81 1.382 . S
C85 H87 0.948 . S
H86 C84 0.952 . S
H87 C85 0.948 . S
H88 C77 0.952 1_545 S
H89 C79 0.948 . S
C90 C56 1.395 . S
C90 C60 1.391 . S
C91 C53 1.389 . S
C91 C73 1.392 . S
C92 C63 1.392 . S
C92 C65 1.389 . S
C93 C68 1.395 . S
C93 C70 1.391 . S
H94 C54 0.951 . S
H95 C55 0.950 1_565 S
H96 C61 0.949 . S
H97 C62 0.950 . S
H98 C66 0.951 . S
H99 C67 0.950 . S
H100 C71 0.949 . S
H101 C72 0.950 . S
H102 C76 0.950 . S
H103 C78 0.950 . S
H104 C81 0.950 . S
H105 C83 0.950 . S
C106 C107 1.443 . S
C106 N110 1.376 . S
C106 C144 1.389 . S
C107 C106 1.443 . S
C107 C108 1.340 . S
C107 H147 0.951 . S
C108 C107 1.340 . S
C108 C109 1.439 . S
C108 H148 0.950 . S
C109 C108 1.439 . S
C109 N110 1.374 . S
C109 C143 1.395 . S
N110 C106 1.376 . S
N110 C109 1.374 . S
N110 Co111 2.008 1_556 S
Co111 N110 2.008 1_554 S
Co111 N112 1.995 1_554 S
Co111 N117 2.008 . S
Co111 N122 1.995 . S
Co111 N127 2.282 . S
Co111 N133 2.282 1_554 S
N112 Co111 1.995 1_556 S
N112 C113 1.376 . S
N112 C116 1.383 1_556 S
C113 N112 1.376 . S
C113 C114 1.446 . S
C113 C143 1.391 . S
C114 C113 1.446 . S
C114 C115 1.339 . S
C114 H149 0.949 . S
C115 C114 1.339 . S
C115 C116 1.439 1_556 S
C115 H150 0.950 . S
C116 N112 1.383 1_554 S
C116 C115 1.439 1_554 S
C116 C145 1.392 . S
N117 Co111 2.008 . S
N117 C118 1.376 . S
N117 C121 1.374 . S
C118 N117 1.376 . S
C118 C119 1.443 . S
C118 C145 1.389 . S
C119 C118 1.443 . S
C119 C120 1.340 . S
C119 H151 0.951 . S
C120 C119 1.340 . S
C120 C121 1.439 . S
C120 H152 0.950 . S
C121 N117 1.374 . S
C121 C120 1.439 . S
C121 C146 1.395 . S
N122 Co111 1.995 . S
N122 C123 1.376 . S
N122 C126 1.383 . S
C123 N122 1.376 . S
C123 C124 1.446 . S
C123 C146 1.391 . S
C124 C123 1.446 . S
C124 C125 1.339 . S
C124 H153 0.949 . S
C125 C124 1.339 . S
C125 C126 1.439 . S
C125 H154 0.950 . S
C126 N122 1.383 . S
C126 C125 1.439 . S
C126 C144 1.392 1_554 S
N127 Co111 2.282 . S
N127 C130 1.332 . S
N127 C132 1.332 . S
C128 C129 1.386 . S
C128 C131 1.388 . S
C129 C128 1.386 . S
C129 C130 1.382 . S
C129 H155 0.950 . S
C130 N127 1.332 . S
C130 C129 1.382 . S
C130 H141 0.952 . S
C131 C128 1.388 . S
C131 C132 1.382 . S
C131 H156 0.950 . S
C132 N127 1.332 . S
C132 C131 1.382 . S
C132 H142 0.948 1_554 S
N133 Co111 2.282 1_556 S
N133 C137 1.332 . S
N133 C138 1.332 . S
C134 C135 1.388 . S
C134 C138 1.382 . S
C134 H157 0.950 . S
C135 C134 1.388 . S
C135 C136 1.386 . S
C136 C135 1.386 . S
C136 C137 1.382 . S
C136 H158 0.950 . S
C137 N133 1.332 . S
C137 C136 1.382 . S
C137 H139 0.952 . S
C138 N133 1.332 . S
C138 C134 1.382 . S
C138 H140 0.948 1_556 S
H139 C137 0.952 . S
H140 C138 0.948 1_554 S
H141 C130 0.952 . S
H142 C132 0.948 1_556 S
C143 C109 1.395 . S
C143 C113 1.391 . S
C144 C106 1.389 . S
C144 C126 1.392 1_556 S
C145 C116 1.392 . S
C145 C118 1.389 . S
C146 C121 1.395 . S
C146 C123 1.391 . S
H147 C107 0.951 . S
H148 C108 0.950 . S
H149 C114 0.949 . S
H150 C115 0.950 . S
H151 C119 0.951 . S
H152 C120 0.950 . S
H153 C124 0.949 . S
H154 C125 0.950 . S
H155 C129 0.950 . S
H156 C131 0.950 . S
H157 C134 0.950 . S
H158 C136 0.950 . S
C159 C160 1.443 1_455 S
C159 N163 1.376 . S
C159 C197 1.389 . S
C160 C159 1.443 1_655 S
C160 C161 1.340 . S
C160 H200 0.951 . S
C161 C160 1.340 . S
C161 C162 1.439 1_655 S
C161 H201 0.950 . S
C162 C161 1.439 1_455 S
C162 N163 1.374 . S
C162 C196 1.395 . S
N163 C159 1.376 . S
N163 C162 1.374 . S
N163 Co164 2.008 . S
Co164 N163 2.008 . S
Co164 N165 1.995 . S
Co164 N170 2.008 . S
Co164 N175 1.995 . S
Co164 N180 2.282 . S
Co164 N186 2.282 . S
N165 Co164 1.995 . S
N165 C166 1.376 . S
N165 C169 1.383 . S
C166 N165 1.376 . S
C166 C167 1.446 . S
C166 C196 1.391 . S
C167 C166 1.446 . S
C167 C168 1.339 . S
C167 H202 0.949 . S
C168 C167 1.339 . S
C168 C169 1.439 . S
C168 H203 0.950 . S
C169 N165 1.383 . S
C169 C168 1.439 . S
C169 C198 1.392 . S
N170 Co164 2.008 . S
N170 C171 1.376 . S
N170 C174 1.374 . S
C171 N170 1.376 . S
C171 C172 1.443 . S
C171 C198 1.389 . S
C172 C171 1.443 . S
C172 C173 1.340 . S
C172 H204 0.951 . S
C173 C172 1.340 . S
C173 C174 1.439 . S
C173 H205 0.950 . S
C174 N170 1.374 . S
C174 C173 1.439 . S
C174 C199 1.395 . S
N175 Co164 1.995 . S
N175 C176 1.376 . S
N175 C179 1.383 . S
C176 N175 1.376 . S
C176 C177 1.446 . S
C176 C199 1.391 . S
C177 C176 1.446 . S
C177 C178 1.339 . S
C177 H206 0.949 . S
C178 C177 1.339 . S
C178 C179 1.439 . S
C178 H207 0.950 . S
C179 N175 1.383 . S
C179 C178 1.439 . S
C179 C197 1.392 . S
N180 Co164 2.282 . S
N180 C183 1.332 . S
N180 C185 1.332 . S
C181 C182 1.386 . S
C181 C184 1.388 . S
C182 C181 1.386 . S
C182 C183 1.382 . S
C182 H208 0.950 . S
C183 N180 1.332 . S
C183 C182 1.382 . S
C183 H194 0.952 . S
C184 C181 1.388 . S
C184 C185 1.382 . S
C184 H209 0.950 . S
C185 N180 1.332 . S
C185 C184 1.382 . S
C185 H195 0.948 . S
N186 Co164 2.282 . S
N186 C190 1.332 . S
N186 C191 1.332 . S
C187 C188 1.388 1_455 S
C187 C191 1.382 . S
C187 H210 0.950 . S
C188 C187 1.388 1_655 S
C188 C189 1.386 . S
C189 C188 1.386 . S
C189 C190 1.382 1_655 S
C189 H211 0.950 . S
C190 N186 1.332 . S
C190 C189 1.382 1_455 S
C190 H192 0.952 . S
C191 N186 1.332 . S
C191 C187 1.382 . S
C191 H193 0.948 . S
H192 C190 0.952 . S
H193 C191 0.948 . S
H194 C183 0.952 . S
H195 C185 0.948 . S
C196 C162 1.395 . S
C196 C166 1.391 . S
C197 C159 1.389 . S
C197 C179 1.392 . S
C198 C169 1.392 . S
C198 C171 1.389 . S
C199 C174 1.395 . S
C199 C176 1.391 . S
H200 C160 0.951 . S
H201 C161 0.950 . S
H202 C167 0.949 . S
H203 C168 0.950 . S
H204 C172 0.951 . S
H205 C173 0.950 . S
H206 C177 0.949 . S
H207 C178 0.950 . S
H208 C182 0.950 . S
H209 C184 0.950 . S
H210 C187 0.950 . S
H211 C189 0.950 . S
C212 C213 1.443 . S
C212 N216 1.376 1_565 S
C212 C250 1.389 . S
C213 C212 1.443 . S
C213 C214 1.340 1_565 S
C213 H253 0.951 . S
C214 C213 1.340 1_545 S
C214 C215 1.439 . S
C214 H254 0.950 . S
C215 C214 1.439 . S
C215 N216 1.374 . S
C215 C249 1.395 . S
N216 C212 1.376 1_545 S
N216 C215 1.374 . S
N216 Co217 2.008 . S
Co217 N216 2.008 . S
Co217 N218 1.995 . S
Co217 N223 2.008 1_554 S
Co217 N228 1.995 1_544 S
Co217 N233 2.282 1_554 S
Co217 N239 2.282 1_545 S
N218 Co217 1.995 . S
N218 C219 1.376 . S
N218 C222 1.383 1_554 S
C219 N218 1.376 . S
C219 C220 1.446 . S
C219 C249 1.391 . S
C220 C219 1.446 . S
C220 C221 1.339 . S
C220 H255 0.949 . S
C221 C220 1.339 . S
C221 C222 1.439 1_554 S
C221 H256 0.950 1_554 S
C222 N218 1.383 1_556 S
C222 C221 1.439 1_556 S
C222 C251 1.392 . S
N223 Co217 2.008 1_556 S
N223 C224 1.376 . S
N223 C227 1.374 1_545 S
C224 N223 1.376 . S
C224 C225 1.443 . S
C224 C251 1.389 . S
C225 C224 1.443 . S
C225 C226 1.340 . S
C225 H257 0.951 . S
C226 C225 1.340 . S
C226 C227 1.439 1_545 S
C226 H258 0.949 . S
C227 N223 1.374 1_565 S
C227 C226 1.439 1_565 S
C227 C252 1.395 . S
N228 Co217 1.995 1_566 S
N228 C229 1.376 . S
N228 C232 1.383 1_556 S
C229 N228 1.376 . S
C229 C230 1.446 . S
C229 C252 1.391 . S
C230 C229 1.446 . S
C230 C231 1.339 1_556 S
C230 H259 0.949 . S
C231 C230 1.339 1_554 S
C231 C232 1.439 . S
C231 H260 0.950 . S
C232 N228 1.383 1_554 S
C232 C231 1.439 . S
C232 C250 1.392 . S
N233 Co217 2.282 1_556 S
N233 C236 1.332 . S
N233 C238 1.332 . S
C234 C235 1.386 . S
C234 C237 1.388 . S
C235 C234 1.386 . S
C235 C236 1.382 . S
C235 H261 0.950 . S
C236 N233 1.332 . S
C236 C235 1.382 . S
C236 H247 0.952 . S
C237 C234 1.388 . S
C237 C238 1.382 . S
C237 H262 0.950 . S
C238 N233 1.332 . S
C238 C237 1.382 . S
C238 H248 0.948 1_556 S
N239 Co217 2.282 1_565 S
N239 C243 1.332 . S
N239 C244 1.332 . S
C240 C241 1.388 . S
C240 C244 1.382 . S
C240 H263 0.950 . S
C241 C240 1.388 . S
C241 C242 1.386 . S
C242 C241 1.386 . S
C242 C243 1.382 . S
C242 H264 0.950 . S
C243 N239 1.332 . S
C243 C242 1.382 . S
C243 H245 0.952 1_565 S
C244 N239 1.332 . S
C244 C240 1.382 . S
C244 H246 0.948 . S
H245 C243 0.952 1_545 S
H246 C244 0.948 . S
H247 C236 0.952 . S
H248 C238 0.948 1_554 S
C249 C215 1.395 . S
C249 C219 1.391 . S
C250 C212 1.389 . S
C250 C232 1.392 . S
C251 C222 1.392 . S
C251 C224 1.389 . S
C252 C227 1.395 . S
C252 C229 1.391 . S
H253 C213 0.951 . S
H254 C214 0.950 . S
H255 C220 0.949 . S
H256 C221 0.950 1_556 S
H257 C225 0.951 . S
H258 C226 0.949 . S
H259 C230 0.949 . S
H260 C231 0.950 . S
H261 C235 0.950 . S
H262 C237 0.950 . S
H263 C240 0.950 . S
H264 C242 0.950 . S
C265 C266 1.443 . S
C265 N269 1.376 . S
C265 C303 1.389 . S
C266 C265 1.443 . S
C266 C267 1.340 . S
C266 H306 0.951 . S
C267 C266 1.340 . S
C267 C268 1.439 . S
C267 H307 0.950 . S
C268 C267 1.439 . S
C268 N269 1.374 . S
C268 C302 1.395 . S
N269 C265 1.376 . S
N269 C268 1.374 . S
N269 Co270 2.008 . S
Co270 N269 2.008 . S
Co270 N271 1.995 . S
Co270 N276 2.008 . S
Co270 N281 1.995 . S
Co270 N286 2.282 . S
Co270 N292 2.282 . S
N271 Co270 1.995 . S
N271 C272 1.376 . S
N271 C275 1.383 . S
C272 N271 1.376 . S
C272 C273 1.446 . S
C272 C302 1.391 . S
C273 C272 1.446 . S
C273 C274 1.339 . S
C273 H308 0.949 . S
C274 C273 1.339 . S
C274 C275 1.439 . S
C274 H309 0.950 . S
C275 N271 1.383 . S
C275 C274 1.439 . S
C275 C304 1.392 . S
N276 Co270 2.008 . S
N276 C277 1.376 . S
N276 C280 1.374 . S
C277 N276 1.376 . S
C277 C278 1.443 . S
C277 C304 1.389 . S
C278 C277 1.443 . S
C278 C279 1.340 . S
C278 H310 0.951 . S
C279 C278 1.340 . S
C279 C280 1.439 . S
C279 H311 0.950 . S
C280 N276 1.374 . S
C280 C279 1.439 . S
C280 C305 1.395 . S
N281 Co270 1.995 . S
N281 C282 1.376 . S
N281 C285 1.383 . S
C282 N281 1.376 . S
C282 C283 1.446 . S
C282 C305 1.391 . S
C283 C282 1.446 . S
C283 C284 1.339 . S
C283 H312 0.949 . S
C284 C283 1.339 . S
C284 C285 1.439 . S
C284 H313 0.950 . S
C285 N281 1.383 . S
C285 C284 1.439 . S
C285 C303 1.392 . S
N286 Co270 2.282 . S
N286 C289 1.332 . S
N286 C291 1.332 . S
C287 C288 1.386 . S
C287 C290 1.388 . S
C288 C287 1.386 . S
C288 C289 1.382 . S
C288 H314 0.950 . S
C289 N286 1.332 . S
C289 C288 1.382 . S
C289 H300 0.952 . S
C290 C287 1.388 . S
C290 C291 1.382 . S
C290 H315 0.950 . S
C291 N286 1.332 . S
C291 C290 1.382 . S
C291 H301 0.948 . S
N292 Co270 2.282 . S
N292 C296 1.332 . S
N292 C297 1.332 . S
C293 C294 1.388 . S
C293 C297 1.382 . S
C293 H316 0.950 . S
C294 C293 1.388 . S
C294 C295 1.386 . S
C295 C294 1.386 . S
C295 C296 1.382 . S
C295 H317 0.950 . S
C296 N292 1.332 . S
C296 C295 1.382 . S
C296 H298 0.952 . S
C297 N292 1.332 . S
C297 C293 1.382 . S
C297 H299 0.948 . S
H298 C296 0.952 . S
H299 C297 0.948 . S
H300 C289 0.952 . S
H301 C291 0.948 . S
C302 C268 1.395 . S
C302 C272 1.391 . S
C303 C265 1.389 . S
C303 C285 1.392 . S
C304 C275 1.392 . S
C304 C277 1.389 . S
C305 C280 1.395 . S
C305 C282 1.391 . S
H306 C266 0.951 . S
H307 C267 0.950 . S
H308 C273 0.949 . S
H309 C274 0.950 . S
H310 C278 0.951 . S
H311 C279 0.950 . S
H312 C283 0.949 . S
H313 C284 0.950 . S
H314 C288 0.950 . S
H315 C290 0.950 . S
H316 C293 0.950 . S
H317 C295 0.950 . S
H318 C345 0.929 . S
N319 C344 1.433 . S
N319 C350 1.435 . S
N319 C356 1.423 . S
H320 C346 0.930 . S
H321 C349 0.931 . S
H322 C348 0.929 . S
H323 C351 0.930 . S
H324 C352 0.932 . S
H325 C355 0.929 . S
H326 C354 0.931 . S
H327 C357 0.929 . S
H328 C361 0.932 . S
H329 C358 0.931 . S
H330 C360 0.929 . S
H331 C363 0.929 . S
H332 C364 0.930 . S
H333 C366 0.929 . S
H334 C367 0.931 . S
H335 C369 0.930 . S
H336 C370 0.932 . S
H337 C372 0.931 . S
H338 C373 0.929 . S
H339 C375 0.929 . S
H340 C376 0.931 . S
H341 C378 0.929 . S
N342 C362 1.433 . S
N342 C368 1.435 . S
N342 C374 1.423 . S
H343 C379 0.932 . S
C344 N319 1.433 . S
C344 C345 1.363 . S
C344 C349 1.370 . S
C345 H318 0.929 . S
C345 C344 1.363 . S
C345 C346 1.385 . S
C346 H320 0.930 . S
C346 C345 1.385 . S
C346 C347 1.357 . S
C347 C346 1.357 . S
C347 C348 1.406 . S
C348 H322 0.929 . S
C348 C347 1.406 . S
C348 C349 1.391 . S
C349 H321 0.931 . S
C349 C344 1.370 . S
C349 C348 1.391 . S
C350 N319 1.435 . S
C350 C351 1.358 . S
C350 C355 1.371 . S
C351 H323 0.930 . S
C351 C350 1.358 . S
C351 C352 1.405 . S
C352 H324 0.932 . S
C352 C351 1.405 . S
C352 C353 1.383 . S
C353 C352 1.383 . S
C353 C354 1.393 . S
C354 H326 0.931 . S
C354 C353 1.393 . S
C354 C355 1.382 . S
C355 H325 0.929 . S
C355 C350 1.371 . S
C355 C354 1.382 . S
C356 N319 1.423 . S
C356 C357 1.362 . S
C356 C361 1.388 . S
C357 H327 0.929 . S
C357 C356 1.362 . S
C357 C358 1.376 . S
C358 H329 0.931 . S
C358 C357 1.376 . S
C358 C359 1.396 . S
C359 C358 1.396 . S
C359 C360 1.348 . S
C359 C377 1.472 . S
C360 H330 0.929 . S
C360 C359 1.348 . S
C360 C361 1.443 . S
C361 H328 0.932 . S
C361 C356 1.388 . S
C361 C360 1.443 . S
C362 N342 1.433 . S
C362 C363 1.363 . S
C362 C367 1.370 . S
C363 H331 0.929 . S
C363 C362 1.363 . S
C363 C364 1.385 . S
C364 H332 0.930 . S
C364 C363 1.385 . S
C364 C365 1.357 . S
C365 C364 1.357 . S
C365 C366 1.406 . S
C366 H333 0.929 . S
C366 C365 1.406 . S
C366 C367 1.391 . S
C367 H334 0.931 . S
C367 C362 1.370 . S
C367 C366 1.391 . S
C368 N342 1.435 . S
C368 C369 1.358 . S
C368 C373 1.371 . S
C369 H335 0.930 . S
C369 C368 1.358 . S
C369 C370 1.405 . S
C370 H336 0.932 . S
C370 C369 1.405 . S
C370 C371 1.383 . S
C371 C370 1.383 . S
C371 C372 1.393 . S
C372 H337 0.931 . S
C372 C371 1.393 . S
C372 C373 1.382 . S
C373 H338 0.929 . S
C373 C368 1.371 . S
C373 C372 1.382 . S
C374 N342 1.423 . S
C374 C375 1.362 . S
C374 C379 1.388 . S
C375 H339 0.929 . S
C375 C374 1.362 . S
C375 C376 1.376 . S
C376 H340 0.931 . S
C376 C375 1.376 . S
C376 C377 1.396 . S
C377 C359 1.472 . S
C377 C376 1.396 . S
C377 C378 1.348 . S
C378 H341 0.929 . S
C378 C377 1.348 . S
C378 C379 1.443 . S
C379 H343 0.932 . S
C379 C374 1.388 . S
C379 C378 1.443 . S
H380 C407 0.929 . S
N381 C406 1.433 . S
N381 C412 1.435 . S
N381 C418 1.423 . S
H382 C408 0.930 . S
H383 C411 0.931 . S
H384 C410 0.929 . S
H385 C413 0.930 . S
H386 C414 0.932 . S
H387 C417 0.929 . S
H388 C416 0.931 . S
H389 C419 0.929 . S
H390 C423 0.932 . S
H391 C420 0.931 . S
H392 C422 0.929 . S
H393 C425 0.929 . S
H394 C426 0.930 . S
H395 C428 0.929 . S
H396 C429 0.931 . S
H397 C431 0.930 . S
H398 C432 0.932 . S
H399 C434 0.931 . S
H400 C435 0.929 . S
H401 C437 0.929 . S
H402 C438 0.931 . S
H403 C440 0.929 . S
N404 C424 1.433 . S
N404 C430 1.435 . S
N404 C436 1.423 . S
H405 C441 0.932 . S
C406 N381 1.433 . S
C406 C407 1.363 . S
C406 C411 1.370 . S
C407 H380 0.929 . S
C407 C406 1.363 . S
C407 C408 1.385 . S
C408 H382 0.930 . S
C408 C407 1.385 . S
C408 C409 1.357 . S
C409 C408 1.357 . S
C409 C410 1.406 . S
C410 H384 0.929 . S
C410 C409 1.406 . S
C410 C411 1.391 . S
C411 H383 0.931 . S
C411 C406 1.370 . S
C411 C410 1.391 . S
C412 N381 1.435 . S
C412 C413 1.358 . S
C412 C417 1.371 . S
C413 H385 0.930 . S
C413 C412 1.358 . S
C413 C414 1.405 . S
C414 H386 0.932 . S
C414 C413 1.405 . S
C414 C415 1.383 . S
C415 C414 1.383 . S
C415 C416 1.393 . S
C416 H388 0.931 . S
C416 C415 1.393 . S
C416 C417 1.382 . S
C417 H387 0.929 . S
C417 C412 1.371 . S
C417 C416 1.382 . S
C418 N381 1.423 . S
C418 C419 1.362 . S
C418 C423 1.388 . S
C419 H389 0.929 . S
C419 C418 1.362 . S
C419 C420 1.376 . S
C420 H391 0.931 . S
C420 C419 1.376 . S
C420 C421 1.396 . S
C421 C420 1.396 . S
C421 C422 1.348 . S
C421 C439 1.472 . S
C422 H392 0.929 . S
C422 C421 1.348 . S
C422 C423 1.443 . S
C423 H390 0.932 . S
C423 C418 1.388 . S
C423 C422 1.443 . S
C424 N404 1.433 . S
C424 C425 1.363 . S
C424 C429 1.370 . S
C425 H393 0.929 . S
C425 C424 1.363 . S
C425 C426 1.385 . S
C426 H394 0.930 . S
C426 C425 1.385 . S
C426 C427 1.357 . S
C427 C426 1.357 . S
C427 C428 1.406 . S
C428 H395 0.929 . S
C428 C427 1.406 . S
C428 C429 1.391 . S
C429 H396 0.931 . S
C429 C424 1.370 . S
C429 C428 1.391 . S
C430 N404 1.435 . S
C430 C431 1.358 . S
C430 C435 1.371 . S
C431 H397 0.930 . S
C431 C430 1.358 . S
C431 C432 1.405 . S
C432 H398 0.932 . S
C432 C431 1.405 . S
C432 C433 1.383 . S
C433 C432 1.383 . S
C433 C434 1.393 . S
C434 H399 0.931 . S
C434 C433 1.393 . S
C434 C435 1.382 . S
C435 H400 0.929 . S
C435 C430 1.371 . S
C435 C434 1.382 . S
C436 N404 1.423 . S
C436 C437 1.362 . S
C436 C441 1.388 . S
C437 H401 0.929 . S
C437 C436 1.362 . S
C437 C438 1.376 . S
C438 H402 0.931 . S
C438 C437 1.376 . S
C438 C439 1.396 . S
C439 C421 1.472 . S
C439 C438 1.396 . S
C439 C440 1.348 . S
C440 H403 0.929 . S
C440 C439 1.348 . S
C440 C441 1.443 . S
C441 H405 0.932 . S
C441 C436 1.388 . S
C441 C440 1.443 . S
H442 C469 0.929 . S
N443 C468 1.433 . S
N443 C474 1.435 . S
N443 C480 1.423 . S
H444 C470 0.930 . S
H445 C473 0.931 . S
H446 C472 0.929 . S
H447 C475 0.930 . S
H448 C476 0.932 . S
H449 C479 0.929 . S
H450 C478 0.931 . S
H451 C481 0.929 . S
H452 C485 0.932 . S
H453 C482 0.931 . S
H454 C484 0.929 . S
H455 C487 0.929 . S
H456 C488 0.930 . S
H457 C490 0.929 . S
H458 C491 0.931 . S
H459 C493 0.930 . S
H460 C494 0.932 . S
H461 C496 0.931 . S
H462 C497 0.929 . S
H463 C499 0.929 . S
H464 C500 0.931 . S
H465 C502 0.929 . S
N466 C486 1.433 . S
N466 C492 1.435 . S
N466 C498 1.423 . S
H467 C503 0.932 . S
C468 N443 1.433 . S
C468 C469 1.363 . S
C468 C473 1.370 . S
C469 H442 0.929 . S
C469 C468 1.363 . S
C469 C470 1.385 . S
C470 H444 0.930 . S
C470 C469 1.385 . S
C470 C471 1.357 . S
C471 C470 1.357 . S
C471 C472 1.406 . S
C472 H446 0.929 . S
C472 C471 1.406 . S
C472 C473 1.391 . S
C473 H445 0.931 . S
C473 C468 1.370 . S
C473 C472 1.391 . S
C474 N443 1.435 . S
C474 C475 1.358 . S
C474 C479 1.371 . S
C475 H447 0.930 . S
C475 C474 1.358 . S
C475 C476 1.405 . S
C476 H448 0.932 . S
C476 C475 1.405 . S
C476 C477 1.383 . S
C477 C476 1.383 . S
C477 C478 1.393 . S
C478 H450 0.931 . S
C478 C477 1.393 . S
C478 C479 1.382 . S
C479 H449 0.929 . S
C479 C474 1.371 . S
C479 C478 1.382 . S
C480 N443 1.423 . S
C480 C481 1.362 . S
C480 C485 1.388 . S
C481 H451 0.929 . S
C481 C480 1.362 . S
C481 C482 1.376 . S
C482 H453 0.931 . S
C482 C481 1.376 . S
C482 C483 1.396 . S
C483 C482 1.396 . S
C483 C484 1.348 . S
C483 C501 1.472 . S
C484 H454 0.929 . S
C484 C483 1.348 . S
C484 C485 1.443 . S
C485 H452 0.932 . S
C485 C480 1.388 . S
C485 C484 1.443 . S
C486 N466 1.433 . S
C486 C487 1.363 . S
C486 C491 1.370 . S
C487 H455 0.929 . S
C487 C486 1.363 . S
C487 C488 1.385 . S
C488 H456 0.930 . S
C488 C487 1.385 . S
C488 C489 1.357 . S
C489 C488 1.357 . S
C489 C490 1.406 . S
C490 H457 0.929 . S
C490 C489 1.406 . S
C490 C491 1.391 . S
C491 H458 0.931 . S
C491 C486 1.370 . S
C491 C490 1.391 . S
C492 N466 1.435 . S
C492 C493 1.358 . S
C492 C497 1.371 . S
C493 H459 0.930 . S
C493 C492 1.358 . S
C493 C494 1.405 . S
C494 H460 0.932 . S
C494 C493 1.405 . S
C494 C495 1.383 . S
C495 C494 1.383 . S
C495 C496 1.393 . S
C496 H461 0.931 . S
C496 C495 1.393 . S
C496 C497 1.382 . S
C497 H462 0.929 . S
C497 C492 1.371 . S
C497 C496 1.382 . S
C498 N466 1.423 . S
C498 C499 1.362 . S
C498 C503 1.388 . S
C499 H463 0.929 . S
C499 C498 1.362 . S
C499 C500 1.376 . S
C500 H464 0.931 . S
C500 C499 1.376 . S
C500 C501 1.396 . S
C501 C483 1.472 . S
C501 C500 1.396 . S
C501 C502 1.348 . S
C502 H465 0.929 . S
C502 C501 1.348 . S
C502 C503 1.443 . S
C503 H467 0.932 . S
C503 C498 1.388 . S
C503 C502 1.443 . S
H504 C531 0.929 . S
N505 C530 1.433 . S
N505 C536 1.435 . S
N505 C542 1.423 . S
H506 C532 0.918 1_455 S
H507 C535 0.931 . S
H508 C534 0.929 . S
H509 C537 0.930 . S
H510 C538 0.932 . S
H511 C541 0.929 . S
H512 C540 0.931 . S
H513 C543 0.929 . S
H514 C547 0.932 . S
H515 C544 0.931 . S
H516 C546 0.929 . S
H517 C549 0.929 . S
H518 C550 0.930 . S
H519 C552 0.929 . S
H520 C553 0.931 . S
H521 C555 0.930 . S
H522 C556 0.932 . S
H523 C558 0.931 . S
H524 C559 0.929 . S
H525 C561 0.929 . S
H526 C562 0.931 . S
H527 C564 0.929 . S
N528 C548 1.433 . S
N528 C554 1.435 . S
N528 C560 1.423 . S
H529 C565 0.932 . S
C530 N505 1.433 . S
C530 C531 1.363 . S
C530 C535 1.370 . S
C531 H504 0.929 . S
C531 C530 1.363 . S
C531 C532 1.385 . S
C532 H506 0.918 1_655 S
C532 C531 1.385 . S
C532 C533 1.357 . S
C533 C532 1.357 . S
C533 C534 1.406 . S
C534 H508 0.929 . S
C534 C533 1.406 . S
C534 C535 1.391 . S
C535 H507 0.931 . S
C535 C530 1.370 . S
C535 C534 1.391 . S
C536 N505 1.435 . S
C536 C537 1.358 . S
C536 C541 1.371 . S
C537 H509 0.930 . S
C537 C536 1.358 . S
C537 C538 1.405 . S
C538 H510 0.932 . S
C538 C537 1.405 . S
C538 C539 1.383 . S
C539 C538 1.383 . S
C539 C540 1.393 . S
C540 H512 0.931 . S
C540 C539 1.393 . S
C540 C541 1.382 . S
C541 H511 0.929 . S
C541 C536 1.371 . S
C541 C540 1.382 . S
C542 N505 1.423 . S
C542 C543 1.362 . S
C542 C547 1.388 . S
C543 H513 0.929 . S
C543 C542 1.362 . S
C543 C544 1.376 . S
C544 H515 0.931 . S
C544 C543 1.376 . S
C544 C545 1.396 . S
C545 C544 1.396 . S
C545 C546 1.348 . S
C545 C563 1.472 . S
C546 H516 0.929 . S
C546 C545 1.348 . S
C546 C547 1.443 . S
C547 H514 0.932 . S
C547 C542 1.388 . S
C547 C546 1.443 . S
C548 N528 1.433 . S
C548 C549 1.363 . S
C548 C553 1.370 . S
C549 H517 0.929 . S
C549 C548 1.363 . S
C549 C550 1.385 . S
C550 H518 0.930 . S
C550 C549 1.385 . S
C550 C551 1.357 . S
C551 C550 1.357 . S
C551 C552 1.406 . S
C552 H519 0.929 . S
C552 C551 1.406 . S
C552 C553 1.391 . S
C553 H520 0.931 . S
C553 C548 1.370 . S
C553 C552 1.391 . S
C554 N528 1.435 . S
C554 C555 1.358 . S
C554 C559 1.371 . S
C555 H521 0.930 . S
C555 C554 1.358 . S
C555 C556 1.405 . S
C556 H522 0.932 . S
C556 C555 1.405 . S
C556 C557 1.383 . S
C557 C556 1.383 . S
C557 C558 1.393 . S
C558 H523 0.931 . S
C558 C557 1.393 . S
C558 C559 1.382 . S
C559 H524 0.929 . S
C559 C554 1.371 . S
C559 C558 1.382 . S
C560 N528 1.423 . S
C560 C561 1.362 . S
C560 C565 1.388 . S
C561 H525 0.929 . S
C561 C560 1.362 . S
C561 C562 1.376 . S
C562 H526 0.931 . S
C562 C561 1.376 . S
C562 C563 1.396 . S
C563 C545 1.472 . S
C563 C562 1.396 . S
C563 C564 1.348 . S
C564 H527 0.929 . S
C564 C563 1.348 . S
C564 C565 1.443 . S
C565 H529 0.932 . S
C565 C560 1.388 . S
C565 C564 1.443 . S
H566 C593 0.929 . S
N567 C592 1.433 . S
N567 C598 1.435 . S
N567 C604 1.423 . S
H568 C594 0.930 . S
H569 C597 0.931 . S
H570 C596 0.929 . S
H571 C599 0.930 . S
H572 C600 0.932 . S
H573 C603 0.929 . S
H574 C602 0.931 . S
H575 C605 0.929 . S
H576 C609 0.932 . S
H577 C606 0.931 . S
H578 C608 0.929 . S
H579 C611 0.929 . S
H580 C612 0.930 . S
H581 C614 0.929 . S
H582 C615 0.931 . S
H583 C617 0.930 . S
H584 C618 0.932 . S
H585 C620 0.931 . S
H586 C621 0.929 . S
H587 C623 0.929 . S
H588 C624 0.931 . S
H589 C626 0.929 . S
N590 C610 1.433 . S
N590 C616 1.435 . S
N590 C622 1.423 . S
H591 C627 0.932 . S
C592 N567 1.433 . S
C592 C593 1.363 . S
C592 C597 1.370 . S
C593 H566 0.929 . S
C593 C592 1.363 . S
C593 C594 1.385 . S
C594 H568 0.930 . S
C594 C593 1.385 . S
C594 C595 1.357 . S
C595 C594 1.357 . S
C595 C596 1.406 . S
C596 H570 0.929 . S
C596 C595 1.406 . S
C596 C597 1.391 . S
C597 H569 0.931 . S
C597 C592 1.370 . S
C597 C596 1.391 . S
C598 N567 1.435 . S
C598 C599 1.358 . S
C598 C603 1.371 . S
C599 H571 0.930 . S
C599 C598 1.358 . S
C599 C600 1.405 . S
C600 H572 0.932 . S
C600 C599 1.405 . S
C600 C601 1.383 . S
C601 C600 1.383 . S
C601 C602 1.393 . S
C602 H574 0.931 . S
C602 C601 1.393 . S
C602 C603 1.382 . S
C603 H573 0.929 . S
C603 C598 1.371 . S
C603 C602 1.382 . S
C604 N567 1.423 . S
C604 C605 1.362 . S
C604 C609 1.388 . S
C605 H575 0.929 . S
C605 C604 1.362 . S
C605 C606 1.376 . S
C606 H577 0.931 . S
C606 C605 1.376 . S
C606 C607 1.396 . S
C607 C606 1.396 . S
C607 C608 1.348 . S
C607 C625 1.472 . S
C608 H578 0.929 . S
C608 C607 1.348 . S
C608 C609 1.443 . S
C609 H576 0.932 . S
C609 C604 1.388 . S
C609 C608 1.443 . S
C610 N590 1.433 . S
C610 C611 1.363 . S
C610 C615 1.370 . S
C611 H579 0.929 . S
C611 C610 1.363 . S
C611 C612 1.385 . S
C612 H580 0.930 . S
C612 C611 1.385 . S
C612 C613 1.357 . S
C613 C612 1.357 . S
C613 C614 1.406 . S
C614 H581 0.929 . S
C614 C613 1.406 . S
C614 C615 1.391 . S
C615 H582 0.931 . S
C615 C610 1.370 . S
C615 C614 1.391 . S
C616 N590 1.435 . S
C616 C617 1.358 . S
C616 C621 1.371 . S
C617 H583 0.930 . S
C617 C616 1.358 . S
C617 C618 1.405 . S
C618 H584 0.932 . S
C618 C617 1.405 . S
C618 C619 1.383 . S
C619 C618 1.383 . S
C619 C620 1.393 . S
C620 H585 0.931 . S
C620 C619 1.393 . S
C620 C621 1.382 . S
C621 H586 0.929 . S
C621 C616 1.371 . S
C621 C620 1.382 . S
C622 N590 1.423 . S
C622 C623 1.362 . S
C622 C627 1.388 . S
C623 H587 0.929 . S
C623 C622 1.362 . S
C623 C624 1.376 . S
C624 H588 0.931 . S
C624 C623 1.376 . S
C624 C625 1.396 . S
C625 C607 1.472 . S
C625 C624 1.396 . S
C625 C626 1.348 . S
C626 H589 0.929 . S
C626 C625 1.348 . S
C626 C627 1.443 . S
C627 H591 0.932 . S
C627 C622 1.388 . S
C627 C626 1.443 . S
H628 C655 0.929 . S
N629 C654 1.433 . S
N629 C660 1.435 . S
N629 C666 1.423 . S
H630 C656 0.930 . S
H631 C659 0.931 . S
H632 C658 0.929 . S
H633 C661 0.930 . S
H634 C662 0.932 . S
H635 C665 0.929 . S
H636 C664 0.931 . S
H637 C667 0.929 . S
H638 C671 0.932 . S
H639 C668 0.931 . S
H640 C670 0.929 . S
H641 C673 0.929 . S
H642 C674 0.930 . S
H643 C676 0.929 . S
H644 C677 0.931 . S
H645 C679 0.930 . S
H646 C680 0.932 . S
H647 C682 0.931 . S
H648 C683 0.929 . S
H649 C685 0.929 . S
H650 C686 0.931 . S
H651 C688 0.929 . S
N652 C672 1.433 . S
N652 C678 1.435 . S
N652 C684 1.423 . S
H653 C689 0.932 . S
C654 N629 1.433 . S
C654 C655 1.363 . S
C654 C659 1.370 . S
C655 H628 0.929 . S
C655 C654 1.363 . S
C655 C656 1.385 . S
C656 H630 0.930 . S
C656 C655 1.385 . S
C656 C657 1.357 . S
C657 C656 1.357 . S
C657 C658 1.406 . S
C658 H632 0.929 . S
C658 C657 1.406 . S
C658 C659 1.391 . S
C659 H631 0.931 . S
C659 C654 1.370 . S
C659 C658 1.391 . S
C660 N629 1.435 . S
C660 C661 1.358 . S
C660 C665 1.371 . S
C661 H633 0.930 . S
C661 C660 1.358 . S
C661 C662 1.405 . S
C662 H634 0.932 . S
C662 C661 1.405 . S
C662 C663 1.383 . S
C663 C662 1.383 . S
C663 C664 1.393 . S
C664 H636 0.931 . S
C664 C663 1.393 . S
C664 C665 1.382 . S
C665 H635 0.929 . S
C665 C660 1.371 . S
C665 C664 1.382 . S
C666 N629 1.423 . S
C666 C667 1.362 . S
C666 C671 1.388 . S
C667 H637 0.929 . S
C667 C666 1.362 . S
C667 C668 1.376 . S
C668 H639 0.931 . S
C668 C667 1.376 . S
C668 C669 1.396 . S
C669 C668 1.396 . S
C669 C670 1.348 . S
C669 C687 1.472 . S
C670 H640 0.929 . S
C670 C669 1.348 . S
C670 C671 1.443 . S
C671 H638 0.932 . S
C671 C666 1.388 . S
C671 C670 1.443 . S
C672 N652 1.433 . S
C672 C673 1.363 . S
C672 C677 1.370 . S
C673 H641 0.929 . S
C673 C672 1.363 . S
C673 C674 1.385 . S
C674 H642 0.930 . S
C674 C673 1.385 . S
C674 C675 1.357 . S
C675 C674 1.357 . S
C675 C676 1.406 . S
C676 H643 0.929 . S
C676 C675 1.406 . S
C676 C677 1.391 . S
C677 H644 0.931 . S
C677 C672 1.370 . S
C677 C676 1.391 . S
C678 N652 1.435 . S
C678 C679 1.358 . S
C678 C683 1.371 . S
C679 H645 0.930 . S
C679 C678 1.358 . S
C679 C680 1.405 . S
C680 H646 0.932 . S
C680 C679 1.405 . S
C680 C681 1.383 . S
C681 C680 1.383 . S
C681 C682 1.393 . S
C682 H647 0.931 . S
C682 C681 1.393 . S
C682 C683 1.382 . S
C683 H648 0.929 . S
C683 C678 1.371 . S
C683 C682 1.382 . S
C684 N652 1.423 . S
C684 C685 1.362 . S
C684 C689 1.388 . S
C685 H649 0.929 . S
C685 C684 1.362 . S
C685 C686 1.376 . S
C686 H650 0.931 . S
C686 C685 1.376 . S
C686 C687 1.396 . S
C687 C669 1.472 . S
C687 C686 1.396 . S
C687 C688 1.348 . S
C688 H651 0.929 . S
C688 C687 1.348 . S
C688 C689 1.443 . S
C689 H653 0.932 . S
C689 C684 1.388 . S
C689 C688 1.443 . S
C39 C371 2.024 . S
C91 C415 2.329 . S
C495 C128 2.196 . S
C539 C188 1.688 . S
C619 C250 2.378 . S
C675 C304 2.612 . S
C75 C471 2.366 . S
C144 C551 2.116 . S
C595 C198 2.455 . S
C663 C234 2.354 . S
C294 C347 1.687 . S
C427 C29 2.469 . S
C533 C38 2.763 1_556 S
C92 C613 1.865 . S
C681 C135 2.471 . S
C181 C365 2.596 . S
C251 C409 1.911 . S
C303 C489 2.574 . S
C82 C657 2.429 . S
C353 C145 2.326 . S
C197 C433 1.832 1_455 S
C241 C477 2.089 . S
C287 C557 2.386 . S
C22 C601 1.531 . S
