# Generated by pormake.
# Topology pyr, (3,6)-cn, num edge types: 1
# Building blocks:
#     Node 0, Type 0, BuildingBlock: ESEHIV_clean_linker_0, # of connection points: 3
#     Node 1, Type 0, BuildingBlock: ESEHIV_clean_linker_0, # of connection points: 3
#     Node 2, Type 0, BuildingBlock: ESEHIV_clean_linker_0, # of connection points: 3
#     Node 3, Type 0, BuildingBlock: ESEHIV_clean_linker_0, # of connection points: 3
#     Node 4, Type 0, BuildingBlock: ESEHIV_clean_linker_0, # of connection points: 3
#     Node 5, Type 0, BuildingBlock: ESEHIV_clean_linker_0, # of connection points: 3
#     Node 6, Type 0, BuildingBlock: ESEHIV_clean_linker_0, # of connection points: 3
#     Node 7, Type 0, BuildingBlock: ESEHIV_clean_linker_0, # of connection points: 3
#     Node 8, Type 1, BuildingBlock: FUNLAD_clean_sbu_0, # of connection points: 6
#     Node 9, Type 1, BuildingBlock: FUNLAD_clean_sbu_0, # of connection points: 6
#     Node 10, Type 1, BuildingBlock: FUNLAD_clean_sbu_0, # of connection points: 6
#     Node 11, Type 1, BuildingBlock: FUNLAD_clean_sbu_0, # of connection points: 6
#     Edge 12, Type (0, 1), BuildingBlock: XUDNAN_clean_linker_2, # of connection points: 2
#     Edge 13, Type (0, 1), BuildingBlock: XUDNAN_clean_linker_2, # of connection points: 2
#     Edge 14, Type (0, 1), BuildingBlock: XUDNAN_clean_linker_2, # of connection points: 2
#     Edge 15, Type (0, 1), BuildingBlock: XUDNAN_clean_linker_2, # of connection points: 2
#     Edge 16, Type (0, 1), BuildingBlock: XUDNAN_clean_linker_2, # of connection points: 2
#     Edge 17, Type (0, 1), BuildingBlock: XUDNAN_clean_linker_2, # of connection points: 2
#     Edge 18, Type (0, 1), BuildingBlock: XUDNAN_clean_linker_2, # of connection points: 2
#     Edge 19, Type (0, 1), BuildingBlock: XUDNAN_clean_linker_2, # of connection points: 2
#     Edge 20, Type (0, 1), BuildingBlock: XUDNAN_clean_linker_2, # of connection points: 2
#     Edge 21, Type (0, 1), BuildingBlock: XUDNAN_clean_linker_2, # of connection points: 2
#     Edge 22, Type (0, 1), BuildingBlock: XUDNAN_clean_linker_2, # of connection points: 2
#     Edge 23, Type (0, 1), BuildingBlock: XUDNAN_clean_linker_2, # of connection points: 2
#     Edge 24, Type (0, 1), BuildingBlock: XUDNAN_clean_linker_2, # of connection points: 2
#     Edge 25, Type (0, 1), BuildingBlock: XUDNAN_clean_linker_2, # of connection points: 2
#     Edge 26, Type (0, 1), BuildingBlock: XUDNAN_clean_linker_2, # of connection points: 2
#     Edge 27, Type (0, 1), BuildingBlock: XUDNAN_clean_linker_2, # of connection points: 2
#     Edge 28, Type (0, 1), BuildingBlock: XUDNAN_clean_linker_2, # of connection points: 2
#     Edge 29, Type (0, 1), BuildingBlock: XUDNAN_clean_linker_2, # of connection points: 2
#     Edge 30, Type (0, 1), BuildingBlock: XUDNAN_clean_linker_2, # of connection points: 2
#     Edge 31, Type (0, 1), BuildingBlock: XUDNAN_clean_linker_2, # of connection points: 2
#     Edge 32, Type (0, 1), BuildingBlock: XUDNAN_clean_linker_2, # of connection points: 2
#     Edge 33, Type (0, 1), BuildingBlock: XUDNAN_clean_linker_2, # of connection points: 2
#     Edge 34, Type (0, 1), BuildingBlock: XUDNAN_clean_linker_2, # of connection points: 2
#     Edge 35, Type (0, 1), BuildingBlock: XUDNAN_clean_linker_2, # of connection points: 2
# Relax obj value: 0.089
# Max RMSD: 0.072
# Mean RMSD: 0.036
data_MOF--net-pry--node1-FUNLAD_clean_sbu_0--node2-ESEHIV_clean_linker_0--edge1-XUDNAN_clean_linker_2
_symmetry_space_group_name_H-M    P1
_symmetry_Int_Tables_number       1
_symmetry_cell_setting            triclinic
loop_
_symmetry_equiv_pos_as_xyz
'x, y, z'
_cell_length_a     33.45357
_cell_length_b     35.984238
_cell_length_c     36.148506
_cell_angle_alpha  90.097161
_cell_angle_beta   90.054672
_cell_angle_gamma 83.428116
loop_
_atom_site_label
_atom_site_type_symbol
_atom_site_fract_x
_atom_site_fract_y
_atom_site_fract_z
_atom_type_partial_charge
H0 H 0.08608 0.21457 0.21873 0.0
H1 H 0.18006 0.12288 0.23116 0.0
H2 H 0.17739 0.19329 0.13509 0.0
C3 C 0.11319 0.1984 0.20862 0.0
C4 C 0.12956 0.20792 0.17421 0.0
C5 C 0.13075 0.16701 0.22919 0.0
C6 C 0.16569 0.14603 0.21507 0.0
C7 C 0.18309 0.15533 0.18124 0.0
C8 C 0.16464 0.18625 0.16134 0.0
H9 H 0.33646 0.92338 0.71698 0.0
H10 H 0.44 0.84108 0.72521 0.0
H11 H 0.35894 0.83828 0.6332 0.0
C12 C 0.35559 0.90009 0.70505 0.0
C13 C 0.34338 0.88281 0.67243 0.0
C14 C 0.39062 0.88522 0.72423 0.0
C15 C 0.41371 0.85293 0.70997 0.0
C16 C 0.40268 0.83548 0.67696 0.0
C17 C 0.36808 0.85153 0.65823 0.0
H18 H 0.64801 0.42317 1.0048 0.0
H19 H 0.63522 0.50857 0.92145 0.0
H20 H 0.53413 0.45151 0.95011 0.0
C21 C 0.62873 0.44136 0.98674 0.0
C22 C 0.58858 0.43457 0.9808 0.0
C23 C 0.64549 0.46858 0.96578 0.0
C24 C 0.62161 0.48953 0.93952 0.0
C25 C 0.58172 0.48288 0.93344 0.0
C26 C 0.56485 0.4569 0.95547 0.0
H27 H 0.90548 0.6256 0.53369 0.0
H28 H 0.99472 0.58836 0.45225 0.0
H29 H 0.88415 0.539 0.45673 0.0
C30 C 0.9167 0.60577 0.51247 0.0
C31 C 0.89162 0.58002 0.49902 0.0
C32 C 0.95396 0.60905 0.49564 0.0
C33 C 0.9668 0.58497 0.46642 0.0
C34 C 0.94157 0.56001 0.45205 0.0
C35 C 0.90472 0.55654 0.46931 0.0
H36 H 0.83865 0.91928 0.81945 0.0
H37 H 0.9308 0.82619 0.83333 0.0
H38 H 0.83863 0.84954 0.9158 0.0
C39 C 0.8524 0.89601 0.83574 0.0
C40 C 0.83433 0.88723 0.86943 0.0
C41 C 0.88716 0.87435 0.82208 0.0
C42 C 0.90382 0.84287 0.84301 0.0
C43 C 0.88673 0.83385 0.87725 0.0
C44 C 0.85191 0.85619 0.88967 0.0
H45 H 0.61273 0.21411 0.3067 0.0
H46 H 0.6908 0.11389 0.3327 0.0
H47 H 0.68485 0.20743 0.40635 0.0
C48 C 0.63428 0.1986 0.32487 0.0
C49 C 0.64566 0.21531 0.35854 0.0
C50 C 0.65108 0.16203 0.31448 0.0
C51 C 0.67849 0.14226 0.33921 0.0
C52 C 0.69116 0.15839 0.37203 0.0
C53 C 0.67476 0.1949 0.38125 0.0
H54 H 0.35813 0.61405 1.01155 0.0
H55 H 0.36852 0.57808 0.12464 0.0
H56 H 0.46571 0.62602 0.07263 0.0
C57 C 0.37576 0.60873 0.0365 0.0
C58 C 0.41334 0.62245 0.03917 0.0
C59 C 0.36053 0.59 0.06671 0.0
C60 C 0.38247 0.58775 0.10004 0.0
C61 C 0.42055 0.60044 0.10271 0.0
C62 C 0.43662 0.61561 0.07118 0.0
H63 H 0.07832 0.42817 0.60756 0.0
H64 H 0.16955 0.40639 0.52445 0.0
H65 H 0.17802 0.49333 0.60538 0.0
C66 C 0.10514 0.43582 0.594 0.0
C67 C 0.12601 0.46352 0.60956 0.0
C68 C 0.12057 0.41535 0.56333 0.0
C69 C 0.1566 0.42352 0.54709 0.0
C70 C 0.17723 0.45215 0.56181 0.0
C71 C 0.16151 0.47227 0.59293 0.0
C72 C 0.04314 0.04976 0.46143 0.0
N73 N 0.01899 0.09411 0.5669 0.0
C74 C 0.05586 0.10609 0.56305 0.0
C75 C 0.06085 0.14351 0.5682 0.0
C76 C 0.02751 0.16923 0.57705 0.0
C77 C 0.99022 0.15587 0.58326 0.0
C78 C 0.98661 0.11783 0.57809 0.0
Zn79 Zn 0.01322 0.04352 0.54333 0.0
C80 C 0.9351 0.04415 0.50092 0.0
N81 N 1.00781 0.94214 0.4851 0.0
C82 C 0.04126 0.92094 0.47219 0.0
C83 C 0.97372 0.92656 0.49338 0.0
C84 C 0.97387 0.88792 0.49299 0.0
C85 C 1.00924 0.86531 0.48364 0.0
C86 C 0.04263 0.88195 0.47122 0.0
Zn87 Zn 0.01196 0.99323 0.50831 0.0
O88 O 0.03802 0.0651 0.49315 0.0
C89 C 0.08933 0.98994 0.55095 0.0
O90 O 0.0351 1.01614 0.45771 0.0
H91 H 0.94771 0.94369 0.50424 0.0
H92 H 0.08095 0.08733 0.55285 0.0
H93 H 0.06816 0.93386 0.46613 0.0
O94 O 0.07318 0.02109 0.5637 0.0
O95 O 0.07069 0.97378 0.52619 0.0
H96 H 0.95745 0.10785 0.58057 0.0
O97 O 0.9894 0.97108 0.55928 0.0
O98 O 0.98769 0.02158 0.59325 0.0
O99 O 0.95261 1.01252 0.49102 0.0
O100 O 0.9533 0.06433 0.52284 0.0
C101 C 0.98197 0.98726 0.59032 0.0
H102 H 0.08998 0.15255 0.56235 0.0
H103 H 0.96382 0.17484 0.59035 0.0
H104 H 0.94765 0.87571 0.5027 0.0
H105 H 0.07039 0.86502 0.46396 0.0
C106 C 0.58349 1.00095 0.99084 0.0
N107 N 0.51123 0.10518 0.99713 0.0
C108 C 0.54782 0.11654 1.00466 0.0
C109 C 0.55238 0.15433 1.00673 0.0
C110 C 0.51908 0.18085 1.00086 0.0
C111 C 0.4823 0.16877 0.99025 0.0
C112 C 0.47889 0.13033 0.98884 0.0
Zn113 Zn 0.50633 0.05119 1.01185 0.0
C114 C 0.4717 1.00262 0.95862 0.0
N115 N 0.50561 0.94065 0.05136 0.0
C116 C 0.53747 0.91394 0.056 0.0
C117 C 0.46788 0.93107 0.04578 0.0
C118 C 0.46143 0.89391 0.04163 0.0
C119 C 0.49389 0.86562 0.04384 0.0
C120 C 0.53218 0.87596 0.05261 0.0
Zn121 Zn 0.5116 0.99482 0.03709 0.0
O122 O 0.5647 0.03361 0.98757 0.0
C123 C 0.54612 0.04177 0.09094 0.0
O124 O 0.56802 0.97719 1.01064 0.0
H125 H 0.44302 0.95231 0.04069 0.0
H126 H 0.57299 0.09641 1.01208 0.0
H127 H 0.56736 0.92203 0.05978 0.0
O128 O 0.53384 0.06429 0.06508 0.0
O129 O 0.54239 1.00711 0.08703 0.0
H130 H 0.44993 0.12074 0.98357 0.0
O131 O 0.45492 1.01348 0.06366 0.0
O132 O 0.44827 0.06791 0.0361 0.0
O133 O 0.48185 0.98304 0.98701 0.0
O134 O 0.47821 0.03692 0.95884 0.0
C135 C 0.43454 0.04509 0.05827 0.0
H136 H 0.58132 0.16277 1.0145 0.0
H137 H 0.45604 0.18872 0.98542 0.0
H138 H 0.43153 0.88798 0.03398 0.0
H139 H 0.55808 0.85517 0.05528 0.0
C140 C 0.55727 0.45954 0.48101 0.0
N141 N 0.54807 0.49348 0.59416 0.0
C142 C 0.52392 0.47108 0.61175 0.0
C143 C 0.52149 0.4713 0.65046 0.0
C144 C 0.54419 0.49475 0.6708 0.0
C145 C 0.5718 0.51431 0.65209 0.0
C146 C 0.57297 0.51362 0.61375 0.0
Zn147 Zn 0.53688 0.51165 0.54094 0.0
C148 C 0.60677 0.54858 0.51202 0.0
N149 N 0.51148 0.565 0.43834 0.0
C150 C 0.49984 0.53968 0.41384 0.0
C151 C 0.51575 0.60059 0.42778 0.0
C152 C 0.50843 0.61162 0.39101 0.0
C153 C 0.49779 0.58539 0.36478 0.0
C154 C 0.49411 0.54886 0.37691 0.0
Zn155 Zn 0.52329 0.54474 0.49016 0.0
O156 O 0.55482 0.45741 0.51613 0.0
C157 C 0.45295 0.50839 0.51748 0.0
O158 O 0.54798 0.49133 0.46583 0.0
H159 H 0.52483 0.62037 0.4478 0.0
H160 H 0.50405 0.45546 0.59592 0.0
H161 H 0.49541 0.51181 0.42269 0.0
O162 O 0.4763 0.49894 0.54443 0.0
O163 O 0.46561 0.52685 0.49097 0.0
H164 H 0.59109 0.53231 0.60004 0.0
O165 O 0.49963 0.59735 0.51571 0.0
O166 O 0.51877 0.56603 0.56559 0.0
O167 O 0.58059 0.56315 0.48934 0.0
O168 O 0.59732 0.52464 0.53524 0.0
C169 C 0.50394 0.5966 0.55071 0.0
H170 H 0.50006 0.45551 0.66405 0.0
H171 H 0.5906 0.53198 0.66684 0.0
H172 H 0.51104 0.64032 0.38346 0.0
H173 H 0.48746 0.5269 0.35823 0.0
C174 C 0.98028 0.59503 1.00557 0.0
N175 N 0.97392 0.53525 0.10721 0.0
C176 C 0.98955 0.5605 0.12939 0.0
C177 C 0.98346 0.55984 0.16757 0.0
C178 C 0.96056 0.53325 0.18297 0.0
C179 C 0.94249 0.50938 0.15899 0.0
C180 C 0.94996 0.51055 0.12115 0.0
Zn181 Zn 0.99374 0.5269 0.0543 0.0
C182 C 0.92988 0.50197 1.00493 0.0
N183 N 0.03586 0.50544 0.94481 0.0
C184 C 0.0582 0.5317 0.93137 0.0
C185 C 0.02403 0.47815 0.92263 0.0
C186 C 0.03354 0.47749 0.88497 0.0
C187 C 0.05554 0.5051 0.87025 0.0
C188 C 0.06871 0.53183 0.89422 0.0
Zn189 Zn 0.01558 0.51345 0.99754 0.0
O190 O 0.97631 0.58526 0.03921 0.0
C191 C 0.07964 0.53787 0.04613 0.0
O192 O 0.99546 0.57056 0.98266 0.0
H193 H 1.00596 0.45778 0.93383 0.0
H194 H 1.00867 0.57977 0.11777 0.0
H195 H 0.06677 0.55361 0.94917 0.0
O196 O 0.05206 0.5392 0.07032 0.0
O197 O 0.07232 0.52854 1.01324 0.0
H198 H 0.9383 0.49027 0.10323 0.0
O199 O 0.03518 0.45568 1.0132 0.0
O200 O 0.01187 0.46924 0.06879 0.0
O201 O 0.95895 0.49853 0.98218 0.0
O202 O 0.93564 0.51378 0.03744 0.0
C203 C 0.0293 0.4454 0.04638 0.0
H204 H 0.99834 0.57865 0.18484 0.0
H205 H 0.9238 0.48907 0.16938 0.0
H206 H 0.02252 0.45648 0.86741 0.0
H207 H 0.08645 0.55312 0.88431 0.0
H208 H 0.12049 0.09594 0.25545 0.0
H209 H 0.10276 0.21317 0.28653 0.0
H210 H 0.0791 0.19564 0.34818 0.0
H211 H 0.03231 0.06923 0.30396 0.0
H212 H 0.05673 0.02407 0.31758 0.0
H213 H 0.07184 0.04572 0.27572 0.0
H214 H 0.14536 0.03991 0.29925 0.0
H215 H 0.13045 1.01841 0.34126 0.0
H216 H 0.15622 0.0597 0.34349 0.0
H217 H 0.06094 0.16524 0.40797 0.0
H218 H 0.04393 0.1254 0.45948 0.0
H219 H 0.07004 0.02686 0.3903 0.0
C220 C 0.11157 0.11799 0.27519 0.0
C221 C 0.11368 0.15617 0.2658 0.0
C222 C 0.10118 0.18391 0.29257 0.0
C223 C 0.08791 0.17413 0.32788 0.0
C224 C 0.08671 0.13637 0.33628 0.0
C225 C 0.09771 0.10871 0.31055 0.0
C226 C 0.09298 0.07023 0.32663 0.0
C227 C 0.0616 0.05119 0.30466 0.0
C228 C 0.13368 0.04561 0.32772 0.0
C229 C 0.07799 0.0805 0.36557 0.0
C230 C 0.07495 0.11885 0.37048 0.0
C231 C 0.06294 0.13524 0.40422 0.0
C232 C 0.05344 0.11214 0.43352 0.0
C233 C 0.05542 0.07269 0.42937 0.0
C234 C 0.06795 0.05679 0.39462 0.0
H235 H 0.41075 0.95561 0.74618 0.0
H236 H 0.39129 0.84628 0.78807 0.0
H237 H 0.40589 0.86657 0.85137 0.0
H238 H 0.49502 0.96748 0.80681 0.0
H239 H 0.48189 1.01699 0.81374 0.0
H240 H 0.46765 0.9952 0.77155 0.0
H241 H 0.39327 0.02084 0.78298 0.0
H242 H 0.40727 0.04261 0.82529 0.0
H243 H 0.36962 1.01056 0.82598 0.0
H244 H 0.42201 0.89728 0.90955 0.0
H245 H 0.4446 0.93465 0.9602 0.0
H246 H 0.45877 0.02546 0.88383 0.0
C247 C 0.40937 0.93616 0.76883 0.0
C248 C 0.39966 0.89922 0.76213 0.0
C249 C 0.39866 0.8745 0.79243 0.0
C250 C 0.40677 0.88588 0.82855 0.0
C251 C 0.41637 0.92215 0.8343 0.0
C252 C 0.4182 0.94696 0.80542 0.0
C253 C 0.43143 0.98372 0.81977 0.0
C254 C 0.47138 0.99129 0.8019 0.0
C255 C 0.39842 1.01637 0.8131 0.0
C256 C 0.43677 0.97551 0.8611 0.0
C257 C 0.42733 0.93984 0.8685 0.0
C258 C 0.42964 0.92517 0.90405 0.0
C259 C 0.44266 0.94691 0.93282 0.0
C260 C 0.4539 0.98331 0.92653 0.0
C261 C 0.45032 0.99797 0.88992 0.0
H262 H 0.55579 0.43785 0.88123 0.0
H263 H 0.56728 0.55409 0.90543 0.0
H264 H 0.54632 0.57105 0.84128 0.0
H265 H 0.60202 0.4365 0.79901 0.0
H266 H 0.5721 0.40498 0.77575 0.0
H267 H 0.57729 0.40315 0.82517 0.0
H268 H 0.49985 0.41332 0.8328 0.0
H269 H 0.49424 0.4147 0.78318 0.0
H270 H 0.47137 0.45294 0.81104 0.0
H271 H 0.53465 0.57364 0.77338 0.0
H272 H 0.53658 0.56207 0.70621 0.0
H273 H 0.53715 0.44306 0.72557 0.0
C274 C 0.55195 0.46712 0.87348 0.0
C275 C 0.56194 0.49494 0.8983 0.0
C276 C 0.55885 0.53266 0.88684 0.0
C277 C 0.54689 0.54244 0.8506 0.0
C278 C 0.53848 0.51406 0.82637 0.0
C279 C 0.54082 0.47712 0.83739 0.0
C280 C 0.53679 0.45117 0.8049 0.0
C281 C 0.57428 0.42229 0.801 0.0
C282 C 0.49825 0.4319 0.80818 0.0
C283 C 0.53372 0.47905 0.77354 0.0
C284 C 0.53367 0.51524 0.78663 0.0
C285 C 0.53418 0.54552 0.76286 0.0
C286 C 0.53572 0.53858 0.72479 0.0
C287 C 0.53751 0.50157 0.71083 0.0
C288 C 0.53533 0.47161 0.73552 0.0
H289 H 0.95125 0.60228 0.39212 0.0
H290 H 0.94384 0.4878 0.42598 0.0
H291 H 0.94924 0.4676 0.36013 0.0
H292 H 0.88971 0.59942 0.31327 0.0
H293 H 0.91747 0.62959 0.28601 0.0
H294 H 0.91648 0.63397 0.33561 0.0
H295 H 0.99444 0.62437 0.33757 0.0
H296 H 0.99576 0.62026 0.28791 0.0
H297 H 0.02101 0.58352 0.31611 0.0
H298 H 0.95522 0.46105 0.29024 0.0
H299 H 0.95891 0.46815 0.2226 0.0
H300 H 0.95629 0.58844 0.23602 0.0
C301 C 0.95176 0.57279 0.38574 0.0
C302 C 0.94825 0.54628 0.41388 0.0
C303 C 0.94727 0.50823 0.40459 0.0
C304 C 0.95024 0.49666 0.36742 0.0
C305 C 0.95346 0.52372 0.34025 0.0
C306 C 0.954 0.56102 0.34908 0.0
C307 C 0.95525 0.58506 0.31499 0.0
C308 C 0.91748 0.61368 0.31233 0.0
C309 C 0.99392 0.60443 0.3141 0.0
C310 C 0.95551 0.55549 0.28534 0.0
C311 C 0.95476 0.52026 0.30036 0.0
C312 C 0.95545 0.48855 0.2782 0.0
C313 C 0.9571 0.49298 0.23973 0.0
C314 C 0.9575 0.52897 0.22373 0.0
C315 C 0.95646 0.56051 0.24712 0.0
H316 H 0.2466 0.17891 0.14109 0.0
H317 H 0.2033 0.07899 0.18606 0.0
H318 H 0.26265 0.0408 0.16036 0.0
H319 H 0.2828 0.13655 0.0551 0.0
H320 H 0.32587 0.16232 0.0526 0.0
H321 H 0.28087 0.18229 0.07592 0.0
H322 H 0.32221 0.19103 0.13527 0.0
H323 H 0.36733 0.17112 0.11212 0.0
H324 H 0.35247 0.1513 0.15504 0.0
H325 H 0.3269 1.01298 0.12955 0.0
H326 H 0.39037 0.99764 0.09523 0.0
H327 H 0.39066 0.11479 0.0669 0.0
C328 C 0.24923 0.14898 0.1454 0.0
C329 C 0.21987 0.13227 0.16606 0.0
C330 C 0.22539 0.0929 0.1712 0.0
C331 C 0.25898 0.0708 0.15637 0.0
C332 C 0.28699 0.08819 0.13607 0.0
C333 C 0.28243 0.12637 0.13045 0.0
C334 C 0.31663 0.13797 0.10698 0.0
C335 C 0.30057 0.15584 0.07048 0.0
C336 C 0.3411 0.16442 0.12865 0.0
C337 C 0.34109 0.10032 0.10023 0.0
C338 C 0.32352 0.07202 0.11748 0.0
C339 C 0.34081 0.03492 0.11586 0.0
C340 C 0.37698 0.02649 0.09626 0.0
C341 C 0.39562 0.05489 0.07813 0.0
C342 C 0.37712 0.09233 0.08013 0.0
H343 H 0.30159 0.95445 0.66174 0.0
H344 H 0.29184 0.8362 0.64459 0.0
H345 H 0.22855 0.85193 0.61131 0.0
H346 H 0.19289 0.97932 0.67801 0.0
H347 H 0.191 0.02397 0.65516 0.0
H348 H 0.2367 1.00421 0.67756 0.0
H349 H 0.27574 1.0095 0.61639 0.0
H350 H 0.23011 0.02903 0.59374 0.0
H351 H 0.25892 0.98789 0.57504 0.0
H352 H 0.16933 0.87866 0.57666 0.0
H353 H 0.11112 0.91537 0.54835 0.0
H354 H 0.15171 1.01767 0.59099 0.0
C355 C 0.28599 0.9319 0.6512 0.0
C356 C 0.30297 0.89396 0.65486 0.0
C357 C 0.28093 0.86547 0.64096 0.0
C358 C 0.24451 0.87408 0.62221 0.0
C359 C 0.22939 0.91143 0.61806 0.0
C360 C 0.24874 0.94002 0.63267 0.0
C361 C 0.22441 0.97774 0.6248 0.0
C362 C 0.21042 0.99748 0.66105 0.0
C363 C 0.24876 1.0025 0.60108 0.0
C364 C 0.18887 0.96561 0.60316 0.0
C365 C 0.19298 0.92715 0.59947 0.0
C366 C 0.16549 0.90879 0.57965 0.0
C367 C 0.13252 0.93007 0.56342 0.0
C368 C 0.12654 0.96954 0.56732 0.0
C369 C 0.15524 0.98758 0.58762 0.0
H370 H 0.69454 0.48169 0.02461 0.0
H371 H 0.69528 0.45882 0.90674 0.0
H372 H 0.76841 0.46247 0.90477 0.0
H373 H 0.76533 0.54907 0.02136 0.0
H374 H 0.78977 0.53479 0.06433 0.0
H375 H 0.73773 0.52834 0.0572 0.0
H376 H 0.75386 0.45765 0.0714 0.0
H377 H 0.80599 0.46391 0.07859 0.0
H378 H 0.79253 0.43008 0.04534 0.0
H379 H 0.84029 0.46969 0.91474 0.0
H380 H 0.90748 0.48218 0.93574 0.0
H381 H 0.86123 0.50213 0.04718 0.0
C382 C 0.71034 0.47721 0.99856 0.0
C383 C 0.68947 0.47019 0.96577 0.0
C384 C 0.71082 0.46465 0.93204 0.0
C385 C 0.75232 0.46646 0.93069 0.0
C386 C 0.77203 0.47391 0.9633 0.0
C387 C 0.75191 0.47932 0.99662 0.0
C388 C 0.78036 0.48841 0.02719 0.0
C389 C 0.76752 0.52748 0.04347 0.0
C390 C 0.78336 0.45821 0.05741 0.0
C391 C 0.81939 0.48751 1.0057 0.0
C392 C 0.81384 0.47875 0.96898 0.0
C393 C 0.84513 0.47651 0.94345 0.0
C394 C 0.8832 0.48366 0.95568 0.0
C395 C 0.88967 0.49319 0.99309 0.0
C396 C 0.85726 0.49493 1.01841 0.0
H397 H 0.84625 0.52416 0.51853 0.0
H398 H 0.83978 0.64379 0.5002 0.0
H399 H 0.76593 0.64924 0.50565 0.0
H400 H 0.76344 0.50853 0.46647 0.0
H401 H 0.74498 0.47454 0.49668 0.0
H402 H 0.79772 0.4802 0.4963 0.0
H403 H 0.79607 0.49284 0.56689 0.0
H404 H 0.74337 0.48661 0.56765 0.0
H405 H 0.75995 0.52908 0.58549 0.0
H406 H 0.69345 0.64034 0.50243 0.0
H407 H 0.6259 0.61884 0.50013 0.0
H408 H 0.67831 0.5058 0.52504 0.0
C409 C 0.82923 0.55158 0.51682 0.0
C410 C 0.84861 0.58362 0.50945 0.0
C411 C 0.82553 0.61904 0.50668 0.0
C412 C 0.78356 0.62237 0.50944 0.0
C413 C 0.76523 0.59012 0.51557 0.0
C414 C 0.78726 0.55551 0.52013 0.0
C415 C 0.75989 0.5251 0.52493 0.0
C416 C 0.76694 0.49535 0.49426 0.0
C417 C 0.76513 0.50737 0.56354 0.0
C418 C 0.71915 0.54786 0.52097 0.0
C419 C 0.72298 0.58528 0.5154 0.0
C420 C 0.68992 0.6113 0.50767 0.0
C421 C 0.65181 0.59883 0.5061 0.0
C422 C 0.64715 0.56085 0.51275 0.0
C423 C 0.68118 0.53513 0.52051 0.0
H424 H 0.09778 0.28094 0.19367 0.0
H425 H 0.11728 0.20611 0.09949 0.0
H426 H 0.09346 0.25772 0.05757 0.0
H427 H 1.00542 0.33481 0.15655 0.0
H428 H 0.01762 0.37868 0.17504 0.0
H429 H 0.03485 0.33553 0.19829 0.0
H430 H 0.10814 0.35174 0.19458 0.0
H431 H 0.09114 0.39478 0.17109 0.0
H432 H 0.12905 0.36169 0.15021 0.0
H433 H 0.07235 0.3184 0.02462 0.0
H434 H 0.04994 0.38286 1.00383 0.0
H435 H 0.04006 0.41925 0.11829 0.0
C436 C 0.09638 0.27528 0.16431 0.0
C437 C 0.11014 0.2392 0.15009 0.0
C438 C 0.10786 0.23339 0.11129 0.0
C439 C 0.09415 0.26261 0.0871 0.0
C440 C 0.08205 0.29791 0.10176 0.0
C441 C 0.08241 0.30437 0.13949 0.0
C442 C 0.06796 0.34531 0.14766 0.0
C443 C 0.02915 0.34878 0.17075 0.0
C444 C 0.10105 0.36451 0.16703 0.0
C445 C 0.05997 0.36072 0.10871 0.0
C446 C 0.06851 0.33284 0.08268 0.0
C447 C 0.06512 0.34037 0.04482 0.0
C448 C 0.05246 0.37719 0.0332 0.0
C449 C 0.04284 0.40632 0.05922 0.0
C450 C 0.04666 0.39767 0.09756 0.0
H451 H 0.54706 0.38677 0.94177 0.0
H452 H 0.59891 0.40246 0.05001 0.0
H453 H 0.57933 0.34106 0.06957 0.0
H454 H 0.46127 0.33829 0.9736 0.0
H455 H 0.46485 0.30804 0.93365 0.0
H456 H 0.47875 0.35485 0.93013 0.0
H457 H 0.54892 0.32827 0.90539 0.0
H458 H 0.53547 0.28148 0.90901 0.0
H459 H 0.57976 0.29387 0.93227 0.0
H460 H 0.56072 0.27543 0.0744 0.0
H461 H 0.54522 0.21062 0.06428 0.0
H462 H 0.50352 0.23971 0.95341 0.0
C463 C 0.553 0.37816 0.97012 0.0
C464 C 0.57381 0.39983 0.99467 0.0
C465 C 0.58276 0.38643 0.03087 0.0
C466 C 0.57153 0.35177 0.04224 0.0
C467 C 0.55121 0.33114 1.01711 0.0
C468 C 0.54183 0.34403 0.98186 0.0
C469 C 0.52287 0.31547 0.95897 0.0
C470 C 0.47934 0.33004 0.94848 0.0
C471 C 0.54829 0.30411 0.92439 0.0
C472 C 0.52412 0.2838 0.98643 0.0
C473 C 0.54021 0.2935 1.01994 0.0
C474 C 0.54745 0.26779 0.04857 0.0
C475 C 0.53871 0.23112 0.04254 0.0
C476 C 0.52295 0.22059 1.00818 0.0
C477 C 0.51474 0.24744 0.98013 0.0
H478 H 0.98021 0.65515 0.44382 0.0
H479 H 0.97091 0.64048 0.56244 0.0
H480 H 0.99452 0.70251 0.57222 0.0
H481 H 0.06953 0.71015 0.44484 0.0
H482 H 0.04888 0.73913 0.40725 0.0
H483 H 0.03903 0.69098 0.41009 0.0
H484 H 0.96247 0.71226 0.40763 0.0
H485 H 0.97187 0.76035 0.40528 0.0
H486 H 0.94031 0.74532 0.44142 0.0
H487 H 1.00816 0.76906 0.56856 0.0
H488 H 1.01136 0.83529 0.55195 0.0
H489 H 0.01249 0.80625 0.43564 0.0
C490 C 0.98491 0.66415 0.47193 0.0
C491 C 0.97452 0.64273 0.50246 0.0
C492 C 0.97912 0.65636 0.53876 0.0
C493 C 0.99267 0.69141 0.54451 0.0
C494 C 1.00161 0.71224 0.51367 0.0
C495 C 0.99824 0.69895 0.47808 0.0
C496 C 1.00488 0.72837 0.44953 0.0
C497 C 0.04285 0.71644 0.42658 0.0
C498 C 0.96767 0.73708 0.42453 0.0
C499 C 1.01078 0.76096 0.47459 0.0
C500 C 1.00943 0.75088 0.5115 0.0
C501 C 1.01025 0.77703 0.53984 0.0
C502 C 0.01192 0.81447 0.5302 0.0
C503 C 0.01267 0.82528 0.49263 0.0
C504 C 0.01289 0.79822 0.46451 0.0
H505 H 0.41532 0.80855 0.6046 0.0
H506 H 0.43797 0.77697 0.71937 0.0
H507 H 0.4679 0.71465 0.6991 0.0
H508 H 0.38502 0.72073 0.57602 0.0
H509 H 0.40785 0.72111 0.53089 0.0
H510 H 0.39102 0.76457 0.55382 0.0
H511 H 0.46224 0.78538 0.54756 0.0
H512 H 0.47927 0.74201 0.52448 0.0
H513 H 0.50503 0.75569 0.56525 0.0
H514 H 0.49241 0.65422 0.66706 0.0
H515 H 0.51084 0.60067 0.6258 0.0
H516 H 0.47067 0.66896 0.53093 0.0
C517 C 0.42657 0.7887 0.62565 0.0
C518 C 0.42426 0.79849 0.66389 0.0
C519 C 0.43996 0.77118 0.69 0.0
C520 C 0.45677 0.7353 0.67873 0.0
C521 C 0.4578 0.72657 0.64109 0.0
C522 C 0.44324 0.75248 0.61487 0.0
C523 C 0.44688 0.73534 0.57621 0.0
C524 C 0.40521 0.73545 0.55818 0.0
C525 C 0.47503 0.75583 0.55194 0.0
C526 C 0.46545 0.69564 0.58484 0.0
C527 C 0.47157 0.69139 0.62251 0.0
C528 C 0.48785 0.65736 0.63753 0.0
C529 C 0.49822 0.62693 0.61367 0.0
C530 C 0.49235 0.63019 0.57482 0.0
C531 C 0.47567 0.6653 0.56035 0.0
H532 H 0.89773 0.945 0.79469 0.0
H533 H 0.91694 0.82714 0.7661 0.0
H534 H 0.94283 0.84347 0.70495 0.0
H535 H 0.86485 0.97896 0.70485 0.0
H536 H 0.89014 0.02053 0.70713 0.0
H537 H 0.8738 0.99983 0.74903 0.0
H538 H 0.94633 0.99516 0.77491 0.0
H539 H 0.96288 1.01598 0.73314 0.0
H540 H 0.9871 0.97129 0.74837 0.0
H541 H 0.96367 0.87262 0.64539 0.0
H542 H 0.9824 0.91148 0.59375 0.0
H543 H 0.95226 1.01145 0.66013 0.0
C544 C 0.90735 0.92255 0.7756 0.0
C545 C 0.9051 0.88454 0.78561 0.0
C546 C 0.91862 0.85629 0.75965 0.0
C547 C 0.93317 0.86537 0.7246 0.0
C548 C 0.93454 0.90296 0.7156 0.0
C549 C 0.92238 0.93113 0.74048 0.0
C550 C 0.92742 0.96931 0.72386 0.0
C551 C 0.88662 0.99359 0.72105 0.0
C552 C 0.95774 0.9891 0.74642 0.0
C553 C 0.94399 0.95826 0.68561 0.0
C554 C 0.94757 0.91979 0.6815 0.0
C555 C 0.9612 0.90272 0.64851 0.0
C556 C 0.97171 0.92525 0.61913 0.0
C557 C 0.96905 0.96482 0.62246 0.0
C558 C 0.95491 0.9814 0.65646 0.0
H559 H 0.57946 0.16856 0.27182 0.0
H560 H 0.70259 0.1146 0.27191 0.0
H561 H 0.68777 0.07753 0.21796 0.0
H562 H 0.53033 0.09123 0.24083 0.0
H563 H 0.49596 0.11756 0.20955 0.0
H564 H 0.51494 0.14016 0.24935 0.0
H565 H 0.54156 0.18979 0.20707 0.0
H566 H 0.52227 0.16754 0.16717 0.0
H567 H 0.57463 0.17483 0.16921 0.0
H568 H 0.65884 0.04101 0.16747 0.0
H569 H 0.62077 1.01632 0.11598 0.0
H570 H 0.51927 0.09881 0.13998 0.0
C571 C 0.6035 0.14931 0.26035 0.0
C572 C 0.64189 0.14371 0.27797 0.0
C573 C 0.67229 0.11841 0.26096 0.0
C574 C 0.66435 0.09726 0.22973 0.0
C575 C 0.62608 0.10223 0.21421 0.0
C576 C 0.59642 0.12844 0.22807 0.0
C577 C 0.55851 0.12923 0.20432 0.0
C578 C 0.52282 0.11893 0.2274 0.0
C579 C 0.54866 0.16764 0.18585 0.0
C580 C 0.57147 0.09893 0.17568 0.0
C581 C 0.61044 0.08338 0.18247 0.0
C582 C 0.62854 0.05343 0.16148 0.0
C583 C 0.60662 0.03938 0.1324 0.0
C584 C 0.56725 0.05568 0.12374 0.0
C585 C 0.54951 0.086 0.14573 0.0
H586 H 0.41676 0.55318 0.16233 0.0
H587 H 0.46923 0.65276 0.12764 0.0
H588 H 0.49793 0.65797 0.18959 0.0
H589 H 0.38223 0.5939 0.24742 0.0
H590 H 0.38901 0.5503 0.27237 0.0
H591 H 0.37853 0.55041 0.22353 0.0
H592 H 0.44312 0.5046 0.21238 0.0
H593 H 0.45378 0.50433 0.26123 0.0
H594 H 0.49087 0.51675 0.22876 0.0
H595 H 0.52064 0.65241 0.25672 0.0
H596 H 0.53066 0.63923 0.32317 0.0
H597 H 0.44883 0.55378 0.31513 0.0
C598 C 0.4341 0.57627 0.16739 0.0
C599 C 0.44093 0.60207 0.13933 0.0
C600 C 0.4645 0.63151 0.14777 0.0
C601 C 0.48065 0.63512 0.18321 0.0
C602 C 0.4721 0.60982 0.2103 0.0
C603 C 0.44883 0.58137 0.20287 0.0
C604 C 0.44025 0.56032 0.23748 0.0
C605 C 0.39482 0.56398 0.24568 0.0
C606 C 0.45808 0.51906 0.23479 0.0
C607 C 0.46251 0.58131 0.26552 0.0
C608 C 0.48147 0.6092 0.24936 0.0
C609 C 0.50546 0.63093 0.26981 0.0
C610 C 0.51055 0.62348 0.30776 0.0
C611 C 0.49083 0.59519 0.32503 0.0
C612 C 0.46567 0.57475 0.30333 0.0
H613 H 0.11508 0.4231 0.67083 0.0
H614 H 0.11168 0.53703 0.63115 0.0
H615 H 0.09176 0.56063 0.69391 0.0
H616 H 0.03068 0.43729 0.73224 0.0
H617 H 0.05361 0.40576 0.7669 0.0
H618 H 0.06666 0.39843 0.71891 0.0
H619 H 0.14206 0.39969 0.73492 0.0
H620 H 0.12929 0.40693 0.78297 0.0
H621 H 0.1576 0.43937 0.7593 0.0
H622 H 0.07081 0.57089 0.76064 0.0
H623 H 0.05435 0.5678 0.82695 0.0
H624 H 0.07538 0.44649 0.82254 0.0
C625 C 0.10971 0.45304 0.67532 0.0
C626 C 0.11416 0.47844 0.64637 0.0
C627 C 0.10805 0.51735 0.6532 0.0
C628 C 0.0967 0.53086 0.68857 0.0
C629 C 0.09221 0.50494 0.71652 0.0
C630 C 0.09888 0.46686 0.71029 0.0
C631 C 0.09341 0.44474 0.74504 0.0
C632 C 0.05904 0.42012 0.74049 0.0
C633 C 0.13295 0.42132 0.75621 0.0
C634 C 0.08229 0.47632 0.77195 0.0
C635 C 0.08156 0.51081 0.75499 0.0
C636 C 0.07167 0.54406 0.77428 0.0
C637 C 0.06265 0.54197 0.812 0.0
C638 C 0.06397 0.50686 0.83009 0.0
C639 C 0.07375 0.47371 0.80956 0.0
H640 H 0.76951 0.86476 0.9083 0.0
H641 H 0.81587 0.96379 0.86474 0.0
H642 H 0.75696 1.00296 0.89015 0.0
H643 H 0.66421 0.89465 0.89323 0.0
H644 H 0.6483 0.87473 0.93572 0.0
H645 H 0.69334 0.85419 0.91287 0.0
H646 H 0.73421 0.86143 0.97282 0.0
H647 H 0.6893 0.88203 0.99583 0.0
H648 H 0.73311 0.90685 0.99416 0.0
H649 H 0.6929 0.03187 0.92103 0.0
H650 H 0.62933 0.04805 0.95505 0.0
H651 H 0.62583 0.9308 0.98133 0.0
C652 C 0.76762 0.8947 0.90423 0.0
C653 C 0.79774 0.91091 0.88414 0.0
C654 C 0.7932 0.9503 0.87923 0.0
C655 C 0.75987 0.97294 0.89389 0.0
C656 C 0.73111 0.95603 0.91371 0.0
C657 C 0.73467 0.91779 0.91896 0.0
C658 C 0.69984 0.90669 0.94186 0.0
C659 C 0.67495 0.88105 0.91958 0.0
C660 C 0.71503 0.88816 0.97833 0.0
C661 C 0.67616 0.94467 0.94876 0.0
C662 C 0.69466 0.97273 0.93212 0.0
C663 C 0.67825 1.01008 0.93421 0.0
C664 C 0.64203 1.01901 0.95364 0.0
C665 C 0.62243 0.99081 0.97109 0.0
C666 C 0.64005 0.95312 0.96859 0.0
H667 H 0.75799 0.18241 0.40656 0.0
H668 H 0.69444 0.08476 0.39204 0.0
H669 H 0.74793 0.04657 0.42633 0.0
H670 H 0.85625 0.13646 0.39502 0.0
H671 H 0.87948 0.16267 0.42994 0.0
H672 H 0.83501 0.18341 0.40638 0.0
H673 H 0.79898 0.19619 0.46923 0.0
H674 H 0.84346 0.1756 0.49303 0.0
H675 H 0.79584 0.15809 0.50103 0.0
H676 H 0.81058 1.01747 0.45679 0.0
H677 H 0.87728 0.99973 0.48472 0.0
H678 H 0.90041 0.11591 0.48364 0.0
C679 C 0.75492 0.15317 0.41127 0.0
C680 C 0.72192 0.13663 0.39621 0.0
C681 C 0.71955 0.09807 0.40264 0.0
C682 C 0.74973 0.07613 0.42234 0.0
C683 C 0.78218 0.09304 0.43599 0.0
C684 C 0.78488 0.13074 0.43116 0.0
C685 C 0.82383 0.14142 0.44783 0.0
C686 C 0.85019 0.1569 0.41801 0.0
C687 C 0.81499 0.16949 0.47968 0.0
C688 C 0.84285 0.10369 0.46209 0.0
C689 C 0.81814 0.07626 0.45487 0.0
C690 C 0.82989 0.03879 0.46311 0.0
C691 C 0.86793 0.02897 0.47891 0.0
C692 C 0.8939 0.05642 0.48681 0.0
C693 C 0.88088 0.09441 0.47866 0.0
H694 H 0.29158 0.61727 0.02746 0.0
H695 H 0.33836 0.52858 0.10281 0.0
H696 H 0.27078 0.50904 0.10864 0.0
H697 H 0.19589 0.64025 0.06745 0.0
H698 H 0.16883 0.64559 0.02429 0.0
H699 H 0.22082 0.65405 0.02633 0.0
H700 H 0.23869 0.60545 0.97424 0.0
H701 H 0.18662 0.59734 0.97155 0.0
H702 H 0.22497 0.55871 0.97928 0.0
H703 H 0.19742 0.50246 0.11103 0.0
H704 H 0.12479 0.50037 0.09907 0.0
H705 H 0.12727 0.58627 1.01546 0.0
C706 C 0.28805 0.5933 0.04466 0.0
C707 C 0.3205 0.57538 0.0656 0.0
C708 C 0.31393 0.54398 0.08765 0.0
C709 C 0.27562 0.5324 0.09103 0.0
C710 C 0.24419 0.55157 0.07121 0.0
C711 C 0.25014 0.5805 0.0475 0.0
C712 C 0.21144 0.59478 0.0277 0.0
C713 C 0.1985 0.63612 0.03702 0.0
C714 C 0.21569 0.58869 0.9857 0.0
C715 C 0.18289 0.56965 0.04446 0.0
C716 C 0.20229 0.5455 0.07011 0.0
C717 C 0.18194 0.52082 0.09063 0.0
C718 C 0.14079 0.52004 0.08395 0.0
C719 C 0.12094 0.54314 0.05647 0.0
C720 C 0.1421 0.56835 0.0366 0.0
H721 H 0.24635 0.45592 0.60105 0.0
H722 H 0.19777 0.46277 0.48968 0.0
H723 H 0.26413 0.47586 0.46574 0.0
H724 H 0.30791 0.52957 0.59334 0.0
H725 H 0.34851 0.50662 0.6207 0.0
H726 H 0.29771 0.4966 0.62863 0.0
H727 H 0.31994 0.42594 0.6184 0.0
H728 H 0.37084 0.43574 0.61044 0.0
H729 H 0.34537 0.41062 0.57617 0.0
H730 H 0.33427 0.49206 0.45491 0.0
H731 H 0.40436 0.50709 0.45704 0.0
H732 H 0.40773 0.48734 0.57551 0.0
C733 C 0.24972 0.46025 0.57162 0.0
C734 C 0.21703 0.45873 0.54712 0.0
C735 C 0.2226 0.46383 0.50876 0.0
C736 C 0.26006 0.47132 0.49501 0.0
C737 C 0.29158 0.47305 0.52001 0.0
C738 C 0.2869 0.46732 0.55745 0.0
C739 C 0.32545 0.47082 0.57849 0.0
C740 C 0.31952 0.50281 0.60696 0.0
C741 C 0.34133 0.43355 0.59696 0.0
C742 C 0.35246 0.48009 0.54711 0.0
C743 C 0.33232 0.4813 0.51362 0.0
C744 C 0.35046 0.49084 0.48089 0.0
C745 C 0.39022 0.49945 0.48243 0.0
C746 C 0.41148 0.49821 0.51643 0.0
C747 C 0.39236 0.48809 0.54909 0.0
H748 H 0.91665 0.76036 0.8581 0.0
H749 H 0.89837 0.83557 0.95208 0.0
H750 H 0.92058 0.78363 0.99421 0.0
H751 H 0.88261 0.68081 0.90137 0.0
H752 H 0.91981 0.64686 0.88071 0.0
H753 H 0.90418 0.69015 0.85713 0.0
H754 H 0.97816 0.70447 0.85384 0.0
H755 H 0.99404 0.66105 0.87719 0.0
H756 H 1.00741 0.70449 0.89576 0.0
H757 H 0.94029 0.72264 0.02731 0.0
H758 H 0.96105 0.65789 0.04816 0.0
H759 H 0.97 0.62131 0.9337 0.0
C760 C 0.918 0.76602 0.88747 0.0
C761 C 0.90511 0.80232 0.90156 0.0
C762 C 0.9072 0.80813 0.94038 0.0
C763 C 0.91999 0.77872 0.96468 0.0
C764 C 0.93128 0.74322 0.9501 0.0
C765 C 0.93098 0.73674 0.91238 0.0
C766 C 0.94433 0.69559 0.90428 0.0
C767 C 0.91072 0.67728 0.88471 0.0
C768 C 0.9833 0.69115 0.88141 0.0
C769 C 0.95163 0.68009 0.94327 0.0
C770 C 0.94376 0.7081 0.96926 0.0
C771 C 0.94693 0.70055 1.00713 0.0
C772 C 0.95864 0.66356 1.01878 0.0
C773 C 0.96747 0.63426 0.99279 0.0
C774 C 0.96388 0.64296 0.95444 0.0
H775 H 0.37212 0.69 0.03648 0.0
H776 H 0.4801 0.62559 0.99572 0.0
H777 H 0.5104 0.68406 0.98414 0.0
H778 H 0.37811 0.78064 0.98159 0.0
H779 H 0.36142 0.80757 0.02191 0.0
H780 H 0.34338 0.763 1.01342 0.0
H781 H 0.36776 0.74157 0.07878 0.0
H782 H 0.38755 0.7851 0.08707 0.0
H783 H 0.42008 0.74173 0.09077 0.0
H784 H 0.53394 0.74813 0.99036 0.0
H785 H 0.54678 0.81163 1.00933 0.0
H786 H 0.42645 0.83024 0.05592 0.0
C787 C 0.40089 0.68848 0.02247 0.0
C788 C 0.42336 0.6536 1.01584 0.0
C789 C 0.46202 0.65224 0.99972 0.0
C790 C 0.47956 0.68533 0.99353 0.0
C791 C 0.45805 0.71928 1.00391 0.0
C792 C 0.41921 0.72105 1.01758 0.0
C793 C 0.40539 0.75918 0.03367 0.0
C794 C 0.36998 0.77876 1.0113 0.0
C795 C 0.3946 0.7567 0.075 0.0
C796 C 0.44293 0.77812 0.02836 0.0
C797 C 0.47267 0.7552 1.01035 0.0
C798 C 0.5106 0.76647 1.00402 0.0
C799 C 0.51785 0.80242 1.01558 0.0
C800 C 0.48763 0.82638 0.03412 0.0
C801 C 0.44999 0.81342 0.04094 0.0
H802 H 0.14923 0.34594 0.58449 0.0
H803 H 0.05056 0.40876 0.52627 0.0
H804 H 0.01416 0.35234 0.52452 0.0
H805 H 0.14438 0.25484 0.54028 0.0
H806 H 0.15555 0.2299 0.58293 0.0
H807 H 0.17485 0.27393 0.57512 0.0
H808 H 0.14171 0.29922 0.63637 0.0
H809 H 0.12136 0.25565 0.64386 0.0
H810 H 0.08832 0.29886 0.64272 0.0
H811 H 0.9877 0.28948 0.53247 0.0
H812 H 0.97524 0.22433 0.54523 0.0
H813 H 0.08958 0.2054 0.60292 0.0
C814 C 0.12064 0.34723 0.57014 0.0
C815 C 0.10302 0.3809 0.55434 0.0
C816 C 0.06476 0.38259 0.53742 0.0
C817 C 0.04386 0.35091 0.5367 0.0
C818 C 0.06153 0.31827 0.55365 0.0
C819 C 0.09919 0.31623 0.56985 0.0
C820 C 0.11054 0.27886 0.58829 0.0
C821 C 0.14857 0.25816 0.57058 0.0
C822 C 0.11578 0.28344 0.63029 0.0
C823 C 0.07365 0.2599 0.57957 0.0
C824 C 0.04561 0.28302 0.5597 0.0
C825 C 1.0094 0.27117 0.54809 0.0
C826 C 1.00236 0.23427 0.55588 0.0
C827 C 0.03141 0.2098 0.57515 0.0
C828 C 0.06691 0.22333 0.58795 0.0
H829 H 0.62699 0.24299 0.42926 0.0
H830 H 0.62651 0.27726 0.31411 0.0
H831 H 0.60318 0.34208 0.33302 0.0
H832 H 0.53914 0.305 0.45815 0.0
H833 H 0.5599 0.31462 0.50272 0.0
H834 H 0.57476 0.27055 0.4801 0.0
H835 H 0.6495 0.28227 0.48491 0.0
H836 H 0.63487 0.32643 0.50743 0.0
H837 H 0.66509 0.32467 0.46607 0.0
H838 H 0.58234 0.40413 0.36464 0.0
H839 H 0.56372 0.45789 0.40568 0.0
H840 H 0.5787 0.38472 0.5013 0.0
C841 C 0.62214 0.26402 0.40786 0.0
C842 C 0.62879 0.25445 0.36991 0.0
C843 C 0.62123 0.28322 0.34317 0.0
C844 C 0.60823 0.32037 0.35374 0.0
C845 C 0.60271 0.32875 0.39128 0.0
C846 C 0.60925 0.30135 0.41795 0.0
C847 C 0.60159 0.31795 0.45649 0.0
C848 C 0.56678 0.30102 0.47548 0.0
C849 C 0.64005 0.3125 0.48012 0.0
C850 C 0.58995 0.35907 0.44741 0.0
C851 C 0.59079 0.36456 0.40956 0.0
C852 C 0.58153 0.40002 0.39427 0.0
C853 C 0.57099 0.43055 0.41802 0.0
C854 C 0.56964 0.42597 0.45703 0.0
C855 C 0.57939 0.38946 0.47175 0.0
loop_
_geom_bond_atom_site_label_1
_geom_bond_atom_site_label_2
_geom_bond_distance
_geom_bond_site_symmetry_2
_ccdc_geom_bond_type
H0 C3 0.931 . S
H1 C6 0.928 . S
H2 C8 0.930 . S
C3 H0 0.931 . S
C3 C4 1.413 . S
C3 C5 1.360 . S
C4 C3 1.413 . S
C4 C8 1.429 . S
C5 C3 1.360 . S
C5 C6 1.372 . S
C6 H1 0.928 . S
C6 C5 1.372 . S
C6 C7 1.404 . S
C7 C6 1.404 . S
C7 C8 1.391 . S
C8 H2 0.930 . S
C8 C4 1.429 . S
C8 C7 1.391 . S
H9 C12 0.931 . S
H10 C15 0.928 . S
H11 C17 0.930 . S
C12 H9 0.931 . S
C12 C13 1.413 . S
C12 C14 1.360 . S
C13 C12 1.413 . S
C13 C17 1.429 . S
C14 C12 1.360 . S
C14 C15 1.372 . S
C15 H10 0.928 . S
C15 C14 1.372 . S
C15 C16 1.404 . S
C16 C15 1.404 . S
C16 C17 1.391 . S
C17 H11 0.930 . S
C17 C13 1.429 . S
C17 C16 1.391 . S
H18 C21 0.931 . S
H19 C24 0.928 . S
H20 C26 0.930 . S
C21 H18 0.931 . S
C21 C22 1.413 . S
C21 C23 1.360 . S
C22 C21 1.413 . S
C22 C26 1.429 . S
C23 C21 1.360 . S
C23 C24 1.372 . S
C24 H19 0.928 . S
C24 C23 1.372 . S
C24 C25 1.404 . S
C25 C24 1.404 . S
C25 C26 1.391 . S
C26 H20 0.930 . S
C26 C22 1.429 . S
C26 C25 1.391 . S
H27 C30 0.931 . S
H28 C33 0.928 . S
H29 C35 0.930 . S
C30 H27 0.931 . S
C30 C31 1.413 . S
C30 C32 1.360 . S
C31 C30 1.413 . S
C31 C35 1.429 . S
C32 C30 1.360 . S
C32 C33 1.372 . S
C33 H28 0.928 . S
C33 C32 1.372 . S
C33 C34 1.404 . S
C34 C33 1.404 . S
C34 C35 1.391 . S
C35 H29 0.930 . S
C35 C31 1.429 . S
C35 C34 1.391 . S
H36 C39 0.931 . S
H37 C42 0.928 . S
H38 C44 0.930 . S
C39 H36 0.931 . S
C39 C40 1.413 . S
C39 C41 1.360 . S
C40 C39 1.413 . S
C40 C44 1.429 . S
C41 C39 1.360 . S
C41 C42 1.372 . S
C42 H37 0.928 . S
C42 C41 1.372 . S
C42 C43 1.404 . S
C43 C42 1.404 . S
C43 C44 1.391 . S
C44 H38 0.930 . S
C44 C40 1.429 . S
C44 C43 1.391 . S
H45 C48 0.931 . S
H46 C51 0.928 . S
H47 C53 0.930 . S
C48 H45 0.931 . S
C48 C49 1.413 . S
C48 C50 1.360 . S
C49 C48 1.413 . S
C49 C53 1.429 . S
C50 C48 1.360 . S
C50 C51 1.372 . S
C51 H46 0.928 . S
C51 C50 1.372 . S
C51 C52 1.404 . S
C52 C51 1.404 . S
C52 C53 1.391 . S
C53 H47 0.930 . S
C53 C49 1.429 . S
C53 C52 1.391 . S
H54 C57 0.931 . S
H55 C60 0.928 . S
H56 C62 0.930 . S
C57 H54 0.931 . S
C57 C58 1.413 . S
C57 C59 1.360 . S
C58 C57 1.413 . S
C58 C62 1.429 . S
C59 C57 1.360 . S
C59 C60 1.372 . S
C60 H55 0.928 . S
C60 C59 1.372 . S
C60 C61 1.404 . S
C61 C60 1.404 . S
C61 C62 1.391 . S
C62 H56 0.930 . S
C62 C58 1.429 . S
C62 C61 1.391 . S
H63 C66 0.931 . S
H64 C69 0.928 . S
H65 C71 0.930 . S
C66 H63 0.931 . S
C66 C67 1.413 . S
C66 C68 1.360 . S
C67 C66 1.413 . S
C67 C71 1.429 . S
C68 C66 1.360 . S
C68 C69 1.372 . S
C69 H64 0.928 . S
C69 C68 1.372 . S
C69 C70 1.404 . S
C70 C69 1.404 . S
C70 C71 1.391 . S
C71 H65 0.930 . S
C71 C67 1.429 . S
C71 C70 1.391 . S
C72 O88 1.251 . S
C72 O90 1.254 1_545 S
N73 C74 1.333 . S
N73 C78 1.307 . S
N73 Zn79 2.020 . S
C74 N73 1.333 . S
C74 C75 1.379 . S
C74 H92 0.952 . S
C75 C74 1.379 . S
C75 C76 1.390 . S
C75 H102 0.949 . S
C76 C75 1.390 . S
C76 C77 1.357 . S
C77 C76 1.357 . S
C77 C78 1.370 . S
C77 H103 0.950 . S
C78 N73 1.307 . S
C78 C77 1.370 . S
C78 H96 0.948 1_455 S
Zn79 N73 2.020 . S
Zn79 O88 2.039 . S
Zn79 O94 2.034 . S
Zn79 O98 2.025 1_455 S
Zn79 O100 2.024 1_455 S
C80 O99 1.246 1_545 S
C80 O100 1.249 . S
N81 C82 1.307 . S
N81 C83 1.333 . S
N81 Zn87 2.020 . S
C82 N81 1.307 . S
C82 C86 1.370 . S
C82 H93 0.948 1_655 S
C83 N81 1.333 . S
C83 C84 1.379 . S
C83 H91 0.952 . S
C84 C83 1.379 . S
C84 C85 1.390 . S
C84 H104 0.949 . S
C85 C84 1.390 . S
C85 C86 1.357 . S
C86 C82 1.370 . S
C86 C85 1.357 . S
C86 H105 0.938 1_655 S
Zn87 N81 2.020 . S
Zn87 O90 2.025 1_655 S
Zn87 O95 2.024 1_655 S
Zn87 O97 2.039 . S
Zn87 O99 2.034 . S
O88 C72 1.251 . S
O88 Zn79 2.039 . S
C89 O94 1.246 1_565 S
C89 O95 1.249 . S
O90 C72 1.254 1_565 S
O90 Zn87 2.025 1_455 S
H91 C83 0.952 . S
H92 C74 0.952 . S
H93 C82 0.948 1_455 S
O94 Zn79 2.034 . S
O94 C89 1.246 1_545 S
O95 Zn87 2.024 1_455 S
O95 C89 1.249 . S
H96 C78 0.948 1_655 S
O97 Zn87 2.039 . S
O97 C101 1.251 . S
O98 Zn79 2.025 1_655 S
O98 C101 1.254 1_545 S
O99 C80 1.246 1_565 S
O99 Zn87 2.034 . S
O100 Zn79 2.024 1_655 S
O100 C80 1.249 . S
C101 O97 1.251 . S
C101 O98 1.254 1_565 S
H102 C75 0.949 . S
H103 C77 0.950 . S
H104 C84 0.949 . S
H105 C86 0.938 1_455 S
C106 O122 1.251 1_565 S
C106 O124 1.254 . S
N107 C108 1.333 . S
N107 C112 1.307 . S
N107 Zn113 2.020 . S
C108 N107 1.333 . S
C108 C109 1.379 . S
C108 H126 0.952 . S
C109 C108 1.379 . S
C109 C110 1.390 . S
C109 H136 0.949 . S
C110 C109 1.390 . S
C110 C111 1.357 . S
C111 C110 1.357 . S
C111 C112 1.370 . S
C111 H137 0.950 . S
C112 N107 1.307 . S
C112 C111 1.370 . S
C112 H130 0.948 . S
Zn113 N107 2.020 . S
Zn113 O122 2.039 . S
Zn113 O128 2.034 1_556 S
Zn113 O132 2.025 1_556 S
Zn113 O134 2.024 . S
C114 O133 1.246 . S
C114 O134 1.249 1_565 S
N115 C116 1.307 . S
N115 C117 1.333 . S
N115 Zn121 2.020 . S
C116 N115 1.307 . S
C116 C120 1.370 . S
C116 H127 0.948 . S
C117 N115 1.333 . S
C117 C118 1.379 . S
C117 H125 0.952 . S
C118 C117 1.379 . S
C118 C119 1.390 . S
C118 H138 0.949 . S
C119 C118 1.390 . S
C119 C120 1.357 . S
C120 C116 1.370 . S
C120 C119 1.357 . S
C120 H139 0.950 . S
Zn121 N115 2.020 . S
Zn121 O124 2.025 1_554 S
Zn121 O129 2.024 . S
Zn121 O131 2.039 . S
Zn121 O133 2.034 1_554 S
O122 C106 1.251 1_545 S
O122 Zn113 2.039 . S
C123 O128 1.246 . S
C123 O129 1.249 1_545 S
O124 C106 1.254 . S
O124 Zn121 2.025 1_556 S
H125 C117 0.952 . S
H126 C108 0.952 . S
H127 C116 0.948 . S
O128 Zn113 2.034 1_554 S
O128 C123 1.246 . S
O129 Zn121 2.024 . S
O129 C123 1.249 1_565 S
H130 C112 0.948 . S
O131 Zn121 2.039 . S
O131 C135 1.251 1_565 S
O132 Zn113 2.025 1_554 S
O132 C135 1.254 . S
O133 C114 1.246 . S
O133 Zn121 2.034 1_556 S
O134 Zn113 2.024 . S
O134 C114 1.249 1_545 S
C135 O131 1.251 1_545 S
C135 O132 1.254 . S
H136 C109 0.949 . S
H137 C111 0.950 . S
H138 C118 0.949 . S
H139 C120 0.950 . S
C140 O156 1.251 . S
C140 O158 1.254 . S
N141 C142 1.333 . S
N141 C146 1.307 . S
N141 Zn147 2.020 . S
C142 N141 1.333 . S
C142 C143 1.379 . S
C142 H160 0.952 . S
C143 C142 1.379 . S
C143 C144 1.390 . S
C143 H170 0.949 . S
C144 C143 1.390 . S
C144 C145 1.357 . S
C145 C144 1.357 . S
C145 C146 1.370 . S
C145 H171 0.950 . S
C146 N141 1.307 . S
C146 C145 1.370 . S
C146 H164 0.948 . S
Zn147 N141 2.020 . S
Zn147 O156 2.039 . S
Zn147 O162 2.034 . S
Zn147 O166 2.025 . S
Zn147 O168 2.024 . S
C148 O167 1.246 . S
C148 O168 1.249 . S
N149 C150 1.307 . S
N149 C151 1.333 . S
N149 Zn155 2.020 . S
C150 N149 1.307 . S
C150 C154 1.370 . S
C150 H161 0.948 . S
C151 N149 1.333 . S
C151 C152 1.379 . S
C151 H159 0.952 . S
C152 C151 1.379 . S
C152 C153 1.390 . S
C152 H172 0.949 . S
C153 C152 1.390 . S
C153 C154 1.357 . S
C154 C150 1.370 . S
C154 C153 1.357 . S
C154 H173 0.950 . S
Zn155 N149 2.020 . S
Zn155 O158 2.025 . S
Zn155 O163 2.024 . S
Zn155 O165 2.039 . S
Zn155 O167 2.034 . S
O156 C140 1.251 . S
O156 Zn147 2.039 . S
C157 O162 1.246 . S
C157 O163 1.249 . S
O158 C140 1.254 . S
O158 Zn155 2.025 . S
H159 C151 0.952 . S
H160 C142 0.952 . S
H161 C150 0.948 . S
O162 Zn147 2.034 . S
O162 C157 1.246 . S
O163 Zn155 2.024 . S
O163 C157 1.249 . S
H164 C146 0.948 . S
O165 Zn155 2.039 . S
O165 C169 1.251 . S
O166 Zn147 2.025 . S
O166 C169 1.254 . S
O167 C148 1.246 . S
O167 Zn155 2.034 . S
O168 Zn147 2.024 . S
O168 C148 1.249 . S
C169 O165 1.251 . S
C169 O166 1.254 . S
H170 C143 0.949 . S
H171 C145 0.950 . S
H172 C152 0.949 . S
H173 C154 0.950 . S
C174 O190 1.251 1_556 S
C174 O192 1.254 . S
N175 C176 1.333 . S
N175 C180 1.307 . S
N175 Zn181 2.020 . S
C176 N175 1.333 . S
C176 C177 1.379 . S
C176 H194 0.952 . S
C177 C176 1.379 . S
C177 C178 1.390 . S
C177 H204 0.949 . S
C178 C177 1.390 . S
C178 C179 1.357 . S
C179 C178 1.357 . S
C179 C180 1.370 . S
C179 H205 0.950 . S
C180 N175 1.307 . S
C180 C179 1.370 . S
C180 H198 0.948 . S
Zn181 N175 2.020 . S
Zn181 O190 2.039 . S
Zn181 O196 2.034 1_655 S
Zn181 O200 2.025 1_655 S
Zn181 O202 2.024 . S
C182 O201 1.246 . S
C182 O202 1.249 1_556 S
N183 C184 1.307 . S
N183 C185 1.333 . S
N183 Zn189 2.020 . S
C184 N183 1.307 . S
C184 C188 1.370 . S
C184 H195 0.948 . S
C185 N183 1.333 . S
C185 C186 1.379 . S
C185 H193 0.952 . S
C186 C185 1.379 . S
C186 C187 1.390 . S
C186 H206 0.949 . S
C187 C186 1.390 . S
C187 C188 1.357 . S
C188 C184 1.370 . S
C188 C187 1.357 . S
C188 H207 0.950 . S
Zn189 N183 2.020 . S
Zn189 O192 2.025 1_455 S
Zn189 O197 2.024 . S
Zn189 O199 2.039 . S
Zn189 O201 2.034 1_455 S
O190 C174 1.251 1_554 S
O190 Zn181 2.039 . S
C191 O196 1.246 . S
C191 O197 1.249 1_554 S
O192 C174 1.254 . S
O192 Zn189 2.025 1_655 S
H193 C185 0.952 . S
H194 C176 0.952 . S
H195 C184 0.948 . S
O196 Zn181 2.034 1_455 S
O196 C191 1.246 . S
O197 Zn189 2.024 . S
O197 C191 1.249 1_556 S
H198 C180 0.948 . S
O199 Zn189 2.039 . S
O199 C203 1.251 1_556 S
O200 Zn181 2.025 1_455 S
O200 C203 1.254 . S
O201 C182 1.246 . S
O201 Zn189 2.034 1_655 S
O202 Zn181 2.024 . S
O202 C182 1.249 1_554 S
C203 O199 1.251 1_554 S
C203 O200 1.254 . S
H204 C177 0.949 . S
H205 C179 0.950 . S
H206 C186 0.949 . S
H207 C188 0.950 . S
H208 C220 0.930 . S
H209 C222 0.930 . S
H210 C223 0.930 . S
H211 C227 0.945 1_655 S
H212 C227 0.959 1_565 S
H213 C227 0.961 . S
H214 C228 0.960 . S
H215 C228 0.961 . S
H216 C228 0.951 1_545 S
H217 C231 0.929 . S
H218 C232 0.931 . S
H219 C234 0.930 . S
C220 H208 0.930 . S
C220 C221 1.399 . S
C220 C225 1.399 . S
C221 C220 1.399 . S
C221 C222 1.376 . S
C222 H209 0.930 . S
C222 C221 1.376 . S
C222 C223 1.388 . S
C223 H210 0.930 . S
C223 C222 1.388 . S
C223 C224 1.390 . S
C224 C223 1.390 . S
C224 C225 1.394 . S
C224 C230 1.465 . S
C225 C220 1.399 . S
C225 C224 1.394 . S
C225 C226 1.516 . S
C226 C225 1.516 . S
C226 C227 1.502 . S
C226 C228 1.561 1_545 S
C226 C229 1.526 . S
C227 H211 0.945 1_455 S
C227 H212 0.959 1_545 S
C227 H213 0.961 . S
C227 C226 1.502 . S
C228 H214 0.960 . S
C228 H215 0.961 . S
C228 H216 0.951 1_565 S
C228 C226 1.561 1_565 S
C229 C226 1.526 . S
C229 C230 1.396 . S
C229 C234 1.390 . S
C230 C224 1.465 . S
C230 C229 1.396 . S
C230 C231 1.399 . S
C231 H217 0.929 . S
C231 C230 1.399 . S
C231 C232 1.385 . S
C232 H218 0.931 . S
C232 C231 1.385 . S
C232 C233 1.389 . S
C233 C232 1.389 . S
C233 C234 1.387 . S
C234 H219 0.930 . S
C234 C229 1.390 . S
C234 C233 1.387 . S
H235 C247 0.930 . S
H236 C249 0.930 . S
H237 C250 0.930 . S
H238 C254 0.959 1_565 S
H239 C254 0.959 . S
H240 C254 0.961 . S
H241 C255 0.960 . S
H242 C255 0.961 . S
H243 C255 0.959 1_565 S
H244 C258 0.929 . S
H245 C259 0.931 . S
H246 C261 0.930 1_545 S
C247 H235 0.930 . S
C247 C248 1.399 . S
C247 C252 1.399 . S
C248 C247 1.399 . S
C248 C249 1.376 . S
C249 H236 0.930 . S
C249 C248 1.376 . S
C249 C250 1.388 . S
C250 H237 0.930 . S
C250 C249 1.388 . S
C250 C251 1.390 . S
C251 C250 1.390 . S
C251 C252 1.394 . S
C251 C257 1.465 . S
C252 C247 1.399 . S
C252 C251 1.394 . S
C252 C253 1.516 . S
C253 C252 1.516 . S
C253 C254 1.502 1_565 S
C253 C255 1.561 1_565 S
C253 C256 1.526 . S
C254 H238 0.959 1_545 S
C254 H239 0.959 . S
C254 H240 0.961 . S
C254 C253 1.502 1_545 S
C255 H241 0.960 . S
C255 H242 0.961 . S
C255 H243 0.959 1_545 S
C255 C253 1.561 1_545 S
C256 C253 1.526 . S
C256 C257 1.396 . S
C256 C261 1.390 . S
C257 C251 1.465 . S
C257 C256 1.396 . S
C257 C258 1.399 . S
C258 H244 0.929 . S
C258 C257 1.399 . S
C258 C259 1.385 . S
C259 H245 0.931 . S
C259 C258 1.385 . S
C259 C260 1.389 . S
C260 C259 1.389 . S
C260 C261 1.387 . S
C261 H246 0.930 1_565 S
C261 C256 1.390 . S
C261 C260 1.387 . S
H262 C274 0.930 . S
H263 C276 0.930 . S
H264 C277 0.930 . S
H265 C281 0.959 . S
H266 C281 0.959 . S
H267 C281 0.961 . S
H268 C282 0.960 . S
H269 C282 0.961 . S
H270 C282 0.959 . S
H271 C285 0.929 . S
H272 C286 0.931 . S
H273 C288 0.930 . S
C274 H262 0.930 . S
C274 C275 1.399 . S
C274 C279 1.399 . S
C275 C274 1.399 . S
C275 C276 1.376 . S
C276 H263 0.930 . S
C276 C275 1.376 . S
C276 C277 1.388 . S
C277 H264 0.930 . S
C277 C276 1.388 . S
C277 C278 1.390 . S
C278 C277 1.390 . S
C278 C279 1.394 . S
C278 C284 1.465 . S
C279 C274 1.399 . S
C279 C278 1.394 . S
C279 C280 1.516 . S
C280 C279 1.516 . S
C280 C281 1.502 . S
C280 C282 1.561 . S
C280 C283 1.526 . S
C281 H265 0.959 . S
C281 H266 0.959 . S
C281 H267 0.961 . S
C281 C280 1.502 . S
C282 H268 0.960 . S
C282 H269 0.961 . S
C282 H270 0.959 . S
C282 C280 1.561 . S
C283 C280 1.526 . S
C283 C284 1.396 . S
C283 C288 1.390 . S
C284 C278 1.465 . S
C284 C283 1.396 . S
C284 C285 1.399 . S
C285 H271 0.929 . S
C285 C284 1.399 . S
C285 C286 1.385 . S
C286 H272 0.931 . S
C286 C285 1.385 . S
C286 C287 1.389 . S
C287 C286 1.389 . S
C287 C288 1.387 . S
C288 H273 0.930 . S
C288 C283 1.390 . S
C288 C287 1.387 . S
H289 C301 0.930 . S
H290 C303 0.930 . S
H291 C304 0.930 . S
H292 C308 0.959 . S
H293 C308 0.959 . S
H294 C308 0.961 . S
H295 C309 0.960 . S
H296 C309 0.961 . S
H297 C309 0.959 . S
H298 C312 0.929 . S
H299 C313 0.931 . S
H300 C315 0.930 . S
C301 H289 0.930 . S
C301 C302 1.399 . S
C301 C306 1.399 . S
C302 C301 1.399 . S
C302 C303 1.376 . S
C303 H290 0.930 . S
C303 C302 1.376 . S
C303 C304 1.388 . S
C304 H291 0.930 . S
C304 C303 1.388 . S
C304 C305 1.390 . S
C305 C304 1.390 . S
C305 C306 1.394 . S
C305 C311 1.465 . S
C306 C301 1.399 . S
C306 C305 1.394 . S
C306 C307 1.516 . S
C307 C306 1.516 . S
C307 C308 1.502 . S
C307 C309 1.561 . S
C307 C310 1.526 . S
C308 H292 0.959 . S
C308 H293 0.959 . S
C308 H294 0.961 . S
C308 C307 1.502 . S
C309 H295 0.960 . S
C309 H296 0.961 . S
C309 H297 0.959 . S
C309 C307 1.561 . S
C310 C307 1.526 . S
C310 C311 1.396 . S
C310 C315 1.390 . S
C311 C305 1.465 . S
C311 C310 1.396 . S
C311 C312 1.399 . S
C312 H298 0.929 . S
C312 C311 1.399 . S
C312 C313 1.385 . S
C313 H299 0.931 . S
C313 C312 1.385 . S
C313 C314 1.389 . S
C314 C313 1.389 . S
C314 C315 1.387 . S
C315 H300 0.930 . S
C315 C310 1.390 . S
C315 C314 1.387 . S
H316 C328 0.930 . S
H317 C330 0.930 . S
H318 C331 0.930 . S
H319 C335 0.953 1_556 S
H320 C335 0.959 1_556 S
H321 C335 0.961 . S
H322 C336 0.960 . S
H323 C336 0.961 . S
H324 C336 0.959 . S
H325 C339 0.929 . S
H326 C340 0.931 . S
H327 C342 0.930 . S
C328 H316 0.930 . S
C328 C329 1.399 . S
C328 C333 1.399 . S
C329 C328 1.399 . S
C329 C330 1.376 . S
C330 H317 0.930 . S
C330 C329 1.376 . S
C330 C331 1.388 . S
C331 H318 0.930 . S
C331 C330 1.388 . S
C331 C332 1.390 . S
C332 C331 1.390 . S
C332 C333 1.394 . S
C332 C338 1.465 . S
C333 C328 1.399 . S
C333 C332 1.394 . S
C333 C334 1.516 . S
C334 C333 1.516 . S
C334 C335 1.502 . S
C334 C336 1.561 . S
C334 C337 1.526 . S
C335 H319 0.953 1_554 S
C335 H320 0.959 1_554 S
C335 H321 0.961 . S
C335 C334 1.502 . S
C336 H322 0.960 . S
C336 H323 0.961 . S
C336 H324 0.959 . S
C336 C334 1.561 . S
C337 C334 1.526 . S
C337 C338 1.396 . S
C337 C342 1.390 . S
C338 C332 1.465 . S
C338 C337 1.396 . S
C338 C339 1.399 . S
C339 H325 0.929 . S
C339 C338 1.399 . S
C339 C340 1.385 . S
C340 H326 0.931 . S
C340 C339 1.385 . S
C340 C341 1.389 . S
C341 C340 1.389 . S
C341 C342 1.387 . S
C342 H327 0.930 . S
C342 C337 1.390 . S
C342 C341 1.387 . S
H343 C355 0.930 . S
H344 C357 0.930 . S
H345 C358 0.930 . S
H346 C362 0.959 1_545 S
H347 C362 0.959 1_545 S
H348 C362 0.961 . S
H349 C363 0.960 . S
H350 C363 0.961 . S
H351 C363 0.959 . S
H352 C366 0.929 . S
H353 C367 0.931 . S
H354 C369 0.930 . S
C355 H343 0.930 . S
C355 C356 1.399 . S
C355 C360 1.399 . S
C356 C355 1.399 . S
C356 C357 1.376 . S
C357 H344 0.930 . S
C357 C356 1.376 . S
C357 C358 1.388 . S
C358 H345 0.930 . S
C358 C357 1.388 . S
C358 C359 1.390 . S
C359 C358 1.390 . S
C359 C360 1.394 . S
C359 C365 1.465 . S
C360 C355 1.399 . S
C360 C359 1.394 . S
C360 C361 1.516 . S
C361 C360 1.516 . S
C361 C362 1.502 . S
C361 C363 1.561 . S
C361 C364 1.526 . S
C362 H346 0.959 1_565 S
C362 H347 0.959 1_565 S
C362 H348 0.961 . S
C362 C361 1.502 . S
C363 H349 0.960 . S
C363 H350 0.961 . S
C363 H351 0.959 . S
C363 C361 1.561 . S
C364 C361 1.526 . S
C364 C365 1.396 . S
C364 C369 1.390 . S
C365 C359 1.465 . S
C365 C364 1.396 . S
C365 C366 1.399 . S
C366 H352 0.929 . S
C366 C365 1.399 . S
C366 C367 1.385 . S
C367 H353 0.931 . S
C367 C366 1.385 . S
C367 C368 1.389 . S
C368 C367 1.389 . S
C368 C369 1.387 . S
C369 H354 0.930 . S
C369 C364 1.390 . S
C369 C368 1.387 . S
H370 C382 0.930 . S
H371 C384 0.930 . S
H372 C385 0.930 . S
H373 C389 0.959 . S
H374 C389 0.959 . S
H375 C389 0.961 . S
H376 C390 0.960 . S
H377 C390 0.961 . S
H378 C390 0.959 1_554 S
H379 C393 0.929 . S
H380 C394 0.931 . S
H381 C396 0.930 . S
C382 H370 0.930 . S
C382 C383 1.399 . S
C382 C387 1.399 . S
C383 C382 1.399 . S
C383 C384 1.376 . S
C384 H371 0.930 . S
C384 C383 1.376 . S
C384 C385 1.388 . S
C385 H372 0.930 . S
C385 C384 1.388 . S
C385 C386 1.390 . S
C386 C385 1.390 . S
C386 C387 1.394 . S
C386 C392 1.465 . S
C387 C382 1.399 . S
C387 C386 1.394 . S
C387 C388 1.516 . S
C388 C387 1.516 . S
C388 C389 1.502 . S
C388 C390 1.561 . S
C388 C391 1.526 . S
C389 H373 0.959 . S
C389 H374 0.959 . S
C389 H375 0.961 . S
C389 C388 1.502 . S
C390 H376 0.960 . S
C390 H377 0.961 . S
C390 H378 0.959 1_556 S
C390 C388 1.561 . S
C391 C388 1.526 . S
C391 C392 1.396 . S
C391 C396 1.390 . S
C392 C386 1.465 . S
C392 C391 1.396 . S
C392 C393 1.399 . S
C393 H379 0.929 . S
C393 C392 1.399 . S
C393 C394 1.385 . S
C394 H380 0.931 . S
C394 C393 1.385 . S
C394 C395 1.389 . S
C395 C394 1.389 . S
C395 C396 1.387 . S
C396 H381 0.930 . S
C396 C391 1.390 . S
C396 C395 1.387 . S
H397 C409 0.930 . S
H398 C411 0.930 . S
H399 C412 0.930 . S
H400 C416 0.959 . S
H401 C416 0.959 . S
H402 C416 0.961 . S
H403 C417 0.960 . S
H404 C417 0.961 . S
H405 C417 0.959 . S
H406 C420 0.929 . S
H407 C421 0.931 . S
H408 C423 0.930 . S
C409 H397 0.930 . S
C409 C410 1.399 . S
C409 C414 1.399 . S
C410 C409 1.399 . S
C410 C411 1.376 . S
C411 H398 0.930 . S
C411 C410 1.376 . S
C411 C412 1.388 . S
C412 H399 0.930 . S
C412 C411 1.388 . S
C412 C413 1.390 . S
C413 C412 1.390 . S
C413 C414 1.394 . S
C413 C419 1.465 . S
C414 C409 1.399 . S
C414 C413 1.394 . S
C414 C415 1.516 . S
C415 C414 1.516 . S
C415 C416 1.502 . S
C415 C417 1.561 . S
C415 C418 1.526 . S
C416 H400 0.959 . S
C416 H401 0.959 . S
C416 H402 0.961 . S
C416 C415 1.502 . S
C417 H403 0.960 . S
C417 H404 0.961 . S
C417 H405 0.959 . S
C417 C415 1.561 . S
C418 C415 1.526 . S
C418 C419 1.396 . S
C418 C423 1.390 . S
C419 C413 1.465 . S
C419 C418 1.396 . S
C419 C420 1.399 . S
C420 H406 0.929 . S
C420 C419 1.399 . S
C420 C421 1.385 . S
C421 H407 0.931 . S
C421 C420 1.385 . S
C421 C422 1.389 . S
C422 C421 1.389 . S
C422 C423 1.387 . S
C423 H408 0.930 . S
C423 C418 1.390 . S
C423 C422 1.387 . S
H424 C436 0.930 . S
H425 C438 0.930 . S
H426 C439 0.930 . S
H427 C443 0.959 . S
H428 C443 0.959 . S
H429 C443 0.961 . S
H430 C444 0.960 . S
H431 C444 0.961 . S
H432 C444 0.959 . S
H433 C447 0.929 1_556 S
H434 C448 0.931 1_556 S
H435 C450 0.930 . S
C436 H424 0.930 . S
C436 C437 1.399 . S
C436 C441 1.399 . S
C437 C436 1.399 . S
C437 C438 1.376 . S
C438 H425 0.930 . S
C438 C437 1.376 . S
C438 C439 1.388 . S
C439 H426 0.930 . S
C439 C438 1.388 . S
C439 C440 1.390 . S
C440 C439 1.390 . S
C440 C441 1.394 . S
C440 C446 1.465 . S
C441 C436 1.399 . S
C441 C440 1.394 . S
C441 C442 1.516 . S
C442 C441 1.516 . S
C442 C443 1.502 . S
C442 C444 1.561 . S
C442 C445 1.526 . S
C443 H427 0.959 . S
C443 H428 0.959 . S
C443 H429 0.961 . S
C443 C442 1.502 . S
C444 H430 0.960 . S
C444 H431 0.961 . S
C444 H432 0.959 . S
C444 C442 1.561 . S
C445 C442 1.526 . S
C445 C446 1.396 . S
C445 C450 1.390 . S
C446 C440 1.465 . S
C446 C445 1.396 . S
C446 C447 1.399 . S
C447 H433 0.929 1_554 S
C447 C446 1.399 . S
C447 C448 1.385 . S
C448 H434 0.931 1_554 S
C448 C447 1.385 . S
C448 C449 1.389 . S
C449 C448 1.389 . S
C449 C450 1.387 . S
C450 H435 0.930 . S
C450 C445 1.390 . S
C450 C449 1.387 . S
H451 C463 0.930 . S
H452 C465 0.930 . S
H453 C466 0.930 . S
H454 C470 0.959 . S
H455 C470 0.959 . S
H456 C470 0.961 . S
H457 C471 0.960 . S
H458 C471 0.961 . S
H459 C471 0.959 . S
H460 C474 0.920 1_554 S
H461 C475 0.931 . S
H462 C477 0.930 . S
C463 H451 0.930 . S
C463 C464 1.399 . S
C463 C468 1.399 . S
C464 C463 1.399 . S
C464 C465 1.376 . S
C465 H452 0.930 . S
C465 C464 1.376 . S
C465 C466 1.388 . S
C466 H453 0.930 . S
C466 C465 1.388 . S
C466 C467 1.390 . S
C467 C466 1.390 . S
C467 C468 1.394 . S
C467 C473 1.465 . S
C468 C463 1.399 . S
C468 C467 1.394 . S
C468 C469 1.516 . S
C469 C468 1.516 . S
C469 C470 1.502 . S
C469 C471 1.561 . S
C469 C472 1.526 . S
C470 H454 0.959 . S
C470 H455 0.959 . S
C470 H456 0.961 . S
C470 C469 1.502 . S
C471 H457 0.960 . S
C471 H458 0.961 . S
C471 H459 0.959 . S
C471 C469 1.561 . S
C472 C469 1.526 . S
C472 C473 1.396 . S
C472 C477 1.390 . S
C473 C467 1.465 . S
C473 C472 1.396 . S
C473 C474 1.399 . S
C474 H460 0.920 1_556 S
C474 C473 1.399 . S
C474 C475 1.385 . S
C475 H461 0.931 . S
C475 C474 1.385 . S
C475 C476 1.389 . S
C476 C475 1.389 . S
C476 C477 1.387 . S
C477 H462 0.930 . S
C477 C472 1.390 . S
C477 C476 1.387 . S
H478 C490 0.930 . S
H479 C492 0.930 . S
H480 C493 0.930 . S
H481 C497 0.959 . S
H482 C497 0.959 . S
H483 C497 0.961 . S
H484 C498 0.960 . S
H485 C498 0.961 . S
H486 C498 0.959 . S
H487 C501 0.929 . S
H488 C502 0.931 . S
H489 C504 0.930 . S
C490 H478 0.930 . S
C490 C491 1.399 . S
C490 C495 1.399 . S
C491 C490 1.399 . S
C491 C492 1.376 . S
C492 H479 0.930 . S
C492 C491 1.376 . S
C492 C493 1.388 . S
C493 H480 0.930 . S
C493 C492 1.388 . S
C493 C494 1.390 . S
C494 C493 1.390 . S
C494 C495 1.394 . S
C494 C500 1.465 . S
C495 C490 1.399 . S
C495 C494 1.394 . S
C495 C496 1.516 . S
C496 C495 1.516 . S
C496 C497 1.502 . S
C496 C498 1.561 . S
C496 C499 1.526 . S
C497 H481 0.959 . S
C497 H482 0.959 . S
C497 H483 0.961 . S
C497 C496 1.502 . S
C498 H484 0.960 . S
C498 H485 0.961 . S
C498 H486 0.959 . S
C498 C496 1.561 . S
C499 C496 1.526 . S
C499 C500 1.396 . S
C499 C504 1.390 . S
C500 C494 1.465 . S
C500 C499 1.396 . S
C500 C501 1.399 . S
C501 H487 0.929 . S
C501 C500 1.399 . S
C501 C502 1.385 . S
C502 H488 0.931 . S
C502 C501 1.385 . S
C502 C503 1.389 . S
C503 C502 1.389 . S
C503 C504 1.387 . S
C504 H489 0.930 . S
C504 C499 1.390 . S
C504 C503 1.387 . S
H505 C517 0.930 . S
H506 C519 0.930 . S
H507 C520 0.930 . S
H508 C524 0.959 . S
H509 C524 0.959 . S
H510 C524 0.961 . S
H511 C525 0.960 . S
H512 C525 0.961 . S
H513 C525 0.959 . S
H514 C528 0.929 . S
H515 C529 0.931 . S
H516 C531 0.930 . S
C517 H505 0.930 . S
C517 C518 1.399 . S
C517 C522 1.399 . S
C518 C517 1.399 . S
C518 C519 1.376 . S
C519 H506 0.930 . S
C519 C518 1.376 . S
C519 C520 1.388 . S
C520 H507 0.930 . S
C520 C519 1.388 . S
C520 C521 1.390 . S
C521 C520 1.390 . S
C521 C522 1.394 . S
C521 C527 1.465 . S
C522 C517 1.399 . S
C522 C521 1.394 . S
C522 C523 1.516 . S
C523 C522 1.516 . S
C523 C524 1.502 . S
C523 C525 1.561 . S
C523 C526 1.526 . S
C524 H508 0.959 . S
C524 H509 0.959 . S
C524 H510 0.961 . S
C524 C523 1.502 . S
C525 H511 0.960 . S
C525 H512 0.961 . S
C525 H513 0.959 . S
C525 C523 1.561 . S
C526 C523 1.526 . S
C526 C527 1.396 . S
C526 C531 1.390 . S
C527 C521 1.465 . S
C527 C526 1.396 . S
C527 C528 1.399 . S
C528 H514 0.929 . S
C528 C527 1.399 . S
C528 C529 1.385 . S
C529 H515 0.931 . S
C529 C528 1.385 . S
C529 C530 1.389 . S
C530 C529 1.389 . S
C530 C531 1.387 . S
C531 H516 0.930 . S
C531 C526 1.390 . S
C531 C530 1.387 . S
H532 C544 0.930 . S
H533 C546 0.930 . S
H534 C547 0.930 . S
H535 C551 0.959 . S
H536 C551 0.959 . S
H537 C551 0.961 . S
H538 C552 0.960 . S
H539 C552 0.961 . S
H540 C552 0.959 . S
H541 C555 0.929 1_455 S
H542 C556 0.906 1_455 S
H543 C558 0.930 . S
C544 H532 0.930 . S
C544 C545 1.399 . S
C544 C549 1.399 . S
C545 C544 1.399 . S
C545 C546 1.376 . S
C546 H533 0.930 . S
C546 C545 1.376 . S
C546 C547 1.388 . S
C547 H534 0.930 . S
C547 C546 1.388 . S
C547 C548 1.390 . S
C548 C547 1.390 . S
C548 C549 1.394 . S
C548 C554 1.465 . S
C549 C544 1.399 . S
C549 C548 1.394 . S
C549 C550 1.516 . S
C550 C549 1.516 . S
C550 C551 1.502 . S
C550 C552 1.561 . S
C550 C553 1.526 . S
C551 H535 0.959 . S
C551 H536 0.959 . S
C551 H537 0.961 . S
C551 C550 1.502 . S
C552 H538 0.960 . S
C552 H539 0.961 . S
C552 H540 0.959 . S
C552 C550 1.561 . S
C553 C550 1.526 . S
C553 C554 1.396 . S
C553 C558 1.390 . S
C554 C548 1.465 . S
C554 C553 1.396 . S
C554 C555 1.399 . S
C555 H541 0.929 1_655 S
C555 C554 1.399 . S
C555 C556 1.387 . S
C556 H542 0.906 1_655 S
C556 C555 1.387 . S
C556 C557 1.412 . S
C557 C556 1.412 . S
C557 C558 1.387 . S
C558 H543 0.930 . S
C558 C553 1.390 . S
C558 C557 1.387 . S
H559 C571 0.930 . S
H560 C573 0.930 . S
H561 C574 0.930 . S
H562 C578 0.959 . S
H563 C578 0.959 . S
H564 C578 0.961 . S
H565 C579 0.960 . S
H566 C579 0.961 . S
H567 C579 0.959 . S
H568 C582 0.929 . S
H569 C583 0.931 . S
H570 C585 0.930 . S
C571 H559 0.930 . S
C571 C572 1.399 . S
C571 C576 1.399 . S
C572 C571 1.399 . S
C572 C573 1.376 . S
C573 H560 0.930 . S
C573 C572 1.376 . S
C573 C574 1.388 . S
C574 H561 0.930 . S
C574 C573 1.388 . S
C574 C575 1.390 . S
C575 C574 1.390 . S
C575 C576 1.394 . S
C575 C581 1.465 . S
C576 C571 1.399 . S
C576 C575 1.394 . S
C576 C577 1.516 . S
C577 C576 1.516 . S
C577 C578 1.502 . S
C577 C579 1.561 . S
C577 C580 1.526 . S
C578 H562 0.959 . S
C578 H563 0.959 . S
C578 H564 0.961 . S
C578 C577 1.502 . S
C579 H565 0.960 . S
C579 H566 0.961 . S
C579 H567 0.959 . S
C579 C577 1.561 . S
C580 C577 1.526 . S
C580 C581 1.396 . S
C580 C585 1.390 . S
C581 C575 1.465 . S
C581 C580 1.396 . S
C581 C582 1.399 . S
C582 H568 0.929 . S
C582 C581 1.399 . S
C582 C583 1.385 . S
C583 H569 0.931 . S
C583 C582 1.385 . S
C583 C584 1.389 . S
C584 C583 1.389 . S
C584 C585 1.387 . S
C585 H570 0.930 . S
C585 C580 1.390 . S
C585 C584 1.387 . S
H586 C598 0.930 . S
H587 C600 0.930 . S
H588 C601 0.930 . S
H589 C605 0.959 . S
H590 C605 0.959 . S
H591 C605 0.961 . S
H592 C606 0.960 . S
H593 C606 0.961 . S
H594 C606 0.959 . S
H595 C609 0.929 . S
H596 C610 0.931 . S
H597 C612 0.930 . S
C598 H586 0.930 . S
C598 C599 1.399 . S
C598 C603 1.399 . S
C599 C598 1.399 . S
C599 C600 1.376 . S
C600 H587 0.930 . S
C600 C599 1.376 . S
C600 C601 1.388 . S
C601 H588 0.930 . S
C601 C600 1.388 . S
C601 C602 1.390 . S
C602 C601 1.390 . S
C602 C603 1.394 . S
C602 C608 1.465 . S
C603 C598 1.399 . S
C603 C602 1.394 . S
C603 C604 1.516 . S
C604 C603 1.516 . S
C604 C605 1.502 . S
C604 C606 1.561 . S
C604 C607 1.526 . S
C605 H589 0.959 . S
C605 H590 0.959 . S
C605 H591 0.961 . S
C605 C604 1.502 . S
C606 H592 0.960 . S
C606 H593 0.961 . S
C606 H594 0.959 . S
C606 C604 1.561 . S
C607 C604 1.526 . S
C607 C608 1.396 . S
C607 C612 1.390 . S
C608 C602 1.465 . S
C608 C607 1.396 . S
C608 C609 1.399 . S
C609 H595 0.929 . S
C609 C608 1.399 . S
C609 C610 1.385 . S
C610 H596 0.931 . S
C610 C609 1.385 . S
C610 C611 1.389 . S
C611 C610 1.389 . S
C611 C612 1.387 . S
C612 H597 0.930 . S
C612 C607 1.390 . S
C612 C611 1.387 . S
H613 C625 0.930 . S
H614 C627 0.930 . S
H615 C628 0.930 . S
H616 C632 0.959 . S
H617 C632 0.959 . S
H618 C632 0.961 . S
H619 C633 0.960 . S
H620 C633 0.961 . S
H621 C633 0.959 . S
H622 C636 0.929 . S
H623 C637 0.931 . S
H624 C639 0.930 . S
C625 H613 0.930 . S
C625 C626 1.399 . S
C625 C630 1.399 . S
C626 C625 1.399 . S
C626 C627 1.376 . S
C627 H614 0.930 . S
C627 C626 1.376 . S
C627 C628 1.388 . S
C628 H615 0.930 . S
C628 C627 1.388 . S
C628 C629 1.390 . S
C629 C628 1.390 . S
C629 C630 1.394 . S
C629 C635 1.465 . S
C630 C625 1.399 . S
C630 C629 1.394 . S
C630 C631 1.516 . S
C631 C630 1.516 . S
C631 C632 1.502 . S
C631 C633 1.561 . S
C631 C634 1.526 . S
C632 H616 0.959 . S
C632 H617 0.959 . S
C632 H618 0.961 . S
C632 C631 1.502 . S
C633 H619 0.960 . S
C633 H620 0.961 . S
C633 H621 0.959 . S
C633 C631 1.561 . S
C634 C631 1.526 . S
C634 C635 1.396 . S
C634 C639 1.390 . S
C635 C629 1.465 . S
C635 C634 1.396 . S
C635 C636 1.399 . S
C636 H622 0.929 . S
C636 C635 1.399 . S
C636 C637 1.385 . S
C637 H623 0.931 . S
C637 C636 1.385 . S
C637 C638 1.389 . S
C638 C637 1.389 . S
C638 C639 1.387 . S
C639 H624 0.930 . S
C639 C634 1.390 . S
C639 C638 1.387 . S
H640 C652 0.930 . S
H641 C654 0.930 . S
H642 C655 0.930 . S
H643 C659 0.959 . S
H644 C659 0.959 . S
H645 C659 0.961 . S
H646 C660 0.960 . S
H647 C660 0.961 1_554 S
H648 C660 0.959 1_554 S
H649 C663 0.929 1_545 S
H650 C664 0.931 1_545 S
H651 C666 0.930 . S
C652 H640 0.930 . S
C652 C653 1.399 . S
C652 C657 1.399 . S
C653 C652 1.399 . S
C653 C654 1.376 . S
C654 H641 0.930 . S
C654 C653 1.376 . S
C654 C655 1.388 . S
C655 H642 0.930 . S
C655 C654 1.388 . S
C655 C656 1.390 . S
C656 C655 1.390 . S
C656 C657 1.394 . S
C656 C662 1.465 . S
C657 C652 1.399 . S
C657 C656 1.394 . S
C657 C658 1.516 . S
C658 C657 1.516 . S
C658 C659 1.502 . S
C658 C660 1.561 . S
C658 C661 1.526 . S
C659 H643 0.959 . S
C659 H644 0.959 . S
C659 H645 0.961 . S
C659 C658 1.502 . S
C660 H646 0.960 . S
C660 H647 0.961 1_556 S
C660 H648 0.959 1_556 S
C660 C658 1.561 . S
C661 C658 1.526 . S
C661 C662 1.396 . S
C661 C666 1.390 . S
C662 C656 1.465 . S
C662 C661 1.396 . S
C662 C663 1.399 . S
C663 H649 0.929 1_565 S
C663 C662 1.399 . S
C663 C664 1.385 . S
C664 H650 0.931 1_565 S
C664 C663 1.385 . S
C664 C665 1.389 . S
C665 C664 1.389 . S
C665 C666 1.387 . S
C666 H651 0.930 . S
C666 C661 1.390 . S
C666 C665 1.387 . S
H667 C679 0.930 . S
H668 C681 0.930 . S
H669 C682 0.930 . S
H670 C686 0.959 . S
H671 C686 0.959 . S
H672 C686 0.961 . S
H673 C687 0.960 . S
H674 C687 0.961 . S
H675 C687 0.959 . S
H676 C690 0.929 1_565 S
H677 C691 0.931 1_565 S
H678 C693 0.930 . S
C679 H667 0.930 . S
C679 C680 1.399 . S
C679 C684 1.399 . S
C680 C679 1.399 . S
C680 C681 1.376 . S
C681 H668 0.930 . S
C681 C680 1.376 . S
C681 C682 1.388 . S
C682 H669 0.930 . S
C682 C681 1.388 . S
C682 C683 1.390 . S
C683 C682 1.390 . S
C683 C684 1.394 . S
C683 C689 1.465 . S
C684 C679 1.399 . S
C684 C683 1.394 . S
C684 C685 1.516 . S
C685 C684 1.516 . S
C685 C686 1.502 . S
C685 C687 1.561 . S
C685 C688 1.526 . S
C686 H670 0.959 . S
C686 H671 0.959 . S
C686 H672 0.961 . S
C686 C685 1.502 . S
C687 H673 0.960 . S
C687 H674 0.961 . S
C687 H675 0.959 . S
C687 C685 1.561 . S
C688 C685 1.526 . S
C688 C689 1.396 . S
C688 C693 1.390 . S
C689 C683 1.465 . S
C689 C688 1.396 . S
C689 C690 1.399 . S
C690 H676 0.929 1_545 S
C690 C689 1.399 . S
C690 C691 1.385 . S
C691 H677 0.931 1_545 S
C691 C690 1.385 . S
C691 C692 1.389 . S
C692 C691 1.389 . S
C692 C693 1.387 . S
C693 H678 0.930 . S
C693 C688 1.390 . S
C693 C692 1.387 . S
H694 C706 0.930 . S
H695 C708 0.930 . S
H696 C709 0.930 . S
H697 C713 0.959 . S
H698 C713 0.959 1_556 S
H699 C713 0.961 . S
H700 C714 0.960 . S
H701 C714 0.961 . S
H702 C714 0.959 . S
H703 C717 0.929 . S
H704 C718 0.931 . S
H705 C720 0.930 1_556 S
C706 H694 0.930 . S
C706 C707 1.399 . S
C706 C711 1.399 . S
C707 C706 1.399 . S
C707 C708 1.376 . S
C708 H695 0.930 . S
C708 C707 1.376 . S
C708 C709 1.388 . S
C709 H696 0.930 . S
C709 C708 1.388 . S
C709 C710 1.390 . S
C710 C709 1.390 . S
C710 C711 1.394 . S
C710 C716 1.465 . S
C711 C706 1.399 . S
C711 C710 1.394 . S
C711 C712 1.516 . S
C712 C711 1.516 . S
C712 C713 1.502 . S
C712 C714 1.561 1_554 S
C712 C715 1.526 . S
C713 H697 0.959 . S
C713 H698 0.959 1_554 S
C713 H699 0.961 . S
C713 C712 1.502 . S
C714 H700 0.960 . S
C714 H701 0.961 . S
C714 H702 0.959 . S
C714 C712 1.561 1_556 S
C715 C712 1.526 . S
C715 C716 1.396 . S
C715 C720 1.390 . S
C716 C710 1.465 . S
C716 C715 1.396 . S
C716 C717 1.399 . S
C717 H703 0.929 . S
C717 C716 1.399 . S
C717 C718 1.385 . S
C718 H704 0.931 . S
C718 C717 1.385 . S
C718 C719 1.389 . S
C719 C718 1.389 . S
C719 C720 1.387 . S
C720 H705 0.930 1_554 S
C720 C715 1.390 . S
C720 C719 1.387 . S
H721 C733 0.930 . S
H722 C735 0.930 . S
H723 C736 0.930 . S
H724 C740 0.959 . S
H725 C740 0.959 . S
H726 C740 0.961 . S
H727 C741 0.960 . S
H728 C741 0.961 . S
H729 C741 0.959 . S
H730 C744 0.929 . S
H731 C745 0.931 . S
H732 C747 0.930 . S
C733 H721 0.930 . S
C733 C734 1.399 . S
C733 C738 1.399 . S
C734 C733 1.399 . S
C734 C735 1.376 . S
C735 H722 0.930 . S
C735 C734 1.376 . S
C735 C736 1.388 . S
C736 H723 0.930 . S
C736 C735 1.388 . S
C736 C737 1.390 . S
C737 C736 1.390 . S
C737 C738 1.394 . S
C737 C743 1.465 . S
C738 C733 1.399 . S
C738 C737 1.394 . S
C738 C739 1.516 . S
C739 C738 1.516 . S
C739 C740 1.502 . S
C739 C741 1.561 . S
C739 C742 1.526 . S
C740 H724 0.959 . S
C740 H725 0.959 . S
C740 H726 0.961 . S
C740 C739 1.502 . S
C741 H727 0.960 . S
C741 H728 0.961 . S
C741 H729 0.959 . S
C741 C739 1.561 . S
C742 C739 1.526 . S
C742 C743 1.396 . S
C742 C747 1.390 . S
C743 C737 1.465 . S
C743 C742 1.396 . S
C743 C744 1.399 . S
C744 H730 0.929 . S
C744 C743 1.399 . S
C744 C745 1.385 . S
C745 H731 0.931 . S
C745 C744 1.385 . S
C745 C746 1.389 . S
C746 C745 1.389 . S
C746 C747 1.387 . S
C747 H732 0.930 . S
C747 C742 1.390 . S
C747 C746 1.387 . S
H748 C760 0.930 . S
H749 C762 0.930 . S
H750 C763 0.930 . S
H751 C767 0.959 . S
H752 C767 0.959 . S
H753 C767 0.961 . S
H754 C768 0.960 . S
H755 C768 0.961 . S
H756 C768 0.959 . S
H757 C771 0.917 1_554 S
H758 C772 0.931 1_554 S
H759 C774 0.930 . S
C760 H748 0.930 . S
C760 C761 1.399 . S
C760 C765 1.399 . S
C761 C760 1.399 . S
C761 C762 1.376 . S
C762 H749 0.930 . S
C762 C761 1.376 . S
C762 C763 1.388 . S
C763 H750 0.930 . S
C763 C762 1.388 . S
C763 C764 1.390 . S
C764 C763 1.390 . S
C764 C765 1.394 . S
C764 C770 1.465 . S
C765 C760 1.399 . S
C765 C764 1.394 . S
C765 C766 1.516 . S
C766 C765 1.516 . S
C766 C767 1.502 . S
C766 C768 1.561 . S
C766 C769 1.526 . S
C767 H751 0.959 . S
C767 H752 0.959 . S
C767 H753 0.961 . S
C767 C766 1.502 . S
C768 H754 0.960 . S
C768 H755 0.961 . S
C768 H756 0.959 . S
C768 C766 1.561 . S
C769 C766 1.526 . S
C769 C770 1.396 . S
C769 C774 1.390 . S
C770 C764 1.465 . S
C770 C769 1.396 . S
C770 C771 1.399 . S
C771 H757 0.917 1_556 S
C771 C770 1.399 . S
C771 C772 1.385 . S
C772 H758 0.931 1_556 S
C772 C771 1.385 . S
C772 C773 1.389 . S
C773 C772 1.389 . S
C773 C774 1.387 . S
C774 H759 0.930 . S
C774 C769 1.390 . S
C774 C773 1.387 . S
H775 C787 0.930 . S
H776 C789 0.930 . S
H777 C790 0.930 . S
H778 C794 0.959 . S
H779 C794 0.959 . S
H780 C794 0.961 . S
H781 C795 0.960 . S
H782 C795 0.961 . S
H783 C795 0.959 . S
H784 C798 0.929 1_556 S
H785 C799 0.931 . S
H786 C801 0.930 . S
C787 H775 0.930 . S
C787 C788 1.399 . S
C787 C792 1.399 . S
C788 C787 1.399 . S
C788 C789 1.376 . S
C789 H776 0.930 . S
C789 C788 1.376 . S
C789 C790 1.388 . S
C790 H777 0.930 . S
C790 C789 1.388 . S
C790 C791 1.390 . S
C791 C790 1.390 . S
C791 C792 1.394 . S
C791 C797 1.465 . S
C792 C787 1.399 . S
C792 C791 1.394 . S
C792 C793 1.516 . S
C793 C792 1.516 . S
C793 C794 1.502 . S
C793 C795 1.561 . S
C793 C796 1.526 . S
C794 H778 0.959 . S
C794 H779 0.959 . S
C794 H780 0.961 . S
C794 C793 1.502 . S
C795 H781 0.960 . S
C795 H782 0.961 . S
C795 H783 0.959 . S
C795 C793 1.561 . S
C796 C793 1.526 . S
C796 C797 1.396 . S
C796 C801 1.390 . S
C797 C791 1.465 . S
C797 C796 1.396 . S
C797 C798 1.399 . S
C798 H784 0.929 1_554 S
C798 C797 1.399 . S
C798 C799 1.385 . S
C799 H785 0.931 . S
C799 C798 1.385 . S
C799 C800 1.389 . S
C800 C799 1.389 . S
C800 C801 1.387 . S
C801 H786 0.930 . S
C801 C796 1.390 . S
C801 C800 1.387 . S
H802 C814 0.930 . S
H803 C816 0.930 . S
H804 C817 0.930 . S
H805 C821 0.959 . S
H806 C821 0.959 . S
H807 C821 0.961 . S
H808 C822 0.960 . S
H809 C822 0.961 . S
H810 C822 0.959 . S
H811 C825 0.929 . S
H812 C826 0.931 . S
H813 C828 0.930 . S
C814 H802 0.930 . S
C814 C815 1.399 . S
C814 C819 1.399 . S
C815 C814 1.399 . S
C815 C816 1.376 . S
C816 H803 0.930 . S
C816 C815 1.376 . S
C816 C817 1.388 . S
C817 H804 0.930 . S
C817 C816 1.388 . S
C817 C818 1.390 . S
C818 C817 1.390 . S
C818 C819 1.394 . S
C818 C824 1.465 . S
C819 C814 1.399 . S
C819 C818 1.394 . S
C819 C820 1.516 . S
C820 C819 1.516 . S
C820 C821 1.502 . S
C820 C822 1.561 . S
C820 C823 1.526 . S
C821 H805 0.959 . S
C821 H806 0.959 . S
C821 H807 0.961 . S
C821 C820 1.502 . S
C822 H808 0.960 . S
C822 H809 0.961 . S
C822 H810 0.959 . S
C822 C820 1.561 . S
C823 C820 1.526 . S
C823 C824 1.396 . S
C823 C828 1.390 . S
C824 C818 1.465 . S
C824 C823 1.396 . S
C824 C825 1.399 . S
C825 H811 0.929 . S
C825 C824 1.399 . S
C825 C826 1.385 . S
C826 H812 0.931 . S
C826 C825 1.385 . S
C826 C827 1.389 . S
C827 C826 1.389 . S
C827 C828 1.387 . S
C828 H813 0.930 . S
C828 C823 1.390 . S
C828 C827 1.387 . S
H829 C841 0.930 . S
H830 C843 0.930 . S
H831 C844 0.930 . S
H832 C848 0.959 . S
H833 C848 0.959 . S
H834 C848 0.961 . S
H835 C849 0.960 . S
H836 C849 0.961 . S
H837 C849 0.959 . S
H838 C852 0.929 . S
H839 C853 0.931 . S
H840 C855 0.930 . S
C841 H829 0.930 . S
C841 C842 1.399 . S
C841 C846 1.399 . S
C842 C841 1.399 . S
C842 C843 1.376 . S
C843 H830 0.930 . S
C843 C842 1.376 . S
C843 C844 1.388 . S
C844 H831 0.930 . S
C844 C843 1.388 . S
C844 C845 1.390 . S
C845 C844 1.390 . S
C845 C846 1.394 . S
C845 C851 1.465 . S
C846 C841 1.399 . S
C846 C845 1.394 . S
C846 C847 1.516 . S
C847 C846 1.516 . S
C847 C848 1.502 . S
C847 C849 1.561 . S
C847 C850 1.526 . S
C848 H832 0.959 . S
C848 H833 0.959 . S
C848 H834 0.961 . S
C848 C847 1.502 . S
C849 H835 0.960 . S
C849 H836 0.961 . S
C849 H837 0.959 . S
C849 C847 1.561 . S
C850 C847 1.526 . S
C850 C851 1.396 . S
C850 C855 1.390 . S
C851 C845 1.465 . S
C851 C850 1.396 . S
C851 C852 1.399 . S
C852 H838 0.929 . S
C852 C851 1.399 . S
C852 C853 1.385 . S
C853 H839 0.931 . S
C853 C852 1.385 . S
C853 C854 1.389 . S
C854 C853 1.389 . S
C854 C855 1.387 . S
C855 H840 0.930 . S
C855 C850 1.390 . S
C855 C854 1.387 . S
C221 C5 2.271 . S
C233 C72 2.291 . S
C248 C14 2.236 . S
C260 C114 2.248 . S
C287 C144 0.906 . S
C275 C25 0.967 . S
C302 C34 1.005 . S
C314 C178 0.942 . S
C341 C135 1.792 . S
C329 C7 1.778 . S
C368 C89 1.817 . S
C356 C13 1.789 . S
C395 C182 1.254 . S
C383 C23 1.251 . S
C422 C148 1.313 . S
C410 C31 1.264 . S
C437 C4 2.152 . S
C449 C203 2.170 . S
C476 C110 1.063 . S
C464 C22 1.085 . S
C491 C32 1.092 . S
C503 C85 1.074 . S
C518 C16 2.126 . S
C530 C169 2.131 . S
C557 C101 2.280 . S
C545 C41 2.280 . S
C572 C50 2.241 . S
C584 C123 2.254 . S
C599 C61 0.925 . S
C611 C153 0.946 . S
C626 C67 1.014 . S
C638 C187 0.953 . S
C653 C40 1.811 . S
C665 C106 1.807 . S
C692 C80 1.788 . S
C680 C52 1.799 . S
C719 C191 1.283 . S
C707 C59 1.262 . S
C746 C157 1.284 . S
C734 C70 1.278 . S
C761 C43 2.166 . S
C773 C174 2.163 . S
C800 C119 1.061 . S
C788 C58 1.107 . S
C827 C76 1.069 . S
C815 C68 1.097 . S
C842 C49 2.124 . S
C854 C140 2.145 . S
