# Generated by pormake.
# Topology ssa, (4,4)-cn, num edge types: 1
# Building blocks:
#     Node 0, Type 0, BuildingBlock: NAWXER_clean_sbu_0, # of connection points: 4
#     Node 1, Type 0, BuildingBlock: NAWXER_clean_sbu_0, # of connection points: 4
#     Node 2, Type 0, BuildingBlock: NAWXER_clean_sbu_0, # of connection points: 4
#     Node 3, Type 0, BuildingBlock: NAWXER_clean_sbu_0, # of connection points: 4
#     Node 4, Type 0, BuildingBlock: NAWXER_clean_sbu_0, # of connection points: 4
#     Node 5, Type 0, BuildingBlock: NAWXER_clean_sbu_0, # of connection points: 4
#     Node 6, Type 1, BuildingBlock: MIFKUJ_clean_linker_1, # of connection points: 4
#     Node 7, Type 1, BuildingBlock: MIFKUJ_clean_linker_1, # of connection points: 4
#     Node 8, Type 1, BuildingBlock: MIFKUJ_clean_linker_1, # of connection points: 4
#     Node 9, Type 1, BuildingBlock: MIFKUJ_clean_linker_1, # of connection points: 4
#     Node 10, Type 1, BuildingBlock: MIFKUJ_clean_linker_1, # of connection points: 4
#     Node 11, Type 1, BuildingBlock: MIFKUJ_clean_linker_1, # of connection points: 4
#     Edge 12, Type (0, 1), BuildingBlock: XIVTED_clean_linker_0, # of connection points: 2
#     Edge 13, Type (0, 1), BuildingBlock: XIVTED_clean_linker_0, # of connection points: 2
#     Edge 14, Type (0, 1), BuildingBlock: XIVTED_clean_linker_0, # of connection points: 2
#     Edge 15, Type (0, 1), BuildingBlock: XIVTED_clean_linker_0, # of connection points: 2
#     Edge 16, Type (0, 1), BuildingBlock: XIVTED_clean_linker_0, # of connection points: 2
#     Edge 17, Type (0, 1), BuildingBlock: XIVTED_clean_linker_0, # of connection points: 2
#     Edge 18, Type (0, 1), BuildingBlock: XIVTED_clean_linker_0, # of connection points: 2
#     Edge 19, Type (0, 1), BuildingBlock: XIVTED_clean_linker_0, # of connection points: 2
#     Edge 20, Type (0, 1), BuildingBlock: XIVTED_clean_linker_0, # of connection points: 2
#     Edge 21, Type (0, 1), BuildingBlock: XIVTED_clean_linker_0, # of connection points: 2
#     Edge 22, Type (0, 1), BuildingBlock: XIVTED_clean_linker_0, # of connection points: 2
#     Edge 23, Type (0, 1), BuildingBlock: XIVTED_clean_linker_0, # of connection points: 2
#     Edge 24, Type (0, 1), BuildingBlock: XIVTED_clean_linker_0, # of connection points: 2
#     Edge 25, Type (0, 1), BuildingBlock: XIVTED_clean_linker_0, # of connection points: 2
#     Edge 26, Type (0, 1), BuildingBlock: XIVTED_clean_linker_0, # of connection points: 2
#     Edge 27, Type (0, 1), BuildingBlock: XIVTED_clean_linker_0, # of connection points: 2
#     Edge 28, Type (0, 1), BuildingBlock: XIVTED_clean_linker_0, # of connection points: 2
#     Edge 29, Type (0, 1), BuildingBlock: XIVTED_clean_linker_0, # of connection points: 2
#     Edge 30, Type (0, 1), BuildingBlock: XIVTED_clean_linker_0, # of connection points: 2
#     Edge 31, Type (0, 1), BuildingBlock: XIVTED_clean_linker_0, # of connection points: 2
#     Edge 32, Type (0, 1), BuildingBlock: XIVTED_clean_linker_0, # of connection points: 2
#     Edge 33, Type (0, 1), BuildingBlock: XIVTED_clean_linker_0, # of connection points: 2
#     Edge 34, Type (0, 1), BuildingBlock: XIVTED_clean_linker_0, # of connection points: 2
#     Edge 35, Type (0, 1), BuildingBlock: XIVTED_clean_linker_0, # of connection points: 2
# Relax obj value: 0.011
# Max RMSD: 0.026
# Mean RMSD: 0.026
data_MOF--net-ssa--node1-NAWXER_clean_sbu_0--node2-MIFKUJ_clean_linker_1--edge1-XIVTED_clean_linker_0
_symmetry_space_group_name_H-M    P1
_symmetry_Int_Tables_number       1
_symmetry_cell_setting            triclinic
loop_
_symmetry_equiv_pos_as_xyz
'x, y, z'
_cell_length_a     59.549996
_cell_length_b     59.556803
_cell_length_c     37.559064
_cell_angle_alpha  90.057365
_cell_angle_beta   89.846612
_cell_angle_gamma 120.03233
loop_
_atom_site_label
_atom_site_type_symbol
_atom_site_fract_x
_atom_site_fract_y
_atom_site_fract_z
_atom_type_partial_charge
C0 C 0.04114 0.51969 0.01466 0.0
C1 C 0.98899 0.44062 0.94638 0.0
O2 O 0.02084 0.50275 0.0313 0.0
Zn3 Zn 0.98885 0.46419 0.02302 0.0
O4 O 0.04624 0.51454 0.9838 0.0
Zn5 Zn 0.01656 0.47994 0.98084 0.0
O6 O 0.98565 0.48877 0.97917 0.0
O7 O 0.95966 0.46993 0.02518 0.0
O8 O 0.01109 0.4595 0.93797 0.0
O9 O 0.97924 0.44036 0.97692 0.0
O10 O 0.99348 0.44454 0.06047 0.0
O11 O 0.0254 0.46031 0.0213 0.0
C12 C 0.96544 0.48393 0.99735 0.0
C13 C 0.01528 0.44783 0.0502 0.0
C14 C 0.46059 0.00613 0.53604 0.0
C15 C 0.49172 0.9539 0.4765 0.0
O16 O 0.45823 0.98482 0.54685 0.0
Zn17 Zn 0.47484 0.97897 0.50635 0.0
O18 O 0.47164 0.01562 0.50604 0.0
Zn19 Zn 0.49017 0.00645 0.46384 0.0
O20 O 0.46889 0.00232 0.42274 0.0
O21 O 0.44843 0.97227 0.46374 0.0
O22 O 0.49702 0.97458 0.45936 0.0
O23 O 0.47855 0.9484 0.5051 0.0
O24 O 0.51397 0.00989 0.51292 0.0
O25 O 0.52522 0.03554 0.46588 0.0
C26 C 0.44843 0.98231 0.43355 0.0
C27 C 0.53086 0.03007 0.49608 0.0
C28 C 0.45116 0.45071 0.96023 0.0
C29 C 0.48982 0.53344 0.02379 0.0
O30 O 0.45134 0.47119 0.95018 0.0
Zn31 Zn 0.46937 0.49221 0.99149 0.0
O32 O 0.46121 0.45042 0.99025 0.0
Zn33 Zn 0.48094 0.4759 0.03364 0.0
O34 O 0.45777 0.45914 0.07346 0.0
O35 O 0.4419 0.4749 0.03396 0.0
O36 O 0.4918 0.51569 0.0403 0.0
O37 O 0.47808 0.52828 0.99405 0.0
O38 O 0.50666 0.49561 0.98545 0.0
O39 O 0.51452 0.47798 0.03199 0.0
C40 C 0.43966 0.4631 0.06346 0.0
C41 C 0.52163 0.48956 0.00213 0.0
C42 C 0.01084 0.56791 0.4497 0.0
C43 C 0.96096 0.48497 0.51111 0.0
O44 O 0.02099 0.56717 0.47943 0.0
Zn45 Zn 0.01306 0.54026 0.5219 0.0
O46 O 0.98964 0.54838 0.43992 0.0
Zn47 Zn 0.9849 0.52649 0.48074 0.0
O48 O 0.97725 0.54509 0.52432 0.0
O49 O 0.00891 0.55715 0.56325 0.0
O50 O 0.95486 0.49207 0.48256 0.0
O51 O 0.98174 0.50089 0.5277 0.0
O52 O 0.04281 0.53563 0.51951 0.0
O53 O 0.01576 0.51786 0.47441 0.0
C54 C 0.98768 0.55565 0.55413 0.0
C55 C 0.03649 0.52249 0.49088 0.0
C56 C 0.53951 0.99308 0.03496 0.0
C57 C 0.51225 0.04791 0.97519 0.0
O58 O 0.54465 0.01564 0.04455 0.0
Zn59 Zn 0.52844 0.02221 0.00432 0.0
O60 O 0.52815 0.98381 0.00516 0.0
Zn61 Zn 0.51232 0.99475 0.96176 0.0
O62 O 0.53435 0.99878 0.92093 0.0
O63 O 0.55472 0.02857 0.96201 0.0
O64 O 0.50631 0.02709 0.95798 0.0
O65 O 0.52577 0.05334 0.00336 0.0
O66 O 0.48857 0.9919 0.01071 0.0
O67 O 0.47674 0.96653 0.96326 0.0
C68 C 0.55486 0.01865 0.93182 0.0
C69 C 0.4713 0.97206 0.99368 0.0
C70 C 0.55146 0.53002 0.56907 0.0
C71 C 0.4707 0.50122 0.50424 0.0
O72 O 0.53218 0.53224 0.57863 0.0
Zn73 Zn 0.51121 0.51714 0.53638 0.0
O74 O 0.55155 0.52087 0.53821 0.0
Zn75 Zn 0.52684 0.50626 0.49284 0.0
O76 O 0.54535 0.53121 0.45526 0.0
O77 O 0.52962 0.54607 0.49632 0.0
O78 O 0.48759 0.49843 0.48651 0.0
O79 O 0.47638 0.51155 0.53501 0.0
O80 O 0.50337 0.47775 0.53665 0.0
O81 O 0.52208 0.47174 0.48948 0.0
C82 C 0.54169 0.54918 0.46681 0.0
C83 C 0.5084 0.46293 0.51755 0.0
H84 H 0.14808 0.38198 0.25402 0.0
H85 H 0.11628 0.3833 0.21374 0.0
H86 H 0.15348 0.46624 0.22805 0.0
H87 H 0.18494 0.46477 0.26848 0.0
H88 H 0.20546 0.41358 0.24268 0.0
H89 H 0.13803 0.40529 0.32502 0.0
H90 H 0.11102 0.42045 0.35283 0.0
H91 H 0.17992 0.48707 0.39441 0.0
H92 H 0.20665 0.4733 0.36345 0.0
H93 H 0.26274 0.47136 0.36468 0.0
H94 H 0.30181 0.48107 0.39762 0.0
H95 H 0.29211 0.40675 0.36704 0.0
H96 H 0.2529 0.39711 0.33399 0.0
H97 H 0.21446 0.43668 0.37075 0.0
H98 H 0.27626 0.46399 0.27904 0.0
H99 H 0.31177 0.4677 0.24198 0.0
H100 H 0.26641 0.38635 0.21581 0.0
H101 H 0.23064 0.38273 0.25301 0.0
C102 C 0.16868 0.42325 0.26431 0.0
C103 C 0.14918 0.40037 0.24866 0.0
C104 C 0.13102 0.40113 0.22587 0.0
C105 C 0.1325 0.42487 0.21782 0.0
C106 C 0.15201 0.44772 0.23369 0.0
C107 C 0.16988 0.4469 0.25684 0.0
C108 C 0.1886 0.42275 0.2872 0.0
C109 C 0.20704 0.41795 0.27093 0.0
C110 C 0.19151 0.43011 0.32351 0.0
C111 C 0.17448 0.43829 0.34155 0.0
C112 C 0.14732 0.42346 0.33945 0.0
C113 C 0.13184 0.43198 0.35601 0.0
C114 C 0.14315 0.45515 0.37591 0.0
C115 C 0.17035 0.46953 0.37865 0.0
C116 C 0.18576 0.46139 0.36136 0.0
C117 C 0.25493 0.43354 0.34676 0.0
C118 C 0.26886 0.45702 0.36536 0.0
C119 C 0.29116 0.46253 0.38427 0.0
C120 C 0.30004 0.44467 0.385 0.0
C121 C 0.28593 0.42103 0.36663 0.0
C122 C 0.26353 0.41549 0.34777 0.0
C123 C 0.23162 0.42829 0.32602 0.0
C124 C 0.21245 0.43168 0.3427 0.0
C125 C 0.22907 0.42172 0.28951 0.0
C126 C 0.25093 0.42305 0.2689 0.0
C127 C 0.27406 0.44687 0.26568 0.0
C128 C 0.29425 0.449 0.2444 0.0
C129 C 0.29175 0.42732 0.22603 0.0
C130 C 0.26884 0.40328 0.22993 0.0
C131 C 0.24842 0.40123 0.25095 0.0
H132 H 0.74517 0.1992 0.77973 0.0
H133 H 0.71102 0.16436 0.81457 0.0
H134 H 0.71097 0.10785 0.74234 0.0
H135 H 0.74576 0.14302 0.7076 0.0
H136 H 0.79234 0.21343 0.76532 0.0
H137 H 0.71553 0.18456 0.69795 0.0
H138 H 0.6764 0.15485 0.66517 0.0
H139 H 0.72297 0.14207 0.58836 0.0
H140 H 0.76219 0.1715 0.6218 0.0
H141 H 0.83917 0.2493 0.62832 0.0
H142 H 0.86517 0.28996 0.59533 0.0
H143 H 0.83228 0.32671 0.65929 0.0
H144 H 0.80667 0.2862 0.69244 0.0
H145 H 0.78174 0.22235 0.63614 0.0
H146 H 0.8607 0.26579 0.70598 0.0
H147 H 0.89375 0.30262 0.73974 0.0
H148 H 0.83518 0.29376 0.81577 0.0
H149 H 0.80221 0.25851 0.78067 0.0
C150 C 0.74812 0.17383 0.74095 0.0
C151 C 0.73815 0.17933 0.77157 0.0
C152 C 0.71857 0.15936 0.7915 0.0
C153 C 0.70836 0.13334 0.78128 0.0
C154 C 0.71834 0.12773 0.7507 0.0
C155 C 0.73822 0.14781 0.73087 0.0
C156 C 0.76829 0.19564 0.71943 0.0
C157 C 0.78999 0.21537 0.73706 0.0
C158 C 0.76545 0.19811 0.68243 0.0
C159 C 0.74172 0.17975 0.66279 0.0
C160 C 0.71731 0.17503 0.67443 0.0
C161 C 0.69498 0.15814 0.65561 0.0
C162 C 0.69669 0.14607 0.62438 0.0
C163 C 0.72116 0.15122 0.61229 0.0
C164 C 0.74351 0.16791 0.6314 0.0
C165 C 0.82127 0.26492 0.66295 0.0
C166 C 0.8377 0.26618 0.63525 0.0
C167 C 0.85252 0.28935 0.61654 0.0
C168 C 0.85062 0.31137 0.62475 0.0
C169 C 0.83392 0.30993 0.65226 0.0
C170 C 0.81946 0.28692 0.67133 0.0
C171 C 0.80514 0.24037 0.68236 0.0
C172 C 0.78436 0.22006 0.66422 0.0
C173 C 0.80814 0.23803 0.71927 0.0
C174 C 0.82882 0.25955 0.74041 0.0
C175 C 0.85495 0.27207 0.72963 0.0
C176 C 0.87392 0.29294 0.74925 0.0
C177 C 0.86717 0.30145 0.78034 0.0
C178 C 0.84109 0.28831 0.79151 0.0
C179 C 0.82218 0.26779 0.77168 0.0
H180 H 0.59672 0.83239 0.32467 0.0
H181 H 0.58651 0.85734 0.36739 0.0
H182 H 0.5106 0.8265 0.32033 0.0
H183 H 0.52091 0.80183 0.27785 0.0
H184 H 0.5697 0.77762 0.31287 0.0
H185 H 0.59348 0.85561 0.24983 0.0
H186 H 0.58942 0.89114 0.22433 0.0
H187 H 0.52652 0.83612 0.15803 0.0
H188 H 0.52948 0.8008 0.18534 0.0
H189 H 0.52493 0.73789 0.17953 0.0
H190 H 0.51616 0.70199 0.13992 0.0
H191 H 0.58858 0.70752 0.17115 0.0
H192 H 0.59713 0.74344 0.21111 0.0
H193 H 0.56285 0.78749 0.18289 0.0
H194 H 0.52835 0.71229 0.26269 0.0
H195 H 0.52655 0.67499 0.29299 0.0
H196 H 0.60659 0.7226 0.32444 0.0
H197 H 0.60819 0.76 0.29434 0.0
C198 C 0.55968 0.81556 0.2979 0.0
C199 C 0.5779 0.83104 0.32368 0.0
C200 C 0.57208 0.84527 0.34795 0.0
C201 C 0.54773 0.84376 0.34721 0.0
C202 C 0.52939 0.82781 0.32178 0.0
C203 C 0.53534 0.81391 0.2973 0.0
C204 C 0.56551 0.80049 0.27184 0.0
C205 C 0.56891 0.78022 0.28439 0.0
C206 C 0.56413 0.80369 0.23475 0.0
C207 C 0.56166 0.82544 0.21974 0.0
C208 C 0.57848 0.85119 0.23032 0.0
C209 C 0.57635 0.87155 0.21536 0.0
C210 C 0.55757 0.86659 0.18916 0.0
C211 C 0.54084 0.84076 0.17866 0.0
C212 C 0.54276 0.82046 0.19392 0.0
C213 C 0.56158 0.74322 0.19852 0.0
C214 C 0.53908 0.73158 0.17754 0.0
C215 C 0.53414 0.7111 0.15476 0.0
C216 C 0.55165 0.70183 0.15236 0.0
C217 C 0.57452 0.71395 0.17275 0.0
C218 C 0.57946 0.73449 0.19558 0.0
C219 C 0.5656 0.76393 0.22403 0.0
C220 C 0.56433 0.78539 0.21134 0.0
C221 C 0.56864 0.76172 0.26094 0.0
C222 C 0.56841 0.73879 0.27632 0.0
C223 C 0.54559 0.71457 0.2757 0.0
C224 C 0.54458 0.69336 0.29303 0.0
C225 C 0.56644 0.696 0.311 0.0
C226 C 0.58957 0.72005 0.31048 0.0
C227 C 0.59046 0.74138 0.29354 0.0
H228 H 0.74295 0.53852 0.72697 0.0
H229 H 0.7068 0.53453 0.69256 0.0
H230 H 0.69609 0.58295 0.76868 0.0
H231 H 0.73394 0.58857 0.80174 0.0
H232 H 0.78731 0.57423 0.74175 0.0
H233 H 0.71307 0.51877 0.81121 0.0
H234 H 0.67284 0.5054 0.84401 0.0
H235 H 0.71448 0.56773 0.91899 0.0
H236 H 0.75475 0.5813 0.88568 0.0
H237 H 0.8364 0.58989 0.87803 0.0
H238 H 0.86418 0.57802 0.91194 0.0
H239 H 0.8381 0.50978 0.84652 0.0
H240 H 0.81072 0.52189 0.8125 0.0
H241 H 0.7799 0.55464 0.87088 0.0
H242 H 0.8581 0.59909 0.79725 0.0
H243 H 0.89312 0.60274 0.75866 0.0
H244 H 0.83621 0.54477 0.68852 0.0
H245 H 0.80154 0.54102 0.72702 0.0
C246 C 0.74117 0.56368 0.76723 0.0
C247 C 0.73315 0.54866 0.73608 0.0
C248 C 0.71207 0.54603 0.71667 0.0
C249 C 0.69805 0.55796 0.72814 0.0
C250 C 0.70642 0.57352 0.75895 0.0
C251 C 0.72791 0.57652 0.77814 0.0
C252 C 0.76301 0.56507 0.78824 0.0
C253 C 0.78561 0.56988 0.77 0.0
C254 C 0.76105 0.5597 0.82524 0.0
C255 C 0.73677 0.55142 0.84551 0.0
C256 C 0.7135 0.52974 0.83448 0.0
C257 C 0.69056 0.52207 0.8533 0.0
C258 C 0.69053 0.53564 0.88391 0.0
C259 C 0.71399 0.55684 0.89561 0.0
C260 C 0.73693 0.56467 0.87653 0.0
C261 C 0.82179 0.55688 0.84263 0.0
C262 C 0.83696 0.57256 0.87081 0.0
C263 C 0.85276 0.56578 0.89008 0.0
C264 C 0.8531 0.54292 0.8819 0.0
C265 C 0.83798 0.52736 0.85353 0.0
C266 C 0.82254 0.53436 0.83394 0.0
C267 C 0.80353 0.56276 0.82396 0.0
C268 C 0.78174 0.55953 0.84279 0.0
C269 C 0.80553 0.56797 0.78705 0.0
C270 C 0.82715 0.56983 0.765 0.0
C271 C 0.85321 0.58697 0.77377 0.0
C272 C 0.8732 0.58908 0.7517 0.0
C273 C 0.86738 0.57427 0.72035 0.0
C274 C 0.8413 0.55684 0.71208 0.0
C275 C 0.82145 0.55464 0.73413 0.0
H276 H 0.24052 0.83116 0.12309 0.0
H277 H 0.27967 0.85973 0.08876 0.0
H278 H 0.3263 0.84838 0.16666 0.0
H279 H 0.2872 0.81951 0.20042 0.0
H280 H 0.22049 0.78056 0.14025 0.0
H281 H 0.25844 0.8622 0.20817 0.0
H282 H 0.29341 0.89732 0.24269 0.0
H283 H 0.29122 0.84084 0.31683 0.0
H284 H 0.25692 0.8061 0.2823 0.0
H285 H 0.19701 0.74758 0.28577 0.0
H286 H 0.16206 0.71523 0.32253 0.0
H287 H 0.10575 0.71189 0.24721 0.0
H288 H 0.14105 0.74454 0.21028 0.0
H289 H 0.20996 0.79414 0.26804 0.0
H290 H 0.18648 0.71658 0.20722 0.0
H291 H 0.1601 0.67548 0.17648 0.0
H292 H 0.14348 0.71531 0.09363 0.0
H293 H 0.16978 0.75654 0.12485 0.0
C294 C 0.26098 0.82365 0.16473 0.0
C295 C 0.25919 0.83483 0.13273 0.0
C296 C 0.28152 0.85105 0.11309 0.0
C297 C 0.30602 0.85641 0.1252 0.0
C298 C 0.30772 0.84494 0.15701 0.0
C299 C 0.28539 0.82852 0.17639 0.0
C300 C 0.23721 0.80605 0.18514 0.0
C301 C 0.21786 0.78383 0.16799 0.0
C302 C 0.23445 0.8097 0.22182 0.0
C303 C 0.25504 0.83148 0.24262 0.0
C304 C 0.26559 0.85744 0.2318 0.0
C305 C 0.28553 0.87746 0.25149 0.0
C306 C 0.29487 0.87182 0.28259 0.0
C307 C 0.28411 0.84586 0.29337 0.0
C308 C 0.26448 0.82596 0.27361 0.0
C309 C 0.17172 0.74858 0.24525 0.0
C310 C 0.17715 0.74008 0.27723 0.0
C311 C 0.15711 0.72159 0.29829 0.0
C312 C 0.13109 0.71113 0.28796 0.0
C313 C 0.1256 0.71946 0.25577 0.0
C314 C 0.14575 0.73812 0.23468 0.0
C315 C 0.19346 0.7684 0.22333 0.0
C316 C 0.21227 0.79115 0.24007 0.0
C317 C 0.19651 0.76456 0.18685 0.0
C318 C 0.17963 0.73956 0.16873 0.0
C319 C 0.17677 0.71644 0.18279 0.0
C320 C 0.16177 0.69297 0.16513 0.0
C321 C 0.14965 0.69218 0.13274 0.0
C322 C 0.15276 0.71538 0.11843 0.0
C323 C 0.16764 0.73888 0.1363 0.0
H324 H 0.47347 0.27709 0.80933 0.0
H325 H 0.47097 0.312 0.83975 0.0
H326 H 0.40553 0.29789 0.77469 0.0
H327 H 0.40759 0.26234 0.74473 0.0
H328 H 0.44237 0.22937 0.81138 0.0
H329 H 0.48158 0.28707 0.71756 0.0
H330 H 0.49034 0.32066 0.67351 0.0
H331 H 0.41628 0.2705 0.62411 0.0
H332 H 0.4076 0.23674 0.66844 0.0
H333 H 0.40008 0.16099 0.69359 0.0
H334 H 0.39914 0.12378 0.66455 0.0
H335 H 0.47456 0.14635 0.70825 0.0
H336 H 0.47547 0.18373 0.73709 0.0
H337 H 0.43645 0.21261 0.68153 0.0
H338 H 0.41405 0.15077 0.78134 0.0
H339 H 0.42525 0.12569 0.8214 0.0
H340 H 0.48998 0.19691 0.86119 0.0
H341 H 0.48016 0.22145 0.81882 0.0
C342 C 0.44062 0.2669 0.77485 0.0
C343 C 0.45861 0.2815 0.80144 0.0
C344 C 0.45719 0.30146 0.81878 0.0
C345 C 0.43789 0.30743 0.80977 0.0
C346 C 0.42065 0.29373 0.78201 0.0
C347 C 0.42188 0.27347 0.76485 0.0
C348 C 0.44041 0.24373 0.75959 0.0
C349 C 0.44136 0.22585 0.78293 0.0
C350 C 0.43935 0.23918 0.72256 0.0
C351 C 0.44381 0.25959 0.69646 0.0
C352 C 0.46715 0.28336 0.69738 0.0
C353 C 0.47226 0.3024 0.67199 0.0
C354 C 0.45405 0.29808 0.64531 0.0
C355 C 0.4306 0.2743 0.64448 0.0
C356 C 0.42564 0.25506 0.66969 0.0
C357 C 0.43773 0.17502 0.71771 0.0
C358 C 0.41635 0.15785 0.69707 0.0
C359 C 0.41586 0.13663 0.68046 0.0
C360 C 0.43678 0.13215 0.68412 0.0
C361 C 0.45801 0.1491 0.70535 0.0
C362 C 0.45858 0.17049 0.72177 0.0
C363 C 0.4385 0.19826 0.73337 0.0
C364 C 0.4373 0.21604 0.71001 0.0
C365 C 0.44149 0.20371 0.77035 0.0
C366 C 0.44657 0.188 0.79639 0.0
C367 C 0.43089 0.16092 0.79831 0.0
C368 C 0.43711 0.14662 0.82177 0.0
C369 C 0.45874 0.15918 0.84452 0.0
C370 C 0.47364 0.1864 0.84353 0.0
C371 C 0.46779 0.20056 0.81956 0.0
H372 H 0.00053 0.41985 0.1128 0.0
H373 H 0.14496 0.45714 0.16084 0.0
H374 H 0.06491 0.4583 0.03968 0.0
H375 H 0.07936 0.39543 0.2156 0.0
H376 H 0.11538 0.45985 0.11843 0.0
H377 H 0.02835 0.41184 0.15278 0.0
C378 C 0.02037 0.42634 0.10495 0.0
C379 C 0.03042 0.4399 0.07291 0.0
C380 C 0.10741 0.44561 0.1396 0.0
C381 C 0.06231 0.43117 0.11864 0.0
C382 C 0.12427 0.4442 0.16392 0.0
C383 C 0.11453 0.42613 0.19178 0.0
C384 C 0.08053 0.42909 0.14339 0.0
C385 C 0.08759 0.40958 0.19436 0.0
C386 C 0.03621 0.42177 0.12777 0.0
C387 C 0.05628 0.44785 0.06411 0.0
N388 N 0.07144 0.4116 0.17062 0.0
N389 N 0.07136 0.44363 0.087 0.0
H390 H 0.57372 0.07287 0.46793 0.0
H391 H 0.65148 0.10704 0.65153 0.0
H392 H 0.54597 0.02568 0.56277 0.0
H393 H 0.6878 0.14446 0.55255 0.0
H394 H 0.61172 0.0785 0.61925 0.0
H395 H 0.61506 0.10082 0.49818 0.0
C396 C 0.57632 0.06835 0.49499 0.0
C397 C 0.55633 0.04694 0.51285 0.0
C398 C 0.62838 0.09287 0.60449 0.0
C399 C 0.60331 0.07877 0.54751 0.0
C400 C 0.65102 0.10924 0.62295 0.0
C401 C 0.67287 0.12815 0.60466 0.0
C402 C 0.62745 0.09555 0.56745 0.0
C403 C 0.67138 0.12997 0.56756 0.0
C404 C 0.5999 0.08425 0.51219 0.0
C405 C 0.56077 0.04195 0.54789 0.0
N406 N 0.64895 0.11396 0.55014 0.0
N407 N 0.58368 0.0578 0.56406 0.0
H408 H 0.51953 0.55067 0.08347 0.0
H409 H 0.52914 0.68949 0.08597 0.0
H410 H 0.48601 0.57561 0.00163 0.0
H411 H 0.55926 0.66128 0.1682 0.0
H412 H 0.51566 0.64951 0.05236 0.0
H413 H 0.53674 0.5926 0.11221 0.0
C414 C 0.51579 0.565 0.07143 0.0
C415 C 0.5011 0.55949 0.04015 0.0
C416 C 0.52537 0.65218 0.07764 0.0
C417 C 0.52089 0.60786 0.07323 0.0
C418 C 0.53299 0.67494 0.09693 0.0
C419 C 0.54528 0.67874 0.1301 0.0
C420 C 0.53003 0.63304 0.09162 0.0
C421 C 0.55014 0.6594 0.14264 0.0
C422 C 0.5257 0.58903 0.08792 0.0
C423 C 0.49715 0.57899 0.02577 0.0
N424 N 0.54239 0.63738 0.1235 0.0
N425 N 0.50688 0.60231 0.04255 0.0
H426 H 0.9975 0.56907 0.62485 0.0
H427 H 0.86835 0.57766 0.6479 0.0
H428 H 0.94604 0.56133 0.539 0.0
H429 H 0.9137 0.57701 0.73686 0.0
H430 H 0.90036 0.5778 0.60726 0.0
H431 H 0.97084 0.57816 0.66573 0.0
C432 C 0.98082 0.56961 0.6145 0.0
C433 C 0.97384 0.56419 0.5785 0.0
C434 C 0.90346 0.57776 0.63565 0.0
C435 C 0.94331 0.57448 0.62507 0.0
C436 C 0.88511 0.57758 0.65888 0.0
C437 C 0.88815 0.5769 0.69582 0.0
C438 C 0.92508 0.57717 0.64933 0.0
C439 C 0.91059 0.57749 0.70856 0.0
C440 C 0.96557 0.5747 0.63787 0.0
C441 C 0.95203 0.56514 0.56657 0.0
N442 N 0.9281 0.57732 0.68532 0.0
N443 N 0.9375 0.57001 0.58981 0.0
H444 H 0.42815 0.92926 0.96616 0.0
H445 H 0.3515 0.89565 0.15136 0.0
H446 H 0.45636 0.97684 0.06049 0.0
H447 H 0.31471 0.85738 0.05322 0.0
H448 H 0.39101 0.92409 0.11828 0.0
H449 H 0.38702 0.90131 0.99719 0.0
C450 C 0.42568 0.9339 0.99325 0.0
C451 C 0.44578 0.9554 0.01073 0.0
C452 C 0.3743 0.90954 0.10388 0.0
C453 C 0.39902 0.92351 0.04634 0.0
C454 C 0.3518 0.8932 0.12281 0.0
C455 C 0.32985 0.87409 0.10501 0.0
C456 C 0.37503 0.90667 0.06682 0.0
C457 C 0.33118 0.87201 0.0679 0.0
C458 C 0.40223 0.91797 0.01091 0.0
C459 C 0.44149 0.9605 0.04586 0.0
N460 N 0.35347 0.88801 0.05 0.0
N461 N 0.4187 0.94463 0.06249 0.0
H462 H 0.52818 0.43084 0.5038 0.0
H463 H 0.42196 0.31618 0.62524 0.0
H464 H 0.46544 0.43359 0.55746 0.0
H465 H 0.49834 0.32719 0.60659 0.0
H466 H 0.43295 0.35376 0.58736 0.0
H467 H 0.51272 0.38738 0.52895 0.0
C468 C 0.51098 0.42215 0.52043 0.0
C469 C 0.49822 0.43586 0.52897 0.0
C470 C 0.44719 0.34776 0.59128 0.0
C471 C 0.48042 0.38644 0.55731 0.0
C472 C 0.44088 0.32627 0.61268 0.0
C473 C 0.45938 0.31881 0.61929 0.0
C474 C 0.47208 0.36171 0.57615 0.0
C475 C 0.48369 0.33262 0.60254 0.0
C476 C 0.50226 0.39748 0.53483 0.0
C477 C 0.47605 0.4238 0.55064 0.0
N478 N 0.48941 0.35352 0.58184 0.0
N479 N 0.46788 0.39981 0.56412 0.0
H480 H 0.473 0.90203 0.48959 0.0
H481 H 0.57789 0.89519 0.36307 0.0
H482 H 0.53242 0.96752 0.43168 0.0
H483 H 0.50365 0.82812 0.38687 0.0
H484 H 0.56586 0.92178 0.39925 0.0
H485 H 0.48827 0.87444 0.46242 0.0
C486 C 0.48937 0.91062 0.47146 0.0
C487 C 0.50132 0.93701 0.46259 0.0
C488 C 0.55229 0.9012 0.39677 0.0
C489 C 0.51896 0.90582 0.43194 0.0
C490 C 0.55921 0.88601 0.37636 0.0
C491 C 0.54166 0.85948 0.37181 0.0
C492 C 0.52774 0.88973 0.41305 0.0
C493 C 0.5176 0.84859 0.38937 0.0
C494 C 0.49799 0.8949 0.45592 0.0
C495 C 0.52244 0.94719 0.43894 0.0
N496 N 0.5113 0.86378 0.40918 0.0
N497 N 0.53059 0.9316 0.42447 0.0
H498 H 0.53673 0.50454 0.93384 0.0
H499 H 0.68089 0.53032 0.95592 0.0
H500 H 0.56345 0.48874 0.03237 0.0
H501 H 0.64418 0.52418 0.85466 0.0
H502 H 0.63971 0.51843 0.98595 0.0
H503 H 0.57771 0.51523 0.90597 0.0
C504 C 0.55126 0.50335 0.94971 0.0
C505 C 0.54664 0.49576 0.98558 0.0
C506 C 0.6407 0.51958 0.95717 0.0
C507 C 0.59387 0.50808 0.95358 0.0
C508 C 0.66418 0.5265 0.94006 0.0
C509 C 0.66588 0.52816 0.90276 0.0
C510 C 0.61898 0.51468 0.93678 0.0
C511 C 0.64364 0.52283 0.88343 0.0
C512 C 0.57467 0.50937 0.93367 0.0
C513 C 0.56621 0.49445 0.00464 0.0
N514 N 0.62119 0.51646 0.90067 0.0
N515 N 0.5891 0.50069 0.98842 0.0
H516 H 0.0505 0.61563 0.46806 0.0
H517 H 0.08686 0.66638 0.26791 0.0
H518 H 0.00373 0.57243 0.3782 0.0
H519 H 0.12722 0.71132 0.3605 0.0
H520 H 0.05445 0.63287 0.30716 0.0
H521 H 0.077 0.65187 0.42869 0.0
C522 C 0.04566 0.61384 0.44002 0.0
C523 C 0.02496 0.59087 0.42638 0.0
C524 C 0.0703 0.65017 0.31883 0.0
C525 C 0.05555 0.63238 0.38084 0.0
C526 C 0.08874 0.66935 0.29644 0.0
C527 C 0.10999 0.69156 0.31094 0.0
C528 C 0.07315 0.65324 0.35595 0.0
C529 C 0.11152 0.69428 0.34813 0.0
C530 C 0.06083 0.6346 0.4175 0.0
C531 C 0.01952 0.58978 0.38984 0.0
N532 N 0.0935 0.67531 0.36927 0.0
N533 N 0.03492 0.61015 0.36823 0.0
H534 H 0.46699 0.0333 0.94111 0.0
H535 H 0.50783 0.17061 0.86445 0.0
H536 H 0.53626 0.10101 0.9784 0.0
H537 H 0.42702 0.11301 0.8792 0.0
H538 H 0.51982 0.145 0.90208 0.0
H539 H 0.45289 0.06142 0.91384 0.0
C540 C 0.47914 0.05414 0.94372 0.0
C541 C 0.50286 0.06495 0.96182 0.0
C542 C 0.49947 0.13818 0.89731 0.0
C543 C 0.48706 0.0971 0.93025 0.0
C544 C 0.49251 0.15282 0.87591 0.0
C545 C 0.46626 0.14407 0.86841 0.0
C546 C 0.48015 0.11429 0.91071 0.0
C547 C 0.4475 0.12039 0.88344 0.0
C548 C 0.47102 0.07012 0.92833 0.0
C549 C 0.51781 0.092 0.96469 0.0
N550 N 0.45483 0.10619 0.90352 0.0
N551 N 0.50986 0.10725 0.94848 0.0
H552 H 0.42997 0.50539 0.53156 0.0
H553 H 0.33894 0.43606 0.36299 0.0
H554 H 0.45239 0.47626 0.44097 0.0
H555 H 0.31663 0.46816 0.45011 0.0
H556 H 0.37972 0.44858 0.39329 0.0
H557 H 0.38754 0.49027 0.50391 0.0
C558 C 0.42599 0.49581 0.50593 0.0
C559 C 0.44481 0.49218 0.48852 0.0
C560 C 0.36589 0.45284 0.40588 0.0
C561 C 0.39639 0.4748 0.45684 0.0
C562 C 0.3425 0.44551 0.38868 0.0
C563 C 0.32435 0.45111 0.404 0.0
C564 C 0.37124 0.46587 0.43868 0.0
C565 C 0.33023 0.46378 0.43711 0.0
C566 C 0.40178 0.48719 0.49016 0.0
C567 C 0.43856 0.4796 0.45536 0.0
N568 N 0.35319 0.47078 0.45332 0.0
N569 N 0.41494 0.47141 0.44065 0.0
H570 H 0.00476 0.4249 0.88675 0.0
H571 H 0.8613 0.33869 0.81496 0.0
H572 H 0.93671 0.41022 0.94657 0.0
H573 H 0.9184 0.3159 0.79319 0.0
H574 H 0.89223 0.37283 0.85385 0.0
H575 H 0.97637 0.39166 0.8433 0.0
C576 C 0.98395 0.41469 0.89076 0.0
C577 C 0.97306 0.42019 0.92037 0.0
C578 C 0.89797 0.36036 0.84045 0.0
C579 C 0.94084 0.38305 0.87076 0.0
C580 C 0.88028 0.34073 0.81839 0.0
C581 C 0.88694 0.32387 0.80131 0.0
C582 C 0.92277 0.36363 0.84513 0.0
C583 C 0.91234 0.32836 0.80577 0.0
C584 C 0.96786 0.3958 0.8661 0.0
C585 C 0.94599 0.40647 0.92435 0.0
N586 N 0.92937 0.34781 0.82739 0.0
N587 N 0.93084 0.38875 0.89969 0.0
H588 H 0.98024 0.52687 0.95681 0.0
H589 H 0.83788 0.49576 0.91215 0.0
H590 H 0.91351 0.46491 0.0095 0.0
H591 H 0.90431 0.57228 0.89947 0.0
H592 H 0.86502 0.48252 0.94467 0.0
H593 H 0.95266 0.54257 0.93238 0.0
C594 C 0.95977 0.51665 0.96338 0.0
C595 C 0.94908 0.49449 0.98507 0.0
C596 C 0.87358 0.50226 0.93504 0.0
C597 C 0.91739 0.51218 0.95684 0.0
C598 C 0.85819 0.50975 0.91631 0.0
C599 C 0.86898 0.53509 0.90302 0.0
C600 C 0.90003 0.52011 0.93987 0.0
C601 C 0.89529 0.55259 0.9094 0.0
C602 C 0.94408 0.52569 0.94955 0.0
C603 C 0.92249 0.4821 0.99294 0.0
N604 N 0.91001 0.54469 0.92704 0.0
N605 N 0.90743 0.49092 0.9784 0.0
H606 H 0.39961 0.94701 0.45497 0.0
H607 H 0.3406 0.91325 0.25892 0.0
H608 H 0.44312 0.98924 0.36218 0.0
H609 H 0.29731 0.87746 0.35475 0.0
H610 H 0.37732 0.94392 0.2956 0.0
H611 H 0.36112 0.92382 0.41829 0.0
C612 C 0.40104 0.9515 0.42682 0.0
C613 C 0.4247 0.96992 0.41155 0.0
C614 C 0.35967 0.92952 0.30855 0.0
C615 C 0.38051 0.94318 0.36911 0.0
C616 C 0.33869 0.91212 0.28765 0.0
C617 C 0.31603 0.89258 0.30386 0.0
C618 C 0.35789 0.92728 0.34584 0.0
C619 C 0.31461 0.89188 0.34116 0.0
C620 C 0.37898 0.93827 0.40585 0.0
C621 C 0.42528 0.97512 0.37499 0.0
N622 N 0.33529 0.9088 0.36082 0.0
N623 N 0.40354 0.96159 0.35488 0.0
H624 H 0.44429 0.44768 0.88738 0.0
H625 H 0.43592 0.30983 0.88171 0.0
H626 H 0.43739 0.40163 0.9798 0.0
H627 H 0.43279 0.34851 0.78644 0.0
H628 H 0.4335 0.34261 0.91751 0.0
H629 H 0.43644 0.41086 0.84926 0.0
C630 C 0.44061 0.4297 0.89965 0.0
C631 C 0.44183 0.42781 0.93679 0.0
C632 C 0.43319 0.34399 0.88879 0.0
C633 C 0.43316 0.38592 0.89356 0.0
C634 C 0.43473 0.32533 0.86836 0.0
C635 C 0.43492 0.32671 0.83112 0.0
C636 C 0.43211 0.3645 0.87199 0.0
C637 C 0.4328 0.34687 0.81514 0.0
C638 C 0.43627 0.40876 0.87791 0.0
C639 C 0.43701 0.40411 0.9513 0.0
N640 N 0.4318 0.36523 0.8357 0.0
N641 N 0.43316 0.38427 0.92969 0.0
H642 H 0.08904 0.5433 0.49639 0.0
H643 H 0.09415 0.42611 0.40505 0.0
H644 H 0.0203 0.47834 0.45247 0.0
H645 H 0.15475 0.50553 0.38793 0.0
H646 H 0.0681 0.44209 0.43411 0.0
H647 H 0.11529 0.52649 0.46913 0.0
C648 C 0.07951 0.52542 0.48129 0.0
C649 C 0.05257 0.51223 0.4764 0.0
C650 C 0.08717 0.45588 0.424 0.0
C651 C 0.08218 0.49284 0.44595 0.0
C652 C 0.10203 0.44684 0.40711 0.0
C653 C 0.12687 0.46441 0.39383 0.0
C654 C 0.09739 0.48262 0.4284 0.0
C655 C 0.13607 0.4911 0.39834 0.0
C656 C 0.09444 0.51595 0.46567 0.0
C657 C 0.04108 0.48918 0.45653 0.0
N658 N 0.12142 0.49937 0.41546 0.0
N659 N 0.05595 0.48009 0.44219 0.0
H660 H 0.60359 0.05364 0.95359 0.0
H661 H 0.66358 0.09078 0.75747 0.0
H662 H 0.56052 0.013 0.85993 0.0
H663 H 0.70478 0.12839 0.85363 0.0
H664 H 0.62702 0.05923 0.79385 0.0
H665 H 0.642 0.07818 0.91698 0.0
C666 C 0.60224 0.04974 0.92526 0.0
C667 C 0.5787 0.03139 0.90976 0.0
C668 C 0.64417 0.07426 0.80694 0.0
C669 C 0.62285 0.05978 0.86734 0.0
C670 C 0.66508 0.09217 0.78622 0.0
C671 C 0.68713 0.11242 0.80256 0.0
C672 C 0.64541 0.07661 0.84423 0.0
C673 C 0.68797 0.11341 0.83988 0.0
C674 C 0.62426 0.0638 0.9043 0.0
C675 C 0.57827 0.02702 0.87295 0.0
N676 N 0.6674 0.09592 0.85936 0.0
N677 N 0.59997 0.04134 0.85287 0.0
H678 H 0.52912 0.58646 0.48003 0.0
H679 H 0.59862 0.67528 0.31143 0.0
H680 H 0.57003 0.56522 0.40433 0.0
H681 H 0.5298 0.6681 0.36065 0.0
H682 H 0.59487 0.64008 0.35002 0.0
H683 H 0.53665 0.62257 0.44201 0.0
C684 C 0.53995 0.58951 0.45556 0.0
C685 C 0.54881 0.57261 0.44526 0.0
C686 C 0.5806 0.64623 0.35214 0.0
C687 C 0.55743 0.61411 0.40149 0.0
C688 C 0.58275 0.66625 0.33031 0.0
C689 C 0.56437 0.67439 0.33282 0.0
C690 C 0.56032 0.63486 0.37707 0.0
C691 C 0.54418 0.66217 0.35762 0.0
C692 C 0.54408 0.61008 0.43376 0.0
C693 C 0.56274 0.57768 0.41319 0.0
N694 N 0.5428 0.64316 0.37894 0.0
N695 N 0.56664 0.59804 0.39232 0.0
H696 H 0.44869 0.04237 0.51401 0.0
H697 H 0.4512 0.09749 0.70772 0.0
H698 H 0.45421 0.00448 0.60871 0.0
H699 H 0.42328 0.11843 0.61479 0.0
H700 H 0.45348 0.06387 0.67262 0.0
H701 H 0.43991 0.07076 0.55102 0.0
C702 C 0.44782 0.03988 0.54265 0.0
C703 C 0.45227 0.02111 0.55834 0.0
C704 C 0.44662 0.07568 0.66008 0.0
C705 C 0.4426 0.05387 0.601 0.0
C706 C 0.44548 0.09495 0.67999 0.0
C707 C 0.43707 0.11079 0.66412 0.0
C708 C 0.43965 0.07253 0.62394 0.0
C709 C 0.42965 0.10652 0.62821 0.0
C710 C 0.44277 0.05608 0.56378 0.0
C711 C 0.45079 0.01866 0.59557 0.0
N712 N 0.43133 0.08798 0.6093 0.0
N713 N 0.44641 0.03511 0.61573 0.0
H714 H 0.40226 0.47612 0.05435 0.0
H715 H 0.31564 0.39808 0.22198 0.0
H716 H 0.42431 0.43282 0.12405 0.0
H717 H 0.31493 0.46348 0.17403 0.0
H718 H 0.35107 0.4049 0.18138 0.0
H719 H 0.36538 0.46561 0.09284 0.0
C720 C 0.39929 0.46425 0.07766 0.0
C721 C 0.41654 0.45546 0.08607 0.0
C722 C 0.3431 0.41769 0.17985 0.0
C723 C 0.37413 0.44332 0.13037 0.0
C724 C 0.32287 0.41375 0.20279 0.0
C725 C 0.31255 0.43037 0.20141 0.0
C726 C 0.35259 0.43807 0.15503 0.0
C727 C 0.32258 0.45044 0.17622 0.0
C728 C 0.37824 0.45835 0.09972 0.0
C729 C 0.41159 0.44013 0.11669 0.0
N730 N 0.34196 0.45366 0.15398 0.0
N731 N 0.39078 0.43451 0.13781 0.0
H732 H 0.97574 0.45894 0.55597 0.0
H733 H 0.83405 0.34212 0.59402 0.0
H734 H 0.90929 0.45083 0.49885 0.0
H735 H 0.90262 0.33642 0.61098 0.0
H736 H 0.86071 0.38374 0.5636 0.0
H737 H 0.94872 0.41575 0.5812 0.0
C738 C 0.95543 0.44805 0.54873 0.0
C739 C 0.94469 0.4585 0.52537 0.0
C740 C 0.86985 0.37326 0.57377 0.0
C741 C 0.91364 0.40913 0.55441 0.0
C742 C 0.85472 0.34966 0.59126 0.0
C743 C 0.86623 0.33593 0.60503 0.0
C744 C 0.89671 0.38339 0.57069 0.0
C745 C 0.89302 0.34637 0.60055 0.0
C746 C 0.94007 0.42335 0.56301 0.0
C747 C 0.91831 0.44344 0.51671 0.0
N748 N 0.90741 0.36962 0.58407 0.0
N749 N 0.90357 0.41956 0.53155 0.0
H750 H 0.51233 0.94069 0.03652 0.0
H751 H 0.59715 0.91565 0.17145 0.0
H752 H 0.57533 0.00649 0.08909 0.0
H753 H 0.5138 0.86679 0.16713 0.0
H754 H 0.59351 0.94864 0.13698 0.0
H755 H 0.51698 0.91187 0.07791 0.0
C756 C 0.52735 0.94909 0.05661 0.0
C757 C 0.54357 0.97603 0.05932 0.0
C758 C 0.5761 0.93075 0.14401 0.0
C759 C 0.54895 0.94302 0.10675 0.0
C760 C 0.57808 0.91193 0.16379 0.0
C761 C 0.55577 0.88808 0.17176 0.0
C762 C 0.55174 0.92544 0.13164 0.0
C763 C 0.53164 0.88441 0.16071 0.0
C764 C 0.5298 0.93262 0.08041 0.0
C765 C 0.56246 0.98581 0.0862 0.0
N766 N 0.53032 0.90268 0.14076 0.0
N767 N 0.56486 0.96923 0.1088 0.0
H768 H 0.5674 0.56219 0.6278 0.0
H769 H 0.66187 0.51356 0.69482 0.0
H770 H 0.58399 0.51056 0.56714 0.0
H771 H 0.68043 0.59237 0.71578 0.0
H772 H 0.62611 0.50776 0.65734 0.0
H773 H 0.60261 0.56968 0.66919 0.0
C774 C 0.57843 0.5525 0.62319 0.0
C775 C 0.57287 0.53582 0.59395 0.0
C776 C 0.63802 0.52631 0.67021 0.0
C777 C 0.61236 0.54378 0.64124 0.0
C778 C 0.65859 0.52975 0.69147 0.0
C779 C 0.67473 0.55374 0.70793 0.0
C780 C 0.63305 0.54677 0.66576 0.0
C781 C 0.66859 0.57355 0.70366 0.0
C782 C 0.59846 0.55682 0.64667 0.0
C783 C 0.58771 0.52373 0.58914 0.0
N784 N 0.64822 0.56965 0.68288 0.0
N785 N 0.60657 0.52775 0.6127 0.0
H786 H 0.03896 0.53319 0.08324 0.0
H787 H 0.14933 0.68168 0.0615 0.0
H788 H 0.08147 0.56398 0.98518 0.0
H789 H 0.11405 0.64577 0.16167 0.0
H790 H 0.12346 0.63968 0.03186 0.0
H791 H 0.06537 0.57514 0.11128 0.0
C792 C 0.05391 0.5488 0.06755 0.0
C793 C 0.05797 0.54505 0.03173 0.0
C794 C 0.12144 0.64103 0.06032 0.0
C795 C 0.08838 0.5934 0.06387 0.0
C796 C 0.13604 0.66499 0.07719 0.0
C797 C 0.13385 0.66716 0.1141 0.0
C798 C 0.10441 0.6192 0.08051 0.0
C799 C 0.11657 0.6449 0.13324 0.0
C800 C 0.06904 0.57279 0.08366 0.0
C801 C 0.07772 0.56602 0.01287 0.0
N802 N 0.10251 0.6219 0.11622 0.0
N803 N 0.09216 0.58939 0.02915 0.0
loop_
_geom_bond_atom_site_label_1
_geom_bond_atom_site_label_2
_geom_bond_distance
_geom_bond_site_symmetry_2
_ccdc_geom_bond_type
C0 O2 1.247 . S
C0 O4 1.258 . S
C1 O8 1.247 . S
C1 O9 1.258 . S
O2 C0 1.247 . S
O2 Zn3 2.028 1_455 S
Zn3 O2 2.028 1_655 S
Zn3 O7 2.035 1_554 S
Zn3 O9 2.035 1_554 S
Zn3 O10 2.028 1_655 S
O4 C0 1.258 . S
O4 Zn5 2.035 1_554 S
Zn5 O4 2.035 1_556 S
Zn5 O6 2.028 1_455 S
Zn5 O8 2.028 1_455 S
Zn5 O11 2.035 1_556 S
O6 Zn5 2.028 1_655 S
O6 C12 1.247 . S
O7 Zn3 2.035 1_556 S
O7 C12 1.258 . S
O8 C1 1.247 . S
O8 Zn5 2.028 1_655 S
O9 C1 1.258 . S
O9 Zn3 2.035 1_556 S
O10 Zn3 2.028 1_455 S
O10 C13 1.247 . S
O11 Zn5 2.035 1_554 S
O11 C13 1.258 . S
C12 O6 1.247 . S
C12 O7 1.258 . S
C13 O10 1.247 . S
C13 O11 1.258 . S
C14 O16 1.247 . S
C14 O18 1.258 . S
C15 O22 1.247 . S
C15 O23 1.258 . S
O16 C14 1.247 . S
O16 Zn17 2.028 1_545 S
Zn17 O16 2.028 1_565 S
Zn17 O21 2.035 . S
Zn17 O23 2.035 . S
Zn17 O24 2.028 1_565 S
O18 C14 1.258 . S
O18 Zn19 2.035 . S
Zn19 O18 2.035 . S
Zn19 O20 2.028 1_545 S
Zn19 O22 2.028 1_545 S
Zn19 O25 2.035 . S
O20 Zn19 2.028 1_565 S
O20 C26 1.247 . S
O21 Zn17 2.035 . S
O21 C26 1.258 . S
O22 C15 1.247 . S
O22 Zn19 2.028 1_565 S
O23 C15 1.258 . S
O23 Zn17 2.035 . S
O24 Zn17 2.028 1_545 S
O24 C27 1.247 . S
O25 Zn19 2.035 . S
O25 C27 1.258 . S
C26 O20 1.247 . S
C26 O21 1.258 . S
C27 O24 1.247 . S
C27 O25 1.258 . S
C28 O30 1.247 . S
C28 O32 1.258 . S
C29 O36 1.247 . S
C29 O37 1.258 . S
O30 C28 1.247 . S
O30 Zn31 2.028 . S
Zn31 O30 2.028 . S
Zn31 O35 2.035 1_556 S
Zn31 O37 2.035 1_556 S
Zn31 O38 2.028 . S
O32 C28 1.258 . S
O32 Zn33 2.035 1_556 S
Zn33 O32 2.035 1_554 S
Zn33 O34 2.028 . S
Zn33 O36 2.028 . S
Zn33 O39 2.035 1_554 S
O34 Zn33 2.028 . S
O34 C40 1.247 . S
O35 Zn31 2.035 1_554 S
O35 C40 1.258 . S
O36 C29 1.247 . S
O36 Zn33 2.028 . S
O37 C29 1.258 . S
O37 Zn31 2.035 1_554 S
O38 Zn31 2.028 . S
O38 C41 1.247 . S
O39 Zn33 2.035 1_556 S
O39 C41 1.258 . S
C40 O34 1.247 . S
C40 O35 1.258 . S
C41 O38 1.247 . S
C41 O39 1.258 . S
C42 O44 1.247 . S
C42 O46 1.258 . S
C43 O50 1.247 . S
C43 O51 1.258 . S
O44 C42 1.247 . S
O44 Zn45 2.028 . S
Zn45 O44 2.028 . S
Zn45 O49 2.035 1_455 S
Zn45 O51 2.035 1_455 S
Zn45 O52 2.028 . S
O46 C42 1.258 . S
O46 Zn47 2.035 1_455 S
Zn47 O46 2.035 1_655 S
Zn47 O48 2.028 . S
Zn47 O50 2.028 . S
Zn47 O53 2.035 1_655 S
O48 Zn47 2.028 . S
O48 C54 1.247 . S
O49 Zn45 2.035 1_655 S
O49 C54 1.258 . S
O50 C43 1.247 . S
O50 Zn47 2.028 . S
O51 C43 1.258 . S
O51 Zn45 2.035 1_655 S
O52 Zn45 2.028 . S
O52 C55 1.247 . S
O53 Zn47 2.035 1_455 S
O53 C55 1.258 . S
C54 O48 1.247 . S
C54 O49 1.258 . S
C55 O52 1.247 . S
C55 O53 1.258 . S
C56 O58 1.247 . S
C56 O60 1.258 . S
C57 O64 1.247 . S
C57 O65 1.258 . S
O58 C56 1.247 . S
O58 Zn59 2.028 1_565 S
Zn59 O58 2.028 1_545 S
Zn59 O63 2.035 1_554 S
Zn59 O65 2.035 1_554 S
Zn59 O66 2.028 1_545 S
O60 C56 1.258 . S
O60 Zn61 2.035 1_554 S
Zn61 O60 2.035 1_556 S
Zn61 O62 2.028 1_565 S
Zn61 O64 2.028 1_565 S
Zn61 O67 2.035 1_556 S
O62 Zn61 2.028 1_545 S
O62 C68 1.247 . S
O63 Zn59 2.035 1_556 S
O63 C68 1.258 . S
O64 C57 1.247 . S
O64 Zn61 2.028 1_545 S
O65 C57 1.258 . S
O65 Zn59 2.035 1_556 S
O66 Zn59 2.028 1_565 S
O66 C69 1.247 . S
O67 Zn61 2.035 1_554 S
O67 C69 1.258 . S
C68 O62 1.247 . S
C68 O63 1.258 . S
C69 O66 1.247 . S
C69 O67 1.258 . S
C70 O72 1.247 . S
C70 O74 1.258 . S
C71 O78 1.247 . S
C71 O79 1.258 . S
O72 C70 1.247 . S
O72 Zn73 2.028 . S
Zn73 O72 2.028 . S
Zn73 O77 2.035 . S
Zn73 O79 2.035 . S
Zn73 O80 2.028 . S
O74 C70 1.258 . S
O74 Zn75 2.035 . S
Zn75 O74 2.035 . S
Zn75 O76 2.028 . S
Zn75 O78 2.028 . S
Zn75 O81 2.035 . S
O76 Zn75 2.028 . S
O76 C82 1.247 . S
O77 Zn73 2.035 . S
O77 C82 1.258 . S
O78 C71 1.247 . S
O78 Zn75 2.028 . S
O79 C71 1.258 . S
O79 Zn73 2.035 . S
O80 Zn73 2.028 . S
O80 C83 1.247 . S
O81 Zn75 2.035 . S
O81 C83 1.258 . S
C82 O76 1.247 . S
C82 O77 1.258 . S
C83 O80 1.247 . S
C83 O81 1.258 . S
H84 C103 0.949 . S
H85 C104 0.950 . S
H86 C106 0.950 . S
H87 C107 0.950 . S
H88 C109 0.950 . S
H89 C112 0.950 . S
H90 C113 0.950 . S
H91 C115 0.951 . S
H92 C116 0.949 . S
H93 C118 0.949 . S
H94 C119 0.950 . S
H95 C121 0.950 . S
H96 C122 0.950 . S
H97 C124 0.950 . S
H98 C127 0.950 . S
H99 C128 0.950 . S
H100 C130 0.951 . S
H101 C131 0.949 . S
C102 C103 1.376 . S
C102 C107 1.386 . S
C102 C108 1.483 . S
C103 H84 0.949 . S
C103 C102 1.376 . S
C103 C104 1.397 . S
C104 H85 0.950 . S
C104 C103 1.397 . S
C104 C105 1.391 . S
C105 C104 1.391 . S
C105 C106 1.405 . S
C106 H86 0.950 . S
C106 C105 1.405 . S
C106 C107 1.367 . S
C107 H87 0.950 . S
C107 C102 1.386 . S
C107 C106 1.367 . S
C108 C102 1.483 . S
C108 C109 1.382 . S
C108 C110 1.403 . S
C109 H88 0.950 . S
C109 C108 1.382 . S
C109 C125 1.411 . S
C110 C108 1.403 . S
C110 C111 1.489 . S
C110 C124 1.411 . S
C111 C110 1.489 . S
C111 C112 1.383 . S
C111 C116 1.382 . S
C112 H89 0.950 . S
C112 C111 1.383 . S
C112 C113 1.395 . S
C113 H90 0.950 . S
C113 C112 1.395 . S
C113 C114 1.288 . S
C114 C113 1.288 . S
C114 C115 1.392 . S
C115 H91 0.951 . S
C115 C114 1.392 . S
C115 C116 1.392 . S
C116 H92 0.949 . S
C116 C111 1.382 . S
C116 C115 1.392 . S
C117 C118 1.376 . S
C117 C122 1.386 . S
C117 C123 1.483 . S
C118 H93 0.949 . S
C118 C117 1.376 . S
C118 C119 1.397 . S
C119 H94 0.950 . S
C119 C118 1.397 . S
C119 C120 1.391 . S
C120 C119 1.391 . S
C120 C121 1.405 . S
C121 H95 0.950 . S
C121 C120 1.405 . S
C121 C122 1.367 . S
C122 H96 0.950 . S
C122 C117 1.386 . S
C122 C121 1.367 . S
C123 C117 1.483 . S
C123 C124 1.382 . S
C123 C125 1.403 . S
C124 H97 0.950 . S
C124 C110 1.411 . S
C124 C123 1.382 . S
C125 C109 1.411 . S
C125 C123 1.403 . S
C125 C126 1.489 . S
C126 C125 1.489 . S
C126 C127 1.383 . S
C126 C131 1.382 . S
C127 H98 0.950 . S
C127 C126 1.383 . S
C127 C128 1.395 . S
C128 H99 0.950 . S
C128 C127 1.395 . S
C128 C129 1.288 . S
C129 C128 1.288 . S
C129 C130 1.392 . S
C130 H100 0.951 . S
C130 C129 1.392 . S
C130 C131 1.392 . S
C131 H101 0.949 . S
C131 C126 1.382 . S
C131 C130 1.392 . S
H132 C151 0.949 . S
H133 C152 0.950 . S
H134 C154 0.950 . S
H135 C155 0.950 . S
H136 C157 0.950 . S
H137 C160 0.950 . S
H138 C161 0.950 . S
H139 C163 0.951 . S
H140 C164 0.949 . S
H141 C166 0.949 . S
H142 C167 0.950 . S
H143 C169 0.950 . S
H144 C170 0.950 . S
H145 C172 0.950 . S
H146 C175 0.950 . S
H147 C176 0.950 . S
H148 C178 0.951 . S
H149 C179 0.949 . S
C150 C151 1.376 . S
C150 C155 1.386 . S
C150 C156 1.483 . S
C151 H132 0.949 . S
C151 C150 1.376 . S
C151 C152 1.397 . S
C152 H133 0.950 . S
C152 C151 1.397 . S
C152 C153 1.391 . S
C153 C152 1.391 . S
C153 C154 1.405 . S
C154 H134 0.950 . S
C154 C153 1.405 . S
C154 C155 1.367 . S
C155 H135 0.950 . S
C155 C150 1.386 . S
C155 C154 1.367 . S
C156 C150 1.483 . S
C156 C157 1.382 . S
C156 C158 1.403 . S
C157 H136 0.950 . S
C157 C156 1.382 . S
C157 C173 1.411 . S
C158 C156 1.403 . S
C158 C159 1.489 . S
C158 C172 1.411 . S
C159 C158 1.489 . S
C159 C160 1.383 . S
C159 C164 1.382 . S
C160 H137 0.950 . S
C160 C159 1.383 . S
C160 C161 1.395 . S
C161 H138 0.950 . S
C161 C160 1.395 . S
C161 C162 1.288 . S
C162 C161 1.288 . S
C162 C163 1.392 . S
C163 H139 0.951 . S
C163 C162 1.392 . S
C163 C164 1.392 . S
C164 H140 0.949 . S
C164 C159 1.382 . S
C164 C163 1.392 . S
C165 C166 1.376 . S
C165 C170 1.386 . S
C165 C171 1.483 . S
C166 H141 0.949 . S
C166 C165 1.376 . S
C166 C167 1.397 . S
C167 H142 0.950 . S
C167 C166 1.397 . S
C167 C168 1.391 . S
C168 C167 1.391 . S
C168 C169 1.405 . S
C169 H143 0.950 . S
C169 C168 1.405 . S
C169 C170 1.367 . S
C170 H144 0.950 . S
C170 C165 1.386 . S
C170 C169 1.367 . S
C171 C165 1.483 . S
C171 C172 1.382 . S
C171 C173 1.403 . S
C172 H145 0.950 . S
C172 C158 1.411 . S
C172 C171 1.382 . S
C173 C157 1.411 . S
C173 C171 1.403 . S
C173 C174 1.489 . S
C174 C173 1.489 . S
C174 C175 1.383 . S
C174 C179 1.382 . S
C175 H146 0.950 . S
C175 C174 1.383 . S
C175 C176 1.395 . S
C176 H147 0.950 . S
C176 C175 1.395 . S
C176 C177 1.288 . S
C177 C176 1.288 . S
C177 C178 1.392 . S
C178 H148 0.951 . S
C178 C177 1.392 . S
C178 C179 1.392 . S
C179 H149 0.949 . S
C179 C174 1.382 . S
C179 C178 1.392 . S
H180 C199 0.949 . S
H181 C200 0.950 . S
H182 C202 0.950 . S
H183 C203 0.950 . S
H184 C205 0.950 . S
H185 C208 0.950 . S
H186 C209 0.950 . S
H187 C211 0.951 . S
H188 C212 0.949 . S
H189 C214 0.949 . S
H190 C215 0.950 . S
H191 C217 0.950 . S
H192 C218 0.950 . S
H193 C220 0.950 . S
H194 C223 0.950 . S
H195 C224 0.950 . S
H196 C226 0.951 . S
H197 C227 0.949 . S
C198 C199 1.376 . S
C198 C203 1.386 . S
C198 C204 1.483 . S
C199 H180 0.949 . S
C199 C198 1.376 . S
C199 C200 1.397 . S
C200 H181 0.950 . S
C200 C199 1.397 . S
C200 C201 1.391 . S
C201 C200 1.391 . S
C201 C202 1.405 . S
C202 H182 0.950 . S
C202 C201 1.405 . S
C202 C203 1.367 . S
C203 H183 0.950 . S
C203 C198 1.386 . S
C203 C202 1.367 . S
C204 C198 1.483 . S
C204 C205 1.382 . S
C204 C206 1.403 . S
C205 H184 0.950 . S
C205 C204 1.382 . S
C205 C221 1.411 . S
C206 C204 1.403 . S
C206 C207 1.489 . S
C206 C220 1.411 . S
C207 C206 1.489 . S
C207 C208 1.383 . S
C207 C212 1.382 . S
C208 H185 0.950 . S
C208 C207 1.383 . S
C208 C209 1.395 . S
C209 H186 0.950 . S
C209 C208 1.395 . S
C209 C210 1.288 . S
C210 C209 1.288 . S
C210 C211 1.392 . S
C211 H187 0.951 . S
C211 C210 1.392 . S
C211 C212 1.392 . S
C212 H188 0.949 . S
C212 C207 1.382 . S
C212 C211 1.392 . S
C213 C214 1.376 . S
C213 C218 1.386 . S
C213 C219 1.483 . S
C214 H189 0.949 . S
C214 C213 1.376 . S
C214 C215 1.397 . S
C215 H190 0.950 . S
C215 C214 1.397 . S
C215 C216 1.391 . S
C216 C215 1.391 . S
C216 C217 1.405 . S
C217 H191 0.950 . S
C217 C216 1.405 . S
C217 C218 1.367 . S
C218 H192 0.950 . S
C218 C213 1.386 . S
C218 C217 1.367 . S
C219 C213 1.483 . S
C219 C220 1.382 . S
C219 C221 1.403 . S
C220 H193 0.950 . S
C220 C206 1.411 . S
C220 C219 1.382 . S
C221 C205 1.411 . S
C221 C219 1.403 . S
C221 C222 1.489 . S
C222 C221 1.489 . S
C222 C223 1.383 . S
C222 C227 1.382 . S
C223 H194 0.950 . S
C223 C222 1.383 . S
C223 C224 1.395 . S
C224 H195 0.950 . S
C224 C223 1.395 . S
C224 C225 1.288 . S
C225 C224 1.288 . S
C225 C226 1.392 . S
C226 H196 0.951 . S
C226 C225 1.392 . S
C226 C227 1.392 . S
C227 H197 0.949 . S
C227 C222 1.382 . S
C227 C226 1.392 . S
H228 C247 0.949 . S
H229 C248 0.950 . S
H230 C250 0.950 . S
H231 C251 0.950 . S
H232 C253 0.950 . S
H233 C256 0.950 . S
H234 C257 0.950 . S
H235 C259 0.951 . S
H236 C260 0.949 . S
H237 C262 0.949 . S
H238 C263 0.950 . S
H239 C265 0.950 . S
H240 C266 0.950 . S
H241 C268 0.950 . S
H242 C271 0.950 . S
H243 C272 0.950 . S
H244 C274 0.951 . S
H245 C275 0.949 . S
C246 C247 1.376 . S
C246 C251 1.386 . S
C246 C252 1.483 . S
C247 H228 0.949 . S
C247 C246 1.376 . S
C247 C248 1.397 . S
C248 H229 0.950 . S
C248 C247 1.397 . S
C248 C249 1.391 . S
C249 C248 1.391 . S
C249 C250 1.405 . S
C250 H230 0.950 . S
C250 C249 1.405 . S
C250 C251 1.367 . S
C251 H231 0.950 . S
C251 C246 1.386 . S
C251 C250 1.367 . S
C252 C246 1.483 . S
C252 C253 1.382 . S
C252 C254 1.403 . S
C253 H232 0.950 . S
C253 C252 1.382 . S
C253 C269 1.411 . S
C254 C252 1.403 . S
C254 C255 1.489 . S
C254 C268 1.411 . S
C255 C254 1.489 . S
C255 C256 1.383 . S
C255 C260 1.382 . S
C256 H233 0.950 . S
C256 C255 1.383 . S
C256 C257 1.395 . S
C257 H234 0.950 . S
C257 C256 1.395 . S
C257 C258 1.288 . S
C258 C257 1.288 . S
C258 C259 1.392 . S
C259 H235 0.951 . S
C259 C258 1.392 . S
C259 C260 1.392 . S
C260 H236 0.949 . S
C260 C255 1.382 . S
C260 C259 1.392 . S
C261 C262 1.376 . S
C261 C266 1.386 . S
C261 C267 1.483 . S
C262 H237 0.949 . S
C262 C261 1.376 . S
C262 C263 1.397 . S
C263 H238 0.950 . S
C263 C262 1.397 . S
C263 C264 1.391 . S
C264 C263 1.391 . S
C264 C265 1.405 . S
C265 H239 0.950 . S
C265 C264 1.405 . S
C265 C266 1.367 . S
C266 H240 0.950 . S
C266 C261 1.386 . S
C266 C265 1.367 . S
C267 C261 1.483 . S
C267 C268 1.382 . S
C267 C269 1.403 . S
C268 H241 0.950 . S
C268 C254 1.411 . S
C268 C267 1.382 . S
C269 C253 1.411 . S
C269 C267 1.403 . S
C269 C270 1.489 . S
C270 C269 1.489 . S
C270 C271 1.383 . S
C270 C275 1.382 . S
C271 H242 0.950 . S
C271 C270 1.383 . S
C271 C272 1.395 . S
C272 H243 0.950 . S
C272 C271 1.395 . S
C272 C273 1.288 . S
C273 C272 1.288 . S
C273 C274 1.392 . S
C274 H244 0.951 . S
C274 C273 1.392 . S
C274 C275 1.392 . S
C275 H245 0.949 . S
C275 C270 1.382 . S
C275 C274 1.392 . S
H276 C295 0.949 . S
H277 C296 0.950 . S
H278 C298 0.950 . S
H279 C299 0.950 . S
H280 C301 0.950 . S
H281 C304 0.950 . S
H282 C305 0.950 . S
H283 C307 0.951 . S
H284 C308 0.949 . S
H285 C310 0.949 . S
H286 C311 0.950 . S
H287 C313 0.950 . S
H288 C314 0.950 . S
H289 C316 0.950 . S
H290 C319 0.950 . S
H291 C320 0.950 . S
H292 C322 0.951 . S
H293 C323 0.949 . S
C294 C295 1.376 . S
C294 C299 1.386 . S
C294 C300 1.483 . S
C295 H276 0.949 . S
C295 C294 1.376 . S
C295 C296 1.397 . S
C296 H277 0.950 . S
C296 C295 1.397 . S
C296 C297 1.391 . S
C297 C296 1.391 . S
C297 C298 1.405 . S
C298 H278 0.950 . S
C298 C297 1.405 . S
C298 C299 1.367 . S
C299 H279 0.950 . S
C299 C294 1.386 . S
C299 C298 1.367 . S
C300 C294 1.483 . S
C300 C301 1.382 . S
C300 C302 1.403 . S
C301 H280 0.950 . S
C301 C300 1.382 . S
C301 C317 1.411 . S
C302 C300 1.403 . S
C302 C303 1.489 . S
C302 C316 1.411 . S
C303 C302 1.489 . S
C303 C304 1.383 . S
C303 C308 1.382 . S
C304 H281 0.950 . S
C304 C303 1.383 . S
C304 C305 1.395 . S
C305 H282 0.950 . S
C305 C304 1.395 . S
C305 C306 1.288 . S
C306 C305 1.288 . S
C306 C307 1.392 . S
C307 H283 0.951 . S
C307 C306 1.392 . S
C307 C308 1.392 . S
C308 H284 0.949 . S
C308 C303 1.382 . S
C308 C307 1.392 . S
C309 C310 1.376 . S
C309 C314 1.386 . S
C309 C315 1.483 . S
C310 H285 0.949 . S
C310 C309 1.376 . S
C310 C311 1.397 . S
C311 H286 0.950 . S
C311 C310 1.397 . S
C311 C312 1.391 . S
C312 C311 1.391 . S
C312 C313 1.405 . S
C313 H287 0.950 . S
C313 C312 1.405 . S
C313 C314 1.367 . S
C314 H288 0.950 . S
C314 C309 1.386 . S
C314 C313 1.367 . S
C315 C309 1.483 . S
C315 C316 1.382 . S
C315 C317 1.403 . S
C316 H289 0.950 . S
C316 C302 1.411 . S
C316 C315 1.382 . S
C317 C301 1.411 . S
C317 C315 1.403 . S
C317 C318 1.489 . S
C318 C317 1.489 . S
C318 C319 1.383 . S
C318 C323 1.382 . S
C319 H290 0.950 . S
C319 C318 1.383 . S
C319 C320 1.395 . S
C320 H291 0.950 . S
C320 C319 1.395 . S
C320 C321 1.288 . S
C321 C320 1.288 . S
C321 C322 1.392 . S
C322 H292 0.951 . S
C322 C321 1.392 . S
C322 C323 1.392 . S
C323 H293 0.949 . S
C323 C318 1.382 . S
C323 C322 1.392 . S
H324 C343 0.949 . S
H325 C344 0.950 . S
H326 C346 0.950 . S
H327 C347 0.950 . S
H328 C349 0.950 . S
H329 C352 0.950 . S
H330 C353 0.950 . S
H331 C355 0.951 . S
H332 C356 0.949 . S
H333 C358 0.949 . S
H334 C359 0.950 . S
H335 C361 0.950 . S
H336 C362 0.950 . S
H337 C364 0.950 . S
H338 C367 0.950 . S
H339 C368 0.950 . S
H340 C370 0.951 . S
H341 C371 0.949 . S
C342 C343 1.376 . S
C342 C347 1.386 . S
C342 C348 1.483 . S
C343 H324 0.949 . S
C343 C342 1.376 . S
C343 C344 1.397 . S
C344 H325 0.950 . S
C344 C343 1.397 . S
C344 C345 1.391 . S
C345 C344 1.391 . S
C345 C346 1.405 . S
C346 H326 0.950 . S
C346 C345 1.405 . S
C346 C347 1.367 . S
C347 H327 0.950 . S
C347 C342 1.386 . S
C347 C346 1.367 . S
C348 C342 1.483 . S
C348 C349 1.382 . S
C348 C350 1.403 . S
C349 H328 0.950 . S
C349 C348 1.382 . S
C349 C365 1.411 . S
C350 C348 1.403 . S
C350 C351 1.489 . S
C350 C364 1.411 . S
C351 C350 1.489 . S
C351 C352 1.383 . S
C351 C356 1.382 . S
C352 H329 0.950 . S
C352 C351 1.383 . S
C352 C353 1.395 . S
C353 H330 0.950 . S
C353 C352 1.395 . S
C353 C354 1.288 . S
C354 C353 1.288 . S
C354 C355 1.392 . S
C355 H331 0.951 . S
C355 C354 1.392 . S
C355 C356 1.392 . S
C356 H332 0.949 . S
C356 C351 1.382 . S
C356 C355 1.392 . S
C357 C358 1.376 . S
C357 C362 1.386 . S
C357 C363 1.483 . S
C358 H333 0.949 . S
C358 C357 1.376 . S
C358 C359 1.397 . S
C359 H334 0.950 . S
C359 C358 1.397 . S
C359 C360 1.391 . S
C360 C359 1.391 . S
C360 C361 1.405 . S
C361 H335 0.950 . S
C361 C360 1.405 . S
C361 C362 1.367 . S
C362 H336 0.950 . S
C362 C357 1.386 . S
C362 C361 1.367 . S
C363 C357 1.483 . S
C363 C364 1.382 . S
C363 C365 1.403 . S
C364 H337 0.950 . S
C364 C350 1.411 . S
C364 C363 1.382 . S
C365 C349 1.411 . S
C365 C363 1.403 . S
C365 C366 1.489 . S
C366 C365 1.489 . S
C366 C367 1.383 . S
C366 C371 1.382 . S
C367 H338 0.950 . S
C367 C366 1.383 . S
C367 C368 1.395 . S
C368 H339 0.950 . S
C368 C367 1.395 . S
C368 C369 1.288 . S
C369 C368 1.288 . S
C369 C370 1.392 . S
C370 H340 0.951 . S
C370 C369 1.392 . S
C370 C371 1.392 . S
C371 H341 0.949 . S
C371 C366 1.382 . S
C371 C370 1.392 . S
H372 C378 0.930 . S
H373 C382 0.930 . S
H374 C387 0.929 . S
H375 C385 0.929 . S
H376 C380 0.929 . S
H377 C386 0.929 . S
C378 H372 0.930 . S
C378 C379 1.367 . S
C378 C386 1.378 . S
C379 C378 1.367 . S
C379 C387 1.433 . S
C380 H376 0.929 . S
C380 C382 1.378 . S
C380 C384 1.350 . S
C381 C384 1.463 . S
C381 C386 1.350 . S
C381 N389 1.427 . S
C382 H373 0.930 . S
C382 C380 1.378 . S
C382 C383 1.367 . S
C383 C382 1.367 . S
C383 C385 1.433 . S
C384 C380 1.350 . S
C384 C381 1.463 . S
C384 N388 1.427 . S
C385 H375 0.929 . S
C385 C383 1.433 . S
C385 N388 1.384 . S
C386 H377 0.929 . S
C386 C378 1.378 . S
C386 C381 1.350 . S
C387 H374 0.929 . S
C387 C379 1.433 . S
C387 N389 1.384 . S
N388 C384 1.427 . S
N388 C385 1.384 . S
N389 C381 1.427 . S
N389 C387 1.384 . S
H390 C396 0.930 . S
H391 C400 0.930 . S
H392 C405 0.929 . S
H393 C403 0.929 . S
H394 C398 0.929 . S
H395 C404 0.929 . S
C396 H390 0.930 . S
C396 C397 1.367 . S
C396 C404 1.378 . S
C397 C396 1.367 . S
C397 C405 1.433 . S
C398 H394 0.929 . S
C398 C400 1.378 . S
C398 C402 1.350 . S
C399 C402 1.463 . S
C399 C404 1.350 . S
C399 N407 1.427 . S
C400 H391 0.930 . S
C400 C398 1.378 . S
C400 C401 1.367 . S
C401 C400 1.367 . S
C401 C403 1.433 . S
C402 C398 1.350 . S
C402 C399 1.463 . S
C402 N406 1.427 . S
C403 H393 0.929 . S
C403 C401 1.433 . S
C403 N406 1.384 . S
C404 H395 0.929 . S
C404 C396 1.378 . S
C404 C399 1.350 . S
C405 H392 0.929 . S
C405 C397 1.433 . S
C405 N407 1.384 . S
N406 C402 1.427 . S
N406 C403 1.384 . S
N407 C399 1.427 . S
N407 C405 1.384 . S
H408 C414 0.930 . S
H409 C418 0.930 . S
H410 C423 0.929 . S
H411 C421 0.929 . S
H412 C416 0.929 . S
H413 C422 0.929 . S
C414 H408 0.930 . S
C414 C415 1.367 . S
C414 C422 1.378 . S
C415 C414 1.367 . S
C415 C423 1.433 . S
C416 H412 0.929 . S
C416 C418 1.378 . S
C416 C420 1.350 . S
C417 C420 1.463 . S
C417 C422 1.350 . S
C417 N425 1.427 . S
C418 H409 0.930 . S
C418 C416 1.378 . S
C418 C419 1.367 . S
C419 C418 1.367 . S
C419 C421 1.433 . S
C420 C416 1.350 . S
C420 C417 1.463 . S
C420 N424 1.427 . S
C421 H411 0.929 . S
C421 C419 1.433 . S
C421 N424 1.384 . S
C422 H413 0.929 . S
C422 C414 1.378 . S
C422 C417 1.350 . S
C423 H410 0.929 . S
C423 C415 1.433 . S
C423 N425 1.384 . S
N424 C420 1.427 . S
N424 C421 1.384 . S
N425 C417 1.427 . S
N425 C423 1.384 . S
H426 C432 0.930 . S
H427 C436 0.930 . S
H428 C441 0.929 . S
H429 C439 0.929 . S
H430 C434 0.929 . S
H431 C440 0.929 . S
C432 H426 0.930 . S
C432 C433 1.367 . S
C432 C440 1.378 . S
C433 C432 1.367 . S
C433 C441 1.433 . S
C434 H430 0.929 . S
C434 C436 1.378 . S
C434 C438 1.350 . S
C435 C438 1.463 . S
C435 C440 1.350 . S
C435 N443 1.427 . S
C436 H427 0.930 . S
C436 C434 1.378 . S
C436 C437 1.367 . S
C437 C436 1.367 . S
C437 C439 1.433 . S
C438 C434 1.350 . S
C438 C435 1.463 . S
C438 N442 1.427 . S
C439 H429 0.929 . S
C439 C437 1.433 . S
C439 N442 1.384 . S
C440 H431 0.929 . S
C440 C432 1.378 . S
C440 C435 1.350 . S
C441 H428 0.929 . S
C441 C433 1.433 . S
C441 N443 1.384 . S
N442 C438 1.427 . S
N442 C439 1.384 . S
N443 C435 1.427 . S
N443 C441 1.384 . S
H444 C450 0.930 . S
H445 C454 0.930 . S
H446 C459 0.929 . S
H447 C457 0.929 . S
H448 C452 0.929 . S
H449 C458 0.929 . S
C450 H444 0.930 . S
C450 C451 1.367 . S
C450 C458 1.378 . S
C451 C450 1.367 . S
C451 C459 1.433 . S
C452 H448 0.929 . S
C452 C454 1.378 . S
C452 C456 1.350 . S
C453 C456 1.463 . S
C453 C458 1.350 . S
C453 N461 1.427 . S
C454 H445 0.930 . S
C454 C452 1.378 . S
C454 C455 1.367 . S
C455 C454 1.367 . S
C455 C457 1.433 . S
C456 C452 1.350 . S
C456 C453 1.463 . S
C456 N460 1.427 . S
C457 H447 0.929 . S
C457 C455 1.433 . S
C457 N460 1.384 . S
C458 H449 0.929 . S
C458 C450 1.378 . S
C458 C453 1.350 . S
C459 H446 0.929 . S
C459 C451 1.433 . S
C459 N461 1.384 . S
N460 C456 1.427 . S
N460 C457 1.384 . S
N461 C453 1.427 . S
N461 C459 1.384 . S
H462 C468 0.930 . S
H463 C472 0.930 . S
H464 C477 0.929 . S
H465 C475 0.929 . S
H466 C470 0.929 . S
H467 C476 0.929 . S
C468 H462 0.930 . S
C468 C469 1.367 . S
C468 C476 1.378 . S
C469 C468 1.367 . S
C469 C477 1.433 . S
C470 H466 0.929 . S
C470 C472 1.378 . S
C470 C474 1.350 . S
C471 C474 1.463 . S
C471 C476 1.350 . S
C471 N479 1.427 . S
C472 H463 0.930 . S
C472 C470 1.378 . S
C472 C473 1.367 . S
C473 C472 1.367 . S
C473 C475 1.433 . S
C474 C470 1.350 . S
C474 C471 1.463 . S
C474 N478 1.427 . S
C475 H465 0.929 . S
C475 C473 1.433 . S
C475 N478 1.384 . S
C476 H467 0.929 . S
C476 C468 1.378 . S
C476 C471 1.350 . S
C477 H464 0.929 . S
C477 C469 1.433 . S
C477 N479 1.384 . S
N478 C474 1.427 . S
N478 C475 1.384 . S
N479 C471 1.427 . S
N479 C477 1.384 . S
H480 C486 0.930 . S
H481 C490 0.930 . S
H482 C495 0.929 . S
H483 C493 0.929 . S
H484 C488 0.929 . S
H485 C494 0.929 . S
C486 H480 0.930 . S
C486 C487 1.367 . S
C486 C494 1.378 . S
C487 C486 1.367 . S
C487 C495 1.433 . S
C488 H484 0.929 . S
C488 C490 1.378 . S
C488 C492 1.350 . S
C489 C492 1.463 . S
C489 C494 1.350 . S
C489 N497 1.427 . S
C490 H481 0.930 . S
C490 C488 1.378 . S
C490 C491 1.367 . S
C491 C490 1.367 . S
C491 C493 1.433 . S
C492 C488 1.350 . S
C492 C489 1.463 . S
C492 N496 1.427 . S
C493 H483 0.929 . S
C493 C491 1.433 . S
C493 N496 1.384 . S
C494 H485 0.929 . S
C494 C486 1.378 . S
C494 C489 1.350 . S
C495 H482 0.929 . S
C495 C487 1.433 . S
C495 N497 1.384 . S
N496 C492 1.427 . S
N496 C493 1.384 . S
N497 C489 1.427 . S
N497 C495 1.384 . S
H498 C504 0.930 . S
H499 C508 0.930 . S
H500 C513 0.929 . S
H501 C511 0.929 . S
H502 C506 0.929 . S
H503 C512 0.929 . S
C504 H498 0.930 . S
C504 C505 1.367 . S
C504 C512 1.378 . S
C505 C504 1.367 . S
C505 C513 1.433 . S
C506 H502 0.929 . S
C506 C508 1.378 . S
C506 C510 1.350 . S
C507 C510 1.463 . S
C507 C512 1.350 . S
C507 N515 1.427 . S
C508 H499 0.930 . S
C508 C506 1.378 . S
C508 C509 1.367 . S
C509 C508 1.367 . S
C509 C511 1.433 . S
C510 C506 1.350 . S
C510 C507 1.463 . S
C510 N514 1.427 . S
C511 H501 0.929 . S
C511 C509 1.433 . S
C511 N514 1.384 . S
C512 H503 0.929 . S
C512 C504 1.378 . S
C512 C507 1.350 . S
C513 H500 0.929 . S
C513 C505 1.433 . S
C513 N515 1.384 . S
N514 C510 1.427 . S
N514 C511 1.384 . S
N515 C507 1.427 . S
N515 C513 1.384 . S
H516 C522 0.930 . S
H517 C526 0.930 . S
H518 C531 0.929 . S
H519 C529 0.929 . S
H520 C524 0.929 . S
H521 C530 0.929 . S
C522 H516 0.930 . S
C522 C523 1.367 . S
C522 C530 1.378 . S
C523 C522 1.367 . S
C523 C531 1.433 . S
C524 H520 0.929 . S
C524 C526 1.378 . S
C524 C528 1.350 . S
C525 C528 1.463 . S
C525 C530 1.350 . S
C525 N533 1.427 . S
C526 H517 0.930 . S
C526 C524 1.378 . S
C526 C527 1.367 . S
C527 C526 1.367 . S
C527 C529 1.433 . S
C528 C524 1.350 . S
C528 C525 1.463 . S
C528 N532 1.427 . S
C529 H519 0.929 . S
C529 C527 1.433 . S
C529 N532 1.384 . S
C530 H521 0.929 . S
C530 C522 1.378 . S
C530 C525 1.350 . S
C531 H518 0.929 . S
C531 C523 1.433 . S
C531 N533 1.384 . S
N532 C528 1.427 . S
N532 C529 1.384 . S
N533 C525 1.427 . S
N533 C531 1.384 . S
H534 C540 0.930 . S
H535 C544 0.930 . S
H536 C549 0.929 . S
H537 C547 0.929 . S
H538 C542 0.929 . S
H539 C548 0.929 . S
C540 H534 0.930 . S
C540 C541 1.367 . S
C540 C548 1.378 . S
C541 C540 1.367 . S
C541 C549 1.433 . S
C542 H538 0.929 . S
C542 C544 1.378 . S
C542 C546 1.350 . S
C543 C546 1.463 . S
C543 C548 1.350 . S
C543 N551 1.427 . S
C544 H535 0.930 . S
C544 C542 1.378 . S
C544 C545 1.367 . S
C545 C544 1.367 . S
C545 C547 1.433 . S
C546 C542 1.350 . S
C546 C543 1.463 . S
C546 N550 1.427 . S
C547 H537 0.929 . S
C547 C545 1.433 . S
C547 N550 1.384 . S
C548 H539 0.929 . S
C548 C540 1.378 . S
C548 C543 1.350 . S
C549 H536 0.929 . S
C549 C541 1.433 . S
C549 N551 1.384 . S
N550 C546 1.427 . S
N550 C547 1.384 . S
N551 C543 1.427 . S
N551 C549 1.384 . S
H552 C558 0.930 . S
H553 C562 0.930 . S
H554 C567 0.929 . S
H555 C565 0.929 . S
H556 C560 0.929 . S
H557 C566 0.929 . S
C558 H552 0.930 . S
C558 C559 1.367 . S
C558 C566 1.378 . S
C559 C558 1.367 . S
C559 C567 1.433 . S
C560 H556 0.929 . S
C560 C562 1.378 . S
C560 C564 1.350 . S
C561 C564 1.463 . S
C561 C566 1.350 . S
C561 N569 1.427 . S
C562 H553 0.930 . S
C562 C560 1.378 . S
C562 C563 1.367 . S
C563 C562 1.367 . S
C563 C565 1.433 . S
C564 C560 1.350 . S
C564 C561 1.463 . S
C564 N568 1.427 . S
C565 H555 0.929 . S
C565 C563 1.433 . S
C565 N568 1.384 . S
C566 H557 0.929 . S
C566 C558 1.378 . S
C566 C561 1.350 . S
C567 H554 0.929 . S
C567 C559 1.433 . S
C567 N569 1.384 . S
N568 C564 1.427 . S
N568 C565 1.384 . S
N569 C561 1.427 . S
N569 C567 1.384 . S
H570 C576 0.930 . S
H571 C580 0.930 . S
H572 C585 0.929 . S
H573 C583 0.929 . S
H574 C578 0.929 . S
H575 C584 0.929 . S
C576 H570 0.930 . S
C576 C577 1.367 . S
C576 C584 1.378 . S
C577 C576 1.367 . S
C577 C585 1.433 . S
C578 H574 0.929 . S
C578 C580 1.378 . S
C578 C582 1.350 . S
C579 C582 1.463 . S
C579 C584 1.350 . S
C579 N587 1.427 . S
C580 H571 0.930 . S
C580 C578 1.378 . S
C580 C581 1.367 . S
C581 C580 1.367 . S
C581 C583 1.433 . S
C582 C578 1.350 . S
C582 C579 1.463 . S
C582 N586 1.427 . S
C583 H573 0.929 . S
C583 C581 1.433 . S
C583 N586 1.384 . S
C584 H575 0.929 . S
C584 C576 1.378 . S
C584 C579 1.350 . S
C585 H572 0.929 . S
C585 C577 1.433 . S
C585 N587 1.384 . S
N586 C582 1.427 . S
N586 C583 1.384 . S
N587 C579 1.427 . S
N587 C585 1.384 . S
H588 C594 0.930 . S
H589 C598 0.930 . S
H590 C603 0.929 . S
H591 C601 0.929 . S
H592 C596 0.929 . S
H593 C602 0.929 . S
C594 H588 0.930 . S
C594 C595 1.367 . S
C594 C602 1.378 . S
C595 C594 1.367 . S
C595 C603 1.433 . S
C596 H592 0.929 . S
C596 C598 1.378 . S
C596 C600 1.350 . S
C597 C600 1.463 . S
C597 C602 1.350 . S
C597 N605 1.427 . S
C598 H589 0.930 . S
C598 C596 1.378 . S
C598 C599 1.367 . S
C599 C598 1.367 . S
C599 C601 1.433 . S
C600 C596 1.350 . S
C600 C597 1.463 . S
C600 N604 1.427 . S
C601 H591 0.929 . S
C601 C599 1.433 . S
C601 N604 1.384 . S
C602 H593 0.929 . S
C602 C594 1.378 . S
C602 C597 1.350 . S
C603 H590 0.929 . S
C603 C595 1.433 . S
C603 N605 1.384 . S
N604 C600 1.427 . S
N604 C601 1.384 . S
N605 C597 1.427 . S
N605 C603 1.384 . S
H606 C612 0.930 . S
H607 C616 0.930 . S
H608 C621 0.929 . S
H609 C619 0.929 . S
H610 C614 0.929 . S
H611 C620 0.929 . S
C612 H606 0.930 . S
C612 C613 1.367 . S
C612 C620 1.378 . S
C613 C612 1.367 . S
C613 C621 1.433 . S
C614 H610 0.929 . S
C614 C616 1.378 . S
C614 C618 1.350 . S
C615 C618 1.463 . S
C615 C620 1.350 . S
C615 N623 1.427 . S
C616 H607 0.930 . S
C616 C614 1.378 . S
C616 C617 1.367 . S
C617 C616 1.367 . S
C617 C619 1.433 . S
C618 C614 1.350 . S
C618 C615 1.463 . S
C618 N622 1.427 . S
C619 H609 0.929 . S
C619 C617 1.433 . S
C619 N622 1.384 . S
C620 H611 0.929 . S
C620 C612 1.378 . S
C620 C615 1.350 . S
C621 H608 0.929 . S
C621 C613 1.433 . S
C621 N623 1.384 . S
N622 C618 1.427 . S
N622 C619 1.384 . S
N623 C615 1.427 . S
N623 C621 1.384 . S
H624 C630 0.930 . S
H625 C634 0.930 . S
H626 C639 0.929 . S
H627 C637 0.929 . S
H628 C632 0.929 . S
H629 C638 0.929 . S
C630 H624 0.930 . S
C630 C631 1.367 . S
C630 C638 1.378 . S
C631 C630 1.367 . S
C631 C639 1.433 . S
C632 H628 0.929 . S
C632 C634 1.378 . S
C632 C636 1.350 . S
C633 C636 1.463 . S
C633 C638 1.350 . S
C633 N641 1.427 . S
C634 H625 0.930 . S
C634 C632 1.378 . S
C634 C635 1.367 . S
C635 C634 1.367 . S
C635 C637 1.433 . S
C636 C632 1.350 . S
C636 C633 1.463 . S
C636 N640 1.427 . S
C637 H627 0.929 . S
C637 C635 1.433 . S
C637 N640 1.384 . S
C638 H629 0.929 . S
C638 C630 1.378 . S
C638 C633 1.350 . S
C639 H626 0.929 . S
C639 C631 1.433 . S
C639 N641 1.384 . S
N640 C636 1.427 . S
N640 C637 1.384 . S
N641 C633 1.427 . S
N641 C639 1.384 . S
H642 C648 0.930 . S
H643 C652 0.930 . S
H644 C657 0.929 . S
H645 C655 0.929 . S
H646 C650 0.929 . S
H647 C656 0.929 . S
C648 H642 0.930 . S
C648 C649 1.367 . S
C648 C656 1.378 . S
C649 C648 1.367 . S
C649 C657 1.433 . S
C650 H646 0.929 . S
C650 C652 1.378 . S
C650 C654 1.350 . S
C651 C654 1.463 . S
C651 C656 1.350 . S
C651 N659 1.427 . S
C652 H643 0.930 . S
C652 C650 1.378 . S
C652 C653 1.367 . S
C653 C652 1.367 . S
C653 C655 1.433 . S
C654 C650 1.350 . S
C654 C651 1.463 . S
C654 N658 1.427 . S
C655 H645 0.929 . S
C655 C653 1.433 . S
C655 N658 1.384 . S
C656 H647 0.929 . S
C656 C648 1.378 . S
C656 C651 1.350 . S
C657 H644 0.929 . S
C657 C649 1.433 . S
C657 N659 1.384 . S
N658 C654 1.427 . S
N658 C655 1.384 . S
N659 C651 1.427 . S
N659 C657 1.384 . S
H660 C666 0.930 . S
H661 C670 0.930 . S
H662 C675 0.929 . S
H663 C673 0.929 . S
H664 C668 0.929 . S
H665 C674 0.929 . S
C666 H660 0.930 . S
C666 C667 1.367 . S
C666 C674 1.378 . S
C667 C666 1.367 . S
C667 C675 1.433 . S
C668 H664 0.929 . S
C668 C670 1.378 . S
C668 C672 1.350 . S
C669 C672 1.463 . S
C669 C674 1.350 . S
C669 N677 1.427 . S
C670 H661 0.930 . S
C670 C668 1.378 . S
C670 C671 1.367 . S
C671 C670 1.367 . S
C671 C673 1.433 . S
C672 C668 1.350 . S
C672 C669 1.463 . S
C672 N676 1.427 . S
C673 H663 0.929 . S
C673 C671 1.433 . S
C673 N676 1.384 . S
C674 H665 0.929 . S
C674 C666 1.378 . S
C674 C669 1.350 . S
C675 H662 0.929 . S
C675 C667 1.433 . S
C675 N677 1.384 . S
N676 C672 1.427 . S
N676 C673 1.384 . S
N677 C669 1.427 . S
N677 C675 1.384 . S
H678 C684 0.930 . S
H679 C688 0.930 . S
H680 C693 0.929 . S
H681 C691 0.929 . S
H682 C686 0.929 . S
H683 C692 0.929 . S
C684 H678 0.930 . S
C684 C685 1.367 . S
C684 C692 1.378 . S
C685 C684 1.367 . S
C685 C693 1.433 . S
C686 H682 0.929 . S
C686 C688 1.378 . S
C686 C690 1.350 . S
C687 C690 1.463 . S
C687 C692 1.350 . S
C687 N695 1.427 . S
C688 H679 0.930 . S
C688 C686 1.378 . S
C688 C689 1.367 . S
C689 C688 1.367 . S
C689 C691 1.433 . S
C690 C686 1.350 . S
C690 C687 1.463 . S
C690 N694 1.427 . S
C691 H681 0.929 . S
C691 C689 1.433 . S
C691 N694 1.384 . S
C692 H683 0.929 . S
C692 C684 1.378 . S
C692 C687 1.350 . S
C693 H680 0.929 . S
C693 C685 1.433 . S
C693 N695 1.384 . S
N694 C690 1.427 . S
N694 C691 1.384 . S
N695 C687 1.427 . S
N695 C693 1.384 . S
H696 C702 0.930 . S
H697 C706 0.930 . S
H698 C711 0.929 . S
H699 C709 0.929 . S
H700 C704 0.929 . S
H701 C710 0.929 . S
C702 H696 0.930 . S
C702 C703 1.367 . S
C702 C710 1.378 . S
C703 C702 1.367 . S
C703 C711 1.433 . S
C704 H700 0.929 . S
C704 C706 1.378 . S
C704 C708 1.350 . S
C705 C708 1.463 . S
C705 C710 1.350 . S
C705 N713 1.427 . S
C706 H697 0.930 . S
C706 C704 1.378 . S
C706 C707 1.367 . S
C707 C706 1.367 . S
C707 C709 1.433 . S
C708 C704 1.350 . S
C708 C705 1.463 . S
C708 N712 1.427 . S
C709 H699 0.929 . S
C709 C707 1.433 . S
C709 N712 1.384 . S
C710 H701 0.929 . S
C710 C702 1.378 . S
C710 C705 1.350 . S
C711 H698 0.929 . S
C711 C703 1.433 . S
C711 N713 1.384 . S
N712 C708 1.427 . S
N712 C709 1.384 . S
N713 C705 1.427 . S
N713 C711 1.384 . S
H714 C720 0.930 . S
H715 C724 0.930 . S
H716 C729 0.929 . S
H717 C727 0.929 . S
H718 C722 0.929 . S
H719 C728 0.929 . S
C720 H714 0.930 . S
C720 C721 1.367 . S
C720 C728 1.378 . S
C721 C720 1.367 . S
C721 C729 1.433 . S
C722 H718 0.929 . S
C722 C724 1.378 . S
C722 C726 1.350 . S
C723 C726 1.463 . S
C723 C728 1.350 . S
C723 N731 1.427 . S
C724 H715 0.930 . S
C724 C722 1.378 . S
C724 C725 1.367 . S
C725 C724 1.367 . S
C725 C727 1.433 . S
C726 C722 1.350 . S
C726 C723 1.463 . S
C726 N730 1.427 . S
C727 H717 0.929 . S
C727 C725 1.433 . S
C727 N730 1.384 . S
C728 H719 0.929 . S
C728 C720 1.378 . S
C728 C723 1.350 . S
C729 H716 0.929 . S
C729 C721 1.433 . S
C729 N731 1.384 . S
N730 C726 1.427 . S
N730 C727 1.384 . S
N731 C723 1.427 . S
N731 C729 1.384 . S
H732 C738 0.930 . S
H733 C742 0.930 . S
H734 C747 0.929 . S
H735 C745 0.929 . S
H736 C740 0.929 . S
H737 C746 0.929 . S
C738 H732 0.930 . S
C738 C739 1.367 . S
C738 C746 1.378 . S
C739 C738 1.367 . S
C739 C747 1.433 . S
C740 H736 0.929 . S
C740 C742 1.378 . S
C740 C744 1.350 . S
C741 C744 1.463 . S
C741 C746 1.350 . S
C741 N749 1.427 . S
C742 H733 0.930 . S
C742 C740 1.378 . S
C742 C743 1.367 . S
C743 C742 1.367 . S
C743 C745 1.433 . S
C744 C740 1.350 . S
C744 C741 1.463 . S
C744 N748 1.427 . S
C745 H735 0.929 . S
C745 C743 1.433 . S
C745 N748 1.384 . S
C746 H737 0.929 . S
C746 C738 1.378 . S
C746 C741 1.350 . S
C747 H734 0.929 . S
C747 C739 1.433 . S
C747 N749 1.384 . S
N748 C744 1.427 . S
N748 C745 1.384 . S
N749 C741 1.427 . S
N749 C747 1.384 . S
H750 C756 0.930 . S
H751 C760 0.930 . S
H752 C765 0.929 . S
H753 C763 0.929 . S
H754 C758 0.929 . S
H755 C764 0.929 . S
C756 H750 0.930 . S
C756 C757 1.367 . S
C756 C764 1.378 . S
C757 C756 1.367 . S
C757 C765 1.433 . S
C758 H754 0.929 . S
C758 C760 1.378 . S
C758 C762 1.350 . S
C759 C762 1.463 . S
C759 C764 1.350 . S
C759 N767 1.427 . S
C760 H751 0.930 . S
C760 C758 1.378 . S
C760 C761 1.367 . S
C761 C760 1.367 . S
C761 C763 1.433 . S
C762 C758 1.350 . S
C762 C759 1.463 . S
C762 N766 1.427 . S
C763 H753 0.929 . S
C763 C761 1.433 . S
C763 N766 1.384 . S
C764 H755 0.929 . S
C764 C756 1.378 . S
C764 C759 1.350 . S
C765 H752 0.929 . S
C765 C757 1.433 . S
C765 N767 1.384 . S
N766 C762 1.427 . S
N766 C763 1.384 . S
N767 C759 1.427 . S
N767 C765 1.384 . S
H768 C774 0.930 . S
H769 C778 0.930 . S
H770 C783 0.929 . S
H771 C781 0.929 . S
H772 C776 0.929 . S
H773 C782 0.929 . S
C774 H768 0.930 . S
C774 C775 1.367 . S
C774 C782 1.378 . S
C775 C774 1.367 . S
C775 C783 1.433 . S
C776 H772 0.929 . S
C776 C778 1.378 . S
C776 C780 1.350 . S
C777 C780 1.463 . S
C777 C782 1.350 . S
C777 N785 1.427 . S
C778 H769 0.930 . S
C778 C776 1.378 . S
C778 C779 1.367 . S
C779 C778 1.367 . S
C779 C781 1.433 . S
C780 C776 1.350 . S
C780 C777 1.463 . S
C780 N784 1.427 . S
C781 H771 0.929 . S
C781 C779 1.433 . S
C781 N784 1.384 . S
C782 H773 0.929 . S
C782 C774 1.378 . S
C782 C777 1.350 . S
C783 H770 0.929 . S
C783 C775 1.433 . S
C783 N785 1.384 . S
N784 C780 1.427 . S
N784 C781 1.384 . S
N785 C777 1.427 . S
N785 C783 1.384 . S
H786 C792 0.930 . S
H787 C796 0.930 . S
H788 C801 0.929 . S
H789 C799 0.929 . S
H790 C794 0.929 . S
H791 C800 0.929 . S
C792 H786 0.930 . S
C792 C793 1.367 . S
C792 C800 1.378 . S
C793 C792 1.367 . S
C793 C801 1.433 . S
C794 H790 0.929 . S
C794 C796 1.378 . S
C794 C798 1.350 . S
C795 C798 1.463 . S
C795 C800 1.350 . S
C795 N803 1.427 . S
C796 H787 0.930 . S
C796 C794 1.378 . S
C796 C797 1.367 . S
C797 C796 1.367 . S
C797 C799 1.433 . S
C798 C794 1.350 . S
C798 C795 1.463 . S
C798 N802 1.427 . S
C799 H789 0.929 . S
C799 C797 1.433 . S
C799 N802 1.384 . S
C800 H791 0.929 . S
C800 C792 1.378 . S
C800 C795 1.350 . S
C801 H788 0.929 . S
C801 C793 1.433 . S
C801 N803 1.384 . S
N802 C798 1.427 . S
N802 C799 1.384 . S
N803 C795 1.427 . S
N803 C801 1.384 . S
C379 C13 1.739 . S
C383 C105 1.714 . S
C397 C27 1.735 . S
C401 C162 1.730 . S
C419 C216 1.694 . S
C415 C29 1.741 . S
C437 C273 1.671 . S
C433 C54 1.739 . S
C455 C297 1.715 . S
C451 C69 1.740 . S
C473 C354 1.735 . S
C469 C83 1.739 . S
C487 C15 1.745 . S
C491 C201 1.722 . S
C505 C41 1.740 . S
C509 C258 1.735 . S
C527 C312 1.696 . S
C523 C42 1.742 . S
C545 C369 1.662 . S
C541 C57 1.734 . S
C559 C71 1.744 . S
C563 C120 1.701 . S
C581 C177 1.662 . S
C577 C1 1.734 . S
C599 C264 1.714 . S
C595 C12 1.739 . S
C613 C26 1.735 . S
C617 C306 1.664 . S
C635 C345 1.696 . S
C631 C28 1.741 . S
C649 C55 1.741 . S
C653 C114 1.676 . S
C667 C68 1.740 . S
C671 C153 1.691 . S
C685 C82 1.740 . S
C689 C225 1.736 . S
C703 C14 1.742 . S
C707 C360 1.718 . S
C725 C129 1.736 . S
C721 C40 1.741 . S
C739 C43 1.740 . S
C743 C168 1.715 . S
C757 C56 1.740 . S
C761 C210 1.677 . S
C775 C70 1.740 . S
C779 C249 1.691 . S
C793 C0 1.739 . S
C797 C321 1.734 . S
