# Generated by pormake.
# Topology wbl, (4,4)-cn, num edge types: 1
# Building blocks:
#     Node 0, Type 0, BuildingBlock: NAWXER_clean_linker_0, # of connection points: 4
#     Node 1, Type 0, BuildingBlock: NAWXER_clean_linker_0, # of connection points: 4
#     Node 2, Type 0, BuildingBlock: NAWXER_clean_linker_0, # of connection points: 4
#     Node 3, Type 0, BuildingBlock: NAWXER_clean_linker_0, # of connection points: 4
#     Node 4, Type 0, BuildingBlock: NAWXER_clean_linker_0, # of connection points: 4
#     Node 5, Type 0, BuildingBlock: NAWXER_clean_linker_0, # of connection points: 4
#     Node 6, Type 0, BuildingBlock: NAWXER_clean_linker_0, # of connection points: 4
#     Node 7, Type 0, BuildingBlock: NAWXER_clean_linker_0, # of connection points: 4
#     Node 8, Type 1, BuildingBlock: KUFVIS_clean_sbu_0, # of connection points: 4
#     Node 9, Type 1, BuildingBlock: KUFVIS_clean_sbu_0, # of connection points: 4
#     Node 10, Type 1, BuildingBlock: KUFVIS_clean_sbu_0, # of connection points: 4
#     Node 11, Type 1, BuildingBlock: KUFVIS_clean_sbu_0, # of connection points: 4
#     Node 12, Type 1, BuildingBlock: KUFVIS_clean_sbu_0, # of connection points: 4
#     Node 13, Type 1, BuildingBlock: KUFVIS_clean_sbu_0, # of connection points: 4
#     Node 14, Type 1, BuildingBlock: KUFVIS_clean_sbu_0, # of connection points: 4
#     Node 15, Type 1, BuildingBlock: KUFVIS_clean_sbu_0, # of connection points: 4
#     Edge 16, Type (0, 1), BuildingBlock: XIVTED_clean_linker_0, # of connection points: 2
#     Edge 17, Type (0, 1), BuildingBlock: XIVTED_clean_linker_0, # of connection points: 2
#     Edge 18, Type (0, 1), BuildingBlock: XIVTED_clean_linker_0, # of connection points: 2
#     Edge 19, Type (0, 1), BuildingBlock: XIVTED_clean_linker_0, # of connection points: 2
#     Edge 20, Type (0, 1), BuildingBlock: XIVTED_clean_linker_0, # of connection points: 2
#     Edge 21, Type (0, 1), BuildingBlock: XIVTED_clean_linker_0, # of connection points: 2
#     Edge 22, Type (0, 1), BuildingBlock: XIVTED_clean_linker_0, # of connection points: 2
#     Edge 23, Type (0, 1), BuildingBlock: XIVTED_clean_linker_0, # of connection points: 2
#     Edge 24, Type (0, 1), BuildingBlock: XIVTED_clean_linker_0, # of connection points: 2
#     Edge 25, Type (0, 1), BuildingBlock: XIVTED_clean_linker_0, # of connection points: 2
#     Edge 26, Type (0, 1), BuildingBlock: XIVTED_clean_linker_0, # of connection points: 2
#     Edge 27, Type (0, 1), BuildingBlock: XIVTED_clean_linker_0, # of connection points: 2
#     Edge 28, Type (0, 1), BuildingBlock: XIVTED_clean_linker_0, # of connection points: 2
#     Edge 29, Type (0, 1), BuildingBlock: XIVTED_clean_linker_0, # of connection points: 2
#     Edge 30, Type (0, 1), BuildingBlock: XIVTED_clean_linker_0, # of connection points: 2
#     Edge 31, Type (0, 1), BuildingBlock: XIVTED_clean_linker_0, # of connection points: 2
#     Edge 32, Type (0, 1), BuildingBlock: XIVTED_clean_linker_0, # of connection points: 2
#     Edge 33, Type (0, 1), BuildingBlock: XIVTED_clean_linker_0, # of connection points: 2
#     Edge 34, Type (0, 1), BuildingBlock: XIVTED_clean_linker_0, # of connection points: 2
#     Edge 35, Type (0, 1), BuildingBlock: XIVTED_clean_linker_0, # of connection points: 2
#     Edge 36, Type (0, 1), BuildingBlock: XIVTED_clean_linker_0, # of connection points: 2
#     Edge 37, Type (0, 1), BuildingBlock: XIVTED_clean_linker_0, # of connection points: 2
#     Edge 38, Type (0, 1), BuildingBlock: XIVTED_clean_linker_0, # of connection points: 2
#     Edge 39, Type (0, 1), BuildingBlock: XIVTED_clean_linker_0, # of connection points: 2
#     Edge 40, Type (0, 1), BuildingBlock: XIVTED_clean_linker_0, # of connection points: 2
#     Edge 41, Type (0, 1), BuildingBlock: XIVTED_clean_linker_0, # of connection points: 2
#     Edge 42, Type (0, 1), BuildingBlock: XIVTED_clean_linker_0, # of connection points: 2
#     Edge 43, Type (0, 1), BuildingBlock: XIVTED_clean_linker_0, # of connection points: 2
#     Edge 44, Type (0, 1), BuildingBlock: XIVTED_clean_linker_0, # of connection points: 2
#     Edge 45, Type (0, 1), BuildingBlock: XIVTED_clean_linker_0, # of connection points: 2
#     Edge 46, Type (0, 1), BuildingBlock: XIVTED_clean_linker_0, # of connection points: 2
#     Edge 47, Type (0, 1), BuildingBlock: XIVTED_clean_linker_0, # of connection points: 2
# Relax obj value: 0.160
# Max RMSD: 0.159
# Mean RMSD: 0.140
data_MOF--net-wbl--node1-KUFVIS_clean_sbu_0--node2-NAWXER_clean_linker_0--edge1-XIVTED_clean_linker_0
_symmetry_space_group_name_H-M    P1
_symmetry_Int_Tables_number       1
_symmetry_cell_setting            triclinic
loop_
_symmetry_equiv_pos_as_xyz
'x, y, z'
_cell_length_a     45.235667
_cell_length_b     45.24456
_cell_length_c     77.868955
_cell_angle_alpha  89.969235
_cell_angle_beta   90.638398
_cell_angle_gamma 89.992517
loop_
_atom_site_label
_atom_site_type_symbol
_atom_site_fract_x
_atom_site_fract_y
_atom_site_fract_z
_atom_type_partial_charge
C0 C 0.07801 0.94337 0.35037 0.0
C1 C 0.09232 0.95896 0.36371 0.0
C2 C 0.06245 0.95856 0.33749 0.0
C3 C 0.06093 0.98956 0.33774 0.0
C4 C 0.09255 0.99006 0.36311 0.0
C5 C 0.07672 0.00517 0.35038 0.0
C6 C 0.03897 0.00533 0.32696 0.0
C7 C 0.10994 0.97909 0.29111 0.0
C8 C 0.10189 0.95748 0.27896 0.0
C9 C 0.08851 0.99317 0.30088 0.0
C10 C 0.05853 0.98589 0.29882 0.0
C11 C 0.07183 0.95032 0.27678 0.0
C12 C 0.05029 0.96466 0.28652 0.0
C13 C 0.03591 0.00127 0.30908 0.0
C14 C 0.93097 0.08119 0.29303 0.0
C15 C 0.91459 0.06219 0.28225 0.0
C16 C 0.95669 0.07126 0.30128 0.0
C17 C 0.96619 0.04192 0.29924 0.0
C18 C 0.92532 0.03344 0.27935 0.0
C19 C 0.95085 0.02344 0.28777 0.0
C20 C 0.99161 0.03003 0.3092 0.0
C21 C 0.92526 0.05359 0.35083 0.0
C22 C 0.93573 0.07489 0.36257 0.0
C23 C 0.94417 0.04145 0.33861 0.0
C24 C 0.97381 0.05051 0.33788 0.0
C25 C 0.96513 0.08467 0.36134 0.0
C26 C 0.98401 0.07243 0.34921 0.0
C27 C 0.99528 0.03474 0.32704 0.0
H28 H 0.07713 0.91946 0.35049 0.0
H29 H 0.04994 0.94602 0.32805 0.0
H30 H 0.10394 0.00278 0.37293 0.0
H31 H 0.07578 0.02909 0.35082 0.0
H32 H 0.13293 0.98487 0.29324 0.0
H33 H 0.0954 0.00998 0.30999 0.0
H34 H 0.06499 0.93388 0.26744 0.0
H35 H 0.02723 0.95894 0.2846 0.0
H36 H 0.92343 0.10345 0.29561 0.0
H37 H 0.96875 0.08636 0.30956 0.0
H38 H 0.91375 0.01845 0.27078 0.0
H39 H 0.95806 0.00088 0.28572 0.0
H40 H 0.90269 0.0457 0.35142 0.0
H41 H 0.93597 0.02412 0.33022 0.0
H42 H 0.97403 0.10068 0.37035 0.0
H43 H 0.00691 0.07945 0.349 0.0
N44 N 0.01875 0.02214 0.33517 0.0
N45 N 0.01216 0.0135 0.30087 0.0
C46 C 0.94234 0.42483 0.60119 0.0
C47 C 0.95801 0.41301 0.61532 0.0
C48 C 0.95697 0.44141 0.58869 0.0
C49 C 0.98762 0.44625 0.59001 0.0
C50 C 0.9888 0.41721 0.61627 0.0
C51 C 0.00337 0.43366 0.6038 0.0
C52 C 0.00284 0.46743 0.57858 0.0
C53 C 0.9762 0.39352 0.54393 0.0
C54 C 0.95506 0.40074 0.53124 0.0
C55 C 0.99 0.41561 0.55356 0.0
C56 C 0.98281 0.44543 0.55083 0.0
C57 C 0.94792 0.43061 0.52844 0.0
C58 C 0.96193 0.45281 0.53806 0.0
C59 C 0.99843 0.46881 0.56059 0.0
C60 C 0.08607 0.5624 0.53986 0.0
C61 C 0.06811 0.5822 0.53049 0.0
C62 C 0.07349 0.539 0.54893 0.0
C63 C 0.04275 0.53487 0.54876 0.0
C64 C 0.03737 0.57724 0.52987 0.0
C65 C 0.02487 0.55365 0.53881 0.0
C66 C 0.02907 0.51167 0.55939 0.0
C67 C 0.06 0.58047 0.59828 0.0
C68 C 0.08213 0.56988 0.60952 0.0
C69 C 0.04528 0.56115 0.58709 0.0
C70 C 0.0524 0.53095 0.58705 0.0
C71 C 0.08996 0.53985 0.60893 0.0
C72 C 0.07502 0.52052 0.5979 0.0
C73 C 0.0343 0.50958 0.57722 0.0
H74 H 0.91865 0.42187 0.59999 0.0
H75 H 0.9441 0.45148 0.57845 0.0
H76 H 0.00158 0.40896 0.6271 0.0
H77 H 0.02694 0.43733 0.60523 0.0
H78 H 0.98194 0.3707 0.54653 0.0
H79 H 0.0066 0.40937 0.56302 0.0
H80 H 0.93187 0.43682 0.51867 0.0
H81 H 0.95636 0.47572 0.53559 0.0
H82 H 0.10984 0.5651 0.54033 0.0
H83 H 0.08776 0.52432 0.55625 0.0
H84 H 0.02277 0.59219 0.523 0.0
H85 H 0.00109 0.55075 0.5385 0.0
H86 H 0.05355 0.60353 0.5985 0.0
H87 H 0.02752 0.56956 0.57902 0.0
H88 H 0.10661 0.531 0.61762 0.0
H89 H 0.08061 0.49723 0.59816 0.0
N90 N 0.02089 0.48769 0.58611 0.0
N91 N 0.01139 0.49115 0.55168 0.0
C92 C 0.58135 0.44675 0.85205 0.0
C93 C 0.59697 0.46176 0.86514 0.0
C94 C 0.56544 0.46253 0.83955 0.0
C95 C 0.56476 0.49351 0.84002 0.0
C96 C 0.59807 0.49285 0.86463 0.0
C97 C 0.58174 0.50854 0.85235 0.0
C98 C 0.54229 0.50985 0.83 0.0
C99 C 0.61514 0.48846 0.79411 0.0
C100 C 0.60718 0.46829 0.78112 0.0
C101 C 0.59353 0.50215 0.80399 0.0
C102 C 0.56349 0.49587 0.80116 0.0
C103 C 0.57704 0.46243 0.77809 0.0
C104 C 0.55538 0.47631 0.78794 0.0
C105 C 0.54057 0.50977 0.8119 0.0
C106 C 0.44457 0.57887 0.78313 0.0
C107 C 0.41698 0.56599 0.78654 0.0
C108 C 0.47007 0.56876 0.79164 0.0
C109 C 0.46812 0.5462 0.80393 0.0
C110 C 0.41527 0.54309 0.79868 0.0
C111 C 0.4406 0.53333 0.80732 0.0
C112 C 0.49472 0.53575 0.81319 0.0
C113 C 0.44411 0.54398 0.86808 0.0
C114 C 0.43363 0.57306 0.86611 0.0
C115 C 0.46409 0.53214 0.85646 0.0
C116 C 0.47392 0.54892 0.84251 0.0
C117 C 0.44325 0.58985 0.85202 0.0
C118 C 0.46323 0.57786 0.84029 0.0
C119 C 0.4969 0.53636 0.83127 0.0
H120 H 0.57975 0.42288 0.85207 0.0
H121 H 0.55203 0.45054 0.83029 0.0
H122 H 0.61053 0.50518 0.87417 0.0
H123 H 0.58138 0.53247 0.85293 0.0
H124 H 0.63815 0.49326 0.79689 0.0
H125 H 0.60034 0.51766 0.81386 0.0
H126 H 0.57022 0.44721 0.76807 0.0
H127 H 0.53231 0.47132 0.78544 0.0
H128 H 0.44645 0.59643 0.77374 0.0
H129 H 0.4912 0.57881 0.78882 0.0
H130 H 0.39424 0.53295 0.80165 0.0
H131 H 0.43872 0.51565 0.81664 0.0
H132 H 0.43766 0.53062 0.87895 0.0
H133 H 0.47218 0.50986 0.85851 0.0
H134 H 0.43557 0.61231 0.85017 0.0
H135 H 0.47094 0.59144 0.82979 0.0
N136 N 0.52052 0.52323 0.83894 0.0
N137 N 0.51669 0.52262 0.80412 0.0
C138 C 0.47395 0.89845 0.04649 0.0
C139 C 0.45224 0.90515 0.03403 0.0
C140 C 0.48739 0.92087 0.05604 0.0
C141 C 0.47925 0.95048 0.05346 0.0
C142 C 0.44429 0.93485 0.03131 0.0
C143 C 0.45792 0.95736 0.04085 0.0
C144 C 0.49405 0.97422 0.06335 0.0
C145 C 0.43982 0.92697 0.10362 0.0
C146 C 0.45596 0.91571 0.11774 0.0
C147 C 0.4537 0.94444 0.09125 0.0
C148 C 0.48407 0.95073 0.09264 0.0
C149 C 0.48651 0.92138 0.11877 0.0
C150 C 0.50033 0.9387 0.1064 0.0
C151 C 0.49834 0.97278 0.08133 0.0
C152 C 0.55098 0.08742 0.10226 0.0
C153 C 0.57406 0.0773 0.113 0.0
C154 C 0.53656 0.06796 0.091 0.0
C155 C 0.54495 0.03811 0.0904 0.0
C156 C 0.58293 0.0476 0.11194 0.0
C157 C 0.56832 0.02815 0.10086 0.0
C158 C 0.5278 0.01641 0.08029 0.0
C159 C 0.57514 0.07601 0.04441 0.0
C160 C 0.55641 0.09161 0.03305 0.0
C161 C 0.56465 0.05159 0.05349 0.0
C162 C 0.53501 0.0427 0.05177 0.0
C163 C 0.52729 0.08139 0.03053 0.0
C164 C 0.51672 0.05722 0.0398 0.0
C165 C 0.52276 0.01852 0.0624 0.0
H166 H 0.48034 0.87578 0.04903 0.0
H167 H 0.50435 0.91504 0.06538 0.0
H168 H 0.42781 0.94067 0.0217 0.0
H169 H 0.4516 0.98012 0.0385 0.0
H170 H 0.41631 0.92287 0.10235 0.0
H171 H 0.4404 0.95405 0.08103 0.0
H172 H 0.49962 0.91361 0.12958 0.0
H173 H 0.5237 0.94347 0.10789 0.0
H174 H 0.54373 0.11021 0.10284 0.0
H175 H 0.51825 0.07596 0.08321 0.0
H176 H 0.60029 0.03905 0.12026 0.0
H177 H 0.57488 0.00512 0.1007 0.0
H178 H 0.59766 0.08315 0.04675 0.0
H179 H 0.57966 0.04002 0.06208 0.0
H180 H 0.51245 0.09229 0.02155 0.0
H181 H 0.49394 0.05039 0.03796 0.0
N182 N 0.50607 0.99727 0.05459 0.0
N183 N 0.51534 0.99375 0.089 0.0
C184 C 0.05895 0.56949 0.8975 0.0
C185 C 0.07251 0.5533 0.88431 0.0
C186 C 0.04214 0.55507 0.90996 0.0
C187 C 0.03887 0.52417 0.90957 0.0
C188 C 0.06916 0.52239 0.88404 0.0
C189 C 0.05251 0.50805 0.89648 0.0
C190 C 0.01948 0.50848 0.92179 0.0
C191 C 0.09363 0.54574 0.95268 0.0
C192 C 0.08578 0.56485 0.96602 0.0
C193 C 0.07215 0.52886 0.9443 0.0
C194 C 0.04219 0.53163 0.94865 0.0
C195 C 0.05612 0.56689 0.97094 0.0
C196 C 0.03441 0.55046 0.96224 0.0
C197 C 0.01934 0.51366 0.93973 0.0
C198 C 0.93704 0.42024 0.9657 0.0
C199 C 0.91403 0.43644 0.97331 0.0
C200 C 0.95848 0.43449 0.95593 0.0
C201 C 0.95768 0.46524 0.95381 0.0
C202 C 0.91391 0.46745 0.97146 0.0
C203 C 0.93573 0.4817 0.96196 0.0
C204 C 0.97895 0.4801 0.9425 0.0
C205 C 0.91097 0.44288 0.90427 0.0
C206 C 0.9229 0.42099 0.89357 0.0
C207 C 0.92932 0.45892 0.91543 0.0
C208 C 0.95985 0.45342 0.91592 0.0
C209 C 0.95318 0.41439 0.89487 0.0
C210 C 0.97153 0.43069 0.90583 0.0
C211 C 0.98019 0.47391 0.92481 0.0
H212 H 0.06113 0.5933 0.89812 0.0
H213 H 0.03123 0.56812 0.91967 0.0
H214 H 0.07866 0.50924 0.87388 0.0
H215 H 0.05003 0.48426 0.89577 0.0
H216 H 0.11655 0.54336 0.94901 0.0
H217 H 0.07912 0.51339 0.93455 0.0
H218 H 0.04979 0.58129 0.98138 0.0
H219 H 0.01156 0.55253 0.96607 0.0
H220 H 0.9384 0.39648 0.96713 0.0
H221 H 0.97555 0.42147 0.94987 0.0
H222 H 0.89639 0.48075 0.9768 0.0
H223 H 0.93477 0.50548 0.9604 0.0
H224 H 0.88768 0.44837 0.90349 0.0
H225 H 0.91995 0.47672 0.92291 0.0
H226 H 0.96303 0.39793 0.88661 0.0
H227 H 0.9951 0.42636 0.90592 0.0
N228 N 0.0002 0.48847 0.91514 0.0
N229 N 0.99867 0.49961 0.94938 0.0
C230 C 0.43345 0.56316 0.1514 0.0
C231 C 0.44671 0.57426 0.13645 0.0
C232 C 0.45005 0.54706 0.16345 0.0
C233 C 0.48049 0.54252 0.16109 0.0
C234 C 0.47709 0.56917 0.13404 0.0
C235 C 0.49373 0.55364 0.14623 0.0
C236 C 0.49834 0.5242 0.17315 0.0
C237 C 0.4646 0.59991 0.20326 0.0
C238 C 0.44654 0.59267 0.21715 0.0
C239 C 0.48116 0.57813 0.19515 0.0
C240 C 0.47909 0.54844 0.20034 0.0
C241 C 0.44555 0.56334 0.223 0.0
C242 C 0.46164 0.54133 0.21459 0.0
C243 C 0.4958 0.5251 0.19126 0.0
C244 C 0.58975 0.44112 0.21611 0.0
C245 C 0.57338 0.41888 0.2244 0.0
C246 C 0.57548 0.46281 0.20628 0.0
C247 C 0.54458 0.46305 0.20484 0.0
C248 C 0.54228 0.41983 0.22319 0.0
C249 C 0.52805 0.44192 0.21368 0.0
C250 C 0.52936 0.48454 0.19363 0.0
C251 C 0.56342 0.41519 0.15579 0.0
C252 C 0.58243 0.42698 0.14334 0.0
C253 C 0.5488 0.43385 0.16725 0.0
C254 C 0.553 0.46456 0.16644 0.0
C255 C 0.58785 0.45757 0.14329 0.0
C256 C 0.57312 0.47615 0.15464 0.0
C257 C 0.53341 0.48505 0.17573 0.0
H258 H 0.4102 0.56671 0.15381 0.0
H259 H 0.43891 0.53782 0.17445 0.0
H260 H 0.48805 0.57648 0.12251 0.0
H261 H 0.51703 0.55002 0.1439 0.0
H262 H 0.4662 0.62255 0.19882 0.0
H263 H 0.49552 0.58456 0.18476 0.0
H264 H 0.43196 0.55743 0.23384 0.0
H265 H 0.46012 0.5187 0.21905 0.0
H266 H 0.61364 0.44168 0.21703 0.0
H267 H 0.58855 0.47925 0.19968 0.0
H268 H 0.52877 0.40292 0.22902 0.0
H269 H 0.50414 0.44178 0.21264 0.0
H270 H 0.5589 0.3917 0.15619 0.0
H271 H 0.53293 0.42442 0.17601 0.0
H272 H 0.60199 0.46744 0.13373 0.0
H273 H 0.57644 0.49982 0.15369 0.0
N274 N 0.51751 0.50461 0.16621 0.0
N275 N 0.51093 0.50473 0.20079 0.0
C276 C 0.41458 0.94112 0.40611 0.0
C277 C 0.40409 0.95337 0.39057 0.0
C278 C 0.43091 0.95828 0.41777 0.0
C279 C 0.4364 0.98831 0.41438 0.0
C280 C 0.4091 0.9836 0.38746 0.0
C281 C 0.42491 0.00081 0.39923 0.0
C282 C 0.45741 0.00579 0.42507 0.0
C283 C 0.38497 0.98263 0.4609 0.0
C284 C 0.39288 0.9626 0.47397 0.0
C285 C 0.40659 0.99606 0.45093 0.0
C286 C 0.4366 0.98963 0.45374 0.0
C287 C 0.42298 0.95645 0.47694 0.0
C288 C 0.44469 0.97012 0.46701 0.0
C289 C 0.45944 0.00405 0.44318 0.0
C290 C 0.55681 0.0913 0.45976 0.0
C291 C 0.57651 0.0734 0.46926 0.0
C292 C 0.53221 0.07891 0.45147 0.0
C293 C 0.52682 0.04843 0.45258 0.0
C294 C 0.5703 0.04302 0.47081 0.0
C295 C 0.54555 0.03074 0.46267 0.0
C296 C 0.50246 0.03456 0.44277 0.0
C297 C 0.56913 0.06103 0.40202 0.0
C298 C 0.55767 0.08089 0.38973 0.0
C299 C 0.55054 0.04789 0.41407 0.0
C300 C 0.52021 0.05448 0.41404 0.0
C301 C 0.52751 0.08827 0.39021 0.0
C302 C 0.50895 0.07501 0.40217 0.0
C303 C 0.49946 0.0376 0.42481 0.0
H304 H 0.41093 0.91805 0.4091 0.0
H305 H 0.44029 0.94762 0.42901 0.0
H306 H 0.40208 0.99387 0.37554 0.0
H307 H 0.42911 0.02378 0.39615 0.0
H308 H 0.36197 0.98759 0.45816 0.0
H309 H 0.39982 0.01154 0.44102 0.0
H310 H 0.42973 0.94128 0.48701 0.0
H311 H 0.46776 0.96512 0.46951 0.0
H312 H 0.56051 0.11485 0.45858 0.0
H313 H 0.51763 0.09304 0.444 0.0
H314 H 0.58512 0.02841 0.47777 0.0
H315 H 0.54171 0.00717 0.46369 0.0
H316 H 0.5923 0.05497 0.40198 0.0
H317 H 0.55964 0.03164 0.42287 0.0
H318 H 0.5179 0.10311 0.38077 0.0
H319 H 0.48555 0.08015 0.40182 0.0
N320 N 0.47724 0.02292 0.4167 0.0
N321 N 0.48224 0.01805 0.45133 0.0
C322 C 0.05686 0.9221 0.65151 0.0
C323 C 0.0416 0.90961 0.63744 0.0
C324 C 0.04183 0.93911 0.66364 0.0
C325 C 0.01117 0.94366 0.66203 0.0
C326 C 0.01078 0.91349 0.63622 0.0
C327 C 0.99581 0.93033 0.64834 0.0
C328 C 0.99555 0.96527 0.673 0.0
C329 C 0.0229 0.89342 0.70887 0.0
C330 C 0.0448 0.90143 0.72095 0.0
C331 C 0.00839 0.91491 0.69911 0.0
C332 C 0.01553 0.94489 0.70115 0.0
C333 C 0.05184 0.93148 0.72308 0.0
C334 C 0.03706 0.95308 0.71337 0.0
C335 C -0.00039 0.96755 0.69098 0.0
C336 C 0.91051 0.06167 0.70909 0.0
C337 C 0.92802 0.0818 0.71848 0.0
C338 C 0.92349 0.03783 0.70064 0.0
C339 C 0.95423 0.03364 0.7014 0.0
C340 C 0.95871 0.07677 0.71974 0.0
C341 C 0.97163 0.05278 0.71138 0.0
C342 C 0.96844 0.01009 0.69127 0.0
C343 C 0.93865 0.07732 0.6512 0.0
C344 C 0.91675 0.06636 0.63995 0.0
C345 C 0.9531 0.05838 0.66274 0.0
C346 C 0.94596 0.02819 0.66311 0.0
C347 C 0.90891 0.03636 0.64082 0.0
C348 C 0.92361 0.01739 0.65219 0.0
C349 C 0.96374 0.00722 0.67343 0.0
H350 H 0.08055 0.9194 0.65293 0.0
H351 H 0.05443 0.94975 0.67379 0.0
H352 H 0.99829 0.90474 0.62542 0.0
H353 H 0.97224 0.93375 0.6467 0.0
H354 H 0.01721 0.87043 0.7068 0.0
H355 H 0.99139 0.90809 0.69004 0.0
H356 H 0.0685 0.93826 0.73236 0.0
H357 H 0.04265 0.97614 0.71526 0.0
H358 H 0.88677 0.06446 0.70813 0.0
H359 H 0.90957 0.02288 0.69329 0.0
H360 H 0.97298 0.09196 0.72666 0.0
H361 H 0.99538 0.04987 0.71215 0.0
H362 H 0.94509 0.10036 0.65077 0.0
H363 H 0.97067 0.06706 0.67085 0.0
H364 H 0.89243 0.02724 0.63213 0.0
H365 H 0.91801 0.99411 0.65218 0.0
N366 N 0.97752 0.98504 0.665 0.0
N367 N 0.98619 0.99013 0.69944 0.0
Mn368 Mn 0.33414 0.6731 0.0059 0.0
Mn369 Mn 0.33916 0.5993 0.01145 0.0
C370 C 0.34272 0.65344 0.03291 0.0
C371 C 0.35638 0.71841 0.00043 0.0
C372 C 0.28095 0.63128 0.00623 0.0
O373 O 0.3411 0.65843 0.98159 0.0
O374 O 0.345 0.60953 0.98685 0.0
C375 C 0.40272 0.59288 0.00359 0.0
N376 N 0.37988 0.58916 0.01463 0.0
C377 C 0.41213 0.56748 0.03596 0.0
C378 C 0.43596 0.57091 0.02477 0.0
C379 C 0.43123 0.58372 0.00853 0.0
C380 C 0.38421 0.577 0.03032 0.0
H381 H 0.39922 0.60284 0.99112 0.0
C382 C 0.34518 0.63184 0.97667 0.0
O383 O 0.32819 0.71462 0.99792 0.0
O384 O 0.37157 0.69571 0.00555 0.0
N385 N 0.33427 0.58634 0.03466 0.0
C386 C 0.3091 0.5853 0.04409 0.0
C387 C 0.31005 0.57317 0.06069 0.0
C388 C 0.33681 0.56212 0.06739 0.0
C389 C 0.36237 0.5632 0.05739 0.0
C390 C 0.36 0.57522 0.04085 0.0
H391 H 0.28849 0.59382 0.03903 0.0
O392 O 0.33158 0.67972 0.03129 0.0
O393 O 0.34829 0.63958 0.01873 0.0
O394 O 0.29176 0.65723 0.0049 0.0
O395 O 0.29661 0.60813 0.00876 0.0
C396 C 0.39018 0.55311 0.06325 0.0
C397 C 0.41506 0.55536 0.05257 0.0
H398 H 0.45801 0.56396 0.02855 0.0
H399 H 0.44954 0.58657 -0.00015 0.0
H400 H 0.29023 0.57244 0.06833 0.0
H401 H 0.3375 0.55298 0.08024 0.0
H402 H 0.39273 0.5439 0.07603 0.0
H403 H 0.43639 0.54785 0.05729 0.0
Mn404 Mn 0.33075 0.83645 0.25648 0.0
Mn405 Mn 0.40318 0.84251 0.26656 0.0
C406 C 0.3457 0.84504 0.28452 0.0
C407 C 0.28622 0.85841 0.24836 0.0
C408 C 0.37317 0.78389 0.25946 0.0
O409 O 0.34929 0.84381 0.23317 0.0
O410 O 0.39708 0.84841 0.24141 0.0
C411 C 0.40994 0.90624 0.25893 0.0
N412 N 0.41207 0.88334 0.27023 0.0
C413 C 0.42908 0.91573 0.29277 0.0
C414 C 0.42726 0.93963 0.28134 0.0
C415 C 0.4176 0.93486 0.26435 0.0
C416 C 0.42122 0.8877 0.28662 0.0
H417 H 0.40237 0.9027 0.24589 0.0
C418 C 0.37655 0.84823 0.2299 0.0
O419 O 0.29058 0.83028 0.24611 0.0
O420 O 0.30799 0.87367 0.25465 0.0
N421 N 0.41213 0.83753 0.29048 0.0
C422 C 0.41185 0.81228 0.30001 0.0
C423 C 0.42076 0.81326 0.31734 0.0
C424 C 0.42995 0.84015 0.32466 0.0
C425 C 0.4303 0.8658 0.31455 0.0
C426 C 0.42153 0.86339 0.2973 0.0
H427 H 0.40473 0.79157 0.29447 0.0
O428 O 0.32001 0.83349 0.28132 0.0
O429 O 0.36177 0.85091 0.27125 0.0
O430 O 0.34734 0.79427 0.25655 0.0
O431 O 0.39551 0.79989 0.26343 0.0
C432 C 0.43867 0.89373 0.32096 0.0
C433 C 0.43796 0.91869 0.31009 0.0
H434 H 0.43303 0.96175 0.28549 0.0
H435 H 0.416 0.95321 0.25547 0.0
H436 H 0.42041 0.79337 0.32506 0.0
H437 H 0.43656 0.84088 0.33806 0.0
H438 H 0.44537 0.89631 0.33427 0.0
H439 H 0.44412 0.9401 0.31522 0.0
Mn440 Mn 0.16649 0.83812 0.49778 0.0
Mn441 Mn 0.09366 0.84089 0.48813 0.0
C442 C 0.15069 0.84806 0.47004 0.0
C443 C 0.21017 0.86155 0.50606 0.0
C444 C 0.12689 0.78358 0.49381 0.0
O445 O 0.14796 0.84303 0.5213 0.0
O446 O 0.09982 0.84535 0.51336 0.0
C447 C 0.08288 0.90342 0.49732 0.0
N448 N 0.08208 0.88128 0.48548 0.0
C449 C 0.06226 0.91401 0.46387 0.0
C450 C 0.06269 0.93711 0.47586 0.0
C451 C 0.07308 0.93179 0.49265 0.0
C452 C 0.07209 0.88615 0.46929 0.0
H453 H 0.09102 0.89946 0.51021 0.0
C454 C 0.12054 0.84563 0.52477 0.0
O455 O 0.20705 0.83316 0.50778 0.0
O456 O 0.18757 0.87624 0.50028 0.0
N457 N 0.08478 0.83714 0.46413 0.0
C458 C 0.08736 0.81291 0.45387 0.0
C459 C 0.07859 0.81472 0.43654 0.0
C460 C 0.06721 0.84136 0.42997 0.0
C461 C 0.06458 0.86594 0.44081 0.0
C462 C 0.07337 0.86272 0.45801 0.0
H463 H 0.09623 0.79243 0.45884 0.0
O464 O 0.17691 0.8374 0.47284 0.0
O465 O 0.1345 0.85207 0.4835 0.0
O466 O 0.15214 0.79515 0.49686 0.0
O467 O 0.10373 0.79863 0.49023 0.0
C468 C 0.05415 0.89366 0.43513 0.0
C469 C 0.05304 0.91769 0.44665 0.0
H470 H 0.05535 0.95908 0.47228 0.0
H471 H 0.07363 0.94955 0.50196 0.0
H472 H 0.08076 0.79568 0.42825 0.0
H473 H 0.0608 0.84277 0.41655 0.0
H474 H 0.04737 0.89686 0.42188 0.0
H475 H 0.04541 0.93901 0.44207 0.0
Mn476 Mn 0.16532 0.6713 0.74599 0.0
Mn477 Mn 0.15703 0.59849 0.73784 0.0
C478 C 0.15852 0.655 0.71813 0.0
C479 C 0.14406 0.71665 0.75258 0.0
C480 C 0.21633 0.62686 0.74591 0.0
O481 O 0.15588 0.65446 0.76955 0.0
O482 O 0.14883 0.60664 0.76241 0.0
C483 C 0.09238 0.59478 0.74289 0.0
N484 N 0.11635 0.59069 0.73274 0.0
C485 C 0.08591 0.57171 0.70972 0.0
C486 C 0.06091 0.57554 0.71998 0.0
C487 C 0.06416 0.5872 0.73661 0.0
C488 C 0.11345 0.57969 0.71667 0.0
H489 H 0.09479 0.60382 0.75566 0.0
C490 C 0.14948 0.6278 0.77336 0.0
O491 O 0.17197 0.71178 0.7556 0.0
O492 O 0.12867 0.69505 0.74623 0.0
N493 N 0.16417 0.58721 0.71456 0.0
C494 C 0.19042 0.58553 0.70619 0.0
C495 C 0.19101 0.57448 0.68935 0.0
C496 C 0.16468 0.56502 0.68134 0.0
C497 C 0.13801 0.56655 0.6903 0.0
C498 C 0.13883 0.57752 0.70711 0.0
H499 H 0.21074 0.59265 0.71231 0.0
O500 O 0.17034 0.68062 0.72107 0.0
O501 O 0.1509 0.63987 0.73155 0.0
O502 O 0.20703 0.6534 0.74743 0.0
O503 O 0.19943 0.60494 0.7425 0.0
C504 C 0.11059 0.55797 0.68313 0.0
C505 C 0.08454 0.56067 0.69281 0.0
H506 H 0.0391 0.56978 0.71517 0.0
H507 H 0.04496 0.59034 0.74457 0.0
H508 H 0.21169 0.57332 0.68253 0.0
H509 H 0.16519 0.55673 0.6683 0.0
H510 H 0.10924 0.54964 0.6701 0.0
H511 H 0.06355 0.55435 0.68708 0.0
Mn512 Mn 0.83502 0.17055 0.50355 0.0
Mn513 Mn 0.8398 0.09718 0.51096 0.0
C514 C 0.84107 0.15305 0.53122 0.0
C515 C 0.85786 0.21534 0.49752 0.0
C516 C 0.78197 0.12863 0.50328 0.0
O517 O 0.8438 0.15408 0.47986 0.0
O518 O 0.84827 0.10573 0.48641 0.0
C519 C 0.90413 0.09046 0.50558 0.0
N520 N 0.88012 0.08729 0.51581 0.0
C521 C 0.90992 0.06639 0.53855 0.0
C522 C 0.93494 0.06926 0.52821 0.0
C523 C 0.93203 0.08141 0.51167 0.0
C524 C 0.88269 0.07577 0.53178 0.0
H525 H 0.90201 0.09988 0.49288 0.0
C526 C 0.8489 0.12729 0.47571 0.0
O527 O 0.82986 0.21146 0.49436 0.0
O528 O 0.87254 0.19301 0.50362 0.0
N529 N 0.83242 0.08562 0.53418 0.0
C530 C 0.80629 0.08521 0.54272 0.0
C531 C 0.80542 0.07391 0.55951 0.0
C532 C 0.83135 0.06298 0.5673 0.0
C533 C 0.85791 0.06333 0.5582 0.0
C534 C 0.85737 0.07459 0.54144 0.0
H535 H 0.7863 0.09364 0.53682 0.0
O536 O 0.83029 0.17923 0.52856 0.0
O537 O 0.84804 0.13803 0.51765 0.0
O538 O 0.79272 0.15459 0.50185 0.0
O539 O 0.79758 0.10572 0.50657 0.0
C540 C 0.88499 0.05335 0.56519 0.0
C541 C 0.911 0.05498 0.5554 0.0
H542 H 0.95652 0.06238 0.53289 0.0
H543 H 0.95127 0.08382 0.50365 0.0
H544 H 0.78483 0.07374 0.56646 0.0
H545 H 0.83065 0.05454 0.58031 0.0
H546 H 0.88614 0.04475 0.57817 0.0
H547 H 0.93175 0.04759 0.56099 0.0
Mn548 Mn 0.83106 0.33832 0.75453 0.0
Mn549 Mn 0.9039 0.34063 0.76426 0.0
C550 C 0.84671 0.34373 0.78269 0.0
C551 C 0.78746 0.36307 0.74738 0.0
C552 C 0.87125 0.28378 0.75623 0.0
O553 O 0.84942 0.34657 0.73129 0.0
O554 O 0.89746 0.34807 0.73929 0.0
C555 C 0.91298 0.40442 0.75772 0.0
N556 N 0.91462 0.38083 0.76856 0.0
C557 C 0.93427 0.41114 0.79137 0.0
C558 C 0.93297 0.43572 0.78041 0.0
C559 C 0.92223 0.43234 0.76353 0.0
C560 C 0.92478 0.38386 0.78486 0.0
H561 H 0.90461 0.40195 0.74476 0.0
C562 C 0.87679 0.34965 0.72791 0.0
O563 O 0.79037 0.33498 0.74432 0.0
O564 O 0.81013 0.37669 0.75389 0.0
N565 N 0.91353 0.33398 0.78796 0.0
C566 C 0.9127 0.30821 0.79701 0.0
C567 C 0.92257 0.30782 0.81418 0.0
C568 C 0.93336 0.33385 0.82182 0.0
C569 C 0.93436 0.36 0.81218 0.0
C570 C 0.92452 0.35897 0.79507 0.0
H571 H 0.90435 0.28817 0.79123 0.0
O572 O 0.82047 0.33374 0.77926 0.0
O573 O 0.86293 0.35027 0.76955 0.0
O574 O 0.84586 0.29539 0.75346 0.0
O575 O 0.89423 0.29864 0.76049 0.0
C576 C 0.94435 0.38714 0.81895 0.0
C577 C 0.94422 0.41271 0.80857 0.0
H578 H 0.94 0.45732 0.78486 0.0
H579 H 0.92103 0.45124 0.75502 0.0
H580 H 0.92172 0.28754 0.82153 0.0
H581 H 0.94068 0.33353 0.83511 0.0
H582 H 0.95186 0.38866 0.83218 0.0
H583 H 0.95164 0.43352 0.81397 0.0
Mn584 Mn 0.67332 0.33775 0.99839 0.0
Mn585 Mn 0.60128 0.35503 0.99291 0.0
C586 C 0.65557 0.35176 0.97166 0.0
C587 C 0.72162 0.35208 0.00472 0.0
C588 C 0.62349 0.29206 0.99646 0.0
O589 O 0.65972 0.34467 0.0229 0.0
O590 O 0.6123 0.35777 0.01767 0.0
C591 C 0.60423 0.41829 0.00241 0.0
N592 N 0.5972 0.39691 0.99077 0.0
C593 C 0.57981 0.4331 0.97037 0.0
C594 C 0.58668 0.45551 0.98219 0.0
C595 C 0.59899 0.44806 0.99827 0.0
C596 C 0.58535 0.40382 0.97526 0.0
H597 H 0.61382 0.41266 0.01475 0.0
C598 C 0.63424 0.35301 0.02789 0.0
O599 O 0.71344 0.32467 0.00617 0.0
O600 O 0.70155 0.37111 0.00025 0.0
N601 N 0.58787 0.35342 0.96953 0.0
C602 C 0.58411 0.32932 0.95924 0.0
C603 C 0.57282 0.33304 0.94251 0.0
C604 C 0.56535 0.36142 0.93657 0.0
C605 C 0.56913 0.38585 0.94744 0.0
C606 C 0.58027 0.38076 0.96404 0.0
H607 H 0.58987 0.30747 0.96374 0.0
O608 O 0.67968 0.33641 0.97301 0.0
O609 O 0.64257 0.35825 0.98597 0.0
O610 O 0.65097 0.29828 0.99771 0.0
O611 O 0.60332 0.31161 0.99465 0.0
C612 C 0.56288 0.4151 0.94236 0.0
C613 C 0.56825 0.43871 0.9538 0.0
H614 H 0.58285 0.47851 0.979 0.0
H615 H 0.6045 0.46524 0.00742 0.0
H616 H 0.56999 0.31408 0.93418 0.0
H617 H 0.55693 0.36423 0.92359 0.0
H618 H 0.55439 0.41973 0.92957 0.0
H619 H 0.56378 0.46114 0.94965 0.0
Mn620 Mn 0.66395 0.17469 0.24905 0.0
Mn621 Mn 0.64746 0.10317 0.24111 0.0
C622 C 0.65444 0.15925 0.22129 0.0
C623 C 0.64911 0.22243 0.25576 0.0
C624 C 0.70967 0.12488 0.24863 0.0
O625 O 0.65345 0.159 0.27273 0.0
O626 O 0.64053 0.11236 0.26569 0.0
C627 C 0.58287 0.10639 0.24647 0.0
N628 N 0.60611 0.09971 0.23621 0.0
C629 C 0.57351 0.0837 0.21343 0.0
C630 C 0.5492 0.09023 0.22379 0.0
C631 C 0.55391 0.1017 0.24036 0.0
C632 C 0.60183 0.08884 0.22021 0.0
H633 H 0.58641 0.11528 0.2592 0.0
C634 C 0.64396 0.1333 0.27662 0.0
O635 O 0.67614 0.2138 0.25851 0.0
O636 O 0.63059 0.20306 0.24974 0.0
N637 N 0.65301 0.09106 0.21781 0.0
C638 C 0.6788 0.08669 0.20929 0.0
C639 C 0.67796 0.07556 0.19246 0.0
C640 C 0.65068 0.06875 0.18463 0.0
C641 C 0.62446 0.07299 0.19375 0.0
C642 C 0.62669 0.08395 0.21053 0.0
H643 H 0.69984 0.09175 0.21527 0.0
O644 O 0.66919 0.18337 0.22409 0.0
O645 O 0.64554 0.14503 0.23479 0.0
O646 O 0.70326 0.15225 0.24994 0.0
O647 O 0.69045 0.1048 0.24559 0.0
C648 C 0.59619 0.06721 0.18675 0.0
C649 C 0.57073 0.07266 0.19656 0.0
H650 H 0.52684 0.08672 0.21911 0.0
H651 H 0.53527 0.10693 0.2484 0.0
H652 H 0.69829 0.07229 0.18552 0.0
H653 H 0.6501 0.06042 0.17159 0.0
H654 H 0.59377 0.05895 0.17375 0.0
H655 H 0.5491 0.0685 0.19096 0.0
H656 H 0.10721 0.89817 0.27212 0.0
H657 H 0.27418 0.9167 0.24371 0.0
H658 H 0.14963 0.9821 0.26324 0.0
H659 H 0.23175 0.83176 0.24836 0.0
H660 H 0.22622 0.94069 0.24621 0.0
H661 H 0.1496 0.87319 0.25921 0.0
C662 C 0.12519 0.91136 0.26717 0.0
C663 C 0.12516 0.94222 0.26903 0.0
C664 C 0.2272 0.91678 0.24642 0.0
C665 C 0.17375 0.91385 0.25441 0.0
C666 C 0.25462 0.90307 0.24494 0.0
C667 C 0.25692 0.87224 0.24604 0.0
C668 C 0.2019 0.89957 0.24935 0.0
C669 C 0.23089 0.85562 0.2475 0.0
C670 C 0.14942 0.89709 0.25986 0.0
C671 C 0.14907 0.95822 0.26244 0.0
N672 N 0.20445 0.86953 0.24946 0.0
N673 N 0.17249 0.94385 0.25562 0.0
H674 H 0.05196 0.60849 0.49989 0.0
H675 H 0.16272 0.74504 0.51156 0.0
H676 H 0.1138 0.61698 0.54227 0.0
H677 H 0.08277 0.7485 0.4808 0.0
H678 H 0.15227 0.69317 0.51812 0.0
H679 H 0.07007 0.65525 0.48832 0.0
C680 C 0.06939 0.62006 0.50675 0.0
C681 C 0.08106 0.60884 0.52223 0.0
C682 C 0.13724 0.70525 0.50977 0.0
C683 C 0.10225 0.66213 0.50883 0.0
C684 C 0.14326 0.73478 0.50593 0.0
C685 C 0.1234 0.75124 0.49578 0.0
C686 C 0.11136 0.69203 0.50326 0.0
C687 C 0.0985 0.73678 0.48887 0.0
C688 C 0.07982 0.64666 0.50006 0.0
C689 C 0.10423 0.62451 0.53025 0.0
N690 N 0.0931 0.70806 0.49282 0.0
N691 N 0.11391 0.65043 0.52352 0.0
H692 H 0.37506 0.53212 0.77078 0.0
H693 H 0.26004 0.66417 0.75807 0.0
H694 H 0.39715 0.62281 0.78206 0.0
H695 H 0.24522 0.57468 0.74066 0.0
H696 H 0.31112 0.65082 0.76551 0.0
H697 H 0.32811 0.54839 0.75836 0.0
C698 C 0.37 0.55552 0.77055 0.0
C699 C 0.38981 0.57614 0.77757 0.0
C700 C 0.2967 0.63425 0.7599 0.0
C701 C 0.336 0.59505 0.76344 0.0
C702 C 0.26754 0.64184 0.75564 0.0
C703 C 0.2481 0.62044 0.74893 0.0
C704 C 0.30639 0.60505 0.75748 0.0
C705 C 0.25915 0.59188 0.74602 0.0
C706 C 0.34325 0.56485 0.7634 0.0
C707 C 0.38242 0.60625 0.77674 0.0
N708 N 0.2874 0.58502 0.75043 0.0
N709 N 0.35589 0.61482 0.76998 0.0
H710 H 0.39329 0.89836 0.0262 0.0
H711 H 0.41509 0.73077 0.99854 0.0
H712 H 0.47824 0.85674 0.01962 0.0
H713 H 0.32958 0.7728 0.00058 0.0
H714 H 0.43857 0.77881 0.00231 0.0
H715 H 0.36953 0.85509 0.01316 0.0
C716 C 0.40697 0.88034 0.02175 0.0
C717 C 0.43775 0.88092 0.02425 0.0
C718 C 0.41467 0.7777 0.0017 0.0
C719 C 0.41075 0.83129 0.0095 0.0
C720 C 0.40125 0.75023 0.99952 0.0
C721 C 0.37036 0.7478 0.99946 0.0
C722 C 0.39708 0.80291 0.00412 0.0
C723 C 0.3535 0.77373 0.00063 0.0
C724 C 0.3934 0.85559 0.01437 0.0
C725 C 0.45438 0.85691 0.01832 0.0
N726 N 0.36708 0.80022 0.00321 0.0
N727 N 0.44066 0.83299 0.0114 0.0
H728 H 0.10519 0.55732 0.9989 0.0
H729 H 0.24254 0.66676 0.98827 0.0
H730 H 0.11991 0.6089 0.95327 0.0
H731 H 0.24619 0.58654 0.01827 0.0
H732 H 0.19073 0.65604 0.98109 0.0
H733 H 0.1502 0.57871 0.01184 0.0
C734 C 0.11756 0.57374 0.99184 0.0
C735 C 0.10916 0.58146 0.97507 0.0
C736 C 0.20284 0.6411 0.98946 0.0
C737 C 0.16015 0.60579 0.98961 0.0
C738 C 0.23231 0.64722 0.99361 0.0
C739 C 0.24878 0.62733 0.00372 0.0
C740 C 0.18968 0.61522 0.99572 0.0
C741 C 0.23442 0.60229 0.01027 0.0
C742 C 0.1432 0.58575 0.99913 0.0
C743 C 0.1259 0.6025 0.96625 0.0
N744 N 0.2057 0.59688 0.00609 0.0
N745 N 0.15076 0.6139 0.9736 0.0
H746 H 0.40454 0.62789 0.20265 0.0
H747 H 0.41666 0.74942 0.27372 0.0
H748 H 0.45036 0.61109 0.25047 0.0
H749 H 0.342 0.7459 0.23877 0.0
H750 H 0.4294 0.69878 0.26575 0.0
H751 H 0.38109 0.67122 0.21557 0.0
C752 C 0.40925 0.63318 0.21597 0.0
C753 C 0.42935 0.61615 0.22556 0.0
C754 C 0.40993 0.70892 0.26006 0.0
C755 C 0.40326 0.66576 0.24028 0.0
C756 C 0.40269 0.73784 0.26456 0.0
C757 C 0.37836 0.75198 0.25679 0.0
C758 C 0.39315 0.69429 0.24741 0.0
C759 C 0.36096 0.73586 0.24506 0.0
C760 C 0.39586 0.65777 0.22335 0.0
C761 C 0.43487 0.62376 0.24273 0.0
N762 N 0.36902 0.70804 0.24047 0.0
N763 N 0.42228 0.64838 0.24949 0.0
H764 H 0.38905 0.90407 0.48302 0.0
H765 H 0.22066 0.92045 0.50962 0.0
H766 H 0.3434 0.98734 0.48778 0.0
H767 H 0.26535 0.8364 0.50668 0.0
H768 H 0.26801 0.9455 0.50667 0.0
H769 H 0.34694 0.87923 0.49629 0.0
C770 C 0.3704 0.91719 0.48713 0.0
C771 C 0.3695 0.94775 0.48404 0.0
C772 C 0.26763 0.92158 0.50693 0.0
C773 C 0.3212 0.9195 0.49906 0.0
C774 C 0.24057 0.90726 0.50867 0.0
C775 C 0.23907 0.87633 0.50816 0.0
C776 C 0.29338 0.90486 0.50437 0.0
C777 C 0.26555 0.86032 0.50706 0.0
C778 C 0.34632 0.90299 0.49464 0.0
C779 C 0.34473 0.96364 0.48956 0.0
N780 N 0.29162 0.87479 0.50487 0.0
N781 N 0.32148 0.9493 0.49662 0.0
H782 H 0.10435 0.89592 0.72745 0.0
H783 H 0.08602 0.72908 0.75707 0.0
H784 H 0.0206 0.85383 0.7371 0.0
H785 H 0.17109 0.77093 0.75184 0.0
H786 H 0.06224 0.77714 0.75427 0.0
H787 H 0.12968 0.85339 0.74047 0.0
C788 C 0.09129 0.87798 0.7326 0.0
C789 C 0.06036 0.87812 0.73093 0.0
C790 C 0.08614 0.77602 0.75399 0.0
C791 C 0.0891 0.82942 0.74567 0.0
C792 C 0.09972 0.74855 0.75562 0.0
C793 C 0.1305 0.74606 0.75447 0.0
C794 C 0.10341 0.80121 0.75083 0.0
C795 C 0.14725 0.77196 0.75274 0.0
C796 C 0.10575 0.85367 0.73996 0.0
C797 C 0.04452 0.85429 0.73776 0.0
N798 N 0.13344 0.79848 0.75062 0.0
N799 N 0.05906 0.83081 0.74464 0.0
H800 H 0.60992 0.40967 0.77209 0.0
H801 H 0.77841 0.42226 0.74484 0.0
H802 H 0.65759 0.49186 0.76766 0.0
H803 H 0.7316 0.33933 0.74694 0.0
H804 H 0.73188 0.44843 0.74858 0.0
H805 H 0.65141 0.38397 0.75874 0.0
C806 C 0.6289 0.42239 0.76805 0.0
C807 C 0.63048 0.45291 0.77123 0.0
C808 C 0.73159 0.42452 0.74797 0.0
C809 C 0.6781 0.42362 0.7561 0.0
C810 C 0.75819 0.40957 0.74578 0.0
C811 C 0.75887 0.37859 0.74578 0.0
C812 C 0.70545 0.40841 0.75049 0.0
C813 C 0.73201 0.36325 0.74691 0.0
C814 C 0.65262 0.40769 0.76049 0.0
C815 C 0.65569 0.46823 0.76581 0.0
N816 N 0.70639 0.37832 0.74954 0.0
N817 N 0.67857 0.4534 0.75868 0.0
H818 H 0.6119 0.10498 0.02074 0.0
H819 H 0.56721 0.27003 0.99452 0.0
H820 H 0.52447 0.14195 0.02638 0.0
H821 H 0.65783 0.24273 0.00271 0.0
H822 H 0.55108 0.21995 0.00083 0.0
H823 H 0.62876 0.15244 0.00935 0.0
C824 C 0.59619 0.12295 0.01957 0.0
C825 C 0.56667 0.11934 0.02466 0.0
C826 C 0.57451 0.22486 0.00115 0.0
C827 C 0.58581 0.17351 0.01132 0.0
C828 C 0.58382 0.25349 0.9975 0.0
C829 C 0.61398 0.26084 0.9983 0.0
C830 C 0.59544 0.2032 0.00559 0.0
C831 C 0.63435 0.23821 0.00207 0.0
C832 C 0.60585 0.14997 0.01298 0.0
C833 C 0.54728 0.14334 0.02244 0.0
N834 N 0.62469 0.21044 0.0057 0.0
N835 N 0.55722 0.16934 0.01601 0.0
H836 H 0.89835 0.11712 0.26997 0.0
H837 H 0.73176 0.06853 0.24937 0.0
H838 H 0.86436 0.02902 0.27799 0.0
H839 H 0.75874 0.15983 0.25393 0.0
H840 H 0.78239 0.0533 0.25552 0.0
H841 H 0.84922 0.13268 0.26009 0.0
C842 C 0.88066 0.10102 0.26964 0.0
C843 C 0.88561 0.07169 0.2749 0.0
C844 C 0.77726 0.07668 0.25513 0.0
C845 C 0.82947 0.08932 0.26336 0.0
C846 C 0.74831 0.08544 0.25158 0.0
C847 C 0.7408 0.11557 0.25129 0.0
C848 C 0.79903 0.09812 0.25835 0.0
C849 C 0.7634 0.13637 0.25416 0.0
C850 C 0.85266 0.10991 0.26392 0.0
C851 C 0.86187 0.05172 0.27384 0.0
N852 N 0.79149 0.12725 0.25763 0.0
N853 N 0.83488 0.06093 0.26824 0.0
H854 H 0.8962 0.3949 0.52286 0.0
H855 H 0.91666 0.22704 0.49567 0.0
H856 H 0.98075 0.35222 0.51684 0.0
H857 H 0.83156 0.26996 0.49692 0.0
H858 H 0.94057 0.2749 0.49924 0.0
H859 H 0.87218 0.352 0.50952 0.0
C860 C 0.90974 0.37672 0.51847 0.0
C861 C 0.94046 0.37686 0.52124 0.0
C862 C 0.91667 0.27403 0.49849 0.0
C863 C 0.91318 0.32771 0.50613 0.0
C864 C 0.90301 0.24667 0.49642 0.0
C865 C 0.87211 0.24455 0.49622 0.0
C866 C 0.8993 0.29946 0.50069 0.0
C867 C 0.85548 0.27067 0.49709 0.0
C868 C 0.89602 0.3522 0.51091 0.0
C869 C 0.95693 0.35271 0.51535 0.0
N870 N 0.86929 0.29707 0.4996 0.0
N871 N 0.94307 0.32902 0.50826 0.0
H872 H 0.60433 0.05864 0.49968 0.0
H873 H 0.7432 0.16471 0.48585 0.0
H874 H 0.61234 0.11649 0.45581 0.0
H875 H 0.74763 0.08278 0.51423 0.0
H876 H 0.69092 0.15487 0.47945 0.0
H877 H 0.65289 0.07511 0.50981 0.0
C878 C 0.61617 0.07485 0.49219 0.0
C879 C 0.60428 0.08582 0.4767 0.0
C880 C 0.70337 0.13924 0.4872 0.0
C881 C 0.65961 0.1052 0.48849 0.0
C882 C 0.73313 0.14487 0.49091 0.0
C883 C 0.74987 0.12442 0.50048 0.0
C884 C 0.69023 0.11326 0.49334 0.0
C885 C 0.73567 0.09903 0.50668 0.0
C886 C 0.64381 0.08433 0.49805 0.0
C887 C 0.62039 0.10751 0.46786 0.0
N888 N 0.70669 0.09417 0.503 0.0
N889 N 0.6473 0.11636 0.47383 0.0
H890 H 0.88345 0.11664 0.70528 0.0
H891 H 0.91432 0.2482 0.76977 0.0
H892 H 0.94233 0.10883 0.7491 0.0
H893 H 0.83743 0.24623 0.73645 0.0
H894 H 0.92414 0.19674 0.76271 0.0
H895 H 0.8652 0.16329 0.71675 0.0
C896 C 0.89224 0.12441 0.71745 0.0
C897 C 0.91473 0.10878 0.72614 0.0
C898 C 0.9049 0.20739 0.7571 0.0
C899 C 0.89428 0.16264 0.73913 0.0
C900 C 0.89929 0.23685 0.7611 0.0
C901 C 0.87511 0.25164 0.7536 0.0
C902 C 0.88654 0.19266 0.74525 0.0
C903 C 0.85632 0.23569 0.74252 0.0
C904 C 0.88186 0.15118 0.72395 0.0
C905 C 0.9255 0.12036 0.74173 0.0
N906 N 0.86269 0.20715 0.73847 0.0
N907 N 0.91542 0.14671 0.74761 0.0
H908 H 0.8816 0.45547 0.00106 0.0
H909 H 0.77059 0.31815 0.99919 0.0
H910 H 0.88958 0.38209 0.96587 0.0
H911 H 0.74353 0.40672 0.01217 0.0
H912 H 0.82121 0.33624 0.99512 0.0
H913 H 0.83728 0.43251 0.01281 0.0
C914 C 0.87426 0.43453 0.99582 0.0
C915 C 0.88931 0.42106 0.98218 0.0
C916 C 0.80424 0.35152 0.99919 0.0
C917 C 0.83912 0.39427 0.99608 0.0
C918 C 0.77548 0.34122 0.00164 0.0
C919 C 0.7529 0.36108 0.00585 0.0
C920 C 0.81041 0.38173 0.00128 0.0
C921 C 0.76032 0.39078 0.00875 0.0
C922 C 0.8491 0.42136 0.00267 0.0
C923 C 0.87909 0.39336 0.97642 0.0
N924 N 0.78844 0.40027 0.00631 0.0
N925 N 0.85458 0.38099 0.98333 0.0
H926 H 0.62648 0.39267 0.21637 0.0
H927 H 0.59414 0.24456 0.26165 0.0
H928 H 0.55499 0.38699 0.25264 0.0
H929 H 0.6841 0.27111 0.2523 0.0
H930 H 0.5784 0.29604 0.25816 0.0
H931 H 0.64792 0.34817 0.22886 0.0
C932 C 0.61548 0.38257 0.22716 0.0
C933 C 0.58852 0.3937 0.23325 0.0
C934 C 0.60166 0.29068 0.25725 0.0
C935 C 0.61272 0.34192 0.24721 0.0
C936 C 0.61063 0.26137 0.25921 0.0
C937 C 0.6404 0.25368 0.25717 0.0
C938 C 0.62251 0.3122 0.25271 0.0
C939 C 0.66093 0.27621 0.254 0.0
C940 C 0.62777 0.35699 0.23423 0.0
C941 C 0.57525 0.37891 0.24708 0.0
N942 N 0.65151 0.30443 0.25146 0.0
N943 N 0.58717 0.35347 0.25336 0.0
H944 H 0.08835 0.97584 0.39726 0.0
H945 H 0.15394 0.82663 0.43715 0.0
H946 H 0.12197 0.90554 0.36545 0.0
H947 H 0.13519 0.90513 0.46633 0.0
H948 H 0.14222 0.85396 0.41053 0.0
H949 H 0.10494 0.94915 0.4226 0.0
C950 C 0.09973 0.955 0.39554 0.0
C951 C 0.10407 0.94317 0.3791 0.0
C952 C 0.14072 0.86516 0.42277 0.0
C953 C 0.12262 0.91192 0.40834 0.0
C954 C 0.14729 0.84959 0.43788 0.0
C955 C 0.14428 0.86348 0.45383 0.0
C956 C 0.13162 0.89484 0.42378 0.0
C957 C 0.13658 0.89341 0.45424 0.0
C958 C 0.10902 0.93961 0.41009 0.0
C959 C 0.11804 0.91549 0.37785 0.0
N960 N 0.13024 0.90801 0.43946 0.0
N961 N 0.12676 0.90074 0.39229 0.0
H962 H 0.14034 0.57587 0.61915 0.0
H963 H 0.10185 0.64553 0.70857 0.0
H964 H 0.05271 0.60679 0.63105 0.0
H965 H 0.19012 0.65003 0.68857 0.0
H966 H 0.08338 0.63128 0.68011 0.0
H967 H 0.15965 0.60249 0.6443 0.0
C968 C 0.12527 0.58862 0.62692 0.0
C969 C 0.0949 0.58912 0.62306 0.0
C970 C 0.10676 0.63566 0.68185 0.0
C971 C 0.11669 0.61923 0.65183 0.0
C972 C 0.11728 0.64348 0.69808 0.0
C973 C 0.14757 0.64778 0.70086 0.0
C974 C 0.1268 0.63183 0.66839 0.0
C975 C 0.16667 0.64603 0.68688 0.0
C976 C 0.1363 0.60389 0.64119 0.0
C977 C 0.07631 0.60603 0.63349 0.0
N978 N 0.15606 0.63748 0.67124 0.0
N979 N 0.08743 0.62004 0.64756 0.0
H980 H 0.43643 0.62838 0.88061 0.0
H981 H 0.33676 0.58059 0.95894 0.0
H982 H 0.38691 0.54693 0.8822 0.0
H983 H 0.36887 0.66977 0.95289 0.0
H984 H 0.35266 0.56929 0.92991 0.0
H985 H 0.40939 0.64583 0.90572 0.0
C986 C 0.41946 0.61441 0.88601 0.0
C987 C 0.41425 0.58594 0.87945 0.0
C988 C 0.35597 0.59146 0.93481 0.0
C989 C 0.38366 0.60556 0.90834 0.0
C990 C 0.34698 0.59789 0.95144 0.0
C991 C 0.35176 0.62609 0.95842 0.0
C992 C 0.37037 0.61319 0.92511 0.0
C993 C 0.3648 0.64773 0.94801 0.0
C994 C 0.40415 0.62432 0.90041 0.0
C995 C 0.39216 0.56873 0.88707 0.0
N996 N 0.37407 0.6407 0.93194 0.0
N997 N 0.37798 0.57864 0.90122 0.0
H998 H 0.4762 0.86856 0.13679 0.0
H999 H 0.34255 0.87005 0.20327 0.0
H1000 H 0.40153 0.92752 0.13163 0.0
H1001 H 0.43058 0.83928 0.21564 0.0
H1002 H 0.3592 0.88234 0.1742 0.0
H1003 H 0.45465 0.84844 0.16292 0.0
C1004 C 0.45519 0.87718 0.14106 0.0
C1005 C 0.44095 0.90017 0.13209 0.0
C1006 C 0.37473 0.8727 0.18328 0.0
C1007 C 0.41596 0.87684 0.16192 0.0
C1008 C 0.36525 0.86559 0.19982 0.0
C1009 C 0.38529 0.85388 0.21194 0.0
C1010 C 0.40428 0.86757 0.17879 0.0
C1011 C 0.41446 0.84861 0.20679 0.0
C1012 C 0.44288 0.8656 0.15596 0.0
C1013 C 0.41332 0.90979 0.13804 0.0
N1014 N 0.42306 0.85549 0.19063 0.0
N1015 N 0.40184 0.89825 0.15266 0.0
H1016 H 0.12332 0.53519 0.86858 0.0
H1017 H 0.12422 0.66331 0.79781 0.0
H1018 H 0.05898 0.60572 0.868 0.0
H1019 H 0.15826 0.57537 0.78967 0.0
H1020 H 0.10909 0.64843 0.82683 0.0
H1021 H 0.14566 0.55619 0.84295 0.0
C1022 C 0.11394 0.55517 0.86313 0.0
C1023 C 0.08882 0.56833 0.8703 0.0
C1024 C 0.1201 0.63257 0.81868 0.0
C1025 C 0.11468 0.59275 0.84107 0.0
C1026 C 0.12881 0.64103 0.8022 0.0
C1027 C 0.14224 0.62043 0.7913 0.0
C1028 C 0.12546 0.60354 0.82433 0.0
C1029 C 0.14763 0.59184 0.79758 0.0
C1030 C 0.1268 0.56719 0.84854 0.0
C1031 C 0.07829 0.59478 0.86295 0.0
N1032 N 0.13924 0.58427 0.81366 0.0
N1033 N 0.09112 0.606 0.84863 0.0
H1034 H 0.38849 0.56499 0.1267 0.0
H1035 H 0.40064 0.64324 0.03829 0.0
H1036 H 0.4642 0.61965 0.11532 0.0
H1037 H 0.31712 0.64551 0.06433 0.0
H1038 H 0.42494 0.62802 0.06513 0.0
H1039 H 0.36157 0.58848 0.10295 0.0
C1040 C 0.39941 0.58215 0.11946 0.0
C1041 C 0.42896 0.58999 0.12302 0.0
C1042 C 0.40133 0.63204 0.065 0.0
C1043 C 0.3984 0.61609 0.0955 0.0
C1044 C 0.38749 0.64043 0.04973 0.0
C1045 C 0.35687 0.64477 0.04917 0.0
C1046 C 0.38432 0.62757 0.07971 0.0
C1047 C 0.34076 0.64173 0.06432 0.0
C1048 C 0.38399 0.5954 0.10585 0.0
C1049 C 0.44187 0.6121 0.11284 0.0
N1050 N 0.35461 0.63264 0.07901 0.0
N1051 N 0.4267 0.62398 0.09938 0.0
H1052 H 0.41605 0.8951 0.38266 0.0
H1053 H 0.35354 0.90324 0.28986 0.0
H1054 H 0.36042 0.96837 0.36719 0.0
H1055 H 0.34857 0.82001 0.31658 0.0
H1056 H 0.36278 0.92827 0.31728 0.0
H1057 H 0.39723 0.86689 0.35812 0.0
C1058 C 0.39952 0.90518 0.37439 0.0
C1059 C 0.39015 0.9345 0.37701 0.0
C1060 C 0.35948 0.90456 0.31716 0.0
C1061 C 0.36949 0.90246 0.3486 0.0
C1062 C 0.35451 0.8903 0.30157 0.0
C1063 C 0.35114 0.85957 0.30108 0.0
C1064 C 0.36149 0.88786 0.33229 0.0
C1065 C 0.3517 0.84373 0.31655 0.0
C1066 C 0.38896 0.88902 0.36032 0.0
C1067 C 0.36907 0.94628 0.3655 0.0
N1068 N 0.35748 0.85801 0.3316 0.0
N1069 N 0.35989 0.93045 0.35163 0.0
H1070 H 0.09537 0.92454 0.62371 0.0
H1071 H 0.06774 0.83183 0.53922 0.0
H1072 H 0.02447 0.86114 0.6185 0.0
H1073 H 0.15315 0.86932 0.5514 0.0
H1074 H 0.05169 0.84263 0.56833 0.0
H1075 H 0.11775 0.90441 0.59782 0.0
C1076 C 0.08476 0.90602 0.61736 0.0
C1077 C 0.0577 0.89481 0.62324 0.0
C1078 C 0.07406 0.84823 0.56473 0.0
C1079 C 0.08294 0.8722 0.5933 0.0
C1080 C 0.08319 0.84221 0.54807 0.0
C1081 C 0.11176 0.8499 0.54284 0.0
C1082 C 0.0934 0.86257 0.57621 0.0
C1083 C 0.13093 0.86303 0.55491 0.0
C1084 C 0.09751 0.89466 0.60249 0.0
C1085 C 0.0449 0.87104 0.61425 0.0
N1086 N 0.12126 0.86936 0.57099 0.0
N1087 N 0.0574 0.86083 0.59963 0.0
H1088 H 0.62357 0.40666 0.86612 0.0
H1089 H 0.64907 0.41065 0.9679 0.0
H1090 H 0.59771 0.47912 0.89882 0.0
H1091 H 0.65004 0.32941 0.93911 0.0
H1092 H 0.63795 0.43781 0.94149 0.0
H1093 H 0.64004 0.37937 0.89171 0.0
C1094 C 0.62145 0.41693 0.8786 0.0
C1095 C 0.60934 0.44542 0.88021 0.0
C1096 C 0.64046 0.41403 0.94089 0.0
C1097 C 0.62852 0.41443 0.90944 0.0
C1098 C 0.64658 0.39856 0.95596 0.0
C1099 C 0.64907 0.36775 0.95566 0.0
C1100 C 0.63727 0.39858 0.92534 0.0
C1101 C 0.64731 0.35315 0.93982 0.0
C1102 C 0.63094 0.40135 0.89318 0.0
C1103 C 0.6075 0.45762 0.89677 0.0
N1104 N 0.64114 0.36868 0.92523 0.0
N1105 N 0.61696 0.44208 0.91067 0.0
H1106 H 0.63257 0.08423 0.12153 0.0
H1107 H 0.59708 0.15469 0.21166 0.0
H1108 H 0.54522 0.1135 0.13529 0.0
H1109 H 0.68549 0.1517 0.19179 0.0
H1110 H 0.5776 0.14181 0.18319 0.0
H1111 H 0.65283 0.11038 0.14654 0.0
C1112 C 0.61774 0.09654 0.12969 0.0
C1113 C 0.58718 0.09662 0.12641 0.0
C1114 C 0.60126 0.14423 0.18495 0.0
C1115 C 0.6101 0.12637 0.15502 0.0
C1116 C 0.61233 0.15126 0.20121 0.0
C1117 C 0.64287 0.15295 0.20404 0.0
C1118 C 0.62099 0.1386 0.17154 0.0
C1119 C 0.6618 0.14963 0.19008 0.0
C1120 C 0.62931 0.11156 0.1439 0.0
C1121 C 0.56893 0.11304 0.13729 0.0
N1122 N 0.65059 0.14192 0.17444 0.0
N1123 N 0.58063 0.1269 0.15126 0.0
H1124 H 0.9298 0.1309 0.37578 0.0
H1125 H 0.84998 0.07322 0.46009 0.0
H1126 H 0.90024 0.04109 0.38286 0.0
H1127 H 0.86612 0.16576 0.45032 0.0
H1128 H 0.86642 0.06171 0.4312 0.0
H1129 H 0.90462 0.14491 0.40225 0.0
C1130 C 0.91776 0.11421 0.38281 0.0
C1131 C 0.91727 0.08474 0.37715 0.0
C1132 C 0.86617 0.08457 0.43529 0.0
C1133 C 0.88857 0.10056 0.40745 0.0
C1134 C 0.85686 0.09118 0.45185 0.0
C1135 C 0.85687 0.12051 0.45773 0.0
C1136 C 0.87592 0.10737 0.42451 0.0
C1137 C 0.86578 0.14283 0.44636 0.0
C1138 C 0.90333 0.12223 0.39788 0.0
C1139 C 0.90104 0.06409 0.38664 0.0
N1140 N 0.87524 0.13577 0.43034 0.0
N1141 N 0.88764 0.07233 0.40141 0.0
H1142 H 0.97593 0.36499 0.63436 0.0
H1143 H 0.84369 0.37396 0.7016 0.0
H1144 H 0.9045 0.42787 0.62942 0.0
H1145 H 0.93007 0.33823 0.71335 0.0
H1146 H 0.86053 0.38557 0.67246 0.0
H1147 H 0.95372 0.34626 0.66064 0.0
C1148 C 0.95549 0.37477 0.63872 0.0
C1149 C 0.94238 0.39842 0.62977 0.0
C1150 C 0.87565 0.37502 0.68144 0.0
C1151 C 0.91664 0.37674 0.65979 0.0
C1152 C 0.86606 0.36833 0.69802 0.0
C1153 C 0.88561 0.35538 0.70997 0.0
C1154 C 0.90477 0.36822 0.67674 0.0
C1155 C 0.91436 0.34856 0.70464 0.0
C1156 C 0.94279 0.36399 0.65371 0.0
C1157 C 0.9154 0.40958 0.63583 0.0
N1158 N 0.92304 0.35505 0.68845 0.0
N1159 N 0.90355 0.39881 0.65054 0.0
H1160 H 0.56036 0.13661 0.37566 0.0
H1161 H 0.64157 0.07949 0.29221 0.0
H1162 H 0.59629 0.04873 0.37058 0.0
H1163 H 0.62833 0.17242 0.30205 0.0
H1164 H 0.62537 0.06838 0.3212 0.0
H1165 H 0.58559 0.15103 0.34924 0.0
C1166 C 0.57383 0.12047 0.3691 0.0
C1167 C 0.5761 0.09138 0.37529 0.0
C1168 C 0.62622 0.09125 0.31712 0.0
C1169 C 0.60476 0.10763 0.34505 0.0
C1170 C 0.63534 0.09761 0.30051 0.0
C1171 C 0.63608 0.12693 0.29464 0.0
C1172 C 0.61728 0.11429 0.32795 0.0
C1173 C 0.62806 0.1495 0.30605 0.0
C1174 C 0.58829 0.12873 0.35407 0.0
C1175 C 0.59407 0.07144 0.36638 0.0
N1176 N 0.61862 0.14268 0.32212 0.0
N1177 N 0.60738 0.07983 0.35162 0.0
H1178 H 0.85865 0.07237 0.63009 0.0
H1179 H 0.8974 0.14074 0.54033 0.0
H1180 H 0.94655 0.10239 0.6181 0.0
H1181 H 0.80985 0.14895 0.56098 0.0
H1182 H 0.91581 0.12542 0.56863 0.0
H1183 H 0.83961 0.0988 0.60475 0.0
C1184 C 0.87383 0.08486 0.62224 0.0
C1185 C 0.90419 0.08523 0.62615 0.0
C1186 C 0.89262 0.13082 0.56706 0.0
C1187 C 0.88273 0.11507 0.5972 0.0
C1188 C 0.88211 0.13925 0.55092 0.0
C1189 C 0.85199 0.14497 0.54837 0.0
C1190 C 0.87272 0.12783 0.58066 0.0
C1191 C 0.83312 0.14387 0.56248 0.0
C1192 C 0.86297 0.10001 0.60787 0.0
C1193 C 0.92296 0.10176 0.61562 0.0
N1194 N 0.84368 0.13474 0.57803 0.0
N1195 N 0.91199 0.11567 0.60148 0.0
H1196 H 0.91882 0.36265 0.88415 0.0
H1197 H 0.85973 0.39982 0.79162 0.0
H1198 H 0.88738 0.4497 0.87061 0.0
H1199 H 0.84744 0.31283 0.81287 0.0
H1200 H 0.87236 0.41837 0.82029 0.0
H1201 H 0.89511 0.34303 0.85801 0.0
C1202 C 0.9065 0.37749 0.87582 0.0
C1203 C 0.90498 0.4078 0.87952 0.0
C1204 C 0.86667 0.39527 0.81874 0.0
C1205 C 0.87842 0.38573 0.84964 0.0
C1206 C 0.8598 0.38467 0.8024 0.0
C1207 C 0.85364 0.35466 0.79998 0.0
C1208 C 0.86767 0.37557 0.83267 0.0
C1209 C 0.85288 0.336 0.81431 0.0
C1210 C 0.89295 0.3663 0.86098 0.0
C1211 C 0.88882 0.42615 0.86832 0.0
N1212 N 0.86051 0.34662 0.8301 0.0
N1213 N 0.87657 0.41491 0.85374 0.0
H1214 H 0.55186 0.38532 0.12504 0.0
H1215 H 0.6753 0.36653 0.05302 0.0
H1216 H 0.63748 0.42712 0.12857 0.0
H1217 H 0.58205 0.35088 0.04495 0.0
H1218 H 0.66533 0.37876 0.08316 0.0
H1219 H 0.56681 0.36155 0.09841 0.0
C1220 C 0.57408 0.38897 0.12045 0.0
C1221 C 0.59337 0.40845 0.129 0.0
C1222 C 0.64716 0.37237 0.07478 0.0
C1223 C 0.6104 0.38172 0.09827 0.0
C1224 C 0.65283 0.36532 0.05763 0.0
C1225 C 0.62942 0.35801 0.04642 0.0
C1226 C 0.61798 0.37163 0.08076 0.0
C1227 C 0.60072 0.3568 0.05306 0.0
C1228 C 0.58248 0.37562 0.10513 0.0
C1229 C 0.62176 0.41261 0.12225 0.0
N1230 N 0.59583 0.3636 0.06975 0.0
N1231 N 0.62936 0.39956 0.10718 0.0
loop_
_geom_bond_atom_site_label_1
_geom_bond_atom_site_label_2
_geom_bond_distance
_geom_bond_site_symmetry_2
_ccdc_geom_bond_type
C0 C1 1.384 . S
C0 C2 1.384 . S
C0 H28 0.931 . S
C1 C0 1.384 . S
C1 C4 1.382 . S
C2 C0 1.384 . S
C2 C3 1.381 . S
C2 H29 0.930 . S
C3 C2 1.381 . S
C3 C5 1.381 . S
C3 C6 1.487 . S
C4 C1 1.382 . S
C4 C5 1.387 . S
C4 H30 0.930 . S
C5 C3 1.381 . S
C5 C4 1.387 . S
C5 H31 0.931 1_565 S
C6 C3 1.487 . S
C6 C13 1.399 . S
C6 N44 1.343 1_565 S
C7 C8 1.384 . S
C7 C9 1.384 . S
C7 H32 0.931 . S
C8 C7 1.384 . S
C8 C11 1.382 . S
C9 C7 1.384 . S
C9 C10 1.381 . S
C9 H33 0.930 . S
C10 C9 1.381 . S
C10 C12 1.381 . S
C10 C13 1.487 . S
C11 C8 1.382 . S
C11 C12 1.387 . S
C11 H34 0.930 . S
C12 C10 1.381 . S
C12 C11 1.387 . S
C12 H35 0.931 . S
C13 C6 1.399 . S
C13 C10 1.487 . S
C13 N45 1.325 1_465 S
C14 C15 1.384 . S
C14 C16 1.384 . S
C14 H36 0.931 . S
C15 C14 1.384 . S
C15 C18 1.382 . S
C16 C14 1.384 . S
C16 C17 1.381 . S
C16 H37 0.930 . S
C17 C16 1.381 . S
C17 C19 1.381 . S
C17 C20 1.487 . S
C18 C15 1.382 . S
C18 C19 1.387 . S
C18 H38 0.930 . S
C19 C17 1.381 . S
C19 C18 1.387 . S
C19 H39 0.934 1_545 S
C20 C17 1.487 . S
C20 C27 1.399 . S
C20 N45 1.366 . S
C21 C22 1.384 . S
C21 C23 1.384 . S
C21 H40 0.931 . S
C22 C21 1.384 . S
C22 C25 1.382 . S
C23 C21 1.384 . S
C23 C24 1.381 . S
C23 H41 0.930 . S
C24 C23 1.381 . S
C24 C26 1.381 . S
C24 C27 1.487 . S
C25 C22 1.382 . S
C25 C26 1.387 . S
C25 H42 0.930 . S
C26 C24 1.381 . S
C26 C25 1.387 . S
C26 H43 0.931 . S
C27 C20 1.399 . S
C27 C24 1.487 . S
C27 N44 1.343 1_655 S
H28 C0 0.931 . S
H29 C2 0.930 . S
H30 C4 0.930 . S
H31 C5 0.931 1_545 S
H32 C7 0.931 . S
H33 C9 0.930 . S
H34 C11 0.930 . S
H35 C12 0.931 . S
H36 C14 0.931 . S
H37 C16 0.930 . S
H38 C18 0.930 . S
H39 C19 0.934 1_565 S
H40 C21 0.931 . S
H41 C23 0.930 . S
H42 C25 0.930 . S
H43 C26 0.931 . S
N44 C6 1.343 1_545 S
N44 C27 1.343 1_455 S
N45 C13 1.325 1_645 S
N45 C20 1.366 . S
C46 C47 1.384 . S
C46 C48 1.384 . S
C46 H74 0.931 . S
C47 C46 1.384 . S
C47 C50 1.382 . S
C48 C46 1.384 . S
C48 C49 1.381 . S
C48 H75 0.930 . S
C49 C48 1.381 . S
C49 C51 1.381 . S
C49 C52 1.487 . S
C50 C47 1.382 . S
C50 C51 1.387 . S
C50 H76 0.930 . S
C51 C49 1.381 . S
C51 C50 1.387 . S
C51 H77 0.931 1_655 S
C52 C49 1.487 . S
C52 C59 1.399 . S
C52 N90 1.343 1_655 S
C53 C54 1.384 . S
C53 C55 1.384 . S
C53 H78 0.931 . S
C54 C53 1.384 . S
C54 C57 1.382 . S
C55 C53 1.384 . S
C55 C56 1.381 . S
C55 H79 0.930 . S
C56 C55 1.381 . S
C56 C58 1.381 . S
C56 C59 1.487 . S
C57 C54 1.382 . S
C57 C58 1.387 . S
C57 H80 0.930 . S
C58 C56 1.381 . S
C58 C57 1.387 . S
C58 H81 0.931 . S
C59 C52 1.399 . S
C59 C56 1.487 . S
C59 N91 1.343 . S
C60 C61 1.384 . S
C60 C62 1.384 . S
C60 H82 0.931 . S
C61 C60 1.384 . S
C61 C64 1.382 . S
C62 C60 1.384 . S
C62 C63 1.381 . S
C62 H83 0.930 . S
C63 C62 1.381 . S
C63 C65 1.381 . S
C63 C66 1.487 . S
C64 C61 1.382 . S
C64 C65 1.387 . S
C64 H84 0.930 . S
C65 C63 1.381 . S
C65 C64 1.387 . S
C65 H85 0.931 1_455 S
C66 C63 1.487 . S
C66 C73 1.399 . S
C66 N91 1.343 1_455 S
C67 C68 1.384 . S
C67 C69 1.384 . S
C67 H86 0.931 . S
C68 C67 1.384 . S
C68 C71 1.382 . S
C69 C67 1.384 . S
C69 C70 1.381 . S
C69 H87 0.930 . S
C70 C69 1.381 . S
C70 C72 1.381 . S
C70 C73 1.487 . S
C71 C68 1.382 . S
C71 C72 1.387 . S
C71 H88 0.930 . S
C72 C70 1.381 . S
C72 C71 1.387 . S
C72 H89 0.931 . S
C73 C66 1.399 . S
C73 C70 1.487 . S
C73 N90 1.343 . S
H74 C46 0.931 . S
H75 C48 0.930 . S
H76 C50 0.930 . S
H77 C51 0.931 1_455 S
H78 C53 0.931 . S
H79 C55 0.930 . S
H80 C57 0.930 . S
H81 C58 0.931 . S
H82 C60 0.931 . S
H83 C62 0.930 . S
H84 C64 0.930 . S
H85 C65 0.931 1_655 S
H86 C67 0.931 . S
H87 C69 0.930 . S
H88 C71 0.930 . S
H89 C72 0.931 . S
N90 C52 1.343 1_455 S
N90 C73 1.343 . S
N91 C59 1.343 . S
N91 C66 1.343 1_655 S
C92 C93 1.384 . S
C92 C94 1.384 . S
C92 H120 0.931 . S
C93 C92 1.384 . S
C93 C96 1.382 . S
C94 C92 1.384 . S
C94 C95 1.381 . S
C94 H121 0.930 . S
C95 C94 1.381 . S
C95 C97 1.381 . S
C95 C98 1.487 . S
C96 C93 1.382 . S
C96 C97 1.387 . S
C96 H122 0.930 . S
C97 C95 1.381 . S
C97 C96 1.387 . S
C97 H123 0.931 . S
C98 C95 1.487 . S
C98 C105 1.399 . S
C98 N136 1.343 . S
C99 C100 1.384 . S
C99 C101 1.384 . S
C99 H124 0.931 . S
C100 C99 1.384 . S
C100 C103 1.382 . S
C101 C99 1.384 . S
C101 C102 1.381 . S
C101 H125 0.930 . S
C102 C101 1.381 . S
C102 C104 1.381 . S
C102 C105 1.487 . S
C103 C100 1.382 . S
C103 C104 1.387 . S
C103 H126 0.930 . S
C104 C102 1.381 . S
C104 C103 1.387 . S
C104 H127 0.931 . S
C105 C98 1.399 . S
C105 C102 1.487 . S
C105 N137 1.343 . S
C106 C107 1.384 . S
C106 C108 1.384 . S
C106 H128 0.931 . S
C107 C106 1.384 . S
C107 C110 1.382 . S
C108 C106 1.384 . S
C108 C109 1.381 . S
C108 H129 0.930 . S
C109 C108 1.381 . S
C109 C111 1.381 . S
C109 C112 1.487 . S
C110 C107 1.382 . S
C110 C111 1.387 . S
C110 H130 0.930 . S
C111 C109 1.381 . S
C111 C110 1.387 . S
C111 H131 0.931 . S
C112 C109 1.487 . S
C112 C119 1.399 . S
C112 N137 1.343 . S
C113 C114 1.384 . S
C113 C115 1.384 . S
C113 H132 0.931 . S
C114 C113 1.384 . S
C114 C117 1.382 . S
C115 C113 1.384 . S
C115 C116 1.381 . S
C115 H133 0.930 . S
C116 C115 1.381 . S
C116 C118 1.381 . S
C116 C119 1.487 . S
C117 C114 1.382 . S
C117 C118 1.387 . S
C117 H134 0.930 . S
C118 C116 1.381 . S
C118 C117 1.387 . S
C118 H135 0.931 . S
C119 C112 1.399 . S
C119 C116 1.487 . S
C119 N136 1.343 . S
H120 C92 0.931 . S
H121 C94 0.930 . S
H122 C96 0.930 . S
H123 C97 0.931 . S
H124 C99 0.931 . S
H125 C101 0.930 . S
H126 C103 0.930 . S
H127 C104 0.931 . S
H128 C106 0.931 . S
H129 C108 0.930 . S
H130 C110 0.930 . S
H131 C111 0.931 . S
H132 C113 0.931 . S
H133 C115 0.930 . S
H134 C117 0.930 . S
H135 C118 0.931 . S
N136 C98 1.343 . S
N136 C119 1.343 . S
N137 C105 1.343 . S
N137 C112 1.343 . S
C138 C139 1.384 . S
C138 C140 1.384 . S
C138 H166 0.931 . S
C139 C138 1.384 . S
C139 C142 1.382 . S
C140 C138 1.384 . S
C140 C141 1.381 . S
C140 H167 0.930 . S
C141 C140 1.381 . S
C141 C143 1.381 . S
C141 C144 1.487 . S
C142 C139 1.382 . S
C142 C143 1.387 . S
C142 H168 0.930 . S
C143 C141 1.381 . S
C143 C142 1.387 . S
C143 H169 0.928 1_565 S
C144 C141 1.487 . S
C144 C151 1.399 . S
C144 N182 1.343 1_565 S
C145 C146 1.384 . S
C145 C147 1.384 . S
C145 H170 0.931 . S
C146 C145 1.384 . S
C146 C149 1.382 . S
C147 C145 1.384 . S
C147 C148 1.381 . S
C147 H171 0.930 . S
C148 C147 1.381 . S
C148 C150 1.381 . S
C148 C151 1.487 . S
C149 C146 1.382 . S
C149 C150 1.387 . S
C149 H172 0.930 . S
C150 C148 1.381 . S
C150 C149 1.387 . S
C150 H173 0.931 . S
C151 C144 1.399 . S
C151 C148 1.487 . S
C151 N183 1.343 1_565 S
C152 C153 1.384 . S
C152 C154 1.384 . S
C152 H174 0.931 . S
C153 C152 1.384 . S
C153 C156 1.382 . S
C154 C152 1.384 . S
C154 C155 1.381 . S
C154 H175 0.930 . S
C155 C154 1.381 . S
C155 C157 1.381 . S
C155 C158 1.487 . S
C156 C153 1.382 . S
C156 C157 1.387 . S
C156 H176 0.930 . S
C157 C155 1.381 . S
C157 C156 1.387 . S
C157 H177 0.931 . S
C158 C155 1.487 . S
C158 C165 1.399 . S
C158 N183 1.343 . S
C159 C160 1.384 . S
C159 C161 1.384 . S
C159 H178 0.931 . S
C160 C159 1.384 . S
C160 C163 1.382 . S
C161 C159 1.384 . S
C161 C162 1.381 . S
C161 H179 0.930 . S
C162 C161 1.381 . S
C162 C164 1.381 . S
C162 C165 1.487 . S
C163 C160 1.382 . S
C163 C164 1.387 . S
C163 H180 0.930 . S
C164 C162 1.381 . S
C164 C163 1.387 . S
C164 H181 0.931 . S
C165 C158 1.399 . S
C165 C162 1.487 . S
C165 N182 1.343 . S
H166 C138 0.931 . S
H167 C140 0.930 . S
H168 C142 0.930 . S
H169 C143 0.928 1_545 S
H170 C145 0.931 . S
H171 C147 0.930 . S
H172 C149 0.930 . S
H173 C150 0.931 . S
H174 C152 0.931 . S
H175 C154 0.930 . S
H176 C156 0.930 . S
H177 C157 0.931 . S
H178 C159 0.931 . S
H179 C161 0.930 . S
H180 C163 0.930 . S
H181 C164 0.931 . S
N182 C144 1.343 1_545 S
N182 C165 1.343 . S
N183 C151 1.343 1_545 S
N183 C158 1.343 . S
C184 C185 1.384 . S
C184 C186 1.384 . S
C184 H212 0.931 . S
C185 C184 1.384 . S
C185 C188 1.382 . S
C186 C184 1.384 . S
C186 C187 1.381 . S
C186 H213 0.930 . S
C187 C186 1.381 . S
C187 C189 1.381 . S
C187 C190 1.487 . S
C188 C185 1.382 . S
C188 C189 1.387 . S
C188 H214 0.930 . S
C189 C187 1.381 . S
C189 C188 1.387 . S
C189 H215 0.931 . S
C190 C187 1.487 . S
C190 C197 1.399 . S
C190 N228 1.343 . S
C191 C192 1.384 . S
C191 C193 1.384 . S
C191 H216 0.931 . S
C192 C191 1.384 . S
C192 C195 1.382 . S
C193 C191 1.384 . S
C193 C194 1.381 . S
C193 H217 0.930 . S
C194 C193 1.381 . S
C194 C196 1.381 . S
C194 C197 1.487 . S
C195 C192 1.382 . S
C195 C196 1.387 . S
C195 H218 0.930 . S
C196 C194 1.381 . S
C196 C195 1.387 . S
C196 H219 0.931 . S
C197 C190 1.399 . S
C197 C194 1.487 . S
C197 N229 1.372 . S
C198 C199 1.384 . S
C198 C200 1.384 . S
C198 H220 0.931 . S
C199 C198 1.384 . S
C199 C202 1.382 . S
C200 C198 1.384 . S
C200 C201 1.381 . S
C200 H221 0.930 . S
C201 C200 1.381 . S
C201 C203 1.381 . S
C201 C204 1.487 . S
C202 C199 1.382 . S
C202 C203 1.387 . S
C202 H222 0.930 . S
C203 C201 1.381 . S
C203 C202 1.387 . S
C203 H223 0.931 . S
C204 C201 1.487 . S
C204 C211 1.399 . S
C204 N229 1.318 1_655 S
C205 C206 1.384 . S
C205 C207 1.384 . S
C205 H224 0.931 . S
C206 C205 1.384 . S
C206 C209 1.382 . S
C207 C205 1.384 . S
C207 C208 1.381 . S
C207 H225 0.930 . S
C208 C207 1.381 . S
C208 C210 1.381 . S
C208 C211 1.487 . S
C209 C206 1.382 . S
C209 C210 1.387 . S
C209 H226 0.930 . S
C210 C208 1.381 . S
C210 C209 1.387 . S
C210 H227 0.931 . S
C211 C204 1.399 . S
C211 C208 1.487 . S
C211 N228 1.343 1_655 S
H212 C184 0.931 . S
H213 C186 0.930 . S
H214 C188 0.930 . S
H215 C189 0.931 . S
H216 C191 0.931 . S
H217 C193 0.930 . S
H218 C195 0.930 . S
H219 C196 0.931 . S
H220 C198 0.931 . S
H221 C200 0.930 . S
H222 C202 0.930 . S
H223 C203 0.931 . S
H224 C205 0.931 . S
H225 C207 0.930 . S
H226 C209 0.930 . S
H227 C210 0.931 . S
N228 C190 1.343 . S
N228 C211 1.343 1_455 S
N229 C197 1.372 . S
N229 C204 1.318 1_455 S
C230 C231 1.384 . S
C230 C232 1.384 . S
C230 H258 0.931 . S
C231 C230 1.384 . S
C231 C234 1.382 . S
C232 C230 1.384 . S
C232 C233 1.381 . S
C232 H259 0.930 . S
C233 C232 1.381 . S
C233 C235 1.381 . S
C233 C236 1.487 . S
C234 C231 1.382 . S
C234 C235 1.387 . S
C234 H260 0.930 . S
C235 C233 1.381 . S
C235 C234 1.387 . S
C235 H261 0.931 . S
C236 C233 1.487 . S
C236 C243 1.399 . S
C236 N274 1.343 . S
C237 C238 1.384 . S
C237 C239 1.384 . S
C237 H262 0.931 . S
C238 C237 1.384 . S
C238 C241 1.382 . S
C239 C237 1.384 . S
C239 C240 1.381 . S
C239 H263 0.930 . S
C240 C239 1.381 . S
C240 C242 1.381 . S
C240 C243 1.487 . S
C241 C238 1.382 . S
C241 C242 1.387 . S
C241 H264 0.930 . S
C242 C240 1.381 . S
C242 C241 1.387 . S
C242 H265 0.931 . S
C243 C236 1.399 . S
C243 C240 1.487 . S
C243 N275 1.343 . S
C244 C245 1.384 . S
C244 C246 1.384 . S
C244 H266 0.931 . S
C245 C244 1.384 . S
C245 C248 1.382 . S
C246 C244 1.384 . S
C246 C247 1.381 . S
C246 H267 0.930 . S
C247 C246 1.381 . S
C247 C249 1.381 . S
C247 C250 1.487 . S
C248 C245 1.382 . S
C248 C249 1.387 . S
C248 H268 0.930 . S
C249 C247 1.381 . S
C249 C248 1.387 . S
C249 H269 0.931 . S
C250 C247 1.487 . S
C250 C257 1.399 . S
C250 N275 1.343 . S
C251 C252 1.384 . S
C251 C253 1.384 . S
C251 H270 0.931 . S
C252 C251 1.384 . S
C252 C255 1.382 . S
C253 C251 1.384 . S
C253 C254 1.381 . S
C253 H271 0.930 . S
C254 C253 1.381 . S
C254 C256 1.381 . S
C254 C257 1.487 . S
C255 C252 1.382 . S
C255 C256 1.387 . S
C255 H272 0.930 . S
C256 C254 1.381 . S
C256 C255 1.387 . S
C256 H273 0.931 . S
C257 C250 1.399 . S
C257 C254 1.487 . S
C257 N274 1.343 . S
H258 C230 0.931 . S
H259 C232 0.930 . S
H260 C234 0.930 . S
H261 C235 0.931 . S
H262 C237 0.931 . S
H263 C239 0.930 . S
H264 C241 0.930 . S
H265 C242 0.931 . S
H266 C244 0.931 . S
H267 C246 0.930 . S
H268 C248 0.930 . S
H269 C249 0.931 . S
H270 C251 0.931 . S
H271 C253 0.930 . S
H272 C255 0.930 . S
H273 C256 0.931 . S
N274 C236 1.343 . S
N274 C257 1.343 . S
N275 C243 1.343 . S
N275 C250 1.343 . S
C276 C277 1.384 . S
C276 C278 1.384 . S
C276 H304 0.931 . S
C277 C276 1.384 . S
C277 C280 1.382 . S
C278 C276 1.384 . S
C278 C279 1.381 . S
C278 H305 0.930 . S
C279 C278 1.381 . S
C279 C281 1.381 . S
C279 C282 1.487 . S
C280 C277 1.382 . S
C280 C281 1.387 . S
C280 H306 0.930 . S
C281 C279 1.381 . S
C281 C280 1.387 . S
C281 H307 0.931 1_565 S
C282 C279 1.487 . S
C282 C289 1.399 . S
C282 N320 1.343 1_565 S
C283 C284 1.384 . S
C283 C285 1.384 . S
C283 H308 0.931 . S
C284 C283 1.384 . S
C284 C287 1.382 . S
C285 C283 1.384 . S
C285 C286 1.381 . S
C285 H309 0.930 . S
C286 C285 1.381 . S
C286 C288 1.381 . S
C286 C289 1.487 . S
C287 C284 1.382 . S
C287 C288 1.387 . S
C287 H310 0.930 . S
C288 C286 1.381 . S
C288 C287 1.387 . S
C288 H311 0.931 . S
C289 C282 1.399 . S
C289 C286 1.487 . S
C289 N321 1.343 1_565 S
C290 C291 1.384 . S
C290 C292 1.384 . S
C290 H312 0.931 . S
C291 C290 1.384 . S
C291 C294 1.382 . S
C292 C290 1.384 . S
C292 C293 1.381 . S
C292 H313 0.930 . S
C293 C292 1.381 . S
C293 C295 1.381 . S
C293 C296 1.487 . S
C294 C291 1.382 . S
C294 C295 1.387 . S
C294 H314 0.930 . S
C295 C293 1.381 . S
C295 C294 1.387 . S
C295 H315 0.931 . S
C296 C293 1.487 . S
C296 C303 1.399 . S
C296 N321 1.343 . S
C297 C298 1.384 . S
C297 C299 1.384 . S
C297 H316 0.931 . S
C298 C297 1.384 . S
C298 C301 1.382 . S
C299 C297 1.384 . S
C299 C300 1.381 . S
C299 H317 0.930 . S
C300 C299 1.381 . S
C300 C302 1.381 . S
C300 C303 1.487 . S
C301 C298 1.382 . S
C301 C302 1.387 . S
C301 H318 0.930 . S
C302 C300 1.381 . S
C302 C301 1.387 . S
C302 H319 0.931 . S
C303 C296 1.399 . S
C303 C300 1.487 . S
C303 N320 1.343 . S
H304 C276 0.931 . S
H305 C278 0.930 . S
H306 C280 0.930 . S
H307 C281 0.931 1_545 S
H308 C283 0.931 . S
H309 C285 0.930 . S
H310 C287 0.930 . S
H311 C288 0.931 . S
H312 C290 0.931 . S
H313 C292 0.930 . S
H314 C294 0.930 . S
H315 C295 0.931 . S
H316 C297 0.931 . S
H317 C299 0.930 . S
H318 C301 0.930 . S
H319 C302 0.931 . S
N320 C282 1.343 1_545 S
N320 C303 1.343 . S
N321 C289 1.343 1_545 S
N321 C296 1.343 . S
C322 C323 1.384 . S
C322 C324 1.384 . S
C322 H350 0.931 . S
C323 C322 1.384 . S
C323 C326 1.382 . S
C324 C322 1.384 . S
C324 C325 1.381 . S
C324 H351 0.930 . S
C325 C324 1.381 . S
C325 C327 1.381 . S
C325 C328 1.487 . S
C326 C323 1.382 . S
C326 C327 1.387 . S
C326 H352 0.930 . S
C327 C325 1.381 . S
C327 C326 1.387 . S
C327 H353 0.895 1_455 S
C328 C325 1.487 . S
C328 C335 1.399 . S
C328 N366 1.345 1_565 S
C329 C330 1.384 . S
C329 C331 1.384 . S
C329 H354 0.931 . S
C330 C329 1.384 . S
C330 C333 1.382 . S
C331 C329 1.384 . S
C331 C332 1.381 . S
C331 H355 0.930 . S
C332 C331 1.381 . S
C332 C334 1.381 . S
C332 C335 1.487 . S
C333 C330 1.382 . S
C333 C334 1.387 . S
C333 H356 0.930 . S
C334 C332 1.381 . S
C334 C333 1.387 . S
C334 H357 0.931 . S
C335 C328 1.399 . S
C335 C332 1.487 . S
C335 N367 1.343 1_565 S
C336 C337 1.384 . S
C336 C338 1.384 . S
C336 H358 0.931 . S
C337 C336 1.384 . S
C337 C340 1.382 . S
C338 C336 1.384 . S
C338 C339 1.381 . S
C338 H359 0.930 . S
C339 C338 1.381 . S
C339 C341 1.381 . S
C339 C342 1.487 . S
C340 C337 1.382 . S
C340 C341 1.387 . S
C340 H360 0.930 . S
C341 C339 1.381 . S
C341 C340 1.387 . S
C341 H361 0.931 1_655 S
C342 C339 1.487 . S
C342 C349 1.399 . S
C342 N367 1.343 1_655 S
C343 C344 1.384 . S
C343 C345 1.384 . S
C343 H362 0.931 . S
C344 C343 1.384 . S
C344 C347 1.382 . S
C345 C343 1.384 . S
C345 C346 1.381 . S
C345 H363 0.930 . S
C346 C345 1.381 . S
C346 C348 1.381 . S
C346 C349 1.487 . S
C347 C344 1.382 . S
C347 C348 1.387 . S
C347 H364 0.930 . S
C348 C346 1.381 . S
C348 C347 1.387 . S
C348 H365 0.931 . S
C349 C342 1.399 . S
C349 C346 1.487 . S
C349 N366 1.342 1_655 S
H350 C322 0.931 . S
H351 C324 0.930 . S
H352 C326 0.930 . S
H353 C327 0.895 1_655 S
H354 C329 0.931 . S
H355 C331 0.930 . S
H356 C333 0.930 . S
H357 C334 0.931 . S
H358 C336 0.931 . S
H359 C338 0.930 . S
H360 C340 0.930 . S
H361 C341 0.931 1_455 S
H362 C343 0.931 . S
H363 C345 0.930 . S
H364 C347 0.930 . S
H365 C348 0.931 . S
N366 C328 1.345 1_545 S
N366 C349 1.342 1_455 S
N367 C335 1.343 1_545 S
N367 C342 1.343 1_455 S
Mn368 O373 2.095 1_554 S
Mn368 O383 2.162 . S
Mn368 O384 2.297 . S
Mn368 O392 2.385 . S
Mn368 O393 2.209 . S
Mn368 O394 2.094 1_554 S
Mn369 O374 2.121 . S
Mn369 N376 2.257 1_556 S
Mn369 N385 2.282 1_556 S
Mn369 O393 2.215 1_556 S
Mn369 O395 2.117 . S
C370 O392 1.234 . S
C370 O393 1.283 . S
C371 O383 1.281 . S
C371 O384 1.236 . S
C372 O394 1.240 . S
C372 O395 1.264 . S
O373 Mn368 2.095 1_556 S
O373 C382 1.250 . S
O374 Mn369 2.121 . S
O374 C382 1.258 . S
C375 N376 1.326 1_556 S
C375 C379 1.460 1_556 S
C375 H381 0.929 . S
N376 Mn369 2.257 1_554 S
N376 C375 1.326 1_554 S
N376 C380 1.362 . S
C377 C378 1.258 . S
C377 C380 1.431 . S
C377 C397 1.449 . S
C378 C377 1.258 . S
C378 C379 1.477 . S
C378 H398 0.931 . S
C379 C375 1.460 1_554 S
C379 C378 1.477 . S
C379 H399 0.930 1_554 S
C380 N376 1.362 . S
C380 C377 1.431 . S
C380 C390 1.476 . S
H381 C375 0.929 . S
C382 O373 1.250 . S
C382 O374 1.258 . S
O383 Mn368 2.162 . S
O383 C371 1.281 . S
O384 Mn368 2.297 . S
O384 C371 1.236 . S
N385 Mn369 2.282 1_554 S
N385 C386 1.328 . S
N385 C390 1.318 . S
C386 N385 1.328 . S
C386 C387 1.457 . S
C386 H391 0.929 . S
C387 C386 1.457 . S
C387 C388 1.291 . S
C387 H400 0.931 . S
C388 C387 1.291 . S
C388 C389 1.373 . S
C388 H401 0.929 . S
C389 C388 1.373 . S
C389 C390 1.396 . S
C389 C396 1.403 . S
C390 C380 1.476 . S
C390 N385 1.318 . S
C390 C389 1.396 . S
H391 C386 0.929 . S
O392 Mn368 2.385 . S
O392 C370 1.234 . S
O393 Mn368 2.209 . S
O393 Mn369 2.215 1_554 S
O393 C370 1.283 . S
O394 Mn368 2.094 1_556 S
O394 C372 1.240 . S
O395 Mn369 2.117 . S
O395 C372 1.264 . S
C396 C389 1.403 . S
C396 C397 1.399 . S
C396 H402 0.929 . S
C397 C377 1.449 . S
C397 C396 1.399 . S
C397 H403 0.930 . S
H398 C378 0.931 . S
H399 C379 0.930 1_556 S
H400 C387 0.931 . S
H401 C388 0.929 . S
H402 C396 0.929 . S
H403 C397 0.930 . S
Mn404 O409 2.095 . S
Mn404 O419 2.162 . S
Mn404 O420 2.297 . S
Mn404 O428 2.385 . S
Mn404 O429 2.209 . S
Mn404 O430 2.094 . S
Mn405 O410 2.121 . S
Mn405 N412 2.257 . S
Mn405 N421 2.282 . S
Mn405 O429 2.215 . S
Mn405 O431 2.117 . S
C406 O428 1.234 . S
C406 O429 1.283 . S
C407 O419 1.281 . S
C407 O420 1.236 . S
C408 O430 1.240 . S
C408 O431 1.264 . S
O409 Mn404 2.095 . S
O409 C418 1.250 . S
O410 Mn405 2.121 . S
O410 C418 1.258 . S
C411 N412 1.326 . S
C411 C415 1.460 . S
C411 H417 0.929 . S
N412 Mn405 2.257 . S
N412 C411 1.326 . S
N412 C416 1.362 . S
C413 C414 1.258 . S
C413 C416 1.431 . S
C413 C433 1.449 . S
C414 C413 1.258 . S
C414 C415 1.477 . S
C414 H434 0.931 . S
C415 C411 1.460 . S
C415 C414 1.477 . S
C415 H435 0.930 . S
C416 N412 1.362 . S
C416 C413 1.431 . S
C416 C426 1.476 . S
H417 C411 0.929 . S
C418 O409 1.250 . S
C418 O410 1.258 . S
O419 Mn404 2.162 . S
O419 C407 1.281 . S
O420 Mn404 2.297 . S
O420 C407 1.236 . S
N421 Mn405 2.282 . S
N421 C422 1.328 . S
N421 C426 1.318 . S
C422 N421 1.328 . S
C422 C423 1.457 . S
C422 H427 0.929 . S
C423 C422 1.457 . S
C423 C424 1.291 . S
C423 H436 0.931 . S
C424 C423 1.291 . S
C424 C425 1.373 . S
C424 H437 0.929 . S
C425 C424 1.373 . S
C425 C426 1.396 . S
C425 C432 1.403 . S
C426 C416 1.476 . S
C426 N421 1.318 . S
C426 C425 1.396 . S
H427 C422 0.929 . S
O428 Mn404 2.385 . S
O428 C406 1.234 . S
O429 Mn404 2.209 . S
O429 Mn405 2.215 . S
O429 C406 1.283 . S
O430 Mn404 2.094 . S
O430 C408 1.240 . S
O431 Mn405 2.117 . S
O431 C408 1.264 . S
C432 C425 1.403 . S
C432 C433 1.399 . S
C432 H438 0.929 . S
C433 C413 1.449 . S
C433 C432 1.399 . S
C433 H439 0.930 . S
H434 C414 0.931 . S
H435 C415 0.930 . S
H436 C423 0.931 . S
H437 C424 0.929 . S
H438 C432 0.929 . S
H439 C433 0.930 . S
Mn440 O445 2.095 . S
Mn440 O455 2.162 . S
Mn440 O456 2.297 . S
Mn440 O464 2.385 . S
Mn440 O465 2.209 . S
Mn440 O466 2.094 . S
Mn441 O446 2.121 . S
Mn441 N448 2.257 . S
Mn441 N457 2.282 . S
Mn441 O465 2.215 . S
Mn441 O467 2.117 . S
C442 O464 1.234 . S
C442 O465 1.283 . S
C443 O455 1.281 . S
C443 O456 1.236 . S
C444 O466 1.240 . S
C444 O467 1.264 . S
O445 Mn440 2.095 . S
O445 C454 1.250 . S
O446 Mn441 2.121 . S
O446 C454 1.258 . S
C447 N448 1.326 . S
C447 C451 1.460 . S
C447 H453 0.929 . S
N448 Mn441 2.257 . S
N448 C447 1.326 . S
N448 C452 1.362 . S
C449 C450 1.258 . S
C449 C452 1.431 . S
C449 C469 1.449 . S
C450 C449 1.258 . S
C450 C451 1.477 . S
C450 H470 0.931 . S
C451 C447 1.460 . S
C451 C450 1.477 . S
C451 H471 0.930 . S
C452 N448 1.362 . S
C452 C449 1.431 . S
C452 C462 1.476 . S
H453 C447 0.929 . S
C454 O445 1.250 . S
C454 O446 1.258 . S
O455 Mn440 2.162 . S
O455 C443 1.281 . S
O456 Mn440 2.297 . S
O456 C443 1.236 . S
N457 Mn441 2.282 . S
N457 C458 1.328 . S
N457 C462 1.318 . S
C458 N457 1.328 . S
C458 C459 1.457 . S
C458 H463 0.929 . S
C459 C458 1.457 . S
C459 C460 1.291 . S
C459 H472 0.931 . S
C460 C459 1.291 . S
C460 C461 1.373 . S
C460 H473 0.929 . S
C461 C460 1.373 . S
C461 C462 1.396 . S
C461 C468 1.403 . S
C462 C452 1.476 . S
C462 N457 1.318 . S
C462 C461 1.396 . S
H463 C458 0.929 . S
O464 Mn440 2.385 . S
O464 C442 1.234 . S
O465 Mn440 2.209 . S
O465 Mn441 2.215 . S
O465 C442 1.283 . S
O466 Mn440 2.094 . S
O466 C444 1.240 . S
O467 Mn441 2.117 . S
O467 C444 1.264 . S
C468 C461 1.403 . S
C468 C469 1.399 . S
C468 H474 0.929 . S
C469 C449 1.449 . S
C469 C468 1.399 . S
C469 H475 0.930 . S
H470 C450 0.931 . S
H471 C451 0.930 . S
H472 C459 0.931 . S
H473 C460 0.929 . S
H474 C468 0.929 . S
H475 C469 0.930 . S
Mn476 O481 2.095 . S
Mn476 O491 2.162 . S
Mn476 O492 2.297 . S
Mn476 O500 2.385 . S
Mn476 O501 2.209 . S
Mn476 O502 2.094 . S
Mn477 O482 2.121 . S
Mn477 N484 2.257 . S
Mn477 N493 2.282 . S
Mn477 O501 2.215 . S
Mn477 O503 2.117 . S
C478 O500 1.234 . S
C478 O501 1.283 . S
C479 O491 1.281 . S
C479 O492 1.236 . S
C480 O502 1.240 . S
C480 O503 1.264 . S
O481 Mn476 2.095 . S
O481 C490 1.250 . S
O482 Mn477 2.121 . S
O482 C490 1.258 . S
C483 N484 1.326 . S
C483 C487 1.460 . S
C483 H489 0.929 . S
N484 Mn477 2.257 . S
N484 C483 1.326 . S
N484 C488 1.362 . S
C485 C486 1.258 . S
C485 C488 1.431 . S
C485 C505 1.449 . S
C486 C485 1.258 . S
C486 C487 1.477 . S
C486 H506 0.931 . S
C487 C483 1.460 . S
C487 C486 1.477 . S
C487 H507 0.930 . S
C488 N484 1.362 . S
C488 C485 1.431 . S
C488 C498 1.476 . S
H489 C483 0.929 . S
C490 O481 1.250 . S
C490 O482 1.258 . S
O491 Mn476 2.162 . S
O491 C479 1.281 . S
O492 Mn476 2.297 . S
O492 C479 1.236 . S
N493 Mn477 2.282 . S
N493 C494 1.328 . S
N493 C498 1.318 . S
C494 N493 1.328 . S
C494 C495 1.457 . S
C494 H499 0.929 . S
C495 C494 1.457 . S
C495 C496 1.291 . S
C495 H508 0.931 . S
C496 C495 1.291 . S
C496 C497 1.373 . S
C496 H509 0.929 . S
C497 C496 1.373 . S
C497 C498 1.396 . S
C497 C504 1.403 . S
C498 C488 1.476 . S
C498 N493 1.318 . S
C498 C497 1.396 . S
H499 C494 0.929 . S
O500 Mn476 2.385 . S
O500 C478 1.234 . S
O501 Mn476 2.209 . S
O501 Mn477 2.215 . S
O501 C478 1.283 . S
O502 Mn476 2.094 . S
O502 C480 1.240 . S
O503 Mn477 2.117 . S
O503 C480 1.264 . S
C504 C497 1.403 . S
C504 C505 1.399 . S
C504 H510 0.929 . S
C505 C485 1.449 . S
C505 C504 1.399 . S
C505 H511 0.930 . S
H506 C486 0.931 . S
H507 C487 0.930 . S
H508 C495 0.931 . S
H509 C496 0.929 . S
H510 C504 0.929 . S
H511 C505 0.930 . S
Mn512 O517 2.095 . S
Mn512 O527 2.162 . S
Mn512 O528 2.297 . S
Mn512 O536 2.385 . S
Mn512 O537 2.209 . S
Mn512 O538 2.094 . S
Mn513 O518 2.121 . S
Mn513 N520 2.257 . S
Mn513 N529 2.282 . S
Mn513 O537 2.215 . S
Mn513 O539 2.117 . S
C514 O536 1.234 . S
C514 O537 1.283 . S
C515 O527 1.281 . S
C515 O528 1.236 . S
C516 O538 1.240 . S
C516 O539 1.264 . S
O517 Mn512 2.095 . S
O517 C526 1.250 . S
O518 Mn513 2.121 . S
O518 C526 1.258 . S
C519 N520 1.326 . S
C519 C523 1.460 . S
C519 H525 0.929 . S
N520 Mn513 2.257 . S
N520 C519 1.326 . S
N520 C524 1.362 . S
C521 C522 1.258 . S
C521 C524 1.431 . S
C521 C541 1.449 . S
C522 C521 1.258 . S
C522 C523 1.477 . S
C522 H542 0.931 . S
C523 C519 1.460 . S
C523 C522 1.477 . S
C523 H543 0.930 . S
C524 N520 1.362 . S
C524 C521 1.431 . S
C524 C534 1.476 . S
H525 C519 0.929 . S
C526 O517 1.250 . S
C526 O518 1.258 . S
O527 Mn512 2.162 . S
O527 C515 1.281 . S
O528 Mn512 2.297 . S
O528 C515 1.236 . S
N529 Mn513 2.282 . S
N529 C530 1.328 . S
N529 C534 1.318 . S
C530 N529 1.328 . S
C530 C531 1.457 . S
C530 H535 0.929 . S
C531 C530 1.457 . S
C531 C532 1.291 . S
C531 H544 0.931 . S
C532 C531 1.291 . S
C532 C533 1.373 . S
C532 H545 0.929 . S
C533 C532 1.373 . S
C533 C534 1.396 . S
C533 C540 1.403 . S
C534 C524 1.476 . S
C534 N529 1.318 . S
C534 C533 1.396 . S
H535 C530 0.929 . S
O536 Mn512 2.385 . S
O536 C514 1.234 . S
O537 Mn512 2.209 . S
O537 Mn513 2.215 . S
O537 C514 1.283 . S
O538 Mn512 2.094 . S
O538 C516 1.240 . S
O539 Mn513 2.117 . S
O539 C516 1.264 . S
C540 C533 1.403 . S
C540 C541 1.399 . S
C540 H546 0.929 . S
C541 C521 1.449 . S
C541 C540 1.399 . S
C541 H547 0.930 . S
H542 C522 0.931 . S
H543 C523 0.930 . S
H544 C531 0.931 . S
H545 C532 0.929 . S
H546 C540 0.929 . S
H547 C541 0.930 . S
Mn548 O553 2.095 . S
Mn548 O563 2.162 . S
Mn548 O564 2.297 . S
Mn548 O572 2.385 . S
Mn548 O573 2.209 . S
Mn548 O574 2.094 . S
Mn549 O554 2.121 . S
Mn549 N556 2.257 . S
Mn549 N565 2.282 . S
Mn549 O573 2.215 . S
Mn549 O575 2.117 . S
C550 O572 1.234 . S
C550 O573 1.283 . S
C551 O563 1.281 . S
C551 O564 1.236 . S
C552 O574 1.240 . S
C552 O575 1.264 . S
O553 Mn548 2.095 . S
O553 C562 1.250 . S
O554 Mn549 2.121 . S
O554 C562 1.258 . S
C555 N556 1.326 . S
C555 C559 1.460 . S
C555 H561 0.929 . S
N556 Mn549 2.257 . S
N556 C555 1.326 . S
N556 C560 1.362 . S
C557 C558 1.258 . S
C557 C560 1.431 . S
C557 C577 1.449 . S
C558 C557 1.258 . S
C558 C559 1.477 . S
C558 H578 0.931 . S
C559 C555 1.460 . S
C559 C558 1.477 . S
C559 H579 0.930 . S
C560 N556 1.362 . S
C560 C557 1.431 . S
C560 C570 1.476 . S
H561 C555 0.929 . S
C562 O553 1.250 . S
C562 O554 1.258 . S
O563 Mn548 2.162 . S
O563 C551 1.281 . S
O564 Mn548 2.297 . S
O564 C551 1.236 . S
N565 Mn549 2.282 . S
N565 C566 1.328 . S
N565 C570 1.318 . S
C566 N565 1.328 . S
C566 C567 1.457 . S
C566 H571 0.929 . S
C567 C566 1.457 . S
C567 C568 1.291 . S
C567 H580 0.931 . S
C568 C567 1.291 . S
C568 C569 1.373 . S
C568 H581 0.929 . S
C569 C568 1.373 . S
C569 C570 1.396 . S
C569 C576 1.403 . S
C570 C560 1.476 . S
C570 N565 1.318 . S
C570 C569 1.396 . S
H571 C566 0.929 . S
O572 Mn548 2.385 . S
O572 C550 1.234 . S
O573 Mn548 2.209 . S
O573 Mn549 2.215 . S
O573 C550 1.283 . S
O574 Mn548 2.094 . S
O574 C552 1.240 . S
O575 Mn549 2.117 . S
O575 C552 1.264 . S
C576 C569 1.403 . S
C576 C577 1.399 . S
C576 H582 0.929 . S
C577 C557 1.449 . S
C577 C576 1.399 . S
C577 H583 0.930 . S
H578 C558 0.931 . S
H579 C559 0.930 . S
H580 C567 0.931 . S
H581 C568 0.929 . S
H582 C576 0.929 . S
H583 C577 0.930 . S
Mn584 O589 2.095 . S
Mn584 O599 2.162 1_554 S
Mn584 O600 2.297 1_554 S
Mn584 O608 2.385 1_554 S
Mn584 O609 2.209 1_554 S
Mn584 O610 2.094 . S
Mn585 O590 2.121 . S
Mn585 N592 2.257 1_554 S
Mn585 N601 2.282 1_554 S
Mn585 O609 2.215 1_554 S
Mn585 O611 2.117 . S
C586 O608 1.234 . S
C586 O609 1.283 . S
C587 O599 1.281 . S
C587 O600 1.236 . S
C588 O610 1.240 . S
C588 O611 1.264 . S
O589 Mn584 2.095 . S
O589 C598 1.250 . S
O590 Mn585 2.121 . S
O590 C598 1.258 . S
C591 N592 1.326 1_554 S
C591 C595 1.460 . S
C591 H597 0.929 . S
N592 Mn585 2.257 1_556 S
N592 C591 1.326 1_556 S
N592 C596 1.362 . S
C593 C594 1.258 . S
C593 C596 1.431 . S
C593 C613 1.449 . S
C594 C593 1.258 . S
C594 C595 1.477 1_556 S
C594 H614 0.931 . S
C595 C591 1.460 . S
C595 C594 1.477 1_554 S
C595 H615 0.930 . S
C596 N592 1.362 . S
C596 C593 1.431 . S
C596 C606 1.476 . S
H597 C591 0.929 . S
C598 O589 1.250 . S
C598 O590 1.258 . S
O599 Mn584 2.162 1_556 S
O599 C587 1.281 . S
O600 Mn584 2.297 1_556 S
O600 C587 1.236 . S
N601 Mn585 2.282 1_556 S
N601 C602 1.328 . S
N601 C606 1.318 . S
C602 N601 1.328 . S
C602 C603 1.457 . S
C602 H607 0.929 . S
C603 C602 1.457 . S
C603 C604 1.291 . S
C603 H616 0.931 . S
C604 C603 1.291 . S
C604 C605 1.373 . S
C604 H617 0.929 . S
C605 C604 1.373 . S
C605 C606 1.396 . S
C605 C612 1.403 . S
C606 C596 1.476 . S
C606 N601 1.318 . S
C606 C605 1.396 . S
H607 C602 0.929 . S
O608 Mn584 2.385 1_556 S
O608 C586 1.234 . S
O609 Mn584 2.209 1_556 S
O609 Mn585 2.215 1_556 S
O609 C586 1.283 . S
O610 Mn584 2.094 . S
O610 C588 1.240 . S
O611 Mn585 2.117 . S
O611 C588 1.264 . S
C612 C605 1.403 . S
C612 C613 1.399 . S
C612 H618 0.929 . S
C613 C593 1.449 . S
C613 C612 1.399 . S
C613 H619 0.930 . S
H614 C594 0.931 . S
H615 C595 0.930 . S
H616 C603 0.931 . S
H617 C604 0.929 . S
H618 C612 0.929 . S
H619 C613 0.930 . S
Mn620 O625 2.095 . S
Mn620 O635 2.162 . S
Mn620 O636 2.297 . S
Mn620 O644 2.385 . S
Mn620 O645 2.209 . S
Mn620 O646 2.094 . S
Mn621 O626 2.121 . S
Mn621 N628 2.257 . S
Mn621 N637 2.282 . S
Mn621 O645 2.215 . S
Mn621 O647 2.117 . S
C622 O644 1.234 . S
C622 O645 1.283 . S
C623 O635 1.281 . S
C623 O636 1.236 . S
C624 O646 1.240 . S
C624 O647 1.264 . S
O625 Mn620 2.095 . S
O625 C634 1.250 . S
O626 Mn621 2.121 . S
O626 C634 1.258 . S
C627 N628 1.326 . S
C627 C631 1.460 . S
C627 H633 0.929 . S
N628 Mn621 2.257 . S
N628 C627 1.326 . S
N628 C632 1.362 . S
C629 C630 1.258 . S
C629 C632 1.431 . S
C629 C649 1.449 . S
C630 C629 1.258 . S
C630 C631 1.477 . S
C630 H650 0.931 . S
C631 C627 1.460 . S
C631 C630 1.477 . S
C631 H651 0.930 . S
C632 N628 1.362 . S
C632 C629 1.431 . S
C632 C642 1.476 . S
H633 C627 0.929 . S
C634 O625 1.250 . S
C634 O626 1.258 . S
O635 Mn620 2.162 . S
O635 C623 1.281 . S
O636 Mn620 2.297 . S
O636 C623 1.236 . S
N637 Mn621 2.282 . S
N637 C638 1.328 . S
N637 C642 1.318 . S
C638 N637 1.328 . S
C638 C639 1.457 . S
C638 H643 0.929 . S
C639 C638 1.457 . S
C639 C640 1.291 . S
C639 H652 0.931 . S
C640 C639 1.291 . S
C640 C641 1.373 . S
C640 H653 0.929 . S
C641 C640 1.373 . S
C641 C642 1.396 . S
C641 C648 1.403 . S
C642 C632 1.476 . S
C642 N637 1.318 . S
C642 C641 1.396 . S
H643 C638 0.929 . S
O644 Mn620 2.385 . S
O644 C622 1.234 . S
O645 Mn620 2.209 . S
O645 Mn621 2.215 . S
O645 C622 1.283 . S
O646 Mn620 2.094 . S
O646 C624 1.240 . S
O647 Mn621 2.117 . S
O647 C624 1.264 . S
C648 C641 1.403 . S
C648 C649 1.399 . S
C648 H654 0.929 . S
C649 C629 1.449 . S
C649 C648 1.399 . S
C649 H655 0.930 . S
H650 C630 0.931 . S
H651 C631 0.930 . S
H652 C639 0.931 . S
H653 C640 0.929 . S
H654 C648 0.929 . S
H655 C649 0.930 . S
H656 C662 0.930 . S
H657 C666 0.930 . S
H658 C671 0.929 . S
H659 C669 0.929 . S
H660 C664 0.929 . S
H661 C670 0.929 . S
C662 H656 0.930 . S
C662 C663 1.367 . S
C662 C670 1.378 . S
C663 C662 1.367 . S
C663 C671 1.433 . S
C664 H660 0.929 . S
C664 C666 1.378 . S
C664 C668 1.350 . S
C665 C668 1.463 . S
C665 C670 1.350 . S
C665 N673 1.427 . S
C666 H657 0.930 . S
C666 C664 1.378 . S
C666 C667 1.367 . S
C667 C666 1.367 . S
C667 C669 1.433 . S
C668 C664 1.350 . S
C668 C665 1.463 . S
C668 N672 1.427 . S
C669 H659 0.929 . S
C669 C667 1.433 . S
C669 N672 1.384 . S
C670 H661 0.929 . S
C670 C662 1.378 . S
C670 C665 1.350 . S
C671 H658 0.929 . S
C671 C663 1.433 . S
C671 N673 1.384 . S
N672 C668 1.427 . S
N672 C669 1.384 . S
N673 C665 1.427 . S
N673 C671 1.384 . S
H674 C680 0.930 . S
H675 C684 0.930 . S
H676 C689 0.929 . S
H677 C687 0.929 . S
H678 C682 0.929 . S
H679 C688 0.929 . S
C680 H674 0.930 . S
C680 C681 1.367 . S
C680 C688 1.378 . S
C681 C680 1.367 . S
C681 C689 1.433 . S
C682 H678 0.929 . S
C682 C684 1.378 . S
C682 C686 1.350 . S
C683 C686 1.463 . S
C683 C688 1.350 . S
C683 N691 1.427 . S
C684 H675 0.930 . S
C684 C682 1.378 . S
C684 C685 1.367 . S
C685 C684 1.367 . S
C685 C687 1.433 . S
C686 C682 1.350 . S
C686 C683 1.463 . S
C686 N690 1.427 . S
C687 H677 0.929 . S
C687 C685 1.433 . S
C687 N690 1.384 . S
C688 H679 0.929 . S
C688 C680 1.378 . S
C688 C683 1.350 . S
C689 H676 0.929 . S
C689 C681 1.433 . S
C689 N691 1.384 . S
N690 C686 1.427 . S
N690 C687 1.384 . S
N691 C683 1.427 . S
N691 C689 1.384 . S
H692 C698 0.930 . S
H693 C702 0.930 . S
H694 C707 0.929 . S
H695 C705 0.929 . S
H696 C700 0.929 . S
H697 C706 0.929 . S
C698 H692 0.930 . S
C698 C699 1.367 . S
C698 C706 1.378 . S
C699 C698 1.367 . S
C699 C707 1.433 . S
C700 H696 0.929 . S
C700 C702 1.378 . S
C700 C704 1.350 . S
C701 C704 1.463 . S
C701 C706 1.350 . S
C701 N709 1.427 . S
C702 H693 0.930 . S
C702 C700 1.378 . S
C702 C703 1.367 . S
C703 C702 1.367 . S
C703 C705 1.433 . S
C704 C700 1.350 . S
C704 C701 1.463 . S
C704 N708 1.427 . S
C705 H695 0.929 . S
C705 C703 1.433 . S
C705 N708 1.384 . S
C706 H697 0.929 . S
C706 C698 1.378 . S
C706 C701 1.350 . S
C707 H694 0.929 . S
C707 C699 1.433 . S
C707 N709 1.384 . S
N708 C704 1.427 . S
N708 C705 1.384 . S
N709 C701 1.427 . S
N709 C707 1.384 . S
H710 C716 0.930 . S
H711 C720 0.930 . S
H712 C725 0.929 . S
H713 C723 0.929 . S
H714 C718 0.929 . S
H715 C724 0.929 . S
C716 H710 0.930 . S
C716 C717 1.367 . S
C716 C724 1.378 . S
C717 C716 1.367 . S
C717 C725 1.433 . S
C718 H714 0.929 . S
C718 C720 1.378 . S
C718 C722 1.350 . S
C719 C722 1.463 . S
C719 C724 1.350 . S
C719 N727 1.427 . S
C720 H711 0.930 . S
C720 C718 1.378 . S
C720 C721 1.367 . S
C721 C720 1.367 . S
C721 C723 1.433 . S
C722 C718 1.350 . S
C722 C719 1.463 . S
C722 N726 1.427 . S
C723 H713 0.929 . S
C723 C721 1.433 . S
C723 N726 1.384 . S
C724 H715 0.929 . S
C724 C716 1.378 . S
C724 C719 1.350 . S
C725 H712 0.929 . S
C725 C717 1.433 . S
C725 N727 1.384 . S
N726 C722 1.427 . S
N726 C723 1.384 . S
N727 C719 1.427 . S
N727 C725 1.384 . S
H728 C734 0.930 . S
H729 C738 0.930 . S
H730 C743 0.929 . S
H731 C741 0.929 1_554 S
H732 C736 0.929 . S
H733 C742 0.929 . S
C734 H728 0.930 . S
C734 C735 1.367 . S
C734 C742 1.378 . S
C735 C734 1.367 . S
C735 C743 1.433 . S
C736 H732 0.929 . S
C736 C738 1.378 . S
C736 C740 1.350 . S
C737 C740 1.463 . S
C737 C742 1.350 . S
C737 N745 1.427 . S
C738 H729 0.930 . S
C738 C736 1.378 . S
C738 C739 1.367 . S
C739 C738 1.367 . S
C739 C741 1.433 . S
C740 C736 1.350 . S
C740 C737 1.463 . S
C740 N744 1.427 . S
C741 H731 0.929 1_556 S
C741 C739 1.433 . S
C741 N744 1.384 . S
C742 H733 0.929 . S
C742 C734 1.378 . S
C742 C737 1.350 . S
C743 H730 0.929 . S
C743 C735 1.433 . S
C743 N745 1.384 . S
N744 C740 1.427 . S
N744 C741 1.384 . S
N745 C737 1.427 . S
N745 C743 1.384 . S
H746 C752 0.930 . S
H747 C756 0.930 . S
H748 C761 0.929 . S
H749 C759 0.929 . S
H750 C754 0.929 . S
H751 C760 0.929 . S
C752 H746 0.930 . S
C752 C753 1.367 . S
C752 C760 1.378 . S
C753 C752 1.367 . S
C753 C761 1.433 . S
C754 H750 0.929 . S
C754 C756 1.378 . S
C754 C758 1.350 . S
C755 C758 1.463 . S
C755 C760 1.350 . S
C755 N763 1.427 . S
C756 H747 0.930 . S
C756 C754 1.378 . S
C756 C757 1.367 . S
C757 C756 1.367 . S
C757 C759 1.433 . S
C758 C754 1.350 . S
C758 C755 1.463 . S
C758 N762 1.427 . S
C759 H749 0.929 . S
C759 C757 1.433 . S
C759 N762 1.384 . S
C760 H751 0.929 . S
C760 C752 1.378 . S
C760 C755 1.350 . S
C761 H748 0.929 . S
C761 C753 1.433 . S
C761 N763 1.384 . S
N762 C758 1.427 . S
N762 C759 1.384 . S
N763 C755 1.427 . S
N763 C761 1.384 . S
H764 C770 0.930 . S
H765 C774 0.930 . S
H766 C779 0.929 . S
H767 C777 0.929 . S
H768 C772 0.929 . S
H769 C778 0.929 . S
C770 H764 0.930 . S
C770 C771 1.367 . S
C770 C778 1.378 . S
C771 C770 1.367 . S
C771 C779 1.433 . S
C772 H768 0.929 . S
C772 C774 1.378 . S
C772 C776 1.350 . S
C773 C776 1.463 . S
C773 C778 1.350 . S
C773 N781 1.427 . S
C774 H765 0.930 . S
C774 C772 1.378 . S
C774 C775 1.367 . S
C775 C774 1.367 . S
C775 C777 1.433 . S
C776 C772 1.350 . S
C776 C773 1.463 . S
C776 N780 1.427 . S
C777 H767 0.929 . S
C777 C775 1.433 . S
C777 N780 1.384 . S
C778 H769 0.929 . S
C778 C770 1.378 . S
C778 C773 1.350 . S
C779 H766 0.929 . S
C779 C771 1.433 . S
C779 N781 1.384 . S
N780 C776 1.427 . S
N780 C777 1.384 . S
N781 C773 1.427 . S
N781 C779 1.384 . S
H782 C788 0.930 . S
H783 C792 0.930 . S
H784 C797 0.929 . S
H785 C795 0.929 . S
H786 C790 0.929 . S
H787 C796 0.929 . S
C788 H782 0.930 . S
C788 C789 1.367 . S
C788 C796 1.378 . S
C789 C788 1.367 . S
C789 C797 1.433 . S
C790 H786 0.929 . S
C790 C792 1.378 . S
C790 C794 1.350 . S
C791 C794 1.463 . S
C791 C796 1.350 . S
C791 N799 1.427 . S
C792 H783 0.930 . S
C792 C790 1.378 . S
C792 C793 1.367 . S
C793 C792 1.367 . S
C793 C795 1.433 . S
C794 C790 1.350 . S
C794 C791 1.463 . S
C794 N798 1.427 . S
C795 H785 0.929 . S
C795 C793 1.433 . S
C795 N798 1.384 . S
C796 H787 0.929 . S
C796 C788 1.378 . S
C796 C791 1.350 . S
C797 H784 0.929 . S
C797 C789 1.433 . S
C797 N799 1.384 . S
N798 C794 1.427 . S
N798 C795 1.384 . S
N799 C791 1.427 . S
N799 C797 1.384 . S
H800 C806 0.930 . S
H801 C810 0.930 . S
H802 C815 0.929 . S
H803 C813 0.929 . S
H804 C808 0.929 . S
H805 C814 0.929 . S
C806 H800 0.930 . S
C806 C807 1.367 . S
C806 C814 1.378 . S
C807 C806 1.367 . S
C807 C815 1.433 . S
C808 H804 0.929 . S
C808 C810 1.378 . S
C808 C812 1.350 . S
C809 C812 1.463 . S
C809 C814 1.350 . S
C809 N817 1.427 . S
C810 H801 0.930 . S
C810 C808 1.378 . S
C810 C811 1.367 . S
C811 C810 1.367 . S
C811 C813 1.433 . S
C812 C808 1.350 . S
C812 C809 1.463 . S
C812 N816 1.427 . S
C813 H803 0.929 . S
C813 C811 1.433 . S
C813 N816 1.384 . S
C814 H805 0.929 . S
C814 C806 1.378 . S
C814 C809 1.350 . S
C815 H802 0.929 . S
C815 C807 1.433 . S
C815 N817 1.384 . S
N816 C812 1.427 . S
N816 C813 1.384 . S
N817 C809 1.427 . S
N817 C815 1.384 . S
H818 C824 0.930 . S
H819 C828 0.930 . S
H820 C833 0.929 . S
H821 C831 0.929 1_556 S
H822 C826 0.929 . S
H823 C832 0.929 . S
C824 H818 0.930 . S
C824 C825 1.367 . S
C824 C832 1.378 . S
C825 C824 1.367 . S
C825 C833 1.433 . S
C826 H822 0.929 . S
C826 C828 1.378 . S
C826 C830 1.350 . S
C827 C830 1.463 . S
C827 C832 1.350 . S
C827 N835 1.427 . S
C828 H819 0.930 . S
C828 C826 1.378 . S
C828 C829 1.367 . S
C829 C828 1.367 . S
C829 C831 1.433 . S
C830 C826 1.350 . S
C830 C827 1.463 . S
C830 N834 1.427 . S
C831 H821 0.929 1_554 S
C831 C829 1.433 . S
C831 N834 1.384 . S
C832 H823 0.929 . S
C832 C824 1.378 . S
C832 C827 1.350 . S
C833 H820 0.929 . S
C833 C825 1.433 . S
C833 N835 1.384 . S
N834 C830 1.427 . S
N834 C831 1.384 . S
N835 C827 1.427 . S
N835 C833 1.384 . S
H836 C842 0.930 . S
H837 C846 0.930 . S
H838 C851 0.929 . S
H839 C849 0.929 . S
H840 C844 0.929 . S
H841 C850 0.929 . S
C842 H836 0.930 . S
C842 C843 1.367 . S
C842 C850 1.378 . S
C843 C842 1.367 . S
C843 C851 1.433 . S
C844 H840 0.929 . S
C844 C846 1.378 . S
C844 C848 1.350 . S
C845 C848 1.463 . S
C845 C850 1.350 . S
C845 N853 1.427 . S
C846 H837 0.930 . S
C846 C844 1.378 . S
C846 C847 1.367 . S
C847 C846 1.367 . S
C847 C849 1.433 . S
C848 C844 1.350 . S
C848 C845 1.463 . S
C848 N852 1.427 . S
C849 H839 0.929 . S
C849 C847 1.433 . S
C849 N852 1.384 . S
C850 H841 0.929 . S
C850 C842 1.378 . S
C850 C845 1.350 . S
C851 H838 0.929 . S
C851 C843 1.433 . S
C851 N853 1.384 . S
N852 C848 1.427 . S
N852 C849 1.384 . S
N853 C845 1.427 . S
N853 C851 1.384 . S
H854 C860 0.930 . S
H855 C864 0.930 . S
H856 C869 0.929 . S
H857 C867 0.929 . S
H858 C862 0.929 . S
H859 C868 0.929 . S
C860 H854 0.930 . S
C860 C861 1.367 . S
C860 C868 1.378 . S
C861 C860 1.367 . S
C861 C869 1.433 . S
C862 H858 0.929 . S
C862 C864 1.378 . S
C862 C866 1.350 . S
C863 C866 1.463 . S
C863 C868 1.350 . S
C863 N871 1.427 . S
C864 H855 0.930 . S
C864 C862 1.378 . S
C864 C865 1.367 . S
C865 C864 1.367 . S
C865 C867 1.433 . S
C866 C862 1.350 . S
C866 C863 1.463 . S
C866 N870 1.427 . S
C867 H857 0.929 . S
C867 C865 1.433 . S
C867 N870 1.384 . S
C868 H859 0.929 . S
C868 C860 1.378 . S
C868 C863 1.350 . S
C869 H856 0.929 . S
C869 C861 1.433 . S
C869 N871 1.384 . S
N870 C866 1.427 . S
N870 C867 1.384 . S
N871 C863 1.427 . S
N871 C869 1.384 . S
H872 C878 0.930 . S
H873 C882 0.930 . S
H874 C887 0.929 . S
H875 C885 0.929 . S
H876 C880 0.929 . S
H877 C886 0.929 . S
C878 H872 0.930 . S
C878 C879 1.367 . S
C878 C886 1.378 . S
C879 C878 1.367 . S
C879 C887 1.433 . S
C880 H876 0.929 . S
C880 C882 1.378 . S
C880 C884 1.350 . S
C881 C884 1.463 . S
C881 C886 1.350 . S
C881 N889 1.427 . S
C882 H873 0.930 . S
C882 C880 1.378 . S
C882 C883 1.367 . S
C883 C882 1.367 . S
C883 C885 1.433 . S
C884 C880 1.350 . S
C884 C881 1.463 . S
C884 N888 1.427 . S
C885 H875 0.929 . S
C885 C883 1.433 . S
C885 N888 1.384 . S
C886 H877 0.929 . S
C886 C878 1.378 . S
C886 C881 1.350 . S
C887 H874 0.929 . S
C887 C879 1.433 . S
C887 N889 1.384 . S
N888 C884 1.427 . S
N888 C885 1.384 . S
N889 C881 1.427 . S
N889 C887 1.384 . S
H890 C896 0.930 . S
H891 C900 0.930 . S
H892 C905 0.929 . S
H893 C903 0.929 . S
H894 C898 0.929 . S
H895 C904 0.929 . S
C896 H890 0.930 . S
C896 C897 1.367 . S
C896 C904 1.378 . S
C897 C896 1.367 . S
C897 C905 1.433 . S
C898 H894 0.929 . S
C898 C900 1.378 . S
C898 C902 1.350 . S
C899 C902 1.463 . S
C899 C904 1.350 . S
C899 N907 1.427 . S
C900 H891 0.930 . S
C900 C898 1.378 . S
C900 C901 1.367 . S
C901 C900 1.367 . S
C901 C903 1.433 . S
C902 C898 1.350 . S
C902 C899 1.463 . S
C902 N906 1.427 . S
C903 H893 0.929 . S
C903 C901 1.433 . S
C903 N906 1.384 . S
C904 H895 0.929 . S
C904 C896 1.378 . S
C904 C899 1.350 . S
C905 H892 0.929 . S
C905 C897 1.433 . S
C905 N907 1.384 . S
N906 C902 1.427 . S
N906 C903 1.384 . S
N907 C899 1.427 . S
N907 C905 1.384 . S
H908 C914 0.930 . S
H909 C918 0.930 . S
H910 C923 0.929 . S
H911 C921 0.929 . S
H912 C916 0.929 . S
H913 C922 0.929 1_554 S
C914 H908 0.930 . S
C914 C915 1.367 . S
C914 C922 1.378 . S
C915 C914 1.367 . S
C915 C923 1.433 . S
C916 H912 0.929 . S
C916 C918 1.378 . S
C916 C920 1.350 . S
C917 C920 1.463 . S
C917 C922 1.350 . S
C917 N925 1.427 . S
C918 H909 0.930 . S
C918 C916 1.378 . S
C918 C919 1.367 . S
C919 C918 1.367 . S
C919 C921 1.433 1_556 S
C920 C916 1.350 . S
C920 C917 1.463 . S
C920 N924 1.381 1_556 S
C921 H911 0.929 . S
C921 C919 1.433 1_554 S
C921 N924 1.397 . S
C922 H913 0.929 1_556 S
C922 C914 1.378 . S
C922 C917 1.350 . S
C923 H910 0.929 . S
C923 C915 1.433 . S
C923 N925 1.384 . S
N924 C920 1.381 1_554 S
N924 C921 1.397 . S
N925 C917 1.427 . S
N925 C923 1.384 . S
H926 C932 0.930 . S
H927 C936 0.930 . S
H928 C941 0.929 . S
H929 C939 0.929 . S
H930 C934 0.929 . S
H931 C940 0.929 . S
C932 H926 0.930 . S
C932 C933 1.367 . S
C932 C940 1.378 . S
C933 C932 1.367 . S
C933 C941 1.433 . S
C934 H930 0.929 . S
C934 C936 1.378 . S
C934 C938 1.350 . S
C935 C938 1.463 . S
C935 C940 1.350 . S
C935 N943 1.427 . S
C936 H927 0.930 . S
C936 C934 1.378 . S
C936 C937 1.367 . S
C937 C936 1.367 . S
C937 C939 1.433 . S
C938 C934 1.350 . S
C938 C935 1.463 . S
C938 N942 1.427 . S
C939 H929 0.929 . S
C939 C937 1.433 . S
C939 N942 1.384 . S
C940 H931 0.929 . S
C940 C932 1.378 . S
C940 C935 1.350 . S
C941 H928 0.929 . S
C941 C933 1.433 . S
C941 N943 1.384 . S
N942 C938 1.427 . S
N942 C939 1.384 . S
N943 C935 1.427 . S
N943 C941 1.384 . S
H944 C950 0.930 . S
H945 C954 0.930 . S
H946 C959 0.929 . S
H947 C957 0.929 . S
H948 C952 0.929 . S
H949 C958 0.929 . S
C950 H944 0.930 . S
C950 C951 1.367 . S
C950 C958 1.378 . S
C951 C950 1.367 . S
C951 C959 1.433 . S
C952 H948 0.929 . S
C952 C954 1.378 . S
C952 C956 1.350 . S
C953 C956 1.463 . S
C953 C958 1.350 . S
C953 N961 1.427 . S
C954 H945 0.930 . S
C954 C952 1.378 . S
C954 C955 1.367 . S
C955 C954 1.367 . S
C955 C957 1.433 . S
C956 C952 1.350 . S
C956 C953 1.463 . S
C956 N960 1.427 . S
C957 H947 0.929 . S
C957 C955 1.433 . S
C957 N960 1.384 . S
C958 H949 0.929 . S
C958 C950 1.378 . S
C958 C953 1.350 . S
C959 H946 0.929 . S
C959 C951 1.433 . S
C959 N961 1.384 . S
N960 C956 1.427 . S
N960 C957 1.384 . S
N961 C953 1.427 . S
N961 C959 1.384 . S
H962 C968 0.930 . S
H963 C972 0.930 . S
H964 C977 0.929 . S
H965 C975 0.929 . S
H966 C970 0.929 . S
H967 C976 0.929 . S
C968 H962 0.930 . S
C968 C969 1.367 . S
C968 C976 1.378 . S
C969 C968 1.367 . S
C969 C977 1.433 . S
C970 H966 0.929 . S
C970 C972 1.378 . S
C970 C974 1.350 . S
C971 C974 1.463 . S
C971 C976 1.350 . S
C971 N979 1.427 . S
C972 H963 0.930 . S
C972 C970 1.378 . S
C972 C973 1.367 . S
C973 C972 1.367 . S
C973 C975 1.433 . S
C974 C970 1.350 . S
C974 C971 1.463 . S
C974 N978 1.427 . S
C975 H965 0.929 . S
C975 C973 1.433 . S
C975 N978 1.384 . S
C976 H967 0.929 . S
C976 C968 1.378 . S
C976 C971 1.350 . S
C977 H964 0.929 . S
C977 C969 1.433 . S
C977 N979 1.384 . S
N978 C974 1.427 . S
N978 C975 1.384 . S
N979 C971 1.427 . S
N979 C977 1.384 . S
H980 C986 0.930 . S
H981 C990 0.930 . S
H982 C995 0.929 . S
H983 C993 0.929 . S
H984 C988 0.929 . S
H985 C994 0.929 . S
C986 H980 0.930 . S
C986 C987 1.367 . S
C986 C994 1.378 . S
C987 C986 1.367 . S
C987 C995 1.433 . S
C988 H984 0.929 . S
C988 C990 1.378 . S
C988 C992 1.350 . S
C989 C992 1.463 . S
C989 C994 1.350 . S
C989 N997 1.427 . S
C990 H981 0.930 . S
C990 C988 1.378 . S
C990 C991 1.367 . S
C991 C990 1.367 . S
C991 C993 1.433 . S
C992 C988 1.350 . S
C992 C989 1.463 . S
C992 N996 1.427 . S
C993 H983 0.929 . S
C993 C991 1.433 . S
C993 N996 1.384 . S
C994 H985 0.929 . S
C994 C986 1.378 . S
C994 C989 1.350 . S
C995 H982 0.929 . S
C995 C987 1.433 . S
C995 N997 1.384 . S
N996 C992 1.427 . S
N996 C993 1.384 . S
N997 C989 1.427 . S
N997 C995 1.384 . S
H998 C1004 0.930 . S
H999 C1008 0.930 . S
H1000 C1013 0.929 . S
H1001 C1011 0.929 . S
H1002 C1006 0.929 . S
H1003 C1012 0.929 . S
C1004 H998 0.930 . S
C1004 C1005 1.367 . S
C1004 C1012 1.378 . S
C1005 C1004 1.367 . S
C1005 C1013 1.433 . S
C1006 H1002 0.929 . S
C1006 C1008 1.378 . S
C1006 C1010 1.350 . S
C1007 C1010 1.463 . S
C1007 C1012 1.350 . S
C1007 N1015 1.427 . S
C1008 H999 0.930 . S
C1008 C1006 1.378 . S
C1008 C1009 1.367 . S
C1009 C1008 1.367 . S
C1009 C1011 1.433 . S
C1010 C1006 1.350 . S
C1010 C1007 1.463 . S
C1010 N1014 1.427 . S
C1011 H1001 0.929 . S
C1011 C1009 1.433 . S
C1011 N1014 1.384 . S
C1012 H1003 0.929 . S
C1012 C1004 1.378 . S
C1012 C1007 1.350 . S
C1013 H1000 0.929 . S
C1013 C1005 1.433 . S
C1013 N1015 1.384 . S
N1014 C1010 1.427 . S
N1014 C1011 1.384 . S
N1015 C1007 1.427 . S
N1015 C1013 1.384 . S
H1016 C1022 0.930 . S
H1017 C1026 0.930 . S
H1018 C1031 0.929 . S
H1019 C1029 0.929 . S
H1020 C1024 0.929 . S
H1021 C1030 0.929 . S
C1022 H1016 0.930 . S
C1022 C1023 1.367 . S
C1022 C1030 1.378 . S
C1023 C1022 1.367 . S
C1023 C1031 1.433 . S
C1024 H1020 0.929 . S
C1024 C1026 1.378 . S
C1024 C1028 1.350 . S
C1025 C1028 1.463 . S
C1025 C1030 1.350 . S
C1025 N1033 1.427 . S
C1026 H1017 0.930 . S
C1026 C1024 1.378 . S
C1026 C1027 1.367 . S
C1027 C1026 1.367 . S
C1027 C1029 1.433 . S
C1028 C1024 1.350 . S
C1028 C1025 1.463 . S
C1028 N1032 1.427 . S
C1029 H1019 0.929 . S
C1029 C1027 1.433 . S
C1029 N1032 1.384 . S
C1030 H1021 0.929 . S
C1030 C1022 1.378 . S
C1030 C1025 1.350 . S
C1031 H1018 0.929 . S
C1031 C1023 1.433 . S
C1031 N1033 1.384 . S
N1032 C1028 1.427 . S
N1032 C1029 1.384 . S
N1033 C1025 1.427 . S
N1033 C1031 1.384 . S
H1034 C1040 0.930 . S
H1035 C1044 0.930 . S
H1036 C1049 0.929 . S
H1037 C1047 0.929 . S
H1038 C1042 0.929 . S
H1039 C1048 0.929 . S
C1040 H1034 0.930 . S
C1040 C1041 1.367 . S
C1040 C1048 1.378 . S
C1041 C1040 1.367 . S
C1041 C1049 1.433 . S
C1042 H1038 0.929 . S
C1042 C1044 1.378 . S
C1042 C1046 1.350 . S
C1043 C1046 1.463 . S
C1043 C1048 1.350 . S
C1043 N1051 1.427 . S
C1044 H1035 0.930 . S
C1044 C1042 1.378 . S
C1044 C1045 1.367 . S
C1045 C1044 1.367 . S
C1045 C1047 1.433 . S
C1046 C1042 1.350 . S
C1046 C1043 1.463 . S
C1046 N1050 1.427 . S
C1047 H1037 0.929 . S
C1047 C1045 1.433 . S
C1047 N1050 1.384 . S
C1048 H1039 0.929 . S
C1048 C1040 1.378 . S
C1048 C1043 1.350 . S
C1049 H1036 0.929 . S
C1049 C1041 1.433 . S
C1049 N1051 1.384 . S
N1050 C1046 1.427 . S
N1050 C1047 1.384 . S
N1051 C1043 1.427 . S
N1051 C1049 1.384 . S
H1052 C1058 0.930 . S
H1053 C1062 0.930 . S
H1054 C1067 0.929 . S
H1055 C1065 0.929 . S
H1056 C1060 0.929 . S
H1057 C1066 0.929 . S
C1058 H1052 0.930 . S
C1058 C1059 1.367 . S
C1058 C1066 1.378 . S
C1059 C1058 1.367 . S
C1059 C1067 1.433 . S
C1060 H1056 0.929 . S
C1060 C1062 1.378 . S
C1060 C1064 1.350 . S
C1061 C1064 1.463 . S
C1061 C1066 1.350 . S
C1061 N1069 1.427 . S
C1062 H1053 0.930 . S
C1062 C1060 1.378 . S
C1062 C1063 1.367 . S
C1063 C1062 1.367 . S
C1063 C1065 1.433 . S
C1064 C1060 1.350 . S
C1064 C1061 1.463 . S
C1064 N1068 1.427 . S
C1065 H1055 0.929 . S
C1065 C1063 1.433 . S
C1065 N1068 1.384 . S
C1066 H1057 0.929 . S
C1066 C1058 1.378 . S
C1066 C1061 1.350 . S
C1067 H1054 0.929 . S
C1067 C1059 1.433 . S
C1067 N1069 1.384 . S
N1068 C1064 1.427 . S
N1068 C1065 1.384 . S
N1069 C1061 1.427 . S
N1069 C1067 1.384 . S
H1070 C1076 0.930 . S
H1071 C1080 0.930 . S
H1072 C1085 0.929 . S
H1073 C1083 0.929 . S
H1074 C1078 0.929 . S
H1075 C1084 0.929 . S
C1076 H1070 0.930 . S
C1076 C1077 1.367 . S
C1076 C1084 1.378 . S
C1077 C1076 1.367 . S
C1077 C1085 1.433 . S
C1078 H1074 0.929 . S
C1078 C1080 1.378 . S
C1078 C1082 1.350 . S
C1079 C1082 1.463 . S
C1079 C1084 1.350 . S
C1079 N1087 1.427 . S
C1080 H1071 0.930 . S
C1080 C1078 1.378 . S
C1080 C1081 1.367 . S
C1081 C1080 1.367 . S
C1081 C1083 1.433 . S
C1082 C1078 1.350 . S
C1082 C1079 1.463 . S
C1082 N1086 1.427 . S
C1083 H1073 0.929 . S
C1083 C1081 1.433 . S
C1083 N1086 1.384 . S
C1084 H1075 0.929 . S
C1084 C1076 1.378 . S
C1084 C1079 1.350 . S
C1085 H1072 0.929 . S
C1085 C1077 1.433 . S
C1085 N1087 1.384 . S
N1086 C1082 1.427 . S
N1086 C1083 1.384 . S
N1087 C1079 1.427 . S
N1087 C1085 1.384 . S
H1088 C1094 0.930 . S
H1089 C1098 0.930 . S
H1090 C1103 0.929 . S
H1091 C1101 0.929 . S
H1092 C1096 0.929 . S
H1093 C1102 0.929 . S
C1094 H1088 0.930 . S
C1094 C1095 1.367 . S
C1094 C1102 1.378 . S
C1095 C1094 1.367 . S
C1095 C1103 1.433 . S
C1096 H1092 0.929 . S
C1096 C1098 1.378 . S
C1096 C1100 1.350 . S
C1097 C1100 1.463 . S
C1097 C1102 1.350 . S
C1097 N1105 1.427 . S
C1098 H1089 0.930 . S
C1098 C1096 1.378 . S
C1098 C1099 1.367 . S
C1099 C1098 1.367 . S
C1099 C1101 1.433 . S
C1100 C1096 1.350 . S
C1100 C1097 1.463 . S
C1100 N1104 1.427 . S
C1101 H1091 0.929 . S
C1101 C1099 1.433 . S
C1101 N1104 1.384 . S
C1102 H1093 0.929 . S
C1102 C1094 1.378 . S
C1102 C1097 1.350 . S
C1103 H1090 0.929 . S
C1103 C1095 1.433 . S
C1103 N1105 1.384 . S
N1104 C1100 1.427 . S
N1104 C1101 1.384 . S
N1105 C1097 1.427 . S
N1105 C1103 1.384 . S
H1106 C1112 0.930 . S
H1107 C1116 0.930 . S
H1108 C1121 0.929 . S
H1109 C1119 0.929 . S
H1110 C1114 0.929 . S
H1111 C1120 0.929 . S
C1112 H1106 0.930 . S
C1112 C1113 1.367 . S
C1112 C1120 1.378 . S
C1113 C1112 1.367 . S
C1113 C1121 1.433 . S
C1114 H1110 0.929 . S
C1114 C1116 1.378 . S
C1114 C1118 1.350 . S
C1115 C1118 1.463 . S
C1115 C1120 1.350 . S
C1115 N1123 1.427 . S
C1116 H1107 0.930 . S
C1116 C1114 1.378 . S
C1116 C1117 1.367 . S
C1117 C1116 1.367 . S
C1117 C1119 1.433 . S
C1118 C1114 1.350 . S
C1118 C1115 1.463 . S
C1118 N1122 1.427 . S
C1119 H1109 0.929 . S
C1119 C1117 1.433 . S
C1119 N1122 1.384 . S
C1120 H1111 0.929 . S
C1120 C1112 1.378 . S
C1120 C1115 1.350 . S
C1121 H1108 0.929 . S
C1121 C1113 1.433 . S
C1121 N1123 1.384 . S
N1122 C1118 1.427 . S
N1122 C1119 1.384 . S
N1123 C1115 1.427 . S
N1123 C1121 1.384 . S
H1124 C1130 0.930 . S
H1125 C1134 0.930 . S
H1126 C1139 0.929 . S
H1127 C1137 0.929 . S
H1128 C1132 0.929 . S
H1129 C1138 0.929 . S
C1130 H1124 0.930 . S
C1130 C1131 1.367 . S
C1130 C1138 1.378 . S
C1131 C1130 1.367 . S
C1131 C1139 1.433 . S
C1132 H1128 0.929 . S
C1132 C1134 1.378 . S
C1132 C1136 1.350 . S
C1133 C1136 1.463 . S
C1133 C1138 1.350 . S
C1133 N1141 1.427 . S
C1134 H1125 0.930 . S
C1134 C1132 1.378 . S
C1134 C1135 1.367 . S
C1135 C1134 1.367 . S
C1135 C1137 1.433 . S
C1136 C1132 1.350 . S
C1136 C1133 1.463 . S
C1136 N1140 1.427 . S
C1137 H1127 0.929 . S
C1137 C1135 1.433 . S
C1137 N1140 1.384 . S
C1138 H1129 0.929 . S
C1138 C1130 1.378 . S
C1138 C1133 1.350 . S
C1139 H1126 0.929 . S
C1139 C1131 1.433 . S
C1139 N1141 1.384 . S
N1140 C1136 1.427 . S
N1140 C1137 1.384 . S
N1141 C1133 1.427 . S
N1141 C1139 1.384 . S
H1142 C1148 0.930 . S
H1143 C1152 0.930 . S
H1144 C1157 0.929 . S
H1145 C1155 0.929 . S
H1146 C1150 0.929 . S
H1147 C1156 0.929 . S
C1148 H1142 0.930 . S
C1148 C1149 1.367 . S
C1148 C1156 1.378 . S
C1149 C1148 1.367 . S
C1149 C1157 1.433 . S
C1150 H1146 0.929 . S
C1150 C1152 1.378 . S
C1150 C1154 1.350 . S
C1151 C1154 1.463 . S
C1151 C1156 1.350 . S
C1151 N1159 1.427 . S
C1152 H1143 0.930 . S
C1152 C1150 1.378 . S
C1152 C1153 1.367 . S
C1153 C1152 1.367 . S
C1153 C1155 1.433 . S
C1154 C1150 1.350 . S
C1154 C1151 1.463 . S
C1154 N1158 1.427 . S
C1155 H1145 0.929 . S
C1155 C1153 1.433 . S
C1155 N1158 1.384 . S
C1156 H1147 0.929 . S
C1156 C1148 1.378 . S
C1156 C1151 1.350 . S
C1157 H1144 0.929 . S
C1157 C1149 1.433 . S
C1157 N1159 1.384 . S
N1158 C1154 1.427 . S
N1158 C1155 1.384 . S
N1159 C1151 1.427 . S
N1159 C1157 1.384 . S
H1160 C1166 0.930 . S
H1161 C1170 0.930 . S
H1162 C1175 0.929 . S
H1163 C1173 0.929 . S
H1164 C1168 0.929 . S
H1165 C1174 0.929 . S
C1166 H1160 0.930 . S
C1166 C1167 1.367 . S
C1166 C1174 1.378 . S
C1167 C1166 1.367 . S
C1167 C1175 1.433 . S
C1168 H1164 0.929 . S
C1168 C1170 1.378 . S
C1168 C1172 1.350 . S
C1169 C1172 1.463 . S
C1169 C1174 1.350 . S
C1169 N1177 1.427 . S
C1170 H1161 0.930 . S
C1170 C1168 1.378 . S
C1170 C1171 1.367 . S
C1171 C1170 1.367 . S
C1171 C1173 1.433 . S
C1172 C1168 1.350 . S
C1172 C1169 1.463 . S
C1172 N1176 1.427 . S
C1173 H1163 0.929 . S
C1173 C1171 1.433 . S
C1173 N1176 1.384 . S
C1174 H1165 0.929 . S
C1174 C1166 1.378 . S
C1174 C1169 1.350 . S
C1175 H1162 0.929 . S
C1175 C1167 1.433 . S
C1175 N1177 1.384 . S
N1176 C1172 1.427 . S
N1176 C1173 1.384 . S
N1177 C1169 1.427 . S
N1177 C1175 1.384 . S
H1178 C1184 0.930 . S
H1179 C1188 0.930 . S
H1180 C1193 0.929 . S
H1181 C1191 0.929 . S
H1182 C1186 0.929 . S
H1183 C1192 0.929 . S
C1184 H1178 0.930 . S
C1184 C1185 1.367 . S
C1184 C1192 1.378 . S
C1185 C1184 1.367 . S
C1185 C1193 1.433 . S
C1186 H1182 0.929 . S
C1186 C1188 1.378 . S
C1186 C1190 1.350 . S
C1187 C1190 1.463 . S
C1187 C1192 1.350 . S
C1187 N1195 1.427 . S
C1188 H1179 0.930 . S
C1188 C1186 1.378 . S
C1188 C1189 1.367 . S
C1189 C1188 1.367 . S
C1189 C1191 1.433 . S
C1190 C1186 1.350 . S
C1190 C1187 1.463 . S
C1190 N1194 1.427 . S
C1191 H1181 0.929 . S
C1191 C1189 1.433 . S
C1191 N1194 1.384 . S
C1192 H1183 0.929 . S
C1192 C1184 1.378 . S
C1192 C1187 1.350 . S
C1193 H1180 0.929 . S
C1193 C1185 1.433 . S
C1193 N1195 1.384 . S
N1194 C1190 1.427 . S
N1194 C1191 1.384 . S
N1195 C1187 1.427 . S
N1195 C1193 1.384 . S
H1196 C1202 0.930 . S
H1197 C1206 0.930 . S
H1198 C1211 0.929 . S
H1199 C1209 0.929 . S
H1200 C1204 0.929 . S
H1201 C1210 0.929 . S
C1202 H1196 0.930 . S
C1202 C1203 1.367 . S
C1202 C1210 1.378 . S
C1203 C1202 1.367 . S
C1203 C1211 1.433 . S
C1204 H1200 0.929 . S
C1204 C1206 1.378 . S
C1204 C1208 1.350 . S
C1205 C1208 1.463 . S
C1205 C1210 1.350 . S
C1205 N1213 1.427 . S
C1206 H1197 0.930 . S
C1206 C1204 1.378 . S
C1206 C1207 1.367 . S
C1207 C1206 1.367 . S
C1207 C1209 1.433 . S
C1208 C1204 1.350 . S
C1208 C1205 1.463 . S
C1208 N1212 1.427 . S
C1209 H1199 0.929 . S
C1209 C1207 1.433 . S
C1209 N1212 1.384 . S
C1210 H1201 0.929 . S
C1210 C1202 1.378 . S
C1210 C1205 1.350 . S
C1211 H1198 0.929 . S
C1211 C1203 1.433 . S
C1211 N1213 1.384 . S
N1212 C1208 1.427 . S
N1212 C1209 1.384 . S
N1213 C1205 1.427 . S
N1213 C1211 1.384 . S
H1214 C1220 0.930 . S
H1215 C1224 0.930 . S
H1216 C1229 0.929 . S
H1217 C1227 0.929 . S
H1218 C1222 0.929 . S
H1219 C1228 0.929 . S
C1220 H1214 0.930 . S
C1220 C1221 1.367 . S
C1220 C1228 1.378 . S
C1221 C1220 1.367 . S
C1221 C1229 1.433 . S
C1222 H1218 0.929 . S
C1222 C1224 1.378 . S
C1222 C1226 1.350 . S
C1223 C1226 1.463 . S
C1223 C1228 1.350 . S
C1223 N1231 1.427 . S
C1224 H1215 0.930 . S
C1224 C1222 1.378 . S
C1224 C1225 1.367 . S
C1225 C1224 1.367 . S
C1225 C1227 1.433 . S
C1226 C1222 1.350 . S
C1226 C1223 1.463 . S
C1226 N1230 1.427 . S
C1227 H1217 0.929 . S
C1227 C1225 1.433 . S
C1227 N1230 1.384 . S
C1228 H1219 0.929 . S
C1228 C1220 1.378 . S
C1228 C1223 1.350 . S
C1229 H1216 0.929 . S
C1229 C1221 1.433 . S
C1229 N1231 1.384 . S
N1230 C1226 1.427 . S
N1230 C1227 1.384 . S
N1231 C1223 1.427 . S
N1231 C1229 1.384 . S
C667 C407 1.309 . S
C663 C8 1.277 . S
C685 C444 1.296 . S
C681 C61 1.290 . S
C703 C480 1.312 . S
C699 C107 1.303 . S
C717 C139 1.296 . S
C721 C371 1.324 . S
C735 C192 1.307 . S
C739 C372 1.317 . S
C753 C238 1.285 . S
C757 C408 1.294 . S
C775 C443 1.311 . S
C771 C284 1.281 . S
C793 C479 1.328 . S
C789 C330 1.291 . S
C807 C100 1.286 . S
C811 C551 1.310 . S
C829 C588 1.291 . S
C825 C160 1.297 . S
C843 C15 1.300 . S
C847 C624 1.306 . S
C865 C515 1.327 . S
C861 C54 1.291 . S
C879 C291 1.304 . S
C883 C516 1.309 . S
C897 C337 1.280 . S
C901 C552 1.289 . S
C919 C587 1.311 . S
C915 C199 1.287 . S
C933 C245 1.289 . S
C937 C623 1.325 . S
C955 C442 1.647 . S
C951 C1 1.645 . S
C973 C478 1.631 . S
C969 C68 1.621 . S
C987 C114 1.580 . S
C991 C382 1.455 . S
C1005 C146 1.609 . S
C1009 C418 1.483 . S
C1023 C185 1.603 . S
C1027 C490 1.470 . S
C1045 C370 1.639 . S
C1041 C231 1.639 . S
C1063 C406 1.653 . S
C1059 C277 1.652 . S
C1081 C454 1.475 . S
C1077 C323 1.610 . S
C1099 C586 1.655 . S
C1095 C93 1.656 . S
C1117 C622 1.639 . S
C1113 C153 1.629 . S
C1131 C22 1.591 . S
C1135 C526 1.458 . S
C1153 C562 1.484 . S
C1149 C47 1.617 . S
C1171 C634 1.452 . S
C1167 C298 1.580 . S
C1185 C344 1.621 . S
C1189 C514 1.630 . S
C1207 C550 1.649 . S
C1203 C206 1.643 . S
C1225 C598 1.482 . S
C1221 C252 1.603 . S
