# Generated by pormake.
# Topology apo, (3,6)-cn, num edge types: 1
# Building blocks:
#     Node 0, Type 0, BuildingBlock: VETTIZ_charged_linker_0, # of connection points: 3
#     Node 1, Type 0, BuildingBlock: VETTIZ_charged_linker_0, # of connection points: 3
#     Node 2, Type 0, BuildingBlock: VETTIZ_charged_linker_0, # of connection points: 3
#     Node 3, Type 0, BuildingBlock: VETTIZ_charged_linker_0, # of connection points: 3
#     Node 4, Type 0, BuildingBlock: VETTIZ_charged_linker_0, # of connection points: 3
#     Node 5, Type 0, BuildingBlock: VETTIZ_charged_linker_0, # of connection points: 3
#     Node 6, Type 0, BuildingBlock: VETTIZ_charged_linker_0, # of connection points: 3
#     Node 7, Type 0, BuildingBlock: VETTIZ_charged_linker_0, # of connection points: 3
#     Node 8, Type 1, BuildingBlock: MIDCAF_clean_sbu_0, # of connection points: 6
#     Node 9, Type 1, BuildingBlock: MIDCAF_clean_sbu_0, # of connection points: 6
#     Node 10, Type 1, BuildingBlock: MIDCAF_clean_sbu_0, # of connection points: 6
#     Node 11, Type 1, BuildingBlock: MIDCAF_clean_sbu_0, # of connection points: 6
#     Edge 12, Type (0, 1), BuildingBlock: MIFKUJ_clean_linker_0, # of connection points: 2
#     Edge 13, Type (0, 1), BuildingBlock: MIFKUJ_clean_linker_0, # of connection points: 2
#     Edge 14, Type (0, 1), BuildingBlock: MIFKUJ_clean_linker_0, # of connection points: 2
#     Edge 15, Type (0, 1), BuildingBlock: MIFKUJ_clean_linker_0, # of connection points: 2
#     Edge 16, Type (0, 1), BuildingBlock: MIFKUJ_clean_linker_0, # of connection points: 2
#     Edge 17, Type (0, 1), BuildingBlock: MIFKUJ_clean_linker_0, # of connection points: 2
#     Edge 18, Type (0, 1), BuildingBlock: MIFKUJ_clean_linker_0, # of connection points: 2
#     Edge 19, Type (0, 1), BuildingBlock: MIFKUJ_clean_linker_0, # of connection points: 2
#     Edge 20, Type (0, 1), BuildingBlock: MIFKUJ_clean_linker_0, # of connection points: 2
#     Edge 21, Type (0, 1), BuildingBlock: MIFKUJ_clean_linker_0, # of connection points: 2
#     Edge 22, Type (0, 1), BuildingBlock: MIFKUJ_clean_linker_0, # of connection points: 2
#     Edge 23, Type (0, 1), BuildingBlock: MIFKUJ_clean_linker_0, # of connection points: 2
#     Edge 24, Type (0, 1), BuildingBlock: MIFKUJ_clean_linker_0, # of connection points: 2
#     Edge 25, Type (0, 1), BuildingBlock: MIFKUJ_clean_linker_0, # of connection points: 2
#     Edge 26, Type (0, 1), BuildingBlock: MIFKUJ_clean_linker_0, # of connection points: 2
#     Edge 27, Type (0, 1), BuildingBlock: MIFKUJ_clean_linker_0, # of connection points: 2
#     Edge 28, Type (0, 1), BuildingBlock: MIFKUJ_clean_linker_0, # of connection points: 2
#     Edge 29, Type (0, 1), BuildingBlock: MIFKUJ_clean_linker_0, # of connection points: 2
#     Edge 30, Type (0, 1), BuildingBlock: MIFKUJ_clean_linker_0, # of connection points: 2
#     Edge 31, Type (0, 1), BuildingBlock: MIFKUJ_clean_linker_0, # of connection points: 2
#     Edge 32, Type (0, 1), BuildingBlock: MIFKUJ_clean_linker_0, # of connection points: 2
#     Edge 33, Type (0, 1), BuildingBlock: MIFKUJ_clean_linker_0, # of connection points: 2
#     Edge 34, Type (0, 1), BuildingBlock: MIFKUJ_clean_linker_0, # of connection points: 2
#     Edge 35, Type (0, 1), BuildingBlock: MIFKUJ_clean_linker_0, # of connection points: 2
# Relax obj value: 0.090
# Max RMSD: 0.101
# Mean RMSD: 0.093
data_MOF--net-apo--node1-MIDCAF_clean_sbu_0--node2-VETTIZ_charged_linker_0--edge1-MIFKUJ_clean_linker_0
_symmetry_space_group_name_H-M    P1
_symmetry_Int_Tables_number       1
_symmetry_cell_setting            triclinic
loop_
_symmetry_equiv_pos_as_xyz
'x, y, z'
_cell_length_a     52.493356
_cell_length_b     62.646464
_cell_length_c     56.48826
_cell_angle_alpha  90.062531
_cell_angle_beta   90.014133
_cell_angle_gamma 90.210974
loop_
_atom_site_label
_atom_site_type_symbol
_atom_site_fract_x
_atom_site_fract_y
_atom_site_fract_z
_atom_type_partial_charge
C0 C 0.33175 0.32834 0.48672 0.0
C1 C 0.34576 0.34211 0.50156 0.0
C2 C 0.35799 0.36003 0.49162 0.0
C3 C 0.34295 0.35004 0.45257 0.0
C4 C 0.33034 0.33276 0.46237 0.0
C5 C 0.31525 0.32053 0.4441 0.0
H6 H 0.27752 0.30939 0.32967 0.0
C7 C 0.33814 0.34998 0.42677 0.0
C8 C 0.32172 0.33284 0.42167 0.0
H9 H 0.25271 0.27304 0.39049 0.0
H10 H 0.28128 0.29311 0.41564 0.0
H11 H 0.27698 0.35485 0.3552 0.0
H12 H 0.3372 0.30967 0.34328 0.0
H13 H 0.35076 0.33516 0.34018 0.0
H14 H 0.32576 0.32678 0.3202 0.0
H15 H 0.28991 0.34938 0.32641 0.0
H16 H 0.304 0.36909 0.34563 0.0
C17 C 0.28661 0.32221 0.45054 0.0
C18 C 0.32547 0.29741 0.4432 0.0
C19 C 0.38169 0.40517 0.37454 0.0
C20 C 0.38204 0.40865 0.34991 0.0
C21 C 0.36776 0.39486 0.33519 0.0
C22 C 0.35331 0.37811 0.3448 0.0
C23 C 0.35308 0.37496 0.36943 0.0
C24 C 0.36732 0.38827 0.38382 0.0
C25 C 0.36531 0.38225 0.40953 0.0
C26 C 0.34746 0.36316 0.40821 0.0
C27 C 0.34021 0.35906 0.38471 0.0
C28 C 0.35323 0.4012 0.42313 0.0
C29 C 0.39224 0.37591 0.41823 0.0
C30 C 0.27848 0.30559 0.34835 0.0
C31 C 0.26272 0.28969 0.35811 0.0
C32 C 0.26438 0.28542 0.38259 0.0
C33 C 0.281 0.29708 0.39717 0.0
C34 C 0.29608 0.31335 0.38728 0.0
C35 C 0.29481 0.31726 0.36321 0.0
C36 C 0.31188 0.33541 0.35587 0.0
C37 C 0.32311 0.34207 0.37954 0.0
C38 C 0.31391 0.32903 0.3979 0.0
C39 C 0.29502 0.35316 0.34504 0.0
C40 C 0.33243 0.32649 0.33886 0.0
H41 H 0.36669 0.37782 0.46083 0.0
H42 H 0.32186 0.31462 0.49398 0.0
H43 H 0.34666 0.29739 0.44377 0.0
H44 H 0.32029 0.28895 0.42674 0.0
H45 H 0.31848 0.28798 0.45854 0.0
H46 H 0.28246 0.33745 0.4599 0.0
H47 H 0.28061 0.30894 0.46233 0.0
H48 H 0.27412 0.3225 0.43479 0.0
H49 H 0.3921 0.41556 0.38648 0.0
H50 H 0.36795 0.39687 0.31616 0.0
H51 H 0.34286 0.36825 0.33264 0.0
H52 H 0.33979 0.41019 0.41166 0.0
H53 H 0.36802 0.41261 0.42937 0.0
H54 H 0.34155 0.39599 0.43837 0.0
H55 H 0.4025 0.36669 0.40437 0.0
H56 H 0.3919 0.36535 0.43384 0.0
H57 H 0.40387 0.39027 0.42241 0.0
H58 H 0.36897 0.37078 0.50272 0.0
C59 C 0.35676 0.36402 0.46727 0.0
C60 C 0.23171 0.19443 0.84491 0.0
C61 C 0.24626 0.21166 0.85348 0.0
C62 C 0.24389 0.21753 0.87751 0.0
C63 C 0.21361 0.18876 0.88402 0.0
C64 C 0.21558 0.18333 0.86036 0.0
C65 C 0.19892 0.16465 0.85394 0.0
H66 H 0.11447 0.08858 0.88681 0.0
C67 C 0.19569 0.17356 0.89535 0.0
C68 C 0.18698 0.15947 0.8777 0.0
H69 H 0.14566 0.1004 0.8171 0.0
H70 H 0.16999 0.12995 0.83238 0.0
H71 H 0.16575 0.09264 0.91334 0.0
H72 H 0.10669 0.13881 0.90187 0.0
H73 H 0.11597 0.14021 0.9318 0.0
H74 H 0.10307 0.11565 0.92029 0.0
H75 H 0.13778 0.09334 0.93152 0.0
H76 H 0.16577 0.10897 0.93857 0.0
C77 C 0.21628 0.14637 0.84501 0.0
C78 C 0.17888 0.17236 0.8357 0.0
C79 C 0.1779 0.17751 0.98413 0.0
C80 C 0.16373 0.16432 0.99943 0.0
C81 C 0.15046 0.14667 0.99001 0.0
C82 C 0.15113 0.14218 0.96575 0.0
C83 C 0.16545 0.15534 0.95063 0.0
C84 C 0.17875 0.17255 0.95985 0.0
C85 C 0.19394 0.18404 0.94108 0.0
C86 C 0.18729 0.17102 0.91915 0.0
C87 C 0.17039 0.15437 0.92489 0.0
C88 C 0.22252 0.1823 0.94757 0.0
C89 C 0.18399 0.2072 0.93932 0.0
C90 C 0.12661 0.09745 0.87482 0.0
C91 C 0.1279 0.09211 0.85061 0.0
C92 C 0.14383 0.10433 0.8357 0.0
C93 C 0.15817 0.12143 0.84466 0.0
C94 C 0.15679 0.12644 0.86888 0.0
C95 C 0.1412 0.11452 0.88352 0.0
C96 C 0.14258 0.12186 0.90887 0.0
C97 C 0.16127 0.14037 0.90695 0.0
C98 C 0.1695 0.14295 0.8835 0.0
C99 C 0.15334 0.10331 0.92403 0.0
C100 C 0.11571 0.12945 0.91633 0.0
H101 H 0.22687 0.21134 0.91091 0.0
H102 H 0.23276 0.18971 0.82648 0.0
H103 H 0.17345 0.18925 0.83907 0.0
H104 H 0.16076 0.16339 0.83672 0.0
H105 H 0.18641 0.17141 0.81736 0.0
H106 H 0.23446 0.14598 0.85514 0.0
H107 H 0.22113 0.14848 0.82602 0.0
H108 H 0.20782 0.13037 0.84755 0.0
H109 H 0.18842 0.19108 0.99097 0.0
H110 H 0.13925 0.13645 1.00149 0.0
H111 H 0.14048 0.12859 0.95974 0.0
H112 H 0.22679 0.16641 0.95539 0.0
H113 H 0.22804 0.19465 0.96075 0.0
H114 H 0.23521 0.18356 0.93207 0.0
H115 H 0.1629 0.2076 0.94123 0.0
H116 H 0.18791 0.21462 0.92198 0.0
H117 H 0.19227 0.21739 0.9535 0.0
H118 H 0.25502 0.23065 0.88462 0.0
C119 C 0.22768 0.20619 0.8928 0.0
C120 C 0.83359 0.17831 0.52838 0.0
C121 C 0.8487 0.16501 0.5141 0.0
C122 C 0.86117 0.14748 0.52438 0.0
C123 C 0.84381 0.15664 0.56278 0.0
C124 C 0.83113 0.17364 0.55261 0.0
C125 C 0.81471 0.18523 0.57033 0.0
H126 H 0.76942 0.19257 0.68272 0.0
C127 C 0.83728 0.15601 0.58821 0.0
C128 C 0.81995 0.17254 0.59276 0.0
H129 H 0.7507 0.23249 0.62281 0.0
H130 H 0.7796 0.21244 0.59817 0.0
H131 H 0.76891 0.14876 0.65558 0.0
H132 H 0.83015 0.19205 0.67232 0.0
H133 H 0.84154 0.16609 0.67704 0.0
H134 H 0.81498 0.17565 0.69424 0.0
H135 H 0.7817 0.15119 0.68493 0.0
H136 H 0.79519 0.13306 0.66353 0.0
C137 C 0.7866 0.18317 0.56228 0.0
C138 C 0.82447 0.2085 0.57233 0.0
C139 C 0.87923 0.10104 0.64155 0.0
C140 C 0.87623 0.0959 0.6656 0.0
C141 C 0.85886 0.10763 0.67941 0.0
C142 C 0.84477 0.12433 0.66945 0.0
C143 C 0.84788 0.12926 0.64534 0.0
C144 C 0.86477 0.1176 0.63179 0.0
C145 C 0.86471 0.1244 0.60626 0.0
C146 C 0.84549 0.14247 0.60685 0.0
C147 C 0.83579 0.14528 0.62978 0.0
C148 C 0.85531 0.10531 0.59098 0.0
C149 C 0.89179 0.13249 0.6 0.0
C150 C 0.77169 0.19718 0.66437 0.0
C151 C 0.75757 0.21413 0.65476 0.0
C152 C 0.76098 0.21931 0.63064 0.0
C153 C 0.77788 0.2077 0.61634 0.0
C154 C 0.7916 0.19065 0.62619 0.0
C155 C 0.78849 0.18577 0.64988 0.0
C156 C 0.80473 0.16729 0.65746 0.0
C157 C 0.81788 0.16169 0.63437 0.0
C158 C 0.81011 0.17537 0.61604 0.0
C159 C 0.7869 0.14909 0.66602 0.0
C160 C 0.82381 0.17548 0.67637 0.0
H161 H 0.86911 0.12981 0.55538 0.0
H162 H 0.82362 0.19177 0.52078 0.0
H163 H 0.84565 0.20902 0.57183 0.0
H164 H 0.81918 0.21619 0.5892 0.0
H165 H 0.81731 0.21838 0.55744 0.0
H166 H 0.78294 0.16724 0.55419 0.0
H167 H 0.78182 0.19547 0.54886 0.0
H168 H 0.77295 0.18424 0.57708 0.0
H169 H 0.89205 0.09198 0.63041 0.0
H170 H 0.85627 0.1039 0.69798 0.0
H171 H 0.83187 0.13265 0.6809 0.0
H172 H 0.8432 0.09416 0.60142 0.0
H173 H 0.87156 0.09598 0.58387 0.0
H174 H 0.84298 0.11039 0.57614 0.0
H175 H 0.89947 0.14272 0.61446 0.0
H176 H 0.89228 0.14252 0.58397 0.0
H177 H 0.90509 0.11891 0.59753 0.0
H178 H 0.87296 0.13714 0.51362 0.0
C179 C 0.85894 0.1433 0.54862 0.0
C180 C 0.73316 0.30391 0.16493 0.0
C181 C 0.74649 0.28635 0.15562 0.0
C182 C 0.7413 0.27982 0.13217 0.0
C183 C 0.71028 0.30814 0.12781 0.0
C184 C 0.71522 0.31445 0.15082 0.0
C185 C 0.69942 0.33332 0.15811 0.0
H186 H 0.60947 0.40657 0.13132 0.0
C187 C 0.69051 0.32242 0.11804 0.0
C188 C 0.68397 0.33713 0.1358 0.0
H189 H 0.65244 0.40037 0.19622 0.0
H190 H 0.6744 0.36978 0.18031 0.0
H191 H 0.65705 0.39842 0.09681 0.0
H192 H 0.59848 0.35676 0.12364 0.0
H193 H 0.6042 0.34895 0.09427 0.0
H194 H 0.59251 0.37549 0.10031 0.0
H195 H 0.62445 0.39992 0.08739 0.0
H196 H 0.64675 0.38221 0.07326 0.0
C197 C 0.7177 0.3522 0.16359 0.0
C198 C 0.68237 0.32644 0.17917 0.0
C199 C 0.66022 0.31333 0.03285 0.0
C200 C 0.6411 0.32347 0.01958 0.0
C201 C 0.62667 0.33979 0.03021 0.0
C202 C 0.63126 0.34607 0.05363 0.0
C203 C 0.65042 0.33586 0.06672 0.0
C204 C 0.66434 0.31961 0.05642 0.0
C205 C 0.68299 0.30988 0.07354 0.0
C206 C 0.67837 0.32333 0.09555 0.0
C207 C 0.65941 0.33863 0.09135 0.0
C208 C 0.71017 0.3132 0.06356 0.0
C209 C 0.67545 0.28618 0.07738 0.0
C210 C 0.62338 0.39843 0.14219 0.0
C211 C 0.62918 0.40584 0.16508 0.0
C212 C 0.64777 0.39505 0.17848 0.0
C213 C 0.66045 0.37725 0.16922 0.0
C214 C 0.65466 0.37018 0.1462 0.0
C215 C 0.63641 0.38074 0.13309 0.0
C216 C 0.63331 0.37137 0.10871 0.0
C217 C 0.6527 0.35344 0.10936 0.0
C218 C 0.66504 0.35276 0.1314 0.0
C219 C 0.64056 0.3888 0.09043 0.0
C220 C 0.60569 0.36278 0.10636 0.0
H221 H 0.72034 0.28486 0.10057 0.0
H222 H 0.73686 0.30959 0.18272 0.0
H223 H 0.67536 0.3098 0.17671 0.0
H224 H 0.665 0.33618 0.18094 0.0
H225 H 0.69312 0.32702 0.19611 0.0
H226 H 0.73495 0.35159 0.15217 0.0
H227 H 0.72417 0.35184 0.1823 0.0
H228 H 0.70915 0.36792 0.15981 0.0
H229 H 0.67133 0.30052 0.0252 0.0
H230 H 0.61194 0.34787 0.02026 0.0
H231 H 0.61967 0.35865 0.06062 0.0
H232 H 0.71231 0.32955 0.05613 0.0
H233 H 0.71422 0.30163 0.04914 0.0
H234 H 0.72515 0.31184 0.07717 0.0
H235 H 0.65452 0.28384 0.07554 0.0
H236 H 0.67986 0.28046 0.09542 0.0
H237 H 0.68489 0.27564 0.06424 0.0
H238 H 0.75095 0.26617 0.1246 0.0
C239 C 0.72336 0.29061 0.11825 0.0
C240 C 0.63439 0.60215 0.64823 0.0
C241 C 0.61579 0.58937 0.63702 0.0
C242 C 0.60733 0.59523 0.61422 0.0
C243 C 0.63686 0.62499 0.61356 0.0
C244 C 0.64449 0.61989 0.63625 0.0
C245 C 0.66413 0.63535 0.64558 0.0
H246 H 0.74313 0.71935 0.62645 0.0
C247 C 0.65169 0.64377 0.60569 0.0
C248 C 0.66753 0.6501 0.62442 0.0
H249 H 0.73157 0.6839 0.6912 0.0
H250 H 0.69953 0.66223 0.6721 0.0
H251 H 0.73984 0.67843 0.59026 0.0
H252 H 0.6828 0.72322 0.61378 0.0
H253 H 0.67896 0.71902 0.5832 0.0
H254 H 0.70807 0.73085 0.59407 0.0
H255 H 0.74045 0.70609 0.5819 0.0
H256 H 0.7218 0.6868 0.5657 0.0
C257 C 0.68872 0.62271 0.65106 0.0
C258 C 0.65263 0.64714 0.66723 0.0
C259 C 0.641 0.67014 0.52156 0.0
C260 C 0.65209 0.68674 0.50834 0.0
C261 C 0.67097 0.69957 0.51915 0.0
C262 C 0.67829 0.69607 0.54281 0.0
C263 C 0.66668 0.67952 0.55583 0.0
C264 C 0.64841 0.66691 0.54504 0.0
C265 C 0.63794 0.65005 0.56122 0.0
C266 C 0.6528 0.6546 0.58367 0.0
C267 C 0.66969 0.67183 0.58052 0.0
C268 C 0.64465 0.62797 0.55053 0.0
C269 C 0.60899 0.65408 0.56449 0.0
C270 C 0.73371 0.70685 0.63642 0.0
C271 C 0.73989 0.70326 0.66035 0.0
C272 C 0.72697 0.68707 0.67285 0.0
C273 C 0.70846 0.67443 0.66168 0.0
C274 C 0.70262 0.67805 0.63774 0.0
C275 C 0.7149 0.69421 0.62557 0.0
C276 C 0.70542 0.69618 0.60047 0.0
C277 C 0.68559 0.67845 0.5996 0.0
C278 C 0.68429 0.66776 0.62145 0.0
C279 C 0.72797 0.6918 0.58353 0.0
C280 C 0.69328 0.7185 0.59748 0.0
H281 H 0.61065 0.61618 0.58508 0.0
H282 H 0.64136 0.59826 0.66573 0.0
H283 H 0.63146 0.64766 0.6663 0.0
H284 H 0.65852 0.6641 0.66811 0.0
H285 H 0.65781 0.63912 0.68408 0.0
H286 H 0.69284 0.61115 0.63661 0.0
H287 H 0.68673 0.61354 0.66779 0.0
H288 H 0.70581 0.63294 0.65237 0.0
H289 H 0.62685 0.65964 0.51378 0.0
H290 H 0.67978 0.71254 0.50944 0.0
H291 H 0.69263 0.70642 0.5501 0.0
H292 H 0.66407 0.62822 0.54261 0.0
H293 H 0.63101 0.62346 0.53633 0.0
H294 H 0.64522 0.61507 0.56378 0.0
H295 H 0.60435 0.67132 0.56259 0.0
H296 H 0.60216 0.64986 0.58241 0.0
H297 H 0.59761 0.6452 0.55112 0.0
H298 H 0.59247 0.58622 0.60537 0.0
C299 C 0.61779 0.61283 0.60246 0.0
C300 C 0.77215 0.80991 0.16278 0.0
C301 C 0.75548 0.79492 0.15253 0.0
C302 C 0.75828 0.78977 0.12836 0.0
C303 C 0.79341 0.81482 0.12492 0.0
C304 C 0.79073 0.81977 0.14866 0.0
C305 C 0.80888 0.83705 0.15641 0.0
H306 H 0.89671 0.91185 0.12713 0.0
C307 C 0.81379 0.82854 0.11504 0.0
C308 C 0.82281 0.84172 0.13342 0.0
H309 H 0.86487 0.89924 0.19623 0.0
H310 H 0.84096 0.86934 0.18031 0.0
H311 H 0.90783 0.86326 0.11519 0.0
H312 H 0.84594 0.90487 0.09716 0.0
H313 H 0.85353 0.89021 0.07159 0.0
H314 H 0.87726 0.90741 0.0847 0.0
H315 H 0.91043 0.88259 0.09192 0.0
H316 H 0.89847 0.85596 0.0865 0.0
C317 C 0.8269 0.82767 0.17543 0.0
C318 C 0.79297 0.85638 0.16492 0.0
C319 C 0.83979 0.82167 0.02826 0.0
C320 C 0.85792 0.83258 0.01434 0.0
C321 C 0.87184 0.84951 0.02469 0.0
C322 C 0.86832 0.85514 0.04842 0.0
C323 C 0.85055 0.84389 0.06219 0.0
C324 C 0.83648 0.82756 0.05209 0.0
C325 C 0.81816 0.81772 0.06955 0.0
C326 C 0.82419 0.83043 0.09186 0.0
C327 C 0.84312 0.84577 0.08734 0.0
C328 C 0.825 0.79385 0.07237 0.0
C329 C 0.79068 0.82178 0.06062 0.0
C330 C 0.88451 0.90266 0.13879 0.0
C331 C 0.88234 0.90801 0.16286 0.0
C332 C 0.86678 0.89538 0.17762 0.0
C333 C 0.85282 0.87814 0.16829 0.0
C334 C 0.85456 0.87341 0.14397 0.0
C335 C 0.87066 0.88532 0.12981 0.0
C336 C 0.87103 0.87753 0.10464 0.0
C337 C 0.85189 0.85935 0.1058 0.0
C338 C 0.84209 0.85713 0.1288 0.0
C339 C 0.89831 0.86952 0.09903 0.0
C340 C 0.86164 0.8959 0.0885 0.0
H341 H 0.77834 0.79495 0.09629 0.0
H342 H 0.77024 0.81438 0.18122 0.0
H343 H 0.77608 0.85873 0.15332 0.0
H344 H 0.80349 0.87162 0.16418 0.0
H345 H 0.78596 0.85389 0.18327 0.0
H346 H 0.83098 0.81056 0.17181 0.0
H347 H 0.81828 0.82871 0.19335 0.0
H348 H 0.84579 0.83551 0.17567 0.0
H349 H 0.82873 0.80862 0.02092 0.0
H350 H 0.88542 0.8586 0.01434 0.0
H351 H 0.87959 0.86812 0.0551 0.0
H352 H 0.84601 0.79179 0.07337 0.0
H353 H 0.81796 0.78436 0.05706 0.0
H354 H 0.81744 0.78676 0.08882 0.0
H355 H 0.78951 0.83699 0.05053 0.0
H356 H 0.77685 0.8237 0.07521 0.0
H357 H 0.78412 0.80875 0.04872 0.0
H358 H 0.74576 0.77814 0.12014 0.0
C359 C 0.77721 0.79954 0.11456 0.0
C360 C 0.13256 0.89487 0.35012 0.0
C361 C 0.11267 0.90654 0.36056 0.0
C362 C 0.10506 0.90154 0.38383 0.0
C363 C 0.1376 0.87422 0.3862 0.0
C364 C 0.14454 0.87872 0.36313 0.0
C365 C 0.16563 0.8645 0.35453 0.0
H366 H 0.24746 0.78329 0.37485 0.0
C367 C 0.15421 0.85687 0.39491 0.0
C368 C 0.17045 0.85092 0.37634 0.0
H369 H 0.23774 0.82033 0.31084 0.0
H370 H 0.20525 0.84117 0.3297 0.0
H371 H 0.24509 0.82493 0.41018 0.0
H372 H 0.18814 0.77907 0.38849 0.0
H373 H 0.18491 0.7835 0.41911 0.0
H374 H 0.214 0.77216 0.40781 0.0
H375 H 0.24556 0.79768 0.41998 0.0
H376 H 0.22712 0.81767 0.43518 0.0
C377 C 0.1889 0.87876 0.34838 0.0
C378 C 0.15524 0.85106 0.33355 0.0
C379 C 0.14822 0.83359 0.48079 0.0
C380 C 0.16102 0.81816 0.49433 0.0
C381 C 0.17917 0.80503 0.48313 0.0
C382 C 0.18489 0.80761 0.45897 0.0
C383 C 0.17222 0.82341 0.4458 0.0
C384 C 0.15402 0.8359 0.45674 0.0
C385 C 0.14191 0.85149 0.44001 0.0
C386 C 0.15629 0.84677 0.41732 0.0
C387 C 0.17411 0.83035 0.42076 0.0
C388 C 0.14743 0.87433 0.44927 0.0
C389 C 0.11318 0.8459 0.43786 0.0
C390 C 0.2385 0.796 0.36493 0.0
C391 C 0.24512 0.79989 0.34111 0.0
C392 C 0.23272 0.81655 0.32895 0.0
C393 C 0.2139 0.8288 0.34002 0.0
C394 C 0.2073 0.82455 0.36364 0.0
C395 C 0.21968 0.80851 0.3758 0.0
C396 C 0.21047 0.80669 0.40102 0.0
C397 C 0.19021 0.82398 0.40176 0.0
C398 C 0.18846 0.83433 0.37976 0.0
C399 C 0.23315 0.81185 0.41762 0.0
C400 C 0.19888 0.78416 0.40452 0.0
H401 H 0.111 0.8827 0.41446 0.0
H402 H 0.13861 0.8982 0.33216 0.0
H403 H 0.13472 0.84718 0.33608 0.0
H404 H 0.16463 0.83539 0.33184 0.0
H405 H 0.15708 0.85986 0.31657 0.0
H406 H 0.19045 0.89243 0.3609 0.0
H407 H 0.18723 0.88541 0.33023 0.0
H408 H 0.20724 0.8703 0.35 0.0
H409 H 0.13375 0.8436 0.48872 0.0
H410 H 0.18928 0.79302 0.49316 0.0
H411 H 0.19901 0.79725 0.45151 0.0
H412 H 0.16747 0.8757 0.45553 0.0
H413 H 0.13477 0.87835 0.46438 0.0
H414 H 0.14536 0.88672 0.43557 0.0
H415 H 0.10966 0.82861 0.44106 0.0
H416 H 0.1056 0.84877 0.41987 0.0
H417 H 0.10167 0.85497 0.45091 0.0
H418 H 0.08992 0.91044 0.39229 0.0
C419 C 0.11744 0.88551 0.39671 0.0
C420 C 0.27065 0.69313 0.83728 0.0
C421 C 0.25402 0.70762 0.84823 0.0
C422 C 0.25597 0.71096 0.87286 0.0
C423 C 0.29046 0.68537 0.8752 0.0
C424 C 0.28851 0.68216 0.85104 0.0
C425 C 0.3067 0.6655 0.84223 0.0
H426 H 0.39745 0.59214 0.86526 0.0
C427 C 0.31065 0.6711 0.8843 0.0
C428 C 0.32016 0.6594 0.86499 0.0
H429 H 0.36221 0.60675 0.79802 0.0
H430 H 0.33716 0.6343 0.81654 0.0
H431 H 0.40567 0.64044 0.88151 0.0
H432 H 0.34639 0.59476 0.89605 0.0
H433 H 0.35376 0.60777 0.92279 0.0
H434 H 0.37803 0.59262 0.90785 0.0
H435 H 0.40975 0.61946 0.90274 0.0
H436 H 0.39621 0.6449 0.91089 0.0
C437 C 0.3251 0.67622 0.82436 0.0
C438 C 0.29088 0.6467 0.83191 0.0
C439 C 0.33313 0.67052 0.97221 0.0
C440 C 0.35117 0.65897 0.98549 0.0
C441 C 0.36736 0.64461 0.97352 0.0
C442 C 0.36536 0.64145 0.94906 0.0
C443 C 0.34704 0.65279 0.93614 0.0
C444 C 0.33145 0.66721 0.94764 0.0
C445 C 0.31341 0.67807 0.93077 0.0
C446 C 0.32076 0.66774 0.90737 0.0
C447 C 0.34036 0.65284 0.91072 0.0
C448 C 0.3194 0.70229 0.93103 0.0
C449 C 0.28582 0.67232 0.93816 0.0
C450 C 0.38459 0.60147 0.85446 0.0
C451 C 0.38181 0.59723 0.83012 0.0
C452 C 0.36452 0.60953 0.81683 0.0
C453 C 0.35003 0.62558 0.82763 0.0
C454 C 0.35269 0.62936 0.85205 0.0
C455 C 0.36987 0.61749 0.865 0.0
C456 C 0.36997 0.62356 0.89079 0.0
C457 C 0.34979 0.64088 0.89122 0.0
C458 C 0.33976 0.64419 0.8685 0.0
C459 C 0.39676 0.63243 0.89704 0.0
C460 C 0.3618 0.60371 0.90532 0.0
H461 H 0.27464 0.70321 0.90503 0.0
H462 H 0.26933 0.68992 0.81847 0.0
H463 H 0.27249 0.64479 0.84148 0.0
H464 H 0.30039 0.6311 0.83389 0.0
H465 H 0.2864 0.64934 0.81292 0.0
H466 H 0.33011 0.69269 0.83018 0.0
H467 H 0.31627 0.67738 0.80654 0.0
H468 H 0.34351 0.66788 0.82281 0.0
H469 H 0.32034 0.68165 0.98075 0.0
H470 H 0.38187 0.63589 0.98306 0.0
H471 H 0.37821 0.63024 0.94117 0.0
H472 H 0.3403 0.70514 0.93224 0.0
H473 H 0.31034 0.71022 0.94646 0.0
H474 H 0.31341 0.71048 0.91467 0.0
H475 H 0.28467 0.65557 0.94459 0.0
H476 H 0.27219 0.67308 0.9233 0.0
H477 H 0.27908 0.68288 0.95266 0.0
H478 H 0.24344 0.72214 0.88168 0.0
C479 C 0.27414 0.7 0.88638 0.0
Zn480 Zn 0.02695 0.14998 0.29743 0.0
Zn481 Zn 0.98618 0.1559 0.21269 0.0
Zn482 Zn 0.00579 0.14971 0.25502 0.0
C483 C 0.03528 0.16997 0.2087 0.0
C484 C 0.98576 0.11134 0.22307 0.0
O485 O 0.97853 0.16394 0.28094 0.0
O486 O 0.99792 0.16135 0.31564 0.0
C487 C 0.05852 0.1744 0.26981 0.0
O488 O 0.03451 0.16467 0.23078 0.0
O489 O 0.01582 0.16783 0.19583 0.0
O490 O 0.97779 0.12508 0.20849 0.0
O491 O 0.99808 0.11726 0.24172 0.0
O492 O 0.05543 0.16969 0.2913 0.0
O493 O 0.04276 0.16757 0.25398 0.0
O494 O 0.01125 0.11558 0.2639 0.0
O495 O 0.03349 0.11872 0.2971 0.0
C496 C 0.02373 0.10714 0.28115 0.0
O497 O 0.96949 0.16819 0.25823 0.0
O498 O 0.95868 0.17558 0.22124 0.0
C499 C 0.9787 0.16661 0.3036 0.0
C500 C 0.95474 0.17743 0.24315 0.0
Zn501 Zn 0.52114 0.34421 0.713 0.0
Zn502 Zn 0.48083 0.35877 0.79636 0.0
Zn503 Zn 0.50221 0.35212 0.75565 0.0
C504 C 0.49191 0.39886 0.77924 0.0
C505 C 0.44496 0.33686 0.77052 0.0
O506 O 0.53792 0.33333 0.76044 0.0
O507 O 0.55027 0.32697 0.72358 0.0
C508 C 0.52233 0.38875 0.72037 0.0
O509 O 0.49905 0.38734 0.7615 0.0
O510 O 0.48426 0.39005 0.79801 0.0
O511 O 0.44668 0.34684 0.78987 0.0
O512 O 0.46384 0.33683 0.7559 0.0
O513 O 0.52735 0.37477 0.70492 0.0
O514 O 0.51257 0.38327 0.7404 0.0
O515 O 0.47306 0.33627 0.73251 0.0
O516 O 0.4919 0.32946 0.69833 0.0
C517 C 0.47229 0.32882 0.7112 0.0
O518 O 0.52676 0.3365 0.78281 0.0
O519 O 0.50422 0.34124 0.81543 0.0
C520 C 0.55361 0.32494 0.74556 0.0
C521 C 0.52359 0.3337 0.80524 0.0
Zn522 Zn 0.01613 0.85211 0.78927 0.0
Zn523 Zn 0.98377 0.85432 0.71006 0.0
Zn524 Zn 0.99948 0.85224 0.7501 0.0
C525 C 0.97736 0.89427 0.72594 0.0
C526 C 0.95388 0.824 0.73122 0.0
O527 O 0.03439 0.83195 0.75016 0.0
O528 O 0.03469 0.82473 0.78831 0.0
C529 C 0.02591 0.89215 0.77548 0.0
O530 O 0.99345 0.88636 0.74074 0.0
O531 O 0.96616 0.88224 0.71134 0.0
O532 O 0.96256 0.82816 0.7109 0.0
O533 O 0.96315 0.83372 0.74944 0.0
O534 O 0.03653 0.87879 0.78889 0.0
O535 O 0.0086 0.88579 0.76083 0.0
O536 O 0.9687 0.83871 0.77296 0.0
O537 O 0.98311 0.85294 0.80609 0.0
C538 C 0.96547 0.84363 0.79493 0.0
O539 O 0.02861 0.83719 0.7268 0.0
O540 O 0.01707 0.85286 0.69353 0.0
C541 C 0.04311 0.82114 0.76778 0.0
C542 C 0.03296 0.84187 0.70495 0.0
Zn543 Zn 0.51777 0.64926 0.2097 0.0
Zn544 Zn 0.48197 0.64652 0.29225 0.0
Zn545 Zn 0.49942 0.64904 0.24897 0.0
C546 C 0.52593 0.67158 0.29442 0.0
C547 C 0.49104 0.60489 0.27913 0.0
O548 O 0.46881 0.6606 0.225 0.0
O549 O 0.48506 0.64656 0.19255 0.0
C550 C 0.54244 0.6815 0.23082 0.0
O551 O 0.52643 0.66694 0.27216 0.0
O552 O 0.5077 0.66534 0.30725 0.0
O553 O 0.48486 0.61526 0.29739 0.0
O554 O 0.49665 0.61477 0.25979 0.0
O555 O 0.53477 0.67742 0.21015 0.0
O556 O 0.53356 0.67066 0.24842 0.0
O557 O 0.5103 0.61619 0.23845 0.0
O558 O 0.53951 0.6234 0.21149 0.0
C559 C 0.52841 0.61005 0.22465 0.0
O560 O 0.46101 0.6643 0.24873 0.0
O561 O 0.44793 0.65864 0.28545 0.0
C562 C 0.46654 0.6551 0.20311 0.0
C563 C 0.44392 0.66611 0.26504 0.0
H564 H 0.13649 0.93913 0.33758 0.0
H565 H 0.11695 0.9706 0.3195 0.0
H566 H 0.04231 0.94612 0.33645 0.0
H567 H 0.0618 0.91464 0.35495 0.0
H568 H 0.05218 0.96682 0.28635 0.0
H569 H 0.05693 0.97845 0.37145 0.0
H570 H 0.07944 0.97838 0.40977 0.0
H571 H 0.13516 0.02211 0.38219 0.0
H572 H 0.11319 0.02214 0.34355 0.0
H573 H 0.99034 0.07332 0.28481 0.0
H574 H 0.00178 0.0357 0.2922 0.0
H575 H 0.08142 0.05245 0.28823 0.0
H576 H 0.07014 0.0896 0.2805 0.0
H577 H 0.06469 0.03386 0.33179 0.0
H578 H 0.0633 0.02331 0.24826 0.0
H579 H 0.04734 0.02122 0.20729 0.0
H580 H 0.99065 0.97559 0.22861 0.0
H581 H 0.00617 0.97752 0.26981 0.0
C582 C 0.11591 0.94028 0.3371 0.0
C583 C 0.10064 0.92451 0.34773 0.0
C584 C 0.1048 0.95824 0.32679 0.0
C585 C 0.07823 0.9606 0.32664 0.0
C586 C 0.06285 0.94447 0.33631 0.0
C587 C 0.07398 0.92664 0.347 0.0
C588 C 0.06691 0.98085 0.31834 0.0
C589 C 0.05434 0.98147 0.29642 0.0
C590 C 0.07051 0.99992 0.33127 0.0
C591 C 0.08356 0.00013 0.35456 0.0
C592 C 0.07411 0.98789 0.3735 0.0
C593 C 0.08675 0.98789 0.39528 0.0
C594 C 0.10875 0.0002 0.3984 0.0
C595 C 0.11813 0.01257 0.37974 0.0
C596 C 0.10558 0.0126 0.35791 0.0
C597 C 0.01022 0.06872 0.28489 0.0
C598 C 0.02944 0.08416 0.28188 0.0
C599 C 0.01672 0.04732 0.28904 0.0
C600 C 0.04245 0.04134 0.29066 0.0
C601 C 0.06149 0.05672 0.28688 0.0
C602 C 0.05504 0.0779 0.28253 0.0
C603 C 0.04992 0.02005 0.29961 0.0
C604 C 0.06191 0.01923 0.32179 0.0
C605 C 0.04609 0.00095 0.28666 0.0
C606 C 0.03556 0.0009 0.26227 0.0
C607 C 0.04711 0.01314 0.24434 0.0
C608 C 0.03832 0.01181 0.22101 0.0
C609 C 0.01798 0.99829 0.21536 0.0
C610 C 0.00637 0.98609 0.23303 0.0
C611 C 0.01518 0.98728 0.25637 0.0
H612 H 0.01126 0.99724 0.19728 0.0
H613 H 0.11851 0.00018 0.41528 0.0
H614 H 0.36407 0.56758 0.79849 0.0
H615 H 0.38672 0.53668 0.78256 0.0
H616 H 0.45427 0.55546 0.82088 0.0
H617 H 0.43191 0.58667 0.83647 0.0
H618 H 0.46551 0.53981 0.77611 0.0
H619 H 0.41498 0.51977 0.84447 0.0
H620 H 0.37513 0.5166 0.86735 0.0
H621 H 0.34181 0.47893 0.81175 0.0
H622 H 0.38138 0.48215 0.7884 0.0
H623 H 0.50077 0.42705 0.8145 0.0
H624 H 0.48744 0.46431 0.81595 0.0
H625 H 0.46451 0.46102 0.74283 0.0
H626 H 0.47761 0.42336 0.74126 0.0
H627 H 0.43055 0.46948 0.80026 0.0
H628 H 0.48003 0.5254 0.73338 0.0
H629 H 0.52154 0.53227 0.7144 0.0
H630 H 0.55946 0.49839 0.77012 0.0
H631 H 0.51832 0.49188 0.78984 0.0
C632 C 0.3839 0.56539 0.80314 0.0
C633 C 0.39615 0.57949 0.81889 0.0
C634 C 0.39677 0.54766 0.79411 0.0
C635 C 0.4221 0.54369 0.8007 0.0
C636 C 0.43473 0.55824 0.81556 0.0
C637 C 0.42185 0.57593 0.82465 0.0
C638 C 0.43479 0.52351 0.7938 0.0
C639 C 0.45779 0.52438 0.78114 0.0
C640 C 0.42472 0.50344 0.80051 0.0
C641 C 0.40101 0.50141 0.81459 0.0
C642 C 0.39908 0.51096 0.83706 0.0
C643 C 0.37656 0.50913 0.85012 0.0
C644 C 0.35592 0.49763 0.84098 0.0
C645 C 0.35779 0.48787 0.81879 0.0
C646 C 0.38025 0.48969 0.80564 0.0
C647 C 0.49366 0.43443 0.79848 0.0
C648 C 0.49021 0.42234 0.77777 0.0
C649 C 0.48613 0.45572 0.79933 0.0
C650 C 0.47518 0.46539 0.77945 0.0
C651 C 0.47336 0.45388 0.75818 0.0
C652 C 0.48085 0.43242 0.75732 0.0
C653 C 0.46141 0.48572 0.78266 0.0
C654 C 0.43804 0.48484 0.79466 0.0
C655 C 0.47131 0.50569 0.77548 0.0
C656 C 0.49597 0.50784 0.7629 0.0
C657 C 0.4972 0.51929 0.74152 0.0
C658 C 0.52069 0.52325 0.73071 0.0
C659 C 0.54309 0.51584 0.74113 0.0
C660 C 0.54205 0.50409 0.7621 0.0
C661 C 0.51862 0.50019 0.77306 0.0
H662 H 0.56126 0.51942 0.73308 0.0
H663 H 0.33851 0.49622 0.85112 0.0
H664 H 0.60549 0.58263 0.68436 0.0
H665 H 0.58811 0.55025 0.70272 0.0
H666 H 0.58445 0.51983 0.63434 0.0
H667 H 0.60287 0.55146 0.61599 0.0
H668 H 0.53798 0.51797 0.66303 0.0
H669 H 0.62955 0.50623 0.66742 0.0
H670 H 0.6732 0.5157 0.67977 0.0
H671 H 0.65009 0.51471 0.75267 0.0
H672 H 0.6062 0.50552 0.74073 0.0
H673 H 0.52242 0.40786 0.67737 0.0
H674 H 0.53574 0.44414 0.66776 0.0
H675 H 0.54942 0.45691 0.74179 0.0
H676 H 0.53724 0.42005 0.75136 0.0
H677 H 0.58817 0.47072 0.71568 0.0
H678 H 0.49843 0.47893 0.71306 0.0
H679 H 0.45397 0.47057 0.70219 0.0
H680 H 0.47191 0.47936 0.62873 0.0
H681 H 0.51648 0.48769 0.63907 0.0
C682 C 0.60135 0.56897 0.67324 0.0
C683 C 0.60545 0.5698 0.6486 0.0
C684 C 0.59126 0.55055 0.68377 0.0
C685 C 0.58492 0.53277 0.66982 0.0
C686 C 0.589 0.53351 0.64534 0.0
C687 C 0.59939 0.55171 0.63488 0.0
C688 C 0.57395 0.51326 0.68047 0.0
C689 C 0.54894 0.50754 0.67444 0.0
C690 C 0.58806 0.50014 0.69599 0.0
C691 C 0.61449 0.50552 0.70315 0.0
C692 C 0.6337 0.50827 0.68606 0.0
C693 C 0.65851 0.51352 0.693 0.0
C694 C 0.66439 0.5159 0.71699 0.0
C695 C 0.64549 0.51293 0.7341 0.0
C696 C 0.62064 0.50769 0.72725 0.0
C697 C 0.5281 0.41844 0.69162 0.0
C698 C 0.52838 0.41127 0.71516 0.0
C699 C 0.53552 0.43923 0.68614 0.0
C700 C 0.54318 0.45338 0.7041 0.0
C701 C 0.54339 0.44631 0.72769 0.0
C702 C 0.53614 0.42537 0.73316 0.0
C703 C 0.55227 0.47508 0.69779 0.0
C704 C 0.57699 0.48122 0.70453 0.0
C705 C 0.53776 0.48875 0.68314 0.0
C706 C 0.51087 0.48388 0.67686 0.0
C707 C 0.49294 0.47902 0.69458 0.0
C708 C 0.46771 0.47429 0.68852 0.0
C709 C 0.46016 0.47438 0.66481 0.0
C710 C 0.47779 0.4793 0.6471 0.0
C711 C 0.50302 0.48409 0.65305 0.0
H712 H 0.44064 0.47066 0.66016 0.0
H713 H 0.68361 0.51996 0.72232 0.0
H714 H 0.88118 0.94788 0.1444 0.0
H715 H 0.90363 0.97965 0.15825 0.0
H716 H 0.93611 0.94351 0.21577 0.0
H717 H 0.91272 0.91162 0.20227 0.0
H718 H 0.92428 0.9818 0.23115 0.0
H719 H 0.97251 0.95649 0.16684 0.0
H720 H 0.98115 0.94216 0.12698 0.0
H721 H 0.95213 0.99957 0.09568 0.0
H722 H 0.94294 0.01412 0.13534 0.0
H723 H 0.0109 0.07555 0.23824 0.0
H724 H 0.99715 0.03821 0.2337 0.0
H725 H 0.93508 0.05875 0.1894 0.0
H726 H 0.94678 0.09592 0.1964 0.0
H727 H 0.97091 0.02449 0.17109 0.0
H728 H 0.92188 0.04766 0.24027 0.0
H729 H 0.9197 0.06069 0.28137 0.0
H730 H 0.95781 0.00424 0.30555 0.0
H731 H 0.96047 0.991 0.26454 0.0
C732 C 0.89313 0.9467 0.15998 0.0
C733 C 0.89549 0.92727 0.1721 0.0
C734 C 0.90604 0.96484 0.16786 0.0
C735 C 0.92214 0.96388 0.18771 0.0
C736 C 0.92397 0.94461 0.20031 0.0
C737 C 0.91065 0.92644 0.19261 0.0
C738 C 0.93696 0.98313 0.19485 0.0
C739 C 0.93487 0.99093 0.21812 0.0
C740 C 0.95126 0.99491 0.17804 0.0
C741 C 0.9569 0.98634 0.15409 0.0
C742 C 0.96782 0.96601 0.15145 0.0
C743 C 0.97283 0.95785 0.12889 0.0
C744 C 0.96716 0.96993 0.10881 0.0
C745 C 0.95651 0.99022 0.11125 0.0
C746 C 0.95143 0.99845 0.13377 0.0
C747 C 0.99369 0.07206 0.22857 0.0
C748 C 0.97929 0.08866 0.21876 0.0
C749 C 0.9863 0.05075 0.22535 0.0
C750 C 0.96514 0.04579 0.21119 0.0
C751 C 0.95142 0.0623 0.20047 0.0
C752 C 0.95822 0.08352 0.20443 0.0
C753 C 0.95715 0.02349 0.2069 0.0
C754 C 0.96064 0.01513 0.18415 0.0
C755 C 0.94492 0.011 0.22441 0.0
C756 C 0.94212 0.01862 0.24918 0.0
C757 C 0.93015 0.03816 0.25427 0.0
C758 C 0.92871 0.04555 0.2776 0.0
C759 C 0.93881 0.0334 0.29605 0.0
C760 C 0.95013 0.01372 0.29123 0.0
C761 C 0.95165 0.00628 0.26794 0.0
H762 H 0.93773 0.03917 0.31408 0.0
H763 H 0.97104 0.96358 0.09136 0.0
H764 H 0.9273 0.08817 0.66295 0.0
H765 H 0.95036 0.05721 0.67836 0.0
H766 H 0.87999 0.03163 0.70614 0.0
H767 H 0.85717 0.06294 0.69158 0.0
H768 H 0.91604 0.02381 0.73607 0.0
H769 H 0.90682 0.01555 0.65154 0.0
H770 H 0.9116 0.02604 0.6097 0.0
H771 H 0.99295 0.02738 0.61769 0.0
H772 H 0.98861 0.01717 0.6597 0.0
H773 H 0.9307 0.91188 0.72753 0.0
H774 H 0.91969 0.94953 0.72241 0.0
H775 H 0.99945 0.96565 0.71699 0.0
H776 H 0.01056 0.92777 0.72253 0.0
H777 H 0.96609 0.98088 0.67884 0.0
H778 H 0.97258 0.98058 0.76255 0.0
H779 H 0.96461 0.96562 0.80215 0.0
H780 H 0.88471 0.97829 0.79471 0.0
H781 H 0.89201 0.99215 0.75442 0.0
C782 C 0.91687 0.07596 0.6725 0.0
C783 C 0.89047 0.07783 0.67598 0.0
C784 C 0.93001 0.05828 0.68125 0.0
C785 C 0.91686 0.04186 0.69308 0.0
C786 C 0.8906 0.04406 0.69713 0.0
C787 C 0.87755 0.06192 0.68877 0.0
C788 C 0.93003 0.0219 0.70025 0.0
C789 C 0.9269 0.0144 0.72352 0.0
C790 C 0.94474 0.00979 0.68406 0.0
C791 C 0.94738 0.01586 0.65881 0.0
C792 C 0.92571 0.01824 0.64441 0.0
C793 C 0.92834 0.02411 0.62067 0.0
C794 C 0.95256 0.02744 0.61106 0.0
C795 C 0.9742 0.02485 0.62517 0.0
C796 C 0.97167 0.01901 0.64894 0.0
C797 C 0.94586 0.92355 0.72567 0.0
C798 C 0.97143 0.91715 0.72569 0.0
C799 C 0.93959 0.94498 0.72276 0.0
C800 C 0.95877 0.96032 0.71941 0.0
C801 C 0.98442 0.954 0.71963 0.0
C802 C 0.99073 0.9325 0.72294 0.0
C803 C 0.95154 0.98266 0.71437 0.0
C804 C 0.95571 0.99055 0.6915 0.0
C805 C 0.93735 0.99487 0.73077 0.0
C806 C 0.93287 0.98725 0.75534 0.0
C807 C 0.95329 0.97997 0.76926 0.0
C808 C 0.94889 0.9717 0.79185 0.0
C809 C 0.92421 0.97116 0.80105 0.0
C810 C 0.90384 0.97876 0.78758 0.0
C811 C 0.90809 0.98673 0.7648 0.0
H812 H 0.92086 0.96481 0.8186 0.0
H813 H 0.95456 0.03199 0.59267 0.0
H814 H 0.57846 0.41568 0.16412 0.0
H815 H 0.55808 0.44837 0.17834 0.0
H816 H 0.63116 0.47248 0.20127 0.0
H817 H 0.65147 0.43966 0.18757 0.0
H818 H 0.59672 0.48246 0.23275 0.0
H819 H 0.60336 0.48783 0.14848 0.0
H820 H 0.59742 0.47655 0.10702 0.0
H821 H 0.51623 0.47829 0.11596 0.0
H822 H 0.52169 0.48931 0.15758 0.0
H823 H 0.57656 0.59487 0.22566 0.0
H824 H 0.59022 0.55785 0.21993 0.0
H825 H 0.51168 0.538 0.21412 0.0
H826 H 0.49802 0.57508 0.22004 0.0
H827 H 0.54475 0.52446 0.17625 0.0
H828 H 0.54096 0.52532 0.26058 0.0
H829 H 0.54997 0.53849 0.30078 0.0
H830 H 0.6299 0.528 0.29011 0.0
H831 H 0.62145 0.51497 0.24966 0.0
C832 C 0.59013 0.42796 0.17225 0.0
C833 C 0.61656 0.42518 0.17463 0.0
C834 C 0.57848 0.44662 0.18036 0.0
C835 C 0.59312 0.46305 0.19058 0.0
C836 C 0.61944 0.46004 0.19351 0.0
C837 C 0.63103 0.44128 0.18566 0.0
C838 C 0.58131 0.4837 0.19741 0.0
C839 C 0.58556 0.49173 0.22032 0.0
C840 C 0.56632 0.49564 0.18134 0.0
C841 C 0.56294 0.48909 0.15628 0.0
C842 C 0.58423 0.48562 0.14167 0.0
C843 C 0.58096 0.47931 0.11812 0.0
C844 C 0.55646 0.47662 0.10889 0.0
C845 C 0.53519 0.48032 0.12316 0.0
C846 C 0.53837 0.4866 0.14674 0.0
C847 C 0.56226 0.58249 0.22358 0.0
C848 C 0.53626 0.58759 0.2237 0.0
C849 C 0.57004 0.56142 0.22034 0.0
C850 C 0.55195 0.54521 0.21677 0.0
C851 C 0.52591 0.55026 0.21707 0.0
C852 C 0.51811 0.57133 0.22071 0.0
C853 C 0.5605 0.52327 0.21139 0.0
C854 C 0.5557 0.51505 0.18873 0.0
C855 C 0.57544 0.51144 0.22751 0.0
C856 C 0.58055 0.51921 0.25195 0.0
C857 C 0.56048 0.52588 0.26669 0.0
C858 C 0.56548 0.53334 0.28956 0.0
C859 C 0.59049 0.53411 0.29798 0.0
C860 C 0.61054 0.52739 0.28356 0.0
C861 C 0.60564 0.51993 0.26066 0.0
H862 H 0.59432 0.5399 0.31569 0.0
H863 H 0.55396 0.47174 0.09065 0.0
H864 H 0.4289 0.42361 0.36392 0.0
H865 H 0.45214 0.45453 0.34868 0.0
H866 H 0.39299 0.46516 0.29713 0.0
H867 H 0.36913 0.43467 0.31271 0.0
H868 H 0.44343 0.4691 0.27866 0.0
H869 H 0.39278 0.49463 0.34417 0.0
H870 H 0.37734 0.49436 0.3854 0.0
H871 H 0.45364 0.50448 0.41057 0.0
H872 H 0.46958 0.50449 0.36947 0.0
H873 H 0.4635 0.57895 0.25034 0.0
H874 H 0.45147 0.54193 0.25829 0.0
H875 H 0.50201 0.54118 0.31858 0.0
H876 H 0.51321 0.57853 0.31107 0.0
H877 H 0.45784 0.53066 0.33235 0.0
H878 H 0.5096 0.49514 0.27055 0.0
H879 H 0.52756 0.48999 0.2306 0.0
H880 H 0.4534 0.4981 0.19996 0.0
H881 H 0.43483 0.50229 0.23991 0.0
C882 C 0.42068 0.43258 0.34946 0.0
C883 C 0.39698 0.4267 0.33971 0.0
C884 C 0.4341 0.45016 0.34066 0.0
C885 C 0.42419 0.46218 0.32188 0.0
C886 C 0.40099 0.45602 0.31158 0.0
C887 C 0.38743 0.43853 0.32049 0.0
C888 C 0.4375 0.48172 0.31368 0.0
C889 C 0.4464 0.48267 0.29031 0.0
C890 C 0.442 0.49914 0.32907 0.0
C891 C 0.4324 0.49934 0.35376 0.0
C892 C 0.40629 0.49663 0.3585 0.0
C893 C 0.39744 0.49655 0.38185 0.0
C894 C 0.41451 0.49935 0.40059 0.0
C895 C 0.44045 0.50229 0.39603 0.0
C896 C 0.44939 0.50234 0.37272 0.0
C897 C 0.4728 0.57054 0.26467 0.0
C898 C 0.4894 0.58143 0.27999 0.0
C899 C 0.466 0.5493 0.2692 0.0
C900 C 0.4759 0.53855 0.28901 0.0
C901 C 0.49403 0.54906 0.30323 0.0
C902 C 0.50051 0.57036 0.29891 0.0
C903 C 0.46422 0.51814 0.29722 0.0
C904 C 0.45527 0.51707 0.32066 0.0
C905 C 0.45995 0.50053 0.28201 0.0
C906 C 0.471 0.49947 0.25804 0.0
C907 C 0.49723 0.49609 0.25523 0.0
C908 C 0.50747 0.49317 0.23264 0.0
C909 C 0.49173 0.49404 0.21273 0.0
C910 C 0.46561 0.49755 0.21539 0.0
C911 C 0.45517 0.5 0.238 0.0
H912 H 0.49974 0.49188 0.19526 0.0
H913 H 0.40762 0.49928 0.41865 0.0
H914 H 0.11909 0.05347 0.87192 0.0
H915 H 0.09699 0.02246 0.85557 0.0
H916 H 0.08242 0.05705 0.79106 0.0
H917 H 0.10387 0.08847 0.80752 0.0
H918 H 0.04797 0.01594 0.83869 0.0
H919 H 0.09103 0.02015 0.74529 0.0
H920 H 0.1289 0.03472 0.72496 0.0
H921 H 0.17216 0.02978 0.78924 0.0
H922 H 0.13467 0.01491 0.80982 0.0
H923 H 0.99556 0.92769 0.77368 0.0
H924 H 0.00866 0.96476 0.78178 0.0
H925 H 0.08621 0.94401 0.79128 0.0
H926 H 0.07341 0.90733 0.78277 0.0
H927 H 0.08505 0.98096 0.76786 0.0
H928 H 0.04459 0.9499 0.83692 0.0
H929 H 0.00931 0.9342 0.85992 0.0
H930 H 0.96471 0.99064 0.84887 0.0
H931 H 0.99946 0.00643 0.82519 0.0
C932 C 0.11077 0.05471 0.85444 0.0
C933 C 0.11339 0.07352 0.84104 0.0
C934 C 0.09819 0.03691 0.84509 0.0
C935 C 0.0882 0.03743 0.82207 0.0
C936 C 0.09022 0.05627 0.80879 0.0
C937 C 0.10265 0.07415 0.81819 0.0
C938 C 0.0768 0.01784 0.8117 0.0
C939 C 0.05585 0.00838 0.82304 0.0
C940 C 0.08721 0.00797 0.79137 0.0
C941 C 0.10995 0.01671 0.77914 0.0
C942 C 0.10864 0.02215 0.75505 0.0
C943 C 0.13004 0.03045 0.74349 0.0
C944 C 0.15289 0.03326 0.75583 0.0
C945 C 0.15442 0.02769 0.77973 0.0
C946 C 0.13309 0.01936 0.79136 0.0
C947 C 0.01549 0.93123 0.77679 0.0
C948 C 0.03356 0.91476 0.77733 0.0
C949 C 0.02288 0.95232 0.78165 0.0
C950 C 0.04836 0.95713 0.78726 0.0
C951 C 0.06647 0.94073 0.78692 0.0
C952 C 0.05913 0.91977 0.78215 0.0
C953 C 0.0563 0.97882 0.79499 0.0
C954 C 0.07667 0.98874 0.78315 0.0
C955 C 0.04555 0.98893 0.81509 0.0
C956 C 0.02449 0.97921 0.82894 0.0
C957 C 0.02713 0.95885 0.83909 0.0
C958 C 0.00724 0.94994 0.85229 0.0
C959 C 0.98475 0.96138 0.85578 0.0
C960 C 0.98214 0.98179 0.84614 0.0
C961 C 0.00188 0.99068 0.83274 0.0
H962 H 0.96938 0.95447 0.86603 0.0
H963 H 0.16943 0.0397 0.74685 0.0
H964 H 0.17534 0.13736 0.03545 0.0
H965 H 0.16546 0.14194 0.07748 0.0
H966 H 0.13734 0.20529 0.06334 0.0
H967 H 0.14809 0.20095 0.02127 0.0
H968 H 0.15859 0.20297 0.10799 0.0
H969 H 0.09738 0.16351 0.06158 0.0
H970 H 0.08333 0.13505 0.0343 0.0
H971 H 0.10836 0.08746 0.08367 0.0
H972 H 0.12298 0.11567 0.11108 0.0
H973 H 0.04363 0.20301 0.17868 0.0
H974 H 0.0786 0.20582 0.15014 0.0
H975 H 0.1148 0.15128 0.182 0.0
H976 H 0.0802 0.14888 0.21112 0.0
H977 H 0.09535 0.14809 0.13216 0.0
H978 H 0.1492 0.18904 0.18193 0.0
H979 H 0.16064 0.21833 0.20909 0.0
H980 H 0.14665 0.26408 0.1541 0.0
H981 H 0.13459 0.23507 0.1267 0.0
C982 C 0.16765 0.15245 0.04146 0.0
C983 C 0.16216 0.16872 0.02517 0.0
C984 C 0.16202 0.15507 0.06544 0.0
C985 C 0.15015 0.17379 0.0735 0.0
C986 C 0.14645 0.1907 0.05754 0.0
C987 C 0.1525 0.1882 0.03353 0.0
C988 C 0.13846 0.17443 0.09749 0.0
C989 C 0.14471 0.19103 0.11329 0.0
C990 C 0.12058 0.15868 0.10457 0.0
C991 C 0.11154 0.14169 0.08824 0.0
C992 C 0.10005 0.14698 0.06654 0.0
C993 C 0.09198 0.13089 0.05106 0.0
C994 C 0.09502 0.10946 0.05722 0.0
C995 C 0.10608 0.10407 0.0789 0.0
C996 C 0.11426 0.1201 0.09441 0.0
C997 C 0.0597 0.1923 0.18028 0.0
C998 C 0.05941 0.17583 0.19711 0.0
C999 C 0.07964 0.1939 0.16399 0.0
C1000 C 0.09923 0.17875 0.16398 0.0
C1001 C 0.09995 0.16324 0.1819 0.0
C1002 C 0.08029 0.16196 0.19858 0.0
C1003 C 0.11544 0.17656 0.14268 0.0
C1004 C 0.1097 0.15977 0.12716 0.0
C1005 C 0.13342 0.19226 0.13591 0.0
C1006 C 0.14074 0.20984 0.15227 0.0
C1007 C 0.14828 0.20535 0.17566 0.0
C1008 C 0.15494 0.22191 0.19111 0.0
C1009 C 0.15434 0.24306 0.18334 0.0
C1010 C 0.1471 0.24768 0.1601 0.0
C1011 C 0.14036 0.23117 0.14459 0.0
H1012 H 0.15954 0.25585 0.19532 0.0
H1013 H 0.08875 0.09703 0.04521 0.0
H1014 H 0.3627 0.30569 0.5226 0.0
H1015 H 0.37304 0.30048 0.56442 0.0
H1016 H 0.3447 0.36353 0.58027 0.0
H1017 H 0.3356 0.36907 0.53822 0.0
H1018 H 0.3872 0.36012 0.59979 0.0
H1019 H 0.31477 0.31462 0.60003 0.0
H1020 H 0.286 0.28593 0.58641 0.0
H1021 H 0.34484 0.23963 0.5978 0.0
H1022 H 0.3741 0.26807 0.61118 0.0
H1023 H 0.42567 0.34731 0.71676 0.0
H1024 H 0.39091 0.34568 0.68779 0.0
H1025 H 0.42997 0.29547 0.65043 0.0
H1026 H 0.46477 0.29722 0.67907 0.0
H1027 H 0.37407 0.29405 0.64667 0.0
H1028 H 0.4476 0.34231 0.6373 0.0
H1029 H 0.47573 0.37103 0.65204 0.0
H1030 H 0.41144 0.41279 0.65878 0.0
H1031 H 0.38287 0.38412 0.64449 0.0
C1032 C 0.35825 0.31824 0.53514 0.0
C1033 C 0.34842 0.33778 0.52724 0.0
C1034 C 0.36401 0.31522 0.55911 0.0
C1035 C 0.35942 0.33151 0.57575 0.0
C1036 C 0.34851 0.35071 0.56789 0.0
C1037 C 0.34326 0.35387 0.54388 0.0
C1038 C 0.36843 0.3294 0.60073 0.0
C1039 C 0.38362 0.34587 0.61017 0.0
C1040 C 0.36423 0.31073 0.61444 0.0
C1041 C 0.34669 0.29353 0.60648 0.0
C1042 C 0.32164 0.29834 0.59949 0.0
C1043 C 0.30523 0.28211 0.59183 0.0
C1044 C 0.3136 0.26098 0.59121 0.0
C1045 C 0.33838 0.25601 0.59829 0.0
C1046 C 0.35487 0.27218 0.60595 0.0
C1047 C 0.42622 0.33522 0.70305 0.0
C1048 C 0.44801 0.32256 0.69993 0.0
C1049 C 0.40639 0.33436 0.68645 0.0
C1050 C 0.40812 0.3207 0.66676 0.0
C1051 C 0.42827 0.30613 0.66546 0.0
C1052 C 0.4482 0.30718 0.68181 0.0
C1053 C 0.3927 0.32463 0.6452 0.0
C1054 C 0.37672 0.30849 0.63638 0.0
C1055 C 0.39586 0.34367 0.63207 0.0
C1056 C 0.41309 0.36103 0.64011 0.0
C1057 C 0.43946 0.35757 0.64208 0.0
C1058 C 0.45548 0.37383 0.65034 0.0
C1059 C 0.44537 0.39371 0.6564 0.0
C1060 C 0.41923 0.39737 0.65413 0.0
C1061 C 0.40312 0.38112 0.64597 0.0
H1062 H 0.4578 0.40628 0.6628 0.0
H1063 H 0.30087 0.24844 0.58527 0.0
H1064 H 0.67488 0.32039 0.98283 0.0
H1065 H 0.66491 0.3138 0.94087 0.0
H1066 H 0.58556 0.30584 0.95871 0.0
H1067 H 0.59537 0.31265 1.00039 0.0
H1068 H 0.60399 0.27579 0.92437 0.0
H1069 H 0.60481 0.35263 0.94143 0.0
H1070 H 0.62583 0.38586 0.95461 0.0
H1071 H 0.68341 0.37795 0.90134 0.0
H1072 H 0.66287 0.34448 0.88808 0.0
H1073 H 0.51433 0.31043 0.84442 0.0
H1074 H 0.5446 0.30002 0.87463 0.0
H1075 H 0.60662 0.32226 0.83081 0.0
H1076 H 0.57577 0.3337 0.80066 0.0
H1077 H 0.61023 0.33938 0.87242 0.0
H1078 H 0.59944 0.26871 0.84735 0.0
H1079 H 0.57756 0.23605 0.83386 0.0
H1080 H 0.53935 0.23104 0.9008 0.0
H1081 H 0.56053 0.26393 0.91455 0.0
C1082 C 0.65541 0.31687 0.97776 0.0
C1083 C 0.63584 0.31717 0.99474 0.0
C1084 C 0.64975 0.31314 0.95385 0.0
C1085 C 0.62449 0.30936 0.9467 0.0
C1086 C 0.60518 0.30862 0.96386 0.0
C1087 C 0.61076 0.31266 0.98761 0.0
C1088 C 0.61742 0.30811 0.9213 0.0
C1089 C 0.60537 0.28959 0.91285 0.0
C1090 C 0.62028 0.32584 0.90606 0.0
C1091 C 0.63254 0.34594 0.914 0.0
C1092 C 0.62209 0.35788 0.93268 0.0
C1093 C 0.63388 0.37677 0.94014 0.0
C1094 C 0.656 0.38397 0.92888 0.0
C1095 C 0.66632 0.37232 0.91009 0.0
C1096 C 0.65462 0.3534 0.9026 0.0
C1097 C 0.53446 0.3126 0.84089 0.0
C1098 C 0.5427 0.32284 0.82014 0.0
C1099 C 0.55186 0.30644 0.85815 0.0
C1100 C 0.57804 0.3101 0.85503 0.0
C1101 C 0.58654 0.31914 0.8336 0.0
C1102 C 0.56896 0.32543 0.81623 0.0
C1103 C 0.59547 0.30732 0.87561 0.0
C1104 C 0.60953 0.32515 0.88333 0.0
C1105 C 0.5945 0.28885 0.89009 0.0
C1106 C 0.58174 0.26885 0.88202 0.0
C1107 C 0.58635 0.2607 0.8592 0.0
C1108 C 0.57403 0.24214 0.85149 0.0
C1109 C 0.55715 0.23144 0.86649 0.0
C1110 C 0.55251 0.23931 0.88923 0.0
C1111 C 0.56471 0.25792 0.897 0.0
H1112 H 0.54763 0.21706 0.86049 0.0
H1113 H 0.6651 0.39861 0.93466 0.0
H1114 H 0.87148 0.19941 0.49367 0.0
H1115 H 0.88348 0.20349 0.45205 0.0
H1116 H 0.84514 0.1442 0.43543 0.0
H1117 H 0.83452 0.13963 0.47735 0.0
H1118 H 0.88793 0.14264 0.41674 0.0
H1119 H 0.82449 0.19617 0.41502 0.0
H1120 H 0.80056 0.22789 0.42794 0.0
H1121 H 0.8671 0.26696 0.4182 0.0
H1122 H 0.89156 0.23542 0.40554 0.0
H1123 H 0.92983 0.15236 0.2993 0.0
H1124 H 0.89605 0.15676 0.32899 0.0
H1125 H 0.9435 0.20123 0.36737 0.0
H1126 H 0.97729 0.19657 0.33804 0.0
H1127 H 0.88822 0.20968 0.37005 0.0
H1128 H 0.95177 0.15282 0.38036 0.0
H1129 H 0.97444 0.12095 0.36589 0.0
H1130 H 0.9032 0.0878 0.35778 0.0
H1131 H 0.8801 0.11966 0.37187 0.0
C1132 C 0.86521 0.18754 0.48096 0.0
C1133 C 0.85208 0.16926 0.48855 0.0
C1134 C 0.87191 0.1899 0.45712 0.0
C1135 C 0.86501 0.17428 0.44033 0.0
C1136 C 0.85078 0.15648 0.44791 0.0
C1137 C 0.8446 0.1539 0.47181 0.0
C1138 C 0.87495 0.17531 0.41558 0.0
C1139 C 0.88725 0.1572 0.40639 0.0
C1140 C 0.87453 0.1943 0.4019 0.0
C1141 C 0.85991 0.21337 0.40946 0.0
C1142 C 0.83408 0.21149 0.41579 0.0
C1143 C 0.82041 0.22946 0.42304 0.0
C1144 C 0.83231 0.24942 0.42393 0.0
C1145 C 0.8579 0.25148 0.41751 0.0
C1146 C 0.87168 0.23357 0.41025 0.0
C1147 C 0.9325 0.16381 0.31347 0.0
C1148 C 0.95605 0.17414 0.31647 0.0
C1149 C 0.91328 0.16624 0.33047 0.0
C1150 C 0.91739 0.1792 0.35046 0.0
C1151 C 0.9399 0.19124 0.35205 0.0
C1152 C 0.9592 0.18853 0.33533 0.0
C1153 C 0.90104 0.17718 0.37175 0.0
C1154 C 0.88795 0.19506 0.38032 0.0
C1155 C 0.9003 0.15793 0.38478 0.0
C1156 C 0.91422 0.13865 0.3769 0.0
C1157 C 0.94095 0.13877 0.37535 0.0
C1158 C 0.95387 0.12072 0.36723 0.0
C1159 C 0.94026 0.10238 0.36085 0.0
C1160 C 0.91371 0.10203 0.36268 0.0
C1161 C 0.90069 0.12008 0.37073 0.0
H1162 H 0.95029 0.08842 0.35455 0.0
H1163 H 0.82169 0.26331 0.42955 0.0
H1164 H 0.9037 0.83054 0.99156 0.0
H1165 H 0.91157 0.82522 0.94959 0.0
H1166 H 0.8313 0.81444 0.93791 0.0
H1167 H 0.82308 0.82095 0.98005 0.0
H1168 H 0.90671 0.79518 0.91879 0.0
H1169 H 0.81608 0.8337 0.88262 0.0
H1170 H 0.78235 0.85877 0.89489 0.0
H1171 H 0.83475 0.89012 0.94197 0.0
H1172 H 0.86881 0.8654 0.92977 0.0
H1173 H 0.94032 0.80521 0.79856 0.0
H1174 H 0.90966 0.7957 0.82986 0.0
H1175 H 0.90931 0.86127 0.85348 0.0
H1176 H 0.93905 0.87068 0.82219 0.0
H1177 H 0.86493 0.84469 0.86254 0.0
H1178 H 0.95387 0.82363 0.87405 0.0
H1179 H 0.99258 0.80349 0.86353 0.0
H1180 H 0.95098 0.74455 0.86912 0.0
H1181 H 0.91195 0.76441 0.87941 0.0
C1182 C 0.88763 0.82715 0.98011 0.0
C1183 C 0.86268 0.82665 0.98916 0.0
C1184 C 0.89222 0.8238 0.95608 0.0
C1185 C 0.87203 0.81967 0.9404 0.0
C1186 C 0.84718 0.81792 0.94955 0.0
C1187 C 0.84253 0.82148 0.97369 0.0
C1188 C 0.8773 0.81878 0.91448 0.0
C1189 C 0.89722 0.80573 0.90641 0.0
C1190 C 0.86505 0.83251 0.89818 0.0
C1191 C 0.84482 0.84753 0.90554 0.0
C1192 C 0.82036 0.84596 0.89558 0.0
C1193 C 0.80121 0.86011 0.90251 0.0
C1194 C 0.80638 0.87597 0.91928 0.0
C1195 C 0.83074 0.87778 0.92906 0.0
C1196 C 0.84997 0.8637 0.92216 0.0
C1197 C 0.93271 0.81766 0.80982 0.0
C1198 C 0.94197 0.83865 0.80808 0.0
C1199 C 0.91542 0.81221 0.82783 0.0
C1200 C 0.90754 0.82769 0.8444 0.0
C1201 C 0.91501 0.849 0.84105 0.0
C1202 C 0.9321 0.85439 0.82316 0.0
C1203 C 0.89504 0.8218 0.86717 0.0
C1204 C 0.87371 0.83349 0.87467 0.0
C1205 C 0.90658 0.8074 0.88322 0.0
C1206 C 0.92999 0.79548 0.87718 0.0
C1207 C 0.95299 0.80638 0.8729 0.0
C1208 C 0.97497 0.79503 0.86699 0.0
C1209 C 0.97422 0.77276 0.86558 0.0
C1210 C 0.95151 0.7618 0.87015 0.0
C1211 C 0.92946 0.77309 0.87601 0.0
H1212 H 0.99126 0.76399 0.861 0.0
H1213 H 0.79152 0.88689 0.92463 0.0
H1214 H 0.68132 0.69697 0.46936 0.0
H1215 H 0.66717 0.69948 0.42798 0.0
H1216 H 0.58993 0.68669 0.44982 0.0
H1217 H 0.60362 0.68479 0.49096 0.0
H1218 H 0.60685 0.65978 0.41371 0.0
H1219 H 0.60521 0.73499 0.43384 0.0
H1220 H 0.62424 0.76893 0.44734 0.0
H1221 H 0.67761 0.76703 0.38978 0.0
H1222 H 0.65909 0.73289 0.37613 0.0
H1223 H 0.52504 0.70636 0.32284 0.0
H1224 H 0.55633 0.71469 0.35363 0.0
H1225 H 0.60629 0.66635 0.32565 0.0
H1226 H 0.57484 0.6579 0.29495 0.0
H1227 H 0.6094 0.72372 0.36191 0.0
H1228 H 0.61827 0.63376 0.37242 0.0
H1229 H 0.5967 0.60069 0.3593 0.0
H1230 H 0.52504 0.63352 0.35764 0.0
H1231 H 0.54614 0.66662 0.37113 0.0
C1232 C 0.66126 0.6951 0.46538 0.0
C1233 C 0.64367 0.69037 0.48347 0.0
C1234 C 0.65324 0.69644 0.44172 0.0
C1235 C 0.62754 0.69305 0.43584 0.0
C1236 C 0.6099 0.68909 0.45394 0.0
C1237 C 0.61781 0.68791 0.47746 0.0
C1238 C 0.61879 0.69262 0.41086 0.0
C1239 C 0.60776 0.6737 0.40231 0.0
C1240 C 0.61991 0.71076 0.39597 0.0
C1241 C 0.63099 0.73126 0.40415 0.0
C1242 C 0.62117 0.7417 0.4242 0.0
C1243 C 0.63182 0.761 0.43185 0.0
C1244 C 0.65218 0.77009 0.41947 0.0
C1245 C 0.66188 0.75994 0.39938 0.0
C1246 C 0.6513 0.74063 0.39168 0.0
C1247 C 0.54327 0.69831 0.32257 0.0
C1248 C 0.54773 0.68169 0.30642 0.0
C1249 C 0.56116 0.70308 0.34014 0.0
C1250 C 0.58351 0.69099 0.34207 0.0
C1251 C 0.58917 0.6759 0.32443 0.0
C1252 C 0.57129 0.67118 0.30678 0.0
C1253 C 0.59746 0.69091 0.36492 0.0
C1254 C 0.60926 0.70966 0.37311 0.0
C1255 C 0.59688 0.67267 0.37971 0.0
C1256 C 0.58383 0.65267 0.3725 0.0
C1257 C 0.5979 0.63385 0.36937 0.0
C1258 C 0.58575 0.61512 0.36187 0.0
C1259 C 0.55953 0.61502 0.35755 0.0
C1260 C 0.54536 0.63362 0.36092 0.0
C1261 C 0.55739 0.65236 0.36851 0.0
H1262 H 0.55019 0.60053 0.35165 0.0
H1263 H 0.6604 0.78504 0.42541 0.0
H1264 H 0.34757 0.696 0.0117 0.0
H1265 H 0.35497 0.70041 0.05424 0.0
H1266 H 0.36852 0.63277 0.06067 0.0
H1267 H 0.3598 0.62811 0.01869 0.0
H1268 H 0.34426 0.64574 0.09804 0.0
H1269 H 0.41777 0.67124 0.0537 0.0
H1270 H 0.4398 0.69447 0.02495 0.0
H1271 H 0.41671 0.7499 0.06414 0.0
H1272 H 0.3943 0.72696 0.09299 0.0
H1273 H 0.44341 0.62545 0.17642 0.0
H1274 H 0.41166 0.63128 0.14579 0.0
H1275 H 0.40521 0.69722 0.16713 0.0
H1276 H 0.43767 0.69132 0.19795 0.0
H1277 H 0.416 0.69328 0.12063 0.0
H1278 H 0.35543 0.66233 0.17225 0.0
H1279 H 0.33846 0.63601 0.20065 0.0
H1280 H 0.34081 0.58734 0.14723 0.0
H1281 H 0.35861 0.61308 0.11872 0.0
C1282 C 0.3516 0.68201 0.02227 0.0
C1283 C 0.3535 0.66173 0.01163 0.0
C1284 C 0.35605 0.68458 0.04659 0.0
C1285 C 0.36278 0.66699 0.06068 0.0
C1286 C 0.36348 0.64664 0.05026 0.0
C1287 C 0.35882 0.64403 0.0261 0.0
C1288 C 0.37081 0.66956 0.08584 0.0
C1289 C 0.35993 0.65614 0.10304 0.0
C1290 C 0.39068 0.68366 0.09261 0.0
C1291 C 0.40408 0.69743 0.07528 0.0
C1292 C 0.41724 0.68839 0.05607 0.0
C1293 C 0.42981 0.7015 0.03978 0.0
C1294 C 0.42957 0.72365 0.04267 0.0
C1295 C 0.41682 0.73274 0.06189 0.0
C1296 C 0.40417 0.7197 0.07821 0.0
C1297 C 0.43458 0.64101 0.17512 0.0
C1298 C 0.44278 0.6579 0.18961 0.0
C1299 C 0.41634 0.64434 0.15763 0.0
C1300 C 0.40583 0.66466 0.15419 0.0
C1301 C 0.41293 0.68136 0.16957 0.0
C1302 C 0.43122 0.67796 0.18732 0.0
C1303 C 0.39035 0.66863 0.13258 0.0
C1304 C 0.39978 0.68334 0.11598 0.0
C1305 C 0.36956 0.65529 0.12626 0.0
C1306 C 0.35834 0.63976 0.14328 0.0
C1307 C 0.35241 0.64601 0.16656 0.0
C1308 C 0.34266 0.63118 0.18269 0.0
C1309 C 0.33842 0.61007 0.17571 0.0
C1310 C 0.34402 0.60372 0.15259 0.0
C1311 C 0.35396 0.61844 0.13643 0.0
H1312 H 0.33086 0.59863 0.18824 0.0
H1313 H 0.43933 0.73377 0.03005 0.0
H1314 H 0.15275 0.7814 0.51966 0.0
H1315 H 0.13969 0.77836 0.56126 0.0
H1316 H 0.143 0.84687 0.56832 0.0
H1317 H 0.15627 0.84997 0.527 0.0
H1318 H 0.1618 0.82636 0.60808 0.0
H1319 H 0.08756 0.82262 0.55636 0.0
H1320 H 0.06179 0.80703 0.52413 0.0
H1321 H 0.05988 0.74688 0.56049 0.0
H1322 H 0.08596 0.76207 0.59281 0.0
H1323 H 0.06656 0.8664 0.68145 0.0
H1324 H 0.09775 0.85462 0.65225 0.0
H1325 H 0.0806 0.78894 0.66899 0.0
H1326 H 0.04942 0.80089 0.69877 0.0
H1327 H 0.0744 0.79849 0.62151 0.0
H1328 H 0.13935 0.80568 0.67814 0.0
H1329 H 0.16338 0.82212 0.71087 0.0
H1330 H 0.18244 0.87553 0.66662 0.0
H1331 H 0.15812 0.85958 0.63366 0.0
C1332 C 0.1511 0.79576 0.53023 0.0
C1333 C 0.15527 0.81594 0.52 0.0
C1334 C 0.14357 0.79401 0.55395 0.0
C1335 C 0.1402 0.8124 0.56786 0.0
C1336 C 0.1455 0.83246 0.55796 0.0
C1337 C 0.15284 0.83423 0.53427 0.0
C1338 C 0.1292 0.81116 0.59208 0.0
C1339 C 0.14273 0.82022 0.61109 0.0
C1340 C 0.10466 0.80248 0.59619 0.0
C1341 C 0.08898 0.79338 0.57681 0.0
C1342 C 0.08183 0.80602 0.55737 0.0
C1343 C 0.06713 0.79727 0.53911 0.0
C1344 C 0.05928 0.77595 0.54022 0.0
C1345 C 0.06604 0.76337 0.55963 0.0
C1346 C 0.08077 0.77203 0.57791 0.0
C1347 C 0.07016 0.84946 0.6795 0.0
C1348 C 0.05584 0.83452 0.69238 0.0
C1349 C 0.08798 0.84273 0.66283 0.0
C1350 C 0.09158 0.82089 0.65844 0.0
C1351 C 0.0782 0.80586 0.67219 0.0
C1352 C 0.06058 0.81266 0.68926 0.0
C1353 C 0.10663 0.81435 0.63739 0.0
C1354 C 0.09382 0.80395 0.61884 0.0
C1355 C 0.13182 0.82178 0.63377 0.0
C1356 C 0.1468 0.83143 0.6534 0.0
C1357 C 0.14853 0.821 0.6754 0.0
C1358 C 0.16222 0.83023 0.69401 0.0
C1359 C 0.17443 0.84988 0.69085 0.0
C1360 C 0.17299 0.8603 0.66904 0.0
C1361 C 0.15928 0.85114 0.65035 0.0
H1362 H 0.18501 0.85701 0.70529 0.0
H1363 H 0.04789 0.76921 0.52607 0.0
H1364 H 0.26953 0.2724 0.3138 0.0
H1365 H 0.23805 0.25311 0.2897 0.0
H1366 H 0.1817 0.26244 0.34433 0.0
H1367 H 0.21303 0.28131 0.36846 0.0
H1368 H 0.18053 0.2231 0.33067 0.0
H1369 H 0.18401 0.29123 0.29106 0.0
H1370 H 0.20396 0.32095 0.26921 0.0
H1371 H 0.22425 0.27816 0.21291 0.0
H1372 H 0.20479 0.24809 0.23461 0.0
H1373 H 0.06188 0.21591 0.28087 0.0
H1374 H 0.10129 0.23654 0.28442 0.0
H1375 H 0.14285 0.18549 0.25108 0.0
H1376 H 0.10323 0.1646 0.24777 0.0
H1377 H 0.15572 0.24226 0.2486 0.0
H1378 H 0.15606 0.17297 0.29433 0.0
H1379 H 0.131 0.14583 0.31592 0.0
H1380 H 0.09946 0.19468 0.36041 0.0
H1381 H 0.12414 0.22211 0.33883 0.0
C1382 C 0.25037 0.2704 0.32056 0.0
C1383 C 0.24381 0.27821 0.34312 0.0
C1384 C 0.23238 0.25943 0.30675 0.0
C1385 C 0.20742 0.25636 0.31512 0.0
C1386 C 0.20086 0.26443 0.33752 0.0
C1387 C 0.21882 0.27516 0.35136 0.0
C1388 C 0.18813 0.24414 0.30125 0.0
C1389 C 0.17542 0.22729 0.31265 0.0
C1390 C 0.18142 0.24929 0.27757 0.0
C1391 C 0.19334 0.26734 0.26466 0.0
C1392 C 0.19301 0.2881 0.27416 0.0
C1393 C 0.20417 0.30502 0.26177 0.0
C1394 C 0.21548 0.30143 0.23974 0.0
C1395 C 0.21558 0.28091 0.23002 0.0
C1396 C 0.2045 0.26392 0.24237 0.0
C1397 C 0.07921 0.20957 0.27321 0.0
C1398 C 0.07963 0.18884 0.26387 0.0
C1399 C 0.10168 0.22137 0.27519 0.0
C1400 C 0.12491 0.21251 0.26804 0.0
C1401 C 0.12502 0.19265 0.25645 0.0
C1402 C 0.10242 0.18078 0.25449 0.0
C1403 C 0.14862 0.22149 0.27814 0.0
C1404 C 0.16175 0.23778 0.26627 0.0
C1405 C 0.15581 0.21602 0.30143 0.0
C1406 C 0.1418 0.19951 0.31496 0.0
C1407 C 0.14374 0.17788 0.3087 0.0
C1408 C 0.1296 0.16247 0.3209 0.0
C1409 C 0.11362 0.16853 0.33951 0.0
C1410 C 0.11184 0.19001 0.346 0.0
C1411 C 0.12591 0.20548 0.33381 0.0
H1412 H 0.10265 0.15658 0.34891 0.0
H1413 H 0.22408 0.31456 0.23016 0.0
H1414 H 0.27908 0.1944 0.82114 0.0
H1415 H 0.31014 0.2131 0.7963 0.0
H1416 H 0.28557 0.27335 0.82519 0.0
H1417 H 0.25417 0.25478 0.84984 0.0
H1418 H 0.29479 0.27504 0.77599 0.0
H1419 H 0.33623 0.24983 0.8478 0.0
H1420 H 0.34927 0.2222 0.87637 0.0
H1421 H 0.38904 0.18876 0.82131 0.0
H1422 H 0.37592 0.21608 0.79234 0.0
H1423 H 0.39678 0.34655 0.78351 0.0
H1424 H 0.36048 0.32225 0.78533 0.0
H1425 H 0.40474 0.27332 0.7509 0.0
H1426 H 0.44132 0.29787 0.74887 0.0
H1427 H 0.38568 0.26058 0.79378 0.0
H1428 H 0.35284 0.29038 0.72412 0.0
H1429 H 0.34132 0.31862 0.69581 0.0
H1430 H 0.28637 0.34326 0.74497 0.0
H1431 H 0.29793 0.31543 0.77382 0.0
C1432 C 0.28 0.21166 0.82193 0.0
C1433 C 0.26426 0.22311 0.83757 0.0
C1434 C 0.29782 0.22231 0.80778 0.0
C1435 C 0.30023 0.2446 0.80897 0.0
C1436 C 0.28397 0.25614 0.82395 0.0
C1437 C 0.26624 0.24549 0.83822 0.0
C1438 C 0.32095 0.25583 0.79608 0.0
C1439 C 0.31468 0.27194 0.77984 0.0
C1440 C 0.34689 0.2512 0.80045 0.0
C1441 C 0.35482 0.23483 0.81786 0.0
C1442 C 0.34757 0.23649 0.84176 0.0
C1443 C 0.35501 0.22091 0.85802 0.0
C1444 C 0.3699 0.2037 0.85064 0.0
C1445 C 0.37745 0.20207 0.82699 0.0
C1446 C 0.37002 0.2176 0.81064 0.0
C1447 C 0.39853 0.33083 0.77566 0.0
C1448 C 0.42183 0.32402 0.76616 0.0
C1449 C 0.37774 0.31697 0.77662 0.0
C1450 C 0.37989 0.29595 0.76827 0.0
C1451 C 0.40268 0.2895 0.75739 0.0
C1452 C 0.42348 0.30354 0.75611 0.0
C1453 C 0.35959 0.2803 0.77418 0.0
C1454 C 0.36586 0.26334 0.78927 0.0
C1455 C 0.33372 0.28413 0.76861 0.0
C1456 C 0.32635 0.30081 0.75123 0.0
C1457 C 0.33841 0.30189 0.729 0.0
C1458 C 0.33187 0.31784 0.71283 0.0
C1459 C 0.31312 0.33273 0.71859 0.0
C1460 C 0.30087 0.33169 0.74053 0.0
C1461 C 0.3074 0.31581 0.75679 0.0
H1462 H 0.30807 0.34507 0.70606 0.0
H1463 H 0.37565 0.19166 0.86327 0.0
H1464 H 0.71015 0.22843 0.64249 0.0
H1465 H 0.67998 0.24821 0.66692 0.0
H1466 H 0.73255 0.24639 0.72555 0.0
H1467 H 0.76308 0.22678 0.7011 0.0
H1468 H 0.68389 0.23801 0.74003 0.0
H1469 H 0.72667 0.29157 0.69528 0.0
H1470 H 0.74399 0.30866 0.6594 0.0
H1471 H 0.66864 0.31317 0.63028 0.0
H1472 H 0.6509 0.29582 0.66584 0.0
H1473 H 0.59924 0.34231 0.75642 0.0
H1474 H 0.6402 0.32408 0.75218 0.0
H1475 H 0.60077 0.26396 0.74413 0.0
H1476 H 0.55993 0.28224 0.74846 0.0
H1477 H 0.64988 0.3068 0.71053 0.0
H1478 H 0.64034 0.22291 0.75481 0.0
H1479 H 0.62667 0.20755 0.79297 0.0
H1480 H 0.64119 0.26748 0.8275 0.0
H1481 H 0.65484 0.28319 0.78961 0.0
C1482 C 0.71547 0.23242 0.66049 0.0
C1483 C 0.73916 0.22614 0.66974 0.0
C1484 C 0.69813 0.24364 0.67449 0.0
C1485 C 0.70411 0.24896 0.69801 0.0
C1486 C 0.72752 0.24243 0.70747 0.0
C1487 C 0.74493 0.23119 0.69345 0.0
C1488 C 0.68595 0.26165 0.71243 0.0
C1489 C 0.67649 0.25309 0.73368 0.0
C1490 C 0.67693 0.28167 0.70456 0.0
C1491 C 0.68748 0.29226 0.68318 0.0
C1492 C 0.71381 0.29608 0.68116 0.0
C1493 C 0.7237 0.30583 0.66088 0.0
C1494 C 0.70743 0.31197 0.64255 0.0
C1495 C 0.68122 0.30841 0.64449 0.0
C1496 C 0.67123 0.29863 0.66471 0.0
C1497 C 0.59948 0.32505 0.7551 0.0
C1498 C 0.57659 0.31357 0.75312 0.0
C1499 C 0.62284 0.31467 0.75243 0.0
C1500 C 0.6236 0.29265 0.74768 0.0
C1501 C 0.60076 0.28088 0.74807 0.0
C1502 C 0.5774 0.2913 0.75066 0.0
C1503 C 0.64705 0.28284 0.73779 0.0
C1504 C 0.65747 0.29188 0.71719 0.0
C1505 C 0.65725 0.26353 0.74657 0.0
C1506 C 0.64848 0.25425 0.76931 0.0
C1507 C 0.6406 0.23281 0.77054 0.0
C1508 C 0.63279 0.22405 0.79213 0.0
C1509 C 0.63297 0.23654 0.81264 0.0
C1510 C 0.64085 0.25785 0.81159 0.0
C1511 C 0.64853 0.26671 0.79004 0.0
H1512 H 0.62711 0.22969 0.82936 0.0
H1513 H 0.71513 0.31952 0.62687 0.0
H1514 H 0.74456 0.2765 0.20302 0.0
H1515 H 0.77689 0.25823 0.22671 0.0
H1516 H 0.82443 0.25214 0.16483 0.0
H1517 H 0.79255 0.27067 0.14117 0.0
H1518 H 0.82178 0.21511 0.18908 0.0
H1519 H 0.83685 0.28964 0.20612 0.0
H1520 H 0.82499 0.32565 0.21985 0.0
H1521 H 0.8069 0.30057 0.28856 0.0
H1522 H 0.81833 0.26434 0.27512 0.0
H1523 H 0.9504 0.22008 0.23998 0.0
H1524 H 0.91026 0.23935 0.23607 0.0
H1525 H 0.86899 0.18258 0.25637 0.0
H1526 H 0.90934 0.16322 0.26004 0.0
H1527 H 0.86447 0.24938 0.25781 0.0
H1528 H 0.82481 0.17453 0.21305 0.0
H1529 H 0.83994 0.14021 0.19684 0.0
H1530 H 0.91179 0.16905 0.17915 0.0
H1531 H 0.89692 0.20357 0.1949 0.0
C1532 C 0.762 0.27145 0.19449 0.0
C1533 C 0.76591 0.27505 0.17014 0.0
C1534 C 0.78041 0.26094 0.20806 0.0
C1535 C 0.80309 0.25387 0.19755 0.0
C1536 C 0.80698 0.25733 0.17327 0.0
C1537 C 0.78866 0.26786 0.15974 0.0
C1538 C 0.82297 0.24283 0.21165 0.0
C1539 C 0.83085 0.22252 0.20429 0.0
C1540 C 0.83494 0.2525 0.23144 0.0
C1541 C 0.82814 0.27426 0.23954 0.0
C1542 C 0.83013 0.29178 0.2241 0.0
C1543 C 0.82353 0.31223 0.23183 0.0
C1544 C 0.81511 0.31538 0.25504 0.0
C1545 C 0.81336 0.29809 0.27058 0.0
C1546 C 0.81991 0.2776 0.26291 0.0
C1547 C 0.93282 0.21209 0.24484 0.0
C1548 C 0.93283 0.19029 0.25049 0.0
C1549 C 0.90987 0.22309 0.24257 0.0
C1550 C 0.88662 0.21231 0.24553 0.0
C1551 C 0.88674 0.19116 0.25388 0.0
C1552 C 0.90978 0.18015 0.2562 0.0
C1553 C 0.86321 0.22171 0.23517 0.0
C1554 C 0.85479 0.24173 0.24308 0.0
C1555 C 0.85099 0.212 0.21555 0.0
C1556 C 0.85986 0.1915 0.20541 0.0
C1557 C 0.84379 0.17353 0.20561 0.0
C1558 C 0.85232 0.15406 0.1965 0.0
C1559 C 0.87684 0.15243 0.18705 0.0
C1560 C 0.89283 0.17031 0.18654 0.0
C1561 C 0.88436 0.18983 0.19554 0.0
H1562 H 0.88344 0.13733 0.18008 0.0
H1563 H 0.81002 0.33123 0.261 0.0
H1564 H 0.7876 0.71192 0.64384 0.0
H1565 H 0.82206 0.7309 0.66429 0.0
H1566 H 0.77271 0.74195 0.72403 0.0
H1567 H 0.73813 0.72278 0.70369 0.0
H1568 H 0.80239 0.7788 0.70837 0.0
H1569 H 0.81342 0.70608 0.73181 0.0
H1570 H 0.81685 0.66726 0.72539 0.0
H1571 H 0.88304 0.67699 0.68203 0.0
H1572 H 0.87978 0.71591 0.68788 0.0
H1573 H 0.91354 0.8235 0.76244 0.0
H1574 H 0.87539 0.80063 0.75996 0.0
H1575 H 0.90804 0.76793 0.69995 0.0
H1576 H 0.94607 0.78994 0.70298 0.0
H1577 H 0.88287 0.74045 0.72545 0.0
H1578 H 0.86684 0.8118 0.69442 0.0
H1579 H 0.86362 0.85097 0.69775 0.0
H1580 H 0.8075 0.84415 0.75255 0.0
H1581 H 0.81063 0.8049 0.7497 0.0
C1582 C 0.78403 0.71857 0.66123 0.0
C1583 C 0.76023 0.71585 0.6722 0.0
C1584 C 0.80374 0.72928 0.67294 0.0
C1585 C 0.79995 0.73765 0.69574 0.0
C1586 C 0.776 0.73553 0.70649 0.0
C1587 C 0.75636 0.72453 0.6949 0.0
C1588 C 0.82129 0.74837 0.70825 0.0
C1589 C 0.81982 0.77037 0.71263 0.0
C1590 C 0.84405 0.73736 0.71356 0.0
C1591 C 0.84625 0.71393 0.71017 0.0
C1592 C 0.8286 0.69996 0.72076 0.0
C1593 C 0.83053 0.67793 0.71725 0.0
C1594 C 0.85013 0.66967 0.70329 0.0
C1595 C 0.86787 0.68341 0.69285 0.0
C1596 C 0.866 0.70546 0.69628 0.0
C1597 C 0.91283 0.8109 0.74933 0.0
C1598 C 0.93273 0.80846 0.73294 0.0
C1599 C 0.89093 0.79804 0.74769 0.0
C1600 C 0.88865 0.78274 0.72951 0.0
C1601 C 0.90924 0.77956 0.71412 0.0
C1602 C 0.93097 0.79227 0.71579 0.0
C1603 C 0.86441 0.77111 0.72477 0.0
C1604 C 0.86526 0.74886 0.72181 0.0
C1605 C 0.8412 0.78194 0.72046 0.0
C1606 C 0.8392 0.80547 0.72206 0.0
C1607 C 0.85394 0.81867 0.70727 0.0
C1608 C 0.85211 0.84087 0.70906 0.0
C1609 C 0.83542 0.85004 0.72541 0.0
C1610 C 0.82046 0.83702 0.73994 0.0
C1611 C 0.82225 0.81481 0.73825 0.0
H1612 H 0.83404 0.86723 0.72677 0.0
H1613 H 0.85159 0.65261 0.70059 0.0
H1614 H 0.7585 0.77651 0.1964 0.0
H1615 H 0.72376 0.76009 0.21929 0.0
H1616 H 0.67079 0.77557 0.16358 0.0
H1617 H 0.70535 0.79177 0.14063 0.0
H1618 H 0.65309 0.78515 0.21072 0.0
H1619 H 0.69255 0.72747 0.16559 0.0
H1620 H 0.72885 0.70489 0.15394 0.0
H1621 H 0.73928 0.68589 0.22631 0.0
H1622 H 0.70322 0.70862 0.23842 0.0
H1623 H 0.54776 0.718 0.20597 0.0
H1624 H 0.58543 0.74056 0.20332 0.0
H1625 H 0.62154 0.70376 0.25841 0.0
H1626 H 0.58385 0.68048 0.26029 0.0
H1627 H 0.65188 0.70664 0.22213 0.0
H1628 H 0.60714 0.7579 0.26642 0.0
H1629 H 0.57114 0.78029 0.27913 0.0
H1630 H 0.57118 0.81194 0.21175 0.0
H1631 H 0.60693 0.78952 0.19846 0.0
C1632 C 0.7394 0.77647 0.18915 0.0
C1633 C 0.73461 0.78526 0.16668 0.0
C1634 C 0.71963 0.7671 0.2022 0.0
C1635 C 0.69474 0.76664 0.19311 0.0
C1636 C 0.68986 0.77583 0.17093 0.0
C1637 C 0.70963 0.78489 0.15776 0.0
C1638 C 0.67376 0.75587 0.20606 0.0
C1639 C 0.65272 0.76799 0.21326 0.0
C1640 C 0.67385 0.73362 0.21026 0.0
C1641 C 0.69544 0.71995 0.20295 0.0
C1642 C 0.70274 0.71864 0.17904 0.0
C1643 C 0.72323 0.70578 0.17235 0.0
C1644 C 0.73642 0.69403 0.18939 0.0
C1645 C 0.72909 0.69505 0.21314 0.0
C1646 C 0.70863 0.70791 0.21993 0.0
C1647 C 0.56345 0.71508 0.218 0.0
C1648 C 0.56276 0.69767 0.23362 0.0
C1649 C 0.58498 0.7281 0.21659 0.0
C1650 C 0.60634 0.7241 0.23086 0.0
C1651 C 0.60523 0.7073 0.24736 0.0
C1652 C 0.58356 0.6942 0.24874 0.0
C1653 C 0.63054 0.7358 0.22611 0.0
C1654 C 0.65231 0.72388 0.22035 0.0
C1655 C 0.63121 0.75829 0.22353 0.0
C1656 C 0.60971 0.77193 0.23141 0.0
C1657 C 0.59938 0.76953 0.25424 0.0
C1658 C 0.57902 0.78225 0.26156 0.0
C1659 C 0.56887 0.79752 0.24625 0.0
C1660 C 0.57908 0.80012 0.2236 0.0
C1661 C 0.59943 0.78743 0.21617 0.0
H1662 H 0.5531 0.80735 0.25196 0.0
H1663 H 0.75227 0.68407 0.18417 0.0
H1664 H 0.28972 0.78377 0.35927 0.0
H1665 H 0.32169 0.76231 0.33889 0.0
H1666 H 0.27773 0.76557 0.27446 0.0
H1667 H 0.24503 0.78598 0.29502 0.0
H1668 H 0.29421 0.72733 0.27922 0.0
H1669 H 0.33327 0.79581 0.28287 0.0
H1670 H 0.34847 0.82914 0.30145 0.0
H1671 H 0.39954 0.79341 0.34548 0.0
H1672 H 0.38439 0.75983 0.32739 0.0
H1673 H 0.43738 0.70332 0.24038 0.0
H1674 H 0.40085 0.7276 0.24371 0.0
H1675 H 0.3614 0.68104 0.28652 0.0
H1676 H 0.39747 0.65692 0.28301 0.0
H1677 H 0.38628 0.74485 0.28425 0.0
H1678 H 0.30018 0.68602 0.28519 0.0
H1679 H 0.28356 0.6555 0.26217 0.0
H1680 H 0.32527 0.67671 0.20116 0.0
H1681 H 0.34244 0.70712 0.22387 0.0
C1682 C 0.28668 0.77974 0.34084 0.0
C1683 C 0.26477 0.78675 0.32882 0.0
C1684 C 0.30519 0.7677 0.32908 0.0
C1685 C 0.30242 0.76262 0.30497 0.0
C1686 C 0.28045 0.76939 0.29301 0.0
C1687 C 0.26184 0.78127 0.30478 0.0
C1688 C 0.32205 0.74974 0.29241 0.0
C1689 C 0.31432 0.73125 0.28025 0.0
C1690 C 0.34828 0.75512 0.29301 0.0
C1691 C 0.35756 0.77529 0.30388 0.0
C1692 C 0.34762 0.79505 0.29662 0.0
C1693 C 0.35624 0.81399 0.30705 0.0
C1694 C 0.37492 0.81339 0.32466 0.0
C1695 C 0.38506 0.79385 0.33184 0.0
C1696 C 0.37649 0.77486 0.32148 0.0
C1697 C 0.42043 0.69798 0.24961 0.0
C1698 C 0.42016 0.67823 0.26135 0.0
C1699 C 0.39969 0.71193 0.25174 0.0
C1700 C 0.3783 0.70618 0.26537 0.0
C1701 C 0.37741 0.6858 0.27563 0.0
C1702 C 0.39811 0.67201 0.27367 0.0
C1703 C 0.35846 0.72212 0.27174 0.0
C1704 C 0.36613 0.74113 0.2829 0.0
C1705 C 0.33214 0.71752 0.26972 0.0
C1706 C 0.32269 0.69876 0.25628 0.0
C1707 C 0.30588 0.6841 0.26688 0.0
C1708 C 0.29644 0.66678 0.25391 0.0
C1709 C 0.30348 0.66408 0.23025 0.0
C1710 C 0.32008 0.67865 0.21955 0.0
C1711 C 0.32978 0.69587 0.2325 0.0
H1712 H 0.296 0.65075 0.22017 0.0
H1713 H 0.38157 0.82807 0.33272 0.0
H1714 H 0.20374 0.7122 0.85916 0.0
H1715 H 0.17052 0.72912 0.83541 0.0
H1716 H 0.2258 0.74444 0.78152 0.0
H1717 H 0.25928 0.72751 0.80532 0.0
H1718 H 0.19298 0.77874 0.79347 0.0
H1719 H 0.18684 0.70595 0.76956 0.0
H1720 H 0.18443 0.66701 0.77544 0.0
H1721 H 0.11406 0.67415 0.8133 0.0
H1722 H 0.11622 0.71318 0.80798 0.0
H1723 H 0.08332 0.82146 0.73644 0.0
H1724 H 0.12163 0.79904 0.73863 0.0
H1725 H 0.08828 0.76424 0.79692 0.0
H1726 H 0.05014 0.7859 0.79421 0.0
H1727 H 0.11529 0.73804 0.77131 0.0
H1728 H 0.12692 0.80985 0.80387 0.0
H1729 H 0.12922 0.8491 0.80091 0.0
H1730 H 0.18906 0.84394 0.74943 0.0
H1731 H 0.18677 0.80463 0.75179 0.0
C1732 C 0.20888 0.71932 0.84235 0.0
C1733 C 0.2341 0.71855 0.8341 0.0
C1734 C 0.18985 0.72881 0.82871 0.0
C1735 C 0.19567 0.7378 0.80659 0.0
C1736 C 0.22092 0.73747 0.79847 0.0
C1737 C 0.23995 0.72775 0.81203 0.0
C1738 C 0.1752 0.74774 0.79231 0.0
C1739 C 0.17623 0.76978 0.78807 0.0
C1740 C 0.15332 0.73604 0.78542 0.0
C1741 C 0.15177 0.71253 0.78845 0.0
C1742 C 0.17092 0.69924 0.77927 0.0
C1743 C 0.16959 0.67714 0.78249 0.0
C1744 C 0.14912 0.66811 0.79475 0.0
C1745 C 0.1299 0.68117 0.80379 0.0
C1746 C 0.13115 0.70328 0.80064 0.0
C1747 C 0.08389 0.80848 0.74906 0.0
C1748 C 0.06384 0.80544 0.7652 0.0
C1749 C 0.10587 0.79585 0.75051 0.0
C1750 C 0.10805 0.78017 0.76824 0.0
C1751 C 0.08717 0.7762 0.78311 0.0
C1752 C 0.06537 0.78869 0.78163 0.0
C1753 C 0.13251 0.76924 0.77347 0.0
C1754 C 0.13232 0.74694 0.77601 0.0
C1755 C 0.15503 0.78075 0.77909 0.0
C1756 C 0.15641 0.80434 0.77773 0.0
C1757 C 0.14041 0.8171 0.79178 0.0
C1758 C 0.14172 0.83935 0.79021 0.0
C1759 C 0.15919 0.84901 0.7749 0.0
C1760 C 0.17546 0.83644 0.7612 0.0
C1761 C 0.17415 0.81418 0.76262 0.0
H1762 H 0.16018 0.86623 0.77371 0.0
H1763 H 0.14813 0.651 0.79724 0.0
loop_
_geom_bond_atom_site_label_1
_geom_bond_atom_site_label_2
_geom_bond_distance
_geom_bond_site_symmetry_2
_ccdc_geom_bond_type
C0 C1 1.391 . S
C0 C4 1.391 . S
C0 H42 0.948 . S
C1 C0 1.391 . S
C1 C2 1.391 . S
C2 C1 1.391 . S
C2 H58 0.947 . S
C2 C59 1.392 . S
C3 C4 1.391 . S
C3 C7 1.397 . S
C3 C59 1.419 . S
C4 C0 1.391 . S
C4 C3 1.391 . S
C4 C5 1.399 . S
C5 C4 1.399 . S
C5 C8 1.396 . S
C5 C17 1.453 . S
C5 C18 1.684 . S
H6 C30 0.948 . S
C7 C3 1.397 . S
C7 C8 1.394 . S
C7 C26 1.723 . S
C8 C5 1.396 . S
C8 C7 1.394 . S
C8 C38 1.723 . S
H9 C32 0.947 . S
H10 C33 0.948 . S
H11 C39 0.982 . S
H12 C40 0.979 . S
H13 C40 0.980 . S
H14 C40 0.983 . S
H15 C39 0.979 . S
H16 C39 0.977 . S
C17 C5 1.453 . S
C17 H46 0.982 . S
C17 H47 0.979 . S
C17 H48 0.977 . S
C18 C5 1.684 . S
C18 H43 0.979 . S
C18 H44 0.980 . S
C18 H45 0.983 . S
C19 C20 1.391 . S
C19 C24 1.391 . S
C19 H49 0.948 . S
C20 C19 1.391 . S
C20 C21 1.391 . S
C21 C20 1.391 . S
C21 C22 1.392 . S
C21 H50 0.947 . S
C22 C21 1.392 . S
C22 C23 1.419 . S
C22 H51 0.948 . S
C23 C22 1.419 . S
C23 C24 1.391 . S
C23 C27 1.397 . S
C24 C19 1.391 . S
C24 C23 1.391 . S
C24 C25 1.399 . S
C25 C24 1.399 . S
C25 C26 1.396 . S
C25 C28 1.453 . S
C25 C29 1.684 . S
C26 C7 1.723 . S
C26 C25 1.396 . S
C26 C27 1.394 . S
C27 C23 1.397 . S
C27 C26 1.394 . S
C27 C37 1.723 . S
C28 C25 1.453 . S
C28 H52 0.982 . S
C28 H53 0.979 . S
C28 H54 0.977 . S
C29 C25 1.684 . S
C29 H55 0.979 . S
C29 H56 0.980 . S
C29 H57 0.983 . S
C30 H6 0.948 . S
C30 C31 1.391 . S
C30 C35 1.391 . S
C31 C30 1.391 . S
C31 C32 1.391 . S
C32 H9 0.947 . S
C32 C31 1.391 . S
C32 C33 1.392 . S
C33 H10 0.948 . S
C33 C32 1.392 . S
C33 C34 1.419 . S
C34 C33 1.419 . S
C34 C35 1.391 . S
C34 C38 1.397 . S
C35 C30 1.391 . S
C35 C34 1.391 . S
C35 C36 1.399 . S
C36 C35 1.399 . S
C36 C37 1.396 . S
C36 C39 1.453 . S
C36 C40 1.684 . S
C37 C27 1.723 . S
C37 C36 1.396 . S
C37 C38 1.394 . S
C38 C8 1.723 . S
C38 C34 1.397 . S
C38 C37 1.394 . S
C39 H11 0.982 . S
C39 H15 0.979 . S
C39 H16 0.977 . S
C39 C36 1.453 . S
C40 H12 0.979 . S
C40 H13 0.980 . S
C40 H14 0.983 . S
C40 C36 1.684 . S
H41 C59 0.948 . S
H42 C0 0.948 . S
H43 C18 0.979 . S
H44 C18 0.980 . S
H45 C18 0.983 . S
H46 C17 0.982 . S
H47 C17 0.979 . S
H48 C17 0.977 . S
H49 C19 0.948 . S
H50 C21 0.947 . S
H51 C22 0.948 . S
H52 C28 0.982 . S
H53 C28 0.979 . S
H54 C28 0.977 . S
H55 C29 0.979 . S
H56 C29 0.980 . S
H57 C29 0.983 . S
H58 C2 0.947 . S
C59 C2 1.392 . S
C59 C3 1.419 . S
C59 H41 0.948 . S
C60 C61 1.391 . S
C60 C64 1.391 . S
C60 H102 0.948 . S
C61 C60 1.391 . S
C61 C62 1.391 . S
C62 C61 1.391 . S
C62 H118 0.947 . S
C62 C119 1.392 . S
C63 C64 1.391 . S
C63 C67 1.397 . S
C63 C119 1.419 . S
C64 C60 1.391 . S
C64 C63 1.391 . S
C64 C65 1.399 . S
C65 C64 1.399 . S
C65 C68 1.396 . S
C65 C77 1.453 . S
C65 C78 1.684 . S
H66 C90 0.948 . S
C67 C63 1.397 . S
C67 C68 1.394 . S
C67 C86 1.723 . S
C68 C65 1.396 . S
C68 C67 1.394 . S
C68 C98 1.723 . S
H69 C92 0.947 . S
H70 C93 0.948 . S
H71 C99 0.982 . S
H72 C100 0.979 . S
H73 C100 0.980 . S
H74 C100 0.983 . S
H75 C99 0.979 . S
H76 C99 0.977 . S
C77 C65 1.453 . S
C77 H106 0.982 . S
C77 H107 0.979 . S
C77 H108 0.977 . S
C78 C65 1.684 . S
C78 H103 0.979 . S
C78 H104 0.980 . S
C78 H105 0.983 . S
C79 C80 1.391 . S
C79 C84 1.391 . S
C79 H109 0.948 . S
C80 C79 1.391 . S
C80 C81 1.391 . S
C81 C80 1.391 . S
C81 C82 1.392 . S
C81 H110 0.947 . S
C82 C81 1.392 . S
C82 C83 1.419 . S
C82 H111 0.948 . S
C83 C82 1.419 . S
C83 C84 1.391 . S
C83 C87 1.397 . S
C84 C79 1.391 . S
C84 C83 1.391 . S
C84 C85 1.399 . S
C85 C84 1.399 . S
C85 C86 1.396 . S
C85 C88 1.453 . S
C85 C89 1.684 . S
C86 C67 1.723 . S
C86 C85 1.396 . S
C86 C87 1.394 . S
C87 C83 1.397 . S
C87 C86 1.394 . S
C87 C97 1.723 . S
C88 C85 1.453 . S
C88 H112 0.982 . S
C88 H113 0.979 . S
C88 H114 0.977 . S
C89 C85 1.684 . S
C89 H115 0.979 . S
C89 H116 0.980 . S
C89 H117 0.983 . S
C90 H66 0.948 . S
C90 C91 1.391 . S
C90 C95 1.391 . S
C91 C90 1.391 . S
C91 C92 1.391 . S
C92 H69 0.947 . S
C92 C91 1.391 . S
C92 C93 1.392 . S
C93 H70 0.948 . S
C93 C92 1.392 . S
C93 C94 1.419 . S
C94 C93 1.419 . S
C94 C95 1.391 . S
C94 C98 1.397 . S
C95 C90 1.391 . S
C95 C94 1.391 . S
C95 C96 1.399 . S
C96 C95 1.399 . S
C96 C97 1.396 . S
C96 C99 1.453 . S
C96 C100 1.684 . S
C97 C87 1.723 . S
C97 C96 1.396 . S
C97 C98 1.394 . S
C98 C68 1.723 . S
C98 C94 1.397 . S
C98 C97 1.394 . S
C99 H71 0.982 . S
C99 H75 0.979 . S
C99 H76 0.977 . S
C99 C96 1.453 . S
C100 H72 0.979 . S
C100 H73 0.980 . S
C100 H74 0.983 . S
C100 C96 1.684 . S
H101 C119 0.948 . S
H102 C60 0.948 . S
H103 C78 0.979 . S
H104 C78 0.980 . S
H105 C78 0.983 . S
H106 C77 0.982 . S
H107 C77 0.979 . S
H108 C77 0.977 . S
H109 C79 0.948 . S
H110 C81 0.947 . S
H111 C82 0.948 . S
H112 C88 0.982 . S
H113 C88 0.979 . S
H114 C88 0.977 . S
H115 C89 0.979 . S
H116 C89 0.980 . S
H117 C89 0.983 . S
H118 C62 0.947 . S
C119 C62 1.392 . S
C119 C63 1.419 . S
C119 H101 0.948 . S
C120 C121 1.391 . S
C120 C124 1.391 . S
C120 H162 0.948 . S
C121 C120 1.391 . S
C121 C122 1.391 . S
C122 C121 1.391 . S
C122 H178 0.947 . S
C122 C179 1.392 . S
C123 C124 1.391 . S
C123 C127 1.397 . S
C123 C179 1.419 . S
C124 C120 1.391 . S
C124 C123 1.391 . S
C124 C125 1.399 . S
C125 C124 1.399 . S
C125 C128 1.396 . S
C125 C137 1.453 . S
C125 C138 1.684 . S
H126 C150 0.948 . S
C127 C123 1.397 . S
C127 C128 1.394 . S
C127 C146 1.723 . S
C128 C125 1.396 . S
C128 C127 1.394 . S
C128 C158 1.723 . S
H129 C152 0.947 . S
H130 C153 0.948 . S
H131 C159 0.982 . S
H132 C160 0.979 . S
H133 C160 0.980 . S
H134 C160 0.983 . S
H135 C159 0.979 . S
H136 C159 0.977 . S
C137 C125 1.453 . S
C137 H166 0.982 . S
C137 H167 0.979 . S
C137 H168 0.977 . S
C138 C125 1.684 . S
C138 H163 0.979 . S
C138 H164 0.980 . S
C138 H165 0.983 . S
C139 C140 1.391 . S
C139 C144 1.391 . S
C139 H169 0.948 . S
C140 C139 1.391 . S
C140 C141 1.391 . S
C141 C140 1.391 . S
C141 C142 1.392 . S
C141 H170 0.947 . S
C142 C141 1.392 . S
C142 C143 1.419 . S
C142 H171 0.948 . S
C143 C142 1.419 . S
C143 C144 1.391 . S
C143 C147 1.397 . S
C144 C139 1.391 . S
C144 C143 1.391 . S
C144 C145 1.399 . S
C145 C144 1.399 . S
C145 C146 1.396 . S
C145 C148 1.453 . S
C145 C149 1.684 . S
C146 C127 1.723 . S
C146 C145 1.396 . S
C146 C147 1.394 . S
C147 C143 1.397 . S
C147 C146 1.394 . S
C147 C157 1.723 . S
C148 C145 1.453 . S
C148 H172 0.982 . S
C148 H173 0.979 . S
C148 H174 0.977 . S
C149 C145 1.684 . S
C149 H175 0.979 . S
C149 H176 0.980 . S
C149 H177 0.983 . S
C150 H126 0.948 . S
C150 C151 1.391 . S
C150 C155 1.391 . S
C151 C150 1.391 . S
C151 C152 1.391 . S
C152 H129 0.947 . S
C152 C151 1.391 . S
C152 C153 1.392 . S
C153 H130 0.948 . S
C153 C152 1.392 . S
C153 C154 1.419 . S
C154 C153 1.419 . S
C154 C155 1.391 . S
C154 C158 1.397 . S
C155 C150 1.391 . S
C155 C154 1.391 . S
C155 C156 1.399 . S
C156 C155 1.399 . S
C156 C157 1.396 . S
C156 C159 1.453 . S
C156 C160 1.684 . S
C157 C147 1.723 . S
C157 C156 1.396 . S
C157 C158 1.394 . S
C158 C128 1.723 . S
C158 C154 1.397 . S
C158 C157 1.394 . S
C159 H131 0.982 . S
C159 H135 0.979 . S
C159 H136 0.977 . S
C159 C156 1.453 . S
C160 H132 0.979 . S
C160 H133 0.980 . S
C160 H134 0.983 . S
C160 C156 1.684 . S
H161 C179 0.948 . S
H162 C120 0.948 . S
H163 C138 0.979 . S
H164 C138 0.980 . S
H165 C138 0.983 . S
H166 C137 0.982 . S
H167 C137 0.979 . S
H168 C137 0.977 . S
H169 C139 0.948 . S
H170 C141 0.947 . S
H171 C142 0.948 . S
H172 C148 0.982 . S
H173 C148 0.979 . S
H174 C148 0.977 . S
H175 C149 0.979 . S
H176 C149 0.980 . S
H177 C149 0.983 . S
H178 C122 0.947 . S
C179 C122 1.392 . S
C179 C123 1.419 . S
C179 H161 0.948 . S
C180 C181 1.391 . S
C180 C184 1.391 . S
C180 H222 0.948 . S
C181 C180 1.391 . S
C181 C182 1.391 . S
C182 C181 1.391 . S
C182 H238 0.947 . S
C182 C239 1.392 . S
C183 C184 1.391 . S
C183 C187 1.397 . S
C183 C239 1.419 . S
C184 C180 1.391 . S
C184 C183 1.391 . S
C184 C185 1.399 . S
C185 C184 1.399 . S
C185 C188 1.396 . S
C185 C197 1.453 . S
C185 C198 1.684 . S
H186 C210 0.948 . S
C187 C183 1.397 . S
C187 C188 1.394 . S
C187 C206 1.723 . S
C188 C185 1.396 . S
C188 C187 1.394 . S
C188 C218 1.723 . S
H189 C212 0.947 . S
H190 C213 0.948 . S
H191 C219 0.982 . S
H192 C220 0.979 . S
H193 C220 0.980 . S
H194 C220 0.983 . S
H195 C219 0.979 . S
H196 C219 0.977 . S
C197 C185 1.453 . S
C197 H226 0.982 . S
C197 H227 0.979 . S
C197 H228 0.977 . S
C198 C185 1.684 . S
C198 H223 0.979 . S
C198 H224 0.980 . S
C198 H225 0.983 . S
C199 C200 1.391 . S
C199 C204 1.391 . S
C199 H229 0.948 . S
C200 C199 1.391 . S
C200 C201 1.391 . S
C201 C200 1.391 . S
C201 C202 1.392 . S
C201 H230 0.947 . S
C202 C201 1.392 . S
C202 C203 1.419 . S
C202 H231 0.948 . S
C203 C202 1.419 . S
C203 C204 1.391 . S
C203 C207 1.397 . S
C204 C199 1.391 . S
C204 C203 1.391 . S
C204 C205 1.399 . S
C205 C204 1.399 . S
C205 C206 1.396 . S
C205 C208 1.453 . S
C205 C209 1.684 . S
C206 C187 1.723 . S
C206 C205 1.396 . S
C206 C207 1.394 . S
C207 C203 1.397 . S
C207 C206 1.394 . S
C207 C217 1.723 . S
C208 C205 1.453 . S
C208 H232 0.982 . S
C208 H233 0.979 . S
C208 H234 0.977 . S
C209 C205 1.684 . S
C209 H235 0.979 . S
C209 H236 0.980 . S
C209 H237 0.983 . S
C210 H186 0.948 . S
C210 C211 1.391 . S
C210 C215 1.391 . S
C211 C210 1.391 . S
C211 C212 1.391 . S
C212 H189 0.947 . S
C212 C211 1.391 . S
C212 C213 1.392 . S
C213 H190 0.948 . S
C213 C212 1.392 . S
C213 C214 1.419 . S
C214 C213 1.419 . S
C214 C215 1.391 . S
C214 C218 1.397 . S
C215 C210 1.391 . S
C215 C214 1.391 . S
C215 C216 1.399 . S
C216 C215 1.399 . S
C216 C217 1.396 . S
C216 C219 1.453 . S
C216 C220 1.684 . S
C217 C207 1.723 . S
C217 C216 1.396 . S
C217 C218 1.394 . S
C218 C188 1.723 . S
C218 C214 1.397 . S
C218 C217 1.394 . S
C219 H191 0.982 . S
C219 H195 0.979 . S
C219 H196 0.977 . S
C219 C216 1.453 . S
C220 H192 0.979 . S
C220 H193 0.980 . S
C220 H194 0.983 . S
C220 C216 1.684 . S
H221 C239 0.948 . S
H222 C180 0.948 . S
H223 C198 0.979 . S
H224 C198 0.980 . S
H225 C198 0.983 . S
H226 C197 0.982 . S
H227 C197 0.979 . S
H228 C197 0.977 . S
H229 C199 0.948 . S
H230 C201 0.947 . S
H231 C202 0.948 . S
H232 C208 0.982 . S
H233 C208 0.979 . S
H234 C208 0.977 . S
H235 C209 0.979 . S
H236 C209 0.980 . S
H237 C209 0.983 . S
H238 C182 0.947 . S
C239 C182 1.392 . S
C239 C183 1.419 . S
C239 H221 0.948 . S
C240 C241 1.391 . S
C240 C244 1.391 . S
C240 H282 0.948 . S
C241 C240 1.391 . S
C241 C242 1.391 . S
C242 C241 1.391 . S
C242 H298 0.947 . S
C242 C299 1.392 . S
C243 C244 1.391 . S
C243 C247 1.397 . S
C243 C299 1.419 . S
C244 C240 1.391 . S
C244 C243 1.391 . S
C244 C245 1.399 . S
C245 C244 1.399 . S
C245 C248 1.396 . S
C245 C257 1.453 . S
C245 C258 1.684 . S
H246 C270 0.948 . S
C247 C243 1.397 . S
C247 C248 1.394 . S
C247 C266 1.723 . S
C248 C245 1.396 . S
C248 C247 1.394 . S
C248 C278 1.723 . S
H249 C272 0.947 . S
H250 C273 0.948 . S
H251 C279 0.982 . S
H252 C280 0.979 . S
H253 C280 0.980 . S
H254 C280 0.983 . S
H255 C279 0.979 . S
H256 C279 0.977 . S
C257 C245 1.453 . S
C257 H286 0.982 . S
C257 H287 0.979 . S
C257 H288 0.977 . S
C258 C245 1.684 . S
C258 H283 0.979 . S
C258 H284 0.980 . S
C258 H285 0.983 . S
C259 C260 1.391 . S
C259 C264 1.391 . S
C259 H289 0.948 . S
C260 C259 1.391 . S
C260 C261 1.391 . S
C261 C260 1.391 . S
C261 C262 1.392 . S
C261 H290 0.947 . S
C262 C261 1.392 . S
C262 C263 1.419 . S
C262 H291 0.948 . S
C263 C262 1.419 . S
C263 C264 1.391 . S
C263 C267 1.397 . S
C264 C259 1.391 . S
C264 C263 1.391 . S
C264 C265 1.399 . S
C265 C264 1.399 . S
C265 C266 1.396 . S
C265 C268 1.453 . S
C265 C269 1.684 . S
C266 C247 1.723 . S
C266 C265 1.396 . S
C266 C267 1.394 . S
C267 C263 1.397 . S
C267 C266 1.394 . S
C267 C277 1.723 . S
C268 C265 1.453 . S
C268 H292 0.982 . S
C268 H293 0.979 . S
C268 H294 0.977 . S
C269 C265 1.684 . S
C269 H295 0.979 . S
C269 H296 0.980 . S
C269 H297 0.983 . S
C270 H246 0.948 . S
C270 C271 1.391 . S
C270 C275 1.391 . S
C271 C270 1.391 . S
C271 C272 1.391 . S
C272 H249 0.947 . S
C272 C271 1.391 . S
C272 C273 1.392 . S
C273 H250 0.948 . S
C273 C272 1.392 . S
C273 C274 1.419 . S
C274 C273 1.419 . S
C274 C275 1.391 . S
C274 C278 1.397 . S
C275 C270 1.391 . S
C275 C274 1.391 . S
C275 C276 1.399 . S
C276 C275 1.399 . S
C276 C277 1.396 . S
C276 C279 1.453 . S
C276 C280 1.684 . S
C277 C267 1.723 . S
C277 C276 1.396 . S
C277 C278 1.394 . S
C278 C248 1.723 . S
C278 C274 1.397 . S
C278 C277 1.394 . S
C279 H251 0.982 . S
C279 H255 0.979 . S
C279 H256 0.977 . S
C279 C276 1.453 . S
C280 H252 0.979 . S
C280 H253 0.980 . S
C280 H254 0.983 . S
C280 C276 1.684 . S
H281 C299 0.948 . S
H282 C240 0.948 . S
H283 C258 0.979 . S
H284 C258 0.980 . S
H285 C258 0.983 . S
H286 C257 0.982 . S
H287 C257 0.979 . S
H288 C257 0.977 . S
H289 C259 0.948 . S
H290 C261 0.947 . S
H291 C262 0.948 . S
H292 C268 0.982 . S
H293 C268 0.979 . S
H294 C268 0.977 . S
H295 C269 0.979 . S
H296 C269 0.980 . S
H297 C269 0.983 . S
H298 C242 0.947 . S
C299 C242 1.392 . S
C299 C243 1.419 . S
C299 H281 0.948 . S
C300 C301 1.391 . S
C300 C304 1.391 . S
C300 H342 0.948 . S
C301 C300 1.391 . S
C301 C302 1.391 . S
C302 C301 1.391 . S
C302 H358 0.947 . S
C302 C359 1.392 . S
C303 C304 1.391 . S
C303 C307 1.397 . S
C303 C359 1.419 . S
C304 C300 1.391 . S
C304 C303 1.391 . S
C304 C305 1.399 . S
C305 C304 1.399 . S
C305 C308 1.396 . S
C305 C317 1.453 . S
C305 C318 1.684 . S
H306 C330 0.948 . S
C307 C303 1.397 . S
C307 C308 1.394 . S
C307 C326 1.723 . S
C308 C305 1.396 . S
C308 C307 1.394 . S
C308 C338 1.723 . S
H309 C332 0.947 . S
H310 C333 0.948 . S
H311 C339 0.982 . S
H312 C340 0.979 . S
H313 C340 0.980 . S
H314 C340 0.983 . S
H315 C339 0.979 . S
H316 C339 0.977 . S
C317 C305 1.453 . S
C317 H346 0.982 . S
C317 H347 0.979 . S
C317 H348 0.977 . S
C318 C305 1.684 . S
C318 H343 0.979 . S
C318 H344 0.980 . S
C318 H345 0.983 . S
C319 C320 1.391 . S
C319 C324 1.391 . S
C319 H349 0.948 . S
C320 C319 1.391 . S
C320 C321 1.391 . S
C321 C320 1.391 . S
C321 C322 1.392 . S
C321 H350 0.947 . S
C322 C321 1.392 . S
C322 C323 1.419 . S
C322 H351 0.948 . S
C323 C322 1.419 . S
C323 C324 1.391 . S
C323 C327 1.397 . S
C324 C319 1.391 . S
C324 C323 1.391 . S
C324 C325 1.399 . S
C325 C324 1.399 . S
C325 C326 1.396 . S
C325 C328 1.453 . S
C325 C329 1.684 . S
C326 C307 1.723 . S
C326 C325 1.396 . S
C326 C327 1.394 . S
C327 C323 1.397 . S
C327 C326 1.394 . S
C327 C337 1.723 . S
C328 C325 1.453 . S
C328 H352 0.982 . S
C328 H353 0.979 . S
C328 H354 0.977 . S
C329 C325 1.684 . S
C329 H355 0.979 . S
C329 H356 0.980 . S
C329 H357 0.983 . S
C330 H306 0.948 . S
C330 C331 1.391 . S
C330 C335 1.391 . S
C331 C330 1.391 . S
C331 C332 1.391 . S
C332 H309 0.947 . S
C332 C331 1.391 . S
C332 C333 1.392 . S
C333 H310 0.948 . S
C333 C332 1.392 . S
C333 C334 1.419 . S
C334 C333 1.419 . S
C334 C335 1.391 . S
C334 C338 1.397 . S
C335 C330 1.391 . S
C335 C334 1.391 . S
C335 C336 1.399 . S
C336 C335 1.399 . S
C336 C337 1.396 . S
C336 C339 1.453 . S
C336 C340 1.684 . S
C337 C327 1.723 . S
C337 C336 1.396 . S
C337 C338 1.394 . S
C338 C308 1.723 . S
C338 C334 1.397 . S
C338 C337 1.394 . S
C339 H311 0.982 . S
C339 H315 0.979 . S
C339 H316 0.977 . S
C339 C336 1.453 . S
C340 H312 0.979 . S
C340 H313 0.980 . S
C340 H314 0.983 . S
C340 C336 1.684 . S
H341 C359 0.948 . S
H342 C300 0.948 . S
H343 C318 0.979 . S
H344 C318 0.980 . S
H345 C318 0.983 . S
H346 C317 0.982 . S
H347 C317 0.979 . S
H348 C317 0.977 . S
H349 C319 0.948 . S
H350 C321 0.947 . S
H351 C322 0.948 . S
H352 C328 0.982 . S
H353 C328 0.979 . S
H354 C328 0.977 . S
H355 C329 0.979 . S
H356 C329 0.980 . S
H357 C329 0.983 . S
H358 C302 0.947 . S
C359 C302 1.392 . S
C359 C303 1.419 . S
C359 H341 0.948 . S
C360 C361 1.391 . S
C360 C364 1.391 . S
C360 H402 0.948 . S
C361 C360 1.391 . S
C361 C362 1.391 . S
C362 C361 1.391 . S
C362 H418 0.947 . S
C362 C419 1.392 . S
C363 C364 1.391 . S
C363 C367 1.397 . S
C363 C419 1.419 . S
C364 C360 1.391 . S
C364 C363 1.391 . S
C364 C365 1.399 . S
C365 C364 1.399 . S
C365 C368 1.396 . S
C365 C377 1.453 . S
C365 C378 1.684 . S
H366 C390 0.948 . S
C367 C363 1.397 . S
C367 C368 1.394 . S
C367 C386 1.723 . S
C368 C365 1.396 . S
C368 C367 1.394 . S
C368 C398 1.723 . S
H369 C392 0.947 . S
H370 C393 0.948 . S
H371 C399 0.982 . S
H372 C400 0.979 . S
H373 C400 0.980 . S
H374 C400 0.983 . S
H375 C399 0.979 . S
H376 C399 0.977 . S
C377 C365 1.453 . S
C377 H406 0.982 . S
C377 H407 0.979 . S
C377 H408 0.977 . S
C378 C365 1.684 . S
C378 H403 0.979 . S
C378 H404 0.980 . S
C378 H405 0.983 . S
C379 C380 1.391 . S
C379 C384 1.391 . S
C379 H409 0.948 . S
C380 C379 1.391 . S
C380 C381 1.391 . S
C381 C380 1.391 . S
C381 C382 1.392 . S
C381 H410 0.947 . S
C382 C381 1.392 . S
C382 C383 1.419 . S
C382 H411 0.948 . S
C383 C382 1.419 . S
C383 C384 1.391 . S
C383 C387 1.397 . S
C384 C379 1.391 . S
C384 C383 1.391 . S
C384 C385 1.399 . S
C385 C384 1.399 . S
C385 C386 1.396 . S
C385 C388 1.453 . S
C385 C389 1.684 . S
C386 C367 1.723 . S
C386 C385 1.396 . S
C386 C387 1.394 . S
C387 C383 1.397 . S
C387 C386 1.394 . S
C387 C397 1.723 . S
C388 C385 1.453 . S
C388 H412 0.982 . S
C388 H413 0.979 . S
C388 H414 0.977 . S
C389 C385 1.684 . S
C389 H415 0.979 . S
C389 H416 0.980 . S
C389 H417 0.983 . S
C390 H366 0.948 . S
C390 C391 1.391 . S
C390 C395 1.391 . S
C391 C390 1.391 . S
C391 C392 1.391 . S
C392 H369 0.947 . S
C392 C391 1.391 . S
C392 C393 1.392 . S
C393 H370 0.948 . S
C393 C392 1.392 . S
C393 C394 1.419 . S
C394 C393 1.419 . S
C394 C395 1.391 . S
C394 C398 1.397 . S
C395 C390 1.391 . S
C395 C394 1.391 . S
C395 C396 1.399 . S
C396 C395 1.399 . S
C396 C397 1.396 . S
C396 C399 1.453 . S
C396 C400 1.684 . S
C397 C387 1.723 . S
C397 C396 1.396 . S
C397 C398 1.394 . S
C398 C368 1.723 . S
C398 C394 1.397 . S
C398 C397 1.394 . S
C399 H371 0.982 . S
C399 H375 0.979 . S
C399 H376 0.977 . S
C399 C396 1.453 . S
C400 H372 0.979 . S
C400 H373 0.980 . S
C400 H374 0.983 . S
C400 C396 1.684 . S
H401 C419 0.948 . S
H402 C360 0.948 . S
H403 C378 0.979 . S
H404 C378 0.980 . S
H405 C378 0.983 . S
H406 C377 0.982 . S
H407 C377 0.979 . S
H408 C377 0.977 . S
H409 C379 0.948 . S
H410 C381 0.947 . S
H411 C382 0.948 . S
H412 C388 0.982 . S
H413 C388 0.979 . S
H414 C388 0.977 . S
H415 C389 0.979 . S
H416 C389 0.980 . S
H417 C389 0.983 . S
H418 C362 0.947 . S
C419 C362 1.392 . S
C419 C363 1.419 . S
C419 H401 0.948 . S
C420 C421 1.391 . S
C420 C424 1.391 . S
C420 H462 0.948 . S
C421 C420 1.391 . S
C421 C422 1.391 . S
C422 C421 1.391 . S
C422 H478 0.947 . S
C422 C479 1.392 . S
C423 C424 1.391 . S
C423 C427 1.397 . S
C423 C479 1.419 . S
C424 C420 1.391 . S
C424 C423 1.391 . S
C424 C425 1.399 . S
C425 C424 1.399 . S
C425 C428 1.396 . S
C425 C437 1.453 . S
C425 C438 1.684 . S
H426 C450 0.948 . S
C427 C423 1.397 . S
C427 C428 1.394 . S
C427 C446 1.723 . S
C428 C425 1.396 . S
C428 C427 1.394 . S
C428 C458 1.723 . S
H429 C452 0.947 . S
H430 C453 0.948 . S
H431 C459 0.982 . S
H432 C460 0.979 . S
H433 C460 0.980 . S
H434 C460 0.983 . S
H435 C459 0.979 . S
H436 C459 0.977 . S
C437 C425 1.453 . S
C437 H466 0.982 . S
C437 H467 0.979 . S
C437 H468 0.977 . S
C438 C425 1.684 . S
C438 H463 0.979 . S
C438 H464 0.980 . S
C438 H465 0.983 . S
C439 C440 1.391 . S
C439 C444 1.391 . S
C439 H469 0.948 . S
C440 C439 1.391 . S
C440 C441 1.391 . S
C441 C440 1.391 . S
C441 C442 1.392 . S
C441 H470 0.947 . S
C442 C441 1.392 . S
C442 C443 1.419 . S
C442 H471 0.948 . S
C443 C442 1.419 . S
C443 C444 1.391 . S
C443 C447 1.397 . S
C444 C439 1.391 . S
C444 C443 1.391 . S
C444 C445 1.399 . S
C445 C444 1.399 . S
C445 C446 1.396 . S
C445 C448 1.453 . S
C445 C449 1.684 . S
C446 C427 1.723 . S
C446 C445 1.396 . S
C446 C447 1.394 . S
C447 C443 1.397 . S
C447 C446 1.394 . S
C447 C457 1.723 . S
C448 C445 1.453 . S
C448 H472 0.982 . S
C448 H473 0.979 . S
C448 H474 0.977 . S
C449 C445 1.684 . S
C449 H475 0.979 . S
C449 H476 0.980 . S
C449 H477 0.983 . S
C450 H426 0.948 . S
C450 C451 1.391 . S
C450 C455 1.391 . S
C451 C450 1.391 . S
C451 C452 1.391 . S
C452 H429 0.947 . S
C452 C451 1.391 . S
C452 C453 1.392 . S
C453 H430 0.948 . S
C453 C452 1.392 . S
C453 C454 1.419 . S
C454 C453 1.419 . S
C454 C455 1.391 . S
C454 C458 1.397 . S
C455 C450 1.391 . S
C455 C454 1.391 . S
C455 C456 1.399 . S
C456 C455 1.399 . S
C456 C457 1.396 . S
C456 C459 1.453 . S
C456 C460 1.684 . S
C457 C447 1.723 . S
C457 C456 1.396 . S
C457 C458 1.394 . S
C458 C428 1.723 . S
C458 C454 1.397 . S
C458 C457 1.394 . S
C459 H431 0.982 . S
C459 H435 0.979 . S
C459 H436 0.977 . S
C459 C456 1.453 . S
C460 H432 0.979 . S
C460 H433 0.980 . S
C460 H434 0.983 . S
C460 C456 1.684 . S
H461 C479 0.948 . S
H462 C420 0.948 . S
H463 C438 0.979 . S
H464 C438 0.980 . S
H465 C438 0.983 . S
H466 C437 0.982 . S
H467 C437 0.979 . S
H468 C437 0.977 . S
H469 C439 0.948 . S
H470 C441 0.947 . S
H471 C442 0.948 . S
H472 C448 0.982 . S
H473 C448 0.979 . S
H474 C448 0.977 . S
H475 C449 0.979 . S
H476 C449 0.980 . S
H477 C449 0.983 . S
H478 C422 0.947 . S
C479 C422 1.392 . S
C479 C423 1.419 . S
C479 H461 0.948 . S
Zn480 O486 1.920 1_455 S
Zn480 O492 1.898 . S
Zn480 O495 1.905 . S
Zn481 O489 1.905 1_655 S
Zn481 O490 1.898 . S
Zn481 O498 1.920 . S
Zn482 O485 2.080 1_455 S
Zn482 O488 2.114 . S
Zn482 O491 2.120 1_455 S
Zn482 O493 2.120 . S
Zn482 O494 2.114 . S
Zn482 O497 2.080 1_455 S
C483 O488 1.166 . S
C483 O489 1.182 . S
C484 O490 1.167 . S
C484 O491 1.299 . S
O485 Zn482 2.080 1_655 S
O485 C499 1.305 . S
O486 Zn480 1.920 1_655 S
O486 C499 1.234 . S
C487 O492 1.167 . S
C487 O493 1.299 . S
O488 Zn482 2.114 . S
O488 C483 1.166 . S
O489 Zn481 1.905 1_455 S
O489 C483 1.182 . S
O490 Zn481 1.898 . S
O490 C484 1.167 . S
O491 Zn482 2.120 1_655 S
O491 C484 1.299 . S
O492 Zn480 1.898 . S
O492 C487 1.167 . S
O493 Zn482 2.120 . S
O493 C487 1.299 . S
O494 Zn482 2.114 . S
O494 C496 1.166 . S
O495 Zn480 1.905 . S
O495 C496 1.182 . S
C496 O494 1.166 . S
C496 O495 1.182 . S
O497 Zn482 2.080 1_655 S
O497 C500 1.305 . S
O498 Zn481 1.920 . S
O498 C500 1.234 . S
C499 O485 1.305 . S
C499 O486 1.234 . S
C500 O497 1.305 . S
C500 O498 1.234 . S
Zn501 O507 1.920 . S
Zn501 O513 1.898 . S
Zn501 O516 1.905 . S
Zn502 O510 1.905 . S
Zn502 O511 1.898 . S
Zn502 O519 1.920 . S
Zn503 O506 2.080 . S
Zn503 O509 2.114 . S
Zn503 O512 2.120 . S
Zn503 O514 2.120 . S
Zn503 O515 2.114 . S
Zn503 O518 2.080 . S
C504 O509 1.166 . S
C504 O510 1.182 . S
C505 O511 1.167 . S
C505 O512 1.299 . S
O506 Zn503 2.080 . S
O506 C520 1.305 . S
O507 Zn501 1.920 . S
O507 C520 1.234 . S
C508 O513 1.167 . S
C508 O514 1.299 . S
O509 Zn503 2.114 . S
O509 C504 1.166 . S
O510 Zn502 1.905 . S
O510 C504 1.182 . S
O511 Zn502 1.898 . S
O511 C505 1.167 . S
O512 Zn503 2.120 . S
O512 C505 1.299 . S
O513 Zn501 1.898 . S
O513 C508 1.167 . S
O514 Zn503 2.120 . S
O514 C508 1.299 . S
O515 Zn503 2.114 . S
O515 C517 1.166 . S
O516 Zn501 1.905 . S
O516 C517 1.182 . S
C517 O515 1.166 . S
C517 O516 1.182 . S
O518 Zn503 2.080 . S
O518 C521 1.305 . S
O519 Zn502 1.920 . S
O519 C521 1.234 . S
C520 O506 1.305 . S
C520 O507 1.234 . S
C521 O518 1.305 . S
C521 O519 1.234 . S
Zn522 O528 1.920 . S
Zn522 O534 1.898 . S
Zn522 O537 1.905 1_455 S
Zn523 O531 1.905 . S
Zn523 O532 1.898 . S
Zn523 O540 1.920 1_655 S
Zn524 O527 2.080 . S
Zn524 O530 2.114 1_455 S
Zn524 O533 2.120 1_455 S
Zn524 O535 2.120 . S
Zn524 O536 2.114 1_455 S
Zn524 O539 2.080 . S
C525 O530 1.166 . S
C525 O531 1.182 . S
C526 O532 1.167 . S
C526 O533 1.299 . S
O527 Zn524 2.080 . S
O527 C541 1.305 . S
O528 Zn522 1.920 . S
O528 C541 1.234 . S
C529 O534 1.167 . S
C529 O535 1.299 . S
O530 Zn524 2.114 1_655 S
O530 C525 1.166 . S
O531 Zn523 1.905 . S
O531 C525 1.182 . S
O532 Zn523 1.898 . S
O532 C526 1.167 . S
O533 Zn524 2.120 1_655 S
O533 C526 1.299 . S
O534 Zn522 1.898 . S
O534 C529 1.167 . S
O535 Zn524 2.120 . S
O535 C529 1.299 . S
O536 Zn524 2.114 1_655 S
O536 C538 1.166 . S
O537 Zn522 1.905 1_655 S
O537 C538 1.182 . S
C538 O536 1.166 . S
C538 O537 1.182 . S
O539 Zn524 2.080 . S
O539 C542 1.305 . S
O540 Zn523 1.920 1_455 S
O540 C542 1.234 . S
C541 O527 1.305 . S
C541 O528 1.234 . S
C542 O539 1.305 . S
C542 O540 1.234 . S
Zn543 O549 1.920 . S
Zn543 O555 1.898 . S
Zn543 O558 1.905 . S
Zn544 O552 1.905 . S
Zn544 O553 1.898 . S
Zn544 O561 1.920 . S
Zn545 O548 2.080 . S
Zn545 O551 2.114 . S
Zn545 O554 2.120 . S
Zn545 O556 2.120 . S
Zn545 O557 2.114 . S
Zn545 O560 2.080 . S
C546 O551 1.166 . S
C546 O552 1.182 . S
C547 O553 1.167 . S
C547 O554 1.299 . S
O548 Zn545 2.080 . S
O548 C562 1.305 . S
O549 Zn543 1.920 . S
O549 C562 1.234 . S
C550 O555 1.167 . S
C550 O556 1.299 . S
O551 Zn545 2.114 . S
O551 C546 1.166 . S
O552 Zn544 1.905 . S
O552 C546 1.182 . S
O553 Zn544 1.898 . S
O553 C547 1.167 . S
O554 Zn545 2.120 . S
O554 C547 1.299 . S
O555 Zn543 1.898 . S
O555 C550 1.167 . S
O556 Zn545 2.120 . S
O556 C550 1.299 . S
O557 Zn545 2.114 . S
O557 C559 1.166 . S
O558 Zn543 1.905 . S
O558 C559 1.182 . S
C559 O557 1.166 . S
C559 O558 1.182 . S
O560 Zn545 2.080 . S
O560 C563 1.305 . S
O561 Zn544 1.920 . S
O561 C563 1.234 . S
C562 O548 1.305 . S
C562 O549 1.234 . S
C563 O560 1.305 . S
C563 O561 1.234 . S
H564 C582 0.951 . S
H565 C584 0.951 . S
H566 C586 0.950 . S
H567 C587 0.950 . S
H568 C589 0.950 . S
H569 C592 0.982 . S
H570 C593 0.950 . S
H571 C595 0.950 . S
H572 C596 0.950 . S
H573 C597 0.951 . S
H574 C599 0.951 . S
H575 C601 0.950 . S
H576 C602 0.950 . S
H577 C604 0.950 . S
H578 C607 0.950 . S
H579 C608 0.950 . S
H580 C610 0.950 . S
H581 C611 0.932 1_565 S
C582 H564 0.951 . S
C582 C583 1.366 . S
C582 C584 1.388 . S
C583 C582 1.366 . S
C583 C587 1.385 . S
C584 H565 0.951 . S
C584 C582 1.388 . S
C584 C585 1.366 . S
C585 C584 1.366 . S
C585 C586 1.414 . S
C585 C588 1.499 . S
C586 H566 0.950 . S
C586 C585 1.414 . S
C586 C587 1.374 . S
C587 H567 0.950 . S
C587 C583 1.385 . S
C587 C586 1.374 . S
C588 C585 1.499 . S
C588 C589 1.373 . S
C588 C590 1.389 1_565 S
C589 H568 0.950 . S
C589 C588 1.373 . S
C589 C605 1.377 1_565 S
C590 C588 1.389 1_545 S
C590 C591 1.524 . S
C590 C604 1.377 . S
C591 C590 1.524 . S
C591 C592 1.364 1_545 S
C591 C596 1.363 . S
C592 H569 0.982 . S
C592 C591 1.364 1_565 S
C592 C593 1.337 . S
C593 H570 0.950 . S
C593 C592 1.337 . S
C593 C594 1.287 1_565 S
C594 C593 1.287 1_545 S
C594 C595 1.524 . S
C594 H613 0.913 . S
C595 H571 0.950 . S
C595 C594 1.524 . S
C595 C596 1.415 . S
C596 H572 0.950 . S
C596 C591 1.363 . S
C596 C595 1.415 . S
C597 H573 0.951 . S
C597 C598 1.366 . S
C597 C599 1.388 . S
C598 C597 1.366 . S
C598 C602 1.385 . S
C599 H574 0.951 . S
C599 C597 1.388 . S
C599 C600 1.366 . S
C600 C599 1.366 . S
C600 C601 1.414 . S
C600 C603 1.499 . S
C601 H575 0.950 . S
C601 C600 1.414 . S
C601 C602 1.374 . S
C602 H576 0.950 . S
C602 C598 1.385 . S
C602 C601 1.374 . S
C603 C600 1.499 . S
C603 C604 1.373 . S
C603 C605 1.389 . S
C604 H577 0.950 . S
C604 C590 1.377 . S
C604 C603 1.373 . S
C605 C589 1.377 1_545 S
C605 C603 1.389 . S
C605 C606 1.524 . S
C606 C605 1.524 . S
C606 C607 1.397 . S
C606 C611 1.382 . S
C607 H578 0.950 . S
C607 C606 1.397 . S
C607 C608 1.334 . S
C608 H579 0.950 . S
C608 C607 1.334 . S
C608 C609 1.287 . S
C609 C608 1.287 . S
C609 C610 1.524 1_545 S
C609 H612 0.999 . S
C610 H580 0.950 . S
C610 C609 1.524 1_565 S
C610 C611 1.414 1_565 S
C611 H581 0.932 1_545 S
C611 C606 1.382 . S
C611 C610 1.414 1_545 S
H612 C609 0.999 . S
H613 C594 0.913 . S
H614 C632 0.951 . S
H615 C634 0.951 . S
H616 C636 0.950 . S
H617 C637 0.950 . S
H618 C639 0.950 . S
H619 C642 0.950 . S
H620 C643 0.950 . S
H621 C645 0.950 . S
H622 C646 0.950 . S
H623 C647 0.951 . S
H624 C649 0.951 . S
H625 C651 0.950 . S
H626 C652 0.950 . S
H627 C654 0.950 . S
H628 C657 0.950 . S
H629 C658 0.950 . S
H630 C660 0.950 . S
H631 C661 0.950 . S
C632 H614 0.951 . S
C632 C633 1.366 . S
C632 C634 1.388 . S
C633 C632 1.366 . S
C633 C637 1.385 . S
C634 H615 0.951 . S
C634 C632 1.388 . S
C634 C635 1.366 . S
C635 C634 1.366 . S
C635 C636 1.414 . S
C635 C638 1.499 . S
C636 H616 0.950 . S
C636 C635 1.414 . S
C636 C637 1.374 . S
C637 H617 0.950 . S
C637 C633 1.385 . S
C637 C636 1.374 . S
C638 C635 1.499 . S
C638 C639 1.373 . S
C638 C640 1.389 . S
C639 H618 0.950 . S
C639 C638 1.373 . S
C639 C655 1.377 . S
C640 C638 1.389 . S
C640 C641 1.524 . S
C640 C654 1.377 . S
C641 C640 1.524 . S
C641 C642 1.397 . S
C641 C646 1.363 . S
C642 H619 0.950 . S
C642 C641 1.397 . S
C642 C643 1.334 . S
C643 H620 0.950 . S
C643 C642 1.334 . S
C643 C644 1.287 . S
C644 C643 1.287 . S
C644 C645 1.524 . S
C644 H663 0.913 . S
C645 H621 0.950 . S
C645 C644 1.524 . S
C645 C646 1.415 . S
C646 H622 0.950 . S
C646 C641 1.363 . S
C646 C645 1.415 . S
C647 H623 0.951 . S
C647 C648 1.366 . S
C647 C649 1.388 . S
C648 C647 1.366 . S
C648 C652 1.385 . S
C649 H624 0.951 . S
C649 C647 1.388 . S
C649 C650 1.366 . S
C650 C649 1.366 . S
C650 C651 1.414 . S
C650 C653 1.499 . S
C651 H625 0.950 . S
C651 C650 1.414 . S
C651 C652 1.374 . S
C652 H626 0.950 . S
C652 C648 1.385 . S
C652 C651 1.374 . S
C653 C650 1.499 . S
C653 C654 1.373 . S
C653 C655 1.389 . S
C654 H627 0.950 . S
C654 C640 1.377 . S
C654 C653 1.373 . S
C655 C639 1.377 . S
C655 C653 1.389 . S
C655 C656 1.524 . S
C656 C655 1.524 . S
C656 C657 1.397 . S
C656 C661 1.363 . S
C657 H628 0.950 . S
C657 C656 1.397 . S
C657 C658 1.334 . S
C658 H629 0.950 . S
C658 C657 1.334 . S
C658 C659 1.287 . S
C659 C658 1.287 . S
C659 C660 1.524 . S
C659 H662 0.999 . S
C660 H630 0.950 . S
C660 C659 1.524 . S
C660 C661 1.415 . S
C661 H631 0.950 . S
C661 C656 1.363 . S
C661 C660 1.415 . S
H662 C659 0.999 . S
H663 C644 0.913 . S
H664 C682 0.951 . S
H665 C684 0.951 . S
H666 C686 0.950 . S
H667 C687 0.950 . S
H668 C689 0.950 . S
H669 C692 0.950 . S
H670 C693 0.950 . S
H671 C695 0.950 . S
H672 C696 0.950 . S
H673 C697 0.951 . S
H674 C699 0.951 . S
H675 C701 0.950 . S
H676 C702 0.950 . S
H677 C704 0.950 . S
H678 C707 0.950 . S
H679 C708 0.950 . S
H680 C710 0.950 . S
H681 C711 0.950 . S
C682 H664 0.951 . S
C682 C683 1.366 . S
C682 C684 1.388 . S
C683 C682 1.366 . S
C683 C687 1.385 . S
C684 H665 0.951 . S
C684 C682 1.388 . S
C684 C685 1.366 . S
C685 C684 1.366 . S
C685 C686 1.414 . S
C685 C688 1.499 . S
C686 H666 0.950 . S
C686 C685 1.414 . S
C686 C687 1.374 . S
C687 H667 0.950 . S
C687 C683 1.385 . S
C687 C686 1.374 . S
C688 C685 1.499 . S
C688 C689 1.373 . S
C688 C690 1.389 . S
C689 H668 0.950 . S
C689 C688 1.373 . S
C689 C705 1.377 . S
C690 C688 1.389 . S
C690 C691 1.524 . S
C690 C704 1.377 . S
C691 C690 1.524 . S
C691 C692 1.397 . S
C691 C696 1.363 . S
C692 H669 0.950 . S
C692 C691 1.397 . S
C692 C693 1.334 . S
C693 H670 0.950 . S
C693 C692 1.334 . S
C693 C694 1.287 . S
C694 C693 1.287 . S
C694 C695 1.524 . S
C694 H713 0.913 . S
C695 H671 0.950 . S
C695 C694 1.524 . S
C695 C696 1.415 . S
C696 H672 0.950 . S
C696 C691 1.363 . S
C696 C695 1.415 . S
C697 H673 0.951 . S
C697 C698 1.366 . S
C697 C699 1.388 . S
C698 C697 1.366 . S
C698 C702 1.385 . S
C699 H674 0.951 . S
C699 C697 1.388 . S
C699 C700 1.366 . S
C700 C699 1.366 . S
C700 C701 1.414 . S
C700 C703 1.499 . S
C701 H675 0.950 . S
C701 C700 1.414 . S
C701 C702 1.374 . S
C702 H676 0.950 . S
C702 C698 1.385 . S
C702 C701 1.374 . S
C703 C700 1.499 . S
C703 C704 1.373 . S
C703 C705 1.389 . S
C704 H677 0.950 . S
C704 C690 1.377 . S
C704 C703 1.373 . S
C705 C689 1.377 . S
C705 C703 1.389 . S
C705 C706 1.524 . S
C706 C705 1.524 . S
C706 C707 1.397 . S
C706 C711 1.363 . S
C707 H678 0.950 . S
C707 C706 1.397 . S
C707 C708 1.334 . S
C708 H679 0.950 . S
C708 C707 1.334 . S
C708 C709 1.287 . S
C709 C708 1.287 . S
C709 C710 1.524 . S
C709 H712 0.999 . S
C710 H680 0.950 . S
C710 C709 1.524 . S
C710 C711 1.415 . S
C711 H681 0.950 . S
C711 C706 1.363 . S
C711 C710 1.415 . S
H712 C709 0.999 . S
H713 C694 0.913 . S
H714 C732 0.951 . S
H715 C734 0.951 . S
H716 C736 0.950 . S
H717 C737 0.950 . S
H718 C739 0.950 . S
H719 C742 0.950 . S
H720 C743 0.950 . S
H721 C745 0.950 . S
H722 C746 0.950 . S
H723 C747 0.951 . S
H724 C749 0.951 . S
H725 C751 0.950 . S
H726 C752 0.950 . S
H727 C754 0.950 . S
H728 C757 0.950 . S
H729 C758 0.950 . S
H730 C760 0.950 . S
H731 C761 0.950 1_565 S
C732 H714 0.951 . S
C732 C733 1.366 . S
C732 C734 1.388 . S
C733 C732 1.366 . S
C733 C737 1.385 . S
C734 H715 0.951 . S
C734 C732 1.388 . S
C734 C735 1.366 . S
C735 C734 1.366 . S
C735 C736 1.414 . S
C735 C738 1.499 . S
C736 H716 0.950 . S
C736 C735 1.414 . S
C736 C737 1.374 . S
C737 H717 0.950 . S
C737 C733 1.385 . S
C737 C736 1.374 . S
C738 C735 1.499 . S
C738 C739 1.373 . S
C738 C740 1.389 1_565 S
C739 H718 0.950 . S
C739 C738 1.373 . S
C739 C755 1.377 1_565 S
C740 C738 1.389 1_545 S
C740 C741 1.524 . S
C740 C754 1.377 . S
C741 C740 1.524 . S
C741 C742 1.397 1_545 S
C741 C746 1.363 . S
C742 H719 0.950 . S
C742 C741 1.397 1_565 S
C742 C743 1.334 . S
C743 H720 0.950 . S
C743 C742 1.334 . S
C743 C744 1.287 . S
C744 C743 1.287 . S
C744 C745 1.524 1_565 S
C744 H763 0.913 . S
C745 H721 0.950 . S
C745 C744 1.524 1_545 S
C745 C746 1.415 . S
C746 H722 0.950 . S
C746 C741 1.363 . S
C746 C745 1.415 . S
C747 H723 0.951 . S
C747 C748 1.366 . S
C747 C749 1.388 . S
C748 C747 1.366 . S
C748 C752 1.385 . S
C749 H724 0.951 . S
C749 C747 1.388 . S
C749 C750 1.366 . S
C750 C749 1.366 . S
C750 C751 1.414 . S
C750 C753 1.499 . S
C751 H725 0.950 . S
C751 C750 1.414 . S
C751 C752 1.374 . S
C752 H726 0.950 . S
C752 C748 1.385 . S
C752 C751 1.374 . S
C753 C750 1.499 . S
C753 C754 1.373 . S
C753 C755 1.389 . S
C754 H727 0.950 . S
C754 C740 1.377 . S
C754 C753 1.373 . S
C755 C739 1.377 1_545 S
C755 C753 1.389 . S
C755 C756 1.524 . S
C756 C755 1.524 . S
C756 C757 1.397 . S
C756 C761 1.363 . S
C757 H728 0.950 . S
C757 C756 1.397 . S
C757 C758 1.334 . S
C758 H729 0.950 . S
C758 C757 1.334 . S
C758 C759 1.287 . S
C759 C758 1.287 . S
C759 C760 1.524 . S
C759 H762 0.999 . S
C760 H730 0.950 . S
C760 C759 1.524 . S
C760 C761 1.415 . S
C761 H731 0.950 1_545 S
C761 C756 1.363 . S
C761 C760 1.415 . S
H762 C759 0.999 . S
H763 C744 0.913 . S
H764 C782 0.951 . S
H765 C784 0.951 . S
H766 C786 0.950 . S
H767 C787 0.950 . S
H768 C789 0.950 . S
H769 C792 0.950 . S
H770 C793 0.950 . S
H771 C795 0.950 . S
H772 C796 0.950 . S
H773 C797 0.951 . S
H774 C799 0.951 . S
H775 C801 0.950 . S
H776 C802 0.950 . S
H777 C804 0.950 . S
H778 C807 0.950 . S
H779 C808 0.950 . S
H780 C810 0.950 . S
H781 C811 0.950 . S
C782 H764 0.951 . S
C782 C783 1.366 . S
C782 C784 1.388 . S
C783 C782 1.366 . S
C783 C787 1.385 . S
C784 H765 0.951 . S
C784 C782 1.388 . S
C784 C785 1.366 . S
C785 C784 1.366 . S
C785 C786 1.414 . S
C785 C788 1.499 . S
C786 H766 0.950 . S
C786 C785 1.414 . S
C786 C787 1.374 . S
C787 H767 0.950 . S
C787 C783 1.385 . S
C787 C786 1.374 . S
C788 C785 1.499 . S
C788 C789 1.373 1_545 S
C788 C790 1.389 1_545 S
C789 H768 0.950 . S
C789 C788 1.373 1_565 S
C789 C805 1.377 . S
C790 C788 1.389 1_565 S
C790 C791 1.524 1_565 S
C790 C804 1.377 . S
C791 C790 1.524 1_545 S
C791 C792 1.397 . S
C791 C796 1.363 . S
C792 H769 0.950 . S
C792 C791 1.397 . S
C792 C793 1.334 . S
C793 H770 0.950 . S
C793 C792 1.334 . S
C793 C794 1.287 . S
C794 C793 1.287 . S
C794 C795 1.524 . S
C794 H813 0.913 . S
C795 H771 0.950 . S
C795 C794 1.524 . S
C795 C796 1.415 . S
C796 H772 0.950 . S
C796 C791 1.363 . S
C796 C795 1.415 . S
C797 H773 0.951 . S
C797 C798 1.366 . S
C797 C799 1.388 . S
C798 C797 1.366 . S
C798 C802 1.385 . S
C799 H774 0.951 . S
C799 C797 1.388 . S
C799 C800 1.366 . S
C800 C799 1.366 . S
C800 C801 1.414 . S
C800 C803 1.499 . S
C801 H775 0.950 . S
C801 C800 1.414 . S
C801 C802 1.374 . S
C802 H776 0.950 . S
C802 C798 1.385 . S
C802 C801 1.374 . S
C803 C800 1.499 . S
C803 C804 1.373 . S
C803 C805 1.389 . S
C804 H777 0.950 . S
C804 C790 1.377 . S
C804 C803 1.373 . S
C805 C789 1.377 . S
C805 C803 1.389 . S
C805 C806 1.524 . S
C806 C805 1.524 . S
C806 C807 1.397 . S
C806 C811 1.363 . S
C807 H778 0.950 . S
C807 C806 1.397 . S
C807 C808 1.334 . S
C808 H779 0.950 . S
C808 C807 1.334 . S
C808 C809 1.287 . S
C809 C808 1.287 . S
C809 C810 1.524 . S
C809 H812 0.999 . S
C810 H780 0.950 . S
C810 C809 1.524 . S
C810 C811 1.415 . S
C811 H781 0.950 . S
C811 C806 1.363 . S
C811 C810 1.415 . S
H812 C809 0.999 . S
H813 C794 0.913 . S
H814 C832 0.951 . S
H815 C834 0.951 . S
H816 C836 0.950 . S
H817 C837 0.950 . S
H818 C839 0.950 . S
H819 C842 0.950 . S
H820 C843 0.950 . S
H821 C845 0.950 . S
H822 C846 0.950 . S
H823 C847 0.951 . S
H824 C849 0.951 . S
H825 C851 0.950 . S
H826 C852 0.950 . S
H827 C854 0.950 . S
H828 C857 0.950 . S
H829 C858 0.950 . S
H830 C860 0.950 . S
H831 C861 0.950 . S
C832 H814 0.951 . S
C832 C833 1.366 . S
C832 C834 1.388 . S
C833 C832 1.366 . S
C833 C837 1.385 . S
C834 H815 0.951 . S
C834 C832 1.388 . S
C834 C835 1.366 . S
C835 C834 1.366 . S
C835 C836 1.414 . S
C835 C838 1.499 . S
C836 H816 0.950 . S
C836 C835 1.414 . S
C836 C837 1.374 . S
C837 H817 0.950 . S
C837 C833 1.385 . S
C837 C836 1.374 . S
C838 C835 1.499 . S
C838 C839 1.373 . S
C838 C840 1.389 . S
C839 H818 0.950 . S
C839 C838 1.373 . S
C839 C855 1.377 . S
C840 C838 1.389 . S
C840 C841 1.524 . S
C840 C854 1.377 . S
C841 C840 1.524 . S
C841 C842 1.397 . S
C841 C846 1.363 . S
C842 H819 0.950 . S
C842 C841 1.397 . S
C842 C843 1.334 . S
C843 H820 0.950 . S
C843 C842 1.334 . S
C843 C844 1.287 . S
C844 C843 1.287 . S
C844 C845 1.524 . S
C844 H863 0.913 . S
C845 H821 0.950 . S
C845 C844 1.524 . S
C845 C846 1.415 . S
C846 H822 0.950 . S
C846 C841 1.363 . S
C846 C845 1.415 . S
C847 H823 0.951 . S
C847 C848 1.366 . S
C847 C849 1.388 . S
C848 C847 1.366 . S
C848 C852 1.385 . S
C849 H824 0.951 . S
C849 C847 1.388 . S
C849 C850 1.366 . S
C850 C849 1.366 . S
C850 C851 1.414 . S
C850 C853 1.499 . S
C851 H825 0.950 . S
C851 C850 1.414 . S
C851 C852 1.374 . S
C852 H826 0.950 . S
C852 C848 1.385 . S
C852 C851 1.374 . S
C853 C850 1.499 . S
C853 C854 1.373 . S
C853 C855 1.389 . S
C854 H827 0.950 . S
C854 C840 1.377 . S
C854 C853 1.373 . S
C855 C839 1.377 . S
C855 C853 1.389 . S
C855 C856 1.524 . S
C856 C855 1.524 . S
C856 C857 1.397 . S
C856 C861 1.363 . S
C857 H828 0.950 . S
C857 C856 1.397 . S
C857 C858 1.334 . S
C858 H829 0.950 . S
C858 C857 1.334 . S
C858 C859 1.287 . S
C859 C858 1.287 . S
C859 C860 1.524 . S
C859 H862 0.999 . S
C860 H830 0.950 . S
C860 C859 1.524 . S
C860 C861 1.415 . S
C861 H831 0.950 . S
C861 C856 1.363 . S
C861 C860 1.415 . S
H862 C859 0.999 . S
H863 C844 0.913 . S
H864 C882 0.951 . S
H865 C884 0.951 . S
H866 C886 0.950 . S
H867 C887 0.950 . S
H868 C889 0.950 . S
H869 C892 0.950 . S
H870 C893 0.950 . S
H871 C895 0.950 . S
H872 C896 0.950 . S
H873 C897 0.951 . S
H874 C899 0.951 . S
H875 C901 0.950 . S
H876 C902 0.950 . S
H877 C904 0.950 . S
H878 C907 0.950 . S
H879 C908 0.950 . S
H880 C910 0.950 . S
H881 C911 0.950 . S
C882 H864 0.951 . S
C882 C883 1.366 . S
C882 C884 1.388 . S
C883 C882 1.366 . S
C883 C887 1.385 . S
C884 H865 0.951 . S
C884 C882 1.388 . S
C884 C885 1.366 . S
C885 C884 1.366 . S
C885 C886 1.414 . S
C885 C888 1.499 . S
C886 H866 0.950 . S
C886 C885 1.414 . S
C886 C887 1.374 . S
C887 H867 0.950 . S
C887 C883 1.385 . S
C887 C886 1.374 . S
C888 C885 1.499 . S
C888 C889 1.373 . S
C888 C890 1.389 . S
C889 H868 0.950 . S
C889 C888 1.373 . S
C889 C905 1.377 . S
C890 C888 1.389 . S
C890 C891 1.524 . S
C890 C904 1.377 . S
C891 C890 1.524 . S
C891 C892 1.397 . S
C891 C896 1.363 . S
C892 H869 0.950 . S
C892 C891 1.397 . S
C892 C893 1.334 . S
C893 H870 0.950 . S
C893 C892 1.334 . S
C893 C894 1.287 . S
C894 C893 1.287 . S
C894 C895 1.524 . S
C894 H913 0.913 . S
C895 H871 0.950 . S
C895 C894 1.524 . S
C895 C896 1.415 . S
C896 H872 0.950 . S
C896 C891 1.363 . S
C896 C895 1.415 . S
C897 H873 0.951 . S
C897 C898 1.366 . S
C897 C899 1.388 . S
C898 C897 1.366 . S
C898 C902 1.385 . S
C899 H874 0.951 . S
C899 C897 1.388 . S
C899 C900 1.366 . S
C900 C899 1.366 . S
C900 C901 1.414 . S
C900 C903 1.499 . S
C901 H875 0.950 . S
C901 C900 1.414 . S
C901 C902 1.374 . S
C902 H876 0.950 . S
C902 C898 1.385 . S
C902 C901 1.374 . S
C903 C900 1.499 . S
C903 C904 1.373 . S
C903 C905 1.389 . S
C904 H877 0.950 . S
C904 C890 1.377 . S
C904 C903 1.373 . S
C905 C889 1.377 . S
C905 C903 1.389 . S
C905 C906 1.524 . S
C906 C905 1.524 . S
C906 C907 1.397 . S
C906 C911 1.363 . S
C907 H878 0.950 . S
C907 C906 1.397 . S
C907 C908 1.334 . S
C908 H879 0.950 . S
C908 C907 1.334 . S
C908 C909 1.287 . S
C909 C908 1.287 . S
C909 C910 1.524 . S
C909 H912 0.999 . S
C910 H880 0.950 . S
C910 C909 1.524 . S
C910 C911 1.415 . S
C911 H881 0.950 . S
C911 C906 1.363 . S
C911 C910 1.415 . S
H912 C909 0.999 . S
H913 C894 0.913 . S
H914 C932 0.951 . S
H915 C934 0.951 . S
H916 C936 0.950 . S
H917 C937 0.950 . S
H918 C939 0.950 . S
H919 C942 0.950 . S
H920 C943 0.950 . S
H921 C945 0.950 . S
H922 C946 0.950 . S
H923 C947 0.951 . S
H924 C949 0.951 . S
H925 C951 0.950 . S
H926 C952 0.950 . S
H927 C954 0.950 . S
H928 C957 0.950 . S
H929 C958 0.950 . S
H930 C960 0.924 1_545 S
H931 C961 0.934 1_545 S
C932 H914 0.951 . S
C932 C933 1.366 . S
C932 C934 1.388 . S
C933 C932 1.366 . S
C933 C937 1.385 . S
C934 H915 0.951 . S
C934 C932 1.388 . S
C934 C935 1.366 . S
C935 C934 1.366 . S
C935 C936 1.414 . S
C935 C938 1.499 . S
C936 H916 0.950 . S
C936 C935 1.414 . S
C936 C937 1.374 . S
C937 H917 0.950 . S
C937 C933 1.385 . S
C937 C936 1.374 . S
C938 C935 1.499 . S
C938 C939 1.373 . S
C938 C940 1.389 1_545 S
C939 H918 0.950 . S
C939 C938 1.373 . S
C939 C955 1.377 1_545 S
C940 C938 1.389 1_565 S
C940 C941 1.524 . S
C940 C954 1.377 . S
C941 C940 1.524 . S
C941 C942 1.397 1_565 S
C941 C946 1.363 . S
C942 H919 0.950 . S
C942 C941 1.397 1_545 S
C942 C943 1.334 . S
C943 H920 0.950 . S
C943 C942 1.334 . S
C943 C944 1.287 1_545 S
C944 C943 1.287 1_565 S
C944 C945 1.524 . S
C944 H963 0.913 . S
C945 H921 0.950 . S
C945 C944 1.524 . S
C945 C946 1.415 . S
C946 H922 0.950 . S
C946 C941 1.363 . S
C946 C945 1.415 . S
C947 H923 0.951 . S
C947 C948 1.366 . S
C947 C949 1.388 . S
C948 C947 1.366 . S
C948 C952 1.385 . S
C949 H924 0.951 . S
C949 C947 1.388 . S
C949 C950 1.366 . S
C950 C949 1.366 . S
C950 C951 1.414 . S
C950 C953 1.499 . S
C951 H925 0.950 . S
C951 C950 1.414 . S
C951 C952 1.374 . S
C952 H926 0.950 . S
C952 C948 1.385 . S
C952 C951 1.374 . S
C953 C950 1.499 . S
C953 C954 1.373 . S
C953 C955 1.389 . S
C954 H927 0.950 . S
C954 C940 1.377 . S
C954 C953 1.373 . S
C955 C939 1.377 1_565 S
C955 C953 1.389 . S
C955 C956 1.524 . S
C956 C955 1.524 . S
C956 C957 1.397 . S
C956 C961 1.378 . S
C957 H928 0.950 . S
C957 C956 1.397 . S
C957 C958 1.334 1_455 S
C958 H929 0.950 . S
C958 C957 1.334 1_655 S
C958 C959 1.287 . S
C959 C958 1.287 . S
C959 C960 1.555 . S
C959 H962 0.999 . S
C960 H930 0.924 1_565 S
C960 C959 1.555 . S
C960 C961 1.415 1_655 S
C961 H931 0.934 1_565 S
C961 C956 1.378 . S
C961 C960 1.415 1_455 S
H962 C959 0.999 . S
H963 C944 0.913 . S
H964 C982 0.951 . S
H965 C984 0.951 . S
H966 C986 0.950 . S
H967 C987 0.950 . S
H968 C989 0.950 . S
H969 C992 0.950 . S
H970 C993 0.950 . S
H971 C995 0.950 . S
H972 C996 0.950 . S
H973 C997 0.951 . S
H974 C999 0.951 . S
H975 C1001 0.950 . S
H976 C1002 0.950 . S
H977 C1004 0.950 . S
H978 C1007 0.950 . S
H979 C1008 0.950 . S
H980 C1010 0.950 . S
H981 C1011 0.950 . S
C982 H964 0.951 . S
C982 C983 1.366 . S
C982 C984 1.388 . S
C983 C982 1.366 . S
C983 C987 1.385 . S
C984 H965 0.951 . S
C984 C982 1.388 . S
C984 C985 1.366 . S
C985 C984 1.366 . S
C985 C986 1.414 . S
C985 C988 1.499 . S
C986 H966 0.950 . S
C986 C985 1.414 . S
C986 C987 1.374 . S
C987 H967 0.950 . S
C987 C983 1.385 . S
C987 C986 1.374 . S
C988 C985 1.499 . S
C988 C989 1.373 . S
C988 C990 1.389 . S
C989 H968 0.950 . S
C989 C988 1.373 . S
C989 C1005 1.377 . S
C990 C988 1.389 . S
C990 C991 1.524 . S
C990 C1004 1.377 . S
C991 C990 1.524 . S
C991 C992 1.397 . S
C991 C996 1.363 . S
C992 H969 0.950 . S
C992 C991 1.397 . S
C992 C993 1.334 . S
C993 H970 0.950 . S
C993 C992 1.334 . S
C993 C994 1.287 . S
C994 C993 1.287 . S
C994 C995 1.524 . S
C994 H1013 0.913 . S
C995 H971 0.950 . S
C995 C994 1.524 . S
C995 C996 1.415 . S
C996 H972 0.950 . S
C996 C991 1.363 . S
C996 C995 1.415 . S
C997 H973 0.951 . S
C997 C998 1.366 . S
C997 C999 1.388 . S
C998 C997 1.366 . S
C998 C1002 1.385 . S
C999 H974 0.951 . S
C999 C997 1.388 . S
C999 C1000 1.366 . S
C1000 C999 1.366 . S
C1000 C1001 1.414 . S
C1000 C1003 1.499 . S
C1001 H975 0.950 . S
C1001 C1000 1.414 . S
C1001 C1002 1.374 . S
C1002 H976 0.950 . S
C1002 C998 1.385 . S
C1002 C1001 1.374 . S
C1003 C1000 1.499 . S
C1003 C1004 1.373 . S
C1003 C1005 1.389 . S
C1004 H977 0.950 . S
C1004 C990 1.377 . S
C1004 C1003 1.373 . S
C1005 C989 1.377 . S
C1005 C1003 1.389 . S
C1005 C1006 1.524 . S
C1006 C1005 1.524 . S
C1006 C1007 1.397 . S
C1006 C1011 1.363 . S
C1007 H978 0.950 . S
C1007 C1006 1.397 . S
C1007 C1008 1.334 . S
C1008 H979 0.950 . S
C1008 C1007 1.334 . S
C1008 C1009 1.287 . S
C1009 C1008 1.287 . S
C1009 C1010 1.524 . S
C1009 H1012 0.999 . S
C1010 H980 0.950 . S
C1010 C1009 1.524 . S
C1010 C1011 1.415 . S
C1011 H981 0.950 . S
C1011 C1006 1.363 . S
C1011 C1010 1.415 . S
H1012 C1009 0.999 . S
H1013 C994 0.913 . S
H1014 C1032 0.951 . S
H1015 C1034 0.951 . S
H1016 C1036 0.950 . S
H1017 C1037 0.950 . S
H1018 C1039 0.950 . S
H1019 C1042 0.950 . S
H1020 C1043 0.950 . S
H1021 C1045 0.950 . S
H1022 C1046 0.950 . S
H1023 C1047 0.951 . S
H1024 C1049 0.951 . S
H1025 C1051 0.950 . S
H1026 C1052 0.950 . S
H1027 C1054 0.950 . S
H1028 C1057 0.950 . S
H1029 C1058 0.950 . S
H1030 C1060 0.950 . S
H1031 C1061 0.950 . S
C1032 H1014 0.951 . S
C1032 C1033 1.366 . S
C1032 C1034 1.388 . S
C1033 C1032 1.366 . S
C1033 C1037 1.385 . S
C1034 H1015 0.951 . S
C1034 C1032 1.388 . S
C1034 C1035 1.366 . S
C1035 C1034 1.366 . S
C1035 C1036 1.414 . S
C1035 C1038 1.499 . S
C1036 H1016 0.950 . S
C1036 C1035 1.414 . S
C1036 C1037 1.374 . S
C1037 H1017 0.950 . S
C1037 C1033 1.385 . S
C1037 C1036 1.374 . S
C1038 C1035 1.499 . S
C1038 C1039 1.373 . S
C1038 C1040 1.389 . S
C1039 H1018 0.950 . S
C1039 C1038 1.373 . S
C1039 C1055 1.377 . S
C1040 C1038 1.389 . S
C1040 C1041 1.524 . S
C1040 C1054 1.377 . S
C1041 C1040 1.524 . S
C1041 C1042 1.397 . S
C1041 C1046 1.363 . S
C1042 H1019 0.950 . S
C1042 C1041 1.397 . S
C1042 C1043 1.334 . S
C1043 H1020 0.950 . S
C1043 C1042 1.334 . S
C1043 C1044 1.287 . S
C1044 C1043 1.287 . S
C1044 C1045 1.524 . S
C1044 H1063 0.913 . S
C1045 H1021 0.950 . S
C1045 C1044 1.524 . S
C1045 C1046 1.415 . S
C1046 H1022 0.950 . S
C1046 C1041 1.363 . S
C1046 C1045 1.415 . S
C1047 H1023 0.951 . S
C1047 C1048 1.366 . S
C1047 C1049 1.388 . S
C1048 C1047 1.366 . S
C1048 C1052 1.385 . S
C1049 H1024 0.951 . S
C1049 C1047 1.388 . S
C1049 C1050 1.366 . S
C1050 C1049 1.366 . S
C1050 C1051 1.414 . S
C1050 C1053 1.499 . S
C1051 H1025 0.950 . S
C1051 C1050 1.414 . S
C1051 C1052 1.374 . S
C1052 H1026 0.950 . S
C1052 C1048 1.385 . S
C1052 C1051 1.374 . S
C1053 C1050 1.499 . S
C1053 C1054 1.373 . S
C1053 C1055 1.389 . S
C1054 H1027 0.950 . S
C1054 C1040 1.377 . S
C1054 C1053 1.373 . S
C1055 C1039 1.377 . S
C1055 C1053 1.389 . S
C1055 C1056 1.524 . S
C1056 C1055 1.524 . S
C1056 C1057 1.397 . S
C1056 C1061 1.363 . S
C1057 H1028 0.950 . S
C1057 C1056 1.397 . S
C1057 C1058 1.334 . S
C1058 H1029 0.950 . S
C1058 C1057 1.334 . S
C1058 C1059 1.287 . S
C1059 C1058 1.287 . S
C1059 C1060 1.524 . S
C1059 H1062 0.999 . S
C1060 H1030 0.950 . S
C1060 C1059 1.524 . S
C1060 C1061 1.415 . S
C1061 H1031 0.950 . S
C1061 C1056 1.363 . S
C1061 C1060 1.415 . S
H1062 C1059 0.999 . S
H1063 C1044 0.913 . S
H1064 C1082 0.951 . S
H1065 C1084 0.951 . S
H1066 C1086 0.950 . S
H1067 C1087 0.950 1_554 S
H1068 C1089 0.950 . S
H1069 C1092 0.950 . S
H1070 C1093 0.950 . S
H1071 C1095 0.950 . S
H1072 C1096 0.950 . S
H1073 C1097 0.951 . S
H1074 C1099 0.951 . S
H1075 C1101 0.950 . S
H1076 C1102 0.950 . S
H1077 C1104 0.950 . S
H1078 C1107 0.950 . S
H1079 C1108 0.950 . S
H1080 C1110 0.950 . S
H1081 C1111 0.950 . S
C1082 H1064 0.951 . S
C1082 C1083 1.366 . S
C1082 C1084 1.388 . S
C1083 C1082 1.366 . S
C1083 C1087 1.385 . S
C1084 H1065 0.951 . S
C1084 C1082 1.388 . S
C1084 C1085 1.366 . S
C1085 C1084 1.366 . S
C1085 C1086 1.414 . S
C1085 C1088 1.499 . S
C1086 H1066 0.950 . S
C1086 C1085 1.414 . S
C1086 C1087 1.374 . S
C1087 H1067 0.950 1_556 S
C1087 C1083 1.385 . S
C1087 C1086 1.374 . S
C1088 C1085 1.499 . S
C1088 C1089 1.373 . S
C1088 C1090 1.389 . S
C1089 H1068 0.950 . S
C1089 C1088 1.373 . S
C1089 C1105 1.377 . S
C1090 C1088 1.389 . S
C1090 C1091 1.524 . S
C1090 C1104 1.377 . S
C1091 C1090 1.524 . S
C1091 C1092 1.397 . S
C1091 C1096 1.363 . S
C1092 H1069 0.950 . S
C1092 C1091 1.397 . S
C1092 C1093 1.334 . S
C1093 H1070 0.950 . S
C1093 C1092 1.334 . S
C1093 C1094 1.287 . S
C1094 C1093 1.287 . S
C1094 C1095 1.524 . S
C1094 H1113 0.913 . S
C1095 H1071 0.950 . S
C1095 C1094 1.524 . S
C1095 C1096 1.415 . S
C1096 H1072 0.950 . S
C1096 C1091 1.363 . S
C1096 C1095 1.415 . S
C1097 H1073 0.951 . S
C1097 C1098 1.366 . S
C1097 C1099 1.388 . S
C1098 C1097 1.366 . S
C1098 C1102 1.385 . S
C1099 H1074 0.951 . S
C1099 C1097 1.388 . S
C1099 C1100 1.366 . S
C1100 C1099 1.366 . S
C1100 C1101 1.414 . S
C1100 C1103 1.499 . S
C1101 H1075 0.950 . S
C1101 C1100 1.414 . S
C1101 C1102 1.374 . S
C1102 H1076 0.950 . S
C1102 C1098 1.385 . S
C1102 C1101 1.374 . S
C1103 C1100 1.499 . S
C1103 C1104 1.373 . S
C1103 C1105 1.389 . S
C1104 H1077 0.950 . S
C1104 C1090 1.377 . S
C1104 C1103 1.373 . S
C1105 C1089 1.377 . S
C1105 C1103 1.389 . S
C1105 C1106 1.524 . S
C1106 C1105 1.524 . S
C1106 C1107 1.397 . S
C1106 C1111 1.363 . S
C1107 H1078 0.950 . S
C1107 C1106 1.397 . S
C1107 C1108 1.334 . S
C1108 H1079 0.950 . S
C1108 C1107 1.334 . S
C1108 C1109 1.287 . S
C1109 C1108 1.287 . S
C1109 C1110 1.524 . S
C1109 H1112 0.999 . S
C1110 H1080 0.950 . S
C1110 C1109 1.524 . S
C1110 C1111 1.415 . S
C1111 H1081 0.950 . S
C1111 C1106 1.363 . S
C1111 C1110 1.415 . S
H1112 C1109 0.999 . S
H1113 C1094 0.913 . S
H1114 C1132 0.951 . S
H1115 C1134 0.951 . S
H1116 C1136 0.950 . S
H1117 C1137 0.950 . S
H1118 C1139 0.950 . S
H1119 C1142 0.950 . S
H1120 C1143 0.950 . S
H1121 C1145 0.950 . S
H1122 C1146 0.950 . S
H1123 C1147 0.951 . S
H1124 C1149 0.951 . S
H1125 C1151 0.950 . S
H1126 C1152 0.950 . S
H1127 C1154 0.950 . S
H1128 C1157 0.950 . S
H1129 C1158 0.950 . S
H1130 C1160 0.950 . S
H1131 C1161 0.950 . S
C1132 H1114 0.951 . S
C1132 C1133 1.366 . S
C1132 C1134 1.388 . S
C1133 C1132 1.366 . S
C1133 C1137 1.385 . S
C1134 H1115 0.951 . S
C1134 C1132 1.388 . S
C1134 C1135 1.366 . S
C1135 C1134 1.366 . S
C1135 C1136 1.414 . S
C1135 C1138 1.499 . S
C1136 H1116 0.950 . S
C1136 C1135 1.414 . S
C1136 C1137 1.374 . S
C1137 H1117 0.950 . S
C1137 C1133 1.385 . S
C1137 C1136 1.374 . S
C1138 C1135 1.499 . S
C1138 C1139 1.373 . S
C1138 C1140 1.389 . S
C1139 H1118 0.950 . S
C1139 C1138 1.373 . S
C1139 C1155 1.377 . S
C1140 C1138 1.389 . S
C1140 C1141 1.524 . S
C1140 C1154 1.377 . S
C1141 C1140 1.524 . S
C1141 C1142 1.397 . S
C1141 C1146 1.363 . S
C1142 H1119 0.950 . S
C1142 C1141 1.397 . S
C1142 C1143 1.334 . S
C1143 H1120 0.950 . S
C1143 C1142 1.334 . S
C1143 C1144 1.287 . S
C1144 C1143 1.287 . S
C1144 C1145 1.524 . S
C1144 H1163 0.913 . S
C1145 H1121 0.950 . S
C1145 C1144 1.524 . S
C1145 C1146 1.415 . S
C1146 H1122 0.950 . S
C1146 C1141 1.363 . S
C1146 C1145 1.415 . S
C1147 H1123 0.951 . S
C1147 C1148 1.366 . S
C1147 C1149 1.388 . S
C1148 C1147 1.366 . S
C1148 C1152 1.385 . S
C1149 H1124 0.951 . S
C1149 C1147 1.388 . S
C1149 C1150 1.366 . S
C1150 C1149 1.366 . S
C1150 C1151 1.414 . S
C1150 C1153 1.499 . S
C1151 H1125 0.950 . S
C1151 C1150 1.414 . S
C1151 C1152 1.374 . S
C1152 H1126 0.950 . S
C1152 C1148 1.385 . S
C1152 C1151 1.374 . S
C1153 C1150 1.499 . S
C1153 C1154 1.373 . S
C1153 C1155 1.389 . S
C1154 H1127 0.950 . S
C1154 C1140 1.377 . S
C1154 C1153 1.373 . S
C1155 C1139 1.377 . S
C1155 C1153 1.389 . S
C1155 C1156 1.524 . S
C1156 C1155 1.524 . S
C1156 C1157 1.397 . S
C1156 C1161 1.363 . S
C1157 H1128 0.950 . S
C1157 C1156 1.397 . S
C1157 C1158 1.334 1_655 S
C1158 H1129 0.950 . S
C1158 C1157 1.334 1_455 S
C1158 C1159 1.287 1_455 S
C1159 C1158 1.287 1_655 S
C1159 C1160 1.524 . S
C1159 H1162 0.999 1_655 S
C1160 H1130 0.950 . S
C1160 C1159 1.524 . S
C1160 C1161 1.415 . S
C1161 H1131 0.950 . S
C1161 C1156 1.363 . S
C1161 C1160 1.415 . S
H1162 C1159 0.999 1_455 S
H1163 C1144 0.913 . S
H1164 C1182 0.951 1_554 S
H1165 C1184 0.951 . S
H1166 C1186 0.950 . S
H1167 C1187 0.950 . S
H1168 C1189 0.950 . S
H1169 C1192 0.950 . S
H1170 C1193 0.950 . S
H1171 C1195 0.950 . S
H1172 C1196 0.950 . S
H1173 C1197 0.951 . S
H1174 C1199 0.951 . S
H1175 C1201 0.950 . S
H1176 C1202 0.950 . S
H1177 C1204 0.950 . S
H1178 C1207 0.950 . S
H1179 C1208 0.950 1_455 S
H1180 C1210 0.950 . S
H1181 C1211 0.950 . S
C1182 H1164 0.951 1_556 S
C1182 C1183 1.366 . S
C1182 C1184 1.388 . S
C1183 C1182 1.366 . S
C1183 C1187 1.385 . S
C1184 H1165 0.951 . S
C1184 C1182 1.388 . S
C1184 C1185 1.366 . S
C1185 C1184 1.366 . S
C1185 C1186 1.414 . S
C1185 C1188 1.499 . S
C1186 H1166 0.950 . S
C1186 C1185 1.414 . S
C1186 C1187 1.374 . S
C1187 H1167 0.950 . S
C1187 C1183 1.385 . S
C1187 C1186 1.374 . S
C1188 C1185 1.499 . S
C1188 C1189 1.373 . S
C1188 C1190 1.389 . S
C1189 H1168 0.950 . S
C1189 C1188 1.373 . S
C1189 C1205 1.377 . S
C1190 C1188 1.389 . S
C1190 C1191 1.524 . S
C1190 C1204 1.377 . S
C1191 C1190 1.524 . S
C1191 C1192 1.397 . S
C1191 C1196 1.363 . S
C1192 H1169 0.950 . S
C1192 C1191 1.397 . S
C1192 C1193 1.334 . S
C1193 H1170 0.950 . S
C1193 C1192 1.334 . S
C1193 C1194 1.287 . S
C1194 C1193 1.287 . S
C1194 C1195 1.524 . S
C1194 H1213 0.913 . S
C1195 H1171 0.950 . S
C1195 C1194 1.524 . S
C1195 C1196 1.415 . S
C1196 H1172 0.950 . S
C1196 C1191 1.363 . S
C1196 C1195 1.415 . S
C1197 H1173 0.951 . S
C1197 C1198 1.366 . S
C1197 C1199 1.388 . S
C1198 C1197 1.366 . S
C1198 C1202 1.385 . S
C1199 H1174 0.951 . S
C1199 C1197 1.388 . S
C1199 C1200 1.366 . S
C1200 C1199 1.366 . S
C1200 C1201 1.414 . S
C1200 C1203 1.499 . S
C1201 H1175 0.950 . S
C1201 C1200 1.414 . S
C1201 C1202 1.374 . S
C1202 H1176 0.950 . S
C1202 C1198 1.385 . S
C1202 C1201 1.374 . S
C1203 C1200 1.499 . S
C1203 C1204 1.373 . S
C1203 C1205 1.389 . S
C1204 H1177 0.950 . S
C1204 C1190 1.377 . S
C1204 C1203 1.373 . S
C1205 C1189 1.377 . S
C1205 C1203 1.389 . S
C1205 C1206 1.524 . S
C1206 C1205 1.524 . S
C1206 C1207 1.397 . S
C1206 C1211 1.363 . S
C1207 H1178 0.950 . S
C1207 C1206 1.397 . S
C1207 C1208 1.334 . S
C1208 H1179 0.950 1_655 S
C1208 C1207 1.334 . S
C1208 C1209 1.287 . S
C1209 C1208 1.287 . S
C1209 C1210 1.524 . S
C1209 H1212 0.999 . S
C1210 H1180 0.950 . S
C1210 C1209 1.524 . S
C1210 C1211 1.415 . S
C1211 H1181 0.950 . S
C1211 C1206 1.363 . S
C1211 C1210 1.415 . S
H1212 C1209 0.999 . S
H1213 C1194 0.913 . S
H1214 C1232 0.951 . S
H1215 C1234 0.951 . S
H1216 C1236 0.950 . S
H1217 C1237 0.950 . S
H1218 C1239 0.950 . S
H1219 C1242 0.950 . S
H1220 C1243 0.950 . S
H1221 C1245 0.950 . S
H1222 C1246 0.950 . S
H1223 C1247 0.951 . S
H1224 C1249 0.951 . S
H1225 C1251 0.950 . S
H1226 C1252 0.950 . S
H1227 C1254 0.950 . S
H1228 C1257 0.950 . S
H1229 C1258 0.950 . S
H1230 C1260 0.950 . S
H1231 C1261 0.950 . S
C1232 H1214 0.951 . S
C1232 C1233 1.366 . S
C1232 C1234 1.388 . S
C1233 C1232 1.366 . S
C1233 C1237 1.385 . S
C1234 H1215 0.951 . S
C1234 C1232 1.388 . S
C1234 C1235 1.366 . S
C1235 C1234 1.366 . S
C1235 C1236 1.414 . S
C1235 C1238 1.499 . S
C1236 H1216 0.950 . S
C1236 C1235 1.414 . S
C1236 C1237 1.374 . S
C1237 H1217 0.950 . S
C1237 C1233 1.385 . S
C1237 C1236 1.374 . S
C1238 C1235 1.499 . S
C1238 C1239 1.373 . S
C1238 C1240 1.389 . S
C1239 H1218 0.950 . S
C1239 C1238 1.373 . S
C1239 C1255 1.377 . S
C1240 C1238 1.389 . S
C1240 C1241 1.524 . S
C1240 C1254 1.377 . S
C1241 C1240 1.524 . S
C1241 C1242 1.397 . S
C1241 C1246 1.363 . S
C1242 H1219 0.950 . S
C1242 C1241 1.397 . S
C1242 C1243 1.334 . S
C1243 H1220 0.950 . S
C1243 C1242 1.334 . S
C1243 C1244 1.287 . S
C1244 C1243 1.287 . S
C1244 C1245 1.524 . S
C1244 H1263 0.913 . S
C1245 H1221 0.950 . S
C1245 C1244 1.524 . S
C1245 C1246 1.415 . S
C1246 H1222 0.950 . S
C1246 C1241 1.363 . S
C1246 C1245 1.415 . S
C1247 H1223 0.951 . S
C1247 C1248 1.366 . S
C1247 C1249 1.388 . S
C1248 C1247 1.366 . S
C1248 C1252 1.385 . S
C1249 H1224 0.951 . S
C1249 C1247 1.388 . S
C1249 C1250 1.366 . S
C1250 C1249 1.366 . S
C1250 C1251 1.414 . S
C1250 C1253 1.499 . S
C1251 H1225 0.950 . S
C1251 C1250 1.414 . S
C1251 C1252 1.374 . S
C1252 H1226 0.950 . S
C1252 C1248 1.385 . S
C1252 C1251 1.374 . S
C1253 C1250 1.499 . S
C1253 C1254 1.373 . S
C1253 C1255 1.389 . S
C1254 H1227 0.950 . S
C1254 C1240 1.377 . S
C1254 C1253 1.373 . S
C1255 C1239 1.377 . S
C1255 C1253 1.389 . S
C1255 C1256 1.524 . S
C1256 C1255 1.524 . S
C1256 C1257 1.397 . S
C1256 C1261 1.363 . S
C1257 H1228 0.950 . S
C1257 C1256 1.397 . S
C1257 C1258 1.334 . S
C1258 H1229 0.950 . S
C1258 C1257 1.334 . S
C1258 C1259 1.287 . S
C1259 C1258 1.287 . S
C1259 C1260 1.524 . S
C1259 H1262 0.999 . S
C1260 H1230 0.950 . S
C1260 C1259 1.524 . S
C1260 C1261 1.415 . S
C1261 H1231 0.950 . S
C1261 C1256 1.363 . S
C1261 C1260 1.415 . S
H1262 C1259 0.999 . S
H1263 C1244 0.913 . S
H1264 C1282 0.951 . S
H1265 C1284 0.951 . S
H1266 C1286 0.950 . S
H1267 C1287 0.950 1_556 S
H1268 C1289 0.950 . S
H1269 C1292 0.950 . S
H1270 C1293 0.950 . S
H1271 C1295 0.950 . S
H1272 C1296 0.950 . S
H1273 C1297 0.951 . S
H1274 C1299 0.951 . S
H1275 C1301 0.950 . S
H1276 C1302 0.950 . S
H1277 C1304 0.950 . S
H1278 C1307 0.950 . S
H1279 C1308 0.950 . S
H1280 C1310 0.950 . S
H1281 C1311 0.950 . S
C1282 H1264 0.951 . S
C1282 C1283 1.366 . S
C1282 C1284 1.388 . S
C1283 C1282 1.366 . S
C1283 C1287 1.385 . S
C1284 H1265 0.951 . S
C1284 C1282 1.388 . S
C1284 C1285 1.366 . S
C1285 C1284 1.366 . S
C1285 C1286 1.414 . S
C1285 C1288 1.499 . S
C1286 H1266 0.950 . S
C1286 C1285 1.414 . S
C1286 C1287 1.374 . S
C1287 H1267 0.950 1_554 S
C1287 C1283 1.385 . S
C1287 C1286 1.374 . S
C1288 C1285 1.499 . S
C1288 C1289 1.373 . S
C1288 C1290 1.389 . S
C1289 H1268 0.950 . S
C1289 C1288 1.373 . S
C1289 C1305 1.377 . S
C1290 C1288 1.389 . S
C1290 C1291 1.524 . S
C1290 C1304 1.377 . S
C1291 C1290 1.524 . S
C1291 C1292 1.397 . S
C1291 C1296 1.363 . S
C1292 H1269 0.950 . S
C1292 C1291 1.397 . S
C1292 C1293 1.334 . S
C1293 H1270 0.950 . S
C1293 C1292 1.334 . S
C1293 C1294 1.287 . S
C1294 C1293 1.287 . S
C1294 C1295 1.524 . S
C1294 H1313 0.913 . S
C1295 H1271 0.950 . S
C1295 C1294 1.524 . S
C1295 C1296 1.415 . S
C1296 H1272 0.950 . S
C1296 C1291 1.363 . S
C1296 C1295 1.415 . S
C1297 H1273 0.951 . S
C1297 C1298 1.366 . S
C1297 C1299 1.388 . S
C1298 C1297 1.366 . S
C1298 C1302 1.385 . S
C1299 H1274 0.951 . S
C1299 C1297 1.388 . S
C1299 C1300 1.366 . S
C1300 C1299 1.366 . S
C1300 C1301 1.414 . S
C1300 C1303 1.499 . S
C1301 H1275 0.950 . S
C1301 C1300 1.414 . S
C1301 C1302 1.374 . S
C1302 H1276 0.950 . S
C1302 C1298 1.385 . S
C1302 C1301 1.374 . S
C1303 C1300 1.499 . S
C1303 C1304 1.373 . S
C1303 C1305 1.389 . S
C1304 H1277 0.950 . S
C1304 C1290 1.377 . S
C1304 C1303 1.373 . S
C1305 C1289 1.377 . S
C1305 C1303 1.389 . S
C1305 C1306 1.524 . S
C1306 C1305 1.524 . S
C1306 C1307 1.397 . S
C1306 C1311 1.363 . S
C1307 H1278 0.950 . S
C1307 C1306 1.397 . S
C1307 C1308 1.334 . S
C1308 H1279 0.950 . S
C1308 C1307 1.334 . S
C1308 C1309 1.287 . S
C1309 C1308 1.287 . S
C1309 C1310 1.524 . S
C1309 H1312 0.999 . S
C1310 H1280 0.950 . S
C1310 C1309 1.524 . S
C1310 C1311 1.415 . S
C1311 H1281 0.950 . S
C1311 C1306 1.363 . S
C1311 C1310 1.415 . S
H1312 C1309 0.999 . S
H1313 C1294 0.913 . S
H1314 C1332 0.951 . S
H1315 C1334 0.951 . S
H1316 C1336 0.950 . S
H1317 C1337 0.950 . S
H1318 C1339 0.950 . S
H1319 C1342 0.950 . S
H1320 C1343 0.950 . S
H1321 C1345 0.950 . S
H1322 C1346 0.950 . S
H1323 C1347 0.951 . S
H1324 C1349 0.951 . S
H1325 C1351 0.950 . S
H1326 C1352 0.950 . S
H1327 C1354 0.950 . S
H1328 C1357 0.950 . S
H1329 C1358 0.950 . S
H1330 C1360 0.950 . S
H1331 C1361 0.950 . S
C1332 H1314 0.951 . S
C1332 C1333 1.366 . S
C1332 C1334 1.388 . S
C1333 C1332 1.366 . S
C1333 C1337 1.385 . S
C1334 H1315 0.951 . S
C1334 C1332 1.388 . S
C1334 C1335 1.366 . S
C1335 C1334 1.366 . S
C1335 C1336 1.414 . S
C1335 C1338 1.499 . S
C1336 H1316 0.950 . S
C1336 C1335 1.414 . S
C1336 C1337 1.374 . S
C1337 H1317 0.950 . S
C1337 C1333 1.385 . S
C1337 C1336 1.374 . S
C1338 C1335 1.499 . S
C1338 C1339 1.373 . S
C1338 C1340 1.389 . S
C1339 H1318 0.950 . S
C1339 C1338 1.373 . S
C1339 C1355 1.377 . S
C1340 C1338 1.389 . S
C1340 C1341 1.524 . S
C1340 C1354 1.377 . S
C1341 C1340 1.524 . S
C1341 C1342 1.397 . S
C1341 C1346 1.363 . S
C1342 H1319 0.950 . S
C1342 C1341 1.397 . S
C1342 C1343 1.334 . S
C1343 H1320 0.950 . S
C1343 C1342 1.334 . S
C1343 C1344 1.287 . S
C1344 C1343 1.287 . S
C1344 C1345 1.524 . S
C1344 H1363 0.913 . S
C1345 H1321 0.950 . S
C1345 C1344 1.524 . S
C1345 C1346 1.415 . S
C1346 H1322 0.950 . S
C1346 C1341 1.363 . S
C1346 C1345 1.415 . S
C1347 H1323 0.951 . S
C1347 C1348 1.366 . S
C1347 C1349 1.388 . S
C1348 C1347 1.366 . S
C1348 C1352 1.385 . S
C1349 H1324 0.951 . S
C1349 C1347 1.388 . S
C1349 C1350 1.366 . S
C1350 C1349 1.366 . S
C1350 C1351 1.414 . S
C1350 C1353 1.499 . S
C1351 H1325 0.950 . S
C1351 C1350 1.414 . S
C1351 C1352 1.374 . S
C1352 H1326 0.950 . S
C1352 C1348 1.385 . S
C1352 C1351 1.374 . S
C1353 C1350 1.499 . S
C1353 C1354 1.373 . S
C1353 C1355 1.389 . S
C1354 H1327 0.950 . S
C1354 C1340 1.377 . S
C1354 C1353 1.373 . S
C1355 C1339 1.377 . S
C1355 C1353 1.389 . S
C1355 C1356 1.524 . S
C1356 C1355 1.524 . S
C1356 C1357 1.397 . S
C1356 C1361 1.363 . S
C1357 H1328 0.950 . S
C1357 C1356 1.397 . S
C1357 C1358 1.334 . S
C1358 H1329 0.950 . S
C1358 C1357 1.334 . S
C1358 C1359 1.287 . S
C1359 C1358 1.287 . S
C1359 C1360 1.524 . S
C1359 H1362 0.999 . S
C1360 H1330 0.950 . S
C1360 C1359 1.524 . S
C1360 C1361 1.415 . S
C1361 H1331 0.950 . S
C1361 C1356 1.363 . S
C1361 C1360 1.415 . S
H1362 C1359 0.999 . S
H1363 C1344 0.913 . S
H1364 C1382 0.951 . S
H1365 C1384 0.951 . S
H1366 C1386 0.950 . S
H1367 C1387 0.950 . S
H1368 C1389 0.950 . S
H1369 C1392 0.950 . S
H1370 C1393 0.950 . S
H1371 C1395 0.950 . S
H1372 C1396 0.950 . S
H1373 C1397 0.951 . S
H1374 C1399 0.951 . S
H1375 C1401 0.950 . S
H1376 C1402 0.950 . S
H1377 C1404 0.950 . S
H1378 C1407 0.950 . S
H1379 C1408 0.950 . S
H1380 C1410 0.950 . S
H1381 C1411 0.950 . S
C1382 H1364 0.951 . S
C1382 C1383 1.366 . S
C1382 C1384 1.388 . S
C1383 C1382 1.366 . S
C1383 C1387 1.385 . S
C1384 H1365 0.951 . S
C1384 C1382 1.388 . S
C1384 C1385 1.366 . S
C1385 C1384 1.366 . S
C1385 C1386 1.414 . S
C1385 C1388 1.499 . S
C1386 H1366 0.950 . S
C1386 C1385 1.414 . S
C1386 C1387 1.374 . S
C1387 H1367 0.950 . S
C1387 C1383 1.385 . S
C1387 C1386 1.374 . S
C1388 C1385 1.499 . S
C1388 C1389 1.373 . S
C1388 C1390 1.389 . S
C1389 H1368 0.950 . S
C1389 C1388 1.373 . S
C1389 C1405 1.377 . S
C1390 C1388 1.389 . S
C1390 C1391 1.524 . S
C1390 C1404 1.377 . S
C1391 C1390 1.524 . S
C1391 C1392 1.397 . S
C1391 C1396 1.363 . S
C1392 H1369 0.950 . S
C1392 C1391 1.397 . S
C1392 C1393 1.334 . S
C1393 H1370 0.950 . S
C1393 C1392 1.334 . S
C1393 C1394 1.287 . S
C1394 C1393 1.287 . S
C1394 C1395 1.524 . S
C1394 H1413 0.913 . S
C1395 H1371 0.950 . S
C1395 C1394 1.524 . S
C1395 C1396 1.415 . S
C1396 H1372 0.950 . S
C1396 C1391 1.363 . S
C1396 C1395 1.415 . S
C1397 H1373 0.951 . S
C1397 C1398 1.366 . S
C1397 C1399 1.388 . S
C1398 C1397 1.366 . S
C1398 C1402 1.385 . S
C1399 H1374 0.951 . S
C1399 C1397 1.388 . S
C1399 C1400 1.366 . S
C1400 C1399 1.366 . S
C1400 C1401 1.414 . S
C1400 C1403 1.499 . S
C1401 H1375 0.950 . S
C1401 C1400 1.414 . S
C1401 C1402 1.374 . S
C1402 H1376 0.950 . S
C1402 C1398 1.385 . S
C1402 C1401 1.374 . S
C1403 C1400 1.499 . S
C1403 C1404 1.373 . S
C1403 C1405 1.389 . S
C1404 H1377 0.950 . S
C1404 C1390 1.377 . S
C1404 C1403 1.373 . S
C1405 C1389 1.377 . S
C1405 C1403 1.389 . S
C1405 C1406 1.524 . S
C1406 C1405 1.524 . S
C1406 C1407 1.397 . S
C1406 C1411 1.363 . S
C1407 H1378 0.950 . S
C1407 C1406 1.397 . S
C1407 C1408 1.334 . S
C1408 H1379 0.950 . S
C1408 C1407 1.334 . S
C1408 C1409 1.287 . S
C1409 C1408 1.287 . S
C1409 C1410 1.524 . S
C1409 H1412 0.999 . S
C1410 H1380 0.950 . S
C1410 C1409 1.524 . S
C1410 C1411 1.415 . S
C1411 H1381 0.950 . S
C1411 C1406 1.363 . S
C1411 C1410 1.415 . S
H1412 C1409 0.999 . S
H1413 C1394 0.913 . S
H1414 C1432 0.951 . S
H1415 C1434 0.951 . S
H1416 C1436 0.950 . S
H1417 C1437 0.950 . S
H1418 C1439 0.950 . S
H1419 C1442 0.950 . S
H1420 C1443 0.950 . S
H1421 C1445 0.950 . S
H1422 C1446 0.950 . S
H1423 C1447 0.951 . S
H1424 C1449 0.951 . S
H1425 C1451 0.950 . S
H1426 C1452 0.950 . S
H1427 C1454 0.950 . S
H1428 C1457 0.950 . S
H1429 C1458 0.950 . S
H1430 C1460 0.950 . S
H1431 C1461 0.950 . S
C1432 H1414 0.951 . S
C1432 C1433 1.366 . S
C1432 C1434 1.388 . S
C1433 C1432 1.366 . S
C1433 C1437 1.385 . S
C1434 H1415 0.951 . S
C1434 C1432 1.388 . S
C1434 C1435 1.366 . S
C1435 C1434 1.366 . S
C1435 C1436 1.414 . S
C1435 C1438 1.499 . S
C1436 H1416 0.950 . S
C1436 C1435 1.414 . S
C1436 C1437 1.374 . S
C1437 H1417 0.950 . S
C1437 C1433 1.385 . S
C1437 C1436 1.374 . S
C1438 C1435 1.499 . S
C1438 C1439 1.373 . S
C1438 C1440 1.389 . S
C1439 H1418 0.950 . S
C1439 C1438 1.373 . S
C1439 C1455 1.377 . S
C1440 C1438 1.389 . S
C1440 C1441 1.524 . S
C1440 C1454 1.377 . S
C1441 C1440 1.524 . S
C1441 C1442 1.397 . S
C1441 C1446 1.363 . S
C1442 H1419 0.950 . S
C1442 C1441 1.397 . S
C1442 C1443 1.334 . S
C1443 H1420 0.950 . S
C1443 C1442 1.334 . S
C1443 C1444 1.287 . S
C1444 C1443 1.287 . S
C1444 C1445 1.524 . S
C1444 H1463 0.913 . S
C1445 H1421 0.950 . S
C1445 C1444 1.524 . S
C1445 C1446 1.415 . S
C1446 H1422 0.950 . S
C1446 C1441 1.363 . S
C1446 C1445 1.415 . S
C1447 H1423 0.951 . S
C1447 C1448 1.366 . S
C1447 C1449 1.388 . S
C1448 C1447 1.366 . S
C1448 C1452 1.385 . S
C1449 H1424 0.951 . S
C1449 C1447 1.388 . S
C1449 C1450 1.366 . S
C1450 C1449 1.366 . S
C1450 C1451 1.414 . S
C1450 C1453 1.499 . S
C1451 H1425 0.950 . S
C1451 C1450 1.414 . S
C1451 C1452 1.374 . S
C1452 H1426 0.950 . S
C1452 C1448 1.385 . S
C1452 C1451 1.374 . S
C1453 C1450 1.499 . S
C1453 C1454 1.373 . S
C1453 C1455 1.389 . S
C1454 H1427 0.950 . S
C1454 C1440 1.377 . S
C1454 C1453 1.373 . S
C1455 C1439 1.377 . S
C1455 C1453 1.389 . S
C1455 C1456 1.524 . S
C1456 C1455 1.524 . S
C1456 C1457 1.397 . S
C1456 C1461 1.363 . S
C1457 H1428 0.950 . S
C1457 C1456 1.397 . S
C1457 C1458 1.334 . S
C1458 H1429 0.950 . S
C1458 C1457 1.334 . S
C1458 C1459 1.287 . S
C1459 C1458 1.287 . S
C1459 C1460 1.524 . S
C1459 H1462 0.999 . S
C1460 H1430 0.950 . S
C1460 C1459 1.524 . S
C1460 C1461 1.415 . S
C1461 H1431 0.950 . S
C1461 C1456 1.363 . S
C1461 C1460 1.415 . S
H1462 C1459 0.999 . S
H1463 C1444 0.913 . S
H1464 C1482 0.951 . S
H1465 C1484 0.951 . S
H1466 C1486 0.950 . S
H1467 C1487 0.950 . S
H1468 C1489 0.950 . S
H1469 C1492 0.950 . S
H1470 C1493 0.950 . S
H1471 C1495 0.950 . S
H1472 C1496 0.950 . S
H1473 C1497 0.951 . S
H1474 C1499 0.951 . S
H1475 C1501 0.950 . S
H1476 C1502 0.950 . S
H1477 C1504 0.950 . S
H1478 C1507 0.950 . S
H1479 C1508 0.950 . S
H1480 C1510 0.950 . S
H1481 C1511 0.950 . S
C1482 H1464 0.951 . S
C1482 C1483 1.366 . S
C1482 C1484 1.388 . S
C1483 C1482 1.366 . S
C1483 C1487 1.385 . S
C1484 H1465 0.951 . S
C1484 C1482 1.388 . S
C1484 C1485 1.366 . S
C1485 C1484 1.366 . S
C1485 C1486 1.414 . S
C1485 C1488 1.499 . S
C1486 H1466 0.950 . S
C1486 C1485 1.414 . S
C1486 C1487 1.374 . S
C1487 H1467 0.950 . S
C1487 C1483 1.385 . S
C1487 C1486 1.374 . S
C1488 C1485 1.499 . S
C1488 C1489 1.373 . S
C1488 C1490 1.389 . S
C1489 H1468 0.950 . S
C1489 C1488 1.373 . S
C1489 C1505 1.377 . S
C1490 C1488 1.389 . S
C1490 C1491 1.524 . S
C1490 C1504 1.377 . S
C1491 C1490 1.524 . S
C1491 C1492 1.397 . S
C1491 C1496 1.363 . S
C1492 H1469 0.950 . S
C1492 C1491 1.397 . S
C1492 C1493 1.334 . S
C1493 H1470 0.950 . S
C1493 C1492 1.334 . S
C1493 C1494 1.287 . S
C1494 C1493 1.287 . S
C1494 C1495 1.524 . S
C1494 H1513 0.913 . S
C1495 H1471 0.950 . S
C1495 C1494 1.524 . S
C1495 C1496 1.415 . S
C1496 H1472 0.950 . S
C1496 C1491 1.363 . S
C1496 C1495 1.415 . S
C1497 H1473 0.951 . S
C1497 C1498 1.366 . S
C1497 C1499 1.388 . S
C1498 C1497 1.366 . S
C1498 C1502 1.385 . S
C1499 H1474 0.951 . S
C1499 C1497 1.388 . S
C1499 C1500 1.366 . S
C1500 C1499 1.366 . S
C1500 C1501 1.414 . S
C1500 C1503 1.499 . S
C1501 H1475 0.950 . S
C1501 C1500 1.414 . S
C1501 C1502 1.374 . S
C1502 H1476 0.950 . S
C1502 C1498 1.385 . S
C1502 C1501 1.374 . S
C1503 C1500 1.499 . S
C1503 C1504 1.373 . S
C1503 C1505 1.389 . S
C1504 H1477 0.950 . S
C1504 C1490 1.377 . S
C1504 C1503 1.373 . S
C1505 C1489 1.377 . S
C1505 C1503 1.389 . S
C1505 C1506 1.524 . S
C1506 C1505 1.524 . S
C1506 C1507 1.397 . S
C1506 C1511 1.363 . S
C1507 H1478 0.950 . S
C1507 C1506 1.397 . S
C1507 C1508 1.334 . S
C1508 H1479 0.950 . S
C1508 C1507 1.334 . S
C1508 C1509 1.287 . S
C1509 C1508 1.287 . S
C1509 C1510 1.524 . S
C1509 H1512 0.999 . S
C1510 H1480 0.950 . S
C1510 C1509 1.524 . S
C1510 C1511 1.415 . S
C1511 H1481 0.950 . S
C1511 C1506 1.363 . S
C1511 C1510 1.415 . S
H1512 C1509 0.999 . S
H1513 C1494 0.913 . S
H1514 C1532 0.951 . S
H1515 C1534 0.951 . S
H1516 C1536 0.950 . S
H1517 C1537 0.950 . S
H1518 C1539 0.950 . S
H1519 C1542 0.950 . S
H1520 C1543 0.950 . S
H1521 C1545 0.950 . S
H1522 C1546 0.950 . S
H1523 C1547 0.951 . S
H1524 C1549 0.951 . S
H1525 C1551 0.950 . S
H1526 C1552 0.950 . S
H1527 C1554 0.950 . S
H1528 C1557 0.950 . S
H1529 C1558 0.950 . S
H1530 C1560 0.950 . S
H1531 C1561 0.950 . S
C1532 H1514 0.951 . S
C1532 C1533 1.366 . S
C1532 C1534 1.388 . S
C1533 C1532 1.366 . S
C1533 C1537 1.385 . S
C1534 H1515 0.951 . S
C1534 C1532 1.388 . S
C1534 C1535 1.366 . S
C1535 C1534 1.366 . S
C1535 C1536 1.414 . S
C1535 C1538 1.499 . S
C1536 H1516 0.950 . S
C1536 C1535 1.414 . S
C1536 C1537 1.374 . S
C1537 H1517 0.950 . S
C1537 C1533 1.385 . S
C1537 C1536 1.374 . S
C1538 C1535 1.499 . S
C1538 C1539 1.373 . S
C1538 C1540 1.389 . S
C1539 H1518 0.950 . S
C1539 C1538 1.373 . S
C1539 C1555 1.377 . S
C1540 C1538 1.389 . S
C1540 C1541 1.524 . S
C1540 C1554 1.377 . S
C1541 C1540 1.524 . S
C1541 C1542 1.397 . S
C1541 C1546 1.363 . S
C1542 H1519 0.950 . S
C1542 C1541 1.397 . S
C1542 C1543 1.334 . S
C1543 H1520 0.950 . S
C1543 C1542 1.334 . S
C1543 C1544 1.287 . S
C1544 C1543 1.287 . S
C1544 C1545 1.524 . S
C1544 H1563 0.913 . S
C1545 H1521 0.950 . S
C1545 C1544 1.524 . S
C1545 C1546 1.415 . S
C1546 H1522 0.950 . S
C1546 C1541 1.363 . S
C1546 C1545 1.415 . S
C1547 H1523 0.951 . S
C1547 C1548 1.366 . S
C1547 C1549 1.388 . S
C1548 C1547 1.366 . S
C1548 C1552 1.385 . S
C1549 H1524 0.951 . S
C1549 C1547 1.388 . S
C1549 C1550 1.366 . S
C1550 C1549 1.366 . S
C1550 C1551 1.414 . S
C1550 C1553 1.499 . S
C1551 H1525 0.950 . S
C1551 C1550 1.414 . S
C1551 C1552 1.374 . S
C1552 H1526 0.950 . S
C1552 C1548 1.385 . S
C1552 C1551 1.374 . S
C1553 C1550 1.499 . S
C1553 C1554 1.373 . S
C1553 C1555 1.389 . S
C1554 H1527 0.950 . S
C1554 C1540 1.377 . S
C1554 C1553 1.373 . S
C1555 C1539 1.377 . S
C1555 C1553 1.389 . S
C1555 C1556 1.524 . S
C1556 C1555 1.524 . S
C1556 C1557 1.397 . S
C1556 C1561 1.363 . S
C1557 H1528 0.950 . S
C1557 C1556 1.397 . S
C1557 C1558 1.334 . S
C1558 H1529 0.950 . S
C1558 C1557 1.334 . S
C1558 C1559 1.287 . S
C1559 C1558 1.287 . S
C1559 C1560 1.524 . S
C1559 H1562 0.999 . S
C1560 H1530 0.950 . S
C1560 C1559 1.524 . S
C1560 C1561 1.415 . S
C1561 H1531 0.950 . S
C1561 C1556 1.363 . S
C1561 C1560 1.415 . S
H1562 C1559 0.999 . S
H1563 C1544 0.913 . S
H1564 C1582 0.951 . S
H1565 C1584 0.951 . S
H1566 C1586 0.950 . S
H1567 C1587 0.950 . S
H1568 C1589 0.950 . S
H1569 C1592 0.950 . S
H1570 C1593 0.950 . S
H1571 C1595 0.950 . S
H1572 C1596 0.950 . S
H1573 C1597 0.951 . S
H1574 C1599 0.951 . S
H1575 C1601 0.950 . S
H1576 C1602 0.950 . S
H1577 C1604 0.950 . S
H1578 C1607 0.950 . S
H1579 C1608 0.950 . S
H1580 C1610 0.950 . S
H1581 C1611 0.950 . S
C1582 H1564 0.951 . S
C1582 C1583 1.366 . S
C1582 C1584 1.388 . S
C1583 C1582 1.366 . S
C1583 C1587 1.385 . S
C1584 H1565 0.951 . S
C1584 C1582 1.388 . S
C1584 C1585 1.366 . S
C1585 C1584 1.366 . S
C1585 C1586 1.414 . S
C1585 C1588 1.499 . S
C1586 H1566 0.950 . S
C1586 C1585 1.414 . S
C1586 C1587 1.374 . S
C1587 H1567 0.950 . S
C1587 C1583 1.385 . S
C1587 C1586 1.374 . S
C1588 C1585 1.499 . S
C1588 C1589 1.373 . S
C1588 C1590 1.389 . S
C1589 H1568 0.950 . S
C1589 C1588 1.373 . S
C1589 C1605 1.377 . S
C1590 C1588 1.389 . S
C1590 C1591 1.524 . S
C1590 C1604 1.377 . S
C1591 C1590 1.524 . S
C1591 C1592 1.397 . S
C1591 C1596 1.363 . S
C1592 H1569 0.950 . S
C1592 C1591 1.397 . S
C1592 C1593 1.334 . S
C1593 H1570 0.950 . S
C1593 C1592 1.334 . S
C1593 C1594 1.287 . S
C1594 C1593 1.287 . S
C1594 C1595 1.524 . S
C1594 H1613 0.913 . S
C1595 H1571 0.950 . S
C1595 C1594 1.524 . S
C1595 C1596 1.415 . S
C1596 H1572 0.950 . S
C1596 C1591 1.363 . S
C1596 C1595 1.415 . S
C1597 H1573 0.951 . S
C1597 C1598 1.366 . S
C1597 C1599 1.388 . S
C1598 C1597 1.366 . S
C1598 C1602 1.385 . S
C1599 H1574 0.951 . S
C1599 C1597 1.388 . S
C1599 C1600 1.366 . S
C1600 C1599 1.366 . S
C1600 C1601 1.414 . S
C1600 C1603 1.499 . S
C1601 H1575 0.950 . S
C1601 C1600 1.414 . S
C1601 C1602 1.374 . S
C1602 H1576 0.950 . S
C1602 C1598 1.385 . S
C1602 C1601 1.374 . S
C1603 C1600 1.499 . S
C1603 C1604 1.373 . S
C1603 C1605 1.389 . S
C1604 H1577 0.950 . S
C1604 C1590 1.377 . S
C1604 C1603 1.373 . S
C1605 C1589 1.377 . S
C1605 C1603 1.389 . S
C1605 C1606 1.524 . S
C1606 C1605 1.524 . S
C1606 C1607 1.397 . S
C1606 C1611 1.363 . S
C1607 H1578 0.950 . S
C1607 C1606 1.397 . S
C1607 C1608 1.334 . S
C1608 H1579 0.950 . S
C1608 C1607 1.334 . S
C1608 C1609 1.287 . S
C1609 C1608 1.287 . S
C1609 C1610 1.524 . S
C1609 H1612 0.999 . S
C1610 H1580 0.950 . S
C1610 C1609 1.524 . S
C1610 C1611 1.415 . S
C1611 H1581 0.950 . S
C1611 C1606 1.363 . S
C1611 C1610 1.415 . S
H1612 C1609 0.999 . S
H1613 C1594 0.913 . S
H1614 C1632 0.951 . S
H1615 C1634 0.951 . S
H1616 C1636 0.950 . S
H1617 C1637 0.950 . S
H1618 C1639 0.950 . S
H1619 C1642 0.950 . S
H1620 C1643 0.950 . S
H1621 C1645 0.950 . S
H1622 C1646 0.950 . S
H1623 C1647 0.951 . S
H1624 C1649 0.951 . S
H1625 C1651 0.950 . S
H1626 C1652 0.950 . S
H1627 C1654 0.950 . S
H1628 C1657 0.950 . S
H1629 C1658 0.950 . S
H1630 C1660 0.950 . S
H1631 C1661 0.950 . S
C1632 H1614 0.951 . S
C1632 C1633 1.366 . S
C1632 C1634 1.388 . S
C1633 C1632 1.366 . S
C1633 C1637 1.385 . S
C1634 H1615 0.951 . S
C1634 C1632 1.388 . S
C1634 C1635 1.366 . S
C1635 C1634 1.366 . S
C1635 C1636 1.414 . S
C1635 C1638 1.499 . S
C1636 H1616 0.950 . S
C1636 C1635 1.414 . S
C1636 C1637 1.374 . S
C1637 H1617 0.950 . S
C1637 C1633 1.385 . S
C1637 C1636 1.374 . S
C1638 C1635 1.499 . S
C1638 C1639 1.373 . S
C1638 C1640 1.389 . S
C1639 H1618 0.950 . S
C1639 C1638 1.373 . S
C1639 C1655 1.377 . S
C1640 C1638 1.389 . S
C1640 C1641 1.524 . S
C1640 C1654 1.377 . S
C1641 C1640 1.524 . S
C1641 C1642 1.397 . S
C1641 C1646 1.363 . S
C1642 H1619 0.950 . S
C1642 C1641 1.397 . S
C1642 C1643 1.334 . S
C1643 H1620 0.950 . S
C1643 C1642 1.334 . S
C1643 C1644 1.287 . S
C1644 C1643 1.287 . S
C1644 C1645 1.524 . S
C1644 H1663 0.913 . S
C1645 H1621 0.950 . S
C1645 C1644 1.524 . S
C1645 C1646 1.415 . S
C1646 H1622 0.950 . S
C1646 C1641 1.363 . S
C1646 C1645 1.415 . S
C1647 H1623 0.951 . S
C1647 C1648 1.366 . S
C1647 C1649 1.388 . S
C1648 C1647 1.366 . S
C1648 C1652 1.385 . S
C1649 H1624 0.951 . S
C1649 C1647 1.388 . S
C1649 C1650 1.366 . S
C1650 C1649 1.366 . S
C1650 C1651 1.414 . S
C1650 C1653 1.499 . S
C1651 H1625 0.950 . S
C1651 C1650 1.414 . S
C1651 C1652 1.374 . S
C1652 H1626 0.950 . S
C1652 C1648 1.385 . S
C1652 C1651 1.374 . S
C1653 C1650 1.499 . S
C1653 C1654 1.373 . S
C1653 C1655 1.389 . S
C1654 H1627 0.950 . S
C1654 C1640 1.377 . S
C1654 C1653 1.373 . S
C1655 C1639 1.377 . S
C1655 C1653 1.389 . S
C1655 C1656 1.524 . S
C1656 C1655 1.524 . S
C1656 C1657 1.397 . S
C1656 C1661 1.363 . S
C1657 H1628 0.950 . S
C1657 C1656 1.397 . S
C1657 C1658 1.334 . S
C1658 H1629 0.950 . S
C1658 C1657 1.334 . S
C1658 C1659 1.287 . S
C1659 C1658 1.287 . S
C1659 C1660 1.524 . S
C1659 H1662 0.999 . S
C1660 H1630 0.950 . S
C1660 C1659 1.524 . S
C1660 C1661 1.415 . S
C1661 H1631 0.950 . S
C1661 C1656 1.363 . S
C1661 C1660 1.415 . S
H1662 C1659 0.999 . S
H1663 C1644 0.913 . S
H1664 C1682 0.951 . S
H1665 C1684 0.951 . S
H1666 C1686 0.950 . S
H1667 C1687 0.950 . S
H1668 C1689 0.950 . S
H1669 C1692 0.950 . S
H1670 C1693 0.950 . S
H1671 C1695 0.950 . S
H1672 C1696 0.950 . S
H1673 C1697 0.951 . S
H1674 C1699 0.951 . S
H1675 C1701 0.950 . S
H1676 C1702 0.950 . S
H1677 C1704 0.950 . S
H1678 C1707 0.950 . S
H1679 C1708 0.950 . S
H1680 C1710 0.950 . S
H1681 C1711 0.950 . S
C1682 H1664 0.951 . S
C1682 C1683 1.366 . S
C1682 C1684 1.388 . S
C1683 C1682 1.366 . S
C1683 C1687 1.385 . S
C1684 H1665 0.951 . S
C1684 C1682 1.388 . S
C1684 C1685 1.366 . S
C1685 C1684 1.366 . S
C1685 C1686 1.414 . S
C1685 C1688 1.499 . S
C1686 H1666 0.950 . S
C1686 C1685 1.414 . S
C1686 C1687 1.374 . S
C1687 H1667 0.950 . S
C1687 C1683 1.385 . S
C1687 C1686 1.374 . S
C1688 C1685 1.499 . S
C1688 C1689 1.373 . S
C1688 C1690 1.389 . S
C1689 H1668 0.950 . S
C1689 C1688 1.373 . S
C1689 C1705 1.377 . S
C1690 C1688 1.389 . S
C1690 C1691 1.524 . S
C1690 C1704 1.377 . S
C1691 C1690 1.524 . S
C1691 C1692 1.397 . S
C1691 C1696 1.363 . S
C1692 H1669 0.950 . S
C1692 C1691 1.397 . S
C1692 C1693 1.334 . S
C1693 H1670 0.950 . S
C1693 C1692 1.334 . S
C1693 C1694 1.287 . S
C1694 C1693 1.287 . S
C1694 C1695 1.524 . S
C1694 H1713 0.913 . S
C1695 H1671 0.950 . S
C1695 C1694 1.524 . S
C1695 C1696 1.415 . S
C1696 H1672 0.950 . S
C1696 C1691 1.363 . S
C1696 C1695 1.415 . S
C1697 H1673 0.951 . S
C1697 C1698 1.366 . S
C1697 C1699 1.388 . S
C1698 C1697 1.366 . S
C1698 C1702 1.385 . S
C1699 H1674 0.951 . S
C1699 C1697 1.388 . S
C1699 C1700 1.366 . S
C1700 C1699 1.366 . S
C1700 C1701 1.414 . S
C1700 C1703 1.499 . S
C1701 H1675 0.950 . S
C1701 C1700 1.414 . S
C1701 C1702 1.374 . S
C1702 H1676 0.950 . S
C1702 C1698 1.385 . S
C1702 C1701 1.374 . S
C1703 C1700 1.499 . S
C1703 C1704 1.373 . S
C1703 C1705 1.389 . S
C1704 H1677 0.950 . S
C1704 C1690 1.377 . S
C1704 C1703 1.373 . S
C1705 C1689 1.377 . S
C1705 C1703 1.389 . S
C1705 C1706 1.524 . S
C1706 C1705 1.524 . S
C1706 C1707 1.397 . S
C1706 C1711 1.363 . S
C1707 H1678 0.950 . S
C1707 C1706 1.397 . S
C1707 C1708 1.334 . S
C1708 H1679 0.950 . S
C1708 C1707 1.334 . S
C1708 C1709 1.287 . S
C1709 C1708 1.287 . S
C1709 C1710 1.524 . S
C1709 H1712 0.999 . S
C1710 H1680 0.950 . S
C1710 C1709 1.524 . S
C1710 C1711 1.415 . S
C1711 H1681 0.950 . S
C1711 C1706 1.363 . S
C1711 C1710 1.415 . S
H1712 C1709 0.999 . S
H1713 C1694 0.913 . S
H1714 C1732 0.951 . S
H1715 C1734 0.951 . S
H1716 C1736 0.950 . S
H1717 C1737 0.950 . S
H1718 C1739 0.950 . S
H1719 C1742 0.950 . S
H1720 C1743 0.950 . S
H1721 C1745 0.950 . S
H1722 C1746 0.950 . S
H1723 C1747 0.951 . S
H1724 C1749 0.951 . S
H1725 C1751 0.950 . S
H1726 C1752 0.950 . S
H1727 C1754 0.950 . S
H1728 C1757 0.950 . S
H1729 C1758 0.950 . S
H1730 C1760 0.950 . S
H1731 C1761 0.950 . S
C1732 H1714 0.951 . S
C1732 C1733 1.366 . S
C1732 C1734 1.388 . S
C1733 C1732 1.366 . S
C1733 C1737 1.385 . S
C1734 H1715 0.951 . S
C1734 C1732 1.388 . S
C1734 C1735 1.366 . S
C1735 C1734 1.366 . S
C1735 C1736 1.414 . S
C1735 C1738 1.499 . S
C1736 H1716 0.950 . S
C1736 C1735 1.414 . S
C1736 C1737 1.374 . S
C1737 H1717 0.950 . S
C1737 C1733 1.385 . S
C1737 C1736 1.374 . S
C1738 C1735 1.499 . S
C1738 C1739 1.373 . S
C1738 C1740 1.389 . S
C1739 H1718 0.950 . S
C1739 C1738 1.373 . S
C1739 C1755 1.377 . S
C1740 C1738 1.389 . S
C1740 C1741 1.524 . S
C1740 C1754 1.377 . S
C1741 C1740 1.524 . S
C1741 C1742 1.397 . S
C1741 C1746 1.363 . S
C1742 H1719 0.950 . S
C1742 C1741 1.397 . S
C1742 C1743 1.334 . S
C1743 H1720 0.950 . S
C1743 C1742 1.334 . S
C1743 C1744 1.287 . S
C1744 C1743 1.287 . S
C1744 C1745 1.524 . S
C1744 H1763 0.913 . S
C1745 H1721 0.950 . S
C1745 C1744 1.524 . S
C1745 C1746 1.415 . S
C1746 H1722 0.950 . S
C1746 C1741 1.363 . S
C1746 C1745 1.415 . S
C1747 H1723 0.951 . S
C1747 C1748 1.366 . S
C1747 C1749 1.388 . S
C1748 C1747 1.366 . S
C1748 C1752 1.385 . S
C1749 H1724 0.951 . S
C1749 C1747 1.388 . S
C1749 C1750 1.366 . S
C1750 C1749 1.366 . S
C1750 C1751 1.414 . S
C1750 C1753 1.499 . S
C1751 H1725 0.950 . S
C1751 C1750 1.414 . S
C1751 C1752 1.374 . S
C1752 H1726 0.950 . S
C1752 C1748 1.385 . S
C1752 C1751 1.374 . S
C1753 C1750 1.499 . S
C1753 C1754 1.373 . S
C1753 C1755 1.389 . S
C1754 H1727 0.950 . S
C1754 C1740 1.377 . S
C1754 C1753 1.373 . S
C1755 C1739 1.377 . S
C1755 C1753 1.389 . S
C1755 C1756 1.524 . S
C1756 C1755 1.524 . S
C1756 C1757 1.397 . S
C1756 C1761 1.363 . S
C1757 H1728 0.950 . S
C1757 C1756 1.397 . S
C1757 C1758 1.334 . S
C1758 H1729 0.950 . S
C1758 C1757 1.334 . S
C1758 C1759 1.287 . S
C1759 C1758 1.287 . S
C1759 C1760 1.524 . S
C1759 H1762 0.999 . S
C1760 H1730 0.950 . S
C1760 C1759 1.524 . S
C1760 C1761 1.415 . S
C1761 H1731 0.950 . S
C1761 C1756 1.363 . S
C1761 C1760 1.415 . S
H1762 C1759 0.999 . S
H1763 C1744 0.913 . S
C583 C361 1.318 . S
C598 C496 1.302 . S
C648 C504 1.302 . S
C633 C451 1.365 . S
C698 C508 1.286 . S
C683 C241 1.309 . S
C733 C331 1.351 . S
C748 C484 1.286 . S
C798 C525 1.302 . S
C783 C140 1.378 . S
C848 C559 1.303 . S
C833 C211 1.378 . S
C883 C20 1.367 . S
C898 C547 1.285 . S
C933 C91 1.366 . S
C948 C529 1.286 . S
C998 C483 1.267 . S
C983 C80 1.376 1_554 S
C1048 C517 1.268 . S
C1033 C1 1.374 . S
C1098 C521 1.271 . S
C1083 C200 1.379 1_556 S
C1148 C499 1.271 . S
C1133 C121 1.378 . S
C1198 C538 1.268 . S
C1183 C320 1.362 1_556 S
C1233 C260 1.421 . S
C1248 C546 1.268 . S
C1298 C562 1.270 . S
C1283 C440 1.367 1_554 S
C1333 C380 1.425 . S
C1348 C542 1.270 . S
C1398 C487 1.311 . S
C1383 C31 1.479 . S
C1448 C505 1.309 . S
C1433 C61 1.479 . S
C1483 C151 1.462 . S
C1498 C520 1.303 . S
C1548 C500 1.304 . S
C1533 C181 1.461 . S
C1598 C526 1.311 . S
C1583 C271 1.472 . S
C1633 C301 1.466 . S
C1648 C550 1.310 . S
C1683 C391 1.457 . S
C1698 C563 1.303 . S
C1733 C421 1.450 . S
C1748 C541 1.304 . S
