# Generated by pormake.
# Topology nom, (4,4)-cn, num edge types: 1
# Building blocks:
#     Node 0, Type 0, BuildingBlock: NAHDIM_clean_linker_0, # of connection points: 4
#     Node 1, Type 0, BuildingBlock: NAHDIM_clean_linker_0, # of connection points: 4
#     Node 2, Type 0, BuildingBlock: NAHDIM_clean_linker_0, # of connection points: 4
#     Node 3, Type 0, BuildingBlock: NAHDIM_clean_linker_0, # of connection points: 4
#     Node 4, Type 0, BuildingBlock: NAHDIM_clean_linker_0, # of connection points: 4
#     Node 5, Type 0, BuildingBlock: NAHDIM_clean_linker_0, # of connection points: 4
#     Node 6, Type 1, BuildingBlock: UXUYUI_clean_sbu_0, # of connection points: 4
#     Node 7, Type 1, BuildingBlock: UXUYUI_clean_sbu_0, # of connection points: 4
#     Node 8, Type 1, BuildingBlock: UXUYUI_clean_sbu_0, # of connection points: 4
#     Node 9, Type 1, BuildingBlock: UXUYUI_clean_sbu_0, # of connection points: 4
#     Node 10, Type 1, BuildingBlock: UXUYUI_clean_sbu_0, # of connection points: 4
#     Node 11, Type 1, BuildingBlock: UXUYUI_clean_sbu_0, # of connection points: 4
#     Edge 12, Type (0, 1), BuildingBlock: EZIPEK_clean_linker_0, # of connection points: 2
#     Edge 13, Type (0, 1), BuildingBlock: EZIPEK_clean_linker_0, # of connection points: 2
#     Edge 14, Type (0, 1), BuildingBlock: EZIPEK_clean_linker_0, # of connection points: 2
#     Edge 15, Type (0, 1), BuildingBlock: EZIPEK_clean_linker_0, # of connection points: 2
#     Edge 16, Type (0, 1), BuildingBlock: EZIPEK_clean_linker_0, # of connection points: 2
#     Edge 17, Type (0, 1), BuildingBlock: EZIPEK_clean_linker_0, # of connection points: 2
#     Edge 18, Type (0, 1), BuildingBlock: EZIPEK_clean_linker_0, # of connection points: 2
#     Edge 19, Type (0, 1), BuildingBlock: EZIPEK_clean_linker_0, # of connection points: 2
#     Edge 20, Type (0, 1), BuildingBlock: EZIPEK_clean_linker_0, # of connection points: 2
#     Edge 21, Type (0, 1), BuildingBlock: EZIPEK_clean_linker_0, # of connection points: 2
#     Edge 22, Type (0, 1), BuildingBlock: EZIPEK_clean_linker_0, # of connection points: 2
#     Edge 23, Type (0, 1), BuildingBlock: EZIPEK_clean_linker_0, # of connection points: 2
#     Edge 24, Type (0, 1), BuildingBlock: EZIPEK_clean_linker_0, # of connection points: 2
#     Edge 25, Type (0, 1), BuildingBlock: EZIPEK_clean_linker_0, # of connection points: 2
#     Edge 26, Type (0, 1), BuildingBlock: EZIPEK_clean_linker_0, # of connection points: 2
#     Edge 27, Type (0, 1), BuildingBlock: EZIPEK_clean_linker_0, # of connection points: 2
#     Edge 28, Type (0, 1), BuildingBlock: EZIPEK_clean_linker_0, # of connection points: 2
#     Edge 29, Type (0, 1), BuildingBlock: EZIPEK_clean_linker_0, # of connection points: 2
#     Edge 30, Type (0, 1), BuildingBlock: EZIPEK_clean_linker_0, # of connection points: 2
#     Edge 31, Type (0, 1), BuildingBlock: EZIPEK_clean_linker_0, # of connection points: 2
#     Edge 32, Type (0, 1), BuildingBlock: EZIPEK_clean_linker_0, # of connection points: 2
#     Edge 33, Type (0, 1), BuildingBlock: EZIPEK_clean_linker_0, # of connection points: 2
#     Edge 34, Type (0, 1), BuildingBlock: EZIPEK_clean_linker_0, # of connection points: 2
#     Edge 35, Type (0, 1), BuildingBlock: EZIPEK_clean_linker_0, # of connection points: 2
# Relax obj value: 0.085
# Max RMSD: 0.156
# Mean RMSD: 0.138
data_MOF--net-nom--node1-UXUYUI_clean_sbu_0--node2-NAHDIM_clean_linker_0--edge1-EZIPEK_clean_linker_0
_symmetry_space_group_name_H-M    P1
_symmetry_Int_Tables_number       1
_symmetry_cell_setting            triclinic
loop_
_symmetry_equiv_pos_as_xyz
'x, y, z'
_cell_length_a     56.235174
_cell_length_b     56.217999
_cell_length_c     68.652476
_cell_angle_alpha  90.104477
_cell_angle_beta   90.0972
_cell_angle_gamma 120.00415
loop_
_atom_site_label
_atom_site_type_symbol
_atom_site_fract_x
_atom_site_fract_y
_atom_site_fract_z
_atom_type_partial_charge
C0 C 0.1804 0.60942 0.23333 0.0
C1 C 0.19243 0.60735 0.25306 0.0
C2 C 0.15091 0.5894 0.27343 0.0
C3 C 0.14056 0.56126 0.26977 0.0
C4 C 0.11402 0.54162 0.27572 0.0
C5 C 0.09723 0.55026 0.28506 0.0
C6 C 0.10773 0.57851 0.28904 0.0
C7 C 0.13466 0.59761 0.28349 0.0
C8 C 0.10372 0.51163 0.27159 0.0
C9 C 0.09029 0.5887 0.29857 0.0
C10 C 0.91152 0.46635 0.19102 0.0
C11 C 0.93073 0.48189 0.20719 0.0
C12 C 0.96805 0.48284 0.22601 0.0
C13 C 0.97136 0.50397 0.23871 0.0
C14 C 0.98924 0.51158 0.25472 0.0
C15 C 0.00351 0.49728 0.25845 0.0
C16 C 0.00034 0.47612 0.24566 0.0
C17 C 0.98284 0.46939 0.22946 0.0
C18 C 0.99273 0.53483 0.26771 0.0
C19 C 0.01524 0.46044 0.24921 0.0
C20 C 0.89255 0.43667 0.35904 0.0
C21 C 0.90946 0.46528 0.35838 0.0
C22 C 0.93801 0.47728 0.35673 0.0
C23 C 0.94988 0.46027 0.35591 0.0
C24 C 0.93302 0.43147 0.35762 0.0
C25 C 0.90447 0.42004 0.35933 0.0
C26 C 0.95545 0.50815 0.35548 0.0
C27 C 0.94511 0.41284 0.35704 0.0
C28 C 0.07436 0.54318 0.45868 0.0
C29 C 0.09864 0.54638 0.44632 0.0
C30 C 0.07582 0.51855 0.41707 0.0
C31 C 0.06739 0.53621 0.40908 0.0
C32 C 0.05151 0.52902 0.39199 0.0
C33 C 0.04397 0.50377 0.38265 0.0
C34 C 0.0527 0.48615 0.39047 0.0
C35 C 0.06856 0.49383 0.40757 0.0
C36 C 0.04247 0.54826 0.38402 0.0
C37 C 0.04504 0.45909 0.38084 0.0
C38 C 0.06796 0.53015 0.28901 0.0
C39 C 0.04976 0.52187 0.27324 0.0
C40 C 0.02162 0.50439 0.27581 0.0
C41 C 0.01109 0.49514 0.29468 0.0
C42 C 0.98278 0.47815 0.29785 0.0
C43 C 0.97245 0.47059 0.31659 0.0
C44 C 0.9901 0.47916 0.33285 0.0
C45 C 0.97968 0.47272 0.352 0.0
C46 C 0.99774 0.48053 0.36781 0.0
C47 C 0.02618 0.4954 0.36506 0.0
C48 C 0.037 0.50309 0.34604 0.0
C49 C 0.06544 0.51898 0.34277 0.0
C50 C 0.07572 0.52758 0.32406 0.0
C51 C 0.05795 0.52045 0.30794 0.0
C52 C 0.02932 0.50335 0.31081 0.0
C53 C 0.01883 0.49497 0.3299 0.0
C54 C 0.83442 0.41187 0.33244 0.0
C55 C 0.8484 0.43202 0.34943 0.0
O56 O 0.17611 0.60935 0.26737 0.0
O57 O 0.09065 0.52422 0.43385 0.0
O58 O 0.86478 0.42453 0.35988 0.0
O59 O 0.95065 0.47469 0.21048 0.0
H60 H 0.19216 0.58756 0.25418 0.0
H61 H 0.15821 0.59386 0.23255 0.0
H62 H 0.18257 0.63008 0.23174 0.0
H63 H 0.19014 0.60557 0.22066 0.0
H64 H 0.15279 0.55426 0.26227 0.0
H65 H 0.14285 0.6193 0.28636 0.0
H66 H 0.08888 0.5048 0.2593 0.0
H67 H 0.12065 0.50778 0.2676 0.0
H68 H 0.09284 0.49893 0.28447 0.0
H69 H 0.10053 0.61148 0.29868 0.0
H70 H 0.07031 0.58036 0.29084 0.0
H71 H 0.08591 0.58138 0.31384 0.0
H72 H 0.93944 0.50457 0.20643 0.0
H73 H 0.91533 0.48216 0.17957 0.0
H74 H 0.92126 0.45631 0.1825 0.0
H75 H 0.87414 0.44413 0.2049 0.0
H76 H 0.96019 0.51472 0.23621 0.0
H77 H 0.98019 0.45316 0.2196 0.0
H78 H 0.9831 0.5265 0.28205 0.0
H79 H 0.01486 0.5495 0.2703 0.0
H80 H 0.98311 0.5462 0.2614 0.0
H81 H 0.00895 0.44317 0.23877 0.0
H82 H 0.03769 0.47456 0.24782 0.0
H83 H 0.01126 0.45214 0.26426 0.0
H84 H 0.8613 0.45142 0.34167 0.0
H85 H 0.9005 0.4783 0.3593 0.0
H86 H 0.89125 0.39796 0.3603 0.0
H87 H 0.96533 0.51397 0.34094 0.0
H88 H 0.94328 0.51856 0.3577 0.0
H89 H 0.97205 0.5158 0.36658 0.0
H90 H 0.92931 0.39092 0.35909 0.0
H91 H 0.9554 0.41508 0.34282 0.0
H92 H 0.96097 0.41895 0.3686 0.0
H93 H 0.1052 0.56542 0.43783 0.0
H94 H 0.08178 0.55951 0.47001 0.0
H95 H 0.05939 0.54533 0.44939 0.0
H96 H 0.06309 0.52289 0.46585 0.0
H97 H 0.07285 0.55552 0.41604 0.0
H98 H 0.07517 0.48035 0.41377 0.0
H99 H 0.04959 0.55378 0.36876 0.0
H100 H 0.0197 0.5378 0.38387 0.0
H101 H 0.05051 0.56744 0.39274 0.0
H102 H 0.05412 0.44805 0.38841 0.0
H103 H 0.02234 0.44579 0.38068 0.0
H104 H 0.05206 0.46261 0.36547 0.0
H105 H 0.05756 0.52954 0.25878 0.0
H106 H 0.9682 0.47095 0.28592 0.0
H107 H 0.95042 0.45796 0.31817 0.0
H108 H 0.98954 0.47562 0.38248 0.0
H109 H 0.08003 0.52531 0.35467 0.0
H110 H 0.09775 0.54007 0.32239 0.0
H111 H 0.82091 0.41753 0.32425 0.0
H112 H 0.85027 0.41294 0.32227 0.0
H113 H 0.82197 0.39029 0.33729 0.0
C114 C 0.41615 0.87639 0.59353 0.0
C115 C 0.42428 0.86774 0.57454 0.0
C116 C 0.44187 0.90677 0.55226 0.0
C117 C 0.46788 0.91033 0.54801 0.0
C118 C 0.48878 0.9353 0.54054 0.0
C119 C 0.48348 0.95704 0.53717 0.0
C120 C 0.45701 0.95316 0.54083 0.0
C121 C 0.43643 0.92788 0.54811 0.0
C122 C 0.51657 0.93853 0.5363 0.0
C123 C 0.45061 0.97587 0.53732 0.0
C124 C 0.63509 0.08507 0.62382 0.0
C125 C 0.61439 0.09366 0.61711 0.0
C126 C 0.5991 0.08167 0.58388 0.0
C127 C 0.57616 0.08362 0.57853 0.0
C128 C 0.55779 0.06604 0.56431 0.0
C129 C 0.56309 0.0467 0.55498 0.0
C130 C 0.58653 0.04498 0.56026 0.0
C131 C 0.60431 0.06256 0.57473 0.0
C132 C 0.53293 0.06831 0.55911 0.0
C133 C 0.59292 0.02478 0.55047 0.0
C134 C 0.61417 0.14601 0.44644 0.0
C135 C 0.58728 0.13853 0.45171 0.0
C136 C 0.56796 0.1111 0.45588 0.0
C137 C 0.57574 0.09078 0.45452 0.0
C138 C 0.60248 0.09811 0.44824 0.0
C139 C 0.62134 0.12571 0.44411 0.0
C140 C 0.53937 0.10386 0.46201 0.0
C141 C 0.61131 0.0769 0.4464 0.0
C142 C 0.42171 0.89239 0.38746 0.0
C143 C 0.45217 0.9131 0.39076 0.0
C144 C 0.47162 0.95784 0.40696 0.0
C145 C 0.46376 0.97602 0.41438 0.0
C146 C 0.47961 0.99553 0.42862 0.0
C147 C 0.50415 0.99706 0.4353 0.0
C148 C 0.51288 0.97957 0.42716 0.0
C149 C 0.49652 0.96015 0.41302 0.0
C150 C 0.46992 0.01413 0.43682 0.0
C151 C 0.53936 0.98124 0.43355 0.0
C152 C 0.50583 0.98413 0.53044 0.0
C153 C 0.52351 0.00249 0.54451 0.0
C154 C 0.54451 0.02868 0.53937 0.0
C155 C 0.54775 0.03716 0.51971 0.0
C156 C 0.56812 0.06369 0.51414 0.0
C157 C 0.57086 0.07199 0.49481 0.0
C158 C 0.55371 0.05389 0.48023 0.0
C159 C 0.55626 0.06216 0.46054 0.0
C160 C 0.5398 0.04329 0.44627 0.0
C161 C 0.52028 0.01634 0.4512 0.0
C162 C 0.51654 0.00803 0.47093 0.0
C163 C 0.49629 0.98142 0.47649 0.0
C164 C 0.49267 0.97354 0.49597 0.0
C165 C 0.50937 0.99185 0.51059 0.0
C166 C 0.5302 0.01861 0.50527 0.0
C167 C 0.5335 0.02684 0.48546 0.0
C168 C 0.66892 0.21376 0.45795 0.0
C169 C 0.63799 0.19471 0.45484 0.0
O170 O 0.42137 0.88299 0.55981 0.0
O171 O 0.45483 0.93865 0.39383 0.0
O172 O 0.63358 0.17256 0.44336 0.0
O173 O 0.61687 0.09903 0.59733 0.0
H174 H 0.44594 0.87272 0.57586 0.0
H175 H 0.42841 0.89908 0.59523 0.0
H176 H 0.39405 0.87027 0.59312 0.0
H177 H 0.41999 0.86736 0.60664 0.0
H178 H 0.47183 0.89356 0.55021 0.0
H179 H 0.41612 0.9247 0.55109 0.0
H180 H 0.53209 0.95419 0.54627 0.0
H181 H 0.51676 0.91901 0.53818 0.0
H182 H 0.52282 0.94594 0.52117 0.0
H183 H 0.42929 0.96989 0.54156 0.0
H184 H 0.46512 0.99446 0.54572 0.0
H185 H 0.45339 0.98146 0.52166 0.0
H186 H 0.59431 0.07511 0.62032 0.0
H187 H 0.63395 0.08224 0.63987 0.0
H188 H 0.62998 0.06516 0.61694 0.0
H189 H 0.65651 0.10015 0.61983 0.0
H190 H 0.57277 0.09898 0.58547 0.0
H191 H 0.62243 0.06162 0.57886 0.0
H192 H 0.51405 0.04791 0.56044 0.0
H193 H 0.53086 0.08324 0.56855 0.0
H194 H 0.53442 0.07492 0.54372 0.0
H195 H 0.61235 0.02651 0.55588 0.0
H196 H 0.5759 0.00353 0.55306 0.0
H197 H 0.59453 0.02821 0.53448 0.0
H198 H 0.63067 0.18713 0.46972 0.0
H199 H 0.58132 0.15404 0.45236 0.0
H200 H 0.64206 0.13171 0.43964 0.0
H201 H 0.53578 0.09628 0.47725 0.0
H202 H 0.53602 0.12171 0.46113 0.0
H203 H 0.52394 0.08704 0.45267 0.0
H204 H 0.63282 0.08592 0.44126 0.0
H205 H 0.60943 0.067 0.46074 0.0
H206 H 0.59755 0.06058 0.43604 0.0
H207 H 0.45742 0.90632 0.40445 0.0
H208 H 0.41855 0.87138 0.38544 0.0
H209 H 0.4096 0.89216 0.4003 0.0
H210 H 0.41384 0.89795 0.3744 0.0
H211 H 0.44473 0.97439 0.40932 0.0
H212 H 0.50335 0.94704 0.40662 0.0
H213 H 0.46713 0.01115 0.45282 0.0
H214 H 0.48573 0.03591 0.43427 0.0
H215 H 0.45025 0.01021 0.43018 0.0
H216 H 0.54408 0.96731 0.425 0.0
H217 H 0.55664 0.00263 0.43201 0.0
H218 H 0.53798 0.97568 0.44918 0.0
H219 H 0.52089 0.9963 0.55968 0.0
H220 H 0.58202 0.07846 0.52469 0.0
H221 H 0.58674 0.09273 0.49142 0.0
H222 H 0.54218 0.04966 0.43115 0.0
H223 H 0.48284 0.96644 0.46587 0.0
H224 H 0.47668 0.95286 0.49941 0.0
H225 H 0.6726 0.23106 0.46773 0.0
H226 H 0.67787 0.20219 0.46494 0.0
H227 H 0.67996 0.22237 0.44409 0.0
C228 C 0.57132 0.42286 0.75373 0.0
C229 C 0.58988 0.42938 0.73572 0.0
C230 C 0.56927 0.4479 0.7131 0.0
C231 C 0.58909 0.47597 0.71408 0.0
C232 C 0.58298 0.496 0.7076 0.0
C233 C 0.55658 0.4878 0.70002 0.0
C234 C 0.53691 0.45952 0.69843 0.0
C235 C 0.54372 0.43995 0.70473 0.0
C236 C 0.60464 0.52596 0.70902 0.0
C237 C 0.50846 0.44996 0.69053 0.0
C238 C 0.46154 0.57375 0.79433 0.0
C239 C 0.46483 0.56033 0.77668 0.0
C240 C 0.50003 0.56461 0.75395 0.0
C241 C 0.48304 0.53932 0.74462 0.0
C242 C 0.49306 0.53019 0.7294 0.0
C243 C 0.52065 0.54656 0.72343 0.0
C244 C 0.53798 0.57175 0.73299 0.0
C245 C 0.52736 0.5805 0.74811 0.0
C246 C 0.47407 0.50315 0.71954 0.0
C247 C 0.56759 0.58949 0.72706 0.0
C248 C 0.48723 0.61694 0.61615 0.0
C249 C 0.46992 0.58934 0.62106 0.0
C250 C 0.48078 0.57211 0.62487 0.0
C251 C 0.50958 0.583 0.6241 0.0
C252 C 0.52696 0.61076 0.61876 0.0
C253 C 0.51543 0.62724 0.61453 0.0
C254 C 0.46148 0.54232 0.62969 0.0
C255 C 0.55772 0.62312 0.61769 0.0
C256 C 0.54177 0.48739 0.52499 0.0
C257 C 0.56236 0.48404 0.53789 0.0
C258 C 0.56764 0.51268 0.56666 0.0
C259 C 0.54122 0.49586 0.57438 0.0
C260 C 0.53266 0.50386 0.59112 0.0
C261 C 0.5509 0.52898 0.60039 0.0
C262 C 0.57765 0.54564 0.59292 0.0
C263 C 0.58563 0.53723 0.57613 0.0
C264 C 0.504 0.48563 0.59879 0.0
C265 C 0.59766 0.5725 0.60254 0.0
C266 C 0.54884 0.50873 0.69504 0.0
C267 C 0.54059 0.51945 0.7103 0.0
C268 C 0.53097 0.53761 0.70672 0.0
C269 C 0.52941 0.54539 0.68741 0.0
C270 C 0.51931 0.56322 0.68332 0.0
C271 C 0.51706 0.57012 0.66424 0.0
C272 C 0.52466 0.55931 0.64851 0.0
C273 C 0.52158 0.56548 0.62904 0.0
C274 C 0.53012 0.55507 0.61378 0.0
C275 C 0.54163 0.53849 0.61739 0.0
C276 C 0.5442 0.53145 0.63674 0.0
C277 C 0.55505 0.51425 0.64088 0.0
C278 C 0.55682 0.50692 0.65997 0.0
C279 C 0.54801 0.51671 0.67564 0.0
C280 C 0.53785 0.5348 0.67182 0.0
C281 C 0.53562 0.5419 0.65235 0.0
C282 C 0.46587 0.66606 0.62575 0.0
C283 C 0.45727 0.63576 0.62287 0.0
O284 O 0.57397 0.42784 0.71976 0.0
O285 O 0.57668 0.50641 0.55012 0.0
O286 O 0.47733 0.63401 0.61236 0.0
O287 O 0.49087 0.57423 0.76862 0.0
H288 H 0.60796 0.45021 0.73724 0.0
H289 H 0.56261 0.43676 0.75418 0.0
H290 H 0.55402 0.40134 0.75299 0.0
H291 H 0.58242 0.42579 0.76765 0.0
H292 H 0.60944 0.4825 0.71962 0.0
H293 H 0.52874 0.41824 0.70374 0.0
H294 H 0.59842 0.53617 0.72011 0.0
H295 H 0.62505 0.52891 0.71317 0.0
H296 H 0.60653 0.53631 0.69487 0.0
H297 H 0.49505 0.4273 0.69135 0.0
H298 H 0.49866 0.45977 0.69879 0.0
H299 H 0.50983 0.4563 0.67508 0.0
H300 H 0.4483 0.55432 0.76554 0.0
H301 H 0.45408 0.54553 0.81608 0.0
H302 H 0.47958 0.59532 0.7947 0.0
H303 H 0.44616 0.58008 0.79011 0.0
H304 H 0.46188 0.52662 0.74904 0.0
H305 H 0.54037 0.59987 0.75545 0.0
H306 H 0.47294 0.50643 0.70369 0.0
H307 H 0.48234 0.489 0.72122 0.0
H308 H 0.45296 0.49309 0.72562 0.0
H309 H 0.57877 0.60781 0.73661 0.0
H310 H 0.57819 0.57732 0.72755 0.0
H311 H 0.56856 0.59648 0.71182 0.0
H312 H 0.4572 0.62853 0.63786 0.0
H313 H 0.44796 0.58114 0.6215 0.0
H314 H 0.5285 0.64853 0.61039 0.0
H315 H 0.46366 0.53875 0.64531 0.0
H316 H 0.43969 0.53617 0.62686 0.0
H317 H 0.46673 0.52888 0.62102 0.0
H318 H 0.56851 0.64574 0.61566 0.0
H319 H 0.56556 0.61847 0.63116 0.0
H320 H 0.56285 0.61387 0.60525 0.0
H321 H 0.54949 0.46526 0.54653 0.0
H322 H 0.53289 0.47086 0.5138 0.0
H323 H 0.52457 0.48567 0.53393 0.0
H324 H 0.55118 0.50756 0.51761 0.0
H325 H 0.527 0.47664 0.56744 0.0
H326 H 0.60598 0.55002 0.57014 0.0
H327 H 0.50503 0.47985 0.61409 0.0
H328 H 0.4926 0.49704 0.59877 0.0
H329 H 0.49229 0.46659 0.59001 0.0
H330 H 0.61817 0.58242 0.5955 0.0
H331 H 0.58948 0.58681 0.60185 0.0
H332 H 0.60009 0.56904 0.61816 0.0
H333 H 0.541 0.51302 0.72513 0.0
H334 H 0.51287 0.57196 0.6948 0.0
H335 H 0.50911 0.58391 0.662 0.0
H336 H 0.5279 0.56005 0.59887 0.0
H337 H 0.56203 0.50603 0.62937 0.0
H338 H 0.5651 0.49342 0.66232 0.0
H339 H 0.4505 0.66784 0.63485 0.0
H340 H 0.48602 0.67692 0.63337 0.0
H341 H 0.46785 0.67654 0.61167 0.0
C342 C 0.19489 0.62353 0.89968 0.0
C343 C 0.19083 0.60501 0.88193 0.0
C344 C 0.14124 0.57193 0.88066 0.0
C345 C 0.13281 0.59065 0.87506 0.0
C346 C 0.10531 0.5815 0.87022 0.0
C347 C 0.08598 0.55306 0.87063 0.0
C348 C 0.09436 0.5342 0.87636 0.0
C349 C 0.12186 0.54397 0.8815 0.0
C350 C 0.0969 0.60222 0.86465 0.0
C351 C 0.07431 0.50372 0.87691 0.0
C352 C 0.90431 0.46451 0.96376 0.0
C353 C 0.91795 0.46667 0.94476 0.0
C354 C 0.95341 0.50072 0.92358 0.0
C355 C 0.95657 0.48136 0.91255 0.0
C356 C 0.97518 0.48965 0.89703 0.0
C357 C 0.99049 0.5178 0.89208 0.0
C358 C 0.98728 0.53734 0.90304 0.0
C359 C 0.96889 0.52852 0.91877 0.0
C360 C 0.97855 0.46826 0.88598 0.0
C361 C 0.00324 0.56749 0.89812 0.0
C362 C 0.88998 0.48014 0.78312 0.0
C363 C 0.89968 0.46213 0.78741 0.0
C364 C 0.92755 0.47223 0.79154 0.0
C365 C 0.94597 0.50092 0.79133 0.0
C366 C 0.93636 0.51903 0.78627 0.0
C367 C 0.90843 0.50831 0.78201 0.0
C368 C 0.93731 0.4523 0.79627 0.0
C369 C 0.95549 0.5497 0.78574 0.0
C370 C 0.14231 0.57284 0.73492 0.0
C371 C 0.12163 0.57454 0.72112 0.0
C372 C 0.07818 0.54717 0.73851 0.0
C373 C 0.06159 0.52002 0.74453 0.0
C374 C 0.04337 0.51352 0.76018 0.0
C375 C 0.04124 0.53472 0.76968 0.0
C376 C 0.05728 0.56217 0.76321 0.0
C377 C 0.07573 0.56815 0.74776 0.0
C378 C 0.02652 0.48402 0.76664 0.0
C379 C 0.05478 0.58515 0.77256 0.0
C380 C 0.05701 0.543 0.86498 0.0
C381 C 0.03778 0.53658 0.87982 0.0
C382 C 0.01009 0.52664 0.87557 0.0
C383 C 0.00129 0.52361 0.85595 0.0
C384 C 0.97371 0.51442 0.85115 0.0
C385 C 0.96511 0.51075 0.83182 0.0
C386 C 0.98377 0.51616 0.81653 0.0
C387 C 0.97514 0.51201 0.79685 0.0
C388 C 0.99429 0.51821 0.782 0.0
C389 C 0.02201 0.52818 0.78623 0.0
C390 C 0.03096 0.53185 0.80585 0.0
C391 C 0.05854 0.54105 0.81066 0.0
C392 C 0.06714 0.54471 0.82999 0.0
C393 C 0.04849 0.53933 0.84528 0.0
C394 C 0.02055 0.52975 0.84076 0.0
C395 C 0.01177 0.52597 0.82103 0.0
C396 C 0.81934 0.459 0.79286 0.0
C397 C 0.84121 0.45066 0.78995 0.0
O398 O 0.16764 0.57983 0.88551 0.0
O399 O 0.09555 0.55205 0.72338 0.0
O400 O 0.86305 0.47099 0.77965 0.0
O401 O 0.93595 0.49341 0.93899 0.0
H402 H 0.18784 0.61414 0.86846 0.0
H403 H 0.17554 0.62333 0.90319 0.0
H404 H 0.20094 0.61599 0.91268 0.0
H405 H 0.21069 0.64522 0.89708 0.0
H406 H 0.14742 0.61243 0.87461 0.0
H407 H 0.12852 0.52972 0.88592 0.0
H408 H 0.07881 0.59881 0.87332 0.0
H409 H 0.11372 0.62371 0.86693 0.0
H410 H 0.09083 0.59954 0.84906 0.0
H411 H 0.08456 0.49162 0.8801 0.0
H412 H 0.05867 0.49928 0.88831 0.0
H413 H 0.06337 0.49676 0.86274 0.0
H414 H 0.90383 0.4541 0.93273 0.0
H415 H 0.91879 0.44452 0.98135 0.0
H416 H 0.90776 0.4856 0.96724 0.0
H417 H 0.8819 0.45547 0.96014 0.0
H418 H 0.94479 0.45974 0.91604 0.0
H419 H 0.9664 0.54333 0.92735 0.0
H420 H 0.97048 0.46636 0.87095 0.0
H421 H 0.00063 0.4746 0.88487 0.0
H422 H 0.96747 0.44775 0.893 0.0
H423 H 0.99684 0.57981 0.90707 0.0
H424 H 0.02547 0.57538 0.90057 0.0
H425 H 0.00043 0.57051 0.88248 0.0
H426 H 0.84825 0.45048 0.80498 0.0
H427 H 0.88561 0.44023 0.78722 0.0
H428 H 0.90071 0.52195 0.77831 0.0
H429 H 0.94462 0.45535 0.81159 0.0
H430 H 0.92084 0.43057 0.79437 0.0
H431 H 0.95491 0.45629 0.7868 0.0
H432 H 0.9446 0.56105 0.78213 0.0
H433 H 0.96578 0.55696 0.80009 0.0
H434 H 0.97174 0.55473 0.77471 0.0
H435 H 0.12207 0.59354 0.72586 0.0
H436 H 0.16324 0.59053 0.7324 0.0
H437 H 0.13665 0.57384 0.75028 0.0
H438 H 0.14299 0.55363 0.73316 0.0
H439 H 0.06336 0.50394 0.73711 0.0
H440 H 0.08754 0.58911 0.74273 0.0
H441 H 0.02926 0.48247 0.78252 0.0
H442 H 0.00442 0.47665 0.764 0.0
H443 H 0.03217 0.47028 0.75877 0.0
H444 H 0.06688 0.60495 0.76476 0.0
H445 H 0.03292 0.57981 0.77289 0.0
H446 H 0.06215 0.58796 0.78785 0.0
H447 H 0.04439 0.53886 0.89491 0.0
H448 H 0.95845 0.50989 0.8623 0.0
H449 H 0.94361 0.50354 0.82901 0.0
H450 H 0.98752 0.51521 0.76692 0.0
H451 H 0.0738 0.54548 0.79952 0.0
H452 H 0.0886 0.55176 0.83281 0.0
H453 H 0.8021 0.44329 0.8017 0.0
H454 H 0.8284 0.47891 0.80078 0.0
H455 H 0.81099 0.46136 0.77881 0.0
C456 C 0.48045 0.8752 0.90287 0.0
C457 C 0.46146 0.86371 0.92071 0.0
C458 C 0.48234 0.90166 0.94399 0.0
C459 C 0.46131 0.90804 0.94599 0.0
C460 C 0.46716 0.93412 0.95246 0.0
C461 C 0.49455 0.9541 0.95706 0.0
C462 C 0.51556 0.94726 0.9559 0.0
C463 C 0.50905 0.92092 0.94961 0.0
C464 C 0.44417 0.9405 0.95407 0.0
C465 C 0.545 0.96804 0.96071 0.0
C466 C 0.49397 0.07585 0.85715 0.0
C467 C 0.52302 0.08853 0.86584 0.0
C468 C 0.52054 0.07806 0.90011 0.0
C469 C 0.54334 0.0765 0.90647 0.0
C470 C 0.5412 0.05971 0.92224 0.0
C471 C 0.51577 0.04468 0.93198 0.0
C472 C 0.49275 0.04647 0.92563 0.0
C473 C 0.49549 0.06332 0.90975 0.0
C474 C 0.56614 0.05837 0.92872 0.0
C475 C 0.4654 0.03084 0.93577 0.0
C476 C 0.56864 0.15714 0.03443 0.0
C477 C 0.58591 0.14626 0.03111 0.0
C478 C 0.575 0.11787 0.02883 0.0
C479 C 0.54625 0.1001 0.03 0.0
C480 C 0.52893 0.11096 0.03426 0.0
C481 C 0.54046 0.13942 0.03661 0.0
C482 C 0.59412 0.10687 0.02489 0.0
C483 C 0.49824 0.09257 0.03584 0.0
C484 C 0.52025 0.98 0.13264 0.0
C485 C 0.50157 0.95447 0.12022 0.0
C486 C 0.4944 0.97467 0.09042 0.0
C487 C 0.52117 0.9859 0.08294 0.0
C488 C 0.52884 0.00181 0.0659 0.0
C489 C 0.50938 0.00648 0.05616 0.0
C490 C 0.48235 0.99485 0.06347 0.0
C491 C 0.47525 0.97904 0.08049 0.0
C492 C 0.55777 0.01384 0.05836 0.0
C493 C 0.46108 0.99944 0.05344 0.0
C494 C 0.5016 0.98267 0.9617 0.0
C495 C 0.50535 0.00012 0.94609 0.0
C496 C 0.51337 0.02768 0.94916 0.0
C497 C 0.51857 0.03851 0.96827 0.0
C498 C 0.52791 0.06646 0.97178 0.0
C499 C 0.53327 0.07699 0.99063 0.0
C500 C 0.52893 0.05985 0.00672 0.0
C501 C 0.53425 0.07035 0.02594 0.0
C502 C 0.52821 0.05252 0.04166 0.0
C503 C 0.51742 0.02435 0.03873 0.0
C504 C 0.51341 0.01366 0.01958 0.0
C505 C 0.50392 0.98566 0.01607 0.0
C506 C 0.50019 0.97544 0.99712 0.0
C507 C 0.50528 0.99274 0.98101 0.0
C508 C 0.51426 0.0209 0.98426 0.0
C509 C 0.51892 0.03148 0.00353 0.0
C510 C 0.59071 0.22507 0.01749 0.0
C511 C 0.5994 0.20475 0.02474 0.0
O512 O 0.47757 0.8771 0.93686 0.0
O513 O 0.48604 0.95975 0.10712 0.0
O514 O 0.57849 0.18455 0.03581 0.0
O515 O 0.52293 0.0949 0.8853 0.0
H516 H 0.44443 0.86814 0.91916 0.0
H517 H 0.49057 0.89798 0.90277 0.0
H518 H 0.4967 0.86947 0.90352 0.0
H519 H 0.46932 0.8679 0.88887 0.0
H520 H 0.4403 0.89272 0.94265 0.0
H521 H 0.52501 0.91556 0.94836 0.0
H522 H 0.44677 0.95568 0.94274 0.0
H523 H 0.42365 0.92191 0.95216 0.0
H524 H 0.44494 0.94987 0.96849 0.0
H525 H 0.55902 0.9597 0.95854 0.0
H526 H 0.55202 0.98651 0.95143 0.0
H527 H 0.54652 0.97472 0.97611 0.0
H528 H 0.52771 0.07165 0.86434 0.0
H529 H 0.49442 0.07172 0.84136 0.0
H530 H 0.48022 0.05599 0.86443 0.0
H531 H 0.4848 0.08915 0.859 0.0
H532 H 0.56287 0.08878 0.89931 0.0
H533 H 0.47814 0.06511 0.90481 0.0
H534 H 0.56145 0.03669 0.92872 0.0
H535 H 0.58417 0.0706 0.9192 0.0
H536 H 0.57162 0.06621 0.94388 0.0
H537 H 0.44944 0.03424 0.92892 0.0
H538 H 0.45828 0.00852 0.93548 0.0
H539 H 0.46771 0.03727 0.95129 0.0
H540 H 0.60112 0.19526 0.0111 0.0
H541 H 0.60786 0.15987 0.03052 0.0
H542 H 0.5274 0.14808 0.03957 0.0
H543 H 0.59024 0.09789 0.01002 0.0
H544 H 0.61607 0.12309 0.026 0.0
H545 H 0.59009 0.09022 0.03535 0.0
H546 H 0.48755 0.10431 0.03874 0.0
H547 H 0.49001 0.08069 0.02212 0.0
H548 H 0.49347 0.07758 0.04779 0.0
H549 H 0.51596 0.94984 0.11232 0.0
H550 H 0.53025 0.97448 0.14438 0.0
H551 H 0.53675 0.99598 0.12352 0.0
H552 H 0.509 0.9894 0.13933 0.0
H553 H 0.53629 0.98259 0.09025 0.0
H554 H 0.45465 0.97023 0.08631 0.0
H555 H 0.55733 0.00733 0.04302 0.0
H556 H 0.56799 0.03661 0.05852 0.0
H557 H 0.57024 0.00749 0.06716 0.0
H558 H 0.44092 0.98888 0.06096 0.0
H559 H 0.46832 0.02178 0.05288 0.0
H560 H 0.45822 0.99185 0.0382 0.0
H561 H 0.50203 0.99214 0.93131 0.0
H562 H 0.53146 0.0806 0.95999 0.0
H563 H 0.54063 0.09871 0.99242 0.0
H564 H 0.53167 0.06064 0.05639 0.0
H565 H 0.49956 0.9714 0.02793 0.0
H566 H 0.49305 0.95376 0.99524 0.0
H567 H 0.60685 0.24067 0.00789 0.0
H568 H 0.57141 0.21394 0.00889 0.0
H569 H 0.58708 0.23587 0.02964 0.0
C570 C 0.59226 0.41853 0.09009 0.0
C571 C 0.60565 0.43411 0.10912 0.0
C572 C 0.58943 0.46727 0.11279 0.0
C573 C 0.56202 0.4481 0.11745 0.0
C574 C 0.54346 0.45683 0.12264 0.0
C575 C 0.55253 0.48525 0.12337 0.0
C576 C 0.58002 0.50456 0.11859 0.0
C577 C 0.59804 0.49526 0.11324 0.0
C578 C 0.51413 0.43571 0.12734 0.0
C579 C 0.59037 0.53503 0.11921 0.0
C580 C 0.4546 0.57427 0.03363 0.0
C581 C 0.46662 0.57185 0.05233 0.0
C582 C 0.46982 0.53754 0.07211 0.0
C583 C 0.4928 0.5568 0.08284 0.0
C584 C 0.5041 0.54834 0.09762 0.0
C585 C 0.49171 0.52011 0.10222 0.0
C586 C 0.46864 0.50063 0.09146 0.0
C587 C 0.45813 0.50963 0.0764 0.0
C588 C 0.52924 0.56968 0.1084 0.0
C589 C 0.45494 0.47038 0.09601 0.0
C590 C 0.43432 0.56339 0.21078 0.0
C591 C 0.46188 0.58022 0.20556 0.0
C592 C 0.47858 0.56884 0.20155 0.0
C593 C 0.46734 0.54003 0.20276 0.0
C594 C 0.43979 0.52316 0.20871 0.0
C595 C 0.42371 0.53517 0.21287 0.0
C596 C 0.50815 0.58754 0.19588 0.0
C597 C 0.42721 0.49242 0.21027 0.0
C598 C 0.5921 0.4668 0.25806 0.0
C599 C 0.56647 0.46 0.27014 0.0
C600 C 0.54931 0.48779 0.25498 0.0
C601 C 0.56047 0.51528 0.24964 0.0
C602 C 0.54923 0.52286 0.23424 0.0
C603 C 0.52574 0.5024 0.22437 0.0
C604 C 0.51366 0.47463 0.23026 0.0
C605 C 0.52569 0.46758 0.24544 0.0
C606 C 0.56259 0.55266 0.2284 0.0
C607 C 0.48797 0.45242 0.22056 0.0
C608 C 0.53327 0.49483 0.12909 0.0
C609 C 0.52039 0.50129 0.11428 0.0
C610 C 0.50266 0.51123 0.1186 0.0
C611 C 0.49716 0.51442 0.13822 0.0
C612 C 0.47904 0.52391 0.14306 0.0
C613 C 0.47464 0.52808 0.16238 0.0
C614 C 0.48802 0.52272 0.17762 0.0
C615 C 0.48422 0.52754 0.19728 0.0
C616 C 0.49685 0.52085 0.21212 0.0
C617 C 0.51379 0.50995 0.20787 0.0
C618 C 0.51881 0.50609 0.18826 0.0
C619 C 0.53675 0.49636 0.18342 0.0
C620 C 0.54152 0.49262 0.16407 0.0
C621 C 0.52845 0.49836 0.14881 0.0
C622 C 0.51032 0.50821 0.15337 0.0
C623 C 0.50566 0.51227 0.1731 0.0
C624 C 0.38673 0.58662 0.20041 0.0
C625 C 0.41671 0.59435 0.20373 0.0
O626 O 0.60818 0.45985 0.10763 0.0
O627 O 0.5613 0.48164 0.26979 0.0
O628 O 0.41753 0.57374 0.21421 0.0
O629 O 0.45861 0.54504 0.05747 0.0
H630 H 0.59258 0.42323 0.12185 0.0
H631 H 0.57309 0.41896 0.08702 0.0
H632 H 0.60645 0.42836 0.07764 0.0
H633 H 0.58665 0.39666 0.09074 0.0
H634 H 0.5548 0.42631 0.11689 0.0
H635 H 0.61914 0.50988 0.10953 0.0
H636 H 0.49986 0.43915 0.11814 0.0
H637 H 0.50985 0.41436 0.12501 0.0
H638 H 0.50975 0.438 0.14277 0.0
H639 H 0.61274 0.54741 0.11625 0.0
H640 H 0.57923 0.54024 0.1082 0.0
H641 H 0.58619 0.5409 0.13372 0.0
H642 H 0.4649 0.58374 0.06475 0.0
H643 H 0.48863 0.5955 0.01592 0.0
H644 H 0.43723 0.55312 0.02993 0.0
H645 H 0.44086 0.5827 0.03776 0.0
H646 H 0.50215 0.57851 0.07976 0.0
H647 H 0.44052 0.4949 0.06801 0.0
H648 H 0.52344 0.57197 0.12344 0.0
H649 H 0.54483 0.56312 0.10948 0.0
H650 H 0.53873 0.59008 0.10121 0.0
H651 H 0.43618 0.45803 0.08708 0.0
H652 H 0.46953 0.46289 0.09327 0.0
H653 H 0.44928 0.46694 0.11166 0.0
H654 H 0.42413 0.59435 0.18882 0.0
H655 H 0.47044 0.60221 0.20492 0.0
H656 H 0.40249 0.52247 0.21727 0.0
H657 H 0.51109 0.58372 0.18044 0.0
H658 H 0.5145 0.6096 0.19756 0.0
H659 H 0.52185 0.58308 0.20492 0.0
H660 H 0.4051 0.48205 0.21418 0.0
H661 H 0.4294 0.48391 0.19621 0.0
H662 H 0.4383 0.48753 0.22153 0.0
H663 H 0.54993 0.44177 0.2626 0.0
H664 H 0.59699 0.45 0.25936 0.0
H665 H 0.58807 0.46869 0.24245 0.0
H666 H 0.61036 0.48637 0.26252 0.0
H667 H 0.57846 0.53074 0.25734 0.0
H668 H 0.5162 0.4464 0.25005 0.0
H669 H 0.56699 0.55476 0.21254 0.0
H670 H 0.54827 0.56046 0.2313 0.0
H671 H 0.58202 0.56571 0.23647 0.0
H672 H 0.4794 0.43244 0.22826 0.0
H673 H 0.47204 0.45857 0.21998 0.0
H674 H 0.49269 0.44953 0.20535 0.0
H675 H 0.52467 0.49911 0.09918 0.0
H676 H 0.46816 0.5284 0.13196 0.0
H677 H 0.46061 0.5356 0.1652 0.0
H678 H 0.49346 0.52418 0.2272 0.0
H679 H 0.54745 0.49167 0.19454 0.0
H680 H 0.55563 0.48521 0.16123 0.0
H681 H 0.37588 0.58466 0.2143 0.0
H682 H 0.38575 0.60246 0.19133 0.0
H683 H 0.37564 0.56665 0.19258 0.0
Li684 Li 0.63372 0.40796 0.42961 0.0
Li685 Li 0.62835 0.36665 0.41733 0.0
Li686 Li 0.66976 0.40966 0.40922 0.0
Li687 Li 0.62209 0.39713 0.39545 0.0
C688 C 0.6579 0.38947 0.45458 0.0
N689 N 0.65758 0.38372 0.49455 0.0
C690 C 0.63442 0.36924 0.46392 0.0
C691 C 0.68127 0.40669 0.46554 0.0
C692 C 0.63465 0.36666 0.48414 0.0
C693 C 0.68068 0.40349 0.48575 0.0
C694 C 0.57439 0.35482 0.41895 0.0
C695 C 0.53375 0.31972 0.40281 0.0
N696 N 0.52262 0.30891 0.42044 0.0
C697 C 0.56241 0.34356 0.43691 0.0
C698 C 0.55986 0.34299 0.40175 0.0
C699 C 0.53628 0.32026 0.43735 0.0
C700 C 0.60002 0.41846 0.45361 0.0
N701 N 0.62655 0.42488 0.45111 0.0
C702 C 0.64073 0.45504 0.47863 0.0
C703 C 0.64689 0.4429 0.46315 0.0
C704 C 0.61348 0.44853 0.48151 0.0
C705 C 0.59297 0.4301 0.46886 0.0
H706 H 0.58435 0.40444 0.44364 0.0
H707 H 0.66788 0.44807 0.46062 0.0
C708 C 0.64236 0.3289 0.42892 0.0
N709 N 0.61987 0.32975 0.42259 0.0
C710 C 0.6408 0.30393 0.43294 0.0
C711 C 0.59282 0.2807 0.4238 0.0
C712 C 0.59536 0.30628 0.41979 0.0
C713 C 0.61583 0.27957 0.43044 0.0
H714 H 0.66176 0.34774 0.43057 0.0
H715 H 0.57793 0.30723 0.41423 0.0
C716 C 0.6579 0.45728 0.41435 0.0
N717 N 0.66883 0.50648 0.43104 0.0
C718 C 0.63757 0.46464 0.41485 0.0
C719 C 0.68386 0.47501 0.42216 0.0
C720 C 0.64347 0.48958 0.42342 0.0
C721 C 0.68897 0.4998 0.43056 0.0
C722 C 0.64284 0.35671 0.38295 0.0
C723 C 0.66491 0.35194 0.38428 0.0
C724 C 0.61862 0.33748 0.37366 0.0
C725 C 0.66223 0.32774 0.37648 0.0
C726 C 0.61675 0.31354 0.36606 0.0
N727 N 0.6384 0.3092 0.36762 0.0
C728 C 0.72343 0.41968 0.41472 0.0
C729 C 0.71442 0.43276 0.38393 0.0
C730 C 0.74878 0.42402 0.40822 0.0
N731 N 0.70676 0.42367 0.40245 0.0
C732 C 0.73952 0.43717 0.37678 0.0
C733 C 0.75656 0.43204 0.38887 0.0
H734 H 0.71633 0.41154 0.42913 0.0
H735 H 0.70031 0.43497 0.3744 0.0
C736 C 0.58616 0.41051 0.37631 0.0
N737 N 0.60524 0.40273 0.37356 0.0
C738 C 0.57672 0.4191 0.36051 0.0
C739 C 0.60593 0.41037 0.33934 0.0
C740 C 0.61492 0.40209 0.35555 0.0
C741 C 0.58708 0.41953 0.34188 0.0
H742 H 0.57911 0.41101 0.39087 0.0
H743 H 0.63041 0.3962 0.35393 0.0
O744 O 0.65796 0.39259 0.43481 0.0
O745 O 0.59974 0.37791 0.41826 0.0
O746 O 0.65233 0.43265 0.40653 0.0
O747 O 0.64479 0.37991 0.39094 0.0
H748 H 0.61623 0.35568 0.45565 0.0
H749 H 0.69955 0.42263 0.45857 0.0
H750 H 0.61659 0.35112 0.49156 0.0
H751 H 0.69857 0.41679 0.49443 0.0
H752 H 0.52232 0.31027 0.38962 0.0
H753 H 0.57308 0.35281 0.45038 0.0
H754 H 0.56863 0.3516 0.38774 0.0
H755 H 0.52682 0.31126 0.45115 0.0
H756 H 0.65696 0.4694 0.48818 0.0
H757 H 0.57178 0.42489 0.47074 0.0
H758 H 0.65892 0.3036 0.43792 0.0
H759 H 0.57333 0.26206 0.42159 0.0
H760 H 0.61734 0.45107 0.40894 0.0
H761 H 0.69978 0.46952 0.42192 0.0
H762 H 0.62787 0.49544 0.42408 0.0
H763 H 0.70892 0.51367 0.43677 0.0
H764 H 0.68379 0.3666 0.39146 0.0
H765 H 0.60141 0.34094 0.37246 0.0
H766 H 0.67907 0.32368 0.37752 0.0
H767 H 0.59807 0.29839 0.35893 0.0
H768 H 0.76152 0.41976 0.4178 0.0
H769 H 0.745 0.44322 0.36175 0.0
H770 H 0.56224 0.4262 0.36284 0.0
H771 H 0.61434 0.41068 0.3251 0.0
Li772 Li 0.23743 0.62412 0.59375 0.0
Li773 Li 0.27731 0.61999 0.57844 0.0
Li774 Li 0.27223 0.66056 0.57357 0.0
Li775 Li 0.24093 0.61902 0.55878 0.0
C776 C 0.29042 0.66839 0.61065 0.0
N777 N 0.31658 0.71401 0.63456 0.0
C778 C 0.31877 0.68116 0.61364 0.0
C779 C 0.27537 0.67878 0.61989 0.0
C780 C 0.33161 0.70419 0.62579 0.0
C781 C 0.28897 0.70188 0.63189 0.0
C782 C 0.21858 0.56824 0.57156 0.0
C783 C 0.20732 0.52718 0.55337 0.0
N784 N 0.18038 0.52011 0.55356 0.0
C785 C 0.19077 0.56048 0.57172 0.0
C786 C 0.22696 0.55144 0.56241 0.0
C787 C 0.17178 0.53611 0.56247 0.0
C788 C 0.18765 0.6084 0.61323 0.0
N789 N 0.21404 0.61429 0.61566 0.0
C790 C 0.20711 0.60556 0.64981 0.0
C791 C 0.22398 0.6129 0.63343 0.0
C792 C 0.1798 0.59937 0.6477 0.0
C793 C 0.16998 0.60073 0.62919 0.0
H794 H 0.18035 0.60964 0.59889 0.0
H795 H 0.24503 0.61753 0.63485 0.0
C796 C 0.33055 0.6336 0.58106 0.0
N797 N 0.30517 0.61126 0.58304 0.0
C798 C 0.35378 0.63226 0.58615 0.0
C799 C 0.32455 0.58413 0.59376 0.0
C800 C 0.30164 0.58663 0.589 0.0
C801 C 0.35092 0.60747 0.59292 0.0
H802 H 0.3326 0.65278 0.57608 0.0
H803 H 0.28115 0.5692 0.5905 0.0
C804 C 0.22876 0.66663 0.57001 0.0
N805 N 0.22317 0.71229 0.56474 0.0
C806 C 0.23562 0.68038 0.55218 0.0
C807 C 0.21872 0.67586 0.58509 0.0
C808 C 0.23276 0.70351 0.54983 0.0
C809 C 0.21611 0.69904 0.58216 0.0
C810 C 0.28467 0.63469 0.53568 0.0
C811 C 0.28074 0.64869 0.52034 0.0
C812 C 0.29263 0.61528 0.53171 0.0
C813 C 0.28434 0.64262 0.5012 0.0
C814 C 0.2961 0.60986 0.51238 0.0
N815 N 0.29187 0.62349 0.49765 0.0
C816 C 0.31935 0.70616 0.56038 0.0
C817 C 0.29316 0.71892 0.58035 0.0
C818 C 0.3405 0.73336 0.55932 0.0
N819 N 0.29637 0.69938 0.57093 0.0
C820 C 0.31385 0.7465 0.57962 0.0
C821 C 0.33797 0.75372 0.56925 0.0
H822 H 0.32177 0.69029 0.55337 0.0
H823 H 0.27512 0.71311 0.58905 0.0
C824 C 0.19755 0.60867 0.53355 0.0
N825 N 0.21798 0.60272 0.53626 0.0
C826 C 0.17954 0.5975 0.51782 0.0
C827 C 0.20357 0.57387 0.50797 0.0
C828 C 0.22116 0.58552 0.52392 0.0
C829 C 0.18257 0.57996 0.50487 0.0
H830 H 0.19501 0.6219 0.54371 0.0
H831 H 0.23709 0.58054 0.52653 0.0
O832 O 0.27742 0.64589 0.59872 0.0
O833 O 0.23754 0.59235 0.5801 0.0
O834 O 0.23133 0.6439 0.57255 0.0
O835 O 0.28119 0.64031 0.5545 0.0
H836 H 0.33078 0.67342 0.60672 0.0
H837 H 0.25347 0.66935 0.61762 0.0
H838 H 0.35355 0.71429 0.62821 0.0
H839 H 0.27758 0.71022 0.63902 0.0
H840 H 0.21351 0.51406 0.54612 0.0
H841 H 0.18401 0.57335 0.57865 0.0
H842 H 0.24844 0.55729 0.56203 0.0
H843 H 0.15023 0.52997 0.56231 0.0
H844 H 0.21516 0.60456 0.66393 0.0
H845 H 0.14894 0.59596 0.62717 0.0
H846 H 0.37381 0.65057 0.58515 0.0
H847 H 0.32174 0.56461 0.59871 0.0
H848 H 0.24314 0.6733 0.54031 0.0
H849 H 0.21311 0.66534 0.59894 0.0
H850 H 0.23816 0.71446 0.53614 0.0
H851 H 0.2085 0.70651 0.59373 0.0
H852 H 0.27491 0.66401 0.52319 0.0
H853 H 0.2958 0.60428 0.54341 0.0
H854 H 0.28117 0.65315 0.48917 0.0
H855 H 0.30208 0.59476 0.50908 0.0
H856 H 0.35902 0.73837 0.55134 0.0
H857 H 0.31153 0.76185 0.5876 0.0
H858 H 0.16334 0.60237 0.5158 0.0
H859 H 0.2062 0.56019 0.49822 0.0
Li860 Li 0.67648 0.27215 0.74625 0.0
Li861 Li 0.63383 0.23537 0.75975 0.0
Li862 Li 0.64351 0.23661 0.72491 0.0
Li863 Li 0.63397 0.26995 0.73906 0.0
C864 C 0.67877 0.22701 0.76075 0.0
N865 N 0.70826 0.21653 0.78826 0.0
C866 C 0.68701 0.24212 0.77809 0.0
C867 C 0.68564 0.20667 0.75737 0.0
C868 C 0.70186 0.23648 0.79183 0.0
C869 C 0.70054 0.20165 0.77146 0.0
C870 C 0.63824 0.2823 0.77834 0.0
C871 C 0.59696 0.27376 0.79496 0.0
N872 N 0.61174 0.2974 0.80529 0.0
C873 C 0.65302 0.30649 0.78912 0.0
C874 C 0.60998 0.26579 0.78125 0.0
C875 C 0.63925 0.31378 0.80268 0.0
C876 C 0.71487 0.32408 0.75436 0.0
N877 N 0.71321 0.29942 0.75138 0.0
C878 C 0.76142 0.31915 0.75702 0.0
C879 C 0.73578 0.29646 0.75237 0.0
C880 C 0.76333 0.34465 0.76071 0.0
C881 C 0.73982 0.34705 0.75913 0.0
H882 H 0.69659 0.32576 0.75318 0.0
H883 H 0.73386 0.27661 0.7497 0.0
C884 C 0.59605 0.18546 0.77636 0.0
N885 N 0.61677 0.21108 0.78086 0.0
C886 C 0.58211 0.16651 0.79111 0.0
C887 C 0.61139 0.20062 0.81482 0.0
C888 C 0.62469 0.21897 0.79961 0.0
C889 C 0.58982 0.17416 0.81054 0.0
H890 H 0.59029 0.17984 0.7613 0.0
H891 H 0.64118 0.23952 0.80277 0.0
C892 C 0.68328 0.28273 0.70665 0.0
N893 N 0.72294 0.29469 0.67867 0.0
C894 C 0.68733 0.30129 0.69176 0.0
C895 C 0.69941 0.27023 0.7073 0.0
C896 C 0.70748 0.30707 0.67775 0.0
C897 C 0.71935 0.27656 0.69302 0.0
C898 C 0.58548 0.22599 0.7293 0.0
C899 C 0.586 0.23578 0.71053 0.0
C900 C 0.56081 0.21298 0.73963 0.0
C901 C 0.56173 0.23245 0.70238 0.0
C902 C 0.53698 0.21002 0.73097 0.0
N903 N 0.53793 0.21975 0.71269 0.0
C904 C 0.63621 0.18882 0.70727 0.0
C905 C 0.63632 0.22101 0.68488 0.0
C906 C 0.63203 0.17048 0.69218 0.0
N907 N 0.6383 0.21349 0.70336 0.0
C908 C 0.632 0.20321 0.66934 0.0
C909 C 0.62983 0.17769 0.67302 0.0
H910 H 0.63769 0.1834 0.72215 0.0
H911 H 0.63805 0.24076 0.68221 0.0
C912 C 0.64032 0.31936 0.72816 0.0
N913 N 0.62071 0.29475 0.73527 0.0
C914 C 0.63548 0.34126 0.72686 0.0
C915 C 0.59002 0.3121 0.73997 0.0
C916 C 0.59575 0.29061 0.74101 0.0
C917 C 0.61028 0.3378 0.73307 0.0
H918 H 0.66019 0.32227 0.72419 0.0
H919 H 0.58072 0.27107 0.74705 0.0
O920 O 0.66443 0.23223 0.74693 0.0
O921 O 0.65141 0.27514 0.76481 0.0
O922 O 0.66335 0.27675 0.72029 0.0
O923 O 0.60908 0.22944 0.73765 0.0
H924 H 0.68221 0.25816 0.7809 0.0
H925 H 0.67959 0.19492 0.74396 0.0
H926 H 0.70837 0.24801 0.80531 0.0
H927 H 0.706 0.18597 0.76903 0.0
H928 H 0.5751 0.26119 0.79733 0.0
H929 H 0.67491 0.31951 0.78704 0.0
H930 H 0.59817 0.24713 0.77293 0.0
H931 H 0.65043 0.33246 0.81112 0.0
H932 H 0.77938 0.31685 0.75798 0.0
H933 H 0.74075 0.36652 0.76174 0.0
H934 H 0.56549 0.14617 0.78746 0.0
H935 H 0.61767 0.207 0.82974 0.0
H936 H 0.67493 0.31104 0.69099 0.0
H937 H 0.6966 0.25575 0.71861 0.0
H938 H 0.71081 0.32138 0.66613 0.0
H939 H 0.73195 0.26702 0.69334 0.0
H940 H 0.60501 0.24623 0.70247 0.0
H941 H 0.56011 0.20534 0.7542 0.0
H942 H 0.56183 0.24006 0.6879 0.0
H943 H 0.51774 0.20004 0.7388 0.0
H944 H 0.63039 0.15085 0.69538 0.0
H945 H 0.63037 0.20923 0.65464 0.0
H946 H 0.65153 0.36098 0.72164 0.0
H947 H 0.57045 0.30903 0.74503 0.0
Li948 Li 0.41101 0.61917 0.93005 0.0
Li949 Li 0.4161 0.65925 0.91433 0.0
Li950 Li 0.37462 0.61689 0.90981 0.0
Li951 Li 0.41806 0.62451 0.89463 0.0
C952 C 0.39612 0.65006 0.95242 0.0
N953 N 0.41106 0.67564 0.98839 0.0
C954 C 0.42385 0.66623 0.95742 0.0
C955 C 0.376 0.64698 0.96573 0.0
C956 C 0.43099 0.67896 0.97566 0.0
C957 C 0.38396 0.66007 0.98384 0.0
C958 C 0.46995 0.6665 0.91181 0.0
C959 C 0.5055 0.69563 0.88927 0.0
N960 N 0.52376 0.70588 0.90427 0.0
C961 C 0.48914 0.6771 0.92698 0.0
C962 C 0.47822 0.67564 0.89278 0.0
C963 C 0.51622 0.69709 0.92288 0.0
C964 C 0.44403 0.60358 0.94924 0.0
N965 N 0.42112 0.60557 0.95177 0.0
C966 C 0.41918 0.59421 0.98543 0.0
C967 C 0.40814 0.60035 0.96926 0.0
C968 C 0.44341 0.59316 0.98331 0.0
C969 C 0.45557 0.59726 0.96495 0.0
H970 H 0.45387 0.60792 0.93515 0.0
H971 H 0.38985 0.60191 0.97082 0.0
C972 C 0.4069 0.70168 0.92335 0.0
N973 N 0.42744 0.69746 0.91706 0.0
C974 C 0.41112 0.72818 0.92511 0.0
C975 C 0.45777 0.7459 0.91407 0.0
C976 C 0.45265 0.71892 0.91252 0.0
C977 C 0.43671 0.75053 0.92032 0.0
H978 H 0.38692 0.68433 0.92656 0.0
H979 H 0.46863 0.71527 0.90738 0.0
C980 C 0.37223 0.56682 0.91743 0.0
N981 N 0.33657 0.51645 0.93371 0.0
C982 C 0.3707 0.54294 0.91002 0.0
C983 C 0.35566 0.56513 0.93313 0.0
C984 C 0.35253 0.51765 0.91844 0.0
C985 C 0.33776 0.53946 0.94116 0.0
C986 C 0.39564 0.66417 0.88052 0.0
C987 C 0.37352 0.66831 0.88421 0.0
C988 C 0.4165 0.68192 0.86794 0.0
C989 C 0.37273 0.69024 0.87534 0.0
C990 C 0.41498 0.70364 0.85936 0.0
N991 N 0.3933 0.7073 0.86319 0.0
C992 C 0.32091 0.60478 0.9185 0.0
C993 C 0.32799 0.59421 0.88628 0.0
C994 C 0.29529 0.6011 0.9133 0.0
N995 N 0.33687 0.60203 0.90487 0.0
C996 C 0.30253 0.59038 0.88043 0.0
C997 C 0.28639 0.59469 0.89393 0.0
H998 H 0.32888 0.61169 0.93301 0.0
H999 H 0.34155 0.59297 0.87569 0.0
C1000 C 0.44528 0.59987 0.87815 0.0
N1001 N 0.4322 0.61395 0.87363 0.0
C1002 C 0.45283 0.58784 0.86343 0.0
C1003 C 0.43424 0.60598 0.83969 0.0
C1004 C 0.42689 0.61756 0.85488 0.0
C1005 C 0.44681 0.59048 0.84403 0.0
H1006 H 0.44878 0.59706 0.89326 0.0
H1007 H 0.41606 0.62851 0.85181 0.0
O1008 O 0.38851 0.63696 0.93474 0.0
O1009 O 0.44349 0.64659 0.91558 0.0
O1010 O 0.39002 0.59169 0.90935 0.0
O1011 O 0.39686 0.64286 0.88914 0.0
H1012 H 0.4397 0.66895 0.94736 0.0
H1013 H 0.35444 0.63449 0.96218 0.0
H1014 H 0.45237 0.69147 0.9797 0.0
H1015 H 0.36859 0.6578 0.99429 0.0
H1016 H 0.51213 0.703 0.87463 0.0
H1017 H 0.48322 0.6699 0.94175 0.0
H1018 H 0.46375 0.66756 0.88086 0.0
H1019 H 0.53126 0.70555 0.93449 0.0
H1020 H 0.40947 0.59119 0.99953 0.0
H1021 H 0.47444 0.59679 0.96298 0.0
H1022 H 0.39444 0.73122 0.92982 0.0
H1023 H 0.4777 0.7629 0.91016 0.0
H1024 H 0.38346 0.54396 0.89789 0.0
H1025 H 0.35661 0.58339 0.93911 0.0
H1026 H 0.35112 0.49898 0.91285 0.0
H1027 H 0.32482 0.53783 0.95331 0.0
H1028 H 0.35729 0.655 0.89402 0.0
H1029 H 0.43369 0.67899 0.8648 0.0
H1030 H 0.35581 0.69375 0.87816 0.0
H1031 H 0.43103 0.71758 0.84965 0.0
H1032 H 0.28333 0.60488 0.92392 0.0
H1033 H 0.29626 0.58582 0.86533 0.0
H1034 H 0.46219 0.57566 0.86721 0.0
H1035 H 0.42924 0.60818 0.8248 0.0
Li1036 Li 0.77508 0.41623 0.08196 0.0
Li1037 Li 0.80623 0.40368 0.09958 0.0
Li1038 Li 0.81268 0.41593 0.06465 0.0
Li1039 Li 0.77403 0.37407 0.07502 0.0
C1040 C 0.82507 0.46607 0.08095 0.0
N1041 N 0.84496 0.51935 0.06837 0.0
C1042 C 0.84745 0.48779 0.09038 0.0
C1043 C 0.81278 0.47141 0.06513 0.0
C1044 C 0.85721 0.5146 0.08381 0.0
C1045 C 0.82315 0.49849 0.05899 0.0
C1046 C 0.74253 0.36342 0.10644 0.0
C1047 C 0.71954 0.32008 0.12333 0.0
N1048 N 0.69486 0.31715 0.11814 0.0
C1049 C 0.71694 0.3601 0.10144 0.0
C1050 C 0.74387 0.34339 0.11763 0.0
C1051 C 0.69308 0.33653 0.10743 0.0
C1052 C 0.73195 0.42578 0.07283 0.0
N1053 N 0.75202 0.43112 0.08606 0.0
C1054 C 0.73104 0.44614 0.1095 0.0
C1055 C 0.75241 0.44176 0.10393 0.0
C1056 C 0.70925 0.43926 0.09653 0.0
C1057 C 0.71014 0.42977 0.07781 0.0
H1058 H 0.7318 0.4165 0.05899 0.0
H1059 H 0.7683 0.44502 0.11428 0.0
C1060 C 0.85048 0.41439 0.1249 0.0
N1061 N 0.82396 0.40858 0.12381 0.0
C1062 C 0.86449 0.42217 0.14269 0.0
C1063 C 0.82337 0.41706 0.15782 0.0
C1064 C 0.81013 0.40929 0.13981 0.0
C1065 C 0.85099 0.42419 0.1592 0.0
H1066 H 0.861 0.41401 0.11182 0.0
H1067 H 0.78916 0.40491 0.13839 0.0
C1068 C 0.77162 0.39182 0.03715 0.0
N1069 N 0.76763 0.37462 0.99893 0.0
C1070 C 0.78223 0.37502 0.03166 0.0
C1071 C 0.7589 0.39981 0.02318 0.0
C1072 C 0.78004 0.36656 0.01229 0.0
C1073 C 0.75709 0.39092 0.00394 0.0
C1074 C 0.81766 0.36321 0.08003 0.0
C1075 C 0.82701 0.35433 0.06429 0.0
C1076 C 0.81344 0.35018 0.09804 0.0
C1077 C 0.83133 0.33211 0.06673 0.0
C1078 C 0.81804 0.32807 0.09991 0.0
N1079 N 0.82677 0.31953 0.08434 0.0
C1080 C 0.8629 0.43041 0.04735 0.0
C1081 C 0.83516 0.44248 0.02844 0.0
C1082 C 0.88166 0.43761 0.03212 0.0
N1083 N 0.83989 0.43231 0.04505 0.0
C1084 C 0.85318 0.44951 0.01274 0.0
C1085 C 0.87635 0.44653 0.01449 0.0
H1086 H 0.86599 0.42208 0.06068 0.0
H1087 H 0.81675 0.44386 0.02701 0.0
C1088 C 0.72427 0.33654 0.06003 0.0
N1089 N 0.74689 0.33734 0.06786 0.0
C1090 C 0.70175 0.31172 0.05441 0.0
C1091 C 0.72588 0.28848 0.06495 0.0
C1092 C 0.74815 0.31397 0.07042 0.0
C1093 C 0.70243 0.28741 0.05686 0.0
H1094 H 0.72356 0.3553 0.05845 0.0
H1095 H 0.7661 0.31491 0.07686 0.0
O1096 O 0.81541 0.43974 0.08721 0.0
O1097 O 0.76614 0.38611 0.10035 0.0
O1098 O 0.77397 0.40083 0.05598 0.0
O1099 O 0.81369 0.38518 0.07794 0.0
H1100 H 0.85718 0.48395 0.10265 0.0
H1101 H 0.79545 0.45488 0.05763 0.0
H1102 H 0.87452 0.53162 0.09096 0.0
H1103 H 0.81386 0.50293 0.04676 0.0
H1104 H 0.72028 0.30433 0.13189 0.0
H1105 H 0.71547 0.37534 0.09277 0.0
H1106 H 0.76345 0.34576 0.12187 0.0
H1107 H 0.67314 0.33361 0.10351 0.0
H1108 H 0.73062 0.45317 0.12413 0.0
H1109 H 0.69337 0.42397 0.06764 0.0
H1110 H 0.8859 0.42771 0.14339 0.0
H1111 H 0.8125 0.41847 0.17038 0.0
H1112 H 0.79203 0.36859 0.04225 0.0
H1113 H 0.75072 0.41296 0.02714 0.0
H1114 H 0.78823 0.3536 0.00786 0.0
H1115 H 0.74738 0.39702 0.99298 0.0
H1116 H 0.83104 0.36457 0.05034 0.0
H1117 H 0.80672 0.35706 0.11046 0.0
H1118 H 0.83843 0.32495 0.05465 0.0
H1119 H 0.81471 0.31772 0.11375 0.0
H1120 H 0.89929 0.43483 0.03372 0.0
H1121 H 0.84854 0.45613 0.99915 0.0
H1122 H 0.68382 0.31145 0.04833 0.0
H1123 H 0.72681 0.26988 0.06711 0.0
Li1124 Li 0.43504 0.81131 0.26648 0.0
Li1125 Li 0.39113 0.77538 0.25062 0.0
Li1126 Li 0.43526 0.77522 0.24671 0.0
Li1127 Li 0.42943 0.81058 0.2318 0.0
C1128 C 0.42461 0.76511 0.28712 0.0
N1129 N 0.44567 0.75441 0.32019 0.0
C1130 C 0.40735 0.75112 0.30272 0.0
C1131 C 0.45258 0.77371 0.28832 0.0
C1132 C 0.4184 0.7459 0.31932 0.0
C1133 C 0.46283 0.76807 0.30516 0.0
C1134 C 0.40677 0.83829 0.24472 0.0
C1135 C 0.38759 0.85874 0.22367 0.0
N1136 N 0.40861 0.8841 0.22848 0.0
C1137 C 0.42816 0.86455 0.24948 0.0
C1138 C 0.38627 0.83532 0.23175 0.0
C1139 C 0.42873 0.88745 0.2411 0.0
C1140 C 0.47375 0.85512 0.2905 0.0
N1141 N 0.44793 0.83309 0.2892 0.0
C1142 C 0.43615 0.8432 0.32027 0.0
C1143 C 0.42928 0.82675 0.30367 0.0
C1144 C 0.46238 0.86636 0.32183 0.0
C1145 C 0.48151 0.87221 0.3069 0.0
H1146 H 0.48797 0.85982 0.27859 0.0
H1147 H 0.40883 0.80924 0.30206 0.0
C1148 C 0.34942 0.72542 0.26129 0.0
N1149 N 0.35348 0.74934 0.25347 0.0
C1150 C 0.32311 0.70281 0.26254 0.0
C1151 C 0.30529 0.72991 0.24795 0.0
C1152 C 0.33215 0.7522 0.24703 0.0
C1153 C 0.30084 0.70486 0.25556 0.0
H1154 H 0.36682 0.72364 0.26601 0.0
H1155 H 0.33601 0.77136 0.24065 0.0
C1156 C 0.486 0.8193 0.23845 0.0
N1157 N 0.53416 0.8266 0.2223 0.0
C1158 C 0.48728 0.81479 0.21856 0.0
C1159 C 0.50925 0.82764 0.25013 0.0
C1160 C 0.5118 0.81856 0.21067 0.0
C1161 C 0.5334 0.83119 0.24169 0.0
C1162 C 0.40102 0.76114 0.20869 0.0
C1163 C 0.41923 0.75695 0.19734 0.0
C1164 C 0.37522 0.75422 0.20121 0.0
C1165 C 0.41154 0.74651 0.17847 0.0
C1166 C 0.36831 0.74384 0.18226 0.0
N1167 N 0.38647 0.74026 0.17138 0.0
C1168 C 0.42101 0.72294 0.24079 0.0
C1169 C 0.46966 0.74955 0.24142 0.0
C1170 C 0.42197 0.6994 0.23611 0.0
N1171 N 0.44453 0.7474 0.24302 0.0
C1172 C 0.47159 0.72625 0.23683 0.0
C1173 C 0.44743 0.70099 0.23379 0.0
H1174 H 0.40137 0.72192 0.24218 0.0
H1175 H 0.48808 0.76919 0.24334 0.0
C1176 C 0.46293 0.85769 0.20986 0.0
N1177 N 0.43823 0.83404 0.20966 0.0
C1178 C 0.47068 0.87596 0.1943 0.0
C1179 C 0.42709 0.84565 0.1788 0.0
C1180 C 0.42022 0.82789 0.19465 0.0
C1181 C 0.45265 0.86985 0.17857 0.0
H1182 H 0.47657 0.86242 0.2222 0.0
H1183 H 0.40036 0.8095 0.19511 0.0
O1184 O 0.41421 0.77084 0.27093 0.0
O1185 O 0.40629 0.81562 0.25237 0.0
O1186 O 0.46218 0.81559 0.24656 0.0
O1187 O 0.40791 0.7709 0.22732 0.0
H1188 H 0.38568 0.74451 0.30205 0.0
H1189 H 0.46624 0.78468 0.27642 0.0
H1190 H 0.4053 0.73512 0.33154 0.0
H1191 H 0.48443 0.77461 0.30629 0.0
H1192 H 0.37197 0.85675 0.21351 0.0
H1193 H 0.44431 0.8672 0.25937 0.0
H1194 H 0.36979 0.81514 0.22772 0.0
H1195 H 0.44523 0.90789 0.24458 0.0
H1196 H 0.421 0.83832 0.33159 0.0
H1197 H 0.50187 0.89008 0.30775 0.0
H1198 H 0.32022 0.68364 0.26836 0.0
H1199 H 0.28836 0.73189 0.24233 0.0
H1200 H 0.46958 0.80855 0.20929 0.0
H1201 H 0.50859 0.83119 0.26557 0.0
H1202 H 0.51307 0.81512 0.19529 0.0
H1203 H 0.55152 0.83755 0.25057 0.0
H1204 H 0.43896 0.76143 0.20308 0.0
H1205 H 0.36079 0.75707 0.20988 0.0
H1206 H 0.42546 0.74324 0.16951 0.0
H1207 H 0.34849 0.7386 0.17623 0.0
H1208 H 0.40299 0.68018 0.23394 0.0
H1209 H 0.49155 0.72796 0.23525 0.0
H1210 H 0.49043 0.8947 0.19455 0.0
H1211 H 0.41266 0.84067 0.16691 0.0
C1212 C 0.23241 0.64625 0.2727 0.0
C1213 C 0.22264 0.63022 0.25539 0.0
C1214 C 0.26606 0.66153 0.23918 0.0
C1215 C 0.27336 0.67988 0.25517 0.0
N1216 N 0.26329 0.69068 0.28701 0.0
N1217 N 0.23798 0.61477 0.22788 0.0
C1218 C 0.25649 0.67251 0.27192 0.0
C1219 C 0.24175 0.63551 0.24018 0.0
N1220 N 0.22093 0.63503 0.29025 0.0
N1221 N 0.28203 0.66918 0.22283 0.0
H1222 H 0.22196 0.59465 0.22964 0.0
H1223 H 0.25244 0.61661 0.21764 0.0
H1224 H 0.30031 0.68789 0.22166 0.0
H1225 H 0.27603 0.65796 0.20989 0.0
H1226 H 0.2285 0.64504 0.30351 0.0
H1227 H 0.20682 0.61415 0.2918 0.0
H1228 H 0.25017 0.68753 0.29864 0.0
H1229 H 0.28109 0.70992 0.2871 0.0
C1230 C 0.6092 0.21829 0.45839 0.0
C1231 C 0.62488 0.21072 0.44611 0.0
C1232 C 0.62394 0.2414 0.42082 0.0
C1233 C 0.61447 0.25312 0.43482 0.0
N1234 N 0.59897 0.2539 0.46734 0.0
N1235 N 0.64692 0.21573 0.41458 0.0
C1236 C 0.6071 0.24174 0.45366 0.0
C1237 C 0.63173 0.22205 0.42686 0.0
N1238 N 0.59552 0.20281 0.47425 0.0
N1239 N 0.62567 0.24898 0.40173 0.0
H1240 H 0.65245 0.201 0.41734 0.0
H1241 H 0.65577 0.22656 0.40183 0.0
H1242 H 0.62047 0.26343 0.397 0.0
H1243 H 0.62956 0.23909 0.39039 0.0
H1244 H 0.58206 0.20639 0.48248 0.0
H1245 H 0.59426 0.18426 0.47781 0.0
H1246 H 0.59694 0.24878 0.48206 0.0
H1247 H 0.59608 0.27044 0.46421 0.0
C1248 C 0.42488 0.62523 0.5931 0.0
C1249 C 0.42887 0.62034 0.61299 0.0
C1250 C 0.37984 0.60239 0.61907 0.0
C1251 C 0.37596 0.60692 0.59932 0.0
N1252 N 0.39243 0.61269 0.56641 0.0
N1253 N 0.4066 0.59221 0.6414 0.0
C1254 C 0.39772 0.61482 0.58595 0.0
C1255 C 0.40523 0.60491 0.62484 0.0
N1256 N 0.44653 0.6411 0.58117 0.0
N1257 N 0.36014 0.59729 0.63266 0.0
H1258 H 0.42384 0.59102 0.6454 0.0
H1259 H 0.38928 0.57933 0.64959 0.0
H1260 H 0.34148 0.59605 0.62935 0.0
H1261 H 0.36352 0.59685 0.64756 0.0
H1262 H 0.44405 0.6478 0.56757 0.0
H1263 H 0.46705 0.64962 0.58502 0.0
H1264 H 0.40711 0.61579 0.55594 0.0
H1265 H 0.3726 0.60488 0.56084 0.0
C1266 C 0.82176 0.39869 0.79138 0.0
C1267 C 0.82856 0.42239 0.77987 0.0
C1268 C 0.80174 0.39143 0.75298 0.0
C1269 C 0.78956 0.36939 0.76625 0.0
N1270 N 0.78709 0.35189 0.79865 0.0
N1271 N 0.82425 0.44037 0.7485 0.0
C1272 C 0.79957 0.37282 0.78554 0.0
C1273 C 0.81884 0.41854 0.76016 0.0
N1274 N 0.83665 0.4005 0.80764 0.0
N1275 N 0.79651 0.38638 0.73351 0.0
H1276 H 0.83701 0.46081 0.75227 0.0
H1277 H 0.81435 0.43824 0.73524 0.0
H1278 H 0.7839 0.36661 0.728 0.0
H1279 H 0.80686 0.40113 0.72283 0.0
H1280 H 0.83358 0.38331 0.81545 0.0
H1281 H 0.85445 0.41827 0.81187 0.0
H1282 H 0.79134 0.35449 0.81353 0.0
H1283 H 0.77109 0.33242 0.7949 0.0
C1284 C 0.43599 0.81535 0.90572 0.0
C1285 C 0.44883 0.83232 0.92222 0.0
C1286 C 0.44871 0.79365 0.93875 0.0
C1287 C 0.44068 0.77861 0.92105 0.0
N1288 N 0.42654 0.77462 0.88745 0.0
N1289 N 0.44901 0.83031 0.95733 0.0
C1290 C 0.43396 0.78918 0.90451 0.0
C1291 C 0.45004 0.81951 0.93974 0.0
N1292 N 0.42382 0.82339 0.89201 0.0
N1293 N 0.45554 0.78349 0.95453 0.0
H1294 H 0.44472 0.84629 0.95849 0.0
H1295 H 0.44783 0.8208 0.97059 0.0
H1296 H 0.45419 0.76428 0.95451 0.0
H1297 H 0.46452 0.79501 0.96707 0.0
H1298 H 0.4119 0.81087 0.88059 0.0
H1299 H 0.4229 0.84138 0.8934 0.0
H1300 H 0.42457 0.78266 0.87428 0.0
H1301 H 0.4243 0.75512 0.8861 0.0
C1302 C 0.63546 0.4115 0.11295 0.0
C1303 C 0.63375 0.43597 0.11224 0.0
C1304 C 0.6828 0.46297 0.10494 0.0
C1305 C 0.68388 0.43845 0.10337 0.0
N1306 N 0.66423 0.39051 0.11132 0.0
N1307 N 0.65986 0.48413 0.12078 0.0
C1308 C 0.66109 0.41299 0.10916 0.0
C1309 C 0.65859 0.46167 0.11211 0.0
N1310 N 0.61258 0.38699 0.11717 0.0
N1311 N 0.70468 0.48748 0.09942 0.0
H1312 H 0.64401 0.48258 0.12954 0.0
H1313 H 0.67802 0.50291 0.12209 0.0
H1314 H 0.72305 0.48936 0.0944 0.0
H1315 H 0.70368 0.50547 0.0985 0.0
H1316 H 0.6112 0.36795 0.11549 0.0
H1317 H 0.59445 0.38557 0.12221 0.0
H1318 H 0.64933 0.3718 0.11698 0.0
H1319 H 0.68273 0.39101 0.10866 0.0
C1320 C 0.40328 0.81773 0.58593 0.0
C1321 C 0.40618 0.83654 0.57102 0.0
C1322 C 0.36709 0.79958 0.55351 0.0
C1323 C 0.36159 0.78216 0.5698 0.0
N1324 N 0.37444 0.77379 0.6015 0.0
N1325 N 0.40197 0.83872 0.53615 0.0
C1326 C 0.37987 0.79089 0.58594 0.0
C1327 C 0.39127 0.82574 0.55339 0.0
N1328 N 0.42398 0.82488 0.59916 0.0
N1329 N 0.34895 0.79142 0.53831 0.0
H1330 H 0.42214 0.85485 0.53505 0.0
H1331 H 0.39289 0.83073 0.52268 0.0
H1332 H 0.33111 0.77224 0.53774 0.0
H1333 H 0.35052 0.80459 0.52709 0.0
H1334 H 0.42445 0.81134 0.60926 0.0
H1335 H 0.44232 0.84358 0.59863 0.0
H1336 H 0.38484 0.78009 0.61474 0.0
H1337 H 0.35829 0.75355 0.60165 0.0
C1338 C 0.61279 0.40345 0.74992 0.0
C1339 C 0.60059 0.40903 0.7337 0.0
C1340 C 0.59855 0.37004 0.71614 0.0
C1341 C 0.60629 0.36192 0.73343 0.0
N1342 N 0.62069 0.37037 0.76708 0.0
N1343 N 0.60043 0.40804 0.69853 0.0
C1344 C 0.6136 0.3786 0.75038 0.0
C1345 C 0.59864 0.39531 0.71584 0.0
N1346 N 0.62582 0.42306 0.76395 0.0
N1347 N 0.5907 0.35342 0.70007 0.0
H1348 H 0.60585 0.42868 0.69782 0.0
H1349 H 0.60114 0.39985 0.68507 0.0
H1350 H 0.59076 0.33489 0.69964 0.0
H1351 H 0.58199 0.35694 0.68779 0.0
H1352 H 0.63734 0.42137 0.77519 0.0
H1353 H 0.62797 0.44255 0.76298 0.0
H1354 H 0.62298 0.37993 0.78051 0.0
H1355 H 0.62234 0.35272 0.76786 0.0
C1356 C 0.24287 0.6255 0.87835 0.0
C1357 C 0.21626 0.60185 0.87889 0.0
C1358 C 0.23668 0.57267 0.88381 0.0
C1359 C 0.26234 0.59655 0.88721 0.0
N1360 N 0.29139 0.64497 0.88679 0.0
N1361 N 0.19207 0.55435 0.86867 0.0
C1362 C 0.26587 0.62289 0.88381 0.0
C1363 C 0.21416 0.57559 0.87767 0.0
N1364 N 0.24604 0.64972 0.87154 0.0
N1365 N 0.23359 0.54731 0.88702 0.0
H1366 H 0.17776 0.5573 0.86094 0.0
H1367 H 0.19032 0.53526 0.86619 0.0
H1368 H 0.24987 0.54451 0.89119 0.0
H1369 H 0.21455 0.52934 0.88684 0.0
H1370 H 0.26496 0.66721 0.8691 0.0
H1371 H 0.22957 0.6514 0.8662 0.0
H1372 H 0.29617 0.66541 0.88615 0.0
H1373 H 0.29617 0.66541 0.88615 0.0
C1374 C 0.65173 0.22594 0.02673 0.0
C1375 C 0.62667 0.22005 0.03612 0.0
C1376 C 0.65426 0.25067 0.06299 0.0
C1377 C 0.67791 0.2611 0.05123 0.0
N1378 N 0.69939 0.25997 0.02122 0.0
N1379 N 0.60502 0.22873 0.06401 0.0
C1380 C 0.6768 0.24893 0.03299 0.0
C1381 C 0.62814 0.23253 0.05468 0.0
N1382 N 0.65205 0.20943 0.0122 0.0
N1383 N 0.65681 0.25846 0.0821 0.0
H1384 H 0.58506 0.2156 0.05936 0.0
H1385 H 0.60564 0.24047 0.07596 0.0
H1386 H 0.67576 0.27191 0.08846 0.0
H1387 H 0.64073 0.24943 0.09205 0.0
H1388 H 0.67018 0.21189 0.00625 0.0
H1389 H 0.63502 0.19111 0.00783 0.0
H1390 H 0.6987 0.25418 0.00671 0.0
H1391 H 0.71838 0.27631 0.02551 0.0
C1392 C 0.44958 0.64629 0.20239 0.0
C1393 C 0.43257 0.62257 0.21385 0.0
C1394 C 0.43767 0.65355 0.24098 0.0
C1395 C 0.44782 0.67579 0.22786 0.0
N1396 N 0.4619 0.6932 0.19532 0.0
N1397 N 0.40989 0.60468 0.24511 0.0
C1398 C 0.45371 0.67226 0.20841 0.0
C1399 C 0.42689 0.62643 0.2336 0.0
N1400 N 0.46235 0.64445 0.18601 0.0
N1401 N 0.43796 0.65841 0.26051 0.0
H1402 H 0.40131 0.58419 0.24117 0.0
H1403 H 0.40243 0.60704 0.25842 0.0
H1404 H 0.4457 0.67818 0.26619 0.0
H1405 H 0.43335 0.6434 0.27104 0.0
H1406 H 0.47648 0.66165 0.17824 0.0
H1407 H 0.46216 0.62664 0.18163 0.0
H1408 H 0.46308 0.69052 0.1804 0.0
H1409 H 0.4655 0.71269 0.19912 0.0
C1410 C 0.82678 0.45853 0.36569 0.0
C1411 C 0.82717 0.43341 0.36286 0.0
C1412 C 0.78135 0.4079 0.37765 0.0
C1413 C 0.78133 0.43276 0.38075 0.0
N1414 N 0.80635 0.48205 0.38241 0.0
N1415 N 0.80854 0.38616 0.37381 0.0
C1416 C 0.80474 0.45816 0.37615 0.0
C1417 C 0.80572 0.40875 0.37132 0.0
N1418 N 0.84697 0.48287 0.35832 0.0
N1419 N 0.7577 0.38325 0.37992 0.0
H1420 H 0.82589 0.38522 0.36992 0.0
H1421 H 0.79459 0.36907 0.38176 0.0
H1422 H 0.73915 0.38154 0.38429 0.0
H1423 H 0.75585 0.36461 0.37561 0.0
H1424 H 0.84467 0.50004 0.35672 0.0
H1425 H 0.86599 0.48645 0.35363 0.0
H1426 H 0.82419 0.50114 0.38164 0.0
H1427 H 0.79057 0.48252 0.39006 0.0
C1428 C 0.14967 0.57239 0.45513 0.0
C1429 C 0.12287 0.55024 0.45896 0.0
C1430 C 0.13854 0.54275 0.49051 0.0
C1431 C 0.16346 0.56793 0.48816 0.0
N1432 N 0.19376 0.60664 0.46829 0.0
N1433 N 0.09748 0.50652 0.47518 0.0
C1434 C 0.16953 0.58251 0.47034 0.0
C1435 C 0.11894 0.53289 0.47513 0.0
N1436 N 0.15653 0.5825 0.43664 0.0
N1437 N 0.1331 0.52893 0.50778 0.0
H1438 H 0.08414 0.49797 0.46339 0.0
H1439 H 0.09481 0.49212 0.48573 0.0
H1440 H 0.14739 0.53497 0.5191 0.0
H1441 H 0.11393 0.51245 0.51136 0.0
H1442 H 0.17631 0.5972 0.43251 0.0
H1443 H 0.14326 0.57358 0.42483 0.0
H1444 H 0.19794 0.62004 0.45669 0.0
H1445 H 0.20925 0.61411 0.47883 0.0
C1446 C 0.59424 0.11718 0.638 0.0
C1447 C 0.6174 0.1186 0.62846 0.0
C1448 C 0.64778 0.16196 0.64546 0.0
C1449 C 0.62522 0.1584 0.6568 0.0
N1450 N 0.57702 0.13293 0.66451 0.0
N1451 N 0.6633 0.14931 0.61653 0.0
C1452 C 0.5984 0.13624 0.65311 0.0
C1453 C 0.64338 0.14312 0.63017 0.0
N1454 N 0.56827 0.09902 0.63164 0.0
N1455 N 0.67372 0.18258 0.64994 0.0
H1456 H 0.66055 0.13713 0.60437 0.0
H1457 H 0.68146 0.16813 0.61593 0.0
H1458 H 0.67781 0.19718 0.66077 0.0
H1459 H 0.6914 0.184 0.64399 0.0
H1460 H 0.55069 0.09862 0.63681 0.0
H1461 H 0.56424 0.08661 0.6194 0.0
H1462 H 0.55779 0.11523 0.66449 0.0
H1463 H 0.57893 0.14728 0.67496 0.0
C1464 C 0.42558 0.52874 0.79649 0.0
C1465 C 0.46163 0.53973 0.78987 0.0
C1466 C 0.48543 0.57964 0.82511 0.0
C1467 C 0.45125 0.57498 0.82865 0.0
N1468 N 0.39611 0.54438 0.81974 0.0
N1469 N 0.51587 0.56214 0.80359 0.0
C1470 C 0.42149 0.54917 0.8152 0.0
C1471 C 0.49114 0.55987 0.80667 0.0
N1472 N 0.4043 0.50939 0.78607 0.0
N1473 N 0.50664 0.59805 0.83611 0.0
H1474 H 0.51836 0.55124 0.79222 0.0
H1475 H 0.53264 0.57439 0.81252 0.0
H1476 H 0.5039 0.61014 0.84638 0.0
H1477 H 0.52634 0.60105 0.83427 0.0
H1478 H 0.38412 0.50415 0.78916 0.0
H1479 H 0.40796 0.49929 0.77471 0.0
H1480 H 0.37884 0.52957 0.8123 0.0
H1481 H 0.39309 0.55499 0.83104 0.0
C1482 C 0.94882 0.48052 0.97473 0.0
C1483 C 0.93092 0.45462 0.95507 0.0
C1484 C 0.87916 0.42046 0.98027 0.0
C1485 C 0.89283 0.44904 0.99733 0.0
N1486 N 0.93725 0.49771 0.00918 0.0
N1487 N 0.88995 0.40063 0.94625 0.0
C1488 C 0.92741 0.47813 0.99522 0.0
C1489 C 0.89917 0.42121 0.95942 0.0
N1490 N 0.97475 0.50144 0.97253 0.0
N1491 N 0.8542 0.3983 0.98348 0.0
H1492 H 0.90159 0.40279 0.93386 0.0
H1493 H 0.87142 0.38243 0.94821 0.0
H1494 H 0.84264 0.39746 0.9956 0.0
H1495 H 0.84595 0.38157 0.97398 0.0
H1496 H 0.98421 0.51656 0.9832 0.0
H1497 H 0.98577 0.50252 0.96002 0.0
H1498 H 0.95705 0.51456 0.00836 0.0
H1499 H 0.92504 0.49638 0.02102 0.0
C1500 C 0.46653 0.93189 0.14804 0.0
C1501 C 0.48248 0.92967 0.13282 0.0
C1502 C 0.4722 0.88459 0.1451 0.0
C1503 C 0.46051 0.88912 0.16198 0.0
N1504 N 0.44562 0.91631 0.17979 0.0
N1505 N 0.48679 0.89767 0.11175 0.0
C1506 C 0.45705 0.91238 0.16341 0.0
C1507 C 0.48121 0.90407 0.12975 0.0
N1508 N 0.45887 0.95141 0.1471 0.0
N1509 N 0.47584 0.86232 0.1441 0.0
H1510 H 0.49048 0.91025 0.09965 0.0
H1511 H 0.48407 0.87847 0.10813 0.0
H1512 H 0.4689 0.84721 0.15483 0.0
H1513 H 0.48737 0.85976 0.13331 0.0
H1514 H 0.44526 0.95255 0.15679 0.0
H1515 H 0.46343 0.96453 0.13526 0.0
H1516 H 0.44587 0.93455 0.18294 0.0
H1517 H 0.4372 0.9018 0.1909 0.0
C1518 C 0.54833 0.42727 0.29913 0.0
C1519 C 0.56898 0.45261 0.29126 0.0
C1520 C 0.59843 0.459 0.31956 0.0
C1521 C 0.57986 0.43158 0.32529 0.0
N1522 N 0.53754 0.38894 0.32048 0.0
N1523 N 0.60722 0.49755 0.29904 0.0
C1524 C 0.55474 0.41563 0.31522 0.0
C1525 C 0.59222 0.47008 0.30298 0.0
N1526 N 0.52206 0.41537 0.29215 0.0
N1527 N 0.62248 0.47411 0.32961 0.0
H1528 H 0.60236 0.50687 0.28786 0.0
H1529 H 0.62269 0.51182 0.30806 0.0
H1530 H 0.62701 0.46739 0.34251 0.0
H1531 H 0.63867 0.49266 0.3247 0.0
H1532 H 0.50563 0.39805 0.29831 0.0
H1533 H 0.5159 0.42499 0.28199 0.0
H1534 H 0.52065 0.37526 0.31217 0.0
H1535 H 0.54127 0.37981 0.33243 0.0
C1536 C 0.47859 0.8933 0.37376 0.0
C1537 C 0.46877 0.9122 0.37321 0.0
C1538 C 0.46406 0.90728 0.33772 0.0
C1539 C 0.469 0.88495 0.33881 0.0
N1540 N 0.48327 0.85769 0.35701 0.0
N1541 N 0.46795 0.94747 0.35365 0.0
C1542 C 0.47757 0.87866 0.35653 0.0
C1543 C 0.46638 0.92249 0.35485 0.0
N1544 N 0.48969 0.89016 0.39059 0.0
N1545 N 0.45576 0.91307 0.32052 0.0
H1546 H 0.4737 0.96097 0.36538 0.0
H1547 H 0.46807 0.95677 0.34052 0.0
H1548 H 0.45478 0.90307 0.30747 0.0
H1549 H 0.4482 0.92656 0.3194 0.0
H1550 H 0.49886 0.87811 0.39182 0.0
H1551 H 0.49272 0.9022 0.40291 0.0
H1552 H 0.4863 0.84956 0.36975 0.0
H1553 H 0.48386 0.84748 0.34447 0.0
C1554 C 0.58711 0.4574 0.53033 0.0
C1555 C 0.58272 0.47956 0.52581 0.0
C1556 C 0.6066 0.48621 0.49473 0.0
C1557 C 0.60615 0.46104 0.49771 0.0
N1558 N 0.59721 0.42281 0.51834 0.0
N1559 N 0.6019 0.52301 0.50907 0.0
C1560 C 0.59717 0.44689 0.51566 0.0
C1561 C 0.59666 0.49653 0.50961 0.0
N1562 N 0.58334 0.44771 0.54898 0.0
N1563 N 0.6153 0.49954 0.47731 0.0
H1564 H 0.59702 0.53195 0.52053 0.0
H1565 H 0.61401 0.53711 0.49849 0.0
H1566 H 0.62364 0.49312 0.46632 0.0
H1567 H 0.61274 0.51597 0.47326 0.0
H1568 H 0.5882 0.43303 0.55363 0.0
H1569 H 0.57877 0.45695 0.56045 0.0
H1570 H 0.58768 0.40968 0.53003 0.0
H1571 H 0.60553 0.41512 0.50824 0.0
C1572 C 0.13634 0.55781 0.69064 0.0
C1573 C 0.13056 0.57722 0.69973 0.0
C1574 C 0.15357 0.6094 0.67288 0.0
C1575 C 0.16141 0.59109 0.66488 0.0
N1576 N 0.1569 0.54605 0.66437 0.0
N1577 N 0.12127 0.61408 0.6934 0.0
C1578 C 0.15164 0.56477 0.67317 0.0
C1579 C 0.13541 0.60085 0.68901 0.0
N1580 N 0.12676 0.53203 0.69776 0.0
N1581 N 0.16428 0.63538 0.66563 0.0
H1582 H 0.10529 0.60642 0.70348 0.0
H1583 H 0.12248 0.63013 0.68508 0.0
H1584 H 0.17772 0.64254 0.65383 0.0
H1585 H 0.16168 0.65054 0.67238 0.0
H1586 H 0.11369 0.52387 0.70967 0.0
H1587 H 0.11369 0.52387 0.70967 0.0
H1588 H 0.15038 0.5266 0.67018 0.0
H1589 H 0.16727 0.54975 0.65115 0.0
C1590 C 0.56776 0.11533 0.84644 0.0
C1591 C 0.54387 0.11414 0.85457 0.0
C1592 C 0.55352 0.15561 0.83627 0.0
C1593 C 0.57505 0.15448 0.82644 0.0
N1594 N 0.60243 0.13311 0.82113 0.0
N1595 N 0.52226 0.14066 0.86351 0.0
C1596 C 0.58225 0.13444 0.83135 0.0
C1597 C 0.53916 0.13654 0.85139 0.0
N1598 N 0.57791 0.09975 0.85411 0.0
N1599 N 0.54581 0.17406 0.83045 0.0
H1600 H 0.51221 0.12822 0.87537 0.0
H1601 H 0.5205 0.15823 0.86322 0.0
H1602 H 0.55619 0.18882 0.81975 0.0
H1603 H 0.5279 0.17344 0.8351 0.0
H1604 H 0.59655 0.10155 0.85001 0.0
H1605 H 0.56984 0.08757 0.86641 0.0
H1606 H 0.60603 0.11669 0.82199 0.0
H1607 H 0.61452 0.14762 0.81071 0.0
C1608 C 0.48385 0.55972 0.02178 0.0
C1609 C 0.49151 0.58486 0.0419 0.0
C1610 C 0.47218 0.61871 0.01787 0.0
C1611 C 0.45758 0.59058 0.00038 0.0
N1612 N 0.45435 0.54263 0.98763 0.0
N1613 N 0.50332 0.63816 0.05178 0.0
C1614 C 0.4641 0.56203 0.00172 0.0
C1615 C 0.49209 0.61791 0.03834 0.0
N1616 N 0.48973 0.5393 0.02337 0.0
N1617 N 0.46905 0.64078 0.01513 0.0
H1618 H 0.51324 0.63594 0.06391 0.0
H1619 H 0.50243 0.65613 0.05028 0.0
H1620 H 0.45839 0.64202 0.0031 0.0
H1621 H 0.47745 0.65723 0.02488 0.0
H1622 H 0.48432 0.52457 0.01244 0.0
H1623 H 0.50014 0.53824 0.03564 0.0
H1624 H 0.45789 0.52613 0.98807 0.0
H1625 H 0.44267 0.54354 0.97614 0.0
C1626 C 0.88779 0.48291 0.20892 0.0
C1627 C 0.90733 0.46708 0.21898 0.0
C1628 C 0.87949 0.4171 0.19084 0.0
C1629 C 0.86615 0.43579 0.1774 0.0
N1630 N 0.85803 0.48023 0.17643 0.0
N1631 N 0.90812 0.4178 0.22422 0.0
C1632 C 0.8692 0.46763 0.18655 0.0
C1633 C 0.89837 0.43105 0.21338 0.0
N1634 N 0.89101 0.50665 0.2162 0.0
N1635 N 0.87473 0.39247 0.18421 0.0
H1636 H 0.91977 0.42718 0.23668 0.0
H1637 H 0.90401 0.3981 0.22055 0.0
H1638 H 0.86348 0.38406 0.17146 0.0
H1639 H 0.88211 0.38135 0.19169 0.0
H1640 H 0.88119 0.51632 0.20994 0.0
H1641 H 0.90339 0.51551 0.22844 0.0
H1642 H 0.85967 0.49852 0.18138 0.0
H1643 H 0.84806 0.47231 0.16319 0.0
loop_
_geom_bond_atom_site_label_1
_geom_bond_atom_site_label_2
_geom_bond_distance
_geom_bond_site_symmetry_2
_ccdc_geom_bond_type
C0 C1 1.560 . S
C0 H61 0.959 . S
C0 H62 0.959 . S
C0 H63 0.960 . S
C1 C0 1.560 . S
C1 O56 1.426 . S
C1 H60 0.980 . S
C2 C3 1.407 . S
C2 C7 1.418 . S
C2 O56 1.334 . S
C3 C2 1.407 . S
C3 C4 1.360 . S
C3 H64 0.929 . S
C4 C3 1.360 . S
C4 C5 1.401 . S
C4 C8 1.527 . S
C5 C4 1.401 . S
C5 C6 1.405 . S
C5 C38 1.587 . S
C6 C5 1.405 . S
C6 C7 1.332 . S
C6 C9 1.496 . S
C7 C2 1.418 . S
C7 C6 1.332 . S
C7 H65 0.929 . S
C8 C4 1.527 . S
C8 H66 0.959 . S
C8 H67 0.961 . S
C8 H68 0.961 . S
C9 C6 1.496 . S
C9 H69 0.960 . S
C9 H70 0.960 . S
C9 H71 0.961 . S
C10 C11 1.517 . S
C10 H73 0.961 . S
C10 H74 0.960 . S
C10 H75 0.959 . S
C11 C10 1.517 . S
C11 O59 1.468 . S
C11 H72 0.980 . S
C12 C13 1.349 . S
C12 C17 1.367 . S
C12 O59 1.408 . S
C13 C12 1.349 . S
C13 C14 1.407 . S
C13 H76 0.930 . S
C14 C13 1.407 . S
C14 C15 1.449 1_655 S
C14 C18 1.535 1_655 S
C15 C14 1.449 1_455 S
C15 C16 1.384 1_455 S
C15 C40 1.553 . S
C16 C15 1.384 1_655 S
C16 C17 1.364 . S
C16 C19 1.450 1_655 S
C17 C12 1.367 . S
C17 C16 1.364 . S
C17 H77 0.931 . S
C18 C14 1.535 1_455 S
C18 H78 0.959 . S
C18 H79 0.961 . S
C18 H80 0.959 1_455 S
C19 C16 1.450 1_455 S
C19 H81 0.960 . S
C19 H82 0.960 . S
C19 H83 0.960 1_455 S
C20 C21 1.309 . S
C20 C25 1.304 . S
C20 O58 1.435 . S
C21 C20 1.309 . S
C21 C22 1.476 . S
C21 H85 0.930 . S
C22 C21 1.476 . S
C22 C23 1.400 . S
C22 C26 1.567 . S
C23 C22 1.400 . S
C23 C24 1.373 . S
C23 C45 1.432 . S
C24 C23 1.373 . S
C24 C25 1.339 . S
C24 C27 1.530 . S
C25 C20 1.304 . S
C25 C24 1.339 . S
C25 H86 0.930 . S
C26 C22 1.567 . S
C26 H87 0.961 . S
C26 H88 0.960 . S
C26 H89 0.958 . S
C27 C24 1.530 . S
C27 H90 0.961 . S
C27 H91 0.960 . S
C27 H92 0.960 . S
C28 C29 1.530 . S
C28 H94 0.961 . S
C28 H95 0.961 . S
C28 H96 0.959 . S
C29 C28 1.530 . S
C29 O57 1.412 . S
C29 H93 0.980 . S
C30 C31 1.288 . S
C30 C35 1.377 . S
C30 O57 1.393 . S
C31 C30 1.288 . S
C31 C32 1.369 . S
C31 H97 0.932 . S
C32 C31 1.369 . S
C32 C33 1.398 . S
C32 C36 1.527 . S
C33 C32 1.398 . S
C33 C34 1.380 . S
C33 C47 1.497 . S
C34 C33 1.380 . S
C34 C35 1.383 . S
C34 C37 1.603 . S
C35 C30 1.377 . S
C35 C34 1.383 . S
C35 H98 0.929 . S
C36 C32 1.527 . S
C36 H99 0.961 . S
C36 H100 0.959 . S
C36 H101 0.959 . S
C37 C34 1.603 . S
C37 H102 0.960 . S
C37 H103 0.962 . S
C37 H104 0.961 . S
C38 C5 1.587 . S
C38 C39 1.360 . S
C38 C51 1.412 . S
C39 C38 1.360 . S
C39 C40 1.365 . S
C39 H105 0.929 . S
C40 C15 1.553 . S
C40 C39 1.365 . S
C40 C41 1.404 . S
C41 C40 1.404 . S
C41 C42 1.395 1_455 S
C41 C52 1.451 . S
C42 C41 1.395 1_655 S
C42 C43 1.322 . S
C42 H106 0.930 . S
C43 C42 1.322 . S
C43 C44 1.459 . S
C43 H107 0.929 . S
C44 C43 1.459 . S
C44 C45 1.445 . S
C44 C53 1.395 1_655 S
C45 C23 1.432 . S
C45 C44 1.445 . S
C45 C46 1.388 . S
C46 C45 1.388 . S
C46 C47 1.408 1_655 S
C46 H108 0.944 . S
C47 C33 1.497 . S
C47 C46 1.408 1_455 S
C47 C48 1.360 . S
C48 C47 1.360 . S
C48 C49 1.401 . S
C48 C53 1.446 . S
C49 C48 1.401 . S
C49 C50 1.347 . S
C49 H109 0.929 . S
C50 C49 1.347 . S
C50 C51 1.455 . S
C50 H110 0.930 . S
C51 C38 1.412 . S
C51 C50 1.455 . S
C51 C52 1.331 . S
C52 C41 1.451 . S
C52 C51 1.331 . S
C52 C53 1.497 . S
C53 C44 1.395 1_455 S
C53 C48 1.446 . S
C53 C52 1.497 . S
C54 C55 1.582 . S
C54 H111 0.962 . S
C54 H112 0.959 . S
C54 H113 0.958 . S
C55 C54 1.582 . S
C55 O58 1.458 . S
C55 H84 0.980 . S
O56 C1 1.426 . S
O56 C2 1.334 . S
O57 C29 1.412 . S
O57 C30 1.393 . S
O58 C20 1.435 . S
O58 C55 1.458 . S
O59 C11 1.468 . S
O59 C12 1.408 . S
H60 C1 0.980 . S
H61 C0 0.959 . S
H62 C0 0.959 . S
H63 C0 0.960 . S
H64 C3 0.929 . S
H65 C7 0.929 . S
H66 C8 0.959 . S
H67 C8 0.961 . S
H68 C8 0.961 . S
H69 C9 0.960 . S
H70 C9 0.960 . S
H71 C9 0.961 . S
H72 C11 0.980 . S
H73 C10 0.961 . S
H74 C10 0.960 . S
H75 C10 0.959 . S
H76 C13 0.930 . S
H77 C17 0.931 . S
H78 C18 0.959 . S
H79 C18 0.961 . S
H80 C18 0.959 1_655 S
H81 C19 0.960 . S
H82 C19 0.960 . S
H83 C19 0.960 1_655 S
H84 C55 0.980 . S
H85 C21 0.930 . S
H86 C25 0.930 . S
H87 C26 0.961 . S
H88 C26 0.960 . S
H89 C26 0.958 . S
H90 C27 0.961 . S
H91 C27 0.960 . S
H92 C27 0.960 . S
H93 C29 0.980 . S
H94 C28 0.961 . S
H95 C28 0.961 . S
H96 C28 0.959 . S
H97 C31 0.932 . S
H98 C35 0.929 . S
H99 C36 0.961 . S
H100 C36 0.959 . S
H101 C36 0.959 . S
H102 C37 0.960 . S
H103 C37 0.962 . S
H104 C37 0.961 . S
H105 C39 0.929 . S
H106 C42 0.930 . S
H107 C43 0.929 . S
H108 C46 0.944 . S
H109 C49 0.929 . S
H110 C50 0.930 . S
H111 C54 0.962 . S
H112 C54 0.959 . S
H113 C54 0.958 . S
C114 C115 1.560 . S
C114 H175 0.959 . S
C114 H176 0.959 . S
C114 H177 0.960 . S
C115 C114 1.560 . S
C115 O170 1.426 . S
C115 H174 0.980 . S
C116 C117 1.407 . S
C116 C121 1.418 . S
C116 O170 1.334 . S
C117 C116 1.407 . S
C117 C118 1.360 . S
C117 H178 0.929 . S
C118 C117 1.360 . S
C118 C119 1.401 . S
C118 C122 1.527 . S
C119 C118 1.401 . S
C119 C120 1.405 . S
C119 C152 1.587 . S
C120 C119 1.405 . S
C120 C121 1.332 . S
C120 C123 1.496 . S
C121 C116 1.418 . S
C121 C120 1.332 . S
C121 H179 0.929 . S
C122 C118 1.527 . S
C122 H180 0.959 . S
C122 H181 0.961 . S
C122 H182 0.961 . S
C123 C120 1.496 . S
C123 H183 0.960 . S
C123 H184 0.960 . S
C123 H185 0.961 . S
C124 C125 1.517 . S
C124 H187 0.961 . S
C124 H188 0.960 . S
C124 H189 0.959 . S
C125 C124 1.517 . S
C125 O173 1.468 . S
C125 H186 0.980 . S
C126 C127 1.349 . S
C126 C131 1.367 . S
C126 O173 1.408 . S
C127 C126 1.349 . S
C127 C128 1.407 . S
C127 H190 0.930 . S
C128 C127 1.407 . S
C128 C129 1.449 . S
C128 C132 1.535 . S
C129 C128 1.449 . S
C129 C130 1.384 . S
C129 C154 1.553 . S
C130 C129 1.384 . S
C130 C131 1.364 . S
C130 C133 1.450 . S
C131 C126 1.367 . S
C131 C130 1.364 . S
C131 H191 0.931 . S
C132 C128 1.535 . S
C132 H192 0.959 . S
C132 H193 0.961 . S
C132 H194 0.959 . S
C133 C130 1.450 . S
C133 H195 0.960 . S
C133 H196 0.960 . S
C133 H197 0.960 . S
C134 C135 1.309 . S
C134 C139 1.304 . S
C134 O172 1.435 . S
C135 C134 1.309 . S
C135 C136 1.476 . S
C135 H199 0.930 . S
C136 C135 1.476 . S
C136 C137 1.400 . S
C136 C140 1.567 . S
C137 C136 1.400 . S
C137 C138 1.373 . S
C137 C159 1.432 . S
C138 C137 1.373 . S
C138 C139 1.339 . S
C138 C141 1.530 . S
C139 C134 1.304 . S
C139 C138 1.339 . S
C139 H200 0.930 . S
C140 C136 1.567 . S
C140 H201 0.961 . S
C140 H202 0.960 . S
C140 H203 0.958 . S
C141 C138 1.530 . S
C141 H204 0.961 . S
C141 H205 0.960 . S
C141 H206 0.960 . S
C142 C143 1.530 . S
C142 H208 0.961 . S
C142 H209 0.961 . S
C142 H210 0.959 . S
C143 C142 1.530 . S
C143 O171 1.412 . S
C143 H207 0.980 . S
C144 C145 1.288 . S
C144 C149 1.377 . S
C144 O171 1.393 . S
C145 C144 1.288 . S
C145 C146 1.369 . S
C145 H211 0.932 . S
C146 C145 1.369 . S
C146 C147 1.382 . S
C146 C150 1.527 1_565 S
C147 C146 1.382 . S
C147 C148 1.412 . S
C147 C161 1.484 1_565 S
C148 C147 1.412 . S
C148 C149 1.383 . S
C148 C151 1.603 . S
C149 C144 1.377 . S
C149 C148 1.383 . S
C149 H212 0.929 . S
C150 C146 1.527 1_545 S
C150 H213 0.961 . S
C150 H214 0.959 . S
C150 H215 0.959 . S
C151 C148 1.603 . S
C151 H216 0.960 . S
C151 H217 0.962 1_565 S
C151 H218 0.961 . S
C152 C119 1.587 . S
C152 C153 1.360 . S
C152 C165 1.412 . S
C153 C152 1.360 . S
C153 C154 1.365 1_565 S
C153 H219 0.929 . S
C154 C129 1.553 . S
C154 C153 1.365 1_545 S
C154 C155 1.404 . S
C155 C154 1.404 . S
C155 C156 1.395 . S
C155 C166 1.451 . S
C156 C155 1.395 . S
C156 C157 1.322 . S
C156 H220 0.930 . S
C157 C156 1.322 . S
C157 C158 1.459 . S
C157 H221 0.929 . S
C158 C157 1.459 . S
C158 C159 1.445 . S
C158 C167 1.395 . S
C159 C137 1.432 . S
C159 C158 1.445 . S
C159 C160 1.370 . S
C160 C159 1.370 . S
C160 C161 1.438 . S
C160 H222 0.930 . S
C161 C147 1.484 1_545 S
C161 C160 1.438 . S
C161 C162 1.360 . S
C162 C161 1.360 . S
C162 C163 1.401 1_545 S
C162 C167 1.446 . S
C163 C162 1.401 1_565 S
C163 C164 1.347 . S
C163 H223 0.929 . S
C164 C163 1.347 . S
C164 C165 1.455 . S
C164 H224 0.930 . S
C165 C152 1.412 . S
C165 C164 1.455 . S
C165 C166 1.331 1_565 S
C166 C155 1.451 . S
C166 C165 1.331 1_545 S
C166 C167 1.497 . S
C167 C158 1.395 . S
C167 C162 1.446 . S
C167 C166 1.497 . S
C168 C169 1.582 . S
C168 H225 0.962 . S
C168 H226 0.959 . S
C168 H227 0.958 . S
C169 C168 1.582 . S
C169 O172 1.458 . S
C169 H198 0.980 . S
O170 C115 1.426 . S
O170 C116 1.334 . S
O171 C143 1.412 . S
O171 C144 1.393 . S
O172 C134 1.435 . S
O172 C169 1.458 . S
O173 C125 1.468 . S
O173 C126 1.408 . S
H174 C115 0.980 . S
H175 C114 0.959 . S
H176 C114 0.959 . S
H177 C114 0.960 . S
H178 C117 0.929 . S
H179 C121 0.929 . S
H180 C122 0.959 . S
H181 C122 0.961 . S
H182 C122 0.961 . S
H183 C123 0.960 . S
H184 C123 0.960 . S
H185 C123 0.961 . S
H186 C125 0.980 . S
H187 C124 0.961 . S
H188 C124 0.960 . S
H189 C124 0.959 . S
H190 C127 0.930 . S
H191 C131 0.931 . S
H192 C132 0.959 . S
H193 C132 0.961 . S
H194 C132 0.959 . S
H195 C133 0.960 . S
H196 C133 0.960 . S
H197 C133 0.960 . S
H198 C169 0.980 . S
H199 C135 0.930 . S
H200 C139 0.930 . S
H201 C140 0.961 . S
H202 C140 0.960 . S
H203 C140 0.958 . S
H204 C141 0.961 . S
H205 C141 0.960 . S
H206 C141 0.960 . S
H207 C143 0.980 . S
H208 C142 0.961 . S
H209 C142 0.961 . S
H210 C142 0.959 . S
H211 C145 0.932 . S
H212 C149 0.929 . S
H213 C150 0.961 . S
H214 C150 0.959 . S
H215 C150 0.959 . S
H216 C151 0.960 . S
H217 C151 0.962 1_545 S
H218 C151 0.961 . S
H219 C153 0.929 . S
H220 C156 0.930 . S
H221 C157 0.929 . S
H222 C160 0.930 . S
H223 C163 0.929 . S
H224 C164 0.930 . S
H225 C168 0.962 . S
H226 C168 0.959 . S
H227 C168 0.958 . S
C228 C229 1.560 . S
C228 H289 0.959 . S
C228 H290 0.959 . S
C228 H291 0.960 . S
C229 C228 1.560 . S
C229 O284 1.426 . S
C229 H288 0.980 . S
C230 C231 1.407 . S
C230 C235 1.418 . S
C230 O284 1.334 . S
C231 C230 1.407 . S
C231 C232 1.360 . S
C231 H292 0.929 . S
C232 C231 1.360 . S
C232 C233 1.401 . S
C232 C236 1.527 . S
C233 C232 1.401 . S
C233 C234 1.405 . S
C233 C266 1.587 . S
C234 C233 1.405 . S
C234 C235 1.332 . S
C234 C237 1.496 . S
C235 C230 1.418 . S
C235 C234 1.332 . S
C235 H293 0.929 . S
C236 C232 1.527 . S
C236 H294 0.959 . S
C236 H295 0.961 . S
C236 H296 0.961 . S
C237 C234 1.496 . S
C237 H297 0.960 . S
C237 H298 0.960 . S
C237 H299 0.961 . S
C238 C239 1.517 . S
C238 H301 0.961 . S
C238 H302 0.960 . S
C238 H303 0.959 . S
C239 C238 1.517 . S
C239 O287 1.468 . S
C239 H300 0.980 . S
C240 C241 1.349 . S
C240 C245 1.367 . S
C240 O287 1.408 . S
C241 C240 1.349 . S
C241 C242 1.407 . S
C241 H304 0.930 . S
C242 C241 1.407 . S
C242 C243 1.449 . S
C242 C246 1.535 . S
C243 C242 1.449 . S
C243 C244 1.384 . S
C243 C268 1.553 . S
C244 C243 1.384 . S
C244 C245 1.364 . S
C244 C247 1.450 . S
C245 C240 1.367 . S
C245 C244 1.364 . S
C245 H305 0.931 . S
C246 C242 1.535 . S
C246 H306 0.959 . S
C246 H307 0.961 . S
C246 H308 0.959 . S
C247 C244 1.450 . S
C247 H309 0.960 . S
C247 H310 0.960 . S
C247 H311 0.960 . S
C248 C249 1.309 . S
C248 C253 1.304 . S
C248 O286 1.435 . S
C249 C248 1.309 . S
C249 C250 1.476 . S
C249 H313 0.930 . S
C250 C249 1.476 . S
C250 C251 1.400 . S
C250 C254 1.567 . S
C251 C250 1.400 . S
C251 C252 1.373 . S
C251 C273 1.432 . S
C252 C251 1.373 . S
C252 C253 1.339 . S
C252 C255 1.530 . S
C253 C248 1.304 . S
C253 C252 1.339 . S
C253 H314 0.930 . S
C254 C250 1.567 . S
C254 H315 0.961 . S
C254 H316 0.960 . S
C254 H317 0.958 . S
C255 C252 1.530 . S
C255 H318 0.961 . S
C255 H319 0.960 . S
C255 H320 0.960 . S
C256 C257 1.530 . S
C256 H322 0.961 . S
C256 H323 0.961 . S
C256 H324 0.959 . S
C257 C256 1.530 . S
C257 O285 1.412 . S
C257 H321 0.980 . S
C258 C259 1.288 . S
C258 C263 1.377 . S
C258 O285 1.393 . S
C259 C258 1.288 . S
C259 C260 1.369 . S
C259 H325 0.932 . S
C260 C259 1.369 . S
C260 C261 1.398 . S
C260 C264 1.527 . S
C261 C260 1.398 . S
C261 C262 1.380 . S
C261 C275 1.497 . S
C262 C261 1.380 . S
C262 C263 1.383 . S
C262 C265 1.603 . S
C263 C258 1.377 . S
C263 C262 1.383 . S
C263 H326 0.929 . S
C264 C260 1.527 . S
C264 H327 0.961 . S
C264 H328 0.959 . S
C264 H329 0.959 . S
C265 C262 1.603 . S
C265 H330 0.960 . S
C265 H331 0.962 . S
C265 H332 0.961 . S
C266 C233 1.587 . S
C266 C267 1.360 . S
C266 C279 1.412 . S
C267 C266 1.360 . S
C267 C268 1.365 . S
C267 H333 0.929 . S
C268 C243 1.553 . S
C268 C267 1.365 . S
C268 C269 1.404 . S
C269 C268 1.404 . S
C269 C270 1.395 . S
C269 C280 1.451 . S
C270 C269 1.395 . S
C270 C271 1.322 . S
C270 H334 0.930 . S
C271 C270 1.322 . S
C271 C272 1.459 . S
C271 H335 0.929 . S
C272 C271 1.459 . S
C272 C273 1.445 . S
C272 C281 1.395 . S
C273 C251 1.432 . S
C273 C272 1.445 . S
C273 C274 1.370 . S
C274 C273 1.370 . S
C274 C275 1.438 . S
C274 H336 0.930 . S
C275 C261 1.497 . S
C275 C274 1.438 . S
C275 C276 1.360 . S
C276 C275 1.360 . S
C276 C277 1.401 . S
C276 C281 1.446 . S
C277 C276 1.401 . S
C277 C278 1.347 . S
C277 H337 0.929 . S
C278 C277 1.347 . S
C278 C279 1.455 . S
C278 H338 0.930 . S
C279 C266 1.412 . S
C279 C278 1.455 . S
C279 C280 1.331 . S
C280 C269 1.451 . S
C280 C279 1.331 . S
C280 C281 1.497 . S
C281 C272 1.395 . S
C281 C276 1.446 . S
C281 C280 1.497 . S
C282 C283 1.582 . S
C282 H339 0.962 . S
C282 H340 0.959 . S
C282 H341 0.958 . S
C283 C282 1.582 . S
C283 O286 1.458 . S
C283 H312 0.980 . S
O284 C229 1.426 . S
O284 C230 1.334 . S
O285 C257 1.412 . S
O285 C258 1.393 . S
O286 C248 1.435 . S
O286 C283 1.458 . S
O287 C239 1.468 . S
O287 C240 1.408 . S
H288 C229 0.980 . S
H289 C228 0.959 . S
H290 C228 0.959 . S
H291 C228 0.960 . S
H292 C231 0.929 . S
H293 C235 0.929 . S
H294 C236 0.959 . S
H295 C236 0.961 . S
H296 C236 0.961 . S
H297 C237 0.960 . S
H298 C237 0.960 . S
H299 C237 0.961 . S
H300 C239 0.980 . S
H301 C238 0.961 . S
H302 C238 0.960 . S
H303 C238 0.959 . S
H304 C241 0.930 . S
H305 C245 0.931 . S
H306 C246 0.959 . S
H307 C246 0.961 . S
H308 C246 0.959 . S
H309 C247 0.960 . S
H310 C247 0.960 . S
H311 C247 0.960 . S
H312 C283 0.980 . S
H313 C249 0.930 . S
H314 C253 0.930 . S
H315 C254 0.961 . S
H316 C254 0.960 . S
H317 C254 0.958 . S
H318 C255 0.961 . S
H319 C255 0.960 . S
H320 C255 0.960 . S
H321 C257 0.980 . S
H322 C256 0.961 . S
H323 C256 0.961 . S
H324 C256 0.959 . S
H325 C259 0.932 . S
H326 C263 0.929 . S
H327 C264 0.961 . S
H328 C264 0.959 . S
H329 C264 0.959 . S
H330 C265 0.960 . S
H331 C265 0.962 . S
H332 C265 0.961 . S
H333 C267 0.929 . S
H334 C270 0.930 . S
H335 C271 0.929 . S
H336 C274 0.930 . S
H337 C277 0.929 . S
H338 C278 0.930 . S
H339 C282 0.962 . S
H340 C282 0.959 . S
H341 C282 0.958 . S
C342 C343 1.560 . S
C342 H403 0.959 . S
C342 H404 0.959 . S
C342 H405 0.960 . S
C343 C342 1.560 . S
C343 O398 1.426 . S
C343 H402 0.980 . S
C344 C345 1.407 . S
C344 C349 1.418 . S
C344 O398 1.334 . S
C345 C344 1.407 . S
C345 C346 1.360 . S
C345 H406 0.929 . S
C346 C345 1.360 . S
C346 C347 1.401 . S
C346 C350 1.527 . S
C347 C346 1.401 . S
C347 C348 1.405 . S
C347 C380 1.587 . S
C348 C347 1.405 . S
C348 C349 1.332 . S
C348 C351 1.496 . S
C349 C344 1.418 . S
C349 C348 1.332 . S
C349 H407 0.929 . S
C350 C346 1.527 . S
C350 H408 0.959 . S
C350 H409 0.961 . S
C350 H410 0.961 . S
C351 C348 1.496 . S
C351 H411 0.960 . S
C351 H412 0.960 . S
C351 H413 0.961 . S
C352 C353 1.517 . S
C352 H415 0.961 . S
C352 H416 0.960 . S
C352 H417 0.959 . S
C353 C352 1.517 . S
C353 O401 1.468 . S
C353 H414 0.980 . S
C354 C355 1.349 . S
C354 C359 1.367 . S
C354 O401 1.408 . S
C355 C354 1.349 . S
C355 C356 1.441 . S
C355 H418 0.930 . S
C356 C355 1.441 . S
C356 C357 1.458 1_655 S
C356 C360 1.501 1_655 S
C357 C356 1.458 1_455 S
C357 C358 1.384 1_455 S
C357 C382 1.553 . S
C358 C357 1.384 1_655 S
C358 C359 1.364 . S
C358 C361 1.450 1_655 S
C359 C354 1.367 . S
C359 C358 1.364 . S
C359 H419 0.931 . S
C360 C356 1.501 1_455 S
C360 H420 0.959 . S
C360 H421 0.961 . S
C360 H422 0.959 1_455 S
C361 C358 1.450 1_455 S
C361 H423 0.960 . S
C361 H424 0.960 . S
C361 H425 0.960 1_455 S
C362 C363 1.309 . S
C362 C367 1.304 . S
C362 O400 1.435 . S
C363 C362 1.309 . S
C363 C364 1.476 . S
C363 H427 0.930 . S
C364 C363 1.476 . S
C364 C365 1.400 . S
C364 C368 1.567 . S
C365 C364 1.400 . S
C365 C366 1.373 . S
C365 C387 1.432 . S
C366 C365 1.373 . S
C366 C367 1.339 . S
C366 C369 1.530 . S
C367 C362 1.304 . S
C367 C366 1.339 . S
C367 H428 0.930 . S
C368 C364 1.567 . S
C368 H429 0.961 . S
C368 H430 0.960 . S
C368 H431 0.958 . S
C369 C366 1.530 . S
C369 H432 0.961 . S
C369 H433 0.960 . S
C369 H434 0.960 . S
C370 C371 1.530 . S
C370 H436 0.961 . S
C370 H437 0.961 . S
C370 H438 0.959 . S
C371 C370 1.530 . S
C371 O399 1.412 . S
C371 H435 0.980 . S
C372 C373 1.288 . S
C372 C377 1.377 . S
C372 O399 1.393 . S
C373 C372 1.288 . S
C373 C374 1.369 . S
C373 H439 0.932 . S
C374 C373 1.369 . S
C374 C375 1.398 . S
C374 C378 1.527 . S
C375 C374 1.398 . S
C375 C376 1.380 . S
C375 C389 1.497 . S
C376 C375 1.380 . S
C376 C377 1.383 . S
C376 C379 1.603 . S
C377 C372 1.377 . S
C377 C376 1.383 . S
C377 H440 0.929 . S
C378 C374 1.527 . S
C378 H441 0.961 . S
C378 H442 0.959 . S
C378 H443 0.959 . S
C379 C376 1.603 . S
C379 H444 0.960 . S
C379 H445 0.962 . S
C379 H446 0.961 . S
C380 C347 1.587 . S
C380 C381 1.360 . S
C380 C393 1.412 . S
C381 C380 1.360 . S
C381 C382 1.365 . S
C381 H447 0.929 . S
C382 C357 1.553 . S
C382 C381 1.365 . S
C382 C383 1.404 . S
C383 C382 1.404 . S
C383 C384 1.395 1_455 S
C383 C394 1.451 . S
C384 C383 1.395 1_655 S
C384 C385 1.322 . S
C384 H448 0.930 . S
C385 C384 1.322 . S
C385 C386 1.459 . S
C385 H449 0.929 . S
C386 C385 1.459 . S
C386 C387 1.445 . S
C386 C395 1.395 1_655 S
C387 C365 1.432 . S
C387 C386 1.445 . S
C387 C388 1.401 . S
C388 C387 1.401 . S
C388 C389 1.394 1_655 S
C388 H450 0.946 . S
C389 C375 1.497 . S
C389 C388 1.394 1_455 S
C389 C390 1.360 . S
C390 C389 1.360 . S
C390 C391 1.401 . S
C390 C395 1.446 . S
C391 C390 1.401 . S
C391 C392 1.347 . S
C391 H451 0.929 . S
C392 C391 1.347 . S
C392 C393 1.455 . S
C392 H452 0.930 . S
C393 C380 1.412 . S
C393 C392 1.455 . S
C393 C394 1.331 . S
C394 C383 1.451 . S
C394 C393 1.331 . S
C394 C395 1.497 . S
C395 C386 1.395 1_455 S
C395 C390 1.446 . S
C395 C394 1.497 . S
C396 C397 1.582 . S
C396 H453 0.962 . S
C396 H454 0.959 . S
C396 H455 0.958 . S
C397 C396 1.582 . S
C397 O400 1.458 . S
C397 H426 0.980 . S
O398 C343 1.426 . S
O398 C344 1.334 . S
O399 C371 1.412 . S
O399 C372 1.393 . S
O400 C362 1.435 . S
O400 C397 1.458 . S
O401 C353 1.468 . S
O401 C354 1.408 . S
H402 C343 0.980 . S
H403 C342 0.959 . S
H404 C342 0.959 . S
H405 C342 0.960 . S
H406 C345 0.929 . S
H407 C349 0.929 . S
H408 C350 0.959 . S
H409 C350 0.961 . S
H410 C350 0.961 . S
H411 C351 0.960 . S
H412 C351 0.960 . S
H413 C351 0.961 . S
H414 C353 0.980 . S
H415 C352 0.961 . S
H416 C352 0.960 . S
H417 C352 0.959 . S
H418 C355 0.930 . S
H419 C359 0.931 . S
H420 C360 0.959 . S
H421 C360 0.961 . S
H422 C360 0.959 1_655 S
H423 C361 0.960 . S
H424 C361 0.960 . S
H425 C361 0.960 1_655 S
H426 C397 0.980 . S
H427 C363 0.930 . S
H428 C367 0.930 . S
H429 C368 0.961 . S
H430 C368 0.960 . S
H431 C368 0.958 . S
H432 C369 0.961 . S
H433 C369 0.960 . S
H434 C369 0.960 . S
H435 C371 0.980 . S
H436 C370 0.961 . S
H437 C370 0.961 . S
H438 C370 0.959 . S
H439 C373 0.932 . S
H440 C377 0.929 . S
H441 C378 0.961 . S
H442 C378 0.959 . S
H443 C378 0.959 . S
H444 C379 0.960 . S
H445 C379 0.962 . S
H446 C379 0.961 . S
H447 C381 0.929 . S
H448 C384 0.930 . S
H449 C385 0.929 . S
H450 C388 0.946 . S
H451 C391 0.929 . S
H452 C392 0.930 . S
H453 C396 0.962 . S
H454 C396 0.959 . S
H455 C396 0.958 . S
C456 C457 1.560 . S
C456 H517 0.959 . S
C456 H518 0.959 . S
C456 H519 0.960 . S
C457 C456 1.560 . S
C457 O512 1.426 . S
C457 H516 0.980 . S
C458 C459 1.407 . S
C458 C463 1.418 . S
C458 O512 1.334 . S
C459 C458 1.407 . S
C459 C460 1.360 . S
C459 H520 0.929 . S
C460 C459 1.360 . S
C460 C461 1.401 . S
C460 C464 1.527 . S
C461 C460 1.401 . S
C461 C462 1.405 . S
C461 C494 1.587 . S
C462 C461 1.405 . S
C462 C463 1.332 . S
C462 C465 1.496 . S
C463 C458 1.418 . S
C463 C462 1.332 . S
C463 H521 0.929 . S
C464 C460 1.527 . S
C464 H522 0.959 . S
C464 H523 0.961 . S
C464 H524 0.961 . S
C465 C462 1.496 . S
C465 H525 0.960 . S
C465 H526 0.960 . S
C465 H527 0.961 . S
C466 C467 1.517 . S
C466 H529 0.961 . S
C466 H530 0.960 . S
C466 H531 0.959 . S
C467 C466 1.517 . S
C467 O515 1.468 . S
C467 H528 0.980 . S
C468 C469 1.349 . S
C468 C473 1.367 . S
C468 O515 1.408 . S
C469 C468 1.349 . S
C469 C470 1.407 . S
C469 H532 0.930 . S
C470 C469 1.407 . S
C470 C471 1.449 . S
C470 C474 1.535 . S
C471 C470 1.449 . S
C471 C472 1.384 . S
C471 C496 1.553 . S
C472 C471 1.384 . S
C472 C473 1.364 . S
C472 C475 1.450 . S
C473 C468 1.367 . S
C473 C472 1.364 . S
C473 H533 0.931 . S
C474 C470 1.535 . S
C474 H534 0.959 . S
C474 H535 0.961 . S
C474 H536 0.959 . S
C475 C472 1.450 . S
C475 H537 0.960 . S
C475 H538 0.960 . S
C475 H539 0.960 . S
C476 C477 1.309 . S
C476 C481 1.304 . S
C476 O514 1.435 . S
C477 C476 1.309 . S
C477 C478 1.476 . S
C477 H541 0.930 . S
C478 C477 1.476 . S
C478 C479 1.400 . S
C478 C482 1.567 . S
C479 C478 1.400 . S
C479 C480 1.373 . S
C479 C501 1.432 . S
C480 C479 1.373 . S
C480 C481 1.339 . S
C480 C483 1.530 . S
C481 C476 1.304 . S
C481 C480 1.339 . S
C481 H542 0.930 . S
C482 C478 1.567 . S
C482 H543 0.961 . S
C482 H544 0.960 . S
C482 H545 0.958 . S
C483 C480 1.530 . S
C483 H546 0.961 . S
C483 H547 0.960 . S
C483 H548 0.960 . S
C484 C485 1.530 . S
C484 H550 0.961 . S
C484 H551 0.961 . S
C484 H552 0.959 . S
C485 C484 1.530 . S
C485 O513 1.412 . S
C485 H549 0.980 . S
C486 C487 1.288 . S
C486 C491 1.377 . S
C486 O513 1.393 . S
C487 C486 1.288 . S
C487 C488 1.369 . S
C487 H553 0.932 . S
C488 C487 1.369 . S
C488 C489 1.414 . S
C488 C492 1.527 1_565 S
C489 C488 1.414 . S
C489 C490 1.382 . S
C489 C503 1.481 1_565 S
C490 C489 1.382 . S
C490 C491 1.383 . S
C490 C493 1.603 . S
C491 C486 1.377 . S
C491 C490 1.383 . S
C491 H554 0.929 . S
C492 C488 1.527 1_545 S
C492 H555 0.961 . S
C492 H556 0.959 . S
C492 H557 0.959 . S
C493 C490 1.603 . S
C493 H558 0.960 . S
C493 H559 0.962 1_565 S
C493 H560 0.961 . S
C494 C461 1.587 . S
C494 C495 1.360 . S
C494 C507 1.412 . S
C495 C494 1.360 . S
C495 C496 1.365 1_565 S
C495 H561 0.929 . S
C496 C471 1.553 . S
C496 C495 1.365 1_545 S
C496 C497 1.404 . S
C497 C496 1.404 . S
C497 C498 1.395 . S
C497 C508 1.451 . S
C498 C497 1.395 . S
C498 C499 1.322 . S
C498 H562 0.930 . S
C499 C498 1.322 . S
C499 C500 1.459 1_556 S
C499 H563 0.929 . S
C500 C499 1.459 1_554 S
C500 C501 1.445 . S
C500 C509 1.395 . S
C501 C479 1.432 . S
C501 C500 1.445 . S
C501 C502 1.370 . S
C502 C501 1.370 . S
C502 C503 1.438 . S
C502 H564 0.930 . S
C503 C489 1.481 1_545 S
C503 C502 1.438 . S
C503 C504 1.360 . S
C504 C503 1.360 . S
C504 C505 1.401 1_545 S
C504 C509 1.445 . S
C505 C504 1.401 1_565 S
C505 C506 1.347 1_554 S
C505 H565 0.929 . S
C506 C505 1.347 1_556 S
C506 C507 1.455 . S
C506 H566 0.930 . S
C507 C494 1.412 . S
C507 C506 1.455 . S
C507 C508 1.331 1_565 S
C508 C497 1.451 . S
C508 C507 1.331 1_545 S
C508 C509 1.497 1_556 S
C509 C500 1.395 . S
C509 C504 1.445 . S
C509 C508 1.497 1_554 S
C510 C511 1.582 . S
C510 H567 0.962 . S
C510 H568 0.959 . S
C510 H569 0.958 . S
C511 C510 1.582 . S
C511 O514 1.458 . S
C511 H540 0.980 . S
O512 C457 1.426 . S
O512 C458 1.334 . S
O513 C485 1.412 . S
O513 C486 1.393 . S
O514 C476 1.435 . S
O514 C511 1.458 . S
O515 C467 1.468 . S
O515 C468 1.408 . S
H516 C457 0.980 . S
H517 C456 0.959 . S
H518 C456 0.959 . S
H519 C456 0.960 . S
H520 C459 0.929 . S
H521 C463 0.929 . S
H522 C464 0.959 . S
H523 C464 0.961 . S
H524 C464 0.961 . S
H525 C465 0.960 . S
H526 C465 0.960 . S
H527 C465 0.961 . S
H528 C467 0.980 . S
H529 C466 0.961 . S
H530 C466 0.960 . S
H531 C466 0.959 . S
H532 C469 0.930 . S
H533 C473 0.931 . S
H534 C474 0.959 . S
H535 C474 0.961 . S
H536 C474 0.959 . S
H537 C475 0.960 . S
H538 C475 0.960 . S
H539 C475 0.960 . S
H540 C511 0.980 . S
H541 C477 0.930 . S
H542 C481 0.930 . S
H543 C482 0.961 . S
H544 C482 0.960 . S
H545 C482 0.958 . S
H546 C483 0.961 . S
H547 C483 0.960 . S
H548 C483 0.960 . S
H549 C485 0.980 . S
H550 C484 0.961 . S
H551 C484 0.961 . S
H552 C484 0.959 . S
H553 C487 0.932 . S
H554 C491 0.929 . S
H555 C492 0.961 . S
H556 C492 0.959 . S
H557 C492 0.959 . S
H558 C493 0.960 . S
H559 C493 0.962 1_545 S
H560 C493 0.961 . S
H561 C495 0.929 . S
H562 C498 0.930 . S
H563 C499 0.929 . S
H564 C502 0.930 . S
H565 C505 0.929 . S
H566 C506 0.930 . S
H567 C510 0.962 . S
H568 C510 0.959 . S
H569 C510 0.958 . S
C570 C571 1.560 . S
C570 H631 0.959 . S
C570 H632 0.959 . S
C570 H633 0.960 . S
C571 C570 1.560 . S
C571 O626 1.426 . S
C571 H630 0.980 . S
C572 C573 1.407 . S
C572 C577 1.418 . S
C572 O626 1.334 . S
C573 C572 1.407 . S
C573 C574 1.360 . S
C573 H634 0.929 . S
C574 C573 1.360 . S
C574 C575 1.401 . S
C574 C578 1.527 . S
C575 C574 1.401 . S
C575 C576 1.405 . S
C575 C608 1.587 . S
C576 C575 1.405 . S
C576 C577 1.332 . S
C576 C579 1.496 . S
C577 C572 1.418 . S
C577 C576 1.332 . S
C577 H635 0.929 . S
C578 C574 1.527 . S
C578 H636 0.959 . S
C578 H637 0.961 . S
C578 H638 0.961 . S
C579 C576 1.496 . S
C579 H639 0.960 . S
C579 H640 0.960 . S
C579 H641 0.961 . S
C580 C581 1.517 . S
C580 H643 0.961 . S
C580 H644 0.960 . S
C580 H645 0.959 . S
C581 C580 1.517 . S
C581 O629 1.468 . S
C581 H642 0.980 . S
C582 C583 1.349 . S
C582 C587 1.367 . S
C582 O629 1.408 . S
C583 C582 1.349 . S
C583 C584 1.407 . S
C583 H646 0.930 . S
C584 C583 1.407 . S
C584 C585 1.449 . S
C584 C588 1.535 . S
C585 C584 1.449 . S
C585 C586 1.384 . S
C585 C610 1.553 . S
C586 C585 1.384 . S
C586 C587 1.364 . S
C586 C589 1.450 . S
C587 C582 1.367 . S
C587 C586 1.364 . S
C587 H647 0.931 . S
C588 C584 1.535 . S
C588 H648 0.959 . S
C588 H649 0.961 . S
C588 H650 0.959 . S
C589 C586 1.450 . S
C589 H651 0.960 . S
C589 H652 0.960 . S
C589 H653 0.960 . S
C590 C591 1.309 . S
C590 C595 1.304 . S
C590 O628 1.435 . S
C591 C590 1.309 . S
C591 C592 1.476 . S
C591 H655 0.930 . S
C592 C591 1.476 . S
C592 C593 1.400 . S
C592 C596 1.567 . S
C593 C592 1.400 . S
C593 C594 1.373 . S
C593 C615 1.432 . S
C594 C593 1.373 . S
C594 C595 1.339 . S
C594 C597 1.530 . S
C595 C590 1.304 . S
C595 C594 1.339 . S
C595 H656 0.930 . S
C596 C592 1.567 . S
C596 H657 0.961 . S
C596 H658 0.960 . S
C596 H659 0.958 . S
C597 C594 1.530 . S
C597 H660 0.961 . S
C597 H661 0.960 . S
C597 H662 0.960 . S
C598 C599 1.530 . S
C598 H664 0.961 . S
C598 H665 0.961 . S
C598 H666 0.959 . S
C599 C598 1.530 . S
C599 O627 1.412 . S
C599 H663 0.980 . S
C600 C601 1.288 . S
C600 C605 1.377 . S
C600 O627 1.393 . S
C601 C600 1.288 . S
C601 C602 1.369 . S
C601 H667 0.932 . S
C602 C601 1.369 . S
C602 C603 1.398 . S
C602 C606 1.527 . S
C603 C602 1.398 . S
C603 C604 1.380 . S
C603 C617 1.497 . S
C604 C603 1.380 . S
C604 C605 1.383 . S
C604 C607 1.603 . S
C605 C600 1.377 . S
C605 C604 1.383 . S
C605 H668 0.929 . S
C606 C602 1.527 . S
C606 H669 0.961 . S
C606 H670 0.959 . S
C606 H671 0.959 . S
C607 C604 1.603 . S
C607 H672 0.960 . S
C607 H673 0.962 . S
C607 H674 0.961 . S
C608 C575 1.587 . S
C608 C609 1.360 . S
C608 C621 1.412 . S
C609 C608 1.360 . S
C609 C610 1.365 . S
C609 H675 0.929 . S
C610 C585 1.553 . S
C610 C609 1.365 . S
C610 C611 1.404 . S
C611 C610 1.404 . S
C611 C612 1.395 . S
C611 C622 1.451 . S
C612 C611 1.395 . S
C612 C613 1.322 . S
C612 H676 0.930 . S
C613 C612 1.322 . S
C613 C614 1.459 . S
C613 H677 0.929 . S
C614 C613 1.459 . S
C614 C615 1.445 . S
C614 C623 1.395 . S
C615 C593 1.432 . S
C615 C614 1.445 . S
C615 C616 1.370 . S
C616 C615 1.370 . S
C616 C617 1.438 . S
C616 H678 0.930 . S
C617 C603 1.497 . S
C617 C616 1.438 . S
C617 C618 1.360 . S
C618 C617 1.360 . S
C618 C619 1.401 . S
C618 C623 1.446 . S
C619 C618 1.401 . S
C619 C620 1.347 . S
C619 H679 0.929 . S
C620 C619 1.347 . S
C620 C621 1.455 . S
C620 H680 0.930 . S
C621 C608 1.412 . S
C621 C620 1.455 . S
C621 C622 1.331 . S
C622 C611 1.451 . S
C622 C621 1.331 . S
C622 C623 1.497 . S
C623 C614 1.395 . S
C623 C618 1.446 . S
C623 C622 1.497 . S
C624 C625 1.582 . S
C624 H681 0.962 . S
C624 H682 0.959 . S
C624 H683 0.958 . S
C625 C624 1.582 . S
C625 O628 1.458 . S
C625 H654 0.980 . S
O626 C571 1.426 . S
O626 C572 1.334 . S
O627 C599 1.412 . S
O627 C600 1.393 . S
O628 C590 1.435 . S
O628 C625 1.458 . S
O629 C581 1.468 . S
O629 C582 1.408 . S
H630 C571 0.980 . S
H631 C570 0.959 . S
H632 C570 0.959 . S
H633 C570 0.960 . S
H634 C573 0.929 . S
H635 C577 0.929 . S
H636 C578 0.959 . S
H637 C578 0.961 . S
H638 C578 0.961 . S
H639 C579 0.960 . S
H640 C579 0.960 . S
H641 C579 0.961 . S
H642 C581 0.980 . S
H643 C580 0.961 . S
H644 C580 0.960 . S
H645 C580 0.959 . S
H646 C583 0.930 . S
H647 C587 0.931 . S
H648 C588 0.959 . S
H649 C588 0.961 . S
H650 C588 0.959 . S
H651 C589 0.960 . S
H652 C589 0.960 . S
H653 C589 0.960 . S
H654 C625 0.980 . S
H655 C591 0.930 . S
H656 C595 0.930 . S
H657 C596 0.961 . S
H658 C596 0.960 . S
H659 C596 0.958 . S
H660 C597 0.961 . S
H661 C597 0.960 . S
H662 C597 0.960 . S
H663 C599 0.980 . S
H664 C598 0.961 . S
H665 C598 0.961 . S
H666 C598 0.959 . S
H667 C601 0.932 . S
H668 C605 0.929 . S
H669 C606 0.961 . S
H670 C606 0.959 . S
H671 C606 0.959 . S
H672 C607 0.960 . S
H673 C607 0.962 . S
H674 C607 0.961 . S
H675 C609 0.929 . S
H676 C612 0.930 . S
H677 C613 0.929 . S
H678 C616 0.930 . S
H679 C619 0.929 . S
H680 C620 0.930 . S
H681 C624 0.962 . S
H682 C624 0.959 . S
H683 C624 0.958 . S
Li684 N701 1.990 . S
Li684 O744 1.956 . S
Li684 O745 1.970 . S
Li684 O746 1.961 . S
Li685 N709 1.990 . S
Li685 O744 1.970 . S
Li685 O745 1.956 . S
Li685 O747 1.961 . S
Li686 N731 1.990 . S
Li686 O744 1.961 . S
Li686 O746 1.956 . S
Li686 O747 1.970 . S
Li687 N737 1.990 . S
Li687 O745 1.961 . S
Li687 O746 1.970 . S
Li687 O747 1.956 . S
C688 C690 1.348 . S
C688 C691 1.356 . S
C688 O744 1.325 . S
N689 C692 1.314 . S
N689 C693 1.279 . S
C690 C688 1.348 . S
C690 C692 1.353 . S
C690 H748 0.929 . S
C691 C688 1.356 . S
C691 C693 1.358 . S
C691 H749 0.930 . S
C692 N689 1.314 . S
C692 C690 1.353 . S
C692 H750 0.930 . S
C693 N689 1.279 . S
C693 C691 1.358 . S
C693 H751 0.930 . S
C694 C697 1.348 . S
C694 C698 1.356 . S
C694 O745 1.325 . S
C695 N696 1.279 . S
C695 C698 1.358 . S
C695 H752 0.930 . S
N696 C695 1.279 . S
N696 C699 1.314 . S
C697 C694 1.348 . S
C697 C699 1.353 . S
C697 H753 0.929 . S
C698 C694 1.356 . S
C698 C695 1.358 . S
C698 H754 0.930 . S
C699 N696 1.314 . S
C699 C697 1.353 . S
C699 H755 0.930 . S
C700 N701 1.314 . S
C700 C705 1.353 . S
C700 H706 0.930 . S
N701 Li684 1.990 . S
N701 C700 1.314 . S
N701 C703 1.279 . S
C702 C703 1.358 . S
C702 C704 1.356 . S
C702 H756 0.930 . S
C703 N701 1.279 . S
C703 C702 1.358 . S
C703 H707 0.930 . S
C704 C702 1.356 . S
C704 C705 1.348 . S
C705 C700 1.353 . S
C705 C704 1.348 . S
C705 H757 0.929 . S
H706 C700 0.930 . S
H707 C703 0.930 . S
C708 N709 1.314 . S
C708 C710 1.353 . S
C708 H714 0.930 . S
N709 Li685 1.990 . S
N709 C708 1.314 . S
N709 C712 1.279 . S
C710 C708 1.353 . S
C710 C713 1.348 . S
C710 H758 0.929 . S
C711 C712 1.358 . S
C711 C713 1.356 . S
C711 H759 0.930 . S
C712 N709 1.279 . S
C712 C711 1.358 . S
C712 H715 0.930 . S
C713 C710 1.348 . S
C713 C711 1.356 . S
H714 C708 0.930 . S
H715 C712 0.930 . S
C716 C718 1.348 . S
C716 C719 1.356 . S
C716 O746 1.325 . S
N717 C720 1.314 . S
N717 C721 1.279 . S
C718 C716 1.348 . S
C718 C720 1.353 . S
C718 H760 0.929 . S
C719 C716 1.356 . S
C719 C721 1.358 . S
C719 H761 0.930 . S
C720 N717 1.314 . S
C720 C718 1.353 . S
C720 H762 0.930 . S
C721 N717 1.279 . S
C721 C719 1.358 . S
C721 H763 0.930 . S
C722 C723 1.348 . S
C722 C724 1.356 . S
C722 O747 1.325 . S
C723 C722 1.348 . S
C723 C725 1.353 . S
C723 H764 0.929 . S
C724 C722 1.356 . S
C724 C726 1.358 . S
C724 H765 0.930 . S
C725 C723 1.353 . S
C725 N727 1.314 . S
C725 H766 0.930 . S
C726 C724 1.358 . S
C726 N727 1.279 . S
C726 H767 0.930 . S
N727 C725 1.314 . S
N727 C726 1.279 . S
C728 C730 1.353 . S
C728 N731 1.314 . S
C728 H734 0.930 . S
C729 N731 1.279 . S
C729 C732 1.358 . S
C729 H735 0.930 . S
C730 C728 1.353 . S
C730 C733 1.348 . S
C730 H768 0.929 . S
N731 Li686 1.990 . S
N731 C728 1.314 . S
N731 C729 1.279 . S
C732 C729 1.358 . S
C732 C733 1.356 . S
C732 H769 0.930 . S
C733 C730 1.348 . S
C733 C732 1.356 . S
H734 C728 0.930 . S
H735 C729 0.930 . S
C736 N737 1.314 . S
C736 C738 1.353 . S
C736 H742 0.930 . S
N737 Li687 1.990 . S
N737 C736 1.314 . S
N737 C740 1.279 . S
C738 C736 1.353 . S
C738 C741 1.348 . S
C738 H770 0.929 . S
C739 C740 1.358 . S
C739 C741 1.356 . S
C739 H771 0.930 . S
C740 N737 1.279 . S
C740 C739 1.358 . S
C740 H743 0.930 . S
C741 C738 1.348 . S
C741 C739 1.356 . S
H742 C736 0.930 . S
H743 C740 0.930 . S
O744 Li684 1.956 . S
O744 Li685 1.970 . S
O744 Li686 1.961 . S
O744 C688 1.325 . S
O745 Li684 1.970 . S
O745 Li685 1.956 . S
O745 Li687 1.961 . S
O745 C694 1.325 . S
O746 Li684 1.961 . S
O746 Li686 1.956 . S
O746 Li687 1.970 . S
O746 C716 1.325 . S
O747 Li685 1.961 . S
O747 Li686 1.970 . S
O747 Li687 1.956 . S
O747 C722 1.325 . S
H748 C690 0.929 . S
H749 C691 0.930 . S
H750 C692 0.930 . S
H751 C693 0.930 . S
H752 C695 0.930 . S
H753 C697 0.929 . S
H754 C698 0.930 . S
H755 C699 0.930 . S
H756 C702 0.930 . S
H757 C705 0.929 . S
H758 C710 0.929 . S
H759 C711 0.930 . S
H760 C718 0.929 . S
H761 C719 0.930 . S
H762 C720 0.930 . S
H763 C721 0.930 . S
H764 C723 0.929 . S
H765 C724 0.930 . S
H766 C725 0.930 . S
H767 C726 0.930 . S
H768 C730 0.929 . S
H769 C732 0.930 . S
H770 C738 0.929 . S
H771 C739 0.930 . S
Li772 N789 1.990 . S
Li772 O832 1.956 . S
Li772 O833 1.970 . S
Li772 O834 1.961 . S
Li773 N797 1.990 . S
Li773 O832 1.970 . S
Li773 O833 1.956 . S
Li773 O835 1.961 . S
Li774 N819 1.990 . S
Li774 O832 1.961 . S
Li774 O834 1.956 . S
Li774 O835 1.970 . S
Li775 N825 1.990 . S
Li775 O833 1.961 . S
Li775 O834 1.970 . S
Li775 O835 1.956 . S
C776 C778 1.348 . S
C776 C779 1.356 . S
C776 O832 1.325 . S
N777 C780 1.314 . S
N777 C781 1.279 . S
C778 C776 1.348 . S
C778 C780 1.353 . S
C778 H836 0.929 . S
C779 C776 1.356 . S
C779 C781 1.358 . S
C779 H837 0.930 . S
C780 N777 1.314 . S
C780 C778 1.353 . S
C780 H838 0.930 . S
C781 N777 1.279 . S
C781 C779 1.358 . S
C781 H839 0.930 . S
C782 C785 1.348 . S
C782 C786 1.356 . S
C782 O833 1.325 . S
C783 N784 1.279 . S
C783 C786 1.358 . S
C783 H840 0.930 . S
N784 C783 1.279 . S
N784 C787 1.314 . S
C785 C782 1.348 . S
C785 C787 1.353 . S
C785 H841 0.929 . S
C786 C782 1.356 . S
C786 C783 1.358 . S
C786 H842 0.930 . S
C787 N784 1.314 . S
C787 C785 1.353 . S
C787 H843 0.930 . S
C788 N789 1.314 . S
C788 C793 1.353 . S
C788 H794 0.930 . S
N789 Li772 1.990 . S
N789 C788 1.314 . S
N789 C791 1.279 . S
C790 C791 1.358 . S
C790 C792 1.356 . S
C790 H844 0.930 . S
C791 N789 1.279 . S
C791 C790 1.358 . S
C791 H795 0.930 . S
C792 C790 1.356 . S
C792 C793 1.348 . S
C793 C788 1.353 . S
C793 C792 1.348 . S
C793 H845 0.929 . S
H794 C788 0.930 . S
H795 C791 0.930 . S
C796 N797 1.314 . S
C796 C798 1.353 . S
C796 H802 0.930 . S
N797 Li773 1.990 . S
N797 C796 1.314 . S
N797 C800 1.279 . S
C798 C796 1.353 . S
C798 C801 1.348 . S
C798 H846 0.929 . S
C799 C800 1.358 . S
C799 C801 1.356 . S
C799 H847 0.930 . S
C800 N797 1.279 . S
C800 C799 1.358 . S
C800 H803 0.930 . S
C801 C798 1.348 . S
C801 C799 1.356 . S
H802 C796 0.930 . S
H803 C800 0.930 . S
C804 C806 1.348 . S
C804 C807 1.356 . S
C804 O834 1.325 . S
N805 C808 1.314 . S
N805 C809 1.279 . S
C806 C804 1.348 . S
C806 C808 1.353 . S
C806 H848 0.929 . S
C807 C804 1.356 . S
C807 C809 1.358 . S
C807 H849 0.930 . S
C808 N805 1.314 . S
C808 C806 1.353 . S
C808 H850 0.930 . S
C809 N805 1.279 . S
C809 C807 1.358 . S
C809 H851 0.930 . S
C810 C811 1.348 . S
C810 C812 1.356 . S
C810 O835 1.325 . S
C811 C810 1.348 . S
C811 C813 1.353 . S
C811 H852 0.929 . S
C812 C810 1.356 . S
C812 C814 1.358 . S
C812 H853 0.930 . S
C813 C811 1.353 . S
C813 N815 1.314 . S
C813 H854 0.930 . S
C814 C812 1.358 . S
C814 N815 1.279 . S
C814 H855 0.930 . S
N815 C813 1.314 . S
N815 C814 1.279 . S
C816 C818 1.353 . S
C816 N819 1.314 . S
C816 H822 0.930 . S
C817 N819 1.279 . S
C817 C820 1.358 . S
C817 H823 0.930 . S
C818 C816 1.353 . S
C818 C821 1.348 . S
C818 H856 0.929 . S
N819 Li774 1.990 . S
N819 C816 1.314 . S
N819 C817 1.279 . S
C820 C817 1.358 . S
C820 C821 1.356 . S
C820 H857 0.930 . S
C821 C818 1.348 . S
C821 C820 1.356 . S
H822 C816 0.930 . S
H823 C817 0.930 . S
C824 N825 1.314 . S
C824 C826 1.353 . S
C824 H830 0.930 . S
N825 Li775 1.990 . S
N825 C824 1.314 . S
N825 C828 1.279 . S
C826 C824 1.353 . S
C826 C829 1.348 . S
C826 H858 0.929 . S
C827 C828 1.358 . S
C827 C829 1.356 . S
C827 H859 0.930 . S
C828 N825 1.279 . S
C828 C827 1.358 . S
C828 H831 0.930 . S
C829 C826 1.348 . S
C829 C827 1.356 . S
H830 C824 0.930 . S
H831 C828 0.930 . S
O832 Li772 1.956 . S
O832 Li773 1.970 . S
O832 Li774 1.961 . S
O832 C776 1.325 . S
O833 Li772 1.970 . S
O833 Li773 1.956 . S
O833 Li775 1.961 . S
O833 C782 1.325 . S
O834 Li772 1.961 . S
O834 Li774 1.956 . S
O834 Li775 1.970 . S
O834 C804 1.325 . S
O835 Li773 1.961 . S
O835 Li774 1.970 . S
O835 Li775 1.956 . S
O835 C810 1.325 . S
H836 C778 0.929 . S
H837 C779 0.930 . S
H838 C780 0.930 . S
H839 C781 0.930 . S
H840 C783 0.930 . S
H841 C785 0.929 . S
H842 C786 0.930 . S
H843 C787 0.930 . S
H844 C790 0.930 . S
H845 C793 0.929 . S
H846 C798 0.929 . S
H847 C799 0.930 . S
H848 C806 0.929 . S
H849 C807 0.930 . S
H850 C808 0.930 . S
H851 C809 0.930 . S
H852 C811 0.929 . S
H853 C812 0.930 . S
H854 C813 0.930 . S
H855 C814 0.930 . S
H856 C818 0.929 . S
H857 C820 0.930 . S
H858 C826 0.929 . S
H859 C827 0.930 . S
Li860 N877 1.990 . S
Li860 O920 1.956 . S
Li860 O921 1.970 . S
Li860 O922 1.961 . S
Li861 N885 1.990 . S
Li861 O920 1.970 . S
Li861 O921 1.956 . S
Li861 O923 1.961 . S
Li862 N907 1.990 . S
Li862 O920 1.961 . S
Li862 O922 1.956 . S
Li862 O923 1.970 . S
Li863 N913 1.990 . S
Li863 O921 1.961 . S
Li863 O922 1.970 . S
Li863 O923 1.956 . S
C864 C866 1.348 . S
C864 C867 1.356 . S
C864 O920 1.325 . S
N865 C868 1.314 . S
N865 C869 1.279 . S
C866 C864 1.348 . S
C866 C868 1.353 . S
C866 H924 0.929 . S
C867 C864 1.356 . S
C867 C869 1.358 . S
C867 H925 0.930 . S
C868 N865 1.314 . S
C868 C866 1.353 . S
C868 H926 0.930 . S
C869 N865 1.279 . S
C869 C867 1.358 . S
C869 H927 0.930 . S
C870 C873 1.348 . S
C870 C874 1.356 . S
C870 O921 1.325 . S
C871 N872 1.279 . S
C871 C874 1.358 . S
C871 H928 0.930 . S
N872 C871 1.279 . S
N872 C875 1.314 . S
C873 C870 1.348 . S
C873 C875 1.353 . S
C873 H929 0.929 . S
C874 C870 1.356 . S
C874 C871 1.358 . S
C874 H930 0.930 . S
C875 N872 1.314 . S
C875 C873 1.353 . S
C875 H931 0.930 . S
C876 N877 1.314 . S
C876 C881 1.353 . S
C876 H882 0.930 . S
N877 Li860 1.990 . S
N877 C876 1.314 . S
N877 C879 1.279 . S
C878 C879 1.358 . S
C878 C880 1.356 . S
C878 H932 0.930 . S
C879 N877 1.279 . S
C879 C878 1.358 . S
C879 H883 0.930 . S
C880 C878 1.356 . S
C880 C881 1.348 . S
C881 C876 1.353 . S
C881 C880 1.348 . S
C881 H933 0.929 . S
H882 C876 0.930 . S
H883 C879 0.930 . S
C884 N885 1.314 . S
C884 C886 1.353 . S
C884 H890 0.930 . S
N885 Li861 1.990 . S
N885 C884 1.314 . S
N885 C888 1.279 . S
C886 C884 1.353 . S
C886 C889 1.348 . S
C886 H934 0.929 . S
C887 C888 1.358 . S
C887 C889 1.356 . S
C887 H935 0.930 . S
C888 N885 1.279 . S
C888 C887 1.358 . S
C888 H891 0.930 . S
C889 C886 1.348 . S
C889 C887 1.356 . S
H890 C884 0.930 . S
H891 C888 0.930 . S
C892 C894 1.348 . S
C892 C895 1.356 . S
C892 O922 1.325 . S
N893 C896 1.314 . S
N893 C897 1.279 . S
C894 C892 1.348 . S
C894 C896 1.353 . S
C894 H936 0.929 . S
C895 C892 1.356 . S
C895 C897 1.358 . S
C895 H937 0.930 . S
C896 N893 1.314 . S
C896 C894 1.353 . S
C896 H938 0.930 . S
C897 N893 1.279 . S
C897 C895 1.358 . S
C897 H939 0.930 . S
C898 C899 1.348 . S
C898 C900 1.356 . S
C898 O923 1.325 . S
C899 C898 1.348 . S
C899 C901 1.353 . S
C899 H940 0.929 . S
C900 C898 1.356 . S
C900 C902 1.358 . S
C900 H941 0.930 . S
C901 C899 1.353 . S
C901 N903 1.314 . S
C901 H942 0.930 . S
C902 C900 1.358 . S
C902 N903 1.279 . S
C902 H943 0.930 . S
N903 C901 1.314 . S
N903 C902 1.279 . S
C904 C906 1.353 . S
C904 N907 1.314 . S
C904 H910 0.930 . S
C905 N907 1.279 . S
C905 C908 1.358 . S
C905 H911 0.930 . S
C906 C904 1.353 . S
C906 C909 1.348 . S
C906 H944 0.929 . S
N907 Li862 1.990 . S
N907 C904 1.314 . S
N907 C905 1.279 . S
C908 C905 1.358 . S
C908 C909 1.356 . S
C908 H945 0.930 . S
C909 C906 1.348 . S
C909 C908 1.356 . S
H910 C904 0.930 . S
H911 C905 0.930 . S
C912 N913 1.314 . S
C912 C914 1.353 . S
C912 H918 0.930 . S
N913 Li863 1.990 . S
N913 C912 1.314 . S
N913 C916 1.279 . S
C914 C912 1.353 . S
C914 C917 1.348 . S
C914 H946 0.929 . S
C915 C916 1.358 . S
C915 C917 1.356 . S
C915 H947 0.930 . S
C916 N913 1.279 . S
C916 C915 1.358 . S
C916 H919 0.930 . S
C917 C914 1.348 . S
C917 C915 1.356 . S
H918 C912 0.930 . S
H919 C916 0.930 . S
O920 Li860 1.956 . S
O920 Li861 1.970 . S
O920 Li862 1.961 . S
O920 C864 1.325 . S
O921 Li860 1.970 . S
O921 Li861 1.956 . S
O921 Li863 1.961 . S
O921 C870 1.325 . S
O922 Li860 1.961 . S
O922 Li862 1.956 . S
O922 Li863 1.970 . S
O922 C892 1.325 . S
O923 Li861 1.961 . S
O923 Li862 1.970 . S
O923 Li863 1.956 . S
O923 C898 1.325 . S
H924 C866 0.929 . S
H925 C867 0.930 . S
H926 C868 0.930 . S
H927 C869 0.930 . S
H928 C871 0.930 . S
H929 C873 0.929 . S
H930 C874 0.930 . S
H931 C875 0.930 . S
H932 C878 0.930 . S
H933 C881 0.929 . S
H934 C886 0.929 . S
H935 C887 0.930 . S
H936 C894 0.929 . S
H937 C895 0.930 . S
H938 C896 0.930 . S
H939 C897 0.930 . S
H940 C899 0.929 . S
H941 C900 0.930 . S
H942 C901 0.930 . S
H943 C902 0.930 . S
H944 C906 0.929 . S
H945 C908 0.930 . S
H946 C914 0.929 . S
H947 C915 0.930 . S
Li948 N965 1.990 . S
Li948 O1008 1.956 . S
Li948 O1009 1.970 . S
Li948 O1010 1.961 . S
Li949 N973 1.990 . S
Li949 O1008 1.970 . S
Li949 O1009 1.956 . S
Li949 O1011 1.961 . S
Li950 N995 1.990 . S
Li950 O1008 1.961 . S
Li950 O1010 1.956 . S
Li950 O1011 1.970 . S
Li951 N1001 1.990 . S
Li951 O1009 1.961 . S
Li951 O1010 1.970 . S
Li951 O1011 1.956 . S
C952 C954 1.348 . S
C952 C955 1.356 . S
C952 O1008 1.325 . S
N953 C956 1.314 . S
N953 C957 1.279 . S
C954 C952 1.348 . S
C954 C956 1.353 . S
C954 H1012 0.929 . S
C955 C952 1.356 . S
C955 C957 1.358 . S
C955 H1013 0.930 . S
C956 N953 1.314 . S
C956 C954 1.353 . S
C956 H1014 0.930 . S
C957 N953 1.279 . S
C957 C955 1.358 . S
C957 H1015 0.930 . S
C958 C961 1.348 . S
C958 C962 1.356 . S
C958 O1009 1.325 . S
C959 N960 1.279 . S
C959 C962 1.358 . S
C959 H1016 0.930 . S
N960 C959 1.279 . S
N960 C963 1.314 . S
C961 C958 1.348 . S
C961 C963 1.353 . S
C961 H1017 0.929 . S
C962 C958 1.356 . S
C962 C959 1.358 . S
C962 H1018 0.930 . S
C963 N960 1.314 . S
C963 C961 1.353 . S
C963 H1019 0.930 . S
C964 N965 1.314 . S
C964 C969 1.353 . S
C964 H970 0.930 . S
N965 Li948 1.990 . S
N965 C964 1.314 . S
N965 C967 1.279 . S
C966 C967 1.358 . S
C966 C968 1.356 . S
C966 H1020 0.880 1_556 S
C967 N965 1.279 . S
C967 C966 1.358 . S
C967 H971 0.930 . S
C968 C966 1.356 . S
C968 C969 1.348 . S
C969 C964 1.353 . S
C969 C968 1.348 . S
C969 H1021 0.929 . S
H970 C964 0.930 . S
H971 C967 0.930 . S
C972 N973 1.314 . S
C972 C974 1.353 . S
C972 H978 0.930 . S
N973 Li949 1.990 . S
N973 C972 1.314 . S
N973 C976 1.279 . S
C974 C972 1.353 . S
C974 C977 1.348 . S
C974 H1022 0.929 . S
C975 C976 1.358 . S
C975 C977 1.356 . S
C975 H1023 0.930 . S
C976 N973 1.279 . S
C976 C975 1.358 . S
C976 H979 0.930 . S
C977 C974 1.348 . S
C977 C975 1.356 . S
H978 C972 0.930 . S
H979 C976 0.930 . S
C980 C982 1.348 . S
C980 C983 1.356 . S
C980 O1010 1.325 . S
N981 C984 1.314 . S
N981 C985 1.279 . S
C982 C980 1.348 . S
C982 C984 1.353 . S
C982 H1024 0.929 . S
C983 C980 1.356 . S
C983 C985 1.358 . S
C983 H1025 0.930 . S
C984 N981 1.314 . S
C984 C982 1.353 . S
C984 H1026 0.930 . S
C985 N981 1.279 . S
C985 C983 1.358 . S
C985 H1027 0.930 . S
C986 C987 1.348 . S
C986 C988 1.356 . S
C986 O1011 1.325 . S
C987 C986 1.348 . S
C987 C989 1.353 . S
C987 H1028 0.929 . S
C988 C986 1.356 . S
C988 C990 1.358 . S
C988 H1029 0.930 . S
C989 C987 1.353 . S
C989 N991 1.314 . S
C989 H1030 0.930 . S
C990 C988 1.358 . S
C990 N991 1.279 . S
C990 H1031 0.930 . S
N991 C989 1.314 . S
N991 C990 1.279 . S
C992 C994 1.353 . S
C992 N995 1.314 . S
C992 H998 0.930 . S
C993 N995 1.279 . S
C993 C996 1.358 . S
C993 H999 0.930 . S
C994 C992 1.353 . S
C994 C997 1.348 . S
C994 H1032 0.929 . S
N995 Li950 1.990 . S
N995 C992 1.314 . S
N995 C993 1.279 . S
C996 C993 1.358 . S
C996 C997 1.356 . S
C996 H1033 0.930 . S
C997 C994 1.348 . S
C997 C996 1.356 . S
H998 C992 0.930 . S
H999 C993 0.930 . S
C1000 N1001 1.314 . S
C1000 C1002 1.353 . S
C1000 H1006 0.930 . S
N1001 Li951 1.990 . S
N1001 C1000 1.314 . S
N1001 C1004 1.279 . S
C1002 C1000 1.353 . S
C1002 C1005 1.348 . S
C1002 H1034 0.929 . S
C1003 C1004 1.358 . S
C1003 C1005 1.356 . S
C1003 H1035 0.930 . S
C1004 N1001 1.279 . S
C1004 C1003 1.358 . S
C1004 H1007 0.930 . S
C1005 C1002 1.348 . S
C1005 C1003 1.356 . S
H1006 C1000 0.930 . S
H1007 C1004 0.930 . S
O1008 Li948 1.956 . S
O1008 Li949 1.970 . S
O1008 Li950 1.961 . S
O1008 C952 1.325 . S
O1009 Li948 1.970 . S
O1009 Li949 1.956 . S
O1009 Li951 1.961 . S
O1009 C958 1.325 . S
O1010 Li948 1.961 . S
O1010 Li950 1.956 . S
O1010 Li951 1.970 . S
O1010 C980 1.325 . S
O1011 Li949 1.961 . S
O1011 Li950 1.970 . S
O1011 Li951 1.956 . S
O1011 C986 1.325 . S
H1012 C954 0.929 . S
H1013 C955 0.930 . S
H1014 C956 0.930 . S
H1015 C957 0.930 . S
H1016 C959 0.930 . S
H1017 C961 0.929 . S
H1018 C962 0.930 . S
H1019 C963 0.930 . S
H1020 C966 0.880 1_554 S
H1021 C969 0.929 . S
H1022 C974 0.929 . S
H1023 C975 0.930 . S
H1024 C982 0.929 . S
H1025 C983 0.930 . S
H1026 C984 0.930 . S
H1027 C985 0.930 . S
H1028 C987 0.929 . S
H1029 C988 0.930 . S
H1030 C989 0.930 . S
H1031 C990 0.930 . S
H1032 C994 0.929 . S
H1033 C996 0.930 . S
H1034 C1002 0.929 . S
H1035 C1003 0.930 . S
Li1036 N1053 1.990 . S
Li1036 O1096 1.956 . S
Li1036 O1097 1.970 . S
Li1036 O1098 1.961 . S
Li1037 N1061 1.990 . S
Li1037 O1096 1.970 . S
Li1037 O1097 1.956 . S
Li1037 O1099 1.961 . S
Li1038 N1083 1.990 . S
Li1038 O1096 1.961 . S
Li1038 O1098 1.956 . S
Li1038 O1099 1.970 . S
Li1039 N1089 1.990 . S
Li1039 O1097 1.961 . S
Li1039 O1098 1.970 . S
Li1039 O1099 1.956 . S
C1040 C1042 1.348 . S
C1040 C1043 1.356 . S
C1040 O1096 1.325 . S
N1041 C1044 1.314 . S
N1041 C1045 1.279 . S
C1042 C1040 1.348 . S
C1042 C1044 1.353 . S
C1042 H1100 0.929 . S
C1043 C1040 1.356 . S
C1043 C1045 1.358 . S
C1043 H1101 0.930 . S
C1044 N1041 1.314 . S
C1044 C1042 1.353 . S
C1044 H1102 0.930 . S
C1045 N1041 1.279 . S
C1045 C1043 1.358 . S
C1045 H1103 0.930 . S
C1046 C1049 1.348 . S
C1046 C1050 1.356 . S
C1046 O1097 1.325 . S
C1047 N1048 1.279 . S
C1047 C1050 1.358 . S
C1047 H1104 0.930 . S
N1048 C1047 1.279 . S
N1048 C1051 1.314 . S
C1049 C1046 1.348 . S
C1049 C1051 1.353 . S
C1049 H1105 0.929 . S
C1050 C1046 1.356 . S
C1050 C1047 1.358 . S
C1050 H1106 0.930 . S
C1051 N1048 1.314 . S
C1051 C1049 1.353 . S
C1051 H1107 0.930 . S
C1052 N1053 1.314 . S
C1052 C1057 1.353 . S
C1052 H1058 0.930 . S
N1053 Li1036 1.990 . S
N1053 C1052 1.314 . S
N1053 C1055 1.279 . S
C1054 C1055 1.358 . S
C1054 C1056 1.356 . S
C1054 H1108 0.930 . S
C1055 N1053 1.279 . S
C1055 C1054 1.358 . S
C1055 H1059 0.930 . S
C1056 C1054 1.356 . S
C1056 C1057 1.348 . S
C1057 C1052 1.353 . S
C1057 C1056 1.348 . S
C1057 H1109 0.929 . S
H1058 C1052 0.930 . S
H1059 C1055 0.930 . S
C1060 N1061 1.314 . S
C1060 C1062 1.353 . S
C1060 H1066 0.930 . S
N1061 Li1037 1.990 . S
N1061 C1060 1.314 . S
N1061 C1064 1.279 . S
C1062 C1060 1.353 . S
C1062 C1065 1.348 . S
C1062 H1110 0.929 . S
C1063 C1064 1.358 . S
C1063 C1065 1.356 . S
C1063 H1111 0.930 . S
C1064 N1061 1.279 . S
C1064 C1063 1.358 . S
C1064 H1067 0.930 . S
C1065 C1062 1.348 . S
C1065 C1063 1.356 . S
H1066 C1060 0.930 . S
H1067 C1064 0.930 . S
C1068 C1070 1.348 . S
C1068 C1071 1.356 . S
C1068 O1098 1.325 . S
N1069 C1072 1.314 . S
N1069 C1073 1.279 . S
C1070 C1068 1.348 . S
C1070 C1072 1.353 . S
C1070 H1112 0.929 . S
C1071 C1068 1.356 . S
C1071 C1073 1.358 . S
C1071 H1113 0.930 . S
C1072 N1069 1.314 . S
C1072 C1070 1.353 . S
C1072 H1114 0.930 . S
C1073 N1069 1.279 . S
C1073 C1071 1.358 . S
C1073 H1115 0.930 . S
C1074 C1075 1.348 . S
C1074 C1076 1.356 . S
C1074 O1099 1.325 . S
C1075 C1074 1.348 . S
C1075 C1077 1.353 . S
C1075 H1116 0.929 . S
C1076 C1074 1.356 . S
C1076 C1078 1.358 . S
C1076 H1117 0.930 . S
C1077 C1075 1.353 . S
C1077 N1079 1.314 . S
C1077 H1118 0.930 . S
C1078 C1076 1.358 . S
C1078 N1079 1.279 . S
C1078 H1119 0.930 . S
N1079 C1077 1.314 . S
N1079 C1078 1.279 . S
C1080 C1082 1.353 . S
C1080 N1083 1.314 . S
C1080 H1086 0.930 . S
C1081 N1083 1.279 . S
C1081 C1084 1.369 . S
C1081 H1087 0.930 . S
C1082 C1080 1.353 . S
C1082 C1085 1.348 . S
C1082 H1120 0.929 . S
N1083 Li1038 1.990 . S
N1083 C1080 1.314 . S
N1083 C1081 1.279 . S
C1084 C1081 1.369 . S
C1084 C1085 1.357 . S
C1084 H1121 0.917 1_554 S
C1085 C1082 1.348 . S
C1085 C1084 1.357 . S
H1086 C1080 0.930 . S
H1087 C1081 0.930 . S
C1088 N1089 1.314 . S
C1088 C1090 1.353 . S
C1088 H1094 0.930 . S
N1089 Li1039 1.990 . S
N1089 C1088 1.314 . S
N1089 C1092 1.279 . S
C1090 C1088 1.353 . S
C1090 C1093 1.348 . S
C1090 H1122 0.929 . S
C1091 C1092 1.358 . S
C1091 C1093 1.356 . S
C1091 H1123 0.930 . S
C1092 N1089 1.279 . S
C1092 C1091 1.358 . S
C1092 H1095 0.930 . S
C1093 C1090 1.348 . S
C1093 C1091 1.356 . S
H1094 C1088 0.930 . S
H1095 C1092 0.930 . S
O1096 Li1036 1.956 . S
O1096 Li1037 1.970 . S
O1096 Li1038 1.961 . S
O1096 C1040 1.325 . S
O1097 Li1036 1.970 . S
O1097 Li1037 1.956 . S
O1097 Li1039 1.961 . S
O1097 C1046 1.325 . S
O1098 Li1036 1.961 . S
O1098 Li1038 1.956 . S
O1098 Li1039 1.970 . S
O1098 C1068 1.325 . S
O1099 Li1037 1.961 . S
O1099 Li1038 1.970 . S
O1099 Li1039 1.956 . S
O1099 C1074 1.325 . S
H1100 C1042 0.929 . S
H1101 C1043 0.930 . S
H1102 C1044 0.930 . S
H1103 C1045 0.930 . S
H1104 C1047 0.930 . S
H1105 C1049 0.929 . S
H1106 C1050 0.930 . S
H1107 C1051 0.930 . S
H1108 C1054 0.930 . S
H1109 C1057 0.929 . S
H1110 C1062 0.929 . S
H1111 C1063 0.930 . S
H1112 C1070 0.929 . S
H1113 C1071 0.930 . S
H1114 C1072 0.930 . S
H1115 C1073 0.930 . S
H1116 C1075 0.929 . S
H1117 C1076 0.930 . S
H1118 C1077 0.930 . S
H1119 C1078 0.930 . S
H1120 C1082 0.929 . S
H1121 C1084 0.917 1_556 S
H1122 C1090 0.929 . S
H1123 C1091 0.930 . S
Li1124 N1141 1.990 . S
Li1124 O1184 1.956 . S
Li1124 O1185 1.970 . S
Li1124 O1186 1.961 . S
Li1125 N1149 1.990 . S
Li1125 O1184 1.970 . S
Li1125 O1185 1.956 . S
Li1125 O1187 1.961 . S
Li1126 N1171 1.990 . S
Li1126 O1184 1.961 . S
Li1126 O1186 1.956 . S
Li1126 O1187 1.970 . S
Li1127 N1177 1.990 . S
Li1127 O1185 1.961 . S
Li1127 O1186 1.970 . S
Li1127 O1187 1.956 . S
C1128 C1130 1.348 . S
C1128 C1131 1.356 . S
C1128 O1184 1.325 . S
N1129 C1132 1.314 . S
N1129 C1133 1.279 . S
C1130 C1128 1.348 . S
C1130 C1132 1.353 . S
C1130 H1188 0.929 . S
C1131 C1128 1.356 . S
C1131 C1133 1.358 . S
C1131 H1189 0.930 . S
C1132 N1129 1.314 . S
C1132 C1130 1.353 . S
C1132 H1190 0.930 . S
C1133 N1129 1.279 . S
C1133 C1131 1.358 . S
C1133 H1191 0.930 . S
C1134 C1137 1.348 . S
C1134 C1138 1.356 . S
C1134 O1185 1.325 . S
C1135 N1136 1.279 . S
C1135 C1138 1.358 . S
C1135 H1192 0.930 . S
N1136 C1135 1.279 . S
N1136 C1139 1.314 . S
C1137 C1134 1.348 . S
C1137 C1139 1.353 . S
C1137 H1193 0.929 . S
C1138 C1134 1.356 . S
C1138 C1135 1.358 . S
C1138 H1194 0.930 . S
C1139 N1136 1.314 . S
C1139 C1137 1.353 . S
C1139 H1195 0.930 . S
C1140 N1141 1.314 . S
C1140 C1145 1.353 . S
C1140 H1146 0.930 . S
N1141 Li1124 1.990 . S
N1141 C1140 1.314 . S
N1141 C1143 1.279 . S
C1142 C1143 1.358 . S
C1142 C1144 1.356 . S
C1142 H1196 0.930 . S
C1143 N1141 1.279 . S
C1143 C1142 1.358 . S
C1143 H1147 0.930 . S
C1144 C1142 1.356 . S
C1144 C1145 1.348 . S
C1145 C1140 1.353 . S
C1145 C1144 1.348 . S
C1145 H1197 0.929 . S
H1146 C1140 0.930 . S
H1147 C1143 0.930 . S
C1148 N1149 1.314 . S
C1148 C1150 1.353 . S
C1148 H1154 0.930 . S
N1149 Li1125 1.990 . S
N1149 C1148 1.314 . S
N1149 C1152 1.279 . S
C1150 C1148 1.353 . S
C1150 C1153 1.348 . S
C1150 H1198 0.929 . S
C1151 C1152 1.358 . S
C1151 C1153 1.356 . S
C1151 H1199 0.930 . S
C1152 N1149 1.279 . S
C1152 C1151 1.358 . S
C1152 H1155 0.930 . S
C1153 C1150 1.348 . S
C1153 C1151 1.356 . S
H1154 C1148 0.930 . S
H1155 C1152 0.930 . S
C1156 C1158 1.348 . S
C1156 C1159 1.356 . S
C1156 O1186 1.325 . S
N1157 C1160 1.314 . S
N1157 C1161 1.279 . S
C1158 C1156 1.348 . S
C1158 C1160 1.353 . S
C1158 H1200 0.929 . S
C1159 C1156 1.356 . S
C1159 C1161 1.358 . S
C1159 H1201 0.930 . S
C1160 N1157 1.314 . S
C1160 C1158 1.353 . S
C1160 H1202 0.930 . S
C1161 N1157 1.279 . S
C1161 C1159 1.358 . S
C1161 H1203 0.930 . S
C1162 C1163 1.348 . S
C1162 C1164 1.356 . S
C1162 O1187 1.325 . S
C1163 C1162 1.348 . S
C1163 C1165 1.353 . S
C1163 H1204 0.929 . S
C1164 C1162 1.356 . S
C1164 C1166 1.358 . S
C1164 H1205 0.930 . S
C1165 C1163 1.353 . S
C1165 N1167 1.314 . S
C1165 H1206 0.930 . S
C1166 C1164 1.358 . S
C1166 N1167 1.279 . S
C1166 H1207 0.930 . S
N1167 C1165 1.314 . S
N1167 C1166 1.279 . S
C1168 C1170 1.353 . S
C1168 N1171 1.314 . S
C1168 H1174 0.930 . S
C1169 N1171 1.279 . S
C1169 C1172 1.358 . S
C1169 H1175 0.930 . S
C1170 C1168 1.353 . S
C1170 C1173 1.348 . S
C1170 H1208 0.929 . S
N1171 Li1126 1.990 . S
N1171 C1168 1.314 . S
N1171 C1169 1.279 . S
C1172 C1169 1.358 . S
C1172 C1173 1.356 . S
C1172 H1209 0.930 . S
C1173 C1170 1.348 . S
C1173 C1172 1.356 . S
H1174 C1168 0.930 . S
H1175 C1169 0.930 . S
C1176 N1177 1.314 . S
C1176 C1178 1.353 . S
C1176 H1182 0.930 . S
N1177 Li1127 1.990 . S
N1177 C1176 1.314 . S
N1177 C1180 1.279 . S
C1178 C1176 1.353 . S
C1178 C1181 1.348 . S
C1178 H1210 0.929 . S
C1179 C1180 1.358 . S
C1179 C1181 1.356 . S
C1179 H1211 0.930 . S
C1180 N1177 1.279 . S
C1180 C1179 1.358 . S
C1180 H1183 0.930 . S
C1181 C1178 1.348 . S
C1181 C1179 1.356 . S
H1182 C1176 0.930 . S
H1183 C1180 0.930 . S
O1184 Li1124 1.956 . S
O1184 Li1125 1.970 . S
O1184 Li1126 1.961 . S
O1184 C1128 1.325 . S
O1185 Li1124 1.970 . S
O1185 Li1125 1.956 . S
O1185 Li1127 1.961 . S
O1185 C1134 1.325 . S
O1186 Li1124 1.961 . S
O1186 Li1126 1.956 . S
O1186 Li1127 1.970 . S
O1186 C1156 1.325 . S
O1187 Li1125 1.961 . S
O1187 Li1126 1.970 . S
O1187 Li1127 1.956 . S
O1187 C1162 1.325 . S
H1188 C1130 0.929 . S
H1189 C1131 0.930 . S
H1190 C1132 0.930 . S
H1191 C1133 0.930 . S
H1192 C1135 0.930 . S
H1193 C1137 0.929 . S
H1194 C1138 0.930 . S
H1195 C1139 0.930 . S
H1196 C1142 0.930 . S
H1197 C1145 0.929 . S
H1198 C1150 0.929 . S
H1199 C1151 0.930 . S
H1200 C1158 0.929 . S
H1201 C1159 0.930 . S
H1202 C1160 0.930 . S
H1203 C1161 0.930 . S
H1204 C1163 0.929 . S
H1205 C1164 0.930 . S
H1206 C1165 0.930 . S
H1207 C1166 0.930 . S
H1208 C1170 0.929 . S
H1209 C1172 0.930 . S
H1210 C1178 0.929 . S
H1211 C1179 0.930 . S
C1212 C1213 1.363 . S
C1212 C1218 1.379 . S
C1212 N1220 1.356 . S
C1213 C1212 1.363 . S
C1213 C1219 1.363 . S
C1214 C1215 1.363 . S
C1214 C1219 1.379 . S
C1214 N1221 1.356 . S
C1215 C1214 1.363 . S
C1215 C1218 1.363 . S
N1216 C1218 1.356 . S
N1216 H1228 0.984 . S
N1216 H1229 0.985 . S
N1217 C1219 1.356 . S
N1217 H1222 0.984 . S
N1217 H1223 0.985 . S
C1218 C1212 1.379 . S
C1218 C1215 1.363 . S
C1218 N1216 1.356 . S
C1219 C1213 1.363 . S
C1219 C1214 1.379 . S
C1219 N1217 1.356 . S
N1220 C1212 1.356 . S
N1220 H1226 0.984 . S
N1220 H1227 0.984 . S
N1221 C1214 1.356 . S
N1221 H1224 0.984 . S
N1221 H1225 0.985 . S
H1222 N1217 0.984 . S
H1223 N1217 0.985 . S
H1224 N1221 0.984 . S
H1225 N1221 0.985 . S
H1226 N1220 0.984 . S
H1227 N1220 0.984 . S
H1228 N1216 0.984 . S
H1229 N1216 0.985 . S
C1230 C1231 1.363 . S
C1230 C1236 1.379 . S
C1230 N1238 1.356 . S
C1231 C1230 1.363 . S
C1231 C1237 1.363 . S
C1232 C1233 1.363 . S
C1232 C1237 1.379 . S
C1232 N1239 1.356 . S
C1233 C1232 1.363 . S
C1233 C1236 1.363 . S
N1234 C1236 1.356 . S
N1234 H1246 0.984 . S
N1234 H1247 0.985 . S
N1235 C1237 1.356 . S
N1235 H1240 0.984 . S
N1235 H1241 0.985 . S
C1236 C1230 1.379 . S
C1236 C1233 1.363 . S
C1236 N1234 1.356 . S
C1237 C1231 1.363 . S
C1237 C1232 1.379 . S
C1237 N1235 1.356 . S
N1238 C1230 1.356 . S
N1238 H1244 0.984 . S
N1238 H1245 0.984 . S
N1239 C1232 1.356 . S
N1239 H1242 0.984 . S
N1239 H1243 0.985 . S
H1240 N1235 0.984 . S
H1241 N1235 0.985 . S
H1242 N1239 0.984 . S
H1243 N1239 0.985 . S
H1244 N1238 0.984 . S
H1245 N1238 0.984 . S
H1246 N1234 0.984 . S
H1247 N1234 0.985 . S
C1248 C1249 1.363 . S
C1248 C1254 1.379 . S
C1248 N1256 1.356 . S
C1249 C1248 1.363 . S
C1249 C1255 1.363 . S
C1250 C1251 1.363 . S
C1250 C1255 1.379 . S
C1250 N1257 1.356 . S
C1251 C1250 1.363 . S
C1251 C1254 1.363 . S
N1252 C1254 1.356 . S
N1252 H1264 0.984 . S
N1252 H1265 0.985 . S
N1253 C1255 1.356 . S
N1253 H1258 0.984 . S
N1253 H1259 0.985 . S
C1254 C1248 1.379 . S
C1254 C1251 1.363 . S
C1254 N1252 1.356 . S
C1255 C1249 1.363 . S
C1255 C1250 1.379 . S
C1255 N1253 1.356 . S
N1256 C1248 1.356 . S
N1256 H1262 0.984 . S
N1256 H1263 0.984 . S
N1257 C1250 1.356 . S
N1257 H1260 0.984 . S
N1257 H1261 0.985 . S
H1258 N1253 0.984 . S
H1259 N1253 0.985 . S
H1260 N1257 0.984 . S
H1261 N1257 0.985 . S
H1262 N1256 0.984 . S
H1263 N1256 0.984 . S
H1264 N1252 0.984 . S
H1265 N1252 0.985 . S
C1266 C1267 1.363 . S
C1266 C1272 1.379 . S
C1266 N1274 1.356 . S
C1267 C1266 1.363 . S
C1267 C1273 1.363 . S
C1268 C1269 1.363 . S
C1268 C1273 1.379 . S
C1268 N1275 1.356 . S
C1269 C1268 1.363 . S
C1269 C1272 1.363 . S
N1270 C1272 1.356 . S
N1270 H1282 0.984 . S
N1270 H1283 0.985 . S
N1271 C1273 1.356 . S
N1271 H1276 0.984 . S
N1271 H1277 0.985 . S
C1272 C1266 1.379 . S
C1272 C1269 1.363 . S
C1272 N1270 1.356 . S
C1273 C1267 1.363 . S
C1273 C1268 1.379 . S
C1273 N1271 1.356 . S
N1274 C1266 1.356 . S
N1274 H1280 0.984 . S
N1274 H1281 0.984 . S
N1275 C1268 1.356 . S
N1275 H1278 0.984 . S
N1275 H1279 0.985 . S
H1276 N1271 0.984 . S
H1277 N1271 0.985 . S
H1278 N1275 0.984 . S
H1279 N1275 0.985 . S
H1280 N1274 0.984 . S
H1281 N1274 0.984 . S
H1282 N1270 0.984 . S
H1283 N1270 0.985 . S
C1284 C1285 1.363 . S
C1284 C1290 1.379 . S
C1284 N1292 1.356 . S
C1285 C1284 1.363 . S
C1285 C1291 1.363 . S
C1286 C1287 1.363 . S
C1286 C1291 1.379 . S
C1286 N1293 1.356 . S
C1287 C1286 1.363 . S
C1287 C1290 1.363 . S
N1288 C1290 1.356 . S
N1288 H1300 0.984 . S
N1288 H1301 0.985 . S
N1289 C1291 1.356 . S
N1289 H1294 0.984 . S
N1289 H1295 0.985 . S
C1290 C1284 1.379 . S
C1290 C1287 1.363 . S
C1290 N1288 1.356 . S
C1291 C1285 1.363 . S
C1291 C1286 1.379 . S
C1291 N1289 1.356 . S
N1292 C1284 1.356 . S
N1292 H1298 0.984 . S
N1292 H1299 0.984 . S
N1293 C1286 1.356 . S
N1293 H1296 0.984 . S
N1293 H1297 0.985 . S
H1294 N1289 0.984 . S
H1295 N1289 0.985 . S
H1296 N1293 0.984 . S
H1297 N1293 0.985 . S
H1298 N1292 0.984 . S
H1299 N1292 0.984 . S
H1300 N1288 0.984 . S
H1301 N1288 0.985 . S
C1302 C1303 1.363 . S
C1302 C1308 1.379 . S
C1302 N1310 1.356 . S
C1303 C1302 1.363 . S
C1303 C1309 1.363 . S
C1304 C1305 1.363 . S
C1304 C1309 1.379 . S
C1304 N1311 1.356 . S
C1305 C1304 1.363 . S
C1305 C1308 1.363 . S
N1306 C1308 1.356 . S
N1306 H1318 0.984 . S
N1306 H1319 0.985 . S
N1307 C1309 1.356 . S
N1307 H1312 0.984 . S
N1307 H1313 0.985 . S
C1308 C1302 1.379 . S
C1308 C1305 1.363 . S
C1308 N1306 1.356 . S
C1309 C1303 1.363 . S
C1309 C1304 1.379 . S
C1309 N1307 1.356 . S
N1310 C1302 1.356 . S
N1310 H1316 0.984 . S
N1310 H1317 0.984 . S
N1311 C1304 1.356 . S
N1311 H1314 0.984 . S
N1311 H1315 0.985 . S
H1312 N1307 0.984 . S
H1313 N1307 0.985 . S
H1314 N1311 0.984 . S
H1315 N1311 0.985 . S
H1316 N1310 0.984 . S
H1317 N1310 0.984 . S
H1318 N1306 0.984 . S
H1319 N1306 0.985 . S
C1320 C1321 1.363 . S
C1320 C1326 1.379 . S
C1320 N1328 1.356 . S
C1321 C1320 1.363 . S
C1321 C1327 1.363 . S
C1322 C1323 1.363 . S
C1322 C1327 1.379 . S
C1322 N1329 1.356 . S
C1323 C1322 1.363 . S
C1323 C1326 1.363 . S
N1324 C1326 1.356 . S
N1324 H1336 0.984 . S
N1324 H1337 0.985 . S
N1325 C1327 1.356 . S
N1325 H1330 0.984 . S
N1325 H1331 0.985 . S
C1326 C1320 1.379 . S
C1326 C1323 1.363 . S
C1326 N1324 1.356 . S
C1327 C1321 1.363 . S
C1327 C1322 1.379 . S
C1327 N1325 1.356 . S
N1328 C1320 1.356 . S
N1328 H1334 0.984 . S
N1328 H1335 0.984 . S
N1329 C1322 1.356 . S
N1329 H1332 0.984 . S
N1329 H1333 0.985 . S
H1330 N1325 0.984 . S
H1331 N1325 0.985 . S
H1332 N1329 0.984 . S
H1333 N1329 0.985 . S
H1334 N1328 0.984 . S
H1335 N1328 0.984 . S
H1336 N1324 0.984 . S
H1337 N1324 0.985 . S
C1338 C1339 1.363 . S
C1338 C1344 1.379 . S
C1338 N1346 1.356 . S
C1339 C1338 1.363 . S
C1339 C1345 1.363 . S
C1340 C1341 1.363 . S
C1340 C1345 1.379 . S
C1340 N1347 1.356 . S
C1341 C1340 1.363 . S
C1341 C1344 1.363 . S
N1342 C1344 1.356 . S
N1342 H1354 0.984 . S
N1342 H1355 0.985 . S
N1343 C1345 1.356 . S
N1343 H1348 0.984 . S
N1343 H1349 0.985 . S
C1344 C1338 1.379 . S
C1344 C1341 1.363 . S
C1344 N1342 1.356 . S
C1345 C1339 1.363 . S
C1345 C1340 1.379 . S
C1345 N1343 1.356 . S
N1346 C1338 1.356 . S
N1346 H1352 0.984 . S
N1346 H1353 0.984 . S
N1347 C1340 1.356 . S
N1347 H1350 0.984 . S
N1347 H1351 0.985 . S
H1348 N1343 0.984 . S
H1349 N1343 0.985 . S
H1350 N1347 0.984 . S
H1351 N1347 0.985 . S
H1352 N1346 0.984 . S
H1353 N1346 0.984 . S
H1354 N1342 0.984 . S
H1355 N1342 0.985 . S
C1356 C1357 1.363 . S
C1356 C1362 1.379 . S
C1356 N1364 1.356 . S
C1357 C1356 1.363 . S
C1357 C1363 1.363 . S
C1358 C1359 1.363 . S
C1358 C1363 1.379 . S
C1358 N1365 1.356 . S
C1359 C1358 1.363 . S
C1359 C1362 1.363 . S
N1360 C1362 1.356 . S
N1360 H1372 0.984 . S
N1360 H1373 0.985 . S
N1361 C1363 1.356 . S
N1361 H1366 0.984 . S
N1361 H1367 0.985 . S
C1362 C1356 1.379 . S
C1362 C1359 1.363 . S
C1362 N1360 1.356 . S
C1363 C1357 1.363 . S
C1363 C1358 1.379 . S
C1363 N1361 1.356 . S
N1364 C1356 1.356 . S
N1364 H1370 0.984 . S
N1364 H1371 0.984 . S
N1365 C1358 1.356 . S
N1365 H1368 0.984 . S
N1365 H1369 0.985 . S
H1366 N1361 0.984 . S
H1367 N1361 0.985 . S
H1368 N1365 0.984 . S
H1369 N1365 0.985 . S
H1370 N1364 0.984 . S
H1371 N1364 0.984 . S
H1372 N1360 0.984 . S
H1373 N1360 0.985 . S
C1374 C1375 1.363 . S
C1374 C1380 1.379 . S
C1374 N1382 1.356 . S
C1375 C1374 1.363 . S
C1375 C1381 1.363 . S
C1376 C1377 1.363 . S
C1376 C1381 1.379 . S
C1376 N1383 1.356 . S
C1377 C1376 1.363 . S
C1377 C1380 1.363 . S
N1378 C1380 1.356 . S
N1378 H1390 0.984 . S
N1378 H1391 0.985 . S
N1379 C1381 1.356 . S
N1379 H1384 0.984 . S
N1379 H1385 0.985 . S
C1380 C1374 1.379 . S
C1380 C1377 1.363 . S
C1380 N1378 1.356 . S
C1381 C1375 1.363 . S
C1381 C1376 1.379 . S
C1381 N1379 1.356 . S
N1382 C1374 1.356 . S
N1382 H1388 0.984 . S
N1382 H1389 0.984 . S
N1383 C1376 1.356 . S
N1383 H1386 0.984 . S
N1383 H1387 0.985 . S
H1384 N1379 0.984 . S
H1385 N1379 0.985 . S
H1386 N1383 0.984 . S
H1387 N1383 0.985 . S
H1388 N1382 0.984 . S
H1389 N1382 0.984 . S
H1390 N1378 0.984 . S
H1391 N1378 0.985 . S
C1392 C1393 1.363 . S
C1392 C1398 1.379 . S
C1392 N1400 1.356 . S
C1393 C1392 1.363 . S
C1393 C1399 1.363 . S
C1394 C1395 1.363 . S
C1394 C1399 1.379 . S
C1394 N1401 1.356 . S
C1395 C1394 1.363 . S
C1395 C1398 1.363 . S
N1396 C1398 1.356 . S
N1396 H1408 0.984 . S
N1396 H1409 0.985 . S
N1397 C1399 1.356 . S
N1397 H1402 0.984 . S
N1397 H1403 0.985 . S
C1398 C1392 1.379 . S
C1398 C1395 1.363 . S
C1398 N1396 1.356 . S
C1399 C1393 1.363 . S
C1399 C1394 1.379 . S
C1399 N1397 1.356 . S
N1400 C1392 1.356 . S
N1400 H1406 0.984 . S
N1400 H1407 0.984 . S
N1401 C1394 1.356 . S
N1401 H1404 0.984 . S
N1401 H1405 0.985 . S
H1402 N1397 0.984 . S
H1403 N1397 0.985 . S
H1404 N1401 0.984 . S
H1405 N1401 0.985 . S
H1406 N1400 0.984 . S
H1407 N1400 0.984 . S
H1408 N1396 0.984 . S
H1409 N1396 0.985 . S
C1410 C1411 1.363 . S
C1410 C1416 1.379 . S
C1410 N1418 1.356 . S
C1411 C1410 1.363 . S
C1411 C1417 1.363 . S
C1412 C1413 1.363 . S
C1412 C1417 1.379 . S
C1412 N1419 1.356 . S
C1413 C1412 1.363 . S
C1413 C1416 1.363 . S
N1414 C1416 1.356 . S
N1414 H1426 0.984 . S
N1414 H1427 0.985 . S
N1415 C1417 1.356 . S
N1415 H1420 0.984 . S
N1415 H1421 0.985 . S
C1416 C1410 1.379 . S
C1416 C1413 1.363 . S
C1416 N1414 1.356 . S
C1417 C1411 1.363 . S
C1417 C1412 1.379 . S
C1417 N1415 1.356 . S
N1418 C1410 1.356 . S
N1418 H1424 0.984 . S
N1418 H1425 0.984 . S
N1419 C1412 1.356 . S
N1419 H1422 0.984 . S
N1419 H1423 0.985 . S
H1420 N1415 0.984 . S
H1421 N1415 0.985 . S
H1422 N1419 0.984 . S
H1423 N1419 0.985 . S
H1424 N1418 0.984 . S
H1425 N1418 0.984 . S
H1426 N1414 0.984 . S
H1427 N1414 0.985 . S
C1428 C1429 1.363 . S
C1428 C1434 1.379 . S
C1428 N1436 1.356 . S
C1429 C1428 1.363 . S
C1429 C1435 1.363 . S
C1430 C1431 1.363 . S
C1430 C1435 1.379 . S
C1430 N1437 1.356 . S
C1431 C1430 1.363 . S
C1431 C1434 1.363 . S
N1432 C1434 1.356 . S
N1432 H1444 0.984 . S
N1432 H1445 0.985 . S
N1433 C1435 1.356 . S
N1433 H1438 0.984 . S
N1433 H1439 0.985 . S
C1434 C1428 1.379 . S
C1434 C1431 1.363 . S
C1434 N1432 1.356 . S
C1435 C1429 1.363 . S
C1435 C1430 1.379 . S
C1435 N1433 1.356 . S
N1436 C1428 1.356 . S
N1436 H1442 0.984 . S
N1436 H1443 0.984 . S
N1437 C1430 1.356 . S
N1437 H1440 0.984 . S
N1437 H1441 0.985 . S
H1438 N1433 0.984 . S
H1439 N1433 0.985 . S
H1440 N1437 0.984 . S
H1441 N1437 0.985 . S
H1442 N1436 0.984 . S
H1443 N1436 0.984 . S
H1444 N1432 0.984 . S
H1445 N1432 0.985 . S
C1446 C1447 1.363 . S
C1446 C1452 1.379 . S
C1446 N1454 1.356 . S
C1447 C1446 1.363 . S
C1447 C1453 1.363 . S
C1448 C1449 1.363 . S
C1448 C1453 1.379 . S
C1448 N1455 1.356 . S
C1449 C1448 1.363 . S
C1449 C1452 1.363 . S
N1450 C1452 1.356 . S
N1450 H1462 0.984 . S
N1450 H1463 0.985 . S
N1451 C1453 1.356 . S
N1451 H1456 0.984 . S
N1451 H1457 0.985 . S
C1452 C1446 1.379 . S
C1452 C1449 1.363 . S
C1452 N1450 1.356 . S
C1453 C1447 1.363 . S
C1453 C1448 1.379 . S
C1453 N1451 1.356 . S
N1454 C1446 1.356 . S
N1454 H1460 0.984 . S
N1454 H1461 0.984 . S
N1455 C1448 1.356 . S
N1455 H1458 0.984 . S
N1455 H1459 0.985 . S
H1456 N1451 0.984 . S
H1457 N1451 0.985 . S
H1458 N1455 0.984 . S
H1459 N1455 0.985 . S
H1460 N1454 0.984 . S
H1461 N1454 0.984 . S
H1462 N1450 0.984 . S
H1463 N1450 0.985 . S
C1464 C1465 1.363 . S
C1464 C1470 1.379 . S
C1464 N1472 1.356 . S
C1465 C1464 1.363 . S
C1465 C1471 1.363 . S
C1466 C1467 1.363 . S
C1466 C1471 1.379 . S
C1466 N1473 1.356 . S
C1467 C1466 1.363 . S
C1467 C1470 1.363 . S
N1468 C1470 1.356 . S
N1468 H1480 0.984 . S
N1468 H1481 0.985 . S
N1469 C1471 1.356 . S
N1469 H1474 0.984 . S
N1469 H1475 0.985 . S
C1470 C1464 1.379 . S
C1470 C1467 1.363 . S
C1470 N1468 1.356 . S
C1471 C1465 1.363 . S
C1471 C1466 1.379 . S
C1471 N1469 1.356 . S
N1472 C1464 1.356 . S
N1472 H1478 0.984 . S
N1472 H1479 0.984 . S
N1473 C1466 1.356 . S
N1473 H1476 0.984 . S
N1473 H1477 0.985 . S
H1474 N1469 0.984 . S
H1475 N1469 0.985 . S
H1476 N1473 0.984 . S
H1477 N1473 0.985 . S
H1478 N1472 0.984 . S
H1479 N1472 0.984 . S
H1480 N1468 0.984 . S
H1481 N1468 0.985 . S
C1482 C1483 1.363 . S
C1482 C1488 1.379 . S
C1482 N1490 1.356 . S
C1483 C1482 1.363 . S
C1483 C1489 1.363 . S
C1484 C1485 1.363 . S
C1484 C1489 1.379 . S
C1484 N1491 1.356 . S
C1485 C1484 1.363 . S
C1485 C1488 1.363 . S
N1486 C1488 1.338 1_554 S
N1486 H1498 0.989 . S
N1486 H1499 0.999 . S
N1487 C1489 1.356 . S
N1487 H1492 0.984 . S
N1487 H1493 0.985 . S
C1488 C1482 1.379 . S
C1488 C1485 1.363 . S
C1488 N1486 1.338 1_556 S
C1489 C1483 1.363 . S
C1489 C1484 1.379 . S
C1489 N1487 1.356 . S
N1490 C1482 1.356 . S
N1490 H1496 0.984 . S
N1490 H1497 0.984 . S
N1491 C1484 1.356 . S
N1491 H1494 0.984 . S
N1491 H1495 0.985 . S
H1492 N1487 0.984 . S
H1493 N1487 0.985 . S
H1494 N1491 0.984 . S
H1495 N1491 0.985 . S
H1496 N1490 0.984 . S
H1497 N1490 0.984 . S
H1498 N1486 0.989 . S
H1499 N1486 0.999 . S
C1500 C1501 1.363 . S
C1500 C1506 1.379 . S
C1500 N1508 1.356 . S
C1501 C1500 1.363 . S
C1501 C1507 1.363 . S
C1502 C1503 1.363 . S
C1502 C1507 1.379 . S
C1502 N1509 1.356 . S
C1503 C1502 1.363 . S
C1503 C1506 1.363 . S
N1504 C1506 1.356 . S
N1504 H1516 0.984 . S
N1504 H1517 0.985 . S
N1505 C1507 1.356 . S
N1505 H1510 0.984 . S
N1505 H1511 0.985 . S
C1506 C1500 1.379 . S
C1506 C1503 1.363 . S
C1506 N1504 1.356 . S
C1507 C1501 1.363 . S
C1507 C1502 1.379 . S
C1507 N1505 1.356 . S
N1508 C1500 1.356 . S
N1508 H1514 0.984 . S
N1508 H1515 0.984 . S
N1509 C1502 1.356 . S
N1509 H1512 0.984 . S
N1509 H1513 0.985 . S
H1510 N1505 0.984 . S
H1511 N1505 0.985 . S
H1512 N1509 0.984 . S
H1513 N1509 0.985 . S
H1514 N1508 0.984 . S
H1515 N1508 0.984 . S
H1516 N1504 0.984 . S
H1517 N1504 0.985 . S
C1518 C1519 1.363 . S
C1518 C1524 1.379 . S
C1518 N1526 1.356 . S
C1519 C1518 1.363 . S
C1519 C1525 1.363 . S
C1520 C1521 1.363 . S
C1520 C1525 1.379 . S
C1520 N1527 1.356 . S
C1521 C1520 1.363 . S
C1521 C1524 1.363 . S
N1522 C1524 1.356 . S
N1522 H1534 0.984 . S
N1522 H1535 0.985 . S
N1523 C1525 1.356 . S
N1523 H1528 0.984 . S
N1523 H1529 0.985 . S
C1524 C1518 1.379 . S
C1524 C1521 1.363 . S
C1524 N1522 1.356 . S
C1525 C1519 1.363 . S
C1525 C1520 1.379 . S
C1525 N1523 1.356 . S
N1526 C1518 1.356 . S
N1526 H1532 0.984 . S
N1526 H1533 0.984 . S
N1527 C1520 1.356 . S
N1527 H1530 0.984 . S
N1527 H1531 0.985 . S
H1528 N1523 0.984 . S
H1529 N1523 0.985 . S
H1530 N1527 0.984 . S
H1531 N1527 0.985 . S
H1532 N1526 0.984 . S
H1533 N1526 0.984 . S
H1534 N1522 0.984 . S
H1535 N1522 0.985 . S
C1536 C1537 1.363 . S
C1536 C1542 1.379 . S
C1536 N1544 1.356 . S
C1537 C1536 1.363 . S
C1537 C1543 1.363 . S
C1538 C1539 1.363 . S
C1538 C1543 1.379 . S
C1538 N1545 1.356 . S
C1539 C1538 1.363 . S
C1539 C1542 1.363 . S
N1540 C1542 1.356 . S
N1540 H1552 0.984 . S
N1540 H1553 0.985 . S
N1541 C1543 1.356 . S
N1541 H1546 0.984 . S
N1541 H1547 0.985 . S
C1542 C1536 1.379 . S
C1542 C1539 1.363 . S
C1542 N1540 1.356 . S
C1543 C1537 1.363 . S
C1543 C1538 1.379 . S
C1543 N1541 1.356 . S
N1544 C1536 1.356 . S
N1544 H1550 0.984 . S
N1544 H1551 0.984 . S
N1545 C1538 1.356 . S
N1545 H1548 0.984 . S
N1545 H1549 0.985 . S
H1546 N1541 0.984 . S
H1547 N1541 0.985 . S
H1548 N1545 0.984 . S
H1549 N1545 0.985 . S
H1550 N1544 0.984 . S
H1551 N1544 0.984 . S
H1552 N1540 0.984 . S
H1553 N1540 0.985 . S
C1554 C1555 1.363 . S
C1554 C1560 1.379 . S
C1554 N1562 1.356 . S
C1555 C1554 1.363 . S
C1555 C1561 1.363 . S
C1556 C1557 1.363 . S
C1556 C1561 1.379 . S
C1556 N1563 1.356 . S
C1557 C1556 1.363 . S
C1557 C1560 1.363 . S
N1558 C1560 1.356 . S
N1558 H1570 0.984 . S
N1558 H1571 0.985 . S
N1559 C1561 1.356 . S
N1559 H1564 0.984 . S
N1559 H1565 0.985 . S
C1560 C1554 1.379 . S
C1560 C1557 1.363 . S
C1560 N1558 1.356 . S
C1561 C1555 1.363 . S
C1561 C1556 1.379 . S
C1561 N1559 1.356 . S
N1562 C1554 1.356 . S
N1562 H1568 0.984 . S
N1562 H1569 0.984 . S
N1563 C1556 1.356 . S
N1563 H1566 0.984 . S
N1563 H1567 0.985 . S
H1564 N1559 0.984 . S
H1565 N1559 0.985 . S
H1566 N1563 0.984 . S
H1567 N1563 0.985 . S
H1568 N1562 0.984 . S
H1569 N1562 0.984 . S
H1570 N1558 0.984 . S
H1571 N1558 0.985 . S
C1572 C1573 1.363 . S
C1572 C1578 1.379 . S
C1572 N1580 1.356 . S
C1573 C1572 1.363 . S
C1573 C1579 1.363 . S
C1574 C1575 1.363 . S
C1574 C1579 1.379 . S
C1574 N1581 1.356 . S
C1575 C1574 1.363 . S
C1575 C1578 1.363 . S
N1576 C1578 1.356 . S
N1576 H1588 0.984 . S
N1576 H1589 0.985 . S
N1577 C1579 1.356 . S
N1577 H1582 0.984 . S
N1577 H1583 0.985 . S
C1578 C1572 1.379 . S
C1578 C1575 1.363 . S
C1578 N1576 1.356 . S
C1579 C1573 1.363 . S
C1579 C1574 1.379 . S
C1579 N1577 1.356 . S
N1580 C1572 1.356 . S
N1580 H1586 0.984 . S
N1580 H1587 0.984 . S
N1581 C1574 1.356 . S
N1581 H1584 0.984 . S
N1581 H1585 0.985 . S
H1582 N1577 0.984 . S
H1583 N1577 0.985 . S
H1584 N1581 0.984 . S
H1585 N1581 0.985 . S
H1586 N1580 0.984 . S
H1587 N1580 0.984 . S
H1588 N1576 0.984 . S
H1589 N1576 0.985 . S
C1590 C1591 1.363 . S
C1590 C1596 1.379 . S
C1590 N1598 1.356 . S
C1591 C1590 1.363 . S
C1591 C1597 1.363 . S
C1592 C1593 1.363 . S
C1592 C1597 1.379 . S
C1592 N1599 1.356 . S
C1593 C1592 1.363 . S
C1593 C1596 1.363 . S
N1594 C1596 1.356 . S
N1594 H1606 0.984 . S
N1594 H1607 0.985 . S
N1595 C1597 1.356 . S
N1595 H1600 0.984 . S
N1595 H1601 0.985 . S
C1596 C1590 1.379 . S
C1596 C1593 1.363 . S
C1596 N1594 1.356 . S
C1597 C1591 1.363 . S
C1597 C1592 1.379 . S
C1597 N1595 1.356 . S
N1598 C1590 1.356 . S
N1598 H1604 0.984 . S
N1598 H1605 0.984 . S
N1599 C1592 1.356 . S
N1599 H1602 0.984 . S
N1599 H1603 0.985 . S
H1600 N1595 0.984 . S
H1601 N1595 0.985 . S
H1602 N1599 0.984 . S
H1603 N1599 0.985 . S
H1604 N1598 0.984 . S
H1605 N1598 0.984 . S
H1606 N1594 0.984 . S
H1607 N1594 0.985 . S
C1608 C1609 1.363 . S
C1608 C1614 1.379 . S
C1608 N1616 1.356 . S
C1609 C1608 1.363 . S
C1609 C1615 1.363 . S
C1610 C1611 1.363 . S
C1610 C1615 1.379 . S
C1610 N1617 1.356 . S
C1611 C1610 1.363 . S
C1611 C1614 1.363 . S
N1612 C1614 1.356 1_556 S
N1612 H1624 0.984 . S
N1612 H1625 0.985 . S
N1613 C1615 1.356 . S
N1613 H1618 0.984 . S
N1613 H1619 0.985 . S
C1614 C1608 1.379 . S
C1614 C1611 1.363 . S
C1614 N1612 1.356 1_554 S
C1615 C1609 1.363 . S
C1615 C1610 1.379 . S
C1615 N1613 1.356 . S
N1616 C1608 1.356 . S
N1616 H1622 0.984 . S
N1616 H1623 0.984 . S
N1617 C1610 1.356 . S
N1617 H1620 0.982 . S
N1617 H1621 0.985 . S
H1618 N1613 0.984 . S
H1619 N1613 0.985 . S
H1620 N1617 0.982 . S
H1621 N1617 0.985 . S
H1622 N1616 0.984 . S
H1623 N1616 0.984 . S
H1624 N1612 0.984 . S
H1625 N1612 0.985 . S
C1626 C1627 1.363 . S
C1626 C1632 1.379 . S
C1626 N1634 1.356 . S
C1627 C1626 1.363 . S
C1627 C1633 1.363 . S
C1628 C1629 1.363 . S
C1628 C1633 1.379 . S
C1628 N1635 1.356 . S
C1629 C1628 1.363 . S
C1629 C1632 1.363 . S
N1630 C1632 1.356 . S
N1630 H1642 0.984 . S
N1630 H1643 0.985 . S
N1631 C1633 1.356 . S
N1631 H1636 0.984 . S
N1631 H1637 0.985 . S
C1632 C1626 1.379 . S
C1632 C1629 1.363 . S
C1632 N1630 1.356 . S
C1633 C1627 1.363 . S
C1633 C1628 1.379 . S
C1633 N1631 1.356 . S
N1634 C1626 1.356 . S
N1634 H1640 0.984 . S
N1634 H1641 0.984 . S
N1635 C1628 1.356 . S
N1635 H1638 0.984 . S
N1635 H1639 0.985 . S
H1636 N1631 0.984 . S
H1637 N1631 0.985 . S
H1638 N1635 0.984 . S
H1639 N1635 0.985 . S
H1640 N1634 0.984 . S
H1641 N1634 0.984 . S
H1642 N1630 0.984 . S
H1643 N1630 0.985 . S
C1215 C1153 1.959 . S
C1213 C1 1.375 . S
C1231 C169 2.044 . S
C1233 C713 2.084 . S
C1249 C283 2.024 . S
C1251 C801 2.061 . S
C1267 C397 1.906 . S
C1269 C880 1.937 . S
C1287 C977 1.820 . S
C1285 C457 1.263 . S
C1303 C571 1.262 . S
C1305 C1056 1.836 . S
C1321 C115 1.375 . S
C1323 C821 1.959 . S
C1339 C229 1.262 . S
C1341 C917 1.836 . S
C1357 C343 1.263 . S
C1359 C997 1.820 . S
C1377 C1093 1.936 . S
C1375 C511 1.905 . S
C1395 C1173 2.062 . S
C1393 C625 2.025 . S
C1413 C733 2.084 . S
C1411 C55 2.044 . S
C1429 C29 1.171 . S
C1431 C829 1.442 . S
C1447 C125 0.905 . S
C1449 C909 1.511 . S
C1467 C1005 1.446 . S
C1465 C239 0.868 . S
C1483 C353 0.887 . S
C1485 C1085 1.434 1_556 S
C1503 C1181 1.374 . S
C1501 C485 1.087 . S
C1521 C741 1.442 . S
C1519 C599 1.148 . S
C1539 C1144 1.442 . S
C1537 C143 1.171 . S
C1555 C257 1.148 . S
C1557 C704 1.441 . S
C1575 C792 1.374 . S
C1573 C371 1.087 . S
C1591 C467 0.887 . S
C1593 C889 1.434 . S
C1609 C581 0.868 . S
C1611 C968 1.446 1_554 S
C1627 C11 0.905 . S
C1629 C1065 1.510 . S
