# Generated by pormake.
# Topology ctn, (3,4)-cn, num edge types: 1
# Building blocks:
#     Node 0, Type 0, BuildingBlock: BETDIP_clean_linker_0, # of connection points: 3
#     Node 1, Type 0, BuildingBlock: BETDIP_clean_linker_0, # of connection points: 3
#     Node 2, Type 0, BuildingBlock: BETDIP_clean_linker_0, # of connection points: 3
#     Node 3, Type 0, BuildingBlock: BETDIP_clean_linker_0, # of connection points: 3
#     Node 4, Type 0, BuildingBlock: BETDIP_clean_linker_0, # of connection points: 3
#     Node 5, Type 0, BuildingBlock: BETDIP_clean_linker_0, # of connection points: 3
#     Node 6, Type 0, BuildingBlock: BETDIP_clean_linker_0, # of connection points: 3
#     Node 7, Type 0, BuildingBlock: BETDIP_clean_linker_0, # of connection points: 3
#     Node 8, Type 0, BuildingBlock: BETDIP_clean_linker_0, # of connection points: 3
#     Node 9, Type 0, BuildingBlock: BETDIP_clean_linker_0, # of connection points: 3
#     Node 10, Type 0, BuildingBlock: BETDIP_clean_linker_0, # of connection points: 3
#     Node 11, Type 0, BuildingBlock: BETDIP_clean_linker_0, # of connection points: 3
#     Node 12, Type 0, BuildingBlock: BETDIP_clean_linker_0, # of connection points: 3
#     Node 13, Type 0, BuildingBlock: BETDIP_clean_linker_0, # of connection points: 3
#     Node 14, Type 0, BuildingBlock: BETDIP_clean_linker_0, # of connection points: 3
#     Node 15, Type 0, BuildingBlock: BETDIP_clean_linker_0, # of connection points: 3
#     Node 16, Type 1, BuildingBlock: TATPOV_clean_sbu_0, # of connection points: 4
#     Node 17, Type 1, BuildingBlock: TATPOV_clean_sbu_0, # of connection points: 4
#     Node 18, Type 1, BuildingBlock: TATPOV_clean_sbu_0, # of connection points: 4
#     Node 19, Type 1, BuildingBlock: TATPOV_clean_sbu_0, # of connection points: 4
#     Node 20, Type 1, BuildingBlock: TATPOV_clean_sbu_0, # of connection points: 4
#     Node 21, Type 1, BuildingBlock: TATPOV_clean_sbu_0, # of connection points: 4
#     Node 22, Type 1, BuildingBlock: TATPOV_clean_sbu_0, # of connection points: 4
#     Node 23, Type 1, BuildingBlock: TATPOV_clean_sbu_0, # of connection points: 4
#     Node 24, Type 1, BuildingBlock: TATPOV_clean_sbu_0, # of connection points: 4
#     Node 25, Type 1, BuildingBlock: TATPOV_clean_sbu_0, # of connection points: 4
#     Node 26, Type 1, BuildingBlock: TATPOV_clean_sbu_0, # of connection points: 4
#     Node 27, Type 1, BuildingBlock: TATPOV_clean_sbu_0, # of connection points: 4
#     Edge 28, Type (0, 1), BuildingBlock: AJUNOK_clean_linker_0, # of connection points: 2
#     Edge 29, Type (0, 1), BuildingBlock: AJUNOK_clean_linker_0, # of connection points: 2
#     Edge 30, Type (0, 1), BuildingBlock: AJUNOK_clean_linker_0, # of connection points: 2
#     Edge 31, Type (0, 1), BuildingBlock: AJUNOK_clean_linker_0, # of connection points: 2
#     Edge 32, Type (0, 1), BuildingBlock: AJUNOK_clean_linker_0, # of connection points: 2
#     Edge 33, Type (0, 1), BuildingBlock: AJUNOK_clean_linker_0, # of connection points: 2
#     Edge 34, Type (0, 1), BuildingBlock: AJUNOK_clean_linker_0, # of connection points: 2
#     Edge 35, Type (0, 1), BuildingBlock: AJUNOK_clean_linker_0, # of connection points: 2
#     Edge 36, Type (0, 1), BuildingBlock: AJUNOK_clean_linker_0, # of connection points: 2
#     Edge 37, Type (0, 1), BuildingBlock: AJUNOK_clean_linker_0, # of connection points: 2
#     Edge 38, Type (0, 1), BuildingBlock: AJUNOK_clean_linker_0, # of connection points: 2
#     Edge 39, Type (0, 1), BuildingBlock: AJUNOK_clean_linker_0, # of connection points: 2
#     Edge 40, Type (0, 1), BuildingBlock: AJUNOK_clean_linker_0, # of connection points: 2
#     Edge 41, Type (0, 1), BuildingBlock: AJUNOK_clean_linker_0, # of connection points: 2
#     Edge 42, Type (0, 1), BuildingBlock: AJUNOK_clean_linker_0, # of connection points: 2
#     Edge 43, Type (0, 1), BuildingBlock: AJUNOK_clean_linker_0, # of connection points: 2
#     Edge 44, Type (0, 1), BuildingBlock: AJUNOK_clean_linker_0, # of connection points: 2
#     Edge 45, Type (0, 1), BuildingBlock: AJUNOK_clean_linker_0, # of connection points: 2
#     Edge 46, Type (0, 1), BuildingBlock: AJUNOK_clean_linker_0, # of connection points: 2
#     Edge 47, Type (0, 1), BuildingBlock: AJUNOK_clean_linker_0, # of connection points: 2
#     Edge 48, Type (0, 1), BuildingBlock: AJUNOK_clean_linker_0, # of connection points: 2
#     Edge 49, Type (0, 1), BuildingBlock: AJUNOK_clean_linker_0, # of connection points: 2
#     Edge 50, Type (0, 1), BuildingBlock: AJUNOK_clean_linker_0, # of connection points: 2
#     Edge 51, Type (0, 1), BuildingBlock: AJUNOK_clean_linker_0, # of connection points: 2
#     Edge 52, Type (0, 1), BuildingBlock: AJUNOK_clean_linker_0, # of connection points: 2
#     Edge 53, Type (0, 1), BuildingBlock: AJUNOK_clean_linker_0, # of connection points: 2
#     Edge 54, Type (0, 1), BuildingBlock: AJUNOK_clean_linker_0, # of connection points: 2
#     Edge 55, Type (0, 1), BuildingBlock: AJUNOK_clean_linker_0, # of connection points: 2
#     Edge 56, Type (0, 1), BuildingBlock: AJUNOK_clean_linker_0, # of connection points: 2
#     Edge 57, Type (0, 1), BuildingBlock: AJUNOK_clean_linker_0, # of connection points: 2
#     Edge 58, Type (0, 1), BuildingBlock: AJUNOK_clean_linker_0, # of connection points: 2
#     Edge 59, Type (0, 1), BuildingBlock: AJUNOK_clean_linker_0, # of connection points: 2
#     Edge 60, Type (0, 1), BuildingBlock: AJUNOK_clean_linker_0, # of connection points: 2
#     Edge 61, Type (0, 1), BuildingBlock: AJUNOK_clean_linker_0, # of connection points: 2
#     Edge 62, Type (0, 1), BuildingBlock: AJUNOK_clean_linker_0, # of connection points: 2
#     Edge 63, Type (0, 1), BuildingBlock: AJUNOK_clean_linker_0, # of connection points: 2
#     Edge 64, Type (0, 1), BuildingBlock: AJUNOK_clean_linker_0, # of connection points: 2
#     Edge 65, Type (0, 1), BuildingBlock: AJUNOK_clean_linker_0, # of connection points: 2
#     Edge 66, Type (0, 1), BuildingBlock: AJUNOK_clean_linker_0, # of connection points: 2
#     Edge 67, Type (0, 1), BuildingBlock: AJUNOK_clean_linker_0, # of connection points: 2
#     Edge 68, Type (0, 1), BuildingBlock: AJUNOK_clean_linker_0, # of connection points: 2
#     Edge 69, Type (0, 1), BuildingBlock: AJUNOK_clean_linker_0, # of connection points: 2
#     Edge 70, Type (0, 1), BuildingBlock: AJUNOK_clean_linker_0, # of connection points: 2
#     Edge 71, Type (0, 1), BuildingBlock: AJUNOK_clean_linker_0, # of connection points: 2
#     Edge 72, Type (0, 1), BuildingBlock: AJUNOK_clean_linker_0, # of connection points: 2
#     Edge 73, Type (0, 1), BuildingBlock: AJUNOK_clean_linker_0, # of connection points: 2
#     Edge 74, Type (0, 1), BuildingBlock: AJUNOK_clean_linker_0, # of connection points: 2
#     Edge 75, Type (0, 1), BuildingBlock: AJUNOK_clean_linker_0, # of connection points: 2
# Relax obj value: 0.074
# Max RMSD: 0.194
# Mean RMSD: 0.112
data_MOF--net-ctn--node1-TATPOV_clean_sbu_0--node2-BETDIP_clean_linker_0--edge1-AJUNOK_clean_linker_0
_symmetry_space_group_name_H-M    P1
_symmetry_Int_Tables_number       1
_symmetry_cell_setting            triclinic
loop_
_symmetry_equiv_pos_as_xyz
'x, y, z'
_cell_length_a     37.815431
_cell_length_b     38.051281
_cell_length_c     42.105681
_cell_angle_alpha  95.351624
_cell_angle_beta   95.395034
_cell_angle_gamma 94.409398
loop_
_atom_site_label
_atom_site_type_symbol
_atom_site_fract_x
_atom_site_fract_y
_atom_site_fract_z
_atom_type_partial_charge
H0 H 0.01068 0.06704 0.06831 0.0
H1 H 0.07919 0.0162 0.00581 0.0
H2 H 0.0618 0.97584 0.09577 0.0
H3 H 0.07121 0.05959 0.97594 0.0
C4 C 0.05146 0.07643 0.98434 0.0
C5 C 0.02812 0.04632 0.06327 0.0
C6 C 0.0338 0.0213 0.08523 0.0
C7 C 0.0443 0.04501 0.03468 0.0
C8 C 0.06683 0.01802 0.02794 0.0
C9 C 0.07326 0.99261 0.04968 0.0
C10 C 0.05648 0.99451 0.07836 0.0
N11 N 0.03676 0.07136 0.01365 0.0
H12 H 0.20413 0.67977 0.21799 0.0
H13 H 0.30369 0.74333 0.22741 0.0
H14 H 0.2851 0.66591 0.29386 0.0
H15 H 0.2529 0.78534 0.21058 0.0
C16 C 0.24711 0.76654 0.18931 0.0
C17 C 0.23016 0.68735 0.23093 0.0
C18 C 0.24147 0.67031 0.2578 0.0
C19 C 0.25206 0.7142 0.22051 0.0
C20 C 0.28624 0.72345 0.2364 0.0
C21 C 0.2986 0.70599 0.2628 0.0
C22 C 0.27605 0.67924 0.27332 0.0
N23 N 0.24014 0.72997 0.19268 0.0
H24 H 0.9917 0.49927 0.00447 0.0
H25 H 0.04009 0.43999 0.07585 0.0
H26 H 0.99447 0.53671 0.10464 0.0
H27 H 0.02949 0.39492 0.03732 0.0
C28 C 0.02994 0.40586 0.01447 0.0
C29 C 0.99966 0.49667 0.02951 0.0
C30 C 0.9918 0.52235 0.05343 0.0
C31 C 0.01633 0.46672 0.03725 0.0
C32 C 0.02596 0.46241 0.06951 0.0
C33 C 0.01796 0.48736 0.09398 0.0
C34 C 1.00089 0.51747 0.08588 0.0
N35 N 0.02279 0.44165 0.01177 0.0
H36 H 0.7379 0.72738 0.16257 0.0
H37 H 0.74927 0.81439 0.23649 0.0
H38 H 0.8245 0.80847 0.16604 0.0
H39 H 0.72738 0.76147 0.2641 0.0
C40 C 0.70423 0.75661 0.24641 0.0
C41 C 0.7523 0.7518 0.17378 0.0
C42 C 0.78307 0.76553 0.16128 0.0
C43 C 0.74062 0.76873 0.20138 0.0
C44 C 0.75917 0.80047 0.21598 0.0
C45 C 0.7895 0.81505 0.20331 0.0
C46 C 0.80117 0.79738 0.17596 0.0
N47 N 0.70928 0.75427 0.21327 0.0
H48 H 0.04687 0.96934 0.41873 0.0
H49 H 0.1459 0.99443 0.47848 0.0
H50 H 0.12727 0.04368 0.39137 0.0
H51 H 0.1269 0.95149 0.5061 0.0
C52 C 0.09842 0.94523 0.50046 0.0
C53 C 0.07315 0.98349 0.42319 0.0
C54 C 0.08459 0.00672 0.40153 0.0
C55 C 0.09469 0.97881 0.45101 0.0
C56 C 0.12864 0.99736 0.4571 0.0
C57 C 0.14039 0.0207 0.43558 0.0
C58 C 0.11818 0.02567 0.40799 0.0
N59 N 0.08038 0.9561 0.4724 0.0
H60 H 0.22146 0.77295 0.80557 0.0
H61 H 0.26198 0.69779 0.73884 0.0
H62 H 0.30274 0.70709 0.83805 0.0
H63 H 0.2333 0.72391 0.70152 0.0
C64 C 0.21295 0.73848 0.71189 0.0
C65 C 0.23981 0.75303 0.8008 0.0
C66 C 0.26205 0.74231 0.8261 0.0
C67 C 0.23995 0.73777 0.76931 0.0
C68 C 0.26222 0.71067 0.76285 0.0
C69 C 0.28452 0.69909 0.7876 0.0
C70 C 0.28502 0.7156 0.81909 0.0
N71 N 0.21566 0.74915 0.74535 0.0
H72 H 0.98647 0.60524 0.485 0.0
H73 H 0.93294 0.50034 0.47464 0.0
H74 H 0.90525 0.57836 0.54615 0.0
H75 H 0.98236 0.48558 0.45481 0.0
C76 C 0.99139 0.50742 0.4419 0.0
C77 C 0.9669 0.58614 0.4924 0.0
C78 C 0.94636 0.59601 0.51737 0.0
C79 C 0.9629 0.55163 0.47719 0.0
C80 C 0.93723 0.527 0.4865 0.0
C81 C 0.9165 0.53657 0.5113 0.0
C82 C 0.92084 0.57116 0.52658 0.0
N83 N 0.98492 0.54264 0.45261 0.0
H84 H 0.81338 0.88287 0.79539 0.0
H85 H 0.87721 0.80603 0.83495 0.0
H86 H 0.7701 0.81358 0.85995 0.0
H87 H 0.9189 0.82643 0.80609 0.0
C88 C 0.90594 0.84037 0.78754 0.0
C89 C 0.81666 0.86239 0.81145 0.0
C90 C 0.78828 0.85106 0.8282 0.0
C91 C 0.84854 0.84629 0.81335 0.0
C92 C 0.85261 0.81872 0.83304 0.0
C93 C 0.82444 0.8067 0.85002 0.0
C94 C 0.79222 0.82306 0.84751 0.0
N95 N 0.87414 0.85658 0.79264 0.0
H96 H 0.31193 0.38033 0.28851 0.0
H97 H 0.37963 0.30759 0.32999 0.0
H98 H 0.27306 0.31283 0.35658 0.0
H99 H 0.42279 0.33601 0.30686 0.0
C100 C 0.40889 0.34447 0.28554 0.0
C101 C 0.31632 0.36066 0.30519 0.0
C102 C 0.28862 0.34883 0.32256 0.0
C103 C 0.34914 0.34617 0.30764 0.0
C104 C 0.3546 0.31958 0.32816 0.0
C105 C 0.32723 0.30731 0.3458 0.0
C106 C 0.29435 0.32234 0.3432 0.0
N107 N 0.37438 0.35652 0.28661 0.0
H108 H 0.48621 0.99361 0.49844 0.0
H109 H 0.53549 0.93235 0.56784 0.0
H110 H 0.49512 0.03136 0.59876 0.0
H111 H 0.52474 0.8878 0.52809 0.0
C112 C 0.52543 0.89992 0.5058 0.0
C113 C 0.49492 0.99055 0.52324 0.0
C114 C 0.48937 0.01672 0.54761 0.0
C115 C 0.51088 0.95996 0.53021 0.0
C116 C 0.52186 0.9553 0.56218 0.0
C117 C 0.51644 0.98099 0.58711 0.0
C118 C 0.49978 0.0116 0.57971 0.0
N119 N 0.51629 0.93525 0.50409 0.0
H120 H 0.23757 0.22982 0.66793 0.0
H121 H 0.25708 0.31913 0.73899 0.0
H122 H 0.32756 0.30575 0.66494 0.0
H123 H 0.23746 0.26605 0.76944 0.0
C124 C 0.2128 0.26222 0.75356 0.0
C125 C 0.2538 0.25376 0.67784 0.0
C126 C 0.28368 0.26545 0.66299 0.0
C127 C 0.24481 0.27244 0.70566 0.0
C128 C 0.26518 0.30386 0.7183 0.0
C129 C 0.29499 0.31633 0.70363 0.0
C130 C 0.30413 0.29686 0.67596 0.0
N131 N 0.21428 0.26003 0.71987 0.0
H132 H 0.71446 0.17679 0.72394 0.0
H133 H 0.81222 0.24316 0.73048 0.0
H134 H 0.79967 0.16386 0.79612 0.0
H135 H 0.76307 0.2838 0.71376 0.0
C136 C 0.75556 0.26449 0.69307 0.0
C137 C 0.74099 0.18467 0.73575 0.0
C138 C 0.75441 0.1672 0.76168 0.0
C139 C 0.76127 0.21261 0.72503 0.0
C140 C 0.79593 0.22257 0.73974 0.0
C141 C 0.81032 0.20477 0.76517 0.0
C142 C 0.78907 0.17749 0.77634 0.0
N143 N 0.74736 0.22842 0.69781 0.0
H144 H 0.51175 0.56827 0.56638 0.0
H145 H 0.57994 0.51748 0.50359 0.0
H146 H 0.56911 0.48183 0.59652 0.0
H147 H 0.57206 0.56135 0.47407 0.0
C148 C 0.55026 0.57621 0.48117 0.0
C149 C 0.53022 0.54841 0.56176 0.0
C150 C 0.53817 0.52501 0.58477 0.0
C151 C 0.5453 0.54636 0.5326 0.0
C152 C 0.569 0.5203 0.52637 0.0
C153 C 0.57823 0.49704 0.54944 0.0
C154 C 0.56222 0.49937 0.57847 0.0
N155 N 0.53543 0.57089 0.5104 0.0
H156 H 0.54249 0.46525 0.91991 0.0
H157 H 0.64765 0.47849 0.97027 0.0
H158 H 0.62176 0.54027 0.89206 0.0
H159 H 0.62819 0.43384 0.99754 0.0
C160 C 0.59927 0.43148 0.99447 0.0
C161 C 0.56955 0.47767 0.92275 0.0
C162 C 0.57936 0.50344 0.90279 0.0
C163 C 0.59369 0.46832 0.94702 0.0
C164 C 0.62866 0.48468 0.95119 0.0
C165 C 0.63887 0.5105 0.93121 0.0
C166 C 0.61416 0.5198 0.907 0.0
N167 N 0.58047 0.44418 0.9677 0.0
H168 H 0.7271 0.2732 0.31336 0.0
H169 H 0.75984 0.18868 0.25066 0.0
H170 H 0.80841 0.20891 0.34769 0.0
H171 H 0.73123 0.21459 0.21176 0.0
C172 C 0.71054 0.22853 0.22234 0.0
C173 C 0.74401 0.2518 0.3093 0.0
C174 C 0.76834 0.24378 0.33425 0.0
C175 C 0.74125 0.23275 0.27896 0.0
C176 C 0.76295 0.20481 0.27344 0.0
C177 C 0.78756 0.1962 0.29805 0.0
C178 C 0.79 0.21582 0.32841 0.0
N179 N 0.71494 0.2415 0.25534 0.0
H180 H 0.48823 0.10005 0.98524 0.0
H181 H 0.43657 0.9946 0.96783 0.0
H182 H 0.40433 0.06727 0.04159 0.0
H183 H 0.48907 0.9823 0.95179 0.0
C184 C 0.49666 0.00461 0.93882 0.0
C185 C 0.46859 0.07998 0.99103 0.0
C186 C 0.44638 0.08792 0.0152 0.0
C187 C 0.46588 0.04626 0.97431 0.0
C188 C 0.44006 0.02044 0.98138 0.0
C189 C 0.41789 0.02775 0.00563 0.0
C190 C 0.42094 0.06166 0.02243 0.0
N191 N 0.48893 0.03925 0.95013 0.0
Zn192 Zn 0.30489 0.82982 0.01638 0.0
Zn193 Zn 0.24655 0.86573 0.01077 0.0
O194 O 0.24397 0.83951 0.05206 0.0
O195 O 0.29049 0.808 0.05484 0.0
O196 O 0.20291 0.89503 0.01088 0.0
O197 O 0.33559 0.87613 0.02094 0.0
O198 O 0.28775 0.90512 0.0148 0.0
C199 C 0.26252 0.81767 0.06599 0.0
C200 C 0.2636 0.81049 0.95605 0.0
O201 O 0.24366 0.83385 0.9665 0.0
O202 O 0.29099 0.80363 0.9732 0.0
C203 C 0.17519 0.88693 0.02467 0.0
O204 O 0.17265 0.85668 0.03732 0.0
C205 C 0.32156 0.90513 0.01896 0.0
Zn206 Zn 0.08039 0.4176 0.27762 0.0
Zn207 Zn 0.12012 0.48061 0.28399 0.0
O208 O 0.08868 0.48855 0.32041 0.0
O209 O 0.0569 0.43701 0.31627 0.0
O210 O 0.15341 0.52472 0.28619 0.0
O211 O 0.12489 0.39134 0.28533 0.0
O212 O 0.15542 0.44339 0.29173 0.0
C213 C 0.06475 0.46801 0.33024 0.0
C214 C 0.07035 0.45685 0.22223 0.0
O215 O 0.093 0.47913 0.23918 0.0
O216 O 0.06094 0.42788 0.23293 0.0
C217 C 0.14244 0.55534 0.28523 0.0
O218 O 0.10801 0.55855 0.2841 0.0
C219 C 0.15441 0.40987 0.29181 0.0
Zn220 Zn 0.84773 0.6133 0.93626 0.0
Zn221 Zn 0.82678 0.65098 0.98677 0.0
O222 O 0.8712 0.62762 0.0053 0.0
O223 O 0.8923 0.6025 0.96266 0.0
O224 O 0.8112 0.67839 0.0257 0.0
O225 O 0.84703 0.65677 0.91209 0.0
O226 O 0.83296 0.68859 0.9546 0.0
C227 C 0.89484 0.61037 0.99271 0.0
C228 C 0.77834 0.58838 0.95172 0.0
O229 O 0.78367 0.61544 0.97232 0.0
O230 O 0.80236 0.58034 0.93397 0.0
C231 C 0.83377 0.6936 0.04799 0.0
O232 O 0.86791 0.69241 0.0449 0.0
C233 C 0.83992 0.68625 0.92543 0.0
Zn234 Zn 0.88974 0.00607 0.30574 0.0
Zn235 Zn 0.91328 0.01725 0.24971 0.0
O236 O 0.88406 0.06167 0.25834 0.0
O237 O 0.86394 0.04975 0.30392 0.0
O238 O 0.93392 0.01883 0.20645 0.0
O239 O 0.93916 0.0097 0.32764 0.0
O240 O 0.95923 0.01771 0.28109 0.0
C241 C 0.86577 0.06982 0.28168 0.0
C242 C 0.86565 0.94891 0.25969 0.0
O243 O 0.88223 0.96889 0.24218 0.0
O244 O 0.86504 0.95864 0.28914 0.0
C245 C 0.96229 0.03754 0.20248 0.0
O246 O 0.97748 0.06003 0.22632 0.0
C247 C 0.96484 0.0148 0.31102 0.0
Zn248 Zn 0.35022 0.11731 0.43607 0.0
Zn249 Zn 0.3332 0.15716 0.48653 0.0
O250 O 0.37658 0.13175 0.50432 0.0
O251 O 0.39473 0.10469 0.46105 0.0
O252 O 0.32257 0.18906 0.5248 0.0
O253 O 0.35088 0.15907 0.40995 0.0
O254 O 0.33948 0.19247 0.45252 0.0
C255 C 0.39863 0.11288 0.49108 0.0
C256 C 0.28081 0.09637 0.45504 0.0
O257 O 0.2877 0.12373 0.47519 0.0
O258 O 0.30368 0.08707 0.43649 0.0
C259 C 0.31881 0.17707 0.55155 0.0
O260 O 0.32172 0.1432 0.55391 0.0
C261 C 0.34531 0.18914 0.42308 0.0
Zn262 Zn 0.38252 0.51396 0.79986 0.0
Zn263 Zn 0.41567 0.5215 0.74812 0.0
O264 O 0.38646 0.56654 0.75196 0.0
O265 O 0.35542 0.5559 0.79249 0.0
O266 O 0.44066 0.52169 0.70701 0.0
O267 O 0.42911 0.52075 0.8271 0.0
O268 O 0.45757 0.52277 0.78401 0.0
C269 C 0.36324 0.57521 0.77088 0.0
C270 C 0.36684 0.45335 0.75583 0.0
O271 O 0.38556 0.47258 0.73926 0.0
O272 O 0.36163 0.46488 0.78399 0.0
C273 C 0.46776 0.54196 0.70256 0.0
O274 O 0.48035 0.56723 0.7251 0.0
C275 C 0.4581 0.52304 0.81438 0.0
Zn276 Zn 0.81374 0.33883 0.52558 0.0
Zn277 Zn 0.75358 0.369 0.51735 0.0
O278 O 0.7497 0.34142 0.55789 0.0
O279 O 0.79715 0.3112 0.56014 0.0
O280 O 0.70947 0.39745 0.51546 0.0
O281 O 0.84259 0.38567 0.53616 0.0
O282 O 0.79336 0.41025 0.52292 0.0
C283 C 0.76828 0.31889 0.57081 0.0
C284 C 0.7783 0.32044 0.46216 0.0
O285 O 0.75355 0.33787 0.47303 0.0
O286 O 0.80656 0.31773 0.48005 0.0
C287 C 0.68203 0.3919 0.53034 0.0
O288 O 0.67909 0.36359 0.54585 0.0
C289 C 0.82683 0.4131 0.53127 0.0
Zn290 Zn 0.58237 0.91697 0.77175 0.0
Zn291 Zn 0.62018 0.98141 0.77803 0.0
O292 O 0.58856 0.98995 0.81387 0.0
O293 O 0.55785 0.93777 0.80952 0.0
O294 O 0.65006 0.02676 0.77575 0.0
O295 O 0.62843 0.89363 0.78223 0.0
O296 O 0.65701 0.94672 0.78897 0.0
C297 C 0.5649 0.96893 0.82346 0.0
C298 C 0.57219 0.95328 0.71555 0.0
O299 O 0.59343 0.97605 0.7333 0.0
O300 O 0.5631 0.924 0.72584 0.0
C301 C 0.66835 0.04665 0.79827 0.0
O302 O 0.66827 0.03847 0.82789 0.0
C303 C 0.65706 0.9134 0.79006 0.0
Zn304 Zn 0.01924 0.29784 0.82796 0.0
Zn305 Zn 0.02709 0.23993 0.859 0.0
O306 O 0.06973 0.24239 0.83156 0.0
O307 O 0.06037 0.28679 0.80267 0.0
O308 O 0.0344 0.19687 0.88323 0.0
O309 O 0.02776 0.32835 0.87021 0.0
O310 O 0.03027 0.2804 0.89537 0.0
C311 C 0.07884 0.26187 0.81011 0.0
C312 C 0.95703 0.24852 0.81756 0.0
O313 O 0.97648 0.22977 0.83443 0.0
O314 O 0.96911 0.27897 0.81179 0.0
C315 C 0.01731 0.19193 0.9073 0.0
O316 O 0.99408 0.21437 0.91509 0.0
C317 C 0.03074 0.31397 0.89616 0.0
Zn318 Zn 0.51108 0.79058 0.31949 0.0
Zn319 Zn 0.51822 0.73419 0.35113 0.0
O320 O 0.55974 0.73499 0.32168 0.0
O321 O 0.54969 0.77842 0.29183 0.0
O322 O 0.52611 0.69155 0.37598 0.0
O323 O 0.52271 0.82254 0.36059 0.0
O324 O 0.52398 0.77552 0.38712 0.0
C325 C 0.56798 0.75334 0.29913 0.0
C326 C 0.44657 0.74478 0.31305 0.0
O327 O 0.46586 0.72515 0.32915 0.0
O328 O 0.45995 0.77412 0.30584 0.0
C329 C 0.51011 0.68717 0.4008 0.0
O330 O 0.4874 0.70993 0.40917 0.0
C331 C 0.52598 0.8091 0.38698 0.0
Zn332 Zn 0.95535 0.8132 0.59304 0.0
Zn333 Zn 0.01781 0.79666 0.62345 0.0
O334 O 0.03437 0.83491 0.59627 0.0
O335 O 0.98486 0.84874 0.57056 0.0
O336 O 0.06315 0.78493 0.64672 0.0
O337 O 0.93911 0.82731 0.63696 0.0
O338 O 0.98943 0.81217 0.66016 0.0
C339 C 0.01854 0.85297 0.57628 0.0
C340 C 0.9701 0.73995 0.57954 0.0
O341 O 0.99834 0.7502 0.59795 0.0
O342 O 0.94693 0.76153 0.57378 0.0
C343 C 0.08738 0.77046 0.63265 0.0
O344 O 0.08275 0.76282 0.60138 0.0
C345 C 0.95899 0.82375 0.66222 0.0
Zn346 Zn 0.4572 0.30483 0.0931 0.0
Zn347 Zn 0.51972 0.28717 0.12157 0.0
O348 O 0.53724 0.32432 0.09317 0.0
O349 O 0.48677 0.33915 0.06988 0.0
O350 O 0.56397 0.27499 0.14667 0.0
O351 O 0.44134 0.3207 0.13643 0.0
O352 O 0.49204 0.30511 0.15826 0.0
C353 C 0.52055 0.34271 0.07392 0.0
C354 C 0.46922 0.23088 0.07967 0.0
O355 O 0.49855 0.24034 0.09688 0.0
O356 O 0.44678 0.25333 0.07461 0.0
C357 C 0.58871 0.25781 0.13628 0.0
O358 O 0.58682 0.24668 0.10563 0.0
C359 C 0.46207 0.31743 0.16121 0.0
C360 C 0.25732 0.7957 0.86542 0.0
C361 C 0.26025 0.75889 0.85958 0.0
C362 C 0.25565 0.81206 0.89655 0.0
C363 C 0.25731 0.79233 0.92312 0.0
H364 H 0.25731 0.81229 0.84588 0.0
H365 H 0.25494 0.84056 0.90001 0.0
S366 S 0.2613 0.69511 0.9212 0.0
N367 N 0.2612 0.70298 0.88329 0.0
N368 N 0.25997 0.73405 0.94174 0.0
C369 C 0.25923 0.75554 0.91769 0.0
C370 C 0.26029 0.73876 0.886 0.0
C371 C 0.01051 0.46357 0.40121 0.0
C372 C 0.01057 0.49918 0.41341 0.0
C373 C 0.02787 0.45395 0.37425 0.0
C374 C 0.04644 0.47955 0.35855 0.0
H375 H 0.99669 0.44285 0.41252 0.0
H376 H 0.02696 0.42606 0.36589 0.0
S377 S 0.055 0.57675 0.38115 0.0
N378 N 0.03079 0.56043 0.40788 0.0
N379 N 0.06383 0.5423 0.35726 0.0
C380 C 0.04692 0.51539 0.37061 0.0
C381 C 0.02887 0.52524 0.398 0.0
C382 C 0.82103 0.77783 0.90119 0.0
C383 C 0.82838 0.77586 0.86897 0.0
C384 C 0.82558 0.74911 0.91952 0.0
C385 C 0.83742 0.71721 0.90624 0.0
H386 H 0.81203 0.80187 0.91241 0.0
H387 H 0.81941 0.7519 0.94418 0.0
S388 S 0.85883 0.6984 0.82218 0.0
N389 N 0.84688 0.73927 0.82418 0.0
N390 N 0.85589 0.68562 0.85829 0.0
C391 C 0.84471 0.71503 0.87387 0.0
C392 C 0.84006 0.74422 0.85534 0.0
C393 C 0.04567 0.98148 0.35239 0.0
C394 C 0.0602 0.01143 0.37296 0.0
C395 C 0.01654 0.98358 0.3297 0.0
C396 C 1.00109 0.01565 0.32696 0.0
H397 H 0.05557 0.95585 0.35519 0.0
H398 H 0.00447 0.95949 0.31586 0.0
S399 S 0.03078 0.10208 0.37326 0.0
N400 N 0.05859 0.07455 0.3875 0.0
N401 N 0.00345 0.07832 0.34494 0.0
C402 C 0.01669 0.04619 0.34587 0.0
C403 C 0.04651 0.04415 0.36884 0.0
C404 C 0.29622 0.20743 0.63523 0.0
C405 C 0.29376 0.24403 0.63445 0.0
C406 C 0.30463 0.18621 0.60845 0.0
C407 C 0.31076 0.20067 0.57966 0.0
H408 H 0.29169 0.19505 0.65682 0.0
H409 H 0.30607 0.15816 0.61038 0.0
S410 S 0.30716 0.29531 0.56524 0.0
N411 N 0.29783 0.29397 0.60265 0.0
N412 N 0.31383 0.2543 0.55221 0.0
C413 C 0.30857 0.2374 0.57864 0.0
C414 C 0.3001 0.25902 0.60605 0.0
C415 C 0.52439 0.56061 0.63469 0.0
C416 C 0.52127 0.52804 0.6154 0.0
C417 C 0.50727 0.56473 0.66287 0.0
C418 C 0.48569 0.53666 0.67259 0.0
H419 H 0.54026 0.58313 0.62794 0.0
H420 H 0.51059 0.59034 0.67688 0.0
S421 S 0.46895 0.44585 0.63033 0.0
N422 N 0.49536 0.46713 0.60804 0.0
N423 N 0.46268 0.47483 0.66058 0.0
C424 C 0.4824 0.50389 0.65345 0.0
C425 C 0.50034 0.49958 0.62503 0.0
C426 C 0.74913 0.31224 0.65663 0.0
C427 C 0.75361 0.27645 0.66049 0.0
C428 C 0.75101 0.32542 0.6267 0.0
C429 C 0.75838 0.30337 0.59989 0.0
H430 H 0.74504 0.33039 0.6771 0.0
H431 H 0.74883 0.35342 0.62499 0.0
S432 S 0.77043 0.20739 0.59676 0.0
N433 N 0.76363 0.21879 0.63436 0.0
N434 N 0.76837 0.24387 0.57853 0.0
C435 C 0.76169 0.26734 0.60316 0.0
C436 C 0.75898 0.25375 0.63338 0.0
C437 C 0.52048 0.94308 0.63265 0.0
C438 C 0.52916 0.9756 0.62064 0.0
C439 C 0.53432 0.93619 0.66331 0.0
C440 C 0.55763 0.96147 0.68319 0.0
H441 H 0.50294 0.92266 0.6181 0.0
H442 H 0.52683 0.91068 0.67133 0.0
S443 S 0.58898 0.05084 0.66255 0.0
N444 N 0.56261 0.03324 0.63066 0.0
N445 N 0.5886 0.0207 0.68832 0.0
C446 C 0.56628 0.99431 0.67145 0.0
C447 C 0.55202 1.0013 0.64024 0.0
C448 C 0.8599 0.25068 0.78652 0.0
C449 C 0.84764 0.2147 0.77967 0.0
C450 C 0.89516 0.26109 0.79893 0.0
C451 C 0.91969 0.23599 0.80537 0.0
H452 H 0.84205 0.27109 0.78228 0.0
H453 H 0.90319 0.28919 0.80364 0.0
S454 S 0.90156 0.13837 0.79095 0.0
N455 N 0.86328 0.15378 0.7794 0.0
N456 N 0.92938 0.17349 0.80378 0.0
C457 C 0.9078 0.19988 0.7991 0.0
C458 C 0.87186 0.18921 0.78601 0.0
C459 C 0.52462 0.84031 0.47532 0.0
C460 C 0.52923 0.87736 0.47587 0.0
C461 C 0.52478 0.81828 0.44669 0.0
C462 C 0.52973 0.83255 0.41757 0.0
H463 H 0.51968 0.82827 0.497 0.0
H464 H 0.5199 0.78993 0.44728 0.0
S465 S 0.54806 0.92798 0.40721 0.0
N466 N 0.54251 0.92731 0.44555 0.0
N467 N 0.54287 0.88617 0.39188 0.0
C468 C 0.53624 0.86959 0.41822 0.0
C469 C 0.53599 0.89195 0.44733 0.0
C470 C 0.14669 0.26568 0.74954 0.0
C471 C 0.17823 0.25846 0.76727 0.0
C472 C 0.11436 0.26556 0.76333 0.0
C473 C 0.11222 0.25741 0.79505 0.0
H474 H 0.14715 0.27279 0.72526 0.0
H475 H 0.09094 0.2725 0.74919 0.0
S476 S 0.18691 0.23473 0.85089 0.0
N477 N 0.20527 0.24195 0.81775 0.0
N478 N 0.14422 0.24064 0.84338 0.0
C479 C 0.14328 0.24871 0.81257 0.0
C480 C 0.17638 0.2496 0.79875 0.0
C481 C 0.55566 0.61008 0.43354 0.0
C482 C 0.5382 0.60394 0.46082 0.0
C483 C 0.54606 0.63655 0.41405 0.0
C484 C 0.51854 0.6581 0.42102 0.0
H485 H 0.57727 0.59449 0.42732 0.0
H486 H 0.56074 0.64038 0.39358 0.0
S487 S 0.46311 0.65178 0.48901 0.0
N488 N 0.49107 0.62093 0.49324 0.0
N489 N 0.47308 0.67053 0.45682 0.0
C490 C 0.50039 0.65181 0.44799 0.0
C491 C 0.51018 0.62481 0.46782 0.0
C492 C 0.95094 0.82208 0.75129 0.0
C493 C 0.92015 0.83953 0.75583 0.0
C494 C 0.96383 0.81803 0.72116 0.0
C495 C 0.94623 0.83105 0.69425 0.0
H496 H 0.96486 0.8108 0.77108 0.0
H497 H 0.98727 0.80369 0.71884 0.0
S498 S 0.86577 0.88118 0.69376 0.0
N499 N 0.87337 0.87185 0.73115 0.0
N500 N 0.89745 0.86395 0.67457 0.0
C501 C 0.91595 0.84952 0.69865 0.0
C502 C 0.90294 0.85386 0.72942 0.0
C503 C 0.04127 0.91625 0.51516 0.0
C504 C 0.07856 0.92281 0.52094 0.0
C505 C 0.02216 0.89427 0.5336 0.0
C506 C 0.03951 0.87779 0.55852 0.0
H507 H 0.02653 0.92796 0.49612 0.0
H508 H 0.99354 0.8898 0.52785 0.0
S509 S 0.1369 0.88763 0.58404 0.0
N510 N 0.13214 0.91214 0.55382 0.0
N511 N 0.09641 0.87061 0.58856 0.0
C512 C 0.07683 0.88468 0.56492 0.0
C513 C 0.09626 0.90724 0.54613 0.0
C514 C 0.15593 0.76724 0.70374 0.0
C515 C 0.18182 0.7471 0.69091 0.0
C516 C 0.12578 0.77474 0.68458 0.0
C517 C 0.12021 0.76245 0.65176 0.0
H518 H 0.15869 0.77727 0.72886 0.0
H519 H 0.10665 0.79029 0.69577 0.0
S520 S 0.18035 0.70861 0.60656 0.0
N521 N 0.20029 0.71508 0.64349 0.0
N522 N 0.14345 0.72912 0.60724 0.0
C523 C 0.14609 0.74249 0.63852 0.0
C524 C 0.1769 0.73484 0.65816 0.0
C525 C 0.92448 0.65403 0.5359 0.0
C526 C 0.95258 0.63206 0.53437 0.0
C527 C 0.93037 0.6889 0.55056 0.0
C528 C 0.96448 0.70282 0.5646 0.0
H529 H 0.89794 0.64442 0.52514 0.0
H530 H 0.90798 0.705 0.5509 0.0
S531 S 0.04655 0.65486 0.56806 0.0
N532 N 0.0153 0.62583 0.54881 0.0
N533 N 0.02658 0.69116 0.57654 0.0
C534 C 0.99265 0.68066 0.56371 0.0
C535 C 0.98665 0.64534 0.54853 0.0
C536 C 0.8189 0.87567 0.19901 0.0
C537 C 0.80897 0.84893 0.21826 0.0
C538 C 0.83755 0.90772 0.21249 0.0
C539 C 0.8468 0.91441 0.24578 0.0
H540 H 0.81186 0.87197 0.17331 0.0
H541 H 0.84428 0.92758 0.19671 0.0
S542 S 0.82942 0.85185 0.30641 0.0
N543 N 0.81167 0.83041 0.27204 0.0
N544 N 0.84601 0.89071 0.29754 0.0
C545 C 0.83739 0.88766 0.26526 0.0
C546 C 0.81863 0.85497 0.25148 0.0
C547 C 0.80889 0.13978 0.31532 0.0
C548 C 0.80856 0.16488 0.29294 0.0
C549 C 0.82731 0.10947 0.31111 0.0
C550 C 0.84649 0.10265 0.28429 0.0
H551 H 0.79426 0.14325 0.33615 0.0
H552 H 0.82629 0.09117 0.32928 0.0
S553 S 0.85498 0.16088 0.21895 0.0
N554 N 0.82963 0.18159 0.24317 0.0
N555 N 0.86432 0.12432 0.23512 0.0
C556 C 0.84658 0.12768 0.26168 0.0
C557 C 0.8276 0.15875 0.266 0.0
C558 C 0.40558 0.96646 0.02005 0.0
C559 C 0.39265 0.99892 0.01351 0.0
C560 C 0.38234 0.93688 0.02309 0.0
C561 C 0.34508 0.93839 0.01949 0.0
H562 H 0.43399 0.96365 0.02193 0.0
H563 H 0.39386 0.91232 0.0273 0.0
S564 S 0.29795 0.01837 0.00454 0.0
N565 N 0.34064 0.03185 0.00537 0.0
N566 N 0.2965 0.97617 0.01107 0.0
C567 C 0.33183 0.97131 0.01443 0.0
C568 C 0.35571 1.00159 0.01147 0.0
C569 C 0.25174 0.40022 0.31833 0.0
C570 C 0.25344 0.36337 0.31733 0.0
C571 C 0.21965 0.41479 0.31017 0.0
C572 C 0.1878 0.39315 0.30056 0.0
H573 H 0.27559 0.41798 0.32514 0.0
H574 H 0.22001 0.44337 0.31123 0.0
S575 S 0.17811 0.29472 0.29403 0.0
N576 N 0.22073 0.30537 0.30603 0.0
N577 N 0.16013 0.33262 0.29099 0.0
C578 C 0.18903 0.35614 0.29997 0.0
C579 C 0.22186 0.34131 0.30833 0.0
C580 C 0.18066 0.07596 0.45109 0.0
C581 C 0.17634 0.03938 0.44165 0.0
C582 C 0.21475 0.09409 0.45652 0.0
C583 C 0.24545 0.07628 0.45195 0.0
H584 H 0.15754 0.09057 0.45423 0.0
H585 H 0.21702 0.12238 0.46341 0.0
S586 S 0.24787 0.98014 0.42834 0.0
N587 N 0.20505 0.98569 0.42907 0.0
N588 N 0.26917 0.01975 0.43837 0.0
C589 C 0.2413 0.03957 0.4428 0.0
C590 C 0.20669 0.0211 0.43788 0.0
C591 C 0.71605 0.11031 0.74905 0.0
C592 C 0.73274 0.13696 0.77214 0.0
C593 C 0.69535 0.08147 0.75788 0.0
C594 C 0.69052 0.07788 0.79023 0.0
H595 H 0.7193 0.11154 0.72387 0.0
H596 H 0.68328 0.06167 0.73902 0.0
S597 S 0.72747 0.14131 0.85995 0.0
N598 N 0.74223 0.15873 0.82869 0.0
N599 N 0.7037 0.10407 0.84547 0.0
C600 C 0.70704 0.10439 0.81365 0.0
C601 C 0.72807 0.13398 0.80457 0.0
C602 C 0.43966 0.05662 0.55183 0.0
C603 C 0.47121 0.04824 0.53866 0.0
C604 C 0.41752 0.08042 0.53804 0.0
C605 C 0.42614 0.09625 0.51052 0.0
H606 H 0.43074 0.04281 0.57138 0.0
H607 H 0.39222 0.08422 0.54743 0.0
S608 S 0.50928 0.08875 0.47119 0.0
N609 N 0.51277 0.06229 0.50006 0.0
N610 N 0.47074 0.10599 0.47366 0.0
C611 C 0.4591 0.09051 0.49903 0.0
C612 C 0.48176 0.06678 0.51325 0.0
C613 C 0.59791 0.43521 0.5503 0.0
C614 C 0.60467 0.47043 0.54327 0.0
C615 C 0.62264 0.40996 0.54533 0.0
C616 C 0.65522 0.41868 0.53298 0.0
H617 H 0.57322 0.42702 0.5597 0.0
H618 H 0.61615 0.38336 0.55144 0.0
S619 S 0.68659 0.50766 0.5118 0.0
N620 N 0.64706 0.51297 0.52426 0.0
N621 N 0.69301 0.46554 0.51429 0.0
C622 C 0.66221 0.45377 0.52559 0.0
C623 C 0.63713 0.47956 0.53088 0.0
C624 C 0.74004 0.27129 0.38151 0.0
C625 C 0.77095 0.26462 0.36634 0.0
C626 C 0.74221 0.29031 0.4121 0.0
C627 C 0.77539 0.30323 0.42866 0.0
H628 H 0.71401 0.26107 0.36994 0.0
H629 H 0.71787 0.29401 0.42319 0.0
S630 S 0.86382 0.29694 0.39758 0.0
N631 N 0.83528 0.27544 0.36896 0.0
N632 N 0.83961 0.31065 0.42618 0.0
C633 C 0.80633 0.2978 0.41315 0.0
C634 C 0.80406 0.27862 0.38213 0.0
C635 C 0.51325 0.96216 0.89578 0.0
C636 C 0.51398 0.99743 0.90912 0.0
C637 C 0.52914 0.95345 0.86777 0.0
C638 C 0.54689 0.97968 0.85215 0.0
H639 H 0.50017 0.94097 0.90707 0.0
H640 H 0.52797 0.92576 0.85867 0.0
S641 S 0.55636 0.07637 0.87744 0.0
N642 N 0.53359 0.05905 0.90464 0.0
N643 N 0.56398 0.04269 0.85206 0.0
C644 C 0.5478 0.01523 0.86523 0.0
C645 C 0.5312 0.02413 0.89369 0.0
C646 C 0.32625 0.28008 0.39786 0.0
C647 C 0.33251 0.27727 0.36537 0.0
C648 C 0.33145 0.25187 0.4166 0.0
C649 C 0.34279 0.21967 0.40348 0.0
H650 H 0.31746 0.30432 0.40889 0.0
H651 H 0.32597 0.25523 0.44145 0.0
S652 S 0.36178 0.19893 0.31898 0.0
N653 N 0.34984 0.2398 0.32058 0.0
N654 N 0.35993 0.18698 0.35551 0.0
C655 C 0.34919 0.21672 0.3709 0.0
C656 C 0.34394 0.24543 0.35194 0.0
C657 C 0.52045 0.52606 0.89027 0.0
C658 C 0.55184 0.51435 0.87929 0.0
C659 C 0.49115 0.53078 0.86883 0.0
C660 C 0.49192 0.52377 0.83546 0.0
H661 H 0.51806 0.5303 0.91577 0.0
H662 H 0.46719 0.53871 0.8787 0.0
S663 S 0.56946 0.49584 0.79456 0.0
N664 N 0.58343 0.49849 0.83316 0.0
N665 N 0.52808 0.50729 0.79243 0.0
C666 C 0.52406 0.51421 0.82406 0.0
C667 C 0.55409 0.50948 0.8461 0.0
C668 C 0.77313 0.73547 0.10519 0.0
C669 C 0.79644 0.74668 0.1329 0.0
C670 C 0.78544 0.71839 0.07789 0.0
C671 C 0.82157 0.71187 0.07722 0.0
H672 H 0.74524 0.7404 0.10442 0.0
H673 H 0.76647 0.71052 0.05706 0.0
S674 S 0.89286 0.73371 0.1447 0.0
N675 N 0.85683 0.74832 0.15879 0.0
N676 N 0.88017 0.71672 0.10749 0.0
C677 C 0.84505 0.72255 0.10502 0.0
C678 C 0.83245 0.73981 0.13283 0.0
C679 C 0.02088 0.05586 0.13595 0.0
C680 C 0.01616 0.02408 0.11548 0.0
C681 C 0.0033 0.05992 0.16386 0.0
C682 C 0.97962 0.03264 0.17214 0.0
H683 H 0.03848 0.07778 0.13039 0.0
H684 H 0.0081 0.08484 0.17891 0.0
S685 S 0.95784 0.94414 0.12629 0.0
N686 N 0.98629 0.96477 0.10535 0.0
N687 N 0.95268 0.97243 0.15739 0.0
C688 C 0.97452 1.00072 0.15171 0.0
C689 C 0.99297 0.99641 0.12357 0.0
C690 C 0.25405 0.75633 0.13086 0.0
C691 C 0.24654 0.77916 0.15712 0.0
C692 C 0.25768 0.76881 0.10099 0.0
C693 C 0.25297 0.80428 0.09609 0.0
H694 H 0.25879 0.72903 0.13369 0.0
H695 H 0.26506 0.75076 0.08175 0.0
S696 S 0.2304 0.87396 0.15649 0.0
N697 N 0.23307 0.83843 0.17608 0.0
N698 N 0.23859 0.8616 0.11942 0.0
C699 C 0.24366 0.82692 0.12166 0.0
C700 C 0.24085 0.81442 0.15236 0.0
C701 C 0.05119 0.50567 0.14813 0.0
C702 C 0.02776 0.48109 0.12782 0.0
C703 C 0.06455 0.49776 0.1787 0.0
C704 C 0.05483 0.46502 0.19014 0.0
H705 H 0.06026 0.53063 0.1399 0.0
H706 H 0.08309 0.51731 0.19322 0.0
S707 S 0.99141 0.39303 0.14671 0.0
N708 N 0.99346 0.42388 0.12171 0.0
N709 N 0.01827 0.4088 0.1789 0.0
C710 C 0.03027 0.4408 0.1703 0.0
C711 C 0.01682 0.44889 0.13924 0.0
C712 C 0.35908 0.68954 0.28398 0.0
C713 C 0.33528 0.71569 0.27882 0.0
C714 C 0.39492 0.69883 0.29608 0.0
C715 C 0.40814 0.73457 0.3032 0.0
H716 H 0.35027 0.66181 0.27756 0.0
H717 H 0.41262 0.678 0.29877 0.0
S718 S 0.35519 0.81262 0.29867 0.0
N719 N 0.32648 0.77839 0.28533 0.0
N720 N 0.39349 0.79593 0.30749 0.0
C721 C 0.38406 0.76076 0.29963 0.0
C722 C 0.34775 0.75131 0.28759 0.0
C723 C 0.03406 0.39585 0.95541 0.0
C724 C 0.03269 0.38198 0.98511 0.0
C725 C 0.0343 0.37363 0.92707 0.0
C726 C 0.03317 0.33656 0.92715 0.0
H727 H 0.03448 0.42412 0.9538 0.0
H728 H 0.03482 0.38578 0.90484 0.0
S729 S 0.03126 0.28714 0.99914 0.0
N730 N 0.03167 0.32914 0.01333 0.0
N731 N 0.0321 0.28709 0.95999 0.0
C732 C 0.03285 0.32237 0.95689 0.0
C733 C 0.03264 0.34515 0.98585 0.0
C734 C 0.66536 0.74323 0.28923 0.0
C735 C 0.6683 0.75136 0.25761 0.0
C736 C 0.63227 0.74139 0.30189 0.0
C737 C 0.60106 0.74848 0.28357 0.0
H738 H 0.68898 0.73903 0.30458 0.0
H739 H 0.63148 0.7363 0.32672 0.0
S740 S 0.59386 0.76889 0.19886 0.0
N741 N 0.63666 0.76444 0.20764 0.0
N742 N 0.57476 0.76194 0.23167 0.0
C743 C 0.60343 0.75544 0.25157 0.0
C744 C 0.63698 0.75664 0.2385 0.0
C745 C 0.05793 0.11089 0.93723 0.0
C746 C 0.0413 0.10577 0.96514 0.0
C747 C 0.0498 0.13849 0.91858 0.0
C748 C 0.02459 0.1622 0.92703 0.0
H749 H 0.07765 0.09349 0.92978 0.0
H750 H 0.06363 0.14131 0.89745 0.0
S751 S 0.97282 0.16004 0.99775 0.0
N752 N 0.99789 0.12657 1.00015 0.0
N753 N 0.98265 0.17829 0.96529 0.0
C754 C 0.00747 0.15718 0.95481 0.0
C755 C 0.01579 0.12905 0.97381 0.0
C756 C 0.4057 0.34907 0.22638 0.0
C757 C 0.42447 0.34024 0.25458 0.0
C758 C 0.41853 0.34233 0.19649 0.0
C759 C 0.4507 0.32656 0.19356 0.0
H760 H 0.38047 0.36064 0.22712 0.0
H761 H 0.4027 0.34907 0.17548 0.0
S762 S 0.51082 0.30016 0.26063 0.0
N763 N 0.47737 0.31627 0.27809 0.0
N764 N 0.50182 0.30364 0.22197 0.0
C765 C 0.47032 0.31862 0.22179 0.0
C766 C 0.45711 0.32545 0.25225 0.0
C767 C 0.59645 0.38732 0.03474 0.0
C768 C 0.57913 0.41094 0.01618 0.0
C769 C 0.57751 0.36584 0.05388 0.0
C770 C 0.54055 0.36736 0.05528 0.0
H771 H 0.62468 0.38476 0.03383 0.0
H772 H 0.59186 0.34738 0.06712 0.0
S773 S 0.48367 0.42843 0.01435 0.0
N774 N 0.52357 0.43705 0.00264 0.0
N775 N 0.48807 0.3969 0.03843 0.0
C776 C 0.52326 0.39206 0.03782 0.0
C777 C 0.54252 0.41381 0.01833 0.0
C778 C 0.67778 0.22758 0.16797 0.0
C779 C 0.67892 0.2362 0.20127 0.0
C780 C 0.64855 0.23457 0.14713 0.0
C781 C 0.61926 0.25042 0.15881 0.0
H782 H 0.69978 0.21547 0.15788 0.0
H783 H 0.64907 0.22761 0.12165 0.0
S784 S 0.60835 0.27665 0.24443 0.0
N785 N 0.64759 0.26043 0.24518 0.0
N786 N 0.59287 0.27358 0.20623 0.0
C787 C 0.61992 0.25881 0.19221 0.0
C788 C 0.64967 0.2517 0.21339 0.0
C789 C 0.48474 0.13751 0.04728 0.0
C790 C 0.45078 0.12354 0.03323 0.0
C791 C 0.4902 0.17191 0.06287 0.0
C792 C 0.46198 0.19385 0.06467 0.0
H793 H 0.50734 0.12176 0.04604 0.0
H794 H 0.51698 0.18158 0.07296 0.0
S795 S 0.3676 0.16908 0.03226 0.0
N796 N 0.38836 0.1336 0.02257 0.0
N797 N 0.3984 0.19843 0.05179 0.0
C798 C 0.42767 0.17987 0.05113 0.0
C799 C 0.42212 0.14467 0.03549 0.0
C800 C 0.32484 0.3762 0.69678 0.0
C801 C 0.31597 0.35006 0.71699 0.0
C802 C 0.34219 0.40927 0.70932 0.0
C803 C 0.35101 0.41748 0.74255 0.0
H804 H 0.31737 0.37147 0.67117 0.0
H805 H 0.3477 0.42889 0.69298 0.0
S806 S 0.33812 0.35644 0.80519 0.0
N807 N 0.32086 0.33332 0.77144 0.0
N808 N 0.35256 0.39549 0.79507 0.0
C809 C 0.34355 0.39104 0.76283 0.0
C810 C 0.32627 0.35736 0.75005 0.0
C811 C 0.34247 0.67022 0.78877 0.0
C812 C 0.30534 0.6681 0.78053 0.0
C813 C 0.36197 0.64058 0.78297 0.0
C814 C 0.34491 0.6079 0.76893 0.0
H815 H 0.35639 0.69477 0.80018 0.0
H816 H 0.3902 0.64276 0.79095 0.0
S817 S 0.24847 0.58828 0.74336 0.0
N818 N 0.25252 0.63053 0.75747 0.0
N819 N 0.28912 0.57508 0.74709 0.0
C820 C 0.30806 0.60565 0.76016 0.0
C821 C 0.28829 0.6357 0.76578 0.0
C822 C 0.85597 0.50509 0.51032 0.0
C823 C 0.89216 0.50907 0.5221 0.0
C824 C 0.83419 0.47488 0.51521 0.0
C825 C 0.84813 0.44761 0.53176 0.0
H826 H 0.84494 0.52452 0.49588 0.0
H827 H 0.80685 0.47203 0.50439 0.0
S828 S 0.94061 0.44838 0.57061 0.0
N829 N 0.94036 0.48556 0.55331 0.0
N830 N 0.89977 0.42885 0.56283 0.0
C831 C 0.88387 0.45267 0.54537 0.0
C832 C 0.90584 0.48338 0.54039 0.0
C833 C 0.72278 0.84575 0.8106 0.0
C834 C 0.75396 0.8671 0.82279 0.0
C835 C 0.69152 0.86089 0.80027 0.0
C836 C 0.6903 0.89796 0.80172 0.0
H837 H 0.72296 0.81717 0.80782 0.0
H838 H 0.66838 0.84333 0.79048 0.0
S839 S 0.76427 0.96525 0.83494 0.0
N840 N 0.78119 0.92687 0.83807 0.0
N841 N 0.72282 0.95551 0.81869 0.0
C842 C 0.7211 0.91952 0.81508 0.0
C843 C 0.75278 0.90405 0.82562 0.0
C844 C 0.67863 0.56562 0.94787 0.0
C845 C 0.67475 0.52941 0.93688 0.0
C846 C 0.7124 0.58426 0.95336 0.0
C847 C 0.74334 0.56746 0.94739 0.0
H848 H 0.65537 0.57955 0.95234 0.0
H849 H 0.71418 0.61222 0.96166 0.0
S850 S 0.74705 0.47265 0.91896 0.0
N851 N 0.70418 0.47709 0.92096 0.0
N852 N 0.76781 0.51224 0.93043 0.0
C853 C 0.7397 0.53114 0.93646 0.0
C854 C 0.70534 0.51206 0.93146 0.0
C855 C 0.22813 0.60861 0.27203 0.0
C856 C 0.21707 0.64259 0.26876 0.0
C857 C 0.20407 0.58089 0.27848 0.0
C858 C 0.16804 0.58612 0.28195 0.0
H859 H 0.25519 0.60306 0.26831 0.0
H860 H 0.21365 0.5549 0.27973 0.0
S861 S 0.12725 0.6717 0.27972 0.0
N862 N 0.16892 0.68102 0.27251 0.0
N863 N 0.12357 0.62905 0.28451 0.0
C864 C 0.1572 0.62054 0.28036 0.0
C865 C 0.18173 0.64871 0.27377 0.0
C866 C 0.93886 0.55829 0.05556 0.0
C867 C 0.97162 0.55231 0.04353 0.0
C868 C 0.91507 0.57984 0.04059 0.0
C869 C 0.92317 0.5957 0.01294 0.0
H870 H 0.93041 0.54421 0.07513 0.0
H871 H 0.88912 0.58181 0.04922 0.0
S872 S 0.00844 0.59431 0.97624 0.0
N873 N 0.0133 0.56892 0.00582 0.0
N874 N 0.96823 0.60827 0.97716 0.0
C875 C 0.95707 0.59244 0.00252 0.0
C876 C 0.9814 0.57107 0.01799 0.0
C877 C 0.13122 0.97408 0.03111 0.0
C878 C 0.09825 0.96481 0.04257 0.0
C879 C 0.15542 0.9487 0.02462 0.0
C880 C 0.14786 0.91284 0.02941 0.0
H881 H 0.13876 1.00141 0.02768 0.0
H882 H 0.18063 0.9575 0.01645 0.0
S883 S 0.06392 0.87408 0.05648 0.0
N884 N 0.05839 0.91668 0.05638 0.0
N885 N 0.10388 0.86916 0.04481 0.0
C886 C 0.11464 0.90307 0.04024 0.0
C887 C 0.08993 0.92893 0.04671 0.0
loop_
_geom_bond_atom_site_label_1
_geom_bond_atom_site_label_2
_geom_bond_distance
_geom_bond_site_symmetry_2
_ccdc_geom_bond_type
H0 C5 0.930 . S
H1 C8 0.930 . S
H2 C10 0.930 1_565 S
H3 C4 1.016 . S
C4 H3 1.016 . S
C4 N11 1.286 1_556 S
C5 H0 0.930 . S
C5 C6 1.397 . S
C5 C7 1.361 . S
C6 C5 1.397 . S
C6 C10 1.390 . S
C7 C5 1.361 . S
C7 C8 1.393 . S
C7 N11 1.413 . S
C8 H1 0.930 . S
C8 C7 1.393 . S
C8 C9 1.399 . S
C9 C8 1.399 . S
C9 C10 1.381 . S
C10 H2 0.930 1_545 S
C10 C6 1.390 . S
C10 C9 1.381 . S
N11 C4 1.286 1_554 S
N11 C7 1.413 . S
H12 C17 0.930 . S
H13 C20 0.930 . S
H14 C22 0.930 . S
H15 C16 1.016 . S
C16 H15 1.016 . S
C16 N23 1.286 . S
C17 H12 0.930 . S
C17 C18 1.397 . S
C17 C19 1.361 . S
C18 C17 1.397 . S
C18 C22 1.390 . S
C19 C17 1.361 . S
C19 C20 1.393 . S
C19 N23 1.413 . S
C20 H13 0.930 . S
C20 C19 1.393 . S
C20 C21 1.399 . S
C21 C20 1.399 . S
C21 C22 1.381 . S
C22 H14 0.930 . S
C22 C18 1.390 . S
C22 C21 1.381 . S
N23 C16 1.286 . S
N23 C19 1.413 . S
H24 C29 0.930 . S
H25 C32 0.930 . S
H26 C34 0.930 . S
H27 C28 1.016 . S
C28 H27 1.016 . S
C28 N35 1.286 . S
C29 H24 0.930 . S
C29 C30 1.397 . S
C29 C31 1.361 . S
C30 C29 1.397 . S
C30 C34 1.390 . S
C31 C29 1.361 . S
C31 C32 1.393 . S
C31 N35 1.413 . S
C32 H25 0.930 . S
C32 C31 1.393 . S
C32 C33 1.399 . S
C33 C32 1.399 . S
C33 C34 1.381 . S
C34 H26 0.930 . S
C34 C30 1.390 . S
C34 C33 1.381 . S
N35 C28 1.286 . S
N35 C31 1.413 . S
H36 C41 0.930 . S
H37 C44 0.930 . S
H38 C46 0.930 . S
H39 C40 1.016 . S
C40 H39 1.016 . S
C40 N47 1.286 . S
C41 H36 0.930 . S
C41 C42 1.397 . S
C41 C43 1.361 . S
C42 C41 1.397 . S
C42 C46 1.390 . S
C43 C41 1.361 . S
C43 C44 1.393 . S
C43 N47 1.413 . S
C44 H37 0.930 . S
C44 C43 1.393 . S
C44 C45 1.399 . S
C45 C44 1.399 . S
C45 C46 1.381 . S
C46 H38 0.930 . S
C46 C42 1.390 . S
C46 C45 1.381 . S
N47 C40 1.286 . S
N47 C43 1.413 . S
H48 C53 0.930 . S
H49 C56 0.930 . S
H50 C58 0.930 1_545 S
H51 C52 1.016 . S
C52 H51 1.016 . S
C52 N59 1.286 . S
C53 H48 0.930 . S
C53 C54 1.397 . S
C53 C55 1.361 . S
C54 C53 1.397 . S
C54 C58 1.390 . S
C55 C53 1.361 . S
C55 C56 1.393 . S
C55 N59 1.413 . S
C56 H49 0.930 . S
C56 C55 1.393 . S
C56 C57 1.399 . S
C57 C56 1.399 . S
C57 C58 1.381 . S
C58 H50 0.930 1_565 S
C58 C54 1.390 . S
C58 C57 1.381 . S
N59 C52 1.286 . S
N59 C55 1.413 . S
H60 C65 0.930 . S
H61 C68 0.930 . S
H62 C70 0.930 . S
H63 C64 1.016 . S
C64 H63 1.016 . S
C64 N71 1.286 . S
C65 H60 0.930 . S
C65 C66 1.397 . S
C65 C67 1.361 . S
C66 C65 1.397 . S
C66 C70 1.390 . S
C67 C65 1.361 . S
C67 C68 1.393 . S
C67 N71 1.413 . S
C68 H61 0.930 . S
C68 C67 1.393 . S
C68 C69 1.399 . S
C69 C68 1.399 . S
C69 C70 1.381 . S
C70 H62 0.930 . S
C70 C66 1.390 . S
C70 C69 1.381 . S
N71 C64 1.286 . S
N71 C67 1.413 . S
H72 C77 0.927 1_455 S
H73 C80 0.930 . S
H74 C82 0.930 . S
H75 C76 1.016 1_655 S
C76 H75 1.016 1_455 S
C76 N83 1.286 1_455 S
C77 H72 0.927 1_655 S
C77 C78 1.397 . S
C77 C79 1.361 . S
C78 C77 1.397 . S
C78 C82 1.390 . S
C79 C77 1.361 . S
C79 C80 1.393 . S
C79 N83 1.413 . S
C80 H73 0.930 . S
C80 C79 1.393 . S
C80 C81 1.399 . S
C81 C80 1.399 . S
C81 C82 1.381 . S
C82 H74 0.930 . S
C82 C78 1.390 . S
C82 C81 1.381 . S
N83 C76 1.286 1_655 S
N83 C79 1.413 . S
H84 C89 0.930 . S
H85 C92 0.930 . S
H86 C94 0.930 . S
H87 C88 1.016 . S
C88 H87 1.016 . S
C88 N95 1.286 . S
C89 H84 0.930 . S
C89 C90 1.397 . S
C89 C91 1.361 . S
C90 C89 1.397 . S
C90 C94 1.390 . S
C91 C89 1.361 . S
C91 C92 1.393 . S
C91 N95 1.413 . S
C92 H85 0.930 . S
C92 C91 1.393 . S
C92 C93 1.399 . S
C93 C92 1.399 . S
C93 C94 1.381 . S
C94 H86 0.930 . S
C94 C90 1.390 . S
C94 C93 1.381 . S
N95 C88 1.286 . S
N95 C91 1.413 . S
H96 C101 0.930 . S
H97 C104 0.930 . S
H98 C106 0.930 . S
H99 C100 1.016 . S
C100 H99 1.016 . S
C100 N107 1.286 . S
C101 H96 0.930 . S
C101 C102 1.397 . S
C101 C103 1.361 . S
C102 C101 1.397 . S
C102 C106 1.390 . S
C103 C101 1.361 . S
C103 C104 1.393 . S
C103 N107 1.413 . S
C104 H97 0.930 . S
C104 C103 1.393 . S
C104 C105 1.399 . S
C105 C104 1.399 . S
C105 C106 1.381 . S
C106 H98 0.930 . S
C106 C102 1.390 . S
C106 C105 1.381 . S
N107 C100 1.286 . S
N107 C103 1.413 . S
H108 C113 0.930 . S
H109 C116 0.930 . S
H110 C118 0.930 . S
H111 C112 1.016 . S
C112 H111 1.016 . S
C112 N119 1.286 . S
C113 H108 0.930 . S
C113 C114 1.397 1_565 S
C113 C115 1.361 . S
C114 C113 1.397 1_545 S
C114 C118 1.390 . S
C115 C113 1.361 . S
C115 C116 1.393 . S
C115 N119 1.413 . S
C116 H109 0.930 . S
C116 C115 1.393 . S
C116 C117 1.399 . S
C117 C116 1.399 . S
C117 C118 1.381 1_565 S
C118 H110 0.930 . S
C118 C114 1.390 . S
C118 C117 1.381 1_545 S
N119 C112 1.286 . S
N119 C115 1.413 . S
H120 C125 0.930 . S
H121 C128 0.930 . S
H122 C130 0.930 . S
H123 C124 1.016 . S
C124 H123 1.016 . S
C124 N131 1.286 . S
C125 H120 0.930 . S
C125 C126 1.397 . S
C125 C127 1.361 . S
C126 C125 1.397 . S
C126 C130 1.390 . S
C127 C125 1.361 . S
C127 C128 1.393 . S
C127 N131 1.413 . S
C128 H121 0.930 . S
C128 C127 1.393 . S
C128 C129 1.399 . S
C129 C128 1.399 . S
C129 C130 1.381 . S
C130 H122 0.930 . S
C130 C126 1.390 . S
C130 C129 1.381 . S
N131 C124 1.286 . S
N131 C127 1.413 . S
H132 C137 0.930 . S
H133 C140 0.930 . S
H134 C142 0.930 . S
H135 C136 1.016 . S
C136 H135 1.016 . S
C136 N143 1.286 . S
C137 H132 0.930 . S
C137 C138 1.397 . S
C137 C139 1.361 . S
C138 C137 1.397 . S
C138 C142 1.390 . S
C139 C137 1.361 . S
C139 C140 1.393 . S
C139 N143 1.413 . S
C140 H133 0.930 . S
C140 C139 1.393 . S
C140 C141 1.399 . S
C141 C140 1.399 . S
C141 C142 1.381 . S
C142 H134 0.930 . S
C142 C138 1.390 . S
C142 C141 1.381 . S
N143 C136 1.286 . S
N143 C139 1.413 . S
H144 C149 0.930 . S
H145 C152 0.930 . S
H146 C154 0.930 . S
H147 C148 1.016 . S
C148 H147 1.016 . S
C148 N155 1.286 . S
C149 H144 0.930 . S
C149 C150 1.397 . S
C149 C151 1.361 . S
C150 C149 1.397 . S
C150 C154 1.390 . S
C151 C149 1.361 . S
C151 C152 1.393 . S
C151 N155 1.413 . S
C152 H145 0.930 . S
C152 C151 1.393 . S
C152 C153 1.399 . S
C153 C152 1.399 . S
C153 C154 1.381 . S
C154 H146 0.930 . S
C154 C150 1.390 . S
C154 C153 1.381 . S
N155 C148 1.286 . S
N155 C151 1.413 . S
H156 C161 0.930 . S
H157 C164 0.930 1_554 S
H158 C166 0.930 . S
H159 C160 1.016 . S
C160 H159 1.016 . S
C160 N167 1.286 1_554 S
C161 H156 0.930 . S
C161 C162 1.397 . S
C161 C163 1.361 . S
C162 C161 1.397 . S
C162 C166 1.390 . S
C163 C161 1.361 . S
C163 C164 1.393 . S
C163 N167 1.413 . S
C164 H157 0.930 1_556 S
C164 C163 1.393 . S
C164 C165 1.399 . S
C165 C164 1.399 . S
C165 C166 1.381 . S
C166 H158 0.930 . S
C166 C162 1.390 . S
C166 C165 1.381 . S
N167 C160 1.286 1_556 S
N167 C163 1.413 . S
H168 C173 0.930 . S
H169 C176 0.930 . S
H170 C178 0.930 . S
H171 C172 1.016 . S
C172 H171 1.016 . S
C172 N179 1.286 . S
C173 H168 0.930 . S
C173 C174 1.397 . S
C173 C175 1.361 . S
C174 C173 1.397 . S
C174 C178 1.390 . S
C175 C173 1.361 . S
C175 C176 1.393 . S
C175 N179 1.413 . S
C176 H169 0.930 . S
C176 C175 1.393 . S
C176 C177 1.399 . S
C177 C176 1.399 . S
C177 C178 1.381 . S
C178 H170 0.930 . S
C178 C174 1.390 . S
C178 C177 1.381 . S
N179 C172 1.286 . S
N179 C175 1.413 . S
H180 C185 0.930 . S
H181 C188 0.930 . S
H182 C190 0.930 1_554 S
H183 C184 1.016 . S
C184 H183 1.016 . S
C184 N191 1.286 . S
C185 H180 0.930 . S
C185 C186 1.397 . S
C185 C187 1.361 . S
C186 C185 1.397 . S
C186 C190 1.390 . S
C187 C185 1.361 . S
C187 C188 1.393 . S
C187 N191 1.413 . S
C188 H181 0.930 . S
C188 C187 1.393 . S
C188 C189 1.399 . S
C189 C188 1.399 . S
C189 C190 1.381 . S
C190 H182 0.930 1_556 S
C190 C186 1.390 . S
C190 C189 1.381 . S
N191 C184 1.286 . S
N191 C187 1.413 . S
Zn192 O195 2.031 . S
Zn192 O197 2.049 1_554 S
Zn192 O202 2.067 1_554 S
Zn193 O194 1.962 . S
Zn193 O196 1.986 . S
Zn193 O198 1.996 . S
Zn193 O201 1.943 1_554 S
O194 Zn193 1.962 . S
O194 C199 1.254 . S
O195 Zn192 2.031 . S
O195 C199 1.269 . S
O196 Zn193 1.986 . S
O196 C203 1.262 . S
O197 Zn192 2.049 1_556 S
O197 C205 1.260 1_556 S
O198 Zn193 1.996 . S
O198 C205 1.257 . S
C199 O194 1.254 . S
C199 O195 1.269 . S
C200 O201 1.249 . S
C200 O202 1.270 . S
O201 Zn193 1.943 1_556 S
O201 C200 1.249 . S
O202 Zn192 2.067 1_556 S
O202 C200 1.270 . S
C203 O196 1.262 . S
C203 O204 1.232 . S
O204 C203 1.232 . S
C205 O197 1.260 1_554 S
C205 O198 1.257 . S
Zn206 O209 2.031 . S
Zn206 O211 2.049 . S
Zn206 O216 2.067 . S
Zn207 O208 1.962 . S
Zn207 O210 1.986 . S
Zn207 O212 1.996 . S
Zn207 O215 1.943 . S
O208 Zn207 1.962 . S
O208 C213 1.254 . S
O209 Zn206 2.031 . S
O209 C213 1.269 . S
O210 Zn207 1.986 . S
O210 C217 1.262 . S
O211 Zn206 2.049 . S
O211 C219 1.260 . S
O212 Zn207 1.996 . S
O212 C219 1.257 . S
C213 O208 1.254 . S
C213 O209 1.269 . S
C214 O215 1.249 . S
C214 O216 1.270 . S
O215 Zn207 1.943 . S
O215 C214 1.249 . S
O216 Zn206 2.067 . S
O216 C214 1.270 . S
C217 O210 1.262 . S
C217 O218 1.232 . S
O218 C217 1.232 . S
C219 O211 1.260 . S
C219 O212 1.257 . S
Zn220 O223 2.031 . S
Zn220 O225 2.049 . S
Zn220 O230 2.067 . S
Zn221 O222 1.962 . S
Zn221 O224 1.986 . S
Zn221 O226 1.996 1_554 S
Zn221 O229 1.943 . S
O222 Zn221 1.962 . S
O222 C227 1.254 . S
O223 Zn220 2.031 . S
O223 C227 1.269 1_556 S
O224 Zn221 1.986 . S
O224 C231 1.262 . S
O225 Zn220 2.049 . S
O225 C233 1.260 . S
O226 Zn221 1.996 1_556 S
O226 C233 1.257 . S
C227 O222 1.254 . S
C227 O223 1.269 1_554 S
C228 O229 1.249 1_556 S
C228 O230 1.270 . S
O229 Zn221 1.943 . S
O229 C228 1.249 1_554 S
O230 Zn220 2.067 . S
O230 C228 1.270 . S
C231 O224 1.262 . S
C231 O232 1.232 . S
O232 C231 1.232 . S
C233 O225 1.260 . S
C233 O226 1.257 . S
Zn234 O237 2.031 . S
Zn234 O239 2.049 1_545 S
Zn234 O244 2.067 1_545 S
Zn235 O236 1.962 . S
Zn235 O238 1.986 . S
Zn235 O240 1.996 . S
Zn235 O243 1.943 1_545 S
O236 Zn235 1.962 . S
O236 C241 1.254 . S
O237 Zn234 2.031 . S
O237 C241 1.269 . S
O238 Zn235 1.986 . S
O238 C245 1.262 . S
O239 Zn234 2.049 1_565 S
O239 C247 1.260 1_565 S
O240 Zn235 1.996 . S
O240 C247 1.257 . S
C241 O236 1.254 . S
C241 O237 1.269 . S
C242 O243 1.249 . S
C242 O244 1.270 . S
O243 Zn235 1.943 1_565 S
O243 C242 1.249 . S
O244 Zn234 2.067 1_565 S
O244 C242 1.270 . S
C245 O238 1.262 . S
C245 O246 1.232 . S
O246 C245 1.232 . S
C247 O239 1.260 1_545 S
C247 O240 1.257 . S
Zn248 O251 2.031 . S
Zn248 O253 2.049 . S
Zn248 O258 2.067 . S
Zn249 O250 1.962 . S
Zn249 O252 1.986 . S
Zn249 O254 1.996 . S
Zn249 O257 1.943 . S
O250 Zn249 1.962 . S
O250 C255 1.254 . S
O251 Zn248 2.031 . S
O251 C255 1.269 . S
O252 Zn249 1.986 . S
O252 C259 1.262 . S
O253 Zn248 2.049 . S
O253 C261 1.260 . S
O254 Zn249 1.996 . S
O254 C261 1.257 . S
C255 O250 1.254 . S
C255 O251 1.269 . S
C256 O257 1.249 . S
C256 O258 1.270 . S
O257 Zn249 1.943 . S
O257 C256 1.249 . S
O258 Zn248 2.067 . S
O258 C256 1.270 . S
C259 O252 1.262 . S
C259 O260 1.232 . S
O260 C259 1.232 . S
C261 O253 1.260 . S
C261 O254 1.257 . S
Zn262 O265 2.031 . S
Zn262 O267 2.049 . S
Zn262 O272 2.067 . S
Zn263 O264 1.962 . S
Zn263 O266 1.986 . S
Zn263 O268 1.996 . S
Zn263 O271 1.943 . S
O264 Zn263 1.962 . S
O264 C269 1.254 . S
O265 Zn262 2.031 . S
O265 C269 1.269 . S
O266 Zn263 1.986 . S
O266 C273 1.262 . S
O267 Zn262 2.049 . S
O267 C275 1.260 . S
O268 Zn263 1.996 . S
O268 C275 1.257 . S
C269 O264 1.254 . S
C269 O265 1.269 . S
C270 O271 1.249 . S
C270 O272 1.270 . S
O271 Zn263 1.943 . S
O271 C270 1.249 . S
O272 Zn262 2.067 . S
O272 C270 1.270 . S
C273 O266 1.262 . S
C273 O274 1.232 . S
O274 C273 1.232 . S
C275 O267 1.260 . S
C275 O268 1.257 . S
Zn276 O279 2.031 . S
Zn276 O281 2.049 . S
Zn276 O286 2.067 . S
Zn277 O278 1.962 . S
Zn277 O280 1.986 . S
Zn277 O282 1.996 . S
Zn277 O285 1.943 . S
O278 Zn277 1.962 . S
O278 C283 1.254 . S
O279 Zn276 2.031 . S
O279 C283 1.269 . S
O280 Zn277 1.986 . S
O280 C287 1.262 . S
O281 Zn276 2.049 . S
O281 C289 1.260 . S
O282 Zn277 1.996 . S
O282 C289 1.257 . S
C283 O278 1.254 . S
C283 O279 1.269 . S
C284 O285 1.249 . S
C284 O286 1.270 . S
O285 Zn277 1.943 . S
O285 C284 1.249 . S
O286 Zn276 2.067 . S
O286 C284 1.270 . S
C287 O280 1.262 . S
C287 O288 1.232 . S
O288 C287 1.232 . S
C289 O281 1.260 . S
C289 O282 1.257 . S
Zn290 O293 2.031 . S
Zn290 O295 2.049 . S
Zn290 O300 2.067 . S
Zn291 O292 1.962 . S
Zn291 O294 1.986 . S
Zn291 O296 1.996 1_545 S
Zn291 O299 1.943 . S
O292 Zn291 1.962 . S
O292 C297 1.254 . S
O293 Zn290 2.031 . S
O293 C297 1.269 1_565 S
O294 Zn291 1.986 . S
O294 C301 1.262 . S
O295 Zn290 2.049 . S
O295 C303 1.260 . S
O296 Zn291 1.996 1_565 S
O296 C303 1.257 . S
C297 O292 1.254 . S
C297 O293 1.269 1_545 S
C298 O299 1.249 1_565 S
C298 O300 1.270 . S
O299 Zn291 1.943 . S
O299 C298 1.249 1_545 S
O300 Zn290 2.067 . S
O300 C298 1.270 . S
C301 O294 1.262 . S
C301 O302 1.232 . S
O302 C301 1.232 . S
C303 O295 1.260 . S
C303 O296 1.257 . S
Zn304 O307 2.031 . S
Zn304 O309 2.049 1_455 S
Zn304 O314 2.067 1_455 S
Zn305 O306 1.962 . S
Zn305 O308 1.986 . S
Zn305 O310 1.996 . S
Zn305 O313 1.943 1_455 S
O306 Zn305 1.962 . S
O306 C311 1.254 . S
O307 Zn304 2.031 . S
O307 C311 1.269 . S
O308 Zn305 1.986 . S
O308 C315 1.262 . S
O309 Zn304 2.049 1_655 S
O309 C317 1.260 . S
O310 Zn305 1.996 . S
O310 C317 1.257 1_455 S
C311 O306 1.254 . S
C311 O307 1.269 . S
C312 O313 1.249 . S
C312 O314 1.270 . S
O313 Zn305 1.943 1_655 S
O313 C312 1.249 . S
O314 Zn304 2.067 1_655 S
O314 C312 1.270 . S
C315 O308 1.262 . S
C315 O316 1.232 . S
O316 C315 1.232 . S
C317 O309 1.260 . S
C317 O310 1.257 1_655 S
Zn318 O321 2.031 . S
Zn318 O323 2.049 . S
Zn318 O328 2.067 . S
Zn319 O320 1.962 . S
Zn319 O322 1.986 . S
Zn319 O324 1.996 . S
Zn319 O327 1.943 . S
O320 Zn319 1.962 . S
O320 C325 1.254 . S
O321 Zn318 2.031 . S
O321 C325 1.269 . S
O322 Zn319 1.986 . S
O322 C329 1.262 . S
O323 Zn318 2.049 . S
O323 C331 1.260 . S
O324 Zn319 1.996 . S
O324 C331 1.257 . S
C325 O320 1.254 . S
C325 O321 1.269 . S
C326 O327 1.249 . S
C326 O328 1.270 . S
O327 Zn319 1.943 . S
O327 C326 1.249 . S
O328 Zn318 2.067 . S
O328 C326 1.270 . S
C329 O322 1.262 . S
C329 O330 1.232 . S
O330 C329 1.232 . S
C331 O323 1.260 . S
C331 O324 1.257 . S
Zn332 O335 2.031 1_655 S
Zn332 O337 2.049 . S
Zn332 O342 2.067 . S
Zn333 O334 1.962 . S
Zn333 O336 1.986 . S
Zn333 O338 1.996 1_455 S
Zn333 O341 1.943 . S
O334 Zn333 1.962 . S
O334 C339 1.254 . S
O335 Zn332 2.031 1_455 S
O335 C339 1.269 . S
O336 Zn333 1.986 . S
O336 C343 1.262 . S
O337 Zn332 2.049 . S
O337 C345 1.260 . S
O338 Zn333 1.996 1_655 S
O338 C345 1.257 . S
C339 O334 1.254 . S
C339 O335 1.269 . S
C340 O341 1.249 1_655 S
C340 O342 1.270 . S
O341 Zn333 1.943 . S
O341 C340 1.249 1_455 S
O342 Zn332 2.067 . S
O342 C340 1.270 . S
C343 O336 1.262 . S
C343 O344 1.232 . S
O344 C343 1.232 . S
C345 O337 1.260 . S
C345 O338 1.257 . S
Zn346 O349 2.031 . S
Zn346 O351 2.049 . S
Zn346 O356 2.067 . S
Zn347 O348 1.962 . S
Zn347 O350 1.986 . S
Zn347 O352 1.996 . S
Zn347 O355 1.943 . S
O348 Zn347 1.962 . S
O348 C353 1.254 . S
O349 Zn346 2.031 . S
O349 C353 1.269 . S
O350 Zn347 1.986 . S
O350 C357 1.262 . S
O351 Zn346 2.049 . S
O351 C359 1.260 . S
O352 Zn347 1.996 . S
O352 C359 1.257 . S
C353 O348 1.254 . S
C353 O349 1.269 . S
C354 O355 1.249 . S
C354 O356 1.270 . S
O355 Zn347 1.943 . S
O355 C354 1.249 . S
O356 Zn346 2.067 . S
O356 C354 1.270 . S
C357 O350 1.262 . S
C357 O358 1.232 . S
O358 C357 1.232 . S
C359 O351 1.260 . S
C359 O352 1.257 . S
C360 C361 1.369 . S
C360 C362 1.419 . S
C360 H364 0.930 . S
C361 C360 1.369 . S
C361 C370 1.429 . S
C362 C360 1.419 . S
C362 C363 1.363 . S
C362 H365 0.929 . S
C363 C362 1.363 . S
C363 C369 1.428 . S
H364 C360 0.930 . S
H365 C362 0.929 . S
S366 N367 1.613 . S
S366 N368 1.610 . S
N367 S366 1.613 . S
N367 C370 1.350 . S
N368 S366 1.610 . S
N368 C369 1.351 . S
C369 C363 1.428 . S
C369 N368 1.351 . S
C369 C370 1.434 . S
C370 C361 1.429 . S
C370 N367 1.350 . S
C370 C369 1.434 . S
C371 C372 1.369 . S
C371 C373 1.419 . S
C371 H375 0.930 . S
C372 C371 1.369 . S
C372 C381 1.429 . S
C373 C371 1.419 . S
C373 C374 1.363 . S
C373 H376 0.929 . S
C374 C373 1.363 . S
C374 C380 1.428 . S
H375 C371 0.930 . S
H376 C373 0.929 . S
S377 N378 1.613 . S
S377 N379 1.610 . S
N378 S377 1.613 . S
N378 C381 1.350 . S
N379 S377 1.610 . S
N379 C380 1.351 . S
C380 C374 1.428 . S
C380 N379 1.351 . S
C380 C381 1.434 . S
C381 C372 1.429 . S
C381 N378 1.350 . S
C381 C380 1.434 . S
C382 C383 1.369 . S
C382 C384 1.419 . S
C382 H386 0.930 . S
C383 C382 1.369 . S
C383 C392 1.429 . S
C384 C382 1.419 . S
C384 C385 1.363 . S
C384 H387 0.929 . S
C385 C384 1.363 . S
C385 C391 1.428 . S
H386 C382 0.930 . S
H387 C384 0.929 . S
S388 N389 1.613 . S
S388 N390 1.610 . S
N389 S388 1.613 . S
N389 C392 1.350 . S
N390 S388 1.610 . S
N390 C391 1.351 . S
C391 C385 1.428 . S
C391 N390 1.351 . S
C391 C392 1.434 . S
C392 C383 1.429 . S
C392 N389 1.350 . S
C392 C391 1.434 . S
C393 C394 1.369 . S
C393 C395 1.419 . S
C393 H397 0.930 . S
C394 C393 1.369 . S
C394 C403 1.429 1_565 S
C395 C393 1.419 . S
C395 C396 1.363 . S
C395 H398 0.929 . S
C396 C395 1.363 . S
C396 C402 1.428 1_565 S
H397 C393 0.930 . S
H398 C395 0.929 . S
S399 N400 1.613 . S
S399 N401 1.610 1_455 S
N400 S399 1.613 . S
N400 C403 1.350 . S
N401 S399 1.610 1_655 S
N401 C402 1.351 1_655 S
C402 C396 1.428 1_545 S
C402 N401 1.351 1_455 S
C402 C403 1.434 . S
C403 C394 1.429 1_545 S
C403 N400 1.350 . S
C403 C402 1.434 . S
C404 C405 1.369 . S
C404 C406 1.419 . S
C404 H408 0.930 . S
C405 C404 1.369 . S
C405 C414 1.429 . S
C406 C404 1.419 . S
C406 C407 1.363 . S
C406 H409 0.929 . S
C407 C406 1.363 . S
C407 C413 1.428 . S
H408 C404 0.930 . S
H409 C406 0.929 . S
S410 N411 1.613 . S
S410 N412 1.610 . S
N411 S410 1.613 . S
N411 C414 1.350 . S
N412 S410 1.610 . S
N412 C413 1.351 . S
C413 C407 1.428 . S
C413 N412 1.351 . S
C413 C414 1.434 . S
C414 C405 1.429 . S
C414 N411 1.350 . S
C414 C413 1.434 . S
C415 C416 1.369 . S
C415 C417 1.419 . S
C415 H419 0.930 . S
C416 C415 1.369 . S
C416 C425 1.429 . S
C417 C415 1.419 . S
C417 C418 1.363 . S
C417 H420 0.929 . S
C418 C417 1.363 . S
C418 C424 1.428 . S
H419 C415 0.930 . S
H420 C417 0.929 . S
S421 N422 1.613 . S
S421 N423 1.610 . S
N422 S421 1.613 . S
N422 C425 1.350 . S
N423 S421 1.610 . S
N423 C424 1.351 . S
C424 C418 1.428 . S
C424 N423 1.351 . S
C424 C425 1.434 . S
C425 C416 1.429 . S
C425 N422 1.350 . S
C425 C424 1.434 . S
C426 C427 1.369 . S
C426 C428 1.419 . S
C426 H430 0.930 . S
C427 C426 1.369 . S
C427 C436 1.429 . S
C428 C426 1.419 . S
C428 C429 1.363 . S
C428 H431 0.929 . S
C429 C428 1.363 . S
C429 C435 1.428 . S
H430 C426 0.930 . S
H431 C428 0.929 . S
S432 N433 1.613 . S
S432 N434 1.610 . S
N433 S432 1.613 . S
N433 C436 1.350 . S
N434 S432 1.610 . S
N434 C435 1.351 . S
C435 C429 1.428 . S
C435 N434 1.351 . S
C435 C436 1.434 . S
C436 C427 1.429 . S
C436 N433 1.350 . S
C436 C435 1.434 . S
C437 C438 1.369 . S
C437 C439 1.419 . S
C437 H441 0.930 . S
C438 C437 1.369 . S
C438 C447 1.429 . S
C439 C437 1.419 . S
C439 C440 1.363 . S
C439 H442 0.929 . S
C440 C439 1.363 . S
C440 C446 1.428 . S
H441 C437 0.930 . S
H442 C439 0.929 . S
S443 N444 1.613 . S
S443 N445 1.610 . S
N444 S443 1.613 . S
N444 C447 1.350 . S
N445 S443 1.610 . S
N445 C446 1.351 . S
C446 C440 1.428 . S
C446 N445 1.351 . S
C446 C447 1.434 . S
C447 C438 1.429 . S
C447 N444 1.350 . S
C447 C446 1.434 . S
C448 C449 1.369 . S
C448 C450 1.419 . S
C448 H452 0.930 . S
C449 C448 1.369 . S
C449 C458 1.429 . S
C450 C448 1.419 . S
C450 C451 1.363 . S
C450 H453 0.929 . S
C451 C450 1.363 . S
C451 C457 1.428 . S
H452 C448 0.930 . S
H453 C450 0.929 . S
S454 N455 1.613 . S
S454 N456 1.610 . S
N455 S454 1.613 . S
N455 C458 1.350 . S
N456 S454 1.610 . S
N456 C457 1.351 . S
C457 C451 1.428 . S
C457 N456 1.351 . S
C457 C458 1.434 . S
C458 C449 1.429 . S
C458 N455 1.350 . S
C458 C457 1.434 . S
C459 C460 1.369 . S
C459 C461 1.419 . S
C459 H463 0.930 . S
C460 C459 1.369 . S
C460 C469 1.429 . S
C461 C459 1.419 . S
C461 C462 1.363 . S
C461 H464 0.929 . S
C462 C461 1.363 . S
C462 C468 1.428 . S
H463 C459 0.930 . S
H464 C461 0.929 . S
S465 N466 1.613 . S
S465 N467 1.610 . S
N466 S465 1.613 . S
N466 C469 1.350 . S
N467 S465 1.610 . S
N467 C468 1.351 . S
C468 C462 1.428 . S
C468 N467 1.351 . S
C468 C469 1.434 . S
C469 C460 1.429 . S
C469 N466 1.350 . S
C469 C468 1.434 . S
C470 C471 1.369 . S
C470 C472 1.419 . S
C470 H474 0.930 . S
C471 C470 1.369 . S
C471 C480 1.429 . S
C472 C470 1.419 . S
C472 C473 1.363 . S
C472 H475 0.929 . S
C473 C472 1.363 . S
C473 C479 1.428 . S
H474 C470 0.930 . S
H475 C472 0.929 . S
S476 N477 1.613 . S
S476 N478 1.610 . S
N477 S476 1.613 . S
N477 C480 1.350 . S
N478 S476 1.610 . S
N478 C479 1.351 . S
C479 C473 1.428 . S
C479 N478 1.351 . S
C479 C480 1.434 . S
C480 C471 1.429 . S
C480 N477 1.350 . S
C480 C479 1.434 . S
C481 C482 1.369 . S
C481 C483 1.419 . S
C481 H485 0.930 . S
C482 C481 1.369 . S
C482 C491 1.429 . S
C483 C481 1.419 . S
C483 C484 1.363 . S
C483 H486 0.929 . S
C484 C483 1.363 . S
C484 C490 1.428 . S
H485 C481 0.930 . S
H486 C483 0.929 . S
S487 N488 1.613 . S
S487 N489 1.610 . S
N488 S487 1.613 . S
N488 C491 1.350 . S
N489 S487 1.610 . S
N489 C490 1.351 . S
C490 C484 1.428 . S
C490 N489 1.351 . S
C490 C491 1.434 . S
C491 C482 1.429 . S
C491 N488 1.350 . S
C491 C490 1.434 . S
C492 C493 1.369 . S
C492 C494 1.419 . S
C492 H496 0.930 . S
C493 C492 1.369 . S
C493 C502 1.429 . S
C494 C492 1.419 . S
C494 C495 1.363 . S
C494 H497 0.929 . S
C495 C494 1.363 . S
C495 C501 1.428 . S
H496 C492 0.930 . S
H497 C494 0.929 . S
S498 N499 1.613 . S
S498 N500 1.610 . S
N499 S498 1.613 . S
N499 C502 1.350 . S
N500 S498 1.610 . S
N500 C501 1.351 . S
C501 C495 1.428 . S
C501 N500 1.351 . S
C501 C502 1.434 . S
C502 C493 1.429 . S
C502 N499 1.350 . S
C502 C501 1.434 . S
C503 C504 1.369 . S
C503 C505 1.419 . S
C503 H507 0.930 . S
C504 C503 1.369 . S
C504 C513 1.429 . S
C505 C503 1.419 . S
C505 C506 1.363 . S
C505 H508 0.929 . S
C506 C505 1.363 . S
C506 C512 1.428 . S
H507 C503 0.930 . S
H508 C505 0.929 . S
S509 N510 1.613 . S
S509 N511 1.610 . S
N510 S509 1.613 . S
N510 C513 1.350 . S
N511 S509 1.610 . S
N511 C512 1.351 . S
C512 C506 1.428 . S
C512 N511 1.351 . S
C512 C513 1.434 . S
C513 C504 1.429 . S
C513 N510 1.350 . S
C513 C512 1.434 . S
C514 C515 1.369 . S
C514 C516 1.419 . S
C514 H518 0.930 . S
C515 C514 1.369 . S
C515 C524 1.429 . S
C516 C514 1.419 . S
C516 C517 1.363 . S
C516 H519 0.929 . S
C517 C516 1.363 . S
C517 C523 1.428 . S
H518 C514 0.930 . S
H519 C516 0.929 . S
S520 N521 1.613 . S
S520 N522 1.610 . S
N521 S520 1.613 . S
N521 C524 1.350 . S
N522 S520 1.610 . S
N522 C523 1.351 . S
C523 C517 1.428 . S
C523 N522 1.351 . S
C523 C524 1.434 . S
C524 C515 1.429 . S
C524 N521 1.350 . S
C524 C523 1.434 . S
C525 C526 1.369 . S
C525 C527 1.419 . S
C525 H529 0.930 . S
C526 C525 1.369 . S
C526 C535 1.429 1_655 S
C527 C525 1.419 . S
C527 C528 1.363 . S
C527 H530 0.929 . S
C528 C527 1.363 . S
C528 C534 1.428 1_655 S
H529 C525 0.930 . S
H530 C527 0.929 . S
S531 N532 1.613 . S
S531 N533 1.610 . S
N532 S531 1.613 . S
N532 C535 1.350 . S
N533 S531 1.610 . S
N533 C534 1.351 . S
C534 C528 1.428 1_455 S
C534 N533 1.351 . S
C534 C535 1.434 . S
C535 C526 1.429 1_455 S
C535 N532 1.350 . S
C535 C534 1.434 . S
C536 C537 1.369 . S
C536 C538 1.419 . S
C536 H540 0.930 . S
C537 C536 1.369 . S
C537 C546 1.429 . S
C538 C536 1.419 . S
C538 C539 1.363 . S
C538 H541 0.929 . S
C539 C538 1.363 . S
C539 C545 1.428 . S
H540 C536 0.930 . S
H541 C538 0.929 . S
S542 N543 1.613 . S
S542 N544 1.610 . S
N543 S542 1.613 . S
N543 C546 1.350 . S
N544 S542 1.610 . S
N544 C545 1.351 . S
C545 C539 1.428 . S
C545 N544 1.351 . S
C545 C546 1.434 . S
C546 C537 1.429 . S
C546 N543 1.350 . S
C546 C545 1.434 . S
C547 C548 1.369 . S
C547 C549 1.419 . S
C547 H551 0.930 . S
C548 C547 1.369 . S
C548 C557 1.429 . S
C549 C547 1.419 . S
C549 C550 1.363 . S
C549 H552 0.929 . S
C550 C549 1.363 . S
C550 C556 1.428 . S
H551 C547 0.930 . S
H552 C549 0.929 . S
S553 N554 1.613 . S
S553 N555 1.610 . S
N554 S553 1.613 . S
N554 C557 1.350 . S
N555 S553 1.610 . S
N555 C556 1.351 . S
C556 C550 1.428 . S
C556 N555 1.351 . S
C556 C557 1.434 . S
C557 C548 1.429 . S
C557 N554 1.350 . S
C557 C556 1.434 . S
C558 C559 1.369 1_565 S
C558 C560 1.407 1_556 S
C558 H562 0.930 . S
C559 C558 1.369 1_545 S
C559 C568 1.429 . S
C560 C558 1.407 1_554 S
C560 C561 1.362 1_554 S
C560 H563 0.942 . S
C561 C560 1.362 1_556 S
C561 C567 1.428 . S
H562 C558 0.930 . S
H563 C560 0.942 . S
S564 N565 1.613 . S
S564 N566 1.610 1_545 S
N565 S564 1.613 . S
N565 C568 1.350 . S
N566 S564 1.610 1_565 S
N566 C567 1.351 . S
C567 C561 1.428 . S
C567 N566 1.351 . S
C567 C568 1.434 1_565 S
C568 C559 1.429 . S
C568 N565 1.350 . S
C568 C567 1.434 1_545 S
C569 C570 1.369 . S
C569 C571 1.419 . S
C569 H573 0.930 . S
C570 C569 1.369 . S
C570 C579 1.429 . S
C571 C569 1.419 . S
C571 C572 1.363 . S
C571 H574 0.929 . S
C572 C571 1.363 . S
C572 C578 1.428 . S
H573 C569 0.930 . S
H574 C571 0.929 . S
S575 N576 1.613 . S
S575 N577 1.610 . S
N576 S575 1.613 . S
N576 C579 1.350 . S
N577 S575 1.610 . S
N577 C578 1.351 . S
C578 C572 1.428 . S
C578 N577 1.351 . S
C578 C579 1.434 . S
C579 C570 1.429 . S
C579 N576 1.350 . S
C579 C578 1.434 . S
C580 C581 1.369 . S
C580 C582 1.419 . S
C580 H584 0.930 . S
C581 C580 1.369 . S
C581 C590 1.429 . S
C582 C580 1.419 . S
C582 C583 1.363 . S
C582 H585 0.929 . S
C583 C582 1.363 . S
C583 C589 1.428 . S
H584 C580 0.930 . S
H585 C582 0.929 . S
S586 N587 1.613 . S
S586 N588 1.610 . S
N587 S586 1.613 . S
N587 C590 1.350 . S
N588 S586 1.610 . S
N588 C589 1.351 . S
C589 C583 1.428 . S
C589 N588 1.351 . S
C589 C590 1.434 . S
C590 C581 1.429 . S
C590 N587 1.350 . S
C590 C589 1.434 . S
C591 C592 1.369 . S
C591 C593 1.419 . S
C591 H595 0.930 . S
C592 C591 1.369 . S
C592 C601 1.429 . S
C593 C591 1.419 . S
C593 C594 1.363 . S
C593 H596 0.929 . S
C594 C593 1.363 . S
C594 C600 1.428 . S
H595 C591 0.930 . S
H596 C593 0.929 . S
S597 N598 1.613 . S
S597 N599 1.610 . S
N598 S597 1.613 . S
N598 C601 1.350 . S
N599 S597 1.610 . S
N599 C600 1.351 . S
C600 C594 1.428 . S
C600 N599 1.351 . S
C600 C601 1.434 . S
C601 C592 1.429 . S
C601 N598 1.350 . S
C601 C600 1.434 . S
C602 C603 1.369 . S
C602 C604 1.419 . S
C602 H606 0.930 . S
C603 C602 1.369 . S
C603 C612 1.429 . S
C604 C602 1.419 . S
C604 C605 1.363 . S
C604 H607 0.929 . S
C605 C604 1.363 . S
C605 C611 1.428 . S
H606 C602 0.930 . S
H607 C604 0.929 . S
S608 N609 1.613 . S
S608 N610 1.610 . S
N609 S608 1.613 . S
N609 C612 1.350 . S
N610 S608 1.610 . S
N610 C611 1.351 . S
C611 C605 1.428 . S
C611 N610 1.351 . S
C611 C612 1.434 . S
C612 C603 1.429 . S
C612 N609 1.350 . S
C612 C611 1.434 . S
C613 C614 1.369 . S
C613 C615 1.419 . S
C613 H617 0.930 . S
C614 C613 1.369 . S
C614 C623 1.429 . S
C615 C613 1.419 . S
C615 C616 1.363 . S
C615 H618 0.929 . S
C616 C615 1.363 . S
C616 C622 1.428 . S
H617 C613 0.930 . S
H618 C615 0.929 . S
S619 N620 1.613 . S
S619 N621 1.610 . S
N620 S619 1.613 . S
N620 C623 1.350 . S
N621 S619 1.610 . S
N621 C622 1.351 . S
C622 C616 1.428 . S
C622 N621 1.351 . S
C622 C623 1.434 . S
C623 C614 1.429 . S
C623 N620 1.350 . S
C623 C622 1.434 . S
C624 C625 1.369 . S
C624 C626 1.419 . S
C624 H628 0.930 . S
C625 C624 1.369 . S
C625 C634 1.429 . S
C626 C624 1.419 . S
C626 C627 1.363 . S
C626 H629 0.929 . S
C627 C626 1.363 . S
C627 C633 1.428 . S
H628 C624 0.930 . S
H629 C626 0.929 . S
S630 N631 1.613 . S
S630 N632 1.610 . S
N631 S630 1.613 . S
N631 C634 1.350 . S
N632 S630 1.610 . S
N632 C633 1.351 . S
C633 C627 1.428 . S
C633 N632 1.351 . S
C633 C634 1.434 . S
C634 C625 1.429 . S
C634 N631 1.350 . S
C634 C633 1.434 . S
C635 C636 1.369 . S
C635 C637 1.419 . S
C635 H639 0.930 . S
C636 C635 1.369 . S
C636 C645 1.429 . S
C637 C635 1.419 . S
C637 C638 1.363 . S
C637 H640 0.929 . S
C638 C637 1.363 . S
C638 C644 1.428 . S
H639 C635 0.930 . S
H640 C637 0.929 . S
S641 N642 1.613 . S
S641 N643 1.610 . S
N642 S641 1.613 . S
N642 C645 1.350 . S
N643 S641 1.610 . S
N643 C644 1.351 . S
C644 C638 1.428 . S
C644 N643 1.351 . S
C644 C645 1.434 . S
C645 C636 1.429 . S
C645 N642 1.350 . S
C645 C644 1.434 . S
C646 C647 1.369 . S
C646 C648 1.419 . S
C646 H650 0.930 . S
C647 C646 1.369 . S
C647 C656 1.429 . S
C648 C646 1.419 . S
C648 C649 1.363 . S
C648 H651 0.929 . S
C649 C648 1.363 . S
C649 C655 1.428 . S
H650 C646 0.930 . S
H651 C648 0.929 . S
S652 N653 1.613 . S
S652 N654 1.610 . S
N653 S652 1.613 . S
N653 C656 1.350 . S
N654 S652 1.610 . S
N654 C655 1.351 . S
C655 C649 1.428 . S
C655 N654 1.351 . S
C655 C656 1.434 . S
C656 C647 1.429 . S
C656 N653 1.350 . S
C656 C655 1.434 . S
C657 C658 1.369 . S
C657 C659 1.419 . S
C657 H661 0.930 . S
C658 C657 1.369 . S
C658 C667 1.429 . S
C659 C657 1.419 . S
C659 C660 1.363 . S
C659 H662 0.929 . S
C660 C659 1.363 . S
C660 C666 1.428 . S
H661 C657 0.930 . S
H662 C659 0.929 . S
S663 N664 1.613 . S
S663 N665 1.610 . S
N664 S663 1.613 . S
N664 C667 1.350 . S
N665 S663 1.610 . S
N665 C666 1.351 . S
C666 C660 1.428 . S
C666 N665 1.351 . S
C666 C667 1.434 . S
C667 C658 1.429 . S
C667 N664 1.350 . S
C667 C666 1.434 . S
C668 C669 1.369 . S
C668 C670 1.419 . S
C668 H672 0.930 . S
C669 C668 1.369 . S
C669 C678 1.429 . S
C670 C668 1.419 . S
C670 C671 1.363 . S
C670 H673 0.929 . S
C671 C670 1.363 . S
C671 C677 1.428 . S
H672 C668 0.930 . S
H673 C670 0.929 . S
S674 N675 1.613 . S
S674 N676 1.610 . S
N675 S674 1.613 . S
N675 C678 1.350 . S
N676 S674 1.610 . S
N676 C677 1.351 . S
C677 C671 1.428 . S
C677 N676 1.351 . S
C677 C678 1.434 . S
C678 C669 1.429 . S
C678 N675 1.350 . S
C678 C677 1.434 . S
C679 C680 1.369 . S
C679 C681 1.419 1_455 S
C679 H683 0.930 1_455 S
C680 C679 1.369 . S
C680 C689 1.429 . S
C681 C679 1.419 1_655 S
C681 C682 1.367 . S
C681 H684 0.929 . S
C682 C681 1.367 . S
C682 C688 1.419 1_655 S
H683 C679 0.930 1_655 S
H684 C681 0.929 . S
S685 N686 1.613 . S
S685 N687 1.610 . S
N686 S685 1.613 . S
N686 C689 1.350 1_565 S
N687 S685 1.610 . S
N687 C688 1.351 1_565 S
C688 C682 1.419 1_455 S
C688 N687 1.351 1_545 S
C688 C689 1.434 . S
C689 C680 1.429 . S
C689 N686 1.350 1_545 S
C689 C688 1.434 . S
C690 C691 1.369 . S
C690 C692 1.419 . S
C690 H694 0.930 . S
C691 C690 1.369 . S
C691 C700 1.429 . S
C692 C690 1.419 . S
C692 C693 1.363 . S
C692 H695 0.929 . S
C693 C692 1.363 . S
C693 C699 1.428 . S
H694 C690 0.930 . S
H695 C692 0.929 . S
S696 N697 1.613 . S
S696 N698 1.610 . S
N697 S696 1.613 . S
N697 C700 1.350 . S
N698 S696 1.610 . S
N698 C699 1.351 . S
C699 C693 1.428 . S
C699 N698 1.351 . S
C699 C700 1.434 . S
C700 C691 1.429 . S
C700 N697 1.350 . S
C700 C699 1.434 . S
C701 C702 1.369 . S
C701 C703 1.419 . S
C701 H705 0.930 . S
C702 C701 1.369 . S
C702 C711 1.429 . S
C703 C701 1.419 . S
C703 C704 1.363 . S
C703 H706 0.929 . S
C704 C703 1.363 . S
C704 C710 1.428 . S
H705 C701 0.930 . S
H706 C703 0.929 . S
S707 N708 1.613 . S
S707 N709 1.610 1_655 S
N708 S707 1.613 . S
N708 C711 1.350 1_655 S
N709 S707 1.610 1_455 S
N709 C710 1.351 . S
C710 C704 1.428 . S
C710 N709 1.351 . S
C710 C711 1.434 . S
C711 C702 1.429 . S
C711 N708 1.350 1_455 S
C711 C710 1.434 . S
C712 C713 1.369 . S
C712 C714 1.419 . S
C712 H716 0.930 . S
C713 C712 1.369 . S
C713 C722 1.429 . S
C714 C712 1.419 . S
C714 C715 1.363 . S
C714 H717 0.929 . S
C715 C714 1.363 . S
C715 C721 1.428 . S
H716 C712 0.930 . S
H717 C714 0.929 . S
S718 N719 1.613 . S
S718 N720 1.610 . S
N719 S718 1.613 . S
N719 C722 1.350 . S
N720 S718 1.610 . S
N720 C721 1.351 . S
C721 C715 1.428 . S
C721 N720 1.351 . S
C721 C722 1.434 . S
C722 C713 1.429 . S
C722 N719 1.350 . S
C722 C721 1.434 . S
C723 C724 1.369 . S
C723 C725 1.419 . S
C723 H727 0.930 . S
C724 C723 1.369 . S
C724 C733 1.429 1_655 S
C725 C723 1.419 . S
C725 C726 1.363 . S
C725 H728 0.929 . S
C726 C725 1.363 . S
C726 C732 1.428 1_655 S
H727 C723 0.930 . S
H728 C725 0.929 . S
S729 N730 1.613 . S
S729 N731 1.610 . S
N730 S729 1.613 . S
N730 C733 1.350 . S
N731 S729 1.610 . S
N731 C732 1.351 . S
C732 C726 1.428 1_455 S
C732 N731 1.351 . S
C732 C733 1.434 . S
C733 C724 1.429 1_455 S
C733 N730 1.350 . S
C733 C732 1.434 . S
C734 C735 1.369 . S
C734 C736 1.419 . S
C734 H738 0.930 . S
C735 C734 1.369 . S
C735 C744 1.429 . S
C736 C734 1.419 . S
C736 C737 1.363 . S
C736 H739 0.929 . S
C737 C736 1.363 . S
C737 C743 1.428 . S
H738 C734 0.930 . S
H739 C736 0.929 . S
S740 N741 1.613 . S
S740 N742 1.610 . S
N741 S740 1.613 . S
N741 C744 1.350 . S
N742 S740 1.610 . S
N742 C743 1.351 . S
C743 C737 1.428 . S
C743 N742 1.351 . S
C743 C744 1.434 . S
C744 C735 1.429 . S
C744 N741 1.350 . S
C744 C743 1.434 . S
C745 C746 1.369 . S
C745 C747 1.419 . S
C745 H749 0.930 . S
C746 C745 1.369 . S
C746 C755 1.429 . S
C747 C745 1.419 . S
C747 C748 1.363 . S
C747 H750 0.929 . S
C748 C747 1.363 . S
C748 C754 1.428 . S
H749 C745 0.930 . S
H750 C747 0.929 . S
S751 N752 1.613 1_655 S
S751 N753 1.609 1_655 S
N752 S751 1.613 1_455 S
N752 C755 1.350 . S
N753 S751 1.609 1_455 S
N753 C754 1.356 . S
C754 C748 1.428 . S
C754 N753 1.356 . S
C754 C755 1.434 . S
C755 C746 1.429 . S
C755 N752 1.350 . S
C755 C754 1.434 . S
C756 C757 1.369 . S
C756 C758 1.419 . S
C756 H760 0.930 . S
C757 C756 1.369 . S
C757 C766 1.429 . S
C758 C756 1.419 . S
C758 C759 1.363 . S
C758 H761 0.929 . S
C759 C758 1.363 . S
C759 C765 1.428 . S
H760 C756 0.930 . S
H761 C758 0.929 . S
S762 N763 1.613 . S
S762 N764 1.610 . S
N763 S762 1.613 . S
N763 C766 1.350 . S
N764 S762 1.610 . S
N764 C765 1.351 . S
C765 C759 1.428 . S
C765 N764 1.351 . S
C765 C766 1.434 . S
C766 C757 1.429 . S
C766 N763 1.350 . S
C766 C765 1.434 . S
C767 C768 1.369 . S
C767 C769 1.419 . S
C767 H771 0.930 . S
C768 C767 1.369 . S
C768 C777 1.429 . S
C769 C767 1.419 . S
C769 C770 1.363 . S
C769 H772 0.929 . S
C770 C769 1.363 . S
C770 C776 1.428 . S
H771 C767 0.930 . S
H772 C769 0.929 . S
S773 N774 1.613 . S
S773 N775 1.610 . S
N774 S773 1.613 . S
N774 C777 1.350 . S
N775 S773 1.610 . S
N775 C776 1.351 . S
C776 C770 1.428 . S
C776 N775 1.351 . S
C776 C777 1.434 . S
C777 C768 1.429 . S
C777 N774 1.350 . S
C777 C776 1.434 . S
C778 C779 1.369 . S
C778 C780 1.419 . S
C778 H782 0.930 . S
C779 C778 1.369 . S
C779 C788 1.429 . S
C780 C778 1.419 . S
C780 C781 1.363 . S
C780 H783 0.929 . S
C781 C780 1.363 . S
C781 C787 1.428 . S
H782 C778 0.930 . S
H783 C780 0.929 . S
S784 N785 1.613 . S
S784 N786 1.610 . S
N785 S784 1.613 . S
N785 C788 1.350 . S
N786 S784 1.610 . S
N786 C787 1.351 . S
C787 C781 1.428 . S
C787 N786 1.351 . S
C787 C788 1.434 . S
C788 C779 1.429 . S
C788 N785 1.350 . S
C788 C787 1.434 . S
C789 C790 1.369 . S
C789 C791 1.419 . S
C789 H793 0.930 . S
C790 C789 1.369 . S
C790 C799 1.429 . S
C791 C789 1.419 . S
C791 C792 1.363 . S
C791 H794 0.929 . S
C792 C791 1.363 . S
C792 C798 1.428 . S
H793 C789 0.930 . S
H794 C791 0.929 . S
S795 N796 1.613 1_554 S
S795 N797 1.610 . S
N796 S795 1.613 1_556 S
N796 C799 1.350 1_556 S
N797 S795 1.610 . S
N797 C798 1.351 . S
C798 C792 1.428 . S
C798 N797 1.351 . S
C798 C799 1.434 . S
C799 C790 1.429 . S
C799 N796 1.350 1_554 S
C799 C798 1.434 . S
C800 C801 1.369 . S
C800 C802 1.419 . S
C800 H804 0.930 . S
C801 C800 1.369 . S
C801 C810 1.429 . S
C802 C800 1.419 . S
C802 C803 1.363 . S
C802 H805 0.929 . S
C803 C802 1.363 . S
C803 C809 1.428 . S
H804 C800 0.930 . S
H805 C802 0.929 . S
S806 N807 1.613 . S
S806 N808 1.610 . S
N807 S806 1.613 . S
N807 C810 1.350 . S
N808 S806 1.610 . S
N808 C809 1.351 . S
C809 C803 1.428 . S
C809 N808 1.351 . S
C809 C810 1.434 . S
C810 C801 1.429 . S
C810 N807 1.350 . S
C810 C809 1.434 . S
C811 C812 1.369 . S
C811 C813 1.419 . S
C811 H815 0.930 . S
C812 C811 1.369 . S
C812 C821 1.429 . S
C813 C811 1.419 . S
C813 C814 1.363 . S
C813 H816 0.929 . S
C814 C813 1.363 . S
C814 C820 1.428 . S
H815 C811 0.930 . S
H816 C813 0.929 . S
S817 N818 1.613 . S
S817 N819 1.610 . S
N818 S817 1.613 . S
N818 C821 1.350 . S
N819 S817 1.610 . S
N819 C820 1.351 . S
C820 C814 1.428 . S
C820 N819 1.351 . S
C820 C821 1.434 . S
C821 C812 1.429 . S
C821 N818 1.350 . S
C821 C820 1.434 . S
C822 C823 1.369 . S
C822 C824 1.419 . S
C822 H826 0.930 . S
C823 C822 1.369 . S
C823 C832 1.429 . S
C824 C822 1.419 . S
C824 C825 1.363 . S
C824 H827 0.929 . S
C825 C824 1.363 . S
C825 C831 1.428 . S
H826 C822 0.930 . S
H827 C824 0.929 . S
S828 N829 1.613 . S
S828 N830 1.610 . S
N829 S828 1.613 . S
N829 C832 1.350 . S
N830 S828 1.610 . S
N830 C831 1.351 . S
C831 C825 1.428 . S
C831 N830 1.351 . S
C831 C832 1.434 . S
C832 C823 1.429 . S
C832 N829 1.350 . S
C832 C831 1.434 . S
C833 C834 1.369 . S
C833 C835 1.419 . S
C833 H837 0.930 . S
C834 C833 1.369 . S
C834 C843 1.429 . S
C835 C833 1.419 . S
C835 C836 1.363 . S
C835 H838 0.929 . S
C836 C835 1.363 . S
C836 C842 1.428 . S
H837 C833 0.930 . S
H838 C835 0.929 . S
S839 N840 1.613 . S
S839 N841 1.610 . S
N840 S839 1.613 . S
N840 C843 1.350 . S
N841 S839 1.610 . S
N841 C842 1.351 . S
C842 C836 1.428 . S
C842 N841 1.351 . S
C842 C843 1.434 . S
C843 C834 1.429 . S
C843 N840 1.350 . S
C843 C842 1.434 . S
C844 C845 1.369 . S
C844 C846 1.419 . S
C844 H848 0.930 1_556 S
C845 C844 1.369 . S
C845 C854 1.429 . S
C846 C844 1.419 . S
C846 C847 1.363 . S
C846 H849 0.929 1_556 S
C847 C846 1.363 . S
C847 C853 1.428 . S
H848 C844 0.930 1_554 S
H849 C846 0.929 1_554 S
S850 N851 1.613 . S
S850 N852 1.610 . S
N851 S850 1.613 . S
N851 C854 1.350 . S
N852 S850 1.610 . S
N852 C853 1.351 . S
C853 C847 1.428 . S
C853 N852 1.351 . S
C853 C854 1.434 . S
C854 C845 1.429 . S
C854 N851 1.350 . S
C854 C853 1.434 . S
C855 C856 1.369 . S
C855 C857 1.419 . S
C855 H859 0.930 . S
C856 C855 1.369 . S
C856 C865 1.429 . S
C857 C855 1.419 . S
C857 C858 1.363 . S
C857 H860 0.929 . S
C858 C857 1.363 . S
C858 C864 1.428 . S
H859 C855 0.930 . S
H860 C857 0.929 . S
S861 N862 1.613 . S
S861 N863 1.610 . S
N862 S861 1.613 . S
N862 C865 1.350 . S
N863 S861 1.610 . S
N863 C864 1.351 . S
C864 C858 1.428 . S
C864 N863 1.351 . S
C864 C865 1.434 . S
C865 C856 1.429 . S
C865 N862 1.350 . S
C865 C864 1.434 . S
C866 C867 1.369 . S
C866 C868 1.419 . S
C866 H870 0.930 . S
C867 C866 1.369 . S
C867 C876 1.429 . S
C868 C866 1.419 . S
C868 C869 1.363 . S
C868 H871 0.929 . S
C869 C868 1.363 . S
C869 C875 1.428 . S
H870 C866 0.930 . S
H871 C868 0.929 . S
S872 N873 1.613 . S
S872 N874 1.610 . S
N873 S872 1.613 . S
N873 C876 1.350 . S
N874 S872 1.610 . S
N874 C875 1.351 . S
C875 C869 1.428 . S
C875 N874 1.351 . S
C875 C876 1.434 . S
C876 C867 1.429 . S
C876 N873 1.350 . S
C876 C875 1.434 . S
C877 C878 1.369 . S
C877 C879 1.419 . S
C877 H881 0.930 1_565 S
C878 C877 1.369 . S
C878 C887 1.429 . S
C879 C877 1.419 . S
C879 C880 1.363 . S
C879 H882 0.929 1_554 S
C880 C879 1.363 . S
C880 C886 1.428 . S
H881 C877 0.930 1_545 S
H882 C879 0.929 1_556 S
S883 N884 1.613 . S
S883 N885 1.610 . S
N884 S883 1.613 . S
N884 C887 1.350 . S
N885 S883 1.610 . S
N885 C886 1.351 . S
C886 C880 1.428 . S
C886 N885 1.351 . S
C886 C887 1.434 . S
C887 C878 1.429 . S
C887 N884 1.350 . S
C887 C886 1.434 . S
C363 C200 1.688 . S
C361 C66 1.745 . S
C374 C213 1.236 . S
C372 C76 1.238 . S
C383 C93 1.890 . S
C385 C233 1.724 . S
C396 C247 1.319 1_465 S
C394 C54 1.433 . S
C407 C259 1.524 . S
C405 C126 1.539 . S
C418 C273 1.724 . S
C416 C150 1.731 . S
C427 C136 1.219 . S
C429 C283 1.221 . S
C440 C298 1.785 . S
C438 C117 1.794 . S
C449 C141 1.323 . S
C451 C312 1.296 . S
C462 C331 1.286 . S
C460 C112 1.335 . S
C471 C124 1.525 . S
C473 C311 1.506 . S
C484 C329 1.313 . S
C482 C148 1.307 . S
C493 C88 1.474 . S
C495 C345 1.406 . S
C504 C52 1.577 . S
C506 C339 1.576 . S
C515 C64 1.333 . S
C517 C343 1.333 . S
C526 C78 1.299 . S
C528 C340 1.271 . S
C537 C45 1.687 . S
C539 C242 1.671 . S
C548 C177 1.774 . S
C550 C241 1.748 . S
C561 C205 1.343 1_556 S
C559 C189 1.377 . S
C572 C219 1.590 . S
C570 C102 1.716 . S
C581 C57 1.688 1_545 S
C583 C256 1.673 . S
C594 C301 1.500 . S
C592 C138 1.501 . S
C605 C255 1.723 . S
C603 C114 1.729 . S
C616 C287 1.634 . S
C614 C153 1.638 . S
C627 C284 1.684 . S
C625 C174 1.747 . S
C636 C184 1.236 . S
C638 C297 1.234 . S
C647 C105 1.890 . S
C649 C261 1.725 . S
C660 C275 1.327 . S
C658 C162 1.434 . S
C669 C42 1.540 . S
C671 C231 1.521 . S
C682 C245 1.732 . S
C680 C6 1.731 . S
C693 C199 1.224 . S
C691 C16 1.218 . S
C704 C214 1.786 . S
C702 C33 1.795 1_455 S
C713 C21 1.325 . S
C715 C326 1.292 . S
C724 C28 1.331 1_556 S
C726 C317 1.282 . S
C735 C40 1.527 . S
C737 C325 1.503 . S
C746 C4 1.305 . S
C748 C315 1.313 . S
C759 C359 1.411 . S
C757 C100 1.470 . S
C770 C353 1.576 . S
C768 C160 1.576 . S
C781 C357 1.334 . S
C779 C172 1.336 . S
C790 C186 1.300 1_554 S
C792 C354 1.265 . S
C801 C129 1.687 . S
C803 C270 1.670 . S
C814 C269 1.745 . S
C812 C69 1.774 . S
C825 C289 1.340 . S
C823 C81 1.373 . S
C836 C303 1.585 . S
C834 C90 1.718 . S
C845 C165 1.689 . S
C847 C228 1.673 . S
C858 C217 1.500 . S
C856 C18 1.501 . S
C867 C30 1.730 . S
C869 C227 1.723 . S
C880 C203 1.632 . S
C878 C9 1.638 1_565 S
