# Generated by pormake.
# Topology ptr, (4,4)-cn, num edge types: 1
# Building blocks:
#     Node 0, Type 0, BuildingBlock: UXUYUI_clean_sbu_0, # of connection points: 4
#     Node 1, Type 0, BuildingBlock: UXUYUI_clean_sbu_0, # of connection points: 4
#     Node 2, Type 0, BuildingBlock: UXUYUI_clean_sbu_0, # of connection points: 4
#     Node 3, Type 0, BuildingBlock: UXUYUI_clean_sbu_0, # of connection points: 4
#     Node 4, Type 0, BuildingBlock: UXUYUI_clean_sbu_0, # of connection points: 4
#     Node 5, Type 0, BuildingBlock: UXUYUI_clean_sbu_0, # of connection points: 4
#     Node 6, Type 0, BuildingBlock: UXUYUI_clean_sbu_0, # of connection points: 4
#     Node 7, Type 0, BuildingBlock: UXUYUI_clean_sbu_0, # of connection points: 4
#     Node 8, Type 0, BuildingBlock: UXUYUI_clean_sbu_0, # of connection points: 4
#     Node 9, Type 0, BuildingBlock: UXUYUI_clean_sbu_0, # of connection points: 4
#     Node 10, Type 0, BuildingBlock: UXUYUI_clean_sbu_0, # of connection points: 4
#     Node 11, Type 0, BuildingBlock: UXUYUI_clean_sbu_0, # of connection points: 4
#     Node 12, Type 0, BuildingBlock: UXUYUI_clean_sbu_0, # of connection points: 4
#     Node 13, Type 0, BuildingBlock: UXUYUI_clean_sbu_0, # of connection points: 4
#     Node 14, Type 0, BuildingBlock: UXUYUI_clean_sbu_0, # of connection points: 4
#     Node 15, Type 0, BuildingBlock: UXUYUI_clean_sbu_0, # of connection points: 4
#     Node 16, Type 0, BuildingBlock: UXUYUI_clean_sbu_0, # of connection points: 4
#     Node 17, Type 0, BuildingBlock: UXUYUI_clean_sbu_0, # of connection points: 4
#     Node 18, Type 1, BuildingBlock: AZAVOO_clean_linker_0, # of connection points: 4
#     Node 19, Type 1, BuildingBlock: AZAVOO_clean_linker_0, # of connection points: 4
#     Node 20, Type 1, BuildingBlock: AZAVOO_clean_linker_0, # of connection points: 4
#     Node 21, Type 1, BuildingBlock: AZAVOO_clean_linker_0, # of connection points: 4
#     Node 22, Type 1, BuildingBlock: AZAVOO_clean_linker_0, # of connection points: 4
#     Node 23, Type 1, BuildingBlock: AZAVOO_clean_linker_0, # of connection points: 4
#     Node 24, Type 1, BuildingBlock: AZAVOO_clean_linker_0, # of connection points: 4
#     Node 25, Type 1, BuildingBlock: AZAVOO_clean_linker_0, # of connection points: 4
#     Node 26, Type 1, BuildingBlock: AZAVOO_clean_linker_0, # of connection points: 4
#     Node 27, Type 1, BuildingBlock: AZAVOO_clean_linker_0, # of connection points: 4
#     Node 28, Type 1, BuildingBlock: AZAVOO_clean_linker_0, # of connection points: 4
#     Node 29, Type 1, BuildingBlock: AZAVOO_clean_linker_0, # of connection points: 4
#     Node 30, Type 1, BuildingBlock: AZAVOO_clean_linker_0, # of connection points: 4
#     Node 31, Type 1, BuildingBlock: AZAVOO_clean_linker_0, # of connection points: 4
#     Node 32, Type 1, BuildingBlock: AZAVOO_clean_linker_0, # of connection points: 4
#     Node 33, Type 1, BuildingBlock: AZAVOO_clean_linker_0, # of connection points: 4
#     Node 34, Type 1, BuildingBlock: AZAVOO_clean_linker_0, # of connection points: 4
#     Node 35, Type 1, BuildingBlock: AZAVOO_clean_linker_0, # of connection points: 4
#     Edge 36, Type (0, 1), BuildingBlock: UVAHIK_clean_linker_0, # of connection points: 2
#     Edge 37, Type (0, 1), BuildingBlock: UVAHIK_clean_linker_0, # of connection points: 2
#     Edge 38, Type (0, 1), BuildingBlock: UVAHIK_clean_linker_0, # of connection points: 2
#     Edge 39, Type (0, 1), BuildingBlock: UVAHIK_clean_linker_0, # of connection points: 2
#     Edge 40, Type (0, 1), BuildingBlock: UVAHIK_clean_linker_0, # of connection points: 2
#     Edge 41, Type (0, 1), BuildingBlock: UVAHIK_clean_linker_0, # of connection points: 2
#     Edge 42, Type (0, 1), BuildingBlock: UVAHIK_clean_linker_0, # of connection points: 2
#     Edge 43, Type (0, 1), BuildingBlock: UVAHIK_clean_linker_0, # of connection points: 2
#     Edge 44, Type (0, 1), BuildingBlock: UVAHIK_clean_linker_0, # of connection points: 2
#     Edge 45, Type (0, 1), BuildingBlock: UVAHIK_clean_linker_0, # of connection points: 2
#     Edge 46, Type (0, 1), BuildingBlock: UVAHIK_clean_linker_0, # of connection points: 2
#     Edge 47, Type (0, 1), BuildingBlock: UVAHIK_clean_linker_0, # of connection points: 2
#     Edge 48, Type (0, 1), BuildingBlock: UVAHIK_clean_linker_0, # of connection points: 2
#     Edge 49, Type (0, 1), BuildingBlock: UVAHIK_clean_linker_0, # of connection points: 2
#     Edge 50, Type (0, 1), BuildingBlock: UVAHIK_clean_linker_0, # of connection points: 2
#     Edge 51, Type (0, 1), BuildingBlock: UVAHIK_clean_linker_0, # of connection points: 2
#     Edge 52, Type (0, 1), BuildingBlock: UVAHIK_clean_linker_0, # of connection points: 2
#     Edge 53, Type (0, 1), BuildingBlock: UVAHIK_clean_linker_0, # of connection points: 2
#     Edge 54, Type (0, 1), BuildingBlock: UVAHIK_clean_linker_0, # of connection points: 2
#     Edge 55, Type (0, 1), BuildingBlock: UVAHIK_clean_linker_0, # of connection points: 2
#     Edge 56, Type (0, 1), BuildingBlock: UVAHIK_clean_linker_0, # of connection points: 2
#     Edge 57, Type (0, 1), BuildingBlock: UVAHIK_clean_linker_0, # of connection points: 2
#     Edge 58, Type (0, 1), BuildingBlock: UVAHIK_clean_linker_0, # of connection points: 2
#     Edge 59, Type (0, 1), BuildingBlock: UVAHIK_clean_linker_0, # of connection points: 2
#     Edge 60, Type (0, 1), BuildingBlock: UVAHIK_clean_linker_0, # of connection points: 2
#     Edge 61, Type (0, 1), BuildingBlock: UVAHIK_clean_linker_0, # of connection points: 2
#     Edge 62, Type (0, 1), BuildingBlock: UVAHIK_clean_linker_0, # of connection points: 2
#     Edge 63, Type (0, 1), BuildingBlock: UVAHIK_clean_linker_0, # of connection points: 2
#     Edge 64, Type (0, 1), BuildingBlock: UVAHIK_clean_linker_0, # of connection points: 2
#     Edge 65, Type (0, 1), BuildingBlock: UVAHIK_clean_linker_0, # of connection points: 2
#     Edge 66, Type (0, 1), BuildingBlock: UVAHIK_clean_linker_0, # of connection points: 2
#     Edge 67, Type (0, 1), BuildingBlock: UVAHIK_clean_linker_0, # of connection points: 2
#     Edge 68, Type (0, 1), BuildingBlock: UVAHIK_clean_linker_0, # of connection points: 2
#     Edge 69, Type (0, 1), BuildingBlock: UVAHIK_clean_linker_0, # of connection points: 2
#     Edge 70, Type (0, 1), BuildingBlock: UVAHIK_clean_linker_0, # of connection points: 2
#     Edge 71, Type (0, 1), BuildingBlock: UVAHIK_clean_linker_0, # of connection points: 2
#     Edge 72, Type (0, 1), BuildingBlock: UVAHIK_clean_linker_0, # of connection points: 2
#     Edge 73, Type (0, 1), BuildingBlock: UVAHIK_clean_linker_0, # of connection points: 2
#     Edge 74, Type (0, 1), BuildingBlock: UVAHIK_clean_linker_0, # of connection points: 2
#     Edge 75, Type (0, 1), BuildingBlock: UVAHIK_clean_linker_0, # of connection points: 2
#     Edge 76, Type (0, 1), BuildingBlock: UVAHIK_clean_linker_0, # of connection points: 2
#     Edge 77, Type (0, 1), BuildingBlock: UVAHIK_clean_linker_0, # of connection points: 2
#     Edge 78, Type (0, 1), BuildingBlock: UVAHIK_clean_linker_0, # of connection points: 2
#     Edge 79, Type (0, 1), BuildingBlock: UVAHIK_clean_linker_0, # of connection points: 2
#     Edge 80, Type (0, 1), BuildingBlock: UVAHIK_clean_linker_0, # of connection points: 2
#     Edge 81, Type (0, 1), BuildingBlock: UVAHIK_clean_linker_0, # of connection points: 2
#     Edge 82, Type (0, 1), BuildingBlock: UVAHIK_clean_linker_0, # of connection points: 2
#     Edge 83, Type (0, 1), BuildingBlock: UVAHIK_clean_linker_0, # of connection points: 2
#     Edge 84, Type (0, 1), BuildingBlock: UVAHIK_clean_linker_0, # of connection points: 2
#     Edge 85, Type (0, 1), BuildingBlock: UVAHIK_clean_linker_0, # of connection points: 2
#     Edge 86, Type (0, 1), BuildingBlock: UVAHIK_clean_linker_0, # of connection points: 2
#     Edge 87, Type (0, 1), BuildingBlock: UVAHIK_clean_linker_0, # of connection points: 2
#     Edge 88, Type (0, 1), BuildingBlock: UVAHIK_clean_linker_0, # of connection points: 2
#     Edge 89, Type (0, 1), BuildingBlock: UVAHIK_clean_linker_0, # of connection points: 2
#     Edge 90, Type (0, 1), BuildingBlock: UVAHIK_clean_linker_0, # of connection points: 2
#     Edge 91, Type (0, 1), BuildingBlock: UVAHIK_clean_linker_0, # of connection points: 2
#     Edge 92, Type (0, 1), BuildingBlock: UVAHIK_clean_linker_0, # of connection points: 2
#     Edge 93, Type (0, 1), BuildingBlock: UVAHIK_clean_linker_0, # of connection points: 2
#     Edge 94, Type (0, 1), BuildingBlock: UVAHIK_clean_linker_0, # of connection points: 2
#     Edge 95, Type (0, 1), BuildingBlock: UVAHIK_clean_linker_0, # of connection points: 2
#     Edge 96, Type (0, 1), BuildingBlock: UVAHIK_clean_linker_0, # of connection points: 2
#     Edge 97, Type (0, 1), BuildingBlock: UVAHIK_clean_linker_0, # of connection points: 2
#     Edge 98, Type (0, 1), BuildingBlock: UVAHIK_clean_linker_0, # of connection points: 2
#     Edge 99, Type (0, 1), BuildingBlock: UVAHIK_clean_linker_0, # of connection points: 2
#     Edge 100, Type (0, 1), BuildingBlock: UVAHIK_clean_linker_0, # of connection points: 2
#     Edge 101, Type (0, 1), BuildingBlock: UVAHIK_clean_linker_0, # of connection points: 2
#     Edge 102, Type (0, 1), BuildingBlock: UVAHIK_clean_linker_0, # of connection points: 2
#     Edge 103, Type (0, 1), BuildingBlock: UVAHIK_clean_linker_0, # of connection points: 2
#     Edge 104, Type (0, 1), BuildingBlock: UVAHIK_clean_linker_0, # of connection points: 2
#     Edge 105, Type (0, 1), BuildingBlock: UVAHIK_clean_linker_0, # of connection points: 2
#     Edge 106, Type (0, 1), BuildingBlock: UVAHIK_clean_linker_0, # of connection points: 2
#     Edge 107, Type (0, 1), BuildingBlock: UVAHIK_clean_linker_0, # of connection points: 2
# Relax obj value: 0.127
# Max RMSD: 0.318
# Mean RMSD: 0.191
data_MOF--net-ptr--node1-UXUYUI_clean_sbu_0--node2-AZAVOO_clean_linker_0--edge1-UVAHIK_clean_linker_0
_symmetry_space_group_name_H-M    P1
_symmetry_Int_Tables_number       1
_symmetry_cell_setting            triclinic
loop_
_symmetry_equiv_pos_as_xyz
'x, y, z'
_cell_length_a     117.953
_cell_length_b     116.9746
_cell_length_c     96.395978
_cell_angle_alpha  92.336776
_cell_angle_beta   92.119271
_cell_angle_gamma 120.32259
loop_
_atom_site_label
_atom_site_type_symbol
_atom_site_fract_x
_atom_site_fract_y
_atom_site_fract_z
_atom_type_partial_charge
Li0 Li 0.99582 0.34891 0.0119 0.0
Li1 Li 0.01745 0.36046 0.02355 0.0
Li2 Li 0.0029 0.36828 0.02774 0.0
Li3 Li 0.01314 0.37214 0.00564 0.0
C4 C 0.00213 0.35057 0.04621 0.0
N5 N 0.00613 0.35026 0.0746 0.0
C6 C 0.01244 0.36167 0.05375 0.0
C7 C 0.99388 0.33931 0.05313 0.0
C8 C 0.0143 0.36132 0.06808 0.0
C9 C 0.99605 0.33935 0.06748 0.0
C10 C 0.0194 0.3484 0.00031 0.0
C11 C 0.03862 0.34826 0.99283 0.0
N12 N 0.03269 0.33506 0.99479 0.0
C13 C 0.01344 0.33481 0.0021 0.0
C14 C 0.03204 0.35516 0.99551 0.0
C15 C 0.02034 0.32826 0.99931 0.0
C16 C 0.98039 0.33082 0.98993 0.0
N17 N 0.98218 0.33241 0.00402 0.0
C18 C 0.96638 0.30957 0.00605 0.0
C19 C 0.97532 0.32219 0.01215 0.0
C20 C 0.96456 0.3075 0.99147 0.0
C21 C 0.97156 0.31838 0.98339 0.0
H22 H 0.98612 0.33915 0.98378 0.0
H23 H 0.97712 0.32375 0.02332 0.0
C24 C 0.04269 0.3647 0.03537 0.0
N25 N 0.02969 0.35607 0.03196 0.0
C26 C 0.05042 0.36037 0.04209 0.0
C27 C 0.03132 0.33835 0.04149 0.0
C28 C 0.02398 0.34311 0.03487 0.0
C29 C 0.04471 0.34704 0.04527 0.0
H30 H 0.04713 0.37495 0.03307 0.0
H31 H 0.01361 0.33645 0.03219 0.0
C32 C 0.98488 0.36801 0.01095 0.0
N33 N 0.96657 0.37534 0.01661 0.0
C34 C 0.98743 0.38073 0.00834 0.0
C35 C 0.973 0.35898 0.01633 0.0
C36 C 0.97804 0.38426 0.0113 0.0
C37 C 0.96387 0.36289 0.01915 0.0
C38 C 0.03481 0.38846 0.0261 0.0
C39 C 0.04006 0.39625 0.0386 0.0
C40 C 0.04301 0.39026 0.01529 0.0
C41 C 0.05351 0.40562 0.04015 0.0
C42 C 0.0564 0.39975 0.01723 0.0
N43 N 0.06133 0.40716 0.02952 0.0
C44 C 0.9882 0.37005 0.04999 0.0
C45 C 0.00319 0.39016 0.04038 0.0
C46 C 0.98482 0.37691 0.05961 0.0
N47 N 0.99737 0.37679 0.04077 0.0
C48 C -3e-05 0.39738 0.04963 0.0
C49 C 0.99081 0.39081 0.05959 0.0
H50 H 0.98361 0.35938 0.04997 0.0
H51 H 0.01034 0.39521 0.03281 0.0
C52 C 0.01374 0.37753 0.97771 0.0
N53 N 0.01821 0.38339 0.99076 0.0
C54 C 0.0153 0.38526 0.96649 0.0
C55 C 0.02654 0.40493 0.98228 0.0
C56 C 0.02455 0.39681 0.99324 0.0
C57 C 0.02162 0.39911 0.96877 0.0
H58 H 0.00848 0.36682 0.97614 0.0
H59 H 0.02759 0.40116 0.00379 0.0
O60 O 0.00012 0.35061 0.03212 0.0
O61 O 0.01286 0.35502 0.00321 0.0
O62 O 0.99409 0.3645 0.00855 0.0
O63 O 0.02164 0.37936 0.02441 0.0
H64 H 0.01896 0.37045 0.04863 0.0
H65 H 0.98586 0.33062 0.04748 0.0
H66 H 0.02224 0.36984 0.07403 0.0
H67 H 0.98973 0.33069 0.07296 0.0
H68 H 0.04843 0.35338 0.98918 0.0
H69 H 0.00367 0.3294 0.00581 0.0
H70 H 0.03673 0.36561 0.99382 0.0
H71 H 0.01589 0.31777 0.00078 0.0
H72 H 0.96131 0.30143 0.01266 0.0
H73 H 0.97034 0.31726 0.97213 0.0
H74 H 0.06075 0.36738 0.04474 0.0
H75 H 0.02646 0.32804 0.04392 0.0
H76 H 0.99661 0.38783 0.00422 0.0
H77 H 0.97094 0.34911 0.01846 0.0
H78 H 0.9799 0.39409 0.00942 0.0
H79 H 0.95467 0.35604 0.02341 0.0
H80 H 0.03382 0.39509 0.04702 0.0
H81 H 0.0391 0.3844 0.00553 0.0
H82 H 0.05772 0.41169 0.04979 0.0
H83 H 0.06286 0.40122 0.00896 0.0
H84 H 0.97782 0.37141 0.06716 0.0
H85 H 0.00462 0.40801 0.04895 0.0
H86 H 0.01134 0.38046 0.95619 0.0
H87 H 0.03126 0.41557 0.98443 0.0
Li88 Li 0.64351 0.63193 0.05179 0.0
Li89 Li 0.63353 0.64313 0.06364 0.0
Li90 Li 0.62714 0.61944 0.06768 0.0
Li91 Li 0.61992 0.62457 0.04596 0.0
C92 C 0.6572 0.64111 0.07589 0.0
N93 N 0.68369 0.65132 0.08267 0.0
C94 C 0.6658 0.65484 0.07734 0.0
C95 C 0.66205 0.63258 0.07808 0.0
C96 C 0.67916 0.65981 0.08073 0.0
C97 C 0.67548 0.63793 0.08144 0.0
C98 C 0.63459 0.65089 0.03568 0.0
C99 C 0.62175 0.6604 0.02761 0.0
N100 N 0.63178 0.66863 0.01992 0.0
C101 C 0.64472 0.65935 0.02758 0.0
C102 C 0.62298 0.65134 0.03561 0.0
C103 C 0.64313 0.66829 0.01973 0.0
C104 C 0.66243 0.6264 0.04023 0.0
N105 N 0.65969 0.63592 0.04447 0.0
C106 C 0.68068 0.65306 0.03834 0.0
C107 C 0.66849 0.64902 0.04363 0.0
C108 C 0.68384 0.6435 0.03382 0.0
C109 C 0.67454 0.63 0.03483 0.0
H110 H 0.65521 0.61605 0.04097 0.0
H111 H 0.666 0.65635 0.04706 0.0
C112 C 0.63315 0.66012 0.08503 0.0
N113 N 0.6373 0.6597 0.07215 0.0
C114 C 0.63673 0.67232 0.09198 0.0
C115 C 0.64866 0.68334 0.07219 0.0
C116 C 0.64499 0.67098 0.06573 0.0
C117 C 0.64461 0.68412 0.08552 0.0
H118 H 0.62723 0.65099 0.08999 0.0
H119 H 0.64865 0.67045 0.05578 0.0
C120 C 0.62445 0.60054 0.04883 0.0
N121 N 0.61634 0.57397 0.05031 0.0
C122 C 0.61234 0.5908 0.04241 0.0
C123 C 0.6325 0.59677 0.05584 0.0
C124 C 0.6084 0.57742 0.04331 0.0
C125 C 0.6282 0.58329 0.05653 0.0
C126 C 0.6039 0.62635 0.06728 0.0
C127 C 0.59329 0.61435 0.07086 0.0
C128 C 0.60242 0.63745 0.06646 0.0
C129 C 0.58128 0.61353 0.07313 0.0
C130 C 0.59027 0.63624 0.06883 0.0
N131 N 0.58002 0.6244 0.07206 0.0
C132 C 0.62913 0.61009 0.09369 0.0
C133 C 0.61036 0.59497 0.07913 0.0
C134 C 0.62499 0.60135 0.10432 0.0
N135 N 0.62176 0.6068 0.08144 0.0
C136 C 0.60587 0.58593 0.08943 0.0
C137 C 0.61314 0.58913 0.1023 0.0
H138 H 0.63811 0.61962 0.09531 0.0
H139 H 0.60458 0.59267 0.06938 0.0
C140 C 0.61008 0.62199 0.01829 0.0
N141 N 0.60643 0.618 0.03125 0.0
C142 C 0.60073 0.6172 0.00704 0.0
C143 C 0.58405 0.6039 0.02255 0.0
C144 C 0.59372 0.60909 0.03355 0.0
C145 C 0.58753 0.60797 0.00909 0.0
H146 H 0.62031 0.62874 0.01664 0.0
H147 H 0.59112 0.60571 0.04382 0.0
O148 O 0.64413 0.63606 0.07226 0.0
O149 O 0.63603 0.64211 0.04346 0.0
O150 O 0.62842 0.61368 0.04814 0.0
O151 O 0.61581 0.62738 0.06525 0.0
H152 H 0.66222 0.6616 0.07571 0.0
H153 H 0.65552 0.62194 0.07713 0.0
H154 H 0.68594 0.67041 0.08177 0.0
H155 H 0.67938 0.63143 0.08307 0.0
H156 H 0.6128 0.66083 0.02746 0.0
H157 H 0.65372 0.65905 0.02735 0.0
H158 H 0.61491 0.6446 0.04144 0.0
H159 H 0.65091 0.67494 0.01347 0.0
H160 H 0.68744 0.66356 0.03754 0.0
H161 H 0.67661 0.62232 0.03155 0.0
H162 H 0.63343 0.67254 0.10227 0.0
H163 H 0.65499 0.69222 0.067 0.0
H164 H 0.60604 0.59353 0.03684 0.0
H165 H 0.64191 0.60416 0.0608 0.0
H166 H 0.59903 0.56978 0.03845 0.0
H167 H 0.63429 0.58023 0.06201 0.0
H168 H 0.59425 0.6057 0.07174 0.0
H169 H 0.61059 0.64695 0.06415 0.0
H170 H 0.57296 0.60426 0.07577 0.0
H171 H 0.589 0.64474 0.06816 0.0
H172 H 0.63094 0.60417 0.11405 0.0
H173 H 0.59657 0.57673 0.0875 0.0
H174 H 0.60386 0.62036 0.99676 0.0
H175 H 0.57399 0.59674 0.02453 0.0
Li176 Li 0.37645 0.99316 0.00286 0.0
Li177 Li 0.38217 0.00135 0.02684 0.0
Li178 Li 0.35883 0.98522 0.01966 0.0
Li179 Li 0.36946 0.00801 0.01338 0.0
C180 C 0.3827 0.97809 0.0224 0.0
N181 N 0.39992 0.96938 0.02921 0.0
C182 C 0.39464 0.98316 0.01611 0.0
C183 C 0.37953 0.9686 0.03217 0.0
C184 C 0.40322 0.97864 0.01969 0.0
C185 C 0.38836 0.96432 0.03547 0.0
C186 C 0.40037 0.02143 0.0128 0.0
C187 C 0.4172 0.04165 0.02522 0.0
N188 N 0.42656 0.04055 0.01846 0.0
C189 C 0.41016 0.02057 0.00588 0.0
C190 C 0.40391 0.03212 0.02245 0.0
C191 C 0.42334 0.03031 0.00892 0.0
C192 C 0.38708 0.99824 0.977 0.0
N193 N 0.38174 0.98865 0.98616 0.0
C194 C 0.38566 0.97406 0.97177 0.0
C195 C 0.38066 0.97661 0.98366 0.0
C196 C 0.39172 0.98399 0.96236 0.0
C197 C 0.39219 0.99613 0.96499 0.0
H198 H 0.38773 0.00769 0.97927 0.0
H199 H 0.37619 0.9691 0.99106 0.0
C200 C 0.39103 0.00585 0.05505 0.0
N201 N 0.39505 0.00598 0.04199 0.0
C202 C 0.39952 0.00815 0.06666 0.0
C203 C 0.41616 0.0106 0.05121 0.0
C204 C 0.40738 0.00837 0.03991 0.0
C205 C 0.41222 0.0104 0.0648 0.0
H206 H 0.38109 0.00365 0.05647 0.0
H207 H 0.41037 0.00824 0.0295 0.0
C208 C 0.35105 0.98166 0.99119 0.0
N209 N 0.33546 0.9615 0.97124 0.0
C210 C 0.34484 0.98407 0.98 0.0
C211 C 0.34933 0.969 0.99224 0.0
C212 C 0.33699 0.97374 0.97002 0.0
C213 C 0.34141 0.95894 0.98204 0.0
C214 C 0.36262 0.00958 0.03863 0.0
C215 C 0.34933 0.00585 0.03848 0.0
C216 C 0.37213 0.0218 0.04515 0.0
C217 C 0.34581 0.01455 0.04461 0.0
C218 C 0.36822 0.03021 0.05118 0.0
N219 N 0.35525 0.02646 0.05077 0.0
C220 C 0.34132 0.96347 0.03493 0.0
C221 C 0.33151 0.9716 0.01926 0.0
C222 C 0.32913 0.95513 0.0402 0.0
N223 N 0.34228 0.97161 0.02481 0.0
C224 C 0.3192 0.96356 0.02431 0.0
C225 C 0.31797 0.95542 0.03513 0.0
H226 H 0.35009 0.96393 0.03938 0.0
H227 H 0.33261 0.97838 0.01143 0.0
C228 C 0.37295 0.03403 0.00932 0.0
N229 N 0.36455 0.02073 0.00949 0.0
C230 C 0.36812 0.04237 0.00588 0.0
C231 C 0.34618 0.02314 0.00307 0.0
C232 C 0.35142 0.01523 0.00647 0.0
C233 C 0.35456 0.03689 0.00255 0.0
H234 H 0.38337 0.03813 0.01165 0.0
H235 H 0.34499 0.00461 0.00673 0.0
O236 O 0.37414 0.98236 0.01901 0.0
O237 O 0.38741 0.012 0.00995 0.0
O238 O 0.3588 0.99171 0.00098 0.0
O239 O 0.36629 0.00133 0.03239 0.0
H240 H 0.39736 0.99063 0.00867 0.0
H241 H 0.37034 0.96456 0.03716 0.0
H242 H 0.41251 0.98253 0.01492 0.0
H243 H 0.38602 0.95696 0.04301 0.0
H244 H 0.42006 0.04993 0.03273 0.0
H245 H 0.40763 0.01243 0.99831 0.0
H246 H 0.39648 0.03304 0.02776 0.0
H247 H 0.43101 0.02972 0.0037 0.0
H248 H 0.38494 0.9645 0.97004 0.0
H249 H 0.39689 0.00411 0.95812 0.0
H250 H 0.39602 0.00769 0.07697 0.0
H251 H 0.4259 0.01236 0.04933 0.0
H252 H 0.34609 0.99382 0.97906 0.0
H253 H 0.35405 0.96695 0.00082 0.0
H254 H 0.33213 0.97546 0.96131 0.0
H255 H 0.34 0.9491 0.98272 0.0
H256 H 0.34183 0.99643 0.03355 0.0
H257 H 0.38243 0.02474 0.0456 0.0
H258 H 0.33558 0.01184 0.04446 0.0
H259 H 0.37549 0.03973 0.05621 0.0
H260 H 0.32858 0.9491 0.04867 0.0
H261 H 0.3108 0.96402 0.02012 0.0
H262 H 0.37493 0.05291 0.0055 0.0
H263 H 0.33566 0.01851 0.00085 0.0
Li264 Li 0.00715 0.65238 0.05042 0.0
Li265 Li 0.99044 0.62984 0.05528 0.0
Li266 Li 0.00129 0.63394 0.03274 0.0
Li267 Li 0.9849 0.64045 0.03727 0.0
C268 C 0.02207 0.64009 0.05515 0.0
N269 N 0.04789 0.64694 0.06132 0.0
C270 C 0.0258 0.6375 0.06804 0.0
C271 C 0.03143 0.64599 0.04533 0.0
C272 C 0.03892 0.64109 0.07099 0.0
C273 C 0.04445 0.64942 0.04866 0.0
C274 C 0.98397 0.64565 0.0697 0.0
C275 C 0.96491 0.63765 0.08319 0.0
N276 N 0.97291 0.64411 0.09482 0.0
C277 C 0.992 0.65234 0.08174 0.0
C278 C 0.97031 0.63836 0.07038 0.0
C279 C 0.98622 0.65139 0.09436 0.0
C280 C 0.02068 0.68002 0.05301 0.0
N281 N 0.02028 0.66928 0.0584 0.0
C282 C 0.03688 0.68313 0.07614 0.0
C283 C 0.02815 0.67058 0.06974 0.0
C284 C 0.03741 0.69442 0.07091 0.0
C285 C 0.02924 0.69275 0.05909 0.0
H286 H 0.01409 0.67865 0.04417 0.0
H287 H 0.02737 0.66187 0.07408 0.0
C288 C 0.9752 0.60494 0.06656 0.0
N289 N 0.98448 0.6179 0.06964 0.0
C290 C 0.97199 0.59574 0.07666 0.0
C291 C 0.98769 0.61347 0.09299 0.0
C292 C 0.99067 0.62229 0.08255 0.0
C293 C 0.97842 0.59995 0.09002 0.0
H294 H 0.97064 0.60165 0.05614 0.0
H295 H 0.99831 0.63255 0.08458 0.0
C296 C 0.00954 0.65818 0.01942 0.0
N297 N 0.02355 0.67238 0.9977 0.0
C298 C 0.00295 0.65762 0.00683 0.0
C299 C 0.02324 0.66617 0.02104 0.0
C300 C 0.01021 0.6648 0.99595 0.0
C301 C 0.03015 0.67322 0.00992 0.0
C302 C 0.97047 0.61413 0.02937 0.0
C303 C 0.9697 0.60883 0.01588 0.0
C304 C 0.95892 0.61102 0.0358 0.0
C305 C 0.95735 0.60065 0.00894 0.0
C306 C 0.94676 0.60282 0.02851 0.0
N307 N 0.94624 0.59786 0.01534 0.0
C308 C 0.0122 0.61877 0.02322 0.0
C309 C 0.00568 0.62794 0.00529 0.0
C310 C 0.01568 0.61214 0.01345 0.0
N311 N 0.00732 0.62648 0.01901 0.0
C312 C 0.00902 0.62148 0.99516 0.0
C313 C 0.01398 0.61334 0.99919 0.0
H314 H 0.01313 0.61755 0.03419 0.0
H315 H 0.00129 0.63367 0.00217 0.0
C316 C 0.96944 0.65231 0.03543 0.0
N317 N 0.97205 0.64357 0.02865 0.0
C318 C 0.96138 0.65633 0.02893 0.0
C319 C 0.95852 0.64195 0.00873 0.0
C320 C 0.96676 0.63834 0.01556 0.0
C321 C 0.95594 0.65124 0.01534 0.0
H322 H 0.97397 0.65651 0.04574 0.0
H323 H 0.96936 0.6318 0.01018 0.0
O324 O 0.00927 0.63666 0.05213 0.0
O325 O 0.98945 0.64639 0.05727 0.0
O326 O 0.00256 0.65132 0.03024 0.0
O327 O 0.98247 0.6222 0.03629 0.0
H328 H 0.01866 0.63283 0.07572 0.0
H329 H 0.02866 0.64774 0.0352 0.0
H330 H 0.04196 0.63922 0.08095 0.0
H331 H 0.05179 0.654 0.04116 0.0
H332 H 0.95436 0.63199 0.08389 0.0
H333 H 0.00258 0.6581 0.08137 0.0
H334 H 0.96395 0.63335 0.06111 0.0
H335 H 0.99232 0.65642 0.10378 0.0
H336 H 0.04305 0.68395 0.08517 0.0
H337 H 0.02914 0.70112 0.05485 0.0
H338 H 0.96478 0.5854 0.07397 0.0
H339 H 0.99304 0.61707 0.10307 0.0
H340 H 0.99235 0.65161 0.00543 0.0
H341 H 0.0285 0.66707 0.03083 0.0
H342 H 0.00523 0.66436 0.98611 0.0
H343 H 0.04076 0.67941 0.01103 0.0
H344 H 0.97853 0.61104 0.01079 0.0
H345 H 0.95935 0.61489 0.0463 0.0
H346 H 0.95661 0.59654 0.99847 0.0
H347 H 0.93775 0.60039 0.03334 0.0
H348 H 0.01953 0.60602 0.01702 0.0
H349 H 0.00726 0.62245 0.98429 0.0
H350 H 0.95958 0.66349 0.03437 0.0
H351 H 0.95469 0.63798 0.99816 0.0
Li352 Li 0.35858 0.37196 0.01028 0.0
Li353 Li 0.38198 0.37816 0.01648 0.0
Li354 Li 0.3757 0.38476 0.99467 0.0
Li355 Li 0.36883 0.36204 0.99758 0.0
C356 C 0.37117 0.3998 0.01427 0.0
N357 N 0.36473 0.41946 0.01422 0.0
C358 C 0.3786 0.41151 0.02271 0.0
C359 C 0.36047 0.39808 0.0058 0.0
C360 C 0.37518 0.42134 0.02255 0.0
C361 C 0.35737 0.40813 0.00592 0.0
C362 C 0.36118 0.34809 0.01996 0.0
C363 C 0.36548 0.33039 0.0241 0.0
N364 N 0.35231 0.32162 0.02347 0.0
C365 C 0.34768 0.33893 0.01953 0.0
C366 C 0.37016 0.34382 0.02242 0.0
C367 C 0.34339 0.32558 0.02126 0.0
C368 C 0.33133 0.35922 0.01001 0.0
N369 N 0.34252 0.36838 0.01745 0.0
C370 C 0.33017 0.36995 0.03573 0.0
C371 C 0.34221 0.3739 0.02999 0.0
C372 C 0.31845 0.36012 0.02851 0.0
C373 C 0.31911 0.35489 0.01539 0.0
H374 H 0.33194 0.35493 0.00011 0.0
H375 H 0.35132 0.38108 0.0357 0.0
C376 C 0.40761 0.39345 0.02895 0.0
N377 N 0.39512 0.38388 0.03115 0.0
C378 C 0.41743 0.39832 0.03976 0.0
C379 C 0.40132 0.38339 0.05488 0.0
C380 C 0.39183 0.37874 0.04375 0.0
C381 C 0.41432 0.39339 0.053 0.0
H382 H 0.4099 0.39734 0.01879 0.0
H383 H 0.38177 0.37121 0.04518 0.0
C384 C 0.35546 0.36708 0.97585 0.0
N385 N 0.35046 0.36304 0.94731 0.0
C386 C 0.36459 0.36658 0.96742 0.0
C387 C 0.34377 0.36551 0.96979 0.0
C388 C 0.36189 0.36453 0.95301 0.0
C389 C 0.34143 0.36349 0.95533 0.0
C390 C 0.39645 0.37432 0.99338 0.0
C391 C 0.40092 0.37692 0.98 0.0
C392 C 0.40188 0.36921 0.00265 0.0
C393 C 0.41053 0.37405 0.97601 0.0
C394 C 0.41149 0.3665 0.99827 0.0
N395 N 0.41557 0.36893 0.98514 0.0
C396 C 0.3956 0.40603 0.98243 0.0
C397 C 0.37436 0.40104 0.97396 0.0
C398 C 0.4015 0.41625 0.97352 0.0
N399 N 0.38229 0.39863 0.98242 0.0
C400 C 0.37985 0.41121 0.96485 0.0
C401 C 0.39361 0.41894 0.96453 0.0
H402 H 0.40164 0.40387 0.9893 0.0
H403 H 0.36379 0.39507 0.97425 0.0
C404 C 0.35066 0.33727 0.98598 0.0
N405 N 0.36391 0.34528 0.98825 0.0
C406 C 0.34533 0.32457 0.97957 0.0
C407 C 0.3674 0.32863 0.97748 0.0
C408 C 0.37231 0.34123 0.98414 0.0
C409 C 0.35373 0.32012 0.97524 0.0
H410 H 0.3442 0.34076 0.98928 0.0
H411 H 0.38279 0.34767 0.98601 0.0
O412 O 0.37446 0.39014 0.01428 0.0
O413 O 0.36557 0.36115 0.01795 0.0
O414 O 0.35789 0.36916 0.98999 0.0
O415 O 0.38717 0.37724 0.99752 0.0
H416 H 0.38693 0.413 0.02931 0.0
H417 H 0.35463 0.3891 0.99916 0.0
H418 H 0.38084 0.43046 0.02903 0.0
H419 H 0.34913 0.40694 0.99941 0.0
H420 H 0.37233 0.32694 0.02591 0.0
H421 H 0.34059 0.34206 0.01772 0.0
H422 H 0.38063 0.35079 0.023 0.0
H423 H 0.33297 0.31837 0.02082 0.0
H424 H 0.33007 0.37412 0.04593 0.0
H425 H 0.31028 0.34738 0.00946 0.0
H426 H 0.42734 0.40589 0.03776 0.0
H427 H 0.3984 0.37944 0.06494 0.0
H428 H 0.37362 0.3677 0.97194 0.0
H429 H 0.33661 0.36592 0.97619 0.0
H430 H 0.36888 0.36411 0.94636 0.0
H431 H 0.33243 0.36228 0.95049 0.0
H432 H 0.39706 0.38116 0.97278 0.0
H433 H 0.39874 0.36736 0.01311 0.0
H434 H 0.41403 0.37595 0.96566 0.0
H435 H 0.41572 0.36247 0.00532 0.0
H436 H 0.41213 0.4218 0.97347 0.0
H437 H 0.37341 0.41304 0.95821 0.0
H438 H 0.33474 0.31835 0.97788 0.0
H439 H 0.37418 0.32548 0.97432 0.0
Li440 Li 0.63302 0.99498 0.04704 0.0
Li441 Li 0.62766 0.0112 0.05676 0.0
Li442 Li 0.62315 0.00415 0.03165 0.0
Li443 Li 0.64571 0.0184 0.04148 0.0
C444 C 0.60541 0.98068 0.04801 0.0
N445 N 0.5849 0.95486 0.04872 0.0
C446 C 0.59919 0.97619 0.06034 0.0
C447 C 0.60108 0.97211 0.036 0.0
C448 C 0.58887 0.96308 0.0605 0.0
C449 C 0.59073 0.95908 0.03658 0.0
C450 C 0.65245 0.02066 0.06971 0.0
C451 C 0.66223 0.04309 0.0798 0.0
N452 N 0.66921 0.04048 0.08942 0.0
C453 C 0.65972 0.0182 0.07968 0.0
C454 C 0.65371 0.03321 0.06974 0.0
C455 C 0.66813 0.02835 0.08957 0.0
C456 C 0.64536 0.98008 0.04519 0.0
N457 N 0.63527 0.98052 0.05103 0.0
C458 C 0.63163 0.96288 0.06524 0.0
C459 C 0.62833 0.9721 0.0608 0.0
C460 C 0.64232 0.96251 0.05974 0.0
C461 C 0.64903 0.97105 0.04934 0.0
H462 H 0.65101 0.98721 0.03779 0.0
H463 H 0.62065 0.97295 0.06563 0.0
C464 C 0.61408 0.02135 0.07191 0.0
N465 N 0.62104 0.01501 0.07273 0.0
C466 C 0.60805 0.02276 0.08355 0.0
C467 C 0.61681 0.0114 0.09665 0.0
C468 C 0.62262 0.01019 0.08478 0.0
C469 C 0.60918 0.01753 0.09606 0.0
H470 H 0.61287 0.02491 0.06211 0.0
H471 H 0.62811 0.00506 0.08504 0.0
C472 C 0.64006 0.99693 0.01688 0.0
N473 N 0.64297 0.98608 0.99223 0.0
C474 C 0.64944 0.00503 0.00787 0.0
C475 C 0.6323 0.98329 0.01345 0.0
C476 C 0.65072 0.99936 0.99543 0.0
C477 C 0.63389 0.978 0.00091 0.0
C478 C 0.63296 0.03161 0.03109 0.0
C479 C 0.63723 0.03051 0.01804 0.0
C480 C 0.63026 0.04174 0.03416 0.0
C481 C 0.63874 0.03957 0.00825 0.0
C482 C 0.63191 0.05063 0.02409 0.0
N483 N 0.63608 0.04937 0.01145 0.0
C484 C 0.5986 0.9972 0.01893 0.0
C485 C 0.61445 0.00034 0.00281 0.0
C486 C 0.58916 0.99436 0.00809 0.0
N487 N 0.61094 0.00011 0.01612 0.0
C488 C 0.60536 0.9976 0.99167 0.0
C489 C 0.59251 0.99457 0.99423 0.0
H490 H 0.59609 0.99712 0.02962 0.0
H491 H 0.62434 0.00286 0.00077 0.0
C492 C 0.67127 0.02572 0.03943 0.0
N493 N 0.66329 0.03087 0.0379 0.0
C494 C 0.68417 0.03266 0.03553 0.0
C495 C 0.68059 0.05037 0.02893 0.0
C496 C 0.66776 0.04314 0.0332 0.0
C497 C 0.68888 0.04496 0.02973 0.0
H498 H 0.66742 0.01597 0.04329 0.0
H499 H 0.6613 0.04715 0.0323 0.0
O500 O 0.61549 0.99349 0.04769 0.0
O501 O 0.64419 0.0108 0.05998 0.0
O502 O 0.63871 0.00234 0.02911 0.0
O503 O 0.63122 0.02275 0.04079 0.0
H504 H 0.60236 0.98276 0.0697 0.0
H505 H 0.60559 0.97551 0.0263 0.0
H506 H 0.58401 0.95945 0.06999 0.0
H507 H 0.5873 0.95232 0.02736 0.0
H508 H 0.6633 0.05285 0.07996 0.0
H509 H 0.65884 0.00854 0.07976 0.0
H510 H 0.64818 0.03531 0.06211 0.0
H511 H 0.67382 0.02659 0.09735 0.0
H512 H 0.62616 0.95643 0.07324 0.0
H513 H 0.65749 0.97131 0.04502 0.0
H514 H 0.60214 0.0274 0.08259 0.0
H515 H 0.61808 0.00738 0.10611 0.0
H516 H 0.65563 0.01559 0.01043 0.0
H517 H 0.62523 0.97684 0.02045 0.0
H518 H 0.65788 0.00551 0.98832 0.0
H519 H 0.62793 0.96746 0.99811 0.0
H520 H 0.63949 0.02283 0.01557 0.0
H521 H 0.62693 0.04272 0.04421 0.0
H522 H 0.64207 0.03884 0.99812 0.0
H523 H 0.62987 0.05853 0.02633 0.0
H524 H 0.57935 0.99195 0.01055 0.0
H525 H 0.60846 0.99813 0.98117 0.0
H526 H 0.69027 0.02824 0.03673 0.0
H527 H 0.68375 0.05979 0.0245 0.0
Li528 Li 0.65962 0.68732 0.34475 0.0
Li529 Li 0.68112 0.69944 0.35916 0.0
Li530 Li 0.66336 0.70549 0.36082 0.0
Li531 Li 0.67572 0.71004 0.3409 0.0
C532 C 0.65518 0.6763 0.36958 0.0
N533 N 0.63969 0.65067 0.37734 0.0
C534 C 0.661 0.6692 0.37434 0.0
C535 C 0.64148 0.6704 0.36891 0.0
C536 C 0.653 0.65625 0.37819 0.0
C537 C 0.63382 0.65742 0.37283 0.0
C538 C 0.6837 0.69604 0.32693 0.0
C539 C 0.70328 0.70526 0.31418 0.0
N540 N 0.69565 0.7009 0.30203 0.0
C541 C 0.67604 0.69161 0.31434 0.0
C542 C 0.69742 0.70289 0.32689 0.0
C543 C 0.68228 0.69419 0.30185 0.0
C544 C 0.63774 0.66872 0.32685 0.0
N545 N 0.64752 0.67032 0.33606 0.0
C546 C 0.64072 0.64734 0.33274 0.0
C547 C 0.64934 0.66003 0.33883 0.0
C548 C 0.63044 0.64536 0.32334 0.0
C549 C 0.62905 0.65623 0.32026 0.0
H550 H 0.63676 0.67716 0.32452 0.0
H551 H 0.65753 0.6617 0.34575 0.0
C552 C 0.6965 0.70034 0.3828 0.0
N553 N 0.69353 0.69661 0.369 0.0
C554 C 0.70439 0.6968 0.39049 0.0
C555 C 0.70622 0.68591 0.36953 0.0
C556 C 0.69825 0.6896 0.36227 0.0
C557 C 0.70924 0.68936 0.38387 0.0
H558 H 0.69242 0.70575 0.38788 0.0
H559 H 0.69544 0.68647 0.35137 0.0
C560 C 0.64679 0.70502 0.34193 0.0
N561 N 0.62742 0.71154 0.34429 0.0
C562 C 0.64951 0.71787 0.33966 0.0
C563 C 0.63418 0.69546 0.34529 0.0
C564 C 0.63959 0.72097 0.34092 0.0
C565 C 0.62453 0.69896 0.34647 0.0
C566 C 0.69371 0.72946 0.3592 0.0
C567 C 0.69233 0.74019 0.35569 0.0
C568 C 0.7063 0.7313 0.36165 0.0
C569 C 0.70358 0.75258 0.35461 0.0
C570 C 0.71731 0.74384 0.36049 0.0
N571 N 0.71573 0.75413 0.35702 0.0
C572 C 0.64813 0.70398 0.38368 0.0
C573 C 0.65786 0.7244 0.37299 0.0
C574 C 0.64276 0.70875 0.39343 0.0
N575 N 0.65552 0.71182 0.37373 0.0
C576 C 0.65263 0.72954 0.38243 0.0
C577 C 0.64507 0.72175 0.39294 0.0
H578 H 0.6466 0.6941 0.38424 0.0
H579 H 0.66382 0.73048 0.36508 0.0
C580 C 0.67345 0.72068 0.31635 0.0
N581 N 0.68264 0.72173 0.32605 0.0
C582 C 0.67711 0.72912 0.30552 0.0
C583 C 0.6998 0.7391 0.31423 0.0
C584 C 0.69568 0.7304 0.32491 0.0
C585 C 0.6904 0.73871 0.30453 0.0
H586 H 0.6632 0.71332 0.31707 0.0
H587 H 0.70291 0.7307 0.33235 0.0
O588 O 0.66286 0.68895 0.3656 0.0
O589 O 0.67778 0.69394 0.33924 0.0
O590 O 0.65643 0.70183 0.34093 0.0
O591 O 0.68284 0.71728 0.3605 0.0
H592 H 0.67158 0.67359 0.37497 0.0
H593 H 0.63681 0.67575 0.36532 0.0
H594 H 0.65737 0.65062 0.38182 0.0
H595 H 0.6232 0.65271 0.37228 0.0
H596 H 0.71389 0.71062 0.31397 0.0
H597 H 0.66541 0.68637 0.31423 0.0
H598 H 0.70348 0.70652 0.33656 0.0
H599 H 0.67649 0.69088 0.29202 0.0
H600 H 0.6422 0.63921 0.33516 0.0
H601 H 0.62124 0.65503 0.31298 0.0
H602 H 0.70656 0.69972 0.40151 0.0
H603 H 0.70955 0.67998 0.36407 0.0
H604 H 0.65925 0.72544 0.33719 0.0
H605 H 0.63186 0.68546 0.34699 0.0
H606 H 0.6416 0.7309 0.33929 0.0
H607 H 0.61475 0.69167 0.34912 0.0
H608 H 0.6827 0.73893 0.35353 0.0
H609 H 0.70758 0.72312 0.36436 0.0
H610 H 0.70265 0.76094 0.3518 0.0
H611 H 0.7271 0.7454 0.36232 0.0
H612 H 0.63719 0.70246 0.40149 0.0
H613 H 0.65453 0.73955 0.38151 0.0
H614 H 0.66957 0.72817 0.29801 0.0
H615 H 0.71018 0.74626 0.3138 0.0
Li616 Li 0.28146 0.95633 0.38145 0.0
Li617 Li 0.28654 0.94933 0.4032 0.0
Li618 Li 0.29668 0.97316 0.39851 0.0
Li619 Li 0.30404 0.95947 0.3867 0.0
C620 C 0.26528 0.95749 0.39926 0.0
N621 N 0.23961 0.95203 0.39594 0.0
C622 C 0.25513 0.94625 0.40474 0.0
C623 C 0.2624 0.96603 0.39224 0.0
C624 C 0.24222 0.94365 0.40292 0.0
C625 C 0.24935 0.96307 0.39062 0.0
C626 C 0.28378 0.92994 0.38144 0.0
C627 C 0.29045 0.91352 0.3805 0.0
N628 N 0.27797 0.90406 0.376 0.0
C629 C 0.27108 0.92007 0.37658 0.0
C630 C 0.2936 0.92666 0.38322 0.0
C631 C 0.26831 0.90704 0.37399 0.0
C632 C 0.27146 0.95891 0.35545 0.0
N633 N 0.26819 0.95174 0.36689 0.0
C634 C 0.24631 0.93737 0.35692 0.0
C635 C 0.25588 0.94119 0.36785 0.0
C636 C 0.24945 0.94446 0.34488 0.0
C637 C 0.26218 0.95546 0.34429 0.0
H638 H 0.28136 0.96714 0.35488 0.0
H639 H 0.25352 0.93565 0.37704 0.0
C640 C 0.28461 0.94171 0.43056 0.0
N641 N 0.27965 0.93707 0.41727 0.0
C642 C 0.27988 0.93332 0.44143 0.0
C643 C 0.2647 0.91561 0.42479 0.0
C644 C 0.26981 0.92432 0.41423 0.0
C645 C 0.26974 0.92008 0.43863 0.0
H646 H 0.29225 0.95196 0.43274 0.0
H647 H 0.2657 0.92099 0.40367 0.0
C648 C 0.30567 0.98473 0.37547 0.0
N649 N 0.31928 0.01138 0.37063 0.0
C650 C 0.31934 0.99142 0.3748 0.0
C651 C 0.2989 0.99156 0.37352 0.0
C652 C 0.32604 0.0049 0.37237 0.0
C653 C 0.30597 0.00504 0.37114 0.0
C654 C 0.3137 0.96178 0.41492 0.0
C655 C 0.3241 0.97224 0.42308 0.0
C656 C 0.31191 0.94904 0.41512 0.0
C657 C 0.33268 0.9698 0.43109 0.0
C658 C 0.32067 0.94699 0.42328 0.0
N659 N 0.33081 0.95734 0.43101 0.0
C660 C 0.2949 0.99489 0.4102 0.0
C661 C 0.31648 0.99857 0.40853 0.0
C662 C 0.29993 0.00786 0.41584 0.0
N663 N 0.30321 0.99057 0.40662 0.0
C664 C 0.32194 0.01157 0.41419 0.0
C665 C 0.31362 0.01637 0.41789 0.0
H666 H 0.28439 0.98828 0.40867 0.0
H667 H 0.32284 0.99487 0.40546 0.0
C668 C 0.31662 0.95376 0.36573 0.0
N669 N 0.3186 0.95968 0.37871 0.0
C670 C 0.32718 0.95447 0.35892 0.0
C671 C 0.34158 0.96726 0.37906 0.0
C672 C 0.33076 0.96635 0.38543 0.0
C673 C 0.33991 0.96141 0.36555 0.0
H674 H 0.30685 0.94871 0.36056 0.0
H675 H 0.33217 0.9713 0.39557 0.0
O676 O 0.27798 0.96014 0.40086 0.0
O677 O 0.2867 0.9428 0.38383 0.0
O678 O 0.29897 0.97161 0.37817 0.0
O679 O 0.30524 0.96404 0.40699 0.0
H680 H 0.25719 0.93959 0.4103 0.0
H681 H 0.27012 0.97476 0.38794 0.0
H682 H 0.23426 0.93496 0.40705 0.0
H683 H 0.24697 0.96953 0.38511 0.0
H684 H 0.29795 0.91087 0.3819 0.0
H685 H 0.26338 0.9224 0.37495 0.0
H686 H 0.30359 0.93416 0.38653 0.0
H687 H 0.25848 0.89931 0.37035 0.0
H688 H 0.23658 0.92891 0.35786 0.0
H689 H 0.26508 0.96108 0.33512 0.0
H690 H 0.28415 0.93719 0.4519 0.0
H691 H 0.25667 0.90559 0.42217 0.0
H692 H 0.32473 0.9863 0.37627 0.0
H693 H 0.28833 0.98652 0.37395 0.0
H694 H 0.33663 0.01022 0.37191 0.0
H695 H 0.30087 0.01047 0.36972 0.0
H696 H 0.32556 0.98214 0.42322 0.0
H697 H 0.30369 0.94077 0.40926 0.0
H698 H 0.3408 0.97782 0.43739 0.0
H699 H 0.31938 0.93717 0.42352 0.0
H700 H 0.29319 0.01115 0.4187 0.0
H701 H 0.33254 0.01787 0.41543 0.0
H702 H 0.32545 0.95001 0.34843 0.0
H703 H 0.35118 0.9726 0.38463 0.0
Li704 Li 0.05276 0.32185 0.34135 0.0
Li705 Li 0.05857 0.33131 0.36483 0.0
Li706 Li 0.03569 0.31753 0.35675 0.0
Li707 Li 0.04863 0.3393 0.34873 0.0
C708 C 0.05733 0.30714 0.36069 0.0
N709 N 0.07396 0.29724 0.36497 0.0
C710 C 0.06995 0.31364 0.35581 0.0
C711 C 0.05316 0.29561 0.36773 0.0
C712 C 0.07821 0.30847 0.35808 0.0
C713 C 0.06171 0.29076 0.3698 0.0
C714 C 0.07576 0.35329 0.35079 0.0
C715 C 0.08548 0.3737 0.3653 0.0
N716 N 0.09575 0.3792 0.35699 0.0
C717 C 0.08641 0.35913 0.34241 0.0
C718 C 0.07528 0.36062 0.36234 0.0
C719 C 0.09642 0.37224 0.34571 0.0
C720 C 0.06429 0.32492 0.31654 0.0
N721 N 0.05791 0.31561 0.32575 0.0
C722 C 0.06006 0.29947 0.31189 0.0
C723 C 0.05559 0.30301 0.32363 0.0
C724 C 0.06696 0.30901 0.30234 0.0
C725 C 0.06893 0.32183 0.30473 0.0
H726 H 0.06581 0.33479 0.31843 0.0
H727 H 0.0504 0.29578 0.33111 0.0
C728 C 0.06658 0.33602 0.39327 0.0
N729 N 0.07091 0.33632 0.38035 0.0
C730 C 0.07537 0.3401 0.40499 0.0
C731 C 0.09284 0.34448 0.38988 0.0
C732 C 0.08375 0.34044 0.37845 0.0
C733 C 0.08869 0.3444 0.40335 0.0
H734 H 0.05631 0.33266 0.39445 0.0
H735 H 0.08697 0.34075 0.36805 0.0
C736 C 0.02825 0.31208 0.32836 0.0
N737 N 0.01134 0.29065 0.31028 0.0
C738 C 0.02217 0.31391 0.31665 0.0
C739 C 0.02574 0.29934 0.33088 0.0
C740 C 0.01364 0.30296 0.30763 0.0
C741 C 0.01716 0.28864 0.32162 0.0
C742 C 0.03448 0.33738 0.37181 0.0
C743 C 0.02469 0.3358 0.36198 0.0
C744 C 0.03441 0.34164 0.38555 0.0
C745 C 0.01498 0.33848 0.36607 0.0
C746 C 0.02454 0.34423 0.38923 0.0
N747 N 0.0151 0.3426 0.3795 0.0
C748 C 0.01792 0.30066 0.37526 0.0
C749 C 0.00765 0.30317 0.35496 0.0
C750 C 0.00575 0.29336 0.38097 0.0
N751 N 0.01864 0.3055 0.36255 0.0
C752 C 0.99529 0.29585 0.3602 0.0
C753 C 0.99423 0.29105 0.3735 0.0
H754 H 0.02687 0.30292 0.38118 0.0
H755 H 0.00845 0.30743 0.34506 0.0
C756 C 0.04545 0.35421 0.32891 0.0
N757 N 0.04801 0.35421 0.34275 0.0
C758 C 0.04329 0.36397 0.32381 0.0
C759 C 0.04698 0.37387 0.34727 0.0
C760 C 0.0491 0.36392 0.35191 0.0
C761 C 0.04374 0.3738 0.33308 0.0
H762 H 0.04474 0.34639 0.32188 0.0
H763 H 0.05112 0.36367 0.36289 0.0
O764 O 0.04901 0.31197 0.35867 0.0
O765 O 0.06593 0.34043 0.34764 0.0
O766 O 0.03668 0.32277 0.33721 0.0
O767 O 0.04406 0.33472 0.36814 0.0
H768 H 0.07335 0.32255 0.35032 0.0
H769 H 0.04341 0.29048 0.37158 0.0
H770 H 0.088 0.3134 0.35436 0.0
H771 H 0.05862 0.28185 0.37524 0.0
H772 H 0.08523 0.37949 0.37421 0.0
H773 H 0.08694 0.35357 0.33345 0.0
H774 H 0.06717 0.35627 0.36901 0.0
H775 H 0.10472 0.37689 0.33931 0.0
H776 H 0.05839 0.28949 0.31045 0.0
H777 H 0.07395 0.32941 0.2975 0.0
H778 H 0.07177 0.33976 0.41523 0.0
H779 H 0.10305 0.34784 0.38818 0.0
H780 H 0.024 0.3237 0.31455 0.0
H781 H 0.03031 0.29768 0.3399 0.0
H782 H 0.00886 0.30423 0.29853 0.0
H783 H 0.01513 0.27874 0.32344 0.0
H784 H 0.02457 0.33256 0.35128 0.0
H785 H 0.04193 0.34294 0.3933 0.0
H786 H 0.00735 0.33729 0.35856 0.0
H787 H 0.02437 0.34753 0.39983 0.0
H788 H 0.00545 0.29005 0.39135 0.0
H789 H 0.98669 0.29418 0.35399 0.0
H790 H 0.04105 0.36369 0.31276 0.0
H791 H 0.04731 0.38119 0.35479 0.0
Li792 Li 0.67455 0.97727 0.38261 0.0
Li793 Li 0.65952 0.95459 0.38875 0.0
Li794 Li 0.67223 0.95887 0.36815 0.0
Li795 Li 0.65381 0.96299 0.36894 0.0
C796 C 0.68834 0.96043 0.38902 0.0
N797 N 0.7071 0.95292 0.39017 0.0
C798 C 0.68582 0.94893 0.39542 0.0
C799 C 0.70043 0.96816 0.3833 0.0
C800 C 0.69543 0.9453 0.39588 0.0
C801 C 0.70978 0.96417 0.38394 0.0
C802 C 0.65084 0.96896 0.40077 0.0
C803 C 0.63224 0.95853 0.41491 0.0
N804 N 0.63987 0.96664 0.42607 0.0
C805 C 0.65849 0.97723 0.41235 0.0
C806 C 0.6376 0.95957 0.40202 0.0
C807 C 0.65276 0.9759 0.42506 0.0
C808 C 0.68156 0.0037 0.38894 0.0
N809 N 0.68592 0.99499 0.38992 0.0
C810 C 0.70587 0.01156 0.40222 0.0
C811 C 0.6978 0.99862 0.39641 0.0
C812 C 0.70165 0.02081 0.4013 0.0
C813 C 0.68935 0.01677 0.39448 0.0
H814 H 0.67194 0.00043 0.38397 0.0
H815 H 0.70093 0.99142 0.39722 0.0
C816 C 0.64343 0.93058 0.4013 0.0
N817 N 0.6532 0.94343 0.40377 0.0
C818 C 0.63941 0.92203 0.41209 0.0
C819 C 0.65545 0.94018 0.42778 0.0
C820 C 0.6592 0.94835 0.41668 0.0
C821 C 0.64555 0.92676 0.42553 0.0
H822 H 0.639 0.92687 0.39088 0.0
H823 H 0.66709 0.95856 0.41827 0.0
C824 C 0.67831 0.9869 0.35797 0.0
N825 N 0.69234 0.01293 0.35096 0.0
C826 C 0.67173 0.99361 0.35443 0.0
C827 C 0.69202 0.99339 0.35783 0.0
C828 C 0.679 0.00678 0.35094 0.0
C829 C 0.69894 0.00656 0.3543 0.0
C830 C 0.64294 0.93752 0.36097 0.0
C831 C 0.64503 0.93368 0.34784 0.0
C832 C 0.6301 0.9331 0.3647 0.0
C833 C 0.6342 0.92554 0.33858 0.0
C834 C 0.61954 0.925 0.35514 0.0
N835 N 0.62179 0.92142 0.34239 0.0
C836 C 0.68027 0.94089 0.35955 0.0
C837 C 0.68638 0.95875 0.3451 0.0
C838 C 0.68588 0.9355 0.35092 0.0
N839 N 0.6807 0.95234 0.35655 0.0
C840 C 0.69192 0.95358 0.33604 0.0
C841 C 0.69166 0.94174 0.33884 0.0
H842 H 0.67542 0.93585 0.36856 0.0
H843 H 0.68632 0.96769 0.34281 0.0
C844 C 0.63324 0.96824 0.3646 0.0
N845 N 0.64018 0.96339 0.35825 0.0
C846 C 0.62399 0.9699 0.35688 0.0
C847 C 0.62899 0.96124 0.33628 0.0
C848 C 0.6383 0.95996 0.34437 0.0
C849 C 0.62178 0.96644 0.34248 0.0
H850 H 0.63519 0.97124 0.37559 0.0
H851 H 0.64421 0.95646 0.33952 0.0
O852 O 0.679 0.96408 0.38833 0.0
O853 O 0.65631 0.96994 0.3883 0.0
O854 O 0.6714 0.9741 0.36171 0.0
O855 O 0.65341 0.94557 0.37014 0.0
H856 H 0.6765 0.9428 0.39986 0.0
H857 H 0.70253 0.97706 0.37827 0.0
H858 H 0.69359 0.9364 0.40074 0.0
H859 H 0.71914 0.97001 0.37948 0.0
H860 H 0.62203 0.95126 0.41605 0.0
H861 H 0.66877 0.98451 0.41158 0.0
H862 H 0.63155 0.95309 0.39315 0.0
H863 H 0.65857 0.98219 0.43413 0.0
H864 H 0.71532 0.01432 0.40734 0.0
H865 H 0.68566 0.02354 0.39374 0.0
H866 H 0.63191 0.91172 0.4098 0.0
H867 H 0.66035 0.94431 0.43799 0.0
H868 H 0.66113 0.98876 0.35452 0.0
H869 H 0.69726 0.98833 0.36054 0.0
H870 H 0.67405 0.01212 0.34825 0.0
H871 H 0.70956 0.01174 0.35423 0.0
H872 H 0.65489 0.93701 0.34478 0.0
H873 H 0.62833 0.93601 0.37481 0.0
H874 H 0.63566 0.92253 0.32836 0.0
H875 H 0.60956 0.92157 0.35784 0.0
H876 H 0.68557 0.92647 0.35366 0.0
H877 H 0.69598 0.95862 0.32673 0.0
H878 H 0.61896 0.97424 0.36212 0.0
H879 H 0.62756 0.95829 0.32527 0.0
Li880 Li 0.05096 0.72102 0.35455 0.0
Li881 Li 0.02686 0.71226 0.3481 0.0
Li882 Li 0.03893 0.70372 0.33598 0.0
Li883 Li 0.04282 0.72543 0.33156 0.0
C884 C 0.03357 0.69102 0.35883 0.0
N885 N 0.02932 0.66597 0.36294 0.0
C886 C 0.02077 0.68011 0.35788 0.0
C887 C 0.04421 0.68924 0.36197 0.0
C888 C 0.01883 0.66751 0.35997 0.0
C889 C 0.04186 0.67648 0.36399 0.0
C890 C 0.03717 0.73832 0.3578 0.0
C891 C 0.02441 0.74919 0.35795 0.0
N892 N 0.02782 0.75265 0.37176 0.0
C893 C 0.04066 0.74209 0.37196 0.0
C894 C 0.02908 0.74199 0.3507 0.0
C895 C 0.03579 0.74929 0.37885 0.0
C896 C 0.07653 0.73761 0.36756 0.0
N897 N 0.06405 0.72782 0.3694 0.0
C898 C 0.06976 0.72703 0.39321 0.0
C899 C 0.0605 0.72253 0.38189 0.0
C900 C 0.08281 0.73706 0.39165 0.0
C901 C 0.08614 0.7424 0.3786 0.0
H902 H 0.07903 0.74164 0.35748 0.0
H903 H 0.05045 0.71482 0.38305 0.0
C904 C 0.99926 0.69855 0.34788 0.0
N905 N 0.01047 0.70712 0.35568 0.0
C906 C 0.98705 0.69325 0.35361 0.0
C907 C 0.99816 0.70583 0.37527 0.0
C908 C 0.01015 0.71078 0.36915 0.0
C909 C 0.98639 0.69676 0.36756 0.0
H910 H -0.00018 0.69543 0.33734 0.0
H911 H 0.01923 0.7172 0.37529 0.0
C912 C 0.06409 0.71765 0.32733 0.0
N913 N 0.07976 0.7122 0.31097 0.0
C914 C 0.06057 0.71394 0.31317 0.0
C915 C 0.07558 0.71859 0.33318 0.0
C916 C 0.06861 0.71121 0.30507 0.0
C917 C 0.08337 0.7158 0.32473 0.0
C918 C 0.01973 0.70847 0.31619 0.0
C919 C 0.02011 0.70212 0.30377 0.0
C920 C 0.01255 0.715 0.31642 0.0
C921 C 0.01345 0.70258 0.29171 0.0
C922 C 0.00602 0.71523 0.30415 0.0
N923 N 0.00661 0.70908 0.29214 0.0
C924 C 0.02386 0.67841 0.32316 0.0
C925 C 0.04622 0.68445 0.32712 0.0
C926 C 0.02072 0.66603 0.31717 0.0
N927 N 0.03645 0.68739 0.32782 0.0
C928 C 0.04357 0.67228 0.32093 0.0
C929 C 0.03068 0.66293 0.31587 0.0
H930 H 0.01622 0.68086 0.32419 0.0
H931 H 0.05603 0.69146 0.33145 0.0
C932 C 0.05289 0.75151 0.3235 0.0
N933 N 0.04756 0.73868 0.31847 0.0
C934 C 0.05745 0.76172 0.31441 0.0
C935 C 0.05077 0.7453 0.29513 0.0
C936 C 0.04642 0.73545 0.30458 0.0
C937 C 0.05651 0.75866 0.30002 0.0
H938 H 0.05388 0.75386 0.3346 0.0
H939 H 0.04246 0.72527 0.30078 0.0
O940 O 0.0357 0.70335 0.3564 0.0
O941 O 0.04181 0.73124 0.35091 0.0
O942 O 0.05635 0.72033 0.33546 0.0
O943 O 0.02614 0.70808 0.32812 0.0
H944 H 0.01244 0.68135 0.3554 0.0
H945 H 0.05419 0.69759 0.36264 0.0
H946 H 0.00898 0.65895 0.35917 0.0
H947 H 0.05 0.67492 0.36634 0.0
H948 H 0.01811 0.75205 0.35259 0.0
H949 H 0.04699 0.73939 0.37759 0.0
H950 H 0.02651 0.73936 0.33969 0.0
H951 H 0.03834 0.75221 0.38983 0.0
H952 H 0.06668 0.72279 0.40312 0.0
H953 H 0.0961 0.75006 0.37689 0.0
H954 H 0.97829 0.68609 0.34734 0.0
H955 H 0.99815 0.70892 0.38601 0.0
H956 H 0.05159 0.71291 0.30855 0.0
H957 H 0.0784 0.72136 0.34415 0.0
H958 H 0.06596 0.70825 0.29411 0.0
H959 H 0.09228 0.71646 0.32912 0.0
H960 H 0.02563 0.69704 0.30339 0.0
H961 H 0.01196 0.71976 0.326 0.0
H962 H 0.01374 0.69779 0.282 0.0
H963 H 0.00045 0.72027 0.30417 0.0
H964 H 0.01066 0.65903 0.3134 0.0
H965 H 0.05144 0.67009 0.3203 0.0
H966 H 0.06177 0.77189 0.31862 0.0
H967 H 0.05008 0.74251 0.28414 0.0
Li968 Li 0.28824 0.34719 0.38897 0.0
Li969 Li 0.29539 0.33215 0.38253 0.0
Li970 Li 0.30509 0.35319 0.37218 0.0
Li971 Li 0.28159 0.33513 0.36556 0.0
C972 C 0.30974 0.35119 0.4057 0.0
N973 N 0.31665 0.35352 0.4338 0.0
C974 C 0.30207 0.34095 0.41411 0.0
C975 C 0.32096 0.3626 0.41156 0.0
C976 C 0.30571 0.34231 0.4283 0.0
C977 C 0.32428 0.36361 0.4258 0.0
C978 C 0.26855 0.31525 0.3874 0.0
C979 C 0.25373 0.29204 0.3807 0.0
N980 N 0.25143 0.28965 0.3943 0.0
C981 C 0.26587 0.31259 0.40129 0.0
C982 C 0.2623 0.30492 0.377 0.0
C983 C 0.25726 0.29957 0.40457 0.0
C984 C 0.26936 0.34638 0.40627 0.0
N985 N 0.28228 0.35366 0.4037 0.0
C986 C 0.28637 0.36887 0.42317 0.0
C987 C 0.29077 0.36482 0.41175 0.0
C988 C 0.27312 0.36136 0.42629 0.0
C989 C 0.26454 0.35005 0.41757 0.0
H990 H 0.26284 0.33755 0.39968 0.0
H991 H 0.30099 0.37048 0.40946 0.0
C992 C 0.31432 0.32651 0.39132 0.0
N993 N 0.30105 0.3204 0.38884 0.0
C994 C 0.32022 0.31931 0.39526 0.0
C995 C 0.29867 0.29957 0.39424 0.0
C996 C 0.29318 0.30717 0.39017 0.0
C997 C 0.31239 0.30564 0.39681 0.0
H998 H 0.32038 0.33699 0.3899 0.0
H999 H 0.28271 0.30241 0.38796 0.0
C1000 C 0.29129 0.36734 0.37247 0.0
N1001 N 0.29603 0.39293 0.37671 0.0
C1002 C 0.28235 0.37071 0.36688 0.0
C1003 C 0.30263 0.37697 0.38022 0.0
C1004 C 0.28493 0.38371 0.36914 0.0
C1005 C 0.30485 0.38985 0.38225 0.0
C1006 C 0.30221 0.32695 0.35822 0.0
C1007 C 0.31563 0.33134 0.35801 0.0
C1008 C 0.29294 0.3137 0.35429 0.0
C1009 C 0.31957 0.3223 0.35411 0.0
C1010 C 0.29728 0.30496 0.35046 0.0
N1011 N 0.31039 0.3094 0.35047 0.0
C1012 C 0.3323 0.36855 0.37111 0.0
C1013 C 0.32021 0.37176 0.35302 0.0
C1014 C 0.34405 0.3763 0.36485 0.0
N1015 N 0.32072 0.36623 0.36497 0.0
C1016 C 0.33174 0.37965 0.34643 0.0
C1017 C 0.34383 0.38169 0.35215 0.0
H1018 H 0.33231 0.36378 0.38049 0.0
H1019 H 0.3108 0.3696 0.34834 0.0
C1020 C 0.25591 0.32341 0.3518 0.0
N1021 N 0.26889 0.3279 0.35033 0.0
C1022 C 0.24701 0.31876 0.34009 0.0
C1023 C 0.26505 0.32343 0.32571 0.0
C1024 C 0.27355 0.32792 0.33766 0.0
C1025 C 0.25162 0.31892 0.32681 0.0
H1026 H 0.25253 0.3236 0.36204 0.0
H1027 H 0.28393 0.3316 0.33683 0.0
O1028 O 0.30628 0.35017 0.39182 0.0
O1029 O 0.2768 0.32796 0.38396 0.0
O1030 O 0.28885 0.35464 0.37042 0.0
O1031 O 0.29816 0.33556 0.36241 0.0
H1032 H 0.29342 0.33204 0.40971 0.0
H1033 H 0.32698 0.37064 0.40518 0.0
H1034 H 0.29985 0.33446 0.43493 0.0
H1035 H 0.33292 0.3724 0.43048 0.0
H1036 H 0.24891 0.28395 0.37277 0.0
H1037 H 0.27032 0.32049 0.40945 0.0
H1038 H 0.26406 0.30679 0.36619 0.0
H1039 H 0.25516 0.29737 0.41529 0.0
H1040 H 0.29329 0.37775 0.4295 0.0
H1041 H 0.2543 0.34386 0.41967 0.0
H1042 H 0.33084 0.32438 0.3968 0.0
H1043 H 0.29223 0.28908 0.39542 0.0
H1044 H 0.27351 0.36335 0.36088 0.0
H1045 H 0.30961 0.37452 0.38472 0.0
H1046 H 0.2781 0.38646 0.36487 0.0
H1047 H 0.31358 0.3974 0.38826 0.0
H1048 H 0.32293 0.34156 0.361 0.0
H1049 H 0.28253 0.31017 0.35427 0.0
H1050 H 0.32992 0.32552 0.35402 0.0
H1051 H 0.29021 0.29465 0.34749 0.0
H1052 H 0.35308 0.37742 0.36953 0.0
H1053 H 0.33115 0.38377 0.33676 0.0
H1054 H 0.23675 0.31545 0.34136 0.0
H1055 H 0.26897 0.32355 0.3157 0.0
Li1056 Li 0.32585 0.02121 0.67477 0.0
Li1057 Li 0.34656 0.03415 0.68924 0.0
Li1058 Li 0.32777 0.03835 0.69115 0.0
Li1059 Li 0.3411 0.04538 0.67116 0.0
C1060 C 0.32156 0.00966 0.69926 0.0
N1061 N 0.30726 0.98371 0.70653 0.0
C1062 C 0.32804 0.00322 0.70413 0.0
C1063 C 0.3078 0.00295 0.69826 0.0
C1064 C 0.32063 0.99009 0.70772 0.0
C1065 C 0.30075 0.98982 0.70193 0.0
C1066 C 0.3538 0.0296 0.66197 0.0
C1067 C 0.37543 0.04044 0.65314 0.0
N1068 N 0.37335 0.02846 0.6481 0.0
C1069 C 0.35182 0.01741 0.65653 0.0
C1070 C 0.36565 0.04122 0.66013 0.0
C1071 C 0.36184 0.01703 0.64962 0.0
C1072 C 0.30411 0.0015 0.65734 0.0
N1073 N 0.31462 0.00401 0.66595 0.0
C1074 C 0.30902 0.98133 0.66323 0.0
C1075 C 0.31735 0.99431 0.66873 0.0
C1076 C 0.29799 0.9784 0.6545 0.0
C1077 C 0.29564 0.98867 0.65136 0.0
H1078 H 0.30225 0.00944 0.6552 0.0
H1079 H 0.32594 0.99665 0.67535 0.0
C1080 C 0.36377 0.03891 0.71252 0.0
N1081 N 0.35984 0.0328 0.69951 0.0
C1082 C 0.37259 0.03718 0.72099 0.0
C1083 C 0.37329 0.02308 0.70241 0.0
C1084 C 0.36441 0.02501 0.69436 0.0
C1085 C 0.37736 0.02904 0.716 0.0
H1086 H 0.35978 0.04486 0.71643 0.0
H1087 H 0.36089 0.01996 0.68417 0.0
C1088 C 0.31159 0.03802 0.67141 0.0
N1089 N 0.29174 0.04396 0.67269 0.0
C1090 C 0.3138 0.05039 0.66776 0.0
C1091 C 0.29923 0.02861 0.67554 0.0
C1092 C 0.30365 0.05322 0.66852 0.0
C1093 C 0.28934 0.03182 0.67618 0.0
C1094 C 0.35829 0.06344 0.69328 0.0
C1095 C 0.35784 0.07456 0.69837 0.0
C1096 C 0.37044 0.06466 0.69083 0.0
C1097 C 0.36953 0.08678 0.70057 0.0
C1098 C 0.38191 0.07704 0.69317 0.0
N1099 N 0.38122 0.08776 0.69793 0.0
C1100 C 0.31281 0.03532 0.71435 0.0
C1101 C 0.31989 0.05542 0.70344 0.0
C1102 C 0.3075 0.03939 0.72482 0.0
N1103 N 0.319 0.04341 0.70405 0.0
C1104 C 0.31473 0.0599 0.71372 0.0
C1105 C 0.30868 0.05196 0.72477 0.0
H1106 H 0.31237 0.0259 0.71471 0.0
H1107 H 0.32498 0.06171 0.69521 0.0
C1108 C 0.34877 0.05397 0.64448 0.0
N1109 N 0.34782 0.05812 0.65754 0.0
C1110 C 0.35296 0.06277 0.63393 0.0
C1111 C 0.35496 0.07993 0.65041 0.0
C1112 C 0.3508 0.07081 0.66065 0.0
C1113 C 0.35601 0.07594 0.63679 0.0
H1114 H 0.34609 0.04374 0.64222 0.0
H1115 H 0.34952 0.07374 0.67096 0.0
O1116 O 0.32866 0.02246 0.69551 0.0
O1117 O 0.34405 0.03011 0.66875 0.0
O1118 O 0.32147 0.03514 0.67095 0.0
O1119 O 0.34692 0.05139 0.69115 0.0
H1120 H 0.33867 0.00826 0.70507 0.0
H1121 H 0.30263 0.00779 0.6946 0.0
H1122 H 0.32552 0.98497 0.71143 0.0
H1123 H 0.2901 0.98448 0.70111 0.0
H1124 H 0.38465 0.04937 0.65167 0.0
H1125 H 0.34266 0.00832 0.65768 0.0
H1126 H 0.36723 0.05079 0.66383 0.0
H1127 H 0.36046 0.00765 0.64545 0.0
H1128 H 0.3112 0.97367 0.66573 0.0
H1129 H 0.2872 0.98672 0.64465 0.0
H1130 H 0.37529 0.04182 0.73146 0.0
H1131 H 0.37682 0.01686 0.69805 0.0
H1132 H 0.32328 0.05777 0.66448 0.0
H1133 H 0.29731 0.01894 0.67825 0.0
H1134 H 0.30526 0.06278 0.66581 0.0
H1135 H 0.27976 0.02465 0.67943 0.0
H1136 H 0.34857 0.0738 0.70052 0.0
H1137 H 0.37106 0.05612 0.68732 0.0
H1138 H 0.3693 0.09548 0.70439 0.0
H1139 H 0.39137 0.0781 0.69127 0.0
H1140 H 0.30279 0.03288 0.73306 0.0
H1141 H 0.31602 0.06973 0.71336 0.0
H1142 H 0.35372 0.05927 0.62363 0.0
H1143 H 0.3569 0.08988 0.65302 0.0
Li1144 Li 0.97538 0.28844 0.71262 0.0
Li1145 Li 0.96346 0.29697 0.72471 0.0
Li1146 Li 0.95862 0.27493 0.7281 0.0
Li1147 Li 0.95196 0.28039 0.70557 0.0
C1148 C 0.98741 0.30217 0.73784 0.0
N1149 N 0.01158 0.32364 0.74718 0.0
C1150 C 0.99264 0.31402 0.73118 0.0
C1151 C 0.99449 0.30124 0.74925 0.0
C1152 C 0.00486 0.32476 0.73605 0.0
C1153 C 0.00669 0.3122 0.75382 0.0
C1154 C 0.96829 0.30831 0.69749 0.0
C1155 C 0.95812 0.3185 0.68474 0.0
N1156 N 0.97023 0.32853 0.68199 0.0
C1157 C 0.98064 0.31867 0.69443 0.0
C1158 C 0.95693 0.30818 0.69253 0.0
C1159 C 0.98141 0.32882 0.68662 0.0
C1160 C 0.99233 0.29569 0.69133 0.0
N1161 N 0.99157 0.29296 0.70493 0.0
C1162 C 0.01432 0.29948 0.70692 0.0
C1163 C 0.00214 0.29441 0.71268 0.0
C1164 C 0.01557 0.303 0.69305 0.0
C1165 C 0.00428 0.30073 0.68514 0.0
H1166 H 0.98371 0.29431 0.68541 0.0
H1167 H 0.00123 0.29201 0.72344 0.0
C1168 C 0.9678 0.31342 0.74868 0.0
N1169 N 0.96495 0.31226 0.73471 0.0
C1170 C 0.96956 0.32445 0.75674 0.0
C1171 C 0.96512 0.33278 0.73597 0.0
C1172 C 0.96341 0.32158 0.72833 0.0
C1173 C 0.96834 0.33439 0.75036 0.0
H1174 H 0.96877 0.30576 0.75356 0.0
H1175 H 0.96092 0.32044 0.71733 0.0
C1176 C 0.96573 0.26135 0.70899 0.0
N1177 N 0.9758 0.24456 0.70952 0.0
C1178 C 0.96176 0.25121 0.69853 0.0
C1179 C 0.97483 0.26297 0.71973 0.0
C1180 C 0.96697 0.24281 0.69898 0.0
C1181 C 0.9798 0.25438 0.7198 0.0
C1182 C 0.93922 0.28537 0.73174 0.0
C1183 C 0.93909 0.28462 0.74617 0.0
C1184 C 0.93301 0.29135 0.72512 0.0
C1185 C 0.93286 0.29004 0.75378 0.0
C1186 C 0.92689 0.29666 0.7331 0.0
N1187 N 0.92696 0.29591 0.74715 0.0
C1188 C 0.9593 0.26538 0.75411 0.0
C1189 C 0.9425 0.24961 0.73788 0.0
C1190 C 0.95459 0.25648 0.76453 0.0
N1191 N 0.95313 0.26185 0.74117 0.0
C1192 C 0.93742 0.24039 0.74801 0.0
C1193 C 0.94333 0.24388 0.76163 0.0
H1194 H 0.96763 0.27525 0.75643 0.0
H1195 H 0.93772 0.24718 0.72751 0.0
C1196 C 0.94414 0.27755 0.67736 0.0
N1197 N 0.93951 0.2743 0.69016 0.0
C1198 C 0.9354 0.27392 0.66568 0.0
C1199 C 0.91728 0.26319 0.68053 0.0
C1200 C 0.92639 0.26722 0.69198 0.0
C1201 C 0.92179 0.26668 0.66721 0.0
H1202 H 0.95464 0.28315 0.67627 0.0
H1203 H 0.92303 0.2648 0.70232 0.0
O1204 O 0.9755 0.29143 0.73319 0.0
O1205 O 0.96735 0.29813 0.70485 0.0
O1206 O 0.96073 0.26965 0.70863 0.0
O1207 O 0.9456 0.28049 0.72417 0.0
H1208 H 0.98731 0.31495 0.72239 0.0
H1209 H 0.99066 0.29212 0.75448 0.0
H1210 H 0.00899 0.33399 0.73099 0.0
H1211 H 0.01228 0.31161 0.76262 0.0
H1212 H 0.94941 0.31855 0.68091 0.0
H1213 H 0.98955 0.31888 0.698 0.0
H1214 H 0.94729 0.3003 0.6948 0.0
H1215 H 0.99091 0.33691 0.68422 0.0
H1216 H 0.02276 0.30109 0.71342 0.0
H1217 H 0.00472 0.30302 0.67433 0.0
H1218 H 0.97181 0.32514 0.76784 0.0
H1219 H 0.96419 0.34024 0.73057 0.0
H1220 H 0.95473 0.24984 0.69014 0.0
H1221 H 0.97803 0.27076 0.72792 0.0
H1222 H 0.96398 0.23491 0.69095 0.0
H1223 H 0.98685 0.25552 0.72805 0.0
H1224 H 0.94389 0.28005 0.75145 0.0
H1225 H 0.93299 0.29196 0.71396 0.0
H1226 H 0.93277 0.28963 0.76497 0.0
H1227 H 0.92212 0.30139 0.72813 0.0
H1228 H 0.95956 0.25953 0.77482 0.0
H1229 H 0.92863 0.23086 0.74535 0.0
H1230 H 0.93923 0.27664 0.65554 0.0
H1231 H 0.90685 0.25765 0.68209 0.0
Li1232 Li 0.70979 0.67346 0.68069 0.0
Li1233 Li 0.70067 0.65223 0.69026 0.0
Li1234 Li 0.72307 0.6687 0.69667 0.0
Li1235 Li 0.71639 0.65733 0.67282 0.0
C1236 C 0.69713 0.67129 0.70472 0.0
N1237 N 0.67658 0.67436 0.71304 0.0
C1238 C 0.68548 0.66603 0.69625 0.0
C1239 C 0.69832 0.67815 0.71741 0.0
C1240 C 0.67521 0.66767 0.70064 0.0
C1241 C 0.68783 0.67959 0.72143 0.0
C1242 C 0.68883 0.64641 0.66213 0.0
C1243 C 0.67816 0.62534 0.64872 0.0
N1244 N 0.66814 0.62734 0.64473 0.0
C1245 C 0.67847 0.6483 0.65782 0.0
C1246 C 0.68871 0.63487 0.65749 0.0
C1247 C 0.66809 0.63852 0.64907 0.0
C1248 C 0.70183 0.68496 0.66069 0.0
N1249 N 0.70598 0.68635 0.67431 0.0
C1250 C 0.70143 0.70383 0.67868 0.0
C1251 C 0.7062 0.69578 0.68322 0.0
C1252 C 0.69648 0.70221 0.6648 0.0
C1253 C 0.69705 0.69285 0.65567 0.0
H1254 H 0.70184 0.67741 0.65384 0.0
H1255 H 0.7096 0.69671 0.694 0.0
C1256 C 0.68536 0.64042 0.71241 0.0
N1257 N 0.68514 0.63888 0.69832 0.0
C1258 C 0.67402 0.63286 0.71938 0.0
C1259 C 0.66251 0.62171 0.69734 0.0
C1260 C 0.6741 0.62949 0.69079 0.0
C1261 C 0.66229 0.62361 0.71178 0.0
H1262 H 0.69425 0.64794 0.71819 0.0
H1263 H 0.67401 0.6283 0.67967 0.0
C1264 C 0.73679 0.69011 0.68 0.0
N1265 N 0.75482 0.717 0.68334 0.0
C1266 C 0.74633 0.69614 0.67038 0.0
C1267 C 0.73642 0.69774 0.69132 0.0
C1268 C 0.75536 0.70975 0.67225 0.0
C1269 C 0.74562 0.71132 0.69283 0.0
C1270 C 0.71146 0.63858 0.69805 0.0
C1271 C 0.7135 0.63963 0.71253 0.0
C1272 C 0.70424 0.62605 0.69098 0.0
C1273 C 0.7081 0.62808 0.71974 0.0
C1274 C 0.699 0.61475 0.69857 0.0
N1275 N 0.70101 0.61599 0.71267 0.0
C1276 C 0.73405 0.67868 0.72384 0.0
C1277 C 0.74885 0.67799 0.7083 0.0
C1278 C 0.74375 0.68366 0.73476 0.0
N1279 N 0.73675 0.67593 0.71097 0.0
C1280 C 0.75885 0.6829 0.71895 0.0
C1281 C 0.75632 0.68574 0.73241 0.0
H1282 H 0.72428 0.67677 0.72566 0.0
H1283 H 0.75068 0.67569 0.69793 0.0
C1284 C 0.71813 0.65286 0.64435 0.0
N1285 N 0.72209 0.6516 0.65734 0.0
C1286 C 0.72258 0.64927 0.63268 0.0
C1287 C 0.73531 0.64342 0.64797 0.0
C1288 C 0.73045 0.64693 0.65937 0.0
C1289 C 0.73139 0.64462 0.63443 0.0
H1290 H 0.71164 0.65681 0.64309 0.0
H1291 H 0.73349 0.64615 0.66984 0.0
O1292 O 0.70736 0.66981 0.70068 0.0
O1293 O 0.69915 0.65599 0.67056 0.0
O1294 O 0.7279 0.67679 0.67828 0.0
O1295 O 0.7164 0.64978 0.69086 0.0
H1296 H 0.68435 0.66071 0.68642 0.0
H1297 H 0.70728 0.68237 0.72408 0.0
H1298 H 0.66614 0.66361 0.69418 0.0
H1299 H 0.68863 0.68488 0.73123 0.0
H1300 H 0.67792 0.61634 0.64509 0.0
H1301 H 0.67844 0.65722 0.6612 0.0
H1302 H 0.69662 0.63324 0.66068 0.0
H1303 H 0.65999 0.63983 0.64569 0.0
H1304 H 0.70111 0.71084 0.68611 0.0
H1305 H 0.6936 0.69144 0.64483 0.0
H1306 H 0.67437 0.63449 0.73056 0.0
H1307 H 0.65368 0.61476 0.69104 0.0
H1308 H 0.74674 0.69035 0.66156 0.0
H1309 H 0.72912 0.69325 0.69888 0.0
H1310 H 0.7628 0.71456 0.66489 0.0
H1311 H 0.74544 0.71735 0.70154 0.0
H1312 H 0.71906 0.64925 0.71816 0.0
H1313 H 0.70267 0.62506 0.67978 0.0
H1314 H 0.70952 0.62875 0.73096 0.0
H1315 H 0.69333 0.60499 0.69324 0.0
H1316 H 0.74132 0.68549 0.74502 0.0
H1317 H 0.76843 0.68444 0.71669 0.0
H1318 H 0.71949 0.65051 0.6224 0.0
H1319 H 0.74208 0.63985 0.64971 0.0
Li1320 Li 0.3428 0.31297 0.71723 0.0
Li1321 Li 0.32576 0.28996 0.71996 0.0
Li1322 Li 0.3389 0.29569 0.69889 0.0
Li1323 Li 0.32178 0.30153 0.70189 0.0
C1324 C 0.35748 0.30075 0.72356 0.0
N1325 N 0.3827 0.30775 0.73306 0.0
C1326 C 0.35976 0.29741 0.73671 0.0
C1327 C 0.368 0.30751 0.71518 0.0
C1328 C 0.37259 0.30108 0.74135 0.0
C1329 C 0.38068 0.311 0.72018 0.0
C1330 C 0.31808 0.3048 0.73414 0.0
C1331 C 0.29811 0.2954 0.74625 0.0
N1332 N 0.30531 0.30167 0.75837 0.0
C1333 C 0.32528 0.31126 0.74667 0.0
C1334 C 0.30439 0.29691 0.73388 0.0
C1335 C 0.31864 0.30951 0.75882 0.0
C1336 C 0.35509 0.34031 0.72106 0.0
N1337 N 0.3551 0.3297 0.72629 0.0
C1338 C 0.3713 0.3437 0.74429 0.0
C1339 C 0.36292 0.33113 0.73771 0.0
C1340 C 0.37151 0.35487 0.73912 0.0
C1341 C 0.36327 0.35304 0.72731 0.0
H1342 H 0.34856 0.33883 0.71212 0.0
H1343 H 0.36251 0.32252 0.7419 0.0
C1344 C 0.30884 0.26438 0.72898 0.0
N1345 N 0.31815 0.27705 0.73327 0.0
C1346 C 0.30386 0.25456 0.7385 0.0
C1347 C 0.31797 0.27109 0.7567 0.0
C1348 C 0.32277 0.28054 0.74681 0.0
C1349 C 0.30849 0.25787 0.75255 0.0
H1350 H 0.30551 0.26181 0.71811 0.0
H1351 H 0.33043 0.29061 0.74987 0.0
C1352 C 0.34796 0.32079 0.68703 0.0
N1353 N 0.36382 0.33674 0.66726 0.0
C1354 C 0.34243 0.3211 0.67407 0.0
C1355 C 0.36154 0.32879 0.69001 0.0
C1356 C 0.35062 0.32917 0.66419 0.0
C1357 C 0.3694 0.33673 0.67986 0.0
C1358 C 0.30854 0.27595 0.69172 0.0
C1359 C 0.3094 0.27173 0.67823 0.0
C1360 C 0.29621 0.27238 0.69651 0.0
C1361 C 0.2979 0.26416 0.66966 0.0
C1362 C 0.28494 0.26482 0.68761 0.0
N1363 N 0.28601 0.26091 0.67448 0.0
C1364 C 0.35182 0.28217 0.69026 0.0
C1365 C 0.34664 0.29227 0.67222 0.0
C1366 C 0.35718 0.27708 0.68088 0.0
N1367 N 0.34676 0.28967 0.68581 0.0
C1368 C 0.3519 0.2874 0.66248 0.0
C1369 C 0.35722 0.27964 0.66676 0.0
H1370 H 0.35157 0.28003 0.70109 0.0
H1371 H 0.34212 0.29781 0.66883 0.0
C1372 C 0.30639 0.31328 0.69942 0.0
N1373 N 0.30958 0.30508 0.69243 0.0
C1374 C 0.29867 0.31761 0.69275 0.0
C1375 C 0.29734 0.30465 0.6719 0.0
C1376 C 0.30525 0.30073 0.67893 0.0
C1377 C 0.29416 0.31337 0.67878 0.0
H1378 H 0.31017 0.31678 0.71008 0.0
H1379 H 0.3083 0.29462 0.67344 0.0
O1380 O 0.34498 0.29727 0.71891 0.0
O1381 O 0.32441 0.30629 0.72217 0.0
O1382 O 0.34006 0.31304 0.69687 0.0
O1383 O 0.31969 0.2834 0.70024 0.0
H1384 H 0.35172 0.29209 0.74329 0.0
H1385 H 0.36637 0.3099 0.70487 0.0
H1386 H 0.37451 0.29862 0.75153 0.0
H1387 H 0.38891 0.31625 0.71381 0.0
H1388 H 0.28752 0.28927 0.74622 0.0
H1389 H 0.33588 0.31745 0.74704 0.0
H1390 H 0.29867 0.29201 0.72423 0.0
H1391 H 0.32409 0.31438 0.76862 0.0
H1392 H 0.37753 0.34465 0.75332 0.0
H1393 H 0.36291 0.3613 0.72312 0.0
H1394 H 0.29653 0.24448 0.7349 0.0
H1395 H 0.32197 0.274 0.76739 0.0
H1396 H 0.33194 0.31509 0.67163 0.0
H1397 H 0.36597 0.32899 0.7001 0.0
H1398 H 0.34647 0.32942 0.65409 0.0
H1399 H 0.37992 0.34294 0.68203 0.0
H1400 H 0.31885 0.27431 0.6744 0.0
H1401 H 0.29537 0.27545 0.70696 0.0
H1402 H 0.29842 0.26089 0.65917 0.0
H1403 H 0.27534 0.26205 0.69115 0.0
H1404 H 0.36122 0.27119 0.68464 0.0
H1405 H 0.35143 0.28935 0.65165 0.0
H1406 H 0.29638 0.3243 0.6984 0.0
H1407 H 0.2942 0.30135 0.66106 0.0
Li1408 Li 0.6964 0.03973 0.67373 0.0
Li1409 Li 0.71785 0.04402 0.68088 0.0
Li1410 Li 0.71356 0.05134 0.65833 0.0
Li1411 Li 0.70468 0.02755 0.66199 0.0
C1412 C 0.71082 0.06541 0.68636 0.0
N1413 N 0.70693 0.08176 0.70457 0.0
C1414 C 0.70758 0.06189 0.69994 0.0
C1415 C 0.71209 0.07723 0.68202 0.0
C1416 C 0.70564 0.07029 0.709 0.0
C1417 C 0.71008 0.08537 0.6914 0.0
C1418 C 0.70315 0.01811 0.68783 0.0
C1419 C 0.71636 0.00792 0.69123 0.0
N1420 N 0.70758 0.99962 0.70002 0.0
C1421 C 0.69427 0.00946 0.69689 0.0
C1422 C 0.7143 0.01734 0.68496 0.0
C1423 C 0.69668 0.00019 0.70295 0.0
C1424 C 0.67145 0.02457 0.68263 0.0
N1425 N 0.68037 0.03735 0.68038 0.0
C1426 C 0.66586 0.04454 0.68825 0.0
C1427 C 0.67768 0.04725 0.68274 0.0
C1428 C 0.65658 0.03145 0.69108 0.0
C1429 C 0.65943 0.02136 0.68789 0.0
H1430 H 0.67371 0.01684 0.68032 0.0
H1431 H 0.68471 0.05728 0.68045 0.0
C1432 C 0.74322 0.05669 0.69525 0.0
N1433 N 0.73007 0.04878 0.69648 0.0
C1434 C 0.752 0.0608 0.70704 0.0
C1435 C 0.73352 0.04835 0.72096 0.0
C1436 C 0.72515 0.04448 0.70897 0.0
C1437 C 0.74713 0.05678 0.72014 0.0
H1438 H 0.74685 0.06002 0.68518 0.0
H1439 H 0.71466 0.03822 0.70967 0.0
C1440 C 0.68495 0.03703 0.64933 0.0
N1441 N 0.66298 0.03878 0.64234 0.0
C1442 C 0.67286 0.02552 0.64574 0.0
C1443 C 0.68589 0.04943 0.64931 0.0
C1444 C 0.66186 0.02662 0.64226 0.0
C1445 C 0.67466 0.0501 0.64575 0.0
C1446 C 0.7297 0.04152 0.6505 0.0
C1447 C 0.72259 0.03743 0.63756 0.0
C1448 C 0.74302 0.04537 0.65137 0.0
C1449 C 0.72896 0.03723 0.6257 0.0
C1450 C 0.74902 0.04502 0.63926 0.0
N1451 N 0.74193 0.04101 0.62678 0.0
C1452 C 0.7312 0.07667 0.64918 0.0
C1453 C 0.7152 0.06131 0.63204 0.0
C1454 C 0.73672 0.08625 0.63944 0.0
N1455 N 0.72068 0.0645 0.64529 0.0
C1456 C 0.72044 0.07052 0.62197 0.0
C1457 C 0.73139 0.08315 0.6256 0.0
H1458 H 0.73536 0.07888 0.65981 0.0
H1459 H 0.70681 0.05155 0.62926 0.0
C1460 C 0.68628 0.0015 0.6546 0.0
N1461 N 0.69931 0.01034 0.65393 0.0
C1462 C 0.68088 0.98846 0.6491 0.0
C1463 C 0.7025 0.99374 0.64254 0.0
C1464 C 0.70752 0.00668 0.64832 0.0
C1465 C 0.689 0.98448 0.64285 0.0
H1466 H 0.68009 0.00461 0.6595 0.0
H1467 H 0.71794 0.01371 0.64838 0.0
O1468 O 0.71268 0.05731 0.67727 0.0
O1469 O 0.70081 0.02718 0.6818 0.0
O1470 O 0.69577 0.03618 0.65317 0.0
O1471 O 0.72377 0.04203 0.66226 0.0
H1472 H 0.70632 0.05266 0.70336 0.0
H1473 H 0.71454 0.08005 0.67151 0.0
H1474 H 0.70306 0.06766 0.71952 0.0
H1475 H 0.71101 0.09454 0.68819 0.0
H1476 H 0.72493 0.00722 0.68911 0.0
H1477 H 0.68559 0.00993 0.69921 0.0
H1478 H 0.7213 0.02391 0.67799 0.0
H1479 H 0.68989 0.99344 0.70999 0.0
H1480 H 0.66417 0.05267 0.69056 0.0
H1481 H 0.65247 0.01107 0.68947 0.0
H1482 H 0.76242 0.06738 0.70597 0.0
H1483 H 0.72936 0.04484 0.73081 0.0
H1484 H 0.67195 0.01585 0.64568 0.0
H1485 H 0.69513 0.05842 0.65225 0.0
H1486 H 0.65242 0.01779 0.63951 0.0
H1487 H 0.67522 0.05962 0.64578 0.0
H1488 H 0.71226 0.03433 0.63669 0.0
H1489 H 0.74866 0.04859 0.6613 0.0
H1490 H 0.72357 0.03407 0.61563 0.0
H1491 H 0.75933 0.04797 0.63978 0.0
H1492 H 0.74523 0.09584 0.64262 0.0
H1493 H 0.71594 0.06779 0.61146 0.0
H1494 H 0.67042 0.98163 0.64954 0.0
H1495 H 0.70912 0.99096 0.63804 0.0
Li1496 Li 0.95065 0.6822 0.72012 0.0
Li1497 Li 0.95352 0.66378 0.71259 0.0
Li1498 Li 0.9668 0.6857 0.70282 0.0
Li1499 Li 0.94337 0.67106 0.69593 0.0
C1500 C 0.976 0.69002 0.73224 0.0
N1501 N 0.99476 0.70832 0.7519 0.0
C1502 C 0.97931 0.68578 0.74428 0.0
C1503 C 0.98241 0.70356 0.73011 0.0
C1504 C 0.98876 0.69518 0.75413 0.0
C1505 C 0.99182 0.71266 0.74018 0.0
C1506 C 0.92959 0.65203 0.72029 0.0
C1507 C 0.91703 0.6281 0.71911 0.0
N1508 N 0.91594 0.62851 0.73309 0.0
C1509 C 0.92826 0.65222 0.73463 0.0
C1510 C 0.92385 0.63988 0.71243 0.0
C1511 C 0.92135 0.64022 0.74091 0.0
C1512 C 0.93856 0.6952 0.73234 0.0
N1513 N 0.94618 0.68981 0.73517 0.0
C1514 C 0.94543 0.69338 0.75962 0.0
C1515 C 0.94972 0.6889 0.74847 0.0
C1516 C 0.93735 0.69879 0.75704 0.0
C1517 C 0.93409 0.69986 0.74316 0.0
H1518 H 0.93573 0.69562 0.72165 0.0
H1519 H 0.95541 0.68418 0.75045 0.0
C1520 C 0.95562 0.6407 0.70995 0.0
N1521 N 0.95457 0.64925 0.71907 0.0
C1522 C 0.95783 0.63089 0.71484 0.0
C1523 C 0.9577 0.63879 0.73839 0.0
C1524 C 0.95533 0.64833 0.73304 0.0
C1525 C 0.9592 0.63007 0.72923 0.0
H1526 H 0.95517 0.64178 0.69891 0.0
H1527 H 0.95441 0.65525 0.74002 0.0
C1528 C 0.95645 0.70308 0.69898 0.0
N1529 N 0.96363 0.72873 0.69305 0.0
C1530 C 0.95428 0.70586 0.68549 0.0
C1531 C 0.96202 0.71333 0.70951 0.0
C1532 C 0.95805 0.71889 0.68269 0.0
C1533 C 0.96565 0.72623 0.70629 0.0
C1534 C 0.95611 0.66271 0.6797 0.0
C1535 C 0.96449 0.67039 0.66971 0.0
C1536 C 0.94568 0.64993 0.67577 0.0
C1537 C 0.96216 0.66522 0.65591 0.0
C1538 C 0.94366 0.64513 0.66186 0.0
N1539 N 0.95187 0.65281 0.65229 0.0
C1540 C 0.99343 0.69504 0.7014 0.0
C1541 C 0.9859 0.706 0.6868 0.0
C1542 C 0.00591 0.70183 0.69631 0.0
N1543 N 0.98373 0.69714 0.69652 0.0
C1544 C 0.99823 0.71297 0.68135 0.0
C1545 C 0.00836 0.71075 0.68596 0.0
H1546 H 0.99134 0.68774 0.70895 0.0
H1547 H 0.97798 0.70728 0.68284 0.0
C1548 C 0.91753 0.65714 0.68298 0.0
N1549 N 0.93039 0.66568 0.68091 0.0
C1550 C 0.90794 0.65296 0.67197 0.0
C1551 C 0.92504 0.66652 0.65698 0.0
C1552 C 0.93426 0.67043 0.66825 0.0
C1553 C 0.91166 0.65769 0.65876 0.0
H1554 H 0.9147 0.6536 0.69318 0.0
H1555 H 0.94454 0.67718 0.66687 0.0
O1556 O 0.96676 0.6809 0.72249 0.0
O1557 O 0.93656 0.66366 0.71399 0.0
O1558 O 0.95266 0.69032 0.70191 0.0
O1559 O 0.95817 0.66766 0.69326 0.0
H1560 H 0.97462 0.67534 0.74605 0.0
H1561 H 0.98033 0.70702 0.72069 0.0
H1562 H 0.99135 0.69203 0.76353 0.0
H1563 H 0.99684 0.72317 0.73865 0.0
H1564 H 0.91262 0.61862 0.71317 0.0
H1565 H 0.93259 0.66151 0.74086 0.0
H1566 H 0.92472 0.63955 0.70132 0.0
H1567 H 0.92031 0.64022 0.75201 0.0
H1568 H 0.94795 0.69208 0.77012 0.0
H1569 H 0.92797 0.70405 0.74069 0.0
H1570 H 0.95906 0.6244 0.70749 0.0
H1571 H 0.95859 0.63837 0.74956 0.0
H1572 H 0.94981 0.69808 0.67724 0.0
H1573 H 0.96341 0.71137 0.7201 0.0
H1574 H 0.95652 0.72118 0.67227 0.0
H1575 H 0.97002 0.73425 0.71435 0.0
H1576 H 0.97266 0.68025 0.67255 0.0
H1577 H 0.93911 0.64384 0.68334 0.0
H1578 H 0.96853 0.67108 0.64806 0.0
H1579 H 0.93556 0.6353 0.65866 0.0
H1580 H 0.01338 0.69967 0.69998 0.0
H1581 H -0.00026 0.71981 0.67342 0.0
H1582 H 0.89772 0.64627 0.67384 0.0
H1583 H 0.92839 0.67026 0.64694 0.0
H1584 H 0.16039 0.31877 0.05578 0.0
H1585 H 0.22424 0.27487 0.16382 0.0
H1586 H 0.15342 0.31756 0.13095 0.0
H1587 H 0.13713 0.32261 0.12142 0.0
H1588 H 0.10696 0.28132 0.12223 0.0
H1589 H 0.12353 0.27632 0.1316 0.0
H1590 H 0.17388 0.31764 0.11451 0.0
H1591 H 0.17133 0.32193 0.0903 0.0
H1592 H 0.13854 0.28177 0.08289 0.0
H1593 H 0.14131 0.27758 0.1071 0.0
H1594 H 0.19428 0.31579 0.13548 0.0
H1595 H 0.21238 0.32339 0.12025 0.0
H1596 H 0.18908 0.28839 0.09244 0.0
H1597 H 0.1711 0.28055 0.1082 0.0
H1598 H 0.19258 0.30872 0.1634 0.0
H1599 H 0.21133 0.30672 0.17166 0.0
H1600 H 0.19517 0.26931 0.14731 0.0
H1601 H 0.17637 0.27134 0.13929 0.0
H1602 H 0.16938 0.30981 0.17541 0.0
H1603 H 0.17735 0.31081 0.19943 0.0
H1604 H 0.16966 0.27068 0.19305 0.0
H1605 H 0.1614 0.26965 0.16898 0.0
H1606 H 0.14842 0.31198 0.15951 0.0
H1607 H 0.13468 0.31244 0.17757 0.0
H1608 H 0.1206 0.27105 0.18346 0.0
H1609 H 0.13402 0.27057 0.16488 0.0
O1610 O 0.16127 0.31684 0.0653 0.0
O1611 O 0.14444 0.29612 0.06204 0.0
O1612 O 0.22477 0.29514 0.17313 0.0
O1613 O 0.21692 0.2759 0.16074 0.0
C1614 C 0.14996 0.29364 0.13659 0.0
C1615 C 0.15932 0.29466 0.12723 0.0
C1616 C 0.17029 0.29376 0.13201 0.0
C1617 C 0.17155 0.29117 0.14599 0.0
C1618 C 0.16216 0.29011 0.15537 0.0
C1619 C 0.15135 0.29135 0.15066 0.0
C1620 C 0.13964 0.29657 0.13189 0.0
C1621 C 0.14327 0.30962 0.12916 0.0
C1622 C 0.13392 0.3125 0.12382 0.0
C1623 C 0.12074 0.30237 0.1211 0.0
C1624 C 0.11706 0.28931 0.12412 0.0
C1625 C 0.12646 0.28644 0.12953 0.0
C1626 C 0.15786 0.29726 0.1125 0.0
C1627 C 0.16623 0.30975 0.1076 0.0
C1628 C 0.16471 0.31219 0.09379 0.0
C1629 C 0.15474 0.30218 0.08464 0.0
C1630 C 0.14633 0.28969 0.08964 0.0
C1631 C 0.14789 0.28726 0.10345 0.0
C1632 C 0.18143 0.29757 0.12301 0.0
C1633 C 0.19316 0.30963 0.12624 0.0
C1634 C 0.20342 0.31405 0.1174 0.0
C1635 C 0.20211 0.30658 0.10503 0.0
C1636 C 0.19042 0.29433 0.10193 0.0
C1637 C 0.18014 0.28986 0.11087 0.0
C1638 C 0.18304 0.29008 0.15089 0.0
C1639 C 0.19306 0.30005 0.15996 0.0
C1640 C 0.20378 0.29891 0.16461 0.0
C1641 C 0.20473 0.28783 0.16017 0.0
C1642 C 0.19473 0.27795 0.15096 0.0
C1643 C 0.18399 0.27908 0.14635 0.0
C1644 C 0.1648 0.28965 0.17047 0.0
C1645 C 0.16905 0.30109 0.17931 0.0
C1646 C 0.17372 0.3017 0.19297 0.0
C1647 C 0.17426 0.29088 0.19804 0.0
C1648 C 0.16928 0.27913 0.18943 0.0
C1649 C 0.1646 0.27854 0.1757 0.0
C1650 C 0.14211 0.29121 0.16077 0.0
C1651 C 0.14212 0.30293 0.16445 0.0
C1652 C 0.1344 0.30321 0.17492 0.0
C1653 C 0.12663 0.29181 0.18204 0.0
C1654 C 0.12637 0.27996 0.17808 0.0
C1655 C 0.13406 0.27968 0.16753 0.0
C1656 C 0.15313 0.30481 0.06998 0.0
C1657 C 0.21609 0.28656 0.1651 0.0
H1658 H 0.68796 0.84883 0.07608 0.0
H1659 H 0.74331 0.95419 0.1948 0.0
H1660 H 0.68992 0.83997 0.14925 0.0
H1661 H 0.68189 0.81729 0.13988 0.0
H1662 H 0.7204 0.82239 0.14877 0.0
H1663 H 0.72852 0.84537 0.15789 0.0
H1664 H 0.69158 0.86175 0.13593 0.0
H1665 H 0.68646 0.85603 0.11091 0.0
H1666 H 0.72429 0.85903 0.10718 0.0
H1667 H 0.72934 0.86491 0.13221 0.0
H1668 H 0.69564 0.88302 0.15984 0.0
H1669 H 0.68842 0.89521 0.14569 0.0
H1670 H 0.7215 0.90662 0.12036 0.0
H1671 H 0.72875 0.89428 0.13478 0.0
H1672 H 0.70475 0.88825 0.18823 0.0
H1673 H 0.70922 0.90983 0.19812 0.0
H1674 H 0.74523 0.92908 0.17679 0.0
H1675 H 0.74072 0.9074 0.16712 0.0
H1676 H 0.70178 0.86247 0.19835 0.0
H1677 H 0.70285 0.86966 0.22265 0.0
H1678 H 0.74374 0.89969 0.22019 0.0
H1679 H 0.74246 0.89246 0.19564 0.0
H1680 H 0.69607 0.83841 0.1804 0.0
H1681 H 0.69515 0.82194 0.19582 0.0
H1682 H 0.73724 0.84579 0.20482 0.0
H1683 H 0.73806 0.86225 0.18926 0.0
O1684 O 0.69021 0.85116 0.08596 0.0
O1685 O 0.70974 0.85277 0.08461 0.0
O1686 O 0.72277 0.93513 0.20191 0.0
O1687 O 0.74132 0.94552 0.19107 0.0
C1688 C 0.71443 0.85811 0.15979 0.0
C1689 C 0.71405 0.86735 0.15105 0.0
C1690 C 0.71635 0.87968 0.15684 0.0
C1691 C 0.71989 0.88315 0.17119 0.0
C1692 C 0.72042 0.87398 0.17993 0.0
C1693 C 0.71759 0.86142 0.17424 0.0
C1694 C 0.70986 0.84439 0.15402 0.0
C1695 C 0.6967 0.83629 0.14897 0.0
C1696 C 0.69212 0.82334 0.14366 0.0
C1697 C 0.70056 0.81815 0.14351 0.0
C1698 C 0.7137 0.82618 0.1488 0.0
C1699 C 0.71835 0.83926 0.15395 0.0
C1700 C 0.7109 0.8639 0.13584 0.0
C1701 C 0.69879 0.86129 0.12967 0.0
C1702 C 0.69587 0.85797 0.11538 0.0
C1703 C 0.70498 0.85711 0.10703 0.0
C1704 C 0.71707 0.85964 0.1133 0.0
C1705 C 0.71998 0.86299 0.12758 0.0
C1706 C 0.71281 0.88792 0.14845 0.0
C1707 C 0.70148 0.88835 0.1514 0.0
C1708 C 0.69738 0.89532 0.1433 0.0
C1709 C 0.70447 0.90198 0.132 0.0
C1710 C 0.71585 0.90155 0.12901 0.0
C1711 C 0.72003 0.8946 0.13724 0.0
C1712 C 0.7225 0.89626 0.17711 0.0
C1713 C 0.71365 0.89713 0.18581 0.0
C1714 C 0.7162 0.90947 0.19139 0.0
C1715 C 0.72761 0.92119 0.18828 0.0
C1716 C 0.73637 0.92026 0.17943 0.0
C1717 C 0.73383 0.9079 0.17389 0.0
C1718 C 0.72205 0.87691 0.19525 0.0
C1719 C 0.71108 0.87033 0.20316 0.0
C1720 C 0.71173 0.87447 0.21708 0.0
C1721 C 0.72338 0.8853 0.22339 0.0
C1722 C 0.73458 0.89143 0.2156 0.0
C1723 C 0.73391 0.88726 0.20163 0.0
C1724 C 0.71715 0.85144 0.18359 0.0
C1725 C 0.70511 0.84001 0.18557 0.0
C1726 C 0.70461 0.8306 0.19436 0.0
C1727 C 0.71615 0.83253 0.20144 0.0
C1728 C 0.72819 0.84407 0.19954 0.0
C1729 C 0.72869 0.85345 0.19065 0.0
C1730 C 0.70184 0.85356 0.09186 0.0
C1731 C 0.73037 0.93433 0.19419 0.0
H1732 H 0.14771 0.84722 0.06638 0.0
H1733 H 0.24572 0.94444 0.17951 0.0
H1734 H 0.13279 0.85757 0.13546 0.0
H1735 H 0.11464 0.83574 0.12651 0.0
H1736 H 0.13035 0.81688 0.15222 0.0
H1737 H 0.14843 0.83868 0.16104 0.0
H1738 H 0.15738 0.87798 0.11932 0.0
H1739 H 0.15285 0.86799 0.09548 0.0
H1740 H 0.1584 0.8365 0.10985 0.0
H1741 H 0.16307 0.84669 0.13362 0.0
H1742 H 0.18167 0.90193 0.13041 0.0
H1743 H 0.19935 0.91112 0.11417 0.0
H1744 H 0.20931 0.88144 0.12407 0.0
H1745 H 0.19157 0.87221 0.14001 0.0
H1746 H 0.18066 0.91108 0.16507 0.0
H1747 H 0.20102 0.93204 0.17163 0.0
H1748 H 0.22286 0.91145 0.17044 0.0
H1749 H 0.2024 0.89055 0.16403 0.0
H1750 H 0.1589 0.89318 0.18565 0.0
H1751 H 0.16512 0.90185 0.21014 0.0
H1752 H 0.19254 0.88764 0.2121 0.0
H1753 H 0.18633 0.8791 0.18777 0.0
H1754 H 0.13218 0.86448 0.16956 0.0
H1755 H 0.11705 0.85245 0.18744 0.0
H1756 H 0.14575 0.84386 0.20562 0.0
H1757 H 0.16071 0.85581 0.18775 0.0
O1758 O 0.1496 0.85104 0.07587 0.0
O1759 O 0.1525 0.83504 0.08379 0.0
O1760 O 0.22583 0.9464 0.17746 0.0
O1761 O 0.23752 0.9363 0.17694 0.0
C1762 C 0.1539 0.86273 0.15273 0.0
C1763 C 0.16309 0.86907 0.14263 0.0
C1764 C 0.17504 0.88093 0.14638 0.0
C1765 C 0.17768 0.8867 0.1601 0.0
C1766 C 0.16862 0.88029 0.17026 0.0
C1767 C 0.15673 0.86828 0.16661 0.0
C1768 C 0.14189 0.84969 0.14892 0.0
C1769 C 0.13215 0.84871 0.13932 0.0
C1770 C 0.12187 0.83626 0.13417 0.0
C1771 C 0.12111 0.82461 0.13862 0.0
C1772 C 0.13057 0.82566 0.14872 0.0
C1773 C 0.14089 0.83811 0.15378 0.0
C1774 C 0.16049 0.86302 0.12817 0.0
C1775 C 0.15766 0.86895 0.11727 0.0
C1776 C 0.15505 0.86321 0.10368 0.0
C1777 C 0.15523 0.85142 0.10076 0.0
C1778 C 0.15815 0.84555 0.11174 0.0
C1779 C 0.1608 0.85133 0.12532 0.0
C1780 C 0.18541 0.88644 0.13634 0.0
C1781 C 0.18765 0.8974 0.12897 0.0
C1782 C 0.19767 0.90259 0.11972 0.0
C1783 C 0.20568 0.89699 0.11796 0.0
C1784 C 0.20334 0.88599 0.12535 0.0
C1785 C 0.19322 0.8807 0.13438 0.0
C1786 C 0.1901 0.89936 0.16396 0.0
C1787 C 0.18986 0.91114 0.16622 0.0
C1788 C 0.2015 0.92308 0.16996 0.0
C1789 C 0.21358 0.92342 0.17152 0.0
C1790 C 0.21374 0.91155 0.16928 0.0
C1791 C 0.20209 0.89961 0.16557 0.0
C1792 C 0.1722 0.88556 0.185 0.0
C1793 C 0.16624 0.89197 0.19142 0.0
C1794 C 0.16981 0.89692 0.20533 0.0
C1795 C 0.17925 0.89534 0.21301 0.0
C1796 C 0.18512 0.88885 0.20649 0.0
C1797 C 0.18166 0.88405 0.1926 0.0
C1798 C 0.14759 0.86114 0.17747 0.0
C1799 C 0.13517 0.86001 0.17744 0.0
C1800 C 0.12655 0.85312 0.18762 0.0
C1801 C 0.13026 0.8473 0.198 0.0
C1802 C 0.14271 0.84845 0.19793 0.0
C1803 C 0.15126 0.85525 0.18773 0.0
C1804 C 0.15237 0.84531 0.08632 0.0
C1805 C 0.22598 0.93609 0.17549 0.0
H1806 H 0.28829 0.16299 0.98776 0.0
H1807 H 0.29846 0.06438 0.89053 0.0
H1808 H 0.27439 0.15594 0.91358 0.0
H1809 H 0.27962 0.17871 0.9197 0.0
H1810 H 0.31777 0.19361 0.903 0.0
H1811 H 0.31228 0.17094 0.89664 0.0
H1812 H 0.27354 0.13292 0.93369 0.0
H1813 H 0.27604 0.14271 0.95733 0.0
H1814 H 0.31568 0.17332 0.95009 0.0
H1815 H 0.31309 0.16333 0.92654 0.0
H1816 H 0.274 0.1059 0.923 0.0
H1817 H 0.2795 0.09455 0.94055 0.0
H1818 H 0.31955 0.12753 0.94464 0.0
H1819 H 0.31394 0.13876 0.92725 0.0
H1820 H 0.2684 0.09977 0.8888 0.0
H1821 H 0.26755 0.07853 0.88485 0.0
H1822 H 0.30871 0.09739 0.89879 0.0
H1823 H 0.30946 0.11858 0.9025 0.0
H1824 H 0.26878 0.1191 0.86605 0.0
H1825 H 0.26888 0.10856 0.84345 0.0
H1826 H 0.30921 0.1192 0.85328 0.0
H1827 H 0.30903 0.12966 0.87564 0.0
H1828 H 0.26976 0.14772 0.88166 0.0
H1829 H 0.26924 0.16098 0.86287 0.0
H1830 H 0.30646 0.16676 0.85029 0.0
H1831 H 0.30701 0.15368 0.86922 0.0
O1832 O 0.28753 0.15925 0.97839 0.0
O1833 O 0.30782 0.17481 0.97411 0.0
O1834 O 0.27741 0.06345 0.88479 0.0
O1835 O 0.29853 0.07265 0.89197 0.0
C1836 C 0.29062 0.14817 0.90245 0.0
C1837 C 0.29143 0.14151 0.91402 0.0
C1838 C 0.29094 0.12926 0.91193 0.0
C1839 C 0.2894 0.12355 0.89829 0.0
C1840 C 0.28866 0.13024 0.88671 0.0
C1841 C 0.2891 0.14248 0.88879 0.0
C1842 C 0.29296 0.16183 0.90466 0.0
C1843 C 0.28376 0.16417 0.91104 0.0
C1844 C 0.28682 0.17717 0.91461 0.0
C1845 C 0.29915 0.18801 0.91191 0.0
C1846 C 0.30811 0.18556 0.90505 0.0
C1847 C 0.30502 0.1726 0.90143 0.0
C1848 C 0.29308 0.14748 0.92838 0.0
C1849 C 0.28275 0.14173 0.93725 0.0
C1850 C 0.28421 0.14735 0.95074 0.0
C1851 C 0.29604 0.15883 0.95559 0.0
C1852 C 0.30642 0.16451 0.94667 0.0
C1853 C 0.30495 0.15886 0.9332 0.0
C1854 C 0.29357 0.12314 0.92388 0.0
C1855 C 0.28388 0.11074 0.92791 0.0
C1856 C 0.28706 0.10427 0.93786 0.0
C1857 C 0.29998 0.11012 0.94395 0.0
C1858 C 0.30947 0.12283 0.94032 0.0
C1859 C 0.3063 0.12926 0.93037 0.0
C1860 C 0.28895 0.11067 0.89604 0.0
C1861 C 0.27721 0.09928 0.89099 0.0
C1862 C 0.27676 0.08717 0.88876 0.0
C1863 C 0.28806 0.08626 0.89155 0.0
C1864 C 0.29982 0.09773 0.89657 0.0
C1865 C 0.30027 0.10984 0.89876 0.0
C1866 C 0.28885 0.12499 0.87251 0.0
C1867 C 0.27765 0.11927 0.8632 0.0
C1868 C 0.27774 0.11329 0.85033 0.0
C1869 C 0.289 0.1129 0.84673 0.0
C1870 C 0.30032 0.11912 0.8559 0.0
C1871 C 0.30025 0.12513 0.86863 0.0
C1872 C 0.28837 0.14964 0.87673 0.0
C1873 C 0.27775 0.15177 0.87477 0.0
C1874 C 0.27749 0.15937 0.8641 0.0
C1875 C 0.2878 0.16488 0.85512 0.0
C1876 C 0.29829 0.16249 0.85693 0.0
C1877 C 0.29861 0.15501 0.86771 0.0
C1878 C 0.29754 0.16481 0.9699 0.0
C1879 C 0.28762 0.07342 0.88922 0.0
H1880 H 0.84367 0.15177 0.99671 0.0
H1881 H 0.77278 0.04165 0.88328 0.0
H1882 H 0.84567 0.15628 0.92066 0.0
H1883 H 0.86196 0.17849 0.93042 0.0
H1884 H 0.89274 0.16914 0.92559 0.0
H1885 H 0.87622 0.14677 0.91571 0.0
H1886 H 0.82738 0.13681 0.9376 0.0
H1887 H 0.8312 0.14386 0.9624 0.0
H1888 H 0.86334 0.13607 0.96519 0.0
H1889 H 0.85929 0.12887 0.9404 0.0
H1890 H 0.80646 0.11526 0.91764 0.0
H1891 H 0.79007 0.10626 0.93501 0.0
H1892 H 0.81248 0.0914 0.95602 0.0
H1893 H 0.82901 0.10057 0.93854 0.0
H1894 H 0.80592 0.10792 0.88762 0.0
H1895 H 0.78647 0.08689 0.87911 0.0
H1896 H 0.80281 0.06553 0.89924 0.0
H1897 H 0.82229 0.08665 0.90754 0.0
H1898 H 0.82882 0.1316 0.87493 0.0
H1899 H 0.82049 0.12398 0.85076 0.0
H1900 H 0.82793 0.0916 0.8542 0.0
H1901 H 0.83655 0.0995 0.87841 0.0
H1902 H 0.85006 0.15536 0.89065 0.0
H1903 H 0.86436 0.16983 0.87358 0.0
H1904 H 0.87916 0.14316 0.86621 0.0
H1905 H 0.8647 0.12867 0.88331 0.0
O1906 O 0.8423 0.14889 0.98693 0.0
O1907 O 0.85878 0.14481 0.98779 0.0
O1908 O 0.77243 0.06156 0.87629 0.0
O1909 O 0.78037 0.05011 0.8865 0.0
C1910 C 0.84949 0.13621 0.9127 0.0
C1911 C 0.84066 0.12787 0.9222 0.0
C1912 C 0.82947 0.1157 0.91734 0.0
C1913 C 0.82746 0.11154 0.90307 0.0
C1914 C 0.83646 0.11975 0.89357 0.0
C1915 C 0.84747 0.13212 0.89839 0.0
C1916 C 0.85977 0.14991 0.91764 0.0
C1917 C 0.85594 0.15904 0.92169 0.0
C1918 C 0.86524 0.17168 0.92731 0.0
C1919 C 0.87859 0.17548 0.92895 0.0
C1920 C 0.88251 0.16647 0.92443 0.0
C1921 C 0.87312 0.15373 0.91882 0.0
C1922 C 0.84296 0.13217 0.93726 0.0
C1923 C 0.83516 0.13651 0.94362 0.0
C1924 C 0.83741 0.1406 0.95777 0.0
C1925 C 0.84756 0.1405 0.96579 0.0
C1926 C 0.85542 0.13623 0.95933 0.0
C1927 C 0.85313 0.13212 0.94518 0.0
C1928 C 0.81886 0.1085 0.92683 0.0
C1929 C 0.80771 0.10985 0.92584 0.0
C1930 C 0.79846 0.10484 0.93582 0.0
C1931 C 0.80013 0.09828 0.94689 0.0
C1932 C 0.811 0.09641 0.94755 0.0
C1933 C 0.82039 0.10159 0.93761 0.0
C1934 C 0.81556 0.09878 0.89806 0.0
C1935 C 0.80531 0.09868 0.8901 0.0
C1936 C 0.7942 0.08666 0.88529 0.0
C1937 C 0.7931 0.07452 0.88847 0.0
C1938 C 0.80335 0.07469 0.89658 0.0
C1939 C 0.81448 0.08673 0.90135 0.0
C1940 C 0.83332 0.11612 0.8784 0.0
C1941 C 0.82898 0.12307 0.87036 0.0
C1942 C 0.82411 0.11863 0.85661 0.0
C1943 C 0.82344 0.10712 0.85066 0.0
C1944 C 0.82841 0.10054 0.85851 0.0
C1945 C 0.83329 0.105 0.87231 0.0
C1946 C 0.85647 0.14106 0.88832 0.0
C1947 C 0.85652 0.15274 0.88547 0.0
C1948 C 0.8647 0.16099 0.87573 0.0
C1949 C 0.87295 0.15768 0.86859 0.0
C1950 C 0.87285 0.14593 0.87146 0.0
C1951 C 0.86467 0.13769 0.88126 0.0
C1952 C 0.84993 0.14485 0.98082 0.0
C1953 C 0.78133 0.06171 0.88336 0.0
H1954 H 0.85765 0.70176 0.00992 0.0
H1955 H 0.76138 0.69542 0.89766 0.0
H1956 H 0.8732 0.72105 0.94129 0.0
H1957 H 0.8892 0.71556 0.95086 0.0
H1958 H 0.87218 0.68036 0.92266 0.0
H1959 H 0.85569 0.68544 0.91393 0.0
H1960 H 0.84877 0.71977 0.95706 0.0
H1961 H 0.85304 0.71575 0.98088 0.0
H1962 H 0.84682 0.67741 0.96632 0.0
H1963 H 0.8424 0.68149 0.94259 0.0
H1964 H 0.823 0.71913 0.9433 0.0
H1965 H 0.80479 0.71179 0.95872 0.0
H1966 H 0.7984 0.67198 0.95479 0.0
H1967 H 0.8163 0.67932 0.93921 0.0
H1968 H 0.82662 0.72746 0.9105 0.0
H1969 H 0.8066 0.72792 0.90398 0.0
H1970 H 0.7835 0.68545 0.9071 0.0
H1971 H 0.80361 0.68513 0.91347 0.0
H1972 H 0.84723 0.72938 0.89057 0.0
H1973 H 0.84118 0.72984 0.86595 0.0
H1974 H 0.81387 0.68759 0.86424 0.0
H1975 H 0.81977 0.68724 0.88877 0.0
H1976 H 0.87337 0.72784 0.9048 0.0
H1977 H 0.8866 0.72948 0.88504 0.0
H1978 H 0.857 0.68968 0.86979 0.0
H1979 H 0.84397 0.68814 0.88947 0.0
O1980 O 0.85587 0.70312 0.00044 0.0
O1981 O 0.85264 0.68353 0.99241 0.0
O1982 O 0.78178 0.71734 0.8987 0.0
O1983 O 0.76945 0.69552 0.9002 0.0
C1984 C 0.85183 0.70531 0.92339 0.0
C1985 C 0.84289 0.70356 0.93365 0.0
C1986 C 0.83126 0.70373 0.93008 0.0
C1987 C 0.82874 0.7061 0.91639 0.0
C1988 C 0.83755 0.70772 0.90613 0.0
C1989 C 0.84906 0.70725 0.90958 0.0
C1990 C 0.86326 0.70365 0.92692 0.0
C1991 C 0.8731 0.71228 0.93702 0.0
C1992 C 0.88228 0.70914 0.94244 0.0
C1993 C 0.88188 0.6974 0.93768 0.0
C1994 C 0.87259 0.68931 0.92682 0.0
C1995 C 0.86329 0.69233 0.9216 0.0
C1996 C 0.84539 0.70098 0.9481 0.0
C1997 C 0.84831 0.71051 0.95905 0.0
C1998 C 0.85077 0.70819 0.97264 0.0
C1999 C 0.85032 0.69627 0.9755 0.0
C2000 C 0.84729 0.68671 0.96447 0.0
C2001 C 0.8448 0.68903 0.95091 0.0
C2002 C 0.82095 0.69975 0.94019 0.0
C2003 C 0.81769 0.70886 0.94587 0.0
C2004 C 0.80736 0.70467 0.9547 0.0
C2005 C 0.80013 0.69129 0.95789 0.0
C2006 C 0.80365 0.6823 0.95237 0.0
C2007 C 0.81394 0.68649 0.94359 0.0
C2008 C 0.81653 0.70629 0.91256 0.0
C2009 C 0.81721 0.71828 0.90977 0.0
C2010 C 0.80577 0.7185 0.90606 0.0
C2011 C 0.79343 0.70671 0.90506 0.0
C2012 C 0.79282 0.6947 0.90781 0.0
C2013 C 0.80428 0.69449 0.9115 0.0
C2014 C 0.8339 0.70828 0.89139 0.0
C2015 C 0.83992 0.72026 0.88485 0.0
C2016 C 0.83646 0.72051 0.87086 0.0
C2017 C 0.82715 0.70873 0.86323 0.0
C2018 C 0.82119 0.69677 0.86986 0.0
C2019 C 0.82448 0.69657 0.88384 0.0
C2020 C 0.85767 0.70793 0.89845 0.0
C2021 C 0.86985 0.71946 0.89724 0.0
C2022 C 0.87737 0.72037 0.88599 0.0
C2023 C 0.87273 0.70977 0.87578 0.0
C2024 C 0.8607 0.6981 0.87732 0.0
C2025 C 0.85327 0.69718 0.88857 0.0
C2026 C 0.853 0.69387 0.98993 0.0
C2027 C 0.78124 0.7069 0.90113 0.0
H2028 H 0.82624 0.65337 0.38519 0.0
H2029 H 0.88518 0.60838 0.49628 0.0
H2030 H 0.81811 0.6542 0.45967 0.0
H2031 H 0.80224 0.6602 0.45108 0.0
H2032 H 0.77065 0.61994 0.4547 0.0
H2033 H 0.78679 0.61393 0.463 0.0
H2034 H 0.83865 0.65301 0.44443 0.0
H2035 H 0.83669 0.65689 0.41994 0.0
H2036 H 0.80225 0.61767 0.41333 0.0
H2037 H 0.80442 0.61387 0.43782 0.0
H2038 H 0.85809 0.65056 0.46664 0.0
H2039 H 0.8769 0.65613 0.45284 0.0
H2040 H 0.85281 0.62129 0.42519 0.0
H2041 H 0.83393 0.61549 0.43941 0.0
H2042 H 0.8554 0.64403 0.49477 0.0
H2043 H 0.8736 0.64132 0.50345 0.0
H2044 H 0.85664 0.60371 0.47931 0.0
H2045 H 0.8384 0.60647 0.47085 0.0
H2046 H 0.83167 0.64654 0.50554 0.0
H2047 H 0.838 0.64784 0.53008 0.0
H2048 H 0.83187 0.60814 0.52526 0.0
H2049 H 0.82451 0.60657 0.50077 0.0
H2050 H 0.81297 0.64939 0.49014 0.0
H2051 H 0.79995 0.65055 0.50878 0.0
H2052 H 0.78263 0.60843 0.51278 0.0
H2053 H 0.79578 0.60735 0.49414 0.0
O2054 O 0.82686 0.65161 0.39483 0.0
O2055 O 0.80917 0.63139 0.392 0.0
O2056 O 0.88635 0.62904 0.50532 0.0
O2057 O 0.87807 0.60968 0.49305 0.0
C2058 C 0.81351 0.63021 0.46681 0.0
C2059 C 0.82289 0.63074 0.45772 0.0
C2060 C 0.83351 0.62942 0.4629 0.0
C2061 C 0.83441 0.62696 0.47702 0.0
C2062 C 0.82508 0.62649 0.48613 0.0
C2063 C 0.81456 0.62801 0.48098 0.0
C2064 C 0.8036 0.63362 0.46183 0.0
C2065 C 0.80777 0.64666 0.45856 0.0
C2066 C 0.79866 0.6501 0.45379 0.0
C2067 C 0.78517 0.64056 0.45227 0.0
C2068 C 0.78099 0.62748 0.45566 0.0
C2069 C 0.79016 0.62404 0.46044 0.0
C2070 C 0.82176 0.63311 0.44285 0.0
C2071 C 0.83076 0.64524 0.43764 0.0
C2072 C 0.82958 0.64744 0.42366 0.0
C2073 C 0.81933 0.63758 0.41466 0.0
C2074 C 0.81028 0.62546 0.41996 0.0
C2075 C 0.81149 0.62327 0.43394 0.0
C2076 C 0.8447 0.63251 0.45417 0.0
C2077 C 0.85689 0.644 0.45773 0.0
C2078 C 0.86761 0.64718 0.44984 0.0
C2079 C 0.86631 0.63906 0.43805 0.0
C2080 C 0.85403 0.62768 0.43426 0.0
C2081 C 0.84329 0.62437 0.44235 0.0
C2082 C 0.8455 0.62536 0.48232 0.0
C2083 C 0.85558 0.63516 0.49147 0.0
C2084 C 0.86599 0.63361 0.49636 0.0
C2085 C 0.86656 0.62227 0.4921 0.0
C2086 C 0.85649 0.61254 0.48283 0.0
C2087 C 0.84606 0.61409 0.47797 0.0
C2088 C 0.82749 0.62642 0.50137 0.0
C2089 C 0.83125 0.63794 0.50986 0.0
C2090 C 0.83512 0.63875 0.52386 0.0
C2091 C 0.83569 0.62819 0.52962 0.0
C2092 C 0.83146 0.61643 0.5212 0.0
C2093 C 0.82732 0.61553 0.50719 0.0
C2094 C 0.80527 0.62828 0.49077 0.0
C2095 C 0.80614 0.64037 0.49482 0.0
C2096 C 0.79881 0.64103 0.50552 0.0
C2097 C 0.79037 0.62959 0.51223 0.0
C2098 C 0.78902 0.61737 0.5077 0.0
C2099 C 0.7965 0.61674 0.4971 0.0
C2100 C 0.8181 0.63995 0.39982 0.0
C2101 C 0.8776 0.62059 0.49725 0.0
H2102 H 0.353 0.17456 0.40342 0.0
H2103 H 0.39838 0.28606 0.51682 0.0
H2104 H 0.35216 0.1707 0.48025 0.0
H2105 H 0.34534 0.14815 0.47144 0.0
H2106 H 0.38579 0.15743 0.4757 0.0
H2107 H 0.39249 0.18005 0.48482 0.0
H2108 H 0.35324 0.18888 0.46232 0.0
H2109 H 0.34925 0.18182 0.43752 0.0
H2110 H 0.39011 0.19293 0.43561 0.0
H2111 H 0.39396 0.20006 0.46043 0.0
H2112 H 0.35433 0.20918 0.47784 0.0
H2113 H 0.34825 0.22112 0.46173 0.0
H2114 H 0.38846 0.24329 0.45024 0.0
H2115 H 0.39444 0.23095 0.46623 0.0
H2116 H 0.36323 0.21982 0.51077 0.0
H2117 H 0.36549 0.24101 0.51895 0.0
H2118 H 0.40373 0.26187 0.50205 0.0
H2119 H 0.40139 0.2406 0.49407 0.0
H2120 H 0.36319 0.19665 0.52581 0.0
H2121 H 0.36454 0.20507 0.54977 0.0
H2122 H 0.40466 0.23611 0.54543 0.0
H2123 H 0.40324 0.2275 0.5214 0.0
H2124 H 0.35771 0.17252 0.50953 0.0
H2125 H 0.3567 0.15702 0.52635 0.0
H2126 H 0.39886 0.18083 0.53485 0.0
H2127 H 0.39975 0.19638 0.51798 0.0
O2128 O 0.3548 0.17747 0.41321 0.0
O2129 O 0.37589 0.18333 0.41279 0.0
O2130 O 0.37756 0.26634 0.5223 0.0
O2131 O 0.39723 0.27754 0.51371 0.0
C2132 C 0.37668 0.19073 0.48786 0.0
C2133 C 0.37634 0.19928 0.47816 0.0
C2134 C 0.37805 0.21166 0.48282 0.0
C2135 C 0.38084 0.21584 0.49708 0.0
C2136 C 0.38152 0.20744 0.50681 0.0
C2137 C 0.37927 0.19479 0.50219 0.0
C2138 C 0.37281 0.17698 0.48305 0.0
C2139 C 0.35954 0.16785 0.47928 0.0
C2140 C 0.35568 0.15501 0.47418 0.0
C2141 C 0.36504 0.15105 0.4727 0.0
C2142 C 0.37834 0.16017 0.47678 0.0
C2143 C 0.3822 0.17307 0.48193 0.0
C2144 C 0.37392 0.19511 0.46309 0.0
C2145 C 0.36133 0.18989 0.45649 0.0
C2146 C 0.35908 0.18581 0.44234 0.0
C2147 C 0.36937 0.18684 0.43457 0.0
C2148 C 0.38197 0.19203 0.44128 0.0
C2149 C 0.38421 0.19612 0.45543 0.0
C2150 C 0.37479 0.2192 0.47311 0.0
C2151 C 0.36181 0.21655 0.47177 0.0
C2152 C 0.35835 0.22331 0.46255 0.0
C2153 C 0.36788 0.23301 0.4547 0.0
C2154 C 0.38096 0.23581 0.45619 0.0
C2155 C 0.38437 0.22883 0.46526 0.0
C2156 C 0.38217 0.22871 0.50189 0.0
C2157 C 0.3721 0.22899 0.50889 0.0
C2158 C 0.37341 0.2411 0.51353 0.0
C2159 C 0.38481 0.25314 0.51117 0.0
C2160 C 0.39484 0.25279 0.50405 0.0
C2161 C 0.39352 0.24067 0.49946 0.0
C2162 C 0.38314 0.21141 0.5219 0.0
C2163 C 0.3724 0.20502 0.53016 0.0
C2164 C 0.37318 0.20986 0.54384 0.0
C2165 C 0.3847 0.22127 0.54947 0.0
C2166 C 0.39563 0.22737 0.54133 0.0
C2167 C 0.39487 0.22243 0.52766 0.0
C2168 C 0.37882 0.18546 0.51243 0.0
C2169 C 0.36674 0.17431 0.51493 0.0
C2170 C 0.36619 0.16546 0.52452 0.0
C2171 C 0.37772 0.16764 0.53185 0.0
C2172 C 0.38981 0.17893 0.52942 0.0
C2173 C 0.39035 0.18777 0.51977 0.0
C2174 C 0.36694 0.18246 0.41954 0.0
C2175 C 0.38626 0.26604 0.51608 0.0
H2176 H 0.81019 0.18566 0.38816 0.0
H2177 H 0.91337 0.26925 0.50484 0.0
H2178 H 0.79676 0.18606 0.46219 0.0
H2179 H 0.77819 0.16401 0.45429 0.0
H2180 H 0.79959 0.14601 0.47086 0.0
H2181 H 0.8179 0.16792 0.47869 0.0
H2182 H 0.82265 0.21073 0.4447 0.0
H2183 H 0.81696 0.20333 0.42001 0.0
H2184 H 0.82191 0.16982 0.42731 0.0
H2185 H 0.82775 0.17743 0.45192 0.0
H2186 H 0.85209 0.23576 0.45962 0.0
H2187 H 0.87115 0.24633 0.44543 0.0
H2188 H 0.87163 0.2096 0.44176 0.0
H2189 H 0.85321 0.19948 0.45654 0.0
H2190 H 0.84849 0.24028 0.49067 0.0
H2191 H 0.86956 0.26009 0.49828 0.0
H2192 H 0.88903 0.23733 0.49362 0.0
H2193 H 0.86786 0.21758 0.48615 0.0
H2194 H 0.83016 0.22503 0.50923 0.0
H2195 H 0.83758 0.23291 0.53374 0.0
H2196 H 0.85592 0.20897 0.53528 0.0
H2197 H 0.84864 0.20133 0.51082 0.0
H2198 H 0.80187 0.19614 0.49918 0.0
H2199 H 0.78769 0.18217 0.51689 0.0
H2200 H 0.81189 0.16435 0.52126 0.0
H2201 H 0.826 0.17836 0.50373 0.0
O2202 O 0.8125 0.18843 0.39795 0.0
O2203 O 0.81513 0.17134 0.40226 0.0
O2204 O 0.89442 0.27281 0.50418 0.0
O2205 O 0.90491 0.26157 0.50189 0.0
C2206 C 0.8202 0.19176 0.47523 0.0
C2207 C 0.82885 0.19913 0.46508 0.0
C2208 C 0.84092 0.2108 0.46919 0.0
C2209 C 0.84389 0.21556 0.48334 0.0
C2210 C 0.83507 0.20836 0.49341 0.0
C2211 C 0.82336 0.19636 0.4894 0.0
C2212 C 0.80856 0.17854 0.47119 0.0
C2213 C 0.7973 0.17731 0.46424 0.0
C2214 C 0.78677 0.16474 0.45968 0.0
C2215 C 0.78738 0.15326 0.46204 0.0
C2216 C 0.79866 0.15461 0.46915 0.0
C2217 C 0.80914 0.16712 0.47364 0.0
C2218 C 0.82545 0.19453 0.45012 0.0
C2219 C 0.82249 0.20179 0.44094 0.0
C2220 C 0.81924 0.19753 0.42685 0.0
C2221 C 0.81892 0.18594 0.4217 0.0
C2222 C 0.822 0.17875 0.43094 0.0
C2223 C 0.82527 0.18303 0.44502 0.0
C2224 C 0.85126 0.21685 0.45911 0.0
C2225 C 0.85629 0.23001 0.45565 0.0
C2226 C 0.86712 0.236 0.44748 0.0
C2227 C 0.87302 0.22885 0.44257 0.0
C2228 C 0.86754 0.21549 0.4456 0.0
C2229 C 0.85687 0.20961 0.45388 0.0
C2230 C 0.85669 0.22755 0.48785 0.0
C2231 C 0.85732 0.23961 0.49133 0.0
C2232 C 0.86936 0.2509 0.49565 0.0
C2233 C 0.88099 0.25029 0.49654 0.0
C2234 C 0.88028 0.23815 0.49304 0.0
C2235 C 0.86822 0.22686 0.48875 0.0
C2236 C 0.83886 0.21261 0.50835 0.0
C2237 C 0.83571 0.22146 0.51493 0.0
C2238 C 0.83997 0.22595 0.52886 0.0
C2239 C 0.84726 0.22149 0.53639 0.0
C2240 C 0.85016 0.21242 0.52978 0.0
C2241 C 0.84606 0.20809 0.51584 0.0
C2242 C 0.81486 0.18815 0.50017 0.0
C2243 C 0.80408 0.18922 0.50402 0.0
C2244 C 0.79605 0.18131 0.51412 0.0
C2245 C 0.79866 0.17214 0.52034 0.0
C2246 C 0.80956 0.17121 0.51649 0.0
C2247 C 0.81763 0.17921 0.50655 0.0
C2248 C 0.81541 0.18142 0.40674 0.0
C2249 C 0.89381 0.26226 0.5011 0.0
H2250 H 0.00029 0.51147 0.32247 0.0
H2251 H 0.00164 0.41683 0.21224 0.0
H2252 H 0.97571 0.50365 0.24873 0.0
H2253 H 0.97867 0.52515 0.25679 0.0
H2254 H 0.01708 0.54483 0.24006 0.0
H2255 H 0.01364 0.52333 0.23145 0.0
H2256 H 0.97984 0.4831 0.26772 0.0
H2257 H 0.98485 0.49218 0.29194 0.0
H2258 H 0.02343 0.52277 0.28151 0.0
H2259 H 0.01832 0.5135 0.25736 0.0
H2260 H 0.97798 0.45714 0.25375 0.0
H2261 H 0.98325 0.44468 0.27 0.0
H2262 H 0.02441 0.47504 0.27109 0.0
H2263 H 0.01894 0.48754 0.25515 0.0
H2264 H 0.97079 0.45112 0.22001 0.0
H2265 H 0.96994 0.43019 0.21375 0.0
H2266 H 0.01207 0.44953 0.22248 0.0
H2267 H 0.01279 0.47041 0.22854 0.0
H2268 H 0.9675 0.47106 0.20108 0.0
H2269 H 0.96401 0.46113 0.17724 0.0
H2270 H 0.00463 0.47085 0.17873 0.0
H2271 H 0.00807 0.48108 0.20221 0.0
H2272 H 0.96958 0.49777 0.21896 0.0
H2273 H 0.96573 0.51046 0.2017 0.0
H2274 H 0.00156 0.5187 0.18291 0.0
H2275 H 0.00547 0.50619 0.20036 0.0
O2276 O 0.99853 0.50802 0.31285 0.0
O2277 O 0.01822 0.52357 0.30692 0.0
O2278 O 0.98006 0.41552 0.21018 0.0
O2279 O 0.00169 0.42498 0.21462 0.0
C2280 C 0.99319 0.499 0.23573 0.0
C2281 C 0.99558 0.49217 0.24612 0.0
C2282 C 0.99509 0.48012 0.24253 0.0
C2283 C 0.99229 0.47492 0.22854 0.0
C2284 C 0.99003 0.48183 0.21811 0.0
C2285 C 0.99032 0.49381 0.22173 0.0
C2286 C 0.99445 0.512 0.23952 0.0
C2287 C 0.98465 0.51266 0.24664 0.0
C2288 C 0.98643 0.52495 0.25134 0.0
C2289 C 0.99818 0.53678 0.2492 0.0
C2290 C 0.00783 0.536 0.24173 0.0
C2291 C 0.00593 0.52372 0.23685 0.0
C2292 C 0.9987 0.49768 0.26081 0.0
C2293 C 0.98937 0.49174 0.27071 0.0
C2294 C 0.99226 0.49696 0.28453 0.0
C2295 C 0.00453 0.50822 0.28866 0.0
C2296 C 0.01387 0.51411 0.27867 0.0
C2297 C 0.01098 0.50886 0.26487 0.0
C2298 C 0.99809 0.47319 0.2533 0.0
C2299 C 0.98809 0.46115 0.25768 0.0
C2300 C 0.99115 0.45403 0.26687 0.0
C2301 C 0.00427 0.45883 0.27177 0.0
C2302 C 0.01419 0.47115 0.26768 0.0
C2303 C 0.01111 0.47828 0.25853 0.0
C2304 C 0.99183 0.46224 0.22478 0.0
C2305 C 0.97981 0.4508 0.22054 0.0
C2306 C 0.97936 0.43887 0.21698 0.0
C2307 C 0.99094 0.43818 0.21764 0.0
C2308 C 0.00297 0.4497 0.22189 0.0
C2309 C 0.00341 0.46163 0.2254 0.0
C2310 C 0.98802 0.47674 0.20335 0.0
C2311 C 0.97566 0.4712 0.19612 0.0
C2312 C 0.97367 0.46545 0.18258 0.0
C2313 C 0.98403 0.46518 0.17608 0.0
C2314 C 0.99648 0.47106 0.1833 0.0
C2315 C 0.99846 0.47682 0.19677 0.0
C2316 C 0.98779 0.50106 0.2109 0.0
C2317 C 0.9766 0.50234 0.21112 0.0
C2318 C 0.97443 0.50959 0.2013 0.0
C2319 C 0.98335 0.51555 0.19098 0.0
C2320 C 0.99445 0.51408 0.19066 0.0
C2321 C 0.9967 0.50696 0.2006 0.0
C2322 C 0.00756 0.51377 0.30334 0.0
C2323 C 0.99051 0.42553 0.21391 0.0
H2324 H 0.4972 0.48621 0.32751 0.0
H2325 H 0.44003 0.37999 0.20973 0.0
H2326 H 0.50822 0.49477 0.25596 0.0
H2327 H 0.52498 0.51665 0.26629 0.0
H2328 H 0.55535 0.50784 0.25686 0.0
H2329 H 0.53844 0.48557 0.24713 0.0
H2330 H 0.48609 0.47296 0.26753 0.0
H2331 H 0.48754 0.47898 0.2924 0.0
H2332 H 0.5215 0.47435 0.29829 0.0
H2333 H 0.51983 0.46817 0.27342 0.0
H2334 H 0.46697 0.45075 0.24363 0.0
H2335 H 0.44818 0.43918 0.25774 0.0
H2336 H 0.47103 0.4287 0.28486 0.0
H2337 H 0.48988 0.44022 0.27042 0.0
H2338 H 0.47074 0.44618 0.21491 0.0
H2339 H 0.45273 0.42487 0.20475 0.0
H2340 H 0.46785 0.40444 0.22877 0.0
H2341 H 0.48592 0.42583 0.23871 0.0
H2342 H 0.49468 0.47096 0.20462 0.0
H2343 H 0.489 0.46357 0.18002 0.0
H2344 H 0.49726 0.43207 0.18656 0.0
H2345 H 0.50285 0.43954 0.21129 0.0
H2346 H 0.51462 0.49544 0.22398 0.0
H2347 H 0.53067 0.51106 0.20884 0.0
H2348 H 0.5453 0.48427 0.20149 0.0
H2349 H 0.52924 0.46871 0.21678 0.0
O2350 O 0.49678 0.48375 0.31771 0.0
O2351 O 0.51425 0.48132 0.32016 0.0
O2352 O 0.43973 0.39953 0.20139 0.0
O2353 O 0.44706 0.38855 0.21357 0.0
C2354 C 0.51172 0.4751 0.24507 0.0
C2355 C 0.50192 0.46634 0.25359 0.0
C2356 C 0.49126 0.45421 0.24769 0.0
C2357 C 0.49078 0.45049 0.23346 0.0
C2358 C 0.50062 0.45916 0.22495 0.0
C2359 C 0.51102 0.47153 0.23072 0.0
C2360 C 0.52208 0.48848 0.251 0.0
C2361 C 0.51846 0.49745 0.25631 0.0
C2362 C 0.52801 0.50993 0.26213 0.0
C2363 C 0.54137 0.5138 0.26238 0.0
C2364 C 0.54507 0.505 0.25674 0.0
C2365 C 0.53546 0.49234 0.25121 0.0
C2366 C 0.50278 0.47001 0.2687 0.0
C2367 C 0.49377 0.47314 0.27423 0.0
C2368 C 0.49466 0.47663 0.28843 0.0
C2369 C 0.50463 0.47712 0.29734 0.0
C2370 C 0.51369 0.47405 0.29173 0.0
C2371 C 0.51276 0.47052 0.27753 0.0
C2372 C 0.47975 0.44624 0.25593 0.0
C2373 C 0.46785 0.44573 0.25244 0.0
C2374 C 0.45714 0.43912 0.26052 0.0
C2375 C 0.45813 0.43299 0.27237 0.0
C2376 C 0.47003 0.4334 0.27581 0.0
C2377 C 0.48075 0.43991 0.26758 0.0
C2378 C 0.47971 0.43754 0.22743 0.0
C2379 C 0.4702 0.43709 0.21788 0.0
C2380 C 0.4599 0.42491 0.21214 0.0
C2381 C 0.45887 0.41295 0.21593 0.0
C2382 C 0.46836 0.41346 0.22561 0.0
C2383 C 0.47868 0.42565 0.23132 0.0
C2384 C 0.49918 0.4558 0.20972 0.0
C2385 C 0.49558 0.46267 0.20067 0.0
C2386 C 0.49235 0.45843 0.1866 0.0
C2387 C 0.49262 0.44718 0.18133 0.0
C2388 C 0.4968 0.44066 0.19034 0.0
C2389 C 0.50007 0.44495 0.20442 0.0
C2390 C 0.52084 0.48099 0.22156 0.0
C2391 C 0.52138 0.49301 0.21921 0.0
C2392 C 0.53056 0.50191 0.21059 0.0
C2393 C 0.53928 0.4989 0.20404 0.0
C2394 C 0.53865 0.48681 0.20633 0.0
C2395 C 0.52952 0.47794 0.21506 0.0
C2396 C 0.50555 0.48085 0.31242 0.0
C2397 C 0.44796 0.39998 0.20983 0.0
H2398 H 0.50472 0.99638 0.33775 0.0
H2399 H 0.41031 0.98622 0.22072 0.0
H2400 H 0.52168 0.01837 0.27039 0.0
H2401 H 0.53945 0.01562 0.28056 0.0
H2402 H 0.52706 0.98114 0.25238 0.0
H2403 H 0.50901 0.98363 0.24261 0.0
H2404 H 0.49623 0.01428 0.28463 0.0
H2405 H 0.50001 0.01016 0.30857 0.0
H2406 H 0.49697 0.97322 0.29385 0.0
H2407 H 0.49302 0.97738 0.26999 0.0
H2408 H 0.47213 0.01452 0.26775 0.0
H2409 H 0.45423 0.00859 0.28316 0.0
H2410 H 0.44808 0.9689 0.2838 0.0
H2411 H 0.4656 0.9748 0.26791 0.0
H2412 H 0.47513 0.02146 0.23652 0.0
H2413 H 0.45468 0.02059 0.22882 0.0
H2414 H 0.43342 0.97803 0.23168 0.0
H2415 H 0.45396 0.97903 0.23922 0.0
H2416 H 0.49818 0.02667 0.22064 0.0
H2417 H 0.49235 0.02991 0.19697 0.0
H2418 H 0.46614 0.98757 0.1898 0.0
H2419 H 0.47194 0.98445 0.21345 0.0
H2420 H 0.5241 0.0254 0.23565 0.0
H2421 H 0.54013 0.02864 0.21843 0.0
H2422 H 0.51293 0.98971 0.19886 0.0
H2423 H 0.49717 0.9865 0.21621 0.0
O2424 O 0.50312 0.99777 0.32821 0.0
O2425 O 0.50157 0.97893 0.3201 0.0
O2426 O 0.42994 0.00874 0.22235 0.0
O2427 O 0.41854 0.98685 0.22372 0.0
C2428 C 0.50196 0.00145 0.25138 0.0
C2429 C 0.49231 0.99881 0.26104 0.0
C2430 C 0.48055 0.99848 0.25681 0.0
C2431 C 0.47845 0.00088 0.24298 0.0
C2432 C 0.48804 0.00343 0.23333 0.0
C2433 C 0.49977 0.00368 0.23749 0.0
C2434 C 0.51403 0.00119 0.25578 0.0
C2435 C 0.52293 0.01034 0.26628 0.0
C2436 C 0.53302 0.00875 0.27208 0.0
C2437 C 0.53455 0.99814 0.26726 0.0
C2438 C 0.52613 0.98946 0.25619 0.0
C2439 C 0.51587 0.9909 0.25057 0.0
C2440 C 0.4944 0.99616 0.27558 0.0
C2441 C 0.49632 0.00528 0.28662 0.0
C2442 C 0.49851 0.00291 0.30027 0.0
C2443 C 0.49882 0.99137 0.30312 0.0
C2444 C 0.49681 0.98221 0.29202 0.0
C2445 C 0.49458 0.98458 0.27838 0.0
C2446 C 0.47014 0.99509 0.26672 0.0
C2447 C 0.46689 0.00456 0.27123 0.0
C2448 C 0.45674 0.00117 0.28012 0.0
C2449 C 0.44971 0.98826 0.28472 0.0
C2450 C 0.45316 0.97887 0.28031 0.0
C2451 C 0.46324 0.98224 0.27135 0.0
C2452 C 0.466 0.00031 0.23843 0.0
C2453 C 0.46604 0.01196 0.23544 0.0
C2454 C 0.45435 0.01143 0.23107 0.0
C2455 C 0.4424 0.99923 0.22964 0.0
C2456 C 0.44243 0.98758 0.23267 0.0
C2457 C 0.45414 0.98812 0.23701 0.0
C2458 C 0.48547 0.00533 0.21869 0.0
C2459 C 0.4913 0.01811 0.21387 0.0
C2460 C 0.48792 0.01994 0.20042 0.0
C2461 C 0.4788 0.00898 0.19158 0.0
C2462 C 0.4733 0.99617 0.19634 0.0
C2463 C 0.47655 0.99437 0.20982 0.0
C2464 C 0.50949 0.00574 0.22712 0.0
C2465 C 0.52166 0.01759 0.22764 0.0
C2466 C 0.53075 0.01944 0.21777 0.0
C2467 C 0.5278 0.00941 0.20731 0.0
C2468 C 0.51557 0.99755 0.20689 0.0
C2469 C 0.50651 0.99573 0.21671 0.0
C2470 C 0.50125 0.98893 0.31763 0.0
C2471 C 0.42995 0.99861 0.22501 0.0
H2472 H 0.50667 0.02446 0.72813 0.0
H2473 H 0.57606 0.98173 0.83047 0.0
H2474 H 0.50128 0.02222 0.80244 0.0
H2475 H 0.48345 0.02532 0.79357 0.0
H2476 H 0.45557 0.9839 0.79844 0.0
H2477 H 0.47367 0.9808 0.80667 0.0
H2478 H 0.5228 0.02352 0.78598 0.0
H2479 H 0.51915 0.02772 0.76204 0.0
H2480 H 0.48612 0.9876 0.75566 0.0
H2481 H 0.49 0.98349 0.77958 0.0
H2482 H 0.54348 0.0217 0.80034 0.0
H2483 H 0.55956 0.02533 0.78308 0.0
H2484 H 0.53419 0.98533 0.76515 0.0
H2485 H 0.51804 0.98185 0.78232 0.0
H2486 H 0.54339 0.01455 0.83305 0.0
H2487 H 0.56276 0.01305 0.83996 0.0
H2488 H 0.54607 0.97547 0.81581 0.0
H2489 H 0.52671 0.97704 0.80911 0.0
H2490 H 0.51999 0.01205 0.84947 0.0
H2491 H 0.52584 0.00878 0.87297 0.0
H2492 H 0.51641 0.96908 0.85934 0.0
H2493 H 0.51082 0.97259 0.83579 0.0
H2494 H 0.4975 0.01513 0.83484 0.0
H2495 H 0.4818 0.01214 0.85229 0.0
H2496 H 0.46898 0.97035 0.85152 0.0
H2497 H 0.4845 0.97341 0.83387 0.0
O2498 O 0.50798 0.02257 0.73755 0.0
O2499 O 0.49105 0.00187 0.73482 0.0
O2500 O 0.57663 0.00189 0.84021 0.0
O2501 O 0.56851 0.98257 0.8279 0.0
C2502 C 0.49989 0.99926 0.809 0.0
C2503 C 0.50891 0.00065 0.79902 0.0
C2504 C 0.51993 0.9995 0.80283 0.0
C2505 C 0.52189 0.99678 0.81655 0.0
C2506 C 0.51273 0.99511 0.82647 0.0
C2507 C 0.50171 0.99631 0.82269 0.0
C2508 C 0.48877 0.00127 0.80509 0.0
C2509 C 0.4913 0.01384 0.80165 0.0
C2510 C 0.48107 0.01561 0.79671 0.0
C2511 C 0.46805 0.00485 0.79525 0.0
C2512 C 0.4655 0.99235 0.79922 0.0
C2513 C 0.47579 0.99057 0.80406 0.0
C2514 C 0.50672 0.00318 0.78446 0.0
C2515 C 0.51485 0.01563 0.77936 0.0
C2516 C 0.51271 0.01801 0.7657 0.0
C2517 C 0.50235 0.00799 0.75693 0.0
C2518 C 0.49419 0.99553 0.76213 0.0
C2519 C 0.49638 0.99315 0.77578 0.0
C2520 C 0.52966 0.00153 0.79253 0.0
C2521 C 0.54141 0.01375 0.79266 0.0
C2522 C 0.55051 0.01582 0.78279 0.0
C2523 C 0.54806 0.00561 0.7728 0.0
C2524 C 0.53631 0.99332 0.77279 0.0
C2525 C 0.52711 0.99133 0.78253 0.0
C2526 C 0.53368 0.9959 0.82059 0.0
C2527 C 0.54394 0.006 0.82929 0.0
C2528 C 0.55499 0.00512 0.83321 0.0
C2529 C 0.55596 0.99414 0.82843 0.0
C2530 C 0.54564 0.98407 0.81967 0.0
C2531 C 0.53459 0.98494 0.81579 0.0
C2532 C 0.51503 0.99257 0.84096 0.0
C2533 C 0.51903 0.0026 0.85164 0.0
C2534 C 0.52231 0.00067 0.86506 0.0
C2535 C 0.52164 0.98868 0.86803 0.0
C2536 C 0.51722 0.9785 0.85736 0.0
C2537 C 0.51396 0.98045 0.84393 0.0
C2538 C 0.4921 0.99448 0.83311 0.0
C2539 C 0.49123 0.00533 0.8384 0.0
C2540 C 0.48234 0.00361 0.84842 0.0
C2541 C 0.47416 0.991 0.85329 0.0
C2542 C 0.47502 0.98014 0.84786 0.0
C2543 C 0.48393 0.98188 0.83786 0.0
C2544 C 0.50007 0.01057 0.74243 0.0
C2545 C 0.56767 0.99315 0.83257 0.0
H2546 H 0.97467 0.4772 0.74102 0.0
H2547 H 0.0244 0.5959 0.84518 0.0
H2548 H 0.98171 0.47844 0.8171 0.0
H2549 H 0.97692 0.45608 0.81011 0.0
H2550 H 0.01858 0.46974 0.81356 0.0
H2551 H 0.0232 0.49208 0.82097 0.0
H2552 H 0.97964 0.49708 0.79892 0.0
H2553 H 0.97374 0.48789 0.77475 0.0
H2554 H 0.01368 0.49666 0.77051 0.0
H2555 H 0.01946 0.50593 0.79467 0.0
H2556 H 0.98192 0.51943 0.81251 0.0
H2557 H 0.97699 0.53248 0.79675 0.0
H2558 H 0.01642 0.55032 0.78287 0.0
H2559 H 0.0212 0.53699 0.79856 0.0
H2560 H 0.9917 0.52979 0.84529 0.0
H2561 H 0.99349 0.55108 0.85199 0.0
H2562 H 0.03007 0.57148 0.83178 0.0
H2563 H 0.02822 0.55012 0.8253 0.0
H2564 H 0.99539 0.50968 0.8628 0.0
H2565 H 0.99945 0.52094 0.88595 0.0
H2566 H 0.03807 0.551 0.87508 0.0
H2567 H 0.03382 0.53973 0.8519 0.0
H2568 H 0.99092 0.48198 0.84642 0.0
H2569 H 0.9945 0.46855 0.86294 0.0
H2570 H 0.03535 0.49915 0.86961 0.0
H2571 H 0.03194 0.51229 0.85245 0.0
O2572 O 0.97723 0.48095 0.75054 0.0
O2573 O 0.99789 0.48565 0.74891 0.0
O2574 O 0.00467 0.5764 0.85304 0.0
O2575 O 0.02345 0.58735 0.8427 0.0
C2576 C 0.00546 0.50041 0.82338 0.0
C2577 C 0.00354 0.5077 0.81318 0.0
C2578 C 0.00501 0.52015 0.81697 0.0
C2579 C 0.00873 0.52551 0.83085 0.0
C2580 C 0.01094 0.51836 0.84104 0.0
C2581 C 0.00922 0.50574 0.83734 0.0
C2582 C 0.00279 0.48685 0.81946 0.0
C2583 C 0.98978 0.47658 0.81635 0.0
C2584 C 0.98709 0.46383 0.81229 0.0
C2585 C 0.99738 0.46113 0.81114 0.0
C2586 C 0.01042 0.47145 0.81446 0.0
C2587 C 0.0131 0.48422 0.81862 0.0
C2588 C -0.0 0.50227 0.79847 0.0
C2589 C 0.98712 0.49711 0.79271 0.0
C2590 C 0.98377 0.49182 0.77892 0.0
C2591 C 0.99325 0.49156 0.77068 0.0
C2592 C 0.00615 0.49672 0.77655 0.0
C2593 C 0.00948 0.50203 0.79033 0.0
C2594 C 0.00188 0.5273 0.80661 0.0
C2595 C 0.9894 0.52599 0.80589 0.0
C2596 C 0.9866 0.53339 0.79687 0.0
C2597 C 0.99633 0.54236 0.7886 0.0
C2598 C 0.00878 0.54348 0.78917 0.0
C2599 C 0.01151 0.5359 0.79806 0.0
C2600 C 0.00983 0.53844 0.83482 0.0
C2601 C 0.0001 0.53888 0.84236 0.0
C2602 C 0.00114 0.55105 0.84615 0.0
C2603 C 0.01193 0.56299 0.84241 0.0
C2604 C 0.02164 0.56248 0.83482 0.0
C2605 C 0.0206 0.5503 0.83107 0.0
C2606 C 0.01429 0.52393 0.85569 0.0
C2607 C 0.00483 0.51853 0.86556 0.0
C2608 C 0.00718 0.52497 0.87877 0.0
C2609 C 0.01904 0.53694 0.88231 0.0
C2610 C 0.02876 0.54193 0.8726 0.0
C2611 C 0.0264 0.53547 0.8594 0.0
C2612 C 0.01121 0.49803 0.84807 0.0
C2613 C 0.00068 0.48574 0.85131 0.0
C2614 C 0.0027 0.47811 0.86076 0.0
C2615 C 0.0152 0.48286 0.86741 0.0
C2616 C 0.02564 0.49535 0.86456 0.0
C2617 C 0.02369 0.50284 0.85483 0.0
C2618 C 0.98965 0.48589 0.75606 0.0
C2619 C 0.01308 0.57595 0.84639 0.0
H2620 H 0.48189 0.51254 0.72941 0.0
H2621 H 0.58342 0.60418 0.84219 0.0
H2622 H 0.46866 0.51898 0.79997 0.0
H2623 H 0.45014 0.49709 0.79171 0.0
H2624 H 0.46692 0.47839 0.81609 0.0
H2625 H 0.48539 0.50022 0.82416 0.0
H2626 H 0.49356 0.5413 0.78397 0.0
H2627 H 0.48828 0.53229 0.75973 0.0
H2628 H 0.49252 0.49922 0.77123 0.0
H2629 H 0.49794 0.50842 0.7954 0.0
H2630 H 0.5201 0.5667 0.79862 0.0
H2631 H 0.53788 0.57724 0.78281 0.0
H2632 H 0.54269 0.54296 0.78259 0.0
H2633 H 0.52493 0.53254 0.79824 0.0
H2634 H 0.51797 0.57239 0.83164 0.0
H2635 H 0.53879 0.59282 0.83838 0.0
H2636 H 0.55974 0.57177 0.83177 0.0
H2637 H 0.53884 0.55139 0.82521 0.0
H2638 H 0.49652 0.55437 0.85057 0.0
H2639 H 0.50316 0.56224 0.87524 0.0
H2640 H 0.52956 0.54678 0.87534 0.0
H2641 H 0.52311 0.53923 0.85075 0.0
H2642 H 0.46879 0.52503 0.8341 0.0
H2643 H 0.4541 0.51256 0.85218 0.0
H2644 H 0.48371 0.50476 0.86927 0.0
H2645 H 0.49811 0.51685 0.85103 0.0
O2646 O 0.48405 0.51595 0.73905 0.0
O2647 O 0.48629 0.49912 0.74552 0.0
O2648 O 0.5638 0.60659 0.84293 0.0
O2649 O 0.57504 0.59624 0.83961 0.0
C2650 C 0.49033 0.52426 0.81645 0.0
C2651 C 0.49917 0.53097 0.80615 0.0
C2652 C 0.5112 0.54279 0.8099 0.0
C2653 C 0.51425 0.54809 0.82385 0.0
C2654 C 0.50544 0.54139 0.83412 0.0
C2655 C 0.49349 0.52945 0.83045 0.0
C2656 C 0.47834 0.51117 0.81269 0.0
C2657 C 0.46822 0.51014 0.80365 0.0
C2658 C 0.45771 0.49766 0.79891 0.0
C2659 C 0.4571 0.48604 0.80325 0.0
C2660 C 0.46702 0.48716 0.81271 0.0
C2661 C 0.47758 0.49961 0.81733 0.0
C2662 C 0.49603 0.52546 0.79144 0.0
C2663 C 0.49336 0.53212 0.78122 0.0
C2664 C 0.49033 0.52694 0.76739 0.0
C2665 C 0.48994 0.51501 0.76355 0.0
C2666 C 0.4927 0.50841 0.77384 0.0
C2667 C 0.49576 0.51362 0.78766 0.0
C2668 C 0.52121 0.54885 0.7995 0.0
C2669 C 0.52493 0.56146 0.79502 0.0
C2670 C 0.53511 0.56746 0.78606 0.0
C2671 C 0.54169 0.56093 0.78144 0.0
C2672 C 0.5377 0.54817 0.78576 0.0
C2673 C 0.52757 0.54221 0.79472 0.0
C2674 C 0.52693 0.56046 0.82787 0.0
C2675 C 0.52707 0.57222 0.83168 0.0
C2676 C 0.53897 0.58387 0.8355 0.0
C2677 C 0.55094 0.58394 0.83558 0.0
C2678 C 0.55072 0.57208 0.83179 0.0
C2679 C 0.53881 0.56043 0.82801 0.0
C2680 C 0.50935 0.54625 0.84894 0.0
C2681 C 0.50375 0.55274 0.85596 0.0
C2682 C 0.50755 0.55722 0.86997 0.0
C2683 C 0.51678 0.55501 0.87714 0.0
C2684 C 0.52231 0.54846 0.87006 0.0
C2685 C 0.51871 0.54423 0.85605 0.0
C2686 C 0.4846 0.52203 0.84141 0.0
C2687 C 0.47207 0.52062 0.84176 0.0
C2688 C 0.46371 0.5135 0.85204 0.0
C2689 C 0.46786 0.50784 0.86218 0.0
C2690 C 0.48038 0.50924 0.86173 0.0
C2691 C 0.48862 0.51615 0.85136 0.0
C2692 C 0.48666 0.50951 0.74885 0.0
C2693 C 0.56361 0.59629 0.8396 0.0
H2694 H 0.62545 0.82157 0.65821 0.0
H2695 H 0.63122 0.72734 0.55093 0.0
H2696 H 0.60951 0.81882 0.58458 0.0
H2697 H 0.61496 0.84151 0.59167 0.0
H2698 H 0.65247 0.85679 0.57343 0.0
H2699 H 0.64684 0.8342 0.56628 0.0
H2700 H 0.6088 0.79433 0.60263 0.0
H2701 H 0.61213 0.8029 0.62694 0.0
H2702 H 0.65152 0.83385 0.61938 0.0
H2703 H 0.64811 0.82508 0.59515 0.0
H2704 H 0.60905 0.7678 0.58989 0.0
H2705 H 0.61547 0.75607 0.60607 0.0
H2706 H 0.65552 0.78906 0.60863 0.0
H2707 H 0.649 0.80066 0.59269 0.0
H2708 H 0.60162 0.76306 0.55589 0.0
H2709 H 0.60038 0.74187 0.5501 0.0
H2710 H 0.64211 0.76019 0.56097 0.0
H2711 H 0.64323 0.78134 0.56655 0.0
H2712 H 0.60109 0.7831 0.53528 0.0
H2713 H 0.60007 0.77445 0.51128 0.0
H2714 H 0.64091 0.78534 0.51701 0.0
H2715 H 0.64183 0.79399 0.54076 0.0
H2716 H 0.60453 0.81268 0.55104 0.0
H2717 H 0.60548 0.82804 0.53395 0.0
H2718 H 0.64268 0.83344 0.52169 0.0
H2719 H 0.64185 0.81849 0.53911 0.0
O2720 O 0.62436 0.81833 0.64857 0.0
O2721 O 0.64451 0.83408 0.64412 0.0
O2722 O 0.61003 0.72668 0.54755 0.0
O2723 O 0.63144 0.7356 0.5531 0.0
C2724 C 0.62511 0.81125 0.57157 0.0
C2725 C 0.62602 0.80389 0.58238 0.0
C2726 C 0.62529 0.79164 0.57917 0.0
C2727 C 0.62315 0.78651 0.56518 0.0
C2728 C 0.62218 0.79384 0.55438 0.0
C2729 C 0.62317 0.80622 0.55755 0.0
C2730 C 0.62775 0.82491 0.57485 0.0
C2731 C 0.61881 0.82711 0.58198 0.0
C2732 C 0.62198 0.84005 0.58608 0.0
C2733 C 0.63415 0.85097 0.58311 0.0
C2734 C 0.64292 0.84866 0.57567 0.0
C2735 C 0.63975 0.83576 0.5716 0.0
C2736 C 0.62816 0.80916 0.59712 0.0
C2737 C 0.61814 0.80296 0.60626 0.0
C2738 C 0.62006 0.80788 0.62013 0.0
C2739 C 0.63208 0.81909 0.62509 0.0
C2740 C 0.64214 0.82523 0.61589 0.0
C2741 C 0.6402 0.82027 0.60203 0.0
C2742 C 0.62855 0.78509 0.59019 0.0
C2743 C 0.61915 0.77254 0.59417 0.0
C2744 C 0.62285 0.76585 0.60333 0.0
C2745 C 0.63601 0.77163 0.60864 0.0
C2746 C 0.64527 0.78441 0.60496 0.0
C2747 C 0.64157 0.79106 0.59582 0.0
C2748 C 0.62248 0.77368 0.56174 0.0
C2749 C 0.61047 0.76246 0.557 0.0
C2750 C 0.6098 0.75038 0.55372 0.0
C2751 C 0.62115 0.74932 0.55511 0.0
C2752 C 0.63318 0.76064 0.55981 0.0
C2753 C 0.63385 0.77272 0.56305 0.0
C2754 C 0.62152 0.78913 0.5397 0.0
C2755 C 0.6098 0.78367 0.53125 0.0
C2756 C 0.60923 0.7787 0.51762 0.0
C2757 C 0.62043 0.77927 0.51226 0.0
C2758 C 0.63218 0.78494 0.52076 0.0
C2759 C 0.63271 0.7898 0.53435 0.0
C2760 C 0.62306 0.8144 0.54623 0.0
C2761 C 0.6128 0.81709 0.54454 0.0
C2762 C 0.61334 0.82582 0.53475 0.0
C2763 C 0.62419 0.83201 0.5265 0.0
C2764 C 0.63428 0.82899 0.52801 0.0
C2765 C 0.63375 0.82031 0.53782 0.0
C2766 C 0.63407 0.82432 0.63982 0.0
C2767 C 0.62048 0.7365 0.55168 0.0
H2768 H 0.16737 0.81124 0.67046 0.0
H2769 H 0.10743 0.71059 0.54803 0.0
H2770 H 0.17638 0.82334 0.59922 0.0
H2771 H 0.19326 0.84539 0.60901 0.0
H2772 H 0.22358 0.83772 0.59611 0.0
H2773 H 0.2066 0.81527 0.58697 0.0
H2774 H 0.15491 0.80117 0.61034 0.0
H2775 H 0.15696 0.80589 0.63554 0.0
H2776 H 0.19075 0.80072 0.63848 0.0
H2777 H 0.1885 0.79585 0.61327 0.0
H2778 H 0.13576 0.78121 0.58546 0.0
H2779 H 0.11674 0.76898 0.59901 0.0
H2780 H 0.13827 0.7552 0.62363 0.0
H2781 H 0.15746 0.76755 0.6098 0.0
H2782 H 0.13816 0.77668 0.55663 0.0
H2783 H 0.11991 0.75575 0.54604 0.0
H2784 H 0.13577 0.73433 0.56695 0.0
H2785 H 0.15406 0.75536 0.57733 0.0
H2786 H 0.16148 0.80232 0.54736 0.0
H2787 H 0.1557 0.7969 0.52246 0.0
H2788 H 0.16442 0.76524 0.52441 0.0
H2789 H 0.17019 0.77077 0.54948 0.0
H2790 H 0.18095 0.82515 0.56639 0.0
H2791 H 0.19548 0.84129 0.55064 0.0
H2792 H 0.21203 0.81649 0.54107 0.0
H2793 H 0.19724 0.80027 0.55672 0.0
O2794 O 0.16672 0.80929 0.6605 0.0
O2795 O 0.18409 0.8066 0.66144 0.0
O2796 O 0.10685 0.7305 0.54148 0.0
O2797 O 0.11456 0.71901 0.55206 0.0
C2798 C 0.17984 0.80437 0.5863 0.0
C2799 C 0.17027 0.79513 0.59468 0.0
C2800 C 0.15947 0.78328 0.58845 0.0
C2801 C 0.15869 0.78024 0.57398 0.0
C2802 C 0.16825 0.78943 0.56559 0.0
C2803 C 0.17875 0.80154 0.57173 0.0
C2804 C 0.19024 0.81759 0.59257 0.0
C2805 C 0.18665 0.82626 0.5988 0.0
C2806 C 0.19627 0.83885 0.6043 0.0
C2807 C 0.20965 0.84315 0.60331 0.0
C2808 C 0.21329 0.83457 0.59696 0.0
C2809 C 0.20364 0.8218 0.59177 0.0
C2810 C 0.17147 0.79802 0.61 0.0
C2811 C 0.16268 0.80094 0.61646 0.0
C2812 C 0.1639 0.80369 0.63085 0.0
C2813 C 0.174 0.80365 0.63904 0.0
C2814 C 0.18285 0.80081 0.63249 0.0
C2815 C 0.18159 0.79802 0.6181 0.0
C2816 C 0.14793 0.77514 0.59654 0.0
C2817 C 0.13632 0.77537 0.59361 0.0
C2818 C 0.12545 0.76836 0.60136 0.0
C2819 C 0.12597 0.76102 0.61229 0.0
C2820 C 0.13762 0.76079 0.61527 0.0
C2821 C 0.14853 0.76777 0.60738 0.0
C2822 C 0.14751 0.76754 0.56761 0.0
C2823 C 0.13773 0.76747 0.55882 0.0
C2824 C 0.12729 0.75549 0.55283 0.0
C2825 C 0.1264 0.74336 0.55562 0.0
C2826 C 0.13617 0.74348 0.56455 0.0
C2827 C 0.14662 0.75547 0.57051 0.0
C2828 C 0.16633 0.78699 0.55021 0.0
C2829 C 0.16245 0.79442 0.54235 0.0
C2830 C 0.15916 0.79131 0.52812 0.0
C2831 C 0.1596 0.78063 0.52145 0.0
C2832 C 0.16387 0.77344 0.52928 0.0
C2833 C 0.16723 0.77662 0.54355 0.0
C2834 C 0.1881 0.8116 0.56272 0.0
C2835 C 0.18783 0.82329 0.561 0.0
C2836 C 0.19617 0.83251 0.55204 0.0
C2837 C 0.20495 0.83019 0.54462 0.0
C2838 C 0.20529 0.8185 0.54651 0.0
C2839 C 0.19691 0.80927 0.55548 0.0
C2840 C 0.17529 0.8066 0.65433 0.0
C2841 C 0.11533 0.73061 0.54927 0.0
H2842 H 0.19461 0.36854 0.68003 0.0
H2843 H 0.09974 0.36214 0.56628 0.0
H2844 H 0.21065 0.38517 0.61086 0.0
H2845 H 0.2265 0.37927 0.61994 0.0
H2846 H 0.20805 0.34371 0.59216 0.0
H2847 H 0.19168 0.34918 0.58407 0.0
H2848 H 0.18684 0.38584 0.62623 0.0
H2849 H 0.19083 0.38222 0.65031 0.0
H2850 H 0.18294 0.34294 0.63714 0.0
H2851 H 0.17882 0.34663 0.61314 0.0
H2852 H 0.16187 0.38636 0.61179 0.0
H2853 H 0.14401 0.38066 0.62734 0.0
H2854 H 0.13528 0.33999 0.62521 0.0
H2855 H 0.15314 0.34581 0.60989 0.0
H2856 H 0.1649 0.39313 0.57945 0.0
H2857 H 0.14515 0.39399 0.57263 0.0
H2858 H 0.12133 0.35164 0.57619 0.0
H2859 H 0.14118 0.35092 0.58286 0.0
H2860 H 0.1833 0.39388 0.55982 0.0
H2861 H 0.1764 0.39371 0.53531 0.0
H2862 H 0.15182 0.35103 0.5339 0.0
H2863 H 0.15845 0.35131 0.55833 0.0
H2864 H 0.2106 0.39225 0.57446 0.0
H2865 H 0.22479 0.39326 0.55598 0.0
H2866 H 0.19558 0.35323 0.54093 0.0
H2867 H 0.18169 0.35224 0.55956 0.0
O2868 O 0.19295 0.36975 0.67045 0.0
O2869 O 0.18887 0.34966 0.66314 0.0
O2870 O 0.12041 0.38383 0.56718 0.0
O2871 O 0.10772 0.36209 0.56893 0.0
C2872 C 0.18898 0.36987 0.59311 0.0
C2873 C 0.18025 0.36884 0.60335 0.0
C2874 C 0.16893 0.36953 0.59962 0.0
C2875 C 0.16646 0.37154 0.58576 0.0
C2876 C 0.17509 0.37247 0.57555 0.0
C2877 C 0.18636 0.37168 0.5792 0.0
C2878 C 0.20002 0.36763 0.59678 0.0
C2879 C 0.21016 0.3762 0.60665 0.0
C2880 C 0.21926 0.37282 0.61176 0.0
C2881 C 0.2185 0.36091 0.60691 0.0
C2882 C 0.20878 0.3528 0.59639 0.0
C2883 C 0.19954 0.35603 0.59152 0.0
C2884 C 0.18265 0.36655 0.61794 0.0
C2885 C 0.18597 0.37646 0.62858 0.0
C2886 C 0.18825 0.37437 0.64232 0.0
C2887 C 0.18724 0.36231 0.64565 0.0
C2888 C 0.18384 0.35236 0.63494 0.0
C2889 C 0.18152 0.35445 0.62121 0.0
C2890 C 0.15882 0.36651 0.60981 0.0
C2891 C 0.15616 0.37627 0.61484 0.0
C2892 C 0.14594 0.37298 0.62364 0.0
C2893 C 0.13825 0.35988 0.62754 0.0
C2894 C 0.14115 0.35022 0.62264 0.0
C2895 C 0.15133 0.35351 0.61385 0.0
C2896 C 0.15443 0.37199 0.58171 0.0
C2897 C 0.1554 0.38406 0.57873 0.0
C2898 C 0.14411 0.38452 0.57485 0.0
C2899 C 0.13165 0.37288 0.57389 0.0
C2900 C 0.13076 0.36079 0.57685 0.0
C2901 C 0.14206 0.36035 0.5807 0.0
C2902 C 0.17139 0.3726 0.56074 0.0
C2903 C 0.17645 0.38453 0.55416 0.0
C2904 C 0.17251 0.38441 0.54025 0.0
C2905 C 0.16369 0.37234 0.53276 0.0
C2906 C 0.15877 0.36043 0.5394 0.0
C2907 C 0.16249 0.36058 0.55332 0.0
C2908 C 0.19511 0.37221 0.56827 0.0
C2909 C 0.20734 0.38371 0.56719 0.0
C2910 C 0.21537 0.38428 0.5566 0.0
C2911 C 0.2113 0.37332 0.54699 0.0
C2912 C 0.19907 0.36178 0.54825 0.0
C2913 C 0.19107 0.36123 0.5588 0.0
C2914 C 0.18972 0.36014 0.66024 0.0
C2915 C 0.11963 0.37332 0.56979 0.0
C2916 C 0.97519 0.39325 0.07497 0.0
C2917 C 0.98787 0.39848 0.07011 0.0
C2918 C 0.97264 0.40041 0.08512 0.0
C2919 C 0.98484 0.43408 0.10077 0.0
H2920 H 0.96943 0.41685 0.13422 0.0
C2921 C 0.99166 0.46349 0.15253 0.0
C2922 C 0.98186 0.45826 0.16211 0.0
C2923 C 0.99036 0.45629 0.14008 0.0
C2924 C 0.97347 0.42178 0.12485 0.0
H2925 H 0.00784 0.41535 0.07238 0.0
H2926 H 0.00326 0.4279 0.08969 0.0
H2927 H 0.97078 0.4039 0.11457 0.0
H2928 H 0.9627 0.44157 0.16579 0.0
H2929 H 0.96022 0.42919 0.14382 0.0
H2930 H 0.98763 0.45197 0.11097 0.0
C2931 C 0.99528 0.41831 0.08554 0.0
C2932 C 0.97428 0.41434 0.11361 0.0
C2933 C 0.99788 0.41111 0.07557 0.0
C2934 C 0.97041 0.44593 0.15862 0.0
C2935 C 0.96906 0.43875 0.1461 0.0
C2936 C 0.9839 0.44149 0.11192 0.0
C2937 C 0.98267 0.41302 0.09048 0.0
C2938 C 0.98028 0.42049 0.10162 0.0
C2939 C 0.97916 0.44371 0.13681 0.0
C2940 C 0.97853 0.43551 0.12426 0.0
H2941 H 0.96718 0.38367 0.07087 0.0
H2942 H 0.96281 0.39614 0.08873 0.0
H2943 H 0.98935 0.43902 0.09154 0.0
H2944 H 0.00051 0.47306 0.1548 0.0
H2945 H 0.99842 0.4604 0.1333 0.0
C2946 C 0.60178 0.56625 0.11102 0.0
C2947 C 0.60796 0.58008 0.11374 0.0
C2948 C 0.59593 0.5577 0.12159 0.0
C2949 C 0.58114 0.55648 0.1547 0.0
H2950 H 0.58261 0.52437 0.15846 0.0
C2951 C 0.55589 0.52199 0.1984 0.0
C2952 C 0.54882 0.50829 0.19465 0.0
C2953 C 0.56433 0.53092 0.18926 0.0
C2954 C 0.58202 0.53325 0.15747 0.0
H2955 H 0.61309 0.59577 0.1298 0.0
H2956 H 0.60307 0.58086 0.14828 0.0
H2957 H 0.59533 0.53971 0.14115 0.0
H2958 H 0.54517 0.4932 0.17846 0.0
H2959 H 0.55982 0.50879 0.16241 0.0
H2960 H 0.56766 0.54996 0.17077 0.0
C2961 C 0.60264 0.57663 0.13793 0.0
C2962 C 0.58932 0.54204 0.14757 0.0
C2963 C 0.60851 0.58517 0.12737 0.0
C2964 C 0.5506 0.50369 0.18169 0.0
C2965 C 0.55901 0.51263 0.17251 0.0
C2966 C 0.57383 0.5477 0.16456 0.0
C2967 C 0.5961 0.5628 0.13511 0.0
C2968 C 0.5889 0.55372 0.14603 0.0
C2969 C 0.56586 0.52636 0.17612 0.0
C2970 C 0.57412 0.53593 0.16601 0.0
H2971 H 0.60132 0.56203 0.10066 0.0
H2972 H 0.5909 0.54709 0.11906 0.0
H2973 H 0.58041 0.56527 0.15361 0.0
H2974 H 0.55488 0.52581 0.20842 0.0
H2975 H 0.56965 0.54141 0.19247 0.0
C2976 C 0.42788 0.0049 0.07684 0.0
C2977 C 0.42104 0.01185 0.07696 0.0
C2978 C 0.43556 0.00558 0.08857 0.0
C2979 C 0.45267 0.02526 0.12127 0.0
H2980 H 0.44713 0.99178 0.13363 0.0
C2981 C 0.47054 0.02027 0.17611 0.0
C2982 C 0.47449 0.01087 0.17766 0.0
C2983 C 0.46531 0.02121 0.16325 0.0
C2984 C 0.44901 0.00126 0.13022 0.0
H2985 H 0.4172 0.02529 0.0893 0.0
H2986 H 0.43065 0.02648 0.10985 0.0
H2987 H 0.43576 0.99202 0.11218 0.0
H2988 H 0.47667 0.99554 0.1669 0.0
H2989 H 0.46787 0.9974 0.14434 0.0
H2990 H 0.46596 0.03452 0.1393 0.0
C2991 C 0.43007 0.02053 0.10066 0.0
C2992 C 0.44245 0.00138 0.11793 0.0
C2993 C 0.42229 0.01976 0.08895 0.0
C2994 C 0.47354 0.00276 0.16601 0.0
C2995 C 0.46844 0.0038 0.15312 0.0
C2996 C 0.45935 0.02516 0.13353 0.0
C2997 C 0.43664 0.0133 0.10065 0.0
C2998 C 0.44412 0.01336 0.11338 0.0
C2999 C 0.46402 0.01286 0.15163 0.0
C3000 C 0.45751 0.01314 0.13822 0.0
H3001 H 0.42701 0.99863 0.06779 0.0
H3002 H 0.4406 -1e-05 0.08824 0.0
H3003 H 0.45425 0.03465 0.11793 0.0
H3004 H 0.47102 0.02653 0.18497 0.0
H3005 H 0.46185 0.02817 0.16257 0.0
C3006 C 0.39747 0.98691 0.93743 0.0
C3007 C 0.39824 0.98208 0.95033 0.0
C3008 C 0.40468 0.98631 0.92654 0.0
C3009 C 0.43462 0.98509 0.92064 0.0
H3010 H 0.4214 0.97802 0.88195 0.0
C3011 C 0.46897 0.99847 0.87568 0.0
C3012 C 0.46493 0.98922 0.86416 0.0
C3013 C 0.46036 0.99672 0.88603 0.0
C3014 C 0.4252 0.97991 0.89272 0.0
H3015 H 0.4069 0.97246 0.96177 0.0
H3016 H 0.41929 0.97118 0.94268 0.0
H3017 H 0.40669 0.97572 0.9002 0.0
H3018 H 0.44863 0.97097 0.85436 0.0
H3019 H 0.43362 0.96783 0.87254 0.0
H3020 H 0.45309 0.98924 0.91321 0.0
C3021 C 0.41323 0.97559 0.94105 0.0
C3022 C 0.41681 0.97871 0.90315 0.0
C3023 C 0.40601 0.97618 0.95193 0.0
C3024 C 0.45206 0.9782 0.86318 0.0
C3025 C 0.44343 0.97648 0.87352 0.0
C3026 C 0.443 0.98633 0.91022 0.0
C3027 C 0.41284 0.98086 0.92832 0.0
C3028 C 0.42146 0.98138 0.91723 0.0
C3029 C 0.44751 0.98569 0.88508 0.0
C3030 C 0.43842 0.98387 0.89614 0.0
H3031 H 0.39145 0.99138 0.93582 0.0
H3032 H 0.40422 0.99054 0.91689 0.0
H3033 H 0.43855 0.98737 0.93137 0.0
H3034 H 0.47886 0.00698 0.8768 0.0
H3035 H 0.46375 0.00408 0.89473 0.0
C3036 C 0.01041 0.40428 0.94971 0.0
C3037 C 0.02206 0.40737 0.95737 0.0
C3038 C 0.01053 0.41244 0.93949 0.0
C3039 C 0.03095 0.44644 0.92743 0.0
H3040 H 0.00553 0.43117 0.89569 0.0
C3041 C 0.02131 0.47913 0.89116 0.0
C3042 C 0.01732 0.47463 0.87717 0.0
C3043 C 0.02269 0.47102 0.90053 0.0
C3044 C 0.01288 0.43565 0.90433 0.0
H3045 H 0.04303 0.42117 0.96022 0.0
H3046 H 0.04344 0.43515 0.94187 0.0
H3047 H 0.00689 0.41674 0.91209 0.0
H3048 H 0.01211 0.45853 0.86173 0.0
H3049 H 0.01518 0.44461 0.87781 0.0
H3050 H 0.03739 0.46531 0.91926 0.0
C3051 C 0.0341 0.42668 0.94402 0.0
C3052 C 0.01348 0.42733 0.91394 0.0
C3053 C 0.03391 0.41864 0.95446 0.0
C3054 C 0.01508 0.4621 0.87255 0.0
C3055 C 0.01674 0.45412 0.88182 0.0
C3056 C 0.03052 0.45475 0.91766 0.0
C3057 C 0.02238 0.42377 0.93648 0.0
C3058 C 0.02237 0.43261 0.92576 0.0
C3059 C 0.02037 0.45836 0.896 0.0
C3060 C 0.02135 0.44949 0.90606 0.0
H3061 H 0.00111 0.39576 0.95193 0.0
H3062 H 0.00125 0.41 0.9342 0.0
H3063 H 0.03784 0.45094 0.93645 0.0
H3064 H 0.023 0.48876 0.89492 0.0
H3065 H 0.02526 0.47459 0.91137 0.0
C3066 C 0.56907 0.58837 0.99526 0.0
C3067 C 0.57765 0.60216 0.99708 0.0
C3068 C 0.56056 0.58276 0.98331 0.0
C3069 C 0.54477 0.5899 0.95394 0.0
H3070 H 0.54645 0.56131 0.93418 0.0
C3071 C 0.5258 0.573 0.89634 0.0
C3072 C 0.52092 0.55965 0.89194 0.0
C3073 C 0.53106 0.57767 0.91 0.0
C3074 C 0.5456 0.56909 0.93965 0.0
H3075 H 0.58366 0.62095 0.98816 0.0
H3076 H 0.56873 0.61113 0.96728 0.0
H3077 H 0.55839 0.57033 0.95671 0.0
H3078 H 0.51692 0.54054 0.89842 0.0
H3079 H 0.52563 0.54851 0.92238 0.0
H3080 H 0.53194 0.58864 0.9369 0.0
C3081 C 0.5686 0.60468 0.97509 0.0
C3082 C 0.5525 0.57428 0.95257 0.0
C3083 C 0.57722 0.61028 0.98696 0.0
C3084 C 0.5208 0.55092 0.90155 0.0
C3085 C 0.52587 0.55552 0.91524 0.0
C3086 C 0.53771 0.58459 0.94106 0.0
C3087 C 0.56038 0.59084 0.97302 0.0
C3088 C 0.55227 0.58483 0.95978 0.0
C3089 C 0.53139 0.56903 0.91956 0.0
C3090 C 0.53815 0.5742 0.93368 0.0
H3091 H 0.56926 0.58187 0.00283 0.0
H3092 H 0.55425 0.57207 0.98202 0.0
H3093 H 0.54434 0.59796 0.95935 0.0
H3094 H 0.52606 0.57993 0.88906 0.0
H3095 H 0.53535 0.58815 0.91287 0.0
C3096 C 0.01289 0.59232 0.9903 0.0
C3097 C 0.01668 0.60563 0.98854 0.0
C3098 C 0.01462 0.58477 0.97989 0.0
C3099 C 0.03235 0.58728 0.94817 0.0
H3100 H 0.00286 0.55186 0.9384 0.0
C3101 C 0.02619 0.55849 0.89584 0.0
C3102 C 0.02083 0.54468 0.89563 0.0
C3103 C 0.02697 0.56573 0.90807 0.0
C3104 C 0.01128 0.56164 0.94114 0.0
H3105 H 0.02567 0.62157 0.97467 0.0
H3106 H 0.02848 0.60834 0.9564 0.0
H3107 H 0.00192 0.56493 0.95816 0.0
H3108 H 0.01251 0.5277 0.90823 0.0
H3109 H 0.01387 0.54037 0.92965 0.0
H3110 H 0.0416 0.58406 0.93096 0.0
C3111 C 0.02427 0.60377 0.96588 0.0
C3112 C 0.01074 0.56914 0.95247 0.0
C3113 C 0.02252 0.61131 0.97628 0.0
C3114 C 0.01654 0.53831 0.90802 0.0
C3115 C 0.01731 0.54556 0.92028 0.0
C3116 C 0.0329 0.57978 0.93684 0.0
C3117 C 0.02019 0.59036 0.96749 0.0
C3118 C 0.0212 0.58211 0.95602 0.0
C3119 C 0.02238 0.55933 0.9204 0.0
C3120 C 0.02229 0.56693 0.93308 0.0
H3121 H 0.00824 0.58759 0.99955 0.0
H3122 H 0.0115 0.57452 0.98151 0.0
H3123 H 0.04065 0.59716 0.95077 0.0
H3124 H 0.02936 0.56367 0.88641 0.0
H3125 H 0.03072 0.57628 0.90774 0.0
C3126 C 0.41144 0.44149 0.95879 0.0
C3127 C 0.39981 0.42953 0.95465 0.0
C3128 C 0.41799 0.45095 0.94921 0.0
C3129 C 0.41454 0.46198 0.91483 0.0
H3130 H 0.45201 0.47516 0.91474 0.0
C3131 C 0.44606 0.49034 0.86977 0.0
C3132 C 0.45917 0.50034 0.87317 0.0
C3133 C 0.43824 0.48252 0.88004 0.0
C3134 C 0.4416 0.47179 0.91475 0.0
H3135 H 0.38568 0.41834 0.93728 0.0
H3136 H 0.39709 0.43496 0.92055 0.0
H3137 H 0.43929 0.46022 0.93215 0.0
H3138 H 0.47418 0.51054 0.89001 0.0
H3139 H 0.4605 0.49716 0.908 0.0
H3140 H 0.41688 0.47359 0.89739 0.0
C3141 C 0.40109 0.43701 0.93125 0.0
C3142 C 0.43431 0.46319 0.92472 0.0
C3143 C 0.39456 0.4275 0.94083 0.0
C3144 C 0.46416 0.50274 0.88709 0.0
C3145 C 0.45633 0.49504 0.89736 0.0
C3146 C 0.42187 0.47069 0.90487 0.0
C3147 C 0.41303 0.4487 0.93528 0.0
C3148 C 0.4207 0.45817 0.92486 0.0
C3149 C 0.44337 0.48464 0.89393 0.0
C3150 C 0.4355 0.47568 0.9047 0.0
H3151 H 0.41559 0.44349 0.96943 0.0
H3152 H 0.42705 0.45998 0.95267 0.0
H3153 H 0.40407 0.45833 0.91476 0.0
H3154 H 0.44201 0.48823 0.85909 0.0
H3155 H 0.42836 0.47451 0.877 0.0
C3156 C 0.57438 0.99716 0.98315 0.0
C3157 C 0.58283 0.99197 0.98247 0.0
C3158 C 0.56583 0.99537 0.97176 0.0
C3159 C 0.55074 0.97553 0.93818 0.0
H3160 H 0.54894 0.00637 0.92817 0.0
C3161 C 0.53388 0.98102 0.88325 0.0
C3162 C 0.52624 0.98709 0.882 0.0
C3163 C 0.53902 0.98034 0.89627 0.0
C3164 C 0.54915 0.9976 0.93094 0.0
H3165 H 0.58851 0.98037 0.96945 0.0
H3166 H 0.57388 0.97755 0.94949 0.0
H3167 H 0.56114 0.0075 0.94961 0.0
H3168 H 0.51758 0.99675 0.89355 0.0
H3169 H 0.52668 0.99568 0.91631 0.0
H3170 H 0.53904 0.96577 0.91926 0.0
C3171 C 0.57374 0.98289 0.95887 0.0
C3172 C 0.55614 0.99824 0.94325 0.0
C3173 C 0.58227 0.98466 0.97026 0.0
C3174 C 0.5236 0.9922 0.89413 0.0
C3175 C 0.52879 0.99157 0.90716 0.0
C3176 C 0.54379 0.97491 0.92585 0.0
C3177 C 0.56553 0.98836 0.95942 0.0
C3178 C 0.55718 0.98727 0.94692 0.0
C3179 C 0.53668 0.98577 0.90835 0.0
C3180 C 0.54308 0.986 0.922 0.0
H3181 H 0.57462 0.00292 0.99236 0.0
H3182 H 0.55952 0.99957 0.97259 0.0
H3183 H 0.55115 0.96683 0.94083 0.0
H3184 H 0.53629 0.97719 0.87411 0.0
H3185 H 0.54523 0.97599 0.89681 0.0
C3186 C 0.60072 0.02881 0.11189 0.0
C3187 C 0.60179 0.01766 0.10816 0.0
C3188 C 0.59329 0.0286 0.12298 0.0
C3189 C 0.56614 0.00512 0.14311 0.0
H3190 H 0.57829 0.03509 0.17014 0.0
C3191 C 0.5394 0.00077 0.19283 0.0
C3192 C 0.53734 0.01124 0.19679 0.0
C3193 C 0.54778 0.00213 0.18237 0.0
C3194 C 0.57471 0.0267 0.16259 0.0
H3195 H 0.59585 0.99754 0.11314 0.0
H3196 H 0.58318 0.99729 0.13256 0.0
H3197 H 0.59196 0.03647 0.15107 0.0
H3198 H 0.54267 0.03145 0.19307 0.0
H3199 H 0.55732 0.03383 0.17472 0.0
H3200 H 0.54892 0.99535 0.15452 0.0
C3201 C 0.58797 0.00616 0.12686 0.0
C3202 C 0.58253 0.02749 0.15168 0.0
C3203 C 0.59539 0.00637 0.11583 0.0
C3204 C 0.54414 0.02324 0.19032 0.0
C3205 C 0.55253 0.02461 0.17982 0.0
C3206 C 0.55835 0.00434 0.15398 0.0
C3207 C 0.58673 0.01721 0.13049 0.0
C3208 C 0.57837 0.01666 0.14189 0.0
C3209 C 0.5543 0.01399 0.1756 0.0
C3210 C 0.56258 0.01506 0.16392 0.0
H3211 H 0.60562 0.03769 0.10625 0.0
H3212 H 0.59246 0.03725 0.12547 0.0
H3213 H 0.56252 0.99671 0.13558 0.0
H3214 H 0.53451 0.99148 0.19781 0.0
H3215 H 0.54915 0.99386 0.17957 0.0
C3216 C 0.97628 0.5785 0.09658 0.0
C3217 C 0.97629 0.59021 0.10046 0.0
C3218 C 0.97549 0.56986 0.10658 0.0
C3219 C 0.98174 0.56943 0.14437 0.0
H3220 H 0.96407 0.53136 0.13592 0.0
C3221 C 0.97783 0.53293 0.18514 0.0
C3222 C 0.9812 0.52349 0.18074 0.0
C3223 C 0.97615 0.54069 0.17555 0.0
C3224 C 0.96908 0.54198 0.13839 0.0
H3225 H 0.97491 0.60179 0.11774 0.0
H3226 H 0.97322 0.58655 0.13521 0.0
H3227 H 0.96253 0.54547 0.11888 0.0
H3228 H 0.98516 0.51454 0.16285 0.0
H3229 H 0.98219 0.52807 0.14605 0.0
H3230 H 0.98823 0.56588 0.16392 0.0
C3231 C 0.97416 0.58419 0.12449 0.0
C3232 C 0.96824 0.55008 0.12863 0.0
C3233 C 0.97507 0.5929 0.11449 0.0
C3234 C 0.98266 0.52181 0.16653 0.0
C3235 C 0.98085 0.52946 0.15692 0.0
C3236 C 0.98247 0.56132 0.15417 0.0
C3237 C 0.97458 0.57267 0.12069 0.0
C3238 C 0.97469 0.56393 0.13143 0.0
C3239 C 0.97767 0.53904 0.16135 0.0
C3240 C 0.97629 0.54753 0.15122 0.0
H3241 H 0.97742 0.57627 0.08588 0.0
H3242 H 0.97607 0.56122 0.10328 0.0
H3243 H 0.98703 0.58006 0.14681 0.0
H3244 H 0.97674 0.5345 0.19605 0.0
H3245 H 0.97363 0.54794 0.17924 0.0
C3246 C 0.43359 0.41268 0.0665 0.0
C3247 C 0.42442 0.39899 0.0649 0.0
C3248 C 0.44265 0.41807 0.07804 0.0
C3249 C 0.45771 0.40925 0.10718 0.0
H3250 H 0.46323 0.4422 0.12487 0.0
C3251 C 0.47916 0.42802 0.16383 0.0
C3252 C 0.48756 0.44175 0.16679 0.0
C3253 C 0.47312 0.42299 0.1505 0.0
C3254 C 0.46198 0.43311 0.11994 0.0
H3255 H 0.41793 0.38017 0.07401 0.0
H3256 H 0.43345 0.38963 0.09436 0.0
H3257 H 0.44944 0.43305 0.10335 0.0
H3258 H 0.49678 0.46089 0.15786 0.0
H3259 H 0.48616 0.45211 0.13459 0.0
H3260 H 0.46999 0.40918 0.12409 0.0
C3261 C 0.43375 0.39619 0.08658 0.0
C3262 C 0.45406 0.42785 0.10758 0.0
C3263 C 0.42473 0.39078 0.075 0.0
C3264 C 0.49019 0.45028 0.15597 0.0
C3265 C 0.48411 0.44526 0.14265 0.0
C3266 C 0.46559 0.41449 0.11961 0.0
C3267 C 0.44273 0.40992 0.08832 0.0
C3268 C 0.45173 0.4158 0.10109 0.0
C3269 C 0.4753 0.4316 0.13985 0.0
C3270 C 0.46772 0.42642 0.12617 0.0
H3271 H 0.43357 0.41933 0.05902 0.0
H3272 H 0.44954 0.42867 0.07894 0.0
H3273 H 0.45629 0.40006 0.10235 0.0
H3274 H 0.47676 0.42118 0.17197 0.0
H3275 H 0.46627 0.41243 0.14871 0.0
C3276 C 0.64802 0.74061 0.409 0.0
C3277 C 0.64012 0.72737 0.40363 0.0
C3278 C 0.64361 0.74589 0.41927 0.0
C3279 C 0.62127 0.73619 0.44747 0.0
H3280 H 0.6289 0.77255 0.44717 0.0
C3281 C 0.60948 0.76102 0.49326 0.0
C3282 C 0.61991 0.77365 0.49803 0.0
C3283 C 0.60979 0.75516 0.48044 0.0
C3284 C 0.62672 0.76239 0.44742 0.0
H3285 H 0.62123 0.70937 0.40472 0.0
H3286 H 0.61358 0.71858 0.42286 0.0
H3287 H 0.63351 0.76251 0.42711 0.0
H3288 H 0.63846 0.79034 0.49281 0.0
H3289 H 0.63909 0.78009 0.4706 0.0
H3290 H 0.61487 0.73619 0.46795 0.0
C3291 C 0.62324 0.72483 0.41911 0.0
C3292 C 0.62936 0.75664 0.43593 0.0
C3293 C 0.62764 0.71955 0.40876 0.0
C3294 C 0.63035 0.78053 0.48947 0.0
C3295 C 0.63064 0.77471 0.47667 0.0
C3296 C 0.61865 0.74195 0.45898 0.0
C3297 C 0.6312 0.73805 0.4245 0.0
C3298 C 0.62695 0.74359 0.43597 0.0
C3299 C 0.62049 0.76185 0.47212 0.0
C3300 C 0.62163 0.75521 0.45921 0.0
H3301 H 0.65779 0.74685 0.40552 0.0
H3302 H 0.65009 0.75603 0.42341 0.0
H3303 H 0.61941 0.72615 0.44786 0.0
H3304 H 0.60134 0.75546 0.49967 0.0
H3305 H 0.60176 0.74529 0.47715 0.0
C3306 C 0.26251 0.9159 0.463 0.0
C3307 C 0.26422 0.9111 0.4501 0.0
C3308 C 0.2571 0.90743 0.47371 0.0
C3309 C 0.24976 0.87473 0.48552 0.0
H3310 H 0.22485 0.87849 0.50757 0.0
C3311 C 0.21512 0.83516 0.52159 0.0
C3312 C 0.21334 0.83974 0.53459 0.0
C3313 C 0.22232 0.84412 0.5118 0.0
C3314 C 0.23191 0.87743 0.50162 0.0
H3315 H 0.26179 0.89363 0.43849 0.0
H3316 H 0.25193 0.87876 0.45701 0.0
H3317 H 0.23535 0.89356 0.48938 0.0
H3318 H 0.21821 0.85735 0.5477 0.0
H3319 H 0.23063 0.87297 0.53051 0.0
H3320 H 0.24603 0.85835 0.49762 0.0
C3321 C 0.25497 0.88913 0.45892 0.0
C3322 C 0.23795 0.88607 0.4912 0.0
C3323 C 0.26046 0.89763 0.44822 0.0
C3324 C 0.21919 0.85349 0.53769 0.0
C3325 C 0.22631 0.86243 0.52787 0.0
C3326 C 0.24364 0.86601 0.49589 0.0
C3327 C 0.25317 0.89392 0.47177 0.0
C3328 C 0.24694 0.88483 0.48301 0.0
C3329 C 0.22782 0.85783 0.51477 0.0
C3330 C 0.23465 0.86727 0.50403 0.0
H3331 H 0.26514 0.92617 0.46477 0.0
H3332 H 0.25601 0.9115 0.48353 0.0
H3333 H 0.25679 0.87362 0.47954 0.0
H3334 H 0.2106 0.82464 0.5188 0.0
H3335 H 0.2232 0.84029 0.50173 0.0
C3336 C 0.10713 0.34418 0.41683 0.0
C3337 C 0.09818 0.34873 0.41563 0.0
C3338 C 0.1158 0.34791 0.42862 0.0
C3339 C 0.13166 0.37288 0.45808 0.0
H3340 H 0.13277 0.34461 0.47656 0.0
C3341 C 0.15344 0.37955 0.51454 0.0
C3342 C 0.15916 0.372 0.51818 0.0
C3343 C 0.14757 0.37787 0.50117 0.0
C3344 C 0.13283 0.3527 0.47142 0.0
H3345 H 0.09155 0.36106 0.42558 0.0
H3346 H 0.10674 0.36763 0.44622 0.0
H3347 H 0.11963 0.33951 0.45474 0.0
H3348 H 0.16405 0.35745 0.51059 0.0
H3349 H 0.15427 0.35484 0.4871 0.0
H3350 H 0.14491 0.3861 0.47473 0.0
C3351 C 0.10703 0.36117 0.43804 0.0
C3352 C 0.12523 0.34974 0.45893 0.0
C3353 C 0.09826 0.35731 0.42631 0.0
C3354 C 0.15955 0.36326 0.50805 0.0
C3355 C 0.15386 0.36172 0.49464 0.0
C3356 C 0.1394 0.37588 0.47053 0.0
C3357 C 0.11578 0.35639 0.43937 0.0
C3358 C 0.12446 0.35977 0.45221 0.0
C3359 C 0.14746 0.36871 0.49114 0.0
C3360 C 0.13997 0.3658 0.47743 0.0
H3361 H 0.10723 0.33749 0.40878 0.0
H3362 H 0.1225 0.34415 0.42936 0.0
H3363 H 0.13134 0.38082 0.45302 0.0
H3364 H 0.15294 0.38627 0.52224 0.0
H3365 H 0.14262 0.38332 0.49892 0.0
C3366 C 0.06483 0.29382 0.28188 0.0
C3367 C 0.07231 0.30583 0.29003 0.0
C3368 C 0.06973 0.29132 0.26983 0.0
C3369 C 0.0938 0.30913 0.24399 0.0
H3370 H 0.0912 0.27528 0.23469 0.0
C3371 C 0.12532 0.30367 0.20357 0.0
C3372 C 0.11937 0.29251 0.194 0.0
C3373 C 0.11862 0.30453 0.2148 0.0
C3374 C 0.09184 0.28473 0.23706 0.0
H3375 H 0.09105 0.3243 0.29237 0.0
H3376 H 0.09956 0.31996 0.27146 0.0
H3377 H 0.08123 0.27806 0.25544 0.0
H3378 H 0.10173 0.27342 0.18885 0.0
H3379 H 0.09 0.27491 0.20865 0.0
H3380 H 0.10451 0.31588 0.22579 0.0
C3381 C 0.08979 0.3126 0.27415 0.0
C3382 C 0.08614 0.28632 0.24893 0.0
C3383 C 0.08492 0.31509 0.28614 0.0
C3384 C 0.10661 0.28211 0.19608 0.0
C3385 C 0.0999 0.28296 0.2074 0.0
C3386 C 0.09948 0.30755 0.23218 0.0
C3387 C 0.08219 0.3008 0.26573 0.0
C3388 C 0.08729 0.29863 0.25265 0.0
C3389 C 0.10581 0.29424 0.21681 0.0
C3390 C 0.09878 0.29542 0.22873 0.0
H3391 H 0.05505 0.28653 0.28458 0.0
H3392 H 0.06364 0.28215 0.26352 0.0
H3393 H 0.09458 0.31864 0.24639 0.0
H3394 H 0.13526 0.31171 0.20249 0.0
H3395 H 0.12356 0.31321 0.22204 0.0
C3396 C 0.68648 0.754 0.29039 0.0
C3397 C 0.69427 0.74841 0.29364 0.0
C3398 C 0.68979 0.76287 0.27997 0.0
C3399 C 0.71714 0.78593 0.25992 0.0
H3400 H 0.68878 0.78208 0.2348 0.0
C3401 C 0.7222 0.82669 0.22423 0.0
C3402 C 0.71546 0.82261 0.21102 0.0
C3403 C 0.72068 0.81731 0.23365 0.0
C3404 C 0.69685 0.78322 0.2416 0.0
H3405 H 0.71179 0.74791 0.2886 0.0
H3406 H 0.71763 0.76352 0.27034 0.0
H3407 H 0.68404 0.76628 0.25246 0.0
H3408 H 0.70243 0.80553 0.19702 0.0
H3409 H 0.6998 0.78917 0.21342 0.0
H3410 H 0.72995 0.8029 0.24897 0.0
C3411 C 0.70897 0.76104 0.27595 0.0
C3412 C 0.6941 0.77425 0.25184 0.0
C3413 C 0.70564 0.75211 0.2864 0.0
C3414 C 0.70755 0.80897 0.20723 0.0
C3415 C 0.70605 0.79961 0.21662 0.0
C3416 C 0.71989 0.79495 0.24966 0.0
C3417 C 0.70099 0.76641 0.27254 0.0
C3418 C 0.70417 0.77558 0.26122 0.0
C3419 C 0.7124 0.80367 0.23003 0.0
C3420 C 0.70975 0.79375 0.24046 0.0
H3421 H 0.67784 0.75161 0.29599 0.0
H3422 H 0.6836 0.76706 0.27781 0.0
H3423 H 0.72509 0.78725 0.26704 0.0
H3424 H 0.72827 0.83714 0.22748 0.0
H3425 H 0.72559 0.82077 0.24395 0.0
C3426 C 0.23841 0.94924 0.32499 0.0
C3427 C 0.23976 0.94 0.33271 0.0
C3428 C 0.22985 0.94503 0.31304 0.0
C3429 C 0.20214 0.91495 0.2939 0.0
H3430 H 0.21564 0.93516 0.26152 0.0
C3431 C 0.18435 0.89272 0.23768 0.0
C3432 C 0.18323 0.90058 0.22771 0.0
C3433 C 0.18928 0.89799 0.25125 0.0
C3434 C 0.21161 0.92953 0.27051 0.0
H3435 H 0.23312 0.91911 0.33397 0.0
H3436 H 0.21834 0.91178 0.31311 0.0
H3437 H 0.22804 0.94364 0.28396 0.0
H3438 H 0.186 0.91998 0.22419 0.0
H3439 H 0.19469 0.92925 0.24801 0.0
H3440 H 0.18596 0.90059 0.28026 0.0
C3441 C 0.22365 0.92225 0.31642 0.0
C3442 C 0.21871 0.93439 0.2834 0.0
C3443 C 0.23216 0.92645 0.32838 0.0
C3444 C 0.18671 0.91369 0.2317 0.0
C3445 C 0.19177 0.91902 0.24528 0.0
C3446 C 0.19508 0.91006 0.28099 0.0
C3447 C 0.22249 0.93149 0.30851 0.0
C3448 C 0.21421 0.92703 0.29519 0.0
C3449 C 0.19329 0.91127 0.25513 0.0
C3450 C 0.19987 0.91717 0.26911 0.0
H3451 H 0.24401 0.95973 0.32818 0.0
H3452 H 0.22904 0.95239 0.30731 0.0
H3453 H 0.19825 0.90915 0.30282 0.0
H3454 H 0.18162 0.88254 0.2349 0.0
H3455 H 0.19044 0.8918 0.25856 0.0
C3456 C 0.69053 0.92175 0.32657 0.0
C3457 C 0.69682 0.93564 0.32891 0.0
C3458 C 0.6949 0.916 0.31676 0.0
C3459 C 0.72272 0.92329 0.29447 0.0
H3460 H 0.69557 0.89258 0.27215 0.0
C3461 C 0.72945 0.90464 0.24044 0.0
C3462 C 0.72334 0.89083 0.23754 0.0
C3463 C 0.72778 0.90983 0.25301 0.0
C3464 C 0.70329 0.90104 0.27842 0.0
H3465 H 0.71303 0.9543 0.32299 0.0
H3466 H 0.72019 0.94429 0.30538 0.0
H3467 H 0.68946 0.90221 0.29116 0.0
H3468 H 0.71147 0.8717 0.24603 0.0
H3469 H 0.70835 0.88078 0.26785 0.0
H3470 H 0.73645 0.92235 0.28115 0.0
C3471 C 0.71203 0.93782 0.31136 0.0
C3472 C 0.6998 0.90656 0.28938 0.0
C3473 C 0.70777 0.94359 0.32133 0.0
C3474 C 0.7161 0.88237 0.24781 0.0
C3475 C 0.71433 0.88755 0.26032 0.0
C3476 C 0.72619 0.91784 0.28337 0.0
C3477 C 0.70555 0.92394 0.30882 0.0
C3478 C 0.70945 0.9178 0.29753 0.0
C3479 C 0.71988 0.90131 0.26289 0.0
C3480 C 0.71649 0.90669 0.27522 0.0
H3481 H 0.68197 0.91527 0.33204 0.0
H3482 H 0.6898 0.90527 0.31531 0.0
H3483 H 0.73045 0.93181 0.30065 0.0
H3484 H 0.73494 0.91145 0.23271 0.0
H3485 H 0.73208 0.92047 0.25468 0.0
C3486 C 0.07463 0.78065 0.29332 0.0
C3487 C 0.06218 0.76932 0.29017 0.0
C3488 C 0.08055 0.79008 0.28353 0.0
C3489 C 0.08016 0.79299 0.24568 0.0
H3490 H 0.10238 0.83062 0.25603 0.0
C3491 C 0.10778 0.8307 0.20503 0.0
C3492 C 0.12113 0.8398 0.20873 0.0
C3493 C 0.09941 0.82296 0.215 0.0
C3494 C 0.09624 0.82013 0.253 0.0
H3495 H 0.04589 0.75933 0.27455 0.0
H3496 H 0.05619 0.77586 0.25747 0.0
H3497 H 0.08967 0.81555 0.27352 0.0
H3498 H 0.13605 0.84832 0.22587 0.0
H3499 H 0.12152 0.8347 0.24321 0.0
H3500 H 0.08689 0.79753 0.22523 0.0
C3501 C 0.06149 0.77732 0.26741 0.0
C3502 C 0.08897 0.8115 0.26301 0.0
C3503 C 0.05558 0.76786 0.2772 0.0
C3504 C 0.12584 0.84128 0.22268 0.0
C3505 C 0.11748 0.83358 0.23264 0.0
C3506 C 0.0874 0.80163 0.23567 0.0
C3507 C 0.07415 0.78841 0.27037 0.0
C3508 C 0.08099 0.79779 0.25952 0.0
C3509 C 0.10422 0.8242 0.22888 0.0
C3510 C 0.09567 0.81526 0.23926 0.0
H3511 H 0.08005 0.78197 0.30314 0.0
H3512 H 0.09039 0.7984 0.28608 0.0
H3513 H 0.07429 0.78248 0.24267 0.0
H3514 H 0.10388 0.82928 0.19435 0.0
H3515 H 0.08921 0.8159 0.21181 0.0
C3516 C 0.23011 0.30336 0.3133 0.0
C3517 C 0.24265 0.31485 0.31406 0.0
C3518 C 0.22196 0.29943 0.30101 0.0
C3519 C 0.22363 0.30426 0.26324 0.0
H3520 H 0.18626 0.29153 0.26367 0.0
C3521 C 0.19347 0.30377 0.21521 0.0
C3522 C 0.18115 0.29237 0.21175 0.0
C3523 C 0.20034 0.30522 0.22785 0.0
C3524 C 0.19665 0.29491 0.26341 0.0
H3525 H 0.25624 0.33153 0.30278 0.0
H3526 H 0.24208 0.32479 0.28151 0.0
H3527 H 0.19947 0.29658 0.28567 0.0
H3528 H 0.16629 0.27358 0.21885 0.0
H3529 H 0.17835 0.27618 0.24119 0.0
H3530 H 0.22092 0.30293 0.24105 0.0
C3531 C 0.23863 0.31858 0.29022 0.0
C3532 C 0.20421 0.29779 0.27599 0.0
C3533 C 0.24675 0.32247 0.30242 0.0
C3534 C 0.17579 0.28245 0.22127 0.0
C3535 C 0.18263 0.28397 0.23404 0.0
C3536 C 0.21612 0.30147 0.25073 0.0
C3537 C 0.22621 0.30693 0.28928 0.0
C3538 C 0.21785 0.30276 0.27603 0.0
C3539 C 0.19504 0.29533 0.23738 0.0
C3540 C 0.20261 0.29701 0.25068 0.0
H3541 H 0.22672 0.29727 0.32209 0.0
H3542 H 0.21248 0.29037 0.30061 0.0
H3543 H 0.23404 0.30774 0.26288 0.0
H3544 H 0.19794 0.3115 0.20801 0.0
H3545 H 0.20981 0.31414 0.2302 0.0
C3546 C 0.27606 0.36924 0.4515 0.0
C3547 C 0.26834 0.36497 0.43884 0.0
C3548 C 0.27125 0.37185 0.46352 0.0
C3549 C 0.24544 0.37825 0.47598 0.0
H3550 H 0.25075 0.36443 0.50996 0.0
C3551 C 0.22592 0.38521 0.5279 0.0
C3552 C 0.21963 0.37389 0.53555 0.0
C3553 C 0.23311 0.3854 0.51661 0.0
C3554 C 0.24915 0.36832 0.50055 0.0
H3555 H 0.24969 0.36057 0.42879 0.0
H3556 H 0.24117 0.36483 0.4498 0.0
H3557 H 0.26074 0.36246 0.48902 0.0
H3558 H 0.21636 0.35408 0.53767 0.0
H3559 H 0.22868 0.3543 0.51787 0.0
H3560 H 0.23344 0.38366 0.4874 0.0
C3561 C 0.251 0.36629 0.45042 0.0
C3562 C 0.25501 0.36733 0.48858 0.0
C3563 C 0.25582 0.36368 0.43841 0.0
C3564 C 0.22096 0.36289 0.53188 0.0
C3565 C 0.22815 0.36308 0.52063 0.0
C3566 C 0.23958 0.37924 0.48796 0.0
C3567 C 0.2586 0.37025 0.46316 0.0
C3568 C 0.25309 0.37214 0.4761 0.0
C3569 C 0.23421 0.37429 0.51277 0.0
C3570 C 0.24123 0.37412 0.50034 0.0
H3571 H 0.2857 0.37022 0.45223 0.0
H3572 H 0.27741 0.37503 0.47312 0.0
H3573 H 0.2439 0.38219 0.46658 0.0
H3574 H 0.225 0.3938 0.53041 0.0
H3575 H 0.23777 0.39423 0.51086 0.0
C3576 C 0.65207 0.91864 0.44635 0.0
C3577 C 0.64214 0.9176 0.43694 0.0
C3578 C 0.64903 0.90972 0.4567 0.0
C3579 C 0.62464 0.87601 0.46493 0.0
H3580 H 0.64161 0.88803 0.5021 0.0
C3581 C 0.61421 0.83989 0.50846 0.0
C3582 C 0.62525 0.84193 0.51671 0.0
C3583 C 0.61532 0.84928 0.49924 0.0
C3584 C 0.63686 0.8845 0.49174 0.0
H3585 H 0.62115 0.9065 0.43129 0.0
H3586 H 0.61588 0.89078 0.44931 0.0
H3587 H 0.64524 0.90425 0.48513 0.0
H3588 H 0.64603 0.85561 0.52196 0.0
H3589 H 0.64804 0.87176 0.50567 0.0
H3590 H 0.6165 0.85624 0.47143 0.0
C3591 C 0.62604 0.89848 0.44857 0.0
C3592 C 0.63893 0.89379 0.48203 0.0
C3593 C 0.62906 0.90747 0.43824 0.0
C3594 C 0.63737 0.85362 0.51561 0.0
C3595 C 0.63849 0.86299 0.50641 0.0
C3596 C 0.62261 0.8667 0.47463 0.0
C3597 C 0.63601 0.89948 0.45786 0.0
C3598 C 0.63299 0.88965 0.46847 0.0
C3599 C 0.62749 0.86093 0.49809 0.0
C3600 C 0.62886 0.87083 0.48809 0.0
H3601 H 0.66228 0.92614 0.4455 0.0
H3602 H 0.65697 0.91061 0.46355 0.0
H3603 H 0.62004 0.8725 0.45451 0.0
H3604 H 0.60474 0.83095 0.50901 0.0
H3605 H 0.60663 0.84745 0.49307 0.0
C3606 C 0.10206 0.75556 0.40605 0.0
C3607 C 0.0928 0.74195 0.40362 0.0
C3608 C 0.11106 0.76019 0.41766 0.0
C3609 C 0.12581 0.74923 0.44503 0.0
H3610 H 0.13123 0.78078 0.466 0.0
C3611 C 0.14639 0.76302 0.50236 0.0
C3612 C 0.15471 0.77651 0.50663 0.0
C3613 C 0.14055 0.75921 0.48882 0.0
C3614 C 0.13001 0.77208 0.46015 0.0
H3615 H 0.08606 0.7225 0.41127 0.0
H3616 H 0.10147 0.7306 0.43169 0.0
H3617 H 0.11777 0.77342 0.44416 0.0
H3618 H 0.164 0.79652 0.4998 0.0
H3619 H 0.15377 0.78986 0.47616 0.0
H3620 H 0.1378 0.74774 0.46128 0.0
C3621 C 0.1019 0.73769 0.42455 0.0
C3622 C 0.12229 0.76786 0.44761 0.0
C3623 C 0.09293 0.73307 0.41293 0.0
C3624 C 0.15747 0.78606 0.49689 0.0
C3625 C 0.15161 0.78225 0.48336 0.0
C3626 C 0.13351 0.75344 0.45761 0.0
C3627 C 0.11099 0.75133 0.42714 0.0
C3628 C 0.11996 0.75629 0.43997 0.0
C3629 C 0.14288 0.7688 0.47926 0.0
C3630 C 0.13557 0.76483 0.46539 0.0
H3631 H 0.10218 0.76269 0.39915 0.0
H3632 H 0.11803 0.77074 0.41926 0.0
H3633 H 0.1244 0.7404 0.43929 0.0
H3634 H 0.14391 0.75543 0.50966 0.0
H3635 H 0.13376 0.74878 0.48604 0.0
C3636 C 0.30745 0.05509 0.7504 0.0
C3637 C 0.30466 0.05718 0.73675 0.0
C3638 C 0.30465 0.06077 0.76178 0.0
C3639 C 0.28526 0.07575 0.77307 0.0
H3640 H 0.31277 0.09214 0.80288 0.0
C3641 C 0.28422 0.1074 0.82089 0.0
C3642 C 0.28898 0.10566 0.83374 0.0
C3643 C 0.28523 0.10125 0.80859 0.0
C3644 C 0.30492 0.08748 0.79473 0.0
H3645 H 0.2963 0.06655 0.72437 0.0
H3646 H 0.29151 0.07663 0.74438 0.0
H3647 H 0.3161 0.0818 0.78229 0.0
H3648 H 0.29769 0.09548 0.84395 0.0
H3649 H 0.29934 0.0847 0.82265 0.0
H3650 H 0.27406 0.08145 0.78566 0.0
C3651 C 0.29583 0.07052 0.7462 0.0
C3652 C 0.30684 0.08156 0.78292 0.0
C3653 C 0.29868 0.06484 0.73476 0.0
C3654 C 0.29423 0.09725 0.83415 0.0
C3655 C 0.29519 0.09109 0.82194 0.0
C3656 C 0.28331 0.08168 0.78496 0.0
C3657 C 0.29901 0.06872 0.75982 0.0
C3658 C 0.29698 0.07547 0.77204 0.0
C3659 C 0.29098 0.09323 0.80898 0.0
C3660 C 0.29307 0.08744 0.79601 0.0
H3661 H 0.31221 0.04939 0.75233 0.0
H3662 H 0.30705 0.05904 0.77215 0.0
H3663 H 0.27748 0.07109 0.76485 0.0
H3664 H 0.28014 0.11385 0.82029 0.0
H3665 H 0.28193 0.10311 0.79876 0.0
C3666 C 0.93179 0.22102 0.77056 0.0
C3667 C 0.93731 0.23482 0.77294 0.0
C3668 C 0.92551 0.21252 0.78107 0.0
C3669 C 0.90914 0.21117 0.81333 0.0
H3670 H 0.91306 0.1808 0.81978 0.0
C3671 C 0.88811 0.18024 0.86046 0.0
C3672 C 0.88142 0.16637 0.85802 0.0
C3673 C 0.8955 0.18846 0.85025 0.0
C3674 C 0.91179 0.18918 0.81802 0.0
H3675 H 0.94058 0.25047 0.78828 0.0
H3676 H 0.92998 0.23573 0.80664 0.0
H3677 H 0.92495 0.1954 0.80156 0.0
H3678 H 0.87739 0.15024 0.843 0.0
H3679 H 0.89035 0.16462 0.82515 0.0
H3680 H 0.89598 0.20499 0.82972 0.0
C3681 C 0.93035 0.23144 0.79661 0.0
C3682 C 0.91859 0.19753 0.80758 0.0
C3683 C 0.9366 0.23992 0.78613 0.0
C3684 C 0.88255 0.16089 0.84525 0.0
C3685 C 0.88997 0.16913 0.83503 0.0
C3686 C 0.90238 0.20286 0.82375 0.0
C3687 C 0.9246 0.21764 0.79417 0.0
C3688 C 0.91737 0.20865 0.80516 0.0
C3689 C 0.89639 0.18301 0.83735 0.0
C3690 C 0.90365 0.1918 0.82625 0.0
H3691 H 0.93228 0.21678 0.76056 0.0
H3692 H 0.92111 0.20193 0.77883 0.0
H3693 H 0.90776 0.21949 0.81155 0.0
H3694 H 0.88763 0.18477 0.87028 0.0
H3695 H 0.90054 0.19912 0.85246 0.0
C3696 C 0.77399 0.6841 0.74588 0.0
C3697 C 0.76649 0.69027 0.74413 0.0
C3698 C 0.78268 0.68749 0.7576 0.0
C3699 C 0.80058 0.71279 0.78672 0.0
H3700 H 0.79691 0.68289 0.80623 0.0
C3701 C 0.81913 0.71744 0.84426 0.0
C3702 C 0.82335 0.70876 0.84844 0.0
C3703 C 0.81405 0.71633 0.83061 0.0
C3704 C 0.7983 0.6914 0.80082 0.0
H3705 H 0.76271 0.70529 0.75292 0.0
H3706 H 0.77783 0.71114 0.77345 0.0
H3707 H 0.78486 0.67898 0.78391 0.0
H3708 H 0.82643 0.69274 0.84152 0.0
H3709 H 0.81794 0.69104 0.81761 0.0
H3710 H 0.81397 0.72522 0.80372 0.0
C3711 C 0.77701 0.7037 0.76575 0.0
C3712 C 0.79134 0.68913 0.78801 0.0
C3713 C 0.76825 0.70026 0.75407 0.0
C3714 C 0.82304 0.69942 0.83858 0.0
C3715 C 0.81812 0.69842 0.82492 0.0
C3716 C 0.80763 0.71508 0.79952 0.0
C3717 C 0.78412 0.69717 0.76777 0.0
C3718 C 0.79229 0.69978 0.78089 0.0
C3719 C 0.81321 0.7066 0.82085 0.0
C3720 C 0.80647 0.70439 0.8068 0.0
H3721 H 0.77279 0.6763 0.73845 0.0
H3722 H 0.78813 0.68237 0.75882 0.0
H3723 H 0.80159 0.7212 0.78139 0.0
H3724 H 0.8192 0.72467 0.85171 0.0
H3725 H 0.81025 0.72272 0.82791 0.0
C3726 C 0.72872 0.63396 0.6105 0.0
C3727 C 0.73694 0.64169 0.62218 0.0
C3728 C 0.73409 0.63188 0.59864 0.0
C3729 C 0.76376 0.64759 0.57981 0.0
H3730 H 0.75132 0.61273 0.56167 0.0
C3731 C 0.79108 0.64019 0.53547 0.0
C3732 C 0.78374 0.63062 0.52455 0.0
C3733 C 0.78504 0.64112 0.54728 0.0
C3734 C 0.75478 0.62256 0.56646 0.0
H3735 H 0.75716 0.65324 0.63066 0.0
H3736 H 0.76657 0.64977 0.60983 0.0
H3737 H 0.74124 0.61493 0.58254 0.0
H3738 H 0.76435 0.61455 0.51732 0.0
H3739 H 0.7536 0.61646 0.53778 0.0
H3740 H 0.77699 0.65537 0.56366 0.0
C3741 C 0.75598 0.64526 0.60991 0.0
C3742 C 0.74904 0.62379 0.57845 0.0
C3743 C 0.7506 0.64716 0.62184 0.0
C3744 C 0.77022 0.62198 0.52565 0.0
C3745 C 0.7641 0.62304 0.53741 0.0
C3746 C 0.76935 0.64641 0.56773 0.0
C3747 C 0.74779 0.6377 0.59817 0.0
C3748 C 0.75359 0.63631 0.58531 0.0
C3749 C 0.77145 0.63264 0.54839 0.0
C3750 C 0.76505 0.63386 0.56097 0.0
H3751 H 0.71814 0.62959 0.61054 0.0
H3752 H 0.72758 0.62605 0.58969 0.0
H3753 H 0.76729 0.65739 0.58478 0.0
H3754 H 0.80158 0.6468 0.53498 0.0
H3755 H 0.7911 0.6484 0.55564 0.0
C3756 C 0.3531 0.08076 0.6122 0.0
C3757 C 0.3596 0.08525 0.62552 0.0
C3758 C 0.35595 0.08959 0.60178 0.0
C3759 C 0.38055 0.12299 0.59156 0.0
H3760 H 0.35093 0.1192 0.56872 0.0
C3761 C 0.38415 0.16278 0.55506 0.0
C3762 C 0.377 0.15818 0.54208 0.0
C3763 C 0.3828 0.15384 0.56498 0.0
C3764 C 0.35933 0.1203 0.57489 0.0
H3765 H 0.37448 0.1025 0.63817 0.0
H3766 H 0.37921 0.11799 0.62005 0.0
H3767 H 0.34715 0.10371 0.5865 0.0
H3768 H 0.36333 0.14056 0.52906 0.0
H3769 H 0.36096 0.12499 0.54635 0.0
H3770 H 0.39269 0.13974 0.57999 0.0
C3771 C 0.37201 0.1076 0.61764 0.0
C3772 C 0.35717 0.11141 0.58508 0.0
C3773 C 0.36919 0.09875 0.62808 0.0
C3774 C 0.36877 0.14443 0.53908 0.0
C3775 C 0.36741 0.13552 0.54897 0.0
C3776 C 0.38271 0.13193 0.58137 0.0
C3777 C 0.36531 0.10314 0.60442 0.0
C3778 C 0.36774 0.11262 0.59352 0.0
C3779 C 0.37426 0.14012 0.5621 0.0
C3780 C 0.37211 0.13065 0.5729 0.0
H3781 H 0.34556 0.07047 0.6099 0.0
H3782 H 0.35074 0.08579 0.59165 0.0
H3783 H 0.38892 0.12411 0.59779 0.0
H3784 H 0.39047 0.17331 0.55774 0.0
H3785 H 0.38812 0.1577 0.57505 0.0
C3786 C 0.91407 0.27219 0.64533 0.0
C3787 C 0.91241 0.26282 0.6549 0.0
C3788 C 0.90566 0.26845 0.63333 0.0
C3789 C 0.87385 0.2411 0.61658 0.0
H3790 H 0.89012 0.25636 0.58266 0.0
C3791 C 0.85135 0.21801 0.56111 0.0
C3792 C 0.85241 0.22668 0.55091 0.0
C3793 C 0.8573 0.223 0.57448 0.0
C3794 C 0.88539 0.25215 0.59208 0.0
H3795 H 0.90059 0.24223 0.65956 0.0
H3796 H 0.88612 0.23554 0.63839 0.0
H3797 H 0.90322 0.26394 0.6047 0.0
H3798 H 0.86023 0.24731 0.54673 0.0
H3799 H 0.87074 0.25606 0.57011 0.0
H3800 H 0.85613 0.2289 0.60369 0.0
C3801 C 0.8937 0.24587 0.64028 0.0
C3802 C 0.89289 0.25651 0.60474 0.0
C3803 C 0.90201 0.24967 0.65239 0.0
C3804 C 0.85919 0.24041 0.55443 0.0
C3805 C 0.86528 0.24541 0.56775 0.0
C3806 C 0.86638 0.23663 0.60386 0.0
C3807 C 0.8955 0.25519 0.63051 0.0
C3808 C 0.88725 0.25098 0.61716 0.0
C3809 C 0.86456 0.23676 0.57783 0.0
C3810 C 0.87211 0.24206 0.59147 0.0
H3811 H 0.92189 0.28245 0.64715 0.0
H3812 H 0.90717 0.27596 0.62623 0.0
H3813 H 0.86912 0.23677 0.62594 0.0
H3814 H 0.84609 0.20738 0.55868 0.0
H3815 H 0.85667 0.21611 0.58201 0.0
C3816 C 0.36967 0.28128 0.64564 0.0
C3817 C 0.36228 0.27383 0.65643 0.0
C3818 C 0.37376 0.27556 0.63545 0.0
C3819 C 0.36472 0.24307 0.61871 0.0
H3820 H 0.39875 0.26256 0.60316 0.0
C3821 C 0.37911 0.21938 0.57446 0.0
C3822 C 0.38484 0.22735 0.56334 0.0
C3823 C 0.3779 0.22496 0.58702 0.0
C3824 C 0.38919 0.25701 0.60735 0.0
H3825 H 0.35355 0.25457 0.66509 0.0
H3826 H 0.36084 0.24465 0.64742 0.0
H3827 H 0.39371 0.27255 0.62296 0.0
H3828 H 0.39407 0.24745 0.55676 0.0
H3829 H 0.39192 0.25716 0.57862 0.0
H3830 H 0.36003 0.22768 0.60295 0.0
C3831 C 0.36338 0.25489 0.64678 0.0
C3832 C 0.3863 0.26273 0.61869 0.0
C3833 C 0.35932 0.26062 0.65699 0.0
C3834 C 0.38978 0.24108 0.56521 0.0
C3835 C 0.38854 0.24665 0.57775 0.0
C3836 C 0.36759 0.23736 0.60738 0.0
C3837 C 0.37051 0.26224 0.6358 0.0
C3838 C 0.37398 0.25588 0.62439 0.0
C3839 C 0.38236 0.23861 0.58871 0.0
C3840 C 0.3798 0.24432 0.60146 0.0
H3841 H 0.37223 0.29153 0.64501 0.0
H3842 H 0.37913 0.28146 0.62707 0.0
H3843 H 0.35506 0.23761 0.62271 0.0
H3844 H 0.37536 0.2088 0.57338 0.0
H3845 H 0.37331 0.21853 0.59535 0.0
C3846 C 0.74123 0.10628 0.61768 0.0
C3847 C 0.73736 0.09287 0.61488 0.0
C3848 C 0.74676 0.11535 0.60745 0.0
C3849 C 0.75014 0.11696 0.5693 0.0
H3850 H 0.78014 0.15199 0.57941 0.0
C3851 C 0.7857 0.14981 0.52971 0.0
C3852 C 0.79006 0.16344 0.53076 0.0
C3853 C 0.77811 0.14162 0.53984 0.0
C3854 C 0.77165 0.14231 0.57646 0.0
H3855 H 0.73656 0.07852 0.59933 0.0
H3856 H 0.74636 0.09431 0.5816 0.0
H3857 H 0.76922 0.13688 0.59754 0.0
H3858 H 0.78981 0.1792 0.5431 0.0
H3859 H 0.77654 0.16484 0.56095 0.0
H3860 H 0.75285 0.12227 0.54818 0.0
C3861 C 0.74481 0.0978 0.59153 0.0
C3862 C 0.76538 0.13365 0.58684 0.0
C3863 C 0.73923 0.08874 0.60171 0.0
C3864 C 0.78651 0.1687 0.54203 0.0
C3865 C 0.77902 0.16053 0.55227 0.0
C3866 C 0.75646 0.12557 0.55894 0.0
C3867 C 0.74861 0.1112 0.59424 0.0
C3868 C 0.75468 0.12079 0.58336 0.0
C3869 C 0.7748 0.14691 0.55129 0.0
C3870 C 0.7674 0.13826 0.56239 0.0
H3871 H 0.73979 0.10972 0.6277 0.0
H3872 H 0.74944 0.12557 0.60983 0.0
H3873 H 0.74174 0.10724 0.56628 0.0
H3874 H 0.78821 0.14548 0.52107 0.0
H3875 H 0.7751 0.1312 0.53888 0.0
C3876 C 0.89136 0.64035 0.64461 0.0
C3877 C 0.90172 0.65358 0.64688 0.0
C3878 C 0.8823 0.6365 0.63312 0.0
C3879 C 0.86984 0.65022 0.60646 0.0
H3880 H 0.86064 0.61795 0.58424 0.0
C3881 C 0.8524 0.64219 0.54898 0.0
C3882 C 0.84152 0.62989 0.54404 0.0
C3883 C 0.85799 0.64402 0.56246 0.0
C3884 C 0.86295 0.62687 0.59047 0.0
H3885 H 0.91043 0.6732 0.63907 0.0
H3886 H 0.89491 0.66645 0.61892 0.0
H3887 H 0.87367 0.6232 0.60635 0.0
H3888 H 0.8281 0.60978 0.54947 0.0
H3889 H 0.83818 0.61296 0.57307 0.0
H3890 H 0.85956 0.65414 0.59033 0.0
C3891 C 0.89366 0.65905 0.62608 0.0
C3892 C 0.8704 0.62988 0.60313 0.0
C3893 C 0.90268 0.6629 0.63754 0.0
C3894 C 0.83651 0.61936 0.5529 0.0
C3895 C 0.84224 0.62117 0.56641 0.0
C3896 C 0.86249 0.64726 0.5938 0.0
C3897 C 0.88339 0.6458 0.62368 0.0
C3898 C 0.8742 0.64177 0.6111 0.0
C3899 C 0.85296 0.63357 0.57132 0.0
C3900 C 0.85924 0.63573 0.58552 0.0
H3901 H 0.89041 0.63292 0.65157 0.0
H3902 H 0.87446 0.62623 0.63162 0.0
H3903 H 0.87232 0.65929 0.6125 0.0
H3904 H 0.8568 0.65041 0.54235 0.0
H3905 H 0.86644 0.65359 0.56586 0.0
C3906 C 0.91835 0.69902 0.76755 0.0
C3907 C 0.9316 0.70235 0.76872 0.0
C3908 C 0.91254 0.70129 0.77888 0.0
C3909 C 0.9195 0.71952 0.81331 0.0
H3910 H 0.88479 0.69055 0.82005 0.0
C3911 C 0.89381 0.71591 0.86461 0.0
C3912 C 0.88016 0.71084 0.86336 0.0
C3913 C 0.90055 0.71602 0.85291 0.0
C3914 C 0.8944 0.69882 0.81823 0.0
H3915 H 0.94929 0.71121 0.78257 0.0
H3916 H 0.93904 0.71493 0.80247 0.0
H3917 H 0.8957 0.68881 0.79987 0.0
H3918 H 0.863 0.70266 0.84883 0.0
H3919 H 0.87472 0.70292 0.82847 0.0
H3920 H 0.91818 0.72947 0.83183 0.0
C3921 C 0.93318 0.71065 0.79273 0.0
C3922 C 0.90066 0.69782 0.80664 0.0
C3923 C 0.93901 0.70839 0.78138 0.0
C3924 C 0.87347 0.70635 0.85015 0.0
C3925 C 0.88018 0.7065 0.8385 0.0
C3926 C 0.91322 0.72053 0.82495 0.0
C3927 C 0.91981 0.70689 0.79167 0.0
C3928 C 0.91325 0.70817 0.80401 0.0
C3929 C 0.89375 0.71109 0.83977 0.0
C3930 C 0.90057 0.7102 0.82749 0.0
H3931 H 0.9123 0.69423 0.75802 0.0
H3932 H 0.90227 0.69846 0.77766 0.0
H3933 H 0.92917 0.7277 0.8115 0.0
H3934 H 0.8992 0.71938 0.87468 0.0
H3935 H 0.91098 0.71954 0.85424 0.0
C3936 C 0.30094 0.24982 0.77606 0.0
C3937 C 0.30404 0.2475 0.76271 0.0
C3938 C 0.29753 0.24034 0.7859 0.0
C3939 C 0.28739 0.20493 0.78978 0.0
H3940 H 0.30189 0.2178 0.82769 0.0
C3941 C 0.29121 0.17203 0.83071 0.0
C3942 C 0.2879 0.17352 0.84425 0.0
C3943 C 0.29183 0.18055 0.82064 0.0
C3944 C 0.29764 0.21405 0.81719 0.0
H3945 H 0.30597 0.23342 0.74914 0.0
H3946 H 0.30028 0.21699 0.76633 0.0
H3947 H 0.30538 0.23361 0.81033 0.0
H3948 H 0.2826 0.18505 0.85786 0.0
H3949 H 0.28372 0.19998 0.84026 0.0
H3950 H 0.28002 0.18535 0.79665 0.0
C3951 C 0.30015 0.22598 0.76916 0.0
C3952 C 0.29959 0.22311 0.80723 0.0
C3953 C 0.30345 0.23541 0.7593 0.0
C3954 C 0.28507 0.18361 0.84747 0.0
C3955 C 0.28582 0.19221 0.83745 0.0
C3956 C 0.28554 0.19587 0.79973 0.0
C3957 C 0.29728 0.22838 0.78263 0.0
C3958 C 0.29458 0.21867 0.79337 0.0
C3959 C 0.28929 0.19082 0.82395 0.0
C3960 C 0.29072 0.20035 0.81351 0.0
H3961 H 0.30117 0.259 0.77892 0.0
H3962 H 0.29514 0.24242 0.79608 0.0
H3963 H 0.28319 0.20114 0.77927 0.0
H3964 H 0.29335 0.16428 0.82793 0.0
H3965 H 0.29464 0.17932 0.81036 0.0
C3966 C 0.76819 0.06226 0.73358 0.0
C3967 C 0.75598 0.06168 0.73302 0.0
C3968 C 0.7762 0.06648 0.74598 0.0
C3969 C 0.77431 0.07029 0.78397 0.0
H3970 H 0.81196 0.0947 0.78457 0.0
C3971 C 0.80436 0.10046 0.8336 0.0
C3972 C 0.81656 0.10145 0.83675 0.0
C3973 C 0.79756 0.09485 0.82073 0.0
C3974 C 0.80148 0.08774 0.78453 0.0
H3975 H 0.74291 0.06569 0.74481 0.0
H3976 H 0.75682 0.07307 0.76629 0.0
H3977 H 0.79898 0.08636 0.76226 0.0
H3978 H 0.83125 0.0974 0.82889 0.0
H3979 H 0.81928 0.08757 0.80618 0.0
H3980 H 0.77671 0.07188 0.80619 0.0
C3981 C 0.76009 0.06992 0.75732 0.0
C3982 C 0.79406 0.08296 0.77177 0.0
C3983 C 0.75211 0.06571 0.74499 0.0
C3984 C 0.82184 0.09672 0.82672 0.0
C3985 C 0.81505 0.09119 0.81374 0.0
C3986 C 0.78169 0.07509 0.79667 0.0
C3987 C 0.77215 0.07021 0.75803 0.0
C3988 C 0.78034 0.07441 0.77138 0.0
C3989 C 0.80278 0.09011 0.81068 0.0
C3990 C 0.79531 0.08407 0.7971 0.0
H3991 H 0.77141 0.05916 0.72453 0.0
H3992 H 0.78542 0.06654 0.74622 0.0
H3993 H 0.76381 0.06345 0.78403 0.0
H3994 H 0.79996 0.10384 0.84118 0.0
H3995 H 0.7882 0.09429 0.81862 0.0
C3996 C 0.05098 0.32978 0.04894 0.0
C3997 C 0.0525 0.34222 0.05283 0.0
C3998 C 0.0578 0.32492 0.05649 0.0
C3999 C 0.07416 0.32844 0.09099 0.0
H4000 H 0.09057 0.31127 0.07193 0.0
C4001 C 0.11123 0.31719 0.11876 0.0
C4002 C 0.1111 0.30547 0.11455 0.0
C4003 C 0.10314 0.32085 0.11168 0.0
C4004 C 0.08586 0.31585 0.07742 0.0
H4005 H 0.06242 0.35934 0.06767 0.0
H4006 H 0.07448 0.35094 0.08075 0.0
H4007 H 0.0787 0.31958 0.05843 0.0
H4008 H 0.10207 0.2882 0.09987 0.0
H4009 H 0.08771 0.29445 0.08768 0.0
H4010 H 0.08136 0.32475 0.10999 0.0
C4011 C 0.06791 0.34489 0.07192 0.0
C4012 C 0.0791 0.32064 0.06968 0.0
C4013 C 0.06113 0.34977 0.06433 0.0
C4014 C 0.10234 0.29724 0.10343 0.0
C4015 C 0.09423 0.30091 0.09633 0.0
C4016 C 0.0809 0.32361 0.09874 0.0
C4017 C 0.06625 0.33238 0.06814 0.0
C4018 C 0.07325 0.32708 0.07637 0.0
C4019 C 0.09471 0.31287 0.10023 0.0
C4020 C 0.08691 0.31734 0.09205 0.0
H4021 H 0.04449 0.32378 0.04004 0.0
H4022 H 0.05625 0.31521 0.05336 0.0
H4023 H 0.06956 0.33314 0.09645 0.0
H4024 H 0.11777 0.32366 0.1274 0.0
H4025 H 0.10384 0.33017 0.1149 0.0
C4026 C 0.65455 0.70012 0.10653 0.0
C4027 C 0.64907 0.69725 0.09275 0.0
C4028 C 0.65974 0.71287 0.11293 0.0
C4029 C 0.65877 0.74369 0.11107 0.0
H4030 H 0.69398 0.76077 0.12905 0.0
C4031 C 0.6879 0.79975 0.12518 0.0
C4032 C 0.69548 0.80433 0.13789 0.0
C4033 C 0.6823 0.78652 0.12024 0.0
C4034 C 0.68407 0.75609 0.12426 0.0
H4035 H 0.64432 0.70524 0.07504 0.0
H4036 H 0.6533 0.72748 0.08625 0.0
H4037 H 0.68345 0.73767 0.11987 0.0
H4038 H 0.70333 0.79877 0.15533 0.0
H4039 H 0.69337 0.7755 0.1468 0.0
H4040 H 0.65928 0.76199 0.11548 0.0
C4041 C 0.6536 0.71991 0.09209 0.0
C4042 C 0.67805 0.74287 0.11899 0.0
C4043 C 0.64855 0.70723 0.08564 0.0
C4044 C 0.69761 0.7955 0.14543 0.0
C4045 C 0.69191 0.78219 0.14053 0.0
C4046 C 0.66473 0.75686 0.11642 0.0
C4047 C 0.6594 0.72291 0.10573 0.0
C4048 C 0.66542 0.7366 0.11219 0.0
C4049 C 0.68405 0.77751 0.12795 0.0
C4050 C 0.67753 0.76329 0.12289 0.0
H4051 H 0.65517 0.69263 0.1122 0.0
H4052 H 0.66408 0.7149 0.1235 0.0
H4053 H 0.64895 0.73904 0.10605 0.0
H4054 H 0.68627 0.80642 0.11906 0.0
H4055 H 0.67659 0.78335 0.11034 0.0
C4056 C 0.299 0.95511 0.04609 0.0
C4057 C 0.30542 0.94831 0.04195 0.0
C4058 C 0.28756 0.94879 0.05323 0.0
C4059 C 0.26904 0.91993 0.07432 0.0
H4060 H 0.24235 0.9298 0.07004 0.0
C4061 C 0.22926 0.90572 0.11349 0.0
C4062 C 0.21662 0.90268 0.10864 0.0
C4063 C 0.23959 0.91078 0.10468 0.0
C4064 C 0.24959 0.92676 0.07126 0.0
H4065 H 0.30479 0.92949 0.04173 0.0
H4066 H 0.28448 0.9182 0.05381 0.0
H4067 H 0.2607 0.9388 0.05519 0.0
H4068 H 0.20476 0.90242 0.09082 0.0
H4069 H 0.22271 0.91086 0.07519 0.0
H4070 H 0.25768 0.9075 0.09 0.0
C4071 C 0.28847 0.92855 0.05187 0.0
C4072 C 0.26026 0.9321 0.06286 0.0
C4073 C 0.30005 0.93496 0.04488 0.0
C4074 C 0.21448 0.90481 0.09481 0.0
C4075 C 0.22478 0.90969 0.0859 0.0
C4076 C 0.25828 0.91445 0.08257 0.0
C4077 C 0.28214 0.93543 0.05626 0.0
C4078 C 0.27025 0.92893 0.06444 0.0
C4079 C 0.23748 0.91271 0.09072 0.0
C4080 C 0.24852 0.91796 0.08133 0.0
H4081 H 0.30306 0.96549 0.04417 0.0
H4082 H 0.28319 0.95452 0.0567 0.0
H4083 H 0.27658 0.91734 0.07596 0.0
H4084 H 0.23118 0.90431 0.12418 0.0
H4085 H 0.24928 0.9133 0.10889 0.0
C4086 C 0.33917 0.04052 0.98735 0.0
C4087 C 0.34907 0.04525 0.99821 0.0
C4088 C 0.33349 0.04796 0.98353 0.0
C4089 C 0.33908 0.08172 0.98426 0.0
H4090 H 0.30129 0.06335 0.97595 0.0
C4091 C 0.31283 0.109 0.96472 0.0
C4092 C 0.3039 0.10261 0.95306 0.0
C4093 C 0.31766 0.10225 0.97231 0.0
C4094 C 0.31185 0.06861 0.97819 0.0
H4095 H 0.36095 0.06168 0.01341 0.0
H4096 H 0.35107 0.07484 0.00657 0.0
H4097 H 0.31145 0.05129 0.98515 0.0
H4098 H 0.29289 0.08406 0.94041 0.0
H4099 H 0.30123 0.0723 0.95364 0.0
H4100 H 0.33953 0.09896 0.97692 0.0
C4101 C 0.34773 0.06531 0.00107 0.0
C4102 C 0.31767 0.06171 0.98345 0.0
C4103 C 0.3534 0.0578 0.00495 0.0
C4104 C 0.29956 0.0892 0.94947 0.0
C4105 C 0.30437 0.08246 0.95706 0.0
C4106 C 0.33326 0.08863 0.97895 0.0
C4107 C 0.33761 0.06038 0.99042 0.0
C4108 C 0.33137 0.06811 0.98625 0.0
C4109 C 0.31364 0.08896 0.96842 0.0
C4110 C 0.31961 0.08207 0.97557 0.0
H4111 H 0.33583 0.03104 0.9817 0.0
H4112 H 0.32595 0.04405 0.97505 0.0
H4113 H 0.34968 0.08688 0.98623 0.0
H4114 H 0.31623 0.11928 0.96784 0.0
H4115 H 0.32465 0.10747 0.98113 0.0
C4116 C 0.94366 0.28534 0.99006 0.0
C4117 C 0.95581 0.29399 0.98472 0.0
C4118 C 0.93558 0.27254 0.98387 0.0
C4119 C 0.93628 0.24671 0.96122 0.0
H4120 H 0.8986 0.2324 0.95663 0.0
C4121 C 0.9004 0.19678 0.93004 0.0
C4122 C 0.88823 0.18873 0.93566 0.0
C4123 C 0.90904 0.20959 0.936 0.0
C4124 C 0.90909 0.23619 0.95797 0.0
H4125 H 0.96906 0.29591 0.96877 0.0
H4126 H 0.95483 0.27366 0.9578 0.0
H4127 H 0.91279 0.25488 0.96696 0.0
H4128 H 0.87587 0.18749 0.95231 0.0
H4129 H 0.89091 0.20975 0.9627 0.0
H4130 H 0.93253 0.22797 0.95221 0.0
C4131 C 0.95161 0.27675 0.96685 0.0
C4132 C 0.91722 0.24908 0.9639 0.0
C4133 C 0.95968 0.28955 0.97303 0.0
C4134 C 0.88506 0.19358 0.94757 0.0
C4135 C 0.89367 0.20633 0.95351 0.0
C4136 C 0.92813 0.2338 0.95528 0.0
C4137 C 0.93948 0.26809 0.9722 0.0
C4138 C 0.9309 0.25446 0.96566 0.0
C4139 C 0.90567 0.21457 0.94768 0.0
C4140 C 0.91444 0.22837 0.95368 0.0
H4141 H 0.94036 0.28849 0.99899 0.0
H4142 H 0.92635 0.26606 0.98833 0.0
H4143 H 0.94677 0.25052 0.96259 0.0
H4144 H 0.90307 0.19332 0.92082 0.0
H4145 H 0.91819 0.21573 0.93122 0.0
C4146 C 0.70819 0.65901 0.03328 0.0
C4147 C 0.6966 0.64768 0.02765 0.0
C4148 C 0.72 0.66355 0.02685 0.0
C4149 C 0.73676 0.65349 0.0017 0.0
H4150 H 0.75715 0.69116 0.9963 0.0
C4151 C 0.77705 0.67453 0.96277 0.0
C4152 C 0.78871 0.68655 0.96662 0.0
C4153 C 0.76632 0.66985 0.97101 0.0
C4154 C 0.75168 0.68065 0.99789 0.0
H4155 H 0.68838 0.63211 0.01097 0.0
H4156 H 0.70901 0.63998 -0.00019 0.0
H4157 H 0.73759 0.68262 0.00954 0.0
H4158 H 0.79825 0.70313 0.98213 0.0
H4159 H 0.77945 0.69492 0.99662 0.0
H4160 H 0.75078 0.6515 0.98997 0.0
C4161 C 0.70899 0.64528 0.00927 0.0
C4162 C 0.74047 0.67575 0.00548 0.0
C4163 C 0.69717 0.64076 0.01568 0.0
C4164 C 0.78935 0.69388 0.97884 0.0
C4165 C 0.7786 0.68918 0.98713 0.0
C4166 C 0.74798 0.65839 0.99414 0.0
C4167 C 0.72049 0.65683 0.01468 0.0
C4168 C 0.73281 0.6621 0.00733 0.0
C4169 C 0.76698 0.67707 0.98332 0.0
C4170 C 0.75548 0.672 0.99201 0.0
H4171 H 0.70813 0.66442 0.04264 0.0
H4172 H 0.72875 0.67234 0.03139 0.0
H4173 H 0.73116 0.64296 0.00313 0.0
H4174 H 0.77617 0.66878 0.95326 0.0
H4175 H 0.75742 0.66064 0.96761 0.0
C4176 C 0.93648 0.64728 1e-05 0.0
C4177 C 0.94826 0.65616 0.00776 0.0
C4178 C 0.92958 0.65201 0.99237 0.0
C4179 C 0.92668 0.68197 0.98847 0.0
H4180 H 0.90942 0.66393 0.95269 0.0
C4181 C 0.90329 0.70228 0.94995 0.0
C4182 C 0.89036 0.69303 0.94474 0.0
C4183 C 0.91086 0.69811 0.95731 0.0
C4184 C 0.91416 0.66903 0.96269 0.0
H4185 H 0.96215 0.67693 0.0135 0.0
H4186 H 0.95031 0.68521 -6e-05 0.0
H4187 H 0.92153 0.656 0.96638 0.0
H4188 H 0.87528 0.67213 0.94339 0.0
H4189 H 0.88862 0.66492 0.9558 0.0
H4190 H 0.91941 0.69512 0.98458 0.0
C4191 C 0.94617 0.67459 2e-05 0.0
C4192 C 0.92104 0.66445 0.97059 0.0
C4193 C 0.95298 0.66985 0.00778 0.0
C4194 C 0.88529 0.67952 0.94691 0.0
C4195 C 0.8929 0.67536 0.9541 0.0
C4196 C 0.91992 0.68664 0.98049 0.0
C4197 C 0.93441 0.66573 0.99215 0.0
C4198 C 0.92729 0.67078 0.98364 0.0
C4199 C 0.90572 0.68461 0.95947 0.0
C4200 C 0.9135 0.68014 0.96758 0.0
H4201 H 0.93256 0.63667 -7e-05 0.0
H4202 H 0.92042 0.64488 0.98668 0.0
H4203 H 0.93119 0.68698 0.99856 0.0
H4204 H 0.90758 0.71273 0.94835 0.0
H4205 H 0.92077 0.70544 0.96125 0.0
C4206 C 0.33777 0.2957 0.97412 0.0
C4207 C 0.34817 0.30664 0.9684 0.0
C4208 C 0.33216 0.28303 0.96745 0.0
C4209 C 0.3382 0.26334 0.94067 0.0
H4210 H 0.30058 0.23933 0.94153 0.0
C4211 C 0.31103 0.21262 0.90929 0.0
C4212 C 0.3031 0.20176 0.91706 0.0
C4213 C 0.31592 0.22561 0.91481 0.0
C4214 C 0.3111 0.24593 0.94125 0.0
H4215 H 0.36085 0.313 0.95123 0.0
H4216 H 0.35085 0.29092 0.93935 0.0
H4217 H 0.31058 0.26171 0.95263 0.0
H4218 H 0.29384 0.19611 0.93665 0.0
H4219 H 0.3021 0.21878 0.94608 0.0
H4220 H 0.33862 0.24755 0.92912 0.0
C4221 C 0.34721 0.29203 0.94915 0.0
C4222 C 0.31686 0.25873 0.94767 0.0
C4223 C 0.35293 0.30469 0.95593 0.0
C4224 C 0.29973 0.20421 0.93026 0.0
C4225 C 0.30451 0.21719 0.93571 0.0
C4226 C 0.33241 0.2506 0.93412 0.0
C4227 C 0.33671 0.28104 0.95481 0.0
C4228 C 0.33051 0.26756 0.94758 0.0
C4229 C 0.31285 0.22801 0.92815 0.0
C4230 C 0.31882 0.24174 0.93445 0.0
H4231 H 0.33404 0.29693 0.98383 0.0
H4232 H 0.32431 0.27478 0.97229 0.0
H4233 H 0.34876 0.26977 0.94058 0.0
H4234 H 0.31361 0.21109 0.89899 0.0
H4235 H 0.32219 0.23378 0.9087 0.0
C4236 C 0.70989 0.0655 0.02433 0.0
C4237 C 0.70197 0.05158 0.02371 0.0
C4238 C 0.72184 0.07156 0.01794 0.0
C4239 C 0.74734 0.0656 0.00439 0.0
H4240 H 0.75248 0.09231 0.97884 0.0
C4241 C 0.78459 0.08076 0.96183 0.0
C4242 C 0.7907 0.09387 0.95791 0.0
C4243 C 0.77491 0.07643 0.97147 0.0
C4244 C 0.75138 0.08507 0.98612 0.0
H4245 H 0.70048 0.03317 0.01574 0.0
H4246 H 0.72137 0.04375 0.00501 0.0
H4247 H 0.7337 0.08354 0.99317 0.0
H4248 H 0.79214 0.11297 0.9615 0.0
H4249 H 0.77556 0.10559 0.97861 0.0
H4250 H 0.76499 0.06708 0.99735 0.0
C4251 C 0.7184 0.04995 0.01055 0.0
C4252 C 0.74058 0.08003 0.99432 0.0
C4253 C 0.70642 0.0439 0.01677 0.0
C4254 C 0.78739 0.10274 0.9642 0.0
C4255 C 0.77785 0.09848 0.97394 0.0
C4256 C 0.75823 0.07074 0.99629 0.0
C4257 C 0.72616 0.06383 0.01094 0.0
C4258 C 0.73834 0.0701 0.00336 0.0
C4259 C 0.77129 0.0852 0.9775 0.0
C4260 C 0.76028 0.08039 0.98689 0.0
H4261 H 0.70687 0.07172 0.02973 0.0
H4262 H 0.72769 0.0823 0.01845 0.0
H4263 H 0.74589 0.05803 0.01139 0.0
H4264 H 0.78696 0.07374 0.95707 0.0
H4265 H 0.76996 0.0661 0.97381 0.0
C4266 C 0.65219 0.94787 0.05733 0.0
C4267 C 0.64732 0.95429 0.06579 0.0
C4268 C 0.65791 0.9411 0.06328 0.0
C4269 C 0.66044 0.92673 0.09601 0.0
H4270 H 0.69362 0.93265 0.08306 0.0
C4271 C 0.69466 0.91643 0.12956 0.0
C4272 C 0.69958 0.90893 0.12325 0.0
C4273 C 0.68846 0.92158 0.12152 0.0
C4274 C 0.68429 0.9308 0.08667 0.0
H4275 H 0.64471 0.95868 0.08713 0.0
H4276 H 0.65458 0.94691 0.09744 0.0
H4277 H 0.68164 0.94161 0.0707 0.0
H4278 H 0.70245 0.9015 0.10351 0.0
H4279 H 0.6917 0.91073 0.08935 0.0
H4280 H 0.66322 0.91622 0.11216 0.0
C4281 C 0.65377 0.94685 0.08621 0.0
C4282 C 0.6774 0.93587 0.07958 0.0
C4283 C 0.64808 0.95359 0.08028 0.0
C4284 C 0.69881 0.9073 0.10865 0.0
C4285 C 0.69263 0.91253 0.10056 0.0
C4286 C 0.66733 0.92174 0.10311 0.0
C4287 C 0.65886 0.94062 0.07781 0.0
C4288 C 0.66552 0.93411 0.08435 0.0
C4289 C 0.68709 0.91941 0.10696 0.0
C4290 C 0.67945 0.92394 0.09869 0.0
H4291 H 0.65165 0.94814 0.04612 0.0
H4292 H 0.6616 0.93627 0.05653 0.0
H4293 H 0.65117 0.92494 0.09976 0.0
H4294 H 0.69536 0.91809 0.14078 0.0
H4295 H 0.68456 0.92712 0.12671 0.0
C4296 C 0.0473 0.70948 0.09267 0.0
C4297 C 0.046 0.7078 0.07805 0.0
C4298 C 0.05502 0.7221 0.09941 0.0
C4299 C 0.069 0.7576 0.09403 0.0
H4300 H 0.09237 0.76279 0.12607 0.0
C4301 C 0.1086 0.80955 0.11754 0.0
C4302 C 0.11111 0.81141 0.13206 0.0
C4303 C 0.10001 0.79693 0.11119 0.0
C4304 C 0.08575 0.76148 0.11727 0.0
H4305 H 0.05204 0.71806 0.05908 0.0
H4306 H 0.06547 0.74011 0.07086 0.0
H4307 H 0.0789 0.7407 0.11446 0.0
H4308 H 0.10622 0.8016 0.15136 0.0
H4309 H 0.09108 0.77956 0.1403 0.0
H4310 H 0.07584 0.77838 0.09683 0.0
C4311 C 0.06036 0.73166 0.07709 0.0
C4312 C 0.07806 0.74882 0.1106 0.0
C4313 C 0.05268 0.71903 0.07034 0.0
C4314 C 0.10459 0.80044 0.14013 0.0
C4315 C 0.09596 0.78782 0.13379 0.0
C4316 C 0.07667 0.77025 0.10073 0.0
C4317 C 0.06158 0.73333 0.09169 0.0
C4318 C 0.06965 0.74676 0.09887 0.0
C4319 C 0.0937 0.78589 0.11923 0.0
C4320 C 0.08518 0.77236 0.11239 0.0
H4321 H 0.04211 0.70108 0.09893 0.0
H4322 H 0.05563 0.72309 0.11067 0.0
H4323 H 0.06246 0.75628 0.08514 0.0
H4324 H 0.11365 0.81778 0.11102 0.0
H4325 H 0.09865 0.79578 0.09994 0.0
C4326 C 0.30223 0.36332 0.04175 0.0
C4327 C 0.30568 0.35478 0.03495 0.0
C4328 C 0.29039 0.35817 0.04826 0.0
C4329 C 0.25794 0.32735 0.05035 0.0
H4330 H 0.25835 0.34422 0.08598 0.0
C4331 C 0.21667 0.30338 0.08881 0.0
C4332 C 0.2129 0.31178 0.09539 0.0
C4333 C 0.2274 0.30856 0.08045 0.0
C4334 C 0.25805 0.33948 0.07596 0.0
H4335 H 0.29952 0.33417 0.02971 0.0
H4336 H 0.27901 0.32517 0.04126 0.0
H4337 H 0.27823 0.35351 0.0733 0.0
H4338 H 0.21696 0.33206 0.09769 0.0
H4339 H 0.23575 0.34109 0.08332 0.0
H4340 H 0.23778 0.31312 0.05328 0.0
C4341 C 0.28524 0.33585 0.04129 0.0
C4342 C 0.26943 0.34483 0.06867 0.0
C4343 C 0.29702 0.341 0.03469 0.0
C4344 C 0.21981 0.32537 0.09306 0.0
C4345 C 0.23055 0.33055 0.08481 0.0
C4346 C 0.24657 0.32194 0.05772 0.0
C4347 C 0.28181 0.34436 0.04823 0.0
C4348 C 0.26954 0.33884 0.05577 0.0
C4349 C 0.23457 0.32224 0.07858 0.0
C4350 C 0.24652 0.32796 0.0706 0.0
H4351 H 0.30866 0.37398 0.04198 0.0
H4352 H 0.28795 0.36503 0.05329 0.0
H4353 H 0.25761 0.32259 0.04035 0.0
H4354 H 0.21161 0.29288 0.09047 0.0
H4355 H 0.23035 0.30194 0.07584 0.0
C4356 C 0.71285 0.6793 0.40486 0.0
C4357 C 0.71685 0.68462 0.39192 0.0
C4358 C 0.71953 0.67407 0.41203 0.0
C4359 C 0.74153 0.66061 0.40636 0.0
H4360 H 0.74832 0.66656 0.44643 0.0
C4361 C 0.76553 0.63601 0.43679 0.0
C4362 C 0.77563 0.64432 0.44686 0.0
C4363 C 0.7573 0.64011 0.43084 0.0
C4364 C 0.74653 0.66484 0.43523 0.0
H4365 H 0.73126 0.68904 0.37659 0.0
H4366 H 0.74301 0.68006 0.38916 0.0
H4367 H 0.73666 0.67596 0.43443 0.0
H4368 H 0.78457 0.66315 0.45909 0.0
H4369 H 0.77045 0.67043 0.44851 0.0
H4370 H 0.75177 0.64988 0.40708 0.0
C4371 C 0.73453 0.67965 0.39363 0.0
C4372 C 0.73974 0.67012 0.42837 0.0
C4373 C 0.72783 0.68484 0.38644 0.0
C4374 C 0.77701 0.6566 0.45121 0.0
C4375 C 0.7688 0.6607 0.44525 0.0
C4376 C 0.74833 0.65536 0.41321 0.0
C4377 C 0.73038 0.67407 0.40644 0.0
C4378 C 0.73727 0.66817 0.41383 0.0
C4379 C 0.75898 0.65261 0.43484 0.0
C4380 C 0.75101 0.6575 0.42771 0.0
H4381 H 0.70431 0.67881 0.40925 0.0
H4382 H 0.71598 0.66971 0.42179 0.0
H4383 H 0.73961 0.65875 0.39518 0.0
H4384 H 0.76425 0.62651 0.43317 0.0
H4385 H 0.74971 0.63356 0.42298 0.0
C4386 C 0.31412 0.03805 0.41914 0.0
C4387 C 0.31922 0.03022 0.42377 0.0
C4388 C 0.31945 0.05113 0.42458 0.0
C4389 C 0.3492 0.07888 0.44348 0.0
H4390 H 0.32573 0.09231 0.45053 0.0
C4391 C 0.36589 0.12998 0.47251 0.0
C4392 C 0.36082 0.13747 0.46677 0.0
C4393 C 0.36129 0.11692 0.4673 0.0
C4394 C 0.33242 0.08873 0.4485 0.0
H4395 H 0.33378 0.02986 0.43784 0.0
H4396 H 0.34301 0.05265 0.44748 0.0
H4397 H 0.31663 0.06938 0.44159 0.0
H4398 H 0.34745 0.13738 0.45063 0.0
H4399 H 0.33936 0.11464 0.44168 0.0
H4400 H 0.36497 0.09829 0.45056 0.0
C4401 C 0.33505 0.04879 0.43945 0.0
C4402 C 0.32721 0.0756 0.44335 0.0
C4403 C 0.32975 0.03572 0.43396 0.0
C4404 C 0.35133 0.13177 0.4555 0.0
C4405 C 0.3467 0.11875 0.45036 0.0
C4406 C 0.3544 0.09202 0.44871 0.0
C4407 C 0.32996 0.05665 0.43483 0.0
C4408 C 0.33554 0.07054 0.44066 0.0
C4409 C 0.35151 0.11113 0.4563 0.0
C4410 C 0.34606 0.0971 0.45116 0.0
H4411 H 0.30613 0.03414 0.41114 0.0
H4412 H 0.31545 0.05698 0.42059 0.0
H4413 H 0.3559 0.07535 0.44137 0.0
H4414 H 0.37313 0.13405 0.48127 0.0
H4415 H 0.36511 0.11125 0.47213 0.0
C4416 C 0.97792 0.27356 0.38812 0.0
C4417 C 0.98129 0.28427 0.37978 0.0
C4418 C 0.9659 0.26749 0.39432 0.0
C4419 C 0.93914 0.27332 0.40452 0.0
H4420 H 0.92014 0.23525 0.40772 0.0
C4421 C 0.8869 0.24458 0.42499 0.0
C4422 C 0.88516 0.23537 0.43484 0.0
C4423 C 0.89837 0.25058 0.41777 0.0
C4424 C 0.92538 0.2459 0.40695 0.0
H4425 H 0.97462 0.29704 0.37155 0.0
H4426 H 0.9535 0.28614 0.3819 0.0
H4427 H 0.94057 0.24551 0.3959 0.0
H4428 H 0.89436 0.22563 0.44513 0.0
H4429 H 0.91414 0.23588 0.43235 0.0
H4430 H 0.92381 0.27362 0.4155 0.0
C4431 C 0.96024 0.28255 0.38384 0.0
C4432 C 0.93711 0.2518 0.40023 0.0
C4433 C 0.97228 0.28868 0.37772 0.0
C4434 C 0.89519 0.23241 0.43737 0.0
C4435 C 0.90657 0.23831 0.43008 0.0
C4436 C 0.92734 0.2674 0.41114 0.0
C4437 C 0.95691 0.27192 0.39227 0.0
C4438 C 0.9442 0.2656 0.39904 0.0
C4439 C 0.90827 0.24743 0.42019 0.0
C4440 C 0.92042 0.25365 0.41254 0.0
H4441 H 0.98457 0.26983 0.38983 0.0
H4442 H 0.96375 0.25943 0.40089 0.0
H4443 H 0.94443 0.28399 0.40398 0.0
H4444 H 0.87932 0.24699 0.4227 0.0
H4445 H 0.8994 0.25753 0.41012 0.0
C4446 C 0.02921 0.37902 0.31842 0.0
C4447 C 0.04002 0.38337 0.3281 0.0
C4448 C 0.02535 0.3878 0.31398 0.0
C4449 C 0.03725 0.42322 0.31081 0.0
H4450 H -5e-05 0.4108 0.3054 0.0
C4451 C 0.01759 0.45656 0.29132 0.0
C4452 C 0.00772 0.45065 0.28039 0.0
C4453 C 0.02137 0.44889 0.29878 0.0
C4454 C 0.0104 0.4144 0.30683 0.0
H4455 H 0.05533 0.40042 0.34064 0.0
H4456 H 0.04845 0.4158 0.33296 0.0
H4457 H 0.00708 0.39646 0.31539 0.0
H4458 H 0.99412 0.43204 0.26875 0.0
H4459 H 0.00058 0.41869 0.28187 0.0
H4460 H 0.04053 0.4411 0.30205 0.0
C4461 C 0.04304 0.40558 0.32876 0.0
C4462 C 0.01448 0.40618 0.31252 0.0
C4463 C 0.04692 0.39675 0.33322 0.0
C4464 C 0.00156 0.43688 0.27729 0.0
C4465 C 0.00528 0.42922 0.28478 0.0
C4466 C 0.03316 0.43146 0.30514 0.0
C4467 C 0.03217 0.40116 0.31914 0.0
C4468 C 0.02794 0.41039 0.31429 0.0
C4469 C 0.0153 0.43515 0.29552 0.0
C4470 C 0.01968 0.42702 0.30284 0.0
H4471 H 0.02357 0.36874 0.31442 0.0
H4472 H 0.01705 0.38413 0.3064 0.0
H4473 H 0.04768 0.42671 0.31195 0.0
H4474 H 0.02241 0.46712 0.29409 0.0
H4475 H 0.02903 0.45369 0.30711 0.0
C4476 C 0.61463 0.62122 0.32506 0.0
C4477 C 0.62126 0.63199 0.31677 0.0
C4478 C 0.60606 0.60852 0.3189 0.0
C4479 C 0.59966 0.58708 0.28807 0.0
H4480 H 0.5637 0.56757 0.29887 0.0
C4481 C 0.56115 0.53626 0.26067 0.0
C4482 C 0.55134 0.52703 0.26864 0.0
C4483 C 0.56993 0.54913 0.26637 0.0
C4484 C 0.57377 0.57274 0.2959 0.0
H4485 H 0.62434 0.63803 0.29565 0.0
H4486 H 0.60952 0.61562 0.28481 0.0
H4487 H 0.57856 0.58989 0.30925 0.0
H4488 H 0.54323 0.52363 0.28882 0.0
H4489 H 0.55891 0.5458 0.29906 0.0
H4490 H 0.59514 0.56984 0.27514 0.0
C4491 C 0.61088 0.61709 0.29605 0.0
C4492 C 0.58222 0.58557 0.30178 0.0
C4493 C 0.61925 0.62986 0.30222 0.0
C4494 C 0.55067 0.53067 0.28248 0.0
C4495 C 0.55959 0.54342 0.28826 0.0
C4496 C 0.59127 0.57413 0.28237 0.0
C4497 C 0.60418 0.60634 0.30435 0.0
C4498 C 0.59522 0.59284 0.29791 0.0
C4499 C 0.5692 0.55293 0.28022 0.0
C4500 C 0.5782 0.56676 0.28622 0.0
H4501 H 0.61602 0.62266 0.3363 0.0
H4502 H 0.60102 0.60035 0.32549 0.0
H4503 H 0.6097 0.5925 0.28503 0.0
H4504 H 0.56174 0.53364 0.24992 0.0
H4505 H 0.57704 0.55618 0.25977 0.0
C4506 C 0.36342 0.97524 0.35961 0.0
C4507 C 0.35145 0.96307 0.35819 0.0
C4508 C 0.37415 0.97702 0.35235 0.0
C4509 C 0.38238 0.96478 0.32104 0.0
H4510 H 0.41773 0.98321 0.33873 0.0
C4511 C 0.42708 0.97207 0.29177 0.0
C4512 C 0.43866 0.98454 0.29386 0.0
C4513 C 0.41656 0.96869 0.30013 0.0
C4514 C 0.40794 0.97816 0.3336 0.0
H4515 H 0.34152 0.94313 0.34824 0.0
H4516 H 0.36026 0.94633 0.33539 0.0
H4517 H 0.39911 0.97863 0.35247 0.0
H4518 H 0.44835 0.00311 0.3066 0.0
H4519 H 0.42985 0.99737 0.3209 0.0
H4520 H 0.39117 0.96458 0.30211 0.0
C4521 C 0.36125 0.9545 0.34208 0.0
C4522 C 0.39728 0.97551 0.34148 0.0
C4523 C 0.35052 0.95269 0.34941 0.0
C4524 C 0.43951 0.99349 0.3046 0.0
C4525 C 0.42897 0.99012 0.31292 0.0
C4526 C 0.39304 0.9675 0.31313 0.0
C4527 C 0.37316 0.96671 0.34344 0.0
C4528 C 0.3844 0.96888 0.33526 0.0
C4529 C 0.41734 0.9777 0.31074 0.0
C4530 C 0.40596 0.97432 0.3193 0.0
H4531 H 0.36442 0.98354 0.36605 0.0
H4532 H 0.38314 0.9866 0.35343 0.0
H4533 H 0.37258 0.95982 0.31592 0.0
H4534 H 0.42604 0.96499 0.28349 0.0
H4535 H 0.40781 0.95898 0.29827 0.0
C4536 C 0.61509 0.97286 0.32034 0.0
C4537 C 0.61242 0.96877 0.33395 0.0
C4538 C 0.60659 0.97557 0.31255 0.0
C4539 C 0.57282 0.97086 0.31153 0.0
H4540 H 0.58782 -2e-05 0.28731 0.0
C4541 C 0.54413 0.99452 0.28898 0.0
C4542 C 0.54416 0.99548 0.2745 0.0
C4543 C 0.55254 0.99112 0.29582 0.0
C4544 C 0.58352 0.99177 0.29397 0.0
H4545 H 0.59842 0.96401 0.34985 0.0
H4546 H 0.58406 0.9694 0.33664 0.0
H4547 H 0.60222 0.99416 0.30012 0.0
H4548 H 0.55309 0.9939 0.25584 0.0
H4549 H 0.56813 0.98827 0.26793 0.0
H4550 H 0.55417 0.96889 0.30573 0.0
C4551 C 0.59255 0.97023 0.3318 0.0
C4552 C 0.59173 0.98836 0.30126 0.0
C4553 C 0.60095 0.96734 0.3395 0.0
C4554 C 0.55291 0.99323 0.26701 0.0
C4555 C 0.56151 0.99006 0.27391 0.0
C4556 C 0.56465 0.97443 0.30443 0.0
C4557 C 0.59528 0.97444 0.31823 0.0
C4558 C 0.5865 0.97787 0.31018 0.0
C4559 C 0.56127 0.98882 0.28834 0.0
C4560 C 0.56993 0.98492 0.29562 0.0
H4561 H 0.6239 0.97427 0.31574 0.0
H4562 H 0.60893 0.97856 0.30207 0.0
H4563 H 0.56836 0.96255 0.31803 0.0
H4564 H 0.53736 0.99607 0.29495 0.0
H4565 H 0.55223 0.9903 0.30697 0.0
C4566 C 0.03471 0.6495 0.29807 0.0
C4567 C 0.02758 0.65002 0.30916 0.0
C4568 C 0.03135 0.63732 0.29125 0.0
C4569 C 0.00397 0.60213 0.28656 0.0
H4570 H 0.03107 0.59646 0.27194 0.0
C4571 C 0.9962 0.55074 0.26842 0.0
C4572 C 0.00064 0.5498 0.2553 0.0
C4573 C 0.99906 0.56302 0.27449 0.0
C4574 C 0.0234 0.59797 0.27589 0.0
H4575 H 0.01167 0.63836 0.32216 0.0
H4576 H 0.00612 0.61703 0.31072 0.0
H4577 H 0.03722 0.6177 0.28404 0.0
H4578 H 0.01127 0.56113 0.23814 0.0
H4579 H 0.01668 0.58264 0.24905 0.0
H4580 H 0.99025 0.58212 0.27881 0.0
C4581 C 0.014 0.62598 0.30688 0.0
C4582 C 0.0269 0.61015 0.28277 0.0
C4583 C 0.01722 0.63818 0.31352 0.0
C4584 C 0.00791 0.56147 0.24836 0.0
C4585 C 0.01096 0.57379 0.25455 0.0
C4586 C 0.00052 0.58987 0.27989 0.0
C4587 C 0.02092 0.62539 0.29555 0.0
C4588 C 0.01722 0.61241 0.2882 0.0
C4589 C 0.0066 0.57466 0.26769 0.0
C4590 C 0.0102 0.58771 0.27448 0.0
H4591 H 0.04267 0.65854 0.29444 0.0
H4592 H 0.03677 0.63732 0.28243 0.0
H4593 H 0.9962 0.60355 0.29031 0.0
H4594 H 0.99083 0.54204 0.27423 0.0
H4595 H 0.99571 0.56348 0.2847 0.0
C4596 C 0.35518 0.38586 0.32987 0.0
C4597 C 0.35592 0.38838 0.34436 0.0
C4598 C 0.36657 0.39126 0.32259 0.0
C4599 C 0.40209 0.404 0.32721 0.0
H4600 H 0.4026 0.41762 0.29109 0.0
C4601 C 0.44875 0.42943 0.29579 0.0
C4602 C 0.44687 0.42672 0.28129 0.0
C4603 C 0.43793 0.42472 0.30399 0.0
C4604 C 0.40257 0.41371 0.30109 0.0
H4605 H 0.36925 0.39888 0.36249 0.0
H4606 H 0.3892 0.40827 0.34973 0.0
H4607 H 0.38328 0.41018 0.30448 0.0
H4608 H 0.4323 0.41633 0.26409 0.0
H4609 H 0.41345 0.40796 0.27837 0.0
H4610 H 0.42137 0.40743 0.32373 0.0
C4611 C 0.37977 0.40199 0.34407 0.0
C4612 C 0.39151 0.40949 0.30878 0.0
C4613 C 0.36834 0.39662 0.35136 0.0
C4614 C 0.43402 0.41875 0.27522 0.0
C4615 C 0.42323 0.41401 0.28339 0.0
C4616 C 0.41317 0.40821 0.31949 0.0
C4617 C 0.379 0.39928 0.32962 0.0
C4618 C 0.39108 0.40447 0.32186 0.0
C4619 C 0.42504 0.41718 0.29783 0.0
C4620 C 0.41347 0.41298 0.30628 0.0
H4621 H 0.34582 0.37934 0.32417 0.0
H4622 H 0.36567 0.38881 0.31149 0.0
H4623 H 0.40199 0.40004 0.33719 0.0
H4624 H 0.45855 0.43566 0.30072 0.0
H4625 H 0.43965 0.42739 0.31507 0.0
C4626 C 0.32954 0.30342 0.41068 0.0
C4627 C 0.31857 0.29783 0.401 0.0
C4628 C 0.33553 0.29623 0.41447 0.0
C4629 C 0.32882 0.26251 0.41732 0.0
H4630 H 0.36683 0.27883 0.41978 0.0
C4631 C 0.35305 0.23347 0.43588 0.0
C4632 C 0.36406 0.24038 0.44538 0.0
C4633 C 0.34833 0.24032 0.42834 0.0
C4634 C 0.35621 0.27416 0.41925 0.0
H4635 H 0.30542 0.28026 0.3876 0.0
H4636 H 0.31569 0.26756 0.39457 0.0
H4637 H 0.35675 0.29113 0.41094 0.0
H4638 H 0.37907 0.2598 0.45415 0.0
H4639 H 0.37065 0.27181 0.4413 0.0
H4640 H 0.32818 0.24578 0.42614 0.0
C4641 C 0.31962 0.27756 0.39917 0.0
C4642 C 0.35045 0.28119 0.41416 0.0
C4643 C 0.3137 0.28481 0.39526 0.0
C4644 C 0.37062 0.25428 0.44679 0.0
C4645 C 0.36579 0.26114 0.43939 0.0
C4646 C 0.33456 0.25554 0.42255 0.0
C4647 C 0.33061 0.28322 0.40879 0.0
C4648 C 0.33671 0.27548 0.41328 0.0
C4649 C 0.3544 0.25421 0.43031 0.0
C4650 C 0.34834 0.26131 0.42372 0.0
H4651 H 0.33341 0.31332 0.41553 0.0
H4652 H 0.34385 0.30075 0.42209 0.0
H4653 H 0.3182 0.25794 0.41691 0.0
H4654 H 0.34793 0.22273 0.43452 0.0
H4655 H 0.33975 0.23468 0.42119 0.0
C4656 C 0.71157 0.04545 0.40057 0.0
C4657 C 0.70987 0.03451 0.40773 0.0
C4658 C 0.71928 0.05835 0.40669 0.0
C4659 C 0.74538 0.07781 0.43461 0.0
H4660 H 0.73514 0.10416 0.42946 0.0
C4661 C 0.77283 0.12888 0.46462 0.0
C4662 C 0.77663 0.1399 0.45664 0.0
C4663 C 0.76381 0.11609 0.45901 0.0
C4664 C 0.73815 0.09692 0.43092 0.0
H4665 H 0.71462 0.02848 0.42701 0.0
H4666 H 0.72791 0.05094 0.43777 0.0
H4667 H 0.72121 0.08162 0.41891 0.0
H4668 H 0.77355 0.14615 0.43666 0.0
H4669 H 0.75765 0.12376 0.42691 0.0
H4670 H 0.76226 0.09306 0.44668 0.0
C4671 C 0.72357 0.04961 0.42731 0.0
C4672 C 0.7302 0.08402 0.42484 0.0
C4673 C 0.71594 0.03673 0.42115 0.0
C4674 C 0.77074 0.13789 0.44313 0.0
C4675 C 0.76165 0.12507 0.43753 0.0
C4676 C 0.75325 0.09065 0.44075 0.0
C4677 C 0.72538 0.06059 0.42013 0.0
C4678 C 0.73374 0.07431 0.42661 0.0
C4679 C 0.75833 0.11402 0.44531 0.0
C4680 C 0.74973 0.10034 0.43897 0.0
H4681 H 0.70711 0.04404 0.39015 0.0
H4682 H 0.72063 0.06658 0.40078 0.0
H4683 H 0.74856 0.07068 0.43596 0.0
H4684 H 0.77699 0.13013 0.47516 0.0
H4685 H 0.76124 0.10779 0.46534 0.0
C4686 C 0.97303 0.68691 0.38806 0.0
C4687 C 0.97362 0.69047 0.37423 0.0
C4688 C 0.96108 0.68086 0.39435 0.0
C4689 C 0.92529 0.66122 0.38703 0.0
H4690 H 0.92451 0.67409 0.42448 0.0
C4691 C 0.8771 0.64374 0.41539 0.0
C4692 C 0.87786 0.64272 0.42982 0.0
C4693 C 0.88848 0.64882 0.408 0.0
C4694 C 0.92457 0.67022 0.4141 0.0
H4695 H 0.96202 0.69042 0.35619 0.0
H4696 H 0.94107 0.67964 0.36718 0.0
H4697 H 0.94492 0.68462 0.41276 0.0
H4698 H 0.89081 0.64533 0.44769 0.0
H4699 H 0.91056 0.65384 0.43482 0.0
H4700 H 0.90494 0.64669 0.38846 0.0
C4701 C 0.94991 0.68153 0.37309 0.0
C4702 C 0.93627 0.67631 0.40737 0.0
C4703 C 0.96191 0.68769 0.3668 0.0
C4704 C 0.89002 0.64622 0.4366 0.0
C4705 C 0.90133 0.65117 0.42923 0.0
C4706 C 0.91356 0.65504 0.39382 0.0
C4707 C 0.9494 0.67812 0.38695 0.0
C4708 C 0.93679 0.67183 0.39381 0.0
C4709 C 0.90078 0.65287 0.41492 0.0
C4710 C 0.9131 0.65941 0.40748 0.0
H4711 H 0.98177 0.68858 0.394 0.0
H4712 H 0.96095 0.67814 0.40498 0.0
H4713 H 0.92544 0.6575 0.3766 0.0
H4714 H 0.86783 0.64118 0.40995 0.0
H4715 H 0.88771 0.65007 0.397 0.0
C4716 C 0.39605 0.03647 0.73419 0.0
C4717 C 0.38616 0.02639 0.72503 0.0
C4718 C 0.40434 0.03389 0.74256 0.0
C4719 C 0.41755 0.01156 0.7443 0.0
H4720 H 0.42565 0.02357 0.7834 0.0
C4721 C 0.44775 0.99668 0.77932 0.0
C4722 C 0.45738 0.00655 0.78883 0.0
C4723 C 0.43839 0.99872 0.77236 0.0
C4724 C 0.4236 0.02027 0.77246 0.0
H4725 H 0.37696 0.00558 0.71792 0.0
H4726 H 0.39158 0.00122 0.7323 0.0
H4727 H 0.41087 0.02821 0.7695 0.0
H4728 H 0.46432 0.02608 0.79893 0.0
H4729 H 0.4483 0.02983 0.78642 0.0
H4730 H 0.43045 0.00388 0.74706 0.0
C4731 C 0.393 0.01113 0.73286 0.0
C4732 C 0.41513 0.02292 0.76452 0.0
C4733 C 0.38467 0.01366 0.72458 0.0
C4734 C 0.45717 0.01835 0.79151 0.0
C4735 C 0.44787 0.02043 0.78446 0.0
C4736 C 0.42609 0.00901 0.75219 0.0
C4737 C 0.40295 0.02122 0.74189 0.0
C4738 C 0.41199 0.01855 0.75037 0.0
C4739 C 0.43849 0.01072 0.77464 0.0
C4740 C 0.4292 0.01329 0.76638 0.0
H4741 H 0.39756 0.04641 0.7347 0.0
H4742 H 0.41202 0.04189 0.74934 0.0
H4743 H 0.41547 0.00825 0.73336 0.0
H4744 H 0.44768 0.98752 0.77688 0.0
H4745 H 0.43117 0.99092 0.76506 0.0
C4746 C 0.96293 0.35221 0.7557 0.0
C4747 C 0.97071 0.34651 0.75856 0.0
C4748 C 0.96561 0.36401 0.76285 0.0
C4749 C 0.99249 0.39351 0.78281 0.0
H4750 H 0.96426 0.39978 0.79201 0.0
C4751 C 0.00136 0.44196 0.81211 0.0
C4752 C 0.99444 0.44765 0.80622 0.0
C4753 C 0.99846 0.42923 0.80743 0.0
C4754 C 0.97224 0.39817 0.78946 0.0
H4755 H 0.98729 0.34867 0.77136 0.0
H4756 H 0.99171 0.36907 0.78414 0.0
H4757 H 0.95898 0.37799 0.78215 0.0
H4758 H 0.97928 0.44454 0.79053 0.0
H4759 H 0.97409 0.42231 0.7826 0.0
H4760 H 0.00572 0.41375 0.79014 0.0
C4761 C 0.98367 0.36452 0.77619 0.0
C4762 C 0.96923 0.38571 0.78378 0.0
C4763 C 0.98103 0.35273 0.76899 0.0
C4764 C 0.9846 0.44035 0.79553 0.0
C4765 C 0.98163 0.42762 0.79095 0.0
C4766 C 0.99549 0.40596 0.7886 0.0
C4767 C 0.97608 0.37037 0.77311 0.0
C4768 C 0.97931 0.38329 0.78017 0.0
C4769 C 0.98851 0.42192 0.79686 0.0
C4770 C 0.98539 0.40846 0.79176 0.0
H4771 H 0.9548 0.34759 0.74787 0.0
H4772 H 0.95965 0.36832 0.76009 0.0
H4773 H 0.00049 0.39206 0.77999 0.0
H4774 H 0.00889 0.44725 0.82047 0.0
H4775 H 0.00385 0.42502 0.81222 0.0
C4776 C 0.64033 0.60336 0.71489 0.0
C4777 C 0.64972 0.6167 0.71872 0.0
C4778 C 0.62825 0.59715 0.72099 0.0
C4779 C 0.60578 0.60469 0.73981 0.0
H4780 H 0.59079 0.56862 0.75081 0.0
C4781 C 0.56272 0.58098 0.7757 0.0
C4782 C 0.55309 0.56756 0.77271 0.0
C4783 C 0.57399 0.58694 0.76821 0.0
C4784 C 0.59476 0.57864 0.74762 0.0
H4785 H 0.65372 0.634 0.73189 0.0
H4786 H 0.63286 0.62308 0.74277 0.0
H4787 H 0.61162 0.57896 0.73971 0.0
H4788 H 0.54749 0.55004 0.7591 0.0
H4789 H 0.5672 0.56046 0.74605 0.0
H4790 H 0.58898 0.60442 0.74789 0.0
C4791 C 0.63475 0.61745 0.73494 0.0
C4792 C 0.6067 0.58456 0.74126 0.0
C4793 C 0.6468 0.62365 0.72885 0.0
C4794 C 0.55483 0.56034 0.76181 0.0
C4795 C 0.56611 0.5663 0.75434 0.0
C4796 C 0.59386 0.59878 0.74619 0.0
C4797 C 0.62529 0.60416 0.73102 0.0
C4798 C 0.61239 0.59769 0.73738 0.0
C4799 C 0.57589 0.57961 0.75758 0.0
C4800 C 0.58826 0.58572 0.75025 0.0
H4801 H 0.64231 0.59771 0.70718 0.0
H4802 H 0.62113 0.58692 0.71767 0.0
H4803 H 0.60977 0.61474 0.7367 0.0
H4804 H 0.56177 0.58676 0.78417 0.0
H4805 H 0.58142 0.59718 0.77107 0.0
C4806 C 0.69513 0.723 0.66477 0.0
C4807 C 0.69011 0.70968 0.66006 0.0
C4808 C 0.6888 0.72981 0.66064 0.0
C4809 C 0.65675 0.72415 0.64575 0.0
H4810 H 0.67755 0.76062 0.63598 0.0
C4811 C 0.63585 0.75064 0.61342 0.0
C4812 C 0.64041 0.76409 0.61711 0.0
C4813 C 0.64117 0.74395 0.62028 0.0
C4814 C 0.67161 0.7505 0.63887 0.0
H4815 H 0.67436 0.69303 0.64742 0.0
H4816 H 0.66364 0.705 0.63984 0.0
H4817 H 0.68858 0.74918 0.64453 0.0
H4818 H 0.65358 0.78082 0.63145 0.0
H4819 H 0.66296 0.76915 0.64334 0.0
H4820 H 0.63978 0.72541 0.6397 0.0
C4821 C 0.67235 0.71015 0.64691 0.0
C4822 C 0.67793 0.74394 0.64378 0.0
C4823 C 0.67864 0.70334 0.65108 0.0
C4824 C 0.65002 0.77053 0.6282 0.0
C4825 C 0.65539 0.76386 0.63501 0.0
C4826 C 0.65044 0.73069 0.64076 0.0
C4827 C 0.67731 0.72344 0.65168 0.0
C4828 C 0.67058 0.73064 0.64714 0.0
C4829 C 0.6512 0.75058 0.63094 0.0
C4830 C 0.6578 0.74389 0.63715 0.0
H4831 H 0.704 0.72821 0.67161 0.0
H4832 H 0.69282 0.74001 0.6646 0.0
H4833 H 0.65079 0.714 0.64851 0.0
H4834 H 0.62861 0.74543 0.60479 0.0
H4835 H 0.63784 0.73375 0.61682 0.0
C4836 C 0.28342 0.95437 0.65806 0.0
C4837 C 0.28889 0.96461 0.64894 0.0
C4838 C 0.27492 0.94128 0.6529 0.0
C4839 C 0.26713 0.91833 0.62304 0.0
H4840 H 0.23259 0.89824 0.63732 0.0
C4841 C 0.22853 0.8657 0.59974 0.0
C4842 C 0.21969 0.85671 0.60866 0.0
C4843 C 0.23726 0.87888 0.60454 0.0
C4844 C 0.24228 0.90358 0.63338 0.0
H4845 H 0.28994 0.96932 0.62737 0.0
H4846 H 0.27527 0.94623 0.61825 0.0
H4847 H 0.24726 0.92123 0.64595 0.0
H4848 H 0.21326 0.85412 0.62962 0.0
H4849 H 0.22891 0.87689 0.63826 0.0
H4850 H 0.26248 0.90064 0.61087 0.0
C4851 C 0.27748 0.9484 0.62938 0.0
C4852 C 0.25062 0.91679 0.63827 0.0
C4853 C 0.28578 0.96156 0.63457 0.0
C4854 C 0.21996 0.86095 0.62254 0.0
C4855 C 0.22885 0.87404 0.62742 0.0
C4856 C 0.25889 0.90502 0.61834 0.0
C4857 C 0.27196 0.93818 0.63852 0.0
C4858 C 0.2631 0.92427 0.63313 0.0
C4859 C 0.23746 0.88327 0.61842 0.0
C4860 C 0.24634 0.89745 0.62345 0.0
H4861 H 0.28566 0.95652 0.66919 0.0
H4862 H 0.27081 0.93353 0.66012 0.0
H4863 H 0.27678 0.9239 0.61903 0.0
H4864 H 0.22837 0.86263 0.58894 0.0
H4865 H 0.24356 0.88569 0.59722 0.0
C4866 C 0.03775 0.30543 0.68991 0.0
C4867 C 0.02861 0.30951 0.68701 0.0
C4868 C 0.05004 0.3117 0.68425 0.0
C4869 C 0.06712 0.3316 0.65522 0.0
H4870 H 0.09886 0.34044 0.67757 0.0
C4871 C 0.11816 0.36076 0.63345 0.0
C4872 C 0.1268 0.35602 0.63609 0.0
C4873 C 0.10668 0.35612 0.64055 0.0
C4874 C 0.09007 0.33794 0.67116 0.0
H4875 H 0.02541 0.32366 0.67619 0.0
H4876 H 0.04675 0.33446 0.66622 0.0
H4877 H 0.07768 0.32994 0.68808 0.0
H4878 H 0.13051 0.34319 0.64875 0.0
H4879 H 0.11035 0.33485 0.66089 0.0
H4880 H 0.07939 0.33936 0.63825 0.0
C4881 C 0.04433 0.32628 0.67271 0.0
C4882 C 0.07795 0.33192 0.67718 0.0
C4883 C 0.03209 0.32006 0.67839 0.0
C4884 C 0.12395 0.3469 0.64635 0.0
C4885 C 0.11247 0.34224 0.65342 0.0
C4886 C 0.07921 0.33757 0.64919 0.0
C4887 C 0.05344 0.32216 0.67554 0.0
C4888 C 0.06635 0.32866 0.66926 0.0
C4889 C 0.10358 0.34661 0.65043 0.0
C4890 C 0.09083 0.34078 0.65707 0.0
H4891 H 0.03533 0.29725 0.6964 0.0
H4892 H 0.0568 0.3082 0.68649 0.0
H4893 H 0.05832 0.32903 0.64878 0.0
H4894 H 0.12 0.36771 0.62554 0.0
H4895 H 0.10014 0.35985 0.63816 0.0
C4896 C 0.27511 0.30986 0.66309 0.0
C4897 C 0.2867 0.31852 0.67123 0.0
C4898 C 0.2682 0.3148 0.65583 0.0
C4899 C 0.26486 0.34472 0.65415 0.0
H4900 H 0.24707 0.32782 0.6182 0.0
C4901 C 0.24029 0.36572 0.61807 0.0
C4902 C 0.22718 0.35651 0.61339 0.0
C4903 C 0.24815 0.3615 0.62471 0.0
C4904 C 0.25199 0.33261 0.62824 0.0
H4905 H 0.30034 0.3391 0.67797 0.0
H4906 H 0.28855 0.34779 0.665 0.0
H4907 H 0.25969 0.31969 0.63061 0.0
H4908 H 0.21208 0.33561 0.6123 0.0
H4909 H 0.22595 0.3283 0.62338 0.0
H4910 H 0.25728 0.3578 0.65156 0.0
C4911 C 0.28452 0.33716 0.66451 0.0
C4912 C 0.25915 0.32791 0.63541 0.0
C4913 C 0.29131 0.3322 0.67192 0.0
C4914 C 0.22221 0.34297 0.61539 0.0
C4915 C 0.23012 0.33876 0.62183 0.0
C4916 C 0.25785 0.34954 0.64688 0.0
C4917 C 0.27285 0.32853 0.65638 0.0
C4918 C 0.26556 0.33381 0.64854 0.0
C4919 C 0.24312 0.34798 0.62663 0.0
C4920 C 0.25124 0.34343 0.63393 0.0
H4921 H 0.2713 0.29926 0.66249 0.0
H4922 H 0.25912 0.30781 0.64992 0.0
H4923 H 0.26948 0.34939 0.66432 0.0
H4924 H 0.24452 0.37618 0.61656 0.0
H4925 H 0.2582 0.36878 0.62825 0.0
C4926 C 0.67428 0.9599 0.64367 0.0
C4927 C 0.68334 0.97076 0.6366 0.0
C4928 C 0.66859 0.94699 0.63758 0.0
C4929 C 0.67287 0.92696 0.60973 0.0
H4930 H 0.63614 0.90181 0.6147 0.0
C4931 C 0.64526 0.87545 0.58018 0.0
C4932 C 0.6381 0.86467 0.58835 0.0
C4933 C 0.65011 0.88845 0.58562 0.0
C4934 C 0.64642 0.90871 0.61329 0.0
H4935 H 0.69349 0.97666 0.6176 0.0
H4936 H 0.68341 0.95414 0.60684 0.0
H4937 H 0.64619 0.92445 0.62513 0.0
H4938 H 0.63013 0.85913 0.60853 0.0
H4939 H 0.63842 0.88184 0.61791 0.0
H4940 H 0.67304 0.91122 0.59779 0.0
C4941 C 0.68089 0.95555 0.61721 0.0
C4942 C 0.65221 0.92167 0.61931 0.0
C4943 C 0.68667 0.96845 0.62336 0.0
C4944 C 0.63546 0.86718 0.60189 0.0
C4945 C 0.64024 0.88019 0.60729 0.0
C4946 C 0.66706 0.91404 0.60364 0.0
C4947 C 0.67175 0.94466 0.62423 0.0
C4948 C 0.66553 0.93093 0.61766 0.0
C4949 C 0.64782 0.89096 0.59929 0.0
C4950 C 0.65379 0.90478 0.6054 0.0
H4951 H 0.67167 0.96138 0.65397 0.0
H4952 H 0.6618 0.93883 0.6434 0.0
H4953 H 0.6832 0.93374 0.60844 0.0
H4954 H 0.64726 0.87385 0.56963 0.0
H4955 H 0.65574 0.89656 0.57914 0.0
C4956 C 0.02121 0.71719 0.66474 0.0
C4957 C 0.02107 0.71689 0.67928 0.0
C4958 C 0.03303 0.72217 0.65828 0.0
C4959 C 0.06711 0.72903 0.66378 0.0
H4960 H 0.07233 0.74913 0.63123 0.0
C4961 C 0.1159 0.75526 0.63534 0.0
C4962 C 0.11441 0.7541 0.62073 0.0
C4963 C 0.10483 0.75029 0.64321 0.0
C4964 C 0.07096 0.74344 0.64025 0.0
H4965 H 0.03322 0.72183 0.69849 0.0
H4966 H 0.05397 0.73073 0.68719 0.0
H4967 H 0.05262 0.74217 0.6438 0.0
H4968 H 0.10023 0.74597 0.60291 0.0
H4969 H 0.08097 0.73737 0.61659 0.0
H4970 H 0.08563 0.73047 0.66018 0.0
C4971 C 0.0449 0.72689 0.68078 0.0
C4972 C 0.05967 0.73944 0.64745 0.0
C4973 C 0.03303 0.72185 0.68725 0.0
C4974 C 0.10168 0.74725 0.61415 0.0
C4975 C 0.09066 0.74235 0.62198 0.0
C4976 C 0.0785 0.73313 0.6566 0.0
C4977 C 0.04501 0.72704 0.66621 0.0
C4978 C 0.0575 0.73202 0.65917 0.0
C4979 C 0.09213 0.74413 0.63656 0.0
C4980 C 0.08041 0.74018 0.64464 0.0
H4981 H 0.01213 0.71319 0.6583 0.0
H4982 H 0.03272 0.72188 0.64702 0.0
H4983 H 0.06568 0.72322 0.6727 0.0
H4984 H 0.1256 0.76057 0.64068 0.0
H4985 H 0.10622 0.7518 0.65444 0.0
C4986 C 0.95649 0.60741 0.72969 0.0
C4987 C 0.96305 0.6208 0.73468 0.0
C4988 C 0.96035 0.59879 0.73478 0.0
C4989 C 0.97959 0.59582 0.76442 0.0
H4990 H 0.97832 0.56788 0.74011 0.0
C4991 C 0.00235 0.56493 0.78156 0.0
C4992 C 0.99368 0.55115 0.7802 0.0
C4993 C 0.99913 0.57342 0.77499 0.0
C4994 C 0.97869 0.57564 0.74699 0.0
H4995 H 0.979 0.6358 0.74852 0.0
H4996 H 0.98602 0.62094 0.75711 0.0
H4997 H 0.97157 0.58281 0.73077 0.0
H4998 H 0.97521 0.53535 0.77042 0.0
H4999 H 0.96965 0.55024 0.75869 0.0
H5000 H 0.98696 0.58879 0.78054 0.0
C5001 C 0.97761 0.61691 0.74964 0.0
C5002 C 0.97475 0.58414 0.74169 0.0
C5003 C 0.97362 0.62546 0.7447 0.0
C5004 C 0.98201 0.54596 0.77165 0.0
C5005 C 0.97888 0.55445 0.76491 0.0
C5006 C 0.98369 0.58747 0.76964 0.0
C5007 C 0.97098 0.60344 0.74482 0.0
C5008 C 0.97513 0.59433 0.75036 0.0
C5009 C 0.98726 0.56826 0.76679 0.0
C5010 C 0.98326 0.5773 0.76099 0.0
H5011 H 0.94826 0.60359 0.72199 0.0
H5012 H 0.95489 0.58845 0.73098 0.0
H5013 H 0.97974 0.60334 0.77149 0.0
H5014 H 0.01136 0.56917 0.78819 0.0
H5015 H 0.00579 0.58405 0.77651 0.0
C5016 C 0.38153 0.37014 0.76075 0.0
C5017 C 0.38001 0.36832 0.74614 0.0
C5018 C 0.38924 0.38284 0.76733 0.0
C5019 C 0.40277 0.41821 0.76158 0.0
H5020 H 0.42733 0.42408 0.79268 0.0
C5021 C 0.44337 0.47054 0.7829 0.0
C5022 C 0.44666 0.47278 0.7973 0.0
C5023 C 0.4344 0.45781 0.77708 0.0
C5024 C 0.42037 0.42259 0.78416 0.0
H5025 H 0.38565 0.37841 0.72702 0.0
H5026 H 0.399 0.40056 0.73853 0.0
H5027 H 0.41347 0.40177 0.78171 0.0
H5028 H 0.44274 0.46357 0.81697 0.0
H5029 H 0.42692 0.44133 0.80683 0.0
H5030 H 0.40966 0.43901 0.764 0.0
C5031 C 0.39408 0.39218 0.74487 0.0
C5032 C 0.41246 0.4098 0.77785 0.0
C5033 C 0.38643 0.37948 0.73829 0.0
C5034 C 0.44051 0.4621 0.80581 0.0
C5035 C 0.43149 0.44937 0.8 0.0
C5036 C 0.41064 0.43099 0.76792 0.0
C5037 C 0.39554 0.394 0.75946 0.0
C5038 C 0.40365 0.4075 0.76643 0.0
C5039 C 0.42848 0.44703 0.78554 0.0
C5040 C 0.41961 0.43335 0.77922 0.0
H5041 H 0.37655 0.36178 0.76711 0.0
H5042 H 0.39006 0.38395 0.7786 0.0
H5043 H 0.39592 0.4167 0.75293 0.0
H5044 H 0.44811 0.47855 0.77606 0.0
H5045 H 0.43246 0.45634 0.76589 0.0
C5046 C 0.63769 0.03533 0.69473 0.0
C5047 C 0.64423 0.02835 0.6977 0.0
C5048 C 0.62636 0.03268 0.7014 0.0
C5049 C 0.59909 0.00723 0.71928 0.0
H5050 H 0.59882 0.03653 0.73927 0.0
C5051 C 0.56223 0.99868 0.76075 0.0
C5052 C 0.55786 0.00775 0.76258 0.0
C5053 C 0.57196 0.00102 0.75159 0.0
C5054 C 0.59856 0.02824 0.73353 0.0
H5055 H 0.64389 0.01312 0.71017 0.0
H5056 H 0.62392 0.00822 0.72133 0.0
H5057 H 0.6171 0.0409 0.7251 0.0
H5058 H 0.55979 0.0261 0.75599 0.0
H5059 H 0.57647 0.03 0.73961 0.0
H5060 H 0.58053 0.99455 0.7275 0.0
C5061 C 0.62759 0.01571 0.71381 0.0
C5062 C 0.60908 0.03077 0.72545 0.0
C5063 C 0.639 0.0185 0.70733 0.0
C5064 C 0.56314 0.01904 0.75486 0.0
C5065 C 0.57273 0.02129 0.74554 0.0
C5066 C 0.58847 0.00471 0.72718 0.0
C5067 C 0.62123 0.02284 0.71099 0.0
C5068 C 0.60953 0.02027 0.71847 0.0
C5069 C 0.57739 0.01239 0.7439 0.0
C5070 C 0.58818 0.01516 0.73462 0.0
H5071 H 0.64127 0.04282 0.6872 0.0
H5072 H 0.62156 0.03825 0.699 0.0
H5073 H 0.59917 0.99899 0.71385 0.0
H5074 H 0.55839 0.98997 0.7667 0.0
H5075 H 0.57546 0.99408 0.75084 0.0
loop_
_geom_bond_atom_site_label_1
_geom_bond_atom_site_label_2
_geom_bond_distance
_geom_bond_site_symmetry_2
_ccdc_geom_bond_type
Li0 N17 1.990 . S
Li0 O60 1.930 1_655 S
Li0 O61 1.970 1_655 S
Li0 O62 1.961 . S
Li1 N25 1.990 . S
Li1 O60 2.026 . S
Li1 O61 1.956 . S
Li1 O63 1.961 . S
Li2 N47 1.986 . S
Li2 O60 1.926 1_655 S
Li2 O62 1.953 . S
Li2 O63 1.976 1_655 S
Li3 N53 1.990 1_554 S
Li3 O61 1.961 . S
Li3 O62 1.970 1_455 S
Li3 O63 1.956 . S
C4 C6 1.348 1_655 S
C4 C7 1.356 . S
C4 O60 1.328 1_655 S
N5 C8 1.314 . S
N5 C9 1.279 . S
C6 C4 1.348 1_455 S
C6 C8 1.353 1_455 S
C6 H64 0.929 . S
C7 C4 1.356 . S
C7 C9 1.358 . S
C7 H65 0.930 . S
C8 N5 1.314 . S
C8 C6 1.353 1_655 S
C8 H66 0.930 1_655 S
C9 N5 1.279 . S
C9 C7 1.358 . S
C9 H67 0.930 . S
C10 C13 1.348 . S
C10 C14 1.356 . S
C10 O61 1.325 1_556 S
C11 N12 1.279 . S
C11 C14 1.358 . S
C11 H68 0.930 . S
N12 C11 1.279 . S
N12 C15 1.314 . S
C13 C10 1.348 . S
C13 C15 1.353 . S
C13 H69 0.877 1_455 S
C14 C10 1.356 . S
C14 C11 1.358 . S
C14 H70 0.930 . S
C15 N12 1.314 . S
C15 C13 1.353 . S
C15 H71 0.930 . S
C16 N17 1.314 1_556 S
C16 C21 1.353 . S
C16 H22 0.930 . S
N17 Li0 1.990 . S
N17 C16 1.314 1_554 S
N17 C19 1.279 . S
C18 C19 1.358 . S
C18 C20 1.356 1_554 S
C18 H72 0.930 . S
C19 N17 1.279 . S
C19 C18 1.358 . S
C19 H23 0.930 . S
C20 C18 1.356 1_556 S
C20 C21 1.348 . S
C21 C16 1.353 . S
C21 C20 1.348 . S
C21 H73 0.929 . S
H22 C16 0.930 . S
H23 C19 0.930 . S
C24 N25 1.314 . S
C24 C26 1.353 . S
C24 H30 0.930 . S
N25 Li1 1.990 . S
N25 C24 1.314 . S
N25 C28 1.279 . S
C26 C24 1.353 . S
C26 C29 1.348 . S
C26 H74 0.929 . S
C27 C28 1.358 . S
C27 C29 1.356 . S
C27 H75 0.930 . S
C28 N25 1.279 . S
C28 C27 1.358 . S
C28 H31 0.930 . S
C29 C26 1.348 . S
C29 C27 1.356 . S
H30 C24 0.930 . S
H31 C28 0.930 . S
C32 C34 1.348 . S
C32 C35 1.356 . S
C32 O62 1.325 . S
N33 C36 1.314 . S
N33 C37 1.279 . S
C34 C32 1.348 . S
C34 C36 1.353 . S
C34 H76 0.929 . S
C35 C32 1.356 . S
C35 C37 1.358 . S
C35 H77 0.930 . S
C36 N33 1.314 . S
C36 C34 1.353 . S
C36 H78 0.930 1_554 S
C37 N33 1.279 . S
C37 C35 1.358 . S
C37 H79 0.930 . S
C38 C39 1.348 . S
C38 C40 1.356 . S
C38 O63 1.325 . S
C39 C38 1.348 . S
C39 C41 1.353 . S
C39 H80 0.929 . S
C40 C38 1.356 . S
C40 C42 1.358 . S
C40 H81 0.930 . S
C41 C39 1.353 . S
C41 N43 1.314 . S
C41 H82 0.930 . S
C42 C40 1.358 . S
C42 N43 1.279 . S
C42 H83 0.930 . S
N43 C41 1.314 . S
N43 C42 1.279 . S
C44 C46 1.353 . S
C44 N47 1.314 . S
C44 H50 0.930 1_655 S
C45 N47 1.279 . S
C45 C48 1.358 . S
C45 H51 0.930 . S
C46 C44 1.353 . S
C46 C49 1.348 . S
C46 H84 0.929 . S
N47 Li2 1.986 . S
N47 C44 1.314 . S
N47 C45 1.279 . S
C48 C45 1.358 . S
C48 C49 1.356 . S
C48 H85 0.930 . S
C49 C46 1.348 . S
C49 C48 1.356 . S
H50 C44 0.930 1_455 S
H51 C45 0.930 . S
C52 N53 1.314 . S
C52 C54 1.353 . S
C52 H58 0.930 . S
N53 Li3 1.990 1_556 S
N53 C52 1.314 . S
N53 C56 1.279 . S
C54 C52 1.353 . S
C54 C57 1.348 . S
C54 H86 0.929 . S
C55 C56 1.358 . S
C55 C57 1.356 . S
C55 H87 0.930 . S
C56 N53 1.279 . S
C56 C55 1.358 . S
C56 H59 0.930 1_556 S
C57 C54 1.348 . S
C57 C55 1.356 . S
H58 C52 0.930 . S
H59 C56 0.930 1_554 S
O60 Li0 1.930 1_455 S
O60 Li1 2.026 . S
O60 Li2 1.926 1_455 S
O60 C4 1.328 1_455 S
O61 Li0 1.970 1_455 S
O61 Li1 1.956 . S
O61 Li3 1.961 . S
O61 C10 1.325 1_554 S
O62 Li0 1.961 . S
O62 Li2 1.953 . S
O62 Li3 1.970 1_655 S
O62 C32 1.325 . S
O63 Li1 1.961 . S
O63 Li2 1.976 1_455 S
O63 Li3 1.956 . S
O63 C38 1.325 . S
H64 C6 0.929 . S
H65 C7 0.930 . S
H66 C8 0.930 1_455 S
H67 C9 0.930 . S
H68 C11 0.930 . S
H69 C13 0.877 1_655 S
H70 C14 0.930 . S
H71 C15 0.930 . S
H72 C18 0.930 . S
H73 C21 0.929 . S
H74 C26 0.929 . S
H75 C27 0.930 . S
H76 C34 0.929 . S
H77 C35 0.930 . S
H78 C36 0.930 1_556 S
H79 C37 0.930 . S
H80 C39 0.929 . S
H81 C40 0.930 . S
H82 C41 0.930 . S
H83 C42 0.930 . S
H84 C46 0.929 . S
H85 C48 0.930 . S
H86 C54 0.929 . S
H87 C55 0.930 . S
Li88 N105 1.990 . S
Li88 O148 1.956 . S
Li88 O149 1.970 . S
Li88 O150 1.961 . S
Li89 N113 1.990 . S
Li89 O148 1.970 . S
Li89 O149 1.956 . S
Li89 O151 1.961 . S
Li90 N135 1.990 . S
Li90 O148 1.961 . S
Li90 O150 1.956 . S
Li90 O151 1.970 . S
Li91 N141 1.990 . S
Li91 O149 1.961 . S
Li91 O150 1.970 . S
Li91 O151 1.956 . S
C92 C94 1.348 . S
C92 C95 1.356 . S
C92 O148 1.325 . S
N93 C96 1.314 . S
N93 C97 1.279 . S
C94 C92 1.348 . S
C94 C96 1.353 . S
C94 H152 0.929 . S
C95 C92 1.356 . S
C95 C97 1.358 . S
C95 H153 0.930 . S
C96 N93 1.314 . S
C96 C94 1.353 . S
C96 H154 0.930 . S
C97 N93 1.279 . S
C97 C95 1.358 . S
C97 H155 0.930 . S
C98 C101 1.348 . S
C98 C102 1.356 . S
C98 O149 1.325 . S
C99 N100 1.279 . S
C99 C102 1.358 . S
C99 H156 0.930 . S
N100 C99 1.279 . S
N100 C103 1.314 . S
C101 C98 1.348 . S
C101 C103 1.353 . S
C101 H157 0.929 . S
C102 C98 1.356 . S
C102 C99 1.358 . S
C102 H158 0.930 . S
C103 N100 1.314 . S
C103 C101 1.353 . S
C103 H159 0.930 . S
C104 N105 1.314 . S
C104 C109 1.353 . S
C104 H110 0.930 . S
N105 Li88 1.990 . S
N105 C104 1.314 . S
N105 C107 1.279 . S
C106 C107 1.358 . S
C106 C108 1.356 . S
C106 H160 0.930 . S
C107 N105 1.279 . S
C107 C106 1.358 . S
C107 H111 0.930 . S
C108 C106 1.356 . S
C108 C109 1.348 . S
C109 C104 1.353 . S
C109 C108 1.348 . S
C109 H161 0.929 . S
H110 C104 0.930 . S
H111 C107 0.930 . S
C112 N113 1.314 . S
C112 C114 1.353 . S
C112 H118 0.930 . S
N113 Li89 1.990 . S
N113 C112 1.314 . S
N113 C116 1.279 . S
C114 C112 1.353 . S
C114 C117 1.348 . S
C114 H162 0.929 . S
C115 C116 1.358 . S
C115 C117 1.356 . S
C115 H163 0.930 . S
C116 N113 1.279 . S
C116 C115 1.358 . S
C116 H119 0.930 . S
C117 C114 1.348 . S
C117 C115 1.356 . S
H118 C112 0.930 . S
H119 C116 0.930 . S
C120 C122 1.348 . S
C120 C123 1.356 . S
C120 O150 1.325 . S
N121 C124 1.314 . S
N121 C125 1.279 . S
C122 C120 1.348 . S
C122 C124 1.353 . S
C122 H164 0.929 . S
C123 C120 1.356 . S
C123 C125 1.358 . S
C123 H165 0.930 . S
C124 N121 1.314 . S
C124 C122 1.353 . S
C124 H166 0.930 . S
C125 N121 1.279 . S
C125 C123 1.358 . S
C125 H167 0.930 . S
C126 C127 1.348 . S
C126 C128 1.356 . S
C126 O151 1.325 . S
C127 C126 1.348 . S
C127 C129 1.353 . S
C127 H168 0.929 . S
C128 C126 1.356 . S
C128 C130 1.358 . S
C128 H169 0.930 . S
C129 C127 1.353 . S
C129 N131 1.314 . S
C129 H170 0.930 . S
C130 C128 1.358 . S
C130 N131 1.279 . S
C130 H171 0.930 . S
N131 C129 1.314 . S
N131 C130 1.279 . S
C132 C134 1.353 . S
C132 N135 1.314 . S
C132 H138 0.930 . S
C133 N135 1.279 . S
C133 C136 1.358 . S
C133 H139 0.930 . S
C134 C132 1.353 . S
C134 C137 1.348 . S
C134 H172 0.929 . S
N135 Li90 1.990 . S
N135 C132 1.314 . S
N135 C133 1.279 . S
C136 C133 1.358 . S
C136 C137 1.356 . S
C136 H173 0.930 . S
C137 C134 1.348 . S
C137 C136 1.356 . S
H138 C132 0.930 . S
H139 C133 0.930 . S
C140 N141 1.314 . S
C140 C142 1.353 . S
C140 H146 0.930 . S
N141 Li91 1.990 . S
N141 C140 1.314 . S
N141 C144 1.279 . S
C142 C140 1.353 . S
C142 C145 1.348 . S
C142 H174 0.929 1_554 S
C143 C144 1.358 . S
C143 C145 1.356 . S
C143 H175 0.930 . S
C144 N141 1.279 . S
C144 C143 1.358 . S
C144 H147 0.930 . S
C145 C142 1.348 . S
C145 C143 1.356 . S
H146 C140 0.930 . S
H147 C144 0.930 . S
O148 Li88 1.956 . S
O148 Li89 1.970 . S
O148 Li90 1.961 . S
O148 C92 1.325 . S
O149 Li88 1.970 . S
O149 Li89 1.956 . S
O149 Li91 1.961 . S
O149 C98 1.325 . S
O150 Li88 1.961 . S
O150 Li90 1.956 . S
O150 Li91 1.970 . S
O150 C120 1.325 . S
O151 Li89 1.961 . S
O151 Li90 1.970 . S
O151 Li91 1.956 . S
O151 C126 1.325 . S
H152 C94 0.929 . S
H153 C95 0.930 . S
H154 C96 0.930 . S
H155 C97 0.930 . S
H156 C99 0.930 . S
H157 C101 0.929 . S
H158 C102 0.930 . S
H159 C103 0.930 . S
H160 C106 0.930 . S
H161 C109 0.929 . S
H162 C114 0.929 . S
H163 C115 0.930 . S
H164 C122 0.929 . S
H165 C123 0.930 . S
H166 C124 0.930 . S
H167 C125 0.930 . S
H168 C127 0.929 . S
H169 C128 0.930 . S
H170 C129 0.930 . S
H171 C130 0.930 . S
H172 C134 0.929 . S
H173 C136 0.930 . S
H174 C142 0.929 1_556 S
H175 C143 0.930 . S
Li176 N193 1.990 1_554 S
Li176 O236 1.956 . S
Li176 O237 1.970 1_565 S
Li176 O238 1.961 . S
Li177 N201 1.990 . S
Li177 O236 1.970 1_545 S
Li177 O237 1.956 . S
Li177 O239 1.961 . S
Li178 N223 1.990 . S
Li178 O236 1.961 . S
Li178 O238 1.956 . S
Li178 O239 1.970 1_565 S
Li179 N229 1.990 . S
Li179 O237 1.961 . S
Li179 O238 1.970 1_545 S
Li179 O239 1.956 . S
C180 C182 1.348 . S
C180 C183 1.356 . S
C180 O236 1.325 . S
N181 C184 1.314 . S
N181 C185 1.279 . S
C182 C180 1.348 . S
C182 C184 1.353 . S
C182 H240 0.929 . S
C183 C180 1.356 . S
C183 C185 1.358 . S
C183 H241 0.930 . S
C184 N181 1.314 . S
C184 C182 1.353 . S
C184 H242 0.930 . S
C185 N181 1.279 . S
C185 C183 1.358 . S
C185 H243 0.930 . S
C186 C189 1.348 . S
C186 C190 1.356 . S
C186 O237 1.325 . S
C187 N188 1.279 . S
C187 C190 1.358 . S
C187 H244 0.930 . S
N188 C187 1.279 . S
N188 C191 1.314 . S
C189 C186 1.348 . S
C189 C191 1.353 . S
C189 H245 0.929 . S
C190 C186 1.356 . S
C190 C187 1.358 . S
C190 H246 0.930 . S
C191 N188 1.314 . S
C191 C189 1.353 . S
C191 H247 0.930 1_554 S
C192 N193 1.314 . S
C192 C197 1.353 . S
C192 H198 0.930 . S
N193 Li176 1.990 1_556 S
N193 C192 1.314 . S
N193 C195 1.279 . S
C194 C195 1.358 . S
C194 C196 1.356 . S
C194 H248 0.930 . S
C195 N193 1.279 . S
C195 C194 1.358 . S
C195 H199 0.930 1_556 S
C196 C194 1.356 . S
C196 C197 1.348 . S
C197 C192 1.353 . S
C197 C196 1.348 . S
C197 H249 0.929 . S
H198 C192 0.930 . S
H199 C195 0.930 1_554 S
C200 N201 1.314 . S
C200 C202 1.353 . S
C200 H206 0.930 . S
N201 Li177 1.990 . S
N201 C200 1.314 . S
N201 C204 1.279 . S
C202 C200 1.353 . S
C202 C205 1.348 . S
C202 H250 0.929 . S
C203 C204 1.358 . S
C203 C205 1.356 . S
C203 H251 0.930 . S
C204 N201 1.279 . S
C204 C203 1.358 . S
C204 H207 0.930 . S
C205 C202 1.348 . S
C205 C203 1.356 . S
H206 C200 0.930 . S
H207 C204 0.930 . S
C208 C210 1.348 . S
C208 C211 1.356 . S
C208 O238 1.325 1_556 S
N209 C212 1.314 . S
N209 C213 1.279 . S
C210 C208 1.348 . S
C210 C212 1.353 . S
C210 H252 0.929 1_565 S
C211 C208 1.356 . S
C211 C213 1.358 . S
C211 H253 0.930 . S
C212 N209 1.314 . S
C212 C210 1.353 . S
C212 H254 0.930 . S
C213 N209 1.279 . S
C213 C211 1.358 . S
C213 H255 0.930 . S
C214 C215 1.348 . S
C214 C216 1.356 . S
C214 O239 1.325 . S
C215 C214 1.348 . S
C215 C217 1.353 . S
C215 H256 0.929 1_545 S
C216 C214 1.356 . S
C216 C218 1.358 . S
C216 H257 0.930 . S
C217 C215 1.353 . S
C217 N219 1.314 . S
C217 H258 0.930 . S
C218 C216 1.358 . S
C218 N219 1.279 . S
C218 H259 0.930 . S
N219 C217 1.314 . S
N219 C218 1.279 . S
C220 C222 1.353 . S
C220 N223 1.314 . S
C220 H226 0.930 . S
C221 N223 1.279 . S
C221 C224 1.358 . S
C221 H227 0.930 . S
C222 C220 1.353 . S
C222 C225 1.348 . S
C222 H260 0.929 . S
N223 Li178 1.990 . S
N223 C220 1.314 . S
N223 C221 1.279 . S
C224 C221 1.358 . S
C224 C225 1.356 . S
C224 H261 0.930 . S
C225 C222 1.348 . S
C225 C224 1.356 . S
H226 C220 0.930 . S
H227 C221 0.930 . S
C228 N229 1.314 . S
C228 C230 1.353 1_554 S
C228 H234 0.930 1_554 S
N229 Li179 1.990 . S
N229 C228 1.314 . S
N229 C232 1.279 . S
C230 C228 1.353 1_556 S
C230 C233 1.348 1_556 S
C230 H262 0.929 . S
C231 C232 1.358 . S
C231 C233 1.356 . S
C231 H263 0.930 . S
C232 N229 1.279 . S
C232 C231 1.358 . S
C232 H235 0.930 . S
C233 C230 1.348 1_554 S
C233 C231 1.356 . S
H234 C228 0.930 1_556 S
H235 C232 0.930 . S
O236 Li176 1.956 . S
O236 Li177 1.970 1_565 S
O236 Li178 1.961 . S
O236 C180 1.325 . S
O237 Li176 1.970 1_545 S
O237 Li177 1.956 . S
O237 Li179 1.961 . S
O237 C186 1.325 . S
O238 Li176 1.961 . S
O238 Li178 1.956 . S
O238 Li179 1.970 1_565 S
O238 C208 1.325 1_554 S
O239 Li177 1.961 . S
O239 Li178 1.970 1_545 S
O239 Li179 1.956 . S
O239 C214 1.325 . S
H240 C182 0.929 . S
H241 C183 0.930 . S
H242 C184 0.930 . S
H243 C185 0.930 . S
H244 C187 0.930 . S
H245 C189 0.929 . S
H246 C190 0.930 . S
H247 C191 0.930 1_556 S
H248 C194 0.930 . S
H249 C197 0.929 . S
H250 C202 0.929 . S
H251 C203 0.930 . S
H252 C210 0.929 1_545 S
H253 C211 0.930 . S
H254 C212 0.930 . S
H255 C213 0.930 . S
H256 C215 0.929 1_565 S
H257 C216 0.930 . S
H258 C217 0.930 . S
H259 C218 0.930 . S
H260 C222 0.929 . S
H261 C224 0.930 . S
H262 C230 0.929 . S
H263 C231 0.930 . S
Li264 N281 1.990 . S
Li264 O324 1.956 . S
Li264 O325 1.970 1_455 S
Li264 O326 1.961 . S
Li265 N289 1.990 . S
Li265 O324 1.970 1_655 S
Li265 O325 1.956 . S
Li265 O327 1.961 . S
Li266 N311 1.990 . S
Li266 O324 1.961 . S
Li266 O326 1.956 . S
Li266 O327 1.970 1_455 S
Li267 N317 1.990 . S
Li267 O325 1.961 . S
Li267 O326 1.970 1_655 S
Li267 O327 1.956 . S
C268 C270 1.348 . S
C268 C271 1.356 . S
C268 O324 1.325 . S
N269 C272 1.314 . S
N269 C273 1.279 . S
C270 C268 1.348 . S
C270 C272 1.353 . S
C270 H328 0.929 . S
C271 C268 1.356 . S
C271 C273 1.358 . S
C271 H329 0.930 . S
C272 N269 1.314 . S
C272 C270 1.353 . S
C272 H330 0.930 . S
C273 N269 1.279 . S
C273 C271 1.358 . S
C273 H331 0.930 . S
C274 C277 1.348 1_655 S
C274 C278 1.356 . S
C274 O325 1.325 . S
C275 N276 1.279 . S
C275 C278 1.358 . S
C275 H332 0.930 . S
N276 C275 1.279 . S
N276 C279 1.314 . S
C277 C274 1.348 1_455 S
C277 C279 1.353 1_455 S
C277 H333 0.929 . S
C278 C274 1.356 . S
C278 C275 1.358 . S
C278 H334 0.930 . S
C279 N276 1.314 . S
C279 C277 1.353 1_655 S
C279 H335 0.930 1_655 S
C280 N281 1.314 . S
C280 C285 1.353 . S
C280 H286 0.930 . S
N281 Li264 1.990 . S
N281 C280 1.314 . S
N281 C283 1.279 . S
C282 C283 1.358 . S
C282 C284 1.356 . S
C282 H336 0.930 . S
C283 N281 1.279 . S
C283 C282 1.358 . S
C283 H287 0.930 . S
C284 C282 1.356 . S
C284 C285 1.348 . S
C285 C280 1.353 . S
C285 C284 1.348 . S
C285 H337 0.929 . S
H286 C280 0.930 . S
H287 C283 0.930 . S
C288 N289 1.314 . S
C288 C290 1.353 . S
C288 H294 0.930 . S
N289 Li265 1.990 . S
N289 C288 1.314 . S
N289 C292 1.279 . S
C290 C288 1.353 . S
C290 C293 1.348 . S
C290 H338 0.929 . S
C291 C292 1.358 . S
C291 C293 1.356 . S
C291 H339 0.930 . S
C292 N289 1.279 . S
C292 C291 1.358 . S
C292 H295 0.930 . S
C293 C290 1.348 . S
C293 C291 1.356 . S
H294 C288 0.930 . S
H295 C292 0.930 . S
C296 C298 1.299 1_455 S
C296 C299 1.356 . S
C296 O326 1.325 . S
N297 C300 1.314 . S
N297 C301 1.279 1_556 S
C298 C296 1.299 1_655 S
C298 C300 1.352 1_654 S
C298 H340 0.983 . S
C299 C296 1.356 . S
C299 C301 1.358 . S
C299 H341 0.930 . S
C300 N297 1.314 . S
C300 C298 1.352 1_456 S
C300 H342 0.930 1_455 S
C301 N297 1.279 1_554 S
C301 C299 1.358 . S
C301 H343 0.930 . S
C302 C303 1.348 . S
C302 C304 1.356 . S
C302 O327 1.325 . S
C303 C302 1.348 . S
C303 C305 1.353 . S
C303 H344 0.929 . S
C304 C302 1.356 . S
C304 C306 1.358 . S
C304 H345 0.930 . S
C305 C303 1.353 . S
C305 N307 1.314 . S
C305 H346 0.930 . S
C306 C304 1.358 . S
C306 N307 1.279 . S
C306 H347 0.930 . S
N307 C305 1.314 . S
N307 C306 1.279 . S
C308 C310 1.353 . S
C308 N311 1.314 . S
C308 H314 0.930 . S
C309 N311 1.279 1_556 S
C309 C312 1.358 . S
C309 H315 0.930 . S
C310 C308 1.353 . S
C310 C313 1.348 1_554 S
C310 H348 0.929 . S
N311 Li266 1.990 . S
N311 C308 1.314 . S
N311 C309 1.279 1_554 S
C312 C309 1.358 . S
C312 C313 1.356 . S
C312 H349 0.930 . S
C313 C310 1.348 1_556 S
C313 C312 1.356 . S
H314 C308 0.930 . S
H315 C309 0.930 . S
C316 N317 1.314 . S
C316 C318 1.353 . S
C316 H322 0.930 . S
N317 Li267 1.990 . S
N317 C316 1.314 . S
N317 C320 1.279 . S
C318 C316 1.353 . S
C318 C321 1.348 . S
C318 H350 0.929 . S
C319 C320 1.358 . S
C319 C321 1.356 . S
C319 H351 0.930 . S
C320 N317 1.279 . S
C320 C319 1.358 . S
C320 H323 0.930 . S
C321 C318 1.348 . S
C321 C319 1.356 . S
H322 C316 0.930 . S
H323 C320 0.930 . S
O324 Li264 1.956 . S
O324 Li265 1.970 1_455 S
O324 Li266 1.961 . S
O324 C268 1.325 . S
O325 Li264 1.970 1_655 S
O325 Li265 1.956 . S
O325 Li267 1.961 . S
O325 C274 1.325 . S
O326 Li264 1.961 . S
O326 Li266 1.956 . S
O326 Li267 1.970 1_455 S
O326 C296 1.325 . S
O327 Li265 1.961 . S
O327 Li266 1.970 1_655 S
O327 Li267 1.956 . S
O327 C302 1.325 . S
H328 C270 0.929 . S
H329 C271 0.930 . S
H330 C272 0.930 . S
H331 C273 0.930 . S
H332 C275 0.930 . S
H333 C277 0.929 . S
H334 C278 0.930 . S
H335 C279 0.930 1_455 S
H336 C282 0.930 . S
H337 C285 0.929 . S
H338 C290 0.929 . S
H339 C291 0.930 . S
H340 C298 0.983 . S
H341 C299 0.930 . S
H342 C300 0.930 1_655 S
H343 C301 0.930 . S
H344 C303 0.929 . S
H345 C304 0.930 . S
H346 C305 0.930 . S
H347 C306 0.930 . S
H348 C310 0.929 . S
H349 C312 0.930 . S
H350 C318 0.929 . S
H351 C319 0.930 . S
Li352 N369 1.990 . S
Li352 O412 1.956 . S
Li352 O413 1.970 . S
Li352 O414 1.961 1_554 S
Li353 N377 1.990 . S
Li353 O412 1.970 . S
Li353 O413 1.956 . S
Li353 O415 1.965 . S
Li354 N399 1.990 . S
Li354 O412 1.961 1_556 S
Li354 O414 1.956 . S
Li354 O415 1.969 1_556 S
Li355 N405 2.007 . S
Li355 O413 1.914 1_556 S
Li355 O414 1.988 . S
Li355 O415 1.959 1_556 S
C356 C358 1.348 . S
C356 C359 1.356 . S
C356 O412 1.325 . S
N357 C360 1.314 . S
N357 C361 1.279 . S
C358 C356 1.348 . S
C358 C360 1.353 . S
C358 H416 0.929 . S
C359 C356 1.356 . S
C359 C361 1.358 . S
C359 H417 0.930 . S
C360 N357 1.314 . S
C360 C358 1.353 . S
C360 H418 0.930 . S
C361 N357 1.279 . S
C361 C359 1.358 . S
C361 H419 0.930 . S
C362 C365 1.348 . S
C362 C366 1.356 . S
C362 O413 1.325 . S
C363 N364 1.279 . S
C363 C366 1.358 . S
C363 H420 0.930 . S
N364 C363 1.279 . S
N364 C367 1.314 . S
C365 C362 1.348 . S
C365 C367 1.353 . S
C365 H421 0.929 . S
C366 C362 1.356 . S
C366 C363 1.358 . S
C366 H422 0.930 . S
C367 N364 1.314 . S
C367 C365 1.353 . S
C367 H423 0.930 . S
C368 N369 1.314 . S
C368 C373 1.353 . S
C368 H374 0.930 . S
N369 Li352 1.990 . S
N369 C368 1.314 . S
N369 C371 1.279 . S
C370 C371 1.358 . S
C370 C372 1.356 . S
C370 H424 0.930 . S
C371 N369 1.279 . S
C371 C370 1.358 . S
C371 H375 0.930 . S
C372 C370 1.356 . S
C372 C373 1.348 . S
C373 C368 1.353 . S
C373 C372 1.348 . S
C373 H425 0.929 . S
H374 C368 0.930 . S
H375 C371 0.930 . S
C376 N377 1.314 . S
C376 C378 1.353 . S
C376 H382 0.930 . S
N377 Li353 1.990 . S
N377 C376 1.314 . S
N377 C380 1.279 . S
C378 C376 1.353 . S
C378 C381 1.348 . S
C378 H426 0.929 . S
C379 C380 1.358 . S
C379 C381 1.356 . S
C379 H427 0.930 . S
C380 N377 1.279 . S
C380 C379 1.358 . S
C380 H383 0.930 . S
C381 C378 1.348 . S
C381 C379 1.356 . S
H382 C376 0.930 . S
H383 C380 0.930 . S
C384 C386 1.348 . S
C384 C387 1.356 . S
C384 O414 1.325 . S
N385 C388 1.314 . S
N385 C389 1.279 . S
C386 C384 1.348 . S
C386 C388 1.353 . S
C386 H428 0.929 . S
C387 C384 1.356 . S
C387 C389 1.358 . S
C387 H429 0.930 . S
C388 N385 1.314 . S
C388 C386 1.353 . S
C388 H430 0.930 . S
C389 N385 1.279 . S
C389 C387 1.358 . S
C389 H431 0.930 . S
C390 C391 1.348 . S
C390 C392 1.356 1_556 S
C390 O415 1.323 1_556 S
C391 C390 1.348 . S
C391 C393 1.353 . S
C391 H432 0.929 . S
C392 C390 1.356 1_554 S
C392 C394 1.358 1_554 S
C392 H433 0.930 . S
C393 C391 1.353 . S
C393 N395 1.314 . S
C393 H434 0.930 . S
C394 C392 1.358 1_556 S
C394 N395 1.279 . S
C394 H435 0.930 1_556 S
N395 C393 1.314 . S
N395 C394 1.279 . S
C396 C398 1.353 . S
C396 N399 1.314 . S
C396 H402 0.930 . S
C397 N399 1.279 . S
C397 C400 1.358 . S
C397 H403 0.930 . S
C398 C396 1.353 . S
C398 C401 1.348 . S
C398 H436 0.929 . S
N399 Li354 1.990 . S
N399 C396 1.314 . S
N399 C397 1.279 . S
C400 C397 1.358 . S
C400 C401 1.356 . S
C400 H437 0.930 . S
C401 C398 1.348 . S
C401 C400 1.356 . S
H402 C396 0.930 . S
H403 C397 0.930 . S
C404 N405 1.314 . S
C404 C406 1.353 . S
C404 H410 0.961 . S
N405 Li355 2.007 . S
N405 C404 1.314 . S
N405 C408 1.279 . S
C406 C404 1.353 . S
C406 C409 1.348 . S
C406 H438 0.929 . S
C407 C408 1.358 . S
C407 C409 1.356 . S
C407 H439 0.930 . S
C408 N405 1.279 . S
C408 C407 1.358 . S
C408 H411 0.930 . S
C409 C406 1.348 . S
C409 C407 1.356 . S
H410 C404 0.961 . S
H411 C408 0.930 . S
O412 Li352 1.956 . S
O412 Li353 1.970 . S
O412 Li354 1.961 1_554 S
O412 C356 1.325 . S
O413 Li352 1.970 . S
O413 Li353 1.956 . S
O413 Li355 1.914 1_554 S
O413 C362 1.325 . S
O414 Li352 1.961 1_556 S
O414 Li354 1.956 . S
O414 Li355 1.988 . S
O414 C384 1.325 . S
O415 Li353 1.965 . S
O415 Li354 1.969 1_554 S
O415 Li355 1.959 1_554 S
O415 C390 1.323 1_554 S
H416 C358 0.929 . S
H417 C359 0.930 . S
H418 C360 0.930 . S
H419 C361 0.930 . S
H420 C363 0.930 . S
H421 C365 0.929 . S
H422 C366 0.930 . S
H423 C367 0.930 . S
H424 C370 0.930 . S
H425 C373 0.929 . S
H426 C378 0.929 . S
H427 C379 0.930 . S
H428 C386 0.929 . S
H429 C387 0.930 . S
H430 C388 0.930 . S
H431 C389 0.930 . S
H432 C391 0.929 . S
H433 C392 0.930 . S
H434 C393 0.930 . S
H435 C394 0.930 1_554 S
H436 C398 0.929 . S
H437 C400 0.930 . S
H438 C406 0.929 . S
H439 C407 0.930 . S
Li440 N457 1.990 . S
Li440 O500 1.956 . S
Li440 O501 1.970 1_565 S
Li440 O502 1.961 . S
Li441 N465 1.990 . S
Li441 O500 1.970 1_545 S
Li441 O501 1.956 . S
Li441 O503 1.961 . S
Li442 N487 1.990 . S
Li442 O500 1.961 . S
Li442 O502 1.956 . S
Li442 O503 1.970 1_565 S
Li443 N493 1.990 . S
Li443 O501 1.961 . S
Li443 O502 1.970 1_545 S
Li443 O503 1.956 . S
C444 C446 1.348 . S
C444 C447 1.356 . S
C444 O500 1.325 . S
N445 C448 1.314 . S
N445 C449 1.279 . S
C446 C444 1.348 . S
C446 C448 1.353 . S
C446 H504 0.929 . S
C447 C444 1.356 . S
C447 C449 1.358 . S
C447 H505 0.930 . S
C448 N445 1.314 . S
C448 C446 1.353 . S
C448 H506 0.930 . S
C449 N445 1.279 . S
C449 C447 1.358 . S
C449 H507 0.930 . S
C450 C453 1.348 . S
C450 C454 1.356 . S
C450 O501 1.325 . S
C451 N452 1.279 . S
C451 C454 1.358 . S
C451 H508 0.930 . S
N452 C451 1.279 . S
N452 C455 1.314 . S
C453 C450 1.348 . S
C453 C455 1.353 . S
C453 H509 0.929 1_545 S
C454 C450 1.356 . S
C454 C451 1.358 . S
C454 H510 0.930 . S
C455 N452 1.314 . S
C455 C453 1.353 . S
C455 H511 0.930 . S
C456 N457 1.314 . S
C456 C461 1.353 . S
C456 H462 0.930 . S
N457 Li440 1.990 . S
N457 C456 1.314 . S
N457 C459 1.279 . S
C458 C459 1.358 . S
C458 C460 1.356 . S
C458 H512 0.930 . S
C459 N457 1.279 . S
C459 C458 1.358 . S
C459 H463 0.930 . S
C460 C458 1.356 . S
C460 C461 1.348 . S
C461 C456 1.353 . S
C461 C460 1.348 . S
C461 H513 0.929 . S
H462 C456 0.930 . S
H463 C459 0.930 . S
C464 N465 1.314 . S
C464 C466 1.353 . S
C464 H470 0.930 . S
N465 Li441 1.990 . S
N465 C464 1.314 . S
N465 C468 1.279 . S
C466 C464 1.353 . S
C466 C469 1.348 . S
C466 H514 0.929 . S
C467 C468 1.358 . S
C467 C469 1.356 . S
C467 H515 0.930 . S
C468 N465 1.279 . S
C468 C467 1.358 . S
C468 H471 0.930 . S
C469 C466 1.348 . S
C469 C467 1.356 . S
H470 C464 0.930 . S
H471 C468 0.930 . S
C472 C474 1.348 1_565 S
C472 C475 1.356 . S
C472 O502 1.325 . S
N473 C476 1.314 . S
N473 C477 1.279 1_556 S
C474 C472 1.348 1_545 S
C474 C476 1.353 1_544 S
C474 H516 0.929 . S
C475 C472 1.356 . S
C475 C477 1.358 . S
C475 H517 0.930 . S
C476 N473 1.314 . S
C476 C474 1.353 1_566 S
C476 H518 0.930 1_565 S
C477 N473 1.279 1_554 S
C477 C475 1.358 . S
C477 H519 0.943 . S
C478 C479 1.348 . S
C478 C480 1.356 . S
C478 O503 1.325 . S
C479 C478 1.348 . S
C479 C481 1.353 . S
C479 H520 0.929 . S
C480 C478 1.356 . S
C480 C482 1.358 . S
C480 H521 0.930 . S
C481 C479 1.353 . S
C481 N483 1.314 . S
C481 H522 0.930 . S
C482 C480 1.358 . S
C482 N483 1.279 . S
C482 H523 0.930 . S
N483 C481 1.314 . S
N483 C482 1.279 . S
C484 C486 1.353 . S
C484 N487 1.314 . S
C484 H490 0.930 . S
C485 N487 1.208 1_556 S
C485 C488 1.417 . S
C485 H491 0.948 . S
C486 C484 1.353 . S
C486 C489 1.348 1_554 S
C486 H524 0.929 . S
N487 Li442 1.990 . S
N487 C484 1.314 . S
N487 C485 1.208 1_554 S
C488 C485 1.417 . S
C488 C489 1.356 . S
C488 H525 0.930 . S
C489 C486 1.348 1_556 S
C489 C488 1.356 . S
H490 C484 0.930 . S
H491 C485 0.948 . S
C492 N493 1.314 . S
C492 C494 1.353 . S
C492 H498 0.930 . S
N493 Li443 1.990 . S
N493 C492 1.314 . S
N493 C496 1.279 . S
C494 C492 1.353 . S
C494 C497 1.348 . S
C494 H526 0.929 . S
C495 C496 1.358 . S
C495 C497 1.356 . S
C495 H527 0.930 . S
C496 N493 1.279 . S
C496 C495 1.358 . S
C496 H499 0.930 . S
C497 C494 1.348 . S
C497 C495 1.356 . S
H498 C492 0.930 . S
H499 C496 0.930 . S
O500 Li440 1.956 . S
O500 Li441 1.970 1_565 S
O500 Li442 1.961 . S
O500 C444 1.325 . S
O501 Li440 1.970 1_545 S
O501 Li441 1.956 . S
O501 Li443 1.961 . S
O501 C450 1.325 . S
O502 Li440 1.961 . S
O502 Li442 1.956 . S
O502 Li443 1.970 1_565 S
O502 C472 1.325 . S
O503 Li441 1.961 . S
O503 Li442 1.970 1_545 S
O503 Li443 1.956 . S
O503 C478 1.325 . S
H504 C446 0.929 . S
H505 C447 0.930 . S
H506 C448 0.930 . S
H507 C449 0.930 . S
H508 C451 0.930 . S
H509 C453 0.929 1_565 S
H510 C454 0.930 . S
H511 C455 0.930 . S
H512 C458 0.930 . S
H513 C461 0.929 . S
H514 C466 0.929 . S
H515 C467 0.930 . S
H516 C474 0.929 . S
H517 C475 0.930 . S
H518 C476 0.930 1_545 S
H519 C477 0.943 . S
H520 C479 0.929 . S
H521 C480 0.930 . S
H522 C481 0.930 . S
H523 C482 0.930 . S
H524 C486 0.929 . S
H525 C488 0.930 . S
H526 C494 0.929 . S
H527 C495 0.930 . S
Li528 N545 1.990 . S
Li528 O588 1.956 . S
Li528 O589 1.970 . S
Li528 O590 1.961 . S
Li529 N553 1.990 . S
Li529 O588 1.970 . S
Li529 O589 1.956 . S
Li529 O591 1.961 . S
Li530 N575 1.990 . S
Li530 O588 1.961 . S
Li530 O590 1.956 . S
Li530 O591 1.970 . S
Li531 N581 1.990 . S
Li531 O589 1.961 . S
Li531 O590 1.970 . S
Li531 O591 1.956 . S
C532 C534 1.348 . S
C532 C535 1.356 . S
C532 O588 1.325 . S
N533 C536 1.314 . S
N533 C537 1.279 . S
C534 C532 1.348 . S
C534 C536 1.353 . S
C534 H592 0.929 . S
C535 C532 1.356 . S
C535 C537 1.358 . S
C535 H593 0.930 . S
C536 N533 1.314 . S
C536 C534 1.353 . S
C536 H594 0.930 . S
C537 N533 1.279 . S
C537 C535 1.358 . S
C537 H595 0.930 . S
C538 C541 1.348 . S
C538 C542 1.356 . S
C538 O589 1.325 . S
C539 N540 1.279 . S
C539 C542 1.358 . S
C539 H596 0.930 . S
N540 C539 1.279 . S
N540 C543 1.314 . S
C541 C538 1.348 . S
C541 C543 1.353 . S
C541 H597 0.929 . S
C542 C538 1.356 . S
C542 C539 1.358 . S
C542 H598 0.930 . S
C543 N540 1.314 . S
C543 C541 1.353 . S
C543 H599 0.930 . S
C544 N545 1.314 . S
C544 C549 1.353 . S
C544 H550 0.930 . S
N545 Li528 1.990 . S
N545 C544 1.314 . S
N545 C547 1.279 . S
C546 C547 1.358 . S
C546 C548 1.356 . S
C546 H600 0.930 . S
C547 N545 1.279 . S
C547 C546 1.358 . S
C547 H551 0.930 . S
C548 C546 1.356 . S
C548 C549 1.348 . S
C549 C544 1.353 . S
C549 C548 1.348 . S
C549 H601 0.929 . S
H550 C544 0.930 . S
H551 C547 0.930 . S
C552 N553 1.314 . S
C552 C554 1.353 . S
C552 H558 0.930 . S
N553 Li529 1.990 . S
N553 C552 1.314 . S
N553 C556 1.279 . S
C554 C552 1.353 . S
C554 C557 1.348 . S
C554 H602 0.929 . S
C555 C556 1.358 . S
C555 C557 1.356 . S
C555 H603 0.930 . S
C556 N553 1.279 . S
C556 C555 1.358 . S
C556 H559 0.930 . S
C557 C554 1.348 . S
C557 C555 1.356 . S
H558 C552 0.930 . S
H559 C556 0.930 . S
C560 C562 1.348 . S
C560 C563 1.356 . S
C560 O590 1.325 . S
N561 C564 1.314 . S
N561 C565 1.279 . S
C562 C560 1.348 . S
C562 C564 1.353 . S
C562 H604 0.929 . S
C563 C560 1.356 . S
C563 C565 1.358 . S
C563 H605 0.930 . S
C564 N561 1.314 . S
C564 C562 1.353 . S
C564 H606 0.930 . S
C565 N561 1.279 . S
C565 C563 1.358 . S
C565 H607 0.930 . S
C566 C567 1.348 . S
C566 C568 1.356 . S
C566 O591 1.325 . S
C567 C566 1.348 . S
C567 C569 1.353 . S
C567 H608 0.929 . S
C568 C566 1.356 . S
C568 C570 1.358 . S
C568 H609 0.930 . S
C569 C567 1.353 . S
C569 N571 1.314 . S
C569 H610 0.930 . S
C570 C568 1.358 . S
C570 N571 1.279 . S
C570 H611 0.930 . S
N571 C569 1.314 . S
N571 C570 1.279 . S
C572 C574 1.353 . S
C572 N575 1.314 . S
C572 H578 0.930 . S
C573 N575 1.279 . S
C573 C576 1.358 . S
C573 H579 0.930 . S
C574 C572 1.353 . S
C574 C577 1.348 . S
C574 H612 0.929 . S
N575 Li530 1.990 . S
N575 C572 1.314 . S
N575 C573 1.279 . S
C576 C573 1.358 . S
C576 C577 1.356 . S
C576 H613 0.930 . S
C577 C574 1.348 . S
C577 C576 1.356 . S
H578 C572 0.930 . S
H579 C573 0.930 . S
C580 N581 1.314 . S
C580 C582 1.353 . S
C580 H586 0.930 . S
N581 Li531 1.990 . S
N581 C580 1.314 . S
N581 C584 1.279 . S
C582 C580 1.353 . S
C582 C585 1.348 . S
C582 H614 0.929 . S
C583 C584 1.358 . S
C583 C585 1.356 . S
C583 H615 0.930 . S
C584 N581 1.279 . S
C584 C583 1.358 . S
C584 H587 0.930 . S
C585 C582 1.348 . S
C585 C583 1.356 . S
H586 C580 0.930 . S
H587 C584 0.930 . S
O588 Li528 1.956 . S
O588 Li529 1.970 . S
O588 Li530 1.961 . S
O588 C532 1.325 . S
O589 Li528 1.970 . S
O589 Li529 1.956 . S
O589 Li531 1.961 . S
O589 C538 1.325 . S
O590 Li528 1.961 . S
O590 Li530 1.956 . S
O590 Li531 1.970 . S
O590 C560 1.325 . S
O591 Li529 1.961 . S
O591 Li530 1.970 . S
O591 Li531 1.956 . S
O591 C566 1.325 . S
H592 C534 0.929 . S
H593 C535 0.930 . S
H594 C536 0.930 . S
H595 C537 0.930 . S
H596 C539 0.930 . S
H597 C541 0.929 . S
H598 C542 0.930 . S
H599 C543 0.930 . S
H600 C546 0.930 . S
H601 C549 0.929 . S
H602 C554 0.929 . S
H603 C555 0.930 . S
H604 C562 0.929 . S
H605 C563 0.930 . S
H606 C564 0.930 . S
H607 C565 0.930 . S
H608 C567 0.929 . S
H609 C568 0.930 . S
H610 C569 0.930 . S
H611 C570 0.930 . S
H612 C574 0.929 . S
H613 C576 0.930 . S
H614 C582 0.929 . S
H615 C583 0.930 . S
Li616 N633 1.990 . S
Li616 O676 1.956 . S
Li616 O677 1.970 . S
Li616 O678 1.961 . S
Li617 N641 1.990 . S
Li617 O676 1.970 . S
Li617 O677 1.956 . S
Li617 O679 1.961 . S
Li618 N663 1.990 . S
Li618 O676 1.961 . S
Li618 O678 1.956 . S
Li618 O679 1.970 . S
Li619 N669 1.990 . S
Li619 O677 1.961 . S
Li619 O678 1.970 . S
Li619 O679 1.956 . S
C620 C622 1.348 . S
C620 C623 1.356 . S
C620 O676 1.325 . S
N621 C624 1.314 . S
N621 C625 1.279 . S
C622 C620 1.348 . S
C622 C624 1.353 . S
C622 H680 0.929 . S
C623 C620 1.356 . S
C623 C625 1.358 . S
C623 H681 0.930 . S
C624 N621 1.314 . S
C624 C622 1.353 . S
C624 H682 0.930 . S
C625 N621 1.279 . S
C625 C623 1.358 . S
C625 H683 0.930 . S
C626 C629 1.348 . S
C626 C630 1.356 . S
C626 O677 1.325 . S
C627 N628 1.279 . S
C627 C630 1.358 . S
C627 H684 0.930 . S
N628 C627 1.279 . S
N628 C631 1.314 . S
C629 C626 1.348 . S
C629 C631 1.353 . S
C629 H685 0.929 . S
C630 C626 1.356 . S
C630 C627 1.358 . S
C630 H686 0.930 . S
C631 N628 1.314 . S
C631 C629 1.353 . S
C631 H687 0.930 . S
C632 N633 1.314 . S
C632 C637 1.353 . S
C632 H638 0.930 . S
N633 Li616 1.990 . S
N633 C632 1.314 . S
N633 C635 1.279 . S
C634 C635 1.358 . S
C634 C636 1.356 . S
C634 H688 0.930 . S
C635 N633 1.279 . S
C635 C634 1.358 . S
C635 H639 0.930 . S
C636 C634 1.356 . S
C636 C637 1.348 . S
C637 C632 1.353 . S
C637 C636 1.348 . S
C637 H689 0.929 . S
H638 C632 0.930 . S
H639 C635 0.930 . S
C640 N641 1.314 . S
C640 C642 1.353 . S
C640 H646 0.930 . S
N641 Li617 1.990 . S
N641 C640 1.314 . S
N641 C644 1.279 . S
C642 C640 1.353 . S
C642 C645 1.348 . S
C642 H690 0.929 . S
C643 C644 1.358 . S
C643 C645 1.356 . S
C643 H691 0.930 . S
C644 N641 1.279 . S
C644 C643 1.358 . S
C644 H647 0.930 . S
C645 C642 1.348 . S
C645 C643 1.356 . S
H646 C640 0.930 . S
H647 C644 0.930 . S
C648 C650 1.348 . S
C648 C651 1.356 . S
C648 O678 1.325 . S
N649 C652 1.314 1_545 S
N649 C653 1.279 1_545 S
C650 C648 1.348 . S
C650 C652 1.353 . S
C650 H692 0.929 . S
C651 C648 1.356 . S
C651 C653 1.358 . S
C651 H693 0.930 . S
C652 N649 1.314 1_565 S
C652 C650 1.353 . S
C652 H694 0.930 1_565 S
C653 N649 1.279 1_565 S
C653 C651 1.358 . S
C653 H695 0.961 . S
C654 C655 1.348 . S
C654 C656 1.356 . S
C654 O679 1.325 . S
C655 C654 1.348 . S
C655 C657 1.353 . S
C655 H696 0.929 . S
C656 C654 1.356 . S
C656 C658 1.358 . S
C656 H697 0.930 . S
C657 C655 1.353 . S
C657 N659 1.314 . S
C657 H698 0.930 . S
C658 C656 1.358 . S
C658 N659 1.279 . S
C658 H699 0.930 . S
N659 C657 1.314 . S
N659 C658 1.279 . S
C660 C662 1.353 1_565 S
C660 N663 1.314 . S
C660 H666 0.930 . S
C661 N663 1.279 1_545 S
C661 C664 1.358 . S
C661 H667 0.930 . S
C662 C660 1.353 1_545 S
C662 C665 1.348 . S
C662 H700 0.929 . S
N663 Li618 1.990 . S
N663 C660 1.314 . S
N663 C661 1.279 1_565 S
C664 C661 1.358 . S
C664 C665 1.356 . S
C664 H701 0.930 . S
C665 C662 1.348 . S
C665 C664 1.356 . S
H666 C660 0.930 . S
H667 C661 0.930 . S
C668 N669 1.314 . S
C668 C670 1.353 . S
C668 H674 0.930 . S
N669 Li619 1.990 . S
N669 C668 1.314 . S
N669 C672 1.279 . S
C670 C668 1.353 . S
C670 C673 1.348 . S
C670 H702 0.929 . S
C671 C672 1.358 . S
C671 C673 1.356 . S
C671 H703 0.930 . S
C672 N669 1.279 . S
C672 C671 1.358 . S
C672 H675 0.930 . S
C673 C670 1.348 . S
C673 C671 1.356 . S
H674 C668 0.930 . S
H675 C672 0.930 . S
O676 Li616 1.956 . S
O676 Li617 1.970 . S
O676 Li618 1.961 . S
O676 C620 1.325 . S
O677 Li616 1.970 . S
O677 Li617 1.956 . S
O677 Li619 1.961 . S
O677 C626 1.325 . S
O678 Li616 1.961 . S
O678 Li618 1.956 . S
O678 Li619 1.970 . S
O678 C648 1.325 . S
O679 Li617 1.961 . S
O679 Li618 1.970 . S
O679 Li619 1.956 . S
O679 C654 1.325 . S
H680 C622 0.929 . S
H681 C623 0.930 . S
H682 C624 0.930 . S
H683 C625 0.930 . S
H684 C627 0.930 . S
H685 C629 0.929 . S
H686 C630 0.930 . S
H687 C631 0.930 . S
H688 C634 0.930 . S
H689 C637 0.929 . S
H690 C642 0.929 . S
H691 C643 0.930 . S
H692 C650 0.929 . S
H693 C651 0.930 . S
H694 C652 0.930 1_545 S
H695 C653 0.961 . S
H696 C655 0.929 . S
H697 C656 0.930 . S
H698 C657 0.930 . S
H699 C658 0.930 . S
H700 C662 0.929 . S
H701 C664 0.930 . S
H702 C670 0.929 . S
H703 C671 0.930 . S
Li704 N721 1.990 . S
Li704 O764 1.956 . S
Li704 O765 1.970 . S
Li704 O766 1.961 . S
Li705 N729 1.990 . S
Li705 O764 1.970 . S
Li705 O765 1.956 . S
Li705 O767 1.961 . S
Li706 N751 1.990 . S
Li706 O764 1.961 . S
Li706 O766 1.956 . S
Li706 O767 1.970 . S
Li707 N757 1.990 . S
Li707 O765 1.961 . S
Li707 O766 1.970 . S
Li707 O767 1.956 . S
C708 C710 1.348 . S
C708 C711 1.356 . S
C708 O764 1.325 . S
N709 C712 1.314 . S
N709 C713 1.279 . S
C710 C708 1.348 . S
C710 C712 1.353 . S
C710 H768 0.929 . S
C711 C708 1.356 . S
C711 C713 1.358 . S
C711 H769 0.930 . S
C712 N709 1.314 . S
C712 C710 1.353 . S
C712 H770 0.930 . S
C713 N709 1.279 . S
C713 C711 1.358 . S
C713 H771 0.930 . S
C714 C717 1.348 . S
C714 C718 1.356 . S
C714 O765 1.325 . S
C715 N716 1.279 . S
C715 C718 1.358 . S
C715 H772 0.930 . S
N716 C715 1.279 . S
N716 C719 1.314 . S
C717 C714 1.348 . S
C717 C719 1.353 . S
C717 H773 0.929 . S
C718 C714 1.356 . S
C718 C715 1.358 . S
C718 H774 0.930 . S
C719 N716 1.314 . S
C719 C717 1.353 . S
C719 H775 0.930 . S
C720 N721 1.314 . S
C720 C725 1.353 . S
C720 H726 0.930 . S
N721 Li704 1.990 . S
N721 C720 1.314 . S
N721 C723 1.279 . S
C722 C723 1.358 . S
C722 C724 1.356 . S
C722 H776 0.930 . S
C723 N721 1.279 . S
C723 C722 1.358 . S
C723 H727 0.930 . S
C724 C722 1.356 . S
C724 C725 1.348 . S
C725 C720 1.353 . S
C725 C724 1.348 . S
C725 H777 0.929 . S
H726 C720 0.930 . S
H727 C723 0.930 . S
C728 N729 1.314 . S
C728 C730 1.353 . S
C728 H734 0.930 . S
N729 Li705 1.990 . S
N729 C728 1.314 . S
N729 C732 1.279 . S
C730 C728 1.353 . S
C730 C733 1.348 . S
C730 H778 0.929 . S
C731 C732 1.358 . S
C731 C733 1.356 . S
C731 H779 0.930 . S
C732 N729 1.279 . S
C732 C731 1.358 . S
C732 H735 0.930 . S
C733 C730 1.348 . S
C733 C731 1.356 . S
H734 C728 0.930 . S
H735 C732 0.930 . S
C736 C738 1.348 . S
C736 C739 1.356 . S
C736 O766 1.325 . S
N737 C740 1.314 . S
N737 C741 1.279 . S
C738 C736 1.348 . S
C738 C740 1.353 . S
C738 H780 0.929 . S
C739 C736 1.356 . S
C739 C741 1.358 . S
C739 H781 0.930 . S
C740 N737 1.314 . S
C740 C738 1.353 . S
C740 H782 0.930 . S
C741 N737 1.279 . S
C741 C739 1.358 . S
C741 H783 0.930 . S
C742 C743 1.348 . S
C742 C744 1.356 . S
C742 O767 1.325 . S
C743 C742 1.348 . S
C743 C745 1.353 . S
C743 H784 0.929 . S
C744 C742 1.356 . S
C744 C746 1.358 . S
C744 H785 0.930 . S
C745 C743 1.353 . S
C745 N747 1.314 . S
C745 H786 0.930 . S
C746 C744 1.358 . S
C746 N747 1.279 . S
C746 H787 0.930 . S
N747 C745 1.314 . S
N747 C746 1.279 . S
C748 C750 1.419 . S
C748 N751 1.314 . S
C748 H754 0.930 . S
C749 N751 1.279 . S
C749 C752 1.358 1_455 S
C749 H755 0.930 . S
C750 C748 1.419 . S
C750 C753 1.261 1_455 S
C750 H788 0.959 . S
N751 Li706 1.990 . S
N751 C748 1.314 . S
N751 C749 1.279 . S
C752 C749 1.358 1_655 S
C752 C753 1.356 . S
C752 H789 0.930 . S
C753 C750 1.261 1_655 S
C753 C752 1.356 . S
H754 C748 0.930 . S
H755 C749 0.930 . S
C756 N757 1.314 . S
C756 C758 1.353 . S
C756 H762 0.930 . S
N757 Li707 1.990 . S
N757 C756 1.314 . S
N757 C760 1.279 . S
C758 C756 1.353 . S
C758 C761 1.348 . S
C758 H790 0.929 . S
C759 C760 1.358 . S
C759 C761 1.356 . S
C759 H791 0.930 . S
C760 N757 1.279 . S
C760 C759 1.358 . S
C760 H763 0.930 . S
C761 C758 1.348 . S
C761 C759 1.356 . S
H762 C756 0.930 . S
H763 C760 0.930 . S
O764 Li704 1.956 . S
O764 Li705 1.970 . S
O764 Li706 1.961 . S
O764 C708 1.325 . S
O765 Li704 1.970 . S
O765 Li705 1.956 . S
O765 Li707 1.961 . S
O765 C714 1.325 . S
O766 Li704 1.961 . S
O766 Li706 1.956 . S
O766 Li707 1.970 . S
O766 C736 1.325 . S
O767 Li705 1.961 . S
O767 Li706 1.970 . S
O767 Li707 1.956 . S
O767 C742 1.325 . S
H768 C710 0.929 . S
H769 C711 0.930 . S
H770 C712 0.930 . S
H771 C713 0.930 . S
H772 C715 0.930 . S
H773 C717 0.929 . S
H774 C718 0.930 . S
H775 C719 0.930 . S
H776 C722 0.930 . S
H777 C725 0.929 . S
H778 C730 0.929 . S
H779 C731 0.930 . S
H780 C738 0.929 . S
H781 C739 0.930 . S
H782 C740 0.930 . S
H783 C741 0.930 . S
H784 C743 0.929 . S
H785 C744 0.930 . S
H786 C745 0.930 . S
H787 C746 0.930 . S
H788 C750 0.959 . S
H789 C752 0.930 . S
H790 C758 0.929 . S
H791 C759 0.930 . S
Li792 N809 1.990 . S
Li792 O852 1.956 . S
Li792 O853 1.970 . S
Li792 O854 1.961 . S
Li793 N817 1.990 . S
Li793 O852 1.970 . S
Li793 O853 1.956 . S
Li793 O855 1.961 . S
Li794 N839 1.990 . S
Li794 O852 1.961 . S
Li794 O854 1.956 . S
Li794 O855 1.970 . S
Li795 N845 1.990 . S
Li795 O853 1.961 . S
Li795 O854 1.970 . S
Li795 O855 1.956 . S
C796 C798 1.348 . S
C796 C799 1.356 . S
C796 O852 1.325 . S
N797 C800 1.314 . S
N797 C801 1.279 . S
C798 C796 1.348 . S
C798 C800 1.353 . S
C798 H856 0.929 . S
C799 C796 1.356 . S
C799 C801 1.358 . S
C799 H857 0.930 . S
C800 N797 1.314 . S
C800 C798 1.353 . S
C800 H858 0.930 . S
C801 N797 1.279 . S
C801 C799 1.358 . S
C801 H859 0.930 . S
C802 C805 1.348 . S
C802 C806 1.356 . S
C802 O853 1.325 . S
C803 N804 1.279 . S
C803 C806 1.358 . S
C803 H860 0.930 . S
N804 C803 1.279 . S
N804 C807 1.314 . S
C805 C802 1.348 . S
C805 C807 1.353 . S
C805 H861 0.929 . S
C806 C802 1.356 . S
C806 C803 1.358 . S
C806 H862 0.930 . S
C807 N804 1.314 . S
C807 C805 1.353 . S
C807 H863 0.930 . S
C808 N809 1.314 1_545 S
C808 C813 1.353 . S
C808 H814 0.930 . S
N809 Li792 1.990 . S
N809 C808 1.314 1_565 S
N809 C811 1.279 . S
C810 C811 1.358 1_545 S
C810 C812 1.356 . S
C810 H864 0.930 . S
C811 N809 1.279 . S
C811 C810 1.358 1_565 S
C811 H815 0.930 . S
C812 C810 1.356 . S
C812 C813 1.348 . S
C813 C808 1.353 . S
C813 C812 1.348 . S
C813 H865 0.929 . S
H814 C808 0.930 . S
H815 C811 0.930 . S
C816 N817 1.314 . S
C816 C818 1.353 . S
C816 H822 0.930 . S
N817 Li793 1.990 . S
N817 C816 1.314 . S
N817 C820 1.279 . S
C818 C816 1.353 . S
C818 C821 1.348 . S
C818 H866 0.929 . S
C819 C820 1.358 . S
C819 C821 1.356 . S
C819 H867 0.930 . S
C820 N817 1.279 . S
C820 C819 1.358 . S
C820 H823 0.930 . S
C821 C818 1.348 . S
C821 C819 1.356 . S
H822 C816 0.930 . S
H823 C820 0.930 . S
C824 C826 1.348 . S
C824 C827 1.356 . S
C824 O854 1.325 . S
N825 C828 1.314 1_545 S
N825 C829 1.306 . S
C826 C824 1.348 . S
C826 C828 1.353 . S
C826 H868 0.929 . S
C827 C824 1.356 . S
C827 C829 1.326 1_565 S
C827 H869 0.930 . S
C828 N825 1.314 1_565 S
C828 C826 1.353 . S
C828 H870 0.930 . S
C829 N825 1.306 . S
C829 C827 1.326 1_545 S
C829 H871 0.940 . S
C830 C831 1.348 . S
C830 C832 1.356 . S
C830 O855 1.325 . S
C831 C830 1.348 . S
C831 C833 1.353 . S
C831 H872 0.929 . S
C832 C830 1.356 . S
C832 C834 1.358 . S
C832 H873 0.930 . S
C833 C831 1.353 . S
C833 N835 1.314 . S
C833 H874 0.930 . S
C834 C832 1.358 . S
C834 N835 1.279 . S
C834 H875 0.930 . S
N835 C833 1.314 . S
N835 C834 1.279 . S
C836 C838 1.353 . S
C836 N839 1.314 . S
C836 H842 0.930 . S
C837 N839 1.279 . S
C837 C840 1.358 . S
C837 H843 0.930 . S
C838 C836 1.353 . S
C838 C841 1.348 . S
C838 H876 0.929 . S
N839 Li794 1.990 . S
N839 C836 1.314 . S
N839 C837 1.279 . S
C840 C837 1.358 . S
C840 C841 1.356 . S
C840 H877 0.930 . S
C841 C838 1.348 . S
C841 C840 1.356 . S
H842 C836 0.930 . S
H843 C837 0.930 . S
C844 N845 1.314 . S
C844 C846 1.353 . S
C844 H850 0.930 . S
N845 Li795 1.990 . S
N845 C844 1.314 . S
N845 C848 1.279 . S
C846 C844 1.353 . S
C846 C849 1.348 . S
C846 H878 0.929 . S
C847 C848 1.358 . S
C847 C849 1.356 . S
C847 H879 0.930 . S
C848 N845 1.279 . S
C848 C847 1.358 . S
C848 H851 0.930 . S
C849 C846 1.348 . S
C849 C847 1.356 . S
H850 C844 0.930 . S
H851 C848 0.930 . S
O852 Li792 1.956 . S
O852 Li793 1.970 . S
O852 Li794 1.961 . S
O852 C796 1.325 . S
O853 Li792 1.970 . S
O853 Li793 1.956 . S
O853 Li795 1.961 . S
O853 C802 1.325 . S
O854 Li792 1.961 . S
O854 Li794 1.956 . S
O854 Li795 1.970 . S
O854 C824 1.325 . S
O855 Li793 1.961 . S
O855 Li794 1.970 . S
O855 Li795 1.956 . S
O855 C830 1.325 . S
H856 C798 0.929 . S
H857 C799 0.930 . S
H858 C800 0.930 . S
H859 C801 0.930 . S
H860 C803 0.930 . S
H861 C805 0.929 . S
H862 C806 0.930 . S
H863 C807 0.930 . S
H864 C810 0.930 . S
H865 C813 0.929 . S
H866 C818 0.929 . S
H867 C819 0.930 . S
H868 C826 0.929 . S
H869 C827 0.930 . S
H870 C828 0.930 . S
H871 C829 0.940 . S
H872 C831 0.929 . S
H873 C832 0.930 . S
H874 C833 0.930 . S
H875 C834 0.930 . S
H876 C838 0.929 . S
H877 C840 0.930 . S
H878 C846 0.929 . S
H879 C847 0.930 . S
Li880 N897 1.990 . S
Li880 O940 1.956 . S
Li880 O941 1.970 . S
Li880 O942 1.961 . S
Li881 N905 1.990 . S
Li881 O940 1.970 . S
Li881 O941 1.956 . S
Li881 O943 1.961 . S
Li882 N927 1.990 . S
Li882 O940 1.961 . S
Li882 O942 1.956 . S
Li882 O943 1.970 . S
Li883 N933 1.990 . S
Li883 O941 1.961 . S
Li883 O942 1.970 . S
Li883 O943 1.956 . S
C884 C886 1.348 . S
C884 C887 1.356 . S
C884 O940 1.325 . S
N885 C888 1.314 . S
N885 C889 1.279 . S
C886 C884 1.348 . S
C886 C888 1.353 . S
C886 H944 0.929 . S
C887 C884 1.356 . S
C887 C889 1.358 . S
C887 H945 0.930 . S
C888 N885 1.314 . S
C888 C886 1.353 . S
C888 H946 0.930 . S
C889 N885 1.279 . S
C889 C887 1.358 . S
C889 H947 0.930 . S
C890 C893 1.348 . S
C890 C894 1.356 . S
C890 O941 1.325 . S
C891 N892 1.279 . S
C891 C894 1.358 . S
C891 H948 0.930 . S
N892 C891 1.279 . S
N892 C895 1.314 . S
C893 C890 1.348 . S
C893 C895 1.353 . S
C893 H949 0.929 . S
C894 C890 1.356 . S
C894 C891 1.358 . S
C894 H950 0.930 . S
C895 N892 1.314 . S
C895 C893 1.353 . S
C895 H951 0.930 . S
C896 N897 1.314 . S
C896 C901 1.353 . S
C896 H902 0.930 . S
N897 Li880 1.990 . S
N897 C896 1.314 . S
N897 C899 1.279 . S
C898 C899 1.358 . S
C898 C900 1.356 . S
C898 H952 0.930 . S
C899 N897 1.279 . S
C899 C898 1.358 . S
C899 H903 0.930 . S
C900 C898 1.356 . S
C900 C901 1.348 . S
C901 C896 1.353 . S
C901 C900 1.348 . S
C901 H953 0.929 . S
H902 C896 0.930 . S
H903 C899 0.930 . S
C904 N905 1.314 1_655 S
C904 C906 1.353 . S
C904 H910 0.930 . S
N905 Li881 1.990 . S
N905 C904 1.314 1_455 S
N905 C908 1.279 . S
C906 C904 1.353 . S
C906 C909 1.348 . S
C906 H954 0.929 . S
C907 C908 1.358 1_655 S
C907 C909 1.356 . S
C907 H955 0.930 . S
C908 N905 1.279 . S
C908 C907 1.358 1_455 S
C908 H911 0.930 . S
C909 C906 1.348 . S
C909 C907 1.356 . S
H910 C904 0.930 . S
H911 C908 0.930 . S
C912 C914 1.348 . S
C912 C915 1.356 . S
C912 O942 1.325 . S
N913 C916 1.314 . S
N913 C917 1.279 . S
C914 C912 1.348 . S
C914 C916 1.353 . S
C914 H956 0.929 . S
C915 C912 1.356 . S
C915 C917 1.358 . S
C915 H957 0.930 . S
C916 N913 1.314 . S
C916 C914 1.353 . S
C916 H958 0.930 . S
C917 N913 1.279 . S
C917 C915 1.358 . S
C917 H959 0.930 . S
C918 C919 1.348 . S
C918 C920 1.356 . S
C918 O943 1.325 . S
C919 C918 1.348 . S
C919 C921 1.353 . S
C919 H960 0.929 . S
C920 C918 1.356 . S
C920 C922 1.358 . S
C920 H961 0.930 . S
C921 C919 1.353 . S
C921 N923 1.386 . S
C921 H962 0.930 . S
C922 C920 1.358 . S
C922 N923 1.258 . S
C922 H963 0.930 1_455 S
N923 C921 1.386 . S
N923 C922 1.258 . S
C924 C926 1.353 . S
C924 N927 1.314 . S
C924 H930 0.930 . S
C925 N927 1.279 . S
C925 C928 1.358 . S
C925 H931 0.930 . S
C926 C924 1.353 . S
C926 C929 1.348 . S
C926 H964 0.929 . S
N927 Li882 1.990 . S
N927 C924 1.314 . S
N927 C925 1.279 . S
C928 C925 1.358 . S
C928 C929 1.356 . S
C928 H965 0.930 . S
C929 C926 1.348 . S
C929 C928 1.356 . S
H930 C924 0.930 . S
H931 C925 0.930 . S
C932 N933 1.314 . S
C932 C934 1.353 . S
C932 H938 0.930 . S
N933 Li883 1.990 . S
N933 C932 1.314 . S
N933 C936 1.279 . S
C934 C932 1.353 . S
C934 C937 1.348 . S
C934 H966 0.929 . S
C935 C936 1.358 . S
C935 C937 1.356 . S
C935 H967 0.930 . S
C936 N933 1.279 . S
C936 C935 1.358 . S
C936 H939 0.930 . S
C937 C934 1.348 . S
C937 C935 1.356 . S
H938 C932 0.930 . S
H939 C936 0.930 . S
O940 Li880 1.956 . S
O940 Li881 1.970 . S
O940 Li882 1.961 . S
O940 C884 1.325 . S
O941 Li880 1.970 . S
O941 Li881 1.956 . S
O941 Li883 1.961 . S
O941 C890 1.325 . S
O942 Li880 1.961 . S
O942 Li882 1.956 . S
O942 Li883 1.970 . S
O942 C912 1.325 . S
O943 Li881 1.961 . S
O943 Li882 1.970 . S
O943 Li883 1.956 . S
O943 C918 1.325 . S
H944 C886 0.929 . S
H945 C887 0.930 . S
H946 C888 0.930 . S
H947 C889 0.930 . S
H948 C891 0.930 . S
H949 C893 0.929 . S
H950 C894 0.930 . S
H951 C895 0.930 . S
H952 C898 0.930 . S
H953 C901 0.929 . S
H954 C906 0.929 . S
H955 C907 0.930 . S
H956 C914 0.929 . S
H957 C915 0.930 . S
H958 C916 0.930 . S
H959 C917 0.930 . S
H960 C919 0.929 . S
H961 C920 0.930 . S
H962 C921 0.930 . S
H963 C922 0.930 1_655 S
H964 C926 0.929 . S
H965 C928 0.930 . S
H966 C934 0.929 . S
H967 C935 0.930 . S
Li968 N985 1.990 . S
Li968 O1028 1.956 . S
Li968 O1029 1.970 . S
Li968 O1030 1.961 . S
Li969 N993 1.990 . S
Li969 O1028 1.970 . S
Li969 O1029 1.956 . S
Li969 O1031 1.961 . S
Li970 N1015 1.990 . S
Li970 O1028 1.961 . S
Li970 O1030 1.956 . S
Li970 O1031 1.970 . S
Li971 N1021 1.990 . S
Li971 O1029 1.961 . S
Li971 O1030 1.970 . S
Li971 O1031 1.956 . S
C972 C974 1.348 . S
C972 C975 1.356 . S
C972 O1028 1.325 . S
N973 C976 1.314 . S
N973 C977 1.279 . S
C974 C972 1.348 . S
C974 C976 1.353 . S
C974 H1032 0.929 . S
C975 C972 1.356 . S
C975 C977 1.358 . S
C975 H1033 0.930 . S
C976 N973 1.314 . S
C976 C974 1.353 . S
C976 H1034 0.930 . S
C977 N973 1.279 . S
C977 C975 1.358 . S
C977 H1035 0.930 . S
C978 C981 1.348 . S
C978 C982 1.356 . S
C978 O1029 1.325 . S
C979 N980 1.279 . S
C979 C982 1.358 . S
C979 H1036 0.930 . S
N980 C979 1.279 . S
N980 C983 1.314 . S
C981 C978 1.348 . S
C981 C983 1.353 . S
C981 H1037 0.929 . S
C982 C978 1.356 . S
C982 C979 1.358 . S
C982 H1038 0.930 . S
C983 N980 1.314 . S
C983 C981 1.353 . S
C983 H1039 0.930 . S
C984 N985 1.314 . S
C984 C989 1.353 . S
C984 H990 0.930 . S
N985 Li968 1.990 . S
N985 C984 1.314 . S
N985 C987 1.279 . S
C986 C987 1.358 . S
C986 C988 1.356 . S
C986 H1040 0.930 . S
C987 N985 1.279 . S
C987 C986 1.358 . S
C987 H991 0.930 . S
C988 C986 1.356 . S
C988 C989 1.348 . S
C989 C984 1.353 . S
C989 C988 1.348 . S
C989 H1041 0.929 . S
H990 C984 0.930 . S
H991 C987 0.930 . S
C992 N993 1.314 . S
C992 C994 1.353 . S
C992 H998 0.930 . S
N993 Li969 1.990 . S
N993 C992 1.314 . S
N993 C996 1.279 . S
C994 C992 1.353 . S
C994 C997 1.348 . S
C994 H1042 0.929 . S
C995 C996 1.358 . S
C995 C997 1.356 . S
C995 H1043 0.930 . S
C996 N993 1.279 . S
C996 C995 1.358 . S
C996 H999 0.930 . S
C997 C994 1.348 . S
C997 C995 1.356 . S
H998 C992 0.930 . S
H999 C996 0.930 . S
C1000 C1002 1.348 . S
C1000 C1003 1.356 . S
C1000 O1030 1.325 . S
N1001 C1004 1.314 . S
N1001 C1005 1.279 . S
C1002 C1000 1.348 . S
C1002 C1004 1.353 . S
C1002 H1044 0.929 . S
C1003 C1000 1.356 . S
C1003 C1005 1.358 . S
C1003 H1045 0.930 . S
C1004 N1001 1.314 . S
C1004 C1002 1.353 . S
C1004 H1046 0.930 . S
C1005 N1001 1.279 . S
C1005 C1003 1.358 . S
C1005 H1047 0.930 . S
C1006 C1007 1.348 . S
C1006 C1008 1.356 . S
C1006 O1031 1.325 . S
C1007 C1006 1.348 . S
C1007 C1009 1.353 . S
C1007 H1048 0.929 . S
C1008 C1006 1.356 . S
C1008 C1010 1.358 . S
C1008 H1049 0.930 . S
C1009 C1007 1.353 . S
C1009 N1011 1.314 . S
C1009 H1050 0.930 . S
C1010 C1008 1.358 . S
C1010 N1011 1.279 . S
C1010 H1051 0.930 . S
N1011 C1009 1.314 . S
N1011 C1010 1.279 . S
C1012 C1014 1.353 . S
C1012 N1015 1.314 . S
C1012 H1018 0.930 . S
C1013 N1015 1.279 . S
C1013 C1016 1.358 . S
C1013 H1019 0.930 . S
C1014 C1012 1.353 . S
C1014 C1017 1.348 . S
C1014 H1052 0.929 . S
N1015 Li970 1.990 . S
N1015 C1012 1.314 . S
N1015 C1013 1.279 . S
C1016 C1013 1.358 . S
C1016 C1017 1.356 . S
C1016 H1053 0.930 . S
C1017 C1014 1.348 . S
C1017 C1016 1.356 . S
H1018 C1012 0.930 . S
H1019 C1013 0.930 . S
C1020 N1021 1.314 . S
C1020 C1022 1.353 . S
C1020 H1026 0.930 . S
N1021 Li971 1.990 . S
N1021 C1020 1.314 . S
N1021 C1024 1.279 . S
C1022 C1020 1.353 . S
C1022 C1025 1.348 . S
C1022 H1054 0.929 . S
C1023 C1024 1.358 . S
C1023 C1025 1.356 . S
C1023 H1055 0.930 . S
C1024 N1021 1.279 . S
C1024 C1023 1.358 . S
C1024 H1027 0.930 . S
C1025 C1022 1.348 . S
C1025 C1023 1.356 . S
H1026 C1020 0.930 . S
H1027 C1024 0.930 . S
O1028 Li968 1.956 . S
O1028 Li969 1.970 . S
O1028 Li970 1.961 . S
O1028 C972 1.325 . S
O1029 Li968 1.970 . S
O1029 Li969 1.956 . S
O1029 Li971 1.961 . S
O1029 C978 1.325 . S
O1030 Li968 1.961 . S
O1030 Li970 1.956 . S
O1030 Li971 1.970 . S
O1030 C1000 1.325 . S
O1031 Li969 1.961 . S
O1031 Li970 1.970 . S
O1031 Li971 1.956 . S
O1031 C1006 1.325 . S
H1032 C974 0.929 . S
H1033 C975 0.930 . S
H1034 C976 0.930 . S
H1035 C977 0.930 . S
H1036 C979 0.930 . S
H1037 C981 0.929 . S
H1038 C982 0.930 . S
H1039 C983 0.930 . S
H1040 C986 0.930 . S
H1041 C989 0.929 . S
H1042 C994 0.929 . S
H1043 C995 0.930 . S
H1044 C1002 0.929 . S
H1045 C1003 0.930 . S
H1046 C1004 0.930 . S
H1047 C1005 0.930 . S
H1048 C1007 0.929 . S
H1049 C1008 0.930 . S
H1050 C1009 0.930 . S
H1051 C1010 0.930 . S
H1052 C1014 0.929 . S
H1053 C1016 0.930 . S
H1054 C1022 0.929 . S
H1055 C1023 0.930 . S
Li1056 N1073 1.990 . S
Li1056 O1116 1.956 . S
Li1056 O1117 1.970 . S
Li1056 O1118 1.961 . S
Li1057 N1081 1.990 . S
Li1057 O1116 1.970 . S
Li1057 O1117 1.956 . S
Li1057 O1119 1.961 . S
Li1058 N1103 1.990 . S
Li1058 O1116 1.961 . S
Li1058 O1118 1.956 . S
Li1058 O1119 1.970 . S
Li1059 N1109 1.990 . S
Li1059 O1117 1.961 . S
Li1059 O1118 1.970 . S
Li1059 O1119 1.956 . S
C1060 C1062 1.348 . S
C1060 C1063 1.356 . S
C1060 O1116 1.325 . S
N1061 C1064 1.314 1_565 S
N1061 C1065 1.279 1_565 S
C1062 C1060 1.348 . S
C1062 C1064 1.353 . S
C1062 H1120 0.929 . S
C1063 C1060 1.356 . S
C1063 C1065 1.358 . S
C1063 H1121 0.930 . S
C1064 N1061 1.314 1_545 S
C1064 C1062 1.353 . S
C1064 H1122 0.875 1_545 S
C1065 N1061 1.279 1_545 S
C1065 C1063 1.358 . S
C1065 H1123 0.930 . S
C1066 C1069 1.348 . S
C1066 C1070 1.356 . S
C1066 O1117 1.325 . S
C1067 N1068 1.279 . S
C1067 C1070 1.358 . S
C1067 H1124 0.930 . S
N1068 C1067 1.279 . S
N1068 C1071 1.314 . S
C1069 C1066 1.348 . S
C1069 C1071 1.353 . S
C1069 H1125 0.929 . S
C1070 C1066 1.356 . S
C1070 C1067 1.358 . S
C1070 H1126 0.930 . S
C1071 N1068 1.314 . S
C1071 C1069 1.353 . S
C1071 H1127 0.930 . S
C1072 N1073 1.314 . S
C1072 C1077 1.353 1_545 S
C1072 H1078 0.930 . S
N1073 Li1056 1.990 . S
N1073 C1072 1.314 . S
N1073 C1075 1.279 1_545 S
C1074 C1075 1.358 . S
C1074 C1076 1.356 . S
C1074 H1128 0.930 . S
C1075 N1073 1.279 1_565 S
C1075 C1074 1.358 . S
C1075 H1079 0.930 . S
C1076 C1074 1.356 . S
C1076 C1077 1.348 . S
C1077 C1072 1.353 1_565 S
C1077 C1076 1.348 . S
C1077 H1129 0.929 . S
H1078 C1072 0.930 . S
H1079 C1075 0.930 . S
C1080 N1081 1.314 . S
C1080 C1082 1.353 . S
C1080 H1086 0.930 . S
N1081 Li1057 1.990 . S
N1081 C1080 1.314 . S
N1081 C1084 1.279 . S
C1082 C1080 1.353 . S
C1082 C1085 1.348 . S
C1082 H1130 0.929 . S
C1083 C1084 1.358 . S
C1083 C1085 1.356 . S
C1083 H1131 0.930 . S
C1084 N1081 1.279 . S
C1084 C1083 1.358 . S
C1084 H1087 0.930 . S
C1085 C1082 1.348 . S
C1085 C1083 1.356 . S
H1086 C1080 0.930 . S
H1087 C1084 0.930 . S
C1088 C1090 1.348 . S
C1088 C1091 1.356 . S
C1088 O1118 1.325 . S
N1089 C1092 1.314 . S
N1089 C1093 1.279 . S
C1090 C1088 1.348 . S
C1090 C1092 1.353 . S
C1090 H1132 0.929 . S
C1091 C1088 1.356 . S
C1091 C1093 1.358 . S
C1091 H1133 0.930 . S
C1092 N1089 1.314 . S
C1092 C1090 1.353 . S
C1092 H1134 0.930 . S
C1093 N1089 1.279 . S
C1093 C1091 1.358 . S
C1093 H1135 0.930 . S
C1094 C1095 1.348 . S
C1094 C1096 1.356 . S
C1094 O1119 1.325 . S
C1095 C1094 1.348 . S
C1095 C1097 1.353 . S
C1095 H1136 0.929 . S
C1096 C1094 1.356 . S
C1096 C1098 1.358 . S
C1096 H1137 0.930 . S
C1097 C1095 1.353 . S
C1097 N1099 1.314 . S
C1097 H1138 0.930 . S
C1098 C1096 1.358 . S
C1098 N1099 1.279 . S
C1098 H1139 0.930 . S
N1099 C1097 1.314 . S
N1099 C1098 1.279 . S
C1100 C1102 1.353 . S
C1100 N1103 1.314 . S
C1100 H1106 0.930 . S
C1101 N1103 1.279 . S
C1101 C1104 1.358 . S
C1101 H1107 0.930 . S
C1102 C1100 1.353 . S
C1102 C1105 1.348 . S
C1102 H1140 0.929 . S
N1103 Li1058 1.990 . S
N1103 C1100 1.314 . S
N1103 C1101 1.279 . S
C1104 C1101 1.358 . S
C1104 C1105 1.356 . S
C1104 H1141 0.930 . S
C1105 C1102 1.348 . S
C1105 C1104 1.356 . S
H1106 C1100 0.930 . S
H1107 C1101 0.930 . S
C1108 N1109 1.314 . S
C1108 C1110 1.353 . S
C1108 H1114 0.930 . S
N1109 Li1059 1.990 . S
N1109 C1108 1.314 . S
N1109 C1112 1.279 . S
C1110 C1108 1.353 . S
C1110 C1113 1.348 . S
C1110 H1142 0.929 . S
C1111 C1112 1.358 . S
C1111 C1113 1.356 . S
C1111 H1143 0.930 . S
C1112 N1109 1.279 . S
C1112 C1111 1.358 . S
C1112 H1115 0.930 . S
C1113 C1110 1.348 . S
C1113 C1111 1.356 . S
H1114 C1108 0.930 . S
H1115 C1112 0.930 . S
O1116 Li1056 1.956 . S
O1116 Li1057 1.970 . S
O1116 Li1058 1.961 . S
O1116 C1060 1.325 . S
O1117 Li1056 1.970 . S
O1117 Li1057 1.956 . S
O1117 Li1059 1.961 . S
O1117 C1066 1.325 . S
O1118 Li1056 1.961 . S
O1118 Li1058 1.956 . S
O1118 Li1059 1.970 . S
O1118 C1088 1.325 . S
O1119 Li1057 1.961 . S
O1119 Li1058 1.970 . S
O1119 Li1059 1.956 . S
O1119 C1094 1.325 . S
H1120 C1062 0.929 . S
H1121 C1063 0.930 . S
H1122 C1064 0.875 1_565 S
H1123 C1065 0.930 . S
H1124 C1067 0.930 . S
H1125 C1069 0.929 . S
H1126 C1070 0.930 . S
H1127 C1071 0.930 . S
H1128 C1074 0.930 . S
H1129 C1077 0.929 . S
H1130 C1082 0.929 . S
H1131 C1083 0.930 . S
H1132 C1090 0.929 . S
H1133 C1091 0.930 . S
H1134 C1092 0.930 . S
H1135 C1093 0.930 . S
H1136 C1095 0.929 . S
H1137 C1096 0.930 . S
H1138 C1097 0.930 . S
H1139 C1098 0.930 . S
H1140 C1102 0.929 . S
H1141 C1104 0.930 . S
H1142 C1110 0.929 . S
H1143 C1111 0.930 . S
Li1144 N1161 1.990 . S
Li1144 O1204 1.956 . S
Li1144 O1205 1.970 . S
Li1144 O1206 1.961 . S
Li1145 N1169 1.990 . S
Li1145 O1204 1.970 . S
Li1145 O1205 1.956 . S
Li1145 O1207 1.961 . S
Li1146 N1191 1.990 . S
Li1146 O1204 1.961 . S
Li1146 O1206 1.956 . S
Li1146 O1207 1.970 . S
Li1147 N1197 1.990 . S
Li1147 O1205 1.961 . S
Li1147 O1206 1.970 . S
Li1147 O1207 1.956 . S
C1148 C1150 1.348 . S
C1148 C1151 1.356 . S
C1148 O1204 1.325 . S
N1149 C1152 1.253 1_455 S
N1149 C1153 1.279 1_455 S
C1150 C1148 1.348 . S
C1150 C1152 1.408 . S
C1150 H1208 0.929 . S
C1151 C1148 1.356 . S
C1151 C1153 1.358 . S
C1151 H1209 0.930 . S
C1152 N1149 1.253 1_655 S
C1152 C1150 1.408 . S
C1152 H1210 0.944 1_655 S
C1153 N1149 1.279 1_655 S
C1153 C1151 1.358 . S
C1153 H1211 0.906 1_655 S
C1154 C1157 1.348 . S
C1154 C1158 1.356 . S
C1154 O1205 1.325 . S
C1155 N1156 1.279 . S
C1155 C1158 1.358 . S
C1155 H1212 0.930 . S
N1156 C1155 1.279 . S
N1156 C1159 1.314 . S
C1157 C1154 1.348 . S
C1157 C1159 1.353 . S
C1157 H1213 0.929 . S
C1158 C1154 1.356 . S
C1158 C1155 1.358 . S
C1158 H1214 0.930 . S
C1159 N1156 1.314 . S
C1159 C1157 1.353 . S
C1159 H1215 0.930 . S
C1160 N1161 1.314 . S
C1160 C1165 1.353 1_655 S
C1160 H1166 0.930 . S
N1161 Li1144 1.990 . S
N1161 C1160 1.314 . S
N1161 C1163 1.279 1_655 S
C1162 C1163 1.358 . S
C1162 C1164 1.356 . S
C1162 H1216 0.930 . S
C1163 N1161 1.279 1_455 S
C1163 C1162 1.358 . S
C1163 H1167 0.930 . S
C1164 C1162 1.356 . S
C1164 C1165 1.348 . S
C1165 C1160 1.353 1_455 S
C1165 C1164 1.348 . S
C1165 H1217 0.929 . S
H1166 C1160 0.930 . S
H1167 C1163 0.930 . S
C1168 N1169 1.314 . S
C1168 C1170 1.353 . S
C1168 H1174 0.930 . S
N1169 Li1145 1.990 . S
N1169 C1168 1.314 . S
N1169 C1172 1.279 . S
C1170 C1168 1.353 . S
C1170 C1173 1.348 . S
C1170 H1218 0.929 . S
C1171 C1172 1.358 . S
C1171 C1173 1.356 . S
C1171 H1219 0.930 . S
C1172 N1169 1.279 . S
C1172 C1171 1.358 . S
C1172 H1175 0.930 . S
C1173 C1170 1.348 . S
C1173 C1171 1.356 . S
H1174 C1168 0.930 . S
H1175 C1172 0.930 . S
C1176 C1178 1.348 . S
C1176 C1179 1.356 . S
C1176 O1206 1.325 . S
N1177 C1180 1.314 . S
N1177 C1181 1.279 . S
C1178 C1176 1.348 . S
C1178 C1180 1.353 . S
C1178 H1220 0.929 . S
C1179 C1176 1.356 . S
C1179 C1181 1.358 . S
C1179 H1221 0.930 . S
C1180 N1177 1.314 . S
C1180 C1178 1.353 . S
C1180 H1222 0.930 . S
C1181 N1177 1.279 . S
C1181 C1179 1.358 . S
C1181 H1223 0.930 . S
C1182 C1183 1.348 . S
C1182 C1184 1.356 . S
C1182 O1207 1.325 . S
C1183 C1182 1.348 . S
C1183 C1185 1.353 . S
C1183 H1224 0.929 . S
C1184 C1182 1.356 . S
C1184 C1186 1.358 . S
C1184 H1225 0.930 . S
C1185 C1183 1.353 . S
C1185 N1187 1.314 . S
C1185 H1226 0.930 . S
C1186 C1184 1.358 . S
C1186 N1187 1.279 . S
C1186 H1227 0.930 . S
N1187 C1185 1.314 . S
N1187 C1186 1.279 . S
C1188 C1190 1.353 . S
C1188 N1191 1.314 . S
C1188 H1194 0.930 . S
C1189 N1191 1.279 . S
C1189 C1192 1.358 . S
C1189 H1195 0.930 . S
C1190 C1188 1.353 . S
C1190 C1193 1.348 . S
C1190 H1228 0.929 . S
N1191 Li1146 1.990 . S
N1191 C1188 1.314 . S
N1191 C1189 1.279 . S
C1192 C1189 1.358 . S
C1192 C1193 1.356 . S
C1192 H1229 0.930 . S
C1193 C1190 1.348 . S
C1193 C1192 1.356 . S
H1194 C1188 0.930 . S
H1195 C1189 0.930 . S
C1196 N1197 1.314 . S
C1196 C1198 1.353 . S
C1196 H1202 0.930 . S
N1197 Li1147 1.990 . S
N1197 C1196 1.314 . S
N1197 C1200 1.279 . S
C1198 C1196 1.353 . S
C1198 C1201 1.348 . S
C1198 H1230 0.929 . S
C1199 C1200 1.358 . S
C1199 C1201 1.356 . S
C1199 H1231 0.930 . S
C1200 N1197 1.279 . S
C1200 C1199 1.358 . S
C1200 H1203 0.930 . S
C1201 C1198 1.348 . S
C1201 C1199 1.356 . S
H1202 C1196 0.930 . S
H1203 C1200 0.930 . S
O1204 Li1144 1.956 . S
O1204 Li1145 1.970 . S
O1204 Li1146 1.961 . S
O1204 C1148 1.325 . S
O1205 Li1144 1.970 . S
O1205 Li1145 1.956 . S
O1205 Li1147 1.961 . S
O1205 C1154 1.325 . S
O1206 Li1144 1.961 . S
O1206 Li1146 1.956 . S
O1206 Li1147 1.970 . S
O1206 C1176 1.325 . S
O1207 Li1145 1.961 . S
O1207 Li1146 1.970 . S
O1207 Li1147 1.956 . S
O1207 C1182 1.325 . S
H1208 C1150 0.929 . S
H1209 C1151 0.930 . S
H1210 C1152 0.944 1_455 S
H1211 C1153 0.906 1_455 S
H1212 C1155 0.930 . S
H1213 C1157 0.929 . S
H1214 C1158 0.930 . S
H1215 C1159 0.930 . S
H1216 C1162 0.930 . S
H1217 C1165 0.929 . S
H1218 C1170 0.929 . S
H1219 C1171 0.930 . S
H1220 C1178 0.929 . S
H1221 C1179 0.930 . S
H1222 C1180 0.930 . S
H1223 C1181 0.930 . S
H1224 C1183 0.929 . S
H1225 C1184 0.930 . S
H1226 C1185 0.930 . S
H1227 C1186 0.930 . S
H1228 C1190 0.929 . S
H1229 C1192 0.930 . S
H1230 C1198 0.929 . S
H1231 C1199 0.930 . S
Li1232 N1249 1.990 . S
Li1232 O1292 1.956 . S
Li1232 O1293 1.970 . S
Li1232 O1294 1.961 . S
Li1233 N1257 1.990 . S
Li1233 O1292 1.970 . S
Li1233 O1293 1.956 . S
Li1233 O1295 1.961 . S
Li1234 N1279 1.990 . S
Li1234 O1292 1.961 . S
Li1234 O1294 1.956 . S
Li1234 O1295 1.970 . S
Li1235 N1285 1.990 . S
Li1235 O1293 1.961 . S
Li1235 O1294 1.970 . S
Li1235 O1295 1.956 . S
C1236 C1238 1.348 . S
C1236 C1239 1.356 . S
C1236 O1292 1.325 . S
N1237 C1240 1.314 . S
N1237 C1241 1.279 . S
C1238 C1236 1.348 . S
C1238 C1240 1.353 . S
C1238 H1296 0.929 . S
C1239 C1236 1.356 . S
C1239 C1241 1.358 . S
C1239 H1297 0.930 . S
C1240 N1237 1.314 . S
C1240 C1238 1.353 . S
C1240 H1298 0.930 . S
C1241 N1237 1.279 . S
C1241 C1239 1.358 . S
C1241 H1299 0.930 . S
C1242 C1245 1.348 . S
C1242 C1246 1.356 . S
C1242 O1293 1.325 . S
C1243 N1244 1.279 . S
C1243 C1246 1.358 . S
C1243 H1300 0.930 . S
N1244 C1243 1.279 . S
N1244 C1247 1.314 . S
C1245 C1242 1.348 . S
C1245 C1247 1.353 . S
C1245 H1301 0.929 . S
C1246 C1242 1.356 . S
C1246 C1243 1.358 . S
C1246 H1302 0.930 . S
C1247 N1244 1.314 . S
C1247 C1245 1.353 . S
C1247 H1303 0.930 . S
C1248 N1249 1.314 . S
C1248 C1253 1.353 . S
C1248 H1254 0.930 . S
N1249 Li1232 1.990 . S
N1249 C1248 1.314 . S
N1249 C1251 1.279 . S
C1250 C1251 1.358 . S
C1250 C1252 1.356 . S
C1250 H1304 0.930 . S
C1251 N1249 1.279 . S
C1251 C1250 1.358 . S
C1251 H1255 0.930 . S
C1252 C1250 1.356 . S
C1252 C1253 1.348 . S
C1253 C1248 1.353 . S
C1253 C1252 1.348 . S
C1253 H1305 0.929 . S
H1254 C1248 0.930 . S
H1255 C1251 0.930 . S
C1256 N1257 1.314 . S
C1256 C1258 1.353 . S
C1256 H1262 0.930 . S
N1257 Li1233 1.990 . S
N1257 C1256 1.314 . S
N1257 C1260 1.279 . S
C1258 C1256 1.353 . S
C1258 C1261 1.348 . S
C1258 H1306 0.929 . S
C1259 C1260 1.358 . S
C1259 C1261 1.356 . S
C1259 H1307 0.930 . S
C1260 N1257 1.279 . S
C1260 C1259 1.358 . S
C1260 H1263 0.930 . S
C1261 C1258 1.348 . S
C1261 C1259 1.356 . S
H1262 C1256 0.930 . S
H1263 C1260 0.930 . S
C1264 C1266 1.348 . S
C1264 C1267 1.356 . S
C1264 O1294 1.325 . S
N1265 C1268 1.314 . S
N1265 C1269 1.279 . S
C1266 C1264 1.348 . S
C1266 C1268 1.353 . S
C1266 H1308 0.929 . S
C1267 C1264 1.356 . S
C1267 C1269 1.358 . S
C1267 H1309 0.930 . S
C1268 N1265 1.314 . S
C1268 C1266 1.353 . S
C1268 H1310 0.930 . S
C1269 N1265 1.279 . S
C1269 C1267 1.358 . S
C1269 H1311 0.930 . S
C1270 C1271 1.348 . S
C1270 C1272 1.356 . S
C1270 O1295 1.325 . S
C1271 C1270 1.348 . S
C1271 C1273 1.353 . S
C1271 H1312 0.929 . S
C1272 C1270 1.356 . S
C1272 C1274 1.358 . S
C1272 H1313 0.930 . S
C1273 C1271 1.353 . S
C1273 N1275 1.314 . S
C1273 H1314 0.930 . S
C1274 C1272 1.358 . S
C1274 N1275 1.279 . S
C1274 H1315 0.930 . S
N1275 C1273 1.314 . S
N1275 C1274 1.279 . S
C1276 C1278 1.353 . S
C1276 N1279 1.314 . S
C1276 H1282 0.930 . S
C1277 N1279 1.279 . S
C1277 C1280 1.358 . S
C1277 H1283 0.930 . S
C1278 C1276 1.353 . S
C1278 C1281 1.348 . S
C1278 H1316 0.929 . S
N1279 Li1234 1.990 . S
N1279 C1276 1.314 . S
N1279 C1277 1.279 . S
C1280 C1277 1.358 . S
C1280 C1281 1.356 . S
C1280 H1317 0.930 . S
C1281 C1278 1.348 . S
C1281 C1280 1.356 . S
H1282 C1276 0.930 . S
H1283 C1277 0.930 . S
C1284 N1285 1.314 . S
C1284 C1286 1.353 . S
C1284 H1290 0.930 . S
N1285 Li1235 1.990 . S
N1285 C1284 1.314 . S
N1285 C1288 1.279 . S
C1286 C1284 1.353 . S
C1286 C1289 1.348 . S
C1286 H1318 0.929 . S
C1287 C1288 1.358 . S
C1287 C1289 1.356 . S
C1287 H1319 0.930 . S
C1288 N1285 1.279 . S
C1288 C1287 1.358 . S
C1288 H1291 0.930 . S
C1289 C1286 1.348 . S
C1289 C1287 1.356 . S
H1290 C1284 0.930 . S
H1291 C1288 0.930 . S
O1292 Li1232 1.956 . S
O1292 Li1233 1.970 . S
O1292 Li1234 1.961 . S
O1292 C1236 1.325 . S
O1293 Li1232 1.970 . S
O1293 Li1233 1.956 . S
O1293 Li1235 1.961 . S
O1293 C1242 1.325 . S
O1294 Li1232 1.961 . S
O1294 Li1234 1.956 . S
O1294 Li1235 1.970 . S
O1294 C1264 1.325 . S
O1295 Li1233 1.961 . S
O1295 Li1234 1.970 . S
O1295 Li1235 1.956 . S
O1295 C1270 1.325 . S
H1296 C1238 0.929 . S
H1297 C1239 0.930 . S
H1298 C1240 0.930 . S
H1299 C1241 0.930 . S
H1300 C1243 0.930 . S
H1301 C1245 0.929 . S
H1302 C1246 0.930 . S
H1303 C1247 0.930 . S
H1304 C1250 0.930 . S
H1305 C1253 0.929 . S
H1306 C1258 0.929 . S
H1307 C1259 0.930 . S
H1308 C1266 0.929 . S
H1309 C1267 0.930 . S
H1310 C1268 0.930 . S
H1311 C1269 0.930 . S
H1312 C1271 0.929 . S
H1313 C1272 0.930 . S
H1314 C1273 0.930 . S
H1315 C1274 0.930 . S
H1316 C1278 0.929 . S
H1317 C1280 0.930 . S
H1318 C1286 0.929 . S
H1319 C1287 0.930 . S
Li1320 N1337 1.990 . S
Li1320 O1380 1.956 . S
Li1320 O1381 1.970 . S
Li1320 O1382 1.961 . S
Li1321 N1345 1.990 . S
Li1321 O1380 1.970 . S
Li1321 O1381 1.956 . S
Li1321 O1383 1.961 . S
Li1322 N1367 1.990 . S
Li1322 O1380 1.961 . S
Li1322 O1382 1.956 . S
Li1322 O1383 1.970 . S
Li1323 N1373 1.990 . S
Li1323 O1381 1.961 . S
Li1323 O1382 1.970 . S
Li1323 O1383 1.956 . S
C1324 C1326 1.348 . S
C1324 C1327 1.356 . S
C1324 O1380 1.325 . S
N1325 C1328 1.314 . S
N1325 C1329 1.279 . S
C1326 C1324 1.348 . S
C1326 C1328 1.353 . S
C1326 H1384 0.929 . S
C1327 C1324 1.356 . S
C1327 C1329 1.358 . S
C1327 H1385 0.930 . S
C1328 N1325 1.314 . S
C1328 C1326 1.353 . S
C1328 H1386 0.930 . S
C1329 N1325 1.279 . S
C1329 C1327 1.358 . S
C1329 H1387 0.930 . S
C1330 C1333 1.348 . S
C1330 C1334 1.356 . S
C1330 O1381 1.325 . S
C1331 N1332 1.279 . S
C1331 C1334 1.358 . S
C1331 H1388 0.930 . S
N1332 C1331 1.279 . S
N1332 C1335 1.314 . S
C1333 C1330 1.348 . S
C1333 C1335 1.353 . S
C1333 H1389 0.929 . S
C1334 C1330 1.356 . S
C1334 C1331 1.358 . S
C1334 H1390 0.930 . S
C1335 N1332 1.314 . S
C1335 C1333 1.353 . S
C1335 H1391 0.930 . S
C1336 N1337 1.314 . S
C1336 C1341 1.353 . S
C1336 H1342 0.930 . S
N1337 Li1320 1.990 . S
N1337 C1336 1.314 . S
N1337 C1339 1.279 . S
C1338 C1339 1.358 . S
C1338 C1340 1.356 . S
C1338 H1392 0.930 . S
C1339 N1337 1.279 . S
C1339 C1338 1.358 . S
C1339 H1343 0.930 . S
C1340 C1338 1.356 . S
C1340 C1341 1.348 . S
C1341 C1336 1.353 . S
C1341 C1340 1.348 . S
C1341 H1393 0.929 . S
H1342 C1336 0.930 . S
H1343 C1339 0.930 . S
C1344 N1345 1.314 . S
C1344 C1346 1.353 . S
C1344 H1350 0.930 . S
N1345 Li1321 1.990 . S
N1345 C1344 1.314 . S
N1345 C1348 1.279 . S
C1346 C1344 1.353 . S
C1346 C1349 1.348 . S
C1346 H1394 0.929 . S
C1347 C1348 1.358 . S
C1347 C1349 1.356 . S
C1347 H1395 0.930 . S
C1348 N1345 1.279 . S
C1348 C1347 1.358 . S
C1348 H1351 0.930 . S
C1349 C1346 1.348 . S
C1349 C1347 1.356 . S
H1350 C1344 0.930 . S
H1351 C1348 0.930 . S
C1352 C1354 1.348 . S
C1352 C1355 1.356 . S
C1352 O1382 1.325 . S
N1353 C1356 1.314 . S
N1353 C1357 1.279 . S
C1354 C1352 1.348 . S
C1354 C1356 1.353 . S
C1354 H1396 0.929 . S
C1355 C1352 1.356 . S
C1355 C1357 1.358 . S
C1355 H1397 0.930 . S
C1356 N1353 1.314 . S
C1356 C1354 1.353 . S
C1356 H1398 0.930 . S
C1357 N1353 1.279 . S
C1357 C1355 1.358 . S
C1357 H1399 0.930 . S
C1358 C1359 1.348 . S
C1358 C1360 1.356 . S
C1358 O1383 1.325 . S
C1359 C1358 1.348 . S
C1359 C1361 1.353 . S
C1359 H1400 0.929 . S
C1360 C1358 1.356 . S
C1360 C1362 1.358 . S
C1360 H1401 0.930 . S
C1361 C1359 1.353 . S
C1361 N1363 1.314 . S
C1361 H1402 0.930 . S
C1362 C1360 1.358 . S
C1362 N1363 1.279 . S
C1362 H1403 0.930 . S
N1363 C1361 1.314 . S
N1363 C1362 1.279 . S
C1364 C1366 1.353 . S
C1364 N1367 1.314 . S
C1364 H1370 0.930 . S
C1365 N1367 1.279 . S
C1365 C1368 1.358 . S
C1365 H1371 0.930 . S
C1366 C1364 1.353 . S
C1366 C1369 1.348 . S
C1366 H1404 0.929 . S
N1367 Li1322 1.990 . S
N1367 C1364 1.314 . S
N1367 C1365 1.279 . S
C1368 C1365 1.358 . S
C1368 C1369 1.356 . S
C1368 H1405 0.930 . S
C1369 C1366 1.348 . S
C1369 C1368 1.356 . S
H1370 C1364 0.930 . S
H1371 C1365 0.930 . S
C1372 N1373 1.314 . S
C1372 C1374 1.353 . S
C1372 H1378 0.930 . S
N1373 Li1323 1.990 . S
N1373 C1372 1.314 . S
N1373 C1376 1.279 . S
C1374 C1372 1.353 . S
C1374 C1377 1.348 . S
C1374 H1406 0.929 . S
C1375 C1376 1.358 . S
C1375 C1377 1.356 . S
C1375 H1407 0.930 . S
C1376 N1373 1.279 . S
C1376 C1375 1.358 . S
C1376 H1379 0.930 . S
C1377 C1374 1.348 . S
C1377 C1375 1.356 . S
H1378 C1372 0.930 . S
H1379 C1376 0.930 . S
O1380 Li1320 1.956 . S
O1380 Li1321 1.970 . S
O1380 Li1322 1.961 . S
O1380 C1324 1.325 . S
O1381 Li1320 1.970 . S
O1381 Li1321 1.956 . S
O1381 Li1323 1.961 . S
O1381 C1330 1.325 . S
O1382 Li1320 1.961 . S
O1382 Li1322 1.956 . S
O1382 Li1323 1.970 . S
O1382 C1352 1.325 . S
O1383 Li1321 1.961 . S
O1383 Li1322 1.970 . S
O1383 Li1323 1.956 . S
O1383 C1358 1.325 . S
H1384 C1326 0.929 . S
H1385 C1327 0.930 . S
H1386 C1328 0.930 . S
H1387 C1329 0.930 . S
H1388 C1331 0.930 . S
H1389 C1333 0.929 . S
H1390 C1334 0.930 . S
H1391 C1335 0.930 . S
H1392 C1338 0.930 . S
H1393 C1341 0.929 . S
H1394 C1346 0.929 . S
H1395 C1347 0.930 . S
H1396 C1354 0.929 . S
H1397 C1355 0.930 . S
H1398 C1356 0.930 . S
H1399 C1357 0.930 . S
H1400 C1359 0.929 . S
H1401 C1360 0.930 . S
H1402 C1361 0.930 . S
H1403 C1362 0.930 . S
H1404 C1366 0.929 . S
H1405 C1368 0.930 . S
H1406 C1374 0.929 . S
H1407 C1375 0.930 . S
Li1408 N1425 1.990 . S
Li1408 O1468 1.956 . S
Li1408 O1469 1.970 . S
Li1408 O1470 1.961 . S
Li1409 N1433 1.990 . S
Li1409 O1468 1.970 . S
Li1409 O1469 1.956 . S
Li1409 O1471 1.961 . S
Li1410 N1455 1.990 . S
Li1410 O1468 1.961 . S
Li1410 O1470 1.956 . S
Li1410 O1471 1.970 . S
Li1411 N1461 1.990 . S
Li1411 O1469 1.961 . S
Li1411 O1470 1.970 . S
Li1411 O1471 1.956 . S
C1412 C1414 1.348 . S
C1412 C1415 1.356 . S
C1412 O1468 1.325 . S
N1413 C1416 1.314 . S
N1413 C1417 1.279 . S
C1414 C1412 1.348 . S
C1414 C1416 1.353 . S
C1414 H1472 0.929 . S
C1415 C1412 1.356 . S
C1415 C1417 1.358 . S
C1415 H1473 0.930 . S
C1416 N1413 1.314 . S
C1416 C1414 1.353 . S
C1416 H1474 0.930 . S
C1417 N1413 1.279 . S
C1417 C1415 1.358 . S
C1417 H1475 0.930 . S
C1418 C1421 1.348 . S
C1418 C1422 1.356 . S
C1418 O1469 1.325 . S
C1419 N1420 1.268 . S
C1419 C1422 1.358 . S
C1419 H1476 0.930 1_545 S
N1420 C1419 1.268 . S
N1420 C1423 1.357 . S
C1421 C1418 1.348 . S
C1421 C1423 1.353 . S
C1421 H1477 0.929 . S
C1422 C1418 1.356 . S
C1422 C1419 1.358 . S
C1422 H1478 0.930 . S
C1423 N1420 1.357 . S
C1423 C1421 1.353 . S
C1423 H1479 0.930 . S
C1424 N1425 1.314 . S
C1424 C1429 1.353 . S
C1424 H1430 0.930 . S
N1425 Li1408 1.990 . S
N1425 C1424 1.314 . S
N1425 C1427 1.279 . S
C1426 C1427 1.358 . S
C1426 C1428 1.356 . S
C1426 H1480 0.930 . S
C1427 N1425 1.279 . S
C1427 C1426 1.358 . S
C1427 H1431 0.930 . S
C1428 C1426 1.356 . S
C1428 C1429 1.348 . S
C1429 C1424 1.353 . S
C1429 C1428 1.348 . S
C1429 H1481 0.929 . S
H1430 C1424 0.930 . S
H1431 C1427 0.930 . S
C1432 N1433 1.314 . S
C1432 C1434 1.353 . S
C1432 H1438 0.930 . S
N1433 Li1409 1.990 . S
N1433 C1432 1.314 . S
N1433 C1436 1.279 . S
C1434 C1432 1.353 . S
C1434 C1437 1.348 . S
C1434 H1482 0.929 . S
C1435 C1436 1.358 . S
C1435 C1437 1.356 . S
C1435 H1483 0.930 . S
C1436 N1433 1.279 . S
C1436 C1435 1.358 . S
C1436 H1439 0.930 . S
C1437 C1434 1.348 . S
C1437 C1435 1.356 . S
H1438 C1432 0.930 . S
H1439 C1436 0.930 . S
C1440 C1442 1.348 . S
C1440 C1443 1.356 . S
C1440 O1470 1.325 . S
N1441 C1444 1.314 . S
N1441 C1445 1.279 . S
C1442 C1440 1.348 . S
C1442 C1444 1.353 . S
C1442 H1484 0.929 . S
C1443 C1440 1.356 . S
C1443 C1445 1.358 . S
C1443 H1485 0.930 . S
C1444 N1441 1.314 . S
C1444 C1442 1.353 . S
C1444 H1486 0.930 . S
C1445 N1441 1.279 . S
C1445 C1443 1.358 . S
C1445 H1487 0.930 . S
C1446 C1447 1.348 . S
C1446 C1448 1.356 . S
C1446 O1471 1.325 . S
C1447 C1446 1.348 . S
C1447 C1449 1.353 . S
C1447 H1488 0.929 . S
C1448 C1446 1.356 . S
C1448 C1450 1.358 . S
C1448 H1489 0.930 . S
C1449 C1447 1.353 . S
C1449 N1451 1.314 . S
C1449 H1490 0.930 . S
C1450 C1448 1.358 . S
C1450 N1451 1.279 . S
C1450 H1491 0.930 . S
N1451 C1449 1.314 . S
N1451 C1450 1.279 . S
C1452 C1454 1.353 . S
C1452 N1455 1.314 . S
C1452 H1458 0.930 . S
C1453 N1455 1.279 . S
C1453 C1456 1.358 . S
C1453 H1459 0.930 . S
C1454 C1452 1.353 . S
C1454 C1457 1.348 . S
C1454 H1492 0.929 . S
N1455 Li1410 1.990 . S
N1455 C1452 1.314 . S
N1455 C1453 1.279 . S
C1456 C1453 1.358 . S
C1456 C1457 1.356 . S
C1456 H1493 0.930 . S
C1457 C1454 1.348 . S
C1457 C1456 1.356 . S
H1458 C1452 0.930 . S
H1459 C1453 0.930 . S
C1460 N1461 1.314 1_565 S
C1460 C1462 1.353 . S
C1460 H1466 0.930 . S
N1461 Li1411 1.990 . S
N1461 C1460 1.314 1_545 S
N1461 C1464 1.279 . S
C1462 C1460 1.353 . S
C1462 C1465 1.348 . S
C1462 H1494 0.929 . S
C1463 C1464 1.358 1_565 S
C1463 C1465 1.356 . S
C1463 H1495 0.930 . S
C1464 N1461 1.279 . S
C1464 C1463 1.358 1_545 S
C1464 H1467 0.930 . S
C1465 C1462 1.348 . S
C1465 C1463 1.356 . S
H1466 C1460 0.930 . S
H1467 C1464 0.930 . S
O1468 Li1408 1.956 . S
O1468 Li1409 1.970 . S
O1468 Li1410 1.961 . S
O1468 C1412 1.325 . S
O1469 Li1408 1.970 . S
O1469 Li1409 1.956 . S
O1469 Li1411 1.961 . S
O1469 C1418 1.325 . S
O1470 Li1408 1.961 . S
O1470 Li1410 1.956 . S
O1470 Li1411 1.970 . S
O1470 C1440 1.325 . S
O1471 Li1409 1.961 . S
O1471 Li1410 1.970 . S
O1471 Li1411 1.956 . S
O1471 C1446 1.325 . S
H1472 C1414 0.929 . S
H1473 C1415 0.930 . S
H1474 C1416 0.930 . S
H1475 C1417 0.930 . S
H1476 C1419 0.930 1_565 S
H1477 C1421 0.929 . S
H1478 C1422 0.930 . S
H1479 C1423 0.930 . S
H1480 C1426 0.930 . S
H1481 C1429 0.929 . S
H1482 C1434 0.929 . S
H1483 C1435 0.930 . S
H1484 C1442 0.929 . S
H1485 C1443 0.930 . S
H1486 C1444 0.930 . S
H1487 C1445 0.930 . S
H1488 C1447 0.929 . S
H1489 C1448 0.930 . S
H1490 C1449 0.930 . S
H1491 C1450 0.930 . S
H1492 C1454 0.929 . S
H1493 C1456 0.930 . S
H1494 C1462 0.929 . S
H1495 C1463 0.930 . S
Li1496 N1513 1.990 . S
Li1496 O1556 1.956 . S
Li1496 O1557 1.970 . S
Li1496 O1558 1.961 . S
Li1497 N1521 1.990 . S
Li1497 O1556 1.970 . S
Li1497 O1557 1.956 . S
Li1497 O1559 1.961 . S
Li1498 N1543 1.990 . S
Li1498 O1556 1.961 . S
Li1498 O1558 1.956 . S
Li1498 O1559 1.970 . S
Li1499 N1549 1.990 . S
Li1499 O1557 1.961 . S
Li1499 O1558 1.970 . S
Li1499 O1559 1.956 . S
C1500 C1502 1.348 . S
C1500 C1503 1.356 . S
C1500 O1556 1.325 . S
N1501 C1504 1.314 . S
N1501 C1505 1.279 . S
C1502 C1500 1.348 . S
C1502 C1504 1.353 . S
C1502 H1560 0.929 . S
C1503 C1500 1.356 . S
C1503 C1505 1.358 . S
C1503 H1561 0.930 . S
C1504 N1501 1.314 . S
C1504 C1502 1.353 . S
C1504 H1562 0.930 . S
C1505 N1501 1.279 . S
C1505 C1503 1.358 . S
C1505 H1563 0.926 1_655 S
C1506 C1509 1.348 . S
C1506 C1510 1.356 . S
C1506 O1557 1.325 . S
C1507 N1508 1.279 . S
C1507 C1510 1.358 . S
C1507 H1564 0.930 . S
N1508 C1507 1.279 . S
N1508 C1511 1.314 . S
C1509 C1506 1.348 . S
C1509 C1511 1.353 . S
C1509 H1565 0.929 . S
C1510 C1506 1.356 . S
C1510 C1507 1.358 . S
C1510 H1566 0.930 . S
C1511 N1508 1.314 . S
C1511 C1509 1.353 . S
C1511 H1567 0.930 . S
C1512 N1513 1.314 . S
C1512 C1517 1.353 . S
C1512 H1518 0.930 . S
N1513 Li1496 1.990 . S
N1513 C1512 1.314 . S
N1513 C1515 1.279 . S
C1514 C1515 1.358 . S
C1514 C1516 1.356 . S
C1514 H1568 0.930 . S
C1515 N1513 1.279 . S
C1515 C1514 1.358 . S
C1515 H1519 0.930 . S
C1516 C1514 1.356 . S
C1516 C1517 1.348 . S
C1517 C1512 1.353 . S
C1517 C1516 1.348 . S
C1517 H1569 0.929 . S
H1518 C1512 0.930 . S
H1519 C1515 0.930 . S
C1520 N1521 1.314 . S
C1520 C1522 1.353 . S
C1520 H1526 0.930 . S
N1521 Li1497 1.990 . S
N1521 C1520 1.314 . S
N1521 C1524 1.279 . S
C1522 C1520 1.353 . S
C1522 C1525 1.348 . S
C1522 H1570 0.929 . S
C1523 C1524 1.358 . S
C1523 C1525 1.356 . S
C1523 H1571 0.930 . S
C1524 N1521 1.279 . S
C1524 C1523 1.358 . S
C1524 H1527 0.930 . S
C1525 C1522 1.348 . S
C1525 C1523 1.356 . S
H1526 C1520 0.930 . S
H1527 C1524 0.930 . S
C1528 C1530 1.348 . S
C1528 C1531 1.356 . S
C1528 O1558 1.325 . S
N1529 C1532 1.314 . S
N1529 C1533 1.279 . S
C1530 C1528 1.348 . S
C1530 C1532 1.353 . S
C1530 H1572 0.929 . S
C1531 C1528 1.356 . S
C1531 C1533 1.358 . S
C1531 H1573 0.930 . S
C1532 N1529 1.314 . S
C1532 C1530 1.353 . S
C1532 H1574 0.930 . S
C1533 N1529 1.279 . S
C1533 C1531 1.358 . S
C1533 H1575 0.930 . S
C1534 C1535 1.348 . S
C1534 C1536 1.356 . S
C1534 O1559 1.325 . S
C1535 C1534 1.348 . S
C1535 C1537 1.353 . S
C1535 H1576 0.929 . S
C1536 C1534 1.356 . S
C1536 C1538 1.358 . S
C1536 H1577 0.930 . S
C1537 C1535 1.353 . S
C1537 N1539 1.314 . S
C1537 H1578 0.930 . S
C1538 C1536 1.358 . S
C1538 N1539 1.279 . S
C1538 H1579 0.930 . S
N1539 C1537 1.314 . S
N1539 C1538 1.279 . S
C1540 C1542 1.307 1_655 S
C1540 N1543 1.380 . S
C1540 H1546 0.911 . S
C1541 N1543 1.279 . S
C1541 C1544 1.358 1_655 S
C1541 H1547 0.930 . S
C1542 C1540 1.307 1_455 S
C1542 C1545 1.348 . S
C1542 H1580 0.929 . S
N1543 Li1498 1.990 . S
N1543 C1540 1.380 . S
N1543 C1541 1.279 . S
C1544 C1541 1.358 1_455 S
C1544 C1545 1.356 . S
C1544 H1581 0.930 . S
C1545 C1542 1.348 . S
C1545 C1544 1.356 . S
H1546 C1540 0.911 . S
H1547 C1541 0.930 . S
C1548 N1549 1.314 . S
C1548 C1550 1.353 . S
C1548 H1554 0.930 . S
N1549 Li1499 1.990 . S
N1549 C1548 1.314 . S
N1549 C1552 1.279 . S
C1550 C1548 1.353 . S
C1550 C1553 1.348 . S
C1550 H1582 0.929 . S
C1551 C1552 1.358 . S
C1551 C1553 1.356 . S
C1551 H1583 0.930 . S
C1552 N1549 1.279 . S
C1552 C1551 1.358 . S
C1552 H1555 0.930 . S
C1553 C1550 1.348 . S
C1553 C1551 1.356 . S
H1554 C1548 0.930 . S
H1555 C1552 0.930 . S
O1556 Li1496 1.956 . S
O1556 Li1497 1.970 . S
O1556 Li1498 1.961 . S
O1556 C1500 1.325 . S
O1557 Li1496 1.970 . S
O1557 Li1497 1.956 . S
O1557 Li1499 1.961 . S
O1557 C1506 1.325 . S
O1558 Li1496 1.961 . S
O1558 Li1498 1.956 . S
O1558 Li1499 1.970 . S
O1558 C1528 1.325 . S
O1559 Li1497 1.961 . S
O1559 Li1498 1.970 . S
O1559 Li1499 1.956 . S
O1559 C1534 1.325 . S
H1560 C1502 0.929 . S
H1561 C1503 0.930 . S
H1562 C1504 0.930 . S
H1563 C1505 0.926 1_455 S
H1564 C1507 0.930 . S
H1565 C1509 0.929 . S
H1566 C1510 0.930 . S
H1567 C1511 0.930 . S
H1568 C1514 0.930 . S
H1569 C1517 0.929 . S
H1570 C1522 0.929 . S
H1571 C1523 0.930 . S
H1572 C1530 0.929 . S
H1573 C1531 0.930 . S
H1574 C1532 0.930 . S
H1575 C1533 0.930 . S
H1576 C1535 0.929 . S
H1577 C1536 0.930 . S
H1578 C1537 0.930 . S
H1579 C1538 0.930 . S
H1580 C1542 0.929 . S
H1581 C1544 0.930 . S
H1582 C1550 0.929 . S
H1583 C1551 0.930 . S
H1584 O1610 0.856 . S
H1585 O1613 0.854 . S
H1586 C1621 0.930 . S
H1587 C1622 0.930 . S
H1588 C1624 0.930 . S
H1589 C1625 0.930 . S
H1590 C1627 0.931 . S
H1591 C1628 0.930 . S
H1592 C1630 0.930 . S
H1593 C1631 0.929 . S
H1594 C1633 0.930 . S
H1595 C1634 0.931 . S
H1596 C1636 0.930 . S
H1597 C1637 0.929 . S
H1598 C1639 0.931 . S
H1599 C1640 0.930 . S
H1600 C1642 0.930 . S
H1601 C1643 0.932 . S
H1602 C1645 0.930 . S
H1603 C1646 0.929 . S
H1604 C1648 0.931 . S
H1605 C1649 0.930 . S
H1606 C1651 0.929 . S
H1607 C1652 0.931 . S
H1608 C1654 0.930 . S
H1609 C1655 0.929 . S
O1610 H1584 0.856 . S
O1610 C1656 1.300 . S
O1611 C1656 1.209 . S
O1612 C1657 1.199 . S
O1613 H1585 0.854 . S
O1613 C1657 1.297 . S
C1614 C1615 1.404 . S
C1614 C1619 1.397 . S
C1614 C1620 1.492 . S
C1615 C1614 1.404 . S
C1615 C1616 1.396 . S
C1615 C1626 1.492 . S
C1616 C1615 1.396 . S
C1616 C1617 1.397 . S
C1616 C1632 1.509 . S
C1617 C1616 1.397 . S
C1617 C1618 1.412 . S
C1617 C1638 1.485 . S
C1618 C1617 1.412 . S
C1618 C1619 1.388 . S
C1618 C1644 1.490 . S
C1619 C1614 1.397 . S
C1619 C1618 1.388 . S
C1619 C1650 1.519 . S
C1620 C1614 1.492 . S
C1620 C1621 1.363 . S
C1620 C1625 1.390 . S
C1621 H1586 0.930 . S
C1621 C1620 1.363 . S
C1621 C1622 1.372 . S
C1622 H1587 0.930 . S
C1622 C1621 1.372 . S
C1622 C1623 1.383 . S
C1623 C1622 1.383 . S
C1623 C1624 1.395 . S
C1624 H1588 0.930 . S
C1624 C1623 1.395 . S
C1624 C1625 1.362 . S
C1625 H1589 0.930 . S
C1625 C1620 1.390 . S
C1625 C1624 1.362 . S
C1626 C1615 1.492 . S
C1626 C1627 1.377 . S
C1626 C1631 1.397 . S
C1627 H1590 0.931 . S
C1627 C1626 1.377 . S
C1627 C1628 1.376 . S
C1628 H1591 0.930 . S
C1628 C1627 1.376 . S
C1628 C1629 1.376 . S
C1629 C1628 1.376 . S
C1629 C1630 1.378 . S
C1629 C1656 1.486 . S
C1630 H1592 0.930 . S
C1630 C1629 1.378 . S
C1630 C1631 1.376 . S
C1631 H1593 0.929 . S
C1631 C1626 1.397 . S
C1631 C1630 1.376 . S
C1632 C1616 1.509 . S
C1632 C1633 1.391 . S
C1632 C1637 1.386 . S
C1633 H1594 0.930 . S
C1633 C1632 1.391 . S
C1633 C1634 1.375 . S
C1634 H1595 0.931 . S
C1634 C1633 1.375 . S
C1634 C1635 1.375 . S
C1635 C1634 1.375 . S
C1635 C1636 1.361 . S
C1636 H1596 0.930 . S
C1636 C1635 1.361 . S
C1636 C1637 1.399 . S
C1637 H1597 0.929 . S
C1637 C1632 1.386 . S
C1637 C1636 1.399 . S
C1638 C1617 1.485 . S
C1638 C1639 1.394 . S
C1638 C1643 1.360 . S
C1639 H1598 0.931 . S
C1639 C1638 1.394 . S
C1639 C1640 1.372 . S
C1640 H1599 0.930 . S
C1640 C1639 1.372 . S
C1640 C1641 1.397 . S
C1641 C1640 1.397 . S
C1641 C1642 1.390 . S
C1641 C1657 1.476 . S
C1642 H1600 0.930 . S
C1642 C1641 1.390 . S
C1642 C1643 1.366 . S
C1643 H1601 0.932 . S
C1643 C1638 1.360 . S
C1643 C1642 1.366 . S
C1644 C1618 1.490 . S
C1644 C1645 1.380 . S
C1644 C1649 1.386 . S
C1645 H1602 0.930 . S
C1645 C1644 1.380 . S
C1645 C1646 1.381 . S
C1646 H1603 0.929 . S
C1646 C1645 1.381 . S
C1646 C1647 1.371 . S
C1647 C1646 1.371 . S
C1647 C1648 1.380 . S
C1648 H1604 0.931 . S
C1648 C1647 1.380 . S
C1648 C1649 1.387 . S
C1649 H1605 0.930 . S
C1649 C1644 1.386 . S
C1649 C1648 1.387 . S
C1650 C1619 1.519 . S
C1650 C1651 1.377 . S
C1650 C1655 1.361 . S
C1651 H1606 0.929 . S
C1651 C1650 1.377 . S
C1651 C1652 1.386 . S
C1652 H1607 0.931 . S
C1652 C1651 1.386 . S
C1652 C1653 1.363 . S
C1653 C1652 1.363 . S
C1653 C1654 1.385 . S
C1654 H1608 0.930 . S
C1654 C1653 1.385 . S
C1654 C1655 1.396 . S
C1655 H1609 0.929 . S
C1655 C1650 1.361 . S
C1655 C1654 1.396 . S
C1656 O1610 1.300 . S
C1656 O1611 1.209 . S
C1656 C1629 1.486 . S
C1657 O1612 1.199 . S
C1657 O1613 1.297 . S
C1657 C1641 1.476 . S
H1658 O1684 0.856 . S
H1659 O1687 0.854 . S
H1660 C1695 0.930 . S
H1661 C1696 0.930 . S
H1662 C1698 0.930 . S
H1663 C1699 0.930 . S
H1664 C1701 0.931 . S
H1665 C1702 0.930 . S
H1666 C1704 0.930 . S
H1667 C1705 0.929 . S
H1668 C1707 0.930 . S
H1669 C1708 0.931 . S
H1670 C1710 0.930 . S
H1671 C1711 0.929 . S
H1672 C1713 0.931 . S
H1673 C1714 0.930 . S
H1674 C1716 0.930 . S
H1675 C1717 0.932 . S
H1676 C1719 0.930 . S
H1677 C1720 0.929 . S
H1678 C1722 0.931 . S
H1679 C1723 0.930 . S
H1680 C1725 0.929 . S
H1681 C1726 0.931 . S
H1682 C1728 0.930 . S
H1683 C1729 0.929 . S
O1684 H1658 0.856 . S
O1684 C1730 1.300 . S
O1685 C1730 1.209 . S
O1686 C1731 1.199 . S
O1687 H1659 0.854 . S
O1687 C1731 1.297 . S
C1688 C1689 1.404 . S
C1688 C1693 1.397 . S
C1688 C1694 1.492 . S
C1689 C1688 1.404 . S
C1689 C1690 1.396 . S
C1689 C1700 1.492 . S
C1690 C1689 1.396 . S
C1690 C1691 1.397 . S
C1690 C1706 1.509 . S
C1691 C1690 1.397 . S
C1691 C1692 1.412 . S
C1691 C1712 1.485 . S
C1692 C1691 1.412 . S
C1692 C1693 1.388 . S
C1692 C1718 1.490 . S
C1693 C1688 1.397 . S
C1693 C1692 1.388 . S
C1693 C1724 1.519 . S
C1694 C1688 1.492 . S
C1694 C1695 1.363 . S
C1694 C1699 1.390 . S
C1695 H1660 0.930 . S
C1695 C1694 1.363 . S
C1695 C1696 1.372 . S
C1696 H1661 0.930 . S
C1696 C1695 1.372 . S
C1696 C1697 1.383 . S
C1697 C1696 1.383 . S
C1697 C1698 1.395 . S
C1698 H1662 0.930 . S
C1698 C1697 1.395 . S
C1698 C1699 1.362 . S
C1699 H1663 0.930 . S
C1699 C1694 1.390 . S
C1699 C1698 1.362 . S
C1700 C1689 1.492 . S
C1700 C1701 1.377 . S
C1700 C1705 1.397 . S
C1701 H1664 0.931 . S
C1701 C1700 1.377 . S
C1701 C1702 1.376 . S
C1702 H1665 0.930 . S
C1702 C1701 1.376 . S
C1702 C1703 1.376 . S
C1703 C1702 1.376 . S
C1703 C1704 1.378 . S
C1703 C1730 1.486 . S
C1704 H1666 0.930 . S
C1704 C1703 1.378 . S
C1704 C1705 1.376 . S
C1705 H1667 0.929 . S
C1705 C1700 1.397 . S
C1705 C1704 1.376 . S
C1706 C1690 1.509 . S
C1706 C1707 1.391 . S
C1706 C1711 1.386 . S
C1707 H1668 0.930 . S
C1707 C1706 1.391 . S
C1707 C1708 1.375 . S
C1708 H1669 0.931 . S
C1708 C1707 1.375 . S
C1708 C1709 1.375 . S
C1709 C1708 1.375 . S
C1709 C1710 1.361 . S
C1710 H1670 0.930 . S
C1710 C1709 1.361 . S
C1710 C1711 1.399 . S
C1711 H1671 0.929 . S
C1711 C1706 1.386 . S
C1711 C1710 1.399 . S
C1712 C1691 1.485 . S
C1712 C1713 1.394 . S
C1712 C1717 1.360 . S
C1713 H1672 0.931 . S
C1713 C1712 1.394 . S
C1713 C1714 1.372 . S
C1714 H1673 0.930 . S
C1714 C1713 1.372 . S
C1714 C1715 1.397 . S
C1715 C1714 1.397 . S
C1715 C1716 1.390 . S
C1715 C1731 1.476 . S
C1716 H1674 0.930 . S
C1716 C1715 1.390 . S
C1716 C1717 1.366 . S
C1717 H1675 0.932 . S
C1717 C1712 1.360 . S
C1717 C1716 1.366 . S
C1718 C1692 1.490 . S
C1718 C1719 1.380 . S
C1718 C1723 1.386 . S
C1719 H1676 0.930 . S
C1719 C1718 1.380 . S
C1719 C1720 1.381 . S
C1720 H1677 0.929 . S
C1720 C1719 1.381 . S
C1720 C1721 1.371 . S
C1721 C1720 1.371 . S
C1721 C1722 1.380 . S
C1722 H1678 0.931 . S
C1722 C1721 1.380 . S
C1722 C1723 1.387 . S
C1723 H1679 0.930 . S
C1723 C1718 1.386 . S
C1723 C1722 1.387 . S
C1724 C1693 1.519 . S
C1724 C1725 1.377 . S
C1724 C1729 1.361 . S
C1725 H1680 0.929 . S
C1725 C1724 1.377 . S
C1725 C1726 1.386 . S
C1726 H1681 0.931 . S
C1726 C1725 1.386 . S
C1726 C1727 1.363 . S
C1727 C1726 1.363 . S
C1727 C1728 1.385 . S
C1728 H1682 0.930 . S
C1728 C1727 1.385 . S
C1728 C1729 1.396 . S
C1729 H1683 0.929 . S
C1729 C1724 1.361 . S
C1729 C1728 1.396 . S
C1730 O1684 1.300 . S
C1730 O1685 1.209 . S
C1730 C1703 1.486 . S
C1731 O1686 1.199 . S
C1731 O1687 1.297 . S
C1731 C1715 1.476 . S
H1732 O1758 0.856 . S
H1733 O1761 0.854 . S
H1734 C1769 0.930 . S
H1735 C1770 0.930 . S
H1736 C1772 0.930 . S
H1737 C1773 0.930 . S
H1738 C1775 0.931 . S
H1739 C1776 0.930 . S
H1740 C1778 0.930 . S
H1741 C1779 0.929 . S
H1742 C1781 0.930 . S
H1743 C1782 0.931 . S
H1744 C1784 0.930 . S
H1745 C1785 0.929 . S
H1746 C1787 0.931 . S
H1747 C1788 0.930 . S
H1748 C1790 0.930 . S
H1749 C1791 0.932 . S
H1750 C1793 0.930 . S
H1751 C1794 0.929 . S
H1752 C1796 0.931 . S
H1753 C1797 0.930 . S
H1754 C1799 0.929 . S
H1755 C1800 0.931 . S
H1756 C1802 0.930 . S
H1757 C1803 0.929 . S
O1758 H1732 0.856 . S
O1758 C1804 1.300 . S
O1759 C1804 1.209 . S
O1760 C1805 1.199 . S
O1761 H1733 0.854 . S
O1761 C1805 1.297 . S
C1762 C1763 1.404 . S
C1762 C1767 1.397 . S
C1762 C1768 1.492 . S
C1763 C1762 1.404 . S
C1763 C1764 1.396 . S
C1763 C1774 1.492 . S
C1764 C1763 1.396 . S
C1764 C1765 1.397 . S
C1764 C1780 1.509 . S
C1765 C1764 1.397 . S
C1765 C1766 1.412 . S
C1765 C1786 1.485 . S
C1766 C1765 1.412 . S
C1766 C1767 1.388 . S
C1766 C1792 1.490 . S
C1767 C1762 1.397 . S
C1767 C1766 1.388 . S
C1767 C1798 1.519 . S
C1768 C1762 1.492 . S
C1768 C1769 1.363 . S
C1768 C1773 1.390 . S
C1769 H1734 0.930 . S
C1769 C1768 1.363 . S
C1769 C1770 1.372 . S
C1770 H1735 0.930 . S
C1770 C1769 1.372 . S
C1770 C1771 1.383 . S
C1771 C1770 1.383 . S
C1771 C1772 1.395 . S
C1772 H1736 0.930 . S
C1772 C1771 1.395 . S
C1772 C1773 1.362 . S
C1773 H1737 0.930 . S
C1773 C1768 1.390 . S
C1773 C1772 1.362 . S
C1774 C1763 1.492 . S
C1774 C1775 1.377 . S
C1774 C1779 1.397 . S
C1775 H1738 0.931 . S
C1775 C1774 1.377 . S
C1775 C1776 1.376 . S
C1776 H1739 0.930 . S
C1776 C1775 1.376 . S
C1776 C1777 1.376 . S
C1777 C1776 1.376 . S
C1777 C1778 1.378 . S
C1777 C1804 1.486 . S
C1778 H1740 0.930 . S
C1778 C1777 1.378 . S
C1778 C1779 1.376 . S
C1779 H1741 0.929 . S
C1779 C1774 1.397 . S
C1779 C1778 1.376 . S
C1780 C1764 1.509 . S
C1780 C1781 1.391 . S
C1780 C1785 1.386 . S
C1781 H1742 0.930 . S
C1781 C1780 1.391 . S
C1781 C1782 1.375 . S
C1782 H1743 0.931 . S
C1782 C1781 1.375 . S
C1782 C1783 1.375 . S
C1783 C1782 1.375 . S
C1783 C1784 1.361 . S
C1784 H1744 0.930 . S
C1784 C1783 1.361 . S
C1784 C1785 1.399 . S
C1785 H1745 0.929 . S
C1785 C1780 1.386 . S
C1785 C1784 1.399 . S
C1786 C1765 1.485 . S
C1786 C1787 1.394 . S
C1786 C1791 1.360 . S
C1787 H1746 0.931 . S
C1787 C1786 1.394 . S
C1787 C1788 1.372 . S
C1788 H1747 0.930 . S
C1788 C1787 1.372 . S
C1788 C1789 1.397 . S
C1789 C1788 1.397 . S
C1789 C1790 1.390 . S
C1789 C1805 1.476 . S
C1790 H1748 0.930 . S
C1790 C1789 1.390 . S
C1790 C1791 1.366 . S
C1791 H1749 0.932 . S
C1791 C1786 1.360 . S
C1791 C1790 1.366 . S
C1792 C1766 1.490 . S
C1792 C1793 1.380 . S
C1792 C1797 1.386 . S
C1793 H1750 0.930 . S
C1793 C1792 1.380 . S
C1793 C1794 1.381 . S
C1794 H1751 0.929 . S
C1794 C1793 1.381 . S
C1794 C1795 1.371 . S
C1795 C1794 1.371 . S
C1795 C1796 1.380 . S
C1796 H1752 0.931 . S
C1796 C1795 1.380 . S
C1796 C1797 1.387 . S
C1797 H1753 0.930 . S
C1797 C1792 1.386 . S
C1797 C1796 1.387 . S
C1798 C1767 1.519 . S
C1798 C1799 1.377 . S
C1798 C1803 1.361 . S
C1799 H1754 0.929 . S
C1799 C1798 1.377 . S
C1799 C1800 1.386 . S
C1800 H1755 0.931 . S
C1800 C1799 1.386 . S
C1800 C1801 1.363 . S
C1801 C1800 1.363 . S
C1801 C1802 1.385 . S
C1802 H1756 0.930 . S
C1802 C1801 1.385 . S
C1802 C1803 1.396 . S
C1803 H1757 0.929 . S
C1803 C1798 1.361 . S
C1803 C1802 1.396 . S
C1804 O1758 1.300 . S
C1804 O1759 1.209 . S
C1804 C1777 1.486 . S
C1805 O1760 1.199 . S
C1805 O1761 1.297 . S
C1805 C1789 1.476 . S
H1806 O1832 0.856 . S
H1807 O1835 0.854 . S
H1808 C1843 0.930 . S
H1809 C1844 0.930 . S
H1810 C1846 0.930 . S
H1811 C1847 0.930 . S
H1812 C1849 0.931 . S
H1813 C1850 0.930 . S
H1814 C1852 0.930 . S
H1815 C1853 0.929 . S
H1816 C1855 0.930 . S
H1817 C1856 0.931 . S
H1818 C1858 0.930 . S
H1819 C1859 0.929 . S
H1820 C1861 0.931 . S
H1821 C1862 0.930 . S
H1822 C1864 0.930 . S
H1823 C1865 0.932 . S
H1824 C1867 0.930 . S
H1825 C1868 0.929 . S
H1826 C1870 0.931 . S
H1827 C1871 0.930 . S
H1828 C1873 0.929 . S
H1829 C1874 0.931 . S
H1830 C1876 0.930 . S
H1831 C1877 0.929 . S
O1832 H1806 0.856 . S
O1832 C1878 1.300 . S
O1833 C1878 1.209 . S
O1834 C1879 1.199 . S
O1835 H1807 0.854 . S
O1835 C1879 1.297 . S
C1836 C1837 1.404 . S
C1836 C1841 1.397 . S
C1836 C1842 1.492 . S
C1837 C1836 1.404 . S
C1837 C1838 1.396 . S
C1837 C1848 1.492 . S
C1838 C1837 1.396 . S
C1838 C1839 1.397 . S
C1838 C1854 1.509 . S
C1839 C1838 1.397 . S
C1839 C1840 1.412 . S
C1839 C1860 1.485 . S
C1840 C1839 1.412 . S
C1840 C1841 1.388 . S
C1840 C1866 1.490 . S
C1841 C1836 1.397 . S
C1841 C1840 1.388 . S
C1841 C1872 1.519 . S
C1842 C1836 1.492 . S
C1842 C1843 1.363 . S
C1842 C1847 1.390 . S
C1843 H1808 0.930 . S
C1843 C1842 1.363 . S
C1843 C1844 1.372 . S
C1844 H1809 0.930 . S
C1844 C1843 1.372 . S
C1844 C1845 1.383 . S
C1845 C1844 1.383 . S
C1845 C1846 1.395 . S
C1846 H1810 0.930 . S
C1846 C1845 1.395 . S
C1846 C1847 1.362 . S
C1847 H1811 0.930 . S
C1847 C1842 1.390 . S
C1847 C1846 1.362 . S
C1848 C1837 1.492 . S
C1848 C1849 1.377 . S
C1848 C1853 1.397 . S
C1849 H1812 0.931 . S
C1849 C1848 1.377 . S
C1849 C1850 1.376 . S
C1850 H1813 0.930 . S
C1850 C1849 1.376 . S
C1850 C1851 1.376 . S
C1851 C1850 1.376 . S
C1851 C1852 1.378 . S
C1851 C1878 1.486 . S
C1852 H1814 0.930 . S
C1852 C1851 1.378 . S
C1852 C1853 1.376 . S
C1853 H1815 0.929 . S
C1853 C1848 1.397 . S
C1853 C1852 1.376 . S
C1854 C1838 1.509 . S
C1854 C1855 1.391 . S
C1854 C1859 1.386 . S
C1855 H1816 0.930 . S
C1855 C1854 1.391 . S
C1855 C1856 1.375 . S
C1856 H1817 0.931 . S
C1856 C1855 1.375 . S
C1856 C1857 1.375 . S
C1857 C1856 1.375 . S
C1857 C1858 1.361 . S
C1858 H1818 0.930 . S
C1858 C1857 1.361 . S
C1858 C1859 1.399 . S
C1859 H1819 0.929 . S
C1859 C1854 1.386 . S
C1859 C1858 1.399 . S
C1860 C1839 1.485 . S
C1860 C1861 1.394 . S
C1860 C1865 1.360 . S
C1861 H1820 0.931 . S
C1861 C1860 1.394 . S
C1861 C1862 1.372 . S
C1862 H1821 0.930 . S
C1862 C1861 1.372 . S
C1862 C1863 1.397 . S
C1863 C1862 1.397 . S
C1863 C1864 1.390 . S
C1863 C1879 1.476 . S
C1864 H1822 0.930 . S
C1864 C1863 1.390 . S
C1864 C1865 1.366 . S
C1865 H1823 0.932 . S
C1865 C1860 1.360 . S
C1865 C1864 1.366 . S
C1866 C1840 1.490 . S
C1866 C1867 1.380 . S
C1866 C1871 1.386 . S
C1867 H1824 0.930 . S
C1867 C1866 1.380 . S
C1867 C1868 1.381 . S
C1868 H1825 0.929 . S
C1868 C1867 1.381 . S
C1868 C1869 1.371 . S
C1869 C1868 1.371 . S
C1869 C1870 1.380 . S
C1870 H1826 0.931 . S
C1870 C1869 1.380 . S
C1870 C1871 1.387 . S
C1871 H1827 0.930 . S
C1871 C1866 1.386 . S
C1871 C1870 1.387 . S
C1872 C1841 1.519 . S
C1872 C1873 1.377 . S
C1872 C1877 1.361 . S
C1873 H1828 0.929 . S
C1873 C1872 1.377 . S
C1873 C1874 1.386 . S
C1874 H1829 0.931 . S
C1874 C1873 1.386 . S
C1874 C1875 1.363 . S
C1875 C1874 1.363 . S
C1875 C1876 1.385 . S
C1876 H1830 0.930 . S
C1876 C1875 1.385 . S
C1876 C1877 1.396 . S
C1877 H1831 0.929 . S
C1877 C1872 1.361 . S
C1877 C1876 1.396 . S
C1878 O1832 1.300 . S
C1878 O1833 1.209 . S
C1878 C1851 1.486 . S
C1879 O1834 1.199 . S
C1879 O1835 1.297 . S
C1879 C1863 1.476 . S
H1880 O1906 0.856 . S
H1881 O1909 0.854 . S
H1882 C1917 0.930 . S
H1883 C1918 0.930 . S
H1884 C1920 0.930 . S
H1885 C1921 0.930 . S
H1886 C1923 0.931 . S
H1887 C1924 0.930 . S
H1888 C1926 0.930 . S
H1889 C1927 0.929 . S
H1890 C1929 0.930 . S
H1891 C1930 0.931 . S
H1892 C1932 0.930 . S
H1893 C1933 0.929 . S
H1894 C1935 0.931 . S
H1895 C1936 0.930 . S
H1896 C1938 0.930 . S
H1897 C1939 0.932 . S
H1898 C1941 0.930 . S
H1899 C1942 0.929 . S
H1900 C1944 0.931 . S
H1901 C1945 0.930 . S
H1902 C1947 0.929 . S
H1903 C1948 0.931 . S
H1904 C1950 0.930 . S
H1905 C1951 0.929 . S
O1906 H1880 0.856 . S
O1906 C1952 1.300 . S
O1907 C1952 1.209 . S
O1908 C1953 1.199 . S
O1909 H1881 0.854 . S
O1909 C1953 1.297 . S
C1910 C1911 1.404 . S
C1910 C1915 1.397 . S
C1910 C1916 1.492 . S
C1911 C1910 1.404 . S
C1911 C1912 1.396 . S
C1911 C1922 1.492 . S
C1912 C1911 1.396 . S
C1912 C1913 1.397 . S
C1912 C1928 1.509 . S
C1913 C1912 1.397 . S
C1913 C1914 1.412 . S
C1913 C1934 1.485 . S
C1914 C1913 1.412 . S
C1914 C1915 1.388 . S
C1914 C1940 1.490 . S
C1915 C1910 1.397 . S
C1915 C1914 1.388 . S
C1915 C1946 1.519 . S
C1916 C1910 1.492 . S
C1916 C1917 1.363 . S
C1916 C1921 1.390 . S
C1917 H1882 0.930 . S
C1917 C1916 1.363 . S
C1917 C1918 1.372 . S
C1918 H1883 0.930 . S
C1918 C1917 1.372 . S
C1918 C1919 1.383 . S
C1919 C1918 1.383 . S
C1919 C1920 1.395 . S
C1920 H1884 0.930 . S
C1920 C1919 1.395 . S
C1920 C1921 1.362 . S
C1921 H1885 0.930 . S
C1921 C1916 1.390 . S
C1921 C1920 1.362 . S
C1922 C1911 1.492 . S
C1922 C1923 1.377 . S
C1922 C1927 1.397 . S
C1923 H1886 0.931 . S
C1923 C1922 1.377 . S
C1923 C1924 1.376 . S
C1924 H1887 0.930 . S
C1924 C1923 1.376 . S
C1924 C1925 1.376 . S
C1925 C1924 1.376 . S
C1925 C1926 1.378 . S
C1925 C1952 1.486 . S
C1926 H1888 0.930 . S
C1926 C1925 1.378 . S
C1926 C1927 1.376 . S
C1927 H1889 0.929 . S
C1927 C1922 1.397 . S
C1927 C1926 1.376 . S
C1928 C1912 1.509 . S
C1928 C1929 1.391 . S
C1928 C1933 1.386 . S
C1929 H1890 0.930 . S
C1929 C1928 1.391 . S
C1929 C1930 1.375 . S
C1930 H1891 0.931 . S
C1930 C1929 1.375 . S
C1930 C1931 1.375 . S
C1931 C1930 1.375 . S
C1931 C1932 1.361 . S
C1932 H1892 0.930 . S
C1932 C1931 1.361 . S
C1932 C1933 1.399 . S
C1933 H1893 0.929 . S
C1933 C1928 1.386 . S
C1933 C1932 1.399 . S
C1934 C1913 1.485 . S
C1934 C1935 1.394 . S
C1934 C1939 1.360 . S
C1935 H1894 0.931 . S
C1935 C1934 1.394 . S
C1935 C1936 1.372 . S
C1936 H1895 0.930 . S
C1936 C1935 1.372 . S
C1936 C1937 1.397 . S
C1937 C1936 1.397 . S
C1937 C1938 1.390 . S
C1937 C1953 1.476 . S
C1938 H1896 0.930 . S
C1938 C1937 1.390 . S
C1938 C1939 1.366 . S
C1939 H1897 0.932 . S
C1939 C1934 1.360 . S
C1939 C1938 1.366 . S
C1940 C1914 1.490 . S
C1940 C1941 1.380 . S
C1940 C1945 1.386 . S
C1941 H1898 0.930 . S
C1941 C1940 1.380 . S
C1941 C1942 1.381 . S
C1942 H1899 0.929 . S
C1942 C1941 1.381 . S
C1942 C1943 1.371 . S
C1943 C1942 1.371 . S
C1943 C1944 1.380 . S
C1944 H1900 0.931 . S
C1944 C1943 1.380 . S
C1944 C1945 1.387 . S
C1945 H1901 0.930 . S
C1945 C1940 1.386 . S
C1945 C1944 1.387 . S
C1946 C1915 1.519 . S
C1946 C1947 1.377 . S
C1946 C1951 1.361 . S
C1947 H1902 0.929 . S
C1947 C1946 1.377 . S
C1947 C1948 1.386 . S
C1948 H1903 0.931 . S
C1948 C1947 1.386 . S
C1948 C1949 1.363 . S
C1949 C1948 1.363 . S
C1949 C1950 1.385 . S
C1950 H1904 0.930 . S
C1950 C1949 1.385 . S
C1950 C1951 1.396 . S
C1951 H1905 0.929 . S
C1951 C1946 1.361 . S
C1951 C1950 1.396 . S
C1952 O1906 1.300 . S
C1952 O1907 1.209 . S
C1952 C1925 1.486 . S
C1953 O1908 1.199 . S
C1953 O1909 1.297 . S
C1953 C1937 1.476 . S
H1954 O1980 0.856 1_554 S
H1955 O1983 0.854 . S
H1956 C1991 0.930 . S
H1957 C1992 0.930 . S
H1958 C1994 0.930 . S
H1959 C1995 0.930 . S
H1960 C1997 0.931 . S
H1961 C1998 0.930 . S
H1962 C2000 0.930 . S
H1963 C2001 0.929 . S
H1964 C2003 0.930 . S
H1965 C2004 0.931 . S
H1966 C2006 0.930 . S
H1967 C2007 0.929 . S
H1968 C2009 0.931 . S
H1969 C2010 0.930 . S
H1970 C2012 0.930 . S
H1971 C2013 0.932 . S
H1972 C2015 0.930 . S
H1973 C2016 0.929 . S
H1974 C2018 0.931 . S
H1975 C2019 0.930 . S
H1976 C2021 0.929 . S
H1977 C2022 0.931 . S
H1978 C2024 0.930 . S
H1979 C2025 0.929 . S
O1980 H1954 0.856 1_556 S
O1980 C2026 1.300 . S
O1981 C2026 1.209 . S
O1982 C2027 1.199 . S
O1983 H1955 0.854 . S
O1983 C2027 1.297 . S
C1984 C1985 1.404 . S
C1984 C1989 1.397 . S
C1984 C1990 1.492 . S
C1985 C1984 1.404 . S
C1985 C1986 1.396 . S
C1985 C1996 1.492 . S
C1986 C1985 1.396 . S
C1986 C1987 1.397 . S
C1986 C2002 1.509 . S
C1987 C1986 1.397 . S
C1987 C1988 1.412 . S
C1987 C2008 1.485 . S
C1988 C1987 1.412 . S
C1988 C1989 1.388 . S
C1988 C2014 1.490 . S
C1989 C1984 1.397 . S
C1989 C1988 1.388 . S
C1989 C2020 1.519 . S
C1990 C1984 1.492 . S
C1990 C1991 1.363 . S
C1990 C1995 1.390 . S
C1991 H1956 0.930 . S
C1991 C1990 1.363 . S
C1991 C1992 1.372 . S
C1992 H1957 0.930 . S
C1992 C1991 1.372 . S
C1992 C1993 1.383 . S
C1993 C1992 1.383 . S
C1993 C1994 1.395 . S
C1994 H1958 0.930 . S
C1994 C1993 1.395 . S
C1994 C1995 1.362 . S
C1995 H1959 0.930 . S
C1995 C1990 1.390 . S
C1995 C1994 1.362 . S
C1996 C1985 1.492 . S
C1996 C1997 1.377 . S
C1996 C2001 1.397 . S
C1997 H1960 0.931 . S
C1997 C1996 1.377 . S
C1997 C1998 1.376 . S
C1998 H1961 0.930 . S
C1998 C1997 1.376 . S
C1998 C1999 1.376 . S
C1999 C1998 1.376 . S
C1999 C2000 1.378 . S
C1999 C2026 1.486 . S
C2000 H1962 0.930 . S
C2000 C1999 1.378 . S
C2000 C2001 1.376 . S
C2001 H1963 0.929 . S
C2001 C1996 1.397 . S
C2001 C2000 1.376 . S
C2002 C1986 1.509 . S
C2002 C2003 1.391 . S
C2002 C2007 1.386 . S
C2003 H1964 0.930 . S
C2003 C2002 1.391 . S
C2003 C2004 1.375 . S
C2004 H1965 0.931 . S
C2004 C2003 1.375 . S
C2004 C2005 1.375 . S
C2005 C2004 1.375 . S
C2005 C2006 1.361 . S
C2006 H1966 0.930 . S
C2006 C2005 1.361 . S
C2006 C2007 1.399 . S
C2007 H1967 0.929 . S
C2007 C2002 1.386 . S
C2007 C2006 1.399 . S
C2008 C1987 1.485 . S
C2008 C2009 1.394 . S
C2008 C2013 1.360 . S
C2009 H1968 0.931 . S
C2009 C2008 1.394 . S
C2009 C2010 1.372 . S
C2010 H1969 0.930 . S
C2010 C2009 1.372 . S
C2010 C2011 1.397 . S
C2011 C2010 1.397 . S
C2011 C2012 1.390 . S
C2011 C2027 1.476 . S
C2012 H1970 0.930 . S
C2012 C2011 1.390 . S
C2012 C2013 1.366 . S
C2013 H1971 0.932 . S
C2013 C2008 1.360 . S
C2013 C2012 1.366 . S
C2014 C1988 1.490 . S
C2014 C2015 1.380 . S
C2014 C2019 1.386 . S
C2015 H1972 0.930 . S
C2015 C2014 1.380 . S
C2015 C2016 1.381 . S
C2016 H1973 0.929 . S
C2016 C2015 1.381 . S
C2016 C2017 1.371 . S
C2017 C2016 1.371 . S
C2017 C2018 1.380 . S
C2018 H1974 0.931 . S
C2018 C2017 1.380 . S
C2018 C2019 1.387 . S
C2019 H1975 0.930 . S
C2019 C2014 1.386 . S
C2019 C2018 1.387 . S
C2020 C1989 1.519 . S
C2020 C2021 1.377 . S
C2020 C2025 1.361 . S
C2021 H1976 0.929 . S
C2021 C2020 1.377 . S
C2021 C2022 1.386 . S
C2022 H1977 0.931 . S
C2022 C2021 1.386 . S
C2022 C2023 1.363 . S
C2023 C2022 1.363 . S
C2023 C2024 1.385 . S
C2024 H1978 0.930 . S
C2024 C2023 1.385 . S
C2024 C2025 1.396 . S
C2025 H1979 0.929 . S
C2025 C2020 1.361 . S
C2025 C2024 1.396 . S
C2026 O1980 1.300 . S
C2026 O1981 1.209 . S
C2026 C1999 1.486 . S
C2027 O1982 1.199 . S
C2027 O1983 1.297 . S
C2027 C2011 1.476 . S
H2028 O2054 0.856 . S
H2029 O2057 0.854 . S
H2030 C2065 0.930 . S
H2031 C2066 0.930 . S
H2032 C2068 0.930 . S
H2033 C2069 0.930 . S
H2034 C2071 0.931 . S
H2035 C2072 0.930 . S
H2036 C2074 0.930 . S
H2037 C2075 0.929 . S
H2038 C2077 0.930 . S
H2039 C2078 0.931 . S
H2040 C2080 0.930 . S
H2041 C2081 0.929 . S
H2042 C2083 0.931 . S
H2043 C2084 0.930 . S
H2044 C2086 0.930 . S
H2045 C2087 0.932 . S
H2046 C2089 0.930 . S
H2047 C2090 0.929 . S
H2048 C2092 0.931 . S
H2049 C2093 0.930 . S
H2050 C2095 0.929 . S
H2051 C2096 0.931 . S
H2052 C2098 0.930 . S
H2053 C2099 0.929 . S
O2054 H2028 0.856 . S
O2054 C2100 1.300 . S
O2055 C2100 1.209 . S
O2056 C2101 1.199 . S
O2057 H2029 0.854 . S
O2057 C2101 1.297 . S
C2058 C2059 1.404 . S
C2058 C2063 1.397 . S
C2058 C2064 1.492 . S
C2059 C2058 1.404 . S
C2059 C2060 1.396 . S
C2059 C2070 1.492 . S
C2060 C2059 1.396 . S
C2060 C2061 1.397 . S
C2060 C2076 1.509 . S
C2061 C2060 1.397 . S
C2061 C2062 1.412 . S
C2061 C2082 1.485 . S
C2062 C2061 1.412 . S
C2062 C2063 1.388 . S
C2062 C2088 1.490 . S
C2063 C2058 1.397 . S
C2063 C2062 1.388 . S
C2063 C2094 1.519 . S
C2064 C2058 1.492 . S
C2064 C2065 1.363 . S
C2064 C2069 1.390 . S
C2065 H2030 0.930 . S
C2065 C2064 1.363 . S
C2065 C2066 1.372 . S
C2066 H2031 0.930 . S
C2066 C2065 1.372 . S
C2066 C2067 1.383 . S
C2067 C2066 1.383 . S
C2067 C2068 1.395 . S
C2068 H2032 0.930 . S
C2068 C2067 1.395 . S
C2068 C2069 1.362 . S
C2069 H2033 0.930 . S
C2069 C2064 1.390 . S
C2069 C2068 1.362 . S
C2070 C2059 1.492 . S
C2070 C2071 1.377 . S
C2070 C2075 1.397 . S
C2071 H2034 0.931 . S
C2071 C2070 1.377 . S
C2071 C2072 1.376 . S
C2072 H2035 0.930 . S
C2072 C2071 1.376 . S
C2072 C2073 1.376 . S
C2073 C2072 1.376 . S
C2073 C2074 1.378 . S
C2073 C2100 1.486 . S
C2074 H2036 0.930 . S
C2074 C2073 1.378 . S
C2074 C2075 1.376 . S
C2075 H2037 0.929 . S
C2075 C2070 1.397 . S
C2075 C2074 1.376 . S
C2076 C2060 1.509 . S
C2076 C2077 1.391 . S
C2076 C2081 1.386 . S
C2077 H2038 0.930 . S
C2077 C2076 1.391 . S
C2077 C2078 1.375 . S
C2078 H2039 0.931 . S
C2078 C2077 1.375 . S
C2078 C2079 1.375 . S
C2079 C2078 1.375 . S
C2079 C2080 1.361 . S
C2080 H2040 0.930 . S
C2080 C2079 1.361 . S
C2080 C2081 1.399 . S
C2081 H2041 0.929 . S
C2081 C2076 1.386 . S
C2081 C2080 1.399 . S
C2082 C2061 1.485 . S
C2082 C2083 1.394 . S
C2082 C2087 1.360 . S
C2083 H2042 0.931 . S
C2083 C2082 1.394 . S
C2083 C2084 1.372 . S
C2084 H2043 0.930 . S
C2084 C2083 1.372 . S
C2084 C2085 1.397 . S
C2085 C2084 1.397 . S
C2085 C2086 1.390 . S
C2085 C2101 1.476 . S
C2086 H2044 0.930 . S
C2086 C2085 1.390 . S
C2086 C2087 1.366 . S
C2087 H2045 0.932 . S
C2087 C2082 1.360 . S
C2087 C2086 1.366 . S
C2088 C2062 1.490 . S
C2088 C2089 1.380 . S
C2088 C2093 1.386 . S
C2089 H2046 0.930 . S
C2089 C2088 1.380 . S
C2089 C2090 1.381 . S
C2090 H2047 0.929 . S
C2090 C2089 1.381 . S
C2090 C2091 1.371 . S
C2091 C2090 1.371 . S
C2091 C2092 1.380 . S
C2092 H2048 0.931 . S
C2092 C2091 1.380 . S
C2092 C2093 1.387 . S
C2093 H2049 0.930 . S
C2093 C2088 1.386 . S
C2093 C2092 1.387 . S
C2094 C2063 1.519 . S
C2094 C2095 1.377 . S
C2094 C2099 1.361 . S
C2095 H2050 0.929 . S
C2095 C2094 1.377 . S
C2095 C2096 1.386 . S
C2096 H2051 0.931 . S
C2096 C2095 1.386 . S
C2096 C2097 1.363 . S
C2097 C2096 1.363 . S
C2097 C2098 1.385 . S
C2098 H2052 0.930 . S
C2098 C2097 1.385 . S
C2098 C2099 1.396 . S
C2099 H2053 0.929 . S
C2099 C2094 1.361 . S
C2099 C2098 1.396 . S
C2100 O2054 1.300 . S
C2100 O2055 1.209 . S
C2100 C2073 1.486 . S
C2101 O2056 1.199 . S
C2101 O2057 1.297 . S
C2101 C2085 1.476 . S
H2102 O2128 0.856 . S
H2103 O2131 0.854 . S
H2104 C2139 0.930 . S
H2105 C2140 0.930 . S
H2106 C2142 0.930 . S
H2107 C2143 0.930 . S
H2108 C2145 0.931 . S
H2109 C2146 0.930 . S
H2110 C2148 0.930 . S
H2111 C2149 0.929 . S
H2112 C2151 0.930 . S
H2113 C2152 0.931 . S
H2114 C2154 0.930 . S
H2115 C2155 0.929 . S
H2116 C2157 0.931 . S
H2117 C2158 0.930 . S
H2118 C2160 0.930 . S
H2119 C2161 0.932 . S
H2120 C2163 0.930 . S
H2121 C2164 0.929 . S
H2122 C2166 0.931 . S
H2123 C2167 0.930 . S
H2124 C2169 0.929 . S
H2125 C2170 0.931 . S
H2126 C2172 0.930 . S
H2127 C2173 0.929 . S
O2128 H2102 0.856 . S
O2128 C2174 1.300 . S
O2129 C2174 1.209 . S
O2130 C2175 1.199 . S
O2131 H2103 0.854 . S
O2131 C2175 1.297 . S
C2132 C2133 1.404 . S
C2132 C2137 1.397 . S
C2132 C2138 1.492 . S
C2133 C2132 1.404 . S
C2133 C2134 1.396 . S
C2133 C2144 1.492 . S
C2134 C2133 1.396 . S
C2134 C2135 1.397 . S
C2134 C2150 1.509 . S
C2135 C2134 1.397 . S
C2135 C2136 1.412 . S
C2135 C2156 1.485 . S
C2136 C2135 1.412 . S
C2136 C2137 1.388 . S
C2136 C2162 1.490 . S
C2137 C2132 1.397 . S
C2137 C2136 1.388 . S
C2137 C2168 1.519 . S
C2138 C2132 1.492 . S
C2138 C2139 1.363 . S
C2138 C2143 1.390 . S
C2139 H2104 0.930 . S
C2139 C2138 1.363 . S
C2139 C2140 1.372 . S
C2140 H2105 0.930 . S
C2140 C2139 1.372 . S
C2140 C2141 1.383 . S
C2141 C2140 1.383 . S
C2141 C2142 1.395 . S
C2142 H2106 0.930 . S
C2142 C2141 1.395 . S
C2142 C2143 1.362 . S
C2143 H2107 0.930 . S
C2143 C2138 1.390 . S
C2143 C2142 1.362 . S
C2144 C2133 1.492 . S
C2144 C2145 1.377 . S
C2144 C2149 1.397 . S
C2145 H2108 0.931 . S
C2145 C2144 1.377 . S
C2145 C2146 1.376 . S
C2146 H2109 0.930 . S
C2146 C2145 1.376 . S
C2146 C2147 1.376 . S
C2147 C2146 1.376 . S
C2147 C2148 1.378 . S
C2147 C2174 1.486 . S
C2148 H2110 0.930 . S
C2148 C2147 1.378 . S
C2148 C2149 1.376 . S
C2149 H2111 0.929 . S
C2149 C2144 1.397 . S
C2149 C2148 1.376 . S
C2150 C2134 1.509 . S
C2150 C2151 1.391 . S
C2150 C2155 1.386 . S
C2151 H2112 0.930 . S
C2151 C2150 1.391 . S
C2151 C2152 1.375 . S
C2152 H2113 0.931 . S
C2152 C2151 1.375 . S
C2152 C2153 1.375 . S
C2153 C2152 1.375 . S
C2153 C2154 1.361 . S
C2154 H2114 0.930 . S
C2154 C2153 1.361 . S
C2154 C2155 1.399 . S
C2155 H2115 0.929 . S
C2155 C2150 1.386 . S
C2155 C2154 1.399 . S
C2156 C2135 1.485 . S
C2156 C2157 1.394 . S
C2156 C2161 1.360 . S
C2157 H2116 0.931 . S
C2157 C2156 1.394 . S
C2157 C2158 1.372 . S
C2158 H2117 0.930 . S
C2158 C2157 1.372 . S
C2158 C2159 1.397 . S
C2159 C2158 1.397 . S
C2159 C2160 1.390 . S
C2159 C2175 1.476 . S
C2160 H2118 0.930 . S
C2160 C2159 1.390 . S
C2160 C2161 1.366 . S
C2161 H2119 0.932 . S
C2161 C2156 1.360 . S
C2161 C2160 1.366 . S
C2162 C2136 1.490 . S
C2162 C2163 1.380 . S
C2162 C2167 1.386 . S
C2163 H2120 0.930 . S
C2163 C2162 1.380 . S
C2163 C2164 1.381 . S
C2164 H2121 0.929 . S
C2164 C2163 1.381 . S
C2164 C2165 1.371 . S
C2165 C2164 1.371 . S
C2165 C2166 1.380 . S
C2166 H2122 0.931 . S
C2166 C2165 1.380 . S
C2166 C2167 1.387 . S
C2167 H2123 0.930 . S
C2167 C2162 1.386 . S
C2167 C2166 1.387 . S
C2168 C2137 1.519 . S
C2168 C2169 1.377 . S
C2168 C2173 1.361 . S
C2169 H2124 0.929 . S
C2169 C2168 1.377 . S
C2169 C2170 1.386 . S
C2170 H2125 0.931 . S
C2170 C2169 1.386 . S
C2170 C2171 1.363 . S
C2171 C2170 1.363 . S
C2171 C2172 1.385 . S
C2172 H2126 0.930 . S
C2172 C2171 1.385 . S
C2172 C2173 1.396 . S
C2173 H2127 0.929 . S
C2173 C2168 1.361 . S
C2173 C2172 1.396 . S
C2174 O2128 1.300 . S
C2174 O2129 1.209 . S
C2174 C2147 1.486 . S
C2175 O2130 1.199 . S
C2175 O2131 1.297 . S
C2175 C2159 1.476 . S
H2176 O2202 0.856 . S
H2177 O2205 0.854 . S
H2178 C2213 0.930 . S
H2179 C2214 0.930 . S
H2180 C2216 0.930 . S
H2181 C2217 0.930 . S
H2182 C2219 0.931 . S
H2183 C2220 0.930 . S
H2184 C2222 0.930 . S
H2185 C2223 0.929 . S
H2186 C2225 0.930 . S
H2187 C2226 0.931 . S
H2188 C2228 0.930 . S
H2189 C2229 0.929 . S
H2190 C2231 0.931 . S
H2191 C2232 0.930 . S
H2192 C2234 0.930 . S
H2193 C2235 0.932 . S
H2194 C2237 0.930 . S
H2195 C2238 0.929 . S
H2196 C2240 0.931 . S
H2197 C2241 0.930 . S
H2198 C2243 0.929 . S
H2199 C2244 0.931 . S
H2200 C2246 0.930 . S
H2201 C2247 0.929 . S
O2202 H2176 0.856 . S
O2202 C2248 1.300 . S
O2203 C2248 1.209 . S
O2204 C2249 1.199 . S
O2205 H2177 0.854 . S
O2205 C2249 1.297 . S
C2206 C2207 1.404 . S
C2206 C2211 1.397 . S
C2206 C2212 1.492 . S
C2207 C2206 1.404 . S
C2207 C2208 1.396 . S
C2207 C2218 1.492 . S
C2208 C2207 1.396 . S
C2208 C2209 1.397 . S
C2208 C2224 1.509 . S
C2209 C2208 1.397 . S
C2209 C2210 1.412 . S
C2209 C2230 1.485 . S
C2210 C2209 1.412 . S
C2210 C2211 1.388 . S
C2210 C2236 1.490 . S
C2211 C2206 1.397 . S
C2211 C2210 1.388 . S
C2211 C2242 1.519 . S
C2212 C2206 1.492 . S
C2212 C2213 1.363 . S
C2212 C2217 1.390 . S
C2213 H2178 0.930 . S
C2213 C2212 1.363 . S
C2213 C2214 1.372 . S
C2214 H2179 0.930 . S
C2214 C2213 1.372 . S
C2214 C2215 1.383 . S
C2215 C2214 1.383 . S
C2215 C2216 1.395 . S
C2216 H2180 0.930 . S
C2216 C2215 1.395 . S
C2216 C2217 1.362 . S
C2217 H2181 0.930 . S
C2217 C2212 1.390 . S
C2217 C2216 1.362 . S
C2218 C2207 1.492 . S
C2218 C2219 1.377 . S
C2218 C2223 1.397 . S
C2219 H2182 0.931 . S
C2219 C2218 1.377 . S
C2219 C2220 1.376 . S
C2220 H2183 0.930 . S
C2220 C2219 1.376 . S
C2220 C2221 1.376 . S
C2221 C2220 1.376 . S
C2221 C2222 1.378 . S
C2221 C2248 1.486 . S
C2222 H2184 0.930 . S
C2222 C2221 1.378 . S
C2222 C2223 1.376 . S
C2223 H2185 0.929 . S
C2223 C2218 1.397 . S
C2223 C2222 1.376 . S
C2224 C2208 1.509 . S
C2224 C2225 1.391 . S
C2224 C2229 1.386 . S
C2225 H2186 0.930 . S
C2225 C2224 1.391 . S
C2225 C2226 1.375 . S
C2226 H2187 0.931 . S
C2226 C2225 1.375 . S
C2226 C2227 1.375 . S
C2227 C2226 1.375 . S
C2227 C2228 1.361 . S
C2228 H2188 0.930 . S
C2228 C2227 1.361 . S
C2228 C2229 1.399 . S
C2229 H2189 0.929 . S
C2229 C2224 1.386 . S
C2229 C2228 1.399 . S
C2230 C2209 1.485 . S
C2230 C2231 1.394 . S
C2230 C2235 1.360 . S
C2231 H2190 0.931 . S
C2231 C2230 1.394 . S
C2231 C2232 1.372 . S
C2232 H2191 0.930 . S
C2232 C2231 1.372 . S
C2232 C2233 1.397 . S
C2233 C2232 1.397 . S
C2233 C2234 1.390 . S
C2233 C2249 1.476 . S
C2234 H2192 0.930 . S
C2234 C2233 1.390 . S
C2234 C2235 1.366 . S
C2235 H2193 0.932 . S
C2235 C2230 1.360 . S
C2235 C2234 1.366 . S
C2236 C2210 1.490 . S
C2236 C2237 1.380 . S
C2236 C2241 1.386 . S
C2237 H2194 0.930 . S
C2237 C2236 1.380 . S
C2237 C2238 1.381 . S
C2238 H2195 0.929 . S
C2238 C2237 1.381 . S
C2238 C2239 1.371 . S
C2239 C2238 1.371 . S
C2239 C2240 1.380 . S
C2240 H2196 0.931 . S
C2240 C2239 1.380 . S
C2240 C2241 1.387 . S
C2241 H2197 0.930 . S
C2241 C2236 1.386 . S
C2241 C2240 1.387 . S
C2242 C2211 1.519 . S
C2242 C2243 1.377 . S
C2242 C2247 1.361 . S
C2243 H2198 0.929 . S
C2243 C2242 1.377 . S
C2243 C2244 1.386 . S
C2244 H2199 0.931 . S
C2244 C2243 1.386 . S
C2244 C2245 1.363 . S
C2245 C2244 1.363 . S
C2245 C2246 1.385 . S
C2246 H2200 0.930 . S
C2246 C2245 1.385 . S
C2246 C2247 1.396 . S
C2247 H2201 0.929 . S
C2247 C2242 1.361 . S
C2247 C2246 1.396 . S
C2248 O2202 1.300 . S
C2248 O2203 1.209 . S
C2248 C2221 1.486 . S
C2249 O2204 1.199 . S
C2249 O2205 1.297 . S
C2249 C2233 1.476 . S
H2250 O2276 0.856 . S
H2251 O2279 0.854 . S
H2252 C2287 0.930 . S
H2253 C2288 0.930 . S
H2254 C2290 0.930 . S
H2255 C2291 0.930 . S
H2256 C2293 0.931 . S
H2257 C2294 0.887 1_655 S
H2258 C2296 0.930 . S
H2259 C2297 0.929 . S
H2260 C2299 0.930 . S
H2261 C2300 0.914 1_655 S
H2262 C2302 0.930 . S
H2263 C2303 0.929 . S
H2264 C2305 0.931 . S
H2265 C2306 0.930 . S
H2266 C2308 0.930 . S
H2267 C2309 0.932 . S
H2268 C2311 0.930 . S
H2269 C2312 0.929 . S
H2270 C2314 0.931 . S
H2271 C2315 0.930 . S
H2272 C2317 0.929 . S
H2273 C2318 0.931 . S
H2274 C2320 0.930 . S
H2275 C2321 0.929 . S
O2276 H2250 0.856 . S
O2276 C2322 1.300 . S
O2277 C2322 1.209 . S
O2278 C2323 1.199 1_655 S
O2279 H2251 0.854 . S
O2279 C2323 1.297 . S
C2280 C2281 1.404 . S
C2280 C2285 1.395 . S
C2280 C2286 1.492 . S
C2281 C2280 1.404 . S
C2281 C2282 1.396 . S
C2281 C2292 1.492 . S
C2282 C2281 1.396 . S
C2282 C2283 1.397 . S
C2282 C2298 1.509 . S
C2283 C2282 1.397 . S
C2283 C2284 1.424 . S
C2283 C2304 1.485 . S
C2284 C2283 1.424 . S
C2284 C2285 1.404 . S
C2284 C2310 1.490 1_455 S
C2285 C2280 1.395 . S
C2285 C2284 1.404 . S
C2285 C2316 1.491 1_455 S
C2286 C2280 1.492 . S
C2286 C2287 1.363 1_455 S
C2286 C2291 1.390 . S
C2287 H2252 0.930 . S
C2287 C2286 1.363 1_655 S
C2287 C2288 1.372 . S
C2288 H2253 0.930 . S
C2288 C2287 1.372 . S
C2288 C2289 1.383 . S
C2289 C2288 1.383 . S
C2289 C2290 1.395 1_655 S
C2290 H2254 0.930 . S
C2290 C2289 1.395 1_455 S
C2290 C2291 1.362 . S
C2291 H2255 0.930 . S
C2291 C2286 1.390 . S
C2291 C2290 1.362 . S
C2292 C2281 1.492 . S
C2292 C2293 1.377 1_455 S
C2292 C2297 1.397 . S
C2293 H2256 0.931 . S
C2293 C2292 1.377 1_655 S
C2293 C2294 1.385 1_655 S
C2294 H2257 0.887 1_455 S
C2294 C2293 1.385 1_455 S
C2294 C2295 1.420 . S
C2295 C2294 1.420 . S
C2295 C2296 1.378 . S
C2295 C2322 1.486 . S
C2296 H2258 0.930 . S
C2296 C2295 1.378 . S
C2296 C2297 1.376 . S
C2297 H2259 0.929 . S
C2297 C2292 1.397 . S
C2297 C2296 1.376 . S
C2298 C2282 1.509 . S
C2298 C2299 1.391 1_455 S
C2298 C2303 1.386 . S
C2299 H2260 0.930 . S
C2299 C2298 1.391 1_655 S
C2299 C2300 1.351 1_655 S
C2300 H2261 0.914 1_455 S
C2300 C2299 1.351 1_455 S
C2300 C2301 1.416 . S
C2301 C2300 1.416 . S
C2301 C2302 1.361 . S
C2302 H2262 0.930 . S
C2302 C2301 1.361 . S
C2302 C2303 1.399 . S
C2303 H2263 0.929 . S
C2303 C2298 1.386 . S
C2303 C2302 1.399 . S
C2304 C2283 1.485 . S
C2304 C2305 1.394 1_455 S
C2304 C2309 1.360 . S
C2305 H2264 0.931 . S
C2305 C2304 1.394 1_655 S
C2305 C2306 1.372 . S
C2306 H2265 0.930 . S
C2306 C2305 1.372 . S
C2306 C2307 1.397 1_655 S
C2307 C2306 1.397 1_455 S
C2307 C2308 1.390 . S
C2307 C2323 1.476 . S
C2308 H2266 0.930 . S
C2308 C2307 1.390 . S
C2308 C2309 1.366 . S
C2309 H2267 0.932 . S
C2309 C2304 1.360 . S
C2309 C2308 1.366 . S
C2310 C2284 1.490 1_655 S
C2310 C2311 1.380 . S
C2310 C2315 1.386 1_655 S
C2311 H2268 0.930 . S
C2311 C2310 1.380 . S
C2311 C2312 1.381 . S
C2312 H2269 0.929 . S
C2312 C2311 1.381 . S
C2312 C2313 1.371 . S
C2313 C2312 1.371 . S
C2313 C2314 1.380 1_655 S
C2314 H2270 0.931 . S
C2314 C2313 1.380 1_455 S
C2314 C2315 1.387 . S
C2315 H2271 0.930 . S
C2315 C2310 1.386 1_455 S
C2315 C2314 1.387 . S
C2316 C2285 1.491 1_655 S
C2316 C2317 1.401 . S
C2316 C2321 1.346 1_655 S
C2317 H2272 0.929 . S
C2317 C2316 1.401 . S
C2317 C2318 1.386 . S
C2318 H2273 0.931 . S
C2318 C2317 1.386 . S
C2318 C2319 1.373 . S
C2319 C2318 1.373 . S
C2319 C2320 1.370 1_655 S
C2320 H2274 0.930 . S
C2320 C2319 1.370 1_455 S
C2320 C2321 1.396 . S
C2321 H2275 0.929 . S
C2321 C2316 1.346 1_455 S
C2321 C2320 1.396 . S
C2322 O2276 1.300 . S
C2322 O2277 1.209 . S
C2322 C2295 1.486 . S
C2323 O2278 1.199 1_455 S
C2323 O2279 1.297 . S
C2323 C2307 1.476 . S
H2324 O2350 0.856 . S
H2325 O2353 0.854 . S
H2326 C2361 0.930 . S
H2327 C2362 0.930 . S
H2328 C2364 0.930 . S
H2329 C2365 0.930 . S
H2330 C2367 0.931 . S
H2331 C2368 0.930 . S
H2332 C2370 0.930 . S
H2333 C2371 0.929 . S
H2334 C2373 0.930 . S
H2335 C2374 0.931 . S
H2336 C2376 0.930 . S
H2337 C2377 0.929 . S
H2338 C2379 0.931 . S
H2339 C2380 0.930 . S
H2340 C2382 0.930 . S
H2341 C2383 0.932 . S
H2342 C2385 0.930 . S
H2343 C2386 0.929 . S
H2344 C2388 0.931 . S
H2345 C2389 0.930 . S
H2346 C2391 0.929 . S
H2347 C2392 0.931 . S
H2348 C2394 0.930 . S
H2349 C2395 0.929 . S
O2350 H2324 0.856 . S
O2350 C2396 1.300 . S
O2351 C2396 1.209 . S
O2352 C2397 1.199 . S
O2353 H2325 0.854 . S
O2353 C2397 1.297 . S
C2354 C2355 1.404 . S
C2354 C2359 1.397 . S
C2354 C2360 1.492 . S
C2355 C2354 1.404 . S
C2355 C2356 1.396 . S
C2355 C2366 1.492 . S
C2356 C2355 1.396 . S
C2356 C2357 1.397 . S
C2356 C2372 1.509 . S
C2357 C2356 1.397 . S
C2357 C2358 1.412 . S
C2357 C2378 1.485 . S
C2358 C2357 1.412 . S
C2358 C2359 1.388 . S
C2358 C2384 1.490 . S
C2359 C2354 1.397 . S
C2359 C2358 1.388 . S
C2359 C2390 1.519 . S
C2360 C2354 1.492 . S
C2360 C2361 1.363 . S
C2360 C2365 1.390 . S
C2361 H2326 0.930 . S
C2361 C2360 1.363 . S
C2361 C2362 1.372 . S
C2362 H2327 0.930 . S
C2362 C2361 1.372 . S
C2362 C2363 1.383 . S
C2363 C2362 1.383 . S
C2363 C2364 1.395 . S
C2364 H2328 0.930 . S
C2364 C2363 1.395 . S
C2364 C2365 1.362 . S
C2365 H2329 0.930 . S
C2365 C2360 1.390 . S
C2365 C2364 1.362 . S
C2366 C2355 1.492 . S
C2366 C2367 1.377 . S
C2366 C2371 1.397 . S
C2367 H2330 0.931 . S
C2367 C2366 1.377 . S
C2367 C2368 1.376 . S
C2368 H2331 0.930 . S
C2368 C2367 1.376 . S
C2368 C2369 1.376 . S
C2369 C2368 1.376 . S
C2369 C2370 1.378 . S
C2369 C2396 1.486 . S
C2370 H2332 0.930 . S
C2370 C2369 1.378 . S
C2370 C2371 1.376 . S
C2371 H2333 0.929 . S
C2371 C2366 1.397 . S
C2371 C2370 1.376 . S
C2372 C2356 1.509 . S
C2372 C2373 1.391 . S
C2372 C2377 1.386 . S
C2373 H2334 0.930 . S
C2373 C2372 1.391 . S
C2373 C2374 1.375 . S
C2374 H2335 0.931 . S
C2374 C2373 1.375 . S
C2374 C2375 1.375 . S
C2375 C2374 1.375 . S
C2375 C2376 1.361 . S
C2376 H2336 0.930 . S
C2376 C2375 1.361 . S
C2376 C2377 1.399 . S
C2377 H2337 0.929 . S
C2377 C2372 1.386 . S
C2377 C2376 1.399 . S
C2378 C2357 1.485 . S
C2378 C2379 1.394 . S
C2378 C2383 1.360 . S
C2379 H2338 0.931 . S
C2379 C2378 1.394 . S
C2379 C2380 1.372 . S
C2380 H2339 0.930 . S
C2380 C2379 1.372 . S
C2380 C2381 1.397 . S
C2381 C2380 1.397 . S
C2381 C2382 1.390 . S
C2381 C2397 1.476 . S
C2382 H2340 0.930 . S
C2382 C2381 1.390 . S
C2382 C2383 1.366 . S
C2383 H2341 0.932 . S
C2383 C2378 1.360 . S
C2383 C2382 1.366 . S
C2384 C2358 1.490 . S
C2384 C2385 1.380 . S
C2384 C2389 1.386 . S
C2385 H2342 0.930 . S
C2385 C2384 1.380 . S
C2385 C2386 1.381 . S
C2386 H2343 0.929 . S
C2386 C2385 1.381 . S
C2386 C2387 1.371 . S
C2387 C2386 1.371 . S
C2387 C2388 1.380 . S
C2388 H2344 0.931 . S
C2388 C2387 1.380 . S
C2388 C2389 1.387 . S
C2389 H2345 0.930 . S
C2389 C2384 1.386 . S
C2389 C2388 1.387 . S
C2390 C2359 1.519 . S
C2390 C2391 1.377 . S
C2390 C2395 1.361 . S
C2391 H2346 0.929 . S
C2391 C2390 1.377 . S
C2391 C2392 1.386 . S
C2392 H2347 0.931 . S
C2392 C2391 1.386 . S
C2392 C2393 1.363 . S
C2393 C2392 1.363 . S
C2393 C2394 1.385 . S
C2394 H2348 0.930 . S
C2394 C2393 1.385 . S
C2394 C2395 1.396 . S
C2395 H2349 0.929 . S
C2395 C2390 1.361 . S
C2395 C2394 1.396 . S
C2396 O2350 1.300 . S
C2396 O2351 1.209 . S
C2396 C2369 1.486 . S
C2397 O2352 1.199 . S
C2397 O2353 1.297 . S
C2397 C2381 1.476 . S
H2398 O2424 0.856 . S
H2399 O2427 0.854 . S
H2400 C2435 0.930 . S
H2401 C2436 0.930 . S
H2402 C2438 0.930 . S
H2403 C2439 0.930 . S
H2404 C2441 0.931 . S
H2405 C2442 0.942 . S
H2406 C2444 0.930 . S
H2407 C2445 0.929 . S
H2408 C2447 0.930 . S
H2409 C2448 1.013 . S
H2410 C2450 0.930 . S
H2411 C2451 0.929 . S
H2412 C2453 0.931 . S
H2413 C2454 0.930 . S
H2414 C2456 0.930 . S
H2415 C2457 0.932 . S
H2416 C2459 0.930 . S
H2417 C2460 0.929 . S
H2418 C2462 0.931 . S
H2419 C2463 0.930 . S
H2420 C2465 0.929 . S
H2421 C2466 0.931 . S
H2422 C2468 0.930 . S
H2423 C2469 0.929 . S
O2424 H2398 0.856 . S
O2424 C2470 1.300 . S
O2425 C2470 1.209 . S
O2426 C2471 1.199 1_545 S
O2427 H2399 0.854 . S
O2427 C2471 1.297 . S
C2428 C2429 1.404 . S
C2428 C2433 1.413 . S
C2428 C2434 1.492 . S
C2429 C2428 1.404 . S
C2429 C2430 1.396 . S
C2429 C2440 1.492 . S
C2430 C2429 1.396 . S
C2430 C2431 1.397 . S
C2430 C2446 1.509 . S
C2431 C2430 1.397 . S
C2431 C2432 1.410 . S
C2431 C2452 1.485 . S
C2432 C2431 1.410 . S
C2432 C2433 1.369 . S
C2432 C2458 1.487 1_565 S
C2433 C2428 1.413 . S
C2433 C2432 1.369 . S
C2433 C2464 1.532 1_565 S
C2434 C2428 1.492 . S
C2434 C2435 1.363 1_565 S
C2434 C2439 1.390 . S
C2435 H2400 0.930 . S
C2435 C2434 1.363 1_545 S
C2435 C2436 1.372 . S
C2436 H2401 0.930 . S
C2436 C2435 1.372 . S
C2436 C2437 1.383 . S
C2437 C2436 1.383 . S
C2437 C2438 1.395 1_545 S
C2438 H2402 0.930 . S
C2438 C2437 1.395 1_565 S
C2438 C2439 1.362 . S
C2439 H2403 0.930 . S
C2439 C2434 1.390 . S
C2439 C2438 1.362 . S
C2440 C2429 1.492 . S
C2440 C2441 1.377 1_565 S
C2440 C2445 1.397 . S
C2441 H2404 0.931 . S
C2441 C2440 1.377 1_545 S
C2441 C2442 1.382 . S
C2442 H2405 0.942 . S
C2442 C2441 1.382 . S
C2442 C2443 1.357 1_545 S
C2443 C2442 1.357 1_565 S
C2443 C2444 1.378 . S
C2443 C2470 1.486 . S
C2444 H2406 0.930 . S
C2444 C2443 1.378 . S
C2444 C2445 1.376 . S
C2445 H2407 0.929 . S
C2445 C2440 1.397 . S
C2445 C2444 1.376 . S
C2446 C2430 1.509 . S
C2446 C2447 1.391 1_565 S
C2446 C2451 1.386 . S
C2447 H2408 0.930 . S
C2447 C2446 1.391 1_545 S
C2447 C2448 1.363 . S
C2448 H2409 1.013 . S
C2448 C2447 1.363 . S
C2448 C2449 1.311 1_545 S
C2449 C2448 1.311 1_565 S
C2449 C2450 1.361 . S
C2450 H2410 0.930 . S
C2450 C2449 1.361 . S
C2450 C2451 1.399 . S
C2451 H2411 0.929 . S
C2451 C2446 1.386 . S
C2451 C2450 1.399 . S
C2452 C2431 1.485 . S
C2452 C2453 1.394 1_565 S
C2452 C2457 1.360 . S
C2453 H2412 0.931 . S
C2453 C2452 1.394 1_545 S
C2453 C2454 1.372 . S
C2454 H2413 0.930 . S
C2454 C2453 1.372 . S
C2454 C2455 1.397 1_545 S
C2455 C2454 1.397 1_565 S
C2455 C2456 1.390 . S
C2455 C2471 1.476 . S
C2456 H2414 0.930 . S
C2456 C2455 1.390 . S
C2456 C2457 1.366 . S
C2457 H2415 0.932 . S
C2457 C2452 1.360 . S
C2457 C2456 1.366 . S
C2458 C2432 1.487 1_545 S
C2458 C2459 1.380 . S
C2458 C2463 1.386 1_545 S
C2459 H2416 0.930 . S
C2459 C2458 1.380 . S
C2459 C2460 1.381 . S
C2460 H2417 0.929 . S
C2460 C2459 1.381 . S
C2460 C2461 1.371 . S
C2461 C2460 1.371 . S
C2461 C2462 1.380 1_545 S
C2462 H2418 0.931 . S
C2462 C2461 1.380 1_565 S
C2462 C2463 1.387 . S
C2463 H2419 0.930 . S
C2463 C2458 1.386 1_565 S
C2463 C2462 1.387 . S
C2464 C2433 1.532 1_545 S
C2464 C2465 1.374 . S
C2464 C2469 1.366 1_545 S
C2465 H2420 0.929 . S
C2465 C2464 1.374 . S
C2465 C2466 1.386 . S
C2466 H2421 0.931 . S
C2466 C2465 1.386 . S
C2466 C2467 1.321 1_545 S
C2467 C2466 1.321 1_565 S
C2467 C2468 1.408 . S
C2468 H2422 0.930 . S
C2468 C2467 1.408 . S
C2468 C2469 1.396 . S
C2469 H2423 0.929 . S
C2469 C2464 1.366 1_565 S
C2469 C2468 1.396 . S
C2470 O2424 1.300 . S
C2470 O2425 1.209 . S
C2470 C2443 1.486 . S
C2471 O2426 1.199 1_565 S
C2471 O2427 1.297 . S
C2471 C2455 1.476 . S
H2472 O2498 0.856 . S
H2473 O2501 0.854 . S
H2474 C2509 0.930 . S
H2475 C2510 0.930 . S
H2476 C2512 0.930 . S
H2477 C2513 0.930 . S
H2478 C2515 0.931 . S
H2479 C2516 0.930 . S
H2480 C2518 0.930 . S
H2481 C2519 0.929 . S
H2482 C2521 0.930 . S
H2483 C2522 0.931 . S
H2484 C2524 0.930 . S
H2485 C2525 0.929 . S
H2486 C2527 0.931 . S
H2487 C2528 0.930 . S
H2488 C2530 0.930 . S
H2489 C2531 0.932 . S
H2490 C2533 0.930 . S
H2491 C2534 0.929 . S
H2492 C2536 0.931 . S
H2493 C2537 0.930 . S
H2494 C2539 0.929 . S
H2495 C2540 0.931 . S
H2496 C2542 0.930 . S
H2497 C2543 0.929 . S
O2498 H2472 0.856 . S
O2498 C2544 1.300 . S
O2499 C2544 1.209 1_565 S
O2500 C2545 1.199 1_545 S
O2501 H2473 0.854 . S
O2501 C2545 1.297 . S
C2502 C2503 1.375 . S
C2502 C2507 1.376 1_545 S
C2502 C2508 1.556 . S
C2503 C2502 1.375 . S
C2503 C2504 1.428 . S
C2503 C2514 1.492 . S
C2504 C2503 1.428 . S
C2504 C2505 1.381 1_545 S
C2504 C2520 1.504 . S
C2505 C2504 1.381 1_565 S
C2505 C2506 1.416 . S
C2505 C2526 1.498 . S
C2506 C2505 1.416 . S
C2506 C2507 1.366 . S
C2506 C2532 1.488 . S
C2507 C2502 1.376 1_565 S
C2507 C2506 1.366 . S
C2507 C2538 1.520 . S
C2508 C2502 1.556 . S
C2508 C2509 1.363 . S
C2508 C2513 1.390 1_545 S
C2509 H2474 0.930 . S
C2509 C2508 1.363 . S
C2509 C2510 1.372 . S
C2510 H2475 0.930 . S
C2510 C2509 1.372 . S
C2510 C2511 1.383 . S
C2511 C2510 1.383 . S
C2511 C2512 1.395 1_545 S
C2512 H2476 0.930 . S
C2512 C2511 1.395 1_565 S
C2512 C2513 1.362 . S
C2513 H2477 0.930 . S
C2513 C2508 1.390 1_565 S
C2513 C2512 1.362 . S
C2514 C2503 1.492 . S
C2514 C2515 1.377 . S
C2514 C2519 1.397 1_545 S
C2515 H2478 0.931 . S
C2515 C2514 1.377 . S
C2515 C2516 1.376 . S
C2516 H2479 0.930 . S
C2516 C2515 1.376 . S
C2516 C2517 1.376 . S
C2517 C2516 1.376 . S
C2517 C2518 1.378 1_545 S
C2517 C2544 1.486 . S
C2518 H2480 0.930 . S
C2518 C2517 1.378 1_565 S
C2518 C2519 1.376 . S
C2519 H2481 0.929 . S
C2519 C2514 1.397 1_565 S
C2519 C2518 1.376 . S
C2520 C2504 1.504 . S
C2520 C2521 1.409 . S
C2520 C2525 1.356 1_545 S
C2521 H2482 0.930 . S
C2521 C2520 1.409 . S
C2521 C2522 1.375 . S
C2522 H2483 0.931 . S
C2522 C2521 1.375 . S
C2522 C2523 1.379 . S
C2523 C2522 1.379 . S
C2523 C2524 1.359 1_545 S
C2524 H2484 0.930 . S
C2524 C2523 1.359 1_565 S
C2524 C2525 1.399 . S
C2525 H2485 0.929 . S
C2525 C2520 1.356 1_565 S
C2525 C2524 1.399 . S
C2526 C2505 1.498 . S
C2526 C2527 1.394 1_565 S
C2526 C2531 1.360 . S
C2527 H2486 0.931 . S
C2527 C2526 1.394 1_545 S
C2527 C2528 1.372 . S
C2528 H2487 0.930 . S
C2528 C2527 1.372 . S
C2528 C2529 1.397 1_545 S
C2529 C2528 1.397 1_565 S
C2529 C2530 1.390 . S
C2529 C2545 1.476 . S
C2530 H2488 0.930 . S
C2530 C2529 1.390 . S
C2530 C2531 1.366 . S
C2531 H2489 0.932 . S
C2531 C2526 1.360 . S
C2531 C2530 1.366 . S
C2532 C2506 1.488 . S
C2532 C2533 1.345 1_565 S
C2532 C2537 1.429 . S
C2533 H2490 0.930 . S
C2533 C2532 1.345 1_545 S
C2533 C2534 1.381 . S
C2534 H2491 0.929 . S
C2534 C2533 1.381 . S
C2534 C2535 1.384 . S
C2535 C2534 1.384 . S
C2535 C2536 1.369 1_545 S
C2536 H2492 0.931 . S
C2536 C2535 1.369 1_565 S
C2536 C2537 1.387 . S
C2537 H2493 0.930 . S
C2537 C2532 1.429 . S
C2537 C2536 1.387 . S
C2538 C2507 1.520 . S
C2538 C2539 1.377 1_565 S
C2538 C2543 1.361 . S
C2539 H2494 0.929 . S
C2539 C2538 1.377 1_545 S
C2539 C2540 1.386 . S
C2540 H2495 0.931 . S
C2540 C2539 1.386 . S
C2540 C2541 1.363 1_545 S
C2541 C2540 1.363 1_565 S
C2541 C2542 1.385 . S
C2542 H2496 0.930 . S
C2542 C2541 1.385 . S
C2542 C2543 1.396 . S
C2543 H2497 0.929 . S
C2543 C2538 1.361 . S
C2543 C2542 1.396 . S
C2544 O2498 1.300 . S
C2544 O2499 1.209 1_545 S
C2544 C2517 1.486 . S
C2545 O2500 1.199 1_565 S
C2545 O2501 1.297 . S
C2545 C2529 1.476 . S
H2546 O2572 0.856 . S
H2547 O2575 0.854 . S
H2548 C2583 0.930 . S
H2549 C2584 0.930 . S
H2550 C2586 0.930 . S
H2551 C2587 0.930 . S
H2552 C2589 0.931 . S
H2553 C2590 0.930 . S
H2554 C2592 0.930 . S
H2555 C2593 0.929 . S
H2556 C2595 0.930 . S
H2557 C2596 0.931 . S
H2558 C2598 0.930 . S
H2559 C2599 0.929 . S
H2560 C2601 0.931 . S
H2561 C2602 0.930 . S
H2562 C2604 0.930 . S
H2563 C2605 0.932 . S
H2564 C2607 0.930 . S
H2565 C2608 0.929 . S
H2566 C2610 0.931 . S
H2567 C2611 0.930 . S
H2568 C2613 0.929 . S
H2569 C2614 0.931 . S
H2570 C2616 0.930 . S
H2571 C2617 0.929 . S
O2572 H2546 0.856 . S
O2572 C2618 1.300 . S
O2573 C2618 1.209 1_455 S
O2574 C2619 1.199 1_655 S
O2575 H2547 0.854 . S
O2575 C2619 1.297 . S
C2576 C2577 1.404 . S
C2576 C2581 1.398 . S
C2576 C2582 1.492 . S
C2577 C2576 1.404 . S
C2577 C2578 1.396 . S
C2577 C2588 1.492 . S
C2578 C2577 1.396 . S
C2578 C2579 1.397 . S
C2578 C2594 1.509 . S
C2579 C2578 1.397 . S
C2579 C2580 1.400 1_655 S
C2579 C2600 1.522 1_655 S
C2580 C2579 1.400 1_455 S
C2580 C2581 1.401 1_455 S
C2580 C2606 1.501 . S
C2581 C2576 1.398 . S
C2581 C2580 1.401 1_655 S
C2581 C2612 1.523 1_655 S
C2582 C2576 1.492 . S
C2582 C2583 1.363 . S
C2582 C2587 1.390 1_655 S
C2583 H2548 0.930 . S
C2583 C2582 1.363 . S
C2583 C2584 1.372 . S
C2584 H2549 0.930 . S
C2584 C2583 1.372 . S
C2584 C2585 1.383 . S
C2585 C2584 1.383 . S
C2585 C2586 1.395 1_655 S
C2586 H2550 0.930 . S
C2586 C2585 1.395 1_455 S
C2586 C2587 1.362 . S
C2587 H2551 0.930 . S
C2587 C2582 1.390 1_455 S
C2587 C2586 1.362 . S
C2588 C2577 1.492 . S
C2588 C2589 1.377 . S
C2588 C2593 1.397 1_655 S
C2589 H2552 0.931 . S
C2589 C2588 1.377 . S
C2589 C2590 1.376 . S
C2590 H2553 0.930 . S
C2590 C2589 1.376 . S
C2590 C2591 1.376 . S
C2591 C2590 1.376 . S
C2591 C2592 1.378 1_655 S
C2591 C2618 1.486 . S
C2592 H2554 0.930 . S
C2592 C2591 1.378 1_455 S
C2592 C2593 1.376 . S
C2593 H2555 0.929 . S
C2593 C2588 1.397 1_455 S
C2593 C2592 1.376 . S
C2594 C2578 1.509 . S
C2594 C2595 1.391 . S
C2594 C2599 1.386 1_655 S
C2595 H2556 0.930 . S
C2595 C2594 1.391 . S
C2595 C2596 1.375 . S
C2596 H2557 0.931 . S
C2596 C2595 1.375 . S
C2596 C2597 1.375 . S
C2597 C2596 1.375 . S
C2597 C2598 1.361 1_655 S
C2598 H2558 0.930 . S
C2598 C2597 1.361 1_455 S
C2598 C2599 1.399 . S
C2599 H2559 0.929 . S
C2599 C2594 1.386 1_455 S
C2599 C2598 1.399 . S
C2600 C2579 1.522 1_455 S
C2600 C2601 1.328 1_455 S
C2600 C2605 1.391 . S
C2601 H2560 0.931 . S
C2601 C2600 1.328 1_655 S
C2601 C2602 1.372 . S
C2602 H2561 0.930 . S
C2602 C2601 1.372 . S
C2602 C2603 1.397 1_655 S
C2603 C2602 1.397 1_455 S
C2603 C2604 1.390 . S
C2603 C2619 1.476 . S
C2604 H2562 0.930 . S
C2604 C2603 1.390 . S
C2604 C2605 1.366 . S
C2605 H2563 0.932 . S
C2605 C2600 1.391 . S
C2605 C2604 1.366 . S
C2606 C2580 1.501 . S
C2606 C2607 1.322 1_455 S
C2606 C2611 1.433 . S
C2607 H2564 0.930 . S
C2607 C2606 1.322 1_655 S
C2607 C2608 1.381 . S
C2608 H2565 0.929 . S
C2608 C2607 1.381 . S
C2608 C2609 1.371 1_655 S
C2609 C2608 1.371 1_455 S
C2609 C2610 1.380 . S
C2610 H2566 0.931 . S
C2610 C2609 1.380 . S
C2610 C2611 1.387 . S
C2611 H2567 0.930 . S
C2611 C2606 1.433 . S
C2611 C2610 1.387 . S
C2612 C2581 1.523 1_455 S
C2612 C2613 1.377 1_455 S
C2612 C2617 1.361 . S
C2613 H2568 0.929 . S
C2613 C2612 1.377 1_655 S
C2613 C2614 1.386 . S
C2614 H2569 0.931 . S
C2614 C2613 1.386 . S
C2614 C2615 1.363 1_655 S
C2615 C2614 1.363 1_455 S
C2615 C2616 1.385 . S
C2616 H2570 0.930 . S
C2616 C2615 1.385 . S
C2616 C2617 1.396 . S
C2617 H2571 0.929 . S
C2617 C2612 1.361 . S
C2617 C2616 1.396 . S
C2618 O2572 1.300 . S
C2618 O2573 1.209 1_655 S
C2618 C2591 1.486 . S
C2619 O2574 1.199 1_455 S
C2619 O2575 1.297 . S
C2619 C2603 1.476 . S
H2620 O2646 0.856 . S
H2621 O2649 0.854 . S
H2622 C2657 0.930 . S
H2623 C2658 0.930 . S
H2624 C2660 0.930 . S
H2625 C2661 0.930 . S
H2626 C2663 0.931 . S
H2627 C2664 0.930 . S
H2628 C2666 0.930 . S
H2629 C2667 0.929 . S
H2630 C2669 0.930 . S
H2631 C2670 0.931 . S
H2632 C2672 0.930 . S
H2633 C2673 0.929 . S
H2634 C2675 0.931 . S
H2635 C2676 0.930 . S
H2636 C2678 0.930 . S
H2637 C2679 0.932 . S
H2638 C2681 0.930 . S
H2639 C2682 0.929 . S
H2640 C2684 0.931 . S
H2641 C2685 0.930 . S
H2642 C2687 0.929 . S
H2643 C2688 0.931 . S
H2644 C2690 0.930 . S
H2645 C2691 0.929 . S
O2646 H2620 0.856 . S
O2646 C2692 1.300 . S
O2647 C2692 1.209 . S
O2648 C2693 1.199 . S
O2649 H2621 0.854 . S
O2649 C2693 1.297 . S
C2650 C2651 1.404 . S
C2650 C2655 1.397 . S
C2650 C2656 1.492 . S
C2651 C2650 1.404 . S
C2651 C2652 1.396 . S
C2651 C2662 1.492 . S
C2652 C2651 1.396 . S
C2652 C2653 1.397 . S
C2652 C2668 1.509 . S
C2653 C2652 1.397 . S
C2653 C2654 1.412 . S
C2653 C2674 1.485 . S
C2654 C2653 1.412 . S
C2654 C2655 1.388 . S
C2654 C2680 1.490 . S
C2655 C2650 1.397 . S
C2655 C2654 1.388 . S
C2655 C2686 1.519 . S
C2656 C2650 1.492 . S
C2656 C2657 1.363 . S
C2656 C2661 1.390 . S
C2657 H2622 0.930 . S
C2657 C2656 1.363 . S
C2657 C2658 1.372 . S
C2658 H2623 0.930 . S
C2658 C2657 1.372 . S
C2658 C2659 1.383 . S
C2659 C2658 1.383 . S
C2659 C2660 1.395 . S
C2660 H2624 0.930 . S
C2660 C2659 1.395 . S
C2660 C2661 1.362 . S
C2661 H2625 0.930 . S
C2661 C2656 1.390 . S
C2661 C2660 1.362 . S
C2662 C2651 1.492 . S
C2662 C2663 1.377 . S
C2662 C2667 1.397 . S
C2663 H2626 0.931 . S
C2663 C2662 1.377 . S
C2663 C2664 1.376 . S
C2664 H2627 0.930 . S
C2664 C2663 1.376 . S
C2664 C2665 1.376 . S
C2665 C2664 1.376 . S
C2665 C2666 1.378 . S
C2665 C2692 1.486 . S
C2666 H2628 0.930 . S
C2666 C2665 1.378 . S
C2666 C2667 1.376 . S
C2667 H2629 0.929 . S
C2667 C2662 1.397 . S
C2667 C2666 1.376 . S
C2668 C2652 1.509 . S
C2668 C2669 1.391 . S
C2668 C2673 1.386 . S
C2669 H2630 0.930 . S
C2669 C2668 1.391 . S
C2669 C2670 1.375 . S
C2670 H2631 0.931 . S
C2670 C2669 1.375 . S
C2670 C2671 1.375 . S
C2671 C2670 1.375 . S
C2671 C2672 1.361 . S
C2672 H2632 0.930 . S
C2672 C2671 1.361 . S
C2672 C2673 1.399 . S
C2673 H2633 0.929 . S
C2673 C2668 1.386 . S
C2673 C2672 1.399 . S
C2674 C2653 1.485 . S
C2674 C2675 1.394 . S
C2674 C2679 1.360 . S
C2675 H2634 0.931 . S
C2675 C2674 1.394 . S
C2675 C2676 1.372 . S
C2676 H2635 0.930 . S
C2676 C2675 1.372 . S
C2676 C2677 1.397 . S
C2677 C2676 1.397 . S
C2677 C2678 1.390 . S
C2677 C2693 1.476 . S
C2678 H2636 0.930 . S
C2678 C2677 1.390 . S
C2678 C2679 1.366 . S
C2679 H2637 0.932 . S
C2679 C2674 1.360 . S
C2679 C2678 1.366 . S
C2680 C2654 1.490 . S
C2680 C2681 1.380 . S
C2680 C2685 1.386 . S
C2681 H2638 0.930 . S
C2681 C2680 1.380 . S
C2681 C2682 1.381 . S
C2682 H2639 0.929 . S
C2682 C2681 1.381 . S
C2682 C2683 1.371 . S
C2683 C2682 1.371 . S
C2683 C2684 1.380 . S
C2684 H2640 0.931 . S
C2684 C2683 1.380 . S
C2684 C2685 1.387 . S
C2685 H2641 0.930 . S
C2685 C2680 1.386 . S
C2685 C2684 1.387 . S
C2686 C2655 1.519 . S
C2686 C2687 1.377 . S
C2686 C2691 1.361 . S
C2687 H2642 0.929 . S
C2687 C2686 1.377 . S
C2687 C2688 1.386 . S
C2688 H2643 0.931 . S
C2688 C2687 1.386 . S
C2688 C2689 1.363 . S
C2689 C2688 1.363 . S
C2689 C2690 1.385 . S
C2690 H2644 0.930 . S
C2690 C2689 1.385 . S
C2690 C2691 1.396 . S
C2691 H2645 0.929 . S
C2691 C2686 1.361 . S
C2691 C2690 1.396 . S
C2692 O2646 1.300 . S
C2692 O2647 1.209 . S
C2692 C2665 1.486 . S
C2693 O2648 1.199 . S
C2693 O2649 1.297 . S
C2693 C2677 1.476 . S
H2694 O2720 0.856 . S
H2695 O2723 0.854 . S
H2696 C2731 0.930 . S
H2697 C2732 0.930 . S
H2698 C2734 0.930 . S
H2699 C2735 0.930 . S
H2700 C2737 0.931 . S
H2701 C2738 0.930 . S
H2702 C2740 0.930 . S
H2703 C2741 0.929 . S
H2704 C2743 0.930 . S
H2705 C2744 0.931 . S
H2706 C2746 0.930 . S
H2707 C2747 0.929 . S
H2708 C2749 0.931 . S
H2709 C2750 0.930 . S
H2710 C2752 0.930 . S
H2711 C2753 0.932 . S
H2712 C2755 0.930 . S
H2713 C2756 0.929 . S
H2714 C2758 0.931 . S
H2715 C2759 0.930 . S
H2716 C2761 0.929 . S
H2717 C2762 0.931 . S
H2718 C2764 0.930 . S
H2719 C2765 0.929 . S
O2720 H2694 0.856 . S
O2720 C2766 1.300 . S
O2721 C2766 1.209 . S
O2722 C2767 1.199 . S
O2723 H2695 0.854 . S
O2723 C2767 1.297 . S
C2724 C2725 1.404 . S
C2724 C2729 1.397 . S
C2724 C2730 1.492 . S
C2725 C2724 1.404 . S
C2725 C2726 1.396 . S
C2725 C2736 1.492 . S
C2726 C2725 1.396 . S
C2726 C2727 1.397 . S
C2726 C2742 1.509 . S
C2727 C2726 1.397 . S
C2727 C2728 1.412 . S
C2727 C2748 1.485 . S
C2728 C2727 1.412 . S
C2728 C2729 1.388 . S
C2728 C2754 1.490 . S
C2729 C2724 1.397 . S
C2729 C2728 1.388 . S
C2729 C2760 1.519 . S
C2730 C2724 1.492 . S
C2730 C2731 1.363 . S
C2730 C2735 1.390 . S
C2731 H2696 0.930 . S
C2731 C2730 1.363 . S
C2731 C2732 1.372 . S
C2732 H2697 0.930 . S
C2732 C2731 1.372 . S
C2732 C2733 1.383 . S
C2733 C2732 1.383 . S
C2733 C2734 1.395 . S
C2734 H2698 0.930 . S
C2734 C2733 1.395 . S
C2734 C2735 1.362 . S
C2735 H2699 0.930 . S
C2735 C2730 1.390 . S
C2735 C2734 1.362 . S
C2736 C2725 1.492 . S
C2736 C2737 1.377 . S
C2736 C2741 1.397 . S
C2737 H2700 0.931 . S
C2737 C2736 1.377 . S
C2737 C2738 1.376 . S
C2738 H2701 0.930 . S
C2738 C2737 1.376 . S
C2738 C2739 1.376 . S
C2739 C2738 1.376 . S
C2739 C2740 1.378 . S
C2739 C2766 1.486 . S
C2740 H2702 0.930 . S
C2740 C2739 1.378 . S
C2740 C2741 1.376 . S
C2741 H2703 0.929 . S
C2741 C2736 1.397 . S
C2741 C2740 1.376 . S
C2742 C2726 1.509 . S
C2742 C2743 1.391 . S
C2742 C2747 1.386 . S
C2743 H2704 0.930 . S
C2743 C2742 1.391 . S
C2743 C2744 1.375 . S
C2744 H2705 0.931 . S
C2744 C2743 1.375 . S
C2744 C2745 1.375 . S
C2745 C2744 1.375 . S
C2745 C2746 1.361 . S
C2746 H2706 0.930 . S
C2746 C2745 1.361 . S
C2746 C2747 1.399 . S
C2747 H2707 0.929 . S
C2747 C2742 1.386 . S
C2747 C2746 1.399 . S
C2748 C2727 1.485 . S
C2748 C2749 1.394 . S
C2748 C2753 1.360 . S
C2749 H2708 0.931 . S
C2749 C2748 1.394 . S
C2749 C2750 1.372 . S
C2750 H2709 0.930 . S
C2750 C2749 1.372 . S
C2750 C2751 1.397 . S
C2751 C2750 1.397 . S
C2751 C2752 1.390 . S
C2751 C2767 1.476 . S
C2752 H2710 0.930 . S
C2752 C2751 1.390 . S
C2752 C2753 1.366 . S
C2753 H2711 0.932 . S
C2753 C2748 1.360 . S
C2753 C2752 1.366 . S
C2754 C2728 1.490 . S
C2754 C2755 1.380 . S
C2754 C2759 1.386 . S
C2755 H2712 0.930 . S
C2755 C2754 1.380 . S
C2755 C2756 1.381 . S
C2756 H2713 0.929 . S
C2756 C2755 1.381 . S
C2756 C2757 1.371 . S
C2757 C2756 1.371 . S
C2757 C2758 1.380 . S
C2758 H2714 0.931 . S
C2758 C2757 1.380 . S
C2758 C2759 1.387 . S
C2759 H2715 0.930 . S
C2759 C2754 1.386 . S
C2759 C2758 1.387 . S
C2760 C2729 1.519 . S
C2760 C2761 1.377 . S
C2760 C2765 1.361 . S
C2761 H2716 0.929 . S
C2761 C2760 1.377 . S
C2761 C2762 1.386 . S
C2762 H2717 0.931 . S
C2762 C2761 1.386 . S
C2762 C2763 1.363 . S
C2763 C2762 1.363 . S
C2763 C2764 1.385 . S
C2764 H2718 0.930 . S
C2764 C2763 1.385 . S
C2764 C2765 1.396 . S
C2765 H2719 0.929 . S
C2765 C2760 1.361 . S
C2765 C2764 1.396 . S
C2766 O2720 1.300 . S
C2766 O2721 1.209 . S
C2766 C2739 1.486 . S
C2767 O2722 1.199 . S
C2767 O2723 1.297 . S
C2767 C2751 1.476 . S
H2768 O2794 0.856 . S
H2769 O2797 0.854 . S
H2770 C2805 0.930 . S
H2771 C2806 0.930 . S
H2772 C2808 0.930 . S
H2773 C2809 0.930 . S
H2774 C2811 0.931 . S
H2775 C2812 0.930 . S
H2776 C2814 0.930 . S
H2777 C2815 0.929 . S
H2778 C2817 0.930 . S
H2779 C2818 0.931 . S
H2780 C2820 0.930 . S
H2781 C2821 0.929 . S
H2782 C2823 0.931 . S
H2783 C2824 0.930 . S
H2784 C2826 0.930 . S
H2785 C2827 0.932 . S
H2786 C2829 0.930 . S
H2787 C2830 0.929 . S
H2788 C2832 0.931 . S
H2789 C2833 0.930 . S
H2790 C2835 0.929 . S
H2791 C2836 0.931 . S
H2792 C2838 0.930 . S
H2793 C2839 0.929 . S
O2794 H2768 0.856 . S
O2794 C2840 1.300 . S
O2795 C2840 1.209 . S
O2796 C2841 1.199 . S
O2797 H2769 0.854 . S
O2797 C2841 1.297 . S
C2798 C2799 1.404 . S
C2798 C2803 1.397 . S
C2798 C2804 1.492 . S
C2799 C2798 1.404 . S
C2799 C2800 1.396 . S
C2799 C2810 1.492 . S
C2800 C2799 1.396 . S
C2800 C2801 1.397 . S
C2800 C2816 1.509 . S
C2801 C2800 1.397 . S
C2801 C2802 1.412 . S
C2801 C2822 1.485 . S
C2802 C2801 1.412 . S
C2802 C2803 1.388 . S
C2802 C2828 1.490 . S
C2803 C2798 1.397 . S
C2803 C2802 1.388 . S
C2803 C2834 1.519 . S
C2804 C2798 1.492 . S
C2804 C2805 1.363 . S
C2804 C2809 1.390 . S
C2805 H2770 0.930 . S
C2805 C2804 1.363 . S
C2805 C2806 1.372 . S
C2806 H2771 0.930 . S
C2806 C2805 1.372 . S
C2806 C2807 1.383 . S
C2807 C2806 1.383 . S
C2807 C2808 1.395 . S
C2808 H2772 0.930 . S
C2808 C2807 1.395 . S
C2808 C2809 1.362 . S
C2809 H2773 0.930 . S
C2809 C2804 1.390 . S
C2809 C2808 1.362 . S
C2810 C2799 1.492 . S
C2810 C2811 1.377 . S
C2810 C2815 1.397 . S
C2811 H2774 0.931 . S
C2811 C2810 1.377 . S
C2811 C2812 1.376 . S
C2812 H2775 0.930 . S
C2812 C2811 1.376 . S
C2812 C2813 1.376 . S
C2813 C2812 1.376 . S
C2813 C2814 1.378 . S
C2813 C2840 1.486 . S
C2814 H2776 0.930 . S
C2814 C2813 1.378 . S
C2814 C2815 1.376 . S
C2815 H2777 0.929 . S
C2815 C2810 1.397 . S
C2815 C2814 1.376 . S
C2816 C2800 1.509 . S
C2816 C2817 1.391 . S
C2816 C2821 1.386 . S
C2817 H2778 0.930 . S
C2817 C2816 1.391 . S
C2817 C2818 1.375 . S
C2818 H2779 0.931 . S
C2818 C2817 1.375 . S
C2818 C2819 1.375 . S
C2819 C2818 1.375 . S
C2819 C2820 1.361 . S
C2820 H2780 0.930 . S
C2820 C2819 1.361 . S
C2820 C2821 1.399 . S
C2821 H2781 0.929 . S
C2821 C2816 1.386 . S
C2821 C2820 1.399 . S
C2822 C2801 1.485 . S
C2822 C2823 1.394 . S
C2822 C2827 1.360 . S
C2823 H2782 0.931 . S
C2823 C2822 1.394 . S
C2823 C2824 1.372 . S
C2824 H2783 0.930 . S
C2824 C2823 1.372 . S
C2824 C2825 1.397 . S
C2825 C2824 1.397 . S
C2825 C2826 1.390 . S
C2825 C2841 1.476 . S
C2826 H2784 0.930 . S
C2826 C2825 1.390 . S
C2826 C2827 1.366 . S
C2827 H2785 0.932 . S
C2827 C2822 1.360 . S
C2827 C2826 1.366 . S
C2828 C2802 1.490 . S
C2828 C2829 1.380 . S
C2828 C2833 1.386 . S
C2829 H2786 0.930 . S
C2829 C2828 1.380 . S
C2829 C2830 1.381 . S
C2830 H2787 0.929 . S
C2830 C2829 1.381 . S
C2830 C2831 1.371 . S
C2831 C2830 1.371 . S
C2831 C2832 1.380 . S
C2832 H2788 0.931 . S
C2832 C2831 1.380 . S
C2832 C2833 1.387 . S
C2833 H2789 0.930 . S
C2833 C2828 1.386 . S
C2833 C2832 1.387 . S
C2834 C2803 1.519 . S
C2834 C2835 1.377 . S
C2834 C2839 1.361 . S
C2835 H2790 0.929 . S
C2835 C2834 1.377 . S
C2835 C2836 1.386 . S
C2836 H2791 0.931 . S
C2836 C2835 1.386 . S
C2836 C2837 1.363 . S
C2837 C2836 1.363 . S
C2837 C2838 1.385 . S
C2838 H2792 0.930 . S
C2838 C2837 1.385 . S
C2838 C2839 1.396 . S
C2839 H2793 0.929 . S
C2839 C2834 1.361 . S
C2839 C2838 1.396 . S
C2840 O2794 1.300 . S
C2840 O2795 1.209 . S
C2840 C2813 1.486 . S
C2841 O2796 1.199 . S
C2841 O2797 1.297 . S
C2841 C2825 1.476 . S
H2842 O2868 0.856 . S
H2843 O2871 0.854 . S
H2844 C2879 0.930 . S
H2845 C2880 0.930 . S
H2846 C2882 0.930 . S
H2847 C2883 0.930 . S
H2848 C2885 0.931 . S
H2849 C2886 0.930 . S
H2850 C2888 0.930 . S
H2851 C2889 0.929 . S
H2852 C2891 0.930 . S
H2853 C2892 0.931 . S
H2854 C2894 0.930 . S
H2855 C2895 0.929 . S
H2856 C2897 0.931 . S
H2857 C2898 0.930 . S
H2858 C2900 0.930 . S
H2859 C2901 0.932 . S
H2860 C2903 0.930 . S
H2861 C2904 0.929 . S
H2862 C2906 0.931 . S
H2863 C2907 0.930 . S
H2864 C2909 0.929 . S
H2865 C2910 0.931 . S
H2866 C2912 0.930 . S
H2867 C2913 0.929 . S
O2868 H2842 0.856 . S
O2868 C2914 1.300 . S
O2869 C2914 1.209 . S
O2870 C2915 1.199 . S
O2871 H2843 0.854 . S
O2871 C2915 1.297 . S
C2872 C2873 1.404 . S
C2872 C2877 1.397 . S
C2872 C2878 1.492 . S
C2873 C2872 1.404 . S
C2873 C2874 1.396 . S
C2873 C2884 1.492 . S
C2874 C2873 1.396 . S
C2874 C2875 1.397 . S
C2874 C2890 1.509 . S
C2875 C2874 1.397 . S
C2875 C2876 1.412 . S
C2875 C2896 1.485 . S
C2876 C2875 1.412 . S
C2876 C2877 1.388 . S
C2876 C2902 1.490 . S
C2877 C2872 1.397 . S
C2877 C2876 1.388 . S
C2877 C2908 1.519 . S
C2878 C2872 1.492 . S
C2878 C2879 1.363 . S
C2878 C2883 1.390 . S
C2879 H2844 0.930 . S
C2879 C2878 1.363 . S
C2879 C2880 1.372 . S
C2880 H2845 0.930 . S
C2880 C2879 1.372 . S
C2880 C2881 1.383 . S
C2881 C2880 1.383 . S
C2881 C2882 1.395 . S
C2882 H2846 0.930 . S
C2882 C2881 1.395 . S
C2882 C2883 1.362 . S
C2883 H2847 0.930 . S
C2883 C2878 1.390 . S
C2883 C2882 1.362 . S
C2884 C2873 1.492 . S
C2884 C2885 1.377 . S
C2884 C2889 1.397 . S
C2885 H2848 0.931 . S
C2885 C2884 1.377 . S
C2885 C2886 1.376 . S
C2886 H2849 0.930 . S
C2886 C2885 1.376 . S
C2886 C2887 1.376 . S
C2887 C2886 1.376 . S
C2887 C2888 1.378 . S
C2887 C2914 1.486 . S
C2888 H2850 0.930 . S
C2888 C2887 1.378 . S
C2888 C2889 1.376 . S
C2889 H2851 0.929 . S
C2889 C2884 1.397 . S
C2889 C2888 1.376 . S
C2890 C2874 1.509 . S
C2890 C2891 1.391 . S
C2890 C2895 1.386 . S
C2891 H2852 0.930 . S
C2891 C2890 1.391 . S
C2891 C2892 1.375 . S
C2892 H2853 0.931 . S
C2892 C2891 1.375 . S
C2892 C2893 1.375 . S
C2893 C2892 1.375 . S
C2893 C2894 1.361 . S
C2894 H2854 0.930 . S
C2894 C2893 1.361 . S
C2894 C2895 1.399 . S
C2895 H2855 0.929 . S
C2895 C2890 1.386 . S
C2895 C2894 1.399 . S
C2896 C2875 1.485 . S
C2896 C2897 1.394 . S
C2896 C2901 1.360 . S
C2897 H2856 0.931 . S
C2897 C2896 1.394 . S
C2897 C2898 1.372 . S
C2898 H2857 0.930 . S
C2898 C2897 1.372 . S
C2898 C2899 1.397 . S
C2899 C2898 1.397 . S
C2899 C2900 1.390 . S
C2899 C2915 1.476 . S
C2900 H2858 0.930 . S
C2900 C2899 1.390 . S
C2900 C2901 1.366 . S
C2901 H2859 0.932 . S
C2901 C2896 1.360 . S
C2901 C2900 1.366 . S
C2902 C2876 1.490 . S
C2902 C2903 1.380 . S
C2902 C2907 1.386 . S
C2903 H2860 0.930 . S
C2903 C2902 1.380 . S
C2903 C2904 1.381 . S
C2904 H2861 0.929 . S
C2904 C2903 1.381 . S
C2904 C2905 1.371 . S
C2905 C2904 1.371 . S
C2905 C2906 1.380 . S
C2906 H2862 0.931 . S
C2906 C2905 1.380 . S
C2906 C2907 1.387 . S
C2907 H2863 0.930 . S
C2907 C2902 1.386 . S
C2907 C2906 1.387 . S
C2908 C2877 1.519 . S
C2908 C2909 1.377 . S
C2908 C2913 1.361 . S
C2909 H2864 0.929 . S
C2909 C2908 1.377 . S
C2909 C2910 1.386 . S
C2910 H2865 0.931 . S
C2910 C2909 1.386 . S
C2910 C2911 1.363 . S
C2911 C2910 1.363 . S
C2911 C2912 1.385 . S
C2912 H2866 0.930 . S
C2912 C2911 1.385 . S
C2912 C2913 1.396 . S
C2913 H2867 0.929 . S
C2913 C2908 1.361 . S
C2913 C2912 1.396 . S
C2914 O2868 1.300 . S
C2914 O2869 1.209 . S
C2914 C2887 1.486 . S
C2915 O2870 1.199 . S
C2915 O2871 1.297 . S
C2915 C2899 1.476 . S
C2916 C2917 1.349 . S
C2916 C2918 1.327 . S
C2916 H2941 0.950 . S
C2917 C2916 1.349 . S
C2917 C2933 1.349 . S
C2918 C2916 1.327 . S
C2918 C2937 1.429 . S
C2918 H2942 0.950 . S
C2919 C2936 1.574 . S
C2919 C2938 1.368 . S
C2919 H2943 0.949 . S
H2920 C2924 0.949 . S
C2921 C2922 1.349 . S
C2921 C2923 1.327 . S
C2921 H2944 0.950 . S
C2922 C2921 1.349 . S
C2922 C2934 1.349 . S
C2923 C2921 1.327 . S
C2923 C2939 1.429 . S
C2923 H2945 0.950 . S
C2924 H2920 0.949 . S
C2924 C2932 1.574 . S
C2924 C2940 1.368 . S
H2925 C2933 0.950 . S
H2926 C2931 0.950 . S
H2927 C2932 0.949 . S
H2928 C2934 0.950 . S
H2929 C2935 0.950 . S
H2930 C2936 0.949 . S
C2931 H2926 0.950 . S
C2931 C2933 1.327 . S
C2931 C2937 1.429 . S
C2932 C2924 1.574 . S
C2932 H2927 0.949 . S
C2932 C2938 1.368 . S
C2933 C2917 1.349 . S
C2933 H2925 0.950 . S
C2933 C2931 1.327 . S
C2934 C2922 1.349 . S
C2934 H2928 0.950 . S
C2934 C2935 1.327 . S
C2935 H2929 0.950 . S
C2935 C2934 1.327 . S
C2935 C2939 1.429 . S
C2936 C2919 1.574 . S
C2936 H2930 0.949 . S
C2936 C2940 1.368 . S
C2937 C2918 1.429 . S
C2937 C2931 1.429 . S
C2937 C2938 1.523 . S
C2938 C2919 1.368 . S
C2938 C2932 1.368 . S
C2938 C2937 1.523 . S
C2939 C2923 1.429 . S
C2939 C2935 1.429 . S
C2939 C2940 1.523 . S
C2940 C2924 1.368 . S
C2940 C2936 1.368 . S
C2940 C2939 1.523 . S
H2941 C2916 0.950 . S
H2942 C2918 0.950 . S
H2943 C2919 0.949 . S
H2944 C2921 0.950 . S
H2945 C2923 0.950 . S
C2946 C2947 1.349 . S
C2946 C2948 1.327 . S
C2946 H2971 0.950 . S
C2947 C2946 1.349 . S
C2947 C2963 1.349 . S
C2948 C2946 1.327 . S
C2948 C2967 1.429 . S
C2948 H2972 0.950 . S
C2949 C2966 1.574 . S
C2949 C2968 1.368 . S
C2949 H2973 0.949 . S
H2950 C2954 0.949 . S
C2951 C2952 1.349 . S
C2951 C2953 1.327 . S
C2951 H2974 0.950 . S
C2952 C2951 1.349 . S
C2952 C2964 1.349 . S
C2953 C2951 1.327 . S
C2953 C2969 1.429 . S
C2953 H2975 0.950 . S
C2954 H2950 0.949 . S
C2954 C2962 1.574 . S
C2954 C2970 1.368 . S
H2955 C2963 0.950 . S
H2956 C2961 0.950 . S
H2957 C2962 0.949 . S
H2958 C2964 0.950 . S
H2959 C2965 0.950 . S
H2960 C2966 0.949 . S
C2961 H2956 0.950 . S
C2961 C2963 1.327 . S
C2961 C2967 1.429 . S
C2962 C2954 1.574 . S
C2962 H2957 0.949 . S
C2962 C2968 1.368 . S
C2963 C2947 1.349 . S
C2963 H2955 0.950 . S
C2963 C2961 1.327 . S
C2964 C2952 1.349 . S
C2964 H2958 0.950 . S
C2964 C2965 1.327 . S
C2965 H2959 0.950 . S
C2965 C2964 1.327 . S
C2965 C2969 1.429 . S
C2966 C2949 1.574 . S
C2966 H2960 0.949 . S
C2966 C2970 1.368 . S
C2967 C2948 1.429 . S
C2967 C2961 1.429 . S
C2967 C2968 1.523 . S
C2968 C2949 1.368 . S
C2968 C2962 1.368 . S
C2968 C2967 1.523 . S
C2969 C2953 1.429 . S
C2969 C2965 1.429 . S
C2969 C2970 1.523 . S
C2970 C2954 1.368 . S
C2970 C2966 1.368 . S
C2970 C2969 1.523 . S
H2971 C2946 0.950 . S
H2972 C2948 0.950 . S
H2973 C2949 0.949 . S
H2974 C2951 0.950 . S
H2975 C2953 0.950 . S
C2976 C2977 1.349 . S
C2976 C2978 1.327 . S
C2976 H3001 0.950 . S
C2977 C2976 1.349 . S
C2977 C2993 1.349 . S
C2978 C2976 1.327 . S
C2978 C2997 1.429 . S
C2978 H3002 1.050 . S
C2979 C2996 1.574 . S
C2979 C2998 1.368 . S
C2979 H3003 0.949 . S
H2980 C2984 0.949 1_565 S
C2981 C2982 1.349 . S
C2981 C2983 1.327 . S
C2981 H3004 0.950 . S
C2982 C2981 1.349 . S
C2982 C2994 1.349 . S
C2983 C2981 1.327 . S
C2983 C2999 1.429 . S
C2983 H3005 0.950 . S
C2984 H2980 0.949 1_545 S
C2984 C2992 1.574 . S
C2984 C3000 1.368 . S
H2985 C2993 0.950 . S
H2986 C2991 0.950 . S
H2987 C2992 0.911 1_565 S
H2988 C2994 0.950 1_565 S
H2989 C2995 0.950 1_565 S
H2990 C2996 0.949 . S
C2991 H2986 0.950 . S
C2991 C2993 1.327 . S
C2991 C2997 1.429 . S
C2992 C2984 1.574 . S
C2992 H2987 0.911 1_545 S
C2992 C2998 1.368 . S
C2993 C2977 1.349 . S
C2993 H2985 0.950 . S
C2993 C2991 1.327 . S
C2994 C2982 1.349 . S
C2994 H2988 0.950 1_545 S
C2994 C2995 1.327 . S
C2995 H2989 0.950 1_545 S
C2995 C2994 1.327 . S
C2995 C2999 1.429 . S
C2996 C2979 1.574 . S
C2996 H2990 0.949 . S
C2996 C3000 1.368 . S
C2997 C2978 1.429 . S
C2997 C2991 1.429 . S
C2997 C2998 1.523 . S
C2998 C2979 1.368 . S
C2998 C2992 1.368 . S
C2998 C2997 1.523 . S
C2999 C2983 1.429 . S
C2999 C2995 1.429 . S
C2999 C3000 1.523 . S
C3000 C2984 1.368 . S
C3000 C2996 1.368 . S
C3000 C2999 1.523 . S
H3001 C2976 0.950 . S
H3002 C2978 1.050 . S
H3003 C2979 0.949 . S
H3004 C2981 0.950 . S
H3005 C2983 0.950 . S
C3006 C3007 1.349 . S
C3006 C3008 1.327 . S
C3006 H3031 0.950 . S
C3007 C3006 1.349 . S
C3007 C3023 1.349 . S
C3008 C3006 1.327 . S
C3008 C3027 1.429 . S
C3008 H3032 0.950 . S
C3009 C3026 1.574 . S
C3009 C3028 1.368 . S
C3009 H3033 0.949 . S
H3010 C3014 0.949 . S
C3011 C3012 1.349 . S
C3011 C3013 1.327 . S
C3011 H3034 0.950 1_565 S
C3012 C3011 1.349 . S
C3012 C3024 1.349 . S
C3013 C3011 1.327 . S
C3013 C3029 1.429 . S
C3013 H3035 0.950 1_565 S
C3014 H3010 0.949 . S
C3014 C3022 1.574 . S
C3014 C3030 1.368 . S
H3015 C3023 0.950 . S
H3016 C3021 0.950 . S
H3017 C3022 0.949 . S
H3018 C3024 0.950 . S
H3019 C3025 0.950 . S
H3020 C3026 0.939 1_545 S
C3021 H3016 0.950 . S
C3021 C3023 1.327 . S
C3021 C3027 1.429 . S
C3022 C3014 1.574 . S
C3022 H3017 0.949 . S
C3022 C3028 1.368 . S
C3023 C3007 1.349 . S
C3023 H3015 0.950 . S
C3023 C3021 1.327 . S
C3024 C3012 1.349 . S
C3024 H3018 0.950 . S
C3024 C3025 1.327 . S
C3025 H3019 0.950 . S
C3025 C3024 1.327 . S
C3025 C3029 1.429 . S
C3026 C3009 1.574 . S
C3026 H3020 0.939 1_565 S
C3026 C3030 1.368 . S
C3027 C3008 1.429 . S
C3027 C3021 1.429 . S
C3027 C3028 1.523 . S
C3028 C3009 1.368 . S
C3028 C3022 1.368 . S
C3028 C3027 1.523 . S
C3029 C3013 1.429 . S
C3029 C3025 1.429 . S
C3029 C3030 1.523 . S
C3030 C3014 1.368 . S
C3030 C3026 1.368 . S
C3030 C3029 1.523 . S
H3031 C3006 0.950 . S
H3032 C3008 0.950 . S
H3033 C3009 0.949 . S
H3034 C3011 0.950 1_545 S
H3035 C3013 0.950 1_545 S
C3036 C3037 1.349 . S
C3036 C3038 1.327 . S
C3036 H3061 0.950 . S
C3037 C3036 1.349 . S
C3037 C3053 1.349 . S
C3038 C3036 1.327 . S
C3038 C3057 1.429 . S
C3038 H3062 0.950 . S
C3039 C3056 1.574 . S
C3039 C3058 1.368 . S
C3039 H3063 0.949 . S
H3040 C3044 0.949 . S
C3041 C3042 1.349 . S
C3041 C3043 1.327 . S
C3041 H3064 0.950 . S
C3042 C3041 1.349 . S
C3042 C3054 1.349 . S
C3043 C3041 1.327 . S
C3043 C3059 1.429 . S
C3043 H3065 0.950 . S
C3044 H3040 0.949 . S
C3044 C3052 1.574 . S
C3044 C3060 1.368 . S
H3045 C3053 0.950 . S
H3046 C3051 0.950 . S
H3047 C3052 0.949 . S
H3048 C3054 0.950 1_655 S
H3049 C3055 0.949 . S
H3050 C3056 0.949 . S
C3051 H3046 0.950 . S
C3051 C3053 1.327 . S
C3051 C3057 1.429 . S
C3052 C3044 1.574 . S
C3052 H3047 0.949 . S
C3052 C3058 1.368 . S
C3053 C3037 1.349 . S
C3053 H3045 0.950 . S
C3053 C3051 1.327 . S
C3054 C3042 1.349 . S
C3054 H3048 0.950 1_455 S
C3054 C3055 1.327 . S
C3055 H3049 0.949 . S
C3055 C3054 1.327 . S
C3055 C3059 1.429 . S
C3056 C3039 1.574 . S
C3056 H3050 0.949 . S
C3056 C3060 1.368 . S
C3057 C3038 1.429 . S
C3057 C3051 1.429 . S
C3057 C3058 1.523 . S
C3058 C3039 1.368 . S
C3058 C3052 1.368 . S
C3058 C3057 1.523 . S
C3059 C3043 1.429 . S
C3059 C3055 1.429 . S
C3059 C3060 1.523 . S
C3060 C3044 1.368 . S
C3060 C3056 1.368 . S
C3060 C3059 1.523 . S
H3061 C3036 0.950 . S
H3062 C3038 0.950 . S
H3063 C3039 0.949 . S
H3064 C3041 0.950 . S
H3065 C3043 0.950 . S
C3066 C3067 1.349 . S
C3066 C3068 1.327 . S
C3066 H3091 0.950 . S
C3067 C3066 1.349 . S
C3067 C3083 1.349 . S
C3068 C3066 1.327 . S
C3068 C3087 1.429 . S
C3068 H3092 0.950 . S
C3069 C3086 1.574 . S
C3069 C3088 1.368 . S
C3069 H3093 0.949 . S
H3070 C3074 0.949 . S
C3071 C3072 1.349 . S
C3071 C3073 1.327 . S
C3071 H3094 0.950 . S
C3072 C3071 1.349 . S
C3072 C3084 1.349 . S
C3073 C3071 1.327 . S
C3073 C3089 1.429 . S
C3073 H3095 0.950 . S
C3074 H3070 0.949 . S
C3074 C3082 1.574 . S
C3074 C3090 1.368 . S
H3075 C3083 0.950 . S
H3076 C3081 0.950 . S
H3077 C3082 0.949 . S
H3078 C3084 0.950 . S
H3079 C3085 0.950 . S
H3080 C3086 0.949 . S
C3081 H3076 0.950 . S
C3081 C3083 1.327 . S
C3081 C3087 1.429 . S
C3082 C3074 1.574 . S
C3082 H3077 0.949 . S
C3082 C3088 1.368 . S
C3083 C3067 1.349 . S
C3083 H3075 0.950 . S
C3083 C3081 1.327 . S
C3084 C3072 1.349 . S
C3084 H3078 0.950 . S
C3084 C3085 1.327 . S
C3085 H3079 0.950 . S
C3085 C3084 1.327 . S
C3085 C3089 1.429 . S
C3086 C3069 1.574 . S
C3086 H3080 0.949 . S
C3086 C3090 1.368 . S
C3087 C3068 1.429 . S
C3087 C3081 1.429 . S
C3087 C3088 1.523 . S
C3088 C3069 1.368 . S
C3088 C3082 1.368 . S
C3088 C3087 1.523 . S
C3089 C3073 1.429 . S
C3089 C3085 1.429 . S
C3089 C3090 1.523 . S
C3090 C3074 1.368 . S
C3090 C3086 1.368 . S
C3090 C3089 1.523 . S
H3091 C3066 0.950 . S
H3092 C3068 0.950 . S
H3093 C3069 0.949 . S
H3094 C3071 0.950 . S
H3095 C3073 0.950 . S
C3096 C3097 1.349 . S
C3096 C3098 1.327 . S
C3096 H3121 0.950 . S
C3097 C3096 1.349 . S
C3097 C3113 1.349 . S
C3098 C3096 1.327 . S
C3098 C3117 1.429 . S
C3098 H3122 0.950 . S
C3099 C3116 1.574 . S
C3099 C3118 1.368 . S
C3099 H3123 0.949 . S
H3100 C3104 0.943 1_655 S
C3101 C3102 1.349 . S
C3101 C3103 1.327 . S
C3101 H3124 0.950 . S
C3102 C3101 1.349 . S
C3102 C3114 1.349 1_455 S
C3103 C3101 1.327 . S
C3103 C3119 1.429 . S
C3103 H3125 0.950 . S
C3104 H3100 0.943 1_455 S
C3104 C3112 1.555 . S
C3104 C3120 1.402 . S
H3105 C3113 0.950 . S
H3106 C3111 0.950 . S
H3107 C3112 0.949 1_655 S
H3108 C3114 0.950 . S
H3109 C3115 0.950 . S
H3110 C3116 0.949 . S
C3111 H3106 0.950 . S
C3111 C3113 1.327 . S
C3111 C3117 1.429 . S
C3112 C3104 1.555 . S
C3112 H3107 0.949 1_455 S
C3112 C3118 1.368 . S
C3113 C3097 1.349 . S
C3113 H3105 0.950 . S
C3113 C3111 1.327 . S
C3114 C3102 1.349 1_655 S
C3114 H3108 0.950 . S
C3114 C3115 1.327 . S
C3115 H3109 0.950 . S
C3115 C3114 1.327 . S
C3115 C3119 1.429 1_655 S
C3116 C3099 1.574 . S
C3116 H3110 0.949 . S
C3116 C3120 1.368 . S
C3117 C3098 1.429 . S
C3117 C3111 1.429 . S
C3117 C3118 1.523 . S
C3118 C3099 1.368 . S
C3118 C3112 1.368 . S
C3118 C3117 1.523 . S
C3119 C3103 1.429 . S
C3119 C3115 1.429 1_455 S
C3119 C3120 1.523 . S
C3120 C3104 1.402 . S
C3120 C3116 1.368 . S
C3120 C3119 1.523 . S
H3121 C3096 0.950 . S
H3122 C3098 0.950 . S
H3123 C3099 0.949 . S
H3124 C3101 0.950 . S
H3125 C3103 0.950 . S
C3126 C3127 1.349 . S
C3126 C3128 1.327 . S
C3126 H3151 0.950 . S
C3127 C3126 1.349 . S
C3127 C3143 1.349 . S
C3128 C3126 1.327 . S
C3128 C3147 1.429 . S
C3128 H3152 0.950 . S
C3129 C3146 1.574 . S
C3129 C3148 1.368 . S
C3129 H3153 0.949 . S
H3130 C3134 0.949 . S
C3131 C3132 1.349 . S
C3131 C3133 1.327 . S
C3131 H3154 0.950 . S
C3132 C3131 1.349 . S
C3132 C3144 1.349 . S
C3133 C3131 1.327 . S
C3133 C3149 1.429 . S
C3133 H3155 0.950 . S
C3134 H3130 0.949 . S
C3134 C3142 1.574 . S
C3134 C3150 1.368 . S
H3135 C3143 0.950 . S
H3136 C3141 0.950 . S
H3137 C3142 0.949 . S
H3138 C3144 0.950 . S
H3139 C3145 0.950 . S
H3140 C3146 0.949 . S
C3141 H3136 0.950 . S
C3141 C3143 1.327 . S
C3141 C3147 1.429 . S
C3142 C3134 1.574 . S
C3142 H3137 0.949 . S
C3142 C3148 1.368 . S
C3143 C3127 1.349 . S
C3143 H3135 0.950 . S
C3143 C3141 1.327 . S
C3144 C3132 1.349 . S
C3144 H3138 0.950 . S
C3144 C3145 1.327 . S
C3145 H3139 0.950 . S
C3145 C3144 1.327 . S
C3145 C3149 1.429 . S
C3146 C3129 1.574 . S
C3146 H3140 0.949 . S
C3146 C3150 1.368 . S
C3147 C3128 1.429 . S
C3147 C3141 1.429 . S
C3147 C3148 1.523 . S
C3148 C3129 1.368 . S
C3148 C3142 1.368 . S
C3148 C3147 1.523 . S
C3149 C3133 1.429 . S
C3149 C3145 1.429 . S
C3149 C3150 1.523 . S
C3150 C3134 1.368 . S
C3150 C3146 1.368 . S
C3150 C3149 1.523 . S
H3151 C3126 0.950 . S
H3152 C3128 0.950 . S
H3153 C3129 0.949 . S
H3154 C3131 0.950 . S
H3155 C3133 0.950 . S
C3156 C3157 1.349 . S
C3156 C3158 1.327 . S
C3156 H3181 0.945 1_565 S
C3157 C3156 1.349 . S
C3157 C3173 1.349 . S
C3158 C3156 1.327 . S
C3158 C3177 1.429 . S
C3158 H3182 0.950 1_565 S
C3159 C3176 1.574 . S
C3159 C3178 1.368 . S
C3159 H3183 0.949 . S
H3160 C3164 0.949 . S
C3161 C3162 1.355 . S
C3161 C3163 1.327 . S
C3161 H3184 0.950 . S
C3162 C3161 1.355 . S
C3162 C3174 1.346 1_565 S
C3163 C3161 1.327 . S
C3163 C3179 1.429 . S
C3163 H3185 0.950 . S
C3164 H3160 0.949 . S
C3164 C3172 1.626 . S
C3164 C3180 1.368 1_545 S
H3165 C3173 0.950 . S
H3166 C3171 0.950 . S
H3167 C3172 1.002 . S
H3168 C3174 0.950 . S
H3169 C3175 0.950 . S
H3170 C3176 0.949 . S
C3171 H3166 0.950 . S
C3171 C3173 1.327 . S
C3171 C3177 1.429 . S
C3172 C3164 1.626 . S
C3172 H3167 1.002 . S
C3172 C3178 1.265 1_545 S
C3173 C3157 1.349 . S
C3173 H3165 0.950 . S
C3173 C3171 1.327 . S
C3174 C3162 1.346 1_545 S
C3174 H3168 0.950 . S
C3174 C3175 1.327 . S
C3175 H3169 0.950 . S
C3175 C3174 1.327 . S
C3175 C3179 1.429 1_545 S
C3176 C3159 1.574 . S
C3176 H3170 0.949 . S
C3176 C3180 1.368 . S
C3177 C3158 1.429 . S
C3177 C3171 1.429 . S
C3177 C3178 1.523 . S
C3178 C3159 1.368 . S
C3178 C3172 1.265 1_565 S
C3178 C3177 1.523 . S
C3179 C3163 1.429 . S
C3179 C3175 1.429 1_565 S
C3179 C3180 1.523 . S
C3180 C3164 1.368 1_565 S
C3180 C3176 1.368 . S
C3180 C3179 1.523 . S
H3181 C3156 0.945 1_545 S
H3182 C3158 0.950 1_545 S
H3183 C3159 0.949 . S
H3184 C3161 0.950 . S
H3185 C3163 0.950 . S
C3186 C3187 1.349 . S
C3186 C3188 1.327 . S
C3186 H3211 0.950 . S
C3187 C3186 1.349 . S
C3187 C3203 1.349 . S
C3188 C3186 1.327 . S
C3188 C3207 1.429 . S
C3188 H3212 0.950 . S
C3189 C3206 1.569 . S
C3189 C3208 1.368 . S
C3189 H3213 0.949 1_545 S
H3190 C3194 0.949 . S
C3191 C3192 1.349 1_565 S
C3191 C3193 1.327 . S
C3191 H3214 0.950 . S
C3192 C3191 1.349 1_545 S
C3192 C3204 1.349 . S
C3193 C3191 1.327 . S
C3193 C3209 1.429 1_565 S
C3193 H3215 0.950 . S
C3194 H3190 0.949 . S
C3194 C3202 1.574 . S
C3194 C3210 1.368 . S
H3195 C3203 0.950 . S
H3196 C3201 0.950 . S
H3197 C3202 0.949 . S
H3198 C3204 0.950 . S
H3199 C3205 0.950 . S
H3200 C3206 0.903 1_565 S
C3201 H3196 0.950 . S
C3201 C3203 1.327 . S
C3201 C3207 1.429 . S
C3202 C3194 1.574 . S
C3202 H3197 0.949 . S
C3202 C3208 1.368 . S
C3203 C3187 1.349 . S
C3203 H3195 0.950 . S
C3203 C3201 1.327 . S
C3204 C3192 1.349 . S
C3204 H3198 0.950 . S
C3204 C3205 1.327 . S
C3205 H3199 0.950 . S
C3205 C3204 1.327 . S
C3205 C3209 1.429 . S
C3206 C3189 1.569 . S
C3206 H3200 0.903 1_545 S
C3206 C3210 1.427 . S
C3207 C3188 1.429 . S
C3207 C3201 1.429 . S
C3207 C3208 1.523 . S
C3208 C3189 1.368 . S
C3208 C3202 1.368 . S
C3208 C3207 1.523 . S
C3209 C3193 1.429 1_545 S
C3209 C3205 1.429 . S
C3209 C3210 1.523 . S
C3210 C3194 1.368 . S
C3210 C3206 1.427 . S
C3210 C3209 1.523 . S
H3211 C3186 0.950 . S
H3212 C3188 0.950 . S
H3213 C3189 0.949 1_565 S
H3214 C3191 0.950 . S
H3215 C3193 0.950 . S
C3216 C3217 1.349 . S
C3216 C3218 1.327 . S
C3216 H3241 0.950 . S
C3217 C3216 1.349 . S
C3217 C3233 1.349 . S
C3218 C3216 1.327 . S
C3218 C3237 1.429 . S
C3218 H3242 0.950 . S
C3219 C3236 1.574 . S
C3219 C3238 1.368 . S
C3219 H3243 0.949 . S
H3220 C3224 0.949 . S
C3221 C3222 1.349 . S
C3221 C3223 1.327 . S
C3221 H3244 0.950 . S
C3222 C3221 1.349 . S
C3222 C3234 1.333 1_655 S
C3223 C3221 1.327 . S
C3223 C3239 1.429 . S
C3223 H3245 0.950 . S
C3224 H3220 0.949 . S
C3224 C3232 1.574 . S
C3224 C3240 1.368 . S
H3225 C3233 0.950 . S
H3226 C3231 0.950 . S
H3227 C3232 0.949 . S
H3228 C3234 0.997 . S
H3229 C3235 0.946 1_455 S
H3230 C3236 0.949 . S
C3231 H3226 0.950 . S
C3231 C3233 1.327 . S
C3231 C3237 1.429 . S
C3232 C3224 1.574 . S
C3232 H3227 0.949 . S
C3232 C3238 1.368 . S
C3233 C3217 1.349 . S
C3233 H3225 0.950 . S
C3233 C3231 1.327 . S
C3234 C3222 1.333 1_455 S
C3234 H3228 0.997 . S
C3234 C3235 1.300 1_455 S
C3235 H3229 0.946 1_655 S
C3235 C3234 1.300 1_655 S
C3235 C3239 1.429 . S
C3236 C3219 1.574 . S
C3236 H3230 0.949 . S
C3236 C3240 1.368 . S
C3237 C3218 1.429 . S
C3237 C3231 1.429 . S
C3237 C3238 1.523 . S
C3238 C3219 1.368 . S
C3238 C3232 1.368 . S
C3238 C3237 1.523 . S
C3239 C3223 1.429 . S
C3239 C3235 1.429 . S
C3239 C3240 1.523 . S
C3240 C3224 1.368 . S
C3240 C3236 1.368 . S
C3240 C3239 1.523 . S
H3241 C3216 0.950 . S
H3242 C3218 0.950 . S
H3243 C3219 0.949 . S
H3244 C3221 0.950 . S
H3245 C3223 0.950 . S
C3246 C3247 1.349 . S
C3246 C3248 1.327 . S
C3246 H3271 0.950 . S
C3247 C3246 1.349 . S
C3247 C3263 1.349 . S
C3248 C3246 1.327 . S
C3248 C3267 1.429 . S
C3248 H3272 0.950 . S
C3249 C3266 1.574 . S
C3249 C3268 1.368 . S
C3249 H3273 0.949 . S
H3250 C3254 0.949 . S
C3251 C3252 1.349 . S
C3251 C3253 1.327 . S
C3251 H3274 0.950 . S
C3252 C3251 1.349 . S
C3252 C3264 1.349 . S
C3253 C3251 1.327 . S
C3253 C3269 1.429 . S
C3253 H3275 0.950 . S
C3254 H3250 0.949 . S
C3254 C3262 1.574 . S
C3254 C3270 1.368 . S
H3255 C3263 0.950 . S
H3256 C3261 0.950 . S
H3257 C3262 0.949 . S
H3258 C3264 0.950 . S
H3259 C3265 0.950 . S
H3260 C3266 0.949 . S
C3261 H3256 0.950 . S
C3261 C3263 1.327 . S
C3261 C3267 1.429 . S
C3262 C3254 1.574 . S
C3262 H3257 0.949 . S
C3262 C3268 1.368 . S
C3263 C3247 1.349 . S
C3263 H3255 0.950 . S
C3263 C3261 1.327 . S
C3264 C3252 1.349 . S
C3264 H3258 0.950 . S
C3264 C3265 1.327 . S
C3265 H3259 0.950 . S
C3265 C3264 1.327 . S
C3265 C3269 1.429 . S
C3266 C3249 1.574 . S
C3266 H3260 0.949 . S
C3266 C3270 1.368 . S
C3267 C3248 1.429 . S
C3267 C3261 1.429 . S
C3267 C3268 1.523 . S
C3268 C3249 1.368 . S
C3268 C3262 1.368 . S
C3268 C3267 1.523 . S
C3269 C3253 1.429 . S
C3269 C3265 1.429 . S
C3269 C3270 1.523 . S
C3270 C3254 1.368 . S
C3270 C3266 1.368 . S
C3270 C3269 1.523 . S
H3271 C3246 0.950 . S
H3272 C3248 0.950 . S
H3273 C3249 0.949 . S
H3274 C3251 0.950 . S
H3275 C3253 0.950 . S
C3276 C3277 1.349 . S
C3276 C3278 1.327 . S
C3276 H3301 0.950 . S
C3277 C3276 1.349 . S
C3277 C3293 1.349 . S
C3278 C3276 1.327 . S
C3278 C3297 1.429 . S
C3278 H3302 0.950 . S
C3279 C3296 1.574 . S
C3279 C3298 1.368 . S
C3279 H3303 0.949 . S
H3280 C3284 0.949 . S
C3281 C3282 1.349 . S
C3281 C3283 1.327 . S
C3281 H3304 0.950 . S
C3282 C3281 1.349 . S
C3282 C3294 1.349 . S
C3283 C3281 1.327 . S
C3283 C3299 1.429 . S
C3283 H3305 0.950 . S
C3284 H3280 0.949 . S
C3284 C3292 1.574 . S
C3284 C3300 1.368 . S
H3285 C3293 0.950 . S
H3286 C3291 0.950 . S
H3287 C3292 0.949 . S
H3288 C3294 0.950 . S
H3289 C3295 0.950 . S
H3290 C3296 0.949 . S
C3291 H3286 0.950 . S
C3291 C3293 1.327 . S
C3291 C3297 1.429 . S
C3292 C3284 1.574 . S
C3292 H3287 0.949 . S
C3292 C3298 1.368 . S
C3293 C3277 1.349 . S
C3293 H3285 0.950 . S
C3293 C3291 1.327 . S
C3294 C3282 1.349 . S
C3294 H3288 0.950 . S
C3294 C3295 1.327 . S
C3295 H3289 0.950 . S
C3295 C3294 1.327 . S
C3295 C3299 1.429 . S
C3296 C3279 1.574 . S
C3296 H3290 0.949 . S
C3296 C3300 1.368 . S
C3297 C3278 1.429 . S
C3297 C3291 1.429 . S
C3297 C3298 1.523 . S
C3298 C3279 1.368 . S
C3298 C3292 1.368 . S
C3298 C3297 1.523 . S
C3299 C3283 1.429 . S
C3299 C3295 1.429 . S
C3299 C3300 1.523 . S
C3300 C3284 1.368 . S
C3300 C3296 1.368 . S
C3300 C3299 1.523 . S
H3301 C3276 0.950 . S
H3302 C3278 0.950 . S
H3303 C3279 0.949 . S
H3304 C3281 0.950 . S
H3305 C3283 0.950 . S
C3306 C3307 1.349 . S
C3306 C3308 1.327 . S
C3306 H3331 0.950 . S
C3307 C3306 1.349 . S
C3307 C3323 1.349 . S
C3308 C3306 1.327 . S
C3308 C3327 1.429 . S
C3308 H3332 0.950 . S
C3309 C3326 1.574 . S
C3309 C3328 1.368 . S
C3309 H3333 0.949 . S
H3310 C3314 0.949 . S
C3311 C3312 1.349 . S
C3311 C3313 1.327 . S
C3311 H3334 0.950 . S
C3312 C3311 1.349 . S
C3312 C3324 1.349 . S
C3313 C3311 1.327 . S
C3313 C3329 1.429 . S
C3313 H3335 0.950 . S
C3314 H3310 0.949 . S
C3314 C3322 1.574 . S
C3314 C3330 1.368 . S
H3315 C3323 0.950 . S
H3316 C3321 0.950 . S
H3317 C3322 0.949 . S
H3318 C3324 0.950 . S
H3319 C3325 0.950 . S
H3320 C3326 0.949 . S
C3321 H3316 0.950 . S
C3321 C3323 1.327 . S
C3321 C3327 1.429 . S
C3322 C3314 1.574 . S
C3322 H3317 0.949 . S
C3322 C3328 1.368 . S
C3323 C3307 1.349 . S
C3323 H3315 0.950 . S
C3323 C3321 1.327 . S
C3324 C3312 1.349 . S
C3324 H3318 0.950 . S
C3324 C3325 1.327 . S
C3325 H3319 0.950 . S
C3325 C3324 1.327 . S
C3325 C3329 1.429 . S
C3326 C3309 1.574 . S
C3326 H3320 0.949 . S
C3326 C3330 1.368 . S
C3327 C3308 1.429 . S
C3327 C3321 1.429 . S
C3327 C3328 1.523 . S
C3328 C3309 1.368 . S
C3328 C3322 1.368 . S
C3328 C3327 1.523 . S
C3329 C3313 1.429 . S
C3329 C3325 1.429 . S
C3329 C3330 1.523 . S
C3330 C3314 1.368 . S
C3330 C3326 1.368 . S
C3330 C3329 1.523 . S
H3331 C3306 0.950 . S
H3332 C3308 0.950 . S
H3333 C3309 0.949 . S
H3334 C3311 0.950 . S
H3335 C3313 0.950 . S
C3336 C3337 1.349 . S
C3336 C3338 1.327 . S
C3336 H3361 0.950 . S
C3337 C3336 1.349 . S
C3337 C3353 1.349 . S
C3338 C3336 1.327 . S
C3338 C3357 1.429 . S
C3338 H3362 0.950 . S
C3339 C3356 1.574 . S
C3339 C3358 1.368 . S
C3339 H3363 0.949 . S
H3340 C3344 0.949 . S
C3341 C3342 1.349 . S
C3341 C3343 1.327 . S
C3341 H3364 0.950 . S
C3342 C3341 1.349 . S
C3342 C3354 1.349 . S
C3343 C3341 1.327 . S
C3343 C3359 1.429 . S
C3343 H3365 0.950 . S
C3344 H3340 0.949 . S
C3344 C3352 1.574 . S
C3344 C3360 1.368 . S
H3345 C3353 0.950 . S
H3346 C3351 0.950 . S
H3347 C3352 0.949 . S
H3348 C3354 0.950 . S
H3349 C3355 0.950 . S
H3350 C3356 0.949 . S
C3351 H3346 0.950 . S
C3351 C3353 1.327 . S
C3351 C3357 1.429 . S
C3352 C3344 1.574 . S
C3352 H3347 0.949 . S
C3352 C3358 1.368 . S
C3353 C3337 1.349 . S
C3353 H3345 0.950 . S
C3353 C3351 1.327 . S
C3354 C3342 1.349 . S
C3354 H3348 0.950 . S
C3354 C3355 1.327 . S
C3355 H3349 0.950 . S
C3355 C3354 1.327 . S
C3355 C3359 1.429 . S
C3356 C3339 1.574 . S
C3356 H3350 0.949 . S
C3356 C3360 1.368 . S
C3357 C3338 1.429 . S
C3357 C3351 1.429 . S
C3357 C3358 1.523 . S
C3358 C3339 1.368 . S
C3358 C3352 1.368 . S
C3358 C3357 1.523 . S
C3359 C3343 1.429 . S
C3359 C3355 1.429 . S
C3359 C3360 1.523 . S
C3360 C3344 1.368 . S
C3360 C3356 1.368 . S
C3360 C3359 1.523 . S
H3361 C3336 0.950 . S
H3362 C3338 0.950 . S
H3363 C3339 0.949 . S
H3364 C3341 0.950 . S
H3365 C3343 0.950 . S
C3366 C3367 1.349 . S
C3366 C3368 1.327 . S
C3366 H3391 0.950 . S
C3367 C3366 1.349 . S
C3367 C3383 1.349 . S
C3368 C3366 1.327 . S
C3368 C3387 1.429 . S
C3368 H3392 0.950 . S
C3369 C3386 1.574 . S
C3369 C3388 1.368 . S
C3369 H3393 0.949 . S
H3370 C3374 0.949 . S
C3371 C3372 1.349 . S
C3371 C3373 1.327 . S
C3371 H3394 0.950 . S
C3372 C3371 1.349 . S
C3372 C3384 1.349 . S
C3373 C3371 1.327 . S
C3373 C3389 1.429 . S
C3373 H3395 0.950 . S
C3374 H3370 0.949 . S
C3374 C3382 1.574 . S
C3374 C3390 1.368 . S
H3375 C3383 0.950 . S
H3376 C3381 0.950 . S
H3377 C3382 0.949 . S
H3378 C3384 0.950 . S
H3379 C3385 0.950 . S
H3380 C3386 0.949 . S
C3381 H3376 0.950 . S
C3381 C3383 1.327 . S
C3381 C3387 1.429 . S
C3382 C3374 1.574 . S
C3382 H3377 0.949 . S
C3382 C3388 1.368 . S
C3383 C3367 1.349 . S
C3383 H3375 0.950 . S
C3383 C3381 1.327 . S
C3384 C3372 1.349 . S
C3384 H3378 0.950 . S
C3384 C3385 1.327 . S
C3385 H3379 0.950 . S
C3385 C3384 1.327 . S
C3385 C3389 1.429 . S
C3386 C3369 1.574 . S
C3386 H3380 0.949 . S
C3386 C3390 1.368 . S
C3387 C3368 1.429 . S
C3387 C3381 1.429 . S
C3387 C3388 1.523 . S
C3388 C3369 1.368 . S
C3388 C3382 1.368 . S
C3388 C3387 1.523 . S
C3389 C3373 1.429 . S
C3389 C3385 1.429 . S
C3389 C3390 1.523 . S
C3390 C3374 1.368 . S
C3390 C3386 1.368 . S
C3390 C3389 1.523 . S
H3391 C3366 0.950 . S
H3392 C3368 0.950 . S
H3393 C3369 0.949 . S
H3394 C3371 0.950 . S
H3395 C3373 0.950 . S
C3396 C3397 1.349 . S
C3396 C3398 1.327 . S
C3396 H3421 0.950 . S
C3397 C3396 1.349 . S
C3397 C3413 1.349 . S
C3398 C3396 1.327 . S
C3398 C3417 1.429 . S
C3398 H3422 0.950 . S
C3399 C3416 1.574 . S
C3399 C3418 1.368 . S
C3399 H3423 0.949 . S
H3400 C3404 0.949 . S
C3401 C3402 1.349 . S
C3401 C3403 1.327 . S
C3401 H3424 0.950 . S
C3402 C3401 1.349 . S
C3402 C3414 1.349 . S
C3403 C3401 1.327 . S
C3403 C3419 1.429 . S
C3403 H3425 0.950 . S
C3404 H3400 0.949 . S
C3404 C3412 1.574 . S
C3404 C3420 1.368 . S
H3405 C3413 0.950 . S
H3406 C3411 0.950 . S
H3407 C3412 0.949 . S
H3408 C3414 0.950 . S
H3409 C3415 0.950 . S
H3410 C3416 0.949 . S
C3411 H3406 0.950 . S
C3411 C3413 1.327 . S
C3411 C3417 1.429 . S
C3412 C3404 1.574 . S
C3412 H3407 0.949 . S
C3412 C3418 1.368 . S
C3413 C3397 1.349 . S
C3413 H3405 0.950 . S
C3413 C3411 1.327 . S
C3414 C3402 1.349 . S
C3414 H3408 0.950 . S
C3414 C3415 1.327 . S
C3415 H3409 0.950 . S
C3415 C3414 1.327 . S
C3415 C3419 1.429 . S
C3416 C3399 1.574 . S
C3416 H3410 0.949 . S
C3416 C3420 1.368 . S
C3417 C3398 1.429 . S
C3417 C3411 1.429 . S
C3417 C3418 1.523 . S
C3418 C3399 1.368 . S
C3418 C3412 1.368 . S
C3418 C3417 1.523 . S
C3419 C3403 1.429 . S
C3419 C3415 1.429 . S
C3419 C3420 1.523 . S
C3420 C3404 1.368 . S
C3420 C3416 1.368 . S
C3420 C3419 1.523 . S
H3421 C3396 0.950 . S
H3422 C3398 0.950 . S
H3423 C3399 0.949 . S
H3424 C3401 0.950 . S
H3425 C3403 0.950 . S
C3426 C3427 1.349 . S
C3426 C3428 1.327 . S
C3426 H3451 0.950 . S
C3427 C3426 1.349 . S
C3427 C3443 1.349 . S
C3428 C3426 1.327 . S
C3428 C3447 1.429 . S
C3428 H3452 0.950 . S
C3429 C3446 1.574 . S
C3429 C3448 1.368 . S
C3429 H3453 0.949 . S
H3430 C3434 0.949 . S
C3431 C3432 1.349 . S
C3431 C3433 1.327 . S
C3431 H3454 0.950 . S
C3432 C3431 1.349 . S
C3432 C3444 1.349 . S
C3433 C3431 1.327 . S
C3433 C3449 1.429 . S
C3433 H3455 0.950 . S
C3434 H3430 0.949 . S
C3434 C3442 1.574 . S
C3434 C3450 1.368 . S
H3435 C3443 0.950 . S
H3436 C3441 0.950 . S
H3437 C3442 0.949 . S
H3438 C3444 0.950 . S
H3439 C3445 0.950 . S
H3440 C3446 0.949 . S
C3441 H3436 0.950 . S
C3441 C3443 1.327 . S
C3441 C3447 1.429 . S
C3442 C3434 1.574 . S
C3442 H3437 0.949 . S
C3442 C3448 1.368 . S
C3443 C3427 1.349 . S
C3443 H3435 0.950 . S
C3443 C3441 1.327 . S
C3444 C3432 1.349 . S
C3444 H3438 0.950 . S
C3444 C3445 1.327 . S
C3445 H3439 0.950 . S
C3445 C3444 1.327 . S
C3445 C3449 1.429 . S
C3446 C3429 1.574 . S
C3446 H3440 0.949 . S
C3446 C3450 1.368 . S
C3447 C3428 1.429 . S
C3447 C3441 1.429 . S
C3447 C3448 1.523 . S
C3448 C3429 1.368 . S
C3448 C3442 1.368 . S
C3448 C3447 1.523 . S
C3449 C3433 1.429 . S
C3449 C3445 1.429 . S
C3449 C3450 1.523 . S
C3450 C3434 1.368 . S
C3450 C3446 1.368 . S
C3450 C3449 1.523 . S
H3451 C3426 0.950 . S
H3452 C3428 0.950 . S
H3453 C3429 0.949 . S
H3454 C3431 0.950 . S
H3455 C3433 0.950 . S
C3456 C3457 1.349 . S
C3456 C3458 1.327 . S
C3456 H3481 0.950 . S
C3457 C3456 1.349 . S
C3457 C3473 1.349 . S
C3458 C3456 1.327 . S
C3458 C3477 1.429 . S
C3458 H3482 0.950 . S
C3459 C3476 1.574 . S
C3459 C3478 1.368 . S
C3459 H3483 0.949 . S
H3460 C3464 0.949 . S
C3461 C3462 1.349 . S
C3461 C3463 1.327 . S
C3461 H3484 0.950 . S
C3462 C3461 1.349 . S
C3462 C3474 1.349 . S
C3463 C3461 1.327 . S
C3463 C3479 1.429 . S
C3463 H3485 0.950 . S
C3464 H3460 0.949 . S
C3464 C3472 1.574 . S
C3464 C3480 1.368 . S
H3465 C3473 0.950 . S
H3466 C3471 0.950 . S
H3467 C3472 0.949 . S
H3468 C3474 0.950 . S
H3469 C3475 0.950 . S
H3470 C3476 0.949 . S
C3471 H3466 0.950 . S
C3471 C3473 1.327 . S
C3471 C3477 1.429 . S
C3472 C3464 1.574 . S
C3472 H3467 0.949 . S
C3472 C3478 1.368 . S
C3473 C3457 1.349 . S
C3473 H3465 0.950 . S
C3473 C3471 1.327 . S
C3474 C3462 1.349 . S
C3474 H3468 0.950 . S
C3474 C3475 1.327 . S
C3475 H3469 0.950 . S
C3475 C3474 1.327 . S
C3475 C3479 1.429 . S
C3476 C3459 1.574 . S
C3476 H3470 0.949 . S
C3476 C3480 1.368 . S
C3477 C3458 1.429 . S
C3477 C3471 1.429 . S
C3477 C3478 1.523 . S
C3478 C3459 1.368 . S
C3478 C3472 1.368 . S
C3478 C3477 1.523 . S
C3479 C3463 1.429 . S
C3479 C3475 1.429 . S
C3479 C3480 1.523 . S
C3480 C3464 1.368 . S
C3480 C3476 1.368 . S
C3480 C3479 1.523 . S
H3481 C3456 0.950 . S
H3482 C3458 0.950 . S
H3483 C3459 0.949 . S
H3484 C3461 0.950 . S
H3485 C3463 0.950 . S
C3486 C3487 1.349 . S
C3486 C3488 1.327 . S
C3486 H3511 0.950 . S
C3487 C3486 1.349 . S
C3487 C3503 1.349 . S
C3488 C3486 1.327 . S
C3488 C3507 1.429 . S
C3488 H3512 0.950 . S
C3489 C3506 1.574 . S
C3489 C3508 1.368 . S
C3489 H3513 0.949 . S
H3490 C3494 0.949 . S
C3491 C3492 1.349 . S
C3491 C3493 1.327 . S
C3491 H3514 0.950 . S
C3492 C3491 1.349 . S
C3492 C3504 1.349 . S
C3493 C3491 1.327 . S
C3493 C3509 1.429 . S
C3493 H3515 0.950 . S
C3494 H3490 0.949 . S
C3494 C3502 1.574 . S
C3494 C3510 1.368 . S
H3495 C3503 0.950 . S
H3496 C3501 0.950 . S
H3497 C3502 0.949 . S
H3498 C3504 0.950 . S
H3499 C3505 0.950 . S
H3500 C3506 0.949 . S
C3501 H3496 0.950 . S
C3501 C3503 1.327 . S
C3501 C3507 1.429 . S
C3502 C3494 1.574 . S
C3502 H3497 0.949 . S
C3502 C3508 1.368 . S
C3503 C3487 1.349 . S
C3503 H3495 0.950 . S
C3503 C3501 1.327 . S
C3504 C3492 1.349 . S
C3504 H3498 0.950 . S
C3504 C3505 1.327 . S
C3505 H3499 0.950 . S
C3505 C3504 1.327 . S
C3505 C3509 1.429 . S
C3506 C3489 1.574 . S
C3506 H3500 0.949 . S
C3506 C3510 1.368 . S
C3507 C3488 1.429 . S
C3507 C3501 1.429 . S
C3507 C3508 1.523 . S
C3508 C3489 1.368 . S
C3508 C3502 1.368 . S
C3508 C3507 1.523 . S
C3509 C3493 1.429 . S
C3509 C3505 1.429 . S
C3509 C3510 1.523 . S
C3510 C3494 1.368 . S
C3510 C3506 1.368 . S
C3510 C3509 1.523 . S
H3511 C3486 0.950 . S
H3512 C3488 0.950 . S
H3513 C3489 0.949 . S
H3514 C3491 0.950 . S
H3515 C3493 0.950 . S
C3516 C3517 1.349 . S
C3516 C3518 1.327 . S
C3516 H3541 0.950 . S
C3517 C3516 1.349 . S
C3517 C3533 1.349 . S
C3518 C3516 1.327 . S
C3518 C3537 1.429 . S
C3518 H3542 0.950 . S
C3519 C3536 1.574 . S
C3519 C3538 1.368 . S
C3519 H3543 0.949 . S
H3520 C3524 0.949 . S
C3521 C3522 1.349 . S
C3521 C3523 1.327 . S
C3521 H3544 0.950 . S
C3522 C3521 1.349 . S
C3522 C3534 1.349 . S
C3523 C3521 1.327 . S
C3523 C3539 1.429 . S
C3523 H3545 0.950 . S
C3524 H3520 0.949 . S
C3524 C3532 1.574 . S
C3524 C3540 1.368 . S
H3525 C3533 0.950 . S
H3526 C3531 0.950 . S
H3527 C3532 0.949 . S
H3528 C3534 0.950 . S
H3529 C3535 0.950 . S
H3530 C3536 0.949 . S
C3531 H3526 0.950 . S
C3531 C3533 1.327 . S
C3531 C3537 1.429 . S
C3532 C3524 1.574 . S
C3532 H3527 0.949 . S
C3532 C3538 1.368 . S
C3533 C3517 1.349 . S
C3533 H3525 0.950 . S
C3533 C3531 1.327 . S
C3534 C3522 1.349 . S
C3534 H3528 0.950 . S
C3534 C3535 1.327 . S
C3535 H3529 0.950 . S
C3535 C3534 1.327 . S
C3535 C3539 1.429 . S
C3536 C3519 1.574 . S
C3536 H3530 0.949 . S
C3536 C3540 1.368 . S
C3537 C3518 1.429 . S
C3537 C3531 1.429 . S
C3537 C3538 1.523 . S
C3538 C3519 1.368 . S
C3538 C3532 1.368 . S
C3538 C3537 1.523 . S
C3539 C3523 1.429 . S
C3539 C3535 1.429 . S
C3539 C3540 1.523 . S
C3540 C3524 1.368 . S
C3540 C3536 1.368 . S
C3540 C3539 1.523 . S
H3541 C3516 0.950 . S
H3542 C3518 0.950 . S
H3543 C3519 0.949 . S
H3544 C3521 0.950 . S
H3545 C3523 0.950 . S
C3546 C3547 1.349 . S
C3546 C3548 1.327 . S
C3546 H3571 0.950 . S
C3547 C3546 1.349 . S
C3547 C3563 1.349 . S
C3548 C3546 1.327 . S
C3548 C3567 1.429 . S
C3548 H3572 0.950 . S
C3549 C3566 1.574 . S
C3549 C3568 1.368 . S
C3549 H3573 0.949 . S
H3550 C3554 0.949 . S
C3551 C3552 1.349 . S
C3551 C3553 1.327 . S
C3551 H3574 0.950 . S
C3552 C3551 1.349 . S
C3552 C3564 1.349 . S
C3553 C3551 1.327 . S
C3553 C3569 1.429 . S
C3553 H3575 0.950 . S
C3554 H3550 0.949 . S
C3554 C3562 1.574 . S
C3554 C3570 1.368 . S
H3555 C3563 0.950 . S
H3556 C3561 0.950 . S
H3557 C3562 0.949 . S
H3558 C3564 0.950 . S
H3559 C3565 0.950 . S
H3560 C3566 0.949 . S
C3561 H3556 0.950 . S
C3561 C3563 1.327 . S
C3561 C3567 1.429 . S
C3562 C3554 1.574 . S
C3562 H3557 0.949 . S
C3562 C3568 1.368 . S
C3563 C3547 1.349 . S
C3563 H3555 0.950 . S
C3563 C3561 1.327 . S
C3564 C3552 1.349 . S
C3564 H3558 0.950 . S
C3564 C3565 1.327 . S
C3565 H3559 0.950 . S
C3565 C3564 1.327 . S
C3565 C3569 1.429 . S
C3566 C3549 1.574 . S
C3566 H3560 0.949 . S
C3566 C3570 1.368 . S
C3567 C3548 1.429 . S
C3567 C3561 1.429 . S
C3567 C3568 1.523 . S
C3568 C3549 1.368 . S
C3568 C3562 1.368 . S
C3568 C3567 1.523 . S
C3569 C3553 1.429 . S
C3569 C3565 1.429 . S
C3569 C3570 1.523 . S
C3570 C3554 1.368 . S
C3570 C3566 1.368 . S
C3570 C3569 1.523 . S
H3571 C3546 0.950 . S
H3572 C3548 0.950 . S
H3573 C3549 0.949 . S
H3574 C3551 0.950 . S
H3575 C3553 0.950 . S
C3576 C3577 1.349 . S
C3576 C3578 1.327 . S
C3576 H3601 0.950 . S
C3577 C3576 1.349 . S
C3577 C3593 1.349 . S
C3578 C3576 1.327 . S
C3578 C3597 1.429 . S
C3578 H3602 0.950 . S
C3579 C3596 1.574 . S
C3579 C3598 1.368 . S
C3579 H3603 0.949 . S
H3580 C3584 0.949 . S
C3581 C3582 1.349 . S
C3581 C3583 1.327 . S
C3581 H3604 0.950 . S
C3582 C3581 1.349 . S
C3582 C3594 1.349 . S
C3583 C3581 1.327 . S
C3583 C3599 1.429 . S
C3583 H3605 0.950 . S
C3584 H3580 0.949 . S
C3584 C3592 1.574 . S
C3584 C3600 1.368 . S
H3585 C3593 0.950 . S
H3586 C3591 0.950 . S
H3587 C3592 0.949 . S
H3588 C3594 0.950 . S
H3589 C3595 0.950 . S
H3590 C3596 0.949 . S
C3591 H3586 0.950 . S
C3591 C3593 1.327 . S
C3591 C3597 1.429 . S
C3592 C3584 1.574 . S
C3592 H3587 0.949 . S
C3592 C3598 1.368 . S
C3593 C3577 1.349 . S
C3593 H3585 0.950 . S
C3593 C3591 1.327 . S
C3594 C3582 1.349 . S
C3594 H3588 0.950 . S
C3594 C3595 1.327 . S
C3595 H3589 0.950 . S
C3595 C3594 1.327 . S
C3595 C3599 1.429 . S
C3596 C3579 1.574 . S
C3596 H3590 0.949 . S
C3596 C3600 1.368 . S
C3597 C3578 1.429 . S
C3597 C3591 1.429 . S
C3597 C3598 1.523 . S
C3598 C3579 1.368 . S
C3598 C3592 1.368 . S
C3598 C3597 1.523 . S
C3599 C3583 1.429 . S
C3599 C3595 1.429 . S
C3599 C3600 1.523 . S
C3600 C3584 1.368 . S
C3600 C3596 1.368 . S
C3600 C3599 1.523 . S
H3601 C3576 0.950 . S
H3602 C3578 0.950 . S
H3603 C3579 0.949 . S
H3604 C3581 0.950 . S
H3605 C3583 0.950 . S
C3606 C3607 1.349 . S
C3606 C3608 1.327 . S
C3606 H3631 0.950 . S
C3607 C3606 1.349 . S
C3607 C3623 1.349 . S
C3608 C3606 1.327 . S
C3608 C3627 1.429 . S
C3608 H3632 0.950 . S
C3609 C3626 1.574 . S
C3609 C3628 1.368 . S
C3609 H3633 0.949 . S
H3610 C3614 0.949 . S
C3611 C3612 1.349 . S
C3611 C3613 1.327 . S
C3611 H3634 0.950 . S
C3612 C3611 1.349 . S
C3612 C3624 1.349 . S
C3613 C3611 1.327 . S
C3613 C3629 1.429 . S
C3613 H3635 0.950 . S
C3614 H3610 0.949 . S
C3614 C3622 1.574 . S
C3614 C3630 1.368 . S
H3615 C3623 0.950 . S
H3616 C3621 0.950 . S
H3617 C3622 0.949 . S
H3618 C3624 0.950 . S
H3619 C3625 0.950 . S
H3620 C3626 0.949 . S
C3621 H3616 0.950 . S
C3621 C3623 1.327 . S
C3621 C3627 1.429 . S
C3622 C3614 1.574 . S
C3622 H3617 0.949 . S
C3622 C3628 1.368 . S
C3623 C3607 1.349 . S
C3623 H3615 0.950 . S
C3623 C3621 1.327 . S
C3624 C3612 1.349 . S
C3624 H3618 0.950 . S
C3624 C3625 1.327 . S
C3625 H3619 0.950 . S
C3625 C3624 1.327 . S
C3625 C3629 1.429 . S
C3626 C3609 1.574 . S
C3626 H3620 0.949 . S
C3626 C3630 1.368 . S
C3627 C3608 1.429 . S
C3627 C3621 1.429 . S
C3627 C3628 1.523 . S
C3628 C3609 1.368 . S
C3628 C3622 1.368 . S
C3628 C3627 1.523 . S
C3629 C3613 1.429 . S
C3629 C3625 1.429 . S
C3629 C3630 1.523 . S
C3630 C3614 1.368 . S
C3630 C3626 1.368 . S
C3630 C3629 1.523 . S
H3631 C3606 0.950 . S
H3632 C3608 0.950 . S
H3633 C3609 0.949 . S
H3634 C3611 0.950 . S
H3635 C3613 0.950 . S
C3636 C3637 1.349 . S
C3636 C3638 1.327 . S
C3636 H3661 0.950 . S
C3637 C3636 1.349 . S
C3637 C3653 1.349 . S
C3638 C3636 1.327 . S
C3638 C3657 1.429 . S
C3638 H3662 0.950 . S
C3639 C3656 1.574 . S
C3639 C3658 1.368 . S
C3639 H3663 0.949 . S
H3640 C3644 0.949 . S
C3641 C3642 1.349 . S
C3641 C3643 1.327 . S
C3641 H3664 0.950 . S
C3642 C3641 1.349 . S
C3642 C3654 1.349 . S
C3643 C3641 1.327 . S
C3643 C3659 1.429 . S
C3643 H3665 0.950 . S
C3644 H3640 0.949 . S
C3644 C3652 1.574 . S
C3644 C3660 1.368 . S
H3645 C3653 0.950 . S
H3646 C3651 0.950 . S
H3647 C3652 0.949 . S
H3648 C3654 0.950 . S
H3649 C3655 0.950 . S
H3650 C3656 0.949 . S
C3651 H3646 0.950 . S
C3651 C3653 1.327 . S
C3651 C3657 1.429 . S
C3652 C3644 1.574 . S
C3652 H3647 0.949 . S
C3652 C3658 1.368 . S
C3653 C3637 1.349 . S
C3653 H3645 0.950 . S
C3653 C3651 1.327 . S
C3654 C3642 1.349 . S
C3654 H3648 0.950 . S
C3654 C3655 1.327 . S
C3655 H3649 0.950 . S
C3655 C3654 1.327 . S
C3655 C3659 1.429 . S
C3656 C3639 1.574 . S
C3656 H3650 0.949 . S
C3656 C3660 1.368 . S
C3657 C3638 1.429 . S
C3657 C3651 1.429 . S
C3657 C3658 1.523 . S
C3658 C3639 1.368 . S
C3658 C3652 1.368 . S
C3658 C3657 1.523 . S
C3659 C3643 1.429 . S
C3659 C3655 1.429 . S
C3659 C3660 1.523 . S
C3660 C3644 1.368 . S
C3660 C3656 1.368 . S
C3660 C3659 1.523 . S
H3661 C3636 0.950 . S
H3662 C3638 0.950 . S
H3663 C3639 0.949 . S
H3664 C3641 0.950 . S
H3665 C3643 0.950 . S
C3666 C3667 1.349 . S
C3666 C3668 1.327 . S
C3666 H3691 0.950 . S
C3667 C3666 1.349 . S
C3667 C3683 1.349 . S
C3668 C3666 1.327 . S
C3668 C3687 1.429 . S
C3668 H3692 0.950 . S
C3669 C3686 1.574 . S
C3669 C3688 1.368 . S
C3669 H3693 0.949 . S
H3670 C3674 0.949 . S
C3671 C3672 1.349 . S
C3671 C3673 1.327 . S
C3671 H3694 0.950 . S
C3672 C3671 1.349 . S
C3672 C3684 1.349 . S
C3673 C3671 1.327 . S
C3673 C3689 1.429 . S
C3673 H3695 0.950 . S
C3674 H3670 0.949 . S
C3674 C3682 1.574 . S
C3674 C3690 1.368 . S
H3675 C3683 0.950 . S
H3676 C3681 0.950 . S
H3677 C3682 0.949 . S
H3678 C3684 0.950 . S
H3679 C3685 0.950 . S
H3680 C3686 0.949 . S
C3681 H3676 0.950 . S
C3681 C3683 1.327 . S
C3681 C3687 1.429 . S
C3682 C3674 1.574 . S
C3682 H3677 0.949 . S
C3682 C3688 1.368 . S
C3683 C3667 1.349 . S
C3683 H3675 0.950 . S
C3683 C3681 1.327 . S
C3684 C3672 1.349 . S
C3684 H3678 0.950 . S
C3684 C3685 1.327 . S
C3685 H3679 0.950 . S
C3685 C3684 1.327 . S
C3685 C3689 1.429 . S
C3686 C3669 1.574 . S
C3686 H3680 0.949 . S
C3686 C3690 1.368 . S
C3687 C3668 1.429 . S
C3687 C3681 1.429 . S
C3687 C3688 1.523 . S
C3688 C3669 1.368 . S
C3688 C3682 1.368 . S
C3688 C3687 1.523 . S
C3689 C3673 1.429 . S
C3689 C3685 1.429 . S
C3689 C3690 1.523 . S
C3690 C3674 1.368 . S
C3690 C3686 1.368 . S
C3690 C3689 1.523 . S
H3691 C3666 0.950 . S
H3692 C3668 0.950 . S
H3693 C3669 0.949 . S
H3694 C3671 0.950 . S
H3695 C3673 0.950 . S
C3696 C3697 1.349 . S
C3696 C3698 1.327 . S
C3696 H3721 0.950 . S
C3697 C3696 1.349 . S
C3697 C3713 1.349 . S
C3698 C3696 1.327 . S
C3698 C3717 1.429 . S
C3698 H3722 0.950 . S
C3699 C3716 1.574 . S
C3699 C3718 1.368 . S
C3699 H3723 0.949 . S
H3700 C3704 0.949 . S
C3701 C3702 1.349 . S
C3701 C3703 1.327 . S
C3701 H3724 0.950 . S
C3702 C3701 1.349 . S
C3702 C3714 1.349 . S
C3703 C3701 1.327 . S
C3703 C3719 1.429 . S
C3703 H3725 0.950 . S
C3704 H3700 0.949 . S
C3704 C3712 1.574 . S
C3704 C3720 1.368 . S
H3705 C3713 0.950 . S
H3706 C3711 0.950 . S
H3707 C3712 0.949 . S
H3708 C3714 0.950 . S
H3709 C3715 0.950 . S
H3710 C3716 0.949 . S
C3711 H3706 0.950 . S
C3711 C3713 1.327 . S
C3711 C3717 1.429 . S
C3712 C3704 1.574 . S
C3712 H3707 0.949 . S
C3712 C3718 1.368 . S
C3713 C3697 1.349 . S
C3713 H3705 0.950 . S
C3713 C3711 1.327 . S
C3714 C3702 1.349 . S
C3714 H3708 0.950 . S
C3714 C3715 1.327 . S
C3715 H3709 0.950 . S
C3715 C3714 1.327 . S
C3715 C3719 1.429 . S
C3716 C3699 1.574 . S
C3716 H3710 0.949 . S
C3716 C3720 1.368 . S
C3717 C3698 1.429 . S
C3717 C3711 1.429 . S
C3717 C3718 1.523 . S
C3718 C3699 1.368 . S
C3718 C3712 1.368 . S
C3718 C3717 1.523 . S
C3719 C3703 1.429 . S
C3719 C3715 1.429 . S
C3719 C3720 1.523 . S
C3720 C3704 1.368 . S
C3720 C3716 1.368 . S
C3720 C3719 1.523 . S
H3721 C3696 0.950 . S
H3722 C3698 0.950 . S
H3723 C3699 0.949 . S
H3724 C3701 0.950 . S
H3725 C3703 0.950 . S
C3726 C3727 1.349 . S
C3726 C3728 1.327 . S
C3726 H3751 0.950 . S
C3727 C3726 1.349 . S
C3727 C3743 1.349 . S
C3728 C3726 1.327 . S
C3728 C3747 1.429 . S
C3728 H3752 0.950 . S
C3729 C3746 1.574 . S
C3729 C3748 1.368 . S
C3729 H3753 0.949 . S
H3730 C3734 0.949 . S
C3731 C3732 1.349 . S
C3731 C3733 1.327 . S
C3731 H3754 0.950 . S
C3732 C3731 1.349 . S
C3732 C3744 1.349 . S
C3733 C3731 1.327 . S
C3733 C3749 1.429 . S
C3733 H3755 0.950 . S
C3734 H3730 0.949 . S
C3734 C3742 1.574 . S
C3734 C3750 1.368 . S
H3735 C3743 0.950 . S
H3736 C3741 0.950 . S
H3737 C3742 0.949 . S
H3738 C3744 0.950 . S
H3739 C3745 0.950 . S
H3740 C3746 0.949 . S
C3741 H3736 0.950 . S
C3741 C3743 1.327 . S
C3741 C3747 1.429 . S
C3742 C3734 1.574 . S
C3742 H3737 0.949 . S
C3742 C3748 1.368 . S
C3743 C3727 1.349 . S
C3743 H3735 0.950 . S
C3743 C3741 1.327 . S
C3744 C3732 1.349 . S
C3744 H3738 0.950 . S
C3744 C3745 1.327 . S
C3745 H3739 0.950 . S
C3745 C3744 1.327 . S
C3745 C3749 1.429 . S
C3746 C3729 1.574 . S
C3746 H3740 0.949 . S
C3746 C3750 1.368 . S
C3747 C3728 1.429 . S
C3747 C3741 1.429 . S
C3747 C3748 1.523 . S
C3748 C3729 1.368 . S
C3748 C3742 1.368 . S
C3748 C3747 1.523 . S
C3749 C3733 1.429 . S
C3749 C3745 1.429 . S
C3749 C3750 1.523 . S
C3750 C3734 1.368 . S
C3750 C3746 1.368 . S
C3750 C3749 1.523 . S
H3751 C3726 0.950 . S
H3752 C3728 0.950 . S
H3753 C3729 0.949 . S
H3754 C3731 0.950 . S
H3755 C3733 0.950 . S
C3756 C3757 1.349 . S
C3756 C3758 1.327 . S
C3756 H3781 0.950 . S
C3757 C3756 1.349 . S
C3757 C3773 1.349 . S
C3758 C3756 1.327 . S
C3758 C3777 1.429 . S
C3758 H3782 0.950 . S
C3759 C3776 1.574 . S
C3759 C3778 1.368 . S
C3759 H3783 0.949 . S
H3760 C3764 0.949 . S
C3761 C3762 1.349 . S
C3761 C3763 1.327 . S
C3761 H3784 0.950 . S
C3762 C3761 1.349 . S
C3762 C3774 1.349 . S
C3763 C3761 1.327 . S
C3763 C3779 1.429 . S
C3763 H3785 0.950 . S
C3764 H3760 0.949 . S
C3764 C3772 1.574 . S
C3764 C3780 1.368 . S
H3765 C3773 0.950 . S
H3766 C3771 0.950 . S
H3767 C3772 0.949 . S
H3768 C3774 0.950 . S
H3769 C3775 0.950 . S
H3770 C3776 0.949 . S
C3771 H3766 0.950 . S
C3771 C3773 1.327 . S
C3771 C3777 1.429 . S
C3772 C3764 1.574 . S
C3772 H3767 0.949 . S
C3772 C3778 1.368 . S
C3773 C3757 1.349 . S
C3773 H3765 0.950 . S
C3773 C3771 1.327 . S
C3774 C3762 1.349 . S
C3774 H3768 0.950 . S
C3774 C3775 1.327 . S
C3775 H3769 0.950 . S
C3775 C3774 1.327 . S
C3775 C3779 1.429 . S
C3776 C3759 1.574 . S
C3776 H3770 0.949 . S
C3776 C3780 1.368 . S
C3777 C3758 1.429 . S
C3777 C3771 1.429 . S
C3777 C3778 1.523 . S
C3778 C3759 1.368 . S
C3778 C3772 1.368 . S
C3778 C3777 1.523 . S
C3779 C3763 1.429 . S
C3779 C3775 1.429 . S
C3779 C3780 1.523 . S
C3780 C3764 1.368 . S
C3780 C3776 1.368 . S
C3780 C3779 1.523 . S
H3781 C3756 0.950 . S
H3782 C3758 0.950 . S
H3783 C3759 0.949 . S
H3784 C3761 0.950 . S
H3785 C3763 0.950 . S
C3786 C3787 1.349 . S
C3786 C3788 1.327 . S
C3786 H3811 0.950 . S
C3787 C3786 1.349 . S
C3787 C3803 1.349 . S
C3788 C3786 1.327 . S
C3788 C3807 1.429 . S
C3788 H3812 0.950 . S
C3789 C3806 1.574 . S
C3789 C3808 1.368 . S
C3789 H3813 0.949 . S
H3790 C3794 0.949 . S
C3791 C3792 1.349 . S
C3791 C3793 1.327 . S
C3791 H3814 0.950 . S
C3792 C3791 1.349 . S
C3792 C3804 1.349 . S
C3793 C3791 1.327 . S
C3793 C3809 1.429 . S
C3793 H3815 0.950 . S
C3794 H3790 0.949 . S
C3794 C3802 1.574 . S
C3794 C3810 1.368 . S
H3795 C3803 0.950 . S
H3796 C3801 0.950 . S
H3797 C3802 0.949 . S
H3798 C3804 0.950 . S
H3799 C3805 0.950 . S
H3800 C3806 0.949 . S
C3801 H3796 0.950 . S
C3801 C3803 1.327 . S
C3801 C3807 1.429 . S
C3802 C3794 1.574 . S
C3802 H3797 0.949 . S
C3802 C3808 1.368 . S
C3803 C3787 1.349 . S
C3803 H3795 0.950 . S
C3803 C3801 1.327 . S
C3804 C3792 1.349 . S
C3804 H3798 0.950 . S
C3804 C3805 1.327 . S
C3805 H3799 0.950 . S
C3805 C3804 1.327 . S
C3805 C3809 1.429 . S
C3806 C3789 1.574 . S
C3806 H3800 0.949 . S
C3806 C3810 1.368 . S
C3807 C3788 1.429 . S
C3807 C3801 1.429 . S
C3807 C3808 1.523 . S
C3808 C3789 1.368 . S
C3808 C3802 1.368 . S
C3808 C3807 1.523 . S
C3809 C3793 1.429 . S
C3809 C3805 1.429 . S
C3809 C3810 1.523 . S
C3810 C3794 1.368 . S
C3810 C3806 1.368 . S
C3810 C3809 1.523 . S
H3811 C3786 0.950 . S
H3812 C3788 0.950 . S
H3813 C3789 0.949 . S
H3814 C3791 0.950 . S
H3815 C3793 0.950 . S
C3816 C3817 1.349 . S
C3816 C3818 1.327 . S
C3816 H3841 0.950 . S
C3817 C3816 1.349 . S
C3817 C3833 1.349 . S
C3818 C3816 1.327 . S
C3818 C3837 1.429 . S
C3818 H3842 0.950 . S
C3819 C3836 1.574 . S
C3819 C3838 1.368 . S
C3819 H3843 0.949 . S
H3820 C3824 0.949 . S
C3821 C3822 1.349 . S
C3821 C3823 1.327 . S
C3821 H3844 0.950 . S
C3822 C3821 1.349 . S
C3822 C3834 1.349 . S
C3823 C3821 1.327 . S
C3823 C3839 1.429 . S
C3823 H3845 0.950 . S
C3824 H3820 0.949 . S
C3824 C3832 1.574 . S
C3824 C3840 1.368 . S
H3825 C3833 0.950 . S
H3826 C3831 0.950 . S
H3827 C3832 0.949 . S
H3828 C3834 0.950 . S
H3829 C3835 0.950 . S
H3830 C3836 0.949 . S
C3831 H3826 0.950 . S
C3831 C3833 1.327 . S
C3831 C3837 1.429 . S
C3832 C3824 1.574 . S
C3832 H3827 0.949 . S
C3832 C3838 1.368 . S
C3833 C3817 1.349 . S
C3833 H3825 0.950 . S
C3833 C3831 1.327 . S
C3834 C3822 1.349 . S
C3834 H3828 0.950 . S
C3834 C3835 1.327 . S
C3835 H3829 0.950 . S
C3835 C3834 1.327 . S
C3835 C3839 1.429 . S
C3836 C3819 1.574 . S
C3836 H3830 0.949 . S
C3836 C3840 1.368 . S
C3837 C3818 1.429 . S
C3837 C3831 1.429 . S
C3837 C3838 1.523 . S
C3838 C3819 1.368 . S
C3838 C3832 1.368 . S
C3838 C3837 1.523 . S
C3839 C3823 1.429 . S
C3839 C3835 1.429 . S
C3839 C3840 1.523 . S
C3840 C3824 1.368 . S
C3840 C3836 1.368 . S
C3840 C3839 1.523 . S
H3841 C3816 0.950 . S
H3842 C3818 0.950 . S
H3843 C3819 0.949 . S
H3844 C3821 0.950 . S
H3845 C3823 0.950 . S
C3846 C3847 1.349 . S
C3846 C3848 1.327 . S
C3846 H3871 0.950 . S
C3847 C3846 1.349 . S
C3847 C3863 1.349 . S
C3848 C3846 1.327 . S
C3848 C3867 1.429 . S
C3848 H3872 0.950 . S
C3849 C3866 1.574 . S
C3849 C3868 1.368 . S
C3849 H3873 0.949 . S
H3850 C3854 0.949 . S
C3851 C3852 1.349 . S
C3851 C3853 1.327 . S
C3851 H3874 0.950 . S
C3852 C3851 1.349 . S
C3852 C3864 1.349 . S
C3853 C3851 1.327 . S
C3853 C3869 1.429 . S
C3853 H3875 0.950 . S
C3854 H3850 0.949 . S
C3854 C3862 1.574 . S
C3854 C3870 1.368 . S
H3855 C3863 0.950 . S
H3856 C3861 0.950 . S
H3857 C3862 0.949 . S
H3858 C3864 0.950 . S
H3859 C3865 0.950 . S
H3860 C3866 0.949 . S
C3861 H3856 0.950 . S
C3861 C3863 1.327 . S
C3861 C3867 1.429 . S
C3862 C3854 1.574 . S
C3862 H3857 0.949 . S
C3862 C3868 1.368 . S
C3863 C3847 1.349 . S
C3863 H3855 0.950 . S
C3863 C3861 1.327 . S
C3864 C3852 1.349 . S
C3864 H3858 0.950 . S
C3864 C3865 1.327 . S
C3865 H3859 0.950 . S
C3865 C3864 1.327 . S
C3865 C3869 1.429 . S
C3866 C3849 1.574 . S
C3866 H3860 0.949 . S
C3866 C3870 1.368 . S
C3867 C3848 1.429 . S
C3867 C3861 1.429 . S
C3867 C3868 1.523 . S
C3868 C3849 1.368 . S
C3868 C3862 1.368 . S
C3868 C3867 1.523 . S
C3869 C3853 1.429 . S
C3869 C3865 1.429 . S
C3869 C3870 1.523 . S
C3870 C3854 1.368 . S
C3870 C3866 1.368 . S
C3870 C3869 1.523 . S
H3871 C3846 0.950 . S
H3872 C3848 0.950 . S
H3873 C3849 0.949 . S
H3874 C3851 0.950 . S
H3875 C3853 0.950 . S
C3876 C3877 1.349 . S
C3876 C3878 1.327 . S
C3876 H3901 0.950 . S
C3877 C3876 1.349 . S
C3877 C3893 1.349 . S
C3878 C3876 1.327 . S
C3878 C3897 1.429 . S
C3878 H3902 0.950 . S
C3879 C3896 1.574 . S
C3879 C3898 1.368 . S
C3879 H3903 0.949 . S
H3880 C3884 0.949 . S
C3881 C3882 1.349 . S
C3881 C3883 1.327 . S
C3881 H3904 0.950 . S
C3882 C3881 1.349 . S
C3882 C3894 1.349 . S
C3883 C3881 1.327 . S
C3883 C3899 1.429 . S
C3883 H3905 0.950 . S
C3884 H3880 0.949 . S
C3884 C3892 1.574 . S
C3884 C3900 1.368 . S
H3885 C3893 0.950 . S
H3886 C3891 0.950 . S
H3887 C3892 0.949 . S
H3888 C3894 0.950 . S
H3889 C3895 0.950 . S
H3890 C3896 0.949 . S
C3891 H3886 0.950 . S
C3891 C3893 1.327 . S
C3891 C3897 1.429 . S
C3892 C3884 1.574 . S
C3892 H3887 0.949 . S
C3892 C3898 1.368 . S
C3893 C3877 1.349 . S
C3893 H3885 0.950 . S
C3893 C3891 1.327 . S
C3894 C3882 1.349 . S
C3894 H3888 0.950 . S
C3894 C3895 1.327 . S
C3895 H3889 0.950 . S
C3895 C3894 1.327 . S
C3895 C3899 1.429 . S
C3896 C3879 1.574 . S
C3896 H3890 0.949 . S
C3896 C3900 1.368 . S
C3897 C3878 1.429 . S
C3897 C3891 1.429 . S
C3897 C3898 1.523 . S
C3898 C3879 1.368 . S
C3898 C3892 1.368 . S
C3898 C3897 1.523 . S
C3899 C3883 1.429 . S
C3899 C3895 1.429 . S
C3899 C3900 1.523 . S
C3900 C3884 1.368 . S
C3900 C3896 1.368 . S
C3900 C3899 1.523 . S
H3901 C3876 0.950 . S
H3902 C3878 0.950 . S
H3903 C3879 0.949 . S
H3904 C3881 0.950 . S
H3905 C3883 0.950 . S
C3906 C3907 1.349 . S
C3906 C3908 1.327 . S
C3906 H3931 0.950 . S
C3907 C3906 1.349 . S
C3907 C3923 1.349 . S
C3908 C3906 1.327 . S
C3908 C3927 1.429 . S
C3908 H3932 0.950 . S
C3909 C3926 1.574 . S
C3909 C3928 1.368 . S
C3909 H3933 0.949 . S
H3910 C3914 0.949 . S
C3911 C3912 1.349 . S
C3911 C3913 1.327 . S
C3911 H3934 0.950 . S
C3912 C3911 1.349 . S
C3912 C3924 1.349 . S
C3913 C3911 1.327 . S
C3913 C3929 1.429 . S
C3913 H3935 0.950 . S
C3914 H3910 0.949 . S
C3914 C3922 1.574 . S
C3914 C3930 1.368 . S
H3915 C3923 0.950 . S
H3916 C3921 0.950 . S
H3917 C3922 0.949 . S
H3918 C3924 0.950 . S
H3919 C3925 0.950 . S
H3920 C3926 0.949 . S
C3921 H3916 0.950 . S
C3921 C3923 1.327 . S
C3921 C3927 1.429 . S
C3922 C3914 1.574 . S
C3922 H3917 0.949 . S
C3922 C3928 1.368 . S
C3923 C3907 1.349 . S
C3923 H3915 0.950 . S
C3923 C3921 1.327 . S
C3924 C3912 1.349 . S
C3924 H3918 0.950 . S
C3924 C3925 1.327 . S
C3925 H3919 0.950 . S
C3925 C3924 1.327 . S
C3925 C3929 1.429 . S
C3926 C3909 1.574 . S
C3926 H3920 0.949 . S
C3926 C3930 1.368 . S
C3927 C3908 1.429 . S
C3927 C3921 1.429 . S
C3927 C3928 1.523 . S
C3928 C3909 1.368 . S
C3928 C3922 1.368 . S
C3928 C3927 1.523 . S
C3929 C3913 1.429 . S
C3929 C3925 1.429 . S
C3929 C3930 1.523 . S
C3930 C3914 1.368 . S
C3930 C3926 1.368 . S
C3930 C3929 1.523 . S
H3931 C3906 0.950 . S
H3932 C3908 0.950 . S
H3933 C3909 0.949 . S
H3934 C3911 0.950 . S
H3935 C3913 0.950 . S
C3936 C3937 1.349 . S
C3936 C3938 1.327 . S
C3936 H3961 0.950 . S
C3937 C3936 1.349 . S
C3937 C3953 1.349 . S
C3938 C3936 1.327 . S
C3938 C3957 1.429 . S
C3938 H3962 0.950 . S
C3939 C3956 1.574 . S
C3939 C3958 1.368 . S
C3939 H3963 0.949 . S
H3940 C3944 0.949 . S
C3941 C3942 1.349 . S
C3941 C3943 1.327 . S
C3941 H3964 0.950 . S
C3942 C3941 1.349 . S
C3942 C3954 1.349 . S
C3943 C3941 1.327 . S
C3943 C3959 1.429 . S
C3943 H3965 0.950 . S
C3944 H3940 0.949 . S
C3944 C3952 1.574 . S
C3944 C3960 1.368 . S
H3945 C3953 0.950 . S
H3946 C3951 0.950 . S
H3947 C3952 0.949 . S
H3948 C3954 0.950 . S
H3949 C3955 0.950 . S
H3950 C3956 0.949 . S
C3951 H3946 0.950 . S
C3951 C3953 1.327 . S
C3951 C3957 1.429 . S
C3952 C3944 1.574 . S
C3952 H3947 0.949 . S
C3952 C3958 1.368 . S
C3953 C3937 1.349 . S
C3953 H3945 0.950 . S
C3953 C3951 1.327 . S
C3954 C3942 1.349 . S
C3954 H3948 0.950 . S
C3954 C3955 1.327 . S
C3955 H3949 0.950 . S
C3955 C3954 1.327 . S
C3955 C3959 1.429 . S
C3956 C3939 1.574 . S
C3956 H3950 0.949 . S
C3956 C3960 1.368 . S
C3957 C3938 1.429 . S
C3957 C3951 1.429 . S
C3957 C3958 1.523 . S
C3958 C3939 1.368 . S
C3958 C3952 1.368 . S
C3958 C3957 1.523 . S
C3959 C3943 1.429 . S
C3959 C3955 1.429 . S
C3959 C3960 1.523 . S
C3960 C3944 1.368 . S
C3960 C3956 1.368 . S
C3960 C3959 1.523 . S
H3961 C3936 0.950 . S
H3962 C3938 0.950 . S
H3963 C3939 0.949 . S
H3964 C3941 0.950 . S
H3965 C3943 0.950 . S
C3966 C3967 1.349 . S
C3966 C3968 1.327 . S
C3966 H3991 0.950 . S
C3967 C3966 1.349 . S
C3967 C3983 1.349 . S
C3968 C3966 1.327 . S
C3968 C3987 1.429 . S
C3968 H3992 0.950 . S
C3969 C3986 1.574 . S
C3969 C3988 1.368 . S
C3969 H3993 0.949 . S
H3970 C3974 0.949 . S
C3971 C3972 1.349 . S
C3971 C3973 1.327 . S
C3971 H3994 0.950 . S
C3972 C3971 1.349 . S
C3972 C3984 1.349 . S
C3973 C3971 1.327 . S
C3973 C3989 1.429 . S
C3973 H3995 0.950 . S
C3974 H3970 0.949 . S
C3974 C3982 1.574 . S
C3974 C3990 1.368 . S
H3975 C3983 0.950 . S
H3976 C3981 0.950 . S
H3977 C3982 0.949 . S
H3978 C3984 0.950 . S
H3979 C3985 0.950 . S
H3980 C3986 0.949 . S
C3981 H3976 0.950 . S
C3981 C3983 1.327 . S
C3981 C3987 1.429 . S
C3982 C3974 1.574 . S
C3982 H3977 0.949 . S
C3982 C3988 1.368 . S
C3983 C3967 1.349 . S
C3983 H3975 0.950 . S
C3983 C3981 1.327 . S
C3984 C3972 1.349 . S
C3984 H3978 0.950 . S
C3984 C3985 1.327 . S
C3985 H3979 0.950 . S
C3985 C3984 1.327 . S
C3985 C3989 1.429 . S
C3986 C3969 1.574 . S
C3986 H3980 0.949 . S
C3986 C3990 1.368 . S
C3987 C3968 1.429 . S
C3987 C3981 1.429 . S
C3987 C3988 1.523 . S
C3988 C3969 1.368 . S
C3988 C3982 1.368 . S
C3988 C3987 1.523 . S
C3989 C3973 1.429 . S
C3989 C3985 1.429 . S
C3989 C3990 1.523 . S
C3990 C3974 1.368 . S
C3990 C3986 1.368 . S
C3990 C3989 1.523 . S
H3991 C3966 0.950 . S
H3992 C3968 0.950 . S
H3993 C3969 0.949 . S
H3994 C3971 0.950 . S
H3995 C3973 0.950 . S
C3996 C3997 1.349 . S
C3996 C3998 1.327 . S
C3996 H4021 0.950 . S
C3997 C3996 1.349 . S
C3997 C4013 1.349 . S
C3998 C3996 1.327 . S
C3998 C4017 1.429 . S
C3998 H4022 0.950 . S
C3999 C4016 1.574 . S
C3999 C4018 1.368 . S
C3999 H4023 0.949 . S
H4000 C4004 0.949 . S
C4001 C4002 1.349 . S
C4001 C4003 1.327 . S
C4001 H4024 0.950 . S
C4002 C4001 1.349 . S
C4002 C4014 1.349 . S
C4003 C4001 1.327 . S
C4003 C4019 1.429 . S
C4003 H4025 0.950 . S
C4004 H4000 0.949 . S
C4004 C4012 1.574 . S
C4004 C4020 1.368 . S
H4005 C4013 0.950 . S
H4006 C4011 0.950 . S
H4007 C4012 0.949 . S
H4008 C4014 0.950 . S
H4009 C4015 0.950 . S
H4010 C4016 0.949 . S
C4011 H4006 0.950 . S
C4011 C4013 1.327 . S
C4011 C4017 1.429 . S
C4012 C4004 1.574 . S
C4012 H4007 0.949 . S
C4012 C4018 1.368 . S
C4013 C3997 1.349 . S
C4013 H4005 0.950 . S
C4013 C4011 1.327 . S
C4014 C4002 1.349 . S
C4014 H4008 0.950 . S
C4014 C4015 1.327 . S
C4015 H4009 0.950 . S
C4015 C4014 1.327 . S
C4015 C4019 1.429 . S
C4016 C3999 1.574 . S
C4016 H4010 0.949 . S
C4016 C4020 1.368 . S
C4017 C3998 1.429 . S
C4017 C4011 1.429 . S
C4017 C4018 1.523 . S
C4018 C3999 1.368 . S
C4018 C4012 1.368 . S
C4018 C4017 1.523 . S
C4019 C4003 1.429 . S
C4019 C4015 1.429 . S
C4019 C4020 1.523 . S
C4020 C4004 1.368 . S
C4020 C4016 1.368 . S
C4020 C4019 1.523 . S
H4021 C3996 0.950 . S
H4022 C3998 0.950 . S
H4023 C3999 0.949 . S
H4024 C4001 0.950 . S
H4025 C4003 0.950 . S
C4026 C4027 1.349 . S
C4026 C4028 1.327 . S
C4026 H4051 0.950 . S
C4027 C4026 1.349 . S
C4027 C4043 1.349 . S
C4028 C4026 1.327 . S
C4028 C4047 1.429 . S
C4028 H4052 0.950 . S
C4029 C4046 1.574 . S
C4029 C4048 1.368 . S
C4029 H4053 0.949 . S
H4030 C4034 0.949 . S
C4031 C4032 1.349 . S
C4031 C4033 1.327 . S
C4031 H4054 0.950 . S
C4032 C4031 1.349 . S
C4032 C4044 1.349 . S
C4033 C4031 1.327 . S
C4033 C4049 1.429 . S
C4033 H4055 0.950 . S
C4034 H4030 0.949 . S
C4034 C4042 1.574 . S
C4034 C4050 1.368 . S
H4035 C4043 0.950 . S
H4036 C4041 0.950 . S
H4037 C4042 0.949 . S
H4038 C4044 0.950 . S
H4039 C4045 0.950 . S
H4040 C4046 0.949 . S
C4041 H4036 0.950 . S
C4041 C4043 1.327 . S
C4041 C4047 1.429 . S
C4042 C4034 1.574 . S
C4042 H4037 0.949 . S
C4042 C4048 1.368 . S
C4043 C4027 1.349 . S
C4043 H4035 0.950 . S
C4043 C4041 1.327 . S
C4044 C4032 1.349 . S
C4044 H4038 0.950 . S
C4044 C4045 1.327 . S
C4045 H4039 0.950 . S
C4045 C4044 1.327 . S
C4045 C4049 1.429 . S
C4046 C4029 1.574 . S
C4046 H4040 0.949 . S
C4046 C4050 1.368 . S
C4047 C4028 1.429 . S
C4047 C4041 1.429 . S
C4047 C4048 1.523 . S
C4048 C4029 1.368 . S
C4048 C4042 1.368 . S
C4048 C4047 1.523 . S
C4049 C4033 1.429 . S
C4049 C4045 1.429 . S
C4049 C4050 1.523 . S
C4050 C4034 1.368 . S
C4050 C4046 1.368 . S
C4050 C4049 1.523 . S
H4051 C4026 0.950 . S
H4052 C4028 0.950 . S
H4053 C4029 0.949 . S
H4054 C4031 0.950 . S
H4055 C4033 0.950 . S
C4056 C4057 1.349 . S
C4056 C4058 1.327 . S
C4056 H4081 0.950 . S
C4057 C4056 1.349 . S
C4057 C4073 1.349 . S
C4058 C4056 1.327 . S
C4058 C4077 1.429 . S
C4058 H4082 0.950 . S
C4059 C4076 1.574 . S
C4059 C4078 1.368 . S
C4059 H4083 0.949 . S
H4060 C4064 0.949 . S
C4061 C4062 1.349 . S
C4061 C4063 1.327 . S
C4061 H4084 0.950 . S
C4062 C4061 1.349 . S
C4062 C4074 1.349 . S
C4063 C4061 1.327 . S
C4063 C4079 1.429 . S
C4063 H4085 0.950 . S
C4064 H4060 0.949 . S
C4064 C4072 1.574 . S
C4064 C4080 1.368 . S
H4065 C4073 0.950 . S
H4066 C4071 0.950 . S
H4067 C4072 0.949 . S
H4068 C4074 0.950 . S
H4069 C4075 0.950 . S
H4070 C4076 0.949 . S
C4071 H4066 0.950 . S
C4071 C4073 1.327 . S
C4071 C4077 1.429 . S
C4072 C4064 1.574 . S
C4072 H4067 0.949 . S
C4072 C4078 1.368 . S
C4073 C4057 1.349 . S
C4073 H4065 0.950 . S
C4073 C4071 1.327 . S
C4074 C4062 1.349 . S
C4074 H4068 0.950 . S
C4074 C4075 1.327 . S
C4075 H4069 0.950 . S
C4075 C4074 1.327 . S
C4075 C4079 1.429 . S
C4076 C4059 1.574 . S
C4076 H4070 0.949 . S
C4076 C4080 1.368 . S
C4077 C4058 1.429 . S
C4077 C4071 1.429 . S
C4077 C4078 1.523 . S
C4078 C4059 1.368 . S
C4078 C4072 1.368 . S
C4078 C4077 1.523 . S
C4079 C4063 1.429 . S
C4079 C4075 1.429 . S
C4079 C4080 1.523 . S
C4080 C4064 1.368 . S
C4080 C4076 1.368 . S
C4080 C4079 1.523 . S
H4081 C4056 0.950 . S
H4082 C4058 0.950 . S
H4083 C4059 0.949 . S
H4084 C4061 0.950 . S
H4085 C4063 0.950 . S
C4086 C4087 1.349 . S
C4086 C4088 1.327 . S
C4086 H4111 0.950 . S
C4087 C4086 1.349 . S
C4087 C4103 1.349 . S
C4088 C4086 1.327 . S
C4088 C4107 1.429 . S
C4088 H4112 0.950 . S
C4089 C4106 1.574 . S
C4089 C4108 1.368 . S
C4089 H4113 0.949 . S
H4090 C4094 0.949 . S
C4091 C4092 1.349 . S
C4091 C4093 1.327 . S
C4091 H4114 0.950 . S
C4092 C4091 1.349 . S
C4092 C4104 1.349 . S
C4093 C4091 1.327 . S
C4093 C4109 1.429 . S
C4093 H4115 0.950 . S
C4094 H4090 0.949 . S
C4094 C4102 1.574 . S
C4094 C4110 1.368 . S
H4095 C4103 0.950 . S
H4096 C4101 0.950 . S
H4097 C4102 0.949 . S
H4098 C4104 0.950 . S
H4099 C4105 0.950 . S
H4100 C4106 0.949 . S
C4101 H4096 0.950 . S
C4101 C4103 1.327 . S
C4101 C4107 1.429 . S
C4102 C4094 1.574 . S
C4102 H4097 0.949 . S
C4102 C4108 1.368 . S
C4103 C4087 1.349 . S
C4103 H4095 0.950 . S
C4103 C4101 1.327 . S
C4104 C4092 1.349 . S
C4104 H4098 0.950 . S
C4104 C4105 1.327 . S
C4105 H4099 0.950 . S
C4105 C4104 1.327 . S
C4105 C4109 1.429 . S
C4106 C4089 1.574 . S
C4106 H4100 0.949 . S
C4106 C4110 1.368 . S
C4107 C4088 1.429 . S
C4107 C4101 1.429 . S
C4107 C4108 1.523 . S
C4108 C4089 1.368 . S
C4108 C4102 1.368 . S
C4108 C4107 1.523 . S
C4109 C4093 1.429 . S
C4109 C4105 1.429 . S
C4109 C4110 1.523 . S
C4110 C4094 1.368 . S
C4110 C4106 1.368 . S
C4110 C4109 1.523 . S
H4111 C4086 0.950 . S
H4112 C4088 0.950 . S
H4113 C4089 0.949 . S
H4114 C4091 0.950 . S
H4115 C4093 0.950 . S
C4116 C4117 1.349 . S
C4116 C4118 1.327 . S
C4116 H4141 0.950 1_556 S
C4117 C4116 1.349 . S
C4117 C4133 1.349 . S
C4118 C4116 1.327 . S
C4118 C4137 1.429 . S
C4118 H4142 0.950 . S
C4119 C4136 1.574 . S
C4119 C4138 1.368 . S
C4119 H4143 0.949 . S
H4120 C4124 0.949 . S
C4121 C4122 1.349 . S
C4121 C4123 1.327 . S
C4121 H4144 0.950 . S
C4122 C4121 1.349 . S
C4122 C4134 1.349 . S
C4123 C4121 1.327 . S
C4123 C4139 1.429 . S
C4123 H4145 0.950 . S
C4124 H4120 0.949 . S
C4124 C4132 1.574 . S
C4124 C4140 1.368 . S
H4125 C4133 0.950 . S
H4126 C4131 0.950 . S
H4127 C4132 0.949 . S
H4128 C4134 0.950 . S
H4129 C4135 0.950 . S
H4130 C4136 0.949 . S
C4131 H4126 0.950 . S
C4131 C4133 1.327 . S
C4131 C4137 1.429 . S
C4132 C4124 1.574 . S
C4132 H4127 0.949 . S
C4132 C4138 1.368 . S
C4133 C4117 1.349 . S
C4133 H4125 0.950 . S
C4133 C4131 1.327 . S
C4134 C4122 1.349 . S
C4134 H4128 0.950 . S
C4134 C4135 1.327 . S
C4135 H4129 0.950 . S
C4135 C4134 1.327 . S
C4135 C4139 1.429 . S
C4136 C4119 1.574 . S
C4136 H4130 0.949 . S
C4136 C4140 1.368 . S
C4137 C4118 1.429 . S
C4137 C4131 1.429 . S
C4137 C4138 1.523 . S
C4138 C4119 1.368 . S
C4138 C4132 1.368 . S
C4138 C4137 1.523 . S
C4139 C4123 1.429 . S
C4139 C4135 1.429 . S
C4139 C4140 1.523 . S
C4140 C4124 1.368 . S
C4140 C4136 1.368 . S
C4140 C4139 1.523 . S
H4141 C4116 0.950 1_554 S
H4142 C4118 0.950 . S
H4143 C4119 0.949 . S
H4144 C4121 0.950 . S
H4145 C4123 0.950 . S
C4146 C4147 1.349 . S
C4146 C4148 1.327 . S
C4146 H4171 0.950 . S
C4147 C4146 1.349 . S
C4147 C4163 1.349 . S
C4148 C4146 1.327 . S
C4148 C4167 1.429 . S
C4148 H4172 0.950 . S
C4149 C4166 1.574 . S
C4149 C4168 1.368 1_556 S
C4149 H4173 0.949 . S
H4150 C4154 0.949 . S
C4151 C4152 1.349 . S
C4151 C4153 1.327 . S
C4151 H4174 0.950 . S
C4152 C4151 1.349 . S
C4152 C4164 1.349 . S
C4153 C4151 1.327 . S
C4153 C4169 1.429 . S
C4153 H4175 0.950 . S
C4154 H4150 0.949 . S
C4154 C4162 1.574 . S
C4154 C4170 1.368 1_554 S
H4155 C4163 0.950 . S
H4156 C4161 0.950 1_556 S
H4157 C4162 0.949 . S
H4158 C4164 0.950 . S
H4159 C4165 1.006 . S
H4160 C4166 0.949 . S
C4161 H4156 0.950 1_554 S
C4161 C4163 1.327 . S
C4161 C4167 1.429 . S
C4162 C4154 1.574 . S
C4162 H4157 0.949 . S
C4162 C4168 1.368 . S
C4163 C4147 1.349 . S
C4163 H4155 0.950 . S
C4163 C4161 1.327 . S
C4164 C4152 1.349 . S
C4164 H4158 0.950 . S
C4164 C4165 1.327 . S
C4165 H4159 1.006 . S
C4165 C4164 1.327 . S
C4165 C4169 1.429 . S
C4166 C4149 1.574 . S
C4166 H4160 0.949 . S
C4166 C4170 1.368 . S
C4167 C4148 1.429 . S
C4167 C4161 1.429 . S
C4167 C4168 1.523 . S
C4168 C4149 1.368 1_554 S
C4168 C4162 1.368 . S
C4168 C4167 1.523 . S
C4169 C4153 1.429 . S
C4169 C4165 1.429 . S
C4169 C4170 1.523 . S
C4170 C4154 1.368 1_556 S
C4170 C4166 1.368 . S
C4170 C4169 1.523 . S
H4171 C4146 0.950 . S
H4172 C4148 0.950 . S
H4173 C4149 0.949 . S
H4174 C4151 0.950 . S
H4175 C4153 0.950 . S
C4176 C4177 1.349 . S
C4176 C4178 1.327 1_554 S
C4176 H4201 0.950 . S
C4177 C4176 1.349 . S
C4177 C4193 1.349 . S
C4178 C4176 1.327 1_556 S
C4178 C4197 1.429 . S
C4178 H4202 0.950 . S
C4179 C4196 1.574 . S
C4179 C4198 1.368 . S
C4179 H4203 0.949 . S
H4180 C4184 0.949 . S
C4181 C4182 1.349 . S
C4181 C4183 1.327 . S
C4181 H4204 0.950 . S
C4182 C4181 1.349 . S
C4182 C4194 1.349 . S
C4183 C4181 1.327 . S
C4183 C4199 1.429 . S
C4183 H4205 0.950 . S
C4184 H4180 0.949 . S
C4184 C4192 1.574 . S
C4184 C4200 1.368 . S
H4185 C4193 0.950 . S
H4186 C4191 0.949 1_556 S
H4187 C4192 0.949 . S
H4188 C4194 0.950 . S
H4189 C4195 0.950 . S
H4190 C4196 0.949 . S
C4191 H4186 0.949 1_554 S
C4191 C4193 1.330 . S
C4191 C4197 1.427 1_554 S
C4192 C4184 1.574 . S
C4192 H4187 0.949 . S
C4192 C4198 1.368 . S
C4193 C4177 1.349 . S
C4193 H4185 0.950 . S
C4193 C4191 1.330 . S
C4194 C4182 1.349 . S
C4194 H4188 0.950 . S
C4194 C4195 1.327 . S
C4195 H4189 0.950 . S
C4195 C4194 1.327 . S
C4195 C4199 1.429 . S
C4196 C4179 1.574 . S
C4196 H4190 0.949 . S
C4196 C4200 1.368 . S
C4197 C4178 1.429 . S
C4197 C4191 1.427 1_556 S
C4197 C4198 1.523 . S
C4198 C4179 1.368 . S
C4198 C4192 1.368 . S
C4198 C4197 1.523 . S
C4199 C4183 1.429 . S
C4199 C4195 1.429 . S
C4199 C4200 1.523 . S
C4200 C4184 1.368 . S
C4200 C4196 1.368 . S
C4200 C4199 1.523 . S
H4201 C4176 0.950 . S
H4202 C4178 0.950 . S
H4203 C4179 0.949 . S
H4204 C4181 0.950 . S
H4205 C4183 0.950 . S
C4206 C4207 1.349 . S
C4206 C4208 1.327 . S
C4206 H4231 0.950 . S
C4207 C4206 1.349 . S
C4207 C4223 1.349 . S
C4208 C4206 1.327 . S
C4208 C4227 1.429 . S
C4208 H4232 0.950 . S
C4209 C4226 1.574 . S
C4209 C4228 1.368 . S
C4209 H4233 0.949 . S
H4210 C4214 0.949 . S
C4211 C4212 1.349 . S
C4211 C4213 1.327 . S
C4211 H4234 0.950 . S
C4212 C4211 1.349 . S
C4212 C4224 1.349 . S
C4213 C4211 1.327 . S
C4213 C4229 1.429 . S
C4213 H4235 0.950 . S
C4214 H4210 0.949 . S
C4214 C4222 1.574 . S
C4214 C4230 1.368 . S
H4215 C4223 0.950 . S
H4216 C4221 0.950 . S
H4217 C4222 0.949 . S
H4218 C4224 0.950 . S
H4219 C4225 0.950 . S
H4220 C4226 0.949 . S
C4221 H4216 0.950 . S
C4221 C4223 1.327 . S
C4221 C4227 1.429 . S
C4222 C4214 1.574 . S
C4222 H4217 0.949 . S
C4222 C4228 1.368 . S
C4223 C4207 1.349 . S
C4223 H4215 0.950 . S
C4223 C4221 1.327 . S
C4224 C4212 1.349 . S
C4224 H4218 0.950 . S
C4224 C4225 1.327 . S
C4225 H4219 0.950 . S
C4225 C4224 1.327 . S
C4225 C4229 1.429 . S
C4226 C4209 1.574 . S
C4226 H4220 0.949 . S
C4226 C4230 1.368 . S
C4227 C4208 1.429 . S
C4227 C4221 1.429 . S
C4227 C4228 1.523 . S
C4228 C4209 1.368 . S
C4228 C4222 1.368 . S
C4228 C4227 1.523 . S
C4229 C4213 1.429 . S
C4229 C4225 1.429 . S
C4229 C4230 1.523 . S
C4230 C4214 1.368 . S
C4230 C4226 1.368 . S
C4230 C4229 1.523 . S
H4231 C4206 0.950 . S
H4232 C4208 0.950 . S
H4233 C4209 0.949 . S
H4234 C4211 0.950 . S
H4235 C4213 0.950 . S
C4236 C4237 1.349 . S
C4236 C4238 1.327 . S
C4236 H4261 0.950 . S
C4237 C4236 1.349 . S
C4237 C4253 1.349 . S
C4238 C4236 1.327 . S
C4238 C4257 1.429 . S
C4238 H4262 0.950 . S
C4239 C4256 1.574 . S
C4239 C4258 1.368 . S
C4239 H4263 0.949 . S
H4240 C4244 0.949 . S
C4241 C4242 1.349 . S
C4241 C4243 1.327 . S
C4241 H4264 0.950 . S
C4242 C4241 1.349 . S
C4242 C4254 1.349 . S
C4243 C4241 1.327 . S
C4243 C4259 1.429 . S
C4243 H4265 0.950 . S
C4244 H4240 0.949 . S
C4244 C4252 1.574 . S
C4244 C4260 1.368 . S
H4245 C4253 0.950 . S
H4246 C4251 0.950 . S
H4247 C4252 0.949 . S
H4248 C4254 0.950 . S
H4249 C4255 0.950 . S
H4250 C4256 0.949 . S
C4251 H4246 0.950 . S
C4251 C4253 1.327 . S
C4251 C4257 1.429 . S
C4252 C4244 1.574 . S
C4252 H4247 0.949 . S
C4252 C4258 1.368 . S
C4253 C4237 1.349 . S
C4253 H4245 0.950 . S
C4253 C4251 1.327 . S
C4254 C4242 1.349 . S
C4254 H4248 0.950 . S
C4254 C4255 1.327 . S
C4255 H4249 0.950 . S
C4255 C4254 1.327 . S
C4255 C4259 1.429 . S
C4256 C4239 1.574 . S
C4256 H4250 0.949 . S
C4256 C4260 1.368 . S
C4257 C4238 1.429 . S
C4257 C4251 1.429 . S
C4257 C4258 1.523 1_554 S
C4258 C4239 1.368 . S
C4258 C4252 1.368 . S
C4258 C4257 1.523 1_556 S
C4259 C4243 1.429 . S
C4259 C4255 1.429 . S
C4259 C4260 1.523 . S
C4260 C4244 1.368 . S
C4260 C4256 1.368 . S
C4260 C4259 1.523 . S
H4261 C4236 0.950 . S
H4262 C4238 0.950 . S
H4263 C4239 0.949 . S
H4264 C4241 0.950 . S
H4265 C4243 0.950 . S
C4266 C4267 1.349 . S
C4266 C4268 1.327 . S
C4266 H4291 0.950 . S
C4267 C4266 1.349 . S
C4267 C4283 1.349 . S
C4268 C4266 1.327 . S
C4268 C4287 1.429 . S
C4268 H4292 0.950 . S
C4269 C4286 1.574 . S
C4269 C4288 1.368 . S
C4269 H4293 0.949 . S
H4270 C4274 0.949 . S
C4271 C4272 1.349 . S
C4271 C4273 1.327 . S
C4271 H4294 0.950 . S
C4272 C4271 1.349 . S
C4272 C4284 1.349 . S
C4273 C4271 1.327 . S
C4273 C4289 1.429 . S
C4273 H4295 0.950 . S
C4274 H4270 0.949 . S
C4274 C4282 1.574 . S
C4274 C4290 1.368 . S
H4275 C4283 0.950 . S
H4276 C4281 0.950 . S
H4277 C4282 0.949 . S
H4278 C4284 0.950 . S
H4279 C4285 0.950 . S
H4280 C4286 0.949 . S
C4281 H4276 0.950 . S
C4281 C4283 1.327 . S
C4281 C4287 1.429 . S
C4282 C4274 1.574 . S
C4282 H4277 0.949 . S
C4282 C4288 1.368 . S
C4283 C4267 1.349 . S
C4283 H4275 0.950 . S
C4283 C4281 1.327 . S
C4284 C4272 1.349 . S
C4284 H4278 0.950 . S
C4284 C4285 1.327 . S
C4285 H4279 0.950 . S
C4285 C4284 1.327 . S
C4285 C4289 1.429 . S
C4286 C4269 1.574 . S
C4286 H4280 0.949 . S
C4286 C4290 1.368 . S
C4287 C4268 1.429 . S
C4287 C4281 1.429 . S
C4287 C4288 1.523 . S
C4288 C4269 1.368 . S
C4288 C4282 1.368 . S
C4288 C4287 1.523 . S
C4289 C4273 1.429 . S
C4289 C4285 1.429 . S
C4289 C4290 1.523 . S
C4290 C4274 1.368 . S
C4290 C4286 1.368 . S
C4290 C4289 1.523 . S
H4291 C4266 0.950 . S
H4292 C4268 0.950 . S
H4293 C4269 0.949 . S
H4294 C4271 0.950 . S
H4295 C4273 0.950 . S
C4296 C4297 1.349 . S
C4296 C4298 1.327 . S
C4296 H4321 0.950 . S
C4297 C4296 1.349 . S
C4297 C4313 1.349 . S
C4298 C4296 1.327 . S
C4298 C4317 1.429 . S
C4298 H4322 0.950 . S
C4299 C4316 1.574 . S
C4299 C4318 1.368 . S
C4299 H4323 0.949 . S
H4300 C4304 0.949 . S
C4301 C4302 1.349 . S
C4301 C4303 1.327 . S
C4301 H4324 0.950 . S
C4302 C4301 1.349 . S
C4302 C4314 1.349 . S
C4303 C4301 1.327 . S
C4303 C4319 1.429 . S
C4303 H4325 0.950 . S
C4304 H4300 0.949 . S
C4304 C4312 1.574 . S
C4304 C4320 1.368 . S
H4305 C4313 0.950 . S
H4306 C4311 0.950 . S
H4307 C4312 0.949 . S
H4308 C4314 0.950 . S
H4309 C4315 0.950 . S
H4310 C4316 0.949 . S
C4311 H4306 0.950 . S
C4311 C4313 1.327 . S
C4311 C4317 1.429 . S
C4312 C4304 1.574 . S
C4312 H4307 0.949 . S
C4312 C4318 1.368 . S
C4313 C4297 1.349 . S
C4313 H4305 0.950 . S
C4313 C4311 1.327 . S
C4314 C4302 1.349 . S
C4314 H4308 0.950 . S
C4314 C4315 1.327 . S
C4315 H4309 0.950 . S
C4315 C4314 1.327 . S
C4315 C4319 1.429 . S
C4316 C4299 1.574 . S
C4316 H4310 0.949 . S
C4316 C4320 1.368 . S
C4317 C4298 1.429 . S
C4317 C4311 1.429 . S
C4317 C4318 1.523 . S
C4318 C4299 1.368 . S
C4318 C4312 1.368 . S
C4318 C4317 1.523 . S
C4319 C4303 1.429 . S
C4319 C4315 1.429 . S
C4319 C4320 1.523 . S
C4320 C4304 1.368 . S
C4320 C4316 1.368 . S
C4320 C4319 1.523 . S
H4321 C4296 0.950 . S
H4322 C4298 0.950 . S
H4323 C4299 0.949 . S
H4324 C4301 0.950 . S
H4325 C4303 0.950 . S
C4326 C4327 1.349 . S
C4326 C4328 1.327 . S
C4326 H4351 0.950 . S
C4327 C4326 1.349 . S
C4327 C4343 1.349 . S
C4328 C4326 1.327 . S
C4328 C4347 1.429 . S
C4328 H4352 0.950 . S
C4329 C4346 1.574 . S
C4329 C4348 1.368 . S
C4329 H4353 0.949 . S
H4330 C4334 0.949 . S
C4331 C4332 1.349 . S
C4331 C4333 1.327 . S
C4331 H4354 0.950 . S
C4332 C4331 1.349 . S
C4332 C4344 1.349 . S
C4333 C4331 1.327 . S
C4333 C4349 1.429 . S
C4333 H4355 0.950 . S
C4334 H4330 0.949 . S
C4334 C4342 1.574 . S
C4334 C4350 1.368 . S
H4335 C4343 0.950 . S
H4336 C4341 0.950 . S
H4337 C4342 0.949 . S
H4338 C4344 0.950 . S
H4339 C4345 0.950 . S
H4340 C4346 0.949 . S
C4341 H4336 0.950 . S
C4341 C4343 1.327 . S
C4341 C4347 1.429 . S
C4342 C4334 1.574 . S
C4342 H4337 0.949 . S
C4342 C4348 1.368 . S
C4343 C4327 1.349 . S
C4343 H4335 0.950 . S
C4343 C4341 1.327 . S
C4344 C4332 1.349 . S
C4344 H4338 0.950 . S
C4344 C4345 1.327 . S
C4345 H4339 0.950 . S
C4345 C4344 1.327 . S
C4345 C4349 1.429 . S
C4346 C4329 1.574 . S
C4346 H4340 0.949 . S
C4346 C4350 1.368 . S
C4347 C4328 1.429 . S
C4347 C4341 1.429 . S
C4347 C4348 1.523 . S
C4348 C4329 1.368 . S
C4348 C4342 1.368 . S
C4348 C4347 1.523 . S
C4349 C4333 1.429 . S
C4349 C4345 1.429 . S
C4349 C4350 1.523 . S
C4350 C4334 1.368 . S
C4350 C4346 1.368 . S
C4350 C4349 1.523 . S
H4351 C4326 0.950 . S
H4352 C4328 0.950 . S
H4353 C4329 0.949 . S
H4354 C4331 0.950 . S
H4355 C4333 0.950 . S
C4356 C4357 1.349 . S
C4356 C4358 1.327 . S
C4356 H4381 0.950 . S
C4357 C4356 1.349 . S
C4357 C4373 1.349 . S
C4358 C4356 1.327 . S
C4358 C4377 1.429 . S
C4358 H4382 0.950 . S
C4359 C4376 1.574 . S
C4359 C4378 1.368 . S
C4359 H4383 0.949 . S
H4360 C4364 0.949 . S
C4361 C4362 1.349 . S
C4361 C4363 1.327 . S
C4361 H4384 0.950 . S
C4362 C4361 1.349 . S
C4362 C4374 1.349 . S
C4363 C4361 1.327 . S
C4363 C4379 1.429 . S
C4363 H4385 0.950 . S
C4364 H4360 0.949 . S
C4364 C4372 1.574 . S
C4364 C4380 1.368 . S
H4365 C4373 0.950 . S
H4366 C4371 0.950 . S
H4367 C4372 0.949 . S
H4368 C4374 0.950 . S
H4369 C4375 0.950 . S
H4370 C4376 0.949 . S
C4371 H4366 0.950 . S
C4371 C4373 1.327 . S
C4371 C4377 1.429 . S
C4372 C4364 1.574 . S
C4372 H4367 0.949 . S
C4372 C4378 1.368 . S
C4373 C4357 1.349 . S
C4373 H4365 0.950 . S
C4373 C4371 1.327 . S
C4374 C4362 1.349 . S
C4374 H4368 0.950 . S
C4374 C4375 1.327 . S
C4375 H4369 0.950 . S
C4375 C4374 1.327 . S
C4375 C4379 1.429 . S
C4376 C4359 1.574 . S
C4376 H4370 0.949 . S
C4376 C4380 1.368 . S
C4377 C4358 1.429 . S
C4377 C4371 1.429 . S
C4377 C4378 1.523 . S
C4378 C4359 1.368 . S
C4378 C4372 1.368 . S
C4378 C4377 1.523 . S
C4379 C4363 1.429 . S
C4379 C4375 1.429 . S
C4379 C4380 1.523 . S
C4380 C4364 1.368 . S
C4380 C4376 1.368 . S
C4380 C4379 1.523 . S
H4381 C4356 0.950 . S
H4382 C4358 0.950 . S
H4383 C4359 0.949 . S
H4384 C4361 0.950 . S
H4385 C4363 0.950 . S
C4386 C4387 1.349 . S
C4386 C4388 1.327 . S
C4386 H4411 0.950 . S
C4387 C4386 1.349 . S
C4387 C4403 1.349 . S
C4388 C4386 1.327 . S
C4388 C4407 1.429 . S
C4388 H4412 0.950 . S
C4389 C4406 1.574 . S
C4389 C4408 1.368 . S
C4389 H4413 0.949 . S
H4390 C4394 0.949 . S
C4391 C4392 1.349 . S
C4391 C4393 1.327 . S
C4391 H4414 0.950 . S
C4392 C4391 1.349 . S
C4392 C4404 1.349 . S
C4393 C4391 1.327 . S
C4393 C4409 1.429 . S
C4393 H4415 0.950 . S
C4394 H4390 0.949 . S
C4394 C4402 1.574 . S
C4394 C4410 1.368 . S
H4395 C4403 0.950 . S
H4396 C4401 0.950 . S
H4397 C4402 0.949 . S
H4398 C4404 0.950 . S
H4399 C4405 0.950 . S
H4400 C4406 0.949 . S
C4401 H4396 0.950 . S
C4401 C4403 1.327 . S
C4401 C4407 1.429 . S
C4402 C4394 1.574 . S
C4402 H4397 0.949 . S
C4402 C4408 1.368 . S
C4403 C4387 1.349 . S
C4403 H4395 0.950 . S
C4403 C4401 1.327 . S
C4404 C4392 1.349 . S
C4404 H4398 0.950 . S
C4404 C4405 1.327 . S
C4405 H4399 0.950 . S
C4405 C4404 1.327 . S
C4405 C4409 1.429 . S
C4406 C4389 1.574 . S
C4406 H4400 0.949 . S
C4406 C4410 1.368 . S
C4407 C4388 1.429 . S
C4407 C4401 1.429 . S
C4407 C4408 1.523 . S
C4408 C4389 1.368 . S
C4408 C4402 1.368 . S
C4408 C4407 1.523 . S
C4409 C4393 1.429 . S
C4409 C4405 1.429 . S
C4409 C4410 1.523 . S
C4410 C4394 1.368 . S
C4410 C4406 1.368 . S
C4410 C4409 1.523 . S
H4411 C4386 0.950 . S
H4412 C4388 0.950 . S
H4413 C4389 0.949 . S
H4414 C4391 0.950 . S
H4415 C4393 0.950 . S
C4416 C4417 1.349 . S
C4416 C4418 1.327 . S
C4416 H4441 0.950 . S
C4417 C4416 1.349 . S
C4417 C4433 1.349 . S
C4418 C4416 1.327 . S
C4418 C4437 1.429 . S
C4418 H4442 0.950 . S
C4419 C4436 1.574 . S
C4419 C4438 1.368 . S
C4419 H4443 0.949 . S
H4420 C4424 0.949 . S
C4421 C4422 1.349 . S
C4421 C4423 1.327 . S
C4421 H4444 0.950 . S
C4422 C4421 1.349 . S
C4422 C4434 1.349 . S
C4423 C4421 1.327 . S
C4423 C4439 1.429 . S
C4423 H4445 0.950 . S
C4424 H4420 0.949 . S
C4424 C4432 1.574 . S
C4424 C4440 1.368 . S
H4425 C4433 0.950 . S
H4426 C4431 0.950 . S
H4427 C4432 0.949 . S
H4428 C4434 0.950 . S
H4429 C4435 0.950 . S
H4430 C4436 0.949 . S
C4431 H4426 0.950 . S
C4431 C4433 1.327 . S
C4431 C4437 1.429 . S
C4432 C4424 1.574 . S
C4432 H4427 0.949 . S
C4432 C4438 1.368 . S
C4433 C4417 1.349 . S
C4433 H4425 0.950 . S
C4433 C4431 1.327 . S
C4434 C4422 1.349 . S
C4434 H4428 0.950 . S
C4434 C4435 1.327 . S
C4435 H4429 0.950 . S
C4435 C4434 1.327 . S
C4435 C4439 1.429 . S
C4436 C4419 1.574 . S
C4436 H4430 0.949 . S
C4436 C4440 1.368 . S
C4437 C4418 1.429 . S
C4437 C4431 1.429 . S
C4437 C4438 1.523 . S
C4438 C4419 1.368 . S
C4438 C4432 1.368 . S
C4438 C4437 1.523 . S
C4439 C4423 1.429 . S
C4439 C4435 1.429 . S
C4439 C4440 1.523 . S
C4440 C4424 1.368 . S
C4440 C4436 1.368 . S
C4440 C4439 1.523 . S
H4441 C4416 0.950 . S
H4442 C4418 0.950 . S
H4443 C4419 0.949 . S
H4444 C4421 0.950 . S
H4445 C4423 0.950 . S
C4446 C4447 1.349 . S
C4446 C4448 1.327 . S
C4446 H4471 0.950 . S
C4447 C4446 1.349 . S
C4447 C4463 1.349 . S
C4448 C4446 1.327 . S
C4448 C4467 1.429 . S
C4448 H4472 0.950 . S
C4449 C4466 1.574 . S
C4449 C4468 1.368 . S
C4449 H4473 0.949 . S
H4450 C4454 0.949 . S
C4451 C4452 1.349 . S
C4451 C4453 1.327 . S
C4451 H4474 0.950 . S
C4452 C4451 1.349 . S
C4452 C4464 1.349 . S
C4453 C4451 1.327 . S
C4453 C4469 1.429 . S
C4453 H4475 0.950 . S
C4454 H4450 0.949 . S
C4454 C4462 1.574 . S
C4454 C4470 1.368 . S
H4455 C4463 0.950 . S
H4456 C4461 0.950 . S
H4457 C4462 0.949 . S
H4458 C4464 0.950 1_655 S
H4459 C4465 0.950 . S
H4460 C4466 0.949 . S
C4461 H4456 0.950 . S
C4461 C4463 1.327 . S
C4461 C4467 1.429 . S
C4462 C4454 1.574 . S
C4462 H4457 0.949 . S
C4462 C4468 1.368 . S
C4463 C4447 1.349 . S
C4463 H4455 0.950 . S
C4463 C4461 1.327 . S
C4464 C4452 1.349 . S
C4464 H4458 0.950 1_455 S
C4464 C4465 1.327 . S
C4465 H4459 0.950 . S
C4465 C4464 1.327 . S
C4465 C4469 1.429 . S
C4466 C4449 1.574 . S
C4466 H4460 0.949 . S
C4466 C4470 1.368 . S
C4467 C4448 1.429 . S
C4467 C4461 1.429 . S
C4467 C4468 1.523 . S
C4468 C4449 1.368 . S
C4468 C4462 1.368 . S
C4468 C4467 1.523 . S
C4469 C4453 1.429 . S
C4469 C4465 1.429 . S
C4469 C4470 1.523 . S
C4470 C4454 1.368 . S
C4470 C4466 1.368 . S
C4470 C4469 1.523 . S
H4471 C4446 0.950 . S
H4472 C4448 0.950 . S
H4473 C4449 0.949 . S
H4474 C4451 0.950 . S
H4475 C4453 0.950 . S
C4476 C4477 1.349 . S
C4476 C4478 1.327 . S
C4476 H4501 0.950 . S
C4477 C4476 1.349 . S
C4477 C4493 1.349 . S
C4478 C4476 1.327 . S
C4478 C4497 1.429 . S
C4478 H4502 0.950 . S
C4479 C4496 1.574 . S
C4479 C4498 1.368 . S
C4479 H4503 0.949 . S
H4480 C4484 0.949 . S
C4481 C4482 1.349 . S
C4481 C4483 1.327 . S
C4481 H4504 0.950 . S
C4482 C4481 1.349 . S
C4482 C4494 1.349 . S
C4483 C4481 1.327 . S
C4483 C4499 1.429 . S
C4483 H4505 0.950 . S
C4484 H4480 0.949 . S
C4484 C4492 1.574 . S
C4484 C4500 1.368 . S
H4485 C4493 0.950 . S
H4486 C4491 0.950 . S
H4487 C4492 0.949 . S
H4488 C4494 0.950 . S
H4489 C4495 0.950 . S
H4490 C4496 0.949 . S
C4491 H4486 0.950 . S
C4491 C4493 1.327 . S
C4491 C4497 1.429 . S
C4492 C4484 1.574 . S
C4492 H4487 0.949 . S
C4492 C4498 1.368 . S
C4493 C4477 1.349 . S
C4493 H4485 0.950 . S
C4493 C4491 1.327 . S
C4494 C4482 1.349 . S
C4494 H4488 0.950 . S
C4494 C4495 1.327 . S
C4495 H4489 0.950 . S
C4495 C4494 1.327 . S
C4495 C4499 1.429 . S
C4496 C4479 1.574 . S
C4496 H4490 0.949 . S
C4496 C4500 1.368 . S
C4497 C4478 1.429 . S
C4497 C4491 1.429 . S
C4497 C4498 1.523 . S
C4498 C4479 1.368 . S
C4498 C4492 1.368 . S
C4498 C4497 1.523 . S
C4499 C4483 1.429 . S
C4499 C4495 1.429 . S
C4499 C4500 1.523 . S
C4500 C4484 1.368 . S
C4500 C4496 1.368 . S
C4500 C4499 1.523 . S
H4501 C4476 0.950 . S
H4502 C4478 0.950 . S
H4503 C4479 0.949 . S
H4504 C4481 0.950 . S
H4505 C4483 0.950 . S
C4506 C4507 1.349 . S
C4506 C4508 1.327 . S
C4506 H4531 0.950 . S
C4507 C4506 1.349 . S
C4507 C4523 1.349 . S
C4508 C4506 1.327 . S
C4508 C4527 1.429 . S
C4508 H4532 0.950 . S
C4509 C4526 1.574 . S
C4509 C4528 1.368 . S
C4509 H4533 0.949 . S
H4510 C4514 0.949 . S
C4511 C4512 1.349 . S
C4511 C4513 1.327 . S
C4511 H4534 0.950 . S
C4512 C4511 1.349 . S
C4512 C4524 1.349 . S
C4513 C4511 1.327 . S
C4513 C4529 1.429 . S
C4513 H4535 0.950 . S
C4514 H4510 0.949 . S
C4514 C4522 1.574 . S
C4514 C4530 1.368 . S
H4515 C4523 0.950 . S
H4516 C4521 0.950 . S
H4517 C4522 0.949 . S
H4518 C4524 0.950 . S
H4519 C4525 0.950 . S
H4520 C4526 0.949 . S
C4521 H4516 0.950 . S
C4521 C4523 1.327 . S
C4521 C4527 1.429 . S
C4522 C4514 1.574 . S
C4522 H4517 0.949 . S
C4522 C4528 1.368 . S
C4523 C4507 1.349 . S
C4523 H4515 0.950 . S
C4523 C4521 1.327 . S
C4524 C4512 1.349 . S
C4524 H4518 0.950 . S
C4524 C4525 1.327 . S
C4525 H4519 0.950 . S
C4525 C4524 1.327 . S
C4525 C4529 1.429 . S
C4526 C4509 1.574 . S
C4526 H4520 0.949 . S
C4526 C4530 1.368 . S
C4527 C4508 1.429 . S
C4527 C4521 1.429 . S
C4527 C4528 1.523 . S
C4528 C4509 1.368 . S
C4528 C4522 1.368 . S
C4528 C4527 1.523 . S
C4529 C4513 1.429 . S
C4529 C4525 1.429 . S
C4529 C4530 1.523 . S
C4530 C4514 1.368 . S
C4530 C4526 1.368 . S
C4530 C4529 1.523 . S
H4531 C4506 0.950 . S
H4532 C4508 0.950 . S
H4533 C4509 0.949 . S
H4534 C4511 0.950 . S
H4535 C4513 0.950 . S
C4536 C4537 1.349 . S
C4536 C4538 1.327 . S
C4536 H4561 0.950 . S
C4537 C4536 1.349 . S
C4537 C4553 1.349 . S
C4538 C4536 1.327 . S
C4538 C4557 1.429 . S
C4538 H4562 0.950 . S
C4539 C4556 1.574 . S
C4539 C4558 1.368 . S
C4539 H4563 0.949 . S
H4540 C4544 0.986 . S
C4541 C4542 1.348 . S
C4541 C4543 1.327 . S
C4541 H4564 0.950 . S
C4542 C4541 1.348 . S
C4542 C4554 1.348 1_565 S
C4543 C4541 1.327 . S
C4543 C4559 1.429 . S
C4543 H4565 0.950 . S
C4544 H4540 0.986 . S
C4544 C4552 1.574 . S
C4544 C4560 1.368 . S
H4545 C4553 0.950 . S
H4546 C4551 0.950 . S
H4547 C4552 0.949 . S
H4548 C4554 0.950 . S
H4549 C4555 0.939 . S
H4550 C4556 0.949 . S
C4551 H4546 0.950 . S
C4551 C4553 1.327 . S
C4551 C4557 1.429 . S
C4552 C4544 1.574 . S
C4552 H4547 0.949 . S
C4552 C4558 1.368 . S
C4553 C4537 1.349 . S
C4553 H4545 0.950 . S
C4553 C4551 1.327 . S
C4554 C4542 1.348 1_545 S
C4554 H4548 0.950 . S
C4554 C4555 1.386 . S
C4555 H4549 0.939 . S
C4555 C4554 1.386 . S
C4555 C4559 1.388 1_545 S
C4556 C4539 1.574 . S
C4556 H4550 0.949 . S
C4556 C4560 1.368 . S
C4557 C4538 1.429 . S
C4557 C4551 1.429 . S
C4557 C4558 1.523 . S
C4558 C4539 1.368 . S
C4558 C4552 1.368 . S
C4558 C4557 1.523 . S
C4559 C4543 1.429 . S
C4559 C4555 1.388 1_565 S
C4559 C4560 1.523 . S
C4560 C4544 1.368 . S
C4560 C4556 1.368 . S
C4560 C4559 1.523 . S
H4561 C4536 0.950 . S
H4562 C4538 0.950 . S
H4563 C4539 0.949 . S
H4564 C4541 0.950 . S
H4565 C4543 0.950 . S
C4566 C4567 1.349 . S
C4566 C4568 1.327 . S
C4566 H4591 0.950 . S
C4567 C4566 1.349 . S
C4567 C4583 1.349 . S
C4568 C4566 1.327 . S
C4568 C4587 1.429 . S
C4568 H4592 0.950 . S
C4569 C4586 1.574 . S
C4569 C4588 1.368 . S
C4569 H4593 0.949 . S
H4570 C4574 0.949 . S
C4571 C4572 1.349 . S
C4571 C4573 1.327 . S
C4571 H4594 0.950 . S
C4572 C4571 1.349 . S
C4572 C4584 1.349 1_655 S
C4573 C4571 1.327 . S
C4573 C4589 1.429 1_655 S
C4573 H4595 0.950 . S
C4574 H4570 0.949 . S
C4574 C4582 1.574 . S
C4574 C4590 1.368 . S
H4575 C4583 0.950 . S
H4576 C4581 0.950 . S
H4577 C4582 0.949 . S
H4578 C4584 0.950 . S
H4579 C4585 0.950 . S
H4580 C4586 0.949 1_655 S
C4581 H4576 0.950 . S
C4581 C4583 1.327 . S
C4581 C4587 1.429 . S
C4582 C4574 1.574 . S
C4582 H4577 0.949 . S
C4582 C4588 1.368 . S
C4583 C4567 1.349 . S
C4583 H4575 0.950 . S
C4583 C4581 1.327 . S
C4584 C4572 1.349 1_455 S
C4584 H4578 0.950 . S
C4584 C4585 1.327 . S
C4585 H4579 0.950 . S
C4585 C4584 1.327 . S
C4585 C4589 1.429 . S
C4586 C4569 1.574 . S
C4586 H4580 0.949 1_455 S
C4586 C4590 1.368 . S
C4587 C4568 1.429 . S
C4587 C4581 1.429 . S
C4587 C4588 1.523 . S
C4588 C4569 1.368 . S
C4588 C4582 1.368 . S
C4588 C4587 1.523 . S
C4589 C4573 1.429 1_455 S
C4589 C4585 1.429 . S
C4589 C4590 1.523 . S
C4590 C4574 1.368 . S
C4590 C4586 1.368 . S
C4590 C4589 1.523 . S
H4591 C4566 0.950 . S
H4592 C4568 0.950 . S
H4593 C4569 0.949 . S
H4594 C4571 0.950 . S
H4595 C4573 0.950 . S
C4596 C4597 1.349 . S
C4596 C4598 1.327 . S
C4596 H4621 0.950 . S
C4597 C4596 1.349 . S
C4597 C4613 1.349 . S
C4598 C4596 1.327 . S
C4598 C4617 1.429 . S
C4598 H4622 0.950 . S
C4599 C4616 1.574 . S
C4599 C4618 1.368 . S
C4599 H4623 0.949 . S
H4600 C4604 0.949 . S
C4601 C4602 1.349 . S
C4601 C4603 1.327 . S
C4601 H4624 0.950 . S
C4602 C4601 1.349 . S
C4602 C4614 1.349 . S
C4603 C4601 1.327 . S
C4603 C4619 1.429 . S
C4603 H4625 0.950 . S
C4604 H4600 0.949 . S
C4604 C4612 1.574 . S
C4604 C4620 1.368 . S
H4605 C4613 0.950 . S
H4606 C4611 0.950 . S
H4607 C4612 0.949 . S
H4608 C4614 0.950 . S
H4609 C4615 0.950 . S
H4610 C4616 0.949 . S
C4611 H4606 0.950 . S
C4611 C4613 1.327 . S
C4611 C4617 1.429 . S
C4612 C4604 1.574 . S
C4612 H4607 0.949 . S
C4612 C4618 1.368 . S
C4613 C4597 1.349 . S
C4613 H4605 0.950 . S
C4613 C4611 1.327 . S
C4614 C4602 1.349 . S
C4614 H4608 0.950 . S
C4614 C4615 1.327 . S
C4615 H4609 0.950 . S
C4615 C4614 1.327 . S
C4615 C4619 1.429 . S
C4616 C4599 1.574 . S
C4616 H4610 0.949 . S
C4616 C4620 1.368 . S
C4617 C4598 1.429 . S
C4617 C4611 1.429 . S
C4617 C4618 1.523 . S
C4618 C4599 1.368 . S
C4618 C4612 1.368 . S
C4618 C4617 1.523 . S
C4619 C4603 1.429 . S
C4619 C4615 1.429 . S
C4619 C4620 1.523 . S
C4620 C4604 1.368 . S
C4620 C4616 1.368 . S
C4620 C4619 1.523 . S
H4621 C4596 0.950 . S
H4622 C4598 0.950 . S
H4623 C4599 0.949 . S
H4624 C4601 0.950 . S
H4625 C4603 0.950 . S
C4626 C4627 1.349 . S
C4626 C4628 1.327 . S
C4626 H4651 0.950 . S
C4627 C4626 1.349 . S
C4627 C4643 1.349 . S
C4628 C4626 1.327 . S
C4628 C4647 1.429 . S
C4628 H4652 0.950 . S
C4629 C4646 1.574 . S
C4629 C4648 1.368 . S
C4629 H4653 0.949 . S
H4630 C4634 0.949 . S
C4631 C4632 1.349 . S
C4631 C4633 1.327 . S
C4631 H4654 0.950 . S
C4632 C4631 1.349 . S
C4632 C4644 1.349 . S
C4633 C4631 1.327 . S
C4633 C4649 1.429 . S
C4633 H4655 0.950 . S
C4634 H4630 0.949 . S
C4634 C4642 1.574 . S
C4634 C4650 1.368 . S
H4635 C4643 0.950 . S
H4636 C4641 0.950 . S
H4637 C4642 0.949 . S
H4638 C4644 0.950 . S
H4639 C4645 0.950 . S
H4640 C4646 0.949 . S
C4641 H4636 0.950 . S
C4641 C4643 1.327 . S
C4641 C4647 1.429 . S
C4642 C4634 1.574 . S
C4642 H4637 0.949 . S
C4642 C4648 1.368 . S
C4643 C4627 1.349 . S
C4643 H4635 0.950 . S
C4643 C4641 1.327 . S
C4644 C4632 1.349 . S
C4644 H4638 0.950 . S
C4644 C4645 1.327 . S
C4645 H4639 0.950 . S
C4645 C4644 1.327 . S
C4645 C4649 1.429 . S
C4646 C4629 1.574 . S
C4646 H4640 0.949 . S
C4646 C4650 1.368 . S
C4647 C4628 1.429 . S
C4647 C4641 1.429 . S
C4647 C4648 1.523 . S
C4648 C4629 1.368 . S
C4648 C4642 1.368 . S
C4648 C4647 1.523 . S
C4649 C4633 1.429 . S
C4649 C4645 1.429 . S
C4649 C4650 1.523 . S
C4650 C4634 1.368 . S
C4650 C4646 1.368 . S
C4650 C4649 1.523 . S
H4651 C4626 0.950 . S
H4652 C4628 0.950 . S
H4653 C4629 0.949 . S
H4654 C4631 0.950 . S
H4655 C4633 0.950 . S
C4656 C4657 1.349 . S
C4656 C4658 1.327 . S
C4656 H4681 0.950 . S
C4657 C4656 1.349 . S
C4657 C4673 1.349 . S
C4658 C4656 1.327 . S
C4658 C4677 1.429 . S
C4658 H4682 0.950 . S
C4659 C4676 1.574 . S
C4659 C4678 1.368 . S
C4659 H4683 0.949 . S
H4660 C4664 0.949 . S
C4661 C4662 1.349 . S
C4661 C4663 1.327 . S
C4661 H4684 0.950 . S
C4662 C4661 1.349 . S
C4662 C4674 1.349 . S
C4663 C4661 1.327 . S
C4663 C4679 1.429 . S
C4663 H4685 0.950 . S
C4664 H4660 0.949 . S
C4664 C4672 1.574 . S
C4664 C4680 1.368 . S
H4665 C4673 0.950 . S
H4666 C4671 0.950 . S
H4667 C4672 0.949 . S
H4668 C4674 0.950 . S
H4669 C4675 0.950 . S
H4670 C4676 0.949 . S
C4671 H4666 0.950 . S
C4671 C4673 1.327 . S
C4671 C4677 1.429 . S
C4672 C4664 1.574 . S
C4672 H4667 0.949 . S
C4672 C4678 1.368 . S
C4673 C4657 1.349 . S
C4673 H4665 0.950 . S
C4673 C4671 1.327 . S
C4674 C4662 1.349 . S
C4674 H4668 0.950 . S
C4674 C4675 1.327 . S
C4675 H4669 0.950 . S
C4675 C4674 1.327 . S
C4675 C4679 1.429 . S
C4676 C4659 1.574 . S
C4676 H4670 0.949 . S
C4676 C4680 1.368 . S
C4677 C4658 1.429 . S
C4677 C4671 1.429 . S
C4677 C4678 1.523 . S
C4678 C4659 1.368 . S
C4678 C4672 1.368 . S
C4678 C4677 1.523 . S
C4679 C4663 1.429 . S
C4679 C4675 1.429 . S
C4679 C4680 1.523 . S
C4680 C4664 1.368 . S
C4680 C4676 1.368 . S
C4680 C4679 1.523 . S
H4681 C4656 0.950 . S
H4682 C4658 0.950 . S
H4683 C4659 0.949 . S
H4684 C4661 0.950 . S
H4685 C4663 0.950 . S
C4686 C4687 1.349 . S
C4686 C4688 1.327 . S
C4686 H4711 0.950 . S
C4687 C4686 1.349 . S
C4687 C4703 1.349 . S
C4688 C4686 1.327 . S
C4688 C4707 1.429 . S
C4688 H4712 0.950 . S
C4689 C4706 1.574 . S
C4689 C4708 1.368 . S
C4689 H4713 0.949 . S
H4690 C4694 0.949 . S
C4691 C4692 1.349 . S
C4691 C4693 1.327 . S
C4691 H4714 0.950 . S
C4692 C4691 1.349 . S
C4692 C4704 1.349 . S
C4693 C4691 1.327 . S
C4693 C4709 1.429 . S
C4693 H4715 0.950 . S
C4694 H4690 0.949 . S
C4694 C4702 1.574 . S
C4694 C4710 1.368 . S
H4695 C4703 0.950 . S
H4696 C4701 0.950 . S
H4697 C4702 0.949 . S
H4698 C4704 0.950 . S
H4699 C4705 0.950 . S
H4700 C4706 0.949 . S
C4701 H4696 0.950 . S
C4701 C4703 1.327 . S
C4701 C4707 1.429 . S
C4702 C4694 1.574 . S
C4702 H4697 0.949 . S
C4702 C4708 1.368 . S
C4703 C4687 1.349 . S
C4703 H4695 0.950 . S
C4703 C4701 1.327 . S
C4704 C4692 1.349 . S
C4704 H4698 0.950 . S
C4704 C4705 1.327 . S
C4705 H4699 0.950 . S
C4705 C4704 1.327 . S
C4705 C4709 1.429 . S
C4706 C4689 1.574 . S
C4706 H4700 0.949 . S
C4706 C4710 1.368 . S
C4707 C4688 1.429 . S
C4707 C4701 1.429 . S
C4707 C4708 1.523 . S
C4708 C4689 1.368 . S
C4708 C4702 1.368 . S
C4708 C4707 1.523 . S
C4709 C4693 1.429 . S
C4709 C4705 1.429 . S
C4709 C4710 1.523 . S
C4710 C4694 1.368 . S
C4710 C4706 1.368 . S
C4710 C4709 1.523 . S
H4711 C4686 0.950 . S
H4712 C4688 0.950 . S
H4713 C4689 0.949 . S
H4714 C4691 0.950 . S
H4715 C4693 0.950 . S
C4716 C4717 1.349 . S
C4716 C4718 1.327 . S
C4716 H4741 0.950 . S
C4717 C4716 1.349 . S
C4717 C4733 1.349 . S
C4718 C4716 1.327 . S
C4718 C4737 1.429 . S
C4718 H4742 0.950 . S
C4719 C4736 1.574 . S
C4719 C4738 1.368 . S
C4719 H4743 0.949 . S
H4720 C4724 0.949 . S
C4721 C4722 1.349 . S
C4721 C4723 1.327 . S
C4721 H4744 0.950 1_545 S
C4722 C4721 1.349 . S
C4722 C4734 1.349 . S
C4723 C4721 1.327 . S
C4723 C4739 1.429 . S
C4723 H4745 0.950 1_545 S
C4724 H4720 0.949 . S
C4724 C4732 1.574 . S
C4724 C4740 1.368 . S
H4725 C4733 0.950 . S
H4726 C4731 0.950 . S
H4727 C4732 0.949 . S
H4728 C4734 0.950 . S
H4729 C4735 0.950 . S
H4730 C4736 1.031 . S
C4731 H4726 0.950 . S
C4731 C4733 1.327 . S
C4731 C4737 1.429 . S
C4732 C4724 1.574 . S
C4732 H4727 0.949 . S
C4732 C4738 1.368 . S
C4733 C4717 1.349 . S
C4733 H4725 0.950 . S
C4733 C4731 1.327 . S
C4734 C4722 1.349 . S
C4734 H4728 0.950 . S
C4734 C4735 1.327 . S
C4735 H4729 0.950 . S
C4735 C4734 1.327 . S
C4735 C4739 1.429 . S
C4736 C4719 1.574 . S
C4736 H4730 1.031 . S
C4736 C4740 1.368 . S
C4737 C4718 1.429 . S
C4737 C4731 1.429 . S
C4737 C4738 1.523 . S
C4738 C4719 1.368 . S
C4738 C4732 1.368 . S
C4738 C4737 1.523 . S
C4739 C4723 1.429 . S
C4739 C4735 1.429 . S
C4739 C4740 1.523 . S
C4740 C4724 1.368 . S
C4740 C4736 1.368 . S
C4740 C4739 1.523 . S
H4741 C4716 0.950 . S
H4742 C4718 0.950 . S
H4743 C4719 0.949 . S
H4744 C4721 0.950 1_565 S
H4745 C4723 0.950 1_565 S
C4746 C4747 1.349 . S
C4746 C4748 1.327 . S
C4746 H4771 0.950 . S
C4747 C4746 1.349 . S
C4747 C4763 1.349 . S
C4748 C4746 1.327 . S
C4748 C4767 1.429 . S
C4748 H4772 0.950 . S
C4749 C4766 1.574 . S
C4749 C4768 1.368 . S
C4749 H4773 0.949 . S
H4750 C4754 0.949 . S
C4751 C4752 1.349 . S
C4751 C4753 1.327 . S
C4751 H4774 0.950 1_655 S
C4752 C4751 1.349 . S
C4752 C4764 1.349 . S
C4753 C4751 1.327 . S
C4753 C4769 1.429 . S
C4753 H4775 0.950 . S
C4754 H4750 0.949 . S
C4754 C4762 1.574 . S
C4754 C4770 1.368 . S
H4755 C4763 0.950 . S
H4756 C4761 0.950 . S
H4757 C4762 0.949 . S
H4758 C4764 0.950 . S
H4759 C4765 0.950 . S
H4760 C4766 0.949 . S
C4761 H4756 0.950 . S
C4761 C4763 1.327 . S
C4761 C4767 1.429 . S
C4762 C4754 1.574 . S
C4762 H4757 0.949 . S
C4762 C4768 1.368 . S
C4763 C4747 1.349 . S
C4763 H4755 0.950 . S
C4763 C4761 1.327 . S
C4764 C4752 1.349 . S
C4764 H4758 0.950 . S
C4764 C4765 1.327 . S
C4765 H4759 0.950 . S
C4765 C4764 1.327 . S
C4765 C4769 1.429 . S
C4766 C4749 1.574 . S
C4766 H4760 0.949 . S
C4766 C4770 1.368 . S
C4767 C4748 1.429 . S
C4767 C4761 1.429 . S
C4767 C4768 1.523 . S
C4768 C4749 1.368 . S
C4768 C4762 1.368 . S
C4768 C4767 1.523 . S
C4769 C4753 1.429 . S
C4769 C4765 1.429 . S
C4769 C4770 1.523 . S
C4770 C4754 1.368 . S
C4770 C4766 1.368 . S
C4770 C4769 1.523 . S
H4771 C4746 0.950 . S
H4772 C4748 0.950 . S
H4773 C4749 0.949 . S
H4774 C4751 0.950 1_455 S
H4775 C4753 0.950 . S
C4776 C4777 1.349 . S
C4776 C4778 1.327 . S
C4776 H4801 0.950 . S
C4777 C4776 1.349 . S
C4777 C4793 1.349 . S
C4778 C4776 1.327 . S
C4778 C4797 1.429 . S
C4778 H4802 0.950 . S
C4779 C4796 1.574 . S
C4779 C4798 1.368 . S
C4779 H4803 0.949 . S
H4780 C4784 0.949 . S
C4781 C4782 1.349 . S
C4781 C4783 1.327 . S
C4781 H4804 0.950 . S
C4782 C4781 1.349 . S
C4782 C4794 1.349 . S
C4783 C4781 1.327 . S
C4783 C4799 1.429 . S
C4783 H4805 0.950 . S
C4784 H4780 0.949 . S
C4784 C4792 1.574 . S
C4784 C4800 1.368 . S
H4785 C4793 0.950 . S
H4786 C4791 0.950 . S
H4787 C4792 0.949 . S
H4788 C4794 0.950 . S
H4789 C4795 0.950 . S
H4790 C4796 0.949 . S
C4791 H4786 0.950 . S
C4791 C4793 1.327 . S
C4791 C4797 1.429 . S
C4792 C4784 1.574 . S
C4792 H4787 0.949 . S
C4792 C4798 1.368 . S
C4793 C4777 1.349 . S
C4793 H4785 0.950 . S
C4793 C4791 1.327 . S
C4794 C4782 1.349 . S
C4794 H4788 0.950 . S
C4794 C4795 1.327 . S
C4795 H4789 0.950 . S
C4795 C4794 1.327 . S
C4795 C4799 1.429 . S
C4796 C4779 1.574 . S
C4796 H4790 0.949 . S
C4796 C4800 1.368 . S
C4797 C4778 1.429 . S
C4797 C4791 1.429 . S
C4797 C4798 1.523 . S
C4798 C4779 1.368 . S
C4798 C4792 1.368 . S
C4798 C4797 1.523 . S
C4799 C4783 1.429 . S
C4799 C4795 1.429 . S
C4799 C4800 1.523 . S
C4800 C4784 1.368 . S
C4800 C4796 1.368 . S
C4800 C4799 1.523 . S
H4801 C4776 0.950 . S
H4802 C4778 0.950 . S
H4803 C4779 0.949 . S
H4804 C4781 0.950 . S
H4805 C4783 0.950 . S
C4806 C4807 1.349 . S
C4806 C4808 1.327 . S
C4806 H4831 0.950 . S
C4807 C4806 1.349 . S
C4807 C4823 1.349 . S
C4808 C4806 1.327 . S
C4808 C4827 1.429 . S
C4808 H4832 0.950 . S
C4809 C4826 1.574 . S
C4809 C4828 1.368 . S
C4809 H4833 0.949 . S
H4810 C4814 0.949 . S
C4811 C4812 1.349 . S
C4811 C4813 1.327 . S
C4811 H4834 0.950 . S
C4812 C4811 1.349 . S
C4812 C4824 1.349 . S
C4813 C4811 1.327 . S
C4813 C4829 1.429 . S
C4813 H4835 0.950 . S
C4814 H4810 0.949 . S
C4814 C4822 1.574 . S
C4814 C4830 1.368 . S
H4815 C4823 0.950 . S
H4816 C4821 0.950 . S
H4817 C4822 0.949 . S
H4818 C4824 0.950 . S
H4819 C4825 0.950 . S
H4820 C4826 0.949 . S
C4821 H4816 0.950 . S
C4821 C4823 1.327 . S
C4821 C4827 1.429 . S
C4822 C4814 1.574 . S
C4822 H4817 0.949 . S
C4822 C4828 1.368 . S
C4823 C4807 1.349 . S
C4823 H4815 0.950 . S
C4823 C4821 1.327 . S
C4824 C4812 1.349 . S
C4824 H4818 0.950 . S
C4824 C4825 1.327 . S
C4825 H4819 0.950 . S
C4825 C4824 1.327 . S
C4825 C4829 1.429 . S
C4826 C4809 1.574 . S
C4826 H4820 0.949 . S
C4826 C4830 1.368 . S
C4827 C4808 1.429 . S
C4827 C4821 1.429 . S
C4827 C4828 1.523 . S
C4828 C4809 1.368 . S
C4828 C4822 1.368 . S
C4828 C4827 1.523 . S
C4829 C4813 1.429 . S
C4829 C4825 1.429 . S
C4829 C4830 1.523 . S
C4830 C4814 1.368 . S
C4830 C4826 1.368 . S
C4830 C4829 1.523 . S
H4831 C4806 0.950 . S
H4832 C4808 0.950 . S
H4833 C4809 0.949 . S
H4834 C4811 0.950 . S
H4835 C4813 0.950 . S
C4836 C4837 1.349 . S
C4836 C4838 1.327 . S
C4836 H4861 0.950 . S
C4837 C4836 1.349 . S
C4837 C4853 1.349 . S
C4838 C4836 1.327 . S
C4838 C4857 1.429 . S
C4838 H4862 0.950 . S
C4839 C4856 1.574 . S
C4839 C4858 1.368 . S
C4839 H4863 0.949 . S
H4840 C4844 0.949 . S
C4841 C4842 1.349 . S
C4841 C4843 1.327 . S
C4841 H4864 0.950 . S
C4842 C4841 1.349 . S
C4842 C4854 1.349 . S
C4843 C4841 1.327 . S
C4843 C4859 1.429 . S
C4843 H4865 0.950 . S
C4844 H4840 0.949 . S
C4844 C4852 1.574 . S
C4844 C4860 1.368 . S
H4845 C4853 0.950 . S
H4846 C4851 0.950 . S
H4847 C4852 0.949 . S
H4848 C4854 0.950 . S
H4849 C4855 0.950 . S
H4850 C4856 0.949 . S
C4851 H4846 0.950 . S
C4851 C4853 1.327 . S
C4851 C4857 1.429 . S
C4852 C4844 1.574 . S
C4852 H4847 0.949 . S
C4852 C4858 1.368 . S
C4853 C4837 1.349 . S
C4853 H4845 0.950 . S
C4853 C4851 1.327 . S
C4854 C4842 1.349 . S
C4854 H4848 0.950 . S
C4854 C4855 1.327 . S
C4855 H4849 0.950 . S
C4855 C4854 1.327 . S
C4855 C4859 1.429 . S
C4856 C4839 1.574 . S
C4856 H4850 0.949 . S
C4856 C4860 1.368 . S
C4857 C4838 1.429 . S
C4857 C4851 1.429 . S
C4857 C4858 1.523 . S
C4858 C4839 1.368 . S
C4858 C4852 1.368 . S
C4858 C4857 1.523 . S
C4859 C4843 1.429 . S
C4859 C4855 1.429 . S
C4859 C4860 1.523 . S
C4860 C4844 1.368 . S
C4860 C4856 1.368 . S
C4860 C4859 1.523 . S
H4861 C4836 0.950 . S
H4862 C4838 0.950 . S
H4863 C4839 0.949 . S
H4864 C4841 0.950 . S
H4865 C4843 0.950 . S
C4866 C4867 1.349 . S
C4866 C4868 1.327 . S
C4866 H4891 0.950 . S
C4867 C4866 1.349 . S
C4867 C4883 1.349 . S
C4868 C4866 1.327 . S
C4868 C4887 1.429 . S
C4868 H4892 0.950 . S
C4869 C4886 1.574 . S
C4869 C4888 1.368 . S
C4869 H4893 0.949 . S
H4870 C4874 0.949 . S
C4871 C4872 1.349 . S
C4871 C4873 1.327 . S
C4871 H4894 0.950 . S
C4872 C4871 1.349 . S
C4872 C4884 1.349 . S
C4873 C4871 1.327 . S
C4873 C4889 1.429 . S
C4873 H4895 0.950 . S
C4874 H4870 0.949 . S
C4874 C4882 1.574 . S
C4874 C4890 1.368 . S
H4875 C4883 0.950 . S
H4876 C4881 0.950 . S
H4877 C4882 0.949 . S
H4878 C4884 0.950 . S
H4879 C4885 0.950 . S
H4880 C4886 0.949 . S
C4881 H4876 0.950 . S
C4881 C4883 1.327 . S
C4881 C4887 1.429 . S
C4882 C4874 1.574 . S
C4882 H4877 0.949 . S
C4882 C4888 1.368 . S
C4883 C4867 1.349 . S
C4883 H4875 0.950 . S
C4883 C4881 1.327 . S
C4884 C4872 1.349 . S
C4884 H4878 0.950 . S
C4884 C4885 1.327 . S
C4885 H4879 0.950 . S
C4885 C4884 1.327 . S
C4885 C4889 1.429 . S
C4886 C4869 1.574 . S
C4886 H4880 0.949 . S
C4886 C4890 1.368 . S
C4887 C4868 1.429 . S
C4887 C4881 1.429 . S
C4887 C4888 1.523 . S
C4888 C4869 1.368 . S
C4888 C4882 1.368 . S
C4888 C4887 1.523 . S
C4889 C4873 1.429 . S
C4889 C4885 1.429 . S
C4889 C4890 1.523 . S
C4890 C4874 1.368 . S
C4890 C4886 1.368 . S
C4890 C4889 1.523 . S
H4891 C4866 0.950 . S
H4892 C4868 0.950 . S
H4893 C4869 0.949 . S
H4894 C4871 0.950 . S
H4895 C4873 0.950 . S
C4896 C4897 1.349 . S
C4896 C4898 1.327 . S
C4896 H4921 0.950 . S
C4897 C4896 1.349 . S
C4897 C4913 1.349 . S
C4898 C4896 1.327 . S
C4898 C4917 1.429 . S
C4898 H4922 0.950 . S
C4899 C4916 1.574 . S
C4899 C4918 1.368 . S
C4899 H4923 0.949 . S
H4900 C4904 0.949 . S
C4901 C4902 1.349 . S
C4901 C4903 1.327 . S
C4901 H4924 0.950 . S
C4902 C4901 1.349 . S
C4902 C4914 1.349 . S
C4903 C4901 1.327 . S
C4903 C4919 1.429 . S
C4903 H4925 0.950 . S
C4904 H4900 0.949 . S
C4904 C4912 1.574 . S
C4904 C4920 1.368 . S
H4905 C4913 0.950 . S
H4906 C4911 0.950 . S
H4907 C4912 0.949 . S
H4908 C4914 0.950 . S
H4909 C4915 0.950 . S
H4910 C4916 0.949 . S
C4911 H4906 0.950 . S
C4911 C4913 1.327 . S
C4911 C4917 1.429 . S
C4912 C4904 1.574 . S
C4912 H4907 0.949 . S
C4912 C4918 1.368 . S
C4913 C4897 1.349 . S
C4913 H4905 0.950 . S
C4913 C4911 1.327 . S
C4914 C4902 1.349 . S
C4914 H4908 0.950 . S
C4914 C4915 1.327 . S
C4915 H4909 0.950 . S
C4915 C4914 1.327 . S
C4915 C4919 1.429 . S
C4916 C4899 1.574 . S
C4916 H4910 0.949 . S
C4916 C4920 1.368 . S
C4917 C4898 1.429 . S
C4917 C4911 1.429 . S
C4917 C4918 1.523 . S
C4918 C4899 1.368 . S
C4918 C4912 1.368 . S
C4918 C4917 1.523 . S
C4919 C4903 1.429 . S
C4919 C4915 1.429 . S
C4919 C4920 1.523 . S
C4920 C4904 1.368 . S
C4920 C4916 1.368 . S
C4920 C4919 1.523 . S
H4921 C4896 0.950 . S
H4922 C4898 0.950 . S
H4923 C4899 0.949 . S
H4924 C4901 0.950 . S
H4925 C4903 0.950 . S
C4926 C4927 1.349 . S
C4926 C4928 1.327 . S
C4926 H4951 0.950 . S
C4927 C4926 1.349 . S
C4927 C4943 1.349 . S
C4928 C4926 1.327 . S
C4928 C4947 1.429 . S
C4928 H4952 0.950 . S
C4929 C4946 1.574 . S
C4929 C4948 1.368 . S
C4929 H4953 0.949 . S
H4930 C4934 0.949 . S
C4931 C4932 1.349 . S
C4931 C4933 1.327 . S
C4931 H4954 0.950 . S
C4932 C4931 1.349 . S
C4932 C4944 1.349 . S
C4933 C4931 1.327 . S
C4933 C4949 1.429 . S
C4933 H4955 0.950 . S
C4934 H4930 0.949 . S
C4934 C4942 1.574 . S
C4934 C4950 1.368 . S
H4935 C4943 0.950 . S
H4936 C4941 0.950 . S
H4937 C4942 0.949 . S
H4938 C4944 0.950 . S
H4939 C4945 0.950 . S
H4940 C4946 0.949 . S
C4941 H4936 0.950 . S
C4941 C4943 1.327 . S
C4941 C4947 1.429 . S
C4942 C4934 1.574 . S
C4942 H4937 0.949 . S
C4942 C4948 1.368 . S
C4943 C4927 1.349 . S
C4943 H4935 0.950 . S
C4943 C4941 1.327 . S
C4944 C4932 1.349 . S
C4944 H4938 0.950 . S
C4944 C4945 1.327 . S
C4945 H4939 0.950 . S
C4945 C4944 1.327 . S
C4945 C4949 1.429 . S
C4946 C4929 1.574 . S
C4946 H4940 0.949 . S
C4946 C4950 1.368 . S
C4947 C4928 1.429 . S
C4947 C4941 1.429 . S
C4947 C4948 1.523 . S
C4948 C4929 1.368 . S
C4948 C4942 1.368 . S
C4948 C4947 1.523 . S
C4949 C4933 1.429 . S
C4949 C4945 1.429 . S
C4949 C4950 1.523 . S
C4950 C4934 1.368 . S
C4950 C4946 1.368 . S
C4950 C4949 1.523 . S
H4951 C4926 0.950 . S
H4952 C4928 0.950 . S
H4953 C4929 0.949 . S
H4954 C4931 0.950 . S
H4955 C4933 0.950 . S
C4956 C4957 1.349 . S
C4956 C4958 1.327 . S
C4956 H4981 0.950 . S
C4957 C4956 1.349 . S
C4957 C4973 1.349 . S
C4958 C4956 1.327 . S
C4958 C4977 1.429 . S
C4958 H4982 0.950 . S
C4959 C4976 1.574 . S
C4959 C4978 1.368 . S
C4959 H4983 0.949 . S
H4960 C4964 0.949 . S
C4961 C4962 1.349 . S
C4961 C4963 1.327 . S
C4961 H4984 0.950 . S
C4962 C4961 1.349 . S
C4962 C4974 1.349 . S
C4963 C4961 1.327 . S
C4963 C4979 1.429 . S
C4963 H4985 0.950 . S
C4964 H4960 0.949 . S
C4964 C4972 1.574 . S
C4964 C4980 1.368 . S
H4965 C4973 0.950 . S
H4966 C4971 0.950 . S
H4967 C4972 0.949 . S
H4968 C4974 0.950 . S
H4969 C4975 0.950 . S
H4970 C4976 0.949 . S
C4971 H4966 0.950 . S
C4971 C4973 1.327 . S
C4971 C4977 1.429 . S
C4972 C4964 1.574 . S
C4972 H4967 0.949 . S
C4972 C4978 1.368 . S
C4973 C4957 1.349 . S
C4973 H4965 0.950 . S
C4973 C4971 1.327 . S
C4974 C4962 1.349 . S
C4974 H4968 0.950 . S
C4974 C4975 1.327 . S
C4975 H4969 0.950 . S
C4975 C4974 1.327 . S
C4975 C4979 1.429 . S
C4976 C4959 1.574 . S
C4976 H4970 0.949 . S
C4976 C4980 1.368 . S
C4977 C4958 1.429 . S
C4977 C4971 1.429 . S
C4977 C4978 1.523 . S
C4978 C4959 1.368 . S
C4978 C4972 1.368 . S
C4978 C4977 1.523 . S
C4979 C4963 1.429 . S
C4979 C4975 1.429 . S
C4979 C4980 1.523 . S
C4980 C4964 1.368 . S
C4980 C4976 1.368 . S
C4980 C4979 1.523 . S
H4981 C4956 0.950 . S
H4982 C4958 0.950 . S
H4983 C4959 0.949 . S
H4984 C4961 0.950 . S
H4985 C4963 0.950 . S
C4986 C4987 1.349 . S
C4986 C4988 1.327 . S
C4986 H5011 0.950 . S
C4987 C4986 1.349 . S
C4987 C5003 1.349 . S
C4988 C4986 1.327 . S
C4988 C5007 1.429 . S
C4988 H5012 0.950 . S
C4989 C5006 1.574 . S
C4989 C5008 1.368 . S
C4989 H5013 0.949 . S
H4990 C4994 0.949 . S
C4991 C4992 1.349 . S
C4991 C4993 1.327 . S
C4991 H5014 0.950 . S
C4992 C4991 1.349 . S
C4992 C5004 1.349 . S
C4993 C4991 1.327 . S
C4993 C5009 1.429 . S
C4993 H5015 0.950 . S
C4994 H4990 0.949 . S
C4994 C5002 1.574 . S
C4994 C5010 1.368 . S
H4995 C5003 0.950 . S
H4996 C5001 0.950 . S
H4997 C5002 0.949 . S
H4998 C5004 0.950 . S
H4999 C5005 0.950 . S
H5000 C5006 0.949 . S
C5001 H4996 0.950 . S
C5001 C5003 1.327 . S
C5001 C5007 1.429 . S
C5002 C4994 1.574 . S
C5002 H4997 0.949 . S
C5002 C5008 1.368 . S
C5003 C4987 1.349 . S
C5003 H4995 0.950 . S
C5003 C5001 1.327 . S
C5004 C4992 1.349 . S
C5004 H4998 0.950 . S
C5004 C5005 1.327 . S
C5005 H4999 0.950 . S
C5005 C5004 1.327 . S
C5005 C5009 1.429 . S
C5006 C4989 1.574 . S
C5006 H5000 0.949 . S
C5006 C5010 1.368 . S
C5007 C4988 1.429 . S
C5007 C5001 1.429 . S
C5007 C5008 1.523 . S
C5008 C4989 1.368 . S
C5008 C5002 1.368 . S
C5008 C5007 1.523 . S
C5009 C4993 1.429 . S
C5009 C5005 1.429 . S
C5009 C5010 1.523 . S
C5010 C4994 1.368 . S
C5010 C5006 1.368 . S
C5010 C5009 1.523 . S
H5011 C4986 0.950 . S
H5012 C4988 0.950 . S
H5013 C4989 0.949 . S
H5014 C4991 0.950 . S
H5015 C4993 0.950 . S
C5016 C5017 1.349 . S
C5016 C5018 1.327 . S
C5016 H5041 0.950 . S
C5017 C5016 1.349 . S
C5017 C5033 1.349 . S
C5018 C5016 1.327 . S
C5018 C5037 1.429 . S
C5018 H5042 0.950 . S
C5019 C5036 1.574 . S
C5019 C5038 1.368 . S
C5019 H5043 0.949 . S
H5020 C5024 0.949 . S
C5021 C5022 1.349 . S
C5021 C5023 1.327 . S
C5021 H5044 0.950 . S
C5022 C5021 1.349 . S
C5022 C5034 1.349 . S
C5023 C5021 1.327 . S
C5023 C5039 1.429 . S
C5023 H5045 0.950 . S
C5024 H5020 0.949 . S
C5024 C5032 1.574 . S
C5024 C5040 1.368 . S
H5025 C5033 0.950 . S
H5026 C5031 0.950 . S
H5027 C5032 0.949 . S
H5028 C5034 0.950 . S
H5029 C5035 0.950 . S
H5030 C5036 0.949 . S
C5031 H5026 0.950 . S
C5031 C5033 1.327 . S
C5031 C5037 1.429 . S
C5032 C5024 1.574 . S
C5032 H5027 0.949 . S
C5032 C5038 1.368 . S
C5033 C5017 1.349 . S
C5033 H5025 0.950 . S
C5033 C5031 1.327 . S
C5034 C5022 1.349 . S
C5034 H5028 0.950 . S
C5034 C5035 1.327 . S
C5035 H5029 0.950 . S
C5035 C5034 1.327 . S
C5035 C5039 1.429 . S
C5036 C5019 1.574 . S
C5036 H5030 0.949 . S
C5036 C5040 1.368 . S
C5037 C5018 1.429 . S
C5037 C5031 1.429 . S
C5037 C5038 1.523 . S
C5038 C5019 1.368 . S
C5038 C5032 1.368 . S
C5038 C5037 1.523 . S
C5039 C5023 1.429 . S
C5039 C5035 1.429 . S
C5039 C5040 1.523 . S
C5040 C5024 1.368 . S
C5040 C5036 1.368 . S
C5040 C5039 1.523 . S
H5041 C5016 0.950 . S
H5042 C5018 0.950 . S
H5043 C5019 0.949 . S
H5044 C5021 0.950 . S
H5045 C5023 0.950 . S
C5046 C5047 1.349 . S
C5046 C5048 1.327 . S
C5046 H5071 0.950 . S
C5047 C5046 1.349 . S
C5047 C5063 1.349 . S
C5048 C5046 1.327 . S
C5048 C5067 1.429 . S
C5048 H5072 0.950 . S
C5049 C5066 1.574 . S
C5049 C5068 1.368 . S
C5049 H5073 0.949 . S
H5050 C5054 0.949 . S
C5051 C5052 1.349 1_565 S
C5051 C5053 1.327 . S
C5051 H5074 0.950 . S
C5052 C5051 1.349 1_545 S
C5052 C5064 1.349 . S
C5053 C5051 1.327 . S
C5053 C5069 1.429 1_565 S
C5053 H5075 0.950 . S
C5054 H5050 0.949 . S
C5054 C5062 1.574 . S
C5054 C5070 1.368 . S
H5055 C5063 0.950 . S
H5056 C5061 0.950 . S
H5057 C5062 0.949 . S
H5058 C5064 0.950 . S
H5059 C5065 0.950 . S
H5060 C5066 0.949 1_565 S
C5061 H5056 0.950 . S
C5061 C5063 1.327 . S
C5061 C5067 1.429 . S
C5062 C5054 1.574 . S
C5062 H5057 0.949 . S
C5062 C5068 1.368 . S
C5063 C5047 1.349 . S
C5063 H5055 0.950 . S
C5063 C5061 1.327 . S
C5064 C5052 1.349 . S
C5064 H5058 0.950 . S
C5064 C5065 1.327 . S
C5065 H5059 0.950 . S
C5065 C5064 1.327 . S
C5065 C5069 1.429 . S
C5066 C5049 1.574 . S
C5066 H5060 0.949 1_545 S
C5066 C5070 1.368 . S
C5067 C5048 1.429 . S
C5067 C5061 1.429 . S
C5067 C5068 1.523 . S
C5068 C5049 1.368 . S
C5068 C5062 1.368 . S
C5068 C5067 1.523 . S
C5069 C5053 1.429 1_545 S
C5069 C5065 1.429 . S
C5069 C5070 1.523 . S
C5070 C5054 1.368 . S
C5070 C5066 1.368 . S
C5070 C5069 1.523 . S
H5071 C5046 0.950 . S
H5072 C5048 0.950 . S
H5073 C5049 0.949 . S
H5074 C5051 0.950 . S
H5075 C5053 0.950 . S
C2917 C49 1.051 . S
C2922 C2313 1.028 . S
C2947 C137 1.584 . S
C2952 C2393 1.560 . S
C2982 C2461 1.306 . S
C2977 C205 1.315 . S
C3007 C196 1.783 . S
C3012 C2541 1.809 . S
C3037 C57 1.553 . S
C3042 C2615 1.578 . S
C3067 C145 1.596 1_556 S
C3072 C2683 1.542 . S
C3097 C313 1.038 . S
C3102 C2609 1.020 . S
C3132 C2689 1.477 . S
C3127 C401 1.467 . S
C3162 C2535 1.325 1_565 S
C3157 C489 1.332 . S
C3187 C469 1.808 . S
C3192 C2467 1.854 1_545 S
C3222 C2319 1.590 . S
C3217 C293 1.560 . S
C3247 C381 1.467 . S
C3252 C2387 1.457 . S
C3277 C577 1.321 . S
C3282 C2757 1.250 . S
C3307 C645 1.609 . S
C3312 C2837 1.566 . S
C3342 C2905 1.412 . S
C3337 C733 1.471 . S
C3367 C724 1.907 . S
C3372 C1653 1.877 . S
C3397 C585 1.749 . S
C3402 C1727 1.714 . S
C3427 C636 1.636 . S
C3432 C1795 1.578 . S
C3457 C841 1.004 . S
C3462 C1721 0.989 . S
C3487 C937 1.541 . S
C3492 C1801 1.548 . S
C3522 C1647 1.411 . S
C3517 C1025 1.418 . S
C3552 C2911 1.934 . S
C3547 C988 1.927 . S
C3582 C2763 1.537 . S
C3577 C821 1.537 . S
C3612 C2831 1.473 . S
C3607 C900 1.485 . S
C3637 C1105 1.181 . S
C3642 C1869 1.122 . S
C3667 C1193 1.667 . S
C3672 C1949 1.630 . S
C3697 C1281 1.560 . S
C3702 C2017 1.505 . S
C3727 C1289 2.027 . S
C3732 C2097 1.992 . S
C3762 C2171 1.639 . S
C3757 C1113 1.679 . S
C3792 C2239 1.573 . S
C3787 C1201 1.641 . S
C3822 C2165 1.138 . S
C3817 C1369 1.160 . S
C3852 C2245 1.472 . S
C3847 C1457 1.472 . S
C3877 C1553 1.298 . S
C3882 C2091 1.288 . S
C3912 C2023 1.802 . S
C3907 C1516 1.792 . S
C3937 C1349 1.632 . S
C3942 C1875 1.637 . S
C3972 C1943 1.490 . S
C3967 C1437 1.494 . S
C4002 C1623 2.031 . S
C3997 C29 2.035 . S
C4027 C117 1.344 . S
C4032 C1697 1.340 . S
C4062 C1783 1.562 . S
C4057 C225 1.540 . S
C4092 C1857 1.089 . S
C4087 C233 1.080 1_556 S
C4122 C1919 1.606 . S
C4117 C20 1.609 . S
C4152 C2005 1.515 . S
C4147 C108 1.505 . S
C4177 C321 2.243 . S
C4182 C1993 2.178 . S
C4207 C409 1.578 . S
C4212 C1845 1.507 . S
C4237 C497 1.811 . S
C4242 C1931 1.794 . S
C4267 C460 1.385 . S
C4272 C1709 1.341 . S
C4302 C1771 1.761 . S
C4297 C284 1.833 . S
C4327 C372 1.748 . S
C4332 C1635 1.718 . S
C4362 C2067 1.889 . S
C4357 C557 1.906 . S
C4387 C665 1.519 . S
C4392 C2141 1.508 . S
C4417 C753 1.543 . S
C4422 C2227 1.541 . S
C4452 C2301 0.648 . S
C4447 C761 0.637 . S
C4477 C548 1.411 . S
C4482 C2363 1.405 . S
C4507 C673 1.193 . S
C4512 C2449 1.203 . S
C4537 C849 1.689 . S
C4542 C2437 1.644 1_565 S
C4567 C929 1.101 . S
C4572 C2289 1.084 . S
C4602 C2375 1.590 . S
C4597 C1017 1.620 . S
C4627 C997 1.317 . S
C4632 C2153 1.264 . S
C4657 C812 1.797 . S
C4662 C2215 1.720 . S
C4692 C2079 1.831 . S
C4687 C909 1.869 . S
C4722 C2511 1.607 . S
C4717 C1085 1.617 . S
C4747 C1173 0.967 . S
C4752 C2585 0.967 . S
C4777 C1261 1.367 . S
C4782 C2671 1.374 . S
C4812 C2745 1.009 . S
C4807 C1252 1.019 . S
C4842 C2807 1.585 . S
C4837 C1076 1.595 . S
C4867 C1164 1.638 . S
C4872 C2893 1.641 . S
C4897 C1377 2.121 . S
C4902 C2881 2.036 . S
C4927 C1465 1.737 . S
C4932 C2733 1.658 . S
C4962 C2819 1.743 . S
C4957 C1545 1.788 . S
C4992 C2597 0.747 . S
C4987 C1525 0.741 . S
C5022 C2659 1.566 . S
C5017 C1340 1.632 . S
C5047 C1428 1.301 . S
C5052 C2523 1.301 . S
