# Generated by pormake.
# Topology anh, (6,3)-cn, num edge types: 1
# Building blocks:
#     Node 0, Type 0, BuildingBlock: PAMTUU_clean_sbu_0, # of connection points: 6
#     Node 1, Type 0, BuildingBlock: PAMTUU_clean_sbu_0, # of connection points: 6
#     Node 2, Type 0, BuildingBlock: PAMTUU_clean_sbu_0, # of connection points: 6
#     Node 3, Type 1, BuildingBlock: CUQRIR_clean_linker_1, # of connection points: 3
#     Node 4, Type 1, BuildingBlock: CUQRIR_clean_linker_1, # of connection points: 3
#     Node 5, Type 1, BuildingBlock: CUQRIR_clean_linker_1, # of connection points: 3
#     Node 6, Type 1, BuildingBlock: CUQRIR_clean_linker_1, # of connection points: 3
#     Node 7, Type 1, BuildingBlock: CUQRIR_clean_linker_1, # of connection points: 3
#     Node 8, Type 1, BuildingBlock: CUQRIR_clean_linker_1, # of connection points: 3
#     Edge 9, Type (0, 1), BuildingBlock: KIFKEQ_clean_linker_1, # of connection points: 2
#     Edge 10, Type (0, 1), BuildingBlock: KIFKEQ_clean_linker_1, # of connection points: 2
#     Edge 11, Type (0, 1), BuildingBlock: KIFKEQ_clean_linker_1, # of connection points: 2
#     Edge 12, Type (0, 1), BuildingBlock: KIFKEQ_clean_linker_1, # of connection points: 2
#     Edge 13, Type (0, 1), BuildingBlock: KIFKEQ_clean_linker_1, # of connection points: 2
#     Edge 14, Type (0, 1), BuildingBlock: KIFKEQ_clean_linker_1, # of connection points: 2
#     Edge 15, Type (0, 1), BuildingBlock: KIFKEQ_clean_linker_1, # of connection points: 2
#     Edge 16, Type (0, 1), BuildingBlock: KIFKEQ_clean_linker_1, # of connection points: 2
#     Edge 17, Type (0, 1), BuildingBlock: KIFKEQ_clean_linker_1, # of connection points: 2
#     Edge 18, Type (0, 1), BuildingBlock: KIFKEQ_clean_linker_1, # of connection points: 2
#     Edge 19, Type (0, 1), BuildingBlock: KIFKEQ_clean_linker_1, # of connection points: 2
#     Edge 20, Type (0, 1), BuildingBlock: KIFKEQ_clean_linker_1, # of connection points: 2
#     Edge 21, Type (0, 1), BuildingBlock: KIFKEQ_clean_linker_1, # of connection points: 2
#     Edge 22, Type (0, 1), BuildingBlock: KIFKEQ_clean_linker_1, # of connection points: 2
#     Edge 23, Type (0, 1), BuildingBlock: KIFKEQ_clean_linker_1, # of connection points: 2
#     Edge 24, Type (0, 1), BuildingBlock: KIFKEQ_clean_linker_1, # of connection points: 2
#     Edge 25, Type (0, 1), BuildingBlock: KIFKEQ_clean_linker_1, # of connection points: 2
#     Edge 26, Type (0, 1), BuildingBlock: KIFKEQ_clean_linker_1, # of connection points: 2
# Relax obj value: 0.311
# Max RMSD: 0.218
# Mean RMSD: 0.167
data_MOF--net-anh--node1-PAMTUU_clean_sbu_0--node2-CUQRIR_clean_linker_1--edge1-KIFKEQ_clean_linker_1
_symmetry_space_group_name_H-M    P1
_symmetry_Int_Tables_number       1
_symmetry_cell_setting            triclinic
loop_
_symmetry_equiv_pos_as_xyz
'x, y, z'
_cell_length_a     28.170224
_cell_length_b     27.946791
_cell_length_c     48.394483
_cell_angle_alpha  89.960483
_cell_angle_beta   89.244288
_cell_angle_gamma 119.86673
loop_
_atom_site_label
_atom_site_type_symbol
_atom_site_fract_x
_atom_site_fract_y
_atom_site_fract_z
_atom_type_partial_charge
Tb0 Tb 0.20846 0.69142 0.15957 0.0
Tb1 Tb 0.26713 0.62035 0.17287 0.0
C2 C 0.24072 0.63713 0.11193 0.0
C3 C 1.13096 0.73532 0.11867 0.0
C4 C 1.05469 0.70586 0.07614 0.0
C5 C 1.07493 0.75703 0.08957 0.0
C6 C 1.11248 0.77139 0.11094 0.0
C7 C 1.11535 0.68718 0.10351 0.0
C8 C 1.07744 0.67242 0.08252 0.0
C9 C 0.16447 0.74551 0.14312 0.0
O10 O 1.14053 0.604 0.15741 0.0
O11 O 0.18026 0.5627 0.18129 0.0
O12 O 0.26782 0.65919 0.2122 0.0
O13 O 0.20142 0.68254 0.20386 0.0
O14 O 0.32406 0.59598 0.16162 0.0
O15 O 0.27066 0.56022 0.19735 0.0
O16 O 0.33593 0.70586 0.16716 0.0
O17 O 0.29001 0.75337 0.17455 0.0
O18 O 0.24153 0.68157 0.12079 0.0
O19 O 0.24044 0.60145 0.12969 0.0
C20 C 1.13643 0.56072 0.17091 0.0
O21 O 1.14296 0.70708 0.16207 0.0
O22 O 0.21515 0.75963 0.13785 0.0
C23 C 0.23285 0.67449 0.22066 0.0
C24 C 0.35431 0.56037 0.19749 0.0
C25 C 0.44318 0.55125 0.21673 0.0
C26 C 0.44857 0.60361 0.21223 0.0
C27 C 0.4044 0.60815 0.20248 0.0
C28 C 0.34726 0.50872 0.2046 0.0
C29 C 0.39121 0.50408 0.21413 0.0
C30 C 0.31026 0.56185 0.18252 0.0
C31 C 0.33648 0.75272 0.17214 0.0
H32 H 1.05931 0.78441 0.08472 0.0
H33 H 1.12524 0.80935 0.12212 0.0
H34 H 1.13014 0.65933 0.10897 0.0
H35 H 1.06288 0.63257 0.07301 0.0
H36 H 0.48777 0.64082 0.2145 0.0
H37 H 0.41019 0.64852 0.19747 0.0
H38 H 0.30859 0.47148 0.20106 0.0
H39 H 0.38529 0.46303 0.21705 0.0
Tb40 Tb 0.67985 0.10877 0.48757 0.0
Tb41 Tb 0.80765 0.17053 0.50363 0.0
C42 C 0.76941 0.15435 0.44222 0.0
C43 C 0.53547 1.07473 0.47649 0.0
C44 C 0.44172 1.08612 0.4807 0.0
C45 C 0.4561 1.07088 0.45557 0.0
C46 C 0.50239 1.06523 0.45354 0.0
C47 C 0.52327 1.09283 0.50128 0.0
C48 C 0.47653 1.09828 0.5034 0.0
C49 C 0.581 1.06344 0.47399 0.0
O50 O 0.69239 1.04035 0.50161 0.0
O51 O 0.78636 1.0835 0.50048 0.0
O52 O 0.7606 0.13341 0.54172 0.0
O53 O 0.68541 0.13841 0.52915 0.0
O54 O 0.8861 0.18377 0.49394 0.0
O55 O 0.8727 0.22367 0.52895 0.0
O56 O 0.78743 0.23688 0.5074 0.0
O57 O 0.70274 0.19702 0.48717 0.0
O58 O 0.72555 0.10989 0.45097 0.0
O59 O 0.80304 0.18975 0.46013 0.0
C60 C 0.7382 1.03828 0.50329 0.0
O61 O 0.62154 1.09677 0.45782 0.0
O62 O 0.59769 1.05143 0.49663 0.0
C63 C 0.7154 0.13389 0.5482 0.0
C64 C 0.94894 0.27861 0.50015 0.0
C65 C 1.00149 0.38468 0.47587 0.0
C66 C 0.98683 0.33792 0.4596 0.0
C67 C 0.96087 0.2854 0.4716 0.0
C68 C 0.96816 0.3257 0.51674 0.0
C69 C 0.99408 0.37829 0.5047 0.0
C70 C 0.90884 0.2239 0.51168 0.0
C71 C 0.74533 0.24029 0.49812 0.0
H72 H 0.42983 1.05992 0.4378 0.0
H73 H 0.5113 1.05147 0.43423 0.0
H74 H 0.54883 0.10117 0.51919 0.0
H75 H 0.46669 0.11024 0.52299 0.0
H76 H 0.99313 0.34172 0.4374 0.0
H77 H 0.94722 0.25011 0.45816 0.0
H78 H 0.95974 0.32171 0.53879 0.0
H79 H 1.00486 0.41356 0.51779 0.0
Tb80 Tb 0.64459 0.54094 0.82091 0.0
Tb81 Tb 0.70956 0.6687 0.83948 0.0
C82 C 0.69206 0.63497 0.77732 0.0
C83 C 0.53474 0.3955 0.80702 0.0
C84 C 0.43247 0.29769 0.80413 0.0
C85 C 0.4747 0.29978 0.82023 0.0
C86 C 0.52531 0.34808 0.82154 0.0
C87 C 0.49135 0.3948 0.79257 0.0
C88 C 0.44067 0.34628 0.79114 0.0
C89 C 0.59111 0.44267 0.80477 0.0
O90 O 0.72599 0.55341 0.83286 0.0
O91 O 0.77538 0.64813 0.83469 0.0
O92 O 0.70016 0.62006 0.87662 0.0
O93 O 0.62319 0.54122 0.86369 0.0
O94 O 0.77465 0.74835 0.83105 0.0
O95 O 0.72135 0.73256 0.86638 0.0
O96 O 0.62337 0.64756 0.84476 0.0
O97 O 0.57867 0.56277 0.82376 0.0
O98 O 0.69031 0.58937 0.7851 0.0
O99 O 0.68886 0.6675 0.79584 0.0
C100 C 0.77337 0.59987 0.83521 0.0
O101 O 0.59847 0.48514 0.79012 0.0
O102 O 0.62005 0.45731 0.82722 0.0
C103 C 0.65709 0.57202 0.88272 0.0
C104 C 0.74484 0.81233 0.8396 0.0
C105 C 0.69875 0.86919 0.81334 0.0
C106 C 0.74177 0.86543 0.80055 0.0
C107 C 0.76485 0.83753 0.81362 0.0
C108 C 0.7056 0.82091 0.8535 0.0
C109 C 0.68266 0.849 0.84045 0.0
C110 C 0.7577 0.7702 0.84979 0.0
C111 C 0.57775 0.60478 0.83602 0.0
H112 H 0.47027 0.26297 0.83012 0.0
H113 H 0.55805 0.34742 0.83274 0.0
H114 H 0.49718 0.43084 0.78127 0.0
H115 H 0.40884 0.346 0.7787 0.0
H116 H 0.75572 0.88171 0.77987 0.0
H117 H 0.79578 0.83259 0.80253 0.0
H118 H 0.68979 0.80265 0.87368 0.0
H119 H 0.64959 0.85134 0.85084 0.0
C120 C 0.73783 0.1583 0.19593 0.0
N121 N 0.77667 0.19447 0.21391 0.0
N122 N 0.69847 0.11158 0.20921 0.0
C123 C 0.74009 0.16636 0.16519 0.0
C124 C 0.71467 0.12085 0.23583 0.0
N125 N 0.76148 0.17 0.23874 0.0
C126 C 0.68352 1.08202 0.25945 0.0
H127 H 0.72036 0.19101 0.16004 0.0
H128 H 0.71767 0.12609 0.15456 0.0
H129 H 0.78314 0.18887 0.15755 0.0
H130 H 0.63919 1.05746 0.25501 0.0
H131 H 0.68867 0.10452 0.27904 0.0
H132 H 0.69949 1.05327 0.26246 0.0
C133 C 0.73513 0.63818 0.53069 0.0
N134 N 0.73241 0.67421 0.5491 0.0
N135 N 0.73768 0.59611 0.5439 0.0
C136 C 0.73891 0.64584 0.4999 0.0
C137 C 0.73595 0.60786 0.57098 0.0
N138 N 0.73335 0.6548 0.57418 0.0
C139 C 0.73438 0.57182 0.5946 0.0
H140 H 0.69693 0.6266 0.49154 0.0
H141 H 0.76032 0.62566 0.49026 0.0
H142 H 0.76073 0.69034 0.49431 0.0
H143 H 0.77685 0.58618 0.60132 0.0
H144 H 0.71569 0.52807 0.58825 0.0
H145 H 0.71094 0.57426 0.6126 0.0
C146 C 0.17351 0.59523 0.86392 0.0
N147 N 0.2122 0.59723 0.88178 0.0
N148 N 1.13147 0.59713 0.87765 0.0
C149 C 0.17854 0.59567 0.83302 0.0
C150 C 0.14594 0.59986 0.90448 0.0
N151 N 0.19411 0.60016 0.90707 0.0
C152 C 1.11243 0.6018 0.92854 0.0
H153 H 0.22215 0.61901 0.82631 0.0
H154 H 0.15578 0.61412 0.82338 0.0
H155 H 0.16074 0.55256 0.82574 0.0
H156 H 1.11688 0.58103 0.94705 0.0
H157 H 1.06841 0.58188 0.92337 0.0
H158 H 1.12712 0.64555 0.93383 0.0
C159 C 1.0799 0.78942 0.42906 0.0
N160 N 1.08349 0.75683 0.40948 0.0
N161 N 1.11202 0.84361 0.42243 0.0
C162 C 1.05124 0.76846 0.45656 0.0
C163 C 1.13412 0.84236 0.39752 0.0
N164 N 1.11738 0.78983 0.38987 0.0
C165 C 0.17684 0.8928 0.38226 0.0
H166 H 1.04899 0.80146 0.46823 0.0
H167 H 1.07351 0.75259 0.46887 0.0
H168 H 1.0092 0.73365 0.45337 0.0
H169 H 0.2167 0.9088 0.39271 0.0
H170 H 0.16568 0.92562 0.38258 0.0
H171 H 0.18135 0.88347 0.36043 0.0
C172 C 0.39073 0.94645 0.73474 0.0
N173 N 0.4341 0.95247 0.71966 0.0
N174 N 0.37296 0.98061 0.72548 0.0
C175 C 0.3703 0.91228 0.76079 0.0
C176 C 0.40645 1.00624 0.70338 0.0
N177 N 0.44388 0.98969 0.70013 0.0
C178 C 0.40622 1.05186 0.68691 0.0
H179 H 0.36517 0.8708 0.75708 0.0
H180 H 0.33069 0.90787 0.76791 0.0
H181 H 0.4011 0.93193 0.77723 0.0
H182 H 0.42338 1.08981 0.69957 0.0
H183 H 0.36376 1.04035 0.68155 0.0
H184 H 0.43043 1.06063 0.66744 0.0
C185 C 0.68476 0.43311 0.10753 0.0
N186 N 0.68558 0.43877 0.07973 0.0
N187 N 0.63494 0.41937 0.11846 0.0
C188 C 0.73485 0.44833 0.12437 0.0
C189 C 0.60467 0.41435 0.09588 0.0
N190 N 0.63543 0.42634 0.07249 0.0
C191 C 0.54717 0.40487 0.09705 0.0
H192 H 0.75646 0.42731 0.116 0.0
H193 H 0.72399 0.4363 0.14639 0.0
H194 H 0.76344 0.49347 0.12278 0.0
H195 H 0.54756 0.44155 0.1061 0.0
H196 H 0.52108 0.36881 0.11049 0.0
H197 H 0.52867 0.39701 0.07629 0.0
H198 H 0.45719 0.47461 0.24626 0.0
H199 H 0.53966 0.61091 0.18862 0.0
H200 H 0.52114 0.4429 0.2336 0.0
H201 H 0.60264 0.58008 0.17635 0.0
H202 H 0.69657 0.51802 0.14244 0.0
H203 H 0.66967 0.55498 0.18099 0.0
H204 H 0.52097 0.39787 0.1913 0.0
H205 H 0.55154 0.35938 0.15447 0.0
C206 C 0.48995 0.49884 0.2316 0.0
C207 C 0.49214 0.54433 0.21782 0.0
C208 C 0.52652 0.48061 0.22434 0.0
C209 C 0.56613 0.50791 0.2034 0.0
C210 C 0.57294 0.55779 0.19263 0.0
C211 C 0.53645 0.57578 0.19977 0.0
C212 C 0.65974 0.49043 0.15399 0.0
C213 C 0.62564 0.43594 0.14525 0.0
C214 C 0.64384 0.5119 0.17587 0.0
C215 C 0.59227 0.48013 0.18864 0.0
C216 C 0.56094 0.42379 0.18193 0.0
C217 C 0.57788 0.40179 0.16054 0.0
H218 H 1.08282 0.48659 0.49173 0.0
H219 H 0.95758 0.40506 0.43059 0.0
H220 H 1.10355 0.57603 0.47282 0.0
H221 H 0.97952 0.49432 0.41115 0.0
H222 H 0.15847 0.72713 0.41909 0.0
H223 H 1.14181 0.63532 0.43195 0.0
H224 H 0.96751 0.57188 0.42614 0.0
H225 H 0.98512 0.66404 0.41244 0.0
C226 C 1.06024 0.48781 0.47406 0.0
C227 C 1.01868 0.43884 0.46264 0.0
C228 C 1.07236 0.53895 0.46308 0.0
C229 C 1.04302 0.54214 0.44053 0.0
C230 C 1.00243 0.49315 0.42868 0.0
C231 C 0.99041 0.44204 0.43961 0.0
C232 C 1.1168 0.69303 0.42004 0.0
C233 C 1.07295 0.70179 0.41464 0.0
C234 C 1.10717 0.64082 0.42766 0.0
C235 C 1.05336 0.59647 0.43019 0.0
C236 C 1.00945 0.60513 0.42407 0.0
C237 C 1.01926 0.65756 0.4164 0.0
H238 H 0.66121 0.93805 0.83011 0.0
H239 H 0.66156 0.84047 0.76098 0.0
H240 H 0.59869 0.95936 0.80553 0.0
H241 H 0.60006 0.86272 0.73621 0.0
H242 H 0.52676 1.02669 0.74315 0.0
H243 H 0.59611 1.01035 0.7641 0.0
H244 H 0.50196 0.83815 0.74215 0.0
H245 H 0.43309 0.85553 0.72082 0.0
C246 C 0.64845 0.92179 0.80954 0.0
C247 C 0.66636 0.88782 0.79742 0.0
C248 C 0.61295 0.93417 0.79542 0.0
C249 C 0.59442 0.91246 0.76901 0.0
C250 C 0.61332 0.87954 0.75664 0.0
C251 C 0.64907 0.86746 0.77068 0.0
C252 C 0.52169 0.98565 0.74261 0.0
C253 C 0.47545 0.94228 0.73041 0.0
C254 C 0.56085 0.97616 0.7547 0.0
C255 C 0.55431 0.92299 0.7548 0.0
C256 C 0.50826 0.87967 0.7421 0.0
C257 C 0.4689 0.88929 0.73006 0.0
H258 H 1.02372 0.6358 0.03131 0.0
H259 H 0.96672 0.71932 0.08622 0.0
H260 H 0.92908 0.57127 0.01898 0.0
H261 H 0.87421 0.65691 0.07358 0.0
H262 H 0.71125 0.53987 0.0623 0.0
H263 H 0.7988 0.61115 0.0442 0.0
H264 H 0.86108 0.49789 0.04929 0.0
H265 H 0.77043 0.42451 0.06453 0.0
C266 C 0.99139 0.64161 0.04007 0.0
C267 C 1.00286 0.68169 0.0605 0.0
C268 C 0.93726 0.60468 0.03295 0.0
C269 C 0.89401 0.60804 0.04577 0.0
C270 C 0.9063 0.65296 0.06312 0.0
C271 C 0.96002 0.6893 0.07041 0.0
C272 C 0.74252 0.52922 0.05779 0.0
C273 C 0.73413 0.47666 0.06441 0.0
C274 C 0.79306 0.57034 0.04786 0.0
C275 C 0.8373 0.56067 0.04586 0.0
C276 C 0.82778 0.50672 0.05038 0.0
C277 C 0.77629 0.46486 0.05947 0.0
H278 H 0.38734 0.11553 0.44387 0.0
H279 H 0.36992 1.04179 0.52451 0.0
H280 H 0.28874 1.06771 0.43962 0.0
H281 H 0.27102 0.99708 0.52115 0.0
H282 H 0.16553 0.84037 0.4669 0.0
H283 H 0.23237 0.91822 0.49238 0.0
H284 H 0.19172 1.02591 0.44681 0.0
H285 H 1.12281 0.94569 0.42139 0.0
C286 C 0.36237 1.09114 0.46126 0.0
C287 C 0.38637 1.0799 0.4838 0.0
C288 C 0.30553 1.06417 0.45901 0.0
C289 C 0.27195 1.02622 0.4795 0.0
C290 C 0.29595 1.02435 0.50451 0.0
C291 C 0.35287 1.05044 0.50653 0.0
C292 C 0.16873 0.88014 0.46335 0.0
C293 C 1.13947 0.88723 0.44208 0.0
C294 C 0.20723 0.92521 0.47804 0.0
C295 C 0.21824 0.97888 0.47147 0.0
C296 C 0.18478 0.98525 0.45213 0.0
C297 C 0.14554 0.93959 0.43755 0.0
H298 H 0.37085 0.20877 0.83831 0.0
H299 H 0.38902 0.26252 0.7532 0.0
H300 H 0.32268 0.11283 0.82335 0.0
H301 H 0.34111 0.16739 0.73841 0.0
H302 H 0.28939 0.99887 0.71311 0.0
H303 H 0.27026 1.0657 0.73655 0.0
H304 H 0.38472 1.08488 0.80004 0.0
H305 H 0.4058 1.02212 0.776 0.0
C306 C 0.36254 0.20014 0.81654 0.0
C307 C 0.38546 0.24313 0.79687 0.0
C308 C 0.33469 0.14524 0.80799 0.0
C309 C 0.32967 0.1327 0.77968 0.0
C310 C 0.34444 0.1756 0.76038 0.0
C311 C 0.37224 0.23046 0.76892 0.0
C312 C 0.30917 1.01658 0.73245 0.0
C313 C 0.34938 1.00577 0.74263 0.0
C314 C 0.29794 1.0543 0.74595 0.0
C315 C 0.32595 1.08056 0.77014 0.0
C316 C 0.36154 1.06476 0.78178 0.0
C317 C 0.37367 1.02849 0.76799 0.0
H318 H 0.648 0.93214 0.50733 0.0
H319 H 0.82379 1.01921 0.51376 0.0
H320 H 0.64546 0.84534 0.51852 0.0
H321 H 0.82138 0.93282 0.52474 0.0
H322 H 0.79883 0.77712 0.56953 0.0
H323 H 0.79901 0.86292 0.55892 0.0
H324 H 0.66463 0.77442 0.50341 0.0
H325 H 0.66409 0.68851 0.51468 0.0
C326 C 0.68628 0.93305 0.51099 0.0
C327 C 0.73611 0.98369 0.50946 0.0
C328 C 0.68487 0.88277 0.51735 0.0
C329 C 0.73319 0.88088 0.52278 0.0
C330 C 0.78295 0.93164 0.5212 0.0
C331 C 0.78438 0.98171 0.51461 0.0
C332 C 0.76889 0.77579 0.55531 0.0
C333 C 0.73141 0.72532 0.54309 0.0
C334 C 0.76935 0.82547 0.54886 0.0
C335 C 0.73198 0.82687 0.53004 0.0
C336 C 0.69394 0.77596 0.51812 0.0
C337 C 0.69385 0.72635 0.52442 0.0
H338 H 0.79046 0.50979 0.84061 0.0
H339 H 0.87925 0.68755 0.83895 0.0
H340 H 0.8761 0.50949 0.84856 0.0
H341 H 0.96449 0.68748 0.84615 0.0
H342 H 1.10505 0.67687 0.88729 0.0
H343 H 1.02046 0.67639 0.87661 0.0
H344 H 0.96221 0.52189 0.83399 0.0
H345 H 1.04723 0.52225 0.8457 0.0
C346 C 0.82812 0.54898 0.84172 0.0
C347 C 0.8267 0.59868 0.83914 0.0
C348 C 0.87793 0.54887 0.84618 0.0
C349 C 0.92881 0.59848 0.84833 0.0
C350 C 0.92713 0.64803 0.84533 0.0
C351 C 0.87753 0.64811 0.84092 0.0
C352 C 1.07448 0.64302 0.87537 0.0
C353 C 1.08377 0.59979 0.86734 0.0
C354 C 1.0254 0.64271 0.86902 0.0
C355 C 0.9828 0.59905 0.85424 0.0
C356 C 0.99275 0.55619 0.84567 0.0
C357 C 1.04221 0.55663 0.85203 0.0
H358 H 0.35539 0.85815 0.1836 0.0
H359 H 0.44251 0.77013 0.16862 0.0
H360 H 0.44218 0.94347 0.18983 0.0
H361 H 0.5294 0.85552 0.17417 0.0
H362 H 0.67671 1.00574 0.21373 0.0
H363 H 0.59133 0.9211 0.20414 0.0
H364 H 0.52366 1.0181 0.17186 0.0
H365 H 0.60947 0.10297 0.18242 0.0
C366 C 0.39299 0.85675 0.18144 0.0
C367 C 0.39086 0.80616 0.1756 0.0
C368 C 0.44342 0.90637 0.18485 0.0
C369 C 0.49432 0.9079 0.18261 0.0
C370 C 0.49201 0.85716 0.17659 0.0
C371 C 0.44158 0.80758 0.17318 0.0
C372 C 0.64388 1.00899 0.20418 0.0
C373 C 0.65065 1.06166 0.19874 0.0
C374 C 0.59439 0.96004 0.19855 0.0
C375 C 0.54897 0.96126 0.18719 0.0
C376 C 0.5565 1.01428 0.18097 0.0
C377 C 0.60632 1.06343 0.18661 0.0
H378 H 0.65846 0.26072 0.495 0.0
H379 H 0.83207 0.34381 0.50921 0.0
H380 H 0.65796 0.34663 0.50366 0.0
H381 H 0.83247 0.43004 0.51657 0.0
H382 H 0.81346 0.56726 0.55702 0.0
H383 H 0.81482 0.48347 0.54512 0.0
H384 H 0.67498 0.43455 0.49291 0.0
H385 H 0.67238 0.51793 0.50648 0.0
C386 C 0.69683 0.29745 0.49959 0.0
C387 C 0.74524 0.29439 0.50147 0.0
C388 C 0.69669 0.34742 0.50449 0.0
C389 C 0.74509 0.39682 0.51121 0.0
C390 C 0.7937 0.39367 0.51229 0.0
C391 C 0.79366 0.34368 0.50776 0.0
C392 C 0.78308 0.53872 0.5429 0.0
C393 C 0.74269 0.54976 0.53292 0.0
C394 C 0.78402 0.49025 0.53573 0.0
C395 C 0.74494 0.4505 0.51786 0.0
C396 C 0.70548 0.46268 0.50708 0.0
C397 C 0.70435 0.51128 0.5145 0.0
H398 H 0.47061 0.51766 0.83086 0.0
H399 H 0.55979 0.68892 0.85369 0.0
H400 H 0.3844 0.51495 0.8419 0.0
H401 H 0.47415 0.68731 0.86363 0.0
H402 H 0.31547 0.66669 0.90105 0.0
H403 H 0.40026 0.66683 0.89072 0.0
H404 H 0.31395 0.53167 0.8344 0.0
H405 H 0.22839 0.52947 0.84657 0.0
C406 C 0.47211 0.55514 0.83793 0.0
C407 C 0.52334 0.60349 0.84127 0.0
C408 C 0.42196 0.55376 0.84425 0.0
C409 C 0.42034 0.60081 0.85405 0.0
C410 C 0.47189 0.64935 0.8569 0.0
C411 C 0.52189 0.65054 0.85084 0.0
C412 C 0.31405 0.63611 0.88693 0.0
C413 C 0.26385 0.5977 0.87505 0.0
C414 C 0.36367 0.6368 0.8804 0.0
C415 C 0.36602 0.59945 0.86134 0.0
C416 C 0.31545 0.56103 0.8494 0.0
C417 C 0.26572 0.56012 0.85615 0.0
H418 H 1.02841 0.54002 0.16582 0.0
H419 H 1.119 0.45846 0.18629 0.0
H420 H 0.94248 0.45459 0.1763 0.0
H421 H 1.03452 0.37338 0.19543 0.0
H422 H 0.88052 0.23169 0.23253 0.0
H423 H 0.96303 0.31889 0.22289 0.0
H424 H 0.87208 0.36605 0.16892 0.0
H425 H 0.78841 0.27989 0.18065 0.0
C426 C 1.03028 0.50387 0.17223 0.0
C427 C 1.08174 0.50736 0.17523 0.0
C428 C 0.98044 0.45411 0.17825 0.0
C429 C 0.97971 0.40533 0.18731 0.0
C430 C 1.0315 0.40907 0.18951 0.0
C431 C 1.08091 0.45862 0.18387 0.0
C432 C 0.87756 0.26092 0.21906 0.0
C433 C 0.82668 0.24765 0.20763 0.0
C434 C 0.92588 0.31139 0.21289 0.0
C435 C 0.92631 0.35125 0.19455 0.0
C436 C 0.87501 0.33792 0.18323 0.0
C437 C 0.82643 0.2875 0.1897 0.0
H438 H 0.22514 0.6964 0.07207 0.0
H439 H 0.25346 0.55908 0.08184 0.0
H440 H 0.22369 0.68634 0.02255 0.0
H441 H 0.25339 0.54968 0.03128 0.0
H442 H 0.18025 0.5166 0.94052 0.0
H443 H 0.19677 0.5235 0.99044 0.0
H444 H 0.27907 0.70122 0.98342 0.0
H445 H 0.2598 0.69326 0.93409 0.0
C446 C 0.23177 0.66424 0.06368 0.0
C447 C 0.23991 0.62886 0.08127 0.0
C448 C 0.23141 0.65875 0.03495 0.0
C449 C 0.23957 0.61789 0.02246 0.0
C450 C 0.24701 0.58175 0.03999 0.0
C451 C 0.24718 0.58717 0.06903 0.0
C452 C 0.20387 0.557 0.94963 0.0
C453 C 0.21995 0.60447 0.93333 0.0
C454 C 0.21299 0.56111 0.97832 0.0
C455 C 0.23835 0.61294 0.99139 0.0
C456 C 0.25814 0.66044 0.97448 0.0
C457 C 0.24835 0.65616 0.94601 0.0
H458 H 0.69135 0.1174 0.40272 0.0
H459 H 0.86589 0.21874 0.41302 0.0
H460 H 0.70273 0.137 0.35314 0.0
H461 H 0.87729 0.23666 0.36275 0.0
H462 H 0.83004 0.14776 0.26682 0.0
H463 H 0.84168 0.15457 0.31717 0.0
H464 H 0.7494 0.23946 0.3221 0.0
H465 H 0.73988 0.23439 0.2716 0.0
C466 C 0.73227 0.14361 0.3944 0.0
C467 C 0.77774 0.16624 0.41191 0.0
C468 C 0.73866 0.15515 0.366 0.0
C469 C 0.79081 0.18863 0.35411 0.0
C470 C 0.83659 0.21094 0.37141 0.0
C471 C 0.83004 0.2006 0.40013 0.0
C472 C 0.81535 0.1709 0.27854 0.0
C473 C 0.78549 0.19203 0.26524 0.0
C474 C 0.82139 0.17423 0.30736 0.0
C475 C 0.79635 0.19744 0.32355 0.0
C476 C 0.76948 0.22171 0.31011 0.0
C477 C 0.76464 0.21954 0.28122 0.0
H478 H 0.7403 0.73663 0.75092 0.0
H479 H 0.65162 0.56158 0.73533 0.0
H480 H 0.74951 0.7548 0.70065 0.0
H481 H 0.65907 0.57974 0.68568 0.0
H482 H 0.63823 0.62863 0.5997 0.0
H483 H 0.62539 0.63171 0.64985 0.0
H484 H 0.80046 0.72415 0.65949 0.0
H485 H 0.81278 0.71917 0.60939 0.0
C486 C 0.7222 0.70215 0.73684 0.0
C487 C 0.69548 0.64764 0.74715 0.0
C488 C 0.72752 0.71255 0.70811 0.0
C489 C 0.7046 0.66868 0.68921 0.0
C490 C 0.67664 0.61442 0.69966 0.0
C491 C 0.67271 0.60405 0.72815 0.0
C492 C 0.67373 0.65195 0.61243 0.0
C493 C 0.72644 0.67477 0.60063 0.0
C494 C 0.66651 0.6531 0.64115 0.0
C495 C 0.71194 0.67806 0.65865 0.0
C496 C 0.76467 0.70516 0.64656 0.0
C497 C 0.7718 0.70286 0.61789 0.0
H498 H 0.66333 0.18145 0.57294 0.0
H499 H 0.71497 1.06173 0.58661 0.0
H500 H 0.60623 0.14969 0.61448 0.0
H501 H 0.6573 1.02943 0.62863 0.0
H502 H 0.4756 0.93619 0.66517 0.0
H503 H 0.55496 0.97707 0.6335 0.0
H504 H 0.60113 0.13878 0.66519 0.0
H505 H 0.52177 1.09732 0.69676 0.0
C506 C 0.66366 0.14938 0.58541 0.0
C507 C 0.69336 0.12393 0.57665 0.0
C508 C 0.63106 0.13125 0.60926 0.0
C509 C 0.62688 1.08672 0.62471 0.0
C510 C 0.65942 1.06354 0.61695 0.0
C511 C 0.69284 1.08235 0.59315 0.0
C512 C 0.50311 0.98038 0.66529 0.0
C513 C 0.49185 1.014 0.68243 0.0
C514 C 0.54876 1.00375 0.6475 0.0
C515 C 0.58406 1.06124 0.64671 0.0
C516 C 0.57419 1.09448 0.66502 0.0
C517 C 0.52866 1.071 0.68285 0.0
H518 H 0.7014 0.62725 0.93097 0.0
H519 H 0.58994 0.46563 0.89874 0.0
H520 H 0.68578 0.5873 0.97766 0.0
H521 H 0.57522 0.42632 0.94503 0.0
H522 H 0.64503 0.38357 0.02479 0.0
H523 H 0.64406 0.41798 0.97829 0.0
H524 H 0.60158 0.53402 0.0133 0.0
H525 H 0.60181 0.49873 0.05969 0.0
C526 C 0.6735 0.58347 0.93385 0.0
C527 C 0.64702 0.54967 0.91119 0.0
C528 C 0.66429 0.56075 0.9605 0.0
C529 C 0.62923 0.50384 0.96477 0.0
C530 C 0.60246 0.47027 0.9422 0.0
C531 C 0.61091 0.49297 0.91574 0.0
C532 C 0.63358 0.41498 0.02227 0.0
C533 C 0.62248 0.43783 0.04551 0.0
C534 C 0.63338 0.43492 -0.00413 0.0
C535 C 0.6231 0.47883 -0.00761 0.0
C536 C 0.60979 0.50026 0.01555 0.0
C537 C 0.60894 0.47949 0.04193 0.0
H538 H 0.29203 0.77138 0.24692 0.0
H539 H 0.16096 0.60409 0.2586 0.0
H540 H 0.26738 0.79741 0.29078 0.0
H541 H 1.13666 0.62923 0.30285 0.0
H542 H 1.05852 0.71534 0.35156 0.0
H543 H 1.09298 0.68278 0.31355 0.0
H544 H 0.25855 0.78875 0.34095 0.0
H545 H 0.22335 0.82117 0.37878 0.0
C546 C 0.25943 0.73978 0.25958 0.0
C547 C 0.22888 0.68568 0.24988 0.0
C548 C 0.24508 0.75459 0.28461 0.0
C549 C 0.19958 0.71553 0.30018 0.0
C550 C 0.17133 0.66049 0.29114 0.0
C551 C 0.18566 0.64582 0.26609 0.0
C552 C 1.1022 0.73153 0.34923 0.0
C553 C 1.13845 0.7717 0.36739 0.0
C554 C 1.12202 0.7126 0.32775 0.0
C555 C 0.17864 0.7332 0.32418 0.0
C556 C 0.21484 0.77267 0.34285 0.0
C557 C 0.19487 0.79153 0.36434 0.0
loop_
_geom_bond_atom_site_label_1
_geom_bond_atom_site_label_2
_geom_bond_distance
_geom_bond_site_symmetry_2
_ccdc_geom_bond_type
Tb0 C9 2.764 . S
Tb0 O10 2.325 . S
Tb0 O13 2.303 . S
Tb0 O17 2.322 1_655 S
Tb0 O18 2.349 . S
Tb0 O21 2.415 . S
Tb0 O22 2.399 . S
Tb1 O11 2.322 1_455 S
Tb1 O12 2.349 . S
Tb1 O14 2.415 . S
Tb1 O15 2.399 . S
Tb1 O16 2.325 . S
Tb1 O19 2.303 . S
Tb1 C30 2.764 . S
C2 O18 1.261 1_455 S
C2 O19 1.257 . S
C3 C6 1.358 . S
C3 C7 1.332 . S
C3 C9 1.504 . S
C4 C5 1.373 . S
C4 C8 1.308 . S
C5 C4 1.373 . S
C5 C6 1.429 . S
C5 H32 0.932 . S
C6 C3 1.358 . S
C6 C5 1.429 . S
C6 H33 0.930 . S
C7 C3 1.332 . S
C7 C8 1.394 . S
C7 H34 0.932 . S
C8 C4 1.308 . S
C8 C7 1.394 . S
C8 H35 0.929 . S
C9 Tb0 2.764 . S
C9 C3 1.504 . S
C9 O21 1.239 . S
C9 O22 1.263 . S
O10 Tb0 2.325 . S
O10 C20 1.236 . S
O11 Tb1 2.322 1_655 S
O11 C20 1.257 . S
O12 Tb1 2.349 . S
O12 C23 1.288 . S
O13 Tb0 2.303 . S
O13 C23 1.244 1_655 S
O14 Tb1 2.415 . S
O14 C30 1.239 . S
O15 Tb1 2.399 . S
O15 C30 1.263 . S
O16 Tb1 2.325 . S
O16 C31 1.236 . S
O17 Tb0 2.322 1_455 S
O17 C31 1.257 . S
O18 Tb0 2.349 . S
O18 C2 1.261 1_655 S
O19 Tb1 2.303 . S
O19 C2 1.257 . S
C20 O10 1.236 . S
C20 O11 1.257 . S
O21 Tb0 2.415 . S
O21 C9 1.239 . S
O22 Tb0 2.399 . S
O22 C9 1.263 . S
C23 O12 1.288 . S
C23 O13 1.244 1_455 S
C24 C27 1.358 . S
C24 C28 1.332 . S
C24 C30 1.504 . S
C25 C26 1.373 . S
C25 C29 1.308 . S
C26 C25 1.373 . S
C26 C27 1.429 . S
C26 H36 0.932 . S
C27 C24 1.358 . S
C27 C26 1.429 . S
C27 H37 0.930 . S
C28 C24 1.332 . S
C28 C29 1.394 . S
C28 H38 0.932 . S
C29 C25 1.308 . S
C29 C28 1.394 . S
C29 H39 0.929 . S
C30 Tb1 2.764 . S
C30 O14 1.239 . S
C30 O15 1.263 . S
C30 C24 1.504 . S
C31 O16 1.236 . S
C31 O17 1.257 . S
H32 C5 0.932 . S
H33 C6 0.930 . S
H34 C7 0.932 . S
H35 C8 0.929 . S
H36 C26 0.932 . S
H37 C27 0.930 . S
H38 C28 0.932 . S
H39 C29 0.929 . S
Tb40 C49 2.764 . S
Tb40 O50 2.325 . S
Tb40 O53 2.303 1_565 S
Tb40 O57 2.322 1_565 S
Tb40 O58 2.349 1_565 S
Tb40 O61 2.415 . S
Tb40 O62 2.399 . S
Tb41 O51 2.322 1_545 S
Tb41 O52 2.349 . S
Tb41 O54 2.415 . S
Tb41 O55 2.399 . S
Tb41 O56 2.325 . S
Tb41 O59 2.303 . S
Tb41 C70 2.764 . S
C42 O58 1.261 . S
C42 O59 1.257 . S
C43 C46 1.358 . S
C43 C47 1.332 . S
C43 C49 1.504 . S
C44 C45 1.373 . S
C44 C48 1.308 . S
C45 C44 1.373 . S
C45 C46 1.429 . S
C45 H72 0.932 . S
C46 C43 1.358 . S
C46 C45 1.429 . S
C46 H73 0.930 . S
C47 C43 1.332 . S
C47 C48 1.394 . S
C47 H74 0.932 . S
C48 C44 1.308 . S
C48 C47 1.394 . S
C48 H75 0.929 . S
C49 Tb40 2.764 . S
C49 C43 1.504 . S
C49 O61 1.239 . S
C49 O62 1.263 . S
O50 Tb40 2.325 . S
O50 C60 1.236 . S
O51 Tb41 2.322 1_565 S
O51 C60 1.257 . S
O52 Tb41 2.349 . S
O52 C63 1.261 . S
O53 Tb40 2.303 1_545 S
O53 C63 1.257 . S
O54 Tb41 2.415 . S
O54 C70 1.239 . S
O55 Tb41 2.399 . S
O55 C70 1.263 . S
O56 Tb41 2.325 . S
O56 C71 1.236 . S
O57 Tb40 2.322 1_545 S
O57 C71 1.257 . S
O58 Tb40 2.349 1_545 S
O58 C42 1.261 . S
O59 Tb41 2.303 . S
O59 C42 1.257 . S
C60 O50 1.236 . S
C60 O51 1.257 . S
O61 Tb40 2.415 . S
O61 C49 1.239 . S
O62 Tb40 2.399 . S
O62 C49 1.263 . S
C63 O52 1.261 . S
C63 O53 1.257 . S
C64 C67 1.358 . S
C64 C68 1.332 . S
C64 C70 1.504 . S
C65 C66 1.373 . S
C65 C69 1.308 . S
C66 C65 1.373 . S
C66 C67 1.429 . S
C66 H76 0.932 . S
C67 C64 1.358 . S
C67 C66 1.429 . S
C67 H77 0.930 . S
C68 C64 1.332 . S
C68 C69 1.394 . S
C68 H78 0.932 . S
C69 C65 1.308 . S
C69 C68 1.394 . S
C69 H79 0.929 . S
C70 Tb41 2.764 . S
C70 O54 1.239 . S
C70 O55 1.263 . S
C70 C64 1.504 . S
C71 O56 1.236 . S
C71 O57 1.257 . S
H72 C45 0.932 . S
H73 C46 0.930 . S
H74 C47 0.932 . S
H75 C48 0.929 . S
H76 C66 0.932 . S
H77 C67 0.930 . S
H78 C68 0.932 . S
H79 C69 0.929 . S
Tb80 C89 2.764 . S
Tb80 O90 2.325 . S
Tb80 O93 2.303 . S
Tb80 O97 2.322 . S
Tb80 O98 2.349 . S
Tb80 O101 2.415 . S
Tb80 O102 2.399 . S
Tb81 O91 2.322 . S
Tb81 O92 2.349 . S
Tb81 O94 2.415 . S
Tb81 O95 2.399 . S
Tb81 O96 2.325 . S
Tb81 O99 2.303 . S
Tb81 C110 2.764 . S
C82 O98 1.261 . S
C82 O99 1.257 . S
C83 C86 1.358 . S
C83 C87 1.332 . S
C83 C89 1.504 . S
C84 C85 1.373 . S
C84 C88 1.308 . S
C85 C84 1.373 . S
C85 C86 1.429 . S
C85 H112 0.932 . S
C86 C83 1.358 . S
C86 C85 1.429 . S
C86 H113 0.930 . S
C87 C83 1.332 . S
C87 C88 1.394 . S
C87 H114 0.932 . S
C88 C84 1.308 . S
C88 C87 1.394 . S
C88 H115 0.929 . S
C89 Tb80 2.764 . S
C89 C83 1.504 . S
C89 O101 1.239 . S
C89 O102 1.263 . S
O90 Tb80 2.325 . S
O90 C100 1.236 . S
O91 Tb81 2.322 . S
O91 C100 1.257 . S
O92 Tb81 2.349 . S
O92 C103 1.261 . S
O93 Tb80 2.303 . S
O93 C103 1.257 . S
O94 Tb81 2.415 . S
O94 C110 1.239 . S
O95 Tb81 2.399 . S
O95 C110 1.263 . S
O96 Tb81 2.325 . S
O96 C111 1.236 . S
O97 Tb80 2.322 . S
O97 C111 1.257 . S
O98 Tb80 2.349 . S
O98 C82 1.261 . S
O99 Tb81 2.303 . S
O99 C82 1.257 . S
C100 O90 1.236 . S
C100 O91 1.257 . S
O101 Tb80 2.415 . S
O101 C89 1.239 . S
O102 Tb80 2.399 . S
O102 C89 1.263 . S
C103 O92 1.261 . S
C103 O93 1.257 . S
C104 C107 1.358 . S
C104 C108 1.332 . S
C104 C110 1.504 . S
C105 C106 1.373 . S
C105 C109 1.308 . S
C106 C105 1.373 . S
C106 C107 1.429 . S
C106 H116 0.932 . S
C107 C104 1.358 . S
C107 C106 1.429 . S
C107 H117 0.930 . S
C108 C104 1.332 . S
C108 C109 1.394 . S
C108 H118 0.932 . S
C109 C105 1.308 . S
C109 C108 1.394 . S
C109 H119 0.929 . S
C110 Tb81 2.764 . S
C110 O94 1.239 . S
C110 O95 1.263 . S
C110 C104 1.504 . S
C111 O96 1.236 . S
C111 O97 1.257 . S
H112 C85 0.932 . S
H113 C86 0.930 . S
H114 C87 0.932 . S
H115 C88 0.929 . S
H116 C106 0.932 . S
H117 C107 0.930 . S
H118 C108 0.932 . S
H119 C109 0.929 . S
C120 N121 1.317 1_565 S
C120 N122 1.348 . S
C120 C123 1.485 1_565 S
N121 C120 1.317 1_545 S
N121 N125 1.370 . S
N122 C120 1.348 . S
N122 C124 1.346 . S
C123 C120 1.485 1_545 S
C123 H127 0.960 . S
C123 H128 0.961 1_545 S
C123 H129 0.960 . S
C124 N122 1.346 . S
C124 N125 1.307 1_565 S
C124 C126 1.486 . S
N125 N121 1.370 . S
N125 C124 1.307 1_545 S
C126 C124 1.486 . S
C126 H130 0.960 . S
C126 H131 0.960 . S
C126 H132 0.959 . S
H127 C123 0.960 . S
H128 C123 0.961 1_565 S
H129 C123 0.960 . S
H130 C126 0.960 . S
H131 C126 0.960 . S
H132 C126 0.959 . S
C133 N134 1.317 . S
C133 N135 1.348 . S
C133 C136 1.485 . S
N134 C133 1.317 . S
N134 N138 1.370 . S
N135 C133 1.348 . S
N135 C137 1.346 . S
C136 C133 1.485 . S
C136 H140 0.960 . S
C136 H141 0.961 . S
C136 H142 0.960 . S
C137 N135 1.346 . S
C137 N138 1.307 . S
C137 C139 1.486 . S
N138 N134 1.370 . S
N138 C137 1.307 . S
C139 C137 1.486 . S
C139 H143 0.960 . S
C139 H144 0.960 . S
C139 H145 0.959 . S
H140 C136 0.960 . S
H141 C136 0.961 . S
H142 C136 0.960 . S
H143 C139 0.960 . S
H144 C139 0.960 . S
H145 C139 0.959 . S
C146 N147 1.317 . S
C146 N148 1.348 . S
C146 C149 1.485 . S
N147 C146 1.317 . S
N147 N151 1.370 . S
N148 C146 1.348 . S
N148 C150 1.346 . S
C149 C146 1.485 . S
C149 H153 0.960 . S
C149 H154 0.961 . S
C149 H155 0.960 . S
C150 N148 1.346 . S
C150 N151 1.307 . S
C150 C152 1.486 1_455 S
N151 N147 1.370 . S
N151 C150 1.307 . S
C152 C150 1.486 1_655 S
C152 H156 0.960 . S
C152 H157 0.960 . S
C152 H158 0.959 . S
H153 C149 0.960 . S
H154 C149 0.961 . S
H155 C149 0.960 . S
H156 C152 0.960 . S
H157 C152 0.960 . S
H158 C152 0.959 . S
C159 N160 1.317 1_455 S
C159 N161 1.348 . S
C159 C162 1.485 . S
N160 C159 1.317 1_655 S
N160 N164 1.370 1_655 S
N161 C159 1.348 . S
N161 C163 1.346 . S
C162 C159 1.485 . S
C162 H166 0.960 1_455 S
C162 H167 0.961 . S
C162 H168 0.960 1_455 S
C163 N161 1.346 . S
C163 N164 1.307 . S
C163 C165 1.486 . S
N164 N160 1.370 1_455 S
N164 C163 1.307 . S
C165 C163 1.486 . S
C165 H169 0.960 . S
C165 H170 0.960 . S
C165 H171 0.959 . S
H166 C162 0.960 1_655 S
H167 C162 0.961 . S
H168 C162 0.960 1_655 S
H169 C165 0.960 . S
H170 C165 0.960 . S
H171 C165 0.959 . S
C172 N173 1.317 . S
C172 N174 1.348 . S
C172 C175 1.485 . S
N173 C172 1.317 . S
N173 N177 1.370 . S
N174 C172 1.348 . S
N174 C176 1.346 . S
C175 C172 1.485 . S
C175 H179 0.960 . S
C175 H180 0.961 . S
C175 H181 0.960 . S
C176 N174 1.346 . S
C176 N177 1.307 . S
C176 C178 1.486 . S
N177 N173 1.370 . S
N177 C176 1.307 . S
C178 C176 1.486 . S
C178 H182 0.960 . S
C178 H183 0.960 . S
C178 H184 0.959 . S
H179 C175 0.960 . S
H180 C175 0.961 . S
H181 C175 0.960 . S
H182 C178 0.960 . S
H183 C178 0.960 . S
H184 C178 0.959 . S
C185 N186 1.317 . S
C185 N187 1.348 . S
C185 C188 1.485 . S
N186 C185 1.317 . S
N186 N190 1.370 . S
N187 C185 1.348 . S
N187 C189 1.346 . S
C188 C185 1.485 . S
C188 H192 0.960 . S
C188 H193 0.961 . S
C188 H194 0.960 . S
C189 N187 1.346 . S
C189 N190 1.307 . S
C189 C191 1.486 . S
N190 N186 1.370 . S
N190 C189 1.307 . S
C191 C189 1.486 . S
C191 H195 0.960 . S
C191 H196 0.960 . S
C191 H197 0.959 . S
H192 C188 0.960 . S
H193 C188 0.961 . S
H194 C188 0.960 . S
H195 C191 0.960 . S
H196 C191 0.960 . S
H197 C191 0.959 . S
H198 C206 0.950 . S
H199 C211 0.950 . S
H200 C208 0.950 . S
H201 C210 0.950 . S
H202 C212 0.950 . S
H203 C214 0.950 . S
H204 C216 0.950 . S
H205 C217 0.950 . S
C206 H198 0.950 . S
C206 C207 1.386 . S
C206 C208 1.391 . S
C207 C206 1.386 . S
C207 C211 1.393 . S
C208 H200 0.950 . S
C208 C206 1.391 . S
C208 C209 1.400 . S
C209 C208 1.400 . S
C209 C210 1.398 . S
C209 C215 1.491 . S
C210 H201 0.950 . S
C210 C209 1.398 . S
C210 C211 1.391 . S
C211 H199 0.950 . S
C211 C207 1.393 . S
C211 C210 1.391 . S
C212 H202 0.950 . S
C212 C213 1.386 . S
C212 C214 1.391 . S
C213 C212 1.386 . S
C213 C217 1.393 . S
C214 H203 0.950 . S
C214 C212 1.391 . S
C214 C215 1.400 . S
C215 C209 1.491 . S
C215 C214 1.400 . S
C215 C216 1.398 . S
C216 H204 0.950 . S
C216 C215 1.398 . S
C216 C217 1.391 . S
C217 H205 0.950 . S
C217 C213 1.393 . S
C217 C216 1.391 . S
H218 C226 0.950 . S
H219 C231 0.950 . S
H220 C228 0.950 . S
H221 C230 0.950 . S
H222 C232 0.950 1_455 S
H223 C234 0.950 . S
H224 C236 0.950 . S
H225 C237 0.950 . S
C226 H218 0.950 . S
C226 C227 1.386 . S
C226 C228 1.391 . S
C227 C226 1.386 . S
C227 C231 1.393 . S
C228 H220 0.950 . S
C228 C226 1.391 . S
C228 C229 1.400 . S
C229 C228 1.400 . S
C229 C230 1.398 . S
C229 C235 1.491 . S
C230 H221 0.950 . S
C230 C229 1.398 . S
C230 C231 1.391 . S
C231 H219 0.950 . S
C231 C227 1.393 . S
C231 C230 1.391 . S
C232 H222 0.950 1_655 S
C232 C233 1.386 . S
C232 C234 1.391 . S
C233 C232 1.386 . S
C233 C237 1.393 . S
C234 H223 0.950 . S
C234 C232 1.391 . S
C234 C235 1.400 . S
C235 C229 1.491 . S
C235 C234 1.400 . S
C235 C236 1.398 . S
C236 H224 0.950 . S
C236 C235 1.398 . S
C236 C237 1.391 . S
C237 H225 0.950 . S
C237 C233 1.393 . S
C237 C236 1.391 . S
H238 C246 0.950 . S
H239 C251 0.950 . S
H240 C248 0.950 . S
H241 C250 0.950 . S
H242 C252 0.950 . S
H243 C254 0.950 . S
H244 C256 0.950 . S
H245 C257 0.950 . S
C246 H238 0.950 . S
C246 C247 1.386 . S
C246 C248 1.391 . S
C247 C246 1.386 . S
C247 C251 1.393 . S
C248 H240 0.950 . S
C248 C246 1.391 . S
C248 C249 1.400 . S
C249 C248 1.400 . S
C249 C250 1.398 . S
C249 C255 1.491 . S
C250 H241 0.950 . S
C250 C249 1.398 . S
C250 C251 1.391 . S
C251 H239 0.950 . S
C251 C247 1.393 . S
C251 C250 1.391 . S
C252 H242 0.950 . S
C252 C253 1.386 1_545 S
C252 C254 1.391 1_545 S
C253 C252 1.386 1_565 S
C253 C257 1.393 . S
C254 H243 0.950 . S
C254 C252 1.391 1_565 S
C254 C255 1.400 . S
C255 C249 1.491 . S
C255 C254 1.400 . S
C255 C256 1.398 . S
C256 H244 0.950 . S
C256 C255 1.398 . S
C256 C257 1.391 . S
C257 H245 0.950 . S
C257 C253 1.393 . S
C257 C256 1.391 . S
H258 C266 0.950 . S
H259 C271 0.950 . S
H260 C268 0.950 . S
H261 C270 0.950 . S
H262 C272 0.950 . S
H263 C274 0.950 . S
H264 C276 0.950 . S
H265 C277 0.950 . S
C266 H258 0.950 . S
C266 C267 1.386 . S
C266 C268 1.391 . S
C267 C266 1.386 . S
C267 C271 1.393 . S
C268 H260 0.950 . S
C268 C266 1.391 . S
C268 C269 1.400 . S
C269 C268 1.400 . S
C269 C270 1.398 . S
C269 C275 1.491 . S
C270 H261 0.950 . S
C270 C269 1.398 . S
C270 C271 1.391 . S
C271 H259 0.950 . S
C271 C267 1.393 . S
C271 C270 1.391 . S
C272 H262 0.950 . S
C272 C273 1.386 . S
C272 C274 1.391 . S
C273 C272 1.386 . S
C273 C277 1.393 . S
C274 H263 0.950 . S
C274 C272 1.391 . S
C274 C275 1.400 . S
C275 C269 1.491 . S
C275 C274 1.400 . S
C275 C276 1.398 . S
C276 H264 0.950 . S
C276 C275 1.398 . S
C276 C277 1.391 . S
C277 H265 0.950 . S
C277 C273 1.393 . S
C277 C276 1.391 . S
H278 C286 0.950 . S
H279 C291 0.950 . S
H280 C288 0.950 . S
H281 C290 0.950 . S
H282 C292 0.950 . S
H283 C294 0.950 . S
H284 C296 0.950 . S
H285 C297 0.950 . S
C286 H278 0.950 . S
C286 C287 1.386 . S
C286 C288 1.391 . S
C287 C286 1.386 . S
C287 C291 1.393 . S
C288 H280 0.950 . S
C288 C286 1.391 . S
C288 C289 1.400 . S
C289 C288 1.400 . S
C289 C290 1.398 . S
C289 C295 1.491 . S
C290 H281 0.950 . S
C290 C289 1.398 . S
C290 C291 1.391 . S
C291 H279 0.950 . S
C291 C287 1.393 . S
C291 C290 1.391 . S
C292 H282 0.950 . S
C292 C293 1.386 . S
C292 C294 1.391 . S
C293 C292 1.386 . S
C293 C297 1.393 . S
C294 H283 0.950 . S
C294 C292 1.391 . S
C294 C295 1.400 . S
C295 C289 1.491 . S
C295 C294 1.400 . S
C295 C296 1.398 . S
C296 H284 0.950 . S
C296 C295 1.398 . S
C296 C297 1.391 . S
C297 H285 0.950 . S
C297 C293 1.393 . S
C297 C296 1.391 . S
H298 C306 0.950 . S
H299 C311 0.950 . S
H300 C308 0.950 . S
H301 C310 0.950 . S
H302 C312 0.950 . S
H303 C314 0.950 . S
H304 C316 0.950 . S
H305 C317 0.950 . S
C306 H298 0.950 . S
C306 C307 1.386 . S
C306 C308 1.391 . S
C307 C306 1.386 . S
C307 C311 1.393 . S
C308 H300 0.950 . S
C308 C306 1.391 . S
C308 C309 1.400 . S
C309 C308 1.400 . S
C309 C310 1.398 . S
C309 C315 1.491 . S
C310 H301 0.950 . S
C310 C309 1.398 . S
C310 C311 1.391 . S
C311 H299 0.950 . S
C311 C307 1.393 . S
C311 C310 1.391 . S
C312 H302 0.950 . S
C312 C313 1.386 . S
C312 C314 1.391 . S
C313 C312 1.386 . S
C313 C317 1.393 . S
C314 H303 0.950 . S
C314 C312 1.391 . S
C314 C315 1.400 . S
C315 C309 1.491 . S
C315 C314 1.400 . S
C315 C316 1.398 . S
C316 H304 0.950 . S
C316 C315 1.398 . S
C316 C317 1.391 . S
C317 H305 0.950 . S
C317 C313 1.393 . S
C317 C316 1.391 . S
H318 C326 0.950 . S
H319 C331 0.950 . S
H320 C328 0.950 . S
H321 C330 0.950 . S
H322 C332 0.950 . S
H323 C334 0.950 . S
H324 C336 0.950 . S
H325 C337 0.950 . S
C326 H318 0.950 . S
C326 C327 1.386 . S
C326 C328 1.391 . S
C327 C326 1.386 . S
C327 C331 1.393 . S
C328 H320 0.950 . S
C328 C326 1.391 . S
C328 C329 1.400 . S
C329 C328 1.400 . S
C329 C330 1.398 . S
C329 C335 1.491 . S
C330 H321 0.950 . S
C330 C329 1.398 . S
C330 C331 1.391 . S
C331 H319 0.950 . S
C331 C327 1.393 . S
C331 C330 1.391 . S
C332 H322 0.950 . S
C332 C333 1.386 . S
C332 C334 1.391 . S
C333 C332 1.386 . S
C333 C337 1.393 . S
C334 H323 0.950 . S
C334 C332 1.391 . S
C334 C335 1.400 . S
C335 C329 1.491 . S
C335 C334 1.400 . S
C335 C336 1.398 . S
C336 H324 0.950 . S
C336 C335 1.398 . S
C336 C337 1.391 . S
C337 H325 0.950 . S
C337 C333 1.393 . S
C337 C336 1.391 . S
H338 C346 0.950 . S
H339 C351 0.950 . S
H340 C348 0.950 . S
H341 C350 0.950 . S
H342 C352 0.950 . S
H343 C354 0.950 . S
H344 C356 0.950 . S
H345 C357 0.950 . S
C346 H338 0.950 . S
C346 C347 1.386 . S
C346 C348 1.391 . S
C347 C346 1.386 . S
C347 C351 1.393 . S
C348 H340 0.950 . S
C348 C346 1.391 . S
C348 C349 1.400 . S
C349 C348 1.400 . S
C349 C350 1.398 . S
C349 C355 1.491 . S
C350 H341 0.950 . S
C350 C349 1.398 . S
C350 C351 1.391 . S
C351 H339 0.950 . S
C351 C347 1.393 . S
C351 C350 1.391 . S
C352 H342 0.950 . S
C352 C353 1.386 . S
C352 C354 1.391 . S
C353 C352 1.386 . S
C353 C357 1.393 . S
C354 H343 0.950 . S
C354 C352 1.391 . S
C354 C355 1.400 . S
C355 C349 1.491 . S
C355 C354 1.400 . S
C355 C356 1.398 . S
C356 H344 0.950 . S
C356 C355 1.398 . S
C356 C357 1.391 . S
C357 H345 0.950 . S
C357 C353 1.393 . S
C357 C356 1.391 . S
H358 C366 0.950 . S
H359 C371 0.950 . S
H360 C368 0.950 . S
H361 C370 0.950 . S
H362 C372 0.950 . S
H363 C374 0.950 . S
H364 C376 0.950 . S
H365 C377 0.950 . S
C366 H358 0.950 . S
C366 C367 1.386 . S
C366 C368 1.391 . S
C367 C366 1.386 . S
C367 C371 1.393 . S
C368 H360 0.950 . S
C368 C366 1.391 . S
C368 C369 1.400 . S
C369 C368 1.400 . S
C369 C370 1.398 . S
C369 C375 1.491 . S
C370 H361 0.950 . S
C370 C369 1.398 . S
C370 C371 1.391 . S
C371 H359 0.950 . S
C371 C367 1.393 . S
C371 C370 1.391 . S
C372 H362 0.950 . S
C372 C373 1.386 . S
C372 C374 1.391 . S
C373 C372 1.386 . S
C373 C377 1.393 . S
C374 H363 0.950 . S
C374 C372 1.391 . S
C374 C375 1.400 . S
C375 C369 1.491 . S
C375 C374 1.400 . S
C375 C376 1.398 . S
C376 H364 0.950 . S
C376 C375 1.398 . S
C376 C377 1.391 . S
C377 H365 0.950 . S
C377 C373 1.393 . S
C377 C376 1.391 . S
H378 C386 0.950 . S
H379 C391 0.950 . S
H380 C388 0.950 . S
H381 C390 0.950 . S
H382 C392 0.950 . S
H383 C394 0.950 . S
H384 C396 0.950 . S
H385 C397 0.950 . S
C386 H378 0.950 . S
C386 C387 1.386 . S
C386 C388 1.391 . S
C387 C386 1.386 . S
C387 C391 1.393 . S
C388 H380 0.950 . S
C388 C386 1.391 . S
C388 C389 1.400 . S
C389 C388 1.400 . S
C389 C390 1.398 . S
C389 C395 1.491 . S
C390 H381 0.950 . S
C390 C389 1.398 . S
C390 C391 1.391 . S
C391 H379 0.950 . S
C391 C387 1.393 . S
C391 C390 1.391 . S
C392 H382 0.950 . S
C392 C393 1.386 . S
C392 C394 1.391 . S
C393 C392 1.386 . S
C393 C397 1.393 . S
C394 H383 0.950 . S
C394 C392 1.391 . S
C394 C395 1.400 . S
C395 C389 1.491 . S
C395 C394 1.400 . S
C395 C396 1.398 . S
C396 H384 0.950 . S
C396 C395 1.398 . S
C396 C397 1.391 . S
C397 H385 0.950 . S
C397 C393 1.393 . S
C397 C396 1.391 . S
H398 C406 0.950 . S
H399 C411 0.950 . S
H400 C408 0.950 . S
H401 C410 0.950 . S
H402 C412 0.950 . S
H403 C414 0.950 . S
H404 C416 0.950 . S
H405 C417 0.950 . S
C406 H398 0.950 . S
C406 C407 1.386 . S
C406 C408 1.391 . S
C407 C406 1.386 . S
C407 C411 1.393 . S
C408 H400 0.950 . S
C408 C406 1.391 . S
C408 C409 1.400 . S
C409 C408 1.400 . S
C409 C410 1.398 . S
C409 C415 1.491 . S
C410 H401 0.950 . S
C410 C409 1.398 . S
C410 C411 1.391 . S
C411 H399 0.950 . S
C411 C407 1.393 . S
C411 C410 1.391 . S
C412 H402 0.950 . S
C412 C413 1.386 . S
C412 C414 1.391 . S
C413 C412 1.386 . S
C413 C417 1.393 . S
C414 H403 0.950 . S
C414 C412 1.391 . S
C414 C415 1.400 . S
C415 C409 1.491 . S
C415 C414 1.400 . S
C415 C416 1.398 . S
C416 H404 0.950 . S
C416 C415 1.398 . S
C416 C417 1.391 . S
C417 H405 0.950 . S
C417 C413 1.393 . S
C417 C416 1.391 . S
H418 C426 0.950 . S
H419 C431 0.950 . S
H420 C428 0.950 . S
H421 C430 0.950 . S
H422 C432 0.950 . S
H423 C434 0.950 . S
H424 C436 0.950 . S
H425 C437 0.950 . S
C426 H418 0.950 . S
C426 C427 1.386 . S
C426 C428 1.391 . S
C427 C426 1.386 . S
C427 C431 1.393 . S
C428 H420 0.950 . S
C428 C426 1.391 . S
C428 C429 1.400 . S
C429 C428 1.400 . S
C429 C430 1.398 . S
C429 C435 1.491 . S
C430 H421 0.950 . S
C430 C429 1.398 . S
C430 C431 1.391 . S
C431 H419 0.950 . S
C431 C427 1.393 . S
C431 C430 1.391 . S
C432 H422 0.950 . S
C432 C433 1.386 . S
C432 C434 1.391 . S
C433 C432 1.386 . S
C433 C437 1.393 . S
C434 H423 0.950 . S
C434 C432 1.391 . S
C434 C435 1.400 . S
C435 C429 1.491 . S
C435 C434 1.400 . S
C435 C436 1.398 . S
C436 H424 0.950 . S
C436 C435 1.398 . S
C436 C437 1.391 . S
C437 H425 0.950 . S
C437 C433 1.393 . S
C437 C436 1.391 . S
H438 C446 0.950 1_655 S
H439 C451 0.950 . S
H440 C448 0.950 . S
H441 C450 0.950 . S
H442 C452 0.950 . S
H443 C454 0.950 . S
H444 C456 0.950 . S
H445 C457 0.950 . S
C446 H438 0.950 1_455 S
C446 C447 1.386 . S
C446 C448 1.391 . S
C447 C446 1.386 . S
C447 C451 1.393 . S
C448 H440 0.950 . S
C448 C446 1.391 . S
C448 C449 1.400 . S
C449 C448 1.400 . S
C449 C450 1.398 . S
C449 C455 1.491 1_554 S
C450 H441 0.950 . S
C450 C449 1.398 . S
C450 C451 1.391 . S
C451 H439 0.950 . S
C451 C447 1.393 . S
C451 C450 1.391 . S
C452 H442 0.950 . S
C452 C453 1.386 . S
C452 C454 1.391 . S
C453 C452 1.386 . S
C453 C457 1.393 . S
C454 H443 0.950 . S
C454 C452 1.391 . S
C454 C455 1.400 . S
C455 C449 1.491 1_556 S
C455 C454 1.400 . S
C455 C456 1.398 . S
C456 H444 0.950 . S
C456 C455 1.398 . S
C456 C457 1.391 . S
C457 H445 0.950 . S
C457 C453 1.393 . S
C457 C456 1.391 . S
H458 C466 0.950 . S
H459 C471 0.950 . S
H460 C468 0.950 . S
H461 C470 0.950 . S
H462 C472 0.950 . S
H463 C474 0.950 . S
H464 C476 0.950 1_565 S
H465 C477 0.950 1_565 S
C466 H458 0.950 . S
C466 C467 1.386 . S
C466 C468 1.391 . S
C467 C466 1.386 . S
C467 C471 1.393 . S
C468 H460 0.950 . S
C468 C466 1.391 . S
C468 C469 1.400 . S
C469 C468 1.400 . S
C469 C470 1.398 . S
C469 C475 1.491 . S
C470 H461 0.950 . S
C470 C469 1.398 . S
C470 C471 1.391 . S
C471 H459 0.950 . S
C471 C467 1.393 . S
C471 C470 1.391 . S
C472 H462 0.950 . S
C472 C473 1.386 . S
C472 C474 1.391 . S
C473 C472 1.386 . S
C473 C477 1.393 . S
C474 H463 0.950 . S
C474 C472 1.391 . S
C474 C475 1.400 . S
C475 C469 1.491 . S
C475 C474 1.400 . S
C475 C476 1.398 . S
C476 H464 0.950 1_545 S
C476 C475 1.398 . S
C476 C477 1.391 . S
C477 H465 0.950 1_545 S
C477 C473 1.393 . S
C477 C476 1.391 . S
H478 C486 0.950 . S
H479 C491 0.950 . S
H480 C488 0.950 . S
H481 C490 0.950 . S
H482 C492 0.950 . S
H483 C494 0.950 . S
H484 C496 0.950 . S
H485 C497 0.950 . S
C486 H478 0.950 . S
C486 C487 1.386 . S
C486 C488 1.391 . S
C487 C486 1.386 . S
C487 C491 1.393 . S
C488 H480 0.950 . S
C488 C486 1.391 . S
C488 C489 1.400 . S
C489 C488 1.400 . S
C489 C490 1.398 . S
C489 C495 1.491 . S
C490 H481 0.950 . S
C490 C489 1.398 . S
C490 C491 1.391 . S
C491 H479 0.950 . S
C491 C487 1.393 . S
C491 C490 1.391 . S
C492 H482 0.950 . S
C492 C493 1.386 . S
C492 C494 1.391 . S
C493 C492 1.386 . S
C493 C497 1.393 . S
C494 H483 0.950 . S
C494 C492 1.391 . S
C494 C495 1.400 . S
C495 C489 1.491 . S
C495 C494 1.400 . S
C495 C496 1.398 . S
C496 H484 0.950 . S
C496 C495 1.398 . S
C496 C497 1.391 . S
C497 H485 0.950 . S
C497 C493 1.393 . S
C497 C496 1.391 . S
H498 C506 0.950 . S
H499 C511 0.950 . S
H500 C508 0.950 . S
H501 C510 0.950 . S
H502 C512 0.950 . S
H503 C514 0.950 . S
H504 C516 0.950 . S
H505 C517 0.950 . S
C506 H498 0.950 . S
C506 C507 1.386 . S
C506 C508 1.391 . S
C507 C506 1.386 . S
C507 C511 1.393 1_545 S
C508 H500 0.950 . S
C508 C506 1.391 . S
C508 C509 1.400 . S
C509 C508 1.400 . S
C509 C510 1.398 1_545 S
C509 C515 1.491 . S
C510 H501 0.950 . S
C510 C509 1.398 1_565 S
C510 C511 1.391 . S
C511 H499 0.950 . S
C511 C507 1.393 1_565 S
C511 C510 1.391 . S
C512 H502 0.950 . S
C512 C513 1.386 1_565 S
C512 C514 1.391 . S
C513 C512 1.386 1_545 S
C513 C517 1.393 . S
C514 H503 0.950 . S
C514 C512 1.391 . S
C514 C515 1.400 1_565 S
C515 C509 1.491 . S
C515 C514 1.400 1_545 S
C515 C516 1.398 . S
C516 H504 0.950 . S
C516 C515 1.398 . S
C516 C517 1.391 . S
C517 H505 0.950 . S
C517 C513 1.393 . S
C517 C516 1.391 . S
H518 C526 0.950 . S
H519 C531 0.950 . S
H520 C528 0.950 . S
H521 C530 0.950 . S
H522 C532 0.950 . S
H523 C534 0.950 1_556 S
H524 C536 0.950 . S
H525 C537 0.950 . S
C526 H518 0.950 . S
C526 C527 1.386 . S
C526 C528 1.391 . S
C527 C526 1.386 . S
C527 C531 1.393 . S
C528 H520 0.950 . S
C528 C526 1.391 . S
C528 C529 1.400 . S
C529 C528 1.400 . S
C529 C530 1.398 . S
C529 C535 1.494 1_556 S
C530 H521 0.950 . S
C530 C529 1.398 . S
C530 C531 1.391 . S
C531 H519 0.950 . S
C531 C527 1.393 . S
C531 C530 1.391 . S
C532 H522 0.950 . S
C532 C533 1.386 . S
C532 C534 1.391 . S
C533 C532 1.386 . S
C533 C537 1.393 . S
C534 H523 0.950 1_554 S
C534 C532 1.391 . S
C534 C535 1.399 . S
C535 C529 1.494 1_554 S
C535 C534 1.399 . S
C535 C536 1.396 . S
C536 H524 0.950 . S
C536 C535 1.396 . S
C536 C537 1.391 . S
C537 H525 0.950 . S
C537 C533 1.393 . S
C537 C536 1.391 . S
H538 C546 0.950 . S
H539 C551 0.950 . S
H540 C548 0.950 . S
H541 C550 0.950 . S
H542 C552 0.950 . S
H543 C554 0.950 . S
H544 C556 0.950 . S
H545 C557 0.950 . S
C546 H538 0.950 . S
C546 C547 1.386 1_455 S
C546 C548 1.391 . S
C547 C546 1.386 1_655 S
C547 C551 1.393 . S
C548 H540 0.950 . S
C548 C546 1.391 . S
C548 C549 1.400 1_455 S
C549 C548 1.400 1_655 S
C549 C550 1.398 . S
C549 C555 1.491 . S
C550 H541 0.950 . S
C550 C549 1.398 . S
C550 C551 1.391 . S
C551 H539 0.950 . S
C551 C547 1.393 . S
C551 C550 1.391 . S
C552 H542 0.950 . S
C552 C553 1.386 . S
C552 C554 1.391 . S
C553 C552 1.386 . S
C553 C557 1.393 1_655 S
C554 H543 0.950 . S
C554 C552 1.391 . S
C554 C555 1.400 . S
C555 C549 1.491 . S
C555 C554 1.400 . S
C555 C556 1.398 1_655 S
C556 H544 0.950 . S
C556 C555 1.398 1_455 S
C556 C557 1.391 . S
C557 H545 0.950 . S
C557 C553 1.393 1_455 S
C557 C556 1.391 . S
C207 C25 0.195 . S
C213 N187 0.185 . S
C227 C65 0.424 . S
C233 N160 0.395 . S
C247 C105 0.454 . S
C253 N173 0.419 1_565 S
C267 C4 0.566 . S
C273 N186 0.548 . S
C293 N161 0.513 . S
C287 C44 0.519 . S
C313 N174 0.481 . S
C307 C84 0.523 . S
C327 C60 2.860 . S
C333 N134 2.857 . S
C347 C100 2.810 . S
C353 N148 2.756 1_655 S
C367 C31 3.110 . S
C373 N122 3.088 . S
C393 N135 3.107 . S
C387 C71 3.115 . S
C413 N147 3.231 . S
C407 C111 3.197 . S
C427 C20 2.866 . S
C433 N121 2.860 . S
C453 N151 1.772 . S
C447 C2 1.765 . S
C467 C42 1.724 . S
C473 N125 1.773 . S
C487 C82 1.718 . S
C493 N138 1.799 . S
C513 N177 1.241 . S
C507 C63 1.239 . S
C533 N190 1.242 . S
C527 C103 1.231 . S
C547 C23 1.235 1_655 S
C553 N164 1.244 1_655 S
