# Generated by pormake.
# Topology zzz, (3,6)-cn, num edge types: 1
# Building blocks:
#     Node 0, Type 0, BuildingBlock: CUQRIR_clean_linker_1, # of connection points: 3
#     Node 1, Type 0, BuildingBlock: CUQRIR_clean_linker_1, # of connection points: 3
#     Node 2, Type 0, BuildingBlock: CUQRIR_clean_linker_1, # of connection points: 3
#     Node 3, Type 0, BuildingBlock: CUQRIR_clean_linker_1, # of connection points: 3
#     Node 4, Type 0, BuildingBlock: CUQRIR_clean_linker_1, # of connection points: 3
#     Node 5, Type 0, BuildingBlock: CUQRIR_clean_linker_1, # of connection points: 3
#     Node 6, Type 0, BuildingBlock: CUQRIR_clean_linker_1, # of connection points: 3
#     Node 7, Type 0, BuildingBlock: CUQRIR_clean_linker_1, # of connection points: 3
#     Node 8, Type 1, BuildingBlock: FUNLAD_clean_sbu_0, # of connection points: 6
#     Node 9, Type 1, BuildingBlock: FUNLAD_clean_sbu_0, # of connection points: 6
#     Node 10, Type 1, BuildingBlock: FUNLAD_clean_sbu_0, # of connection points: 6
#     Node 11, Type 1, BuildingBlock: FUNLAD_clean_sbu_0, # of connection points: 6
#     Edge 12, Type (0, 1), BuildingBlock: KIFKEQ_clean_linker_1, # of connection points: 2
#     Edge 13, Type (0, 1), BuildingBlock: KIFKEQ_clean_linker_1, # of connection points: 2
#     Edge 14, Type (0, 1), BuildingBlock: KIFKEQ_clean_linker_1, # of connection points: 2
#     Edge 15, Type (0, 1), BuildingBlock: KIFKEQ_clean_linker_1, # of connection points: 2
#     Edge 16, Type (0, 1), BuildingBlock: KIFKEQ_clean_linker_1, # of connection points: 2
#     Edge 17, Type (0, 1), BuildingBlock: KIFKEQ_clean_linker_1, # of connection points: 2
#     Edge 18, Type (0, 1), BuildingBlock: KIFKEQ_clean_linker_1, # of connection points: 2
#     Edge 19, Type (0, 1), BuildingBlock: KIFKEQ_clean_linker_1, # of connection points: 2
#     Edge 20, Type (0, 1), BuildingBlock: KIFKEQ_clean_linker_1, # of connection points: 2
#     Edge 21, Type (0, 1), BuildingBlock: KIFKEQ_clean_linker_1, # of connection points: 2
#     Edge 22, Type (0, 1), BuildingBlock: KIFKEQ_clean_linker_1, # of connection points: 2
#     Edge 23, Type (0, 1), BuildingBlock: KIFKEQ_clean_linker_1, # of connection points: 2
#     Edge 24, Type (0, 1), BuildingBlock: KIFKEQ_clean_linker_1, # of connection points: 2
#     Edge 25, Type (0, 1), BuildingBlock: KIFKEQ_clean_linker_1, # of connection points: 2
#     Edge 26, Type (0, 1), BuildingBlock: KIFKEQ_clean_linker_1, # of connection points: 2
#     Edge 27, Type (0, 1), BuildingBlock: KIFKEQ_clean_linker_1, # of connection points: 2
#     Edge 28, Type (0, 1), BuildingBlock: KIFKEQ_clean_linker_1, # of connection points: 2
#     Edge 29, Type (0, 1), BuildingBlock: KIFKEQ_clean_linker_1, # of connection points: 2
#     Edge 30, Type (0, 1), BuildingBlock: KIFKEQ_clean_linker_1, # of connection points: 2
#     Edge 31, Type (0, 1), BuildingBlock: KIFKEQ_clean_linker_1, # of connection points: 2
#     Edge 32, Type (0, 1), BuildingBlock: KIFKEQ_clean_linker_1, # of connection points: 2
#     Edge 33, Type (0, 1), BuildingBlock: KIFKEQ_clean_linker_1, # of connection points: 2
#     Edge 34, Type (0, 1), BuildingBlock: KIFKEQ_clean_linker_1, # of connection points: 2
#     Edge 35, Type (0, 1), BuildingBlock: KIFKEQ_clean_linker_1, # of connection points: 2
# Relax obj value: 0.131
# Max RMSD: 0.180
# Mean RMSD: 0.101
data_MOF--net-zzz--node1-FUNLAD_clean_sbu_0--node2-CUQRIR_clean_linker_1--edge1-KIFKEQ_clean_linker_1
_symmetry_space_group_name_H-M    P1
_symmetry_Int_Tables_number       1
_symmetry_cell_setting            triclinic
loop_
_symmetry_equiv_pos_as_xyz
'x, y, z'
_cell_length_a     49.057033
_cell_length_b     55.089078
_cell_length_c     15.902522
_cell_angle_alpha  84.776438
_cell_angle_beta   83.899155
_cell_angle_gamma 89.711596
loop_
_atom_site_label
_atom_site_type_symbol
_atom_site_fract_x
_atom_site_fract_y
_atom_site_fract_z
_atom_type_partial_charge
C0 C 0.78676 0.4817 0.30282 0.0
N1 N 0.81288 0.47521 0.3136 0.0
N2 N 0.77975 0.47451 0.22859 0.0
C3 C 0.7682 0.4949 0.36445 0.0
C4 C 0.80268 0.46374 0.19444 0.0
N5 N 0.82269 0.46393 0.24657 0.0
C6 C 0.80661 0.45579 0.10569 0.0
H7 H 0.77293 0.48984 0.43047 0.0
H8 H 0.74638 0.49081 0.35888 0.0
H9 H 0.77162 0.51481 0.35002 0.0
H10 H 0.79305 0.46604 0.06368 0.0
H11 H 0.80154 0.43611 0.10848 0.0
H12 H 0.82813 0.45842 0.07713 0.0
C13 C 0.94829 0.7642 0.1667 0.0
N14 N 0.9539 0.78835 0.16019 0.0
N15 N 0.95514 0.75498 0.09119 0.0
C16 C 0.93976 0.74913 0.24861 0.0
C17 C 0.96535 0.77434 0.0391 0.0
N18 N 0.96476 0.79457 0.08112 0.0
C19 C 0.97629 0.77328 0.94753 0.0
H20 H 0.95832 0.74119 0.27438 0.0
H21 H 0.92621 0.73392 0.23773 0.0
H22 H 0.92906 0.76045 0.29604 0.0
H23 H 0.96552 0.75891 0.91898 0.0
H24 H 0.99841 0.76871 0.94365 0.0
H25 H 0.97392 0.79113 0.91077 0.0
C26 C 0.76005 0.99661 0.19141 0.0
N27 N 0.7325 -0.00072 0.19228 0.0
N28 N 0.7722 0.99732 0.11038 0.0
C29 C 0.77505 0.99349 0.26911 0.0
C30 C 0.75112 0.00061 0.06217 0.0
N31 N 0.72706 0.00195 0.11176 0.0
C32 C 0.75403 0.00222 0.96663 0.0
H33 H 0.79667 -0.00034 0.25455 0.0
H34 H 0.77496 0.97388 0.29237 0.0
H35 H 0.76467 0.00371 0.32029 0.0
H36 H 0.77279 0.99292 0.9411 0.0
H37 H 0.75549 0.02169 0.94168 0.0
H38 H 0.73591 0.9941 0.94337 0.0
C39 C 0.5159 0.71165 0.20784 0.0
N40 N 0.51138 0.68729 0.21457 0.0
N41 N 0.51023 0.72185 0.13082 0.0
C42 C 0.52486 0.72553 0.27722 0.0
C43 C 0.50238 0.70278 0.09077 0.0
N44 N 0.50276 0.68178 0.14198 0.0
C45 C 0.49753 0.7044 0.99844 0.0
H46 H 0.51764 0.71633 0.34062 0.0
H47 H 0.51703 0.74448 0.27216 0.0
H48 H 0.54759 0.72623 0.27101 0.0
H49 H 0.50839 0.72031 0.96226 0.0
H50 H 0.47525 0.70653 0.99334 0.0
H51 H 0.50459 0.68765 0.96907 0.0
C52 C 0.2442 0.51346 0.1684 0.0
N53 N 0.21782 0.51931 0.15872 0.0
N54 N 0.2514 0.52132 0.24141 0.0
C55 C 0.26285 0.50035 0.1068 0.0
C56 C 0.2284 0.53188 0.27589 0.0
N57 N 0.20809 0.53087 0.22522 0.0
C58 C 0.22488 0.54073 0.3633 0.0
H59 H 0.26019 0.48043 0.12297 0.0
H60 H 0.28461 0.50513 0.11062 0.0
H61 H 0.25758 0.50478 0.04101 0.0
H62 H 0.23986 0.53213 0.40422 0.0
H63 H 0.20389 0.53682 0.3948 0.0
H64 H 0.22808 0.56077 0.35733 0.0
C65 C 0.07864 0.23221 0.28661 0.0
N66 N 0.07329 0.20801 0.29209 0.0
N67 N 0.07139 0.24115 0.36241 0.0
C68 C 0.0875 0.24755 0.20555 0.0
C69 C 0.06127 0.22159 0.41361 0.0
N70 N 0.06227 0.20151 0.37078 0.0
C71 C 0.05034 0.22225 0.50538 0.0
H72 H 0.10156 0.26227 0.21748 0.0
H73 H 0.06916 0.25621 0.18066 0.0
H74 H 0.09775 0.23633 0.15704 0.0
H75 H 0.02813 0.22651 0.50955 0.0
H76 H 0.06086 0.23664 0.53454 0.0
H77 H 0.05302 0.20434 0.54145 0.0
C78 C 0.2741 0.9973 0.26865 0.0
N79 N 0.30187 0.99776 0.26606 0.0
N80 N 0.26226 0.99557 0.3505 0.0
C81 C 0.25859 -0.00114 0.19192 0.0
C82 C 0.28393 0.99516 0.39701 0.0
N83 N 0.30778 0.99641 0.3458 0.0
C84 C 0.28182 0.99372 0.49254 0.0
H85 H 0.25416 0.01829 0.17372 0.0
H86 H 0.23883 0.98885 0.20612 0.0
H87 H 0.27078 0.99149 0.1373 0.0
H88 H 0.28084 0.97428 0.51799 0.0
H89 H 0.26304 0.00296 0.51844 0.0
H90 H 0.29987 0.00205 0.51515 0.0
C91 C 0.50648 0.28751 0.26615 0.0
N92 N 0.51092 0.31185 0.26417 0.0
N93 N 0.51355 0.27595 0.33975 0.0
C94 C 0.49707 0.27489 0.19448 0.0
C95 C 0.52236 0.29407 0.38225 0.0
N96 N 0.52094 0.31576 0.3362 0.0
C97 C 0.53097 0.29073 0.4706 0.0
H98 H 0.47434 0.27506 0.19997 0.0
H99 H 0.50401 0.25567 0.19699 0.0
H100 H 0.50482 0.28457 0.13233 0.0
H101 H 0.55354 0.2884 0.46629 0.0
H102 H 0.52115 0.27433 0.50686 0.0
H103 H 0.5256 0.30695 0.50544 0.0
C104 C 0.02818 0.95612 0.82785 0.0
N105 N 0.99829 0.96428 0.59165 0.0
C106 C 0.01672 0.94668 0.571 0.0
C107 C 0.00999 0.92855 0.52132 0.0
C108 C 0.98388 0.92819 0.49323 0.0
C109 C 0.9652 0.94662 0.51464 0.0
C110 C 0.97295 0.96473 0.5639 0.0
Zn111 Zn 0.00947 0.98747 0.6756 0.0
C112 C 0.96375 0.99626 0.80963 0.0
N113 N 0.03562 0.03043 0.86218 0.0
C114 C 0.06083 0.03009 0.89088 0.0
C115 C 0.01712 0.04808 0.88171 0.0
C116 C 0.02354 0.06627 0.93154 0.0
C117 C 0.04946 0.0667 0.9608 0.0
C118 C 0.06831 0.04832 0.9402 0.0
Zn119 Zn 0.02444 0.00707 0.77848 0.0
O120 O 0.0194 0.95664 0.75539 0.0
C121 C 0.07013 -0.00177 0.64458 0.0
O122 O 0.03277 0.97597 0.85892 0.0
H123 H 0.99752 0.04862 0.85641 0.0
H124 H 0.03647 0.94616 0.59536 0.0
H125 H 0.07535 0.01606 0.8739 0.0
O126 O 0.05023 0.98912 0.61286 0.0
O127 O 0.06567 0.00699 0.71615 0.0
H128 H 0.95852 0.97876 0.58166 0.0
O129 O 0.0154 0.03787 0.6973 0.0
O130 O 1.00011 0.01854 0.59665 0.0
O131 O 0.98348 0.00633 0.83913 0.0
O132 O 0.96844 0.98649 0.73999 0.0
C133 C 0.00563 0.03838 0.62634 0.0
H134 H 0.0248 0.91441 0.50756 0.0
H135 H 0.94486 0.94693 0.49393 0.0
H136 H 0.00863 0.08038 0.94463 0.0
H137 H 0.08853 0.04813 0.96171 0.0
C138 C 0.4829 0.98987 0.60616 0.0
N139 N 0.51536 0.05472 0.67147 0.0
C140 C 0.52005 0.05968 0.58572 0.0
C141 C 0.51953 0.08354 0.54873 0.0
C142 C 0.51403 0.10275 0.60003 0.0
C143 C 0.50893 0.09722 0.68846 0.0
C144 C 0.50979 0.07291 0.72313 0.0
Zn145 Zn 0.51641 0.01848 0.71535 0.0
C146 C 0.47009 0.00239 0.84182 0.0
N147 N 0.51857 0.9417 0.78327 0.0
C148 C 0.52266 0.92366 0.73029 0.0
C149 C 0.51545 0.93649 0.86909 0.0
C150 C 0.51647 0.91251 0.90486 0.0
C151 C 0.52074 0.89346 0.85217 0.0
C152 C 0.52374 0.89925 0.76361 0.0
Zn153 Zn 0.5173 0.97795 0.74014 0.0
O154 O 0.49103 0.01074 0.62127 0.0
C155 C 0.56382 0.99426 0.61472 0.0
O156 O 0.49097 0.97096 0.64829 0.0
H157 H 0.51214 0.95101 0.91035 0.0
H158 H 0.5241 0.04503 0.54536 0.0
H159 H 0.52517 0.92819 0.66228 0.0
O160 O 0.55248 0.01436 0.63072 0.0
O161 O 0.55294 0.97446 0.65027 0.0
H162 H 0.50601 0.06859 0.79109 0.0
O163 O 0.5436 0.9856 0.83068 0.0
O164 O 0.54205 0.02549 0.81 0.0
O165 O 0.48179 0.98219 0.82877 0.0
O166 O 0.48032 0.02191 0.80208 0.0
C167 C 0.55124 0.00638 0.84826 0.0
H168 H 0.52309 0.08687 0.48025 0.0
H169 H 0.50474 0.11153 0.73036 0.0
H170 H 0.51353 0.90893 0.97333 0.0
H171 H 0.52722 0.88513 0.72061 0.0
C172 C 0.53656 0.46809 0.60912 0.0
N173 N 0.459 0.49778 0.66764 0.0
C174 C 0.46173 0.50019 0.58115 0.0
C175 C 0.43888 0.50173 0.53653 0.0
C176 C 0.41258 0.50098 0.58057 0.0
C177 C 0.41003 0.49781 0.66993 0.0
C178 C 0.43374 0.49633 0.71261 0.0
Zn179 Zn 0.49571 0.49815 0.71928 0.0
C180 C 0.50565 0.45764 0.83948 0.0
N181 N 0.57678 0.50009 0.78982 0.0
C182 C 0.60175 0.50265 0.74349 0.0
C183 C 0.57452 0.49768 0.87627 0.0
C184 C 0.59764 0.49809 0.91953 0.0
C185 C 0.62364 0.5007 0.87395 0.0
C186 C 0.62567 0.50282 0.78465 0.0
Zn187 Zn 0.54012 0.49947 0.73861 0.0
O188 O 0.51185 0.4743 0.62833 0.0
C189 C 0.53014 0.53941 0.61611 0.0
O190 O 0.55552 0.47635 0.64715 0.0
H191 H 0.55464 0.49529 0.9124 0.0
H192 H 0.48181 0.5014 0.54585 0.0
H193 H 0.60311 0.50447 0.67486 0.0
O194 O 0.50703 0.52882 0.63316 0.0
O195 O 0.55049 0.53121 0.65313 0.0
H196 H 0.43196 0.49448 0.78128 0.0
O197 O 0.52432 0.52255 0.82863 0.0
O198 O 0.4806 0.52236 0.81151 0.0
O199 O 0.52903 0.46778 0.82157 0.0
O200 O 0.48502 0.46709 0.8069 0.0
C201 C 0.50023 0.53009 0.84827 0.0
H202 H 0.44183 0.50368 0.46776 0.0
H203 H 0.39004 0.49719 0.70623 0.0
H204 H 0.59519 0.49584 0.98832 0.0
H205 H 0.64546 0.50478 0.74732 0.0
C206 C 0.04096 0.52177 0.59135 0.0
N207 N 0.03219 0.44723 0.66352 0.0
C208 C 0.02909 0.44632 0.57984 0.0
C209 C 0.03555 0.42526 0.53996 0.0
C210 C 0.04501 0.40464 0.58659 0.0
C211 C 0.04833 0.40611 0.6728 0.0
C212 C 0.04181 0.42773 0.71017 0.0
Zn213 Zn 0.02137 0.4789 0.71567 0.0
C214 C 0.06361 0.49806 0.81163 0.0
N215 N 0.99837 0.54713 0.80781 0.0
C216 C 0.98855 0.56632 0.76014 0.0
C217 C 1.00128 0.54842 0.89142 0.0
C218 C 0.99433 0.56959 0.93024 0.0
C219 C 0.98456 0.58987 0.88254 0.0
C220 C 0.98155 0.588 0.79636 0.0
Zn221 Zn 0.00934 0.51542 0.75637 0.0
O222 O 0.0406 0.49873 0.60598 0.0
C223 C 0.96709 0.49625 0.66053 0.0
O224 O 0.0293 0.53488 0.64607 0.0
H225 H 0.00912 0.53299 0.92832 0.0
H226 H 0.02138 0.46197 0.54372 0.0
H227 H 0.9864 0.56489 0.69378 0.0
O228 O 0.98434 0.47898 0.6591 0.0
O229 O 0.97194 0.5149 0.69833 0.0
H230 H 0.0441 0.42885 0.77661 0.0
O231 O 0.99015 0.49562 0.86615 0.0
O232 O 1.00139 0.45945 0.82598 0.0
O233 O 0.04637 0.51536 0.813 0.0
O234 O 0.05877 0.4794 0.77381 0.0
C235 C 0.98975 0.47258 0.88074 0.0
H236 H 0.03312 0.42518 0.47309 0.0
H237 H 0.05526 0.39058 0.71152 0.0
H238 H 0.99657 0.56999 0.9971 0.0
H239 H 0.97444 0.60327 0.75679 0.0
H240 H 0.22212 0.02685 0.30683 0.0
H241 H 0.23745 0.9622 0.46835 0.0
H242 H 0.17464 0.02759 0.37448 0.0
H243 H 0.1907 0.9637 0.53912 0.0
H244 H 0.11955 -0.00016 0.70977 0.0
H245 H 0.16553 -0.00155 0.63278 0.0
H246 H 0.12992 0.99642 0.397 0.0
H247 H 0.08392 0.99702 0.47396 0.0
C248 C 0.21522 0.01265 0.35591 0.0
C249 C 0.23353 0.99458 0.38281 0.0
C250 C 0.18819 0.01317 0.39505 0.0
C251 C 0.17917 0.99591 0.4629 0.0
C252 C 0.19724 0.97745 0.48795 0.0
C253 C 0.22396 0.97661 0.44757 0.0
C254 C 0.12153 -0.00086 0.64153 0.0
C255 C 0.09809 -0.00155 0.59807 0.0
C256 C 0.14782 -0.00174 0.59757 0.0
C257 C 0.15124 0.99731 0.50896 0.0
C258 C 0.12786 0.99722 0.4652 0.0
C259 C 0.10157 0.99747 0.50938 0.0
H260 H 0.55707 0.24896 0.37577 0.0
H261 H 0.46982 0.24568 0.36635 0.0
H262 H 0.55684 0.20671 0.4381 0.0
H263 H 0.46927 0.20303 0.42799 0.0
H264 H 0.55036 0.12407 0.47331 0.0
H265 H 0.54933 0.16518 0.40313 0.0
H266 H 0.47667 0.18062 0.56745 0.0
H267 H 0.47729 0.13906 0.63655 0.0
C268 C 0.53791 0.2389 0.38613 0.0
C269 C 0.51349 0.2503 0.36644 0.0
C270 C 0.53772 0.21476 0.42152 0.0
C271 C 0.51301 0.20152 0.43832 0.0
C272 C 0.48858 0.21284 0.41669 0.0
C273 C 0.48887 0.23704 0.38065 0.0
C274 C 0.53404 0.13616 0.49418 0.0
C275 C 0.51386 0.12827 0.56043 0.0
C276 C 0.53357 0.15979 0.45433 0.0
C277 C 0.51289 0.17617 0.47955 0.0
C278 C 0.49269 0.16834 0.54589 0.0
C279 C 0.49324 0.14466 0.5862 0.0
H280 H 0.28319 0.55661 0.28343 0.0
H281 H 0.27545 0.47872 0.2873 0.0
H282 H 0.3221 0.55159 0.36737 0.0
H283 H 0.31494 0.47333 0.3702 0.0
H284 H 0.36418 0.47509 0.60319 0.0
H285 H 0.32592 0.47951 0.51554 0.0
H286 H 0.36912 0.53824 0.35854 0.0
H287 H 0.40659 0.53438 0.44713 0.0
C288 C 0.29037 0.53842 0.30101 0.0
C289 C 0.27671 0.51806 0.2788 0.0
C290 C 0.31256 0.53548 0.34899 0.0
C291 C 0.32156 0.51204 0.37586 0.0
C292 C 0.30828 0.49161 0.35141 0.0
C293 C 0.28604 0.49462 0.30304 0.0
C294 C 0.36525 0.48911 0.55055 0.0
C295 C 0.38842 0.5043 0.53185 0.0
C296 C 0.34356 0.49143 0.49969 0.0
C297 C 0.34456 0.50914 0.42969 0.0
C298 C 0.36758 0.52454 0.41217 0.0
C299 C 0.38916 0.52219 0.46265 0.0
H300 H 0.11224 0.27327 0.36825 0.0
H301 H 0.02451 0.26466 0.39939 0.0
H302 H 0.10739 0.31459 0.41479 0.0
H303 H 0.01929 0.30527 0.44846 0.0
H304 H 0.01582 0.38537 0.47121 0.0
H305 H 0.02417 0.34772 0.40467 0.0
H306 H 0.09386 0.33314 0.54612 0.0
H307 H 0.08643 0.37168 0.6094 0.0
C308 C 0.09197 0.28049 0.38409 0.0
C309 C 0.06872 0.26615 0.38035 0.0
C310 C 0.08913 0.3039 0.41156 0.0
C311 C 0.06294 0.31322 0.43562 0.0
C312 C 0.03973 0.29888 0.42934 0.0
C313 C 0.04262 0.27562 0.40182 0.0
C314 C 0.03327 0.37442 0.48707 0.0
C315 C 0.05047 0.38162 0.54574 0.0
C316 C 0.03785 0.35265 0.44957 0.0
C317 C 0.05959 0.33733 0.47035 0.0
C318 C 0.07709 0.34464 0.52803 0.0
C319 C 0.07259 0.36656 0.56529 0.0
H320 H 0.81003 0.03287 0.10008 0.0
H321 H 0.79817 0.95859 0.0487 0.0
H322 H 0.85695 0.03229 0.02926 0.0
H323 H 0.84518 0.95749 0.97872 0.0
H324 H 0.9167 0.97507 0.76967 0.0
H325 H 0.87113 0.97453 0.84859 0.0
H326 H 0.90223 0.01545 0.0373 0.0
H327 H 0.94753 0.01637 0.95787 0.0
C328 C 0.81787 0.01626 0.07514 0.0
C329 C 0.80085 0.99572 0.0802 0.0
C330 C 0.84465 0.01585 0.03448 0.0
C331 C 0.85492 0.99487 0.99759 0.0
C332 C 0.83791 0.97408 0.0051 0.0
C333 C 0.81117 0.97453 0.04597 0.0
C334 C 0.91381 0.98397 0.82795 0.0
C335 C 0.93585 0.99581 0.8571 0.0
C336 C 0.88769 0.98351 0.87366 0.0
C337 C 0.8829 0.99491 0.94966 0.0
C338 C 0.90499 0.00672 0.97868 0.0
C339 C 0.93107 0.00714 0.93316 0.0
H340 H 0.55467 0.75126 0.11681 0.0
H341 H 0.47016 0.74877 0.06764 0.0
H342 H 0.55886 0.79287 0.04695 0.0
H343 H 0.47392 0.79029 0.99842 0.0
H344 H 0.4974 0.85309 0.79994 0.0
H345 H 0.49595 0.8116 0.86862 0.0
H346 H 0.54329 0.83451 0.06167 0.0
H347 H 0.54559 0.87576 0.9913 0.0
C348 C 0.53692 0.75987 0.09215 0.0
C349 C 0.51211 0.74702 0.0973 0.0
C350 C 0.53926 0.7836 0.05201 0.0
C351 C 0.51678 0.79484 0.01623 0.0
C352 C 0.49179 0.78203 0.02359 0.0
C353 C 0.48951 0.7584 0.06369 0.0
C354 C 0.50787 0.84919 0.85623 0.0
C355 C 0.52145 0.8678 0.89036 0.0
C356 C 0.50675 0.82547 0.89627 0.0
C357 C 0.51924 0.81977 0.97127 0.0
C358 C 0.53353 0.83822 0.00391 0.0
C359 C 0.53461 0.86193 0.96398 0.0
H360 H 0.74801 0.44146 0.172 0.0
H361 H 0.75697 0.51838 0.19182 0.0
H362 H 0.71076 0.44963 0.08259 0.0
H363 H 0.71951 0.52683 0.10263 0.0
H364 H 0.63197 0.52553 0.00986 0.0
H365 H 0.66914 0.52005 0.1005 0.0
H366 H 0.70777 0.46888 0.93556 0.0
H367 H 0.67032 0.47411 0.84559 0.0
C368 C 0.74157 0.46009 0.15803 0.0
C369 C 0.75511 0.4793 0.18855 0.0
C370 C 0.72055 0.46482 0.1063 0.0
C371 C 0.71253 0.4889 0.08448 0.0
C372 C 0.72524 0.50809 0.11847 0.0
C373 C 0.74646 0.50331 0.1699 0.0
C374 C 0.64856 0.51329 0.99263 0.0
C375 C 0.64819 0.5001 0.92103 0.0
C376 C 0.66988 0.51024 0.04429 0.0
C377 C 0.69115 0.4938 0.02577 0.0
C378 C 0.69137 0.48138 0.95217 0.0
C379 C 0.67015 0.48458 0.90007 0.0
H380 H 0.91468 0.72237 0.08673 0.0
H381 H 1.00233 0.73165 0.05729 0.0
H382 H 0.92012 0.68058 0.04479 0.0
H383 H 0.00814 0.69057 0.01277 0.0
H384 H 0.01276 0.61025 0.99803 0.0
H385 H 1.00356 0.64835 0.06104 0.0
H386 H 0.93431 0.66093 0.91626 0.0
H387 H 0.94256 0.62197 0.85664 0.0
C388 C 0.93506 0.71521 0.07212 0.0
C389 C 0.95812 0.72987 0.07501 0.0
C390 C 0.93824 0.69153 0.04735 0.0
C391 C 0.96458 0.68224 0.02522 0.0
C392 C 0.98759 0.69693 0.03052 0.0
C393 C 0.98436 0.72046 0.05536 0.0
C394 C 0.99522 0.62085 0.98077 0.0
C395 C 0.97842 0.613 0.92207 0.0
C396 C 0.99014 0.64288 0.01621 0.0
C397 C 0.96831 0.6578 0.9933 0.0
C398 C 0.95115 0.64978 0.93591 0.0
C399 C 0.95613 0.62761 0.90074 0.0
H400 H 0.00989 0.1924 0.43531 0.0
H401 H 0.08729 0.15802 0.36888 0.0
H402 H 0.98936 0.15243 0.48532 0.0
H403 H 0.06667 0.11798 0.41496 0.0
H404 H 0.99175 0.08162 0.68604 0.0
H405 H 1.00097 0.12192 0.61175 0.0
H406 H 0.02764 0.08888 0.38114 0.0
H407 H 0.01785 0.04835 0.45552 0.0
C408 C 0.02241 0.17623 0.43156 0.0
C409 C 0.05017 0.17809 0.39952 0.0
C410 C 0.01066 0.15346 0.45895 0.0
C411 C 0.0264 0.1322 0.45305 0.0
C412 C 0.05397 0.13408 0.41865 0.0
C413 C 0.0658 0.15687 0.39276 0.0
C414 C 0.99864 0.08304 0.61872 0.0
C415 C 1.00416 0.06201 0.57631 0.0
C416 C 1.00389 0.10606 0.57625 0.0
C417 C 0.01524 0.10839 0.49113 0.0
C418 C 0.019 0.08744 0.44701 0.0
C419 C 0.01319 0.06435 0.4892 0.0
H420 H 0.33378 0.03069 0.41658 0.0
H421 H 0.34262 0.95899 0.33051 0.0
H422 H 0.37947 0.0278 0.46524 0.0
H423 H 0.38878 0.95588 0.37754 0.0
H424 H 0.44931 0.95125 0.59101 0.0
H425 H 0.40849 0.95222 0.51517 0.0
H426 H 0.42794 0.02618 0.41274 0.0
H427 H 0.46832 0.0254 0.48948 0.0
C428 C 0.34577 0.01437 0.40807 0.0
C429 C 0.33493 0.9949 0.37159 0.0
C430 C 0.37194 0.01274 0.43483 0.0
C431 C 0.38776 0.99158 0.42511 0.0
C432 C 0.37699 0.97229 0.38659 0.0
C433 C 0.35077 0.97402 0.35963 0.0
C434 C 0.44519 0.9675 0.55073 0.0
C435 C 0.46176 0.98837 0.54725 0.0
C436 C 0.42183 0.96805 0.5072 0.0
C437 C 0.41474 0.98945 0.45929 0.0
C438 C 0.43252 0.00963 0.45078 0.0
C439 C 0.45573 0.00912 0.49439 0.0
H440 H 0.48519 0.35202 0.35717 0.0
H441 H 0.5694 0.33193 0.37441 0.0
H442 H 0.49362 0.39124 0.40937 0.0
H443 H 0.57876 0.37174 0.42311 0.0
H444 H 0.57063 0.42917 0.62245 0.0
H445 H 0.56999 0.39313 0.54425 0.0
H446 H 0.51413 0.42946 0.38142 0.0
H447 H 0.51354 0.46469 0.46363 0.0
C448 C 0.50565 0.35638 0.37111 0.0
C449 C 0.52662 0.33923 0.36286 0.0
C450 C 0.51067 0.37888 0.40011 0.0
C451 C 0.53699 0.38484 0.42018 0.0
C452 C 0.55819 0.3677 0.4095 0.0
C453 C 0.55297 0.34501 0.38157 0.0
C454 C 0.55884 0.42957 0.56846 0.0
C455 C 0.54196 0.44946 0.54921 0.0
C456 C 0.55844 0.40894 0.52346 0.0
C457 C 0.54149 0.40811 0.45753 0.0
C458 C 0.52668 0.42909 0.43357 0.0
C459 C 0.52658 0.4494 0.47982 0.0
H460 H 0.18425 0.5735 0.26133 0.0
H461 H 0.16841 0.49727 0.24804 0.0
H462 H 0.13718 0.57869 0.32713 0.0
H463 H 0.12207 0.50185 0.314 0.0
H464 H 0.07811 0.55861 0.57959 0.0
H465 H 0.11519 0.5665 0.46565 0.0
H466 H 0.07728 0.51715 0.31565 0.0
H467 H 0.04132 0.5082 0.43228 0.0
C468 C 0.17034 0.55806 0.2708 0.0
C469 C 0.17956 0.53504 0.24974 0.0
C470 C 0.14356 0.56092 0.30858 0.0
C471 C 0.12575 0.5407 0.32613 0.0
C472 C 0.1348 0.51801 0.29997 0.0
C473 C 0.16141 0.51525 0.26227 0.0
C474 C 0.0773 0.55018 0.52093 0.0
C475 C 0.05732 0.53254 0.51469 0.0
C476 C 0.09849 0.55472 0.45535 0.0
C477 C 0.09963 0.54192 0.38227 0.0
C478 C 0.0775 0.52671 0.37215 0.0
C479 C 0.05679 0.52172 0.43846 0.0
H480 H 0.94133 0.83877 0.08106 0.0
H481 H 0.01756 0.8021 0.01832 0.0
H482 H 0.96356 0.87819 0.03562 0.0
H483 H 0.03974 0.84144 0.96926 0.0
H484 H 0.04187 0.91261 0.76955 0.0
H485 H 0.03075 0.87252 0.84301 0.0
H486 H 1.00287 0.90607 0.07164 0.0
H487 H 0.01447 0.94635 0.99812 0.0
C488 C 0.96289 0.83928 0.05795 0.0
C489 C 0.97773 0.8176 0.05203 0.0
C490 C 0.97565 0.86172 0.0325 0.0
C491 C 1.0034 0.86279 0.99954 0.0
C492 C 0.01833 0.84106 0.99441 0.0
C493 C 0.00563 0.81864 0.02126 0.0
C494 C 0.03431 0.91133 0.83639 0.0
C495 C 0.02893 0.93247 0.8783 0.0
C496 C 0.02797 0.88842 0.87838 0.0
C497 C 0.01567 0.88631 0.96253 0.0
C498 C 0.01217 0.90732 0.00646 0.0
C499 C 0.01904 0.93028 0.96478 0.0
H500 H 0.70946 0.03687 1.00015 0.0
H501 H 0.6839 0.97221 0.16161 0.0
H502 H 0.66437 0.03955 0.94794 0.0
H503 H 0.63804 0.97597 0.11678 0.0
H504 H 0.57605 0.96817 0.92843 0.0
H505 H 0.61696 0.96865 0.99945 0.0
H506 H 0.6172 0.04752 0.97128 0.0
H507 H 0.57656 0.04692 0.89463 0.0
C508 C 0.694 0.02337 0.02478 0.0
C509 C 0.7001 0.00417 0.08381 0.0
C510 C 0.66799 0.02512 0.99632 0.0
C511 C 0.64741 0.0079 0.02766 0.0
C512 C 0.65342 0.98927 0.08955 0.0
C513 C 0.67958 0.98721 0.11618 0.0
C514 C 0.58452 0.98571 0.93809 0.0
C515 C 0.57315 0.00753 0.90493 0.0
C516 C 0.60803 0.98599 0.9798 0.0
C517 C 0.62065 0.00813 0.99113 0.0
C518 C 0.60838 0.03009 0.96224 0.0
C519 C 0.58491 0.02979 0.91915 0.0
H520 H 0.4597 0.66589 0.06818 0.0
H521 H 0.53577 0.6428 0.16217 0.0
H522 H 0.45586 0.6268 0.00888 0.0
H523 H 0.53001 0.60277 0.1159 0.0
H524 H 0.54096 0.55439 0.9056 0.0
H525 H 0.53819 0.58864 0.98744 0.0
H526 H 0.44956 0.58453 0.01187 0.0
H527 H 0.45253 0.55033 0.92224 0.0
C528 C 0.47521 0.65219 0.07793 0.0
C529 C 0.49821 0.6575 0.11877 0.0
C530 C 0.47279 0.6296 0.04538 0.0
C531 C 0.49297 0.61162 0.05549 0.0
C532 C 0.51457 0.61635 0.10355 0.0
C533 C 0.5176 0.6392 0.13232 0.0
C534 C 0.52071 0.56044 0.92872 0.0
C535 C 0.49691 0.54951 0.90705 0.0
C536 C 0.51912 0.58015 0.97724 0.0
C537 C 0.49364 0.58937 0.00826 0.0
C538 C 0.46959 0.57808 0.98869 0.0
C539 C 0.47123 0.55839 0.93791 0.0
H540 H 0.86261 0.49729 0.22511 0.0
H541 H 0.84629 0.42122 0.21036 0.0
H542 H 0.90893 0.49257 0.15919 0.0
H543 H 0.89335 0.41587 0.14476 0.0
H544 H 0.98955 0.48605 0.03989 0.0
H545 H 0.95363 0.47715 0.15666 0.0
H546 H 0.91537 0.42806 0.00652 0.0
H547 H 0.95241 0.43588 0.89246 0.0
C548 C 0.86952 0.4793 0.21064 0.0
C549 C 0.85124 0.4596 0.22273 0.0
C550 C 0.89611 0.47646 0.17296 0.0
C551 C 0.90502 0.45377 0.14637 0.0
C552 C 0.88709 0.43363 0.16363 0.0
C553 C 0.86032 0.43657 0.20136 0.0
C554 C 0.97401 0.47259 0.03371 0.0
C555 C 0.97338 0.46181 0.95742 0.0
C556 C 0.95332 0.46764 0.1001 0.0
C557 C 0.9311 0.45252 0.09001 0.0
C558 C 0.93213 0.43977 0.01682 0.0
C559 C 0.95331 0.44427 0.95116 0.0
H560 H 0.11592 0.18308 0.22327 0.0
H561 H 0.03004 0.19748 0.21349 0.0
H562 H 0.11259 0.14834 0.13829 0.0
H563 H 0.02643 0.16344 0.12672 0.0
H564 H 0.01936 0.08343 0.09659 0.0
H565 H 0.02744 0.11994 0.16593 0.0
H566 H 0.10318 0.13292 1.00297 0.0
H567 H 0.09519 0.09585 0.93434 0.0
C568 C 0.09664 0.1793 0.19955 0.0
C569 C 0.07324 0.19274 0.22374 0.0
C570 C 0.09462 0.15942 0.1516 0.0
C571 C 0.0691 0.15282 0.12736 0.0
C572 C 0.04623 0.16766 0.14618 0.0
C573 C 0.04829 0.18736 0.19434 0.0
C574 C 0.03783 0.094 0.07603 0.0
C575 C 0.05654 0.08696 0.00976 0.0
C576 C 0.04235 0.11503 0.11511 0.0
C577 C 0.06561 0.12968 0.08841 0.0
C578 C 0.08503 0.12205 0.02471 0.0
C579 C 0.08054 0.10082 0.98573 0.0
H580 H 0.33665 0.03534 0.22352 0.0
H581 H 0.3142 0.96568 0.14903 0.0
H582 H 0.37672 0.03719 0.11756 0.0
H583 H 0.35376 0.96756 0.0403 0.0
H584 H 0.44478 0.96399 0.94042 0.0
H585 H 0.40248 0.96398 0.03527 0.0
H586 H 0.39399 0.04131 0.97033 0.0
H587 H 0.43684 0.04141 0.87661 0.0
C588 C 0.34 0.02075 0.18237 0.0
C589 C 0.32223 0.00057 0.1932 0.0
C590 C 0.36292 0.02176 0.12158 0.0
C591 C 0.36871 0.00249 0.07012 0.0
C592 C 0.35025 0.98262 0.07933 0.0
C593 C 0.32733 0.98164 0.14046 0.0
C594 C 0.43395 0.98104 0.94628 0.0
C595 C 0.44437 0.00273 0.90081 0.0
C596 C 0.40945 0.98099 1.00028 0.0
C597 C 0.39453 0.0026 0.01041 0.0
C598 C 0.40497 0.02433 0.96496 0.0
C599 C 0.42956 0.0244 0.91093 0.0
H600 H 0.55125 0.34165 0.19136 0.0
H601 H 0.4664 0.3238 0.18148 0.0
H602 H 0.54788 0.37602 0.08616 0.0
H603 H 0.46301 0.35766 0.07096 0.0
H604 H 0.4621 0.43875 0.95006 0.0
H605 H 0.46209 0.40157 0.04799 0.0
H606 H 0.54462 0.38619 0.94271 0.0
H607 H 0.545 0.42353 0.84965 0.0
C608 C 0.53193 0.345 0.16528 0.0
C609 C 0.50911 0.33022 0.19435 0.0
C610 C 0.52998 0.36455 0.10421 0.0
C611 C 0.50518 0.36965 0.06904 0.0
C612 C 0.48236 0.35445 0.09699 0.0
C613 C 0.48433 0.33489 0.15922 0.0
C614 C 0.4801 0.42726 0.94809 0.0
C615 C 0.50373 0.43426 0.8936 0.0
C616 C 0.48009 0.4059 0.00374 0.0
C617 C 0.50358 0.39102 0.00469 0.0
C618 C 0.52649 0.39751 0.94624 0.0
C619 C 0.52668 0.41892 0.89236 0.0
H620 H 0.202 0.47584 0.11371 0.0
H621 H 0.19761 0.55334 0.05273 0.0
H622 H 0.16636 0.46956 0.0202 0.0
H623 H 0.16311 0.54745 0.95645 0.0
H624 H 0.07557 0.53288 0.91256 0.0
H625 H 0.11612 0.53686 0.98441 0.0
H626 H 0.15005 0.47214 0.87988 0.0
H627 H 0.10854 0.4677 0.80903 0.0
C628 C 0.19407 0.49139 0.07745 0.0
C629 C 0.2023 0.51505 0.08968 0.0
C630 C 0.17366 0.48789 0.02418 0.0
C631 C 0.16142 0.50805 0.98202 0.0
C632 C 0.17148 0.53155 0.98962 0.0
C633 C 0.19146 0.53498 0.0436 0.0
C634 C 0.09164 0.51948 0.90433 0.0
C635 C 0.08881 0.50002 0.85459 0.0
C636 C 0.11512 0.5219 0.94513 0.0
C637 C 0.13667 0.50506 0.93691 0.0
C638 C 0.13384 0.48541 0.88768 0.0
C639 C 0.11011 0.48291 0.84691 0.0
H640 H 0.91272 0.81512 0.22776 0.0
H641 H 0.99767 0.79699 0.23922 0.0
H642 H 0.91781 0.84941 0.31349 0.0
H643 H 1.00302 0.8306 0.32671 0.0
H644 H 0.01374 0.91036 0.35877 0.0
H645 H 1.00427 0.87427 0.289 0.0
H646 H 0.92778 0.86366 0.44991 0.0
H647 H 0.93721 0.90023 0.51919 0.0
C648 C 0.93215 0.81802 0.25191 0.0
C649 C 0.95481 0.80363 0.22815 0.0
C650 C 0.93518 0.83763 0.30033 0.0
C651 C 0.96097 0.843 0.32543 0.0
C652 C 0.98305 0.82729 0.30668 0.0
C653 C 0.97999 0.80786 0.25808 0.0
C654 C 0.99485 0.90037 0.379 0.0
C655 C 0.97632 0.90796 0.44478 0.0
C656 C 0.98951 0.87958 0.33958 0.0
C657 C 0.96557 0.86576 0.36535 0.0
C658 C 0.94643 0.8739 0.42882 0.0
C659 C 0.95176 0.89486 0.46818 0.0
H660 H 0.69664 0.03519 0.22281 0.0
H661 H 0.72152 0.96423 0.32224 0.0
H662 H 0.65652 0.03341 0.32744 0.0
H663 H 0.68198 0.96262 0.43111 0.0
H664 H 0.59067 0.9559 0.54203 0.0
H665 H 0.63341 0.95745 0.44689 0.0
H666 H 0.6397 0.03479 0.46908 0.0
H667 H 0.59678 0.03337 0.56013 0.0
C668 C 0.69378 0.01947 0.26901 0.0
C669 C 0.71213 -9e-05 0.26479 0.0
C670 C 0.67082 0.0184 0.32937 0.0
C671 C 0.66572 0.9978 0.38826 0.0
C672 C 0.68488 0.97861 0.38622 0.0
C673 C 0.70782 0.97967 0.32503 0.0
C674 C 0.6012 0.9732 0.52624 0.0
C675 C 0.59005 0.99453 0.558 0.0
C676 C 0.62589 0.9741 0.47223 0.0
C677 C 0.64015 0.99631 0.44939 0.0
C678 C 0.62917 0.01744 0.48314 0.0
C679 C 0.60447 0.0166 0.53597 0.0
H680 H 0.47222 0.65907 0.30345 0.0
H681 H 0.55828 0.67607 0.28377 0.0
H682 H 0.47887 0.62425 0.40549 0.0
H683 H 0.56562 0.64051 0.38363 0.0
H684 H 0.56203 0.58059 0.61434 0.0
H685 H 0.55811 0.61908 0.52519 0.0
H686 H 0.49847 0.58541 0.3906 0.0
H687 H 0.50166 0.54784 0.48078 0.0
C688 C 0.4925 0.65544 0.32253 0.0
C689 C 0.51473 0.67 0.28623 0.0
C690 C 0.49649 0.63536 0.37987 0.0
C691 C 0.52296 0.62911 0.40112 0.0
C692 C 0.54499 0.64473 0.36881 0.0
C693 C 0.54085 0.6651 0.31203 0.0
C694 C 0.54843 0.58148 0.56476 0.0
C695 C 0.53197 0.56135 0.55489 0.0
C696 C 0.54609 0.6035 0.51391 0.0
C697 C 0.52739 0.60559 0.45214 0.0
C698 C 0.5123 0.58485 0.43949 0.0
C699 C 0.51437 0.56316 0.49057 0.0
H700 H 0.83325 0.441 0.41867 0.0
H701 H 0.82849 0.51857 0.35995 0.0
H702 H 0.86774 0.44677 0.51512 0.0
H703 H 0.86408 0.52474 0.45361 0.0
H704 H 0.95526 0.46158 0.55887 0.0
H705 H 0.91466 0.45757 0.48729 0.0
H706 H 0.88045 0.52194 0.59368 0.0
H707 H 0.92201 0.52642 0.66422 0.0
C708 C 0.8393 0.45934 0.42835 0.0
C709 C 0.82836 0.47933 0.38286 0.0
C710 C 0.85927 0.46271 0.48243 0.0
C711 C 0.86921 0.48621 0.49069 0.0
C712 C 0.85687 0.50641 0.44914 0.0
C713 C 0.83648 0.50296 0.3958 0.0
C714 C 0.93911 0.47489 0.56756 0.0
C715 C 0.94188 0.49427 0.61771 0.0
C716 C 0.91561 0.47246 0.52693 0.0
C717 C 0.89397 0.48918 0.53575 0.0
C718 C 0.89674 0.50875 0.58541 0.0
C719 C 0.92049 0.51128 0.62599 0.0
loop_
_geom_bond_atom_site_label_1
_geom_bond_atom_site_label_2
_geom_bond_distance
_geom_bond_site_symmetry_2
_ccdc_geom_bond_type
C0 N1 1.317 . S
C0 N2 1.348 . S
C0 C3 1.485 . S
N1 C0 1.317 . S
N1 N5 1.370 . S
N2 C0 1.348 . S
N2 C4 1.346 . S
C3 C0 1.485 . S
C3 H7 0.960 . S
C3 H8 0.961 . S
C3 H9 0.960 . S
C4 N2 1.346 . S
C4 N5 1.307 . S
C4 C6 1.486 1_554 S
N5 N1 1.370 . S
N5 C4 1.307 . S
C6 C4 1.486 1_556 S
C6 H10 0.960 . S
C6 H11 0.960 . S
C6 H12 0.959 . S
H7 C3 0.960 . S
H8 C3 0.961 . S
H9 C3 0.960 . S
H10 C6 0.960 . S
H11 C6 0.960 . S
H12 C6 0.959 . S
C13 N14 1.317 . S
C13 N15 1.348 1_554 S
C13 C16 1.485 . S
N14 C13 1.317 . S
N14 N18 1.370 1_554 S
N15 C13 1.348 1_556 S
N15 C17 1.346 . S
C16 C13 1.485 . S
C16 H20 0.960 . S
C16 H21 0.961 . S
C16 H22 0.960 . S
C17 N15 1.346 . S
C17 N18 1.307 . S
C17 C19 1.486 . S
N18 N14 1.370 1_556 S
N18 C17 1.307 . S
C19 C17 1.486 . S
C19 H23 0.960 . S
C19 H24 0.960 . S
C19 H25 0.959 . S
H20 C16 0.960 . S
H21 C16 0.961 . S
H22 C16 0.960 . S
H23 C19 0.960 . S
H24 C19 0.960 . S
H25 C19 0.959 . S
C26 N27 1.317 . S
C26 N28 1.347 . S
C26 C29 1.485 . S
N27 C26 1.317 . S
N27 N31 1.370 . S
N28 C26 1.347 . S
N28 C30 1.348 1_565 S
C29 C26 1.485 . S
C29 H33 0.960 1_565 S
C29 H34 0.961 . S
C29 H35 0.960 . S
C30 N28 1.348 1_545 S
C30 N31 1.307 1_545 S
C30 C32 1.489 1_554 S
N31 N27 1.370 . S
N31 C30 1.307 1_565 S
C32 C30 1.489 1_556 S
C32 H36 0.922 1_545 S
C32 H37 0.990 . S
C32 H38 0.966 . S
H33 C29 0.960 1_545 S
H34 C29 0.961 . S
H35 C29 0.960 . S
H36 C32 0.922 1_565 S
H37 C32 0.990 . S
H38 C32 0.966 . S
C39 N40 1.317 . S
C39 N41 1.348 . S
C39 C42 1.485 . S
N40 C39 1.317 . S
N40 N44 1.370 . S
N41 C39 1.348 . S
N41 C43 1.346 . S
C42 C39 1.485 . S
C42 H46 0.960 . S
C42 H47 0.961 . S
C42 H48 0.960 . S
C43 N41 1.346 . S
C43 N44 1.307 . S
C43 C45 1.486 1_554 S
N44 N40 1.370 . S
N44 C43 1.307 . S
C45 C43 1.486 1_556 S
C45 H49 0.960 . S
C45 H50 0.960 . S
C45 H51 0.959 . S
H46 C42 0.960 . S
H47 C42 0.961 . S
H48 C42 0.960 . S
H49 C45 0.960 . S
H50 C45 0.960 . S
H51 C45 0.959 . S
C52 N53 1.317 . S
C52 N54 1.348 . S
C52 C55 1.485 . S
N53 C52 1.317 . S
N53 N57 1.370 . S
N54 C52 1.348 . S
N54 C56 1.346 . S
C55 C52 1.485 . S
C55 H59 0.960 . S
C55 H60 0.961 . S
C55 H61 0.960 . S
C56 N54 1.346 . S
C56 N57 1.307 . S
C56 C58 1.486 . S
N57 N53 1.370 . S
N57 C56 1.307 . S
C58 C56 1.486 . S
C58 H62 0.960 . S
C58 H63 0.960 . S
C58 H64 0.959 . S
H59 C55 0.960 . S
H60 C55 0.961 . S
H61 C55 0.960 . S
H62 C58 0.960 . S
H63 C58 0.960 . S
H64 C58 0.959 . S
C65 N66 1.317 . S
C65 N67 1.348 . S
C65 C68 1.485 . S
N66 C65 1.317 . S
N66 N70 1.370 . S
N67 C65 1.348 . S
N67 C69 1.346 . S
C68 C65 1.485 . S
C68 H72 0.960 . S
C68 H73 0.961 . S
C68 H74 0.960 . S
C69 N67 1.346 . S
C69 N70 1.307 . S
C69 C71 1.486 . S
N70 N66 1.370 . S
N70 C69 1.307 . S
C71 C69 1.486 . S
C71 H75 0.960 . S
C71 H76 0.960 . S
C71 H77 0.959 . S
H72 C68 0.960 . S
H73 C68 0.961 . S
H74 C68 0.960 . S
H75 C71 0.960 . S
H76 C71 0.960 . S
H77 C71 0.959 . S
C78 N79 1.317 . S
C78 N80 1.352 . S
C78 C81 1.485 . S
N79 C78 1.317 . S
N79 N83 1.371 . S
N80 C78 1.352 . S
N80 C82 1.343 1_565 S
C81 C78 1.485 . S
C81 H85 0.960 1_565 S
C81 H86 0.961 . S
C81 H87 0.960 . S
C82 N80 1.343 1_545 S
C82 N83 1.306 1_545 S
C82 C84 1.487 . S
N83 N79 1.371 . S
N83 C82 1.306 1_565 S
C84 C82 1.487 . S
C84 H88 0.960 1_545 S
C84 H89 0.960 . S
C84 H90 0.959 . S
H85 C81 0.960 1_545 S
H86 C81 0.961 . S
H87 C81 0.960 . S
H88 C84 0.960 1_565 S
H89 C84 0.960 . S
H90 C84 0.959 . S
C91 N92 1.317 . S
C91 N93 1.348 . S
C91 C94 1.485 . S
N92 C91 1.317 . S
N92 N96 1.370 . S
N93 C91 1.348 . S
N93 C95 1.346 . S
C94 C91 1.485 . S
C94 H98 0.960 . S
C94 H99 0.961 . S
C94 H100 0.960 . S
C95 N93 1.346 . S
C95 N96 1.307 . S
C95 C97 1.486 . S
N96 N92 1.370 . S
N96 C95 1.307 . S
C97 C95 1.486 . S
C97 H101 0.960 . S
C97 H102 0.960 . S
C97 H103 0.959 . S
H98 C94 0.960 . S
H99 C94 0.961 . S
H100 C94 0.960 . S
H101 C97 0.960 . S
H102 C97 0.960 . S
H103 C97 0.959 . S
C104 O120 1.251 . S
C104 O122 1.254 . S
N105 C106 1.333 1_655 S
N105 C110 1.307 . S
N105 Zn111 2.020 1_655 S
C106 N105 1.333 1_455 S
C106 C107 1.379 1_455 S
C106 H124 0.952 . S
C107 C106 1.379 1_655 S
C107 C108 1.390 . S
C107 H134 0.949 1_655 S
C108 C107 1.390 . S
C108 C109 1.357 . S
C109 C108 1.357 . S
C109 C110 1.370 . S
C109 H135 0.950 . S
C110 N105 1.307 . S
C110 C109 1.370 . S
C110 H128 0.948 . S
Zn111 N105 2.020 1_455 S
Zn111 O120 2.039 . S
Zn111 O126 2.034 . S
Zn111 O130 2.025 1_565 S
Zn111 O132 2.024 1_455 S
C112 O131 1.246 . S
C112 O132 1.249 1_545 S
N113 C114 1.307 . S
N113 C115 1.333 . S
N113 Zn119 2.020 . S
C114 N113 1.307 . S
C114 C118 1.370 1_556 S
C114 H125 0.948 . S
C115 N113 1.333 . S
C115 C116 1.379 . S
C115 H123 0.952 . S
C116 C115 1.379 . S
C116 C117 1.390 1_556 S
C116 H136 0.949 . S
C117 C116 1.390 1_554 S
C117 C118 1.357 . S
C118 C114 1.370 1_554 S
C118 C117 1.357 . S
C118 H137 0.950 . S
Zn119 N113 2.020 . S
Zn119 O122 2.025 1_545 S
Zn119 O127 2.024 . S
Zn119 O129 2.039 . S
Zn119 O131 2.034 1_455 S
O120 C104 1.251 . S
O120 Zn111 2.039 . S
C121 O126 1.246 . S
C121 O127 1.249 1_565 S
O122 C104 1.254 . S
O122 Zn119 2.025 1_565 S
H123 C115 0.952 . S
H124 C106 0.952 . S
H125 C114 0.948 . S
O126 Zn111 2.034 . S
O126 C121 1.246 . S
O127 Zn119 2.024 . S
O127 C121 1.249 1_545 S
H128 C110 0.948 . S
O129 Zn119 2.039 . S
O129 C133 1.251 . S
O130 Zn111 2.025 1_545 S
O130 C133 1.254 . S
O131 C112 1.246 . S
O131 Zn119 2.034 1_655 S
O132 Zn111 2.024 1_655 S
O132 C112 1.249 1_565 S
C133 O129 1.251 . S
C133 O130 1.254 . S
H134 C107 0.949 1_455 S
H135 C109 0.950 . S
H136 C116 0.949 . S
H137 C118 0.950 . S
C138 O154 1.251 1_565 S
C138 O156 1.254 . S
N139 C140 1.333 . S
N139 C144 1.307 . S
N139 Zn145 2.020 . S
C140 N139 1.333 . S
C140 C141 1.379 . S
C140 H158 0.952 . S
C141 C140 1.379 . S
C141 C142 1.390 . S
C141 H168 0.949 . S
C142 C141 1.390 . S
C142 C143 1.357 . S
C143 C142 1.357 . S
C143 C144 1.370 . S
C143 H169 0.950 . S
C144 N139 1.307 . S
C144 C143 1.370 . S
C144 H162 0.948 . S
Zn145 N139 2.020 . S
Zn145 O154 2.039 . S
Zn145 O160 2.034 . S
Zn145 O164 2.025 . S
Zn145 O166 2.024 . S
C146 O165 1.246 1_545 S
C146 O166 1.249 . S
N147 C148 1.307 . S
N147 C149 1.333 . S
N147 Zn153 2.020 . S
C148 N147 1.307 . S
C148 C152 1.370 . S
C148 H159 0.948 . S
C149 N147 1.333 . S
C149 C150 1.379 . S
C149 H157 0.952 . S
C150 C149 1.379 . S
C150 C151 1.390 . S
C150 H170 0.949 . S
C151 C150 1.390 . S
C151 C152 1.357 . S
C152 C148 1.370 . S
C152 C151 1.357 . S
C152 H171 0.950 . S
Zn153 N147 2.020 . S
Zn153 O156 2.025 . S
Zn153 O161 2.024 . S
Zn153 O163 2.039 . S
Zn153 O165 2.034 . S
O154 C138 1.251 1_545 S
O154 Zn145 2.039 . S
C155 O160 1.246 1_565 S
C155 O161 1.249 . S
O156 C138 1.254 . S
O156 Zn153 2.025 . S
H157 C149 0.952 . S
H158 C140 0.952 . S
H159 C148 0.948 . S
O160 Zn145 2.034 . S
O160 C155 1.246 1_545 S
O161 Zn153 2.024 . S
O161 C155 1.249 . S
H162 C144 0.948 . S
O163 Zn153 2.039 . S
O163 C167 1.251 1_565 S
O164 Zn145 2.025 . S
O164 C167 1.254 . S
O165 C146 1.246 1_565 S
O165 Zn153 2.034 . S
O166 Zn145 2.024 . S
O166 C146 1.249 . S
C167 O163 1.251 1_545 S
C167 O164 1.254 . S
H168 C141 0.949 . S
H169 C143 0.950 . S
H170 C150 0.949 . S
H171 C152 0.950 . S
C172 O188 1.251 . S
C172 O190 1.254 . S
N173 C174 1.333 . S
N173 C178 1.307 . S
N173 Zn179 2.020 . S
C174 N173 1.333 . S
C174 C175 1.379 . S
C174 H192 0.952 . S
C175 C174 1.379 . S
C175 C176 1.390 . S
C175 H202 0.949 . S
C176 C175 1.390 . S
C176 C177 1.357 . S
C177 C176 1.357 . S
C177 C178 1.370 . S
C177 H203 0.950 . S
C178 N173 1.307 . S
C178 C177 1.370 . S
C178 H196 0.948 . S
Zn179 N173 2.020 . S
Zn179 O188 2.039 . S
Zn179 O194 2.034 . S
Zn179 O198 2.025 . S
Zn179 O200 2.024 . S
C180 O199 1.246 . S
C180 O200 1.249 . S
N181 C182 1.307 . S
N181 C183 1.333 . S
N181 Zn187 2.020 . S
C182 N181 1.307 . S
C182 C186 1.370 . S
C182 H193 0.948 . S
C183 N181 1.333 . S
C183 C184 1.379 . S
C183 H191 0.952 . S
C184 C183 1.379 . S
C184 C185 1.390 . S
C184 H204 0.949 . S
C185 C184 1.390 . S
C185 C186 1.357 . S
C186 C182 1.370 . S
C186 C185 1.357 . S
C186 H205 0.950 . S
Zn187 N181 2.020 . S
Zn187 O190 2.025 . S
Zn187 O195 2.024 . S
Zn187 O197 2.039 . S
Zn187 O199 2.034 . S
O188 C172 1.251 . S
O188 Zn179 2.039 . S
C189 O194 1.246 . S
C189 O195 1.249 . S
O190 C172 1.254 . S
O190 Zn187 2.025 . S
H191 C183 0.952 . S
H192 C174 0.952 . S
H193 C182 0.948 . S
O194 Zn179 2.034 . S
O194 C189 1.246 . S
O195 Zn187 2.024 . S
O195 C189 1.249 . S
H196 C178 0.948 . S
O197 Zn187 2.039 . S
O197 C201 1.251 . S
O198 Zn179 2.025 . S
O198 C201 1.254 . S
O199 C180 1.246 . S
O199 Zn187 2.034 . S
O200 Zn179 2.024 . S
O200 C180 1.249 . S
C201 O197 1.251 . S
C201 O198 1.254 . S
H202 C175 0.949 . S
H203 C177 0.950 . S
H204 C184 0.949 . S
H205 C186 0.950 . S
C206 O222 1.251 . S
C206 O224 1.254 . S
N207 C208 1.333 . S
N207 C212 1.307 . S
N207 Zn213 2.020 . S
C208 N207 1.333 . S
C208 C209 1.379 . S
C208 H226 0.952 . S
C209 C208 1.379 . S
C209 C210 1.390 . S
C209 H236 0.949 . S
C210 C209 1.390 . S
C210 C211 1.357 . S
C211 C210 1.357 . S
C211 C212 1.370 . S
C211 H237 0.950 . S
C212 N207 1.307 . S
C212 C211 1.370 . S
C212 H230 0.948 . S
Zn213 N207 2.020 . S
Zn213 O222 2.039 . S
Zn213 O228 2.034 1_455 S
Zn213 O232 2.025 1_455 S
Zn213 O234 2.024 . S
C214 O233 1.246 . S
C214 O234 1.249 . S
N215 C216 1.307 . S
N215 C217 1.333 1_455 S
N215 Zn221 2.020 . S
C216 N215 1.307 . S
C216 C220 1.370 . S
C216 H227 0.948 . S
C217 N215 1.333 1_655 S
C217 C218 1.379 . S
C217 H225 0.952 . S
C218 C217 1.379 . S
C218 C219 1.394 . S
C218 H238 0.949 . S
C219 C218 1.394 . S
C219 C220 1.352 1_655 S
C220 C216 1.370 . S
C220 C219 1.352 1_455 S
C220 H239 0.950 . S
Zn221 N215 2.020 . S
Zn221 O224 2.025 . S
Zn221 O229 2.024 1_455 S
Zn221 O231 2.039 1_455 S
Zn221 O233 2.034 . S
O222 C206 1.251 . S
O222 Zn213 2.039 . S
C223 O228 1.246 . S
C223 O229 1.249 . S
O224 C206 1.254 . S
O224 Zn221 2.025 . S
H225 C217 0.952 . S
H226 C208 0.952 . S
H227 C216 0.948 . S
O228 Zn213 2.034 1_655 S
O228 C223 1.246 . S
O229 Zn221 2.024 1_655 S
O229 C223 1.249 . S
H230 C212 0.948 . S
O231 Zn221 2.039 1_655 S
O231 C235 1.251 . S
O232 Zn213 2.025 1_655 S
O232 C235 1.254 . S
O233 C214 1.246 . S
O233 Zn221 2.034 . S
O234 Zn213 2.024 . S
O234 C214 1.249 . S
C235 O231 1.251 . S
C235 O232 1.254 . S
H236 C209 0.949 . S
H237 C211 0.950 . S
H238 C218 0.949 . S
H239 C220 0.950 . S
H240 C248 0.950 . S
H241 C253 0.954 . S
H242 C250 0.950 . S
H243 C252 0.950 . S
H244 C254 0.956 . S
H245 C256 0.953 . S
H246 C258 0.949 . S
H247 C259 0.950 . S
C248 H240 0.950 . S
C248 C249 1.386 . S
C248 C250 1.391 . S
C249 C248 1.386 . S
C249 C253 1.393 . S
C250 H242 0.950 . S
C250 C248 1.391 . S
C250 C251 1.400 . S
C251 C250 1.400 . S
C251 C252 1.398 . S
C251 C257 1.491 . S
C252 H243 0.950 . S
C252 C251 1.398 . S
C252 C253 1.391 . S
C253 H241 0.954 . S
C253 C249 1.393 . S
C253 C252 1.391 . S
C254 H244 0.956 . S
C254 C255 1.386 . S
C254 C256 1.391 . S
C255 C254 1.386 . S
C255 C259 1.393 . S
C256 H245 0.953 . S
C256 C254 1.391 . S
C256 C257 1.400 . S
C257 C251 1.491 . S
C257 C256 1.400 . S
C257 C258 1.398 . S
C258 H246 0.949 . S
C258 C257 1.398 . S
C258 C259 1.391 . S
C259 H247 0.950 . S
C259 C255 1.393 . S
C259 C258 1.391 . S
H260 C268 0.950 . S
H261 C273 0.950 . S
H262 C270 0.950 . S
H263 C272 0.950 . S
H264 C274 0.950 . S
H265 C276 0.950 . S
H266 C278 0.950 . S
H267 C279 0.950 . S
C268 H260 0.950 . S
C268 C269 1.386 . S
C268 C270 1.391 . S
C269 C268 1.386 . S
C269 C273 1.393 . S
C270 H262 0.950 . S
C270 C268 1.391 . S
C270 C271 1.400 . S
C271 C270 1.400 . S
C271 C272 1.398 . S
C271 C277 1.491 . S
C272 H263 0.950 . S
C272 C271 1.398 . S
C272 C273 1.391 . S
C273 H261 0.950 . S
C273 C269 1.393 . S
C273 C272 1.391 . S
C274 H264 0.950 . S
C274 C275 1.386 . S
C274 C276 1.391 . S
C275 C274 1.386 . S
C275 C279 1.393 . S
C276 H265 0.950 . S
C276 C274 1.391 . S
C276 C277 1.400 . S
C277 C271 1.491 . S
C277 C276 1.400 . S
C277 C278 1.398 . S
C278 H266 0.950 . S
C278 C277 1.398 . S
C278 C279 1.391 . S
C279 H267 0.950 . S
C279 C275 1.393 . S
C279 C278 1.391 . S
H280 C288 0.950 . S
H281 C293 0.950 . S
H282 C290 0.950 . S
H283 C292 0.950 . S
H284 C294 0.950 . S
H285 C296 0.950 . S
H286 C298 0.950 . S
H287 C299 0.950 . S
C288 H280 0.950 . S
C288 C289 1.386 . S
C288 C290 1.391 . S
C289 C288 1.386 . S
C289 C293 1.393 . S
C290 H282 0.950 . S
C290 C288 1.391 . S
C290 C291 1.400 . S
C291 C290 1.400 . S
C291 C292 1.398 . S
C291 C297 1.491 . S
C292 H283 0.950 . S
C292 C291 1.398 . S
C292 C293 1.391 . S
C293 H281 0.950 . S
C293 C289 1.393 . S
C293 C292 1.391 . S
C294 H284 0.950 . S
C294 C295 1.386 . S
C294 C296 1.391 . S
C295 C294 1.386 . S
C295 C299 1.393 . S
C296 H285 0.950 . S
C296 C294 1.391 . S
C296 C297 1.400 . S
C297 C291 1.491 . S
C297 C296 1.400 . S
C297 C298 1.398 . S
C298 H286 0.950 . S
C298 C297 1.398 . S
C298 C299 1.391 . S
C299 H287 0.950 . S
C299 C295 1.393 . S
C299 C298 1.391 . S
H300 C308 0.950 . S
H301 C313 0.950 . S
H302 C310 0.950 . S
H303 C312 0.950 . S
H304 C314 0.950 . S
H305 C316 0.950 . S
H306 C318 0.950 . S
H307 C319 0.950 . S
C308 H300 0.950 . S
C308 C309 1.386 . S
C308 C310 1.391 . S
C309 C308 1.386 . S
C309 C313 1.393 . S
C310 H302 0.950 . S
C310 C308 1.391 . S
C310 C311 1.400 . S
C311 C310 1.400 . S
C311 C312 1.398 . S
C311 C317 1.491 . S
C312 H303 0.950 . S
C312 C311 1.398 . S
C312 C313 1.391 . S
C313 H301 0.950 . S
C313 C309 1.393 . S
C313 C312 1.391 . S
C314 H304 0.950 . S
C314 C315 1.386 . S
C314 C316 1.391 . S
C315 C314 1.386 . S
C315 C319 1.393 . S
C316 H305 0.950 . S
C316 C314 1.391 . S
C316 C317 1.400 . S
C317 C311 1.491 . S
C317 C316 1.400 . S
C317 C318 1.398 . S
C318 H306 0.950 . S
C318 C317 1.398 . S
C318 C319 1.391 . S
C319 H307 0.950 . S
C319 C315 1.393 . S
C319 C318 1.391 . S
H320 C328 0.950 . S
H321 C333 0.950 . S
H322 C330 0.950 . S
H323 C332 0.950 . S
H324 C334 0.950 . S
H325 C336 0.950 . S
H326 C338 0.950 . S
H327 C339 0.950 . S
C328 H320 0.950 . S
C328 C329 1.382 1_545 S
C328 C330 1.391 . S
C329 C328 1.382 1_565 S
C329 C333 1.397 1_554 S
C330 H322 0.950 . S
C330 C328 1.391 . S
C330 C331 1.400 1_554 S
C331 C330 1.400 1_556 S
C331 C332 1.398 1_545 S
C331 C337 1.491 . S
C332 H323 0.950 . S
C332 C331 1.398 1_565 S
C332 C333 1.391 . S
C333 H321 0.950 . S
C333 C329 1.397 1_556 S
C333 C332 1.391 . S
C334 H324 0.950 . S
C334 C335 1.386 1_565 S
C334 C336 1.391 . S
C335 C334 1.386 1_545 S
C335 C339 1.393 . S
C336 H325 0.950 . S
C336 C334 1.391 . S
C336 C337 1.400 1_565 S
C337 C331 1.491 . S
C337 C336 1.400 1_545 S
C337 C338 1.398 . S
C338 H326 0.950 . S
C338 C337 1.398 . S
C338 C339 1.391 . S
C339 H327 0.950 . S
C339 C335 1.393 . S
C339 C338 1.391 . S
H340 C348 0.950 . S
H341 C353 0.950 . S
H342 C350 0.950 . S
H343 C352 0.950 . S
H344 C354 0.950 . S
H345 C356 0.950 . S
H346 C358 0.950 . S
H347 C359 0.950 . S
C348 H340 0.950 . S
C348 C349 1.386 . S
C348 C350 1.391 1_554 S
C349 C348 1.386 . S
C349 C353 1.393 . S
C350 H342 0.950 . S
C350 C348 1.391 1_556 S
C350 C351 1.400 . S
C351 C350 1.400 . S
C351 C352 1.398 . S
C351 C357 1.491 . S
C352 H343 0.950 . S
C352 C351 1.398 . S
C352 C353 1.391 1_556 S
C353 H341 0.950 . S
C353 C349 1.393 . S
C353 C352 1.391 1_554 S
C354 H344 0.950 . S
C354 C355 1.386 . S
C354 C356 1.391 . S
C355 C354 1.386 . S
C355 C359 1.393 . S
C356 H345 0.950 . S
C356 C354 1.391 . S
C356 C357 1.400 . S
C357 C351 1.491 . S
C357 C356 1.400 . S
C357 C358 1.398 . S
C358 H346 0.950 . S
C358 C357 1.398 . S
C358 C359 1.391 . S
C359 H347 0.950 . S
C359 C355 1.393 . S
C359 C358 1.391 . S
H360 C368 0.950 . S
H361 C373 0.950 . S
H362 C370 0.950 1_556 S
H363 C372 0.950 . S
H364 C374 0.950 . S
H365 C376 0.950 . S
H366 C378 0.950 . S
H367 C379 0.950 . S
C368 H360 0.950 . S
C368 C369 1.386 . S
C368 C370 1.391 . S
C369 C368 1.386 . S
C369 C373 1.393 . S
C370 H362 0.950 1_554 S
C370 C368 1.391 . S
C370 C371 1.400 . S
C371 C370 1.400 . S
C371 C372 1.398 . S
C371 C377 1.491 1_554 S
C372 H363 0.950 . S
C372 C371 1.398 . S
C372 C373 1.391 . S
C373 H361 0.950 . S
C373 C369 1.393 . S
C373 C372 1.391 . S
C374 H364 0.950 . S
C374 C375 1.386 . S
C374 C376 1.391 . S
C375 C374 1.386 . S
C375 C379 1.393 . S
C376 H365 0.950 . S
C376 C374 1.391 . S
C376 C377 1.400 . S
C377 C371 1.491 1_556 S
C377 C376 1.400 . S
C377 C378 1.398 . S
C378 H366 0.950 . S
C378 C377 1.398 . S
C378 C379 1.391 . S
C379 H367 0.950 . S
C379 C375 1.393 . S
C379 C378 1.391 . S
H380 C388 0.950 . S
H381 C393 0.950 . S
H382 C390 0.950 . S
H383 C392 0.950 1_554 S
H384 C394 0.950 1_455 S
H385 C396 0.950 . S
H386 C398 0.950 . S
H387 C399 0.950 . S
C388 H380 0.950 . S
C388 C389 1.386 . S
C388 C390 1.391 . S
C389 C388 1.386 . S
C389 C393 1.393 1_556 S
C390 H382 0.950 . S
C390 C388 1.391 . S
C390 C391 1.400 . S
C391 C390 1.400 . S
C391 C392 1.398 . S
C391 C397 1.491 . S
C392 H383 0.950 1_556 S
C392 C391 1.398 . S
C392 C393 1.391 1_556 S
C393 H381 0.950 . S
C393 C389 1.393 1_554 S
C393 C392 1.391 1_554 S
C394 H384 0.950 1_655 S
C394 C395 1.386 . S
C394 C396 1.391 . S
C395 C394 1.386 . S
C395 C399 1.393 . S
C396 H385 0.950 . S
C396 C394 1.391 . S
C396 C397 1.400 . S
C397 C391 1.491 . S
C397 C396 1.400 . S
C397 C398 1.398 . S
C398 H386 0.950 . S
C398 C397 1.398 . S
C398 C399 1.391 . S
C399 H387 0.950 . S
C399 C395 1.393 . S
C399 C398 1.391 . S
H400 C408 0.950 . S
H401 C413 0.950 . S
H402 C410 0.950 . S
H403 C412 0.950 . S
H404 C414 0.950 . S
H405 C416 0.950 . S
H406 C418 0.950 1_655 S
H407 C419 0.950 . S
C408 H400 0.950 . S
C408 C409 1.386 . S
C408 C410 1.391 . S
C409 C408 1.386 . S
C409 C413 1.393 . S
C410 H402 0.950 . S
C410 C408 1.391 . S
C410 C411 1.400 . S
C411 C410 1.400 . S
C411 C412 1.398 . S
C411 C417 1.491 . S
C412 H403 0.950 . S
C412 C411 1.398 . S
C412 C413 1.391 . S
C413 H401 0.950 . S
C413 C409 1.393 . S
C413 C412 1.391 . S
C414 H404 0.950 . S
C414 C415 1.386 . S
C414 C416 1.391 . S
C415 C414 1.386 . S
C415 C419 1.393 1_455 S
C416 H405 0.950 . S
C416 C414 1.391 . S
C416 C417 1.400 . S
C417 C411 1.491 . S
C417 C416 1.400 . S
C417 C418 1.398 . S
C418 H406 0.950 1_455 S
C418 C417 1.398 . S
C418 C419 1.391 1_455 S
C419 H407 0.950 . S
C419 C415 1.393 1_655 S
C419 C418 1.391 1_655 S
H420 C428 0.950 . S
H421 C433 0.950 . S
H422 C430 0.950 . S
H423 C432 0.950 . S
H424 C434 0.950 . S
H425 C436 0.950 . S
H426 C438 0.950 . S
H427 C439 0.950 . S
C428 H420 0.950 . S
C428 C429 1.395 . S
C428 C430 1.391 . S
C429 C428 1.395 . S
C429 C433 1.383 1_545 S
C430 H422 0.950 . S
C430 C428 1.391 . S
C430 C431 1.400 1_545 S
C431 C430 1.400 1_565 S
C431 C432 1.398 . S
C431 C437 1.491 . S
C432 H423 0.950 . S
C432 C431 1.398 . S
C432 C433 1.391 . S
C433 H421 0.950 . S
C433 C429 1.383 1_565 S
C433 C432 1.391 . S
C434 H424 0.950 . S
C434 C435 1.386 . S
C434 C436 1.391 . S
C435 C434 1.386 . S
C435 C439 1.393 1_565 S
C436 H425 0.950 . S
C436 C434 1.391 . S
C436 C437 1.400 . S
C437 C431 1.491 . S
C437 C436 1.400 . S
C437 C438 1.398 1_565 S
C438 H426 0.950 . S
C438 C437 1.398 1_545 S
C438 C439 1.391 . S
C439 H427 0.950 . S
C439 C435 1.393 1_545 S
C439 C438 1.391 . S
H440 C448 0.950 . S
H441 C453 0.950 . S
H442 C450 0.950 . S
H443 C452 0.950 . S
H444 C454 0.950 . S
H445 C456 0.950 . S
H446 C458 0.950 . S
H447 C459 0.950 . S
C448 H440 0.950 . S
C448 C449 1.386 . S
C448 C450 1.391 . S
C449 C448 1.386 . S
C449 C453 1.393 . S
C450 H442 0.950 . S
C450 C448 1.391 . S
C450 C451 1.400 . S
C451 C450 1.400 . S
C451 C452 1.398 . S
C451 C457 1.491 . S
C452 H443 0.950 . S
C452 C451 1.398 . S
C452 C453 1.391 . S
C453 H441 0.950 . S
C453 C449 1.393 . S
C453 C452 1.391 . S
C454 H444 0.950 . S
C454 C455 1.386 . S
C454 C456 1.391 . S
C455 C454 1.386 . S
C455 C459 1.393 . S
C456 H445 0.950 . S
C456 C454 1.391 . S
C456 C457 1.400 . S
C457 C451 1.491 . S
C457 C456 1.400 . S
C457 C458 1.398 . S
C458 H446 0.950 . S
C458 C457 1.398 . S
C458 C459 1.391 . S
C459 H447 0.950 . S
C459 C455 1.393 . S
C459 C458 1.391 . S
H460 C468 0.950 . S
H461 C473 0.950 . S
H462 C470 0.950 . S
H463 C472 0.950 . S
H464 C474 0.950 . S
H465 C476 0.950 . S
H466 C478 0.950 . S
H467 C479 0.950 . S
C468 H460 0.950 . S
C468 C469 1.386 . S
C468 C470 1.391 . S
C469 C468 1.386 . S
C469 C473 1.393 . S
C470 H462 0.950 . S
C470 C468 1.391 . S
C470 C471 1.400 . S
C471 C470 1.400 . S
C471 C472 1.398 . S
C471 C477 1.491 . S
C472 H463 0.950 . S
C472 C471 1.398 . S
C472 C473 1.391 . S
C473 H461 0.950 . S
C473 C469 1.393 . S
C473 C472 1.391 . S
C474 H464 0.950 . S
C474 C475 1.386 . S
C474 C476 1.391 . S
C475 C474 1.386 . S
C475 C479 1.393 . S
C476 H465 0.950 . S
C476 C474 1.391 . S
C476 C477 1.400 . S
C477 C471 1.491 . S
C477 C476 1.400 . S
C477 C478 1.398 . S
C478 H466 0.950 . S
C478 C477 1.398 . S
C478 C479 1.391 . S
C479 H467 0.950 . S
C479 C475 1.393 . S
C479 C478 1.391 . S
H480 C488 0.950 . S
H481 C493 0.950 . S
H482 C490 0.950 1_554 S
H483 C492 0.950 . S
H484 C494 0.950 . S
H485 C496 0.950 . S
H486 C498 0.950 . S
H487 C499 0.950 . S
C488 H480 0.950 . S
C488 C489 1.386 1_554 S
C488 C490 1.391 1_554 S
C489 C488 1.386 1_556 S
C489 C493 1.393 . S
C490 H482 0.950 1_556 S
C490 C488 1.391 1_556 S
C490 C491 1.400 . S
C491 C490 1.400 . S
C491 C492 1.398 . S
C491 C497 1.491 . S
C492 H483 0.950 . S
C492 C491 1.398 . S
C492 C493 1.391 . S
C493 H481 0.950 . S
C493 C489 1.393 . S
C493 C492 1.391 . S
C494 H484 0.950 . S
C494 C495 1.386 . S
C494 C496 1.391 . S
C495 C494 1.386 . S
C495 C499 1.393 1_455 S
C496 H485 0.950 . S
C496 C494 1.391 . S
C496 C497 1.400 1_455 S
C497 C491 1.491 . S
C497 C496 1.400 1_655 S
C497 C498 1.398 . S
C498 H486 0.950 . S
C498 C497 1.398 . S
C498 C499 1.391 . S
C499 H487 0.950 . S
C499 C495 1.393 1_655 S
C499 C498 1.391 . S
H500 C508 0.950 . S
H501 C513 0.950 . S
H502 C510 0.950 . S
H503 C512 0.950 . S
H504 C514 0.950 . S
H505 C516 0.950 . S
H506 C518 0.950 1_554 S
H507 C519 0.950 . S
C508 H500 0.950 . S
C508 C509 1.386 . S
C508 C510 1.391 . S
C509 C508 1.386 . S
C509 C513 1.393 1_544 S
C510 H502 0.950 . S
C510 C508 1.391 . S
C510 C511 1.400 1_554 S
C511 C510 1.400 1_556 S
C511 C512 1.398 1_545 S
C511 C517 1.491 . S
C512 H503 0.950 . S
C512 C511 1.398 1_565 S
C512 C513 1.391 . S
C513 H501 0.950 . S
C513 C509 1.393 1_566 S
C513 C512 1.391 . S
C514 H504 0.950 . S
C514 C515 1.386 1_565 S
C514 C516 1.391 . S
C515 C514 1.386 1_545 S
C515 C519 1.393 . S
C516 H505 0.950 . S
C516 C514 1.391 . S
C516 C517 1.400 1_565 S
C517 C511 1.491 . S
C517 C516 1.400 1_545 S
C517 C518 1.398 . S
C518 H506 0.950 1_556 S
C518 C517 1.398 . S
C518 C519 1.391 . S
C519 H507 0.950 . S
C519 C515 1.393 . S
C519 C518 1.391 . S
H520 C528 0.950 . S
H521 C533 0.950 . S
H522 C530 0.950 . S
H523 C532 0.950 . S
H524 C534 0.950 . S
H525 C536 0.950 . S
H526 C538 0.950 . S
H527 C539 0.950 . S
C528 H520 0.950 . S
C528 C529 1.386 . S
C528 C530 1.391 . S
C529 C528 1.386 . S
C529 C533 1.393 1_554 S
C530 H522 0.950 . S
C530 C528 1.391 . S
C530 C531 1.400 1_554 S
C531 C530 1.400 1_556 S
C531 C532 1.398 . S
C531 C537 1.491 . S
C532 H523 0.950 . S
C532 C531 1.398 . S
C532 C533 1.391 . S
C533 H521 0.950 . S
C533 C529 1.393 1_556 S
C533 C532 1.391 . S
C534 H524 0.950 . S
C534 C535 1.386 . S
C534 C536 1.391 . S
C535 C534 1.386 . S
C535 C539 1.393 . S
C536 H525 0.950 . S
C536 C534 1.391 . S
C536 C537 1.400 . S
C537 C531 1.491 . S
C537 C536 1.400 . S
C537 C538 1.398 . S
C538 H526 0.950 . S
C538 C537 1.398 . S
C538 C539 1.391 . S
C539 H527 0.950 . S
C539 C535 1.393 . S
C539 C538 1.391 . S
H540 C548 0.950 . S
H541 C553 0.950 . S
H542 C550 0.950 . S
H543 C552 0.950 . S
H544 C554 0.950 . S
H545 C556 0.950 1_554 S
H546 C558 0.950 . S
H547 C559 0.950 . S
C548 H540 0.950 . S
C548 C549 1.386 . S
C548 C550 1.391 1_554 S
C549 C548 1.386 . S
C549 C553 1.393 . S
C550 H542 0.950 . S
C550 C548 1.391 1_556 S
C550 C551 1.400 1_556 S
C551 C550 1.400 1_554 S
C551 C552 1.398 . S
C551 C557 1.491 1_554 S
C552 H543 0.950 . S
C552 C551 1.398 . S
C552 C553 1.391 . S
C553 H541 0.950 . S
C553 C549 1.393 . S
C553 C552 1.391 . S
C554 H544 0.950 . S
C554 C555 1.386 . S
C554 C556 1.391 . S
C555 C554 1.386 . S
C555 C559 1.393 . S
C556 H545 0.950 1_556 S
C556 C554 1.391 . S
C556 C557 1.400 . S
C557 C551 1.491 1_556 S
C557 C556 1.400 . S
C557 C558 1.398 . S
C558 H546 0.950 . S
C558 C557 1.398 . S
C558 C559 1.391 . S
C559 H547 0.950 . S
C559 C555 1.393 . S
C559 C558 1.391 . S
H560 C568 0.950 . S
H561 C573 0.950 . S
H562 C570 0.950 . S
H563 C572 0.950 . S
H564 C574 0.950 1_655 S
H565 C576 0.950 . S
H566 C578 0.950 . S
H567 C579 0.950 . S
C568 H560 0.950 . S
C568 C569 1.386 . S
C568 C570 1.391 . S
C569 C568 1.386 . S
C569 C573 1.393 . S
C570 H562 0.950 . S
C570 C568 1.391 . S
C570 C571 1.400 . S
C571 C570 1.400 . S
C571 C572 1.398 . S
C571 C577 1.491 . S
C572 H563 0.950 . S
C572 C571 1.398 . S
C572 C573 1.391 . S
C573 H561 0.950 . S
C573 C569 1.393 . S
C573 C572 1.391 . S
C574 H564 0.950 1_455 S
C574 C575 1.386 . S
C574 C576 1.391 . S
C575 C574 1.386 . S
C575 C579 1.393 . S
C576 H565 0.950 . S
C576 C574 1.391 . S
C576 C577 1.400 . S
C577 C571 1.491 . S
C577 C576 1.400 . S
C577 C578 1.398 . S
C578 H566 0.950 . S
C578 C577 1.398 . S
C578 C579 1.391 . S
C579 H567 0.950 . S
C579 C575 1.393 . S
C579 C578 1.391 . S
H580 C588 0.950 . S
H581 C593 0.950 . S
H582 C590 0.950 . S
H583 C592 0.952 . S
H584 C594 0.950 . S
H585 C596 0.950 . S
H586 C598 0.950 . S
H587 C599 0.950 . S
C588 H580 0.950 . S
C588 C589 1.386 . S
C588 C590 1.391 . S
C589 C588 1.386 . S
C589 C593 1.393 1_545 S
C590 H582 0.950 . S
C590 C588 1.391 . S
C590 C591 1.400 . S
C591 C590 1.400 . S
C591 C592 1.398 1_545 S
C591 C597 1.491 . S
C592 H583 0.952 . S
C592 C591 1.398 1_565 S
C592 C593 1.390 . S
C593 H581 0.950 . S
C593 C589 1.393 1_565 S
C593 C592 1.390 . S
C594 H584 0.950 . S
C594 C595 1.386 1_564 S
C594 C596 1.391 . S
C595 C594 1.386 1_546 S
C595 C599 1.393 . S
C596 H585 0.950 . S
C596 C594 1.391 . S
C596 C597 1.400 1_565 S
C597 C591 1.491 . S
C597 C596 1.400 1_545 S
C597 C598 1.398 1_554 S
C598 H586 0.950 . S
C598 C597 1.398 1_556 S
C598 C599 1.391 . S
C599 H587 0.950 . S
C599 C595 1.393 . S
C599 C598 1.391 . S
H600 C608 0.950 . S
H601 C613 0.950 . S
H602 C610 0.950 . S
H603 C612 0.950 . S
H604 C614 0.950 . S
H605 C616 0.950 . S
H606 C618 0.950 . S
H607 C619 0.950 . S
C608 H600 0.950 . S
C608 C609 1.386 . S
C608 C610 1.391 . S
C609 C608 1.386 . S
C609 C613 1.393 . S
C610 H602 0.950 . S
C610 C608 1.391 . S
C610 C611 1.400 . S
C611 C610 1.400 . S
C611 C612 1.398 . S
C611 C617 1.491 . S
C612 H603 0.950 . S
C612 C611 1.398 . S
C612 C613 1.391 . S
C613 H601 0.950 . S
C613 C609 1.393 . S
C613 C612 1.391 . S
C614 H604 0.950 . S
C614 C615 1.386 1_554 S
C614 C616 1.391 . S
C615 C614 1.386 1_556 S
C615 C619 1.393 . S
C616 H605 0.950 . S
C616 C614 1.391 . S
C616 C617 1.400 . S
C617 C611 1.491 . S
C617 C616 1.400 . S
C617 C618 1.398 1_554 S
C618 H606 0.950 . S
C618 C617 1.398 1_556 S
C618 C619 1.391 . S
C619 H607 0.950 . S
C619 C615 1.393 . S
C619 C618 1.391 . S
H620 C628 0.950 . S
H621 C633 0.950 . S
H622 C630 0.950 . S
H623 C632 0.950 . S
H624 C634 0.950 . S
H625 C636 0.950 . S
H626 C638 0.950 . S
H627 C639 0.950 . S
C628 H620 0.950 . S
C628 C629 1.386 . S
C628 C630 1.391 . S
C629 C628 1.386 . S
C629 C633 1.393 . S
C630 H622 0.950 . S
C630 C628 1.391 . S
C630 C631 1.400 . S
C631 C630 1.400 . S
C631 C632 1.398 . S
C631 C637 1.491 . S
C632 H623 0.950 . S
C632 C631 1.398 . S
C632 C633 1.391 . S
C633 H621 0.950 . S
C633 C629 1.393 . S
C633 C632 1.391 . S
C634 H624 0.950 . S
C634 C635 1.386 . S
C634 C636 1.391 1_556 S
C635 C634 1.386 . S
C635 C639 1.393 . S
C636 H625 0.950 . S
C636 C634 1.391 1_554 S
C636 C637 1.400 . S
C637 C631 1.491 . S
C637 C636 1.400 . S
C637 C638 1.398 1_554 S
C638 H626 0.950 . S
C638 C637 1.398 1_556 S
C638 C639 1.391 . S
C639 H627 0.950 . S
C639 C635 1.393 . S
C639 C638 1.391 . S
H640 C648 0.950 . S
H641 C653 0.967 . S
H642 C650 0.950 . S
H643 C652 0.950 1_455 S
H644 C654 0.950 1_455 S
H645 C656 0.950 1_455 S
H646 C658 0.950 . S
H647 C659 0.950 . S
C648 H640 0.950 . S
C648 C649 1.386 . S
C648 C650 1.391 . S
C649 C648 1.386 . S
C649 C653 1.393 . S
C650 H642 0.950 . S
C650 C648 1.391 . S
C650 C651 1.400 . S
C651 C650 1.400 . S
C651 C652 1.398 . S
C651 C657 1.491 . S
C652 H643 0.950 1_655 S
C652 C651 1.398 . S
C652 C653 1.391 . S
C653 H641 0.967 . S
C653 C649 1.393 . S
C653 C652 1.391 . S
C654 H644 0.950 1_655 S
C654 C655 1.386 . S
C654 C656 1.391 . S
C655 C654 1.386 . S
C655 C659 1.393 . S
C656 H645 0.950 1_655 S
C656 C654 1.391 . S
C656 C657 1.400 . S
C657 C651 1.491 . S
C657 C656 1.400 . S
C657 C658 1.398 . S
C658 H646 0.950 . S
C658 C657 1.398 . S
C658 C659 1.391 . S
C659 H647 0.950 . S
C659 C655 1.393 . S
C659 C658 1.391 . S
H660 C668 0.950 . S
H661 C673 0.950 . S
H662 C670 0.950 . S
H663 C672 0.950 . S
H664 C674 0.950 . S
H665 C676 0.950 . S
H666 C678 0.950 . S
H667 C679 0.950 . S
C668 H660 0.950 . S
C668 C669 1.393 . S
C668 C670 1.391 . S
C669 C668 1.393 . S
C669 C673 1.386 1_545 S
C670 H662 0.950 . S
C670 C668 1.391 . S
C670 C671 1.400 1_545 S
C671 C670 1.400 1_565 S
C671 C672 1.398 . S
C671 C677 1.491 . S
C672 H663 0.950 . S
C672 C671 1.398 . S
C672 C673 1.391 . S
C673 H661 0.950 . S
C673 C669 1.386 1_565 S
C673 C672 1.391 . S
C674 H664 0.950 . S
C674 C675 1.386 . S
C674 C676 1.391 . S
C675 C674 1.386 . S
C675 C679 1.393 1_565 S
C676 H665 0.950 . S
C676 C674 1.391 . S
C676 C677 1.400 . S
C677 C671 1.491 . S
C677 C676 1.400 . S
C677 C678 1.398 1_565 S
C678 H666 0.950 . S
C678 C677 1.398 1_545 S
C678 C679 1.391 . S
C679 H667 0.950 . S
C679 C675 1.393 1_545 S
C679 C678 1.391 . S
H680 C688 0.950 . S
H681 C693 0.950 . S
H682 C690 0.950 . S
H683 C692 0.950 . S
H684 C694 0.950 . S
H685 C696 0.950 . S
H686 C698 0.950 . S
H687 C699 0.950 . S
C688 H680 0.950 . S
C688 C689 1.386 . S
C688 C690 1.391 . S
C689 C688 1.386 . S
C689 C693 1.393 . S
C690 H682 0.950 . S
C690 C688 1.391 . S
C690 C691 1.400 . S
C691 C690 1.400 . S
C691 C692 1.398 . S
C691 C697 1.491 . S
C692 H683 0.950 . S
C692 C691 1.398 . S
C692 C693 1.391 . S
C693 H681 0.950 . S
C693 C689 1.393 . S
C693 C692 1.391 . S
C694 H684 0.950 . S
C694 C695 1.386 . S
C694 C696 1.391 . S
C695 C694 1.386 . S
C695 C699 1.393 . S
C696 H685 0.950 . S
C696 C694 1.391 . S
C696 C697 1.400 . S
C697 C691 1.491 . S
C697 C696 1.400 . S
C697 C698 1.398 . S
C698 H686 0.950 . S
C698 C697 1.398 . S
C698 C699 1.391 . S
C699 H687 0.950 . S
C699 C695 1.393 . S
C699 C698 1.391 . S
H700 C708 0.950 . S
H701 C713 0.950 . S
H702 C710 0.950 . S
H703 C712 0.950 . S
H704 C714 0.950 . S
H705 C716 0.950 . S
H706 C718 0.950 . S
H707 C719 0.950 . S
C708 H700 0.950 . S
C708 C709 1.386 . S
C708 C710 1.391 . S
C709 C708 1.386 . S
C709 C713 1.393 . S
C710 H702 0.950 . S
C710 C708 1.391 . S
C710 C711 1.400 . S
C711 C710 1.400 . S
C711 C712 1.398 . S
C711 C717 1.491 . S
C712 H703 0.950 . S
C712 C711 1.398 . S
C712 C713 1.391 . S
C713 H701 0.950 . S
C713 C709 1.393 . S
C713 C712 1.391 . S
C714 H704 0.950 . S
C714 C715 1.386 . S
C714 C716 1.391 . S
C715 C714 1.386 . S
C715 C719 1.393 . S
C716 H705 0.950 . S
C716 C714 1.391 . S
C716 C717 1.400 . S
C717 C711 1.491 . S
C717 C716 1.400 . S
C717 C718 1.398 . S
C718 H706 0.950 . S
C718 C717 1.398 . S
C718 C719 1.391 . S
C719 H707 0.950 . S
C719 C715 1.393 . S
C719 C718 1.391 . S
C249 N80 1.887 . S
C255 C121 1.897 . S
C275 C142 1.544 . S
C269 N93 1.537 . S
C295 C176 1.367 . S
C289 N54 1.358 . S
C315 C210 1.539 . S
C309 N67 1.527 . S
C335 C112 1.898 . S
C329 N28 1.892 . S
C349 N41 1.538 . S
C355 C151 1.548 . S
C369 N2 1.380 . S
C375 C185 1.385 . S
C389 N15 1.533 . S
C395 C219 1.540 . S
C415 C133 0.477 . S
C409 N70 0.486 . S
C435 C138 0.982 . S
C429 N83 0.976 1_545 S
C455 C172 0.901 . S
C449 N96 0.897 . S
C469 N57 0.409 . S
C475 C206 0.413 . S
C489 N18 0.454 . S
C495 C104 0.465 . S
C515 C167 0.976 . S
C509 N31 0.977 1_545 S
C535 C201 0.894 . S
C529 N44 0.890 . S
C549 N5 0.422 . S
C555 C235 0.405 . S
C569 N66 1.328 . S
C575 C117 1.323 . S
C589 N79 1.749 1_545 S
C595 C146 1.752 . S
C615 C180 1.551 . S
C609 N92 1.555 . S
C635 C214 1.611 . S
C629 N53 1.604 . S
C649 N14 1.343 . S
C655 C108 1.343 . S
C675 C155 1.753 . S
C669 N27 1.746 1_545 S
C695 C189 1.551 . S
C689 N40 1.552 . S
C709 N1 1.605 . S
C715 C223 1.614 . S
