# Generated by pormake.
# Topology tsx, (6,3)-cn, num edge types: 1
# Building blocks:
#     Node 0, Type 0, BuildingBlock: FUNLAD_clean_sbu_0, # of connection points: 6
#     Node 1, Type 0, BuildingBlock: FUNLAD_clean_sbu_0, # of connection points: 6
#     Node 2, Type 1, BuildingBlock: VETTIZ_charged_linker_0, # of connection points: 3
#     Node 3, Type 1, BuildingBlock: VETTIZ_charged_linker_0, # of connection points: 3
#     Node 4, Type 1, BuildingBlock: VETTIZ_charged_linker_0, # of connection points: 3
#     Node 5, Type 1, BuildingBlock: VETTIZ_charged_linker_0, # of connection points: 3
#     Edge 6, Type (0, 1), BuildingBlock: EZIPEK_clean_linker_0, # of connection points: 2
#     Edge 7, Type (0, 1), BuildingBlock: EZIPEK_clean_linker_0, # of connection points: 2
#     Edge 8, Type (0, 1), BuildingBlock: EZIPEK_clean_linker_0, # of connection points: 2
#     Edge 9, Type (0, 1), BuildingBlock: EZIPEK_clean_linker_0, # of connection points: 2
#     Edge 10, Type (0, 1), BuildingBlock: EZIPEK_clean_linker_0, # of connection points: 2
#     Edge 11, Type (0, 1), BuildingBlock: EZIPEK_clean_linker_0, # of connection points: 2
#     Edge 12, Type (0, 1), BuildingBlock: EZIPEK_clean_linker_0, # of connection points: 2
#     Edge 13, Type (0, 1), BuildingBlock: EZIPEK_clean_linker_0, # of connection points: 2
#     Edge 14, Type (0, 1), BuildingBlock: EZIPEK_clean_linker_0, # of connection points: 2
#     Edge 15, Type (0, 1), BuildingBlock: EZIPEK_clean_linker_0, # of connection points: 2
#     Edge 16, Type (0, 1), BuildingBlock: EZIPEK_clean_linker_0, # of connection points: 2
#     Edge 17, Type (0, 1), BuildingBlock: EZIPEK_clean_linker_0, # of connection points: 2
# Relax obj value: 0.168
# Max RMSD: 0.156
# Mean RMSD: 0.083
data_MOF--net-tsx--node1-FUNLAD_clean_sbu_0--node2-VETTIZ_charged_linker_0--edge1-EZIPEK_clean_linker_0
_symmetry_space_group_name_H-M    P1
_symmetry_Int_Tables_number       1
_symmetry_cell_setting            triclinic
loop_
_symmetry_equiv_pos_as_xyz
'x, y, z'
_cell_length_a     18.071586
_cell_length_b     19.774734
_cell_length_c     39.805287
_cell_angle_alpha  91.05778
_cell_angle_beta   91.750813
_cell_angle_gamma 89.957455
loop_
_atom_site_label
_atom_site_type_symbol
_atom_site_fract_x
_atom_site_fract_y
_atom_site_fract_z
_atom_type_partial_charge
C0 C 0.91316 0.92605 0.01181 0.0
N1 N 0.03524 0.02277 0.08714 0.0
C2 C 0.97256 0.02612 0.10526 0.0
C3 C 0.97452 0.01132 0.13939 0.0
C4 C 0.04136 0.99193 0.15513 0.0
C5 C 0.10574 0.98999 0.13627 0.0
C6 C 0.1015 0.00617 0.1021 0.0
Zn7 Zn 0.02264 0.02855 0.03551 0.0
C8 C 0.12506 0.93608 0.99919 0.0
N9 N 0.991 0.02729 0.92876 0.0
C10 C 0.92855 -8e-05 0.91409 0.0
C11 C 0.05187 0.03948 0.91049 0.0
C12 C 0.05278 0.02085 0.87656 0.0
C13 C 0.99113 0.9881 0.86153 0.0
C14 C 0.92784 0.97877 0.88041 0.0
Zn15 Zn 0.00358 0.03052 0.98 0.0
O16 O 0.94337 0.95286 0.03782 0.0
C17 C 0.89822 0.11912 0.01347 0.0
O18 O 0.93106 0.94522 0.98293 0.0
H19 H 0.10152 0.05974 0.92267 0.0
H20 H 0.92007 0.03736 0.09297 0.0
H21 H 0.88058 0.99074 0.92892 0.0
O22 O 0.93648 0.10289 0.03951 0.0
O23 O 0.91349 0.0941 0.98492 0.0
H24 H 0.15062 0.00292 0.08731 0.0
O25 O 0.07211 0.11851 0.97917 0.0
O26 O 0.1003 0.10877 0.03311 0.0
O27 O 0.09476 0.96612 0.97459 0.0
O28 O 0.10656 0.95196 0.02892 0.0
C29 C 0.10516 0.141 1.00582 0.0
H30 H 0.92378 0.01291 0.1532 0.0
H31 H 0.15819 0.97491 0.1477 0.0
H32 H 0.10246 0.02877 0.86258 0.0
H33 H 0.87932 0.95377 0.86944 0.0
C34 C 0.41331 0.42611 0.51215 0.0
N35 N 0.53599 0.52214 0.5875 0.0
C36 C 0.47343 0.52602 0.60567 0.0
C37 C 0.47532 0.51104 0.63978 0.0
C38 C 0.54197 0.49085 0.65543 0.0
C39 C 0.60624 0.48833 0.63651 0.0
C40 C 0.60209 0.50479 0.60238 0.0
Zn41 Zn 0.52331 0.52819 0.53587 0.0
C42 C 0.62527 0.43546 0.49941 0.0
N43 N 0.49135 0.5274 0.42916 0.0
C44 C 0.42874 0.50032 0.41449 0.0
C45 C 0.5522 0.53953 0.41088 0.0
C46 C 0.55294 0.52113 0.37692 0.0
C47 C 0.49112 0.48868 0.36187 0.0
C48 C 0.42786 0.47942 0.38078 0.0
Zn49 Zn 0.50407 0.53033 0.48039 0.0
O50 O 0.44367 0.45279 0.53815 0.0
C51 C 0.39921 0.61926 0.51397 0.0
O52 O 0.43126 0.44522 0.48327 0.0
H53 H 0.60196 0.55956 0.42307 0.0
H54 H 0.42102 0.53783 0.59345 0.0
H55 H 0.38079 0.49119 0.42933 0.0
O56 O 0.43749 0.60287 0.53998 0.0
O57 O 0.41424 0.59417 0.4854 0.0
H58 H 0.65113 0.50113 0.58755 0.0
O59 O 0.57283 0.61815 0.47962 0.0
O60 O 0.60131 0.60815 0.53352 0.0
O61 O 0.59501 0.46566 0.47485 0.0
O62 O 0.60689 0.4513 0.52916 0.0
C63 C 0.60605 0.64051 0.50625 0.0
H64 H 0.42466 0.51309 0.65363 0.0
H65 H 0.65854 0.47262 0.64787 0.0
H66 H 0.60261 0.529 0.36292 0.0
H67 H 0.37921 0.45464 0.36979 0.0
C68 C 0.13174 0.85076 0.49818 0.0
C69 C 0.14503 0.78297 0.4888 0.0
C70 C 0.09322 0.74822 0.46784 0.0
C71 C 0.02721 0.8524 0.46005 0.0
C72 C 0.06977 0.88465 0.484 0.0
C73 C 0.02835 0.94673 0.49881 0.0
H74 H 0.80454 0.20315 0.42018 0.0
C75 C 0.97671 0.89995 0.44558 0.0
C76 C 0.9671 0.95574 0.46847 0.0
H77 H 0.82959 0.18629 0.52666 0.0
H78 H 0.91199 0.08939 0.51888 0.0
H79 H 0.95529 0.16368 0.39931 0.0
H80 H 0.75495 0.05713 0.41161 0.0
H81 H 0.79264 0.01726 0.37639 0.0
H82 H 0.77466 0.10719 0.37585 0.0
H83 H 0.8915 0.15064 0.36471 0.0
H84 H 0.96875 0.09442 0.37233 0.0
C85 C 0.08745 0.00376 0.49864 0.0
C86 C 0.00929 0.92123 0.53778 0.0
C87 C 0.01202 0.9002 0.31849 0.0
C88 C 0.98656 0.94488 0.29354 0.0
C89 C 0.93367 0.99398 0.30157 0.0
C90 C 0.90935 0.00142 0.33434 0.0
C91 C 0.93908 0.9601 0.35982 0.0
C92 C 0.98659 0.90831 0.35152 0.0
C93 C 0.00849 0.86744 0.3819 0.0
C94 C 0.96783 0.9061 0.41006 0.0
C95 C 0.93232 0.96204 0.39686 0.0
C96 C 0.09372 0.87094 0.38678 0.0
C97 C 0.9808 0.79396 0.37594 0.0
C98 C 0.82731 0.17789 0.44211 0.0
C99 C 0.81422 0.20343 0.47427 0.0
C100 C 0.84254 0.1683 0.5018 0.0
C101 C 0.88601 0.11005 0.49731 0.0
C102 C 0.89678 0.08172 0.46556 0.0
C103 C 0.86595 0.11652 0.43862 0.0
C104 C 0.87439 0.07988 0.40652 0.0
C105 C 0.91207 0.01577 0.41834 0.0
C106 C 0.92914 0.01509 0.45363 0.0
C107 C 0.92452 0.12402 0.38438 0.0
C108 C 0.79541 0.06483 0.39148 0.0
H109 H 0.9904 0.75567 0.43963 0.0
H110 H 0.16782 0.87561 0.51679 0.0
H111 H 0.00097 0.86708 0.52976 0.0
H112 H 0.9276 0.95107 0.58413 0.0
H113 H 0.06889 0.91453 0.54564 0.0
H114 H 0.07775 0.03816 0.47725 0.0
H115 H 0.14515 0.98566 0.4956 0.0
H116 H 0.09125 0.03145 0.52269 0.0
H117 H 0.05175 0.86114 0.31247 0.0
H118 H 0.91265 0.02805 0.2825 0.0
H119 H 0.87009 0.04088 0.33853 0.0
H120 H 0.11203 0.92398 0.39167 0.0
H121 H 0.1216 0.85142 0.36409 0.0
H122 H 0.11431 0.83986 0.40787 0.0
H123 H 0.97577 0.78019 0.34877 0.0
H124 H 0.9254 0.78662 0.38671 0.0
H125 H 0.02027 0.75659 0.38664 0.0
H126 H 0.10036 0.69496 0.46194 0.0
C127 C 0.0325 0.7828 0.4541 0.0
C128 C 0.12287 0.24929 0.56157 0.0
C129 C 0.19818 0.26008 0.56983 0.0
C130 C 0.23379 0.21899 0.59384 0.0
C131 C 0.12299 0.15197 0.5971 0.0
C132 C 0.08683 0.19265 0.5745 0.0
C133 C 0.02214 0.1552 0.55765 0.0
H134 H 0.83086 0.7972 0.54585 0.0
C135 C 0.08359 0.08857 0.59898 0.0
C136 C 0.02761 0.08421 0.57337 0.0
H137 H 0.71583 0.97554 0.51277 0.0
H138 H 0.80798 0.0512 0.53843 0.0
H139 H 0.98754 0.76476 0.56223 0.0
H140 H 0.91571 0.89535 0.63272 0.0
H141 H 0.94941 0.8101 0.6349 0.0
H142 H 0.8707 0.82802 0.60944 0.0
H143 H 0.03628 0.77198 0.60211 0.0
H144 H 0.07258 0.81291 0.56767 0.0
C145 C 0.0364 0.15827 0.51935 0.0
C146 C 0.95061 0.19012 0.56886 0.0
C147 C 0.06863 0.99151 0.71321 0.0
C148 C 0.04719 0.92793 0.72435 0.0
C149 C 0.04533 0.87223 0.70158 0.0
C150 C 0.06007 0.8819 0.66741 0.0
C151 C 0.07149 0.94764 0.65633 0.0
C152 C 0.08028 0.00029 0.67918 0.0
C153 C 0.09881 0.06517 0.66274 0.0
C154 C 0.09326 0.04302 0.62561 0.0
C155 C 0.0729 0.97514 0.62245 0.0
C156 C 0.17652 0.08757 0.67562 0.0
C157 C 0.04038 0.11963 0.67102 0.0
C158 C 0.83198 0.85057 0.54015 0.0
C159 C 0.77323 0.88228 0.52337 0.0
C160 C 0.76806 0.95412 0.52139 0.0
C161 C 0.8244 -0.00019 0.53301 0.0
C162 C 0.89677 0.97715 0.54039 0.0
C163 C 0.89087 0.88849 0.55066 0.0
C164 C 0.97211 0.8639 0.58654 0.0
C165 C 0.03078 0.954 0.59432 0.0
C166 C 0.98923 0.02051 0.5679 0.0
C167 C 0.01961 0.79987 0.57917 0.0
C168 C 0.92551 0.84843 0.61779 0.0
H169 H 0.23019 0.12492 0.6186 0.0
H170 H 0.09634 0.27808 0.54167 0.0
H171 H 0.90352 0.15431 0.56747 0.0
H172 H 0.93822 0.23584 0.5539 0.0
H173 H 0.9553 0.20636 0.59576 0.0
H174 H 0.09645 0.15873 0.51387 0.0
H175 H 0.01094 0.20385 0.5079 0.0
H176 H 0.01808 0.11405 0.50531 0.0
H177 H 0.07244 0.03431 0.73058 0.0
H178 H 0.03118 0.82231 0.71008 0.0
H179 H 0.06226 0.83936 0.65023 0.0
H180 H 0.18204 0.0839 0.70341 0.0
H181 H 0.1868 0.14151 0.67037 0.0
H182 H 0.2201 0.05508 0.66461 0.0
H183 H 0.98393 0.10222 0.66302 0.0
H184 H 0.05195 0.16744 0.65797 0.0
H185 H 0.04065 0.13153 0.69841 0.0
H186 H 0.29245 0.22501 0.59959 0.0
C187 C 0.19746 0.16295 0.60605 0.0
C188 C 0.63036 0.35032 0.99832 0.0
C189 C 0.6432 0.28246 0.98896 0.0
C190 C 0.59094 0.24783 0.96817 0.0
C191 C 0.52554 0.35232 0.96037 0.0
C192 C 0.56851 0.38447 0.98421 0.0
C193 C 0.52755 0.44678 0.99903 0.0
H194 H 0.30573 0.70438 0.92022 0.0
C195 C 0.47543 0.40015 0.94585 0.0
C196 C 0.4663 0.45609 0.96871 0.0
H197 H 0.3287 0.68669 0.02675 0.0
H198 H 0.41116 0.5898 0.01908 0.0
H199 H 0.45822 0.6635 0.90016 0.0
H200 H 0.25562 0.55918 0.91107 0.0
H201 H 0.29385 0.51899 0.87607 0.0
H202 H 0.27676 0.60906 0.87544 0.0
H203 H 0.394 0.65299 0.8655 0.0
H204 H 0.47001 0.5951 0.87249 0.0
C205 C 0.58703 0.50348 0.99884 0.0
C206 C 0.50841 0.42139 0.038 0.0
C207 C 0.51115 0.39929 0.81876 0.0
C208 C 0.48674 0.44433 0.79377 0.0
C209 C 0.43495 0.49443 0.80175 0.0
C210 C 0.41069 0.50244 0.83449 0.0
C211 C 0.43933 0.46061 0.86001 0.0
C212 C 0.48579 0.40798 0.85177 0.0
C213 C 0.50695 0.36698 0.88221 0.0
C214 C 0.4669 0.40635 0.91032 0.0
C215 C 0.43239 0.46274 0.89705 0.0
C216 C 0.59224 0.36934 0.88708 0.0
C217 C 0.47803 0.29385 0.87636 0.0
C218 C 0.32801 0.6789 0.94218 0.0
C219 C 0.31434 0.70422 0.97433 0.0
C220 C 0.34203 0.66884 1.0019 0.0
C221 C 0.38543 0.61054 0.99747 0.0
C222 C 0.39671 0.58239 0.96572 0.0
C223 C 0.36651 0.61746 0.93874 0.0
C224 C 0.37546 0.58101 0.90663 0.0
C225 C 0.41246 0.51662 0.91849 0.0
C226 C 0.42902 0.51572 0.95381 0.0
C227 C 0.4265 0.62502 0.88487 0.0
C228 C 0.2967 0.56655 0.89117 0.0
H229 H 0.48795 0.2557 0.94011 0.0
H230 H 0.66675 0.37507 0.01684 0.0
H231 H 0.5 0.36721 0.03006 0.0
H232 H 0.42672 0.45158 0.08429 0.0
H233 H 0.56799 0.41456 0.04587 0.0
H234 H 0.57769 0.53781 0.97739 0.0
H235 H 0.64464 0.48505 0.9959 0.0
H236 H 0.59087 0.5313 0.02286 0.0
H237 H 0.55008 0.35953 0.81279 0.0
H238 H 0.41479 0.52884 0.78265 0.0
H239 H 0.37242 0.54274 0.83864 0.0
H240 H 0.6114 0.42214 0.89195 0.0
H241 H 0.6198 0.34941 0.86439 0.0
H242 H 0.61237 0.33803 0.90816 0.0
H243 H 0.47247 0.28007 0.84921 0.0
H244 H 0.42266 0.28729 0.88727 0.0
H245 H 0.517 0.256 0.887 0.0
H246 H 0.59776 0.19452 0.96229 0.0
C247 C 0.5303 0.28265 0.95451 0.0
C248 C 0.62289 0.74915 0.06125 0.0
C249 C 0.69821 0.75986 0.06954 0.0
C250 C 0.73367 0.71884 0.09362 0.0
C251 C 0.62265 0.65214 0.09699 0.0
C252 C 0.58667 0.69272 0.07429 0.0
C253 C 0.52179 0.65538 0.05754 0.0
H254 H 0.3299 0.29756 0.04605 0.0
C255 C 0.583 0.58888 0.09899 0.0
C256 C 0.52701 0.5845 0.07339 0.0
H257 H 0.21529 0.47579 0.01253 0.0
H258 H 0.30714 0.55149 0.03835 0.0
H259 H 0.48637 0.26508 0.06261 0.0
H260 H 0.41464 0.39615 0.13295 0.0
H261 H 0.44825 0.31089 0.13527 0.0
H262 H 0.36959 0.32872 0.10975 0.0
H263 H 0.535 0.27237 0.10252 0.0
H264 H 0.57149 0.31309 0.06805 0.0
C265 C 0.536 0.65805 0.01923 0.0
C266 C 0.45044 0.69067 0.06871 0.0
C267 C 0.56793 0.49238 0.21335 0.0
C268 C 0.54646 0.42887 0.22456 0.0
C269 C 0.54445 0.37309 0.20184 0.0
C270 C 0.55912 0.38261 0.16765 0.0
C271 C 0.57063 0.44828 0.15651 0.0
C272 C 0.57952 0.50101 0.1793 0.0
C273 C 0.59812 0.5658 0.16278 0.0
C274 C 0.59257 0.54347 0.12568 0.0
C275 C 0.57206 0.47562 0.1226 0.0
C276 C 0.67583 0.58822 0.17564 0.0
C277 C 0.53972 0.62034 0.17098 0.0
C278 C 0.33109 0.35091 0.04031 0.0
C279 C 0.27254 0.38256 0.02335 0.0
C280 C 0.26742 0.45438 0.02128 0.0
C281 C 0.32365 0.5001 0.03298 0.0
C282 C 0.39596 0.47745 0.04051 0.0
C283 C 0.38991 0.38887 0.0509 0.0
C284 C 0.47107 0.36436 0.08682 0.0
C285 C 0.52989 0.45441 0.0945 0.0
C286 C 0.48847 0.52085 0.06799 0.0
C287 C 0.51845 0.30021 0.07954 0.0
C288 C 0.42441 0.34912 0.11809 0.0
H289 H 0.72975 0.62497 0.11856 0.0
H290 H 0.59646 0.77785 0.0413 0.0
H291 H 0.40321 0.65502 0.06747 0.0
H292 H 0.43816 0.73624 0.05364 0.0
H293 H 0.4553 0.7072 0.09557 0.0
H294 H 0.59602 0.65836 0.01371 0.0
H295 H 0.51058 0.70354 0.00767 0.0
H296 H 0.51755 0.61367 1.00535 0.0
H297 H 0.57184 0.53525 0.23067 0.0
H298 H 0.53027 0.32322 0.21039 0.0
H299 H 0.56121 0.33999 0.15051 0.0
H300 H 0.6813 0.58477 0.20344 0.0
H301 H 0.68619 0.6421 0.17028 0.0
H302 H 0.7194 0.55559 0.16471 0.0
H303 H 0.48327 0.60293 0.163 0.0
H304 H 0.55134 0.66806 0.15786 0.0
H305 H 0.53999 0.63238 0.19836 0.0
H306 H 0.79233 0.72479 0.0994 0.0
C307 C 0.69716 0.66297 0.10592 0.0
C308 C 0.11528 0.25933 0.02995 0.0
C309 C 0.13948 0.20958 0.00633 0.0
C310 C 0.2253 0.29272 0.98413 0.0
C311 C 0.21181 0.33623 0.01194 0.0
N312 N 0.14484 0.36164 0.06195 0.0
N313 N 0.22017 0.1781 0.96139 0.0
C314 C 0.15595 0.32035 0.03465 0.0
C315 C 0.19422 0.22646 0.983 0.0
N316 N 0.05233 0.24922 0.04735 0.0
N317 N 0.26993 0.31461 0.95947 0.0
H318 H 0.20083 0.12844 0.96062 0.0
H319 H 0.26513 0.18546 0.94613 0.0
H320 H 0.29323 0.36298 0.96024 0.0
H321 H 0.27806 0.28794 0.93708 0.0
H322 H 0.02779 0.28669 0.062 0.0
H323 H 0.02011 0.20586 0.04456 0.0
H324 H 0.11259 0.34813 0.08201 0.0
H325 H 0.17113 0.40828 0.06537 0.0
C326 C 0.14647 0.82059 0.97378 0.0
C327 C 0.17469 0.87768 0.99246 0.0
C328 C 0.29767 0.82459 0.99483 0.0
C329 C 0.26705 0.76494 0.97958 0.0
N330 N 0.15899 0.70115 0.96121 0.0
N331 N 0.27584 0.93228 0.02317 0.0
C332 C 0.19065 0.76165 0.97074 0.0
C333 C 0.24989 0.87896 1.00391 0.0
N334 N 0.07753 0.82213 0.95866 0.0
N335 N 0.37274 0.83021 0.99937 0.0
H336 H 0.24406 0.97499 0.02845 0.0
H337 H 0.32744 0.93259 0.03554 0.0
H338 H 0.40929 0.79202 0.99233 0.0
H339 H 0.39937 0.8746 0.00732 0.0
H340 H 0.05916 0.78579 0.94104 0.0
H341 H 0.03991 0.86138 0.96174 0.0
H342 H 0.10198 0.69416 0.95842 0.0
H343 H 0.18869 0.65608 0.95933 0.0
C344 C 0.7815 0.90871 0.02427 0.0
C345 C 0.85061 0.87998 0.01625 0.0
C346 C 0.80453 0.76941 0.03111 0.0
C347 C 0.74467 0.80118 0.04763 0.0
N348 N 0.67761 0.90361 0.06094 0.0
N349 N 0.93034 0.78255 0.01345 0.0
C350 C 0.73248 0.8715 0.04401 0.0
C351 C 0.8627 0.80993 0.01965 0.0
N352 N 0.76307 0.97141 0.01303 0.0
N353 N 0.80508 0.70092 0.02593 0.0
H354 H 0.97407 0.81134 1.00507 0.0
H355 H 0.94412 0.7327 0.01898 0.0
H356 H 0.761 0.6701 0.03231 0.0
H357 H 0.84499 0.6762 0.01187 0.0
H358 H 0.71034 0.99202 0.0154 0.0
H359 H 0.79818 -0.00084 0.99817 0.0
H360 H 0.67159 0.95604 0.06153 0.0
H361 H 0.64207 0.87855 0.07666 0.0
C362 C 0.77264 0.15677 0.03197 0.0
C363 C 0.83873 0.17021 0.01494 0.0
C364 C 0.7789 0.26262 0.98445 0.0
C365 C 0.71175 0.24763 1.00026 0.0
N366 N 0.64499 0.18816 0.04204 0.0
N367 N 0.91162 0.24664 0.98316 0.0
C368 C 0.70898 0.1974 0.02526 0.0
C369 C 0.84393 0.22688 0.99389 0.0
N370 N 0.7698 0.10319 0.05311 0.0
N371 N 0.77952 0.30785 0.95884 0.0
H372 H 0.96038 0.22106 0.9895 0.0
H373 H 0.92059 0.29166 0.97076 0.0
H374 H 0.73314 0.3354 0.95097 0.0
H375 H 0.82453 0.31458 0.94354 0.0
H376 H 0.72187 0.08606 0.06396 0.0
H377 H 0.81561 0.07328 0.05901 0.0
H378 H 0.64031 0.15768 0.06287 0.0
H379 H 0.59622 0.21379 0.03592 0.0
C380 C 0.69455 0.7262 0.48323 0.0
C381 C 0.64036 0.7091 0.50678 0.0
C382 C 0.65707 0.81986 0.53511 0.0
C383 C 0.71234 0.83596 0.51215 0.0
N384 N 0.76934 0.81466 0.45938 0.0
N385 N 0.55398 0.74845 0.54822 0.0
C386 C 0.72536 0.79256 0.48424 0.0
C387 C 0.61652 0.75873 0.53055 0.0
N388 N 0.7203 0.67796 0.4615 0.0
N389 N 0.64642 0.86104 0.56248 0.0
H390 H 0.52181 0.70504 0.54554 0.0
H391 H 0.52966 0.78582 0.563 0.0
H392 H 0.67258 0.90777 0.5658 0.0
H393 H 0.61471 0.84737 0.5827 0.0
H394 H 0.76489 0.68552 0.44605 0.0
H395 H 0.70126 0.6282 0.46083 0.0
H396 H 0.77705 0.78807 0.43694 0.0
H397 H 0.79248 0.8631 0.46008 0.0
C398 C 0.75005 0.3782 0.50398 0.0
C399 C 0.6748 0.37701 0.49261 0.0
C400 C 0.69051 0.26095 0.47088 0.0
C401 C 0.76698 0.26417 0.4796 0.0
N402 N 0.87284 0.32946 0.4992 0.0
N403 N 0.57746 0.3216 0.45887 0.0
C404 C 0.79774 0.32383 0.4948 0.0
C405 C 0.64643 0.31996 0.47395 0.0
N406 N 0.77616 0.43146 0.52324 0.0
N407 N 0.6587 0.20047 0.46144 0.0
H408 H 0.53998 0.36097 0.46192 0.0
H409 H 0.55894 0.28523 0.4413 0.0
H410 H 0.68831 0.15535 0.45959 0.0
H411 H 0.60167 0.19356 0.45873 0.0
H412 H 0.82782 0.43168 0.53556 0.0
H413 H 0.74444 0.47417 0.52859 0.0
H414 H 0.89951 0.37385 0.50711 0.0
H415 H 0.90934 0.29129 0.49207 0.0
C416 C 0.28166 0.40907 0.52474 0.0
C417 C 0.35062 0.3802 0.5166 0.0
C418 C 0.30421 0.26963 0.53126 0.0
C419 C 0.24455 0.30145 0.54791 0.0
N420 N 0.1778 0.40392 0.56144 0.0
N421 N 0.42997 0.28254 0.51351 0.0
C422 C 0.23256 0.37182 0.54444 0.0
C423 C 0.36246 0.31007 0.51982 0.0
N424 N 0.26343 0.47193 0.51367 0.0
N425 N 0.3045 0.20118 0.52596 0.0
H426 H 0.47378 0.31128 0.50516 0.0
H427 H 0.44359 0.2326 0.51892 0.0
H428 H 0.26036 0.17043 0.53235 0.0
H429 H 0.34424 0.17644 0.51181 0.0
H430 H 0.21078 0.49268 0.51613 0.0
H431 H 0.29858 0.49971 0.49884 0.0
H432 H 0.17195 0.45636 0.56216 0.0
H433 H 0.14216 0.37878 0.57709 0.0
C434 C 0.27369 0.65729 0.53231 0.0
C435 C 0.34004 0.67064 0.51546 0.0
C436 C 0.28091 0.76334 0.48492 0.0
C437 C 0.21341 0.74822 0.50041 0.0
N438 N 0.14564 0.68834 0.5417 0.0
N439 N 0.41364 0.74702 0.484 0.0
C440 C 0.2101 0.69785 0.52532 0.0
C441 C 0.34571 0.72741 0.49451 0.0
N442 N 0.27065 0.60389 0.55355 0.0
N443 N 0.28208 0.80883 0.45943 0.0
H444 H 0.4622 0.72123 0.49045 0.0
H445 H 0.42299 0.79207 0.47169 0.0
H446 H 0.23587 0.8365 0.45146 0.0
H447 H 0.3274 0.81571 0.44434 0.0
H448 H 0.22268 0.58691 0.56442 0.0
H449 H 0.31644 0.57412 0.55964 0.0
H450 H 0.14032 0.65754 0.56237 0.0
H451 H 0.09696 0.7139 0.53535 0.0
C452 C 0.07364 0.01401 0.21654 0.0
C453 C 0.04179 0.97124 0.19097 0.0
C454 C 0.98553 0.90126 0.23371 0.0
C455 C 0.01649 0.94462 0.25914 0.0
N456 N 0.10576 0.02989 0.27584 0.0
N457 N 0.98503 0.86461 0.17516 0.0
C458 C 0.06619 0.99674 0.25081 0.0
C459 C 0.00353 0.91156 0.19962 0.0
N460 N 0.1069 0.07322 0.20823 0.0
N461 N 0.93617 0.85244 0.24199 0.0
H462 H -0.00178 0.87049 0.15004 0.0
H463 H 0.96299 0.81734 0.18015 0.0
H464 H 0.9238 0.84214 0.26681 0.0
H465 H 0.90456 0.82471 0.22432 0.0
H466 H 0.12342 0.11021 0.22583 0.0
H467 H 0.11335 0.08788 0.18347 0.0
H468 H 0.14798 0.0641 0.27141 0.0
H469 H 0.10113 0.01815 0.30115 0.0
C470 C 0.04869 0.91032 0.81916 0.0
C471 C -0.00484 0.96072 0.8266 0.0
C472 C 0.95723 0.96259 0.76718 0.0
C473 C 0.02092 0.92433 0.75921 0.0
N474 N 0.12958 0.86276 0.77739 0.0
N475 N 0.90187 0.03962 0.80702 0.0
C476 C 0.06675 0.89737 0.78514 0.0
C477 C 0.94926 0.9874 0.80052 0.0
N478 N 0.08158 0.87456 0.8446 0.0
N479 N 0.90543 0.97632 0.74252 0.0
H480 H 0.89585 0.06098 0.83091 0.0
H481 H 0.87325 0.06577 0.78822 0.0
H482 H 0.91022 0.95837 0.71785 0.0
H483 H 0.85478 -0.00076 0.74725 0.0
H484 H 0.11621 0.83329 0.84048 0.0
H485 H 0.06831 0.88188 0.86974 0.0
H486 H 0.16978 0.84907 0.79531 0.0
H487 H 0.14363 0.85121 0.75273 0.0
C488 C 0.50288 0.41085 0.69984 0.0
C489 C 0.54226 0.46995 0.69124 0.0
C490 C 0.56754 0.49468 0.75108 0.0
C491 C 0.51677 0.44344 0.75939 0.0
N492 N 0.43449 0.35273 0.74221 0.0
N493 N 0.6095 0.57073 0.70859 0.0
C494 C 0.48482 0.40072 0.73394 0.0
C495 C 0.57513 0.51202 0.71683 0.0
N496 N 0.48338 0.36431 0.67535 0.0
N497 N 0.60795 0.52698 0.77612 0.0
H498 H 0.61602 0.5855 0.68385 0.0
H499 H 0.62689 0.60732 0.72624 0.0
H500 H 0.60322 0.51514 0.80141 0.0
H501 H 0.65087 0.56045 0.77168 0.0
H502 H 0.46041 0.3174 0.68031 0.0
H503 H 0.49662 0.37005 0.65023 0.0
H504 H 0.40223 0.32562 0.72453 0.0
H505 H 0.42204 0.34253 0.76704 0.0
C506 C 0.54827 0.41097 0.31937 0.0
C507 C 0.49497 0.46151 0.32691 0.0
C508 C 0.4569 0.46384 0.26752 0.0
C509 C 0.52039 0.42539 0.25946 0.0
N510 N 0.62891 0.36344 0.2775 0.0
N511 N 0.40199 0.54086 0.30749 0.0
C512 C 0.56621 0.39815 0.28533 0.0
C513 C 0.44913 0.48851 0.30089 0.0
N514 N 0.58106 0.37494 0.34474 0.0
N515 N 0.40507 0.47787 0.24292 0.0
H516 H 0.39612 0.5621 0.33142 0.0
H517 H 0.37344 0.56723 0.28875 0.0
H518 H 0.40968 0.46001 0.21822 0.0
H519 H 0.35454 0.50094 0.24771 0.0
H520 H 0.6155 0.33357 0.34053 0.0
H521 H 0.56787 0.38216 0.36989 0.0
H522 H 0.6691 0.34955 0.29538 0.0
H523 H 0.64293 0.35203 0.25282 0.0
loop_
_geom_bond_atom_site_label_1
_geom_bond_atom_site_label_2
_geom_bond_distance
_geom_bond_site_symmetry_2
_ccdc_geom_bond_type
C0 O16 1.251 . S
C0 O18 1.254 1_554 S
N1 C2 1.333 1_445 S
N1 C6 1.307 . S
N1 Zn7 2.020 . S
C2 N1 1.333 1_665 S
C2 C3 1.379 . S
C2 H20 0.952 . S
C3 C2 1.379 . S
C3 C4 1.390 1_665 S
C3 H30 0.949 . S
C4 C3 1.390 1_445 S
C4 C5 1.357 . S
C5 C4 1.357 . S
C5 C6 1.370 . S
C5 H31 0.950 . S
C6 N1 1.307 . S
C6 C5 1.370 . S
C6 H24 0.948 . S
Zn7 N1 2.020 . S
Zn7 O16 2.039 1_445 S
Zn7 O22 2.034 1_455 S
Zn7 O26 2.025 . S
Zn7 O28 2.024 1_545 S
C8 O27 1.246 1_554 S
C8 O28 1.249 . S
N9 C10 1.307 1_445 S
N9 C11 1.333 . S
N9 Zn15 2.020 . S
C10 N9 1.307 1_665 S
C10 C14 1.370 . S
C10 H21 0.948 . S
C11 N9 1.333 . S
C11 C12 1.379 . S
C11 H19 0.952 . S
C12 C11 1.379 . S
C12 C13 1.390 . S
C12 H32 0.949 . S
C13 C12 1.390 . S
C13 C14 1.357 1_445 S
C14 C10 1.370 . S
C14 C13 1.357 1_665 S
C14 H33 0.950 . S
Zn15 N9 2.020 . S
Zn15 O18 2.025 1_445 S
Zn15 O23 2.024 1_455 S
Zn15 O25 2.039 . S
Zn15 O27 2.034 1_545 S
O16 C0 1.251 . S
O16 Zn7 2.039 1_665 S
C17 O22 1.246 . S
C17 O23 1.249 1_554 S
O18 C0 1.254 1_556 S
O18 Zn15 2.025 1_665 S
H19 C11 0.952 . S
H20 C2 0.952 . S
H21 C10 0.948 . S
O22 Zn7 2.034 1_655 S
O22 C17 1.246 . S
O23 Zn15 2.024 1_655 S
O23 C17 1.249 1_556 S
H24 C6 0.948 . S
O25 Zn15 2.039 . S
O25 C29 1.251 1_556 S
O26 Zn7 2.025 . S
O26 C29 1.254 . S
O27 C8 1.246 1_556 S
O27 Zn15 2.034 1_565 S
O28 Zn7 2.024 1_565 S
O28 C8 1.249 . S
C29 O25 1.251 1_554 S
C29 O26 1.254 . S
H30 C3 0.949 . S
H31 C5 0.950 . S
H32 C12 0.949 . S
H33 C14 0.950 . S
C34 O50 1.251 . S
C34 O52 1.254 . S
N35 C36 1.333 . S
N35 C40 1.307 . S
N35 Zn41 2.020 . S
C36 N35 1.333 . S
C36 C37 1.379 . S
C36 H54 0.952 . S
C37 C36 1.379 . S
C37 C38 1.390 . S
C37 H64 0.949 . S
C38 C37 1.390 . S
C38 C39 1.357 . S
C39 C38 1.357 . S
C39 C40 1.370 . S
C39 H65 0.950 . S
C40 N35 1.307 . S
C40 C39 1.370 . S
C40 H58 0.948 . S
Zn41 N35 2.020 . S
Zn41 O50 2.039 . S
Zn41 O56 2.034 . S
Zn41 O60 2.025 . S
Zn41 O62 2.024 . S
C42 O61 1.246 . S
C42 O62 1.249 . S
N43 C44 1.307 . S
N43 C45 1.333 . S
N43 Zn49 2.020 . S
C44 N43 1.307 . S
C44 C48 1.370 . S
C44 H55 0.948 . S
C45 N43 1.333 . S
C45 C46 1.379 . S
C45 H53 0.952 . S
C46 C45 1.379 . S
C46 C47 1.390 . S
C46 H66 0.949 . S
C47 C46 1.390 . S
C47 C48 1.357 . S
C48 C44 1.370 . S
C48 C47 1.357 . S
C48 H67 0.950 . S
Zn49 N43 2.020 . S
Zn49 O52 2.025 . S
Zn49 O57 2.024 . S
Zn49 O59 2.039 . S
Zn49 O61 2.034 . S
O50 C34 1.251 . S
O50 Zn41 2.039 . S
C51 O56 1.246 . S
C51 O57 1.249 . S
O52 C34 1.254 . S
O52 Zn49 2.025 . S
H53 C45 0.952 . S
H54 C36 0.952 . S
H55 C44 0.948 . S
O56 Zn41 2.034 . S
O56 C51 1.246 . S
O57 Zn49 2.024 . S
O57 C51 1.249 . S
H58 C40 0.948 . S
O59 Zn49 2.039 . S
O59 C63 1.251 . S
O60 Zn41 2.025 . S
O60 C63 1.254 . S
O61 C42 1.246 . S
O61 Zn49 2.034 . S
O62 Zn41 2.024 . S
O62 C42 1.249 . S
C63 O59 1.251 . S
C63 O60 1.254 . S
H64 C37 0.949 . S
H65 C39 0.950 . S
H66 C46 0.949 . S
H67 C48 0.950 . S
C68 C69 1.391 . S
C68 C72 1.391 . S
C68 H110 0.948 . S
C69 C68 1.391 . S
C69 C70 1.391 . S
C70 C69 1.391 . S
C70 H126 0.947 . S
C70 C127 1.392 . S
C71 C72 1.391 . S
C71 C75 1.397 . S
C71 C127 1.419 . S
C72 C68 1.391 . S
C72 C71 1.391 . S
C72 C73 1.399 . S
C73 C72 1.399 . S
C73 C76 1.396 . S
C73 C85 1.453 1_565 S
C73 C86 1.684 1_455 S
H74 C98 0.948 . S
C75 C71 1.397 . S
C75 C76 1.394 . S
C75 C94 1.723 . S
C76 C73 1.396 . S
C76 C75 1.394 . S
C76 C106 1.723 1_465 S
H77 C100 0.947 . S
H78 C101 0.948 . S
H79 C107 0.982 . S
H80 C108 0.979 . S
H81 C108 0.980 . S
H82 C108 0.983 . S
H83 C107 0.979 . S
H84 C107 0.977 . S
C85 C73 1.453 1_545 S
C85 H114 0.982 . S
C85 H115 0.979 1_545 S
C85 H116 0.977 . S
C86 C73 1.684 1_655 S
C86 H111 0.979 . S
C86 H112 0.980 . S
C86 H113 0.983 1_655 S
C87 C88 1.391 1_465 S
C87 C92 1.391 . S
C87 H117 0.948 . S
C88 C87 1.391 1_645 S
C88 C89 1.391 . S
C89 C88 1.391 . S
C89 C90 1.392 . S
C89 H118 0.947 . S
C90 C89 1.392 . S
C90 C91 1.419 . S
C90 H119 0.948 . S
C91 C90 1.419 . S
C91 C92 1.391 1_645 S
C91 C95 1.397 . S
C92 C87 1.391 . S
C92 C91 1.391 1_465 S
C92 C93 1.399 . S
C93 C92 1.399 . S
C93 C94 1.396 . S
C93 C96 1.453 . S
C93 C97 1.684 . S
C94 C75 1.723 . S
C94 C93 1.396 . S
C94 C95 1.394 1_465 S
C95 C91 1.397 . S
C95 C94 1.394 1_645 S
C95 C105 1.723 . S
C96 C93 1.453 . S
C96 H120 0.982 . S
C96 H121 0.979 . S
C96 H122 0.977 . S
C97 C93 1.684 . S
C97 H123 0.979 . S
C97 H124 0.980 . S
C97 H125 0.983 . S
C98 H74 0.948 . S
C98 C99 1.391 . S
C98 C103 1.391 . S
C99 C98 1.391 . S
C99 C100 1.391 . S
C100 H77 0.947 . S
C100 C99 1.391 . S
C100 C101 1.392 . S
C101 H78 0.948 . S
C101 C100 1.392 . S
C101 C102 1.419 . S
C102 C101 1.419 . S
C102 C103 1.391 . S
C102 C106 1.397 . S
C103 C98 1.391 . S
C103 C102 1.391 . S
C103 C104 1.399 . S
C104 C103 1.399 . S
C104 C105 1.396 . S
C104 C107 1.453 . S
C104 C108 1.684 . S
C105 C95 1.723 . S
C105 C104 1.396 . S
C105 C106 1.394 . S
C106 C76 1.723 1_645 S
C106 C102 1.397 . S
C106 C105 1.394 . S
C107 H79 0.982 . S
C107 H83 0.979 . S
C107 H84 0.977 . S
C107 C104 1.453 . S
C108 H80 0.979 . S
C108 H81 0.980 . S
C108 H82 0.983 . S
C108 C104 1.684 . S
H109 C127 0.948 . S
H110 C68 0.948 . S
H111 C86 0.979 . S
H112 C86 0.980 . S
H113 C86 0.983 1_455 S
H114 C85 0.982 . S
H115 C85 0.979 1_565 S
H116 C85 0.977 . S
H117 C87 0.948 . S
H118 C89 0.947 . S
H119 C90 0.948 . S
H120 C96 0.982 . S
H121 C96 0.979 . S
H122 C96 0.977 . S
H123 C97 0.979 . S
H124 C97 0.980 . S
H125 C97 0.983 . S
H126 C70 0.947 . S
C127 C70 1.392 . S
C127 C71 1.419 . S
C127 H109 0.948 . S
C128 C129 1.391 . S
C128 C132 1.391 . S
C128 H170 0.948 . S
C129 C128 1.391 . S
C129 C130 1.391 . S
C130 C129 1.391 . S
C130 H186 0.947 . S
C130 C187 1.392 . S
C131 C132 1.391 . S
C131 C135 1.397 . S
C131 C187 1.419 . S
C132 C128 1.391 . S
C132 C131 1.391 . S
C132 C133 1.399 . S
C133 C132 1.399 . S
C133 C136 1.396 . S
C133 C145 1.453 . S
C133 C146 1.684 1_455 S
H134 C158 0.948 . S
C135 C131 1.397 . S
C135 C136 1.394 . S
C135 C154 1.723 . S
C136 C133 1.396 . S
C136 C135 1.394 . S
C136 C166 1.723 1_445 S
H137 C160 0.947 . S
H138 C161 0.948 . S
H139 C167 0.982 . S
H140 C168 0.979 . S
H141 C168 0.980 . S
H142 C168 0.983 . S
H143 C167 0.979 . S
H144 C167 0.977 . S
C145 C133 1.453 . S
C145 H174 0.982 1_545 S
C145 H175 0.979 . S
C145 H176 0.977 1_545 S
C146 C133 1.684 1_655 S
C146 H171 0.979 . S
C146 H172 0.980 . S
C146 H173 0.983 1_655 S
C147 C148 1.391 . S
C147 C152 1.391 . S
C147 H177 0.948 . S
C148 C147 1.391 . S
C148 C149 1.391 1_445 S
C149 C148 1.391 1_665 S
C149 C150 1.392 . S
C149 H178 0.947 . S
C150 C149 1.392 . S
C150 C151 1.419 1_655 S
C150 H179 0.948 . S
C151 C150 1.419 1_455 S
C151 C152 1.391 1_565 S
C151 C155 1.397 . S
C152 C147 1.391 . S
C152 C151 1.391 1_545 S
C152 C153 1.399 . S
C153 C152 1.399 . S
C153 C154 1.396 . S
C153 C156 1.453 . S
C153 C157 1.684 . S
C154 C135 1.723 . S
C154 C153 1.396 . S
C154 C155 1.394 1_545 S
C155 C151 1.397 . S
C155 C154 1.394 1_565 S
C155 C165 1.723 1_455 S
C156 C153 1.453 . S
C156 H180 0.982 . S
C156 H181 0.979 . S
C156 H182 0.977 . S
C157 C153 1.684 . S
C157 H183 0.979 . S
C157 H184 0.980 . S
C157 H185 0.983 . S
C158 H134 0.948 . S
C158 C159 1.391 . S
C158 C163 1.391 . S
C159 C158 1.391 . S
C159 C160 1.391 . S
C160 H137 0.947 . S
C160 C159 1.391 . S
C160 C161 1.392 . S
C161 H138 0.948 . S
C161 C160 1.392 . S
C161 C162 1.419 . S
C162 C161 1.419 . S
C162 C163 1.391 . S
C162 C166 1.397 . S
C163 C158 1.391 . S
C163 C162 1.391 . S
C163 C164 1.399 . S
C164 C163 1.399 . S
C164 C165 1.396 . S
C164 C167 1.453 . S
C164 C168 1.684 . S
C165 C155 1.723 1_655 S
C165 C164 1.396 . S
C165 C166 1.394 . S
C166 C136 1.723 1_665 S
C166 C162 1.397 . S
C166 C165 1.394 . S
C167 H139 0.982 . S
C167 H143 0.979 . S
C167 H144 0.977 . S
C167 C164 1.453 . S
C168 H140 0.979 . S
C168 H141 0.980 . S
C168 H142 0.983 . S
C168 C164 1.684 . S
H169 C187 0.948 . S
H170 C128 0.948 . S
H171 C146 0.979 . S
H172 C146 0.980 . S
H173 C146 0.983 1_455 S
H174 C145 0.982 1_565 S
H175 C145 0.979 . S
H176 C145 0.977 1_565 S
H177 C147 0.948 . S
H178 C149 0.947 . S
H179 C150 0.948 . S
H180 C156 0.982 . S
H181 C156 0.979 . S
H182 C156 0.977 . S
H183 C157 0.979 . S
H184 C157 0.980 . S
H185 C157 0.983 . S
H186 C130 0.947 . S
C187 C130 1.392 . S
C187 C131 1.419 . S
C187 H169 0.948 . S
C188 C189 1.391 . S
C188 C192 1.391 . S
C188 H230 0.948 . S
C189 C188 1.391 . S
C189 C190 1.391 1_554 S
C190 C189 1.391 1_556 S
C190 H246 0.947 . S
C190 C247 1.392 . S
C191 C192 1.391 1_556 S
C191 C195 1.397 . S
C191 C247 1.419 . S
C192 C188 1.391 . S
C192 C191 1.391 1_554 S
C192 C193 1.399 . S
C193 C192 1.399 . S
C193 C196 1.396 1_554 S
C193 C205 1.453 . S
C193 C206 1.684 . S
H194 C218 0.948 . S
C195 C191 1.397 . S
C195 C196 1.394 . S
C195 C214 1.723 . S
C196 C193 1.396 1_556 S
C196 C195 1.394 . S
C196 C226 1.723 . S
H197 C220 0.947 . S
H198 C221 0.948 . S
H199 C227 0.982 . S
H200 C228 0.979 . S
H201 C228 0.980 . S
H202 C228 0.983 . S
H203 C227 0.979 . S
H204 C227 0.977 . S
C205 C193 1.453 . S
C205 H234 0.982 . S
C205 H235 0.979 . S
C205 H236 0.977 . S
C206 C193 1.684 . S
C206 H231 0.979 . S
C206 H232 0.980 . S
C206 H233 0.983 . S
C207 C208 1.391 . S
C207 C212 1.391 . S
C207 H237 0.948 . S
C208 C207 1.391 . S
C208 C209 1.391 . S
C209 C208 1.391 . S
C209 C210 1.392 . S
C209 H238 0.947 . S
C210 C209 1.392 . S
C210 C211 1.419 . S
C210 H239 0.948 . S
C211 C210 1.419 . S
C211 C212 1.391 . S
C211 C215 1.397 . S
C212 C207 1.391 . S
C212 C211 1.391 . S
C212 C213 1.399 . S
C213 C212 1.399 . S
C213 C214 1.396 . S
C213 C216 1.453 . S
C213 C217 1.684 . S
C214 C195 1.723 . S
C214 C213 1.396 . S
C214 C215 1.394 . S
C215 C211 1.397 . S
C215 C214 1.394 . S
C215 C225 1.723 . S
C216 C213 1.453 . S
C216 H240 0.982 . S
C216 H241 0.979 . S
C216 H242 0.977 . S
C217 C213 1.684 . S
C217 H243 0.979 . S
C217 H244 0.980 . S
C217 H245 0.983 . S
C218 H194 0.948 . S
C218 C219 1.391 1_556 S
C218 C223 1.391 . S
C219 C218 1.391 1_554 S
C219 C220 1.391 . S
C220 H197 0.947 . S
C220 C219 1.391 . S
C220 C221 1.392 . S
C221 H198 0.948 . S
C221 C220 1.392 . S
C221 C222 1.419 1_554 S
C222 C221 1.419 1_556 S
C222 C223 1.391 . S
C222 C226 1.397 . S
C223 C218 1.391 . S
C223 C222 1.391 . S
C223 C224 1.399 . S
C224 C223 1.399 . S
C224 C225 1.396 . S
C224 C227 1.453 . S
C224 C228 1.684 . S
C225 C215 1.723 . S
C225 C224 1.396 . S
C225 C226 1.394 . S
C226 C196 1.723 . S
C226 C222 1.397 . S
C226 C225 1.394 . S
C227 H199 0.982 . S
C227 H203 0.979 . S
C227 H204 0.977 . S
C227 C224 1.453 . S
C228 H200 0.979 . S
C228 H201 0.980 . S
C228 H202 0.983 . S
C228 C224 1.684 . S
H229 C247 0.948 . S
H230 C188 0.948 . S
H231 C206 0.979 . S
H232 C206 0.980 . S
H233 C206 0.983 . S
H234 C205 0.982 . S
H235 C205 0.979 . S
H236 C205 0.977 . S
H237 C207 0.948 . S
H238 C209 0.947 . S
H239 C210 0.948 . S
H240 C216 0.982 . S
H241 C216 0.979 . S
H242 C216 0.977 . S
H243 C217 0.979 . S
H244 C217 0.980 . S
H245 C217 0.983 . S
H246 C190 0.947 . S
C247 C190 1.392 . S
C247 C191 1.419 . S
C247 H229 0.948 . S
C248 C249 1.391 1_556 S
C248 C252 1.391 1_556 S
C248 H290 0.948 . S
C249 C248 1.391 1_554 S
C249 C250 1.391 . S
C250 C249 1.391 . S
C250 H306 0.947 . S
C250 C307 1.392 . S
C251 C252 1.391 . S
C251 C255 1.397 . S
C251 C307 1.419 . S
C252 C248 1.391 1_554 S
C252 C251 1.391 . S
C252 C253 1.399 . S
C253 C252 1.399 . S
C253 C256 1.396 . S
C253 C265 1.453 1_554 S
C253 C266 1.684 1_554 S
H254 C278 0.948 . S
C255 C251 1.397 . S
C255 C256 1.394 . S
C255 C274 1.723 . S
C256 C253 1.396 . S
C256 C255 1.394 . S
C256 C286 1.723 . S
H257 C280 0.947 . S
H258 C281 0.948 . S
H259 C287 0.982 . S
H260 C288 0.979 . S
H261 C288 0.980 . S
H262 C288 0.983 . S
H263 C287 0.979 . S
H264 C287 0.977 . S
C265 C253 1.453 1_556 S
C265 H294 0.982 . S
C265 H295 0.979 . S
C265 H296 0.977 . S
C266 C253 1.684 1_556 S
C266 H291 0.979 . S
C266 H292 0.980 . S
C266 H293 0.983 . S
C267 C268 1.391 . S
C267 C272 1.391 . S
C267 H297 0.948 . S
C268 C267 1.391 . S
C268 C269 1.391 . S
C269 C268 1.391 . S
C269 C270 1.392 . S
C269 H298 0.947 . S
C270 C269 1.392 . S
C270 C271 1.419 . S
C270 H299 0.948 . S
C271 C270 1.419 . S
C271 C272 1.391 . S
C271 C275 1.397 . S
C272 C267 1.391 . S
C272 C271 1.391 . S
C272 C273 1.399 . S
C273 C272 1.399 . S
C273 C274 1.396 . S
C273 C276 1.453 . S
C273 C277 1.684 . S
C274 C255 1.723 . S
C274 C273 1.396 . S
C274 C275 1.394 . S
C275 C271 1.397 . S
C275 C274 1.394 . S
C275 C285 1.723 . S
C276 C273 1.453 . S
C276 H300 0.982 . S
C276 H301 0.979 . S
C276 H302 0.977 . S
C277 C273 1.684 . S
C277 H303 0.979 . S
C277 H304 0.980 . S
C277 H305 0.983 . S
C278 H254 0.948 . S
C278 C279 1.391 1_554 S
C278 C283 1.391 . S
C279 C278 1.391 1_556 S
C279 C280 1.391 . S
C280 H257 0.947 . S
C280 C279 1.391 . S
C280 C281 1.392 . S
C281 H258 0.948 . S
C281 C280 1.392 . S
C281 C282 1.419 1_556 S
C282 C281 1.419 1_554 S
C282 C283 1.391 . S
C282 C286 1.397 . S
C283 C278 1.391 . S
C283 C282 1.391 . S
C283 C284 1.399 . S
C284 C283 1.399 . S
C284 C285 1.396 . S
C284 C287 1.453 . S
C284 C288 1.684 . S
C285 C275 1.723 . S
C285 C284 1.396 . S
C285 C286 1.394 . S
C286 C256 1.723 . S
C286 C282 1.397 . S
C286 C285 1.394 . S
C287 H259 0.982 . S
C287 H263 0.979 . S
C287 H264 0.977 . S
C287 C284 1.453 . S
C288 H260 0.979 . S
C288 H261 0.980 . S
C288 H262 0.983 . S
C288 C284 1.684 . S
H289 C307 0.948 . S
H290 C248 0.948 . S
H291 C266 0.979 . S
H292 C266 0.980 . S
H293 C266 0.983 . S
H294 C265 0.982 . S
H295 C265 0.979 . S
H296 C265 0.977 . S
H297 C267 0.948 . S
H298 C269 0.947 . S
H299 C270 0.948 . S
H300 C276 0.982 . S
H301 C276 0.979 . S
H302 C276 0.977 . S
H303 C277 0.979 . S
H304 C277 0.980 . S
H305 C277 0.983 . S
H306 C250 0.947 . S
C307 C250 1.392 . S
C307 C251 1.419 . S
C307 H289 0.948 . S
C308 C309 1.363 . S
C308 C314 1.379 . S
C308 N316 1.356 . S
C309 C308 1.363 . S
C309 C315 1.363 1_554 S
C310 C311 1.363 . S
C310 C315 1.379 . S
C310 N317 1.356 . S
C311 C310 1.363 . S
C311 C314 1.363 1_556 S
N312 C314 1.356 . S
N312 H324 0.984 . S
N312 H325 0.985 . S
N313 C315 1.356 . S
N313 H318 0.984 . S
N313 H319 0.985 . S
C314 C308 1.379 . S
C314 C311 1.363 1_554 S
C314 N312 1.356 . S
C315 C309 1.363 1_556 S
C315 C310 1.379 . S
C315 N313 1.356 . S
N316 C308 1.356 . S
N316 H322 0.984 . S
N316 H323 0.984 . S
N317 C310 1.356 . S
N317 H320 0.984 . S
N317 H321 0.985 . S
H318 N313 0.984 . S
H319 N313 0.985 . S
H320 N317 0.984 . S
H321 N317 0.985 . S
H322 N316 0.984 . S
H323 N316 0.984 . S
H324 N312 0.984 . S
H325 N312 0.985 . S
C326 C327 1.363 1_556 S
C326 C332 1.379 . S
C326 N334 1.356 . S
C327 C326 1.363 1_554 S
C327 C333 1.363 . S
C328 C329 1.363 . S
C328 C333 1.379 . S
C328 N335 1.356 . S
C329 C328 1.363 . S
C329 C332 1.363 1_554 S
N330 C332 1.356 . S
N330 H342 0.984 . S
N330 H343 0.985 . S
N331 C333 1.356 . S
N331 H336 0.984 . S
N331 H337 0.985 . S
C332 C326 1.379 . S
C332 C329 1.363 1_556 S
C332 N330 1.356 . S
C333 C327 1.363 . S
C333 C328 1.379 . S
C333 N331 1.356 . S
N334 C326 1.356 . S
N334 H340 0.984 . S
N334 H341 0.984 . S
N335 C328 1.356 . S
N335 H338 0.984 . S
N335 H339 0.985 . S
H336 N331 0.984 . S
H337 N331 0.985 . S
H338 N335 0.984 . S
H339 N335 0.985 . S
H340 N334 0.984 . S
H341 N334 0.984 . S
H342 N330 0.984 . S
H343 N330 0.985 . S
C344 C345 1.363 1_556 S
C344 C350 1.379 . S
C344 N352 1.356 . S
C345 C344 1.363 1_554 S
C345 C351 1.363 . S
C346 C347 1.363 1_554 S
C346 C351 1.379 . S
C346 N353 1.356 . S
C347 C346 1.363 1_556 S
C347 C350 1.363 . S
N348 C350 1.356 . S
N348 H360 0.984 . S
N348 H361 0.985 . S
N349 C351 1.356 . S
N349 H354 0.984 . S
N349 H355 0.985 . S
C350 C344 1.379 . S
C350 C347 1.363 . S
C350 N348 1.356 . S
C351 C345 1.363 . S
C351 C346 1.379 . S
C351 N349 1.356 . S
N352 C344 1.356 . S
N352 H358 0.984 . S
N352 H359 0.984 . S
N353 C346 1.356 . S
N353 H356 0.984 . S
N353 H357 0.985 . S
H354 N349 0.984 . S
H355 N349 0.985 . S
H356 N353 0.984 . S
H357 N353 0.985 . S
H358 N352 0.984 . S
H359 N352 0.984 . S
H360 N348 0.984 . S
H361 N348 0.985 . S
C362 C363 1.363 . S
C362 C368 1.379 . S
C362 N370 1.356 . S
C363 C362 1.363 . S
C363 C369 1.363 1_554 S
C364 C365 1.363 1_556 S
C364 C369 1.379 . S
C364 N371 1.356 . S
C365 C364 1.363 1_554 S
C365 C368 1.363 . S
N366 C368 1.356 . S
N366 H378 0.984 . S
N366 H379 0.985 . S
N367 C369 1.356 . S
N367 H372 0.984 . S
N367 H373 0.985 . S
C368 C362 1.379 . S
C368 C365 1.363 . S
C368 N366 1.356 . S
C369 C363 1.363 1_556 S
C369 C364 1.379 . S
C369 N367 1.356 . S
N370 C362 1.356 . S
N370 H376 0.984 . S
N370 H377 0.984 . S
N371 C364 1.356 . S
N371 H374 0.984 . S
N371 H375 0.985 . S
H372 N367 0.984 . S
H373 N367 0.985 . S
H374 N371 0.984 . S
H375 N371 0.985 . S
H376 N370 0.984 . S
H377 N370 0.984 . S
H378 N366 0.984 . S
H379 N366 0.985 . S
C380 C381 1.363 . S
C380 C386 1.379 . S
C380 N388 1.356 . S
C381 C380 1.363 . S
C381 C387 1.363 . S
C382 C383 1.363 . S
C382 C387 1.379 . S
C382 N389 1.356 . S
C383 C382 1.363 . S
C383 C386 1.363 . S
N384 C386 1.356 . S
N384 H396 0.984 . S
N384 H397 0.985 . S
N385 C387 1.356 . S
N385 H390 0.984 . S
N385 H391 0.985 . S
C386 C380 1.379 . S
C386 C383 1.363 . S
C386 N384 1.356 . S
C387 C381 1.363 . S
C387 C382 1.379 . S
C387 N385 1.356 . S
N388 C380 1.356 . S
N388 H394 0.984 . S
N388 H395 0.984 . S
N389 C382 1.356 . S
N389 H392 0.984 . S
N389 H393 0.985 . S
H390 N385 0.984 . S
H391 N385 0.985 . S
H392 N389 0.984 . S
H393 N389 0.985 . S
H394 N388 0.984 . S
H395 N388 0.984 . S
H396 N384 0.984 . S
H397 N384 0.985 . S
C398 C399 1.363 . S
C398 C404 1.379 . S
C398 N406 1.356 . S
C399 C398 1.363 . S
C399 C405 1.363 . S
C400 C401 1.363 . S
C400 C405 1.379 . S
C400 N407 1.356 . S
C401 C400 1.363 . S
C401 C404 1.363 . S
N402 C404 1.356 . S
N402 H414 0.984 . S
N402 H415 0.985 . S
N403 C405 1.356 . S
N403 H408 0.984 . S
N403 H409 0.985 . S
C404 C398 1.379 . S
C404 C401 1.363 . S
C404 N402 1.356 . S
C405 C399 1.363 . S
C405 C400 1.379 . S
C405 N403 1.356 . S
N406 C398 1.356 . S
N406 H412 0.984 . S
N406 H413 0.984 . S
N407 C400 1.356 . S
N407 H410 0.984 . S
N407 H411 0.985 . S
H408 N403 0.984 . S
H409 N403 0.985 . S
H410 N407 0.984 . S
H411 N407 0.985 . S
H412 N406 0.984 . S
H413 N406 0.984 . S
H414 N402 0.984 . S
H415 N402 0.985 . S
C416 C417 1.363 . S
C416 C422 1.379 . S
C416 N424 1.356 . S
C417 C416 1.363 . S
C417 C423 1.363 . S
C418 C419 1.363 . S
C418 C423 1.379 . S
C418 N425 1.356 . S
C419 C418 1.363 . S
C419 C422 1.363 . S
N420 C422 1.356 . S
N420 H432 0.984 . S
N420 H433 0.985 . S
N421 C423 1.356 . S
N421 H426 0.984 . S
N421 H427 0.985 . S
C422 C416 1.379 . S
C422 C419 1.363 . S
C422 N420 1.356 . S
C423 C417 1.363 . S
C423 C418 1.379 . S
C423 N421 1.356 . S
N424 C416 1.356 . S
N424 H430 0.984 . S
N424 H431 0.984 . S
N425 C418 1.356 . S
N425 H428 0.984 . S
N425 H429 0.985 . S
H426 N421 0.984 . S
H427 N421 0.985 . S
H428 N425 0.984 . S
H429 N425 0.985 . S
H430 N424 0.984 . S
H431 N424 0.984 . S
H432 N420 0.984 . S
H433 N420 0.985 . S
C434 C435 1.363 . S
C434 C440 1.379 . S
C434 N442 1.356 . S
C435 C434 1.363 . S
C435 C441 1.363 . S
C436 C437 1.363 . S
C436 C441 1.379 . S
C436 N443 1.356 . S
C437 C436 1.363 . S
C437 C440 1.363 . S
N438 C440 1.356 . S
N438 H450 0.984 . S
N438 H451 0.985 . S
N439 C441 1.356 . S
N439 H444 0.984 . S
N439 H445 0.985 . S
C440 C434 1.379 . S
C440 C437 1.363 . S
C440 N438 1.356 . S
C441 C435 1.363 . S
C441 C436 1.379 . S
C441 N439 1.356 . S
N442 C434 1.356 . S
N442 H448 0.984 . S
N442 H449 0.984 . S
N443 C436 1.356 . S
N443 H446 0.984 . S
N443 H447 0.985 . S
H444 N439 0.984 . S
H445 N439 0.985 . S
H446 N443 0.984 . S
H447 N443 0.985 . S
H448 N442 0.984 . S
H449 N442 0.984 . S
H450 N438 0.984 . S
H451 N438 0.985 . S
C452 C453 1.363 . S
C452 C458 1.379 . S
C452 N460 1.356 . S
C453 C452 1.363 . S
C453 C459 1.363 1_445 S
C454 C455 1.364 1_565 S
C454 C459 1.379 . S
C454 N461 1.356 . S
C455 C454 1.364 1_545 S
C455 C458 1.362 1_655 S
N456 C458 1.356 . S
N456 H468 0.984 . S
N456 H469 0.985 . S
N457 C459 1.356 . S
N457 H462 0.984 . S
N457 H463 0.985 . S
C458 C452 1.379 . S
C458 C455 1.362 1_455 S
C458 N456 1.356 . S
C459 C453 1.363 1_665 S
C459 C454 1.379 . S
C459 N457 1.356 . S
N460 C452 1.356 . S
N460 H466 0.984 . S
N460 H467 0.984 . S
N461 C454 1.356 . S
N461 H464 0.984 . S
N461 H465 0.985 . S
H462 N457 0.984 . S
H463 N457 0.985 . S
H464 N461 0.984 . S
H465 N461 0.985 . S
H466 N460 0.984 . S
H467 N460 0.984 . S
H468 N456 0.984 . S
H469 N456 0.985 . S
C470 C471 1.363 1_565 S
C470 C476 1.379 . S
C470 N478 1.356 . S
C471 C470 1.363 1_545 S
C471 C477 1.363 1_455 S
C472 C473 1.363 1_655 S
C472 C477 1.379 . S
C472 N479 1.356 . S
C473 C472 1.363 1_455 S
C473 C476 1.363 1_545 S
N474 C476 1.356 . S
N474 H486 0.984 . S
N474 H487 0.985 . S
N475 C477 1.356 . S
N475 H480 0.984 . S
N475 H481 0.985 . S
C476 C470 1.379 . S
C476 C473 1.363 1_565 S
C476 N474 1.356 . S
C477 C471 1.363 1_655 S
C477 C472 1.379 . S
C477 N475 1.356 . S
N478 C470 1.356 . S
N478 H484 0.984 . S
N478 H485 0.984 . S
N479 C472 1.356 . S
N479 H482 0.984 . S
N479 H483 0.985 . S
H480 N475 0.984 . S
H481 N475 0.985 . S
H482 N479 0.984 . S
H483 N479 0.985 . S
H484 N478 0.984 . S
H485 N478 0.984 . S
H486 N474 0.984 . S
H487 N474 0.985 . S
C488 C489 1.363 . S
C488 C494 1.379 . S
C488 N496 1.356 . S
C489 C488 1.363 . S
C489 C495 1.363 . S
C490 C491 1.363 . S
C490 C495 1.379 . S
C490 N497 1.356 . S
C491 C490 1.363 . S
C491 C494 1.363 . S
N492 C494 1.356 . S
N492 H504 0.984 . S
N492 H505 0.985 . S
N493 C495 1.356 . S
N493 H498 0.984 . S
N493 H499 0.985 . S
C494 C488 1.379 . S
C494 C491 1.363 . S
C494 N492 1.356 . S
C495 C489 1.363 . S
C495 C490 1.379 . S
C495 N493 1.356 . S
N496 C488 1.356 . S
N496 H502 0.984 . S
N496 H503 0.984 . S
N497 C490 1.356 . S
N497 H500 0.984 . S
N497 H501 0.985 . S
H498 N493 0.984 . S
H499 N493 0.985 . S
H500 N497 0.984 . S
H501 N497 0.985 . S
H502 N496 0.984 . S
H503 N496 0.984 . S
H504 N492 0.984 . S
H505 N492 0.985 . S
C506 C507 1.363 . S
C506 C512 1.379 . S
C506 N514 1.356 . S
C507 C506 1.363 . S
C507 C513 1.363 . S
C508 C509 1.363 . S
C508 C513 1.379 . S
C508 N515 1.356 . S
C509 C508 1.363 . S
C509 C512 1.363 . S
N510 C512 1.356 . S
N510 H522 0.984 . S
N510 H523 0.985 . S
N511 C513 1.356 . S
N511 H516 0.984 . S
N511 H517 0.985 . S
C512 C506 1.379 . S
C512 C509 1.363 . S
C512 N510 1.356 . S
C513 C507 1.363 . S
C513 C508 1.379 . S
C513 N511 1.356 . S
N514 C506 1.356 . S
N514 H520 0.984 . S
N514 H521 0.984 . S
N515 C508 1.356 . S
N515 H518 0.984 . S
N515 H519 0.985 . S
H516 N511 0.984 . S
H517 N511 0.985 . S
H518 N515 0.984 . S
H519 N515 0.985 . S
H520 N514 0.984 . S
H521 N514 0.984 . S
H522 N510 0.984 . S
H523 N510 0.985 . S
C311 C279 1.592 . S
C309 C29 1.625 . S
C327 C8 1.596 . S
C329 C219 1.577 . S
C345 C0 1.580 . S
C347 C249 1.408 1_556 S
C363 C17 1.609 . S
C365 C189 1.429 . S
C381 C63 1.625 . S
C383 C159 1.592 . S
C399 C42 1.596 . S
C401 C99 1.576 . S
C419 C129 1.408 . S
C417 C34 1.580 . S
C437 C69 1.429 . S
C435 C51 1.610 . S
C453 C4 1.490 . S
C455 C88 1.472 . S
C471 C13 1.490 . S
C473 C148 1.462 . S
C491 C208 1.471 . S
C489 C38 1.490 . S
C507 C47 1.489 . S
C509 C268 1.462 . S
