# Generated by pormake.
# Topology pyr, (3,6)-cn, num edge types: 1
# Building blocks:
#     Node 0, Type 0, BuildingBlock: BELTOD_clean_linker_0, # of connection points: 3
#     Node 1, Type 0, BuildingBlock: BELTOD_clean_linker_0, # of connection points: 3
#     Node 2, Type 0, BuildingBlock: BELTOD_clean_linker_0, # of connection points: 3
#     Node 3, Type 0, BuildingBlock: BELTOD_clean_linker_0, # of connection points: 3
#     Node 4, Type 0, BuildingBlock: BELTOD_clean_linker_0, # of connection points: 3
#     Node 5, Type 0, BuildingBlock: BELTOD_clean_linker_0, # of connection points: 3
#     Node 6, Type 0, BuildingBlock: BELTOD_clean_linker_0, # of connection points: 3
#     Node 7, Type 0, BuildingBlock: BELTOD_clean_linker_0, # of connection points: 3
#     Node 8, Type 1, BuildingBlock: INOVEN_clean_sbu_0, # of connection points: 6
#     Node 9, Type 1, BuildingBlock: INOVEN_clean_sbu_0, # of connection points: 6
#     Node 10, Type 1, BuildingBlock: INOVEN_clean_sbu_0, # of connection points: 6
#     Node 11, Type 1, BuildingBlock: INOVEN_clean_sbu_0, # of connection points: 6
#     Edge 12, Type (0, 1), BuildingBlock: KIFKEQ_clean_linker_1, # of connection points: 2
#     Edge 13, Type (0, 1), BuildingBlock: KIFKEQ_clean_linker_1, # of connection points: 2
#     Edge 14, Type (0, 1), BuildingBlock: KIFKEQ_clean_linker_1, # of connection points: 2
#     Edge 15, Type (0, 1), BuildingBlock: KIFKEQ_clean_linker_1, # of connection points: 2
#     Edge 16, Type (0, 1), BuildingBlock: KIFKEQ_clean_linker_1, # of connection points: 2
#     Edge 17, Type (0, 1), BuildingBlock: KIFKEQ_clean_linker_1, # of connection points: 2
#     Edge 18, Type (0, 1), BuildingBlock: KIFKEQ_clean_linker_1, # of connection points: 2
#     Edge 19, Type (0, 1), BuildingBlock: KIFKEQ_clean_linker_1, # of connection points: 2
#     Edge 20, Type (0, 1), BuildingBlock: KIFKEQ_clean_linker_1, # of connection points: 2
#     Edge 21, Type (0, 1), BuildingBlock: KIFKEQ_clean_linker_1, # of connection points: 2
#     Edge 22, Type (0, 1), BuildingBlock: KIFKEQ_clean_linker_1, # of connection points: 2
#     Edge 23, Type (0, 1), BuildingBlock: KIFKEQ_clean_linker_1, # of connection points: 2
#     Edge 24, Type (0, 1), BuildingBlock: KIFKEQ_clean_linker_1, # of connection points: 2
#     Edge 25, Type (0, 1), BuildingBlock: KIFKEQ_clean_linker_1, # of connection points: 2
#     Edge 26, Type (0, 1), BuildingBlock: KIFKEQ_clean_linker_1, # of connection points: 2
#     Edge 27, Type (0, 1), BuildingBlock: KIFKEQ_clean_linker_1, # of connection points: 2
#     Edge 28, Type (0, 1), BuildingBlock: KIFKEQ_clean_linker_1, # of connection points: 2
#     Edge 29, Type (0, 1), BuildingBlock: KIFKEQ_clean_linker_1, # of connection points: 2
#     Edge 30, Type (0, 1), BuildingBlock: KIFKEQ_clean_linker_1, # of connection points: 2
#     Edge 31, Type (0, 1), BuildingBlock: KIFKEQ_clean_linker_1, # of connection points: 2
#     Edge 32, Type (0, 1), BuildingBlock: KIFKEQ_clean_linker_1, # of connection points: 2
#     Edge 33, Type (0, 1), BuildingBlock: KIFKEQ_clean_linker_1, # of connection points: 2
#     Edge 34, Type (0, 1), BuildingBlock: KIFKEQ_clean_linker_1, # of connection points: 2
#     Edge 35, Type (0, 1), BuildingBlock: KIFKEQ_clean_linker_1, # of connection points: 2
# Relax obj value: 0.100
# Max RMSD: 0.128
# Mean RMSD: 0.060
data_MOF--net-pyr--node1-INOVEN_clean_sbu_0--node2-BELTOD_clean_linker_0--edge1-KIFKEQ_clean_linker_1
_symmetry_space_group_name_H-M    P1
_symmetry_Int_Tables_number       1
_symmetry_cell_setting            triclinic
loop_
_symmetry_equiv_pos_as_xyz
'x, y, z'
_cell_length_a     44.096313
_cell_length_b     46.505262
_cell_length_c     41.165073
_cell_angle_alpha  91.182858
_cell_angle_beta   88.635142
_cell_angle_gamma 100.36459
loop_
_atom_site_label
_atom_site_type_symbol
_atom_site_fract_x
_atom_site_fract_y
_atom_site_fract_z
_atom_type_partial_charge
P0 P 0.35516 0.31099 0.27753 0.0
H1 H 0.41226 0.3068 0.24182 0.0
H2 H 0.43125 0.26632 0.21449 0.0
H3 H 0.34868 0.20747 0.24587 0.0
H4 H 0.3289 0.24844 0.2701 0.0
H5 H 0.35515 0.37051 0.25472 0.0
H6 H 0.31873 0.39052 0.22163 0.0
H7 H 0.26814 0.30309 0.20458 0.0
H8 H 0.30485 0.28343 0.23683 0.0
H9 H 0.35011 0.26414 0.32594 0.0
H10 H 0.30426 0.33613 0.30606 0.0
O11 O 0.38447 0.33648 0.28974 0.0
H12 H 0.30767 0.2436 0.3623 0.0
H13 H 0.26278 0.3169 0.34397 0.0
C14 C 0.36971 0.28051 0.25912 0.0
C15 C 0.39838 0.28511 0.24287 0.0
C16 C 0.4093 0.26178 0.22742 0.0
C17 C 0.39181 0.23325 0.22814 0.0
C18 C 0.36285 0.22897 0.24427 0.0
C19 C 0.35167 0.25243 0.25889 0.0
C20 C 0.333 0.32545 0.24776 0.0
C21 C 0.33672 0.35565 0.24305 0.0
C22 C 0.31567 0.36707 0.22444 0.0
C23 C 0.29042 0.34843 0.21049 0.0
C24 C 0.28755 0.31808 0.21439 0.0
C25 C 0.30861 0.30675 0.23288 0.0
C26 C 0.3293 0.30055 0.31161 0.0
C27 C 0.33112 0.27577 0.32973 0.0
C28 C 0.30695 0.26426 0.35097 0.0
C29 C 0.28113 0.27803 0.35522 0.0
C30 C 0.2816 0.30502 0.34021 0.0
C31 C 0.30545 0.31613 0.31858 0.0
P32 P 0.3485 0.93967 0.57754 0.0
H33 H 0.39599 0.977 0.61597 0.0
H34 H 0.40321 0.98342 0.67459 0.0
H35 H 0.32157 0.91821 0.69184 0.0
H36 H 0.31497 0.91154 0.63333 0.0
H37 H 0.40111 0.9138 0.55636 0.0
H38 H 0.40838 0.86319 0.55028 0.0
H39 H 0.3113 0.83362 0.57096 0.0
H40 H 0.30451 0.88432 0.57808 0.0
H41 H 0.30836 0.97468 0.61159 0.0
H42 H 0.30627 0.92173 0.52407 0.0
O43 O 0.37466 0.96309 0.55682 0.0
H44 H 0.25655 0.98317 0.60131 0.0
H45 H 0.25408 0.93001 0.51373 0.0
C46 C 0.35493 0.94385 0.62043 0.0
C47 C 0.37979 0.964 0.6324 0.0
C48 C 0.38376 0.96775 0.66591 0.0
C49 C 0.36289 0.95139 0.68789 0.0
C50 C 0.33828 0.93088 0.67562 0.0
C51 C 0.33441 0.92712 0.64218 0.0
C52 C 0.35219 0.9028 0.56697 0.0
C53 C 0.38128 0.89642 0.55881 0.0
C54 C 0.38535 0.86744 0.55524 0.0
C55 C 0.36038 0.8443 0.56003 0.0
C56 C 0.33105 0.85089 0.56734 0.0
C57 C 0.32706 0.8799 0.57107 0.0
C58 C 0.31075 0.94678 0.56912 0.0
C59 C 0.29664 0.96458 0.59033 0.0
C60 C 0.26696 0.96939 0.58449 0.0
C61 C 0.25108 0.95687 0.55701 0.0
C62 C 0.26575 0.93989 0.53514 0.0
C63 C 0.29546 0.93503 0.5411 0.0
P64 P 0.66784 0.33451 0.85358 0.0
H65 H 0.73203 0.32757 0.86013 0.0
H66 H 0.77531 0.35375 0.89012 0.0
H67 H 0.71668 0.41013 0.93296 0.0
H68 H 0.67337 0.38429 0.90105 0.0
H69 H 0.63092 0.27881 0.83337 0.0
H70 H 0.60397 0.23656 0.86247 0.0
H71 H 0.62277 0.28359 0.95358 0.0
H72 H 0.65115 0.32556 0.9239 0.0
H73 H 0.68945 0.3906 0.82221 0.0
H74 H 0.60341 0.33043 0.83194 0.0
O75 O 0.68461 0.317 0.82439 0.0
H76 H 0.66668 0.41824 0.78241 0.0
H77 H 0.58043 0.35786 0.79185 0.0
C78 C 0.69931 0.35405 0.87791 0.0
C79 C 0.72831 0.34563 0.87581 0.0
C80 C 0.75322 0.36058 0.89347 0.0
C81 C 0.74991 0.38421 0.91444 0.0
C82 C 0.72054 0.39239 0.91685 0.0
C83 C 0.69556 0.37748 0.89878 0.0
C84 C 0.64327 0.30554 0.87625 0.0
C85 C 0.62905 0.28023 0.85962 0.0
C86 C 0.61335 0.25591 0.8765 0.0
C87 C 0.6109 0.25615 0.91075 0.0
C88 C 0.62444 0.28205 0.92736 0.0
C89 C 0.64045 0.30639 0.91032 0.0
C90 C 0.64805 0.35875 0.83098 0.0
C91 C 0.66536 0.38373 0.8165 0.0
C92 C 0.65238 0.39933 0.7932 0.0
C93 C 0.62164 0.39033 0.78346 0.0
C94 C 0.60402 0.36577 0.79881 0.0
C95 C 0.61715 0.35005 0.822 0.0
P96 P 0.82465 0.69041 0.34236 0.0
H97 H 0.85976 0.74458 0.31645 0.0
H98 H 0.8845 0.7905 0.34153 0.0
H99 H 0.86554 0.75256 0.43649 0.0
H100 H 0.83982 0.70688 0.41096 0.0
H101 H 0.80606 0.63682 0.30441 0.0
H102 H 0.83371 0.60887 0.26674 0.0
H103 H 0.91956 0.66471 0.29143 0.0
H104 H 0.89165 0.69246 0.32934 0.0
H105 H 0.76874 0.70644 0.37013 0.0
H106 H 0.81559 0.63307 0.37582 0.0
O107 O 0.80518 0.70377 0.3137 0.0
H108 H 0.7263 0.68101 0.40367 0.0
H109 H 0.77281 0.60716 0.40946 0.0
C110 C 0.84766 0.72226 0.36173 0.0
C111 C 0.86121 0.74602 0.34268 0.0
C112 C 0.87555 0.77237 0.35717 0.0
C113 C 0.87699 0.77568 0.39126 0.0
C114 C 0.86443 0.75127 0.41025 0.0
C115 C 0.84993 0.7249 0.39565 0.0
C116 C 0.84669 0.66653 0.32021 0.0
C117 C 0.83093 0.64268 0.30229 0.0
C118 C 0.84679 0.62691 0.28035 0.0
C119 C 0.87896 0.63459 0.27562 0.0
C120 C 0.89487 0.65795 0.29449 0.0
C121 C 0.87888 0.67387 0.31633 0.0
C122 C 0.79519 0.67155 0.36996 0.0
C123 C 0.76992 0.68479 0.37866 0.0
C124 C 0.74549 0.6701 0.39774 0.0
C125 C 0.74573 0.64175 0.40895 0.0
C126 C 0.77176 0.62893 0.40129 0.0
C127 C 0.79624 0.64369 0.38194 0.0
P128 P 0.71559 0.80653 0.88801 0.0
H129 H 0.68892 0.81879 0.9509 0.0
H130 H 0.64698 0.84452 0.96642 0.0
H131 H 0.62351 0.84807 0.86555 0.0
H132 H 0.66485 0.82151 0.85012 0.0
H133 H 0.75416 0.7666 0.86231 0.0
H134 H 0.7648 0.72043 0.88112 0.0
H135 H 0.69656 0.72013 0.95805 0.0
H136 H 0.68451 0.76598 0.93789 0.0
H137 H 0.74462 0.85873 0.85414 0.0
H138 H 0.70409 0.76996 0.82852 0.0
O139 O 0.74333 0.82753 0.90904 0.0
H140 H 0.76224 0.86744 0.79799 0.0
H141 H 0.7227 0.77832 0.77216 0.0
C142 C 0.68008 0.81825 0.89941 0.0
C143 C 0.67406 0.82412 0.93221 0.0
C144 C 0.65014 0.83888 0.94105 0.0
C145 C 0.63223 0.84843 0.91711 0.0
C146 C 0.63718 0.84109 0.88439 0.0
C147 C 0.66079 0.82586 0.87562 0.0
C148 C 0.71773 0.76942 0.8979 0.0
C149 C 0.74021 0.75603 0.88215 0.0
C150 C 0.74645 0.7296 0.89304 0.0
C151 C 0.73121 0.71658 0.92077 0.0
C152 C 0.70831 0.72963 0.93635 0.0
C153 C 0.70146 0.75583 0.92483 0.0
C154 C 0.72429 0.81338 0.84566 0.0
C155 C 0.73936 0.84116 0.83635 0.0
C156 C 0.74913 0.84619 0.8042 0.0
C157 C 0.74404 0.82343 0.78089 0.0
C158 C 0.72713 0.79609 0.78982 0.0
C159 C 0.71674 0.79128 0.82196 0.0
P160 P 0.85701 0.29035 0.36784 0.0
H161 H 0.86192 0.33521 0.41962 0.0
H162 H 0.82299 0.35287 0.45459 0.0
H163 H 0.75129 0.293 0.40578 0.0
H164 H 0.78994 0.27522 0.37184 0.0
H165 H 0.91652 0.27285 0.37951 0.0
H166 H 0.93031 0.23166 0.40848 0.0
H167 H 0.83394 0.20019 0.43078 0.0
H168 H 0.82044 0.24125 0.40212 0.0
H169 H 0.82785 0.32049 0.31955 0.0
H170 H 0.8476 0.23389 0.3321 0.0
O171 O 0.88773 0.31651 0.36157 0.0
H172 H 0.7956 0.3027 0.27314 0.0
H173 H 0.81521 0.21597 0.28635 0.0
C174 C 0.82875 0.30447 0.39263 0.0
C175 C 0.83777 0.32608 0.41644 0.0
C176 C 0.81556 0.33608 0.43641 0.0
C177 C 0.78408 0.32425 0.43303 0.0
C178 C 0.77534 0.30227 0.4094 0.0
C179 C 0.79745 0.29239 0.38956 0.0
C180 C 0.86754 0.26041 0.38924 0.0
C181 C 0.89843 0.25716 0.39083 0.0
C182 C 0.90624 0.23355 0.4072 0.0
C183 C 0.8832 0.21284 0.42214 0.0
C184 C 0.85225 0.21609 0.42011 0.0
C185 C 0.84451 0.23958 0.40368 0.0
C186 C 0.8398 0.27848 0.32951 0.0
C187 C 0.82578 0.29781 0.31188 0.0
C188 C 0.80719 0.28758 0.28556 0.0
C189 C 0.80258 0.25787 0.27631 0.0
C190 C 0.81843 0.23902 0.2927 0.0
C191 C 0.83687 0.24925 0.3191 0.0
P192 P 0.36076 0.68608 0.21535 0.0
H193 H 0.33943 0.66721 0.15048 0.0
H194 H 0.28948 0.64572 0.1285 0.0
H195 H 0.24674 0.65364 0.22295 0.0
H196 H 0.29731 0.67551 0.24489 0.0
H197 H 0.42158 0.72296 0.20963 0.0
H198 H 0.43961 0.77323 0.19335 0.0
H199 H 0.34527 0.78638 0.18877 0.0
H200 H 0.32739 0.73539 0.20451 0.0
H201 H 0.33455 0.6329 0.25098 0.0
H202 H 0.40272 0.71003 0.26847 0.0
O203 O 0.38462 0.67007 0.19204 0.0
H204 H 0.34954 0.61118 0.30014 0.0
H205 H 0.41892 0.688 0.31694 0.0
C206 C 0.32243 0.67242 0.19959 0.0
C207 C 0.3194 0.66435 0.16661 0.0
C208 C 0.29068 0.65186 0.15403 0.0
C209 C 0.26392 0.64733 0.17396 0.0
C210 C 0.26675 0.65668 0.2068 0.0
C211 C 0.29572 0.66911 0.21946 0.0
C212 C 0.37309 0.72518 0.20857 0.0
C213 C 0.40469 0.73673 0.20568 0.0
C214 C 0.41502 0.76575 0.19635 0.0
C215 C 0.39405 0.78435 0.1896 0.0
C216 C 0.36226 0.77286 0.19327 0.0
C217 C 0.35192 0.74366 0.20267 0.0
C218 C 0.36672 0.67363 0.25616 0.0
C219 C 0.35224 0.64559 0.26581 0.0
C220 C 0.36138 0.63286 0.29382 0.0
C221 C 0.38585 0.64749 0.31282 0.0
C222 C 0.39976 0.67597 0.30352 0.0
C223 C 0.39042 0.68875 0.27556 0.0
P224 P 0.17004 0.34624 0.73646 0.0
H225 H 0.19158 0.30768 0.68821 0.0
H226 H 0.16622 0.26609 0.65595 0.0
H227 H 0.07767 0.28016 0.69346 0.0
H228 H 0.1034 0.3221 0.7257 0.0
H229 H 0.22842 0.38004 0.75847 0.0
H230 H 0.27311 0.40815 0.73037 0.0
H231 H 0.22596 0.39168 0.63916 0.0
H232 H 0.18086 0.36453 0.66783 0.0
H233 H 0.12072 0.32908 0.78498 0.0
H234 H 0.16989 0.40968 0.74538 0.0
O235 O 0.18681 0.32752 0.76273 0.0
H236 H 0.09632 0.35666 0.82611 0.0
H237 H 0.14578 0.43737 0.78653 0.0
C238 C 0.14952 0.31849 0.70913 0.0
C239 C 0.16664 0.30229 0.68901 0.0
C240 C 0.15203 0.27837 0.67049 0.0
C241 C 0.11978 0.26958 0.67192 0.0
C242 C 0.10256 0.28606 0.69189 0.0
C243 C 0.11727 0.31026 0.71026 0.0
C244 C 0.20146 0.36963 0.71525 0.0
C245 C 0.22761 0.38266 0.73244 0.0
C246 C 0.25333 0.39858 0.71621 0.0
C247 C 0.25363 0.40188 0.68224 0.0
C248 C 0.22675 0.38979 0.66528 0.0
C249 C 0.2009 0.37401 0.68165 0.0
C250 C 0.1469 0.36714 0.7616 0.0
C251 C 0.12566 0.35274 0.78452 0.0
C252 C 0.11178 0.36861 0.80822 0.0
C253 C 0.11918 0.39936 0.80998 0.0
C254 C 0.13979 0.41375 0.78631 0.0
C255 C 0.15342 0.39785 0.76243 0.0
Gd256 Gd 1.00288 0.03964 0.49058 0.0
Gd257 Gd 0.98972 1.01463 0.55664 0.0
C258 C 0.02696 0.07911 0.55555 0.0
C259 C 0.01165 0.07349 0.44105 0.0
C260 C 0.03608 0.09863 0.4329 0.0
C261 C 0.05759 0.09555 0.40796 0.0
C262 C 0.03993 0.12475 0.45145 0.0
C263 C 0.08784 0.14299 0.42217 0.0
C264 C 0.06556 0.14676 0.44607 0.0
C265 C 0.08328 0.11744 0.40275 0.0
C266 C 0.04569 1.00983 0.5111 0.0
C267 C 0.96629 0.9745 0.49226 0.0
C268 C 0.98086 0.98098 0.60615 0.0
C269 C 0.95517 0.95756 0.61543 0.0
C270 C 0.92453 0.96192 0.61412 0.0
C271 C 0.96106 0.93028 0.62468 0.0
C272 C 0.90601 0.91251 0.63295 0.0
C273 C 0.93671 0.90789 0.63326 0.0
C274 C 0.90028 0.93975 0.62301 0.0
C275 C 0.94691 0.04423 0.53473 0.0
O276 O 0.01849 0.07878 0.52479 0.0
O277 O 0.02289 0.05467 0.57215 0.0
O278 O 0.02054 0.04816 0.44156 0.0
O279 O 0.99281 0.07711 0.46522 0.0
O280 O 0.03687 1.00976 0.48137 0.0
O281 O 0.03292 1.02705 0.52843 0.0
O282 O 0.97431 0.97541 0.52312 0.0
O283 O 0.97075 0.99859 0.47489 0.0
O284 O 0.97487 1.00755 0.60665 0.0
O285 O 0.99726 0.97546 0.58063 0.0
O286 O 0.95506 0.04477 0.56477 0.0
O287 O 0.9603 1.02684 0.51869 0.0
H288 H 0.05506 0.07576 0.39315 0.0
H289 H 0.02368 0.12788 0.47077 0.0
H290 H 0.06852 0.16625 0.46139 0.0
H291 H 0.0998 0.11422 0.38372 0.0
H292 H 0.91923 0.98262 0.60659 0.0
H293 H 0.98452 0.92633 0.62535 0.0
H294 H 0.94195 0.88707 0.64035 0.0
H295 H 0.87708 0.94439 0.62301 0.0
Gd296 Gd 0.52691 0.03614 0.08387 0.0
Gd297 Gd 0.46379 1.02212 0.05092 0.0
C298 C 0.47093 0.06753 0.10972 0.0
C299 C 0.57816 0.05762 0.11155 0.0
C300 C 0.59548 0.08497 0.12565 0.0
C301 C 0.60295 0.08578 0.15862 0.0
C302 C 0.60694 0.1093 0.10635 0.0
C303 C 0.63452 0.13402 0.15251 0.0
C304 C 0.62635 0.13359 0.11967 0.0
C305 C 0.62216 0.11006 0.17195 0.0
C306 C 0.49244 0.98296 0.09841 0.0
C307 C 0.52216 0.99723 1.01978 0.0
C308 C 0.41122 0.99656 1.02957 0.0
C309 C 0.39919 0.99301 0.99636 0.0
C310 C 0.4028 1.01693 0.97543 0.0
C311 C 0.38721 0.96498 0.98419 0.0
C312 C 0.3851 0.98447 0.93002 0.0
C313 C 0.38021 0.96071 0.95129 0.0
C314 C 0.39569 1.0127 0.94265 0.0
C315 C 0.49842 0.07036 1.02185 0.0
O316 O 0.50112 0.06947 0.10646 0.0
O317 O 0.45133 0.04731 0.09438 0.0
O318 O 0.55357 0.04488 0.12765 0.0
O319 O 0.57497 0.05614 0.07996 0.0
O320 O 0.52211 0.98825 0.09448 0.0
O321 O 0.48213 1.00655 0.09581 0.0
O322 O 0.49193 0.99311 1.02408 0.0
O323 O 0.54089 1.01683 0.03691 0.0
O324 O 0.41584 1.02314 0.04203 0.0
O325 O 0.43376 0.9825 1.03507 0.0
O326 O 0.47083 0.05843 1.01351 0.0
O327 O 0.50593 0.05555 0.04458 0.0
H328 H 0.5947 0.06719 0.17391 0.0
H329 H 0.60159 0.10934 0.0808 0.0
H330 H 0.63534 0.15184 0.10419 0.0
H331 H 0.62837 0.10952 0.1972 0.0
H332 H 0.41209 0.03883 0.98405 0.0
H333 H 0.38448 0.94621 0.99987 0.0
H334 H 0.3723 0.93866 0.94227 0.0
H335 H 0.39916 1.03152 0.92703 0.0
Gd336 Gd 0.50541 0.49541 0.5279 0.0
Gd337 Gd 0.50053 0.54416 0.57241 0.0
C338 C 0.53192 0.49477 0.60129 0.0
C339 C 0.52439 0.45455 0.49407 0.0
C340 C 0.55085 0.4394 0.49619 0.0
C341 C 0.54588 0.40878 0.49614 0.0
C342 C 0.58106 0.45518 0.49859 0.0
C343 C 0.60117 0.40978 0.49907 0.0
C344 C 0.60595 0.44052 0.49982 0.0
C345 C 0.57077 0.39408 0.49773 0.0
C346 C 0.44967 0.49003 0.5586 0.0
C347 C 0.47463 0.54556 0.49814 0.0
C348 C 0.4816 0.58434 0.60762 0.0
C349 C 0.46529 0.60854 0.60158 0.0
C350 C 0.47326 0.63486 0.61903 0.0
C351 C 0.44217 0.60584 0.57826 0.0
C352 C 0.43511 0.65569 0.59 0.0
C353 C 0.42721 0.62922 0.5725 0.0
C354 C 0.45833 0.65825 0.6133 0.0
C355 C 0.55621 0.54963 0.54089 0.0
O356 O 0.53559 0.48753 0.5703 0.0
O357 O 0.51517 0.51472 0.60923 0.0
O358 O 0.50347 0.44921 0.51723 0.0
O359 O 0.53066 0.48215 0.48632 0.0
O360 O 0.45352 0.48322 0.52826 0.0
O361 O 0.47554 0.49869 0.5714 0.0
O362 O 0.47468 0.55596 0.52839 0.0
O363 O 0.48751 0.52266 0.49084 0.0
O364 O 0.50964 0.5871 0.59561 0.0
O365 O 0.46566 0.55798 0.60372 0.0
O366 O 0.55268 0.55645 0.57132 0.0
O367 O 0.53014 0.54091 0.52862 0.0
H368 H 0.52273 0.39622 0.4947 0.0
H369 H 0.58557 0.47887 0.49908 0.0
H370 H 0.629 0.45336 0.50036 0.0
H371 H 0.56618 0.37041 0.4977 0.0
H372 H 0.49118 0.63738 0.63697 0.0
H373 H 0.4356 0.58565 0.56453 0.0
H374 H 0.40925 0.62646 0.55462 0.0
H375 H 0.46531 0.67851 0.62679 0.0
Gd376 Gd 0.00992 0.48767 0.0607 0.0
Gd377 Gd 1.00077 0.54741 1.03083 0.0
C378 C 0.0612 0.54739 0.07327 0.0
C379 C 0.03126 0.43988 0.0656 0.0
C380 C 0.05471 0.42956 0.08462 0.0
C381 C 0.06975 0.44688 0.10978 0.0
C382 C 0.06439 0.40351 0.07529 0.0
C383 C 0.10497 0.41252 0.1153 0.0
C384 C 0.08929 0.39503 0.09046 0.0
C385 C 0.09463 0.43837 0.1251 0.0
C386 C 0.98452 0.52047 0.10631 0.0
C387 C 0.94601 0.48904 1.02432 0.0
C388 C 0.97902 0.59257 1.01389 0.0
C389 C 0.94793 0.59797 1.00667 0.0
C390 C 0.93004 0.58175 0.98244 0.0
C391 C 0.93576 0.61945 1.0245 0.0
C392 C 0.88884 0.60927 0.99317 0.0
C393 C 0.90643 0.62498 1.01791 0.0
C394 C 0.90083 0.58745 0.97568 0.0
C395 C 0.03404 0.51461 0.99417 0.0
O396 O 0.0548 0.51834 0.0722 0.0
O397 O 0.04236 0.56365 0.06142 0.0
O398 O 1.00628 0.44459 0.08126 0.0
O399 O 0.04226 0.4604 0.04494 0.0
O400 O 0.9913 0.495 0.11213 0.0
O401 O 0.99214 0.52628 0.07721 0.0
O402 O 0.95456 0.51783 1.02171 0.0
O403 O 0.9641 0.47245 0.03698 0.0
O404 O 0.9913 0.57602 0.99314 0.0
O405 O 0.9838 0.58705 0.04422 0.0
O406 O 0.04014 0.54303 0.9959 0.0
O407 O 0.01018 0.50531 1.01122 0.0
H408 H 0.06272 0.46727 0.11701 0.0
H409 H 0.0533 0.39015 0.05554 0.0
H410 H 0.09689 0.37528 0.0819 0.0
H411 H 0.10592 0.45216 0.14438 0.0
H412 H 0.93864 0.56479 0.96852 0.0
H413 H 0.94908 0.63213 0.04337 0.0
H414 H 0.89789 0.64217 1.03151 0.0
H415 H 0.88765 0.57487 0.95665 0.0
H416 H 0.22153 0.27762 0.33819 0.0
H417 H 0.27563 0.24302 0.40912 0.0
H418 H 0.17503 0.24789 0.36006 0.0
H419 H 0.22871 0.21246 0.43041 0.0
H420 H 0.14687 0.13349 0.41635 0.0
H421 H 0.19355 0.16932 0.40598 0.0
H422 H 0.13986 0.23842 0.40879 0.0
H423 H 0.09294 0.20239 0.41877 0.0
C424 C 0.22353 0.2643 0.35903 0.0
C425 C 0.25252 0.26277 0.3718 0.0
C426 C 0.19674 0.24713 0.37148 0.0
C427 C 0.19825 0.22775 0.39682 0.0
C428 C 0.22696 0.22699 0.41058 0.0
C429 C 0.25381 0.24442 0.39831 0.0
C430 C 0.14507 0.15635 0.41482 0.0
C431 C 0.11627 0.16515 0.41796 0.0
C432 C 0.17183 0.17689 0.40931 0.0
C433 C 0.17034 0.20666 0.4066 0.0
C434 C 0.14164 0.21558 0.41062 0.0
C435 C 0.11485 0.19503 0.41645 0.0
H436 H 0.37829 1.00335 0.72093 0.0
H437 H 0.35485 0.91014 0.73538 0.0
H438 H 0.383 1.01128 0.77943 0.0
H439 H 0.35935 0.91814 0.79397 0.0
H440 H 0.33884 0.94778 0.89854 0.0
H441 H 0.33329 0.93957 0.83997 0.0
H442 H 0.417 1.00203 0.82289 0.0
H443 H 0.42267 1.01008 0.88116 0.0
C444 C 0.37445 0.98453 0.73656 0.0
C445 C 0.36629 0.95611 0.72349 0.0
C446 C 0.37707 0.98909 0.77007 0.0
C447 C 0.37152 0.96533 0.79128 0.0
C448 C 0.36332 0.93691 0.77826 0.0
C449 C 0.36078 0.93234 0.74471 0.0
C450 C 0.3561 0.95964 0.88225 0.0
C451 C 0.38106 0.97974 0.8945 0.0
C452 C 0.35295 0.95492 0.84875 0.0
C453 C 0.37467 0.97024 0.82684 0.0
C454 C 0.3996 0.99029 0.83912 0.0
C455 C 0.40279 0.99494 0.87253 0.0
H456 H 0.65022 0.41226 0.72656 0.0
H457 H 0.56315 0.40337 0.77887 0.0
H458 H 0.62933 0.43732 0.68309 0.0
H459 H 0.54203 0.4279 0.73502 0.0
H460 H 0.52404 0.50027 0.66738 0.0
H461 H 0.54547 0.4754 0.7105 0.0
H462 H 0.59292 0.4299 0.63871 0.0
H463 H 0.57155 0.45503 0.5954 0.0
C464 C 0.62663 0.41574 0.72897 0.0
C465 C 0.60855 0.40578 0.75661 0.0
C466 C 0.61449 0.42988 0.7037 0.0
C467 C 0.58387 0.43481 0.70526 0.0
C468 C 0.56578 0.42488 0.73291 0.0
C469 C 0.57785 0.41049 0.75805 0.0
C470 C 0.53911 0.48505 0.66064 0.0
C471 C 0.54599 0.47984 0.62765 0.0
C472 C 0.55128 0.47053 0.68552 0.0
C473 C 0.57097 0.4504 0.67839 0.0
C474 C 0.57812 0.44539 0.64538 0.0
C475 C 0.56572 0.45977 0.62041 0.0
H476 H 0.93544 0.61734 0.2795 0.0
H477 H 0.86016 0.61642 0.21414 0.0
H478 H 0.9619 0.59162 0.23839 0.0
H479 H 0.88628 0.59023 0.17337 0.0
H480 H 0.95472 0.56656 0.09545 0.0
H481 H 0.93068 0.59537 0.13576 0.0
H482 H 0.95729 0.54346 0.21231 0.0
H483 H 0.98164 0.5152 0.17203 0.0
C484 C 0.92453 0.61176 0.25636 0.0
C485 C 0.89548 0.61892 0.2504 0.0
C486 C 0.93962 0.59675 0.23281 0.0
C487 C 0.92631 0.58868 0.2024 0.0
C488 C 0.89747 0.59622 0.19629 0.0
C489 C 0.88227 0.61098 0.21992 0.0
C490 C 0.95588 0.56169 0.12089 0.0
C491 C 0.97049 0.53884 0.13048 0.0
C492 C 0.94175 0.57795 0.14407 0.0
C493 C 0.94202 0.57191 0.17751 0.0
C494 C 0.95691 0.54913 0.18696 0.0
C495 C 0.97075 0.53277 0.16379 0.0
H496 H 0.45191 0.22482 0.22019 0.0
H497 H 0.35815 0.18436 0.1988 0.0
H498 H 0.47059 0.18506 0.19196 0.0
H499 H 0.37656 0.14308 0.17412 0.0
H500 H 0.4179 0.08777 0.10017 0.0
H501 H 0.39941 0.12759 0.12863 0.0
H502 H 0.47717 0.13725 0.19272 0.0
H503 H 0.49673 0.09865 0.16231 0.0
C504 C 0.43517 0.20747 0.20965 0.0
C505 C 0.4034 0.20817 0.21185 0.0
C506 C 0.44593 0.18419 0.19395 0.0
C507 C 0.42521 0.16054 0.18061 0.0
C508 C 0.39343 0.161 0.18339 0.0
C509 C 0.38274 0.18461 0.19831 0.0
C510 C 0.4309 0.09831 0.12051 0.0
C511 C 0.45869 0.09009 0.12911 0.0
C512 C 0.42021 0.12113 0.13706 0.0
C513 C 0.4366 0.13586 0.16328 0.0
C514 C 0.46414 0.12702 0.17231 0.0
C515 C 0.47526 0.10466 0.15512 0.0
H516 H 0.20333 0.95477 0.60095 0.0
H517 H 0.22758 0.97045 0.49976 0.0
H518 H 0.15171 0.96454 0.59149 0.0
H519 H 0.17621 0.98048 0.49033 0.0
H520 H 0.07814 1.02071 0.5671 0.0
H521 H 0.12693 1.00559 0.57913 0.0
H522 H 0.12289 0.95691 0.48824 0.0
H523 H 0.07474 0.97271 0.47595 0.0
C524 C 0.19763 0.96042 0.57672 0.0
C525 C 0.21947 0.96189 0.55108 0.0
C526 C 0.16811 0.96602 0.57132 0.0
C527 C 0.15985 0.97324 0.54017 0.0
C528 C 0.18164 0.97444 0.51449 0.0
C529 C 0.2111 0.96875 0.51988 0.0
C530 C 0.08761 1.00654 0.54993 0.0
C531 C 0.073 0.99814 0.52044 0.0
C532 C 0.11544 0.99778 0.55684 0.0
C533 C 0.12896 0.98033 0.53443 0.0
C534 C 0.11344 0.97087 0.50566 0.0
C535 C 0.08579 0.97976 0.4987 0.0
H536 H 0.79789 0.36168 0.93992 0.0
H537 H 0.76425 0.4429 0.9322 0.0
H538 H 0.84363 0.38725 0.96624 0.0
H539 H 0.80908 0.46827 0.9611 0.0
H540 H 0.90893 0.51158 0.98242 0.0
H541 H 0.86145 0.48699 0.95759 0.0
H542 H 0.86573 0.40947 1.01224 0.0
H543 H 0.91399 0.43368 1.03563 0.0
C544 C 0.80006 0.38504 0.94384 0.0
C545 C 0.77711 0.40004 0.93325 0.0
C546 C 0.82633 0.39978 0.95968 0.0
C547 C 0.83056 0.43011 0.96614 0.0
C548 C 0.80725 0.44506 0.95627 0.0
C549 C 0.78107 0.43032 0.94003 0.0
C550 C 0.89969 0.48931 0.98924 0.0
C551 C 0.9156 0.47465 1.01096 0.0
C552 C 0.87216 0.47513 0.97507 0.0
C553 C 0.85935 0.4459 0.98247 0.0
C554 C 0.87492 0.43162 1.00502 0.0
C555 C 0.90267 0.44566 1.01878 0.0
H556 H 0.74525 0.60749 0.46306 0.0
H557 H 0.68431 0.63947 0.39767 0.0
H558 H 0.70053 0.58271 0.4944 0.0
H559 H 0.63988 0.61534 0.42919 0.0
H560 H 0.56444 0.54763 0.47477 0.0
H561 H 0.61059 0.56744 0.44272 0.0
H562 H 0.65943 0.59438 0.53106 0.0
H563 H 0.61326 0.57433 0.56305 0.0
C564 C 0.72236 0.60913 0.45524 0.0
C565 C 0.71855 0.62569 0.42785 0.0
C566 C 0.69668 0.59512 0.4734 0.0
C567 C 0.66642 0.59696 0.46445 0.0
C568 C 0.66268 0.6131 0.43674 0.0
C569 C 0.68829 0.62728 0.41881 0.0
C570 C 0.5851 0.55758 0.48736 0.0
C571 C 0.58506 0.55956 0.52149 0.0
C572 C 0.61156 0.56913 0.46897 0.0
C573 C 0.63884 0.58282 0.48418 0.0
C574 C 0.63903 0.58387 0.51841 0.0
C575 C 0.61248 0.57248 0.5368 0.0
H576 H 0.25891 0.32717 0.15593 0.0
H577 H 0.26574 0.39658 0.22831 0.0
H578 H 0.2146 0.34356 0.13294 0.0
H579 H 0.2218 0.41323 0.20485 0.0
H580 H 0.15874 0.44851 0.13249 0.0
H581 H 0.20493 0.43458 0.15428 0.0
H582 H 0.16044 0.34395 0.15215 0.0
H583 H 0.11406 0.35779 0.13103 0.0
C584 C 0.25107 0.34598 0.16686 0.0
C585 C 0.2658 0.36043 0.19411 0.0
C586 C 0.22568 0.35534 0.15369 0.0
C587 C 0.21458 0.3795 0.1673 0.0
C588 C 0.22999 0.39467 0.19371 0.0
C589 C 0.25527 0.38518 0.20705 0.0
C590 C 0.15861 0.42565 0.13713 0.0
C591 C 0.13265 0.40426 0.12993 0.0
C592 C 0.18514 0.41769 0.14946 0.0
C593 C 0.18638 0.38817 0.15463 0.0
C594 C 0.16036 0.36683 0.14781 0.0
C595 C 0.13379 0.37478 0.13572 0.0
H596 H 0.56122 0.21493 0.89115 0.0
H597 H 0.62327 0.23584 0.9713 0.0
H598 H 0.53688 0.17067 0.91773 0.0
H599 H 0.59704 0.19232 0.99933 0.0
H600 H 0.55987 0.09628 1.02946 0.0
H601 H 0.58753 0.14092 1.00364 0.0
H602 H 0.50317 0.15202 0.95805 0.0
H603 H 0.47658 0.10723 0.98226 0.0
C604 C 0.5698 0.21027 0.91452 0.0
C605 C 0.59464 0.2294 0.92865 0.0
C606 C 0.55528 0.18482 0.93025 0.0
C607 C 0.5645 0.17753 0.96117 0.0
C608 C 0.58923 0.1967 0.97551 0.0
C609 C 0.60407 0.22213 0.95952 0.0
C610 C 0.54743 0.10831 1.01378 0.0
C611 C 0.51606 0.09793 1.00768 0.0
C612 C 0.56321 0.1341 0.99906 0.0
C613 C 0.54795 0.15035 0.9781 0.0
C614 C 0.51632 0.14006 0.97298 0.0
C615 C 0.50083 0.11428 0.98722 0.0
H616 H 0.85841 0.80099 0.44784 0.0
H617 H 0.9263 0.81679 0.3698 0.0
H618 H 0.87922 0.84858 0.47185 0.0
H619 H 0.94659 0.86462 0.39356 0.0
H620 H 0.9545 0.96084 0.42777 0.0
H621 H 0.93304 0.91317 0.40372 0.0
H622 H 0.92483 0.87514 0.49901 0.0
H623 H 0.94602 0.92264 0.52301 0.0
C624 C 0.87798 0.81435 0.43589 0.0
C625 C 0.89052 0.80467 0.4067 0.0
C626 C 0.88987 0.84184 0.44968 0.0
C627 C 0.91457 0.86068 0.43465 0.0
C628 C 0.92723 0.85102 0.40558 0.0
C629 C 0.9155 0.82345 0.39191 0.0
C630 C 0.94797 0.94236 0.44362 0.0
C631 C 0.95206 0.94575 0.47738 0.0
C632 C 0.93586 0.91491 0.42979 0.0
C633 C 0.92719 0.89012 0.44935 0.0
C634 C 0.93091 0.89367 0.48315 0.0
C635 C 0.94325 0.921 0.49692 0.0
H636 H 0.33528 0.80112 0.60185 0.0
H637 H 0.39773 0.81822 0.51915 0.0
H638 H 0.34837 0.75279 0.60645 0.0
H639 H 0.41204 0.77038 0.52484 0.0
H640 H 0.41944 0.67512 0.53139 0.0
H641 H 0.39605 0.71778 0.5214 0.0
H642 H 0.39346 0.73601 0.62471 0.0
H643 H 0.41546 0.69278 0.63473 0.0
C644 C 0.35143 0.79442 0.58429 0.0
C645 C 0.36564 0.81365 0.56026 0.0
C646 C 0.35924 0.76683 0.58722 0.0
C647 C 0.38156 0.75788 0.56632 0.0
C648 C 0.39464 0.77652 0.54126 0.0
C649 C 0.38672 0.80409 0.53823 0.0
C650 C 0.41334 0.68796 0.55198 0.0
C651 C 0.4195 0.6807 0.58385 0.0
C652 C 0.40023 0.71254 0.54623 0.0
C653 C 0.39298 0.73035 0.57224 0.0
C654 C 0.3984 0.7226 0.60413 0.0
C655 C 0.41144 0.69804 0.60986 0.0
H656 H 0.78101 0.78923 0.75187 0.0
H657 H 0.74367 0.86776 0.7387 0.0
H658 H 0.81774 0.80299 0.70696 0.0
H659 H 0.78029 0.88153 0.69386 0.0
H660 H 0.84681 0.89863 0.6105 0.0
H661 H 0.80239 0.8695 0.63813 0.0
H662 H 0.86236 0.84614 0.71065 0.0
H663 H 0.90642 0.87594 0.68409 0.0
C664 C 0.77989 0.80885 0.73854 0.0
C665 C 0.7598 0.82764 0.74883 0.0
C666 C 0.801 0.81678 0.71303 0.0
C667 C 0.80202 0.84343 0.69722 0.0
C668 C 0.77988 0.86076 0.70548 0.0
C669 C 0.75906 0.85301 0.73123 0.0
C670 C 0.85057 0.88706 0.63218 0.0
C671 C 0.88017 0.89014 0.64542 0.0
C672 C 0.82516 0.87022 0.64778 0.0
C673 C 0.82895 0.85571 0.67655 0.0
C674 C 0.8588 0.8568 0.68826 0.0
C675 C 0.88412 0.87393 0.67296 0.0
H676 H 0.80678 0.21747 0.22779 0.0
H677 H 0.74485 0.27049 0.27064 0.0
H678 H 0.76523 0.19214 0.19406 0.0
H679 H 0.7036 0.24581 0.23619 0.0
H680 H 0.63232 0.16169 0.2115 0.0
H681 H 0.67334 0.19625 0.23704 0.0
H682 H 0.72975 0.1959 0.14982 0.0
H683 H 0.68896 0.1606 0.12457 0.0
C684 C 0.78444 0.22405 0.22958 0.0
C685 C 0.77905 0.24581 0.25205 0.0
C686 C 0.76071 0.20975 0.21003 0.0
C687 C 0.73105 0.21684 0.21263 0.0
C688 C 0.7261 0.23964 0.23391 0.0
C689 C 0.74985 0.25399 0.25338 0.0
C690 C 0.65338 0.1692 0.19768 0.0
C691 C 0.65752 0.15824 0.16615 0.0
C692 C 0.67677 0.18923 0.21218 0.0
C693 C 0.70488 0.1987 0.19549 0.0
C694 C 0.70848 0.18877 0.1634 0.0
C695 C 0.685 0.16879 0.14883 0.0
H696 H 0.41035 0.67173 0.37083 0.0
H697 H 0.38886 0.58903 0.31925 0.0
H698 H 0.43147 0.64774 0.4149 0.0
H699 H 0.40825 0.56487 0.36397 0.0
H700 H 0.47424 0.53309 0.43256 0.0
H701 H 0.45309 0.55767 0.38918 0.0
H702 H 0.42139 0.61625 0.45973 0.0
H703 H 0.44355 0.59212 0.50309 0.0
C704 C 0.40997 0.64843 0.36876 0.0
C705 C 0.3977 0.63257 0.34102 0.0
C706 C 0.42181 0.63449 0.39445 0.0
C707 C 0.42183 0.60413 0.3934 0.0
C708 C 0.40925 0.58828 0.36581 0.0
C709 C 0.39754 0.6022 0.34014 0.0
C710 C 0.46271 0.55116 0.43896 0.0
C711 C 0.46066 0.5604 0.47162 0.0
C712 C 0.4503 0.56527 0.41391 0.0
C713 C 0.43518 0.58911 0.42053 0.0
C714 C 0.4331 0.59832 0.45328 0.0
C715 C 0.44567 0.58425 0.47836 0.0
H716 H 0.1497 0.44589 0.84549 0.0
H717 H 0.06035 0.39082 0.83675 0.0
H718 H 0.13019 0.47247 0.89055 0.0
H719 H 0.04043 0.41786 0.88139 0.0
H720 H 0.01903 0.45556 0.981 0.0
H721 H 0.03987 0.42751 0.9377 0.0
H722 H 0.09918 0.50643 0.90521 0.0
H723 H 0.07927 0.53392 0.94925 0.0
C724 C 0.12571 0.43968 0.85286 0.0
C725 C 0.10665 0.41619 0.83719 0.0
C726 C 0.11441 0.45502 0.87885 0.0
C727 C 0.08353 0.4476 0.88996 0.0
C728 C 0.06445 0.42409 0.87418 0.0
C729 C 0.07586 0.40857 0.84834 0.0
C730 C 0.0368 0.46679 0.96481 0.0
C731 C 0.04758 0.49699 0.96878 0.0
C732 C 0.04857 0.45076 0.93964 0.0
C733 C 0.07133 0.46449 0.91751 0.0
C734 C 0.08215 0.49474 0.92182 0.0
C735 C 0.07056 0.51066 0.94709 0.0
H736 H 0.58761 0.84215 0.96485 0.0
H737 H 0.63025 0.90097 0.89037 0.0
H738 H 0.55799 0.87901 0.98449 0.0
H739 H 0.60083 0.9379 0.91017 0.0
H740 H 0.58119 1.00341 0.99538 0.0
H741 H 0.60442 0.96676 0.96525 0.0
H742 H 0.51661 0.90813 0.96562 0.0
H743 H 0.49318 0.94474 0.99538 0.0
C744 C 0.59021 0.86278 0.9524 0.0
C745 C 0.6111 0.86875 0.92612 0.0
C746 C 0.57323 0.88377 0.9635 0.0
C747 C 0.57727 0.91126 0.94884 0.0
C748 C 0.59743 0.91689 0.92191 0.0
C749 C 0.61402 0.89572 0.91047 0.0
C750 C 0.56673 0.98291 0.98856 0.0
C751 C 0.53542 0.97693 0.99792 0.0
C752 C 0.57999 0.96201 0.9712 0.0
C753 C 0.56227 0.93463 0.96332 0.0
C754 C 0.53075 0.92903 0.97161 0.0
C755 C 0.51738 0.95008 0.9885 0.0
H756 H 0.92399 0.17779 0.40272 0.0
H757 H 0.86038 0.19106 0.4807 0.0
H758 H 0.93658 0.13595 0.43095 0.0
H759 H 0.8724 0.14874 0.50854 0.0
H760 H 0.93383 0.09412 0.56328 0.0
H761 H 0.91683 0.13465 0.53636 0.0
H762 H 0.911 0.08577 0.44563 0.0
H763 H 0.92813 0.04537 0.47255 0.0
C764 C 0.91278 0.17181 0.42593 0.0
C765 C 0.89121 0.18769 0.4395 0.0
C766 C 0.9197 0.14766 0.4419 0.0
C767 C 0.90529 0.13897 0.47184 0.0
C768 C 0.88393 0.155 0.48556 0.0
C769 C 0.87689 0.17907 0.46951 0.0
C770 C 0.92839 0.0919 0.53772 0.0
C771 C 0.93251 0.06681 0.51986 0.0
C772 C 0.91868 0.11507 0.52232 0.0
C773 C 0.91297 0.1135 0.48881 0.0
C774 C 0.91578 0.08779 0.47135 0.0
C775 C 0.92534 0.06462 0.48678 0.0
H776 H 0.25302 0.60015 0.13194 0.0
H777 H 0.20578 0.66047 0.18506 0.0
H778 H 0.20454 0.57672 0.10821 0.0
H779 H 0.15689 0.63649 0.16177 0.0
H780 H 0.08136 0.60622 0.08536 0.0
H781 H 0.12934 0.62999 0.11035 0.0
H782 H 0.15576 0.54583 0.12159 0.0
H783 H 0.10804 0.52209 0.0964 0.0
C784 C 0.2323 0.60851 0.13858 0.0
C785 C 0.23358 0.63244 0.16039 0.0
C786 C 0.2043 0.59479 0.12516 0.0
C787 C 0.17654 0.60458 0.13294 0.0
C788 C 0.17774 0.62844 0.15488 0.0
C789 C 0.20579 0.64206 0.16854 0.0
C790 C 0.09738 0.59272 0.0931 0.0
C791 C 0.09064 0.56213 0.08859 0.0
C792 C 0.1249 0.6064 0.10771 0.0
C793 C 0.14669 0.58996 0.11807 0.0
C794 C 0.13988 0.55936 0.1136 0.0
C795 C 0.1123 0.54568 0.09922 0.0
H796 H 0.31422 0.40045 0.69543 0.0
H797 H 0.25815 0.43752 0.62878 0.0
H798 H 0.36054 0.42402 0.66659 0.0
H799 H 0.30468 0.4608 0.59962 0.0
H800 H 0.39312 0.4674 0.53445 0.0
H801 H 0.34574 0.44794 0.56457 0.0
H802 H 0.3924 0.47139 0.65495 0.0
H803 H 0.43993 0.4906 0.62466 0.0
C804 C 0.31166 0.41394 0.67491 0.0
C805 C 0.28215 0.41701 0.66466 0.0
C806 C 0.33838 0.42748 0.65828 0.0
C807 C 0.33652 0.44443 0.63071 0.0
C808 C 0.30707 0.44764 0.62048 0.0
C809 C 0.2803 0.43419 0.63723 0.0
C810 C 0.3932 0.4686 0.56076 0.0
C811 C 0.42035 0.48041 0.57715 0.0
C812 C 0.36595 0.45756 0.57807 0.0
C813 C 0.36513 0.45789 0.61229 0.0
C814 C 0.39221 0.47035 0.62865 0.0
C815 C 0.41943 0.48155 0.6113 0.0
H816 H 0.73917 0.665 0.89206 0.0
H817 H 0.75111 0.71416 0.98226 0.0
H818 H 0.77061 0.63119 0.91203 0.0
H819 H 0.78366 0.68147 1.0018 0.0
H820 H 0.84113 0.61846 1.03354 0.0
H821 H 0.79463 0.63646 1.01875 0.0
H822 H 0.82418 0.63695 0.91776 0.0
H823 H 0.86972 0.61814 0.93255 0.0
C824 C 0.74798 0.66809 0.91648 0.0
C825 C 0.74295 0.69218 0.93559 0.0
C826 C 0.76624 0.64896 0.92783 0.0
C827 C 0.78036 0.65395 0.95824 0.0
C828 C 0.77308 0.67671 0.97837 0.0
C829 C 0.75441 0.69553 0.9672 0.0
C830 C 0.83731 0.62208 1.00816 0.0
C831 C 0.85906 0.61708 0.9842 0.0
C832 C 0.81074 0.63242 0.99966 0.0
C833 C 0.8056 0.63835 0.96705 0.0
C834 C 0.82687 0.63214 0.94304 0.0
C835 C 0.85317 0.62149 0.9515 0.0
H836 H 0.44618 0.82279 0.20803 0.0
H837 H 0.36838 0.81637 0.14482 0.0
H838 H 0.4675 0.87052 0.18624 0.0
H839 H 0.38967 0.86474 0.12341 0.0
H840 H 0.42988 0.96594 0.11307 0.0
H841 H 0.40401 0.919 0.13589 0.0
H842 H 0.49108 0.88891 0.13477 0.0
H843 H 0.5165 0.9351 0.11231 0.0
C844 C 0.43355 0.83139 0.1894 0.0
C845 C 0.40561 0.8151 0.17802 0.0
C846 C 0.44583 0.85899 0.17689 0.0
C847 C 0.43061 0.87156 0.15265 0.0
C848 C 0.40205 0.85593 0.14213 0.0
C849 C 0.38979 0.8281 0.15453 0.0
C850 C 0.44337 0.94921 0.11769 0.0
C851 C 0.47536 0.95449 0.11107 0.0
C852 C 0.42856 0.92225 0.13067 0.0
C853 C 0.44545 0.90011 0.13768 0.0
C854 C 0.47729 0.90546 0.13045 0.0
C855 C 0.49191 0.93206 0.11731 0.0
H856 H 0.13317 0.25116 0.61004 0.0
H857 H 0.07216 0.22662 0.69231 0.0
H858 H 0.11108 0.2058 0.58184 0.0
H859 H 0.04952 0.18159 0.66378 0.0
H860 H 0.04172 0.08899 0.6197 0.0
H861 H 0.06305 0.13507 0.64675 0.0
H862 H 0.06481 0.17977 0.55567 0.0
H863 H 0.04371 0.13353 0.52848 0.0
C864 C 0.11496 0.23616 0.62213 0.0
C865 C 0.10462 0.24269 0.65363 0.0
C866 C 0.10205 0.21018 0.60577 0.0
C867 C 0.07853 0.18976 0.62047 0.0
C868 C 0.06785 0.19651 0.65177 0.0
C869 C 0.08061 0.22259 0.66803 0.0
C870 C 0.04673 0.10858 0.60532 0.0
C871 C 0.04094 0.10734 0.57177 0.0
C872 C 0.05876 0.13516 0.62096 0.0
C873 C 0.0656 0.16138 0.60356 0.0
C874 C 0.06012 0.1601 0.56991 0.0
C875 C 0.04787 0.13351 0.55429 0.0
H876 H 0.73228 0.29273 0.46144 0.0
H877 H 0.78123 0.38114 0.44881 0.0
H878 H 0.68824 0.31154 0.48487 0.0
H879 H 0.73735 0.39987 0.47273 0.0
H880 H 0.60691 0.36076 0.4634 0.0
H881 H 0.65231 0.3384 0.45605 0.0
H882 H 0.70221 0.40195 0.52236 0.0
H883 H 0.65625 0.42399 0.53072 0.0
C884 C 0.73379 0.31617 0.46407 0.0
C885 C 0.75998 0.33548 0.45271 0.0
C886 C 0.70865 0.32689 0.47758 0.0
C887 C 0.70929 0.35713 0.48023 0.0
C888 C 0.73633 0.37643 0.47117 0.0
C889 C 0.76146 0.3657 0.45747 0.0
C890 C 0.62718 0.36953 0.47723 0.0
C891 C 0.6279 0.39432 0.49752 0.0
C892 C 0.65326 0.3567 0.47295 0.0
C893 C 0.68078 0.3685 0.4886 0.0
C894 C 0.68133 0.39262 0.50979 0.0
C895 C 0.65507 0.40528 0.51439 0.0
loop_
_geom_bond_atom_site_label_1
_geom_bond_atom_site_label_2
_geom_bond_distance
_geom_bond_site_symmetry_2
_ccdc_geom_bond_type
P0 O11 1.490 . S
P0 C14 1.812 . S
P0 C20 1.803 . S
P0 C26 1.819 . S
H1 C15 0.941 . S
H2 C16 0.939 . S
H3 C18 0.940 . S
H4 C19 0.940 . S
H5 C21 0.939 . S
H6 C22 0.942 . S
H7 C24 0.940 . S
H8 C25 0.939 . S
H9 C27 0.941 . S
H10 C31 0.939 . S
O11 P0 1.490 . S
H12 C28 0.939 . S
H13 C30 0.940 . S
C14 P0 1.812 . S
C14 C15 1.389 . S
C14 C19 1.391 . S
C15 H1 0.941 . S
C15 C14 1.389 . S
C15 C16 1.397 . S
C16 H2 0.939 . S
C16 C15 1.397 . S
C16 C17 1.378 . S
C17 C16 1.378 . S
C17 C18 1.378 . S
C18 H3 0.940 . S
C18 C17 1.378 . S
C18 C19 1.396 . S
C19 H4 0.940 . S
C19 C14 1.391 . S
C19 C18 1.396 . S
C20 P0 1.803 . S
C20 C21 1.378 . S
C20 C25 1.400 . S
C21 H5 0.939 . S
C21 C20 1.378 . S
C21 C22 1.361 . S
C22 H6 0.942 . S
C22 C21 1.361 . S
C22 C23 1.369 . S
C23 C22 1.369 . S
C23 C24 1.404 . S
C24 H7 0.940 . S
C24 C23 1.404 . S
C24 C25 1.389 . S
C25 H8 0.939 . S
C25 C20 1.400 . S
C25 C24 1.389 . S
C26 P0 1.819 . S
C26 C27 1.391 . S
C26 C31 1.391 . S
C27 H9 0.941 . S
C27 C26 1.391 . S
C27 C28 1.396 . S
C28 H12 0.939 . S
C28 C27 1.396 . S
C28 C29 1.397 . S
C29 C28 1.397 . S
C29 C30 1.385 . S
C30 H13 0.940 . S
C30 C29 1.385 . S
C30 C31 1.388 . S
C31 H10 0.939 . S
C31 C26 1.391 . S
C31 C30 1.388 . S
P32 O43 1.490 . S
P32 C46 1.812 . S
P32 C52 1.803 . S
P32 C58 1.819 . S
H33 C47 0.941 . S
H34 C48 0.939 . S
H35 C50 0.940 . S
H36 C51 0.940 . S
H37 C53 0.939 . S
H38 C54 0.942 . S
H39 C56 0.940 . S
H40 C57 0.939 . S
H41 C59 0.941 . S
H42 C63 0.939 . S
O43 P32 1.490 . S
H44 C60 0.939 . S
H45 C62 0.940 . S
C46 P32 1.812 . S
C46 C47 1.389 . S
C46 C51 1.391 . S
C47 H33 0.941 . S
C47 C46 1.389 . S
C47 C48 1.397 . S
C48 H34 0.939 . S
C48 C47 1.397 . S
C48 C49 1.378 . S
C49 C48 1.378 . S
C49 C50 1.378 . S
C50 H35 0.940 . S
C50 C49 1.378 . S
C50 C51 1.396 . S
C51 H36 0.940 . S
C51 C46 1.391 . S
C51 C50 1.396 . S
C52 P32 1.803 . S
C52 C53 1.378 . S
C52 C57 1.400 . S
C53 H37 0.939 . S
C53 C52 1.378 . S
C53 C54 1.361 . S
C54 H38 0.942 . S
C54 C53 1.361 . S
C54 C55 1.369 . S
C55 C54 1.369 . S
C55 C56 1.404 . S
C56 H39 0.940 . S
C56 C55 1.404 . S
C56 C57 1.389 . S
C57 H40 0.939 . S
C57 C52 1.400 . S
C57 C56 1.389 . S
C58 P32 1.819 . S
C58 C59 1.391 . S
C58 C63 1.391 . S
C59 H41 0.941 . S
C59 C58 1.391 . S
C59 C60 1.396 . S
C60 H44 0.939 . S
C60 C59 1.396 . S
C60 C61 1.397 . S
C61 C60 1.397 . S
C61 C62 1.385 . S
C62 H45 0.940 . S
C62 C61 1.385 . S
C62 C63 1.388 . S
C63 H42 0.939 . S
C63 C58 1.391 . S
C63 C62 1.388 . S
P64 O75 1.490 . S
P64 C78 1.812 . S
P64 C84 1.803 . S
P64 C90 1.819 . S
H65 C79 0.941 . S
H66 C80 0.939 . S
H67 C82 0.940 . S
H68 C83 0.940 . S
H69 C85 0.939 . S
H70 C86 0.942 . S
H71 C88 0.940 . S
H72 C89 0.939 . S
H73 C91 0.941 . S
H74 C95 0.939 . S
O75 P64 1.490 . S
H76 C92 0.939 . S
H77 C94 0.940 . S
C78 P64 1.812 . S
C78 C79 1.389 . S
C78 C83 1.391 . S
C79 H65 0.941 . S
C79 C78 1.389 . S
C79 C80 1.397 . S
C80 H66 0.939 . S
C80 C79 1.397 . S
C80 C81 1.378 . S
C81 C80 1.378 . S
C81 C82 1.378 . S
C82 H67 0.940 . S
C82 C81 1.378 . S
C82 C83 1.396 . S
C83 H68 0.940 . S
C83 C78 1.391 . S
C83 C82 1.396 . S
C84 P64 1.803 . S
C84 C85 1.378 . S
C84 C89 1.400 . S
C85 H69 0.939 . S
C85 C84 1.378 . S
C85 C86 1.361 . S
C86 H70 0.942 . S
C86 C85 1.361 . S
C86 C87 1.369 . S
C87 C86 1.369 . S
C87 C88 1.404 . S
C88 H71 0.940 . S
C88 C87 1.404 . S
C88 C89 1.389 . S
C89 H72 0.939 . S
C89 C84 1.400 . S
C89 C88 1.389 . S
C90 P64 1.819 . S
C90 C91 1.391 . S
C90 C95 1.391 . S
C91 H73 0.941 . S
C91 C90 1.391 . S
C91 C92 1.396 . S
C92 H76 0.939 . S
C92 C91 1.396 . S
C92 C93 1.397 . S
C93 C92 1.397 . S
C93 C94 1.385 . S
C94 H77 0.940 . S
C94 C93 1.385 . S
C94 C95 1.388 . S
C95 H74 0.939 . S
C95 C90 1.391 . S
C95 C94 1.388 . S
P96 O107 1.490 . S
P96 C110 1.812 . S
P96 C116 1.803 . S
P96 C122 1.819 . S
H97 C111 0.941 . S
H98 C112 0.939 . S
H99 C114 0.940 . S
H100 C115 0.940 . S
H101 C117 0.939 . S
H102 C118 0.942 . S
H103 C120 0.940 . S
H104 C121 0.939 . S
H105 C123 0.941 . S
H106 C127 0.939 . S
O107 P96 1.490 . S
H108 C124 0.939 . S
H109 C126 0.940 . S
C110 P96 1.812 . S
C110 C111 1.389 . S
C110 C115 1.391 . S
C111 H97 0.941 . S
C111 C110 1.389 . S
C111 C112 1.397 . S
C112 H98 0.939 . S
C112 C111 1.397 . S
C112 C113 1.378 . S
C113 C112 1.378 . S
C113 C114 1.378 . S
C114 H99 0.940 . S
C114 C113 1.378 . S
C114 C115 1.396 . S
C115 H100 0.940 . S
C115 C110 1.391 . S
C115 C114 1.396 . S
C116 P96 1.803 . S
C116 C117 1.378 . S
C116 C121 1.400 . S
C117 H101 0.939 . S
C117 C116 1.378 . S
C117 C118 1.361 . S
C118 H102 0.942 . S
C118 C117 1.361 . S
C118 C119 1.369 . S
C119 C118 1.369 . S
C119 C120 1.404 . S
C120 H103 0.940 . S
C120 C119 1.404 . S
C120 C121 1.389 . S
C121 H104 0.939 . S
C121 C116 1.400 . S
C121 C120 1.389 . S
C122 P96 1.819 . S
C122 C123 1.391 . S
C122 C127 1.391 . S
C123 H105 0.941 . S
C123 C122 1.391 . S
C123 C124 1.396 . S
C124 H108 0.939 . S
C124 C123 1.396 . S
C124 C125 1.397 . S
C125 C124 1.397 . S
C125 C126 1.385 . S
C126 H109 0.940 . S
C126 C125 1.385 . S
C126 C127 1.388 . S
C127 H106 0.939 . S
C127 C122 1.391 . S
C127 C126 1.388 . S
P128 O139 1.490 . S
P128 C142 1.812 . S
P128 C148 1.803 . S
P128 C154 1.819 . S
H129 C143 0.941 . S
H130 C144 0.939 . S
H131 C146 0.940 . S
H132 C147 0.940 . S
H133 C149 0.939 . S
H134 C150 0.942 . S
H135 C152 0.940 . S
H136 C153 0.939 . S
H137 C155 0.941 . S
H138 C159 0.939 . S
O139 P128 1.490 . S
H140 C156 0.939 . S
H141 C158 0.940 . S
C142 P128 1.812 . S
C142 C143 1.389 . S
C142 C147 1.391 . S
C143 H129 0.941 . S
C143 C142 1.389 . S
C143 C144 1.397 . S
C144 H130 0.939 . S
C144 C143 1.397 . S
C144 C145 1.378 . S
C145 C144 1.378 . S
C145 C146 1.378 . S
C146 H131 0.940 . S
C146 C145 1.378 . S
C146 C147 1.396 . S
C147 H132 0.940 . S
C147 C142 1.391 . S
C147 C146 1.396 . S
C148 P128 1.803 . S
C148 C149 1.378 . S
C148 C153 1.400 . S
C149 H133 0.939 . S
C149 C148 1.378 . S
C149 C150 1.361 . S
C150 H134 0.942 . S
C150 C149 1.361 . S
C150 C151 1.369 . S
C151 C150 1.369 . S
C151 C152 1.404 . S
C152 H135 0.940 . S
C152 C151 1.404 . S
C152 C153 1.389 . S
C153 H136 0.939 . S
C153 C148 1.400 . S
C153 C152 1.389 . S
C154 P128 1.819 . S
C154 C155 1.391 . S
C154 C159 1.391 . S
C155 H137 0.941 . S
C155 C154 1.391 . S
C155 C156 1.396 . S
C156 H140 0.939 . S
C156 C155 1.396 . S
C156 C157 1.397 . S
C157 C156 1.397 . S
C157 C158 1.385 . S
C158 H141 0.940 . S
C158 C157 1.385 . S
C158 C159 1.388 . S
C159 H138 0.939 . S
C159 C154 1.391 . S
C159 C158 1.388 . S
P160 O171 1.490 . S
P160 C174 1.812 . S
P160 C180 1.803 . S
P160 C186 1.819 . S
H161 C175 0.941 . S
H162 C176 0.939 . S
H163 C178 0.940 . S
H164 C179 0.940 . S
H165 C181 0.939 . S
H166 C182 0.942 . S
H167 C184 0.940 . S
H168 C185 0.939 . S
H169 C187 0.941 . S
H170 C191 0.939 . S
O171 P160 1.490 . S
H172 C188 0.939 . S
H173 C190 0.940 . S
C174 P160 1.812 . S
C174 C175 1.389 . S
C174 C179 1.391 . S
C175 H161 0.941 . S
C175 C174 1.389 . S
C175 C176 1.397 . S
C176 H162 0.939 . S
C176 C175 1.397 . S
C176 C177 1.378 . S
C177 C176 1.378 . S
C177 C178 1.378 . S
C178 H163 0.940 . S
C178 C177 1.378 . S
C178 C179 1.396 . S
C179 H164 0.940 . S
C179 C174 1.391 . S
C179 C178 1.396 . S
C180 P160 1.803 . S
C180 C181 1.378 . S
C180 C185 1.400 . S
C181 H165 0.939 . S
C181 C180 1.378 . S
C181 C182 1.361 . S
C182 H166 0.942 . S
C182 C181 1.361 . S
C182 C183 1.369 . S
C183 C182 1.369 . S
C183 C184 1.404 . S
C184 H167 0.940 . S
C184 C183 1.404 . S
C184 C185 1.389 . S
C185 H168 0.939 . S
C185 C180 1.400 . S
C185 C184 1.389 . S
C186 P160 1.819 . S
C186 C187 1.391 . S
C186 C191 1.391 . S
C187 H169 0.941 . S
C187 C186 1.391 . S
C187 C188 1.396 . S
C188 H172 0.939 . S
C188 C187 1.396 . S
C188 C189 1.397 . S
C189 C188 1.397 . S
C189 C190 1.385 . S
C190 H173 0.940 . S
C190 C189 1.385 . S
C190 C191 1.388 . S
C191 H170 0.939 . S
C191 C186 1.391 . S
C191 C190 1.388 . S
P192 O203 1.490 . S
P192 C206 1.812 . S
P192 C212 1.803 . S
P192 C218 1.819 . S
H193 C207 0.941 . S
H194 C208 0.939 . S
H195 C210 0.940 . S
H196 C211 0.940 . S
H197 C213 0.939 . S
H198 C214 0.942 . S
H199 C216 0.940 . S
H200 C217 0.939 . S
H201 C219 0.941 . S
H202 C223 0.939 . S
O203 P192 1.490 . S
H204 C220 0.939 . S
H205 C222 0.940 . S
C206 P192 1.812 . S
C206 C207 1.389 . S
C206 C211 1.391 . S
C207 H193 0.941 . S
C207 C206 1.389 . S
C207 C208 1.397 . S
C208 H194 0.939 . S
C208 C207 1.397 . S
C208 C209 1.378 . S
C209 C208 1.378 . S
C209 C210 1.378 . S
C210 H195 0.940 . S
C210 C209 1.378 . S
C210 C211 1.396 . S
C211 H196 0.940 . S
C211 C206 1.391 . S
C211 C210 1.396 . S
C212 P192 1.803 . S
C212 C213 1.378 . S
C212 C217 1.400 . S
C213 H197 0.939 . S
C213 C212 1.378 . S
C213 C214 1.361 . S
C214 H198 0.942 . S
C214 C213 1.361 . S
C214 C215 1.369 . S
C215 C214 1.369 . S
C215 C216 1.404 . S
C216 H199 0.940 . S
C216 C215 1.404 . S
C216 C217 1.389 . S
C217 H200 0.939 . S
C217 C212 1.400 . S
C217 C216 1.389 . S
C218 P192 1.819 . S
C218 C219 1.391 . S
C218 C223 1.391 . S
C219 H201 0.941 . S
C219 C218 1.391 . S
C219 C220 1.396 . S
C220 H204 0.939 . S
C220 C219 1.396 . S
C220 C221 1.397 . S
C221 C220 1.397 . S
C221 C222 1.385 . S
C222 H205 0.940 . S
C222 C221 1.385 . S
C222 C223 1.388 . S
C223 H202 0.939 . S
C223 C218 1.391 . S
C223 C222 1.388 . S
P224 O235 1.490 . S
P224 C238 1.812 . S
P224 C244 1.803 . S
P224 C250 1.819 . S
H225 C239 0.941 . S
H226 C240 0.939 . S
H227 C242 0.940 . S
H228 C243 0.940 . S
H229 C245 0.939 . S
H230 C246 0.942 . S
H231 C248 0.940 . S
H232 C249 0.939 . S
H233 C251 0.941 . S
H234 C255 0.939 . S
O235 P224 1.490 . S
H236 C252 0.939 . S
H237 C254 0.940 . S
C238 P224 1.812 . S
C238 C239 1.389 . S
C238 C243 1.391 . S
C239 H225 0.941 . S
C239 C238 1.389 . S
C239 C240 1.397 . S
C240 H226 0.939 . S
C240 C239 1.397 . S
C240 C241 1.378 . S
C241 C240 1.378 . S
C241 C242 1.378 . S
C242 H227 0.940 . S
C242 C241 1.378 . S
C242 C243 1.396 . S
C243 H228 0.940 . S
C243 C238 1.391 . S
C243 C242 1.396 . S
C244 P224 1.803 . S
C244 C245 1.378 . S
C244 C249 1.400 . S
C245 H229 0.939 . S
C245 C244 1.378 . S
C245 C246 1.361 . S
C246 H230 0.942 . S
C246 C245 1.361 . S
C246 C247 1.369 . S
C247 C246 1.369 . S
C247 C248 1.404 . S
C248 H231 0.940 . S
C248 C247 1.404 . S
C248 C249 1.389 . S
C249 H232 0.939 . S
C249 C244 1.400 . S
C249 C248 1.389 . S
C250 P224 1.819 . S
C250 C251 1.391 . S
C250 C255 1.391 . S
C251 H233 0.941 . S
C251 C250 1.391 . S
C251 C252 1.396 . S
C252 H236 0.939 . S
C252 C251 1.396 . S
C252 C253 1.397 . S
C253 C252 1.397 . S
C253 C254 1.385 . S
C254 H237 0.940 . S
C254 C253 1.385 . S
C254 C255 1.388 . S
C255 H234 0.939 . S
C255 C250 1.391 . S
C255 C254 1.388 . S
Gd256 C259 2.818 . S
Gd256 O276 2.377 . S
Gd256 O278 2.448 . S
Gd256 O279 2.506 . S
Gd256 O280 2.435 1_545 S
Gd256 O281 2.717 1_545 S
Gd256 O283 2.395 1_445 S
Gd256 O287 2.327 1_455 S
Gd257 C268 2.818 . S
Gd257 O277 2.395 1_665 S
Gd257 O281 2.327 1_655 S
Gd257 O282 2.377 . S
Gd257 O284 2.448 . S
Gd257 O285 2.506 . S
Gd257 O286 2.435 1_565 S
Gd257 O287 2.717 1_565 S
C258 O276 1.240 . S
C258 O277 1.240 . S
C259 Gd256 2.818 . S
C259 C260 1.510 . S
C259 O278 1.249 . S
C259 O279 1.252 . S
C260 C259 1.510 . S
C260 C261 1.404 . S
C260 C262 1.352 . S
C261 C260 1.404 . S
C261 C265 1.389 . S
C261 H288 0.930 . S
C262 C260 1.352 . S
C262 C264 1.374 . S
C262 H289 0.931 . S
C263 C264 1.359 . S
C263 C265 1.364 . S
C264 C262 1.374 . S
C264 C263 1.359 . S
C264 H290 0.931 . S
C265 C261 1.389 . S
C265 C263 1.364 . S
C265 H291 0.931 . S
C266 O280 1.256 . S
C266 O281 1.257 . S
C267 O282 1.240 . S
C267 O283 1.240 . S
C268 Gd257 2.818 . S
C268 C269 1.510 . S
C268 O284 1.249 . S
C268 O285 1.252 . S
C269 C268 1.510 . S
C269 C270 1.404 . S
C269 C271 1.352 . S
C270 C269 1.404 . S
C270 C274 1.389 . S
C270 H292 0.930 . S
C271 C269 1.352 . S
C271 C273 1.374 . S
C271 H293 0.931 . S
C272 C273 1.359 . S
C272 C274 1.364 . S
C273 C271 1.374 . S
C273 C272 1.359 . S
C273 H294 0.931 . S
C274 C270 1.389 . S
C274 C272 1.364 . S
C274 H295 0.931 . S
C275 O286 1.256 . S
C275 O287 1.257 . S
O276 Gd256 2.377 . S
O276 C258 1.240 . S
O277 Gd257 2.395 1_445 S
O277 C258 1.240 . S
O278 Gd256 2.448 . S
O278 C259 1.249 . S
O279 Gd256 2.506 . S
O279 C259 1.252 . S
O280 Gd256 2.435 1_565 S
O280 C266 1.256 . S
O281 Gd256 2.717 1_565 S
O281 Gd257 2.327 1_455 S
O281 C266 1.257 . S
O282 Gd257 2.377 . S
O282 C267 1.240 . S
O283 Gd256 2.395 1_665 S
O283 C267 1.240 . S
O284 Gd257 2.448 . S
O284 C268 1.249 . S
O285 Gd257 2.506 . S
O285 C268 1.252 . S
O286 Gd257 2.435 1_545 S
O286 C275 1.256 . S
O287 Gd256 2.327 1_655 S
O287 Gd257 2.717 1_545 S
O287 C275 1.257 . S
H288 C261 0.930 . S
H289 C262 0.931 . S
H290 C264 0.931 . S
H291 C265 0.931 . S
H292 C270 0.930 . S
H293 C271 0.931 . S
H294 C273 0.931 . S
H295 C274 0.931 . S
Gd296 C299 2.818 . S
Gd296 O316 2.377 . S
Gd296 O318 2.448 . S
Gd296 O319 2.506 . S
Gd296 O320 2.435 1_545 S
Gd296 O321 2.717 1_545 S
Gd296 O323 2.395 1_544 S
Gd296 O327 2.327 1_554 S
Gd297 C308 2.818 1_545 S
Gd297 O317 2.395 1_556 S
Gd297 O321 2.327 1_546 S
Gd297 O322 2.377 1_545 S
Gd297 O324 2.448 1_545 S
Gd297 O325 2.506 1_545 S
Gd297 O326 2.435 . S
Gd297 O327 2.717 . S
C298 O316 1.240 . S
C298 O317 1.240 . S
C299 Gd296 2.818 . S
C299 C300 1.510 . S
C299 O318 1.249 . S
C299 O319 1.252 . S
C300 C299 1.510 . S
C300 C301 1.404 . S
C300 C302 1.352 . S
C301 C300 1.404 . S
C301 C305 1.389 . S
C301 H328 0.930 . S
C302 C300 1.352 . S
C302 C304 1.374 . S
C302 H329 0.931 . S
C303 C304 1.359 . S
C303 C305 1.364 . S
C304 C302 1.374 . S
C304 C303 1.359 . S
C304 H330 0.931 . S
C305 C301 1.389 . S
C305 C303 1.364 . S
C305 H331 0.931 . S
C306 O320 1.256 . S
C306 O321 1.257 . S
C307 O322 1.240 . S
C307 O323 1.240 . S
C308 Gd297 2.818 1_565 S
C308 C309 1.510 . S
C308 O324 1.249 . S
C308 O325 1.252 . S
C309 C308 1.510 . S
C309 C310 1.404 . S
C309 C311 1.352 . S
C310 C309 1.404 . S
C310 C314 1.389 . S
C310 H332 0.930 . S
C311 C309 1.352 . S
C311 C313 1.374 . S
C311 H333 0.931 . S
C312 C313 1.359 . S
C312 C314 1.364 . S
C313 C311 1.374 . S
C313 C312 1.359 . S
C313 H334 0.931 . S
C314 C310 1.389 . S
C314 C312 1.364 . S
C314 H335 0.931 . S
C315 O326 1.256 . S
C315 O327 1.257 . S
O316 Gd296 2.377 . S
O316 C298 1.240 . S
O317 Gd297 2.395 1_554 S
O317 C298 1.240 . S
O318 Gd296 2.448 . S
O318 C299 1.249 . S
O319 Gd296 2.506 . S
O319 C299 1.252 . S
O320 Gd296 2.435 1_565 S
O320 C306 1.256 . S
O321 Gd296 2.717 1_565 S
O321 Gd297 2.327 1_564 S
O321 C306 1.257 . S
O322 Gd297 2.377 1_565 S
O322 C307 1.240 . S
O323 Gd296 2.395 1_566 S
O323 C307 1.240 . S
O324 Gd297 2.448 1_565 S
O324 C308 1.249 . S
O325 Gd297 2.506 1_565 S
O325 C308 1.252 . S
O326 Gd297 2.435 . S
O326 C315 1.256 . S
O327 Gd296 2.327 1_556 S
O327 Gd297 2.717 . S
O327 C315 1.257 . S
H328 C301 0.930 . S
H329 C302 0.931 . S
H330 C304 0.931 . S
H331 C305 0.931 . S
H332 C310 0.930 . S
H333 C311 0.931 . S
H334 C313 0.931 . S
H335 C314 0.931 . S
Gd336 C339 2.818 . S
Gd336 O356 2.377 . S
Gd336 O358 2.448 . S
Gd336 O359 2.506 . S
Gd336 O360 2.435 . S
Gd336 O361 2.717 . S
Gd336 O363 2.395 . S
Gd336 O367 2.327 . S
Gd337 C348 2.818 . S
Gd337 O357 2.395 . S
Gd337 O361 2.327 . S
Gd337 O362 2.377 . S
Gd337 O364 2.448 . S
Gd337 O365 2.506 . S
Gd337 O366 2.435 . S
Gd337 O367 2.717 . S
C338 O356 1.240 . S
C338 O357 1.240 . S
C339 Gd336 2.818 . S
C339 C340 1.510 . S
C339 O358 1.249 . S
C339 O359 1.252 . S
C340 C339 1.510 . S
C340 C341 1.404 . S
C340 C342 1.352 . S
C341 C340 1.404 . S
C341 C345 1.389 . S
C341 H368 0.930 . S
C342 C340 1.352 . S
C342 C344 1.374 . S
C342 H369 0.931 . S
C343 C344 1.359 . S
C343 C345 1.364 . S
C344 C342 1.374 . S
C344 C343 1.359 . S
C344 H370 0.931 . S
C345 C341 1.389 . S
C345 C343 1.364 . S
C345 H371 0.931 . S
C346 O360 1.256 . S
C346 O361 1.257 . S
C347 O362 1.240 . S
C347 O363 1.240 . S
C348 Gd337 2.818 . S
C348 C349 1.510 . S
C348 O364 1.249 . S
C348 O365 1.252 . S
C349 C348 1.510 . S
C349 C350 1.404 . S
C349 C351 1.352 . S
C350 C349 1.404 . S
C350 C354 1.389 . S
C350 H372 0.930 . S
C351 C349 1.352 . S
C351 C353 1.374 . S
C351 H373 0.931 . S
C352 C353 1.359 . S
C352 C354 1.364 . S
C353 C351 1.374 . S
C353 C352 1.359 . S
C353 H374 0.931 . S
C354 C350 1.389 . S
C354 C352 1.364 . S
C354 H375 0.931 . S
C355 O366 1.256 . S
C355 O367 1.257 . S
O356 Gd336 2.377 . S
O356 C338 1.240 . S
O357 Gd337 2.395 . S
O357 C338 1.240 . S
O358 Gd336 2.448 . S
O358 C339 1.249 . S
O359 Gd336 2.506 . S
O359 C339 1.252 . S
O360 Gd336 2.435 . S
O360 C346 1.256 . S
O361 Gd336 2.717 . S
O361 Gd337 2.327 . S
O361 C346 1.257 . S
O362 Gd337 2.377 . S
O362 C347 1.240 . S
O363 Gd336 2.395 . S
O363 C347 1.240 . S
O364 Gd337 2.448 . S
O364 C348 1.249 . S
O365 Gd337 2.506 . S
O365 C348 1.252 . S
O366 Gd337 2.435 . S
O366 C355 1.256 . S
O367 Gd336 2.327 . S
O367 Gd337 2.717 . S
O367 C355 1.257 . S
H368 C341 0.930 . S
H369 C342 0.931 . S
H370 C344 0.931 . S
H371 C345 0.931 . S
H372 C350 0.930 . S
H373 C351 0.931 . S
H374 C353 0.931 . S
H375 C354 0.931 . S
Gd376 C379 2.818 . S
Gd376 O396 2.377 . S
Gd376 O398 2.448 . S
Gd376 O399 2.506 . S
Gd376 O400 2.435 1_455 S
Gd376 O401 2.717 1_455 S
Gd376 O403 2.407 1_455 S
Gd376 O407 2.327 1_554 S
Gd377 C388 2.818 . S
Gd377 O397 2.395 1_656 S
Gd377 O401 2.327 1_556 S
Gd377 O402 2.377 . S
Gd377 O404 2.448 . S
Gd377 O405 2.506 . S
Gd377 O406 2.435 1_655 S
Gd377 O407 2.717 1_655 S
C378 O396 1.240 . S
C378 O397 1.240 . S
C379 Gd376 2.818 . S
C379 C380 1.510 . S
C379 O398 1.249 . S
C379 O399 1.252 . S
C380 C379 1.510 . S
C380 C381 1.404 . S
C380 C382 1.352 . S
C381 C380 1.404 . S
C381 C385 1.389 . S
C381 H408 0.930 . S
C382 C380 1.352 . S
C382 C384 1.374 . S
C382 H409 0.931 . S
C383 C384 1.359 . S
C383 C385 1.364 . S
C384 C382 1.374 . S
C384 C383 1.359 . S
C384 H410 0.931 . S
C385 C381 1.389 . S
C385 C383 1.364 . S
C385 H411 0.931 . S
C386 O400 1.256 . S
C386 O401 1.257 . S
C387 O402 1.240 . S
C387 O403 1.223 1_556 S
C388 Gd377 2.818 . S
C388 C389 1.510 . S
C388 O404 1.249 . S
C388 O405 1.252 . S
C389 C388 1.510 . S
C389 C390 1.404 . S
C389 C391 1.352 . S
C390 C389 1.404 . S
C390 C394 1.389 . S
C390 H412 0.930 . S
C391 C389 1.352 . S
C391 C393 1.374 . S
C391 H413 0.931 . S
C392 C393 1.359 . S
C392 C394 1.364 . S
C393 C391 1.374 . S
C393 C392 1.359 . S
C393 H414 0.931 . S
C394 C390 1.389 . S
C394 C392 1.364 . S
C394 H415 0.931 . S
C395 O406 1.256 . S
C395 O407 1.257 . S
O396 Gd376 2.377 . S
O396 C378 1.240 . S
O397 Gd377 2.395 1_454 S
O397 C378 1.240 . S
O398 Gd376 2.448 . S
O398 C379 1.249 . S
O399 Gd376 2.506 . S
O399 C379 1.252 . S
O400 Gd376 2.435 1_655 S
O400 C386 1.256 . S
O401 Gd376 2.717 1_655 S
O401 Gd377 2.327 1_554 S
O401 C386 1.257 . S
O402 Gd377 2.377 . S
O402 C387 1.240 . S
O403 Gd376 2.407 1_655 S
O403 C387 1.223 1_554 S
O404 Gd377 2.448 . S
O404 C388 1.249 . S
O405 Gd377 2.506 . S
O405 C388 1.252 . S
O406 Gd377 2.435 1_455 S
O406 C395 1.256 . S
O407 Gd376 2.327 1_556 S
O407 Gd377 2.717 1_455 S
O407 C395 1.257 . S
H408 C381 0.930 . S
H409 C382 0.931 . S
H410 C384 0.931 . S
H411 C385 0.931 . S
H412 C390 0.930 . S
H413 C391 0.931 . S
H414 C393 0.931 . S
H415 C394 0.931 . S
H416 C424 0.950 . S
H417 C429 0.950 . S
H418 C426 0.950 . S
H419 C428 0.950 . S
H420 C430 0.950 . S
H421 C432 0.950 . S
H422 C434 0.950 . S
H423 C435 0.950 . S
C424 H416 0.950 . S
C424 C425 1.386 . S
C424 C426 1.391 . S
C425 C424 1.386 . S
C425 C429 1.393 . S
C426 H418 0.950 . S
C426 C424 1.391 . S
C426 C427 1.400 . S
C427 C426 1.400 . S
C427 C428 1.398 . S
C427 C433 1.491 . S
C428 H419 0.950 . S
C428 C427 1.398 . S
C428 C429 1.391 . S
C429 H417 0.950 . S
C429 C425 1.393 . S
C429 C428 1.391 . S
C430 H420 0.950 . S
C430 C431 1.386 . S
C430 C432 1.391 . S
C431 C430 1.386 . S
C431 C435 1.393 . S
C432 H421 0.950 . S
C432 C430 1.391 . S
C432 C433 1.400 . S
C433 C427 1.491 . S
C433 C432 1.400 . S
C433 C434 1.398 . S
C434 H422 0.950 . S
C434 C433 1.398 . S
C434 C435 1.391 . S
C435 H423 0.950 . S
C435 C431 1.393 . S
C435 C434 1.391 . S
H436 C444 0.950 . S
H437 C449 0.950 . S
H438 C446 0.950 . S
H439 C448 0.950 . S
H440 C450 0.950 . S
H441 C452 0.950 . S
H442 C454 0.950 . S
H443 C455 0.950 . S
C444 H436 0.950 . S
C444 C445 1.386 . S
C444 C446 1.391 . S
C445 C444 1.386 . S
C445 C449 1.393 . S
C446 H438 0.950 . S
C446 C444 1.391 . S
C446 C447 1.400 . S
C447 C446 1.400 . S
C447 C448 1.398 . S
C447 C453 1.491 . S
C448 H439 0.950 . S
C448 C447 1.398 . S
C448 C449 1.391 . S
C449 H437 0.950 . S
C449 C445 1.393 . S
C449 C448 1.391 . S
C450 H440 0.950 . S
C450 C451 1.386 . S
C450 C452 1.391 . S
C451 C450 1.386 . S
C451 C455 1.393 . S
C452 H441 0.950 . S
C452 C450 1.391 . S
C452 C453 1.400 . S
C453 C447 1.491 . S
C453 C452 1.400 . S
C453 C454 1.398 . S
C454 H442 0.950 . S
C454 C453 1.398 . S
C454 C455 1.391 . S
C455 H443 0.950 . S
C455 C451 1.393 . S
C455 C454 1.391 . S
H456 C464 0.950 . S
H457 C469 0.950 . S
H458 C466 0.950 . S
H459 C468 0.950 . S
H460 C470 0.950 . S
H461 C472 0.950 . S
H462 C474 0.950 . S
H463 C475 0.950 . S
C464 H456 0.950 . S
C464 C465 1.386 . S
C464 C466 1.391 . S
C465 C464 1.386 . S
C465 C469 1.393 . S
C466 H458 0.950 . S
C466 C464 1.391 . S
C466 C467 1.400 . S
C467 C466 1.400 . S
C467 C468 1.398 . S
C467 C473 1.491 . S
C468 H459 0.950 . S
C468 C467 1.398 . S
C468 C469 1.391 . S
C469 H457 0.950 . S
C469 C465 1.393 . S
C469 C468 1.391 . S
C470 H460 0.950 . S
C470 C471 1.386 . S
C470 C472 1.391 . S
C471 C470 1.386 . S
C471 C475 1.393 . S
C472 H461 0.950 . S
C472 C470 1.391 . S
C472 C473 1.400 . S
C473 C467 1.491 . S
C473 C472 1.400 . S
C473 C474 1.398 . S
C474 H462 0.950 . S
C474 C473 1.398 . S
C474 C475 1.391 . S
C475 H463 0.950 . S
C475 C471 1.393 . S
C475 C474 1.391 . S
H476 C484 0.950 . S
H477 C489 0.950 . S
H478 C486 0.950 . S
H479 C488 0.950 . S
H480 C490 0.950 . S
H481 C492 0.950 . S
H482 C494 0.950 . S
H483 C495 0.950 . S
C484 H476 0.950 . S
C484 C485 1.386 . S
C484 C486 1.391 . S
C485 C484 1.386 . S
C485 C489 1.393 . S
C486 H478 0.950 . S
C486 C484 1.391 . S
C486 C487 1.400 . S
C487 C486 1.400 . S
C487 C488 1.398 . S
C487 C493 1.491 . S
C488 H479 0.950 . S
C488 C487 1.398 . S
C488 C489 1.391 . S
C489 H477 0.950 . S
C489 C485 1.393 . S
C489 C488 1.391 . S
C490 H480 0.950 . S
C490 C491 1.386 . S
C490 C492 1.391 . S
C491 C490 1.386 . S
C491 C495 1.393 . S
C492 H481 0.950 . S
C492 C490 1.391 . S
C492 C493 1.400 . S
C493 C487 1.491 . S
C493 C492 1.400 . S
C493 C494 1.398 . S
C494 H482 0.950 . S
C494 C493 1.398 . S
C494 C495 1.391 . S
C495 H483 0.950 . S
C495 C491 1.393 . S
C495 C494 1.391 . S
H496 C504 0.950 . S
H497 C509 0.950 . S
H498 C506 0.950 . S
H499 C508 0.950 . S
H500 C510 0.950 . S
H501 C512 0.950 . S
H502 C514 0.950 . S
H503 C515 0.950 . S
C504 H496 0.950 . S
C504 C505 1.386 . S
C504 C506 1.391 . S
C505 C504 1.386 . S
C505 C509 1.393 . S
C506 H498 0.950 . S
C506 C504 1.391 . S
C506 C507 1.400 . S
C507 C506 1.400 . S
C507 C508 1.398 . S
C507 C513 1.491 . S
C508 H499 0.950 . S
C508 C507 1.398 . S
C508 C509 1.391 . S
C509 H497 0.950 . S
C509 C505 1.393 . S
C509 C508 1.391 . S
C510 H500 0.950 . S
C510 C511 1.386 . S
C510 C512 1.391 . S
C511 C510 1.386 . S
C511 C515 1.393 . S
C512 H501 0.950 . S
C512 C510 1.391 . S
C512 C513 1.400 . S
C513 C507 1.491 . S
C513 C512 1.400 . S
C513 C514 1.398 . S
C514 H502 0.950 . S
C514 C513 1.398 . S
C514 C515 1.391 . S
C515 H503 0.950 . S
C515 C511 1.393 . S
C515 C514 1.391 . S
H516 C524 0.950 . S
H517 C529 0.950 . S
H518 C526 0.950 . S
H519 C528 0.950 . S
H520 C530 0.950 . S
H521 C532 0.950 . S
H522 C534 0.950 . S
H523 C535 0.950 . S
C524 H516 0.950 . S
C524 C525 1.386 . S
C524 C526 1.391 . S
C525 C524 1.386 . S
C525 C529 1.393 . S
C526 H518 0.950 . S
C526 C524 1.391 . S
C526 C527 1.400 . S
C527 C526 1.400 . S
C527 C528 1.398 . S
C527 C533 1.491 . S
C528 H519 0.950 . S
C528 C527 1.398 . S
C528 C529 1.391 . S
C529 H517 0.950 . S
C529 C525 1.393 . S
C529 C528 1.391 . S
C530 H520 0.950 . S
C530 C531 1.386 . S
C530 C532 1.391 . S
C531 C530 1.386 . S
C531 C535 1.393 . S
C532 H521 0.950 . S
C532 C530 1.391 . S
C532 C533 1.400 . S
C533 C527 1.491 . S
C533 C532 1.400 . S
C533 C534 1.398 . S
C534 H522 0.950 . S
C534 C533 1.398 . S
C534 C535 1.391 . S
C535 H523 0.950 . S
C535 C531 1.393 . S
C535 C534 1.391 . S
H536 C544 0.950 . S
H537 C549 0.950 . S
H538 C546 0.950 . S
H539 C548 0.950 . S
H540 C550 0.950 . S
H541 C552 0.950 . S
H542 C554 0.950 . S
H543 C555 0.950 . S
C544 H536 0.950 . S
C544 C545 1.386 . S
C544 C546 1.391 . S
C545 C544 1.386 . S
C545 C549 1.393 . S
C546 H538 0.950 . S
C546 C544 1.391 . S
C546 C547 1.400 . S
C547 C546 1.400 . S
C547 C548 1.398 . S
C547 C553 1.491 . S
C548 H539 0.950 . S
C548 C547 1.398 . S
C548 C549 1.391 . S
C549 H537 0.950 . S
C549 C545 1.393 . S
C549 C548 1.391 . S
C550 H540 0.950 . S
C550 C551 1.386 . S
C550 C552 1.391 . S
C551 C550 1.386 . S
C551 C555 1.393 . S
C552 H541 0.950 . S
C552 C550 1.391 . S
C552 C553 1.400 . S
C553 C547 1.491 . S
C553 C552 1.400 . S
C553 C554 1.398 . S
C554 H542 0.950 . S
C554 C553 1.398 . S
C554 C555 1.391 . S
C555 H543 0.950 . S
C555 C551 1.393 . S
C555 C554 1.391 . S
H556 C564 0.950 . S
H557 C569 0.950 . S
H558 C566 0.950 . S
H559 C568 0.950 . S
H560 C570 0.950 . S
H561 C572 0.950 . S
H562 C574 0.950 . S
H563 C575 0.950 . S
C564 H556 0.950 . S
C564 C565 1.386 . S
C564 C566 1.391 . S
C565 C564 1.386 . S
C565 C569 1.393 . S
C566 H558 0.950 . S
C566 C564 1.391 . S
C566 C567 1.400 . S
C567 C566 1.400 . S
C567 C568 1.398 . S
C567 C573 1.491 . S
C568 H559 0.950 . S
C568 C567 1.398 . S
C568 C569 1.391 . S
C569 H557 0.950 . S
C569 C565 1.393 . S
C569 C568 1.391 . S
C570 H560 0.950 . S
C570 C571 1.386 . S
C570 C572 1.391 . S
C571 C570 1.386 . S
C571 C575 1.393 . S
C572 H561 0.950 . S
C572 C570 1.391 . S
C572 C573 1.400 . S
C573 C567 1.491 . S
C573 C572 1.400 . S
C573 C574 1.398 . S
C574 H562 0.950 . S
C574 C573 1.398 . S
C574 C575 1.391 . S
C575 H563 0.950 . S
C575 C571 1.393 . S
C575 C574 1.391 . S
H576 C584 0.950 . S
H577 C589 0.950 . S
H578 C586 0.950 . S
H579 C588 0.950 . S
H580 C590 0.950 . S
H581 C592 0.950 . S
H582 C594 0.950 . S
H583 C595 0.950 . S
C584 H576 0.950 . S
C584 C585 1.386 . S
C584 C586 1.391 . S
C585 C584 1.386 . S
C585 C589 1.393 . S
C586 H578 0.950 . S
C586 C584 1.391 . S
C586 C587 1.400 . S
C587 C586 1.400 . S
C587 C588 1.398 . S
C587 C593 1.491 . S
C588 H579 0.950 . S
C588 C587 1.398 . S
C588 C589 1.391 . S
C589 H577 0.950 . S
C589 C585 1.393 . S
C589 C588 1.391 . S
C590 H580 0.950 . S
C590 C591 1.386 . S
C590 C592 1.391 . S
C591 C590 1.386 . S
C591 C595 1.393 . S
C592 H581 0.950 . S
C592 C590 1.391 . S
C592 C593 1.400 . S
C593 C587 1.491 . S
C593 C592 1.400 . S
C593 C594 1.398 . S
C594 H582 0.950 . S
C594 C593 1.398 . S
C594 C595 1.391 . S
C595 H583 0.950 . S
C595 C591 1.393 . S
C595 C594 1.391 . S
H596 C604 0.950 . S
H597 C609 0.950 . S
H598 C606 0.950 . S
H599 C608 0.950 . S
H600 C610 0.950 . S
H601 C612 0.950 . S
H602 C614 0.950 . S
H603 C615 0.950 . S
C604 H596 0.950 . S
C604 C605 1.386 . S
C604 C606 1.391 . S
C605 C604 1.386 . S
C605 C609 1.393 . S
C606 H598 0.950 . S
C606 C604 1.391 . S
C606 C607 1.400 . S
C607 C606 1.400 . S
C607 C608 1.398 . S
C607 C613 1.491 . S
C608 H599 0.950 . S
C608 C607 1.398 . S
C608 C609 1.391 . S
C609 H597 0.950 . S
C609 C605 1.393 . S
C609 C608 1.391 . S
C610 H600 0.950 . S
C610 C611 1.386 . S
C610 C612 1.391 . S
C611 C610 1.386 . S
C611 C615 1.393 . S
C612 H601 0.950 . S
C612 C610 1.391 . S
C612 C613 1.400 . S
C613 C607 1.491 . S
C613 C612 1.400 . S
C613 C614 1.398 . S
C614 H602 0.950 . S
C614 C613 1.398 . S
C614 C615 1.391 . S
C615 H603 0.950 . S
C615 C611 1.393 . S
C615 C614 1.391 . S
H616 C624 0.950 . S
H617 C629 0.950 . S
H618 C626 0.950 . S
H619 C628 0.950 . S
H620 C630 0.950 . S
H621 C632 0.950 . S
H622 C634 0.950 . S
H623 C635 0.950 . S
C624 H616 0.950 . S
C624 C625 1.386 . S
C624 C626 1.391 . S
C625 C624 1.386 . S
C625 C629 1.393 . S
C626 H618 0.950 . S
C626 C624 1.391 . S
C626 C627 1.400 . S
C627 C626 1.400 . S
C627 C628 1.398 . S
C627 C633 1.491 . S
C628 H619 0.950 . S
C628 C627 1.398 . S
C628 C629 1.391 . S
C629 H617 0.950 . S
C629 C625 1.393 . S
C629 C628 1.391 . S
C630 H620 0.950 . S
C630 C631 1.386 . S
C630 C632 1.391 . S
C631 C630 1.386 . S
C631 C635 1.393 . S
C632 H621 0.950 . S
C632 C630 1.391 . S
C632 C633 1.400 . S
C633 C627 1.491 . S
C633 C632 1.400 . S
C633 C634 1.398 . S
C634 H622 0.950 . S
C634 C633 1.398 . S
C634 C635 1.391 . S
C635 H623 0.950 . S
C635 C631 1.393 . S
C635 C634 1.391 . S
H636 C644 0.950 . S
H637 C649 0.950 . S
H638 C646 0.950 . S
H639 C648 0.950 . S
H640 C650 0.950 . S
H641 C652 0.950 . S
H642 C654 0.950 . S
H643 C655 0.950 . S
C644 H636 0.950 . S
C644 C645 1.386 . S
C644 C646 1.391 . S
C645 C644 1.386 . S
C645 C649 1.393 . S
C646 H638 0.950 . S
C646 C644 1.391 . S
C646 C647 1.400 . S
C647 C646 1.400 . S
C647 C648 1.398 . S
C647 C653 1.491 . S
C648 H639 0.950 . S
C648 C647 1.398 . S
C648 C649 1.391 . S
C649 H637 0.950 . S
C649 C645 1.393 . S
C649 C648 1.391 . S
C650 H640 0.950 . S
C650 C651 1.386 . S
C650 C652 1.391 . S
C651 C650 1.386 . S
C651 C655 1.393 . S
C652 H641 0.950 . S
C652 C650 1.391 . S
C652 C653 1.400 . S
C653 C647 1.491 . S
C653 C652 1.400 . S
C653 C654 1.398 . S
C654 H642 0.950 . S
C654 C653 1.398 . S
C654 C655 1.391 . S
C655 H643 0.950 . S
C655 C651 1.393 . S
C655 C654 1.391 . S
H656 C664 0.950 . S
H657 C669 0.950 . S
H658 C666 0.950 . S
H659 C668 0.950 . S
H660 C670 0.950 . S
H661 C672 0.950 . S
H662 C674 0.950 . S
H663 C675 0.950 . S
C664 H656 0.950 . S
C664 C665 1.386 . S
C664 C666 1.391 . S
C665 C664 1.386 . S
C665 C669 1.393 . S
C666 H658 0.950 . S
C666 C664 1.391 . S
C666 C667 1.400 . S
C667 C666 1.400 . S
C667 C668 1.398 . S
C667 C673 1.491 . S
C668 H659 0.950 . S
C668 C667 1.398 . S
C668 C669 1.391 . S
C669 H657 0.950 . S
C669 C665 1.393 . S
C669 C668 1.391 . S
C670 H660 0.950 . S
C670 C671 1.386 . S
C670 C672 1.391 . S
C671 C670 1.386 . S
C671 C675 1.393 . S
C672 H661 0.950 . S
C672 C670 1.391 . S
C672 C673 1.400 . S
C673 C667 1.491 . S
C673 C672 1.400 . S
C673 C674 1.398 . S
C674 H662 0.950 . S
C674 C673 1.398 . S
C674 C675 1.391 . S
C675 H663 0.950 . S
C675 C671 1.393 . S
C675 C674 1.391 . S
H676 C684 0.950 . S
H677 C689 0.950 . S
H678 C686 0.950 . S
H679 C688 0.950 . S
H680 C690 0.950 . S
H681 C692 0.950 . S
H682 C694 0.950 . S
H683 C695 0.950 . S
C684 H676 0.950 . S
C684 C685 1.386 . S
C684 C686 1.391 . S
C685 C684 1.386 . S
C685 C689 1.393 . S
C686 H678 0.950 . S
C686 C684 1.391 . S
C686 C687 1.400 . S
C687 C686 1.400 . S
C687 C688 1.398 . S
C687 C693 1.491 . S
C688 H679 0.950 . S
C688 C687 1.398 . S
C688 C689 1.391 . S
C689 H677 0.950 . S
C689 C685 1.393 . S
C689 C688 1.391 . S
C690 H680 0.950 . S
C690 C691 1.386 . S
C690 C692 1.391 . S
C691 C690 1.386 . S
C691 C695 1.393 . S
C692 H681 0.950 . S
C692 C690 1.391 . S
C692 C693 1.400 . S
C693 C687 1.491 . S
C693 C692 1.400 . S
C693 C694 1.398 . S
C694 H682 0.950 . S
C694 C693 1.398 . S
C694 C695 1.391 . S
C695 H683 0.950 . S
C695 C691 1.393 . S
C695 C694 1.391 . S
H696 C704 0.950 . S
H697 C709 0.950 . S
H698 C706 0.950 . S
H699 C708 0.950 . S
H700 C710 0.950 . S
H701 C712 0.950 . S
H702 C714 0.950 . S
H703 C715 0.950 . S
C704 H696 0.950 . S
C704 C705 1.386 . S
C704 C706 1.391 . S
C705 C704 1.386 . S
C705 C709 1.393 . S
C706 H698 0.950 . S
C706 C704 1.391 . S
C706 C707 1.400 . S
C707 C706 1.400 . S
C707 C708 1.398 . S
C707 C713 1.491 . S
C708 H699 0.950 . S
C708 C707 1.398 . S
C708 C709 1.391 . S
C709 H697 0.950 . S
C709 C705 1.393 . S
C709 C708 1.391 . S
C710 H700 0.950 . S
C710 C711 1.386 . S
C710 C712 1.391 . S
C711 C710 1.386 . S
C711 C715 1.393 . S
C712 H701 0.950 . S
C712 C710 1.391 . S
C712 C713 1.400 . S
C713 C707 1.491 . S
C713 C712 1.400 . S
C713 C714 1.398 . S
C714 H702 0.950 . S
C714 C713 1.398 . S
C714 C715 1.391 . S
C715 H703 0.950 . S
C715 C711 1.393 . S
C715 C714 1.391 . S
H716 C724 0.950 . S
H717 C729 0.950 . S
H718 C726 0.950 . S
H719 C728 0.950 . S
H720 C730 0.950 . S
H721 C732 0.950 . S
H722 C734 0.950 . S
H723 C735 0.950 . S
C724 H716 0.950 . S
C724 C725 1.386 . S
C724 C726 1.391 . S
C725 C724 1.386 . S
C725 C729 1.393 . S
C726 H718 0.950 . S
C726 C724 1.391 . S
C726 C727 1.400 . S
C727 C726 1.400 . S
C727 C728 1.398 . S
C727 C733 1.491 . S
C728 H719 0.950 . S
C728 C727 1.398 . S
C728 C729 1.391 . S
C729 H717 0.950 . S
C729 C725 1.393 . S
C729 C728 1.391 . S
C730 H720 0.950 . S
C730 C731 1.386 . S
C730 C732 1.391 . S
C731 C730 1.386 . S
C731 C735 1.393 . S
C732 H721 0.950 . S
C732 C730 1.391 . S
C732 C733 1.400 . S
C733 C727 1.491 . S
C733 C732 1.400 . S
C733 C734 1.398 . S
C734 H722 0.950 . S
C734 C733 1.398 . S
C734 C735 1.391 . S
C735 H723 0.950 . S
C735 C731 1.393 . S
C735 C734 1.391 . S
H736 C744 0.950 . S
H737 C749 0.950 . S
H738 C746 0.950 . S
H739 C748 0.950 . S
H740 C750 0.950 . S
H741 C752 0.950 . S
H742 C754 0.950 . S
H743 C755 0.950 . S
C744 H736 0.950 . S
C744 C745 1.386 . S
C744 C746 1.391 . S
C745 C744 1.386 . S
C745 C749 1.393 . S
C746 H738 0.950 . S
C746 C744 1.391 . S
C746 C747 1.400 . S
C747 C746 1.400 . S
C747 C748 1.398 . S
C747 C753 1.491 . S
C748 H739 0.950 . S
C748 C747 1.398 . S
C748 C749 1.391 . S
C749 H737 0.950 . S
C749 C745 1.393 . S
C749 C748 1.391 . S
C750 H740 0.950 . S
C750 C751 1.386 . S
C750 C752 1.391 . S
C751 C750 1.386 . S
C751 C755 1.393 . S
C752 H741 0.950 . S
C752 C750 1.391 . S
C752 C753 1.400 . S
C753 C747 1.491 . S
C753 C752 1.400 . S
C753 C754 1.398 . S
C754 H742 0.950 . S
C754 C753 1.398 . S
C754 C755 1.391 . S
C755 H743 0.950 . S
C755 C751 1.393 . S
C755 C754 1.391 . S
H756 C764 0.950 . S
H757 C769 0.950 . S
H758 C766 0.950 . S
H759 C768 0.950 . S
H760 C770 0.950 . S
H761 C772 0.950 . S
H762 C774 0.950 . S
H763 C775 0.950 . S
C764 H756 0.950 . S
C764 C765 1.386 . S
C764 C766 1.391 . S
C765 C764 1.386 . S
C765 C769 1.393 . S
C766 H758 0.950 . S
C766 C764 1.391 . S
C766 C767 1.400 . S
C767 C766 1.400 . S
C767 C768 1.398 . S
C767 C773 1.491 . S
C768 H759 0.950 . S
C768 C767 1.398 . S
C768 C769 1.391 . S
C769 H757 0.950 . S
C769 C765 1.393 . S
C769 C768 1.391 . S
C770 H760 0.950 . S
C770 C771 1.386 . S
C770 C772 1.391 . S
C771 C770 1.386 . S
C771 C775 1.393 . S
C772 H761 0.950 . S
C772 C770 1.391 . S
C772 C773 1.400 . S
C773 C767 1.491 . S
C773 C772 1.400 . S
C773 C774 1.398 . S
C774 H762 0.950 . S
C774 C773 1.398 . S
C774 C775 1.391 . S
C775 H763 0.950 . S
C775 C771 1.393 . S
C775 C774 1.391 . S
H776 C784 0.950 . S
H777 C789 0.950 . S
H778 C786 0.950 . S
H779 C788 0.950 . S
H780 C790 0.950 . S
H781 C792 0.950 . S
H782 C794 0.950 . S
H783 C795 0.950 . S
C784 H776 0.950 . S
C784 C785 1.386 . S
C784 C786 1.391 . S
C785 C784 1.386 . S
C785 C789 1.393 . S
C786 H778 0.950 . S
C786 C784 1.391 . S
C786 C787 1.400 . S
C787 C786 1.400 . S
C787 C788 1.398 . S
C787 C793 1.491 . S
C788 H779 0.950 . S
C788 C787 1.398 . S
C788 C789 1.391 . S
C789 H777 0.950 . S
C789 C785 1.393 . S
C789 C788 1.391 . S
C790 H780 0.950 . S
C790 C791 1.386 . S
C790 C792 1.391 . S
C791 C790 1.386 . S
C791 C795 1.393 . S
C792 H781 0.950 . S
C792 C790 1.391 . S
C792 C793 1.400 . S
C793 C787 1.491 . S
C793 C792 1.400 . S
C793 C794 1.398 . S
C794 H782 0.950 . S
C794 C793 1.398 . S
C794 C795 1.391 . S
C795 H783 0.950 . S
C795 C791 1.393 . S
C795 C794 1.391 . S
H796 C804 0.950 . S
H797 C809 0.950 . S
H798 C806 0.950 . S
H799 C808 0.950 . S
H800 C810 0.950 . S
H801 C812 0.950 . S
H802 C814 0.950 . S
H803 C815 0.950 . S
C804 H796 0.950 . S
C804 C805 1.386 . S
C804 C806 1.391 . S
C805 C804 1.386 . S
C805 C809 1.393 . S
C806 H798 0.950 . S
C806 C804 1.391 . S
C806 C807 1.400 . S
C807 C806 1.400 . S
C807 C808 1.398 . S
C807 C813 1.491 . S
C808 H799 0.950 . S
C808 C807 1.398 . S
C808 C809 1.391 . S
C809 H797 0.950 . S
C809 C805 1.393 . S
C809 C808 1.391 . S
C810 H800 0.950 . S
C810 C811 1.386 . S
C810 C812 1.391 . S
C811 C810 1.386 . S
C811 C815 1.393 . S
C812 H801 0.950 . S
C812 C810 1.391 . S
C812 C813 1.400 . S
C813 C807 1.491 . S
C813 C812 1.400 . S
C813 C814 1.398 . S
C814 H802 0.950 . S
C814 C813 1.398 . S
C814 C815 1.391 . S
C815 H803 0.950 . S
C815 C811 1.393 . S
C815 C814 1.391 . S
H816 C824 0.950 . S
H817 C829 0.950 . S
H818 C826 0.950 . S
H819 C828 0.950 . S
H820 C830 0.950 . S
H821 C832 0.950 . S
H822 C834 0.950 . S
H823 C835 0.950 . S
C824 H816 0.950 . S
C824 C825 1.386 . S
C824 C826 1.391 . S
C825 C824 1.386 . S
C825 C829 1.393 . S
C826 H818 0.950 . S
C826 C824 1.391 . S
C826 C827 1.400 . S
C827 C826 1.400 . S
C827 C828 1.398 . S
C827 C833 1.491 . S
C828 H819 0.950 . S
C828 C827 1.398 . S
C828 C829 1.391 . S
C829 H817 0.950 . S
C829 C825 1.393 . S
C829 C828 1.391 . S
C830 H820 0.950 . S
C830 C831 1.386 . S
C830 C832 1.391 . S
C831 C830 1.386 . S
C831 C835 1.393 . S
C832 H821 0.950 . S
C832 C830 1.391 . S
C832 C833 1.400 . S
C833 C827 1.491 . S
C833 C832 1.400 . S
C833 C834 1.398 . S
C834 H822 0.950 . S
C834 C833 1.398 . S
C834 C835 1.391 . S
C835 H823 0.950 . S
C835 C831 1.393 . S
C835 C834 1.391 . S
H836 C844 0.950 . S
H837 C849 0.950 . S
H838 C846 0.950 . S
H839 C848 0.950 . S
H840 C850 0.950 . S
H841 C852 0.950 . S
H842 C854 0.950 . S
H843 C855 0.950 . S
C844 H836 0.950 . S
C844 C845 1.386 . S
C844 C846 1.391 . S
C845 C844 1.386 . S
C845 C849 1.393 . S
C846 H838 0.950 . S
C846 C844 1.391 . S
C846 C847 1.400 . S
C847 C846 1.400 . S
C847 C848 1.398 . S
C847 C853 1.491 . S
C848 H839 0.950 . S
C848 C847 1.398 . S
C848 C849 1.391 . S
C849 H837 0.950 . S
C849 C845 1.393 . S
C849 C848 1.391 . S
C850 H840 0.950 . S
C850 C851 1.386 . S
C850 C852 1.391 . S
C851 C850 1.386 . S
C851 C855 1.393 . S
C852 H841 0.950 . S
C852 C850 1.391 . S
C852 C853 1.400 . S
C853 C847 1.491 . S
C853 C852 1.400 . S
C853 C854 1.398 . S
C854 H842 0.950 . S
C854 C853 1.398 . S
C854 C855 1.391 . S
C855 H843 0.950 . S
C855 C851 1.393 . S
C855 C854 1.391 . S
H856 C864 0.950 . S
H857 C869 0.950 . S
H858 C866 0.950 . S
H859 C868 0.950 . S
H860 C870 0.950 . S
H861 C872 0.950 . S
H862 C874 0.950 . S
H863 C875 0.950 . S
C864 H856 0.950 . S
C864 C865 1.386 . S
C864 C866 1.391 . S
C865 C864 1.386 . S
C865 C869 1.393 . S
C866 H858 0.950 . S
C866 C864 1.391 . S
C866 C867 1.400 . S
C867 C866 1.400 . S
C867 C868 1.398 . S
C867 C873 1.491 . S
C868 H859 0.950 . S
C868 C867 1.398 . S
C868 C869 1.391 . S
C869 H857 0.950 . S
C869 C865 1.393 . S
C869 C868 1.391 . S
C870 H860 0.950 . S
C870 C871 1.386 . S
C870 C872 1.391 . S
C871 C870 1.386 . S
C871 C875 1.393 . S
C872 H861 0.950 . S
C872 C870 1.391 . S
C872 C873 1.400 . S
C873 C867 1.491 . S
C873 C872 1.400 . S
C873 C874 1.398 . S
C874 H862 0.950 . S
C874 C873 1.398 . S
C874 C875 1.391 . S
C875 H863 0.950 . S
C875 C871 1.393 . S
C875 C874 1.391 . S
H876 C884 0.950 . S
H877 C889 0.950 . S
H878 C886 0.950 . S
H879 C888 0.950 . S
H880 C890 0.950 . S
H881 C892 0.950 . S
H882 C894 0.950 . S
H883 C895 0.950 . S
C884 H876 0.950 . S
C884 C885 1.386 . S
C884 C886 1.391 . S
C885 C884 1.386 . S
C885 C889 1.393 . S
C886 H878 0.950 . S
C886 C884 1.391 . S
C886 C887 1.400 . S
C887 C886 1.400 . S
C887 C888 1.398 . S
C887 C893 1.491 . S
C888 H879 0.950 . S
C888 C887 1.398 . S
C888 C889 1.391 . S
C889 H877 0.950 . S
C889 C885 1.393 . S
C889 C888 1.391 . S
C890 H880 0.950 . S
C890 C891 1.386 . S
C890 C892 1.391 . S
C891 C890 1.386 . S
C891 C895 1.393 . S
C892 H881 0.950 . S
C892 C890 1.391 . S
C892 C893 1.400 . S
C893 C887 1.491 . S
C893 C892 1.400 . S
C893 C894 1.398 . S
C894 H882 0.950 . S
C894 C893 1.398 . S
C894 C895 1.391 . S
C895 H883 0.950 . S
C895 C891 1.393 . S
C895 C894 1.391 . S
C425 C29 1.230 . S
C431 C263 1.236 . S
C445 C49 0.946 . S
C451 C312 0.957 . S
C471 C338 2.484 . S
C465 C93 2.470 . S
C485 C119 2.291 . S
C491 C386 2.282 . S
C511 C298 2.313 . S
C505 C17 2.287 . S
C531 C266 0.870 . S
C525 C61 0.892 . S
C551 C387 1.894 . S
C545 C81 1.895 . S
C571 C355 1.638 . S
C565 C125 1.615 . S
C585 C23 1.622 . S
C591 C383 1.629 . S
C611 C315 2.291 . S
C605 C87 2.321 . S
C625 C113 2.325 . S
C631 C267 2.353 . S
C645 C55 0.891 . S
C651 C352 0.906 . S
C671 C272 1.211 . S
C665 C157 1.101 . S
C685 C189 1.004 . S
C691 C303 0.996 . S
C705 C221 2.430 . S
C711 C347 2.437 . S
C725 C253 2.368 . S
C731 C395 2.373 . S
C745 C145 2.154 . S
C751 C307 2.397 . S
C771 C275 0.818 . S
C765 C183 0.833 . S
C791 C378 1.929 . S
C785 C209 1.915 . S
C811 C346 1.590 . S
C805 C247 1.574 . S
C825 C151 1.484 . S
C831 C392 1.649 . S
C851 C306 2.279 . S
C845 C215 2.309 . S
C871 C258 2.316 . S
C865 C241 2.264 . S
C885 C177 0.886 . S
C891 C343 0.884 . S
