# Generated by pormake.
# Topology zzz, (3,6)-cn, num edge types: 1
# Building blocks:
#     Node 0, Type 0, BuildingBlock: BETDAH_clean_linker_0, # of connection points: 3
#     Node 1, Type 0, BuildingBlock: BETDAH_clean_linker_0, # of connection points: 3
#     Node 2, Type 0, BuildingBlock: BETDAH_clean_linker_0, # of connection points: 3
#     Node 3, Type 0, BuildingBlock: BETDAH_clean_linker_0, # of connection points: 3
#     Node 4, Type 0, BuildingBlock: BETDAH_clean_linker_0, # of connection points: 3
#     Node 5, Type 0, BuildingBlock: BETDAH_clean_linker_0, # of connection points: 3
#     Node 6, Type 0, BuildingBlock: BETDAH_clean_linker_0, # of connection points: 3
#     Node 7, Type 0, BuildingBlock: BETDAH_clean_linker_0, # of connection points: 3
#     Node 8, Type 1, BuildingBlock: BETDIP_clean_sbu_0, # of connection points: 6
#     Node 9, Type 1, BuildingBlock: BETDIP_clean_sbu_0, # of connection points: 6
#     Node 10, Type 1, BuildingBlock: BETDIP_clean_sbu_0, # of connection points: 6
#     Node 11, Type 1, BuildingBlock: BETDIP_clean_sbu_0, # of connection points: 6
#     Edge 12, Type (0, 1), BuildingBlock: OJICUG_clean_linker_0, # of connection points: 2
#     Edge 13, Type (0, 1), BuildingBlock: OJICUG_clean_linker_0, # of connection points: 2
#     Edge 14, Type (0, 1), BuildingBlock: OJICUG_clean_linker_0, # of connection points: 2
#     Edge 15, Type (0, 1), BuildingBlock: OJICUG_clean_linker_0, # of connection points: 2
#     Edge 16, Type (0, 1), BuildingBlock: OJICUG_clean_linker_0, # of connection points: 2
#     Edge 17, Type (0, 1), BuildingBlock: OJICUG_clean_linker_0, # of connection points: 2
#     Edge 18, Type (0, 1), BuildingBlock: OJICUG_clean_linker_0, # of connection points: 2
#     Edge 19, Type (0, 1), BuildingBlock: OJICUG_clean_linker_0, # of connection points: 2
#     Edge 20, Type (0, 1), BuildingBlock: OJICUG_clean_linker_0, # of connection points: 2
#     Edge 21, Type (0, 1), BuildingBlock: OJICUG_clean_linker_0, # of connection points: 2
#     Edge 22, Type (0, 1), BuildingBlock: OJICUG_clean_linker_0, # of connection points: 2
#     Edge 23, Type (0, 1), BuildingBlock: OJICUG_clean_linker_0, # of connection points: 2
#     Edge 24, Type (0, 1), BuildingBlock: OJICUG_clean_linker_0, # of connection points: 2
#     Edge 25, Type (0, 1), BuildingBlock: OJICUG_clean_linker_0, # of connection points: 2
#     Edge 26, Type (0, 1), BuildingBlock: OJICUG_clean_linker_0, # of connection points: 2
#     Edge 27, Type (0, 1), BuildingBlock: OJICUG_clean_linker_0, # of connection points: 2
#     Edge 28, Type (0, 1), BuildingBlock: OJICUG_clean_linker_0, # of connection points: 2
#     Edge 29, Type (0, 1), BuildingBlock: OJICUG_clean_linker_0, # of connection points: 2
#     Edge 30, Type (0, 1), BuildingBlock: OJICUG_clean_linker_0, # of connection points: 2
#     Edge 31, Type (0, 1), BuildingBlock: OJICUG_clean_linker_0, # of connection points: 2
#     Edge 32, Type (0, 1), BuildingBlock: OJICUG_clean_linker_0, # of connection points: 2
#     Edge 33, Type (0, 1), BuildingBlock: OJICUG_clean_linker_0, # of connection points: 2
#     Edge 34, Type (0, 1), BuildingBlock: OJICUG_clean_linker_0, # of connection points: 2
#     Edge 35, Type (0, 1), BuildingBlock: OJICUG_clean_linker_0, # of connection points: 2
# Relax obj value: 0.364
# Max RMSD: 0.191
# Mean RMSD: 0.149
data_MOF--net-zzz--node1-BETDIP_clean_sbu_0--node2-BETDAH_clean_linker_0--edge1-OJICUG_clean_linker_0
_symmetry_space_group_name_H-M    P1
_symmetry_Int_Tables_number       1
_symmetry_cell_setting            triclinic
loop_
_symmetry_equiv_pos_as_xyz
'x, y, z'
_cell_length_a     37.78019
_cell_length_b     37.760401
_cell_length_c     10.204087
_cell_angle_alpha  89.679066
_cell_angle_beta   89.82609
_cell_angle_gamma 89.725298
loop_
_atom_site_label
_atom_site_type_symbol
_atom_site_fract_x
_atom_site_fract_y
_atom_site_fract_z
_atom_type_partial_charge
H0 H 0.83755 0.46996 0.43109 0.0
H1 H 0.7369 0.49276 0.25544 0.0
H2 H 0.78323 0.56644 0.52789 0.0
C3 C 0.81411 0.48663 0.42459 0.0
C4 C 0.81358 0.51864 0.4923 0.0
C5 C 0.78671 0.47738 0.3389 0.0
C6 C 0.75744 0.49983 0.32419 0.0
C7 C 0.75542 0.53173 0.39442 0.0
C8 C 0.784 0.54137 0.47686 0.0
N9 N 0.72553 0.55479 0.38135 0.0
C10 C 0.69715 0.54949 0.29539 0.0
H11 H 0.08876 0.84095 0.46275 0.0
H12 H 0.06944 0.74027 0.28483 0.0
H13 H 0.99261 0.78557 0.55127 0.0
C14 C 0.07272 0.81726 0.45517 0.0
C15 C 0.0402 0.81635 0.52025 0.0
C16 C 0.08314 0.79009 0.36977 0.0
C17 C 0.06143 0.76058 0.35346 0.0
C18 C 0.02898 0.75812 0.42085 0.0
C19 C 1.01815 0.78653 0.5029 0.0
N20 N 1.0065 0.72809 0.40408 0.0
C21 C 1.01311 0.70039 0.3159 0.0
H22 H 0.70461 0.96419 0.44641 0.0
H23 H 0.80784 0.97673 0.27424 0.0
H24 H 0.76729 0.05363 0.54839 0.0
C25 C 0.72984 0.97763 0.44036 0.0
C26 C 0.73301 1.00922 0.50922 0.0
C27 C 0.75583 0.96657 0.34975 0.0
C28 C 0.78788 0.98509 0.34393 0.0
C29 C 0.79267 1.0162 0.41694 0.0
C30 C 0.76474 0.02857 0.49818 0.0
N31 N 0.82407 0.03677 0.40249 0.0
C32 C 0.85159 0.0293 0.31416 0.0
H33 H 0.45995 0.72061 0.43995 0.0
H34 H 0.48361 0.81879 0.24554 0.0
H35 H 0.55972 0.77084 0.50813 0.0
C36 C 0.47711 0.74337 0.42732 0.0
C37 C 0.51017 0.74289 0.48806 0.0
C38 C 0.46763 0.7704 0.33886 0.0
C39 C 0.49085 0.79854 0.31627 0.0
C40 C 0.52392 0.79945 0.37918 0.0
C41 C 0.53374 0.7711 0.4635 0.0
N42 N 0.54816 0.82765 0.35516 0.0
C43 C 0.54253 0.85535 0.26549 0.0
H44 H 0.20782 0.59306 0.16732 0.0
H45 H 0.30797 0.57585 0.35628 0.0
H46 H 0.2622 0.4944 0.1146 0.0
C47 C 0.23142 0.57697 0.18159 0.0
C48 C 0.23205 0.54308 0.12862 0.0
C49 C 0.25846 0.58889 0.26424 0.0
C50 C 0.28771 0.56692 0.28944 0.0
C51 C 0.28984 0.53301 0.23294 0.0
C52 C 0.2615 0.52097 0.15402 0.0
N53 N 0.31936 0.51012 0.25703 0.0
C54 C 0.34729 0.51702 0.34333 0.0
H55 H 0.96644 0.21377 0.20857 0.0
H56 H 0.98749 0.31534 0.37716 0.0
H57 H 0.06163 0.26868 0.10374 0.0
C58 C 0.98257 0.23746 0.2127 0.0
C59 C 1.01445 0.23806 0.14343 0.0
C60 C 0.97291 0.2651 0.29728 0.0
C61 C 0.99482 0.29465 0.30905 0.0
C62 C 0.02657 0.29672 0.23709 0.0
C63 C 0.03658 0.26795 0.15559 0.0
N64 N 0.04924 0.32673 0.24819 0.0
C65 C 0.04376 0.35507 0.33442 0.0
H66 H 0.33576 0.96972 0.15252 0.0
H67 H 0.23441 0.9863 0.33629 0.0
H68 H 0.28327 0.06969 0.10891 0.0
C69 C 0.31228 0.98582 0.16789 0.0
C70 C 0.31232 1.02024 0.11738 0.0
C71 C 0.28466 0.97342 0.24874 0.0
C72 C 0.25552 0.99565 0.27317 0.0
C73 C 0.25454 0.03036 0.22219 0.0
C74 C 0.28333 0.04269 0.14536 0.0
N75 N 0.22565 0.05368 0.25023 0.0
C76 C 0.1982 0.04658 0.33923 0.0
H77 H 0.58502 0.34553 0.17156 0.0
H78 H 0.56648 0.24412 0.35245 0.0
H79 H 0.48519 0.2946 0.11952 0.0
C80 C 0.5687 0.32223 0.18508 0.0
C81 C 0.5347 0.32286 0.13228 0.0
C82 C 0.58028 0.29427 0.2663 0.0
C83 C 0.55776 0.26542 0.28861 0.0
C84 C 0.52349 0.26501 0.23488 0.0
C85 C 0.51192 0.29413 0.15766 0.0
N86 N 0.49978 0.2365 0.26115 0.0
C87 C 0.50626 0.20876 0.34981 0.0
Tb88 Tb 0.04905 1.01915 0.93327 0.0
Tb89 Tb 1.00367 0.03466 0.73584 0.0
C90 C 0.08304 0.99248 0.11948 0.0
C91 C 0.10514 0.96089 0.12589 0.0
C92 C 0.11248 0.94577 0.2476 0.0
C93 C 0.12888 0.91285 0.25466 0.0
C94 C 0.13749 0.89413 0.13949 0.0
C95 C 0.13218 0.91058 0.01726 0.0
C96 C 0.11609 0.94387 1.01051 0.0
C97 C 0.08447 0.03974 0.72068 0.0
C98 C 0.02519 0.95658 0.74225 0.0
C99 C 0.96947 0.06179 0.55138 0.0
C100 C 0.94937 0.09467 0.54409 0.0
C101 C 0.94695 0.11199 0.42383 0.0
C102 C 0.93138 0.14523 0.41598 0.0
C103 C 0.91942 0.16251 0.53001 0.0
C104 C 0.92144 0.14483 0.65114 0.0
C105 C 0.93612 0.11085 0.65803 0.0
C106 C 0.96902 1.01518 0.95254 0.0
C107 C 0.02782 0.09736 0.92496 0.0
O108 O 0.04941 0.98658 0.10005 0.0
O109 O 0.09526 1.01779 0.04513 0.0
O110 O 0.05835 1.01885 0.72265 0.0
O111 O 0.09027 0.05003 0.83866 0.0
O112 O 0.03732 0.96506 0.85952 0.0
O113 O 1.01447 0.98193 0.6631 0.0
O114 O 1.00355 0.06584 0.56566 0.0
O115 O 0.95654 0.03767 0.62948 0.0
O116 O 0.99497 0.03602 0.9454 0.0
O117 O 0.96285 1.00363 0.83629 0.0
O118 O 1.01607 0.08884 0.80721 0.0
O119 O 0.03765 0.07192 1.0054 0.0
H120 H 0.10361 0.95835 0.33706 0.0
H121 H 0.13152 0.90074 0.35062 0.0
H122 H 0.13807 0.89664 0.92722 0.0
H123 H 0.11036 0.95539 0.91533 0.0
H124 H 0.95864 0.1005 0.33678 0.0
H125 H 0.93169 0.15865 0.32186 0.0
H126 H 0.9136 0.15806 0.74065 0.0
H127 H 0.93887 0.09806 0.75283 0.0
Tb128 Tb 0.53257 0.05052 0.91837 0.0
Tb129 Tb 0.51338 1.01241 0.69447 0.0
C130 C 0.56568 0.06276 0.12173 0.0
C131 C 0.5951 0.03921 0.15949 0.0
C132 C 0.58895 1.00259 0.17253 0.0
C133 C 0.61644 0.97825 0.15745 0.0
C134 C 0.65101 0.98999 0.13338 0.0
C135 C 0.6575 0.0268 0.13154 0.0
C136 C 0.62985 0.05109 0.14398 0.0
C137 C 0.51332 0.09381 0.72607 0.0
C138 C 0.59171 0.02808 0.71368 0.0
C139 C 0.4836 0.98581 0.50123 0.0
C140 C 0.44909 0.96797 0.49778 0.0
C141 C 0.41793 0.98769 0.51516 0.0
C142 C 0.38543 0.9709 0.5202 0.0
C143 C 0.38302 0.93389 0.50652 0.0
C144 C 0.41419 0.91396 0.49141 0.0
C145 C 0.44704 0.93086 0.48888 0.0
C146 C 0.53363 0.9705 0.89062 0.0
C147 C 0.45234 0.03774 0.89606 0.0
O148 O 0.53436 0.04821 0.12373 0.0
O149 O 0.57113 0.08079 0.01363 0.0
O150 O 0.53141 0.06577 0.7141 0.0
O151 O 0.50735 0.09915 0.84948 0.0
O152 O 0.58357 0.02979 0.83968 0.0
O153 O 0.56589 0.02696 0.62779 0.0
O154 O 0.48294 1.01985 0.52568 0.0
O155 O 0.50811 0.96926 0.56777 0.0
O156 O 0.51394 0.99747 0.89828 0.0
O157 O 0.54283 0.96653 0.76969 0.0
O158 O 0.46063 1.02354 0.78133 0.0
O159 O 0.47725 0.04962 0.9738 0.0
H160 H 0.56246 0.99248 0.18578 0.0
H161 H 0.61027 0.95031 0.16135 0.0
H162 H 0.68399 0.03718 0.12028 0.0
H163 H 0.63536 0.0791 0.13327 0.0
H164 H 0.4184 1.01625 0.5245 0.0
H165 H 0.36199 0.9874 0.52788 0.0
H166 H 0.41303 0.88553 0.47851 0.0
H167 H 0.4708 0.91493 0.48001 0.0
Tb168 Tb 0.50009 0.54173 0.91875 0.0
Tb169 Tb 0.54523 0.52538 0.72032 0.0
C170 C 0.46639 0.56887 0.10453 0.0
C171 C 0.44412 0.60033 0.1096 0.0
C172 C 0.43721 0.61587 0.23044 0.0
C173 C 0.4208 0.64879 0.23575 0.0
C174 C 0.41177 0.66712 0.11956 0.0
C175 C 0.41666 0.65025 0.99844 0.0
C176 C 0.43276 0.61694 0.99351 0.0
C177 C 0.4642 0.5204 0.70974 0.0
C178 C 0.52414 0.60351 0.72087 0.0
C179 C 0.58071 0.49701 0.54163 0.0
C180 C 0.59515 0.46101 0.53391 0.0
C181 C 0.57273 0.43183 0.54868 0.0
C182 C 0.58657 0.3978 0.54865 0.0
C183 C 0.62319 0.392 0.53322 0.0
C184 C 0.64578 0.42123 0.5209 0.0
C185 C 0.63184 0.45558 0.52275 0.0
C186 C 0.57989 0.54732 0.93093 0.0
C187 C 0.52062 0.46377 0.9148 0.0
O188 O 0.4999 0.57497 0.08225 0.0
O189 O 0.45415 0.54321 0.03324 0.0
O190 O 0.49044 0.54116 0.70856 0.0
O191 O 0.45875 0.51043 0.82892 0.0
O192 O 0.51114 0.59539 0.83787 0.0
O193 O 0.53587 0.57815 0.6446 0.0
O194 O 0.54622 0.50013 0.5381 0.0
O195 O 0.59466 0.51637 0.63285 0.0
O196 O 0.55446 0.52567 0.93 0.0
O197 O 0.58476 0.55869 0.81292 0.0
O198 O 0.53088 0.47185 0.79427 0.0
O199 O 0.5123 0.4895 0.9952 0.0
H200 H 0.44644 0.60361 0.32034 0.0
H201 H 0.4185 0.66123 0.3308 0.0
H202 H 0.41047 0.66388 0.90761 0.0
H203 H 0.43821 0.60512 0.89897 0.0
H204 H 0.54437 0.4351 0.55957 0.0
H205 H 0.56812 0.37595 0.55412 0.0
H206 H 0.67396 0.41746 0.50656 0.0
H207 H 0.64968 0.47786 0.5148 0.0
Tb208 Tb 1.01486 0.50508 0.91458 0.0
Tb209 Tb 0.03292 0.55163 0.70454 0.0
C210 C 0.98848 0.4702 0.09939 0.0
C211 C 0.95687 0.4484 0.10452 0.0
C212 C 0.94101 0.4417 0.22541 0.0
C213 C 0.90766 0.42649 0.23068 0.0
C214 C 0.88925 0.41855 0.11446 0.0
C215 C 0.90645 0.42296 0.99332 0.0
C216 C 0.94021 0.43775 0.98841 0.0
C217 C 0.03802 0.47112 0.70388 0.0
C218 C 0.95286 0.53182 0.72377 0.0
C219 C 0.05815 0.57596 0.49723 0.0
C220 C 0.08621 0.60208 0.48279 0.0
C221 C 0.0999 0.60999 0.35908 0.0
C222 C 0.13135 0.62896 0.34833 0.0
C223 C 0.14951 0.6401 0.46166 0.0
C224 C 0.13348 0.63526 0.58455 0.0
C225 C 0.1023 0.61598 0.59511 0.0
C226 C 0.02634 0.59413 0.91081 0.0
C227 C 0.09214 0.52918 0.90882 0.0
O228 O 0.98254 0.504 0.08153 0.0
O229 O 1.0138 0.45823 0.02463 0.0
O230 O 1.01659 0.49705 0.70489 0.0
O231 O 0.04823 0.46532 0.82249 0.0
O232 O 0.9617 0.51325 0.82931 0.0
O233 O 0.97715 0.54842 0.65456 0.0
O234 O 0.06856 0.54582 0.54912 0.0
O235 O 0.02884 0.58792 0.54973 0.0
O236 O 1.02205 0.56086 0.91231 0.0
O237 O 0.03291 0.60384 0.79266 0.0
O238 O 0.08533 0.53765 0.78547 0.0
O239 O 0.06604 0.52095 0.98875 0.0
H240 H 0.95329 0.45038 0.31539 0.0
H241 H 0.895 0.42446 0.32577 0.0
H242 H 0.89276 0.41755 0.90252 0.0
H243 H 0.9523 0.44293 0.89383 0.0
H244 H 0.08779 0.59931 0.27172 0.0
H245 H 0.14313 0.63158 0.2519 0.0
H246 H 0.14675 0.64343 0.67331 0.0
H247 H 0.0924 0.60972 0.69187 0.0
C248 C 0.17385 0.05696 0.56066 0.0
C249 C 0.16963 0.04313 0.43479 0.0
H250 H 0.15029 0.06716 0.74743 0.0
C251 C 0.13698 0.028 0.40131 0.0
H252 H 0.19866 0.06901 0.58869 0.0
C253 C 0.10895 0.02655 0.49299 0.0
C254 C 0.1131 0.04078 0.61924 0.0
H255 H 0.13315 1.01777 0.30376 0.0
H256 H 0.08407 1.0147 0.46483 0.0
C257 C 0.14596 0.05598 0.65133 0.0
C258 C 0.52507 0.14736 0.40978 0.0
C259 C 0.5095 0.17989 0.44438 0.0
H260 H 0.53838 0.09428 0.47126 0.0
C261 C 0.49528 0.18379 0.5705 0.0
H262 H 0.53611 0.14372 0.31263 0.0
C263 C 0.49631 0.15564 0.66055 0.0
C264 C 0.51168 0.1229 0.62681 0.0
H265 H 0.48302 0.20857 0.59927 0.0
H266 H 0.485 0.15957 0.75709 0.0
C267 C 0.52618 0.11906 0.50025 0.0
C268 C 0.37377 0.50394 0.55931 0.0
C269 C 0.37669 0.51958 0.43512 0.0
H270 H 0.39909 0.49146 0.74094 0.0
C271 C 0.40892 0.53543 0.39909 0.0
H272 H 0.34935 0.49125 0.5891 0.0
C273 C 0.43776 0.53587 0.48682 0.0
C274 C 0.43487 0.51994 0.61153 0.0
H275 H 0.41182 0.54703 0.30257 0.0
H276 H 0.46225 0.54838 0.45696 0.0
C277 C 0.40246 0.50396 0.64597 0.0
C278 C 0.05846 0.38212 0.54724 0.0
C279 C 0.04132 0.3845 0.42614 0.0
H280 H 0.07136 0.40764 0.7272 0.0
C281 C 1.02335 0.41604 0.39371 0.0
H282 H 0.07268 0.3582 0.57437 0.0
C283 C 1.02226 0.4447 0.48203 0.0
C284 C 0.03957 0.44231 0.60385 0.0
H285 H 1.01044 0.41846 0.29972 0.0
H286 H 1.00796 0.46858 0.45519 0.0
C287 C 0.05775 0.41063 0.6345 0.0
C288 C 0.88564 0.99412 0.14911 0.0
C289 C 0.88158 0.0247 0.22542 0.0
H290 H 0.91667 0.96722 1.00267 0.0
C291 C 0.90688 0.05155 0.21439 0.0
H292 H 0.86629 0.9731 0.1548 0.0
C293 C 0.93626 0.04785 0.13069 0.0
C294 C 0.9403 1.01749 0.0528 0.0
H295 H 0.90334 0.07574 0.26892 0.0
H296 H 0.95504 0.06935 0.12306 0.0
C297 C 0.91455 0.99071 0.06267 0.0
C298 C 0.51671 0.91313 0.19377 0.0
C299 C 0.53939 0.88423 0.17094 0.0
H300 H 0.49706 0.96338 0.12378 0.0
C301 C 0.56007 0.88398 0.05669 0.0
H302 H 0.50054 0.91389 0.28117 0.0
C303 C 0.55825 0.91217 0.96686 0.0
C304 C 0.53574 0.94133 0.98935 0.0
H305 H 0.57783 0.86201 0.03703 0.0
H306 H 0.57463 0.91119 0.87964 0.0
C307 C 0.51482 0.94145 0.1038 0.0
C308 C 0.63797 0.52621 0.22881 0.0
C309 C 0.66749 0.54785 0.20434 0.0
H310 H 0.58667 0.50908 0.16276 0.0
C311 C 0.66755 0.56945 0.09233 0.0
H312 H 0.63729 0.50938 0.31476 0.0
C313 C 0.6387 0.56958 1.00631 0.0
C314 C 0.60899 0.54802 0.02966 0.0
H315 H 0.68991 0.58646 0.07138 0.0
H316 H 0.63981 0.58655 0.92047 0.0
C317 C 0.60892 0.52624 0.14225 0.0
C318 C 1.01024 0.63691 0.24662 0.0
C319 C 1.01839 0.67255 0.21884 0.0
H320 H 1.00651 0.58358 0.17209 0.0
C321 C 0.03029 0.68148 0.09301 0.0
H322 H 1.00099 0.62941 0.34334 0.0
C323 C 0.0332 0.65559 0.99575 0.0
C324 C 0.02435 0.61994 0.02129 0.0
H325 H 0.0368 0.70868 0.06891 0.0
H326 H 0.04209 0.66376 0.8992 0.0
C327 C 1.01331 0.61072 0.14875 0.0
C328 C 0.95491 0.2505 0.52155 0.0
C329 C 0.94442 0.2581 0.39256 0.0
H330 H 0.9529 0.212 0.67471 0.0
C331 C 0.91256 0.24392 0.34624 0.0
H332 H 0.979 0.26172 0.56065 0.0
C333 C 0.89729 0.21543 0.41256 0.0
C334 C 0.91448 0.20119 0.52292 0.0
H335 H 0.90361 0.25001 0.24782 0.0
H336 H 0.877 0.20036 0.3632 0.0
C337 C 0.93979 0.22185 0.58738 0.0
C338 C 0.29014 0.94586 0.46757 0.0
C339 C 0.29143 0.94149 0.33084 0.0
H340 H 0.3208 0.94331 0.64262 0.0
C341 C 0.31381 0.91488 0.28071 0.0
H342 H 0.27196 0.96459 0.51185 0.0
C343 C 0.34291 0.90396 0.35491 0.0
C344 C 0.34786 0.91861 0.47965 0.0
H345 H 0.31383 0.90909 0.1768 0.0
H346 H 0.36445 0.89057 0.30494 0.0
C347 C 0.31839 0.93359 0.5433 0.0
C348 C 0.60571 0.29958 0.48746 0.0
C349 C 0.61141 0.30054 0.35124 0.0
H350 H 0.60802 0.33003 0.66272 0.0
C351 C 0.6389 0.32198 0.30267 0.0
H352 H 0.58602 0.28222 0.53021 0.0
C353 C 0.65037 0.35045 0.37776 0.0
C354 C 0.63538 0.35581 0.50218 0.0
H355 H 0.64537 0.32182 0.19913 0.0
H356 H 0.66497 0.37137 0.32897 0.0
C357 C 0.61832 0.32723 0.56403 0.0
C358 C 0.2338 0.64915 0.28685 0.0
C359 C 0.25026 0.61981 0.34696 0.0
H360 H 0.18611 0.67983 0.27976 0.0
C361 C 0.24197 0.61216 0.47808 0.0
H362 H 0.24066 0.6564 0.1871 0.0
C363 C 0.2105 0.62524 0.53094 0.0
C364 C 0.18809 0.64646 0.45278 0.0
H365 H 0.25512 0.59054 0.52889 0.0
H366 H 0.2011 0.61338 0.6214 0.0
C367 C 0.20221 0.66225 0.33931 0.0
C368 C 0.10219 0.80533 0.14736 0.0
C369 C 0.11206 0.79779 0.27701 0.0
H370 H 0.10434 0.84385 0.99479 0.0
C371 C 0.14345 0.81239 0.32583 0.0
H372 H 0.07855 0.79372 0.10614 0.0
C373 C 0.15875 0.84108 0.2607 0.0
C374 C 0.14191 0.85529 0.14948 0.0
H375 H 0.15201 0.80628 0.42469 0.0
H376 H 0.1789 0.85611 0.31098 0.0
C377 C 0.11715 0.83431 0.08315 0.0
C378 C 0.74499 0.96357 0.1164 0.0
C379 C 0.74429 0.9449 0.23595 0.0
H380 H 0.71306 0.99586 0.99138 0.0
C381 C 0.71484 0.92286 0.2565 0.0
H382 H 0.7687 0.97723 0.0847 0.0
C383 C 0.68214 0.93456 0.20819 0.0
C384 C 0.68111 0.96461 0.12565 0.0
H385 H 0.71471 0.90456 0.33865 0.0
H386 H 0.65841 0.92392 0.25263 0.0
C387 C 0.71281 0.97494 0.06405 0.0
C388 C 0.40671 0.74925 0.29985 0.0
C389 C 0.43819 0.76333 0.24835 0.0
H390 H 0.37087 0.7058 0.29034 0.0
C391 C 0.44744 0.75562 0.11827 0.0
H392 H 0.39852 0.75559 0.39887 0.0
C393 C 0.432 0.72669 0.0569 0.0
C394 C 0.40736 0.70598 0.12643 0.0
H395 H 0.47104 0.7669 0.07456 0.0
H396 H 0.44441 0.71691 0.96824 0.0
C397 C 0.39095 0.72058 0.23764 0.0
C398 C 0.80219 0.45846 0.11721 0.0
C399 C 0.79368 0.44849 0.24608 0.0
H400 H 0.84114 0.45473 0.96694 0.0
C401 C 0.80677 0.41623 0.29544 0.0
H402 H 0.7918 0.48287 0.07585 0.0
C403 C 0.83497 0.39962 0.2318 0.0
C404 C 0.85028 0.41603 0.12162 0.0
H405 H 0.79995 0.4077 0.39385 0.0
H406 H 0.84896 0.37857 0.28279 0.0
C407 C 0.83069 0.44214 0.05446 0.0
C408 C 0.04473 0.17894 0.13491 0.0
C409 C 0.02454 0.2052 0.07131 0.0
H410 H 0.06142 0.12455 0.13952 0.0
C411 C 1.00697 0.19621 0.95474 0.0
H412 H 0.05754 0.18469 0.22719 0.0
C413 C 1.00907 0.16166 0.90405 0.0
C414 C 0.02812 0.13498 0.97058 0.0
H415 H 0.99022 0.21554 0.90609 0.0
H416 H 0.99448 0.15551 0.81595 0.0
C417 C 0.04645 0.1443 0.08545 0.0
C418 C 0.35438 1.01519 0.92798 0.0
C419 C 0.34482 0.03189 0.04588 0.0
H420 H 0.39532 1.00405 0.78811 0.0
C421 C 0.37023 0.05276 0.10922 0.0
H422 H 0.3357 0.99807 0.8791 0.0
C423 C 0.40476 0.05571 0.05831 0.0
C424 C 0.4147 0.03795 0.94248 0.0
H425 H 0.36404 0.06498 0.20236 0.0
H426 H 0.42401 0.07092 0.1124 0.0
C427 C 0.38871 1.01839 0.87644 0.0
C428 C 0.53879 0.36454 0.94111 0.0
C429 C 0.52358 0.35592 0.06307 0.0
H430 H 0.54963 0.40501 0.79862 0.0
C431 C 0.5055 0.38257 0.13216 0.0
H432 H 0.55393 0.34484 0.88786 0.0
C433 C 0.50372 0.41732 0.0824 0.0
C434 C 0.51992 0.42624 0.96205 0.0
H435 H 0.4946 0.37703 0.22841 0.0
H436 H 0.49054 0.43743 0.14032 0.0
C437 C 0.53667 0.39915 0.89065 0.0
C438 C 0.19152 0.54548 0.93488 0.0
C439 C 0.19944 0.53148 0.05948 0.0
H440 H 0.15176 0.55566 0.7893 0.0
C441 C 0.17218 0.51505 0.13112 0.0
H442 H 0.21165 0.55948 0.87966 0.0
C443 C 0.1376 0.51364 0.08113 0.0
C444 C 0.12939 0.52861 0.95797 0.0
H445 H 0.17716 0.50523 0.22937 0.0
H446 H 0.11709 0.50168 0.14088 0.0
C447 C 0.15704 0.54374 0.8841 0.0
C448 C 0.04731 0.85806 0.70962 0.0
C449 C 0.02956 0.84892 0.59352 0.0
H450 H 0.05961 0.89874 0.84868 0.0
C451 C 1.00875 0.87496 0.53136 0.0
H452 H 0.06453 0.83894 0.75724 0.0
C453 C 1.00666 0.90952 0.58161 0.0
C454 C 0.0252 0.91899 0.69591 0.0
H455 H 0.99579 0.86916 0.43943 0.0
H456 H 0.99125 0.92912 0.52851 0.0
C457 C 0.04483 0.89249 0.76108 0.0
C458 C 0.69221 1.01526 0.70357 0.0
C459 C 0.69999 1.02298 0.57186 0.0
H460 H 0.65195 1.01093 0.85246 0.0
C461 C 0.6723 0.03465 0.49036 0.0
H462 H 0.71281 1.00497 0.76669 0.0
C463 C 0.63744 0.03682 0.53712 0.0
C464 C 0.62931 0.02795 0.66787 0.0
H465 H 0.67741 0.03999 0.38785 0.0
H466 H 0.6167 0.04466 0.46964 0.0
C467 C 0.65731 1.01816 0.75168 0.0
C468 C 0.54213 0.68473 0.50711 0.0
C469 C 0.5199 0.71038 0.56378 0.0
H470 H 0.56065 0.63093 0.51122 0.0
C471 C 0.50077 0.70124 0.67755 0.0
H472 H 0.55633 0.69064 0.41726 0.0
C473 C 0.5032 0.66705 0.73189 0.0
C474 C 0.52419 0.64086 0.67184 0.0
H475 H 0.48266 0.72017 0.72112 0.0
H476 H 0.48739 0.66072 0.81749 0.0
C477 C 0.54414 0.65036 0.5601 0.0
C478 C 0.85606 0.50634 0.67588 0.0
C479 C 0.84586 0.52782 0.56914 0.0
H480 H 0.89725 0.49095 0.80917 0.0
C481 C 0.87045 0.55225 0.51903 0.0
H482 H 0.83804 0.48657 0.71421 0.0
C483 C 0.90479 0.55425 0.57147 0.0
C484 C 0.91538 0.53197 0.67596 0.0
H485 H 0.8638 0.56834 0.43431 0.0
H486 H 0.92338 0.57255 0.52732 0.0
C487 C 0.89019 0.50861 0.7294 0.0
loop_
_geom_bond_atom_site_label_1
_geom_bond_atom_site_label_2
_geom_bond_distance
_geom_bond_site_symmetry_2
_ccdc_geom_bond_type
H0 C3 0.929 . S
H1 C6 0.929 . S
H2 C8 0.930 . S
C3 H0 0.929 . S
C3 C4 1.398 . S
C3 C5 1.396 . S
C4 C3 1.398 . S
C4 C8 1.407 . S
C5 C3 1.396 . S
C5 C6 1.394 . S
C6 H1 0.929 . S
C6 C5 1.394 . S
C6 C7 1.382 . S
C7 C6 1.382 . S
C7 C8 1.392 . S
C7 N9 1.420 . S
C8 H2 0.930 . S
C8 C4 1.407 . S
C8 C7 1.392 . S
N9 C7 1.420 . S
N9 C10 1.244 . S
C10 N9 1.244 . S
H11 C14 0.929 . S
H12 C17 0.929 . S
H13 C19 0.930 . S
C14 H11 0.929 . S
C14 C15 1.395 1_655 S
C14 C16 1.394 1_655 S
C15 C14 1.395 1_455 S
C15 C19 1.414 . S
C16 C14 1.394 1_455 S
C16 C17 1.397 . S
C17 H12 0.929 . S
C17 C16 1.397 . S
C17 C18 1.382 . S
C18 C17 1.382 . S
C18 C19 1.392 . S
C18 N20 1.420 . S
C19 H13 0.930 . S
C19 C15 1.414 . S
C19 C18 1.392 . S
N20 C18 1.420 . S
N20 C21 1.232 1_455 S
C21 N20 1.232 1_655 S
H22 C25 0.929 . S
H23 C28 0.929 . S
H24 C30 0.930 . S
C25 H22 0.929 . S
C25 C26 1.395 1_565 S
C25 C27 1.395 1_565 S
C26 C25 1.395 1_545 S
C26 C30 1.414 . S
C27 C25 1.395 1_545 S
C27 C28 1.397 . S
C28 H23 0.929 . S
C28 C27 1.397 . S
C28 C29 1.382 . S
C29 C28 1.382 . S
C29 C30 1.392 . S
C29 N31 1.420 . S
C30 H24 0.930 . S
C30 C26 1.414 . S
C30 C29 1.392 . S
N31 C29 1.420 . S
N31 C32 1.231 1_545 S
C32 N31 1.231 1_565 S
H33 C36 0.929 . S
H34 C39 0.929 . S
H35 C41 0.930 . S
C36 H33 0.929 . S
C36 C37 1.398 . S
C36 C38 1.396 . S
C37 C36 1.398 . S
C37 C41 1.407 . S
C38 C36 1.396 . S
C38 C39 1.394 . S
C39 H34 0.929 . S
C39 C38 1.394 . S
C39 C40 1.382 . S
C40 C39 1.382 . S
C40 C41 1.392 . S
C40 N42 1.420 . S
C41 H35 0.930 . S
C41 C37 1.407 . S
C41 C40 1.392 . S
N42 C40 1.420 . S
N42 C43 1.244 . S
C43 N42 1.244 . S
H44 C47 0.929 . S
H45 C50 0.929 . S
H46 C52 0.930 . S
C47 H44 0.929 . S
C47 C48 1.398 1_554 S
C47 C49 1.396 . S
C48 C47 1.398 1_556 S
C48 C52 1.407 . S
C49 C47 1.396 . S
C49 C50 1.394 . S
C50 H45 0.929 . S
C50 C49 1.394 . S
C50 C51 1.382 . S
C51 C50 1.382 . S
C51 C52 1.392 1_554 S
C51 N53 1.420 . S
C52 H46 0.930 . S
C52 C48 1.407 . S
C52 C51 1.392 1_556 S
N53 C51 1.420 . S
N53 C54 1.244 . S
C54 N53 1.244 . S
H55 C58 0.929 . S
H56 C61 0.929 . S
H57 C63 0.930 . S
C58 H55 0.929 . S
C58 C59 1.398 1_654 S
C58 C60 1.394 1_655 S
C59 C58 1.398 1_456 S
C59 C63 1.407 . S
C60 C58 1.394 1_455 S
C60 C61 1.398 . S
C61 H56 0.929 . S
C61 C60 1.398 . S
C61 C62 1.382 . S
C62 C61 1.382 . S
C62 C63 1.392 1_554 S
C62 N64 1.420 . S
C63 H57 0.930 . S
C63 C59 1.407 . S
C63 C62 1.392 1_556 S
N64 C62 1.420 . S
N64 C65 1.235 1_455 S
C65 N64 1.235 1_655 S
H66 C69 0.929 . S
H67 C72 0.929 . S
H68 C74 0.930 . S
C69 H66 0.929 . S
C69 C70 1.398 1_564 S
C69 C71 1.393 1_565 S
C70 C69 1.398 1_546 S
C70 C74 1.407 . S
C71 C69 1.393 1_545 S
C71 C72 1.398 . S
C72 H67 0.929 . S
C72 C71 1.398 . S
C72 C73 1.382 . S
C73 C72 1.382 . S
C73 C74 1.392 1_554 S
C73 N75 1.420 . S
C74 H68 0.930 . S
C74 C70 1.407 . S
C74 C73 1.392 1_556 S
N75 C73 1.420 . S
N75 C76 1.235 1_545 S
C76 N75 1.235 1_565 S
H77 C80 0.929 1_556 S
H78 C83 0.929 . S
H79 C85 0.930 . S
C80 H77 0.929 1_554 S
C80 C81 1.398 1_554 S
C80 C82 1.396 . S
C81 C80 1.398 1_556 S
C81 C85 1.407 . S
C82 C80 1.396 . S
C82 C83 1.394 . S
C83 H78 0.929 . S
C83 C82 1.394 . S
C83 C84 1.382 . S
C84 C83 1.382 . S
C84 C85 1.392 1_554 S
C84 N86 1.420 . S
C85 H79 0.930 . S
C85 C81 1.407 . S
C85 C84 1.392 1_556 S
N86 C84 1.420 . S
N86 C87 1.244 . S
C87 N86 1.244 . S
Tb88 C90 2.809 1_556 S
Tb88 O108 2.484 1_556 S
Tb88 O109 2.440 1_556 S
Tb88 O110 2.658 1_565 S
Tb88 O111 2.409 . S
Tb88 O112 2.378 . S
Tb88 O116 2.325 1_455 S
Tb88 O119 2.341 1_565 S
Tb89 C99 2.809 . S
Tb89 O110 2.325 1_655 S
Tb89 O113 2.341 1_545 S
Tb89 O114 2.484 . S
Tb89 O115 2.440 . S
Tb89 O116 2.658 1_545 S
Tb89 O117 2.409 . S
Tb89 O118 2.378 . S
C90 Tb88 2.809 1_554 S
C90 C91 1.514 . S
C90 O108 1.248 . S
C90 O109 1.266 . S
C91 C90 1.514 . S
C91 C92 1.359 . S
C91 C96 1.348 . S
C92 C91 1.359 . S
C92 C93 1.380 . S
C92 H120 0.929 1_455 S
C93 C92 1.380 . S
C93 C94 1.347 . S
C93 H121 0.931 1_455 S
C94 C93 1.347 . S
C94 C95 1.369 . S
C95 C94 1.369 . S
C95 C96 1.408 . S
C95 H122 0.930 . S
C96 C91 1.348 . S
C96 C95 1.408 . S
C96 H123 0.930 . S
C97 O110 1.281 1_565 S
C97 O111 1.254 . S
C98 O112 1.236 1_655 S
C98 O113 1.266 . S
C99 Tb89 2.809 . S
C99 C100 1.514 . S
C99 O114 1.248 . S
C99 O115 1.266 . S
C100 C99 1.514 . S
C100 C101 1.359 . S
C100 C105 1.348 . S
C101 C100 1.359 . S
C101 C102 1.380 . S
C101 H124 0.929 1_655 S
C102 C101 1.380 . S
C102 C103 1.347 . S
C102 H125 0.931 1_655 S
C103 C102 1.347 . S
C103 C104 1.369 . S
C104 C103 1.369 . S
C104 C105 1.408 . S
C104 H126 0.930 . S
C105 C100 1.348 . S
C105 C104 1.408 . S
C105 H127 0.930 . S
C106 O116 1.281 1_545 S
C106 O117 1.254 . S
C107 O118 1.236 1_455 S
C107 O119 1.266 . S
O108 Tb88 2.484 1_554 S
O108 C90 1.248 . S
O109 Tb88 2.440 1_554 S
O109 C90 1.266 . S
O110 Tb88 2.658 1_545 S
O110 Tb89 2.325 1_455 S
O110 C97 1.281 1_545 S
O111 Tb88 2.409 . S
O111 C97 1.254 . S
O112 Tb88 2.378 . S
O112 C98 1.236 1_455 S
O113 Tb89 2.341 1_565 S
O113 C98 1.266 . S
O114 Tb89 2.484 . S
O114 C99 1.248 . S
O115 Tb89 2.440 . S
O115 C99 1.266 . S
O116 Tb88 2.325 1_655 S
O116 Tb89 2.658 1_565 S
O116 C106 1.281 1_565 S
O117 Tb89 2.409 . S
O117 C106 1.254 . S
O118 Tb89 2.378 . S
O118 C107 1.236 1_655 S
O119 Tb88 2.341 1_545 S
O119 C107 1.266 . S
H120 C92 0.929 1_655 S
H121 C93 0.931 1_655 S
H122 C95 0.930 . S
H123 C96 0.930 . S
H124 C101 0.929 1_455 S
H125 C102 0.931 1_455 S
H126 C104 0.930 . S
H127 C105 0.930 . S
Tb128 C130 2.809 1_556 S
Tb128 O148 2.484 1_556 S
Tb128 O149 2.440 1_556 S
Tb128 O150 2.658 . S
Tb128 O151 2.409 . S
Tb128 O152 2.378 . S
Tb128 O156 2.325 1_545 S
Tb128 O159 2.341 . S
Tb129 C139 2.809 . S
Tb129 O150 2.325 1_565 S
Tb129 O153 2.341 . S
Tb129 O154 2.484 . S
Tb129 O155 2.440 . S
Tb129 O156 2.658 . S
Tb129 O157 2.409 . S
Tb129 O158 2.378 . S
C130 Tb128 2.809 1_554 S
C130 C131 1.514 . S
C130 O148 1.248 . S
C130 O149 1.266 . S
C131 C130 1.514 . S
C131 C132 1.359 . S
C131 C136 1.348 . S
C132 C131 1.359 . S
C132 C133 1.380 . S
C132 H160 0.929 1_545 S
C133 C132 1.380 . S
C133 C134 1.347 . S
C133 H161 0.931 1_545 S
C134 C133 1.347 . S
C134 C135 1.369 . S
C135 C134 1.369 . S
C135 C136 1.408 . S
C135 H162 0.930 . S
C136 C131 1.348 . S
C136 C135 1.408 . S
C136 H163 0.930 . S
C137 O150 1.281 . S
C137 O151 1.254 . S
C138 O152 1.236 1_565 S
C138 O153 1.266 . S
C139 Tb129 2.809 . S
C139 C140 1.514 . S
C139 O154 1.248 . S
C139 O155 1.266 . S
C140 C139 1.514 . S
C140 C141 1.359 . S
C140 C145 1.348 . S
C141 C140 1.359 . S
C141 C142 1.380 . S
C141 H164 0.929 1_565 S
C142 C141 1.380 . S
C142 C143 1.347 . S
C142 H165 0.931 1_565 S
C143 C142 1.347 . S
C143 C144 1.369 . S
C144 C143 1.369 . S
C144 C145 1.408 . S
C144 H166 0.930 . S
C145 C140 1.348 . S
C145 C144 1.408 . S
C145 H167 0.930 . S
C146 O156 1.281 . S
C146 O157 1.254 . S
C147 O158 1.236 1_545 S
C147 O159 1.266 . S
O148 Tb128 2.484 1_554 S
O148 C130 1.248 . S
O149 Tb128 2.440 1_554 S
O149 C130 1.266 . S
O150 Tb128 2.658 . S
O150 Tb129 2.325 1_545 S
O150 C137 1.281 . S
O151 Tb128 2.409 . S
O151 C137 1.254 . S
O152 Tb128 2.378 . S
O152 C138 1.236 1_545 S
O153 Tb129 2.341 . S
O153 C138 1.266 . S
O154 Tb129 2.484 . S
O154 C139 1.248 . S
O155 Tb129 2.440 . S
O155 C139 1.266 . S
O156 Tb128 2.325 1_565 S
O156 Tb129 2.658 . S
O156 C146 1.281 . S
O157 Tb129 2.409 . S
O157 C146 1.254 . S
O158 Tb129 2.378 . S
O158 C147 1.236 1_565 S
O159 Tb128 2.341 . S
O159 C147 1.266 . S
H160 C132 0.929 1_565 S
H161 C133 0.931 1_565 S
H162 C135 0.930 . S
H163 C136 0.930 . S
H164 C141 0.929 1_545 S
H165 C142 0.931 1_545 S
H166 C144 0.930 . S
H167 C145 0.930 . S
Tb168 C170 2.809 1_556 S
Tb168 O188 2.484 1_556 S
Tb168 O189 2.440 1_556 S
Tb168 O190 2.658 . S
Tb168 O191 2.409 . S
Tb168 O192 2.378 . S
Tb168 O196 2.325 . S
Tb168 O199 2.341 . S
Tb169 C179 2.809 . S
Tb169 O190 2.325 . S
Tb169 O193 2.341 . S
Tb169 O194 2.484 . S
Tb169 O195 2.440 . S
Tb169 O196 2.658 . S
Tb169 O197 2.409 . S
Tb169 O198 2.378 . S
C170 Tb168 2.809 1_554 S
C170 C171 1.514 . S
C170 O188 1.248 . S
C170 O189 1.266 . S
C171 C170 1.514 . S
C171 C172 1.359 . S
C171 C176 1.348 . S
C172 C171 1.359 . S
C172 C173 1.380 . S
C172 H200 0.929 . S
C173 C172 1.380 . S
C173 C174 1.347 . S
C173 H201 0.931 . S
C174 C173 1.347 . S
C174 C175 1.369 . S
C175 C174 1.369 . S
C175 C176 1.408 . S
C175 H202 0.930 . S
C176 C171 1.348 . S
C176 C175 1.408 . S
C176 H203 0.930 . S
C177 O190 1.281 . S
C177 O191 1.254 . S
C178 O192 1.236 . S
C178 O193 1.266 . S
C179 Tb169 2.809 . S
C179 C180 1.514 . S
C179 O194 1.248 . S
C179 O195 1.266 . S
C180 C179 1.514 . S
C180 C181 1.359 . S
C180 C185 1.348 . S
C181 C180 1.359 . S
C181 C182 1.380 . S
C181 H204 0.929 . S
C182 C181 1.380 . S
C182 C183 1.347 . S
C182 H205 0.931 . S
C183 C182 1.347 . S
C183 C184 1.369 . S
C184 C183 1.369 . S
C184 C185 1.408 . S
C184 H206 0.930 . S
C185 C180 1.348 . S
C185 C184 1.408 . S
C185 H207 0.930 . S
C186 O196 1.281 . S
C186 O197 1.254 . S
C187 O198 1.236 . S
C187 O199 1.266 . S
O188 Tb168 2.484 1_554 S
O188 C170 1.248 . S
O189 Tb168 2.440 1_554 S
O189 C170 1.266 . S
O190 Tb168 2.658 . S
O190 Tb169 2.325 . S
O190 C177 1.281 . S
O191 Tb168 2.409 . S
O191 C177 1.254 . S
O192 Tb168 2.378 . S
O192 C178 1.236 . S
O193 Tb169 2.341 . S
O193 C178 1.266 . S
O194 Tb169 2.484 . S
O194 C179 1.248 . S
O195 Tb169 2.440 . S
O195 C179 1.266 . S
O196 Tb168 2.325 . S
O196 Tb169 2.658 . S
O196 C186 1.281 . S
O197 Tb169 2.409 . S
O197 C186 1.254 . S
O198 Tb169 2.378 . S
O198 C187 1.236 . S
O199 Tb168 2.341 . S
O199 C187 1.266 . S
H200 C172 0.929 . S
H201 C173 0.931 . S
H202 C175 0.930 . S
H203 C176 0.930 . S
H204 C181 0.929 . S
H205 C182 0.931 . S
H206 C184 0.930 . S
H207 C185 0.930 . S
Tb208 C210 2.809 1_556 S
Tb208 O228 2.484 1_556 S
Tb208 O229 2.440 1_556 S
Tb208 O230 2.658 1_655 S
Tb208 O231 2.409 . S
Tb208 O232 2.378 . S
Tb208 O236 2.325 . S
Tb208 O239 2.341 1_655 S
Tb209 C219 2.809 . S
Tb209 O230 2.325 . S
Tb209 O233 2.341 1_455 S
Tb209 O234 2.484 . S
Tb209 O235 2.440 . S
Tb209 O236 2.658 1_455 S
Tb209 O237 2.409 . S
Tb209 O238 2.378 . S
C210 Tb208 2.809 1_554 S
C210 C211 1.514 . S
C210 O228 1.248 . S
C210 O229 1.266 . S
C211 C210 1.514 . S
C211 C212 1.359 . S
C211 C216 1.348 . S
C212 C211 1.359 . S
C212 C213 1.380 . S
C212 H240 0.929 . S
C213 C212 1.380 . S
C213 C214 1.347 . S
C213 H241 0.931 . S
C214 C213 1.347 . S
C214 C215 1.369 . S
C215 C214 1.369 . S
C215 C216 1.408 . S
C215 H242 0.930 . S
C216 C211 1.348 . S
C216 C215 1.408 . S
C216 H243 0.930 . S
C217 O230 1.277 1_655 S
C217 O231 1.259 . S
C218 O232 1.236 . S
C218 O233 1.266 . S
C219 Tb209 2.809 . S
C219 C220 1.514 . S
C219 O234 1.248 . S
C219 O235 1.266 . S
C220 C219 1.514 . S
C220 C221 1.359 . S
C220 C225 1.348 . S
C221 C220 1.359 . S
C221 C222 1.380 . S
C221 H244 0.929 . S
C222 C221 1.380 . S
C222 C223 1.347 . S
C222 H245 0.931 . S
C223 C222 1.347 . S
C223 C224 1.369 . S
C224 C223 1.369 . S
C224 C225 1.408 . S
C224 H246 0.930 . S
C225 C220 1.348 . S
C225 C224 1.408 . S
C225 H247 0.930 . S
C226 O236 1.275 1_455 S
C226 O237 1.262 . S
C227 O238 1.236 . S
C227 O239 1.266 . S
O228 Tb208 2.484 1_554 S
O228 C210 1.248 . S
O229 Tb208 2.440 1_554 S
O229 C210 1.266 . S
O230 Tb208 2.658 1_455 S
O230 Tb209 2.325 . S
O230 C217 1.277 1_455 S
O231 Tb208 2.409 . S
O231 C217 1.259 . S
O232 Tb208 2.378 . S
O232 C218 1.236 . S
O233 Tb209 2.341 1_655 S
O233 C218 1.266 . S
O234 Tb209 2.484 . S
O234 C219 1.248 . S
O235 Tb209 2.440 . S
O235 C219 1.266 . S
O236 Tb208 2.325 . S
O236 Tb209 2.658 1_655 S
O236 C226 1.275 1_655 S
O237 Tb209 2.409 . S
O237 C226 1.262 . S
O238 Tb209 2.378 . S
O238 C227 1.236 . S
O239 Tb208 2.341 1_455 S
O239 C227 1.266 . S
H240 C212 0.929 . S
H241 C213 0.931 . S
H242 C215 0.930 . S
H243 C216 0.930 . S
H244 C221 0.929 . S
H245 C222 0.931 . S
H246 C224 0.930 . S
H247 C225 0.930 . S
C248 C249 1.387 1_545 S
C248 H252 0.950 . S
C248 C257 1.390 . S
C249 C248 1.387 1_565 S
C249 C251 1.388 . S
H250 C257 0.950 . S
C251 C249 1.388 . S
C251 C253 1.390 . S
C251 H255 0.950 . S
H252 C248 0.950 . S
C253 C251 1.390 . S
C253 C254 1.402 . S
C253 H256 0.950 . S
C254 C253 1.402 . S
C254 C257 1.373 1_565 S
H255 C251 0.950 . S
H256 C253 0.950 . S
C257 C248 1.390 . S
C257 H250 0.950 . S
C257 C254 1.373 1_545 S
C258 C259 1.387 . S
C258 H262 0.950 . S
C258 C267 1.390 . S
C259 C258 1.387 . S
C259 C261 1.387 . S
H260 C267 0.950 . S
C261 C259 1.387 . S
C261 C263 1.390 . S
C261 H265 0.950 . S
H262 C258 0.950 . S
C263 C261 1.390 . S
C263 C264 1.387 . S
C263 H266 0.950 . S
C264 C263 1.387 . S
C264 C267 1.387 . S
H265 C261 0.950 . S
H266 C263 0.950 . S
C267 C258 1.390 . S
C267 H260 0.950 . S
C267 C264 1.387 . S
C268 C269 1.387 . S
C268 H272 0.950 . S
C268 C277 1.390 . S
C269 C268 1.387 . S
C269 C271 1.387 . S
H270 C277 0.950 . S
C271 C269 1.387 . S
C271 C273 1.390 . S
C271 H275 0.950 . S
H272 C268 0.950 . S
C273 C271 1.390 . S
C273 C274 1.387 . S
C273 H276 0.950 . S
C274 C273 1.387 . S
C274 C277 1.387 . S
H275 C271 0.950 . S
H276 C273 0.950 . S
C277 C268 1.390 . S
C277 H270 0.950 . S
C277 C274 1.387 . S
C278 C279 1.399 . S
C278 H282 0.950 . S
C278 C287 1.390 . S
C279 C278 1.399 . S
C279 C281 1.376 1_455 S
H280 C287 0.950 . S
C281 C279 1.376 1_655 S
C281 C283 1.390 . S
C281 H285 0.950 . S
H282 C278 0.950 . S
C283 C281 1.390 . S
C283 C284 1.387 1_655 S
C283 H286 0.950 . S
C284 C283 1.387 1_455 S
C284 C287 1.387 . S
H285 C281 0.950 . S
H286 C283 0.950 . S
C287 C278 1.390 . S
C287 H280 0.950 . S
C287 C284 1.387 . S
C288 C289 1.380 1_565 S
C288 H292 0.950 . S
C288 C297 1.390 . S
C289 C288 1.380 1_545 S
C289 C291 1.395 . S
H290 C297 0.950 . S
C291 C289 1.395 . S
C291 C293 1.390 . S
C291 H295 0.950 . S
H292 C288 0.950 . S
C293 C291 1.390 . S
C293 C294 1.409 . S
C293 H296 0.950 . S
C294 C293 1.409 . S
C294 C297 1.366 1_545 S
H295 C291 0.950 . S
H296 C293 0.950 . S
C297 C288 1.390 . S
C297 H290 0.950 . S
C297 C294 1.366 1_565 S
C298 C299 1.387 . S
C298 H302 0.950 . S
C298 C307 1.390 . S
C299 C298 1.387 . S
C299 C301 1.387 . S
H300 C307 0.950 . S
C301 C299 1.387 . S
C301 C303 1.390 . S
C301 H305 0.950 . S
H302 C298 0.950 . S
C303 C301 1.390 . S
C303 C304 1.387 . S
C303 H306 0.950 . S
C304 C303 1.387 . S
C304 C307 1.387 . S
H305 C301 0.950 . S
H306 C303 0.950 . S
C307 C298 1.390 . S
C307 H300 0.950 . S
C307 C304 1.387 . S
C308 C309 1.387 . S
C308 H312 0.950 . S
C308 C317 1.390 . S
C309 C308 1.387 . S
C309 C311 1.387 . S
H310 C317 0.950 . S
C311 C309 1.387 . S
C311 C313 1.390 . S
C311 H315 0.950 . S
H312 C308 0.950 . S
C313 C311 1.390 . S
C313 C314 1.387 . S
C313 H316 0.950 . S
C314 C313 1.387 . S
C314 C317 1.387 . S
H315 C311 0.950 . S
H316 C313 0.950 . S
C317 C308 1.390 . S
C317 H310 0.950 . S
C317 C314 1.387 . S
C318 C319 1.392 . S
C318 H322 0.950 . S
C318 C327 1.390 . S
C319 C318 1.392 . S
C319 C321 1.383 1_655 S
H320 C327 0.950 . S
C321 C319 1.383 1_455 S
C321 C323 1.390 . S
C321 H325 0.950 . S
H322 C318 0.950 . S
C323 C321 1.390 . S
C323 C324 1.387 1_455 S
C323 H326 0.950 . S
C324 C323 1.387 1_655 S
C324 C327 1.387 . S
H325 C321 0.950 . S
H326 C323 0.950 . S
C327 C318 1.390 . S
C327 H320 0.950 . S
C327 C324 1.387 . S
C328 C329 1.388 . S
C328 H332 0.950 1_655 S
C328 C337 1.390 . S
C329 C328 1.388 . S
C329 C331 1.410 . S
H330 C337 0.950 . S
C331 C329 1.410 . S
C331 C333 1.390 . S
C331 H335 0.950 . S
H332 C328 0.950 1_455 S
C333 C331 1.390 . S
C333 C334 1.387 . S
C333 H336 0.950 . S
C334 C333 1.387 . S
C334 C337 1.387 . S
H335 C331 0.950 . S
H336 C333 0.950 . S
C337 C328 1.390 . S
C337 H330 0.950 . S
C337 C334 1.387 . S
C338 C339 1.383 1_545 S
C338 H342 0.950 . S
C338 C347 1.390 1_545 S
C339 C338 1.383 1_565 S
C339 C341 1.410 . S
H340 C347 0.950 . S
C341 C339 1.410 . S
C341 C343 1.390 . S
C341 H345 0.950 . S
H342 C338 0.950 . S
C343 C341 1.390 . S
C343 C344 1.387 . S
C343 H346 0.950 . S
C344 C343 1.387 . S
C344 C347 1.387 . S
H345 C341 0.950 . S
H346 C343 0.950 . S
C347 C338 1.390 1_565 S
C347 H340 0.950 . S
C347 C344 1.387 . S
C348 C349 1.387 . S
C348 H352 0.950 . S
C348 C357 1.390 . S
C349 C348 1.387 . S
C349 C351 1.387 . S
H350 C357 0.950 . S
C351 C349 1.387 . S
C351 C353 1.390 . S
C351 H355 0.950 . S
H352 C348 0.950 . S
C353 C351 1.390 . S
C353 C354 1.387 . S
C353 H356 0.950 . S
C354 C353 1.387 . S
C354 C357 1.387 . S
H355 C351 0.950 . S
H356 C353 0.950 . S
C357 C348 1.390 . S
C357 H350 0.950 . S
C357 C354 1.387 . S
C358 C359 1.387 . S
C358 H362 0.950 . S
C358 C367 1.390 . S
C359 C358 1.387 . S
C359 C361 1.387 . S
H360 C367 0.950 . S
C361 C359 1.387 . S
C361 C363 1.390 . S
C361 H365 0.950 . S
H362 C358 0.950 . S
C363 C361 1.390 . S
C363 C364 1.387 . S
C363 H366 0.950 . S
C364 C363 1.387 . S
C364 C367 1.387 . S
H365 C361 0.950 . S
H366 C363 0.950 . S
C367 C358 1.390 . S
C367 H360 0.950 . S
C367 C364 1.387 . S
C368 C369 1.387 . S
C368 H372 0.950 . S
C368 C377 1.390 . S
C369 C368 1.387 . S
C369 C371 1.387 . S
H370 C377 0.950 . S
C371 C369 1.387 . S
C371 C373 1.390 . S
C371 H375 0.950 . S
H372 C368 0.950 . S
C373 C371 1.390 . S
C373 C374 1.387 . S
C373 H376 0.950 . S
C374 C373 1.387 . S
C374 C377 1.387 . S
H375 C371 0.950 . S
H376 C373 0.950 . S
C377 C368 1.390 . S
C377 H370 0.950 . S
C377 C374 1.387 . S
C378 C379 1.387 . S
C378 H382 0.950 . S
C378 C387 1.390 . S
C379 C378 1.387 . S
C379 C381 1.387 . S
H380 C387 0.950 . S
C381 C379 1.387 . S
C381 C383 1.390 . S
C381 H385 0.950 1_545 S
H382 C378 0.950 . S
C383 C381 1.390 . S
C383 C384 1.387 . S
C383 H386 0.950 . S
C384 C383 1.387 . S
C384 C387 1.387 . S
H385 C381 0.950 1_565 S
H386 C383 0.950 . S
C387 C378 1.390 . S
C387 H380 0.950 . S
C387 C384 1.387 . S
C388 C389 1.387 . S
C388 H392 0.950 . S
C388 C397 1.390 . S
C389 C388 1.387 . S
C389 C391 1.387 . S
H390 C397 0.950 . S
C391 C389 1.387 . S
C391 C393 1.390 . S
C391 H395 0.950 . S
H392 C388 0.950 . S
C393 C391 1.390 . S
C393 C394 1.387 . S
C393 H396 0.950 . S
C394 C393 1.387 . S
C394 C397 1.387 . S
H395 C391 0.950 . S
H396 C393 0.950 . S
C397 C388 1.390 . S
C397 H390 0.950 . S
C397 C394 1.387 . S
C398 C399 1.387 . S
C398 H402 0.950 . S
C398 C407 1.390 . S
C399 C398 1.387 . S
C399 C401 1.387 . S
H400 C407 0.950 . S
C401 C399 1.387 . S
C401 C403 1.390 . S
C401 H405 0.950 . S
H402 C398 0.950 . S
C403 C401 1.390 . S
C403 C404 1.387 . S
C403 H406 0.950 . S
C404 C403 1.387 . S
C404 C407 1.387 . S
H405 C401 0.950 . S
H406 C403 0.950 . S
C407 C398 1.390 . S
C407 H400 0.950 . S
C407 C404 1.387 . S
C408 C409 1.387 . S
C408 H412 0.950 . S
C408 C417 1.390 . S
C409 C408 1.387 . S
C409 C411 1.387 1_455 S
H410 C417 0.950 . S
C411 C409 1.387 1_655 S
C411 C413 1.390 . S
C411 H415 0.950 . S
H412 C408 0.950 . S
C413 C411 1.390 . S
C413 C414 1.387 1_655 S
C413 H416 0.950 . S
C414 C413 1.387 1_455 S
C414 C417 1.387 . S
H415 C411 0.950 . S
H416 C413 0.950 . S
C417 C408 1.390 . S
C417 H410 0.950 . S
C417 C414 1.387 . S
C418 C419 1.387 . S
C418 H422 0.950 . S
C418 C427 1.390 . S
C419 C418 1.387 . S
C419 C421 1.385 1_545 S
H420 C427 0.950 . S
C421 C419 1.385 1_565 S
C421 C423 1.388 1_565 S
C421 H425 0.954 1_556 S
H422 C418 0.950 . S
C423 C421 1.388 1_545 S
C423 C424 1.387 . S
C423 H426 0.949 1_546 S
C424 C423 1.387 . S
C424 C427 1.387 . S
H425 C421 0.954 1_554 S
H426 C423 0.949 1_564 S
C427 C418 1.390 . S
C427 H420 0.950 . S
C427 C424 1.387 . S
C428 C429 1.387 . S
C428 H432 0.950 . S
C428 C437 1.390 . S
C429 C428 1.387 . S
C429 C431 1.387 . S
H430 C437 0.950 . S
C431 C429 1.387 . S
C431 C433 1.390 . S
C431 H435 0.950 1_556 S
H432 C428 0.950 . S
C433 C431 1.390 . S
C433 C434 1.387 . S
C433 H436 0.950 1_556 S
C434 C433 1.387 . S
C434 C437 1.387 . S
H435 C431 0.950 1_554 S
H436 C433 0.950 1_554 S
C437 C428 1.390 . S
C437 H430 0.950 . S
C437 C434 1.387 . S
C438 C439 1.387 . S
C438 H442 0.950 . S
C438 C447 1.390 . S
C439 C438 1.387 . S
C439 C441 1.387 . S
H440 C447 0.950 . S
C441 C439 1.387 . S
C441 C443 1.390 . S
C441 H445 0.950 1_556 S
H442 C438 0.950 . S
C443 C441 1.390 . S
C443 C444 1.387 . S
C443 H446 0.950 1_556 S
C444 C443 1.387 . S
C444 C447 1.387 . S
H445 C441 0.950 1_554 S
H446 C443 0.950 1_554 S
C447 C438 1.390 . S
C447 H440 0.950 . S
C447 C444 1.387 . S
C448 C449 1.387 1_455 S
C448 H452 0.950 . S
C448 C457 1.390 . S
C449 C448 1.387 1_655 S
C449 C451 1.387 . S
H450 C457 0.950 . S
C451 C449 1.387 . S
C451 C453 1.390 . S
C451 H455 0.950 . S
H452 C448 0.950 . S
C453 C451 1.390 . S
C453 C454 1.387 . S
C453 H456 0.950 . S
C454 C453 1.387 . S
C454 C457 1.387 1_655 S
H455 C451 0.950 . S
H456 C453 0.950 . S
C457 C448 1.390 . S
C457 H450 0.950 . S
C457 C454 1.387 1_455 S
C458 C459 1.387 . S
C458 H462 0.950 . S
C458 C467 1.390 . S
C459 C458 1.387 . S
C459 C461 1.387 1_565 S
H460 C467 0.950 . S
C461 C459 1.387 1_545 S
C461 C463 1.390 1_545 S
C461 H465 0.950 . S
H462 C458 0.950 . S
C463 C461 1.390 1_565 S
C463 C464 1.387 . S
C463 H466 0.950 1_565 S
C464 C463 1.387 . S
C464 C467 1.387 . S
H465 C461 0.950 . S
H466 C463 0.950 1_545 S
C467 C458 1.390 . S
C467 H460 0.950 . S
C467 C464 1.387 . S
C468 C469 1.387 . S
C468 H472 0.950 . S
C468 C477 1.390 . S
C469 C468 1.387 . S
C469 C471 1.387 . S
H470 C477 0.950 . S
C471 C469 1.387 . S
C471 C473 1.390 . S
C471 H475 0.950 . S
H472 C468 0.950 . S
C473 C471 1.390 . S
C473 C474 1.387 . S
C473 H476 0.950 . S
C474 C473 1.387 . S
C474 C477 1.387 . S
H475 C471 0.950 . S
H476 C473 0.950 . S
C477 C468 1.390 . S
C477 H470 0.950 . S
C477 C474 1.387 . S
C478 C479 1.387 . S
C478 H482 0.950 . S
C478 C487 1.390 . S
C479 C478 1.387 . S
C479 C481 1.387 . S
H480 C487 0.950 . S
C481 C479 1.387 . S
C481 C483 1.390 . S
C481 H485 0.950 . S
H482 C478 0.950 . S
C483 C481 1.390 . S
C483 C484 1.387 . S
C483 H486 0.950 . S
C484 C483 1.387 . S
C484 C487 1.387 . S
H485 C481 0.950 . S
H486 C483 0.950 . S
C487 C478 1.390 . S
C487 H480 0.950 . S
C487 C484 1.387 . S
C249 C76 1.934 . S
C254 C97 2.198 . S
C264 C137 2.223 . S
C259 C87 1.963 . S
C274 C177 2.236 . S
C269 C54 1.978 . S
C284 C217 2.213 1_455 S
C279 C65 1.952 1_455 S
C294 C106 2.201 1_554 S
C289 C32 1.942 1_545 S
C299 C43 1.957 . S
C304 C146 2.224 1_554 S
C309 C10 1.973 . S
C314 C186 2.235 1_554 S
C319 C21 1.955 . S
C324 C226 2.213 1_654 S
C334 C103 0.796 . S
C329 C60 0.795 1_655 S
C344 C143 0.792 . S
C339 C71 0.792 1_565 S
C354 C183 0.781 . S
C349 C82 0.781 . S
C359 C49 0.781 . S
C364 C223 0.772 . S
C369 C16 0.792 . S
C374 C94 0.790 . S
C384 C134 0.786 . S
C379 C27 0.787 . S
C394 C174 0.781 . S
C389 C38 0.781 . S
C399 C5 0.779 . S
C404 C214 0.778 . S
C409 C59 2.252 . S
C414 C107 2.579 . S
C419 C70 2.200 . S
C424 C147 2.532 . S
C434 C187 2.514 . S
C429 C81 2.181 . S
C444 C227 2.566 . S
C439 C48 2.229 . S
C449 C15 2.255 1_655 S
C454 C98 2.588 . S
C464 C138 2.530 . S
C459 C26 2.202 1_565 S
C474 C178 2.513 . S
C469 C37 2.192 . S
C479 C4 2.244 . S
C484 C218 2.569 . S
