# Generated by pormake.
# Topology ptr, (4,4)-cn, num edge types: 1
# Building blocks:
#     Node 0, Type 0, BuildingBlock: TATPOV_clean_sbu_0, # of connection points: 4
#     Node 1, Type 0, BuildingBlock: TATPOV_clean_sbu_0, # of connection points: 4
#     Node 2, Type 0, BuildingBlock: TATPOV_clean_sbu_0, # of connection points: 4
#     Node 3, Type 0, BuildingBlock: TATPOV_clean_sbu_0, # of connection points: 4
#     Node 4, Type 0, BuildingBlock: TATPOV_clean_sbu_0, # of connection points: 4
#     Node 5, Type 0, BuildingBlock: TATPOV_clean_sbu_0, # of connection points: 4
#     Node 6, Type 0, BuildingBlock: TATPOV_clean_sbu_0, # of connection points: 4
#     Node 7, Type 0, BuildingBlock: TATPOV_clean_sbu_0, # of connection points: 4
#     Node 8, Type 0, BuildingBlock: TATPOV_clean_sbu_0, # of connection points: 4
#     Node 9, Type 0, BuildingBlock: TATPOV_clean_sbu_0, # of connection points: 4
#     Node 10, Type 0, BuildingBlock: TATPOV_clean_sbu_0, # of connection points: 4
#     Node 11, Type 0, BuildingBlock: TATPOV_clean_sbu_0, # of connection points: 4
#     Node 12, Type 0, BuildingBlock: TATPOV_clean_sbu_0, # of connection points: 4
#     Node 13, Type 0, BuildingBlock: TATPOV_clean_sbu_0, # of connection points: 4
#     Node 14, Type 0, BuildingBlock: TATPOV_clean_sbu_0, # of connection points: 4
#     Node 15, Type 0, BuildingBlock: TATPOV_clean_sbu_0, # of connection points: 4
#     Node 16, Type 0, BuildingBlock: TATPOV_clean_sbu_0, # of connection points: 4
#     Node 17, Type 0, BuildingBlock: TATPOV_clean_sbu_0, # of connection points: 4
#     Node 18, Type 1, BuildingBlock: NAWXER_clean_linker_0, # of connection points: 4
#     Node 19, Type 1, BuildingBlock: NAWXER_clean_linker_0, # of connection points: 4
#     Node 20, Type 1, BuildingBlock: NAWXER_clean_linker_0, # of connection points: 4
#     Node 21, Type 1, BuildingBlock: NAWXER_clean_linker_0, # of connection points: 4
#     Node 22, Type 1, BuildingBlock: NAWXER_clean_linker_0, # of connection points: 4
#     Node 23, Type 1, BuildingBlock: NAWXER_clean_linker_0, # of connection points: 4
#     Node 24, Type 1, BuildingBlock: NAWXER_clean_linker_0, # of connection points: 4
#     Node 25, Type 1, BuildingBlock: NAWXER_clean_linker_0, # of connection points: 4
#     Node 26, Type 1, BuildingBlock: NAWXER_clean_linker_0, # of connection points: 4
#     Node 27, Type 1, BuildingBlock: NAWXER_clean_linker_0, # of connection points: 4
#     Node 28, Type 1, BuildingBlock: NAWXER_clean_linker_0, # of connection points: 4
#     Node 29, Type 1, BuildingBlock: NAWXER_clean_linker_0, # of connection points: 4
#     Node 30, Type 1, BuildingBlock: NAWXER_clean_linker_0, # of connection points: 4
#     Node 31, Type 1, BuildingBlock: NAWXER_clean_linker_0, # of connection points: 4
#     Node 32, Type 1, BuildingBlock: NAWXER_clean_linker_0, # of connection points: 4
#     Node 33, Type 1, BuildingBlock: NAWXER_clean_linker_0, # of connection points: 4
#     Node 34, Type 1, BuildingBlock: NAWXER_clean_linker_0, # of connection points: 4
#     Node 35, Type 1, BuildingBlock: NAWXER_clean_linker_0, # of connection points: 4
#     Edge 36, Type (0, 1), BuildingBlock: MIFKUJ_clean_linker_0, # of connection points: 2
#     Edge 37, Type (0, 1), BuildingBlock: MIFKUJ_clean_linker_0, # of connection points: 2
#     Edge 38, Type (0, 1), BuildingBlock: MIFKUJ_clean_linker_0, # of connection points: 2
#     Edge 39, Type (0, 1), BuildingBlock: MIFKUJ_clean_linker_0, # of connection points: 2
#     Edge 40, Type (0, 1), BuildingBlock: MIFKUJ_clean_linker_0, # of connection points: 2
#     Edge 41, Type (0, 1), BuildingBlock: MIFKUJ_clean_linker_0, # of connection points: 2
#     Edge 42, Type (0, 1), BuildingBlock: MIFKUJ_clean_linker_0, # of connection points: 2
#     Edge 43, Type (0, 1), BuildingBlock: MIFKUJ_clean_linker_0, # of connection points: 2
#     Edge 44, Type (0, 1), BuildingBlock: MIFKUJ_clean_linker_0, # of connection points: 2
#     Edge 45, Type (0, 1), BuildingBlock: MIFKUJ_clean_linker_0, # of connection points: 2
#     Edge 46, Type (0, 1), BuildingBlock: MIFKUJ_clean_linker_0, # of connection points: 2
#     Edge 47, Type (0, 1), BuildingBlock: MIFKUJ_clean_linker_0, # of connection points: 2
#     Edge 48, Type (0, 1), BuildingBlock: MIFKUJ_clean_linker_0, # of connection points: 2
#     Edge 49, Type (0, 1), BuildingBlock: MIFKUJ_clean_linker_0, # of connection points: 2
#     Edge 50, Type (0, 1), BuildingBlock: MIFKUJ_clean_linker_0, # of connection points: 2
#     Edge 51, Type (0, 1), BuildingBlock: MIFKUJ_clean_linker_0, # of connection points: 2
#     Edge 52, Type (0, 1), BuildingBlock: MIFKUJ_clean_linker_0, # of connection points: 2
#     Edge 53, Type (0, 1), BuildingBlock: MIFKUJ_clean_linker_0, # of connection points: 2
#     Edge 54, Type (0, 1), BuildingBlock: MIFKUJ_clean_linker_0, # of connection points: 2
#     Edge 55, Type (0, 1), BuildingBlock: MIFKUJ_clean_linker_0, # of connection points: 2
#     Edge 56, Type (0, 1), BuildingBlock: MIFKUJ_clean_linker_0, # of connection points: 2
#     Edge 57, Type (0, 1), BuildingBlock: MIFKUJ_clean_linker_0, # of connection points: 2
#     Edge 58, Type (0, 1), BuildingBlock: MIFKUJ_clean_linker_0, # of connection points: 2
#     Edge 59, Type (0, 1), BuildingBlock: MIFKUJ_clean_linker_0, # of connection points: 2
#     Edge 60, Type (0, 1), BuildingBlock: MIFKUJ_clean_linker_0, # of connection points: 2
#     Edge 61, Type (0, 1), BuildingBlock: MIFKUJ_clean_linker_0, # of connection points: 2
#     Edge 62, Type (0, 1), BuildingBlock: MIFKUJ_clean_linker_0, # of connection points: 2
#     Edge 63, Type (0, 1), BuildingBlock: MIFKUJ_clean_linker_0, # of connection points: 2
#     Edge 64, Type (0, 1), BuildingBlock: MIFKUJ_clean_linker_0, # of connection points: 2
#     Edge 65, Type (0, 1), BuildingBlock: MIFKUJ_clean_linker_0, # of connection points: 2
#     Edge 66, Type (0, 1), BuildingBlock: MIFKUJ_clean_linker_0, # of connection points: 2
#     Edge 67, Type (0, 1), BuildingBlock: MIFKUJ_clean_linker_0, # of connection points: 2
#     Edge 68, Type (0, 1), BuildingBlock: MIFKUJ_clean_linker_0, # of connection points: 2
#     Edge 69, Type (0, 1), BuildingBlock: MIFKUJ_clean_linker_0, # of connection points: 2
#     Edge 70, Type (0, 1), BuildingBlock: MIFKUJ_clean_linker_0, # of connection points: 2
#     Edge 71, Type (0, 1), BuildingBlock: MIFKUJ_clean_linker_0, # of connection points: 2
#     Edge 72, Type (0, 1), BuildingBlock: MIFKUJ_clean_linker_0, # of connection points: 2
#     Edge 73, Type (0, 1), BuildingBlock: MIFKUJ_clean_linker_0, # of connection points: 2
#     Edge 74, Type (0, 1), BuildingBlock: MIFKUJ_clean_linker_0, # of connection points: 2
#     Edge 75, Type (0, 1), BuildingBlock: MIFKUJ_clean_linker_0, # of connection points: 2
#     Edge 76, Type (0, 1), BuildingBlock: MIFKUJ_clean_linker_0, # of connection points: 2
#     Edge 77, Type (0, 1), BuildingBlock: MIFKUJ_clean_linker_0, # of connection points: 2
#     Edge 78, Type (0, 1), BuildingBlock: MIFKUJ_clean_linker_0, # of connection points: 2
#     Edge 79, Type (0, 1), BuildingBlock: MIFKUJ_clean_linker_0, # of connection points: 2
#     Edge 80, Type (0, 1), BuildingBlock: MIFKUJ_clean_linker_0, # of connection points: 2
#     Edge 81, Type (0, 1), BuildingBlock: MIFKUJ_clean_linker_0, # of connection points: 2
#     Edge 82, Type (0, 1), BuildingBlock: MIFKUJ_clean_linker_0, # of connection points: 2
#     Edge 83, Type (0, 1), BuildingBlock: MIFKUJ_clean_linker_0, # of connection points: 2
#     Edge 84, Type (0, 1), BuildingBlock: MIFKUJ_clean_linker_0, # of connection points: 2
#     Edge 85, Type (0, 1), BuildingBlock: MIFKUJ_clean_linker_0, # of connection points: 2
#     Edge 86, Type (0, 1), BuildingBlock: MIFKUJ_clean_linker_0, # of connection points: 2
#     Edge 87, Type (0, 1), BuildingBlock: MIFKUJ_clean_linker_0, # of connection points: 2
#     Edge 88, Type (0, 1), BuildingBlock: MIFKUJ_clean_linker_0, # of connection points: 2
#     Edge 89, Type (0, 1), BuildingBlock: MIFKUJ_clean_linker_0, # of connection points: 2
#     Edge 90, Type (0, 1), BuildingBlock: MIFKUJ_clean_linker_0, # of connection points: 2
#     Edge 91, Type (0, 1), BuildingBlock: MIFKUJ_clean_linker_0, # of connection points: 2
#     Edge 92, Type (0, 1), BuildingBlock: MIFKUJ_clean_linker_0, # of connection points: 2
#     Edge 93, Type (0, 1), BuildingBlock: MIFKUJ_clean_linker_0, # of connection points: 2
#     Edge 94, Type (0, 1), BuildingBlock: MIFKUJ_clean_linker_0, # of connection points: 2
#     Edge 95, Type (0, 1), BuildingBlock: MIFKUJ_clean_linker_0, # of connection points: 2
#     Edge 96, Type (0, 1), BuildingBlock: MIFKUJ_clean_linker_0, # of connection points: 2
#     Edge 97, Type (0, 1), BuildingBlock: MIFKUJ_clean_linker_0, # of connection points: 2
#     Edge 98, Type (0, 1), BuildingBlock: MIFKUJ_clean_linker_0, # of connection points: 2
#     Edge 99, Type (0, 1), BuildingBlock: MIFKUJ_clean_linker_0, # of connection points: 2
#     Edge 100, Type (0, 1), BuildingBlock: MIFKUJ_clean_linker_0, # of connection points: 2
#     Edge 101, Type (0, 1), BuildingBlock: MIFKUJ_clean_linker_0, # of connection points: 2
#     Edge 102, Type (0, 1), BuildingBlock: MIFKUJ_clean_linker_0, # of connection points: 2
#     Edge 103, Type (0, 1), BuildingBlock: MIFKUJ_clean_linker_0, # of connection points: 2
#     Edge 104, Type (0, 1), BuildingBlock: MIFKUJ_clean_linker_0, # of connection points: 2
#     Edge 105, Type (0, 1), BuildingBlock: MIFKUJ_clean_linker_0, # of connection points: 2
#     Edge 106, Type (0, 1), BuildingBlock: MIFKUJ_clean_linker_0, # of connection points: 2
#     Edge 107, Type (0, 1), BuildingBlock: MIFKUJ_clean_linker_0, # of connection points: 2
# Relax obj value: 0.067
# Max RMSD: 0.243
# Mean RMSD: 0.105
data_MOF--net-ptr--node1-TATPOV_clean_sbu_0--node2-NAWXER_clean_linker_0--edge1-MIFKUJ_clean_linker_0
_symmetry_space_group_name_H-M    P1
_symmetry_Int_Tables_number       1
_symmetry_cell_setting            triclinic
loop_
_symmetry_equiv_pos_as_xyz
'x, y, z'
_cell_length_a     108.31468
_cell_length_b     109.87666
_cell_length_c     78.733059
_cell_angle_alpha  89.818641
_cell_angle_beta   90.503268
_cell_angle_gamma 121.48222
loop_
_atom_site_label
_atom_site_type_symbol
_atom_site_fract_x
_atom_site_fract_y
_atom_site_fract_z
_atom_type_partial_charge
Zn0 Zn 0.97179 0.35009 0.00881 0.0
Zn1 Zn 0.99872 0.35524 0.01286 0.0
O2 O 0.98594 0.33365 0.00768 0.0
O3 O 0.9637 0.32911 0.00523 0.0
O4 O 0.01772 0.35706 0.01902 0.0
O5 O 0.97215 0.35782 0.03216 0.0
O6 O 0.99463 0.36298 0.03457 0.0
C7 C 0.97251 0.32484 0.00501 0.0
C8 C 0.99297 0.36973 0.98383 0.0
O9 O 0.00209 0.36784 0.99193 0.0
O10 O 0.97989 0.36347 0.9886 0.0
C11 C 0.02276 0.35062 0.01095 0.0
O12 O 0.01618 0.34365 0.99697 0.0
C13 C 0.98385 0.36319 0.04058 0.0
Zn14 Zn 0.65623 0.62596 0.00423 0.0
Zn15 Zn 0.65396 0.648 0.01467 0.0
O16 O 0.67498 0.65712 0.00608 0.0
O17 O 0.67691 0.6392 0.99738 0.0
O18 O 0.65351 0.6649 0.02403 0.0
O19 O 0.65159 0.61747 0.02769 0.0
O20 O 0.64841 0.63483 0.03563 0.0
C21 C 0.68246 0.65247 0.99954 0.0
C22 C 0.63443 0.62897 0.98597 0.0
O23 O 0.63863 0.63981 0.99554 0.0
O24 O 0.64012 0.62144 0.98744 0.0
C25 C 0.66147 0.67741 0.01807 0.0
O26 O 0.66958 0.67931 0.00483 0.0
C27 C 0.6482 0.62336 0.03898 0.0
Zn28 Zn 0.3466 0.97457 0.02879 0.0
Zn29 Zn 0.34993 6e-05 0.02087 0.0
O30 O 0.32831 0.98682 0.02698 0.0
O31 O 0.32524 0.96576 0.0323 0.0
O32 O 0.35081 0.01811 0.01325 0.0
O33 O 0.35421 0.97381 0.00567 0.0
O34 O 0.35698 0.99466 0.99963 0.0
C35 C 0.32008 0.97374 0.03103 0.0
C36 C 0.36674 0.99806 0.05087 0.0
O37 O 0.36416 0.00575 0.04107 0.0
O38 O 0.36044 0.9847 0.04849 0.0
C39 C 0.34252 0.02192 0.0194 0.0
O40 O 0.33395 0.01458 0.032 0.0
C41 C 0.35807 0.98408 0.99543 0.0
Zn42 Zn 0.03589 0.65611 0.01223 0.0
Zn43 Zn 0.01087 0.65535 0.00781 0.0
O44 O 0.0254 0.6758 0.01569 0.0
O45 O 0.04607 0.67686 0.01945 0.0
O46 O 0.99378 0.65692 0.00127 0.0
O47 O 0.03598 0.65056 0.98783 0.0
O48 O 0.01456 0.64811 0.98541 0.0
C49 C 0.03872 0.6828 0.01995 0.0
C50 C 0.01175 0.63584 0.03402 0.0
O51 O 0.0046 0.64084 0.02718 0.0
O52 O 0.02466 0.64033 0.02954 0.0
C53 C 0.98792 0.66167 0.01097 0.0
O54 O 0.99226 0.66469 0.02687 0.0
C55 C 0.0247 0.64696 0.97911 0.0
Zn56 Zn 0.34553 0.3799 0.0258 0.0
Zn57 Zn 0.34687 0.35858 0.01186 0.0
O58 O 0.32568 0.34944 0.01972 0.0
O59 O 0.32383 0.36768 0.02737 0.0
O60 O 0.34641 0.34197 0.00039 0.0
O61 O 0.35471 0.392 0.00499 0.0
O62 O 0.3536 0.37351 0.99266 0.0
C63 C 0.31805 0.35442 0.02484 0.0
C64 C 0.36423 0.37275 0.044 0.0
O65 O 0.36172 0.36451 0.03138 0.0
O66 O 0.35803 0.37981 0.04506 0.0
C67 C 0.34494 0.33136 0.0087 0.0
O68 O 0.34431 0.33145 0.02535 0.0
C69 C 0.35665 0.38639 0.99206 0.0
Zn70 Zn 0.64594 0.02311 0.00226 0.0
Zn71 Zn 0.64616 0.99946 0.01044 0.0
O72 O 0.66646 0.01309 0.00055 0.0
O73 O 0.66609 0.03215 0.99283 0.0
O74 O 0.64699 0.98238 0.01867 0.0
O75 O 0.64267 0.02622 0.02647 0.0
O76 O 0.64118 0.00597 0.03268 0.0
C77 C 0.67268 0.02546 0.99385 0.0
C78 C 0.62392 0.99758 0.98485 0.0
O79 O 0.62984 0.99156 0.99231 0.0
O80 O 0.62854 0.01065 0.98743 0.0
C81 C 0.65652 0.97968 0.01397 0.0
O82 O 0.66595 0.98777 0.00241 0.0
C83 C 0.64039 0.01668 0.0372 0.0
Zn84 Zn 0.63476 0.68886 0.33273 0.0
Zn85 Zn 0.65748 0.68869 0.34641 0.0
O86 O 0.64336 0.66795 0.33874 0.0
O87 O 0.62389 0.6675 0.32957 0.0
O88 O 0.67329 0.68697 0.35757 0.0
O89 O 0.63279 0.6976 0.3544 0.0
O90 O 0.6507 0.69632 0.36578 0.0
C91 C 0.63052 0.66107 0.33269 0.0
C92 C 0.66179 0.70648 0.31476 0.0
O93 O 0.66727 0.703 0.32682 0.0
O94 O 0.64828 0.70152 0.31416 0.0
C95 C 0.68124 0.68389 0.3491 0.0
O96 O 0.6796 0.68254 0.33253 0.0
C97 C 0.64102 0.69955 0.36696 0.0
Zn98 Zn 0.3079 0.95347 0.33758 0.0
Zn99 Zn 0.31252 0.97801 0.34969 0.0
O100 O 0.33284 0.98279 0.34217 0.0
O101 O 0.32919 0.96198 0.33416 0.0
O102 O 0.31664 0.9965 0.36017 0.0
O103 O 0.29848 0.94335 0.35927 0.0
O104 O 0.30361 0.96399 0.36989 0.0
C105 C 0.33771 0.97522 0.33661 0.0
C106 C 0.29317 0.96455 0.31833 0.0
O107 O 0.29834 0.97425 0.32972 0.0
O108 O 0.29599 0.95473 0.31875 0.0
C109 C 0.32062 0.0078 0.35168 0.0
O110 O 0.32184 0.00755 0.33511 0.0
C111 C 0.29834 0.95063 0.37161 0.0
Zn112 Zn 0.02108 0.31329 0.36371 0.0
Zn113 Zn 0.02243 0.3367 0.35175 0.0
O114 O 0.00129 0.32409 0.35977 0.0
O115 O 0.99961 0.30396 0.36719 0.0
O116 O 0.02272 0.35358 0.34127 0.0
O117 O 0.02895 0.31072 0.34179 0.0
O118 O 0.02862 0.32921 0.33157 0.0
C119 C 0.99379 0.31131 0.36517 0.0
C120 C 0.04068 0.33896 0.38266 0.0
O121 O 0.03742 0.34513 0.37129 0.0
O122 O 0.03484 0.32552 0.38245 0.0
C123 C 0.01849 0.36089 0.34897 0.0
O124 O 0.01405 0.35767 0.36473 0.0
C125 C 0.03104 0.31913 0.32962 0.0
Zn126 Zn 0.70462 0.98667 0.35907 0.0
Zn127 Zn 0.67954 0.98333 0.34802 0.0
O128 O 0.69133 0.00431 0.35588 0.0
O129 O 0.71221 0.0074 0.36423 0.0
O130 O 0.66178 0.98201 0.3378 0.0
O131 O 0.70808 0.98064 0.3363 0.0
O132 O 0.68756 0.97815 0.32744 0.0
C133 C 0.70407 0.01234 0.36186 0.0
C134 C 0.67936 0.96525 0.37763 0.0
O135 O 0.67232 0.96853 0.36746 0.0
O136 O 0.69302 0.97155 0.37659 0.0
C137 C 0.65182 0.98208 0.34613 0.0
O138 O 0.65248 0.98244 0.3628 0.0
C139 C 0.69875 0.97745 0.32464 0.0
Zn140 Zn 0.01755 0.71493 0.367 0.0
Zn141 Zn 0.01729 0.69189 0.35425 0.0
O142 O 0.99603 0.68431 0.36092 0.0
O143 O 0.99613 0.70306 0.37085 0.0
O144 O 0.01679 0.67481 0.34382 0.0
O145 O 0.02527 0.72518 0.34462 0.0
O146 O 0.02517 0.70641 0.33469 0.0
C147 C 0.98933 0.68989 0.36729 0.0
C148 C 0.03542 0.70705 0.38591 0.0
O149 O 0.0314 0.69746 0.37452 0.0
O150 O 0.03094 0.71565 0.38558 0.0
C151 C 0.00667 0.66196 0.34631 0.0
O152 O 0.99606 0.65932 0.35657 0.0
C153 C 0.02767 0.71902 0.33266 0.0
Zn154 Zn 0.30948 0.35301 0.32858 0.0
Zn155 Zn 0.31068 0.3309 0.34045 0.0
O156 O 0.33086 0.3439 0.33008 0.0
O157 O 0.32897 0.36081 0.31757 0.0
O158 O 0.31254 0.3153 0.35127 0.0
O159 O 0.30795 0.359 0.35233 0.0
O160 O 0.30553 0.33884 0.36111 0.0
C161 C 0.33622 0.35504 0.32084 0.0
C162 C 0.28738 0.32566 0.31466 0.0
O163 O 0.29424 0.32089 0.32272 0.0
O164 O 0.29126 0.33868 0.31587 0.0
C165 C 0.31685 0.30813 0.3434 0.0
O166 O 0.31972 0.31044 0.32712 0.0
C167 C 0.30543 0.35017 0.36413 0.0
Zn168 Zn 0.3011 0.02254 0.66593 0.0
Zn169 Zn 0.3243 0.02268 0.67828 0.0
O170 O 0.31013 0.00166 0.67147 0.0
O171 O 0.29076 0.00132 0.66208 0.0
O172 O 0.34095 0.02198 0.68881 0.0
O173 O 0.29904 0.0307 0.68793 0.0
O174 O 0.31795 0.03049 0.69798 0.0
C175 C 0.29733 0.99483 0.66529 0.0
C176 C 0.32727 0.04023 0.6467 0.0
O177 O 0.33316 0.03642 0.6579 0.0
O178 O 0.31386 0.03568 0.64739 0.0
C179 C 0.34806 0.01768 0.68071 0.0
O180 O 0.34481 0.01393 0.6647 0.0
C181 C 0.30792 0.03316 0.69993 0.0
Zn182 Zn 0.99129 0.29079 0.67167 0.0
Zn183 Zn 0.98803 0.312 0.6829 0.0
O184 O 0.00941 0.32216 0.67542 0.0
O185 O 0.01257 0.30464 0.66809 0.0
O186 O 0.98666 0.3281 0.6929 0.0
O187 O 0.9846 0.28058 0.69405 0.0
O188 O 0.9818 0.29792 0.70306 0.0
C189 C 0.01759 0.31783 0.67023 0.0
C190 C 0.97058 0.29471 0.6521 0.0
O191 O 0.97362 0.30453 0.66291 0.0
O192 O 0.97672 0.28757 0.65306 0.0
C193 C 0.9894 0.33908 0.68441 0.0
O194 O 0.99283 0.33986 0.66831 0.0
C195 C 0.98103 0.28608 0.70564 0.0
Zn196 Zn 0.69653 0.64948 0.69737 0.0
Zn197 Zn 0.69468 0.67167 0.6866 0.0
O198 O 0.67436 0.65737 0.696 0.0
O199 O 0.676 0.63949 0.7058 0.0
O200 O 0.69255 0.68765 0.67706 0.0
O201 O 0.70087 0.64598 0.67385 0.0
O202 O 0.70074 0.665 0.66531 0.0
C203 C 0.66865 0.64528 0.70336 0.0
C204 C 0.71707 0.67616 0.71369 0.0
O205 O 0.7107 0.68119 0.70508 0.0
O206 O 0.71324 0.66317 0.7123 0.0
C207 C 0.68324 0.69041 0.6825 0.0
O208 O 0.67507 0.68313 0.6954 0.0
C209 C 0.70259 0.65467 0.66219 0.0
Zn210 Zn 0.365 0.31851 0.69127 0.0
Zn211 Zn 0.34022 0.31544 0.68032 0.0
O212 O 0.35274 0.33642 0.68825 0.0
O213 O 0.37431 0.33979 0.69343 0.0
O214 O 0.32279 0.31503 0.67037 0.0
O215 O 0.36694 0.30987 0.66966 0.0
O216 O 0.34756 0.30929 0.65985 0.0
C217 C 0.366 0.34464 0.6924 0.0
C218 C 0.33993 0.29916 0.71159 0.0
O219 O 0.33272 0.30097 0.70004 0.0
O220 O 0.35364 0.30587 0.71105 0.0
C221 C 0.31653 0.32047 0.67807 0.0
O222 O 0.32087 0.32558 0.69348 0.0
C223 C 0.35797 0.30721 0.65772 0.0
Zn224 Zn 0.68799 0.05085 0.69011 0.0
Zn225 Zn 0.68635 0.02627 0.68226 0.0
O226 O 0.66592 0.02005 0.6912 0.0
O227 O 0.6675 0.04015 0.69837 0.0
O228 O 0.68465 0.00783 0.67468 0.0
O229 O 0.69218 0.05733 0.66579 0.0
O230 O 0.69226 0.03781 0.65993 0.0
C231 C 0.66018 0.02668 0.69726 0.0
C232 C 0.70854 0.04636 0.70865 0.0
O233 O 0.70251 0.03454 0.70058 0.0
O234 O 0.70438 0.05508 0.70618 0.0
C235 C 0.67462 0.99547 0.67928 0.0
O236 O 0.66498 0.99427 0.69025 0.0
C237 C 0.69388 0.04967 0.65524 0.0
Zn238 Zn 0.97777 0.69597 0.66709 0.0
Zn239 Zn 0.97416 0.67074 0.67608 0.0
O240 O 0.99554 0.68277 0.66864 0.0
O241 O 0.99849 0.70337 0.66088 0.0
O242 O 0.97274 0.6528 0.68488 0.0
O243 O 0.97282 0.69902 0.69075 0.0
O244 O 0.9686 0.6777 0.69732 0.0
C245 C 0.00357 0.69537 0.66286 0.0
C246 C 0.95566 0.67177 0.64739 0.0
O247 O 0.95926 0.66446 0.65648 0.0
O248 O 0.96184 0.68513 0.64968 0.0
C249 C 0.97741 0.64599 0.67687 0.0
O250 O 0.9827 0.6502 0.66157 0.0
C251 C 0.9688 0.68902 0.70141 0.0
C252 C 0.18904 0.30053 0.12419 0.0
C253 C 0.18472 0.29243 0.10918 0.0
C254 C 0.17885 0.30103 0.13439 0.0
C255 C 0.16404 0.29305 0.1301 0.0
C256 C 0.16997 0.28454 0.10476 0.0
C257 C 0.15972 0.28481 0.11517 0.0
C258 C 0.15327 0.29446 0.14002 0.0
C259 C 0.17336 0.27888 0.17896 0.0
C260 C 0.18084 0.28882 0.19208 0.0
C261 C 0.16451 0.28083 0.16755 0.0
C262 C 0.16308 0.29277 0.16905 0.0
C263 C 0.17952 0.30086 0.19325 0.0
C264 C 0.17066 0.30273 0.18199 0.0
C265 C 0.15321 0.29482 0.15796 0.0
C266 C 0.10114 0.29874 0.17467 0.0
C267 C 0.10691 0.30693 0.18951 0.0
C268 C 0.11009 0.29677 0.16371 0.0
C269 C 0.12498 0.30327 0.16727 0.0
C270 C 0.12181 0.31362 0.19285 0.0
C271 C 0.13074 0.31183 0.18184 0.0
C272 C 0.13453 0.30024 0.15707 0.0
C273 C 0.1194 0.32129 0.1205 0.0
C274 C 0.11054 0.31235 0.10723 0.0
C275 C 0.12708 0.31719 0.13097 0.0
C276 C 0.12606 0.30406 0.12844 0.0
C277 C 0.10966 0.29924 0.10466 0.0
C278 C 0.11745 0.2952 0.11507 0.0
C279 C 0.13456 0.29991 0.13914 0.0
H280 H 0.2004 0.30704 0.12761 0.0
H281 H 0.18267 0.30811 0.14526 0.0
H282 H 0.16642 0.27833 0.09314 0.0
H283 H 0.14841 0.27878 0.1114 0.0
H284 H 0.17406 0.26945 0.17776 0.0
H285 H 0.15858 0.27288 0.15781 0.0
H286 H 0.18539 0.30893 0.2029 0.0
H287 H 0.16977 0.31206 0.18336 0.0
H288 H 0.08965 0.29336 0.17195 0.0
H289 H 0.10525 0.28976 0.15287 0.0
H290 H 0.12652 0.32008 0.20415 0.0
H291 H 0.14216 0.31694 0.18492 0.0
H292 H 0.12063 0.3316 0.12263 0.0
H293 H 0.134 0.3244 0.1409 0.0
H294 H 0.10284 0.29201 0.0947 0.0
H295 H 0.11662 0.28508 0.11281 0.0
N296 N 0.14385 0.29693 0.13133 0.0
N297 N 0.14388 0.29771 0.16568 0.0
C298 C 0.67674 0.87952 0.12736 0.0
C299 C 0.68265 0.88403 0.11105 0.0
C300 C 0.68009 0.87099 0.13721 0.0
C301 C 0.6897 0.86708 0.13114 0.0
C302 C 0.6919 0.87969 0.10483 0.0
C303 C 0.69536 0.8713 0.11476 0.0
C304 C 0.69339 0.85804 0.14134 0.0
C305 C 0.7083 0.89818 0.17206 0.0
C306 C 0.70304 0.89571 0.18874 0.0
C307 C 0.70675 0.88688 0.16217 0.0
C308 C 0.69943 0.87287 0.16861 0.0
C309 C 0.69607 0.88182 0.19529 0.0
C310 C 0.69425 0.87052 0.18532 0.0
C311 C 0.69762 0.86058 0.15864 0.0
C312 C 0.71101 0.81439 0.1746 0.0
C313 C 0.70588 0.81176 0.19132 0.0
C314 C 0.70899 0.82358 0.16418 0.0
C315 C 0.70125 0.82976 0.17013 0.0
C316 C 0.69876 0.8184 0.19751 0.0
C317 C 0.69642 0.82726 0.18701 0.0
C318 C 0.69849 0.83926 0.15939 0.0
C319 C 0.67937 0.79789 0.13042 0.0
C320 C 0.68501 0.7992 0.11401 0.0
C321 C 0.68221 0.80999 0.13956 0.0
C322 C 0.69109 0.82369 0.13271 0.0
C323 C 0.69349 0.81293 0.107 0.0
C324 C 0.69649 0.82502 0.11624 0.0
C325 C 0.69416 0.83666 0.14211 0.0
H326 H 0.66964 0.8827 0.13264 0.0
H327 H 0.67518 0.86748 0.14957 0.0
H328 H 0.69638 0.88264 0.0922 0.0
H329 H 0.70257 0.86817 0.10966 0.0
H330 H 0.71387 0.90887 0.16685 0.0
H331 H 0.71138 0.88913 0.14958 0.0
H332 H 0.69189 0.87967 0.20811 0.0
H333 H 0.68869 0.85988 0.19069 0.0
H334 H 0.71662 0.80941 0.16968 0.0
H335 H 0.71342 0.82579 0.1515 0.0
H336 H 0.69468 0.81644 0.21038 0.0
H337 H 0.6906 0.83201 0.19205 0.0
H338 H 0.67287 0.78753 0.13631 0.0
H339 H 0.67747 0.80862 0.152 0.0
H340 H 0.69771 0.81438 0.09425 0.0
H341 H 0.7031 0.83545 0.11053 0.0
N342 N 0.69196 0.84624 0.13378 0.0
N343 N 0.69994 0.85107 0.16688 0.0
C344 C 0.11424 0.813 0.12799 0.0
C345 C 0.10599 0.8135 0.11443 0.0
C346 C 0.12197 0.82472 0.13874 0.0
C347 C 0.12157 0.83716 0.13625 0.0
C348 C 0.10538 0.82586 0.11207 0.0
C349 C 0.11326 0.83768 0.1228 0.0
C350 C 0.13094 0.84999 0.14665 0.0
C351 C 0.09663 0.81862 0.18258 0.0
C352 C 0.10217 0.81329 0.19475 0.0
C353 C 0.10602 0.83032 0.17249 0.0
C354 C 0.12108 0.83694 0.1746 0.0
C355 C 0.11723 0.81986 0.19669 0.0
C356 C 0.12658 0.83166 0.18683 0.0
C357 C 0.13124 0.84963 0.16456 0.0
C358 C 0.17854 0.90994 0.1832 0.0
C359 C 0.18571 0.90658 0.19561 0.0
C360 C 0.16755 0.89915 0.17316 0.0
C361 C 0.1635 0.88484 0.17551 0.0
C362 C 0.18146 0.89225 0.19807 0.0
C363 C 0.1704 0.88149 0.18822 0.0
C364 C 0.15206 0.87319 0.165 0.0
C365 C 0.18942 0.89688 0.12945 0.0
C366 C 0.18686 0.9033 0.11551 0.0
C367 C 0.17813 0.88764 0.14007 0.0
C368 C 0.16402 0.88469 0.13707 0.0
C369 C 0.17282 0.90064 0.11272 0.0
C370 C 0.16145 0.89127 0.12333 0.0
C371 C 0.15185 0.87353 0.14707 0.0
H372 H 0.11483 0.80358 0.13017 0.0
H373 H 0.12862 0.82419 0.14873 0.0
H374 H 0.09919 0.82655 0.10164 0.0
H375 H 0.11299 0.84726 0.1205 0.0
H376 H 0.08505 0.81374 0.18088 0.0
H377 H 0.10154 0.83434 0.16326 0.0
H378 H 0.12177 0.81607 0.20614 0.0
H379 H 0.13816 0.83664 0.1887 0.0
H380 H 0.18162 0.92092 0.18108 0.0
H381 H 0.16221 0.90196 0.16362 0.0
H382 H 0.18666 0.88934 0.2077 0.0
H383 H 0.16741 0.87053 0.19033 0.0
H384 H 0.20015 0.89879 0.13193 0.0
H385 H 0.18034 0.88239 0.15027 0.0
H386 H 0.17054 0.90536 0.10197 0.0
H387 H 0.1506 0.88896 0.12064 0.0
N388 N 0.14123 0.86195 0.13858 0.0
N389 N 0.14179 0.86122 0.17303 0.0
C390 C 0.31389 0.11941 0.8523 0.0
C391 C 0.30135 0.11094 0.84241 0.0
C392 C 0.3146 0.12955 0.86361 0.0
C393 C 0.3028 0.13142 0.86528 0.0
C394 C 0.28938 0.11254 0.84459 0.0
C395 C 0.29017 0.12278 0.85577 0.0
C396 C 0.30417 0.14338 0.8754 0.0
C397 C 0.30396 0.11251 0.91322 0.0
C398 C 0.31717 0.1179 0.92202 0.0
C399 C 0.3013 0.12159 0.90348 0.0
C400 C 0.31178 0.13621 0.90242 0.0
C401 C 0.32761 0.13254 0.92098 0.0
C402 C 0.32488 0.14163 0.91139 0.0
C403 C 0.30904 0.14602 0.89244 0.0
C404 C 0.30468 0.19751 0.90947 0.0
C405 C 0.31695 0.20483 0.92005 0.0
C406 C 0.30195 0.18537 0.90054 0.0
C407 C 0.31164 0.1805 0.90166 0.0
C408 C 0.32638 0.1997 0.9216 0.0
C409 C 0.32375 0.18766 0.91249 0.0
C410 C 0.30908 0.16778 0.89201 0.0
C411 C 0.31564 0.19956 0.8515 0.0
C412 C 0.30325 0.19577 0.84159 0.0
C413 C 0.31589 0.18976 0.86259 0.0
C414 C 0.30376 0.17591 0.86405 0.0
C415 C 0.29106 0.18188 0.84319 0.0
C416 C 0.29138 0.17202 0.8542 0.0
C417 C 0.30443 0.16523 0.87484 0.0
H418 H 0.32341 0.1187 0.85077 0.0
H419 H 0.32461 0.13635 0.87049 0.0
H420 H 0.27946 0.10605 0.83743 0.0
H421 H 0.28097 0.12411 0.8568 0.0
H422 H 0.29574 0.10127 0.91377 0.0
H423 H 0.291 0.11721 0.89694 0.0
H424 H 0.3378 0.13701 0.92779 0.0
H425 H 0.33307 0.15289 0.91086 0.0
H426 H 0.29708 0.20106 0.90831 0.0
H427 H 0.29221 0.17974 0.89285 0.0
H428 H 0.33594 0.20516 0.92962 0.0
H429 H 0.33131 0.18406 0.91373 0.0
H430 H 0.32538 0.20999 0.85033 0.0
H431 H 0.32572 0.19288 0.8697 0.0
H432 H 0.28129 0.1786 0.8359 0.0
H433 H 0.28195 0.16134 0.85503 0.0
N434 N 0.30204 0.15308 0.86728 0.0
N435 N 0.31131 0.15812 0.90008 0.0
C436 C 0.90723 0.18589 0.91028 0.0
C437 C 0.90154 0.19058 0.92293 0.0
C438 C 0.89804 0.17401 0.90018 0.0
C439 C 0.88294 0.16685 0.90219 0.0
C440 C 0.8865 0.18277 0.92559 0.0
C441 C 0.87734 0.17114 0.9153 0.0
C442 C 0.8727 0.15489 0.89095 0.0
C443 C 0.89796 0.19214 0.85545 0.0
C444 C 0.90499 0.18972 0.8421 0.0
C445 C 0.88811 0.18089 0.86573 0.0
C446 C 0.88539 0.16703 0.86325 0.0
C447 C 0.90213 0.17579 0.8396 0.0
C448 C 0.89244 0.16459 0.85005 0.0
C449 C 0.87412 0.15479 0.87309 0.0
C450 C 0.81566 0.11145 0.84856 0.0
C451 C 0.81873 0.10444 0.83589 0.0
C452 C 0.82623 0.12019 0.86045 0.0
C453 C 0.84005 0.12198 0.86004 0.0
C454 C 0.83248 0.10603 0.83569 0.0
C455 C 0.84309 0.11483 0.84758 0.0
C456 C 0.8517 0.13243 0.87143 0.0
C457 C 0.81775 0.09737 0.90367 0.0
C458 C 0.81106 0.10217 0.91476 0.0
C459 C 0.83068 0.10715 0.89559 0.0
C460 C 0.83707 0.12188 0.8984 0.0
C461 C 0.81785 0.11686 0.9181 0.0
C462 C 0.83073 0.12659 0.91006 0.0
C463 C 0.85017 0.13261 0.8892 0.0
H464 H 0.91875 0.19158 0.90787 0.0
H465 H 0.90274 0.1706 0.89064 0.0
H466 H 0.88171 0.1857 0.93556 0.0
H467 H 0.86577 0.16568 0.91741 0.0
H468 H 0.89994 0.20271 0.85787 0.0
H469 H 0.88242 0.183 0.8754 0.0
H470 H 0.90703 0.17339 0.82923 0.0
H471 H 0.89028 0.15395 0.84764 0.0
H472 H 0.80515 0.11038 0.84909 0.0
H473 H 0.82374 0.12589 0.86965 0.0
H474 H 0.83521 0.10091 0.82594 0.0
H475 H 0.85375 0.11626 0.84688 0.0
H476 H 0.81278 0.08611 0.90086 0.0
H477 H 0.83557 0.10322 0.88698 0.0
H478 H 0.81313 0.12087 0.92685 0.0
H479 H 0.83551 0.13787 0.9126 0.0
N480 N 0.86073 0.14381 0.8982 0.0
N481 N 0.86365 0.14347 0.86412 0.0
C482 C 0.82756 0.72949 0.91225 0.0
C483 C 0.81933 0.71821 0.92359 0.0
C484 C 0.83879 0.72996 0.90302 0.0
C485 C 0.84185 0.71907 0.90482 0.0
C486 C 0.82276 0.70759 0.9257 0.0
C487 C 0.83394 0.70807 0.91649 0.0
C488 C 0.85322 0.71889 0.89473 0.0
C489 C 0.81928 0.71329 0.85637 0.0
C490 C 0.82444 0.72309 0.84289 0.0
C491 C 0.82894 0.7127 0.86775 0.0
C492 C 0.84395 0.72217 0.86614 0.0
C493 C 0.83943 0.73263 0.84135 0.0
C494 C 0.84908 0.73216 0.85286 0.0
C495 C 0.8544 0.72072 0.87692 0.0
C496 C 0.89446 0.70074 0.85814 0.0
C497 C 0.90164 0.70999 0.84445 0.0
C498 C 0.88581 0.70316 0.869 0.0
C499 C 0.88447 0.71512 0.86672 0.0
C500 C 0.90019 0.72191 0.84218 0.0
C501 C 0.89172 0.72442 0.85318 0.0
C502 C 0.87445 0.71726 0.87722 0.0
C503 C 0.90708 0.71781 0.91336 0.0
C504 C 0.90108 0.70703 0.92575 0.0
C505 C 0.89818 0.72081 0.9035 0.0
C506 C 0.88308 0.71288 0.90561 0.0
C507 C 0.88603 0.69942 0.92819 0.0
C508 C 0.87714 0.70234 0.91825 0.0
C509 C 0.87336 0.71559 0.89507 0.0
H510 H 0.82532 0.73794 0.91052 0.0
H511 H 0.84501 0.73877 0.89441 0.0
H512 H 0.81652 0.69863 0.9341 0.0
H513 H 0.83614 0.69958 0.91815 0.0
H514 H 0.8078 0.7056 0.85763 0.0
H515 H 0.82466 0.70448 0.8774 0.0
H516 H 0.8437 0.74028 0.83106 0.0
H517 H 0.8606 0.73944 0.8512 0.0
H518 H 0.89537 0.69152 0.86039 0.0
H519 H 0.87993 0.69548 0.87892 0.0
H520 H 0.90525 0.72909 0.83158 0.0
H521 H 0.89064 0.73356 0.85094 0.0
H522 H 0.91866 0.72402 0.91139 0.0
H523 H 0.9031 0.72932 0.89423 0.0
H524 H 0.88107 0.69097 0.93754 0.0
H525 H 0.86554 0.69615 0.92023 0.0
N526 N 0.86271 0.71637 0.90305 0.0
N527 N 0.86502 0.7199 0.86894 0.0
C528 C 0.76216 0.62857 0.44899 0.0
C529 C 0.76838 0.63971 0.43705 0.0
C530 C 0.77078 0.62476 0.45809 0.0
C531 C 0.78584 0.63222 0.45568 0.0
C532 C 0.78337 0.64682 0.43426 0.0
C533 C 0.79199 0.64309 0.44346 0.0
C534 C 0.79535 0.62884 0.46566 0.0
C535 C 0.77631 0.64413 0.50536 0.0
C536 C 0.76736 0.63346 0.51705 0.0
C537 C 0.78478 0.64189 0.494 0.0
C538 C 0.78444 0.62894 0.49408 0.0
C539 C 0.76676 0.62035 0.51669 0.0
C540 C 0.77534 0.61819 0.50545 0.0
C541 C 0.79447 0.62704 0.48345 0.0
C542 C 0.85163 0.63644 0.503 0.0
C543 C 0.84781 0.6271 0.51689 0.0
C544 C 0.84105 0.63523 0.49165 0.0
C545 C 0.82645 0.62451 0.4938 0.0
C546 C 0.83325 0.61615 0.51878 0.0
C547 C 0.82267 0.61495 0.50741 0.0
C548 C 0.81499 0.62439 0.48326 0.0
C549 C 0.84212 0.61585 0.44859 0.0
C550 C 0.84848 0.62558 0.43517 0.0
C551 C 0.83113 0.61551 0.45817 0.0
C552 C 0.82666 0.62524 0.45484 0.0
C553 C 0.84352 0.6348 0.43131 0.0
C554 C 0.83274 0.63464 0.44105 0.0
C555 C 0.81561 0.62571 0.46535 0.0
H556 H 0.7506 0.62272 0.45117 0.0
H557 H 0.76566 0.61599 0.467 0.0
H558 H 0.7885 0.65552 0.42524 0.0
H559 H 0.80356 0.64895 0.44127 0.0
H560 H 0.77724 0.65443 0.50545 0.0
H561 H 0.79197 0.65045 0.48555 0.0
H562 H 0.75982 0.61181 0.52528 0.0
H563 H 0.77498 0.60815 0.50573 0.0
H564 H 0.86276 0.64493 0.50114 0.0
H565 H 0.84424 0.64301 0.48157 0.0
H566 H 0.82993 0.60891 0.52947 0.0
H567 H 0.81145 0.60675 0.50947 0.0
H568 H 0.84569 0.60854 0.45168 0.0
H569 H 0.82623 0.60772 0.46824 0.0
H570 H 0.84834 0.6425 0.42111 0.0
H571 H 0.82943 0.64216 0.43807 0.0
N572 N 0.80584 0.62804 0.45733 0.0
N573 N 0.80431 0.6249 0.49153 0.0
C574 C 0.34388 0.21239 0.45616 0.0
C575 C 0.35195 0.21921 0.44154 0.0
C576 C 0.34716 0.20385 0.46607 0.0
C577 C 0.35866 0.20208 0.46167 0.0
C578 C 0.36332 0.21722 0.43703 0.0
C579 C 0.36657 0.20866 0.44694 0.0
C580 C 0.36199 0.19281 0.47189 0.0
C581 C 0.37188 0.23023 0.50546 0.0
C582 C 0.3651 0.22655 0.52135 0.0
C583 C 0.37157 0.21976 0.49504 0.0
C584 C 0.36403 0.20536 0.50012 0.0
C585 C 0.35776 0.21223 0.52651 0.0
C586 C 0.35718 0.20176 0.51599 0.0
C587 C 0.36386 0.19399 0.48975 0.0
C588 C 0.3774 0.14856 0.50739 0.0
C589 C 0.3679 0.14219 0.52109 0.0
C590 C 0.37663 0.15862 0.49719 0.0
C591 C 0.36644 0.16251 0.50068 0.0
C592 C 0.35792 0.1463 0.52468 0.0
C593 C 0.35728 0.15645 0.51467 0.0
C594 C 0.36525 0.173 0.49009 0.0
C595 C 0.34874 0.13371 0.4582 0.0
C596 C 0.3568 0.13564 0.44346 0.0
C597 C 0.35095 0.14545 0.4676 0.0
C598 C 0.3614 0.15938 0.46262 0.0
C599 C 0.36712 0.14961 0.43834 0.0
C600 C 0.36934 0.16137 0.44779 0.0
C601 C 0.36341 0.17183 0.47228 0.0
H602 H 0.33486 0.21342 0.45981 0.0
H603 H 0.34061 0.19852 0.4771 0.0
H604 H 0.36983 0.22241 0.42593 0.0
H605 H 0.37539 0.2073 0.44322 0.0
H606 H 0.37778 0.24126 0.50134 0.0
H607 H 0.37745 0.223 0.48321 0.0
H608 H 0.35241 0.20914 0.5387 0.0
H609 H 0.35138 0.19078 0.52032 0.0
H610 H 0.3852 0.14556 0.50439 0.0
H611 H 0.38397 0.16336 0.48661 0.0
H612 H 0.35061 0.14169 0.53532 0.0
H613 H 0.34943 0.15939 0.51768 0.0
H614 H 0.34045 0.12313 0.46227 0.0
H615 H 0.34429 0.14362 0.47862 0.0
H616 H 0.37355 0.15146 0.42709 0.0
H617 H 0.37732 0.17203 0.44359 0.0
N618 N 0.36196 0.18185 0.46385 0.0
N619 N 0.36535 0.18398 0.49808 0.0
C620 C 0.78166 0.14376 0.45461 0.0
C621 C 0.77292 0.14551 0.44277 0.0
C622 C 0.79137 0.15505 0.46499 0.0
C623 C 0.79248 0.16833 0.4639 0.0
C624 C 0.77438 0.15897 0.4413 0.0
C625 C 0.78414 0.17032 0.45175 0.0
C626 C 0.80258 0.18012 0.47527 0.0
C627 C 0.76642 0.1475 0.50805 0.0
C628 C 0.77094 0.14057 0.51924 0.0
C629 C 0.77661 0.1598 0.49941 0.0
C630 C 0.79149 0.16538 0.50191 0.0
C631 C 0.78583 0.14618 0.52168 0.0
C632 C 0.796 0.15854 0.5132 0.0
C633 C 0.80248 0.17844 0.49305 0.0
C634 C 0.8517 0.23606 0.51724 0.0
C635 C 0.85823 0.23124 0.52874 0.0
C636 C 0.84043 0.22639 0.50652 0.0
C637 C 0.83557 0.21177 0.50714 0.0
C638 C 0.853 0.21656 0.52965 0.0
C639 C 0.84175 0.20694 0.51904 0.0
C640 C 0.8241 0.20129 0.49555 0.0
C641 C 0.86241 0.22991 0.46347 0.0
C642 C 0.85984 0.23688 0.45019 0.0
C643 C 0.8509 0.2189 0.47236 0.0
C644 C 0.83657 0.21495 0.46858 0.0
C645 C 0.84552 0.23266 0.44598 0.0
C646 C 0.83397 0.2218 0.45515 0.0
C647 C 0.82428 0.20298 0.47769 0.0
H648 H 0.78114 0.13367 0.45574 0.0
H649 H 0.79805 0.1534 0.47388 0.0
H650 H 0.76781 0.16067 0.43229 0.0
H651 H 0.78499 0.18056 0.45058 0.0
H652 H 0.755 0.1434 0.50597 0.0
H653 H 0.7729 0.16503 0.49093 0.0
H654 H 0.78962 0.14119 0.53045 0.0
H655 H 0.80742 0.1627 0.51537 0.0
H656 H 0.8555 0.24732 0.51628 0.0
H657 H 0.83562 0.23034 0.49766 0.0
H658 H 0.85762 0.21248 0.53861 0.0
H659 H 0.83809 0.1957 0.51987 0.0
H660 H 0.87334 0.23271 0.46665 0.0
H661 H 0.85323 0.21332 0.482 0.0
H662 H 0.84328 0.2378 0.43567 0.0
H663 H 0.823 0.21874 0.45175 0.0
N664 N 0.81342 0.19235 0.46825 0.0
N665 N 0.81325 0.18905 0.50247 0.0
C666 C 0.98416 0.53515 0.17963 0.0
C667 C 0.99375 0.54168 0.166 0.0
C668 C 0.98611 0.52656 0.19117 0.0
C669 C 0.99771 0.52438 0.18931 0.0
C670 C 0.00552 0.53969 0.16447 0.0
C671 C 0.00737 0.53102 0.17588 0.0
C672 C 0.99929 0.51441 0.20044 0.0
C673 C 0.00919 0.55189 0.23303 0.0
C674 C 0.00062 0.54873 0.24761 0.0
C675 C 0.00876 0.54098 0.22348 0.0
C676 C 0.99948 0.52661 0.22802 0.0
C677 C 0.99151 0.53434 0.25228 0.0
C678 C 0.99097 0.52342 0.24261 0.0
C679 C 0.99931 0.51494 0.21838 0.0
C680 C 0.01545 0.47205 0.23807 0.0
C681 C 0.00565 0.46474 0.2513 0.0
C682 C 0.01395 0.4816 0.2278 0.0
C683 C 0.00258 0.48398 0.23046 0.0
C684 C 0.99442 0.46736 0.25411 0.0
C685 C 0.99297 0.47696 0.24385 0.0
C686 C 0.00094 0.49409 0.21963 0.0
C687 C 0.99062 0.45722 0.18478 0.0
C688 C 0.00034 0.46089 0.17123 0.0
C689 C 0.99106 0.46782 0.19504 0.0
C690 C 0.00126 0.48228 0.19199 0.0
C691 C 0.01073 0.47539 0.16849 0.0
C692 C 0.01109 0.48596 0.17867 0.0
C693 C 0.00104 0.49366 0.20172 0.0
H694 H 0.97488 0.5363 0.18109 0.0
H695 H 0.97835 0.52131 0.20126 0.0
H696 H 0.01332 0.54479 0.15438 0.0
H697 H 0.01639 0.52948 0.1742 0.0
H698 H 0.01626 0.56281 0.22895 0.0
H699 H 0.01588 0.54384 0.21269 0.0
H700 H 0.98497 0.5315 0.26361 0.0
H701 H 0.98391 0.51245 0.24657 0.0
H702 H 0.02442 0.47056 0.23579 0.0
H703 H 0.02178 0.48722 0.21787 0.0
H704 H 0.98661 0.46182 0.26408 0.0
H705 H 0.98418 0.47873 0.2462 0.0
H706 H 0.98231 0.4462 0.18709 0.0
H707 H 0.98313 0.46473 0.20499 0.0
H708 H 0.01854 0.47861 0.15837 0.0
H709 H 0.01903 0.49706 0.17607 0.0
N710 N 0.00026 0.50386 0.19285 0.0
N711 N 2e-05 0.50468 0.22727 0.0
C712 C 0.48375 0.4325 0.17777 0.0
C713 C 0.47993 0.43682 0.16285 0.0
C714 C 0.49451 0.44264 0.18861 0.0
C715 C 0.5012 0.45732 0.18504 0.0
C716 C 0.48709 0.45139 0.15886 0.0
C717 C 0.49756 0.46152 0.16986 0.0
C718 C 0.51211 0.46846 0.19669 0.0
C719 C 0.47203 0.44489 0.22853 0.0
C720 C 0.47287 0.4358 0.24052 0.0
C721 C 0.48436 0.45518 0.22001 0.0
C722 C 0.49783 0.45672 0.22337 0.0
C723 C 0.48647 0.43746 0.2439 0.0
C724 C 0.49886 0.44795 0.23554 0.0
C725 C 0.51084 0.46785 0.21459 0.0
C726 C 0.55074 0.52788 0.23579 0.0
C727 C 0.55748 0.52643 0.25034 0.0
C728 C 0.54279 0.51637 0.22481 0.0
C729 C 0.54154 0.5032 0.22802 0.0
C730 C 0.55625 0.51324 0.25354 0.0
C731 C 0.54822 0.50167 0.24254 0.0
C732 C 0.53239 0.49081 0.21689 0.0
C733 C 0.57051 0.52208 0.18544 0.0
C734 C 0.56665 0.52788 0.17192 0.0
C735 C 0.55985 0.51026 0.19438 0.0
C736 C 0.54518 0.50402 0.1899 0.0
C737 C 0.55197 0.52157 0.16747 0.0
C738 C 0.54136 0.50971 0.1763 0.0
C739 C 0.53368 0.49145 0.19903 0.0
H740 H 0.47848 0.42129 0.18098 0.0
H741 H 0.49754 0.43897 0.19974 0.0
H742 H 0.48426 0.45497 0.14745 0.0
H743 H 0.5026 0.47272 0.16665 0.0
H744 H 0.46189 0.44427 0.22589 0.0
H745 H 0.48342 0.46208 0.2109 0.0
H746 H 0.48755 0.43059 0.25288 0.0
H747 H 0.50922 0.44907 0.23836 0.0
H748 H 0.55159 0.53793 0.23289 0.0
H749 H 0.5374 0.51771 0.21396 0.0
H750 H 0.56119 0.51176 0.26475 0.0
H751 H 0.54719 0.49153 0.24537 0.0
H752 H 0.58176 0.52673 0.18911 0.0
H753 H 0.56308 0.5059 0.20466 0.0
H754 H 0.54869 0.52563 0.15692 0.0
H755 H 0.53011 0.50503 0.17256 0.0
N756 N 0.52348 0.48028 0.18967 0.0
N757 N 0.52106 0.47899 0.224 0.0
C758 C 0.47569 0.02489 0.24192 0.0
C759 C 0.46846 0.01347 0.25338 0.0
C760 C 0.487 0.02627 0.23201 0.0
C761 C 0.49111 0.01609 0.23306 0.0
C762 C 0.47287 0.00352 0.2547 0.0
C763 C 0.48404 0.00481 0.24465 0.0
C764 C 0.50327 0.01744 0.22297 0.0
C765 C 0.47061 0.01192 0.18295 0.0
C766 C 0.47467 0.02454 0.17389 0.0
C767 C 0.4805 0.01101 0.19357 0.0
C768 C 0.49473 0.02262 0.19524 0.0
C769 C 0.48896 0.03622 0.17582 0.0
C770 C 0.49893 0.03519 0.18621 0.0
C771 C 0.50542 0.02132 0.20563 0.0
C772 C 0.54908 0.00767 0.18329 0.0
C773 C 0.5594 0.02021 0.17489 0.0
C774 C 0.53855 0.00759 0.19348 0.0
C775 C 0.53803 0.02001 0.19539 0.0
C776 C 0.55889 0.03267 0.17705 0.0
C777 C 0.5482 0.03251 0.18702 0.0
C778 C 0.5266 0.01982 0.20563 0.0
C779 C 0.55822 0.01857 0.24165 0.0
C780 C 0.55226 0.00645 0.25213 0.0
C781 C 0.54925 0.02172 0.23222 0.0
C782 C 0.53412 0.01266 0.23281 0.0
C783 C 0.53712 0.99757 0.25303 0.0
C784 C 0.52815 0.00067 0.24348 0.0
C785 C 0.52441 0.01581 0.22291 0.0
H786 H 0.47256 0.03273 0.2405 0.0
H787 H 0.49262 0.03541 0.2237 0.0
H788 H 0.46781 0.99478 0.26366 0.0
H789 H 0.48715 0.99694 0.24594 0.0
H790 H 0.45988 0.00254 0.18154 0.0
H791 H 0.47713 0.0011 0.20017 0.0
H792 H 0.49249 0.0462 0.16934 0.0
H793 H 0.5099 0.04426 0.1873 0.0
H794 H 0.54888 0.99779 0.18168 0.0
H795 H 0.53062 0.99776 0.19964 0.0
H796 H 0.56678 0.0426 0.17108 0.0
H797 H 0.54795 0.04219 0.18836 0.0
H798 H 0.56984 0.02577 0.24098 0.0
H799 H 0.55416 0.03135 0.22465 0.0
H800 H 0.53221 0.98812 0.26093 0.0
H801 H 0.51652 0.99358 0.24429 0.0
N802 N 0.51281 0.01475 0.23087 0.0
N803 N 0.51706 0.02247 0.19765 0.0
C804 C 0.53123 0.98999 0.79242 0.0
C805 C 0.52754 0.97987 0.77941 0.0
C806 C 0.52049 0.99022 0.80181 0.0
C807 C 0.50582 0.98033 0.79844 0.0
C808 C 0.5128 0.96999 0.77603 0.0
C809 C 0.50204 0.97031 0.78538 0.0
C810 C 0.49446 0.98091 0.80802 0.0
C811 C 0.51529 0.96575 0.84575 0.0
C812 C 0.52243 0.97527 0.85931 0.0
C813 C 0.50633 0.96774 0.83464 0.0
C814 C 0.50439 0.97932 0.83685 0.0
C815 C 0.5206 0.98696 0.86128 0.0
C816 C 0.51158 0.98888 0.85027 0.0
C817 C 0.49428 0.98116 0.82594 0.0
C818 C 0.43825 0.97706 0.84174 0.0
C819 C 0.44274 0.98661 0.85551 0.0
C820 C 0.44846 0.97659 0.83146 0.0
C821 C 0.46333 0.98568 0.83476 0.0
C822 C 0.45763 0.99584 0.8586 0.0
C823 C 0.46782 0.99529 0.8484 0.0
C824 C 0.47424 0.98451 0.82491 0.0
C825 C 0.45495 0.00206 0.78945 0.0
C826 C 0.44708 0.99304 0.77576 0.0
C827 C 0.46387 0.99929 0.79954 0.0
C828 C 0.46501 0.98735 0.7963 0.0
C829 C 0.4485 0.98126 0.77231 0.0
C830 C 0.45745 0.9785 0.78243 0.0
C831 C 0.47448 0.98439 0.80697 0.0
H832 H 0.54243 0.99801 0.79509 0.0
H833 H 0.52366 0.99833 0.8115 0.0
H834 H 0.50956 0.96199 0.76621 0.0
H835 H 0.49076 0.96265 0.78251 0.0
H836 H 0.51629 0.95653 0.84399 0.0
H837 H 0.50063 0.96003 0.82459 0.0
H838 H 0.52614 0.99468 0.87135 0.0
H839 H 0.51025 0.99789 0.85222 0.0
H840 H 0.42685 0.96984 0.83906 0.0
H841 H 0.44472 0.96887 0.82122 0.0
H842 H 0.46142 0.00315 0.86927 0.0
H843 H 0.47923 0.0023 0.85127 0.0
H844 H 0.45439 0.0114 0.79223 0.0
H845 H 0.46998 0.00657 0.80981 0.0
H846 H 0.44252 0.97405 0.76194 0.0
H847 H 0.45828 0.96932 0.77959 0.0
N848 N 0.48452 0.98249 0.79919 0.0
N849 N 0.4842 0.98298 0.83367 0.0
C850 C 0.98725 0.53646 0.78342 0.0
C851 C 0.99652 0.54377 0.76976 0.0
C852 C 0.98925 0.52709 0.79338 0.0
C853 C 0.00059 0.52481 0.78995 0.0
C854 C 0.00769 0.54122 0.76615 0.0
C855 C 0.00963 0.53175 0.77608 0.0
C856 C 0.00278 0.51496 0.8006 0.0
C857 C 0.01561 0.55329 0.83355 0.0
C858 C 0.00637 0.5504 0.84738 0.0
C859 C 0.01462 0.54212 0.82395 0.0
C860 C 0.00438 0.52787 0.82803 0.0
C861 C 0.99608 0.53614 0.85138 0.0
C862 C 0.99519 0.52498 0.84188 0.0
C863 C 0.00368 0.51594 0.8185 0.0
C864 C 0.01713 0.47108 0.83861 0.0
C865 C 0.00787 0.46511 0.8526 0.0
C866 C 0.01605 0.48064 0.82782 0.0
C867 C 0.00565 0.48435 0.83081 0.0
C868 C 0.99762 0.46901 0.85566 0.0
C869 C 0.99659 0.47859 0.84494 0.0
C870 C 0.00449 0.49468 0.8198 0.0
C871 C 0.99097 0.45603 0.78755 0.0
C872 C 0.00012 0.45849 0.77372 0.0
C873 C 0.99212 0.46744 0.79674 0.0
C874 C 0.00254 0.48156 0.7924 0.0
C875 C 0.0104 0.47267 0.76925 0.0
C876 C 0.01153 0.48408 0.77844 0.0
C877 C 0.00365 0.49372 0.80187 0.0
H878 H 0.97831 0.53786 0.78634 0.0
H879 H 0.98187 0.52154 0.80373 0.0
H880 H 0.01512 0.54674 0.75584 0.0
H881 H 0.01837 0.53005 0.77314 0.0
H882 H 0.02363 0.56418 0.83017 0.0
H883 H 0.02203 0.54461 0.81353 0.0
H884 H 0.98896 0.5336 0.86213 0.0
H885 H 0.9873 0.51407 0.84535 0.0
H886 H 0.02513 0.46827 0.83591 0.0
H887 H 0.02341 0.48521 0.81724 0.0
H888 H 0.99051 0.4648 0.8665 0.0
H889 H 0.98861 0.48144 0.84763 0.0
H890 H 0.98272 0.44528 0.79111 0.0
H891 H 0.98474 0.46522 0.80712 0.0
H892 H 0.0177 0.47495 0.75876 0.0
H893 H 0.01955 0.4949 0.77477 0.0
N894 N 0.00291 0.50395 0.79295 0.0
N895 N 0.0044 0.50572 0.8274 0.0
C896 C 0.52307 0.57102 0.79132 0.0
C897 C 0.52935 0.56565 0.78042 0.0
C898 C 0.51035 0.56169 0.80008 0.0
C899 C 0.50378 0.54685 0.79818 0.0
C900 C 0.52241 0.55082 0.77807 0.0
C901 C 0.50976 0.54154 0.78681 0.0
C902 C 0.49072 0.53662 0.80784 0.0
C903 C 0.52604 0.55921 0.84678 0.0
C904 C 0.52332 0.56624 0.8598 0.0
C905 C 0.51506 0.55011 0.83553 0.0
C906 C 0.50119 0.54812 0.83664 0.0
C907 C 0.50941 0.56423 0.86093 0.0
C908 C 0.49845 0.55521 0.84949 0.0
C909 C 0.48924 0.53762 0.82554 0.0
C910 C 0.44191 0.47998 0.84497 0.0
C911 C 0.4336 0.4829 0.85598 0.0
C912 C 0.45216 0.4906 0.83435 0.0
C913 C 0.45433 0.50435 0.83448 0.0
C914 C 0.43563 0.49665 0.8558 0.0
C915 C 0.446 0.50731 0.84528 0.0
C916 C 0.46616 0.51594 0.82453 0.0
C917 C 0.43285 0.48589 0.78625 0.0
C918 C 0.43798 0.47906 0.77591 0.0
C919 C 0.44244 0.49751 0.79648 0.0
C920 C 0.4573 0.50246 0.79653 0.0
C921 C 0.45289 0.48409 0.7761 0.0
C922 C 0.46243 0.49573 0.78616 0.0
C923 C 0.46778 0.51482 0.80695 0.0
H924 H 0.52815 0.5824 0.79337 0.0
H925 H 0.50574 0.56607 0.80846 0.0
H926 H 0.52678 0.54635 0.76948 0.0
H927 H 0.50482 0.53015 0.78496 0.0
H928 H 0.53664 0.5606 0.84538 0.0
H929 H 0.51737 0.54437 0.8262 0.0
H930 H 0.50686 0.56927 0.87095 0.0
H931 H 0.48775 0.55363 0.85082 0.0
H932 H 0.4409 0.46964 0.84498 0.0
H933 H 0.45876 0.48818 0.82646 0.0
H934 H 0.4293 0.49924 0.86391 0.0
H935 H 0.4476 0.51789 0.84566 0.0
H936 H 0.42147 0.4824 0.78629 0.0
H937 H 0.43828 0.50271 0.80416 0.0
H938 H 0.45722 0.47891 0.76866 0.0
H939 H 0.47385 0.49933 0.78604 0.0
N940 N 0.47997 0.5252 0.79932 0.0
N941 N 0.47692 0.52731 0.83314 0.0
C942 C 0.64899 0.78696 0.51901 0.0
C943 C 0.6362 0.77843 0.50955 0.0
C944 C 0.65001 0.79714 0.53048 0.0
C945 C 0.63827 0.79901 0.53274 0.0
C946 C 0.62431 0.78006 0.5123 0.0
C947 C 0.6254 0.79035 0.52363 0.0
C948 C 0.63987 0.81095 0.54311 0.0
C949 C 0.64049 0.77988 0.5798 0.0
C950 C 0.65389 0.78521 0.58813 0.0
C951 C 0.63757 0.78902 0.57061 0.0
C952 C 0.64799 0.80367 0.56961 0.0
C953 C 0.66425 0.79989 0.5872 0.0
C954 C 0.66127 0.80904 0.57815 0.0
C955 C 0.64503 0.81351 0.56004 0.0
C956 C 0.63922 0.86335 0.57991 0.0
C957 C 0.65218 0.87157 0.58915 0.0
C958 C 0.6368 0.85151 0.57052 0.0
C959 C 0.64729 0.84766 0.57018 0.0
C960 C 0.66258 0.86757 0.58897 0.0
C961 C 0.66009 0.85566 0.57969 0.0
C962 C 0.64489 0.83518 0.56022 0.0
C963 C 0.65095 0.86733 0.52041 0.0
C964 C 0.63946 0.86294 0.50876 0.0
C965 C 0.65088 0.8577 0.53208 0.0
C966 C 0.63921 0.84351 0.53256 0.0
C967 C 0.62757 0.84886 0.50959 0.0
C968 C 0.6275 0.83921 0.5213 0.0
C969 C 0.64004 0.83276 0.54314 0.0
H970 H 0.65847 0.78622 0.51704 0.0
H971 H 0.66019 0.80395 0.53705 0.0
H972 H 0.6142 0.77353 0.50549 0.0
H973 H 0.61623 0.79168 0.52513 0.0
H974 H 0.63232 0.76861 0.58025 0.0
H975 H 0.62713 0.78466 0.5644 0.0
H976 H 0.67459 0.80432 0.59367 0.0
H977 H 0.66941 0.82032 0.57766 0.0
H978 H 0.63104 0.8662 0.57976 0.0
H979 H 0.62669 0.84533 0.56358 0.0
H980 H 0.67257 0.87358 0.59615 0.0
H981 H 0.66828 0.85282 0.57974 0.0
H982 H 0.66022 0.87814 0.52019 0.0
H983 H 0.66027 0.86124 0.5402 0.0
H984 H 0.61864 0.8451 0.50067 0.0
H985 H 0.61847 0.82827 0.52127 0.0
N986 N 0.63759 0.82067 0.53534 0.0
N987 N 0.64734 0.82552 0.56795 0.0
C988 C 0.15096 0.75868 0.52377 0.0
C989 C 0.14663 0.76183 0.50838 0.0
C990 C 0.16139 0.76972 0.53407 0.0
C991 C 0.16715 0.78409 0.52942 0.0
C992 C 0.15278 0.77609 0.5034 0.0
C993 C 0.16288 0.78709 0.51383 0.0
C994 C 0.17784 0.79619 0.54022 0.0
C995 C 0.13891 0.77215 0.57329 0.0
C996 C 0.14089 0.76512 0.58706 0.0
C997 C 0.15069 0.78222 0.56384 0.0
C998 C 0.16474 0.78548 0.56788 0.0
C999 C 0.15503 0.76852 0.59117 0.0
C1000 C 0.16686 0.77871 0.58174 0.0
C1001 C 0.17719 0.79651 0.55813 0.0
C1002 C 0.21693 0.85823 0.57489 0.0
C1003 C 0.22463 0.85754 0.58894 0.0
C1004 C 0.20819 0.84613 0.56501 0.0
C1005 C 0.20723 0.83316 0.56874 0.0
C1006 C 0.22334 0.84444 0.59295 0.0
C1007 C 0.21468 0.83235 0.58295 0.0
C1008 C 0.19784 0.82025 0.55845 0.0
C1009 C 0.23202 0.85257 0.52263 0.0
C1010 C 0.22612 0.85566 0.50848 0.0
C1011 C 0.22311 0.84101 0.53322 0.0
C1012 C 0.20813 0.83259 0.52997 0.0
C1013 C 0.21116 0.84723 0.50533 0.0
C1014 C 0.2023 0.83584 0.51593 0.0
C1015 C 0.19826 0.82007 0.54051 0.0
H1016 H 0.14635 0.7477 0.52775 0.0
H1017 H 0.16488 0.76699 0.54561 0.0
H1018 H 0.14946 0.77874 0.49162 0.0
H1019 H 0.16716 0.79801 0.5098 0.0
H1020 H 0.12827 0.77014 0.57002 0.0
H1021 H 0.14886 0.78762 0.55348 0.0
H1022 H 0.15695 0.76328 0.60163 0.0
H1023 H 0.17766 0.78122 0.58516 0.0
H1024 H 0.21743 0.86808 0.57173 0.0
H1025 H 0.20208 0.8469 0.55454 0.0
H1026 H 0.22915 0.8436 0.60371 0.0
H1027 H 0.2139 0.82238 0.58622 0.0
H1028 H 0.24355 0.85884 0.52523 0.0
H1029 H 0.22793 0.83855 0.54375 0.0
H1030 H 0.20629 0.84947 0.49465 0.0
H1031 H 0.1908 0.82955 0.51315 0.0
N1032 N 0.18831 0.80803 0.53223 0.0
N1033 N 0.18733 0.80843 0.56656 0.0
C1034 C 0.23313 0.37147 0.51522 0.0
C1035 C 0.22779 0.36107 0.50228 0.0
C1036 C 0.22363 0.37264 0.52605 0.0
C1037 C 0.20861 0.36349 0.52408 0.0
C1038 C 0.21271 0.35163 0.5008 0.0
C1039 C 0.20324 0.35296 0.51144 0.0
C1040 C 0.19841 0.36545 0.53431 0.0
C1041 C 0.21676 0.34649 0.56907 0.0
C1042 C 0.2254 0.35554 0.58237 0.0
C1043 C 0.20812 0.34982 0.55926 0.0
C1044 C 0.20799 0.36232 0.56244 0.0
C1045 C 0.22507 0.36795 0.5857 0.0
C1046 C 0.21636 0.37124 0.57589 0.0
C1047 C 0.19863 0.3657 0.55223 0.0
C1048 C 0.14328 0.36371 0.56816 0.0
C1049 C 0.14767 0.37197 0.58303 0.0
C1050 C 0.15342 0.363 0.55809 0.0
C1051 C 0.16825 0.371 0.56231 0.0
C1052 C 0.16238 0.37965 0.58759 0.0
C1053 C 0.1726 0.37924 0.57725 0.0
C1054 C 0.17909 0.36992 0.55206 0.0
C1055 C 0.15747 0.38491 0.51514 0.0
C1056 C 0.14871 0.37427 0.50327 0.0
C1057 C 0.16737 0.38353 0.52527 0.0
C1058 C 0.16871 0.37154 0.5235 0.0
C1059 C 0.15026 0.36243 0.50138 0.0
C1060 C 0.16027 0.36116 0.51127 0.0
C1061 C 0.17895 0.36968 0.53407 0.0
H1062 H 0.24463 0.37907 0.51661 0.0
H1063 H 0.22799 0.38099 0.53557 0.0
H1064 H 0.20818 0.34327 0.49129 0.0
H1065 H 0.19168 0.34578 0.50976 0.0
H1066 H 0.21645 0.33667 0.5664 0.0
H1067 H 0.20138 0.3425 0.54932 0.0
H1068 H 0.23167 0.37521 0.59575 0.0
H1069 H 0.2163 0.38086 0.57867 0.0
H1070 H 0.13192 0.35741 0.56467 0.0
H1071 H 0.14955 0.35587 0.54727 0.0
H1072 H 0.16594 0.38595 0.59914 0.0
H1073 H 0.18391 0.38528 0.58099 0.0
H1074 H 0.15648 0.39415 0.51679 0.0
H1075 H 0.17396 0.39177 0.53446 0.0
H1076 H 0.14377 0.35418 0.49215 0.0
H1077 H 0.16122 0.3519 0.50961 0.0
N1078 N 0.18855 0.36737 0.52595 0.0
N1079 N 0.18902 0.36802 0.56042 0.0
H1080 H 0.00872 0.3829 0.05701 0.0
H1081 H 0.01088 0.39719 0.08182 0.0
H1082 H 0.96432 0.37426 0.08591 0.0
H1083 H 0.96211 0.36036 0.06069 0.0
H1084 H 0.97366 0.40064 0.08796 0.0
H1085 H 0.98708 0.37062 0.11553 0.0
H1086 H 0.00043 0.35829 0.11994 0.0
H1087 H 0.04039 0.39866 0.12395 0.0
H1088 H 0.0273 0.41124 0.11933 0.0
H1089 H 0.99426 0.43386 0.17893 0.0
H1090 H 0.99067 0.41515 0.15907 0.0
H1091 H 0.00069 0.44415 0.11717 0.0
H1092 H 0.00358 0.4626 0.13671 0.0
H1093 H 0.00733 0.41221 0.13674 0.0
H1094 H 0.97991 0.42702 0.08352 0.0
H1095 H 0.96451 0.43735 0.08088 0.0
H1096 H 0.94856 0.42332 0.13132 0.0
H1097 H 0.96369 0.41272 0.13418 0.0
C1098 C 0.99895 0.38076 0.06335 0.0
C1099 C 0.98524 0.37056 0.05683 0.0
C1100 C 0.00019 0.3889 0.07761 0.0
C1101 C 0.98776 0.38677 0.08587 0.0
C1102 C 0.97408 0.37617 0.07975 0.0
C1103 C 0.97282 0.3682 0.06534 0.0
C1104 C 0.98896 0.39634 0.09996 0.0
C1105 C 0.98097 0.40307 0.09865 0.0
C1106 C 0.9983 0.39939 0.11413 0.0
C1107 C 0.00622 0.39187 0.11695 0.0
C1108 C 0.99873 0.37687 0.11723 0.0
C1109 C 0.00625 0.36984 0.11979 0.0
C1110 C 0.02125 0.37769 0.12219 0.0
C1111 C 0.02876 0.39259 0.12208 0.0
C1112 C 0.0213 0.39968 0.11951 0.0
C1113 C 0.9956 0.43622 0.16547 0.0
C1114 C 0.99913 0.44974 0.15944 0.0
C1115 C 0.99368 0.42555 0.15416 0.0
C1116 C 0.99522 0.42818 0.13661 0.0
C1117 C 0.99922 0.4418 0.13063 0.0
C1118 C 0.00104 0.45241 0.14188 0.0
C1119 C 0.99228 0.41666 0.12443 0.0
C1120 C 0.99994 0.40963 0.12609 0.0
C1121 C 0.98234 0.413 0.1108 0.0
C1122 C 0.97304 0.41919 0.10911 0.0
C1123 C 0.97307 0.42608 0.09402 0.0
C1124 C 0.96439 0.43199 0.09249 0.0
C1125 C 0.95559 0.43103 0.10594 0.0
C1126 C 0.95541 0.4241 0.12093 0.0
C1127 C 0.96405 0.41815 0.12252 0.0
H1128 H 0.9489 0.43563 0.10474 0.0
H1129 H 0.02705 0.37222 0.12416 0.0
H1130 H 0.63208 0.62727 0.0625 0.0
H1131 H 0.62118 0.61323 0.08818 0.0
H1132 H 0.64225 0.58969 0.07896 0.0
H1133 H 0.65274 0.60333 0.05302 0.0
H1134 H 0.61523 0.57204 0.08436 0.0
H1135 H 0.65187 0.61405 0.11287 0.0
H1136 H 0.6662 0.63967 0.11998 0.0
H1137 H 0.62782 0.63794 0.13727 0.0
H1138 H 0.61323 0.61233 0.13005 0.0
H1139 H 0.59186 0.53156 0.15951 0.0
H1140 H 0.60878 0.55021 0.14012 0.0
H1141 H 0.58349 0.57015 0.14202 0.0
H1142 H 0.56661 0.55162 0.16158 0.0
H1143 H 0.61378 0.58997 0.1416 0.0
H1144 H 0.57728 0.54844 0.11088 0.0
H1145 H 0.5631 0.52278 0.10395 0.0
H1146 H 0.60211 0.52394 0.0909 0.0
H1147 H 0.61655 0.54959 0.09801 0.0
C1148 C 0.63457 0.61926 0.06611 0.0
C1149 C 0.64317 0.61632 0.05567 0.0
C1150 C 0.62839 0.61128 0.08085 0.0
C1151 C 0.63093 0.60042 0.08558 0.0
C1152 C 0.64006 0.59795 0.07554 0.0
C1153 C 0.64606 0.60577 0.06072 0.0
C1154 C 0.6231 0.59077 0.10004 0.0
C1155 C 0.6152 0.57601 0.09695 0.0
C1156 C 0.62269 0.5959 0.11639 0.0
C1157 C 0.63144 0.61129 0.12077 0.0
C1158 C 0.64647 0.61915 0.11806 0.0
C1159 C 0.65464 0.63367 0.12214 0.0
C1160 C 0.64792 0.64043 0.12903 0.0
C1161 C 0.63301 0.63268 0.13191 0.0
C1162 C 0.62479 0.61817 0.12785 0.0
C1163 C 0.59009 0.54009 0.1561 0.0
C1164 C 0.57785 0.54007 0.16191 0.0
C1165 C 0.59972 0.55069 0.14497 0.0
C1166 C 0.59728 0.56145 0.13953 0.0
C1167 C 0.58554 0.56192 0.14607 0.0
C1168 C 0.57586 0.55128 0.15711 0.0
C1169 C 0.60614 0.57139 0.12583 0.0
C1170 C 0.61408 0.58612 0.12903 0.0
C1171 C 0.60667 0.56628 0.10956 0.0
C1172 C 0.598 0.55089 0.10516 0.0
C1173 C 0.58284 0.5432 0.10667 0.0
C1174 C 0.57476 0.52866 0.10268 0.0
C1175 C 0.58171 0.52172 0.09703 0.0
C1176 C 0.59675 0.52932 0.09531 0.0
C1177 C 0.60489 0.54386 0.0993 0.0
H1178 H 0.57543 0.51047 0.09395 0.0
H1179 H 0.65426 0.65167 0.13218 0.0
H1180 H 0.36638 0.98615 0.08124 0.0
H1181 H 0.38557 0.99541 0.10283 0.0
H1182 H 0.41113 0.03341 0.07303 0.0
H1183 H 0.39167 0.02437 0.05152 0.0
H1184 H 0.42382 0.01518 0.08347 0.0
H1185 H 0.40193 0.04014 0.1056 0.0
H1186 H 0.38158 0.04222 0.1155 0.0
H1187 H 0.373 0.01191 0.15512 0.0
H1188 H 0.39317 0.00948 0.14529 0.0
H1189 H 0.48032 0.03914 0.14363 0.0
H1190 H 0.46306 0.03925 0.12375 0.0
H1191 H 0.42789 0.01078 0.15648 0.0
H1192 H 0.44514 0.01166 0.17719 0.0
H1193 H 0.42138 0.02782 0.14327 0.0
H1194 H 0.43905 0.99937 0.12019 0.0
H1195 H 0.45741 0.99421 0.11034 0.0
H1196 H 0.47165 0.02721 0.07278 0.0
H1197 H 0.45348 0.03268 0.08256 0.0
C1198 C 0.37597 0.9966 0.07944 0.0
C1199 C 0.37757 0.00455 0.06472 0.0
C1200 C 0.38689 0.00188 0.09178 0.0
C1201 C 0.39971 0.01507 0.08949 0.0
C1202 C 0.40124 0.02323 0.07502 0.0
C1203 C 0.39013 0.01809 0.06281 0.0
C1204 C 0.41189 0.01957 0.10157 0.0
C1205 C 0.42352 0.01831 0.09645 0.0
C1206 C 0.41111 0.02307 0.11862 0.0
C1207 C 0.399 0.02455 0.12461 0.0
C1208 C 0.39563 0.03382 0.11633 0.0
C1209 C 0.38414 0.03508 0.12195 0.0
C1210 C 0.37598 0.02718 0.13591 0.0
C1211 C 0.37932 0.01802 0.1443 0.0
C1212 C 0.3908 0.01671 0.13872 0.0
C1213 C 0.46896 0.03317 0.14688 0.0
C1214 C 0.4642 0.02525 0.16205 0.0
C1215 C 0.45904 0.03307 0.13531 0.0
C1216 C 0.4441 0.02472 0.13834 0.0
C1217 C 0.43934 0.01723 0.15372 0.0
C1218 C 0.44926 0.01757 0.16548 0.0
C1219 C 0.43337 0.02328 0.12528 0.0
C1220 C 0.42192 0.025 0.13022 0.0
C1221 C 0.4341 0.01981 0.10813 0.0
C1222 C 0.44504 0.01655 0.10224 0.0
C1223 C 0.44618 0.0056 0.10991 0.0
C1224 C 0.45653 0.00261 0.10433 0.0
C1225 C 0.46572 0.01041 0.09098 0.0
C1226 C 0.46454 0.0212 0.08315 0.0
C1227 C 0.45422 0.02425 0.0887 0.0
H1228 H 0.47373 0.00807 0.08667 0.0
H1229 H 0.36709 0.02817 0.14024 0.0
H1230 H 0.37361 0.00652 0.9738 0.0
H1231 H 0.38614 0.00675 0.94802 0.0
H1232 H 0.36941 0.9617 0.95385 0.0
H1233 H 0.35727 0.9615 0.9799 0.0
H1234 H 0.39684 0.97477 0.94815 0.0
H1235 H 0.35724 0.9757 0.92199 0.0
H1236 H 0.34076 0.9845 0.91672 0.0
H1237 H 0.37666 0.02507 0.90116 0.0
H1238 H 0.39339 0.01657 0.90656 0.0
H1239 H 0.41923 0.96328 0.86925 0.0
H1240 H 0.40297 0.96285 0.89093 0.0
H1241 H 0.4259 0.00884 0.8905 0.0
H1242 H 0.44217 0.00935 0.86866 0.0
H1243 H 0.3951 0.99539 0.89266 0.0
H1244 H 0.43453 0.99423 0.91986 0.0
H1245 H 0.45069 0.98501 0.92475 0.0
H1246 H 0.41419 0.94405 0.93807 0.0
H1247 H 0.39778 0.95299 0.933 0.0
C1248 C 0.37246 0.99663 0.96948 0.0
C1249 C 0.3645 0.984 0.97894 0.0
C1250 C 0.37958 0.99676 0.95468 0.0
C1251 C 0.37864 0.98421 0.94889 0.0
C1252 C 0.37034 0.97152 0.95807 0.0
C1253 C 0.36338 0.97142 0.97296 0.0
C1254 C 0.38706 0.98445 0.93395 0.0
C1255 C 0.39623 0.97906 0.93596 0.0
C1256 C 0.38662 0.9904 0.91812 0.0
C1257 C 0.37658 0.99554 0.91484 0.0
C1258 C 0.36163 0.98653 0.91758 0.0
C1259 C 0.35224 0.99146 0.91454 0.0
C1260 C 0.35766 0.00535 0.90865 0.0
C1261 C 0.37248 0.01432 0.90575 0.0
C1262 C 0.38192 0.00945 0.90877 0.0
C1263 C 0.42064 0.97329 0.87352 0.0
C1264 C 0.43202 0.98636 0.86732 0.0
C1265 C 0.41139 0.97303 0.88596 0.0
C1266 C 0.41333 0.98582 0.89239 0.0
C1267 C 0.42425 0.99886 0.88569 0.0
C1268 C 0.43358 0.99914 0.87333 0.0
C1269 C 0.40463 0.98556 0.90694 0.0
C1270 C 0.39555 0.99102 0.90487 0.0
C1271 C 0.40505 0.9796 0.92271 0.0
C1272 C 0.41491 0.97424 0.92588 0.0
C1273 C 0.42994 0.98323 0.92369 0.0
C1274 C 0.43914 0.97806 0.92652 0.0
C1275 C 0.43346 0.96394 0.93167 0.0
C1276 C 0.41857 0.95498 0.93405 0.0
C1277 C 0.40931 0.96009 0.93122 0.0
H1278 H 0.44061 0.95996 0.93386 0.0
H1279 H 0.35037 0.00914 0.90631 0.0
H1280 H 0.97524 0.37206 0.96116 0.0
H1281 H 0.98192 0.38797 0.93692 0.0
H1282 H 0.02713 0.4049 0.9478 0.0
H1283 H 0.02049 0.38885 0.97239 0.0
H1284 H 0.02074 0.42601 0.94171 0.0
H1285 H 0.01295 0.38432 0.91394 0.0
H1286 H 0.00037 0.3587 0.90696 0.0
H1287 H 0.96384 0.36005 0.88791 0.0
H1288 H 0.9761 0.38565 0.895 0.0
H1289 H 0.03231 0.46683 0.86567 0.0
H1290 H 0.03364 0.45045 0.88579 0.0
H1291 H 0.98702 0.42418 0.88582 0.0
H1292 H 0.98563 0.44027 0.8655 0.0
H1293 H 0.99932 0.40813 0.88453 0.0
H1294 H 0.00541 0.44836 0.91726 0.0
H1295 H 0.0175 0.47385 0.92489 0.0
H1296 H 0.05714 0.47498 0.93483 0.0
H1297 H 0.04531 0.44953 0.92703 0.0
C1298 C 0.98663 0.37909 0.95843 0.0
C1299 C 0.99734 0.37918 0.96875 0.0
C1300 C 0.99042 0.38813 0.94446 0.0
C1301 C 0.00501 0.39749 0.94042 0.0
C1302 C 0.0158 0.39768 0.95066 0.0
C1303 C 0.01199 0.3885 0.96466 0.0
C1304 C 0.0087 0.4074 0.92588 0.0
C1305 C 0.0164 0.42214 0.92908 0.0
C1306 C 0.00286 0.40232 0.90947 0.0
C1307 C 0.99544 0.38692 0.90508 0.0
C1308 C 0.00219 0.37914 0.90837 0.0
C1309 C 0.99512 0.36462 0.90438 0.0
C1310 C 0.98131 0.35775 0.89702 0.0
C1311 C 0.97454 0.36539 0.89361 0.0
C1312 C 0.98156 0.37992 0.89758 0.0
C1313 C 0.02236 0.45745 0.8698 0.0
C1314 C 0.00886 0.45489 0.8641 0.0
C1315 C 0.02314 0.44816 0.88138 0.0
C1316 C 0.01042 0.43617 0.88742 0.0
C1317 C 0.99697 0.43338 0.88134 0.0
C1318 C 0.99619 0.44266 0.86985 0.0
C1319 C 0.01091 0.42668 0.90053 0.0
C1320 C 0.00399 0.41202 0.89704 0.0
C1321 C 0.01745 0.43183 0.91666 0.0
C1322 C 0.02454 0.44711 0.92135 0.0
C1323 C 0.01674 0.45409 0.92093 0.0
C1324 C 0.02353 0.46851 0.92531 0.0
C1325 C 0.03809 0.47604 0.93028 0.0
C1326 C 0.04587 0.46915 0.93093 0.0
C1327 C 0.03913 0.45472 0.92654 0.0
H1328 H 0.04333 0.48721 0.93368 0.0
H1329 H 0.97585 0.3465 0.89394 0.0
H1330 H 0.62378 0.60684 0.96359 0.0
H1331 H 0.60542 0.60031 0.94171 0.0
H1332 H 0.60069 0.63544 0.95637 0.0
H1333 H 0.61918 0.6421 0.97866 0.0
H1334 H 0.57429 0.61046 0.95082 0.0
H1335 H 0.61798 0.63845 0.92068 0.0
H1336 H 0.64295 0.64684 0.9118 0.0
H1337 H 0.62899 0.60557 0.89075 0.0
H1338 H 0.60397 0.59686 0.89973 0.0
H1339 H 0.52953 0.59154 0.87462 0.0
H1340 H 0.54853 0.60579 0.89565 0.0
H1341 H 0.56218 0.57531 0.89452 0.0
H1342 H 0.54309 0.56085 0.87405 0.0
H1343 H 0.58505 0.60347 0.89175 0.0
H1344 H 0.54228 0.57501 0.92641 0.0
H1345 H 0.5174 0.56672 0.9356 0.0
H1346 H 0.52995 0.60978 0.94779 0.0
H1347 H 0.55488 0.61834 0.93845 0.0
C1348 C 0.6189 0.61325 0.96224 0.0
C1349 C 0.62304 0.62506 0.97286 0.0
C1350 C 0.60842 0.60951 0.94963 0.0
C1351 C 0.60186 0.61753 0.94722 0.0
C1352 C 0.6057 0.62918 0.95797 0.0
C1353 C 0.61628 0.63297 0.97066 0.0
C1354 C 0.59092 0.61341 0.93349 0.0
C1355 C 0.5767 0.60926 0.9378 0.0
C1356 C 0.59406 0.61178 0.91653 0.0
C1357 C 0.60909 0.61698 0.91096 0.0
C1358 C 0.62025 0.63113 0.91425 0.0
C1359 C 0.63441 0.63595 0.90919 0.0
C1360 C 0.63756 0.62674 0.90073 0.0
C1361 C 0.62654 0.6127 0.8973 0.0
C1362 C 0.61235 0.60782 0.90235 0.0
C1363 C 0.53649 0.58781 0.87897 0.0
C1364 C 0.53482 0.57508 0.87252 0.0
C1365 C 0.54737 0.596 0.89092 0.0
C1366 C 0.55677 0.59161 0.89658 0.0
C1367 C 0.55513 0.57895 0.89018 0.0
C1368 C 0.54423 0.57073 0.87839 0.0
C1369 C 0.56836 0.60002 0.90924 0.0
C1370 C 0.58272 0.605 0.90467 0.0
C1371 C 0.56534 0.60248 0.92589 0.0
C1372 C 0.55038 0.59733 0.93152 0.0
C1373 C 0.5397 0.58272 0.9309 0.0
C1374 C 0.5256 0.57797 0.93617 0.0
C1375 C 0.52208 0.58773 0.94221 0.0
C1376 C 0.53268 0.60224 0.94306 0.0
C1377 C 0.54679 0.60705 0.93779 0.0
H1378 H 0.51116 0.58403 0.94629 0.0
H1379 H 0.64853 0.63049 0.89683 0.0
H1380 H 0.04499 0.64534 0.96046 0.0
H1381 H 0.04095 0.63123 0.93483 0.0
H1382 H 0.99599 0.61866 0.93423 0.0
H1383 H 0.99992 0.63279 0.95989 0.0
H1384 H 0.99978 0.59585 0.93291 0.0
H1385 H 0.01774 0.64012 0.90376 0.0
H1386 H 0.0348 0.66561 0.89785 0.0
H1387 H 0.06841 0.657 0.88771 0.0
H1388 H 0.05161 0.63148 0.8938 0.0
H1389 H 0.9848 0.55412 0.85883 0.0
H1390 H 0.98711 0.57262 0.87815 0.0
H1391 H 0.03344 0.59149 0.87975 0.0
H1392 H 0.0312 0.5732 0.86016 0.0
H1393 H 0.02735 0.61182 0.87915 0.0
H1394 H 0.01106 0.5688 0.91131 0.0
H1395 H 0.99492 0.54333 0.9182 0.0
H1396 H 0.95927 0.54967 0.9239 0.0
H1397 H 0.97517 0.57516 0.91681 0.0
C1398 C 0.03429 0.63979 0.95473 0.0
C1399 C 0.02276 0.64013 0.96229 0.0
C1400 C 0.03202 0.63177 0.94003 0.0
C1401 C 0.01818 0.62392 0.93261 0.0
C1402 C 0.00676 0.62466 0.93976 0.0
C1403 C 0.00905 0.63278 0.95439 0.0
C1404 C 0.0154 0.61397 0.91838 0.0
C1405 C 0.00557 0.59937 0.921 0.0
C1406 C 0.0233 0.61854 0.90308 0.0
C1407 C 0.03343 0.63389 0.89937 0.0
C1408 C 0.0288 0.64367 0.9004 0.0
C1409 C 0.03842 0.65813 0.89699 0.0
C1410 C 0.05269 0.66293 0.89244 0.0
C1411 C 0.05736 0.65327 0.89125 0.0
C1412 C 0.04778 0.6388 0.89466 0.0
C1413 C 0.99547 0.56226 0.86326 0.0
C1414 C 0.00781 0.56217 0.8581 0.0
C1415 C 0.99679 0.57282 0.8743 0.0
C1416 C 0.01043 0.58332 0.88065 0.0
C1417 C 0.0228 0.58352 0.87503 0.0
C1418 C 0.02151 0.57306 0.86384 0.0
C1419 C 0.01179 0.59368 0.89374 0.0
C1420 C 0.0214 0.60833 0.89096 0.0
C1421 C 0.00382 0.58916 0.90902 0.0
C1422 C 0.99426 0.57385 0.91334 0.0
C1423 C 0.99975 0.56474 0.91391 0.0
C1424 C 0.99066 0.5503 0.91787 0.0
C1425 C 0.97607 0.54487 0.92144 0.0
C1426 C 0.97057 0.55388 0.9211 0.0
C1427 C 0.97961 0.56833 0.91712 0.0
H1428 H 0.96905 0.53369 0.9245 0.0
H1429 H 0.06012 0.67413 0.8898 0.0
H1430 H 0.35885 0.37733 0.96038 0.0
H1431 H 0.36952 0.39196 0.93498 0.0
H1432 H 0.37941 0.42959 0.96335 0.0
H1433 H 0.36841 0.41505 0.9885 0.0
H1434 H 0.36962 0.43066 0.93351 0.0
H1435 H 0.40529 0.42043 0.95436 0.0
H1436 H 0.41438 0.40495 0.96325 0.0
H1437 H 0.4046 0.38561 0.91378 0.0
H1438 H 0.39528 0.40087 0.90466 0.0
H1439 H 0.42827 0.4868 0.88887 0.0
H1440 H 0.41258 0.46868 0.90933 0.0
H1441 H 0.40078 0.4358 0.87182 0.0
H1442 H 0.41609 0.45392 0.85096 0.0
H1443 H 0.4094 0.43024 0.90331 0.0
H1444 H 0.3764 0.44329 0.88198 0.0
H1445 H 0.36851 0.45987 0.87379 0.0
H1446 H 0.37453 0.47509 0.92516 0.0
H1447 H 0.38267 0.45874 0.93362 0.0
C1448 C 0.36326 0.38871 0.96117 0.0
C1449 C 0.36281 0.39502 0.97649 0.0
C1450 C 0.3694 0.39707 0.94666 0.0
C1451 C 0.37544 0.41192 0.94729 0.0
C1452 C 0.37481 0.41817 0.96251 0.0
C1453 C 0.36854 0.40983 0.97693 0.0
C1454 C 0.38262 0.42109 0.93226 0.0
C1455 C 0.37838 0.43062 0.927 0.0
C1456 C 0.39382 0.42083 0.92344 0.0
C1457 C 0.39943 0.41166 0.9289 0.0
C1458 C 0.40497 0.4128 0.94542 0.0
C1459 C 0.41018 0.40408 0.95049 0.0
C1460 C 0.41002 0.39427 0.9391 0.0
C1461 C 0.40469 0.39319 0.9226 0.0
C1462 C 0.39945 0.40187 0.91747 0.0
C1463 C 0.42211 0.47577 0.88478 0.0
C1464 C 0.42345 0.47187 0.86819 0.0
C1465 C 0.41321 0.4654 0.89655 0.0
C1466 C 0.40548 0.45092 0.89205 0.0
C1467 C 0.40669 0.44694 0.87554 0.0
C1468 C 0.4155 0.45732 0.86367 0.0
C1469 C 0.39659 0.43996 0.90488 0.0
C1470 C 0.4005 0.43012 0.90971 0.0
C1471 C 0.38522 0.44006 0.91343 0.0
C1472 C 0.38025 0.44986 0.90841 0.0
C1473 C 0.37615 0.45025 0.89151 0.0
C1474 C 0.37161 0.45959 0.88682 0.0
C1475 C 0.37104 0.46855 0.89894 0.0
C1476 C 0.37498 0.46815 0.91578 0.0
C1477 C 0.37954 0.45883 0.92054 0.0
H1478 H 0.36752 0.47578 0.89528 0.0
H1479 H 0.41406 0.38753 0.94305 0.0
H1480 H 0.61964 0.97721 0.96151 0.0
H1481 H 0.60079 0.96693 0.93917 0.0
H1482 H 0.58182 0.98983 0.9595 0.0
H1483 H 0.60071 0.00036 0.98134 0.0
H1484 H 0.56125 0.96021 0.94899 0.0
H1485 H 0.6041 0.00508 0.92972 0.0
H1486 H 0.63008 0.01985 0.92299 0.0
H1487 H 0.62562 0.98811 0.88759 0.0
H1488 H 0.59963 0.97306 0.89432 0.0
H1489 H 0.5243 0.97936 0.89369 0.0
H1490 H 0.5401 0.97705 0.91378 0.0
H1491 H 0.55636 0.96279 0.87352 0.0
H1492 H 0.54106 0.96587 0.85301 0.0
H1493 H 0.57792 0.98143 0.89183 0.0
H1494 H 0.53399 0.93947 0.90533 0.0
H1495 H 0.50802 0.92408 0.91172 0.0
H1496 H 0.51392 0.94798 0.95727 0.0
H1497 H 0.53989 0.96367 0.95104 0.0
C1498 C 0.61126 0.97979 0.96134 0.0
C1499 C 0.61162 0.98961 0.97303 0.0
C1500 C 0.60055 0.97395 0.94861 0.0
C1501 C 0.58995 0.97765 0.94773 0.0
C1502 C 0.58987 0.9868 0.96003 0.0
C1503 C 0.60069 0.99285 0.97243 0.0
C1504 C 0.57969 0.97327 0.93326 0.0
C1505 C 0.56482 0.96474 0.93643 0.0
C1506 C 0.58443 0.97879 0.91677 0.0
C1507 C 0.6 0.98787 0.91269 0.0
C1508 C 0.60869 0.0012 0.92062 0.0
C1509 C 0.62341 0.00963 0.91679 0.0
C1510 C 0.62951 0.0049 0.90492 0.0
C1511 C 0.62089 0.99174 0.89682 0.0
C1512 C 0.60617 0.98326 0.90064 0.0
C1513 C 0.53128 0.97582 0.88902 0.0
C1514 C 0.53147 0.97293 0.87167 0.0
C1515 C 0.54016 0.97425 0.90062 0.0
C1516 C 0.54925 0.96947 0.89527 0.0
C1517 C 0.54935 0.96638 0.87799 0.0
C1518 C 0.54053 0.96806 0.8663 0.0
C1519 C 0.55931 0.96877 0.90766 0.0
C1520 C 0.57419 0.97641 0.90414 0.0
C1521 C 0.55454 0.96222 0.92377 0.0
C1522 C 0.53891 0.95279 0.92767 0.0
C1523 C 0.52974 0.94151 0.91666 0.0
C1524 C 0.51502 0.93272 0.92026 0.0
C1525 C 0.50932 0.93506 0.93489 0.0
C1526 C 0.51835 0.94618 0.94596 0.0
C1527 C 0.53308 0.95501 0.94241 0.0
H1528 H 0.49792 0.92825 0.93765 0.0
H1529 H 0.6409 0.01145 0.90196 0.0
H1530 H 0.63532 0.0368 0.04949 0.0
H1531 H 0.62518 0.03709 0.07673 0.0
H1532 H 0.62484 0.99912 0.09183 0.0
H1533 H 0.63464 0.99849 0.06412 0.0
H1534 H 0.60003 0.99603 0.0988 0.0
H1535 H 0.64818 0.03228 0.11103 0.0
H1536 H 0.67214 0.05392 0.10659 0.0
H1537 H 0.65268 0.07936 0.10437 0.0
H1538 H 0.62857 0.05786 0.10855 0.0
H1539 H 0.57334 0.00534 0.17865 0.0
H1540 H 0.59008 0.00432 0.15887 0.0
H1541 H 0.58743 0.03432 0.12599 0.0
H1542 H 0.57016 0.03488 0.14508 0.0
H1543 H 0.61664 0.03997 0.13276 0.0
H1544 H 0.5681 0.00178 0.11569 0.0
H1545 H 0.54459 0.97978 0.12097 0.0
H1546 H 0.56633 0.95766 0.13413 0.0
H1547 H 0.58999 0.97961 0.12914 0.0
C1548 C 0.6333 0.02859 0.05864 0.0
C1549 C 0.63578 0.01759 0.05457 0.0
C1550 C 0.62758 0.02884 0.07433 0.0
C1551 C 0.62443 0.01826 0.0865 0.0
C1552 C 0.62723 0.00744 0.08268 0.0
C1553 C 0.63287 0.00711 0.06685 0.0
C1554 C 0.6171 0.01798 0.10249 0.0
C1555 C 0.60389 0.00555 0.10647 0.0
C1556 C 0.62204 0.0304 0.11253 0.0
C1557 C 0.63653 0.04342 0.11003 0.0
C1558 C 0.64899 0.04247 0.10949 0.0
C1559 C 0.66261 0.05472 0.10703 0.0
C1560 C 0.66393 0.068 0.10518 0.0
C1561 C 0.65164 0.06907 0.10581 0.0
C1562 C 0.63799 0.05685 0.10826 0.0
C1563 C 0.57619 0.01164 0.16715 0.0
C1564 C 0.5703 0.02017 0.16349 0.0
C1565 C 0.58587 0.01112 0.15595 0.0
C1566 C 0.58998 0.01927 0.14104 0.0
C1567 C 0.58447 0.02806 0.13755 0.0
C1568 C 0.57463 0.02841 0.14856 0.0
C1569 C 0.59951 0.01824 0.12854 0.0
C1570 C 0.61306 0.03041 0.12528 0.0
C1571 C 0.59502 0.00555 0.11935 0.0
C1572 C 0.58081 0.99237 0.12227 0.0
C1573 C 0.56787 0.99226 0.11987 0.0
C1574 C 0.55452 0.9798 0.12277 0.0
C1575 C 0.55397 0.96734 0.12794 0.0
C1576 C 0.56677 0.96732 0.13016 0.0
C1577 C 0.58015 0.97977 0.1273 0.0
H1578 H 0.54362 0.9577 0.13018 0.0
H1579 H 0.67448 0.07747 0.10327 0.0
H1580 H 0.99163 0.63184 0.05787 0.0
H1581 H 0.98285 0.6146 0.08147 0.0
H1582 H 0.00826 0.59758 0.06321 0.0
H1583 H 0.01732 0.61491 0.04009 0.0
H1584 H 0.97792 0.57649 0.07364 0.0
H1585 H 0.02284 0.62015 0.09204 0.0
H1586 H 0.03717 0.646 0.09796 0.0
H1587 H 0.00477 0.64159 0.13275 0.0
H1588 H 0.99014 0.61572 0.12683 0.0
H1589 H 0.99787 0.5424 0.13172 0.0
H1590 H 0.99544 0.55724 0.11069 0.0
H1591 H 0.98087 0.57449 0.14942 0.0
H1592 H 0.98417 0.56022 0.17089 0.0
H1593 H 0.99939 0.59513 0.13062 0.0
H1594 H 0.95724 0.55106 0.11798 0.0
H1595 H 0.94188 0.52523 0.11247 0.0
H1596 H 0.96616 0.52977 0.06759 0.0
H1597 H 0.98182 0.5556 0.07295 0.0
C1598 C 0.99517 0.62429 0.05883 0.0
C1599 C 0.00521 0.62474 0.04725 0.0
C1600 C 0.99018 0.61449 0.07227 0.0
C1601 C 0.99492 0.60485 0.07401 0.0
C1602 C 0.00444 0.60491 0.06202 0.0
C1603 C 0.00966 0.61486 0.04889 0.0
C1604 C 0.99093 0.59526 0.08883 0.0
C1605 C 0.98252 0.58049 0.08615 0.0
C1606 C 0.9965 0.60056 0.10524 0.0
C1607 C 0.00532 0.61607 0.10882 0.0
C1608 C 0.01871 0.62472 0.10082 0.0
C1609 C 0.0269 0.63936 0.1042 0.0
C1610 C 0.02186 0.64544 0.11567 0.0
C1611 C 0.00864 0.63688 0.12383 0.0
C1612 C 0.0004 0.62223 0.12047 0.0
C1613 C 0.99426 0.54942 0.13587 0.0
C1614 C 0.99135 0.55019 0.15308 0.0
C1615 C 0.99261 0.55774 0.12372 0.0
C1616 C 0.98769 0.56681 0.12836 0.0
C1617 C 0.98458 0.56749 0.14549 0.0
C1618 C 0.98637 0.55925 0.15774 0.0
C1619 C 0.9868 0.57618 0.11536 0.0
C1620 C 0.99433 0.59097 0.11833 0.0
C1621 C 0.98017 0.57085 0.09928 0.0
C1622 C 0.97076 0.55529 0.09592 0.0
C1623 C 0.95937 0.54655 0.10699 0.0
C1624 C 0.9506 0.5319 0.10388 0.0
C1625 C 0.95305 0.52586 0.08969 0.0
C1626 C 0.96427 0.53447 0.07857 0.0
C1627 C 0.97308 0.54912 0.08162 0.0
H1628 H 0.94624 0.51452 0.08731 0.0
H1629 H 0.02822 0.65678 0.11828 0.0
H1630 H 0.36199 0.37506 0.07791 0.0
H1631 H 0.38079 0.3817 0.09953 0.0
H1632 H 0.40966 0.38284 0.06123 0.0
H1633 H 0.39042 0.37519 0.03977 0.0
H1634 H 0.41551 0.37472 0.08919 0.0
H1635 H 0.40959 0.41363 0.07462 0.0
H1636 H 0.39651 0.42621 0.07006 0.0
H1637 H 0.38458 0.42067 0.12265 0.0
H1638 H 0.39744 0.40789 0.12747 0.0
H1639 H 0.48081 0.43291 0.12882 0.0
H1640 H 0.46029 0.41766 0.1099 0.0
H1641 H 0.43168 0.40254 0.15289 0.0
H1642 H 0.45223 0.4175 0.17191 0.0
H1643 H 0.42567 0.41679 0.12359 0.0
H1644 H 0.43486 0.37934 0.13717 0.0
H1645 H 0.45014 0.36889 0.13976 0.0
H1646 H 0.45883 0.37469 0.0863 0.0
H1647 H 0.44378 0.38539 0.08343 0.0
C1648 C 0.37227 0.37646 0.07421 0.0
C1649 C 0.37486 0.37477 0.0572 0.0
C1650 C 0.38304 0.38035 0.08652 0.0
C1651 C 0.39684 0.38327 0.08194 0.0
C1652 C 0.39916 0.38077 0.06509 0.0
C1653 C 0.38819 0.37642 0.05283 0.0
C1654 C 0.40903 0.38984 0.09443 0.0
C1655 C 0.41778 0.38398 0.0966 0.0
C1656 C 0.41205 0.40194 0.10419 0.0
C1657 C 0.40435 0.40967 0.10136 0.0
C1658 C 0.4041 0.41502 0.08518 0.0
C1659 C 0.39673 0.42219 0.08256 0.0
C1660 C 0.38968 0.42421 0.09605 0.0
C1661 C 0.39002 0.41908 0.11221 0.0
C1662 C 0.39735 0.41188 0.1149 0.0
C1663 C 0.47018 0.42609 0.13422 0.0
C1664 C 0.46803 0.42633 0.15176 0.0
C1665 C 0.45852 0.41738 0.12345 0.0
C1666 C 0.44454 0.40898 0.13005 0.0
C1667 C 0.44244 0.40889 0.14762 0.0
C1668 C 0.45414 0.41738 0.15844 0.0
C1669 C 0.43195 0.40157 0.11842 0.0
C1670 C 0.42324 0.40741 0.1163 0.0
C1671 C 0.42928 0.38977 0.10842 0.0
C1672 C 0.4383 0.3833 0.11012 0.0
C1673 C 0.44014 0.37852 0.12599 0.0
C1674 C 0.44874 0.37252 0.1275 0.0
C1675 C 0.45548 0.37116 0.11321 0.0
C1676 C 0.45362 0.37577 0.09736 0.0
C1677 C 0.44504 0.38179 0.09578 0.0
H1678 H 0.46213 0.36651 0.11441 0.0
H1679 H 0.38398 0.42977 0.09399 0.0
H1680 H 0.65484 0.70302 0.39757 0.0
H1681 H 0.65347 0.71507 0.42299 0.0
H1682 H 0.6231 0.72313 0.39736 0.0
H1683 H 0.62434 0.71112 0.37199 0.0
H1684 H 0.64583 0.74721 0.4126 0.0
H1685 H 0.61134 0.69822 0.42715 0.0
H1686 H 0.60329 0.67296 0.43197 0.0
H1687 H 0.63571 0.6852 0.4709 0.0
H1688 H 0.64408 0.71057 0.46615 0.0
H1689 H 0.62282 0.77291 0.47841 0.0
H1690 H 0.62301 0.75806 0.4557 0.0
H1691 H 0.6492 0.74757 0.48669 0.0
H1692 H 0.64835 0.76179 0.50999 0.0
H1693 H 0.62983 0.72477 0.46931 0.0
H1694 H 0.66437 0.77329 0.45561 0.0
H1695 H 0.67335 0.79879 0.45095 0.0
H1696 H 0.64245 0.78791 0.41049 0.0
H1697 H 0.63313 0.76232 0.41507 0.0
C1698 C 0.64779 0.70727 0.39738 0.0
C1699 C 0.63971 0.70613 0.38272 0.0
C1700 C 0.64699 0.71411 0.41194 0.0
C1701 C 0.63815 0.71995 0.41205 0.0
C1702 C 0.62999 0.7187 0.39752 0.0
C1703 C 0.63069 0.71179 0.38304 0.0
C1704 C 0.63779 0.72789 0.42705 0.0
C1705 C 0.64216 0.74227 0.42496 0.0
C1706 C 0.63349 0.72154 0.44328 0.0
C1707 C 0.62844 0.7063 0.44617 0.0
C1708 C 0.61684 0.69553 0.43664 0.0
C1709 C 0.6122 0.68119 0.43937 0.0
C1710 C 0.61901 0.67748 0.4517 0.0
C1711 C 0.63046 0.6881 0.46134 0.0
C1712 C 0.63514 0.70246 0.45864 0.0
C1713 C 0.62836 0.76722 0.48062 0.0
C1714 C 0.63562 0.76864 0.49608 0.0
C1715 C 0.62862 0.75886 0.46748 0.0
C1716 C 0.63639 0.75195 0.46933 0.0
C1717 C 0.64324 0.75291 0.48492 0.0
C1718 C 0.64286 0.76117 0.49817 0.0
C1719 C 0.63765 0.74407 0.4548 0.0
C1720 C 0.63352 0.72974 0.45697 0.0
C1721 C 0.64235 0.7505 0.43864 0.0
C1722 C 0.64797 0.76588 0.43578 0.0
C1723 C 0.65942 0.77633 0.4458 0.0
C1724 C 0.66458 0.7908 0.44316 0.0
C1725 C 0.65845 0.79496 0.43046 0.0
C1726 C 0.64717 0.78466 0.42034 0.0
C1727 C 0.64196 0.77018 0.42294 0.0
H1728 H 0.66246 0.80617 0.42844 0.0
H1729 H 0.6154 0.66637 0.4538 0.0
H1730 H 0.28038 0.92216 0.37669 0.0
H1731 H 0.26942 0.90985 0.40316 0.0
H1732 H 0.29052 0.95003 0.42993 0.0
H1733 H 0.30151 0.96261 0.40321 0.0
H1734 H 0.29225 0.92599 0.44567 0.0
H1735 H 0.25802 0.93763 0.42538 0.0
H1736 H 0.24261 0.93991 0.40396 0.0
H1737 H 0.219 0.89458 0.39595 0.0
H1738 H 0.23442 0.89204 0.41714 0.0
H1739 H 0.2472 0.88333 0.516 0.0
H1740 H 0.26088 0.90292 0.4958 0.0
H1741 H 0.2395 0.87371 0.45407 0.0
H1742 H 0.22582 0.85432 0.47406 0.0
H1743 H 0.23869 0.89718 0.44965 0.0
H1744 H 0.27504 0.88599 0.46589 0.0
H1745 H 0.29081 0.88316 0.48624 0.0
H1746 H 0.31049 0.92705 0.50123 0.0
H1747 H 0.2947 0.93008 0.48109 0.0
C1748 C 0.28274 0.92843 0.38817 0.0
C1749 C 0.2918 0.94337 0.38784 0.0
C1750 C 0.27644 0.92137 0.40328 0.0
C1751 C 0.27914 0.92905 0.41843 0.0
C1752 C 0.28833 0.94395 0.41831 0.0
C1753 C 0.29452 0.9511 0.40306 0.0
C1754 C 0.27208 0.92122 0.43419 0.0
C1755 C 0.28055 0.91995 0.44683 0.0
C1756 C 0.25684 0.91323 0.43547 0.0
C1757 C 0.24744 0.91466 0.4228 0.0
C1758 C 0.24961 0.92816 0.41897 0.0
C1759 C 0.24086 0.92949 0.40688 0.0
C1760 C 0.22985 0.9174 0.39858 0.0
C1761 C 0.22754 0.90394 0.40239 0.0
C1762 C 0.23627 0.90254 0.41446 0.0
C1763 C 0.24559 0.88112 0.50251 0.0
C1764 C 0.23538 0.86735 0.49658 0.0
C1765 C 0.25337 0.89229 0.49099 0.0
C1766 C 0.25117 0.88979 0.47341 0.0
C1767 C 0.24126 0.87594 0.46756 0.0
C1768 C 0.23345 0.86486 0.47899 0.0
C1769 C 0.2588 0.90146 0.46087 0.0
C1770 C 0.2504 0.90347 0.4488 0.0
C1771 C 0.27409 0.91004 0.46009 0.0
C1772 C 0.28357 0.90821 0.47216 0.0
C1773 C 0.28265 0.895 0.47363 0.0
C1774 C 0.2916 0.89337 0.4851 0.0
C1775 C 0.30161 0.9049 0.49507 0.0
C1776 C 0.30271 0.91811 0.49353 0.0
C1777 C 0.29377 0.9198 0.48209 0.0
H1778 H 0.30853 0.90362 0.50394 0.0
H1779 H 0.22309 0.91846 0.38922 0.0
H1780 H 0.04327 0.32935 0.41345 0.0
H1781 H 0.06215 0.34201 0.43479 0.0
H1782 H 0.08167 0.3799 0.40375 0.0
H1783 H 0.06253 0.36721 0.38218 0.0
H1784 H 0.10113 0.37191 0.41467 0.0
H1785 H 0.06775 0.38157 0.43967 0.0
H1786 H 0.04411 0.37675 0.44971 0.0
H1787 H 0.04237 0.34659 0.4859 0.0
H1788 H 0.06589 0.35105 0.47592 0.0
H1789 H 0.15267 0.39664 0.48364 0.0
H1790 H 0.135 0.39698 0.4641 0.0
H1791 H 0.10272 0.35442 0.47997 0.0
H1792 H 0.12027 0.35403 0.49934 0.0
H1793 H 0.09171 0.37238 0.47616 0.0
H1794 H 0.12164 0.35866 0.44557 0.0
H1795 H 0.14489 0.3627 0.43511 0.0
H1796 H 0.15276 0.40051 0.40915 0.0
H1797 H 0.12962 0.39679 0.41968 0.0
C1798 C 0.05146 0.34043 0.41121 0.0
C1799 C 0.05146 0.34727 0.3961 0.0
C1800 C 0.0622 0.34769 0.42349 0.0
C1801 C 0.07324 0.36193 0.42092 0.0
C1802 C 0.07318 0.36893 0.40599 0.0
C1803 C 0.06224 0.36169 0.39373 0.0
C1804 C 0.08535 0.36882 0.43337 0.0
C1805 C 0.0992 0.37246 0.42806 0.0
C1806 C 0.08276 0.36937 0.45086 0.0
C1807 C 0.06859 0.36662 0.45698 0.0
C1808 C 0.06229 0.37383 0.44969 0.0
C1809 C 0.04891 0.37117 0.45539 0.0
C1810 C 0.04174 0.36136 0.46843 0.0
C1811 C 0.04795 0.3542 0.47581 0.0
C1812 C 0.06132 0.35681 0.47016 0.0
C1813 C 0.14172 0.38748 0.48311 0.0
C1814 C 0.13782 0.37526 0.49285 0.0
C1815 C 0.13168 0.38767 0.47195 0.0
C1816 C 0.11759 0.3757 0.47055 0.0
C1817 C 0.11353 0.36378 0.48089 0.0
C1818 C 0.12357 0.36352 0.49185 0.0
C1819 C 0.10726 0.3749 0.45748 0.0
C1820 C 0.09376 0.37234 0.46271 0.0
C1821 C 0.11015 0.37534 0.43992 0.0
C1822 C 0.12403 0.37757 0.4336 0.0
C1823 C 0.1284 0.36791 0.43776 0.0
C1824 C 0.14154 0.37013 0.4318 0.0
C1825 C 0.15032 0.38189 0.42152 0.0
C1826 C 0.14596 0.39143 0.41715 0.0
C1827 C 0.13284 0.38928 0.42311 0.0
H1828 H 0.16049 0.38358 0.4169 0.0
H1829 H 0.03139 0.35932 0.47282 0.0
H1830 H 0.03146 0.33072 0.29852 0.0
H1831 H 0.04273 0.32907 0.27236 0.0
H1832 H 0.05582 0.30299 0.2984 0.0
H1833 H 0.04441 0.30429 0.32436 0.0
H1834 H 0.07853 0.32876 0.28033 0.0
H1835 H 0.03032 0.28658 0.27332 0.0
H1836 H 0.00374 0.27421 0.27078 0.0
H1837 H 0.00785 0.29978 0.22736 0.0
H1838 H 0.03448 0.31245 0.2298 0.0
H1839 H 0.10548 0.30095 0.22305 0.0
H1840 H 0.0911 0.30368 0.24465 0.0
H1841 H 0.07278 0.31802 0.20636 0.0
H1842 H 0.08694 0.31481 0.18448 0.0
H1843 H 0.05259 0.30138 0.22852 0.0
H1844 H 0.10002 0.34204 0.23291 0.0
H1845 H 0.12667 0.3555 0.23484 0.0
H1846 H 0.12451 0.3352 0.28234 0.0
H1847 H 0.09784 0.32144 0.28058 0.0
C1848 C 0.03664 0.32454 0.29861 0.0
C1849 C 0.03706 0.31765 0.31351 0.0
C1850 C 0.04302 0.32359 0.28368 0.0
C1851 C 0.05008 0.31592 0.28353 0.0
C1852 C 0.0504 0.30895 0.29831 0.0
C1853 C 0.04384 0.30968 0.31311 0.0
C1854 C 0.05776 0.3156 0.26829 0.0
C1855 C 0.07289 0.32272 0.26902 0.0
C1856 C 0.05037 0.3082 0.25334 0.0
C1857 C 0.03438 0.30059 0.25189 0.0
C1858 C 0.02556 0.28967 0.26335 0.0
C1859 C 0.01048 0.28258 0.2619 0.0
C1860 C 0.00411 0.28625 0.24895 0.0
C1861 C 0.0128 0.29698 0.2374 0.0
C1862 C 0.02788 0.30411 0.23881 0.0
C1863 C 0.09837 0.30466 0.21925 0.0
C1864 C 0.09744 0.30787 0.20219 0.0
C1865 C 0.09018 0.30627 0.23158 0.0
C1866 C 0.08115 0.31143 0.2272 0.0
C1867 C 0.07978 0.31414 0.21004 0.0
C1868 C 0.08784 0.31232 0.19759 0.0
C1869 C 0.07343 0.31416 0.24074 0.0
C1870 C 0.0583 0.30759 0.2397 0.0
C1871 C 0.08085 0.3223 0.25535 0.0
C1872 C 0.09691 0.33064 0.25655 0.0
C1873 C 0.10523 0.34038 0.24372 0.0
C1874 C 0.12034 0.34807 0.24479 0.0
C1875 C 0.12728 0.34619 0.25869 0.0
C1876 C 0.11912 0.33664 0.27157 0.0
C1877 C 0.104 0.3289 0.27056 0.0
H1878 H 0.13898 0.35216 0.25949 0.0
H1879 H 0.99244 0.28074 0.24785 0.0
H1880 H 0.65456 0.70715 0.28186 0.0
H1881 H 0.66854 0.72554 0.26073 0.0
H1882 H 0.70356 0.74769 0.2968 0.0
H1883 H 0.68972 0.72898 0.31798 0.0
H1884 H 0.69109 0.76367 0.28141 0.0
H1885 H 0.7117 0.73615 0.26585 0.0
H1886 H 0.71143 0.71428 0.2582 0.0
H1887 H 0.68584 0.70917 0.2138 0.0
H1888 H 0.68575 0.7309 0.22132 0.0
H1889 H 0.72229 0.81765 0.21992 0.0
H1890 H 0.72127 0.80042 0.24062 0.0
H1891 H 0.69029 0.7658 0.20863 0.0
H1892 H 0.69199 0.78307 0.18758 0.0
H1893 H 0.70593 0.75767 0.22411 0.0
H1894 H 0.68038 0.78058 0.24186 0.0
H1895 H 0.67795 0.80105 0.24913 0.0
H1896 H 0.70956 0.8131 0.28903 0.0
H1897 H 0.71232 0.7928 0.28181 0.0
C1898 C 0.66535 0.71579 0.2852 0.0
C1899 C 0.67105 0.71669 0.30156 0.0
C1900 C 0.67335 0.72624 0.27309 0.0
C1901 C 0.68708 0.73792 0.27721 0.0
C1902 C 0.69301 0.73868 0.29339 0.0
C1903 C 0.68512 0.72801 0.30543 0.0
C1904 C 0.69434 0.74993 0.26511 0.0
C1905 C 0.69474 0.76256 0.26904 0.0
C1906 C 0.69861 0.7482 0.24882 0.0
C1907 C 0.69864 0.73513 0.24422 0.0
C1908 C 0.7059 0.73031 0.25453 0.0
C1909 C 0.70584 0.71794 0.2502 0.0
C1910 C 0.6986 0.71033 0.23554 0.0
C1911 C 0.69144 0.71508 0.22516 0.0
C1912 C 0.69146 0.72743 0.22943 0.0
C1913 C 0.7156 0.80634 0.21719 0.0
C1914 C 0.7072 0.80159 0.20228 0.0
C1915 C 0.71492 0.79651 0.22903 0.0
C1916 C 0.70542 0.78179 0.22641 0.0
C1917 C 0.69768 0.77707 0.21099 0.0
C1918 C 0.69862 0.78691 0.19898 0.0
C1919 C 0.70241 0.77136 0.24026 0.0
C1920 C 0.70268 0.75899 0.23663 0.0
C1921 C 0.6984 0.77315 0.25675 0.0
C1922 C 0.69669 0.7853 0.26116 0.0
C1923 C 0.68688 0.78765 0.25211 0.0
C1924 C 0.68543 0.79922 0.25622 0.0
C1925 C 0.69363 0.8084 0.2695 0.0
C1926 C 0.70325 0.806 0.27872 0.0
C1927 C 0.70476 0.79448 0.27462 0.0
H1928 H 0.69249 0.81734 0.27267 0.0
H1929 H 0.69857 0.70076 0.23221 0.0
H1930 H 0.27749 0.97783 0.31712 0.0
H1931 H 0.26017 0.97521 0.29481 0.0
H1932 H 0.27045 0.94823 0.26624 0.0
H1933 H 0.28753 0.95076 0.28819 0.0
H1934 H 0.26775 0.96689 0.24566 0.0
H1935 H 0.24172 0.93395 0.29262 0.0
H1936 H 0.23375 0.9286 0.32241 0.0
H1937 H 0.21447 0.95414 0.31815 0.0
H1938 H 0.22249 0.95976 0.28837 0.0
H1939 H 0.21211 0.91009 0.2014 0.0
H1940 H 0.23118 0.92711 0.22049 0.0
H1941 H 0.20557 0.94555 0.23247 0.0
H1942 H 0.18628 0.92834 0.21329 0.0
H1943 H 0.21579 0.93899 0.26102 0.0
H1944 H 0.23599 0.96549 0.21088 0.0
H1945 H 0.24349 0.96976 0.18092 0.0
H1946 H 0.27363 0.95628 0.19063 0.0
H1947 H 0.26616 0.95171 0.2206 0.0
C1948 C 0.27616 0.97152 0.30595 0.0
C1949 C 0.28375 0.96438 0.30449 0.0
C1950 C 0.26627 0.97001 0.29325 0.0
C1951 C 0.26399 0.96147 0.2789 0.0
C1952 C 0.27206 0.95491 0.27715 0.0
C1953 C 0.28176 0.95629 0.2898 0.0
C1954 C 0.25251 0.95823 0.26615 0.0
C1955 C 0.25638 0.96089 0.24898 0.0
C1956 C 0.23769 0.95084 0.27054 0.0
C1957 C 0.23287 0.94743 0.28839 0.0
C1958 C 0.23588 0.93851 0.2981 0.0
C1959 C 0.23134 0.93541 0.31496 0.0
C1960 C 0.22366 0.94107 0.32219 0.0
C1961 C 0.22046 0.9498 0.31255 0.0
C1962 C 0.225 0.95295 0.29568 0.0
C1963 C 0.2106 0.91786 0.20798 0.0
C1964 C 0.19771 0.91787 0.20595 0.0
C1965 C 0.22154 0.92766 0.21877 0.0
C1966 C 0.21986 0.93771 0.22777 0.0
C1967 C 0.20711 0.93795 0.22555 0.0
C1968 C 0.19616 0.92818 0.21457 0.0
C1969 C 0.23104 0.94702 0.24045 0.0
C1970 C 0.22712 0.94548 0.25762 0.0
C1971 C 0.24583 0.95542 0.23604 0.0
C1972 C 0.25047 0.95823 0.21802 0.0
C1973 C 0.24416 0.96335 0.20662 0.0
C1974 C 0.24841 0.96584 0.18963 0.0
C1975 C 0.25903 0.96329 0.18387 0.0
C1976 C 0.26542 0.95826 0.19511 0.0
C1977 C 0.2612 0.95575 0.21212 0.0
H1978 H 0.26231 0.96521 0.17071 0.0
H1979 H 0.22015 0.93866 0.33525 0.0
H1980 H 0.68467 0.97498 0.29454 0.0
H1981 H 0.68683 0.96496 0.26779 0.0
H1982 H 0.71848 0.95741 0.29101 0.0
H1983 H 0.71685 0.96795 0.31741 0.0
H1984 H 0.72633 0.96576 0.26042 0.0
H1985 H 0.68114 0.93075 0.2863 0.0
H1986 H 0.6569 0.92176 0.29827 0.0
H1987 H 0.64253 0.92989 0.25093 0.0
H1988 H 0.66676 0.93909 0.23874 0.0
H1989 H 0.71571 0.90342 0.21989 0.0
H1990 H 0.71658 0.92136 0.23908 0.0
H1991 H 0.69464 0.93207 0.2014 0.0
H1992 H 0.694 0.91424 0.18196 0.0
H1993 H 0.68183 0.92502 0.23504 0.0
H1994 H 0.72729 0.95602 0.20842 0.0
H1995 H 0.75146 0.96315 0.19768 0.0
H1996 H 0.76531 0.9605 0.2481 0.0
H1997 H 0.74114 0.95313 0.25911 0.0
C1998 C 0.69217 0.97129 0.29387 0.0
C1999 C 0.70052 0.97217 0.30812 0.0
C2000 C 0.69336 0.96551 0.2786 0.0
C2001 C 0.70264 0.96019 0.27743 0.0
C2002 C 0.71126 0.96145 0.29153 0.0
C2003 C 0.71027 0.96744 0.30667 0.0
C2004 C 0.70306 0.95277 0.26188 0.0
C2005 C 0.71659 0.95683 0.25492 0.0
C2006 C 0.69035 0.9413 0.25439 0.0
C2007 C 0.67579 0.93577 0.26169 0.0
C2008 C 0.67283 0.93071 0.27849 0.0
C2009 C 0.6591 0.92557 0.2853 0.0
C2010 C 0.6482 0.9253 0.27538 0.0
C2011 C 0.651 0.93014 0.25861 0.0
C2012 C 0.66472 0.93531 0.25174 0.0
C2013 C 0.71127 0.90976 0.21564 0.0
C2014 C 0.70479 0.90751 0.19951 0.0
C2015 C 0.71181 0.92001 0.22655 0.0
C2016 C 0.70572 0.92805 0.2216 0.0
C2017 C 0.69945 0.926 0.20538 0.0
C2018 C 0.69914 0.91589 0.19431 0.0
C2019 C 0.70508 0.93781 0.23398 0.0
C2020 C 0.69153 0.93416 0.24034 0.0
C2021 C 0.71777 0.94944 0.24114 0.0
C2022 C 0.73236 0.95393 0.23458 0.0
C2023 C 0.73545 0.95685 0.2172 0.0
C2024 C 0.74916 0.96095 0.21107 0.0
C2025 C 0.75991 0.96226 0.22219 0.0
C2026 C 0.75697 0.95948 0.23949 0.0
C2027 C 0.74327 0.95536 0.24569 0.0
H2028 H 0.77052 0.96544 0.21742 0.0
H2029 H 0.63757 0.92131 0.28068 0.0
H2030 H 0.02797 0.7426 0.32109 0.0
H2031 H 0.03874 0.75588 0.29494 0.0
H2032 H 0.05186 0.72628 0.28153 0.0
H2033 H 0.04092 0.71276 0.30763 0.0
H2034 H 0.07424 0.75574 0.28004 0.0
H2035 H 0.02579 0.7245 0.25967 0.0
H2036 H 0.99919 0.71261 0.26029 0.0
H2037 H 0.00261 0.7533 0.25749 0.0
H2038 H 0.02925 0.76545 0.2571 0.0
H2039 H 0.10268 0.7892 0.20148 0.0
H2040 H 0.08814 0.77058 0.22223 0.0
H2041 H 0.06557 0.79213 0.23464 0.0
H2042 H 0.07978 0.81048 0.21347 0.0
H2043 H 0.04732 0.76461 0.2353 0.0
H2044 H 0.09474 0.79612 0.25877 0.0
H2045 H 0.12143 0.8091 0.2596 0.0
H2046 H 0.12012 0.76937 0.25843 0.0
H2047 H 0.09342 0.75615 0.25736 0.0
C2048 C 0.03306 0.73885 0.31254 0.0
C2049 C 0.03363 0.72665 0.31645 0.0
C2050 C 0.03914 0.74641 0.29757 0.0
C2051 C 0.04601 0.742 0.2863 0.0
C2052 C 0.04655 0.7298 0.29008 0.0
C2053 C 0.04027 0.72209 0.30495 0.0
C2054 C 0.05324 0.75062 0.27102 0.0
C2055 C 0.06835 0.75746 0.27006 0.0
C2056 C 0.04555 0.75317 0.25833 0.0
C2057 C 0.02953 0.7459 0.2585 0.0
C2058 C 0.02088 0.73092 0.25933 0.0
C2059 C 0.00579 0.72413 0.25961 0.0
C2060 C 0.99922 0.7322 0.25897 0.0
C2061 C 0.00772 0.74707 0.258 0.0
C2062 C 0.02281 0.75391 0.25773 0.0
C2063 C 0.0945 0.78985 0.20853 0.0
C2064 C 0.0924 0.8013 0.206 0.0
C2065 C 0.08624 0.77925 0.22042 0.0
C2066 C 0.07597 0.78011 0.23028 0.0
C2067 C 0.07344 0.79124 0.22723 0.0
C2068 C 0.08155 0.80172 0.21514 0.0
C2069 C 0.06838 0.76987 0.24434 0.0
C2070 C 0.05322 0.76276 0.24514 0.0
C2071 C 0.07605 0.76724 0.25707 0.0
C2072 C 0.09209 0.77516 0.25779 0.0
C2073 C 0.10015 0.79015 0.25857 0.0
C2074 C 0.11528 0.79755 0.25909 0.0
C2075 C 0.12246 0.79006 0.25901 0.0
C2076 C 0.11454 0.77516 0.25846 0.0
C2077 C 0.09941 0.76771 0.25789 0.0
H2078 H 0.13417 0.79581 0.25943 0.0
H2079 H 0.98753 0.72692 0.25918 0.0
H2080 H 0.26352 0.32712 0.30894 0.0
H2081 H 0.24407 0.31348 0.28837 0.0
H2082 H 0.26401 0.2899 0.27388 0.0
H2083 H 0.28344 0.30331 0.29501 0.0
H2084 H 0.25726 0.30537 0.24653 0.0
H2085 H 0.23515 0.27052 0.29017 0.0
H2086 H 0.22712 0.26193 0.31931 0.0
H2087 H 0.19908 0.27865 0.31786 0.0
H2088 H 0.20711 0.28755 0.2888 0.0
H2089 H 0.1991 0.27879 0.18674 0.0
H2090 H 0.21558 0.27772 0.20738 0.0
H2091 H 0.19998 0.29383 0.24631 0.0
H2092 H 0.183 0.29407 0.22616 0.0
H2093 H 0.205 0.27552 0.25996 0.0
H2094 H 0.23149 0.31577 0.22155 0.0
H2095 H 0.24024 0.32694 0.1935 0.0
H2096 H 0.26055 0.30267 0.18619 0.0
H2097 H 0.25177 0.29123 0.21415 0.0
C2098 C 0.26365 0.31887 0.30158 0.0
C2099 C 0.27497 0.31626 0.30351 0.0
C2100 C 0.25252 0.31107 0.28989 0.0
C2101 C 0.25262 0.30069 0.27968 0.0
C2102 C 0.26375 0.29783 0.28175 0.0
C2103 C 0.27477 0.30544 0.29381 0.0
C2104 C 0.2416 0.29386 0.26604 0.0
C2105 C 0.24584 0.29846 0.24931 0.0
C2106 C 0.22674 0.28515 0.26984 0.0
C2107 C 0.22179 0.27975 0.28731 0.0
C2108 C 0.22735 0.27246 0.2961 0.0
C2109 C 0.22278 0.26752 0.31261 0.0
C2110 C 0.2126 0.26975 0.32044 0.0
C2111 C 0.20696 0.27692 0.31177 0.0
C2112 C 0.2115 0.28189 0.29527 0.0
C2113 C 0.19897 0.2818 0.19979 0.0
C2114 C 0.18992 0.28679 0.2047 0.0
C2115 C 0.20849 0.2813 0.21155 0.0
C2116 C 0.20926 0.28597 0.22835 0.0
C2117 C 0.19968 0.29023 0.23343 0.0
C2118 C 0.19009 0.29056 0.2218 0.0
C2119 C 0.2206 0.28752 0.2405 0.0
C2120 C 0.21642 0.28198 0.25698 0.0
C2121 C 0.23554 0.29564 0.23656 0.0
C2122 C 0.24082 0.30251 0.2198 0.0
C2123 C 0.23774 0.31275 0.2139 0.0
C2124 C 0.24271 0.31914 0.19803 0.0
C2125 C 0.2509 0.31548 0.18804 0.0
C2126 C 0.25417 0.30546 0.19393 0.0
C2127 C 0.2492 0.29902 0.20977 0.0
H2128 H 0.25474 0.32044 0.17576 0.0
H2129 H 0.20908 0.26592 0.33322 0.0
H2130 H 0.31278 0.37561 0.37865 0.0
H2131 H 0.3039 0.37945 0.4053 0.0
H2132 H 0.27899 0.33392 0.41374 0.0
H2133 H 0.28853 0.33016 0.38762 0.0
H2134 H 0.27909 0.37319 0.4125 0.0
H2135 H 0.27015 0.32511 0.45418 0.0
H2136 H 0.28246 0.31199 0.46026 0.0
H2137 H 0.32305 0.34839 0.44513 0.0
H2138 H 0.31102 0.3618 0.43919 0.0
H2139 H 0.22307 0.35497 0.46829 0.0
H2140 H 0.23935 0.35444 0.44773 0.0
H2141 H 0.2719 0.36642 0.48679 0.0
H2142 H 0.25521 0.36599 0.50786 0.0
H2143 H 0.27221 0.34773 0.46701 0.0
H2144 H 0.27397 0.39112 0.45758 0.0
H2145 H 0.26461 0.40709 0.45307 0.0
H2146 H 0.24421 0.38536 0.40649 0.0
H2147 H 0.25328 0.36912 0.41083 0.0
C2148 C 0.30564 0.36646 0.3864 0.0
C2149 C 0.30133 0.35259 0.38107 0.0
C2150 C 0.30053 0.36865 0.40161 0.0
C2151 C 0.2908 0.357 0.41167 0.0
C2152 C 0.28676 0.34315 0.40651 0.0
C2153 C 0.29215 0.34098 0.3915 0.0
C2154 C 0.28382 0.35922 0.42659 0.0
C2155 C 0.27773 0.3677 0.42445 0.0
C2156 C 0.2823 0.35239 0.4424 0.0
C2157 C 0.28964 0.34443 0.44611 0.0
C2158 C 0.28171 0.33035 0.45224 0.0
C2159 C 0.28864 0.32285 0.45564 0.0
C2160 C 0.30352 0.32934 0.45304 0.0
C2161 C 0.31151 0.34336 0.44708 0.0
C2162 C 0.30464 0.35091 0.44367 0.0
C2163 C 0.23356 0.35722 0.47268 0.0
C2164 C 0.23777 0.36052 0.48982 0.0
C2165 C 0.24298 0.35713 0.46079 0.0
C2166 C 0.25699 0.3607 0.4656 0.0
C2167 C 0.26118 0.36374 0.48274 0.0
C2168 C 0.25166 0.36363 0.49474 0.0
C2169 C 0.26717 0.3613 0.45261 0.0
C2170 C 0.2738 0.35335 0.45511 0.0
C2171 C 0.26968 0.36907 0.43734 0.0
C2172 C 0.26424 0.37884 0.4346 0.0
C2173 C 0.26741 0.38969 0.44643 0.0
C2174 C 0.26217 0.39879 0.44389 0.0
C2175 C 0.25381 0.39722 0.42951 0.0
C2176 C 0.25069 0.38656 0.41762 0.0
C2177 C 0.2559 0.37741 0.4201 0.0
H2178 H 0.24975 0.40429 0.42758 0.0
H2179 H 0.30886 0.32351 0.45567 0.0
H2180 H 0.69137 0.9542 0.39819 0.0
H2181 H 0.67944 0.93501 0.41869 0.0
H2182 H 0.63846 0.93094 0.40711 0.0
H2183 H 0.65042 0.95037 0.38621 0.0
H2184 H 0.64465 0.93045 0.44322 0.0
H2185 H 0.642 0.90628 0.39217 0.0
H2186 H 0.65089 0.90218 0.36538 0.0
H2187 H 0.68275 0.89782 0.39295 0.0
H2188 H 0.6742 0.90211 0.4199 0.0
H2189 H 0.61825 0.86739 0.49644 0.0
H2190 H 0.6202 0.88292 0.47277 0.0
H2191 H 0.66493 0.89584 0.4663 0.0
H2192 H 0.663 0.88026 0.48951 0.0
H2193 H 0.65017 0.88865 0.43627 0.0
H2194 H 0.65555 0.91722 0.4862 0.0
H2195 H 0.64726 0.92197 0.51307 0.0
H2196 H 0.61016 0.91799 0.48743 0.0
H2197 H 0.61815 0.91303 0.46044 0.0
C2198 C 0.67982 0.94932 0.39994 0.0
C2199 C 0.67184 0.95381 0.39046 0.0
C2200 C 0.67301 0.93829 0.41167 0.0
C2201 C 0.65806 0.93146 0.41427 0.0
C2202 C 0.65002 0.93607 0.4052 0.0
C2203 C 0.65685 0.94712 0.39327 0.0
C2204 C 0.65116 0.91941 0.42641 0.0
C2205 C 0.64547 0.92109 0.44156 0.0
C2206 C 0.65235 0.90729 0.42424 0.0
C2207 C 0.65748 0.90458 0.40807 0.0
C2208 C 0.65096 0.90454 0.39252 0.0
C2209 C 0.65594 0.90216 0.3773 0.0
C2210 C 0.66739 0.89975 0.37746 0.0
C2211 C 0.67387 0.89968 0.39285 0.0
C2212 C 0.66895 0.90206 0.40811 0.0
C2213 C 0.62848 0.87354 0.48992 0.0
C2214 C 0.64051 0.87268 0.49493 0.0
C2215 C 0.62959 0.88245 0.47648 0.0
C2216 C 0.64272 0.89057 0.46781 0.0
C2217 C 0.65469 0.88967 0.4728 0.0
C2218 C 0.65361 0.88086 0.4862 0.0
C2219 C 0.64426 0.89998 0.4534 0.0
C2220 C 0.64893 0.89777 0.43779 0.0
C2221 C 0.6421 0.91157 0.45517 0.0
C2222 C 0.63734 0.91457 0.47137 0.0
C2223 C 0.64556 0.91723 0.48633 0.0
C2224 C 0.64093 0.91999 0.50157 0.0
C2225 C 0.62817 0.92023 0.50197 0.0
C2226 C 0.62003 0.91776 0.48712 0.0
C2227 C 0.6246 0.91498 0.47184 0.0
H2228 H 0.6246 0.92238 0.51378 0.0
H2229 H 0.67122 0.89792 0.36566 0.0
H2230 H 0.05811 0.70279 0.38421 0.0
H2231 H 0.07618 0.70791 0.40643 0.0
H2232 H 0.05261 0.71871 0.44106 0.0
H2233 H 0.03519 0.71451 0.41858 0.0
H2234 H 0.0784 0.73802 0.44309 0.0
H2235 H 0.05533 0.68723 0.44424 0.0
H2236 H 0.04564 0.66304 0.43269 0.0
H2237 H 0.08809 0.67481 0.41597 0.0
H2238 H 0.09801 0.69915 0.42722 0.0
H2239 H 0.11846 0.74417 0.51668 0.0
H2240 H 0.09835 0.72973 0.49692 0.0
H2241 H 0.12873 0.73998 0.45635 0.0
H2242 H 0.14883 0.75477 0.47597 0.0
H2243 H 0.09948 0.70875 0.45852 0.0
H2244 H 0.12062 0.76093 0.45513 0.0
H2245 H 0.12946 0.78411 0.46923 0.0
H2246 H 0.08813 0.76752 0.49292 0.0
H2247 H 0.07917 0.74415 0.4792 0.0
C2248 C 0.05675 0.70609 0.39665 0.0
C2249 C 0.04536 0.70837 0.39969 0.0
C2250 C 0.06702 0.70893 0.4094 0.0
C2251 C 0.06577 0.71362 0.42555 0.0
C2252 C 0.05394 0.71522 0.42872 0.0
C2253 C 0.04396 0.7128 0.41588 0.0
C2254 C 0.07731 0.71807 0.43872 0.0
C2255 C 0.08275 0.73142 0.44656 0.0
C2256 C 0.08331 0.70968 0.44321 0.0
C2257 C 0.07739 0.69506 0.43643 0.0
C2258 C 0.06258 0.6847 0.43798 0.0
C2259 C 0.05705 0.67095 0.43151 0.0
C2260 C 0.06624 0.6674 0.42356 0.0
C2261 C 0.08098 0.67758 0.42211 0.0
C2262 C 0.08657 0.69135 0.42855 0.0
C2263 C 0.12082 0.7429 0.50368 0.0
C2264 C 0.13509 0.75052 0.49774 0.0
C2265 C 0.10937 0.73466 0.49245 0.0
C2266 C 0.11211 0.7338 0.47524 0.0
C2267 C 0.12645 0.74042 0.46963 0.0
C2268 C 0.13788 0.74889 0.48079 0.0
C2269 C 0.10019 0.72843 0.46267 0.0
C2270 C 0.09486 0.7151 0.45498 0.0
C2271 C 0.09404 0.73664 0.45846 0.0
C2272 C 0.09929 0.75078 0.46631 0.0
C2273 C 0.11347 0.76221 0.46346 0.0
C2274 C 0.1185 0.77537 0.47136 0.0
C2275 C 0.10937 0.77728 0.482 0.0
C2276 C 0.09519 0.76603 0.4847 0.0
C2277 C 0.09013 0.75282 0.47687 0.0
H2278 H 0.11328 0.78748 0.48811 0.0
H2279 H 0.06193 0.65675 0.41856 0.0
H2280 H 0.29062 0.04383 0.70617 0.0
H2281 H 0.28987 0.05589 0.73174 0.0
H2282 H 0.32204 0.04946 0.75549 0.0
H2283 H 0.32297 0.03739 0.72979 0.0
H2284 H 0.29809 0.04382 0.77708 0.0
H2285 H 0.33344 0.08055 0.74083 0.0
H2286 H 0.34258 0.09364 0.71388 0.0
H2287 H 0.30911 0.10353 0.71393 0.0
H2288 H 0.29964 0.09031 0.74076 0.0
H2289 H 0.31351 0.09432 0.8436 0.0
H2290 H 0.31484 0.08014 0.82064 0.0
H2291 H 0.28966 0.091 0.78827 0.0
H2292 H 0.289 0.10582 0.81072 0.0
H2293 H 0.31176 0.09436 0.77165 0.0
H2294 H 0.27557 0.05715 0.80677 0.0
H2295 H 0.26547 0.04353 0.83321 0.0
H2296 H 0.29921 0.03403 0.83506 0.0
H2297 H 0.30963 0.04777 0.80873 0.0
C2298 C 0.29748 0.04487 0.71684 0.0
C2299 C 0.30692 0.03971 0.71588 0.0
C2300 C 0.29705 0.05179 0.73144 0.0
C2301 C 0.30598 0.05365 0.74542 0.0
C2302 C 0.31508 0.04813 0.74479 0.0
C2303 C 0.31563 0.04129 0.73009 0.0
C2304 C 0.30613 0.06188 0.76036 0.0
C2305 C 0.30129 0.05494 0.77603 0.0
C2306 C 0.31002 0.07628 0.7588 0.0
C2307 C 0.31576 0.08433 0.74273 0.0
C2308 C 0.32796 0.08542 0.73502 0.0
C2309 C 0.33321 0.09288 0.71978 0.0
C2310 C 0.32641 0.09939 0.71218 0.0
C2311 C 0.31436 0.09848 0.71982 0.0
C2312 C 0.30905 0.09101 0.73505 0.0
C2313 C 0.30829 0.09374 0.83158 0.0
C2314 C 0.30114 0.10124 0.82907 0.0
C2315 C 0.30892 0.08548 0.81851 0.0
C2316 C 0.30225 0.08439 0.80275 0.0
C2317 C 0.29489 0.09165 0.80032 0.0
C2318 C 0.29437 0.1 0.81329 0.0
C2319 C 0.30343 0.07626 0.78845 0.0
C2320 C 0.3086 0.08326 0.77284 0.0
C2321 C 0.29971 0.06188 0.79006 0.0
C2322 C 0.29347 0.05362 0.80589 0.0
C2323 C 0.28091 0.05226 0.81289 0.0
C2324 C 0.27511 0.0445 0.82784 0.0
C2325 C 0.28172 0.03796 0.83584 0.0
C2326 C 0.29412 0.03913 0.82887 0.0
C2327 C 0.29997 0.04689 0.81393 0.0
H2328 H 0.27722 0.03195 0.84741 0.0
H2329 H 0.3305 0.10516 0.70038 0.0
H2330 H 0.98495 0.26535 0.71869 0.0
H2331 H 0.9739 0.25091 0.74395 0.0
H2332 H 0.95287 0.27431 0.75421 0.0
H2333 H 0.96438 0.28922 0.72918 0.0
H2334 H 0.96109 0.26821 0.78317 0.0
H2335 H 0.9348 0.2416 0.734 0.0
H2336 H 0.93141 0.23094 0.70554 0.0
H2337 H 0.94838 0.20558 0.72357 0.0
H2338 H 0.95206 0.21624 0.75209 0.0
H2339 H 0.90211 0.2117 0.83032 0.0
H2340 H 0.91718 0.22999 0.80963 0.0
H2341 H 0.94442 0.21232 0.80564 0.0
H2342 H 0.92985 0.19436 0.82694 0.0
H2343 H 0.93306 0.21578 0.77413 0.0
H2344 H 0.95802 0.2424 0.82437 0.0
H2345 H 0.9597 0.2527 0.85269 0.0
H2346 H 0.94299 0.27761 0.83232 0.0
H2347 H 0.94099 0.26728 0.80391 0.0
C2348 C 0.97808 0.26753 0.7264 0.0
C2349 C 0.97539 0.27831 0.72183 0.0
C2350 C 0.97173 0.25922 0.74082 0.0
C2351 C 0.96226 0.26128 0.75076 0.0
C2352 C 0.96007 0.27248 0.74668 0.0
C2353 C 0.96663 0.28097 0.73236 0.0
C2354 C 0.95416 0.25128 0.76484 0.0
C2355 C 0.95483 0.25676 0.78115 0.0
C2356 C 0.94608 0.2363 0.76226 0.0
C2357 C 0.94383 0.22982 0.74514 0.0
C2358 C 0.9379 0.23383 0.73186 0.0
C2359 C 0.93591 0.22777 0.71572 0.0
C2360 C 0.93971 0.21761 0.71273 0.0
C2361 C 0.94546 0.21346 0.72589 0.0
C2362 C 0.94749 0.2195 0.74205 0.0
C2363 C 0.91151 0.21187 0.82542 0.0
C2364 C 0.9147 0.20146 0.83032 0.0
C2365 C 0.92006 0.22231 0.8135 0.0
C2366 C 0.93189 0.22249 0.80615 0.0
C2367 C 0.93528 0.21232 0.81117 0.0
C2368 C 0.92687 0.20199 0.82325 0.0
C2369 C 0.94014 0.2327 0.79241 0.0
C2370 C 0.9394 0.22724 0.77614 0.0
C2371 C 0.94792 0.24764 0.79499 0.0
C2372 C 0.94922 0.25395 0.81204 0.0
C2373 C 0.95458 0.24998 0.82596 0.0
C2374 C 0.95562 0.25584 0.84202 0.0
C2375 C 0.95142 0.26578 0.84431 0.0
C2376 C 0.94622 0.2699 0.83053 0.0
C2377 C 0.94515 0.26405 0.81444 0.0
H2378 H 0.95223 0.2703 0.85676 0.0
H2379 H 0.93816 0.21294 0.70023 0.0
H2380 H 0.71843 0.69419 0.73859 0.0
H2381 H 0.73722 0.70564 0.76074 0.0
H2382 H 0.76196 0.69019 0.73619 0.0
H2383 H 0.74287 0.67813 0.71486 0.0
H2384 H 0.75997 0.68363 0.76699 0.0
H2385 H 0.77209 0.72708 0.73808 0.0
H2386 H 0.76756 0.74507 0.72575 0.0
H2387 H 0.75494 0.75194 0.77463 0.0
H2388 H 0.75923 0.73386 0.78722 0.0
H2389 H 0.82719 0.7225 0.80865 0.0
H2390 H 0.80917 0.71822 0.78679 0.0
H2391 H 0.78068 0.71763 0.82511 0.0
H2392 H 0.79867 0.72177 0.84719 0.0
H2393 H 0.78373 0.73302 0.78954 0.0
H2394 H 0.77174 0.68842 0.81742 0.0
H2395 H 0.77815 0.67142 0.82863 0.0
H2396 H 0.79243 0.66787 0.77919 0.0
H2397 H 0.78634 0.68506 0.76776 0.0
C2398 C 0.72805 0.69354 0.73784 0.0
C2399 C 0.72926 0.68529 0.72514 0.0
C2400 C 0.7388 0.7001 0.75044 0.0
C2401 C 0.75107 0.6988 0.7502 0.0
C2402 C 0.75257 0.69124 0.73683 0.0
C2403 C 0.74171 0.68441 0.72458 0.0
C2404 C 0.76174 0.70407 0.76449 0.0
C2405 C 0.76522 0.6945 0.7717 0.0
C2406 C 0.7684 0.71813 0.7711 0.0
C2407 C 0.76582 0.729 0.76355 0.0
C2408 C 0.76823 0.73234 0.74617 0.0
C2409 C 0.76573 0.74257 0.73914 0.0
C2410 C 0.76092 0.74961 0.74939 0.0
C2411 C 0.75865 0.74646 0.7667 0.0
C2412 C 0.76112 0.73623 0.7738 0.0
C2413 C 0.81725 0.72181 0.81239 0.0
C2414 C 0.8143 0.72242 0.82962 0.0
C2415 C 0.80697 0.71937 0.7999 0.0
C2416 C 0.79366 0.71766 0.80438 0.0
C2417 C 0.79097 0.71904 0.82144 0.0
C2418 C 0.80117 0.72127 0.83401 0.0
C2419 C 0.782 0.71265 0.79147 0.0
C2420 C 0.77833 0.72218 0.78469 0.0
C2421 C 0.77528 0.69863 0.785 0.0
C2422 C 0.77872 0.68813 0.79179 0.0
C2423 C 0.77637 0.68411 0.80898 0.0
C2424 C 0.77993 0.67443 0.81536 0.0
C2425 C 0.78573 0.6686 0.80464 0.0
C2426 C 0.78795 0.67241 0.78749 0.0
C2427 C 0.78444 0.68212 0.78105 0.0
H2428 H 0.78848 0.6611 0.8096 0.0
H2429 H 0.759 0.75753 0.74392 0.0
H2430 H 0.705 0.66921 0.6326 0.0
H2431 H 0.71511 0.66747 0.60548 0.0
H2432 H 0.72209 0.63538 0.62695 0.0
H2433 H 0.71193 0.63684 0.65375 0.0
H2434 H 0.74693 0.65924 0.6113 0.0
H2435 H 0.69571 0.62484 0.60092 0.0
H2436 H 0.67011 0.61772 0.59796 0.0
H2437 H 0.68126 0.64845 0.55812 0.0
H2438 H 0.70698 0.65589 0.56101 0.0
H2439 H 0.76347 0.62508 0.55027 0.0
H2440 H 0.75158 0.63051 0.57241 0.0
H2441 H 0.74225 0.65454 0.53666 0.0
H2442 H 0.75353 0.64848 0.51402 0.0
H2443 H 0.71967 0.63931 0.55738 0.0
H2444 H 0.77004 0.6719 0.56478 0.0
H2445 H 0.79588 0.67981 0.56731 0.0
H2446 H 0.78715 0.65451 0.61232 0.0
H2447 H 0.76122 0.64627 0.60993 0.0
C2448 C 0.70857 0.66169 0.63146 0.0
C2449 C 0.70769 0.65319 0.64536 0.0
C2450 C 0.71431 0.66072 0.61599 0.0
C2451 C 0.71937 0.65134 0.61431 0.0
C2452 C 0.71828 0.64272 0.62805 0.0
C2453 C 0.71241 0.64355 0.64335 0.0
C2454 C 0.72638 0.65073 0.59857 0.0
C2455 C 0.74099 0.65485 0.59951 0.0
C2456 C 0.71872 0.64553 0.58305 0.0
C2457 C 0.70328 0.64105 0.58134 0.0
C2458 C 0.69272 0.63018 0.59165 0.0
C2459 C 0.67819 0.62606 0.58996 0.0
C2460 C 0.67406 0.63267 0.5779 0.0
C2461 C 0.68447 0.64337 0.56748 0.0
C2462 C 0.69903 0.64754 0.56913 0.0
C2463 C 0.75866 0.63128 0.54695 0.0
C2464 C 0.75949 0.63634 0.53031 0.0
C2465 C 0.75202 0.63455 0.55972 0.0
C2466 C 0.7463 0.64319 0.55629 0.0
C2467 C 0.74672 0.64796 0.53962 0.0
C2468 C 0.75328 0.64458 0.52674 0.0
C2469 C 0.74012 0.64731 0.5703 0.0
C2470 C 0.72572 0.64394 0.56905 0.0
C2471 C 0.74803 0.6534 0.58553 0.0
C2472 C 0.76365 0.6584 0.58711 0.0
C2473 C 0.77361 0.66795 0.57516 0.0
C2474 C 0.78828 0.6725 0.57658 0.0
C2475 C 0.79315 0.66765 0.58995 0.0
C2476 C 0.78336 0.65826 0.60197 0.0
C2477 C 0.76868 0.65366 0.6006 0.0
H2478 H 0.80451 0.67119 0.59102 0.0
H2479 H 0.6628 0.62946 0.57661 0.0
H2480 H 0.31687 0.04475 0.61744 0.0
H2481 H 0.3303 0.06145 0.59482 0.0
H2482 H 0.37045 0.07466 0.62121 0.0
H2483 H 0.35692 0.05772 0.64421 0.0
H2484 H 0.36796 0.09747 0.61035 0.0
H2485 H 0.36471 0.05704 0.58532 0.0
H2486 H 0.3535 0.03186 0.57674 0.0
H2487 H 0.32328 0.03552 0.5448 0.0
H2488 H 0.33414 0.06066 0.55337 0.0
H2489 H 0.39119 0.14323 0.53664 0.0
H2490 H 0.39071 0.12556 0.55637 0.0
H2491 H 0.34454 0.0987 0.54887 0.0
H2492 H 0.34498 0.1162 0.52929 0.0
H2493 H 0.35841 0.08335 0.54962 0.0
H2494 H 0.35789 0.12132 0.5818 0.0
H2495 H 0.36863 0.14635 0.59091 0.0
H2496 H 0.40635 0.14697 0.60949 0.0
H2497 H 0.39589 0.12198 0.60028 0.0
C2498 C 0.32857 0.0511 0.61846 0.0
C2499 C 0.33582 0.04993 0.63267 0.0
C2500 C 0.33625 0.06058 0.60541 0.0
C2501 C 0.35139 0.06917 0.60621 0.0
C2502 C 0.35877 0.06803 0.62031 0.0
C2503 C 0.35104 0.05836 0.63339 0.0
C2504 C 0.35906 0.0799 0.59268 0.0
C2505 C 0.3663 0.09441 0.59706 0.0
C2506 C 0.35685 0.0759 0.57534 0.0
C2507 C 0.35025 0.06077 0.57003 0.0
C2508 C 0.35562 0.05246 0.57654 0.0
C2509 C 0.34933 0.03819 0.57167 0.0
C2510 C 0.33768 0.03209 0.56023 0.0
C2511 C 0.33231 0.04026 0.55364 0.0
C2512 C 0.33856 0.05454 0.55847 0.0
C2513 C 0.38101 0.13343 0.53904 0.0
C2514 C 0.36809 0.13109 0.53161 0.0
C2515 C 0.38074 0.1234 0.55031 0.0
C2516 C 0.36757 0.11087 0.55413 0.0
C2517 C 0.35481 0.10828 0.54607 0.0
C2518 C 0.35505 0.11831 0.535 0.0
C2519 C 0.36659 0.10078 0.56736 0.0
C2520 C 0.36058 0.08641 0.5629 0.0
C2521 C 0.36998 0.10491 0.5846 0.0
C2522 C 0.37621 0.11988 0.59016 0.0
C2523 C 0.36853 0.12684 0.5877 0.0
C2524 C 0.37455 0.14101 0.5929 0.0
C2525 C 0.38819 0.14826 0.60071 0.0
C2526 C 0.39581 0.14135 0.60339 0.0
C2527 C 0.38984 0.12719 0.59819 0.0
H2528 H 0.39283 0.15923 0.60474 0.0
H2529 H 0.33283 0.02104 0.55648 0.0
H2530 H 0.95279 0.30542 0.64778 0.0
H2531 H 0.9344 0.29908 0.62552 0.0
H2532 H 0.94561 0.27029 0.60338 0.0
H2533 H 0.96393 0.27656 0.62536 0.0
H2534 H 0.94203 0.28608 0.57923 0.0
H2535 H 0.91656 0.25802 0.62901 0.0
H2536 H 0.9088 0.25493 0.65888 0.0
H2537 H 0.88914 0.27966 0.64975 0.0
H2538 H 0.89696 0.28305 0.61986 0.0
H2539 H 0.88318 0.23156 0.53475 0.0
H2540 H 0.90283 0.24688 0.55425 0.0
H2541 H 0.88122 0.26932 0.56682 0.0
H2542 H 0.86123 0.25369 0.54745 0.0
H2543 H 0.89022 0.26186 0.59503 0.0
H2544 H 0.9118 0.28597 0.54372 0.0
H2545 H 0.91916 0.28854 0.51375 0.0
H2546 H 0.94603 0.27152 0.52533 0.0
H2547 H 0.93867 0.26863 0.55534 0.0
C2548 C 0.95138 0.2978 0.63811 0.0
C2549 C 0.95978 0.29143 0.63842 0.0
C2550 C 0.94086 0.29418 0.62543 0.0
C2551 C 0.93859 0.28415 0.61285 0.0
C2552 C 0.9472 0.27807 0.61293 0.0
C2553 C 0.95763 0.28162 0.62559 0.0
C2554 C 0.92696 0.27947 0.59987 0.0
C2555 C 0.93069 0.28077 0.58265 0.0
C2556 C 0.91221 0.27299 0.60434 0.0
C2557 C 0.9075 0.27094 0.62228 0.0
C2558 C 0.91069 0.2629 0.63342 0.0
C2559 C 0.90626 0.26107 0.65034 0.0
C2560 C 0.89853 0.26714 0.65622 0.0
C2561 C 0.89516 0.275 0.64518 0.0
C2562 C 0.89959 0.27687 0.62825 0.0
C2563 C 0.8826 0.23977 0.54164 0.0
C2564 C 0.87062 0.24137 0.53966 0.0
C2565 C 0.89392 0.24862 0.55265 0.0
C2566 C 0.89358 0.25936 0.56187 0.0
C2567 C 0.88173 0.26115 0.55976 0.0
C2568 C 0.87038 0.25228 0.54864 0.0
C2569 C 0.90526 0.26802 0.57438 0.0
C2570 C 0.90155 0.26748 0.59152 0.0
C2571 C 0.92005 0.27522 0.56983 0.0
C2572 C 0.92461 0.27702 0.55179 0.0
C2573 C 0.9192 0.28269 0.53987 0.0
C2574 C 0.92339 0.28421 0.52287 0.0
C2575 C 0.93304 0.28018 0.51764 0.0
C2576 C 0.93855 0.27464 0.52941 0.0
C2577 C 0.9344 0.27308 0.54642 0.0
H2578 H 0.93626 0.28137 0.50447 0.0
H2579 H 0.8951 0.26571 0.66933 0.0
H2580 H 0.37478 0.29601 0.65171 0.0
H2581 H 0.37677 0.28544 0.62558 0.0
H2582 H 0.34687 0.2946 0.60067 0.0
H2583 H 0.34439 0.30476 0.62717 0.0
H2584 H 0.34019 0.26917 0.5925 0.0
H2585 H 0.3842 0.3138 0.5917 0.0
H2586 H 0.40712 0.33413 0.60265 0.0
H2587 H 0.42382 0.30666 0.61055 0.0
H2588 H 0.40092 0.28612 0.59988 0.0
H2589 H 0.35682 0.24573 0.51489 0.0
H2590 H 0.35649 0.26261 0.53511 0.0
H2591 H 0.3751 0.24896 0.57378 0.0
H2592 H 0.37516 0.23194 0.55379 0.0
H2593 H 0.38775 0.27991 0.57085 0.0
H2594 H 0.34127 0.23494 0.575 0.0
H2595 H 0.31837 0.21536 0.56294 0.0
H2596 H 0.30672 0.24544 0.54674 0.0
H2597 H 0.32969 0.26523 0.5585 0.0
C2598 C 0.36869 0.29589 0.64066 0.0
C2599 C 0.35946 0.30129 0.64152 0.0
C2600 C 0.36992 0.28992 0.62565 0.0
C2601 C 0.36222 0.28949 0.61099 0.0
C2602 C 0.35299 0.29488 0.61177 0.0
C2603 C 0.35159 0.3007 0.62692 0.0
C2604 C 0.36337 0.28274 0.5952 0.0
C2605 C 0.35061 0.27179 0.58755 0.0
C2606 C 0.37695 0.28606 0.58868 0.0
C2607 C 0.39079 0.29839 0.59507 0.0
C2608 C 0.39272 0.31207 0.59587 0.0
C2609 C 0.40572 0.32364 0.60202 0.0
C2610 C 0.41691 0.32168 0.60732 0.0
C2611 C 0.41514 0.30816 0.60644 0.0
C2612 C 0.40216 0.29655 0.60032 0.0
C2613 C 0.36097 0.24649 0.52767 0.0
C2614 C 0.36596 0.23755 0.53288 0.0
C2615 C 0.36076 0.25608 0.53917 0.0
C2616 C 0.36576 0.25698 0.5559 0.0
C2617 C 0.37124 0.24842 0.5609 0.0
C2618 C 0.3712 0.23869 0.54953 0.0
C2619 C 0.36463 0.26623 0.56863 0.0
C2620 C 0.37738 0.2776 0.57565 0.0
C2621 C 0.35108 0.26347 0.57437 0.0
C2622 C 0.33726 0.25157 0.56742 0.0
C2623 C 0.33389 0.23739 0.56872 0.0
C2624 C 0.32089 0.22625 0.56198 0.0
C2625 C 0.31112 0.22915 0.55403 0.0
C2626 C 0.31431 0.24321 0.55287 0.0
C2627 C 0.32732 0.25439 0.55957 0.0
H2628 H 0.30105 0.22052 0.54882 0.0
H2629 H 0.42696 0.33065 0.61207 0.0
H2630 H 0.69238 0.07089 0.63925 0.0
H2631 H 0.70248 0.08164 0.61178 0.0
H2632 H 0.71627 0.05166 0.60426 0.0
H2633 H 0.70608 0.04072 0.63184 0.0
H2634 H 0.73828 0.07985 0.60037 0.0
H2635 H 0.69046 0.04927 0.57917 0.0
H2636 H 0.66388 0.03763 0.57846 0.0
H2637 H 0.6679 0.0784 0.57248 0.0
H2638 H 0.6945 0.09033 0.57341 0.0
H2639 H 0.77015 0.11551 0.5237 0.0
H2640 H 0.75421 0.09573 0.54248 0.0
H2641 H 0.7321 0.11749 0.55597 0.0
H2642 H 0.7478 0.13712 0.53694 0.0
H2643 H 0.71329 0.08953 0.55395 0.0
H2644 H 0.76007 0.12014 0.58042 0.0
H2645 H 0.7867 0.13262 0.58234 0.0
H2646 H 0.78452 0.09251 0.57979 0.0
H2647 H 0.75786 0.0798 0.57761 0.0
C2648 C 0.69737 0.06642 0.63167 0.0
C2649 C 0.69851 0.05501 0.63777 0.0
C2650 C 0.70305 0.07253 0.61591 0.0
C2651 C 0.71004 0.06739 0.60595 0.0
C2652 C 0.71085 0.05572 0.61175 0.0
C2653 C 0.705 0.04948 0.62747 0.0
C2654 C 0.71768 0.07518 0.59036 0.0
C2655 C 0.73278 0.08167 0.58999 0.0
C2656 C 0.71052 0.07783 0.57707 0.0
C2657 C 0.6945 0.07071 0.57646 0.0
C2658 C 0.68568 0.05578 0.57783 0.0
C2659 C 0.67061 0.04912 0.57737 0.0
C2660 C 0.66421 0.05727 0.57545 0.0
C2661 C 0.67287 0.0721 0.57397 0.0
C2662 C 0.68795 0.07881 0.57444 0.0
C2663 C 0.76178 0.11597 0.53055 0.0
C2664 C 0.76029 0.12789 0.52902 0.0
C2665 C 0.75269 0.10468 0.54126 0.0
C2666 C 0.74214 0.10525 0.55087 0.0
C2667 C 0.74016 0.11682 0.54869 0.0
C2668 C 0.74914 0.12803 0.53782 0.0
C2669 C 0.73391 0.09443 0.56416 0.0
C2670 C 0.71874 0.08744 0.56413 0.0
C2671 C 0.741 0.09143 0.57723 0.0
C2672 C 0.75701 0.09904 0.57864 0.0
C2673 C 0.76528 0.114 0.58014 0.0
C2674 C 0.78037 0.12111 0.5813 0.0
C2675 C 0.7873 0.11337 0.58113 0.0
C2676 C 0.77914 0.09849 0.57987 0.0
C2677 C 0.76404 0.09133 0.57868 0.0
H2678 H 0.79898 0.11889 0.58203 0.0
H2679 H 0.65253 0.0521 0.5751 0.0
H2680 H 0.93957 0.64336 0.63817 0.0
H2681 H 0.92008 0.63242 0.61677 0.0
H2682 H 0.92631 0.67371 0.60561 0.0
H2683 H 0.94551 0.68463 0.62682 0.0
H2684 H 0.89811 0.65391 0.60981 0.0
H2685 H 0.93898 0.65809 0.57941 0.0
H2686 H 0.95866 0.65346 0.57481 0.0
H2687 H 0.92779 0.60836 0.57358 0.0
H2688 H 0.90793 0.61273 0.5784 0.0
H2689 H 0.86843 0.65247 0.53073 0.0
H2690 H 0.88556 0.65658 0.55354 0.0
H2691 H 0.86895 0.6114 0.55634 0.0
H2692 H 0.85181 0.60719 0.53315 0.0
H2693 H 0.8996 0.6285 0.55861 0.0
H2694 H 0.85842 0.62467 0.58534 0.0
H2695 H 0.83883 0.62951 0.58942 0.0
H2696 H 0.87022 0.6739 0.59768 0.0
H2697 H 0.89001 0.66938 0.59338 0.0
C2698 C 0.93679 0.65009 0.63111 0.0
C2699 C 0.9441 0.66488 0.63425 0.0
C2700 C 0.92569 0.64383 0.61887 0.0
C2701 C 0.92176 0.65226 0.60958 0.0
C2702 C 0.9291 0.66699 0.61267 0.0
C2703 C 0.94014 0.67322 0.62481 0.0
C2704 C 0.90989 0.64598 0.59674 0.0
C2705 C 0.89847 0.6484 0.5986 0.0
C2706 C 0.91009 0.63834 0.58239 0.0
C2707 C 0.92201 0.63573 0.57949 0.0
C2708 C 0.93641 0.64719 0.57832 0.0
C2709 C 0.94759 0.64461 0.57563 0.0
C2710 C 0.94449 0.63062 0.57396 0.0
C2711 C 0.93018 0.61918 0.57492 0.0
C2712 C 0.91896 0.6217 0.57762 0.0
C2713 C 0.86855 0.64341 0.53597 0.0
C2714 C 0.85876 0.6295 0.5301 0.0
C2715 C 0.87827 0.64576 0.54912 0.0
C2716 C 0.8784 0.63428 0.55675 0.0
C2717 C 0.86897 0.6204 0.55064 0.0
C2718 C 0.85915 0.61801 0.53749 0.0
C2719 C 0.88817 0.63694 0.57144 0.0
C2720 C 0.89912 0.6338 0.56998 0.0
C2721 C 0.88758 0.64392 0.5862 0.0
C2722 C 0.87571 0.64669 0.58893 0.0
C2723 C 0.86115 0.63549 0.58791 0.0
C2724 C 0.85001 0.63817 0.59028 0.0
C2725 C 0.85328 0.65201 0.59378 0.0
C2726 C 0.86771 0.66319 0.59496 0.0
C2727 C 0.87889 0.66057 0.59258 0.0
H2728 H 0.84464 0.65406 0.59561 0.0
H2729 H 0.95316 0.62865 0.57188 0.0
H2730 H 0.97384 0.71331 0.71713 0.0
H2731 H 0.96389 0.7153 0.74401 0.0
H2732 H 0.94203 0.6697 0.75063 0.0
H2733 H 0.95211 0.66762 0.7238 0.0
H2734 H 0.92405 0.68144 0.75365 0.0
H2735 H 0.96888 0.68899 0.77578 0.0
H2736 H 0.99539 0.70013 0.7771 0.0
H2737 H 0.0005 0.74107 0.78593 0.0
H2738 H 0.97402 0.7302 0.78441 0.0
H2739 H 0.8955 0.68386 0.83269 0.0
H2740 H 0.90838 0.67895 0.8112 0.0
H2741 H 0.93897 0.72409 0.8057 0.0
H2742 H 0.92676 0.72907 0.82806 0.0
H2743 H 0.95268 0.71062 0.80324 0.0
H2744 H 0.90932 0.70473 0.77805 0.0
H2745 H 0.88307 0.69493 0.77528 0.0
H2746 H 0.87548 0.65263 0.77045 0.0
H2747 H 0.90168 0.66217 0.77341 0.0
C2748 C 0.96704 0.70372 0.72438 0.0
C2749 C 0.96372 0.6903 0.71832 0.0
C2750 C 0.96142 0.70488 0.73977 0.0
C2751 C 0.95228 0.69265 0.7493 0.0
C2752 C 0.94911 0.67926 0.74345 0.0
C2753 C 0.9549 0.6781 0.72816 0.0
C2754 C 0.94533 0.69384 0.7648 0.0
C2755 C 0.93026 0.68757 0.76466 0.0
C2756 C 0.95352 0.70222 0.77887 0.0
C2757 C 0.96946 0.70879 0.77984 0.0
C2758 C 0.97566 0.70038 0.77786 0.0
C2759 C 0.99068 0.70665 0.77867 0.0
C2760 C 0.99962 0.7213 0.78156 0.0
C2761 C 0.99356 0.72972 0.78368 0.0
C2762 C 0.97854 0.72351 0.78287 0.0
C2763 C 0.90516 0.69276 0.82723 0.0
C2764 C 0.90999 0.7069 0.83207 0.0
C2765 C 0.91241 0.68993 0.81474 0.0
C2766 C 0.92446 0.70116 0.80653 0.0
C2767 C 0.92963 0.71524 0.81175 0.0
C2768 C 0.92252 0.71808 0.82441 0.0
C2769 C 0.93136 0.69832 0.79207 0.0
C2770 C 0.94642 0.70433 0.79235 0.0
C2771 C 0.92319 0.6899 0.77795 0.0
C2772 C 0.90743 0.68414 0.77615 0.0
C2773 C 0.90204 0.69333 0.77653 0.0
C2774 C 0.88717 0.68782 0.7749 0.0
C2775 C 0.87761 0.67316 0.77274 0.0
C2776 C 0.8829 0.66398 0.77216 0.0
C2777 C 0.89775 0.66943 0.7738 0.0
H2778 H 0.8661 0.66892 0.77148 0.0
H2779 H 0.01125 0.72613 0.78219 0.0
H2780 H 0.3487 0.30256 0.74437 0.0
H2781 H 0.33897 0.28475 0.76692 0.0
H2782 H 0.30555 0.25469 0.7328 0.0
H2783 H 0.31488 0.27291 0.71035 0.0
H2784 H 0.29516 0.25037 0.76393 0.0
H2785 H 0.33719 0.25465 0.73925 0.0
H2786 H 0.36232 0.2669 0.72897 0.0
H2787 H 0.37818 0.28194 0.77945 0.0
H2788 H 0.35313 0.26995 0.79 0.0
H2789 H 0.29087 0.19024 0.80969 0.0
H2790 H 0.2934 0.20754 0.78825 0.0
H2791 H 0.31911 0.24194 0.82324 0.0
H2792 H 0.3161 0.22477 0.84505 0.0
H2793 H 0.33221 0.24262 0.79057 0.0
H2794 H 0.28839 0.23671 0.81447 0.0
H2795 H 0.26284 0.22272 0.82318 0.0
H2796 H 0.2499 0.20812 0.77189 0.0
H2797 H 0.27542 0.22186 0.76291 0.0
C2798 C 0.33912 0.29223 0.74178 0.0
C2799 C 0.33262 0.28901 0.72561 0.0
C2800 C 0.3336 0.28203 0.75464 0.0
C2801 C 0.32181 0.26821 0.75141 0.0
C2802 C 0.31474 0.26523 0.73555 0.0
C2803 C 0.32006 0.27562 0.72274 0.0
C2804 C 0.31768 0.25677 0.76423 0.0
C2805 C 0.30323 0.24856 0.7696 0.0
C2806 C 0.32818 0.25434 0.77165 0.0
C2807 C 0.34328 0.2615 0.76538 0.0
C2808 C 0.34604 0.26065 0.74814 0.0
C2809 C 0.36027 0.26754 0.74226 0.0
C2810 C 0.37184 0.27522 0.75354 0.0
C2811 C 0.36921 0.276 0.77073 0.0
C2812 C 0.355 0.26915 0.77667 0.0
C2813 C 0.29671 0.20144 0.81304 0.0
C2814 C 0.30342 0.20608 0.8291 0.0
C2815 C 0.29819 0.21132 0.80072 0.0
C2816 C 0.30647 0.22599 0.80419 0.0
C2817 C 0.31272 0.23064 0.82034 0.0
C2818 C 0.31109 0.2208 0.83272 0.0
C2819 C 0.30985 0.23654 0.79054 0.0
C2820 C 0.32417 0.24448 0.7849 0.0
C2821 C 0.29917 0.23842 0.78266 0.0
C2822 C 0.28384 0.23018 0.78806 0.0
C2823 C 0.28012 0.2304 0.80508 0.0
C2824 C 0.26563 0.22254 0.81006 0.0
C2825 C 0.25476 0.2145 0.79811 0.0
C2826 C 0.25834 0.21433 0.78114 0.0
C2827 C 0.27281 0.22216 0.7761 0.0
H2828 H 0.24355 0.20843 0.80199 0.0
H2829 H 0.38285 0.28055 0.74897 0.0
H2830 H 0.71979 0.03014 0.71936 0.0
H2831 H 0.73982 0.03717 0.73961 0.0
H2832 H 0.74433 0.07831 0.74562 0.0
H2833 H 0.72461 0.07151 0.72556 0.0
H2834 H 0.77028 0.08077 0.74118 0.0
H2835 H 0.72701 0.05213 0.77501 0.0
H2836 H 0.70414 0.03004 0.7822 0.0
H2837 H 0.72662 0.00755 0.78692 0.0
H2838 H 0.74961 0.02949 0.77954 0.0
H2839 H 0.80256 0.11259 0.81819 0.0
H2840 H 0.78524 0.09982 0.79529 0.0
H2841 H 0.7933 0.06541 0.79944 0.0
H2842 H 0.81069 0.07816 0.82267 0.0
H2843 H 0.76343 0.05621 0.7964 0.0
H2844 H 0.80749 0.08629 0.76737 0.0
H2845 H 0.83027 0.10866 0.76086 0.0
H2846 H 0.80645 0.12856 0.74711 0.0
H2847 H 0.78352 0.10637 0.7538 0.0
C2848 C 0.72508 0.04068 0.725 0.0
C2849 C 0.72057 0.05024 0.72084 0.0
C2850 C 0.73649 0.04466 0.73658 0.0
C2851 C 0.74355 0.05826 0.74413 0.0
C2852 C 0.73909 0.06779 0.73989 0.0
C2853 C 0.72774 0.06384 0.72844 0.0
C2854 C 0.75555 0.06282 0.75657 0.0
C2855 C 0.76879 0.0754 0.75325 0.0
C2856 C 0.75377 0.05554 0.77208 0.0
C2857 C 0.73997 0.04238 0.7765 0.0
C2858 C 0.72704 0.04244 0.77743 0.0
C2859 C 0.71407 0.02996 0.78157 0.0
C2860 C 0.71391 0.01739 0.78496 0.0
C2861 C 0.72675 0.01729 0.78426 0.0
C2862 C 0.73975 0.02974 0.7801 0.0
C2863 C 0.80055 0.10224 0.81438 0.0
C2864 C 0.80795 0.09635 0.82226 0.0
C2865 C 0.79074 0.09501 0.8012 0.0
C2866 C 0.78811 0.08175 0.79557 0.0
C2867 C 0.79525 0.07567 0.80358 0.0
C2868 C 0.8052 0.08298 0.81675 0.0
C2869 C 0.7779 0.07447 0.78123 0.0
C2870 C 0.76505 0.06139 0.78417 0.0
C2871 C 0.78001 0.08129 0.76534 0.0
C2872 C 0.79378 0.09466 0.76118 0.0
C2873 C 0.80711 0.09546 0.76307 0.0
C2874 C 0.82005 0.10811 0.75933 0.0
C2875 C 0.81981 0.12003 0.7536 0.0
C2876 C 0.80662 0.11932 0.75156 0.0
C2877 C 0.79364 0.10669 0.7553 0.0
H2878 H 0.82985 0.12982 0.75071 0.0
H2879 H 0.70386 0.00774 0.78817 0.0
H2880 H 0.03626 0.33769 0.99735 0.0
H2881 H 0.05318 0.33256 0.01163 0.0
H2882 H 0.05207 0.3544 0.0565 0.0
H2883 H 0.03551 0.35991 0.04218 0.0
H2884 H 0.07851 0.35979 0.05202 0.0
H2885 H 0.03082 0.31763 0.05224 0.0
H2886 H 0.00807 0.2985 0.03934 0.0
H2887 H 0.03177 0.28429 0.01066 0.0
H2888 H 0.0547 0.30348 0.02322 0.0
H2889 H 0.09691 0.3265 0.11632 0.0
H2890 H 0.08404 0.33424 0.09793 0.0
H2891 H 0.09225 0.31563 0.05464 0.0
H2892 H 0.10556 0.30819 0.07283 0.0
H2893 H 0.06354 0.30882 0.0565 0.0
H2894 H 0.1113 0.35047 0.05885 0.0
H2895 H 0.13348 0.36938 0.07299 0.0
H2896 H 0.10884 0.38421 0.09839 0.0
H2897 H 0.08647 0.36526 0.08459 0.0
C2898 C 0.03978 0.34159 0.01016 0.0
C2899 C 0.03442 0.3491 0.01867 0.0
C2900 C 0.04939 0.33857 0.01835 0.0
C2901 C 0.05366 0.34282 0.03528 0.0
C2902 C 0.04889 0.35095 0.04347 0.0
C2903 C 0.03939 0.35407 0.03525 0.0
C2904 C 0.06247 0.33825 0.04479 0.0
C2905 C 0.07517 0.34864 0.05309 0.0
C2906 C 0.05827 0.32371 0.04598 0.0
C2907 C 0.04449 0.31209 0.03852 0.0
C2908 C 0.03119 0.31049 0.04309 0.0
C2909 C 0.01826 0.29963 0.03585 0.0
C2910 C 0.01848 0.29021 0.02415 0.0
C2911 C 0.03162 0.29161 0.0197 0.0
C2912 C 0.04459 0.30247 0.02688 0.0
C2913 C 0.09618 0.3242 0.10286 0.0
C2914 C 0.10237 0.31677 0.09608 0.0
C2915 C 0.08875 0.32859 0.09238 0.0
C2916 C 0.08731 0.32562 0.07491 0.0
C2917 C 0.09324 0.31802 0.0681 0.0
C2918 C 0.10078 0.31371 0.07855 0.0
C2919 C 0.07946 0.33035 0.06382 0.0
C2920 C 0.06694 0.31999 0.05527 0.0
C2921 C 0.08374 0.34489 0.06256 0.0
C2922 C 0.09719 0.35636 0.07079 0.0
C2923 C 0.11059 0.3577 0.06755 0.0
C2924 C 0.1232 0.36843 0.07549 0.0
C2925 C 0.12256 0.37797 0.08661 0.0
C2926 C 0.10932 0.37681 0.08978 0.0
C2927 C 0.09667 0.36608 0.08189 0.0
H2928 H 0.13234 0.38628 0.09275 0.0
H2929 H 0.00846 0.28181 0.01856 0.0
H2930 H 0.64356 0.67746 0.04238 0.0
H2931 H 0.64666 0.69803 0.05832 0.0
H2932 H 0.68537 0.7259 0.03014 0.0
H2933 H 0.68227 0.70549 0.01401 0.0
H2934 H 0.68848 0.72906 0.06624 0.0
H2935 H 0.65694 0.72698 0.0211 0.0
H2936 H 0.63487 0.71525 0.00327 0.0
H2937 H 0.60867 0.70695 0.04745 0.0
H2938 H 0.63059 0.71846 0.06559 0.0
H2939 H 0.70327 0.79647 0.09257 0.0
H2940 H 0.69829 0.77566 0.07609 0.0
H2941 H 0.6555 0.75161 0.09745 0.0
H2942 H 0.66002 0.77271 0.1131 0.0
H2943 H 0.65378 0.74567 0.06548 0.0
H2944 H 0.68404 0.74733 0.11089 0.0
H2945 H 0.70537 0.75801 0.12993 0.0
H2946 H 0.73302 0.76555 0.08739 0.0
H2947 H 0.71187 0.75509 0.06805 0.0
C2948 C 0.65265 0.68799 0.03947 0.0
C2949 C 0.66267 0.68985 0.02693 0.0
C2950 C 0.65439 0.69971 0.04856 0.0
C2951 C 0.66625 0.71345 0.04538 0.0
C2952 C 0.67617 0.71536 0.03277 0.0
C2953 C 0.67433 0.70369 0.02352 0.0
C2954 C 0.66861 0.7258 0.05559 0.0
C2955 C 0.68101 0.73283 0.06594 0.0
C2956 C 0.65857 0.73034 0.05561 0.0
C2957 C 0.64539 0.72344 0.04472 0.0
C2958 C 0.64647 0.72253 0.02703 0.0
C2959 C 0.63399 0.71595 0.01687 0.0
C2960 C 0.62038 0.71032 0.02423 0.0
C2961 C 0.61922 0.7113 0.04177 0.0
C2962 C 0.63166 0.71786 0.052 0.0
C2963 C 0.69271 0.78684 0.09362 0.0
C2964 C 0.68206 0.78634 0.10423 0.0
C2965 C 0.68995 0.77485 0.08435 0.0
C2966 C 0.67661 0.76195 0.08574 0.0
C2967 C 0.66591 0.7614 0.09623 0.0
C2968 C 0.66859 0.77347 0.10534 0.0
C2969 C 0.67378 0.7491 0.07611 0.0
C2970 C 0.66128 0.74193 0.06587 0.0
C2971 C 0.68362 0.74427 0.07641 0.0
C2972 C 0.69638 0.75054 0.088 0.0
C2973 C 0.69468 0.75136 0.10558 0.0
C2974 C 0.70674 0.75736 0.11643 0.0
C2975 C 0.72055 0.76249 0.10987 0.0
C2976 C 0.72232 0.76159 0.09245 0.0
C2977 C 0.7103 0.75561 0.08154 0.0
H2978 H 0.72987 0.76713 0.11829 0.0
H2979 H 0.61073 0.70524 0.01633 0.0
H2980 H 0.30559 0.98809 0.03304 0.0
H2981 H 0.28068 0.97855 0.04255 0.0
H2982 H 0.27504 0.93686 0.04816 0.0
H2983 H 0.29966 0.94618 0.03852 0.0
H2984 H 0.25112 0.93485 0.03486 0.0
H2985 H 0.28447 0.95994 0.08196 0.0
H2986 H 0.30468 0.98119 0.09593 0.0
H2987 H 0.28212 0.0035 0.08973 0.0
H2988 H 0.26185 0.98242 0.07553 0.0
H2989 H 0.20516 0.89642 0.1013 0.0
H2990 H 0.2253 0.91082 0.08226 0.0
H2991 H 0.21548 0.94414 0.08315 0.0
H2992 H 0.19517 0.92967 0.10243 0.0
H2993 H 0.24477 0.95404 0.08886 0.0
H2994 H 0.20884 0.92613 0.04767 0.0
H2995 H 0.18865 0.90429 0.03473 0.0
H2996 H 0.21586 0.8868 0.03022 0.0
H2997 H 0.23616 0.90845 0.04337 0.0
C2998 C 0.29897 0.97686 0.0361 0.0
C2999 C 0.30467 0.96793 0.03518 0.0
C3000 C 0.28476 0.97143 0.04157 0.0
C3001 C 0.27606 0.95702 0.04624 0.0
C3002 C 0.28154 0.94801 0.04461 0.0
C3003 C 0.29568 0.95339 0.03917 0.0
C3004 C 0.26157 0.95131 0.05385 0.0
C3005 C 0.24971 0.93906 0.04664 0.0
C3006 C 0.25961 0.95707 0.06893 0.0
C3007 C 0.27175 0.9697 0.0775 0.0
C3008 C 0.28388 0.96942 0.08347 0.0
C3009 C 0.29533 0.98142 0.09144 0.0
C3010 C 0.29471 0.9937 0.09366 0.0
C3011 C 0.28261 0.99399 0.08796 0.0
C3012 C 0.27114 0.98203 0.07995 0.0
C3013 C 0.20727 0.90681 0.09744 0.0
C3014 C 0.19867 0.91198 0.10341 0.0
C3015 C 0.2187 0.91497 0.08644 0.0
C3016 C 0.22178 0.92848 0.08115 0.0
C3017 C 0.2132 0.9337 0.08701 0.0
C3018 C 0.20161 0.92543 0.09795 0.0
C3019 C 0.23451 0.93725 0.07023 0.0
C3020 C 0.24604 0.95007 0.07681 0.0
C3021 C 0.23618 0.93196 0.05461 0.0
C3022 C 0.22402 0.91892 0.04658 0.0
C3023 C 0.2105 0.9176 0.04402 0.0
C3024 C 0.19904 0.90525 0.03663 0.0
C3025 C 0.20097 0.89416 0.03167 0.0
C3026 C 0.21438 0.8954 0.03406 0.0
C3027 C 0.22588 0.90773 0.04146 0.0
H3028 H 0.19207 0.8846 0.02595 0.0
H3029 H 0.30358 0.00298 0.09984 0.0
H3030 H 0.32184 0.0286 0.02464 0.0
H3031 H 0.31824 0.04573 0.0089 0.0
H3032 H 0.3565 0.05816 0.97962 0.0
H3033 H 0.36016 0.04095 0.99523 0.0
H3034 H 0.35376 0.08147 0.99055 0.0
H3035 H 0.32575 0.03595 0.96222 0.0
H3036 H 0.30781 0.01012 0.96083 0.0
H3037 H 0.27476 0.01736 0.97843 0.0
H3038 H 0.29257 0.04323 0.98017 0.0
H3039 H 0.34158 0.11645 0.92262 0.0
H3040 H 0.34639 0.10085 0.93995 0.0
H3041 H 0.30413 0.08233 0.96247 0.0
H3042 H 0.29916 0.0977 0.94483 0.0
H3043 H 0.30904 0.06218 0.95555 0.0
H3044 H 0.33604 0.10724 0.98382 0.0
H3045 H 0.35354 0.1331 0.98638 0.0
H3046 H 0.38783 0.12708 0.97057 0.0
H3047 H 0.37049 0.10119 0.96769 0.0
C3048 C 0.32961 0.03509 0.015 0.0
C3049 C 0.34125 0.03335 0.01112 0.0
C3050 C 0.32749 0.04483 0.00598 0.0
C3051 C 0.33702 0.05309 0.993 0.0
C3052 C 0.34901 0.05186 0.98959 0.0
C3053 C 0.35106 0.04199 0.99849 0.0
C3054 C 0.33409 0.06253 0.98249 0.0
C3055 C 0.34408 0.07728 0.98273 0.0
C3056 C 0.32126 0.05704 0.97266 0.0
C3057 C 0.31052 0.04151 0.97149 0.0
C3058 C 0.31468 0.03202 0.96593 0.0
C3059 C 0.30454 0.01738 0.96505 0.0
C3060 C 0.29016 0.0121 0.96958 0.0
C3061 C 0.2859 0.02146 0.97495 0.0
C3062 C 0.29601 0.03612 0.97587 0.0
C3063 C 0.33336 0.10909 0.93133 0.0
C3064 C 0.32002 0.10832 0.93242 0.0
C3065 C 0.33612 0.1002 0.94127 0.0
C3066 C 0.32572 0.09056 0.95276 0.0
C3067 C 0.31233 0.08968 0.95373 0.0
C3068 C 0.30949 0.09845 0.94363 0.0
C3069 C 0.32871 0.08124 0.96357 0.0
C3070 C 0.31872 0.06646 0.96338 0.0
C3071 C 0.34147 0.08673 0.9736 0.0
C3072 C 0.35194 0.10229 0.97538 0.0
C3073 C 0.34729 0.11144 0.98077 0.0
C3074 C 0.35719 0.12611 0.9823 0.0
C3075 C 0.37178 0.13174 0.9786 0.0
C3076 C 0.37652 0.12271 0.97341 0.0
C3077 C 0.36667 0.10804 0.97184 0.0
H3078 H 0.37943 0.14309 0.97979 0.0
H3079 H 0.28232 0.00075 0.96889 0.0
H3080 H 0.94455 0.30335 0.99993 0.0
H3081 H 0.93583 0.27936 0.98955 0.0
H3082 H 0.97954 0.28805 0.98912 0.0
H3083 H 0.98848 0.31236 0.99935 0.0
H3084 H 0.9658 0.27609 0.95975 0.0
H3085 H 0.95552 0.26455 0.0178 0.0
H3086 H 0.94669 0.26487 0.04645 0.0
H3087 H 0.90334 0.24591 0.02691 0.0
H3088 H 0.91192 0.24567 0.99809 0.0
H3089 H 0.92942 0.20095 0.93468 0.0
H3090 H 0.94466 0.22275 0.95127 0.0
H3091 H 0.91026 0.23153 0.95107 0.0
H3092 H 0.8953 0.21038 0.93386 0.0
H3093 H 0.9234 0.23296 0.98419 0.0
H3094 H 0.93553 0.24938 0.92556 0.0
H3095 H 0.94462 0.24919 0.89701 0.0
H3096 H 0.9852 0.25858 0.9187 0.0
H3097 H 0.97625 0.25864 0.94742 0.0
C3098 C 0.95234 0.30016 0.99786 0.0
C3099 C 0.96723 0.30981 0.00045 0.0
C3100 C 0.94731 0.28637 0.992 0.0
C3101 C 0.957 0.28183 0.98873 0.0
C3102 C 0.97187 0.29132 0.99162 0.0
C3103 C 0.97694 0.30518 0.99752 0.0
C3104 C 0.95148 0.26751 0.9812 0.0
C3105 C 0.95678 0.26658 0.96533 0.0
C3106 C 0.93967 0.25509 0.9884 0.0
C3107 C 0.93439 0.25515 0.00574 0.0
C3108 C 0.94411 0.26053 0.01958 0.0
C3109 C 0.93915 0.26069 0.03586 0.0
C3110 C 0.92446 0.25543 0.03849 0.0
C3111 C 0.91471 0.24998 0.02485 0.0
C3112 C 0.91962 0.2498 0.00854 0.0
C3113 C 0.92515 0.2076 0.93797 0.0
C3114 C 0.91102 0.20376 0.93302 0.0
C3115 C 0.93384 0.21999 0.94756 0.0
C3116 C 0.9285 0.22863 0.95248 0.0
C3117 C 0.91448 0.22487 0.94756 0.0
C3118 C 0.90591 0.21269 0.9378 0.0
C3119 C 0.93739 0.24176 0.9626 0.0
C3120 C 0.93269 0.24241 0.97892 0.0
C3121 C 0.94981 0.25386 0.95588 0.0
C3122 C 0.95516 0.25381 0.93864 0.0
C3123 C 0.94633 0.25125 0.92426 0.0
C3124 C 0.95147 0.25121 0.90804 0.0
C3125 C 0.96546 0.25382 0.90605 0.0
C3126 C 0.97435 0.25652 0.92027 0.0
C3127 C 0.96926 0.25657 0.93651 0.0
H3128 H 0.96942 0.25379 0.89348 0.0
H3129 H 0.92064 0.25556 0.05111 0.0
H3130 H 0.69747 0.68183 0.99951 0.0
H3131 H 0.72125 0.698 0.98694 0.0
H3132 H 0.72477 0.66192 0.97346 0.0
H3133 H 0.70116 0.64577 0.98575 0.0
H3134 H 0.74884 0.70302 0.99268 0.0
H3135 H 0.7376 0.66628 0.93411 0.0
H3136 H 0.7168 0.64935 0.91632 0.0
H3137 H 0.69422 0.67046 0.9296 0.0
H3138 H 0.71496 0.68765 0.94725 0.0
H3139 H 0.81113 0.70992 0.95645 0.0
H3140 H 0.78851 0.70423 0.96974 0.0
H3141 H 0.77654 0.71846 0.92484 0.0
H3142 H 0.7989 0.72352 0.91112 0.0
H3143 H 0.75558 0.69357 0.93292 0.0
H3144 H 0.78355 0.73639 0.96366 0.0
H3145 H 0.80396 0.75469 0.98081 0.0
H3146 H 0.79274 0.7247 0.02154 0.0
H3147 H 0.77238 0.70615 0.00455 0.0
C3148 C 0.70337 0.67736 0.99398 0.0
C3149 C 0.69734 0.66249 0.99348 0.0
C3150 C 0.71695 0.68662 0.98683 0.0
C3151 C 0.72463 0.68113 0.97902 0.0
C3152 C 0.71889 0.66636 0.97915 0.0
C3153 C 0.70539 0.65714 0.98625 0.0
C3154 C 0.73847 0.6906 0.97022 0.0
C3155 C 0.75035 0.70108 0.97958 0.0
C3156 C 0.74026 0.68837 0.95295 0.0
C3157 C 0.72782 0.67821 0.9421 0.0
C3158 C 0.72824 0.66737 0.93315 0.0
C3159 C 0.71644 0.65771 0.92311 0.0
C3160 C 0.70418 0.65881 0.92186 0.0
C3161 C 0.7037 0.66959 0.93061 0.0
C3162 C 0.71547 0.67929 0.94065 0.0
C3163 C 0.80374 0.71194 0.94943 0.0
C3164 C 0.80675 0.717 0.93263 0.0
C3165 C 0.79088 0.70887 0.95715 0.0
C3166 C 0.78083 0.711 0.94835 0.0
C3167 C 0.78414 0.71675 0.93189 0.0
C3168 C 0.79698 0.71974 0.92411 0.0
C3169 C 0.76624 0.7056 0.95558 0.0
C3170 C 0.75413 0.69581 0.94592 0.0
C3171 C 0.76424 0.70872 0.97243 0.0
C3172 C 0.77646 0.71984 0.98277 0.0
C3173 C 0.78548 0.73366 0.97623 0.0
C3174 C 0.79704 0.74409 0.98593 0.0
C3175 C 0.79965 0.74086 0.00225 0.0
C3176 C 0.7907 0.72719 0.0089 0.0
C3177 C 0.77913 0.71672 0.99925 0.0
H3178 H 0.8086 0.74895 0.00974 0.0
H3179 H 0.69506 0.65131 0.91409 0.0
H3180 H 0.98237 0.66337 0.97749 0.0
H3181 H 0.9674 0.67184 0.96534 0.0
H3182 H 0.9554 0.67716 0.01559 0.0
H3183 H 0.97064 0.66889 0.02799 0.0
H3184 H 0.93172 0.66319 0.98995 0.0
H3185 H 0.97833 0.70548 0.99897 0.0
H3186 H 0.00495 0.72029 0.99733 0.0
H3187 H 0.00242 0.71808 0.94287 0.0
H3188 H 0.97578 0.70309 0.94419 0.0
H3189 H 0.90008 0.70197 0.95992 0.0
H3190 H 0.91467 0.69496 0.97629 0.0
H3191 H 0.93756 0.69683 0.93083 0.0
H3192 H 0.92311 0.704 0.91445 0.0
H3193 H 0.95592 0.70813 0.95665 0.0
H3194 H 0.91002 0.66488 0.94712 0.0
H3195 H 0.88343 0.64926 0.94793 0.0
H3196 H 0.88452 0.65236 0.00234 0.0
H3197 H 0.91111 0.66817 0.00183 0.0
C3198 C 0.97646 0.6662 0.98601 0.0
C3199 C 0.97773 0.6655 0.00373 0.0
C3200 C 0.96796 0.67109 0.97902 0.0
C3201 C 0.96043 0.67523 0.98959 0.0
C3202 C 0.96119 0.67404 0.00726 0.0
C3203 C 0.96989 0.66934 0.0143 0.0
C3204 C 0.95211 0.68113 0.98199 0.0
C3205 C 0.93697 0.67315 0.98293 0.0
C3206 C 0.95904 0.69395 0.97254 0.0
C3207 C 0.97506 0.70305 0.97169 0.0
C3208 C 0.98345 0.70805 0.98665 0.0
C3209 C 0.99855 0.7165 0.98578 0.0
C3210 C 0.00537 0.72009 0.97001 0.0
C3211 C 0.99711 0.71528 0.95508 0.0
C3212 C 0.98202 0.70682 0.95588 0.0
C3213 C 0.90821 0.70087 0.95343 0.0
C3214 C 0.9104 0.70347 0.93588 0.0
C3215 C 0.91654 0.69686 0.96279 0.0
C3216 C 0.92708 0.69516 0.95475 0.0
C3217 C 0.92951 0.69808 0.93732 0.0
C3218 C 0.92126 0.7022 0.92797 0.0
C3219 C 0.93541 0.69011 0.9644 0.0
C3220 C 0.9506 0.69825 0.96381 0.0
C3221 C 0.92851 0.67737 0.97408 0.0
C3222 C 0.91253 0.66783 0.97442 0.0
C3223 C 0.90458 0.66232 0.95924 0.0
C3224 C 0.88951 0.65342 0.95965 0.0
C3225 C 0.88229 0.64985 0.97517 0.0
C3226 C 0.89013 0.65515 0.99032 0.0
C3227 C 0.9052 0.66408 0.98998 0.0
H3228 H 0.87062 0.64296 0.97546 0.0
H3229 H 0.01705 0.72661 0.96936 0.0
H3230 H 0.34382 0.30786 0.02235 0.0
H3231 H 0.33958 0.2865 0.00739 0.0
H3232 H 0.33737 0.30471 0.9597 0.0
H3233 H 0.34161 0.32611 0.97452 0.0
H3234 H 0.31469 0.27682 0.96398 0.0
H3235 H 0.36671 0.30362 0.96909 0.0
H3236 H 0.39002 0.31685 0.98449 0.0
H3237 H 0.37849 0.2797 0.01441 0.0
H3238 H 0.35502 0.2663 0.99933 0.0
H3239 H 0.31619 0.22764 0.90764 0.0
H3240 H 0.32128 0.24914 0.92292 0.0
H3241 H 0.32927 0.2327 0.96887 0.0
H3242 H 0.32455 0.21134 0.95346 0.0
H3243 H 0.34888 0.25961 0.96605 0.0
H3244 H 0.29721 0.23262 0.96176 0.0
H3245 H 0.27345 0.21897 0.94739 0.0
H3246 H 0.28343 0.2557 0.91747 0.0
H3247 H 0.30734 0.26952 0.9315 0.0
C3248 C 0.34252 0.30736 0.00867 0.0
C3249 C 0.34306 0.3187 0.99963 0.0
C3250 C 0.34013 0.29516 1.00014 0.0
C3251 C 0.33822 0.29406 0.98243 0.0
C3252 C 0.33881 0.30536 0.97338 0.0
C3253 C 0.3413 0.3176 0.98187 0.0
C3254 C 0.33527 0.28098 0.97336 0.0
C3255 C 0.32224 0.27314 0.96423 0.0
C3256 C 0.34493 0.27597 0.97416 0.0
C3257 C 0.35905 0.284 0.9832 0.0
C3258 C 0.3691 0.29831 0.97905 0.0
C3259 C 0.38235 0.30583 0.9877 0.0
C3260 C 0.38572 0.29913 0.00045 0.0
C3261 C 0.37586 0.28488 0.00455 0.0
C3262 C 0.36259 0.27731 0.99594 0.0
C3263 C 0.31895 0.22859 0.92102 0.0
C3264 C 0.31991 0.2178 0.92939 0.0
C3265 C 0.32182 0.24087 0.92977 0.0
C3266 C 0.32544 0.24247 0.94714 0.0
C3267 C 0.3265 0.23172 0.95548 0.0
C3268 C 0.32381 0.21953 0.94668 0.0
C3269 C 0.32828 0.25541 0.95655 0.0
C3270 C 0.34129 0.26324 0.96578 0.0
C3271 C 0.31852 0.26033 0.95601 0.0
C3272 C 0.30412 0.25206 0.94758 0.0
C3273 C 0.29438 0.23775 0.95203 0.0
C3274 C 0.28088 0.22999 0.94396 0.0
C3275 C 0.27695 0.23645 0.93149 0.0
C3276 C 0.2865 0.25071 0.92711 0.0
C3277 C 0.30002 0.25851 0.93513 0.0
H3278 H 0.26649 0.23043 0.92526 0.0
H3279 H 0.39598 0.30498 0.00714 0.0
H3280 H 0.69062 0.01472 0.9941 0.0
H3281 H 0.71427 0.02494 0.98046 0.0
H3282 H 0.71141 0.06073 0.96334 0.0
H3283 H 0.68788 0.05063 0.97675 0.0
H3284 H 0.71917 0.04931 0.9379 0.0
H3285 H 0.73284 0.06398 0.9966 0.0
H3286 H 0.7332 0.05977 0.02734 0.0
H3287 H 0.75179 0.03422 0.0179 0.0
H3288 H 0.75137 0.03813 0.98706 0.0
H3289 H 0.78799 0.10554 0.91739 0.0
H3290 H 0.76467 0.08949 0.93047 0.0
H3291 H 0.77815 0.05971 0.94205 0.0
H3292 H 0.80183 0.07602 0.92924 0.0
H3293 H 0.76483 0.0638 0.96911 0.0
H3294 H 0.75429 0.05187 0.91073 0.0
H3295 H 0.75424 0.05627 0.88001 0.0
H3296 H 0.72968 0.07618 0.88851 0.0
H3297 H 0.72977 0.07211 0.91932 0.0
C3298 C 0.69506 0.02479 0.98749 0.0
C3299 C 0.68733 0.03183 0.98649 0.0
C3300 C 0.70858 0.03063 0.97974 0.0
C3301 C 0.71458 0.04359 0.97089 0.0
C3302 C 0.70694 0.05068 0.97004 0.0
C3303 C 0.6935 0.0449 0.97779 0.0
C3304 C 0.7287 0.04983 0.96221 0.0
C3305 C 0.72916 0.05254 0.94473 0.0
C3306 C 0.74165 0.05353 0.97101 0.0
C3307 C 0.7419 0.05119 0.98953 0.0
C3308 C 0.73688 0.05735 0.00107 0.0
C3309 C 0.73712 0.05505 0.01851 0.0
C3310 C 0.74247 0.04669 0.02457 0.0
C3311 C 0.74763 0.04066 0.01319 0.0
C3312 C 0.7474 0.04292 0.99573 0.0
C3313 C 0.78606 0.09563 0.92281 0.0
C3314 C 0.79678 0.09208 0.92236 0.0
C3315 C 0.77267 0.08639 0.93014 0.0
C3316 C 0.76962 0.07333 0.93706 0.0
C3317 C 0.78028 0.06972 0.9367 0.0
C3318 C 0.79374 0.07898 0.9293 0.0
C3319 C 0.75533 0.06374 0.94492 0.0
C3320 C 0.75481 0.06034 0.9622 0.0
C3321 C 0.74229 0.05935 0.93593 0.0
C3322 C 0.74211 0.06175 0.91737 0.0
C3323 C 0.74896 0.05728 0.90607 0.0
C3324 C 0.74892 0.0597 0.88863 0.0
C3325 C 0.74198 0.06652 0.88232 0.0
C3326 C 0.73505 0.0709 0.89342 0.0
C3327 C 0.73508 0.06852 0.91088 0.0
H3328 H 0.74196 0.06838 0.86881 0.0
H3329 H 0.74265 0.04492 0.03807 0.0
H3330 H 0.67877 0.97486 0.0118 0.0
H3331 H 0.68184 0.95744 0.02751 0.0
H3332 H 0.64028 0.94129 0.05104 0.0
H3333 H 0.63736 0.95906 0.03575 0.0
H3334 H 0.65902 0.94439 0.07404 0.0
H3335 H 0.64612 0.92241 0.01931 0.0
H3336 H 0.64742 0.92086 0.9882 0.0
H3337 H 0.69113 0.93038 0.9927 0.0
H3338 H 0.69016 0.93218 0.02383 0.0
H3339 H 0.65672 0.88285 0.10832 0.0
H3340 H 0.65128 0.89819 0.09138 0.0
H3341 H 0.69498 0.92095 0.0726 0.0
H3342 H 0.70071 0.90603 0.08992 0.0
H3343 H 0.67379 0.91324 0.04704 0.0
H3344 H 0.68643 0.936 0.10204 0.0
H3345 H 0.68445 0.93685 0.13314 0.0
H3346 H 0.63997 0.92478 0.12779 0.0
H3347 H 0.64163 0.92366 0.09665 0.0
C3348 C 0.6702 0.96751 0.02018 0.0
C3349 C 0.6578 0.96834 0.0225 0.0
C3350 C 0.67194 0.9575 0.02912 0.0
C3351 C 0.66121 0.94789 0.04032 0.0
C3352 C 0.64872 0.94857 0.04248 0.0
C3353 C 0.64703 0.9587 0.03368 0.0
C3354 C 0.66333 0.9376 0.05032 0.0
C3355 C 0.66199 0.9374 0.06807 0.0
C3356 C 0.66749 0.92864 0.04262 0.0
C3357 C 0.66811 0.92755 0.0239 0.0
C3358 C 0.65605 0.92428 0.01366 0.0
C3359 C 0.65672 0.92334 0.99602 0.0
C3360 C 0.66936 0.92555 0.98848 0.0
C3361 C 0.68135 0.92868 0.99856 0.0
C3362 C 0.68074 0.92964 0.01621 0.0
C3363 C 0.66525 0.89123 0.10077 0.0
C3364 C 0.67918 0.8932 0.10056 0.0
C3365 C 0.66208 0.89993 0.09101 0.0
C3366 C 0.67275 0.91072 0.08079 0.0
C3367 C 0.68659 0.91262 0.08035 0.0
C3368 C 0.68981 0.90402 0.09021 0.0
C3369 C 0.66954 0.92014 0.07064 0.0
C3370 C 0.6707 0.92017 0.05291 0.0
C3371 C 0.66509 0.92884 0.07832 0.0
C3372 C 0.66411 0.92959 0.09703 0.0
C3373 C 0.67619 0.93341 0.10751 0.0
C3374 C 0.67513 0.93396 0.12514 0.0
C3375 C 0.66208 0.93083 0.13244 0.0
C3376 C 0.65007 0.92718 0.12212 0.0
C3377 C 0.65106 0.92659 0.10448 0.0
H3378 H 0.66129 0.93126 0.14609 0.0
H3379 H 0.66985 0.92482 0.97482 0.0
H3380 H 0.02521 0.69732 0.02763 0.0
H3381 H 0.03576 0.72045 0.04183 0.0
H3382 H 0.07765 0.72464 0.04181 0.0
H3383 H 0.06716 0.70143 0.02796 0.0
H3384 H 0.07108 0.72942 0.0726 0.0
H3385 H 0.06916 0.74488 0.01538 0.0
H3386 H 0.05667 0.74393 0.98861 0.0
H3387 H 0.02817 0.75298 0.01579 0.0
H3388 H 0.04039 0.75384 0.04276 0.0
H3389 H 0.11731 0.79936 0.09921 0.0
H3390 H 0.10484 0.77814 0.08127 0.0
H3391 H 0.06539 0.77865 0.08482 0.0
H3392 H 0.07798 0.80017 0.10266 0.0
H3393 H 0.06864 0.77111 0.05308 0.0
H3394 H 0.07012 0.7564 0.10965 0.0
H3395 H 0.08126 0.75656 0.13715 0.0
H3396 H 0.10873 0.74491 0.11225 0.0
H3397 H 0.09791 0.74489 0.08454 0.0
C3398 C 0.03671 0.70325 0.03043 0.0
C3399 C 0.04534 0.69749 0.02673 0.0
C3400 C 0.04273 0.7165 0.03851 0.0
C3401 C 0.05751 0.72431 0.04284 0.0
C3402 C 0.06621 0.71878 0.03864 0.0
C3403 C 0.0602 0.70552 0.03068 0.0
C3404 C 0.0638 0.73778 0.05271 0.0
C3405 C 0.07072 0.7386 0.06819 0.0
C3406 C 0.06276 0.74953 0.04735 0.0
C3407 C 0.05561 0.74931 0.0311 0.0
C3408 C 0.06018 0.7466 0.01565 0.0
C3409 C 0.05316 0.74609 0.00045 0.0
C3410 C 0.04161 0.74836 0.00051 0.0
C3411 C 0.03711 0.75121 0.01577 0.0
C3412 C 0.0441 0.75174 0.03101 0.0
C3413 C 0.10599 0.79497 0.09614 0.0
C3414 C 0.09854 0.80126 0.10253 0.0
C3415 C 0.09888 0.78286 0.08588 0.0
C3416 C 0.0841 0.77663 0.08199 0.0
C3417 C 0.07677 0.78324 0.08772 0.0
C3418 C 0.08395 0.7955 0.09791 0.0
C3419 C 0.07631 0.76286 0.07266 0.0
C3420 C 0.069 0.76192 0.05744 0.0
C3421 C 0.07681 0.75088 0.07832 0.0
C3422 C 0.08328 0.75076 0.09499 0.0
C3423 C 0.0786 0.75397 0.11002 0.0
C3424 C 0.08485 0.75402 0.12565 0.0
C3425 C 0.09572 0.75078 0.12644 0.0
C3426 C 0.10032 0.74743 0.11161 0.0
C3427 C 0.09412 0.74739 0.09594 0.0
H3428 H 0.10054 0.75083 0.13856 0.0
H3429 H 0.03618 0.74795 0.98873 0.0
H3430 H 0.30502 0.32742 0.0377 0.0
H3431 H 0.28042 0.31325 0.04881 0.0
H3432 H 0.27168 0.34545 0.03176 0.0
H3433 H 0.2965 0.35996 0.02165 0.0
H3434 H 0.26383 0.33995 0.06189 0.0
H3435 H 0.25545 0.31002 0.01385 0.0
H3436 H 0.25981 0.29524 0.99421 0.0
H3437 H 0.25376 0.26655 0.03489 0.0
H3438 H 0.24955 0.28126 0.05483 0.0
H3439 H 0.18792 0.29957 0.07576 0.0
H3440 H 0.20891 0.30587 0.05799 0.0
H3441 H 0.22764 0.29412 0.09855 0.0
H3442 H 0.20682 0.28812 0.11657 0.0
H3443 H 0.22918 0.28784 0.05585 0.0
H3444 H 0.24266 0.32257 0.10398 0.0
H3445 H 0.23645 0.33702 0.12183 0.0
H3446 H 0.23107 0.3564 0.07717 0.0
H3447 H 0.23703 0.34186 0.05909 0.0
C3448 C 0.29773 0.33131 0.03608 0.0
C3449 C 0.30264 0.3448 0.02894 0.0
C3450 C 0.28363 0.32318 0.04235 0.0
C3451 C 0.27409 0.32822 0.04109 0.0
C3452 C 0.27882 0.34135 0.03304 0.0
C3453 C 0.29299 0.34963 0.02721 0.0
C3454 C 0.25975 0.32061 0.04957 0.0
C3455 C 0.25627 0.32858 0.06029 0.0
C3456 C 0.24982 0.30571 0.04783 0.0
C3457 C 0.25232 0.29682 0.03587 0.0
C3458 C 0.25516 0.30062 0.01864 0.0
C3459 C 0.25758 0.29224 0.00744 0.0
C3460 C 0.2571 0.27998 0.01331 0.0
C3461 C 0.25415 0.27606 0.03037 0.0
C3462 C 0.25172 0.2844 0.04162 0.0
C3463 C 0.19631 0.29792 0.08068 0.0
C3464 C 0.19584 0.29343 0.09752 0.0
C3465 C 0.20824 0.30149 0.07053 0.0
C3466 C 0.21972 0.30038 0.07699 0.0
C3467 C 0.21878 0.29489 0.09335 0.0
C3468 C 0.20697 0.29158 0.10362 0.0
C3469 C 0.23361 0.30727 0.0679 0.0
C3470 C 0.2369 0.29919 0.05721 0.0
C3471 C 0.24335 0.3221 0.06937 0.0
C3472 C 0.24014 0.33107 0.08022 0.0
C3473 C 0.24006 0.32985 0.09799 0.0
C3474 C 0.2366 0.33806 0.10814 0.0
C3475 C 0.23334 0.3476 0.10064 0.0
C3476 C 0.23358 0.34899 0.08297 0.0
C3477 C 0.23699 0.34078 0.07277 0.0
H3478 H 0.23066 0.35395 0.10851 0.0
H3479 H 0.25898 0.27351 0.00462 0.0
H3480 H 0.68385 0.68124 0.38328 0.0
H3481 H 0.69934 0.67443 0.39776 0.0
H3482 H 0.71719 0.67275 0.34965 0.0
H3483 H 0.70138 0.67917 0.335 0.0
H3484 H 0.71086 0.65017 0.36756 0.0
H3485 H 0.73667 0.7003 0.37891 0.0
H3486 H 0.73995 0.72315 0.38854 0.0
H3487 H 0.72715 0.70633 0.4389 0.0
H3488 H 0.7236 0.6833 0.42952 0.0
H3489 H 0.7692 0.64588 0.40324 0.0
H3490 H 0.7549 0.65391 0.3881 0.0
H3491 H 0.73286 0.65143 0.43453 0.0
H3492 H 0.7473 0.6436 0.44982 0.0
H3493 H 0.742 0.67653 0.4171 0.0
H3494 H 0.71592 0.62616 0.40504 0.0
H3495 H 0.71321 0.60363 0.39508 0.0
H3496 H 0.72739 0.62156 0.3454 0.0
H3497 H 0.73039 0.64428 0.35514 0.0
C3498 C 0.69116 0.67955 0.37577 0.0
C3499 C 0.69139 0.68076 0.35797 0.0
C3500 C 0.70007 0.6757 0.38409 0.0
C3501 C 0.70958 0.67323 0.37483 0.0
C3502 C 0.70995 0.6746 0.35707 0.0
C3503 C 0.70094 0.67832 0.34872 0.0
C3504 C 0.7187 0.66867 0.38363 0.0
C3505 C 0.71785 0.65608 0.37821 0.0
C3506 C 0.7276 0.67618 0.39777 0.0
C3507 C 0.72974 0.69003 0.40347 0.0
C3508 C 0.73445 0.70144 0.39201 0.0
C3509 C 0.73637 0.71443 0.39743 0.0
C3510 C 0.73372 0.71618 0.41431 0.0
C3511 C 0.72918 0.70495 0.42582 0.0
C3512 C 0.72723 0.69193 0.42047 0.0
C3513 C 0.76134 0.64708 0.41023 0.0
C3514 C 0.75935 0.64409 0.42771 0.0
C3515 C 0.75311 0.65158 0.40155 0.0
C3516 C 0.74276 0.65318 0.41018 0.0
C3517 C 0.74078 0.65024 0.42764 0.0
C3518 C 0.74894 0.64566 0.43631 0.0
C3519 C 0.73409 0.65806 0.40103 0.0
C3520 C 0.73504 0.67069 0.40639 0.0
C3521 C 0.72537 0.65064 0.38677 0.0
C3522 C 0.72352 0.63697 0.38087 0.0
C3523 C 0.71858 0.62534 0.39203 0.0
C3524 C 0.71697 0.61253 0.38642 0.0
C3525 C 0.72016 0.61118 0.36963 0.0
C3526 C 0.72494 0.62263 0.3584 0.0
C3527 C 0.72659 0.63547 0.36396 0.0
H3528 H 0.71891 0.60125 0.3653 0.0
H3529 H 0.73522 0.72625 0.41848 0.0
H3530 H 0.32776 0.03347 0.3375 0.0
H3531 H 0.33412 0.05558 0.35227 0.0
H3532 H 0.32842 0.03462 0.40052 0.0
H3533 H 0.32174 0.01244 0.38589 0.0
H3534 H 0.31648 0.05019 0.40123 0.0
H3535 H 0.36243 0.05785 0.38377 0.0
H3536 H 0.3803 0.05922 0.36343 0.0
H3537 H 0.37864 0.09211 0.33582 0.0
H3538 H 0.36061 0.0908 0.35588 0.0
H3539 H 0.35226 0.11017 0.45526 0.0
H3540 H 0.34638 0.08898 0.43878 0.0
H3541 H 0.34962 0.11138 0.39237 0.0
H3542 H 0.35537 0.13263 0.40879 0.0
H3543 H 0.36252 0.09558 0.3898 0.0
H3544 H 0.31695 0.08821 0.40815 0.0
H3545 H 0.29949 0.08694 0.42904 0.0
H3546 H 0.30081 0.05341 0.45551 0.0
H3547 H 0.31845 0.05462 0.43491 0.0
C3548 C 0.32785 0.03356 0.35126 0.0
C3549 C 0.32427 0.02119 0.36051 0.0
C3550 C 0.33156 0.04623 0.35968 0.0
C3551 C 0.33194 0.04683 0.37752 0.0
C3552 C 0.32821 0.03444 0.38676 0.0
C3553 C 0.32442 0.02176 0.37836 0.0
C3554 C 0.33611 0.06029 0.38663 0.0
C3555 C 0.32663 0.06006 0.39885 0.0
C3556 C 0.34919 0.07328 0.38327 0.0
C3557 C 0.36006 0.07411 0.37122 0.0
C3558 C 0.36579 0.06529 0.37329 0.0
C3559 C 0.37596 0.06607 0.36182 0.0
C3560 C 0.38057 0.07572 0.34832 0.0
C3561 C 0.37504 0.08463 0.34627 0.0
C3562 C 0.36486 0.08388 0.35769 0.0
C3563 C 0.35166 0.11059 0.44155 0.0
C3564 C 0.35415 0.12306 0.43335 0.0
C3565 C 0.34834 0.09848 0.43215 0.0
C3566 C 0.34736 0.09854 0.41436 0.0
C3567 C 0.3503 0.1111 0.40609 0.0
C3568 C 0.35363 0.12325 0.41549 0.0
C3569 C 0.34296 0.08539 0.40448 0.0
C3570 C 0.35236 0.08569 0.39211 0.0
C3571 C 0.32983 0.07244 0.40774 0.0
C3572 C 0.31912 0.07159 0.42006 0.0
C3573 C 0.31359 0.08063 0.41849 0.0
C3574 C 0.30365 0.07991 0.43027 0.0
C3575 C 0.29907 0.07012 0.44362 0.0
C3576 C 0.30439 0.061 0.44518 0.0
C3577 C 0.31435 0.06169 0.43344 0.0
H3578 H 0.29137 0.06958 0.45273 0.0
H3579 H 0.38845 0.07631 0.33945 0.0
H3580 H 0.97937 0.32539 0.37043 0.0
H3581 H 0.95553 0.31565 0.3835 0.0
H3582 H 0.95015 0.27391 0.38485 0.0
H3583 H 0.97389 0.2835 0.37211 0.0
H3584 H 0.92705 0.29395 0.37676 0.0
H3585 H 0.9384 0.25981 0.42336 0.0
H3586 H 0.95934 0.26049 0.437 0.0
H3587 H 0.9842 0.30615 0.43253 0.0
H3588 H 0.96335 0.30576 0.41911 0.0
H3589 H 0.86342 0.23822 0.41587 0.0
H3590 H 0.88544 0.25446 0.40018 0.0
H3591 H 0.90599 0.27691 0.44673 0.0
H3592 H 0.88416 0.26032 0.46248 0.0
H3593 H 0.92263 0.27058 0.43231 0.0
H3594 H 0.89717 0.29243 0.41289 0.0
H3595 H 0.87694 0.2938 0.40052 0.0
H3596 H 0.88119 0.27667 0.35351 0.0
H3597 H 0.90132 0.275 0.36567 0.0
C3598 C 0.97299 0.31409 0.37325 0.0
C3599 C 0.97861 0.30526 0.37049 0.0
C3600 C 0.95937 0.30855 0.38068 0.0
C3601 C 0.95122 0.29413 0.38542 0.0
C3602 C 0.95639 0.28513 0.38156 0.0
C3603 C 0.96997 0.29064 0.37427 0.0
C3604 C 0.93793 0.28859 0.39565 0.0
C3605 C 0.92603 0.28887 0.38894 0.0
C3606 C 0.9368 0.28238 0.41176 0.0
C3607 C 0.94934 0.28274 0.42009 0.0
C3608 C 0.94831 0.27 0.42537 0.0
C3609 C 0.96017 0.27034 0.43305 0.0
C3610 C 0.97311 0.28335 0.43559 0.0
C3611 C 0.97419 0.29607 0.43051 0.0
C3612 C 0.96236 0.2958 0.42285 0.0
C3613 C 0.87255 0.24683 0.42264 0.0
C3614 C 0.87218 0.24801 0.44036 0.0
C3615 C 0.88511 0.25616 0.41367 0.0
C3616 C 0.8974 0.26699 0.42224 0.0
C3617 C 0.8967 0.26861 0.43984 0.0
C3618 C 0.88424 0.25916 0.44883 0.0
C3619 C 0.91143 0.27551 0.41329 0.0
C3620 C 0.92355 0.27577 0.42024 0.0
C3621 C 0.91279 0.2825 0.39763 0.0
C3622 C 0.9007 0.2835 0.39024 0.0
C3623 C 0.89372 0.28885 0.39995 0.0
C3624 C 0.88229 0.2897 0.39297 0.0
C3625 C 0.87777 0.2853 0.37625 0.0
C3626 C 0.8847 0.28007 0.36646 0.0
C3627 C 0.89614 0.27919 0.37339 0.0
H3628 H 0.86891 0.28597 0.37087 0.0
H3629 H 0.98228 0.28359 0.44152 0.0
H3630 H 0.02505 0.36883 0.31578 0.0
H3631 H 0.02345 0.38732 0.30058 0.0
H3632 H 0.0094 0.39787 0.34636 0.0
H3633 H 0.0107 0.37912 0.36164 0.0
H3634 H 0.9931 0.39635 0.32003 0.0
H3635 H 0.04389 0.41963 0.33121 0.0
H3636 H 0.06799 0.4224 0.33175 0.0
H3637 H 0.06728 0.41953 0.27734 0.0
H3638 H 0.04308 0.41655 0.27647 0.0
H3639 H 0.0018 0.46067 0.28572 0.0
H3640 H 0.00428 0.44366 0.3033 0.0
H3641 H 0.01568 0.42871 0.25904 0.0
H3642 H 0.01297 0.44547 0.24131 0.0
H3643 H 0.03385 0.43352 0.28607 0.0
H3644 H 0.9825 0.40919 0.2753 0.0
H3645 H 0.95847 0.40659 0.27496 0.0
H3646 H 0.96051 0.41184 0.32913 0.0
H3647 H 0.98466 0.41467 0.32977 0.0
C3648 C 0.02169 0.37512 0.32268 0.0
C3649 C 0.01803 0.37251 0.33996 0.0
C3650 C 0.02084 0.38575 0.31397 0.0
C3651 C 0.01648 0.39412 0.32237 0.0
C3652 C 0.01282 0.39156 0.33963 0.0
C3653 C 0.01361 0.38087 0.34835 0.0
C3654 C 0.01538 0.40527 0.31298 0.0
C3655 C 0.00209 0.40463 0.31285 0.0
C3656 C 0.02702 0.41591 0.30333 0.0
C3657 C 0.04161 0.41774 0.30379 0.0
C3658 C 0.04882 0.41948 0.31936 0.0
C3659 C 0.06251 0.42111 0.31973 0.0
C3660 C 0.06915 0.4211 0.30459 0.0
C3661 C 0.06212 0.41951 0.28905 0.0
C3662 C 0.04842 0.41787 0.28862 0.0
C3663 C 0.00468 0.45366 0.27968 0.0
C3664 C 0.00716 0.45444 0.26208 0.0
C3665 C 0.00614 0.44398 0.28976 0.0
C3666 C 0.01009 0.43488 0.28245 0.0
C3667 C 0.01269 0.43569 0.26494 0.0
C3668 C 0.01118 0.44532 0.25484 0.0
C3669 C 0.01155 0.4245 0.29302 0.0
C3670 C 0.0249 0.42529 0.29336 0.0
C3671 C -1e-05 0.41404 0.30291 0.0
C3672 C 0.98546 0.4123 0.30256 0.0
C3673 C 0.97788 0.40991 0.28712 0.0
C3674 C 0.96423 0.40837 0.28688 0.0
C3675 C 0.95799 0.40909 0.30201 0.0
C3676 C 0.96537 0.41131 0.31742 0.0
C3677 C 0.97904 0.41287 0.31773 0.0
H3678 H 0.94741 0.4079 0.30179 0.0
H3679 H 0.07975 0.42236 0.3049 0.0
H3680 H 0.60255 0.64284 0.3227 0.0
H3681 H 0.59153 0.61818 0.31332 0.0
H3682 H 0.63155 0.61975 0.32339 0.0
H3683 H 0.64277 0.64461 0.33274 0.0
H3684 H 0.62075 0.60909 0.29205 0.0
H3685 H 0.60278 0.59968 0.34838 0.0
H3686 H 0.59133 0.60216 0.37399 0.0
H3687 H 0.55181 0.58767 0.34606 0.0
H3688 H 0.56307 0.5853 0.3202 0.0
H3689 H 0.58384 0.53599 0.26567 0.0
H3690 H 0.59744 0.55698 0.28406 0.0
H3691 H 0.56284 0.56542 0.27991 0.0
H3692 H 0.54912 0.54436 0.26194 0.0
H3693 H 0.57329 0.56942 0.31211 0.0
H3694 H 0.59266 0.5829 0.2552 0.0
H3695 H 0.60403 0.5809 0.22921 0.0
H3696 H 0.64093 0.58801 0.25836 0.0
H3697 H 0.62967 0.58987 0.28457 0.0
C3698 C 0.609 0.63793 0.32312 0.0
C3699 C 0.62356 0.64572 0.32844 0.0
C3700 C 0.60264 0.62378 0.31783 0.0
C3701 C 0.61067 0.61708 0.31781 0.0
C3702 C 0.62515 0.62472 0.32338 0.0
C3703 C 0.63152 0.6389 0.32876 0.0
C3704 C 0.6041 0.60242 0.31086 0.0
C3705 C 0.61055 0.60031 0.2967 0.0
C3706 C 0.59068 0.59104 0.31677 0.0
C3707 C 0.58381 0.59239 0.33231 0.0
C3708 C 0.59168 0.59712 0.34766 0.0
C3709 C 0.58521 0.59849 0.36223 0.0
C3710 C 0.57086 0.59509 0.36165 0.0
C3711 C 0.56293 0.59029 0.34649 0.0
C3712 C 0.56934 0.58891 0.33188 0.0
C3713 C 0.57908 0.54223 0.26888 0.0
C3714 C 0.56548 0.53863 0.26222 0.0
C3715 C 0.58688 0.55424 0.2793 0.0
C3716 C 0.5812 0.56283 0.28321 0.0
C3717 C 0.56743 0.55896 0.27704 0.0
C3718 C 0.55967 0.547 0.26663 0.0
C3719 C 0.58975 0.57624 0.29306 0.0
C3720 C 0.58365 0.57811 0.30773 0.0
C3721 C 0.60347 0.58742 0.28761 0.0
C3722 C 0.61025 0.58634 0.27186 0.0
C3723 C 0.60314 0.58392 0.25608 0.0
C3724 C 0.60957 0.58283 0.24131 0.0
C3725 C 0.62317 0.58427 0.24214 0.0
C3726 C 0.63038 0.58686 0.25774 0.0
C3727 C 0.62399 0.58793 0.27256 0.0
H3728 H 0.62814 0.58343 0.23069 0.0
H3729 H 0.56588 0.59617 0.37294 0.0
H3730 H 0.35152 0.96152 0.32748 0.0
H3731 H 0.37617 0.97196 0.31753 0.0
H3732 H 0.3838 0.0142 0.32538 0.0
H3733 H 0.3588 0.00375 0.33522 0.0
H3734 H 0.39286 0.01179 0.29458 0.0
H3735 H 0.40068 0.00216 0.35087 0.0
H3736 H 0.39599 0.98844 0.37734 0.0
H3737 H 0.40098 0.95715 0.35094 0.0
H3738 H 0.40549 0.97057 0.32424 0.0
H3739 H 0.4659 0.03457 0.2686 0.0
H3740 H 0.44589 0.03168 0.28599 0.0
H3741 H 0.424 0.98602 0.27998 0.0
H3742 H 0.44355 0.98876 0.26211 0.0
H3743 H 0.42537 0.99525 0.31402 0.0
H3744 H 0.41315 0.00336 0.25711 0.0
H3745 H 0.41781 0.01728 0.23079 0.0
H3746 H 0.42163 0.05229 0.25947 0.0
H3747 H 0.41718 0.03862 0.28601 0.0
C3748 C 0.35843 0.97304 0.3273 0.0
C3749 C 0.35316 0.9818 0.33212 0.0
C3750 C 0.3726 0.979 0.32169 0.0
C3751 C 0.3819 0.99386 0.32091 0.0
C3752 C 0.3768 0.0027 0.32598 0.0
C3753 C 0.36255 0.99672 0.33164 0.0
C3754 C 0.39655 0.99989 0.31364 0.0
C3755 C 0.40015 0.0085 0.29911 0.0
C3756 C 0.40603 0.99549 0.31946 0.0
C3757 C 0.40337 0.98737 0.33551 0.0
C3758 C 0.40069 0.99231 0.35067 0.0
C3759 C 0.39807 0.98459 0.36573 0.0
C3760 C 0.39817 0.97192 0.36582 0.0
C3761 C 0.40091 0.96697 0.35086 0.0
C3762 C 0.40353 0.97465 0.33576 0.0
C3763 C 0.45675 0.02392 0.27078 0.0
C3764 C 0.45638 0.01189 0.26395 0.0
C3765 C 0.44539 0.0223 0.28083 0.0
C3766 C 0.43353 0.00864 0.28429 0.0
C3767 C 0.43315 0.99664 0.27758 0.0
C3768 C 0.44438 0.99825 0.26741 0.0
C3769 C 0.42132 0.00666 0.2947 0.0
C3770 C 0.41822 0.99883 0.3098 0.0
C3771 C 0.41239 0.01187 0.28949 0.0
C3772 C 0.41503 0.02005 0.27355 0.0
C3773 C 0.41512 0.01408 0.25782 0.0
C3774 C 0.41769 0.02191 0.24286 0.0
C3775 C 0.42007 0.03568 0.24346 0.0
C3776 C 0.41982 0.04163 0.25903 0.0
C3777 C 0.41728 0.03385 0.27403 0.0
H3778 H 0.42205 0.04173 0.23187 0.0
H3779 H 0.39614 0.96596 0.37749 0.0
H3780 H 0.64938 0.98469 0.31195 0.0
H3781 H 0.63149 0.9879 0.29694 0.0
H3782 H 0.61025 0.9847 0.34426 0.0
H3783 H 0.6282 0.9815 0.3595 0.0
H3784 H 0.5909 0.96945 0.31703 0.0
H3785 H 0.63144 0.0164 0.32899 0.0
H3786 H 0.65724 0.03543 0.32938 0.0
H3787 H 0.65827 0.03425 0.27492 0.0
H3788 H 0.63251 0.01504 0.27423 0.0
H3789 H 0.54951 0.99822 0.2854 0.0
H3790 H 0.56551 0.99312 0.30197 0.0
H3791 H 0.59246 0.00196 0.25804 0.0
H3792 H 0.57661 0.00725 0.2415 0.0
H3793 H 0.60867 0.01443 0.28484 0.0
H3794 H 0.56867 0.96738 0.27238 0.0
H3795 H 0.54306 0.9479 0.27143 0.0
H3796 H 0.54104 0.94871 0.32583 0.0
H3797 H 0.5666 0.96834 0.32709 0.0
C3798 C 0.64086 0.98456 0.31921 0.0
C3799 C 0.64029 0.98294 0.33697 0.0
C3800 C 0.63066 0.98643 0.31058 0.0
C3801 C 0.61966 0.9867 0.31952 0.0
C3802 C 0.6187 0.98456 0.33715 0.0
C3803 C 0.62898 0.98277 0.34584 0.0
C3804 C 0.60954 0.98976 0.31042 0.0
C3805 C 0.59472 0.97936 0.31018 0.0
C3806 C 0.61462 0.00256 0.3012 0.0
C3807 C 0.63008 0.01419 0.30157 0.0
C3808 C 0.6372 0.02012 0.31711 0.0
C3809 C 0.65181 0.03095 0.31738 0.0
C3810 C 0.6594 0.03603 0.30218 0.0
C3811 C 0.65238 0.0303 0.28668 0.0
C3812 C 0.63777 0.01945 0.28634 0.0
C3813 C 0.55878 0.99895 0.27925 0.0
C3814 C 0.5618 0.00312 0.26215 0.0
C3815 C 0.56791 0.99602 0.28873 0.0
C3816 C 0.58011 0.997 0.28121 0.0
C3817 C 0.58313 0.00116 0.26413 0.0
C3818 C 0.57408 0.0042 0.2547 0.0
C3819 C 0.58996 0.99405 0.29122 0.0
C3820 C 0.60478 0.00451 0.29168 0.0
C3821 C 0.58487 0.98126 0.30053 0.0
C3822 C 0.56951 0.96943 0.29981 0.0
C3823 C 0.56273 0.96348 0.28413 0.0
C3824 C 0.54823 0.9524 0.28354 0.0
C3825 C 0.54041 0.94709 0.29855 0.0
C3826 C 0.5471 0.95284 0.3142 0.0
C3827 C 0.5616 0.96394 0.31487 0.0
H3828 H 0.52919 0.93851 0.29807 0.0
H3829 H 0.67071 0.04441 0.30242 0.0
H3830 H 0.02847 0.66295 0.32787 0.0
H3831 H 0.02773 0.64362 0.31174 0.0
H3832 H 0.98353 0.61507 0.32716 0.0
H3833 H 0.98437 0.63423 0.34377 0.0
H3834 H 0.99743 0.60161 0.3284 0.0
H3835 H 0.99244 0.63079 0.28695 0.0
H3836 H 0.99903 0.65307 0.27188 0.0
H3837 H 0.03939 0.65786 0.25701 0.0
H3838 H 0.03312 0.6357 0.27219 0.0
H3839 H 0.97844 0.54906 0.26383 0.0
H3840 H 0.97988 0.56813 0.28128 0.0
H3841 H 0.02575 0.59405 0.27212 0.0
H3842 H 0.02456 0.5749 0.25513 0.0
H3843 H 0.01109 0.6087 0.26758 0.0
H3844 H 0.01508 0.57864 0.30911 0.0
H3845 H 0.00745 0.55589 0.32363 0.0
H3846 H 0.96741 0.55223 0.3376 0.0
H3847 H 0.97472 0.57487 0.32293 0.0
C3848 C 0.01861 0.65255 0.32788 0.0
C3849 C 0.00645 0.65015 0.33703 0.0
C3850 C 0.01817 0.64151 0.31857 0.0
C3851 C 0.00548 0.62794 0.31796 0.0
C3852 C 0.99343 0.62545 0.32739 0.0
C3853 C 0.99392 0.63643 0.33686 0.0
C3854 C 0.00471 0.61635 0.30742 0.0
C3855 C 0.00024 0.60312 0.31505 0.0
C3856 C 0.00859 0.61835 0.29004 0.0
C3857 C 0.01237 0.63166 0.28085 0.0
C3858 C 0.00277 0.63665 0.28057 0.0
C3859 C 0.00644 0.64925 0.27199 0.0
C3860 C 0.01964 0.65689 0.26353 0.0
C3861 C 0.02918 0.65194 0.26359 0.0
C3862 C 0.02557 0.63935 0.27216 0.0
C3863 C 0.98889 0.55873 0.26568 0.0
C3864 C 0.00139 0.5604 0.25805 0.0
C3865 C 0.98966 0.56965 0.27559 0.0
C3866 C 0.00293 0.58246 0.27804 0.0
C3867 C 0.01539 0.58425 0.27033 0.0
C3868 C 0.01466 0.5733 0.26054 0.0
C3869 C 0.00381 0.59404 0.28859 0.0
C3870 C 0.00829 0.60724 0.28094 0.0
C3871 C 0.99977 0.59195 0.30588 0.0
C3872 C 0.99539 0.57838 0.31477 0.0
C3873 C 0.0046 0.57292 0.31515 0.0
C3874 C 0.00034 0.56006 0.32343 0.0
C3875 C 0.98694 0.5526 0.3315 0.0
C3876 C 0.97778 0.55801 0.33133 0.0
C3877 C 0.98198 0.57086 0.32304 0.0
H3878 H 0.98366 0.54264 0.3379 0.0
H3879 H 0.02246 0.66665 0.2569 0.0
H3880 H 0.35893 0.35319 0.33318 0.0
H3881 H 0.38339 0.36428 0.3212 0.0
H3882 H 0.37054 0.38123 0.27987 0.0
H3883 H 0.34636 0.37065 0.29196 0.0
H3884 H 0.38703 0.36558 0.27228 0.0
H3885 H 0.38714 0.4035 0.3058 0.0
H3886 H 0.38395 0.413 0.33267 0.0
H3887 H 0.41555 0.40628 0.357 0.0
H3888 H 0.41875 0.39655 0.3303 0.0
H3889 H 0.44511 0.42006 0.22803 0.0
H3890 H 0.4232 0.40389 0.24341 0.0
H3891 H 0.44853 0.40942 0.28855 0.0
H3892 H 0.47047 0.42667 0.27362 0.0
H3893 H 0.42691 0.41055 0.29745 0.0
H3894 H 0.43089 0.37718 0.26404 0.0
H3895 H 0.43453 0.36659 0.23844 0.0
H3896 H 0.39632 0.36237 0.21562 0.0
H3897 H 0.39256 0.37311 0.24098 0.0
C3898 C 0.36135 0.35925 0.32151 0.0
C3899 C 0.3508 0.36115 0.31354 0.0
C3900 C 0.37527 0.36554 0.31471 0.0
C3901 C 0.37867 0.3735 0.29967 0.0
C3902 C 0.36805 0.37507 0.29147 0.0
C3903 C 0.35429 0.3691 0.29844 0.0
C3904 C 0.39343 0.38074 0.29265 0.0
C3905 C 0.39581 0.37542 0.27769 0.0
C3906 C 0.40492 0.39322 0.30018 0.0
C3907 C 0.40303 0.39912 0.31615 0.0
C3908 C 0.39328 0.40391 0.31693 0.0
C3909 C 0.39151 0.40937 0.33211 0.0
C3910 C 0.39951 0.41019 0.34655 0.0
C3911 C 0.40934 0.4056 0.34582 0.0
C3912 C 0.41114 0.40012 0.33067 0.0
C3913 C 0.44608 0.41799 0.24127 0.0
C3914 C 0.45963 0.42484 0.24957 0.0
C3915 C 0.4335 0.40847 0.25 0.0
C3916 C 0.43416 0.40517 0.26711 0.0
C3917 C 0.4477 0.41171 0.27534 0.0
C3918 C 0.46029 0.42148 0.2667 0.0
C3919 C 0.4206 0.39568 0.27658 0.0
C3920 C 0.41837 0.40055 0.29207 0.0
C3921 C 0.40934 0.38258 0.2697 0.0
C3922 C 0.41149 0.37604 0.25441 0.0
C3923 C 0.42331 0.37408 0.25352 0.0
C3924 C 0.42539 0.36804 0.23905 0.0
C3925 C 0.41567 0.36383 0.2254 0.0
C3926 C 0.40384 0.36563 0.22621 0.0
C3927 C 0.40172 0.37167 0.24064 0.0
H3928 H 0.4173 0.35916 0.21421 0.0
H3929 H 0.39812 0.41443 0.35829 0.0
H3930 H 0.3146 0.30304 0.37756 0.0
H3931 H 0.32051 0.28756 0.39336 0.0
H3932 H 0.33131 0.27502 0.34663 0.0
H3933 H 0.32538 0.2905 0.33063 0.0
H3934 H 0.31508 0.25215 0.36828 0.0
H3935 H 0.35785 0.29889 0.37115 0.0
H3936 H 0.37179 0.3248 0.37668 0.0
H3937 H 0.35921 0.3173 0.42905 0.0
H3938 H 0.34501 0.29134 0.42376 0.0
H3939 H 0.35158 0.22092 0.40679 0.0
H3940 H 0.34572 0.2358 0.38956 0.0
H3941 H 0.33794 0.25247 0.43507 0.0
H3942 H 0.34437 0.23808 0.4524 0.0
H3943 H 0.35308 0.27333 0.41315 0.0
H3944 H 0.30991 0.22686 0.41054 0.0
H3945 H 0.29554 0.20091 0.40531 0.0
H3946 H 0.30832 0.20775 0.353 0.0
H3947 H 0.32294 0.23374 0.35797 0.0
C3948 C 0.31815 0.29694 0.37059 0.0
C3949 C 0.31959 0.29807 0.35282 0.0
C3950 C 0.32157 0.28813 0.37967 0.0
C3951 C 0.32652 0.28029 0.37118 0.0
C3952 C 0.32756 0.28103 0.35341 0.0
C3953 C 0.32419 0.2899 0.34431 0.0
C3954 C 0.33085 0.27153 0.38096 0.0
C3955 C 0.32353 0.25679 0.37793 0.0
C3956 C 0.34166 0.27757 0.39378 0.0
C3957 C 0.35026 0.29318 0.39702 0.0
C3958 C 0.35796 0.30277 0.38381 0.0
C3959 C 0.36593 0.31746 0.38691 0.0
C3960 C 0.36636 0.32269 0.4032 0.0
C3961 C 0.35885 0.31323 0.41643 0.0
C3962 C 0.35085 0.29853 0.4134 0.0
C3963 C 0.34878 0.22787 0.41315 0.0
C3964 C 0.34841 0.22827 0.43099 0.0
C3965 C 0.34527 0.23626 0.40327 0.0
C3966 C 0.34119 0.24511 0.41101 0.0
C3967 C 0.34099 0.24567 0.42881 0.0
C3968 C 0.34454 0.23733 0.4387 0.0
C3969 C 0.33722 0.25388 0.4006 0.0
C3970 C 0.34464 0.26866 0.40349 0.0
C3971 C 0.32645 0.24785 0.38771 0.0
C3972 C 0.31764 0.23224 0.38467 0.0
C3973 C 0.30975 0.22282 0.39795 0.0
C3974 C 0.30154 0.20811 0.39503 0.0
C3975 C 0.30105 0.20269 0.37884 0.0
C3976 C 0.30874 0.21197 0.36553 0.0
C3977 C 0.31697 0.22669 0.36839 0.0
H3978 H 0.29469 0.19129 0.3766 0.0
H3979 H 0.37254 0.33407 0.40557 0.0
H3980 H 0.68954 0.02665 0.35958 0.0
H3981 H 0.69831 0.05128 0.36834 0.0
H3982 H 0.73907 0.05634 0.38371 0.0
H3983 H 0.73056 0.03202 0.37481 0.0
H3984 H 0.70614 0.06342 0.3987 0.0
H3985 H 0.76644 0.08921 0.37778 0.0
H3986 H 0.77998 0.08727 0.35401 0.0
H3987 H 0.74235 0.07072 0.32187 0.0
H3988 H 0.72862 0.07275 0.34535 0.0
H3989 H 0.75532 0.11775 0.45235 0.0
H3990 H 0.74038 0.09718 0.43423 0.0
H3991 H 0.75148 0.12486 0.39071 0.0
H3992 H 0.76706 0.14555 0.40876 0.0
H3993 H 0.7548 0.10387 0.38326 0.0
H3994 H 0.71641 0.1065 0.40656 0.0
H3995 H 0.70189 0.10911 0.42856 0.0
H3996 H 0.69377 0.0704 0.45231 0.0
H3997 H 0.70842 0.06765 0.43061 0.0
C3998 C 0.70042 0.03307 0.36468 0.0
C3999 C 0.70935 0.02736 0.36647 0.0
C4000 C 0.7054 0.04713 0.36969 0.0
C4001 C 0.71942 0.05573 0.37646 0.0
C4002 C 0.72833 0.05004 0.37818 0.0
C4003 C 0.7234 0.03606 0.37318 0.0
C4004 C 0.72465 0.0704 0.38265 0.0
C4005 C 0.71671 0.07232 0.39521 0.0
C4006 C 0.73821 0.08215 0.37765 0.0
C4007 C 0.74648 0.08108 0.36338 0.0
C4008 C 0.76107 0.08525 0.36561 0.0
C4009 C 0.76878 0.08411 0.35219 0.0
C4010 C 0.76202 0.07885 0.33645 0.0
C4011 C 0.74755 0.07475 0.33408 0.0
C4012 C 0.7398 0.07588 0.34745 0.0
C4013 C 0.75457 0.11949 0.43892 0.0
C4014 C 0.76251 0.13328 0.43197 0.0
C4015 C 0.74583 0.10772 0.4286 0.0
C4016 C 0.74465 0.10946 0.4111 0.0
C4017 C 0.75218 0.12327 0.40418 0.0
C4018 C 0.761 0.13509 0.41453 0.0
C4019 C 0.73665 0.09668 0.40001 0.0
C4020 C 0.74408 0.0951 0.38651 0.0
C4021 C 0.72248 0.08537 0.40387 0.0
C4022 C 0.71358 0.0869 0.41696 0.0
C4023 C 0.71161 0.09858 0.41653 0.0
C4024 C 0.70334 0.10008 0.42894 0.0
C4025 C 0.69692 0.08993 0.44183 0.0
C4026 C 0.69874 0.07825 0.44231 0.0
C4027 C 0.707 0.0767 0.42993 0.0
H4028 H 0.69053 0.09111 0.45143 0.0
H4029 H 0.76801 0.07796 0.32608 0.0
H4030 H 0.97324 0.69798 0.38481 0.0
H4031 H 0.94805 0.6834 0.39303 0.0
H4032 H 0.94455 0.64717 0.36708 0.0
H4033 H 0.97013 0.66172 0.35914 0.0
H4034 H 0.92399 0.67053 0.37628 0.0
H4035 H 0.9193 0.61661 0.38824 0.0
H4036 H 0.93485 0.60706 0.39552 0.0
H4037 H 0.96478 0.6462 0.4211 0.0
H4038 H 0.94932 0.6559 0.41414 0.0
H4039 H 0.85197 0.62591 0.40084 0.0
H4040 H 0.87421 0.63222 0.38572 0.0
H4041 H 0.89552 0.63543 0.43354 0.0
H4042 H 0.87317 0.62864 0.4486 0.0
H4043 H 0.90587 0.6262 0.40994 0.0
H4044 H 0.89668 0.66458 0.41516 0.0
H4045 H 0.88237 0.67601 0.41143 0.0
H4046 H 0.88281 0.6715 0.35731 0.0
H4047 H 0.89695 0.65984 0.36076 0.0
C4048 C 0.96716 0.68693 0.38075 0.0
C4049 C 0.97374 0.681 0.37136 0.0
C4050 C 0.9527 0.6786 0.38544 0.0
C4051 C 0.9444 0.66416 0.38078 0.0
C4052 C 0.9508 0.65824 0.37103 0.0
C4053 C 0.96539 0.66658 0.36645 0.0
C4054 C 0.92916 0.65549 0.38653 0.0
C4055 C 0.92 0.66074 0.38347 0.0
C4056 C 0.92394 0.64279 0.39605 0.0
C4057 C 0.93325 0.63703 0.40047 0.0
C4058 C 0.92919 0.62316 0.39544 0.0
C4059 C 0.93798 0.61772 0.39951 0.0
C4060 C 0.95083 0.62604 0.40871 0.0
C4061 C 0.95487 0.63979 0.41392 0.0
C4062 C 0.9461 0.64527 0.40989 0.0
C4063 C 0.86134 0.62766 0.40805 0.0
C4064 C 0.86095 0.62695 0.42587 0.0
C4065 C 0.87402 0.63127 0.39942 0.0
C4066 C 0.88662 0.6346 0.40852 0.0
C4067 C 0.88594 0.63292 0.42624 0.0
C4068 C 0.87318 0.62907 0.43485 0.0
C4069 C 0.90086 0.64142 0.39995 0.0
C4070 C 0.90978 0.6358 0.40242 0.0
C4071 C 0.90608 0.65408 0.39034 0.0
C4072 C 0.89771 0.6612 0.38823 0.0
C4073 C 0.89364 0.66595 0.40248 0.0
C4074 C 0.88557 0.67247 0.40041 0.0
C4075 C 0.88165 0.67444 0.38414 0.0
C4076 C 0.88583 0.66993 0.36991 0.0
C4077 C 0.89386 0.66337 0.37191 0.0
H4078 H 0.8754 0.67949 0.38257 0.0
H4079 H 0.95763 0.62182 0.41184 0.0
H4080 H 0.35579 0.0224 0.71429 0.0
H4081 H 0.37367 0.01903 0.72906 0.0
H4082 H 0.38401 0.00647 0.68198 0.0
H4083 H 0.36587 0.00954 0.66712 0.0
H4084 H 0.38105 0.98871 0.70667 0.0
H4085 H 0.40717 0.03939 0.70012 0.0
H4086 H 0.41135 0.06366 0.70191 0.0
H4087 H 0.40741 0.06004 0.75618 0.0
H4088 H 0.40301 0.03565 0.75469 0.0
H4089 H 0.44337 0.99088 0.74115 0.0
H4090 H 0.42745 0.99566 0.72394 0.0
H4091 H 0.41321 0.00667 0.76918 0.0
H4092 H 0.42896 0.00178 0.78648 0.0
H4093 H 0.4193 0.02583 0.74393 0.0
H4094 H 0.39199 0.97465 0.75004 0.0
H4095 H 0.38798 0.95045 0.74808 0.0
H4096 H 0.39452 0.9553 0.69418 0.0
H4097 H 0.39876 0.97963 0.69586 0.0
C4098 C 0.36192 0.01901 0.70702 0.0
C4099 C 0.35941 0.01626 0.6895 0.0
C4100 C 0.3722 0.01714 0.71549 0.0
C4101 C 0.38033 0.01266 0.7066 0.0
C4102 C 0.37789 0.00996 0.6891 0.0
C4103 C 0.36754 0.01176 0.68062 0.0
C4104 C 0.391 0.01035 0.71573 0.0
C4105 C 0.38957 0.99692 0.71457 0.0
C4106 C 0.40196 0.02096 0.72632 0.0
C4107 C 0.40464 0.03564 0.72727 0.0
C4108 C 0.40709 0.04372 0.71242 0.0
C4109 C 0.40952 0.05751 0.71339 0.0
C4110 C 0.40961 0.06337 0.72915 0.0
C4111 C 0.40732 0.05547 0.74398 0.0
C4112 C 0.40488 0.04168 0.74308 0.0
C4113 C 0.43675 0.99418 0.74746 0.0
C4114 C 0.43743 0.99592 0.76521 0.0
C4115 C 0.42769 0.99696 0.73759 0.0
C4116 C 0.41907 0.00144 0.74529 0.0
C4117 C 0.41981 0.00329 0.76297 0.0
C4118 C 0.42885 0.00052 0.77284 0.0
C4119 C 0.40924 0.00417 0.73497 0.0
C4120 C 0.41083 0.01768 0.73591 0.0
C4121 C 0.39847 0.99366 0.72414 0.0
C4122 C 0.39585 0.97901 0.7231 0.0
C4123 C 0.39269 0.9706 0.73779 0.0
C4124 C 0.39035 0.95685 0.73672 0.0
C4125 C 0.39104 0.95136 0.72102 0.0
C4126 C 0.39402 0.95958 0.70634 0.0
C4127 C 0.39638 0.97334 0.70734 0.0
H4128 H 0.38922 0.94071 0.72022 0.0
H4129 H 0.41149 0.07405 0.72986 0.0
H4130 H 0.99405 0.36384 0.66998 0.0
H4131 H 0.99516 0.38413 0.68427 0.0
H4132 H 0.98641 0.3621 0.73222 0.0
H4133 H 0.98498 0.34168 0.718 0.0
H4134 H 0.97134 0.37479 0.72946 0.0
H4135 H 0.02091 0.3886 0.72106 0.0
H4136 H 0.04209 0.39301 0.70451 0.0
H4137 H 0.03935 0.42423 0.67449 0.0
H4138 H 0.01802 0.41986 0.69073 0.0
H4139 H 0.99557 0.43314 0.78604 0.0
H4140 H 0.99298 0.41295 0.76993 0.0
H4141 H 0.99945 0.43608 0.72323 0.0
H4142 H 0.00184 0.45627 0.73923 0.0
H4143 H 0.0152 0.42316 0.72435 0.0
H4144 H 0.96603 0.40985 0.73395 0.0
H4145 H 0.94517 0.40551 0.7511 0.0
H4146 H 0.94749 0.37332 0.77952 0.0
H4147 H 0.9685 0.37762 0.76269 0.0
C4148 C 0.9923 0.36328 0.68356 0.0
C4149 C 0.98949 0.35116 0.69286 0.0
C4150 C 0.993 0.37492 0.69172 0.0
C4151 C 0.99108 0.37473 0.70937 0.0
C4152 C 0.98795 0.36251 0.7186 0.0
C4153 C 0.98717 0.35085 0.71045 0.0
C4154 C 0.99247 0.38729 0.71829 0.0
C4155 C 0.981 0.38533 0.72848 0.0
C4156 C 0.00494 0.40112 0.71673 0.0
C4157 C 0.01778 0.40379 0.70699 0.0
C4158 C 0.02476 0.39633 0.71084 0.0
C4159 C 0.0368 0.39883 0.70154 0.0
C4160 C 0.04203 0.40887 0.68843 0.0
C4161 C 0.03526 0.41645 0.68463 0.0
C4162 C 0.02321 0.41397 0.69389 0.0
C4163 C 0.99629 0.43389 0.77233 0.0
C4164 C 0.99884 0.44631 0.76393 0.0
C4165 C 0.99485 0.42235 0.76314 0.0
C4166 C 0.99587 0.42296 0.74536 0.0
C4167 C 0.99863 0.4354 0.73694 0.0
C4168 C 5e-05 0.44695 0.74612 0.0
C4169 C 0.99412 0.41062 0.73559 0.0
C4170 C 0.00552 0.41262 0.72525 0.0
C4171 C 0.98162 0.39682 0.73707 0.0
C4172 C 0.96893 0.39415 0.74715 0.0
C4173 C 0.96217 0.40192 0.74394 0.0
C4174 C 0.9503 0.39946 0.75359 0.0
C4175 C 0.94503 0.38917 0.76642 0.0
C4176 C 0.95159 0.3813 0.76959 0.0
C4177 C 0.96347 0.38374 0.75999 0.0
H4178 H 0.93584 0.38727 0.77388 0.0
H4179 H 0.05136 0.41079 0.68123 0.0
H4180 H 0.64971 0.65482 0.70178 0.0
H4181 H 0.62492 0.64281 0.71261 0.0
H4182 H 0.62871 0.60751 0.72951 0.0
H4183 H 0.65329 0.61927 0.71865 0.0
H4184 H 0.60319 0.59835 0.71372 0.0
H4185 H 0.63243 0.63321 0.75708 0.0
H4186 H 0.64939 0.65754 0.76776 0.0
H4187 H 0.61975 0.67047 0.75257 0.0
H4188 H 0.60269 0.64624 0.7416 0.0
H4189 H 0.55223 0.56205 0.77684 0.0
H4190 H 0.57462 0.57712 0.76143 0.0
H4191 H 0.56062 0.60638 0.74919 0.0
H4192 H 0.53798 0.5912 0.76459 0.0
H4193 H 0.5894 0.62025 0.75901 0.0
H4194 H 0.55873 0.58436 0.71911 0.0
H4195 H 0.54171 0.55991 0.7089 0.0
H4196 H 0.57389 0.54886 0.71738 0.0
H4197 H 0.59103 0.57319 0.72789 0.0
C4198 C 0.64524 0.64448 0.70776 0.0
C4199 C 0.65351 0.63803 0.7094 0.0
C4200 C 0.63109 0.63766 0.71398 0.0
C4201 C 0.62502 0.62432 0.72197 0.0
C4202 C 0.63318 0.61779 0.72336 0.0
C4203 C 0.64727 0.62457 0.71719 0.0
C4204 C 0.61022 0.61705 0.72913 0.0
C4205 C 0.60019 0.60312 0.72367 0.0
C4206 C 0.60616 0.62345 0.7417 0.0
C4207 C 0.61638 0.63798 0.74834 0.0
C4208 C 0.62959 0.64128 0.7559 0.0
C4209 C 0.6392 0.65504 0.76202 0.0
C4210 C 0.63567 0.66556 0.76079 0.0
C4211 C 0.62249 0.66232 0.75348 0.0
C4212 C 0.61284 0.64858 0.74732 0.0
C4213 C 0.55384 0.57163 0.77077 0.0
C4214 C 0.54324 0.57533 0.77173 0.0
C4215 C 0.56666 0.58025 0.762 0.0
C4216 C 0.56916 0.59273 0.75391 0.0
C4217 C 0.55885 0.59674 0.75528 0.0
C4218 C 0.54596 0.58809 0.76411 0.0
C4219 C 0.58256 0.60139 0.74398 0.0
C4220 C 0.5923 0.61557 0.74886 0.0
C4221 C 0.58638 0.59523 0.73084 0.0
C4222 C 0.57614 0.5806 0.72439 0.0
C4223 C 0.56215 0.5767 0.7189 0.0
C4224 C 0.55248 0.56286 0.71305 0.0
C4225 C 0.55671 0.55283 0.71252 0.0
C4226 C 0.57063 0.55664 0.7178 0.0
C4227 C 0.58033 0.57046 0.72369 0.0
H4228 H 0.54921 0.54212 0.70798 0.0
H4229 H 0.64313 0.6762 0.76554 0.0
H4230 H 0.70005 0.70954 0.65796 0.0
H4231 H 0.69539 0.7261 0.64242 0.0
H4232 H 0.65641 0.71154 0.67117 0.0
H4233 H 0.66101 0.69502 0.68683 0.0
H4234 H 0.65239 0.71232 0.63615 0.0
H4235 H 0.68492 0.74303 0.68005 0.0
H4236 H 0.70745 0.75447 0.69706 0.0
H4237 H 0.73228 0.77376 0.65207 0.0
H4238 H 0.7099 0.76226 0.63474 0.0
H4239 H 0.63643 0.76454 0.6108 0.0
H4240 H 0.64174 0.74877 0.62702 0.0
H4241 H 0.68368 0.76811 0.60347 0.0
H4242 H 0.67851 0.78411 0.58749 0.0
H4243 H 0.68639 0.76478 0.63578 0.0
H4244 H 0.65478 0.73448 0.59161 0.0
H4245 H 0.63275 0.72281 0.57372 0.0
H4246 H 0.60684 0.7024 0.61768 0.0
H4247 H 0.6287 0.7141 0.63589 0.0
C4248 C 0.69053 0.70993 0.66106 0.0
C4249 C 0.68091 0.70097 0.67365 0.0
C4250 C 0.68791 0.71942 0.65219 0.0
C4251 C 0.67558 0.72007 0.65569 0.0
C4252 C 0.66598 0.71119 0.66828 0.0
C4253 C 0.66867 0.7018 0.67726 0.0
C4254 C 0.67249 0.72978 0.64595 0.0
C4255 C 0.65972 0.72382 0.63623 0.0
C4256 C 0.68228 0.74471 0.64567 0.0
C4257 C 0.69574 0.75166 0.65608 0.0
C4258 C 0.69519 0.74961 0.67376 0.0
C4259 C 0.70794 0.75612 0.68346 0.0
C4260 C 0.72129 0.7648 0.67565 0.0
C4261 C 0.72193 0.76701 0.65811 0.0
C4262 C 0.70922 0.76051 0.64834 0.0
C4263 C 0.64674 0.76535 0.609 0.0
C4264 C 0.65704 0.77552 0.59783 0.0
C4265 C 0.64977 0.75632 0.61826 0.0
C4266 C 0.66304 0.75709 0.6163 0.0
C4267 C 0.67337 0.7673 0.60522 0.0
C4268 C 0.67041 0.77645 0.5961 0.0
C4269 C 0.66623 0.74736 0.62595 0.0
C4270 C 0.67904 0.7533 0.63565 0.0
C4271 C 0.65654 0.73237 0.62605 0.0
C4272 C 0.64337 0.72528 0.61513 0.0
C4273 C 0.64437 0.72758 0.59748 0.0
C4274 C 0.63192 0.72095 0.58728 0.0
C4275 C 0.6184 0.7119 0.59456 0.0
C4276 C 0.61731 0.70943 0.61206 0.0
C4277 C 0.62974 0.71605 0.62233 0.0
H4278 H 0.60877 0.70677 0.58664 0.0
H4279 H 0.73115 0.76984 0.68318 0.0
H4280 H 0.2721 0.97849 0.64776 0.0
H4281 H 0.26107 0.95372 0.63906 0.0
H4282 H 0.29529 0.95138 0.66432 0.0
H4283 H 0.30673 0.97651 0.6727 0.0
H4284 H 0.29035 0.93943 0.63438 0.0
H4285 H 0.26038 0.93458 0.68087 0.0
H4286 H 0.24514 0.94005 0.69843 0.0
H4287 H 0.21483 0.92837 0.65713 0.0
H4288 H 0.22998 0.923 0.63924 0.0
H4289 H 0.22606 0.85961 0.62363 0.0
H4290 H 0.2401 0.88125 0.64084 0.0
H4291 H 0.25748 0.90616 0.59522 0.0
H4292 H 0.24369 0.88459 0.57801 0.0
H4293 H 0.23783 0.90446 0.64119 0.0
H4294 H 0.29152 0.93373 0.60277 0.0
H4295 H 0.30707 0.92763 0.58682 0.0
H4296 H 0.29056 0.88898 0.61557 0.0
H4297 H 0.27508 0.89494 0.63187 0.0
C4298 C 0.27726 0.97272 0.65163 0.0
C4299 C 0.29029 0.97949 0.66099 0.0
C4300 C 0.27087 0.95849 0.6467 0.0
C4301 C 0.2772 0.95058 0.65128 0.0
C4302 C 0.29018 0.95726 0.66072 0.0
C4303 C 0.29668 0.9716 0.66553 0.0
C4304 C 0.2705 0.93556 0.64546 0.0
C4305 C 0.2789 0.93175 0.63599 0.0
C4306 C 0.25561 0.92539 0.6479 0.0
C4307 C 0.24636 0.92844 0.65869 0.0
C4308 C 0.2505 0.93324 0.6755 0.0
C4309 C 0.24188 0.93632 0.68552 0.0
C4310 C 0.22904 0.93458 0.67889 0.0
C4311 C 0.22478 0.92971 0.66225 0.0
C4312 C 0.23337 0.92662 0.65218 0.0
C4313 C 0.23307 0.86967 0.6173 0.0
C4314 C 0.23376 0.87043 0.59947 0.0
C4315 C 0.24101 0.88202 0.62714 0.0
C4316 C 0.24992 0.89529 0.61932 0.0
C4317 C 0.25083 0.89601 0.60154 0.0
C4318 C 0.24284 0.8837 0.59171 0.0
C4319 C 0.25758 0.90857 0.62957 0.0
C4320 C 0.24934 0.91206 0.63983 0.0
C4321 C 0.27265 0.91833 0.62811 0.0
C4322 C 0.28205 0.91474 0.61846 0.0
C4323 C 0.29126 0.92396 0.60576 0.0
C4324 C 0.30005 0.92052 0.59664 0.0
C4325 C 0.29977 0.90791 0.60015 0.0
C4326 C 0.29073 0.89872 0.61282 0.0
C4327 C 0.28192 0.90212 0.62198 0.0
H4328 H 0.30658 0.90526 0.59307 0.0
H4329 H 0.22238 0.93698 0.68667 0.0
H4330 H 0.0287 0.34429 0.65625 0.0
H4331 H 0.05289 0.35925 0.64392 0.0
H4332 H 0.06467 0.3294 0.66138 0.0
H4333 H 0.04045 0.31421 0.67317 0.0
H4334 H 0.08742 0.36174 0.66423 0.0
H4335 H 0.05337 0.32306 0.62547 0.0
H4336 H 0.0303 0.31027 0.60951 0.0
H4337 H 0.04051 0.34923 0.58456 0.0
H4338 H 0.06356 0.36228 0.6006 0.0
H4339 H 0.14154 0.36224 0.61539 0.0
H4340 H 0.12118 0.35854 0.63254 0.0
H4341 H 0.10889 0.37772 0.5931 0.0
H4342 H 0.1288 0.38054 0.57552 0.0
H4343 H 0.08655 0.35557 0.60174 0.0
H4344 H 0.12267 0.39357 0.63459 0.0
H4345 H 0.14557 0.40788 0.6505 0.0
H4346 H 0.13216 0.37388 0.6865 0.0
H4347 H 0.10926 0.35927 0.67068 0.0
C4348 C 0.03659 0.34112 0.65778 0.0
C4349 C 0.03273 0.32808 0.66554 0.0
C4350 C 0.05036 0.34966 0.65076 0.0
C4351 C 0.06051 0.34539 0.65179 0.0
C4352 C 0.05699 0.33288 0.66057 0.0
C4353 C 0.04315 0.3242 0.6672 0.0
C4354 C 0.07405 0.35282 0.64195 0.0
C4355 C 0.08734 0.36047 0.65056 0.0
C4356 C 0.07382 0.35154 0.62411 0.0
C4357 C 0.06006 0.34366 0.61437 0.0
C4358 C 0.05062 0.32891 0.6167 0.0
C4359 C 0.03757 0.32162 0.60762 0.0
C4360 C 0.03392 0.32895 0.59607 0.0
C4361 C 0.04334 0.34358 0.59354 0.0
C4362 C 0.05639 0.35092 0.60261 0.0
C4363 C 0.13462 0.36588 0.61057 0.0
C4364 C 0.13668 0.37169 0.59423 0.0
C4365 C 0.12303 0.36388 0.62042 0.0
C4366 C 0.11354 0.36805 0.6143 0.0
C4367 C 0.11601 0.3744 0.59815 0.0
C4368 C 0.12739 0.37607 0.58814 0.0
C4369 C 0.10027 0.36441 0.62396 0.0
C4370 C 0.08689 0.35732 0.61533 0.0
C4371 C 0.1005 0.36655 0.64176 0.0
C4372 C 0.11426 0.37529 0.65137 0.0
C4373 C 0.12464 0.3891 0.64584 0.0
C4374 C 0.13761 0.39727 0.65485 0.0
C4375 C 0.14032 0.39179 0.66949 0.0
C4376 C 0.13004 0.37812 0.67516 0.0
C4377 C 0.11705 0.3699 0.66619 0.0
H4378 H 0.15038 0.39813 0.67645 0.0
H4379 H 0.02381 0.32328 0.58904 0.0
H4380 H 0.301 0.33161 0.69068 0.0
H4381 H 0.28469 0.33683 0.67503 0.0
H4382 H 0.29123 0.31929 0.62948 0.0
H4383 H 0.30758 0.31407 0.64497 0.0
H4384 H 0.29485 0.34552 0.62413 0.0
H4385 H 0.25964 0.30125 0.65025 0.0
H4386 H 0.24774 0.28464 0.67409 0.0
H4387 H 0.23801 0.31407 0.69697 0.0
H4388 H 0.25003 0.33095 0.67337 0.0
H4389 H 0.24121 0.34417 0.57141 0.0
H4390 H 0.25583 0.33767 0.5884 0.0
H4391 H 0.24576 0.35278 0.63361 0.0
H4392 H 0.2305 0.35869 0.61678 0.0
H4393 H 0.24402 0.32819 0.6398 0.0
H4394 H 0.27894 0.37243 0.61421 0.0
H4395 H 0.29102 0.38949 0.5908 0.0
H4396 H 0.30176 0.36091 0.56762 0.0
H4397 H 0.28957 0.34359 0.59078 0.0
C4398 C 0.29885 0.32871 0.67738 0.0
C4399 C 0.30562 0.32244 0.66907 0.0
C4400 C 0.28949 0.33168 0.66846 0.0
C4401 C 0.28672 0.32841 0.6511 0.0
C4402 C 0.29324 0.32191 0.64286 0.0
C4403 C 0.30254 0.31889 0.65177 0.0
C4404 C 0.27754 0.33235 0.64131 0.0
C4405 C 0.28367 0.34157 0.62741 0.0
C4406 C 0.26311 0.32757 0.64594 0.0
C4407 C 0.25587 0.31743 0.66013 0.0
C4408 C 0.25507 0.30424 0.66044 0.0
C4409 C 0.24828 0.29476 0.67389 0.0
C4410 C 0.24216 0.29831 0.68706 0.0
C4411 C 0.24278 0.31134 0.68678 0.0
C4412 C 0.24957 0.32086 0.67336 0.0
C4413 C 0.24197 0.34599 0.58499 0.0
C4414 C 0.23466 0.35196 0.59271 0.0
C4415 C 0.25048 0.34241 0.59468 0.0
C4416 C 0.25207 0.34491 0.61226 0.0
C4417 C 0.24474 0.3508 0.62005 0.0
C4418 C 0.23614 0.35431 0.61037 0.0
C4419 C 0.26129 0.34128 0.6225 0.0
C4420 C 0.2552 0.33215 0.63652 0.0
C4421 C 0.27581 0.34623 0.61806 0.0
C4422 C 0.28322 0.35666 0.60415 0.0
C4423 C 0.28378 0.36974 0.60405 0.0
C4424 C 0.29067 0.37947 0.59084 0.0
C4425 C 0.29712 0.37627 0.57771 0.0
C4426 C 0.29674 0.36336 0.57779 0.0
C4427 C 0.28986 0.35359 0.59096 0.0
H4428 H 0.30245 0.38382 0.56749 0.0
H4429 H 0.2369 0.29096 0.69746 0.0
H4430 H 0.6938 0.99386 0.65839 0.0
H4431 H 0.69064 0.97274 0.64395 0.0
H4432 H 0.64883 0.94689 0.66723 0.0
H4433 H 0.65209 0.96787 0.68209 0.0
H4434 H 0.66244 0.93292 0.66722 0.0
H4435 H 0.65253 0.95868 0.62555 0.0
H4436 H 0.65745 0.97958 0.60848 0.0
H4437 H 0.69482 0.98161 0.58711 0.0
H4438 H 0.69024 0.96083 0.60424 0.0
H4439 H 0.63348 0.87399 0.60997 0.0
H4440 H 0.63796 0.89504 0.62593 0.0
H4441 H 0.68143 0.91887 0.60645 0.0
H4442 H 0.67696 0.8979 0.59029 0.0
H4443 H 0.66735 0.93381 0.60455 0.0
H4444 H 0.67624 0.9071 0.64618 0.0
H4445 H 0.67034 0.88576 0.66295 0.0
H4446 H 0.63351 0.88503 0.68398 0.0
H4447 H 0.63908 0.90626 0.66714 0.0
C4448 C 0.68397 0.98366 0.66053 0.0
C4449 C 0.67315 0.98257 0.67132 0.0
C4450 C 0.68214 0.97161 0.65219 0.0
C4451 C 0.66937 0.95826 0.65424 0.0
C4452 C 0.65875 0.95707 0.66539 0.0
C4453 C 0.66063 0.96909 0.67386 0.0
C4454 C 0.66696 0.94558 0.64457 0.0
C4455 C 0.66335 0.93308 0.6535 0.0
C4456 C 0.66837 0.94582 0.62667 0.0
C4457 C 0.67113 0.95829 0.61631 0.0
C4458 C 0.66186 0.96365 0.61731 0.0
C4459 C 0.66458 0.97547 0.60761 0.0
C4460 C 0.67646 0.98195 0.59675 0.0
C4461 C 0.68563 0.9766 0.59555 0.0
C4462 C 0.68298 0.96479 0.60524 0.0
C4463 C 0.64396 0.88374 0.60903 0.0
C4464 C 0.65488 0.88429 0.59891 0.0
C4465 C 0.64655 0.89571 0.61824 0.0
C4466 C 0.66007 0.90847 0.61748 0.0
C4467 C 0.67094 0.90911 0.60725 0.0
C4468 C 0.6684 0.89711 0.59813 0.0
C4469 C 0.66284 0.92121 0.62722 0.0
C4470 C 0.66649 0.9337 0.61828 0.0
C4471 C 0.66132 0.92091 0.64507 0.0
C4472 C 0.658 0.90819 0.65527 0.0
C4473 C 0.66681 0.90232 0.65428 0.0
C4474 C 0.66354 0.89025 0.66381 0.0
C4475 C 0.65153 0.88402 0.67449 0.0
C4476 C 0.6428 0.88986 0.67569 0.0
C4477 C 0.64601 0.90191 0.66616 0.0
H4478 H 0.64902 0.87468 0.68187 0.0
H4479 H 0.67855 0.9911 0.58925 0.0
H4480 H 0.01894 0.68196 0.66646 0.0
H4481 H 0.0441 0.69113 0.6582 0.0
H4482 H 0.04741 0.72976 0.63982 0.0
H4483 H 0.02262 0.7209 0.6483 0.0
H4484 H 0.05706 0.69813 0.62844 0.0
H4485 H 0.07991 0.75797 0.64572 0.0
H4486 H 0.0766 0.77177 0.66793 0.0
H4487 H 0.0609 0.7363 0.70217 0.0
H4488 H 0.06432 0.72236 0.68026 0.0
H4489 H 0.11353 0.74549 0.57583 0.0
H4490 H 0.09211 0.73078 0.59284 0.0
H4491 H 0.11811 0.74571 0.63858 0.0
H4492 H 0.1395 0.76124 0.62164 0.0
H4493 H 0.09606 0.74754 0.64286 0.0
H4494 H 0.10154 0.70997 0.62431 0.0
H4495 H 0.1057 0.69521 0.60443 0.0
H4496 H 0.06669 0.68429 0.57727 0.0
H4497 H 0.06238 0.69914 0.59683 0.0
C4498 C 0.02509 0.69245 0.66077 0.0
C4499 C 0.01878 0.70073 0.65814 0.0
C4500 C 0.03944 0.69766 0.65603 0.0
C4501 C 0.04773 0.71123 0.64866 0.0
C4502 C 0.04137 0.7194 0.64587 0.0
C4503 C 0.02713 0.71427 0.65065 0.0
C4504 C 0.06286 0.71686 0.64322 0.0
C4505 C 0.06565 0.70888 0.63169 0.0
C4506 C 0.07422 0.73068 0.64796 0.0
C4507 C 0.07231 0.73909 0.66129 0.0
C4508 C 0.07585 0.75314 0.65802 0.0
C4509 C 0.07392 0.76098 0.67055 0.0
C4510 C 0.06852 0.75491 0.68644 0.0
C4511 C 0.06505 0.74099 0.68984 0.0
C4512 C 0.06696 0.7331 0.67736 0.0
C4513 C 0.11473 0.74567 0.58951 0.0
C4514 C 0.12824 0.75471 0.59735 0.0
C4515 C 0.10248 0.73703 0.59924 0.0
C4516 C 0.10347 0.73697 0.61704 0.0
C4517 C 0.11706 0.74553 0.62488 0.0
C4518 C 0.12932 0.75433 0.61515 0.0
C4519 C 0.0901 0.7291 0.62735 0.0
C4520 C 0.08762 0.73668 0.63982 0.0
C4521 C 0.07919 0.71476 0.62383 0.0
C4522 C 0.08167 0.70574 0.61202 0.0
C4523 C 0.09389 0.70449 0.61404 0.0
C4524 C 0.09627 0.6961 0.60283 0.0
C4525 C 0.08647 0.68883 0.58959 0.0
C4526 C 0.07426 0.68992 0.58754 0.0
C4527 C 0.07183 0.69831 0.59871 0.0
H4528 H 0.08834 0.68233 0.58092 0.0
H4529 H 0.06703 0.76099 0.69612 0.0
H4530 H 0.98586 0.62852 0.66336 0.0
H4531 H 0.98866 0.61047 0.6782 0.0
H4532 H 0.97357 0.61913 0.72447 0.0
H4533 H 0.97073 0.63715 0.70979 0.0
H4534 H 0.99878 0.61917 0.72911 0.0
H4535 H 0.95201 0.58908 0.70289 0.0
H4536 H 0.93464 0.57936 0.67896 0.0
H4537 H 0.96005 0.56466 0.65519 0.0
H4538 H 0.97768 0.57447 0.67888 0.0
H4539 H 0.989 0.56262 0.78092 0.0
H4540 H 0.98539 0.57917 0.76411 0.0
H4541 H 0.99666 0.56546 0.71865 0.0
H4542 H 0.99955 0.54825 0.73528 0.0
H4543 H 0.97422 0.56816 0.7125 0.0
H4544 H 0.02073 0.59754 0.73832 0.0
H4545 H 0.0386 0.60741 0.76173 0.0
H4546 H 0.01471 0.62386 0.78543 0.0
H4547 H 0.99658 0.61392 0.76227 0.0
C4548 C 0.98301 0.62649 0.67665 0.0
C4549 C 0.97809 0.6343 0.68539 0.0
C4550 C 0.98459 0.61615 0.6851 0.0
C4551 C 0.98129 0.61345 0.70243 0.0
C4552 C 0.9762 0.62108 0.7111 0.0
C4553 C 0.97453 0.63133 0.70266 0.0
C4554 C 0.98366 0.60306 0.71174 0.0
C4555 C 0.99328 0.60797 0.72562 0.0
C4556 C 0.97684 0.58857 0.70681 0.0
C4557 C 0.96625 0.58265 0.69257 0.0
C4558 C 0.95396 0.58389 0.69248 0.0
C4559 C 0.94406 0.57834 0.67898 0.0
C4560 C 0.94627 0.57143 0.66553 0.0
C4561 C 0.95837 0.57003 0.66559 0.0
C4562 C 0.96831 0.57558 0.67906 0.0
C4563 C 0.99055 0.56296 0.76732 0.0
C4564 C 0.99458 0.55406 0.75948 0.0
C4565 C 0.98865 0.57259 0.75774 0.0
C4566 C 0.99097 0.57374 0.74014 0.0
C4567 C 0.99487 0.56481 0.73222 0.0
C4568 C 0.99667 0.55508 0.74179 0.0
C4569 C 0.98923 0.58422 0.73004 0.0
C4570 C 0.97977 0.57935 0.71598 0.0
C4571 C 0.9963 0.59881 0.73471 0.0
C4572 C 0.00723 0.60487 0.74862 0.0
C4573 C 0.01923 0.60317 0.74858 0.0
C4574 C 0.02942 0.60879 0.7618 0.0
C4575 C 0.02778 0.61623 0.77508 0.0
C4576 C 0.01596 0.61809 0.77515 0.0
C4577 C 0.00573 0.61247 0.76196 0.0
H4578 H 0.03567 0.62057 0.78531 0.0
H4579 H 0.93858 0.56714 0.65509 0.0
H4580 H 0.35109 0.35569 0.70677 0.0
H4581 H 0.36126 0.37953 0.71903 0.0
H4582 H 0.40358 0.39118 0.70094 0.0
H4583 H 0.39357 0.36715 0.68957 0.0
H4584 H 0.40616 0.39823 0.73163 0.0
H4585 H 0.38224 0.40509 0.68439 0.0
H4586 H 0.3618 0.39967 0.66531 0.0
H4587 H 0.33884 0.40357 0.70705 0.0
H4588 H 0.35907 0.40884 0.72644 0.0
H4589 H 0.44274 0.47266 0.74396 0.0
H4590 H 0.42793 0.4505 0.72818 0.0
H4591 H 0.39542 0.43514 0.76704 0.0
H4592 H 0.41048 0.45704 0.78346 0.0
H4593 H 0.38685 0.43031 0.72676 0.0
H4594 H 0.4117 0.42217 0.77379 0.0
H4595 H 0.43348 0.42908 0.79112 0.0
H4596 H 0.456 0.42887 0.74661 0.0
H4597 H 0.4344 0.42219 0.72897 0.0
C4598 C 0.36251 0.36345 0.70518 0.0
C4599 C 0.37158 0.35959 0.69732 0.0
C4600 C 0.36832 0.3771 0.71213 0.0
C4601 C 0.38321 0.38724 0.71089 0.0
C4602 C 0.39209 0.38355 0.70221 0.0
C4603 C 0.38636 0.36983 0.69565 0.0
C4604 C 0.38985 0.40122 0.71982 0.0
C4605 C 0.40195 0.40524 0.73032 0.0
C4606 C 0.38428 0.41035 0.71853 0.0
C4607 C 0.37211 0.40722 0.7069 0.0
C4608 C 0.37279 0.40469 0.68953 0.0
C4609 C 0.36125 0.40166 0.67865 0.0
C4610 C 0.34902 0.40124 0.68497 0.0
C4611 C 0.34832 0.40388 0.70217 0.0
C4612 C 0.35982 0.40691 0.71311 0.0
C4613 C 0.43244 0.46461 0.74921 0.0
C4614 C 0.42795 0.46654 0.76518 0.0
C4615 C 0.42392 0.45204 0.74004 0.0
C4616 C 0.41064 0.44125 0.74649 0.0
C4617 C 0.40562 0.44345 0.76184 0.0
C4618 C 0.41425 0.45597 0.77118 0.0
C4619 C 0.40304 0.42711 0.7382 0.0
C4620 C 0.39086 0.42313 0.72795 0.0
C4621 C 0.40862 0.41806 0.73944 0.0
C4622 C 0.42151 0.42184 0.75006 0.0
C4623 C 0.42134 0.42373 0.76768 0.0
C4624 C 0.43364 0.42758 0.77757 0.0
C4625 C 0.44613 0.42945 0.76997 0.0
C4626 C 0.44633 0.42744 0.75248 0.0
C4627 C 0.43406 0.42361 0.74254 0.0
H4628 H 0.45565 0.43244 0.77764 0.0
H4629 H 0.34009 0.39889 0.67653 0.0
H4630 H 0.64035 0.99777 0.696 0.0
H4631 H 0.6153 0.98517 0.70618 0.0
H4632 H 0.62096 0.02522 0.72256 0.0
H4633 H 0.64567 0.03781 0.71228 0.0
H4634 H 0.60421 0.9827 0.73715 0.0
H4635 H 0.5912 0.02604 0.71699 0.0
H4636 H 0.59691 0.04301 0.69347 0.0
H4637 H 0.60497 0.0168 0.66068 0.0
H4638 H 0.59911 0.99956 0.68391 0.0
H4639 H 0.55399 0.98507 0.79025 0.0
H4640 H 0.57394 0.98818 0.77291 0.0
H4641 H 0.54711 0.97748 0.72797 0.0
H4642 H 0.52736 0.97523 0.74513 0.0
H4643 H 0.57135 0.9999 0.72192 0.0
H4644 H 0.55847 0.95494 0.74434 0.0
H4645 H 0.55178 0.93631 0.76601 0.0
H4646 H 0.59308 0.96212 0.7906 0.0
H4647 H 0.59995 0.98101 0.76923 0.0
C4648 C 0.63622 0.00387 0.7017 0.0
C4649 C 0.64501 0.01881 0.70324 0.0
C4650 C 0.62192 0.99666 0.70753 0.0
C4651 C 0.61619 0.00428 0.71488 0.0
C4652 C 0.62502 0.01914 0.71659 0.0
C4653 C 0.63922 0.02633 0.71076 0.0
C4654 C 0.60113 0.99689 0.72126 0.0
C4655 C 0.59693 0.98633 0.73374 0.0
C4656 C 0.59145 0.0013 0.71637 0.0
C4657 C 0.59478 0.01154 0.70224 0.0
C4658 C 0.5941 0.02384 0.70473 0.0
C4659 C 0.59738 0.03352 0.69146 0.0
C4660 C 0.60132 0.031 0.6756 0.0
C4661 C 0.60195 0.01876 0.67298 0.0
C4662 C 0.59867 0.00904 0.6862 0.0
C4663 C 0.55231 0.98338 0.77667 0.0
C4664 C 0.53909 0.98004 0.76909 0.0
C4665 C 0.56368 0.98493 0.76678 0.0
C4666 C 0.56202 0.9829 0.74912 0.0
C4667 C 0.54866 0.97906 0.74158 0.0
C4668 C 0.53731 0.97765 0.75145 0.0
C4669 C 0.57465 0.98616 0.73847 0.0
C4670 C 0.57842 0.99599 0.72516 0.0
C4671 C 0.58373 0.98078 0.74231 0.0
C4672 C 0.5797 0.96943 0.7552 0.0
C4673 C 0.5661 0.95669 0.75443 0.0
C4674 C 0.56227 0.94608 0.76665 0.0
C4675 C 0.57199 0.94804 0.77968 0.0
C4676 C 0.58556 0.96062 0.78049 0.0
C4677 C 0.58944 0.97127 0.7683 0.0
H4678 H 0.56901 0.93981 0.78914 0.0
H4679 H 0.60388 0.03851 0.66535 0.0
loop_
_geom_bond_atom_site_label_1
_geom_bond_atom_site_label_2
_geom_bond_distance
_geom_bond_site_symmetry_2
_ccdc_geom_bond_type
Zn0 O3 2.031 1_554 S
Zn0 O5 2.049 . S
Zn0 O10 2.067 1_554 S
Zn1 O2 1.962 1_455 S
Zn1 O4 1.986 . S
Zn1 O6 1.996 1_455 S
Zn1 O9 1.943 . S
O2 Zn1 1.962 1_655 S
O2 C7 1.254 . S
O3 Zn0 2.031 1_556 S
O3 C7 1.269 1_556 S
O4 Zn1 1.986 . S
O4 C11 1.262 . S
O5 Zn0 2.049 . S
O5 C13 1.260 . S
O6 Zn1 1.996 1_655 S
O6 C13 1.257 . S
C7 O2 1.254 . S
C7 O3 1.269 1_554 S
C8 O9 1.249 1_556 S
C8 O10 1.270 1_455 S
O9 Zn1 1.943 . S
O9 C8 1.249 1_554 S
O10 Zn0 2.067 1_556 S
O10 C8 1.270 1_655 S
C11 O4 1.262 . S
C11 O12 1.232 . S
O12 C11 1.232 . S
C13 O5 1.260 . S
C13 O6 1.257 . S
Zn14 O17 2.031 1_554 S
Zn14 O19 2.049 . S
Zn14 O24 2.067 1_554 S
Zn15 O16 1.962 . S
Zn15 O18 1.986 . S
Zn15 O20 1.996 . S
Zn15 O23 1.943 . S
O16 Zn15 1.962 . S
O16 C21 1.254 . S
O17 Zn14 2.031 1_556 S
O17 C21 1.269 1_556 S
O18 Zn15 1.986 . S
O18 C25 1.262 . S
O19 Zn14 2.049 . S
O19 C27 1.260 . S
O20 Zn15 1.996 . S
O20 C27 1.257 . S
C21 O16 1.254 . S
C21 O17 1.269 1_554 S
C22 O23 1.249 1_556 S
C22 O24 1.270 . S
O23 Zn15 1.943 . S
O23 C22 1.249 1_554 S
O24 Zn14 2.067 1_556 S
O24 C22 1.270 . S
C25 O18 1.262 . S
C25 O26 1.232 . S
O26 C25 1.232 . S
C27 O19 1.260 . S
C27 O20 1.257 . S
Zn28 O31 2.031 . S
Zn28 O33 2.049 1_554 S
Zn28 O38 2.049 1_565 S
Zn29 O30 1.962 1_545 S
Zn29 O32 1.986 1_554 S
Zn29 O34 1.996 1_544 S
Zn29 O37 1.943 . S
O30 Zn29 1.962 1_565 S
O30 C35 1.254 . S
O31 Zn28 2.031 . S
O31 C35 1.269 . S
O32 Zn29 1.986 1_556 S
O32 C39 1.260 1_556 S
O33 Zn28 2.049 1_556 S
O33 C41 1.260 . S
O34 Zn29 1.996 1_566 S
O34 C41 1.257 . S
C35 O30 1.254 . S
C35 O31 1.269 . S
C36 O37 1.249 . S
C36 O38 1.305 . S
O37 Zn29 1.943 . S
O37 C36 1.249 . S
O38 Zn28 2.049 1_545 S
O38 C36 1.305 . S
C39 O32 1.260 1_554 S
C39 O40 1.236 . S
O40 C39 1.236 . S
C41 O33 1.260 . S
C41 O34 1.257 . S
Zn42 O45 2.031 . S
Zn42 O47 2.049 1_554 S
Zn42 O52 2.067 . S
Zn43 O44 1.962 1_655 S
Zn43 O46 1.986 1_554 S
Zn43 O48 1.996 1_654 S
Zn43 O51 1.943 . S
O44 Zn43 1.962 1_455 S
O44 C49 1.254 . S
O45 Zn42 2.031 . S
O45 C49 1.269 . S
O46 Zn43 1.986 1_556 S
O46 C53 1.264 . S
O47 Zn42 2.049 1_556 S
O47 C55 1.260 . S
O48 Zn43 1.996 1_456 S
O48 C55 1.257 . S
C49 O44 1.254 . S
C49 O45 1.269 . S
C50 O51 1.249 . S
C50 O52 1.270 1_655 S
O51 Zn43 1.943 . S
O51 C50 1.249 . S
O52 Zn42 2.067 . S
O52 C50 1.270 1_455 S
C53 O46 1.264 . S
C53 O54 1.229 1_556 S
O54 C53 1.229 1_554 S
C55 O47 1.260 . S
C55 O48 1.257 . S
Zn56 O59 2.031 . S
Zn56 O61 2.049 1_554 S
Zn56 O66 2.067 . S
Zn57 O58 1.962 . S
Zn57 O60 1.986 1_554 S
Zn57 O62 1.996 1_554 S
Zn57 O65 1.943 . S
O58 Zn57 1.962 . S
O58 C63 1.254 . S
O59 Zn56 2.031 . S
O59 C63 1.269 . S
O60 Zn57 1.986 1_556 S
O60 C67 1.262 . S
O61 Zn56 2.049 1_556 S
O61 C69 1.260 . S
O62 Zn57 1.996 1_556 S
O62 C69 1.257 . S
C63 O58 1.254 . S
C63 O59 1.269 . S
C64 O65 1.249 . S
C64 O66 1.270 . S
O65 Zn57 1.943 . S
O65 C64 1.249 . S
O66 Zn56 2.067 . S
O66 C64 1.270 . S
C67 O60 1.262 . S
C67 O68 1.232 1_556 S
O68 C67 1.232 1_554 S
C69 O61 1.260 . S
C69 O62 1.257 . S
Zn70 O73 2.013 1_554 S
Zn70 O75 2.049 . S
Zn70 O80 2.068 1_554 S
Zn71 O72 1.962 1_565 S
Zn71 O74 1.986 . S
Zn71 O76 1.996 1_565 S
Zn71 O79 1.943 . S
O72 Zn71 1.962 1_545 S
O72 C77 1.254 . S
O73 Zn70 2.013 1_556 S
O73 C77 1.258 1_556 S
O74 Zn71 1.986 . S
O74 C81 1.262 . S
O75 Zn70 2.049 . S
O75 C83 1.260 . S
O76 Zn71 1.996 1_545 S
O76 C83 1.257 . S
C77 O72 1.254 . S
C77 O73 1.258 1_554 S
C78 O79 1.249 1_556 S
C78 O80 1.270 1_565 S
O79 Zn71 1.943 . S
O79 C78 1.249 1_554 S
O80 Zn70 2.068 1_556 S
O80 C78 1.270 1_545 S
C81 O74 1.262 . S
C81 O82 1.232 . S
O82 C81 1.232 . S
C83 O75 1.260 . S
C83 O76 1.257 . S
Zn84 O87 2.031 . S
Zn84 O89 2.049 . S
Zn84 O94 2.067 . S
Zn85 O86 1.962 . S
Zn85 O88 1.986 . S
Zn85 O90 1.996 . S
Zn85 O93 1.943 . S
O86 Zn85 1.962 . S
O86 C91 1.254 . S
O87 Zn84 2.031 . S
O87 C91 1.269 . S
O88 Zn85 1.986 . S
O88 C95 1.262 . S
O89 Zn84 2.049 . S
O89 C97 1.260 . S
O90 Zn85 1.996 . S
O90 C97 1.257 . S
C91 O86 1.254 . S
C91 O87 1.269 . S
C92 O93 1.249 . S
C92 O94 1.270 . S
O93 Zn85 1.943 . S
O93 C92 1.249 . S
O94 Zn84 2.067 . S
O94 C92 1.270 . S
C95 O88 1.262 . S
C95 O96 1.232 . S
O96 C95 1.232 . S
C97 O89 1.260 . S
C97 O90 1.257 . S
Zn98 O101 2.031 . S
Zn98 O103 2.049 . S
Zn98 O108 2.067 . S
Zn99 O100 1.962 . S
Zn99 O102 1.986 1_565 S
Zn99 O104 1.996 . S
Zn99 O107 1.943 . S
O100 Zn99 1.962 . S
O100 C105 1.254 . S
O101 Zn98 2.031 . S
O101 C105 1.269 . S
O102 Zn99 1.986 1_545 S
O102 C109 1.262 . S
O103 Zn98 2.049 . S
O103 C111 1.260 . S
O104 Zn99 1.996 . S
O104 C111 1.257 . S
C105 O100 1.254 . S
C105 O101 1.269 . S
C106 O107 1.249 . S
C106 O108 1.270 . S
O107 Zn99 1.943 . S
O107 C106 1.249 . S
O108 Zn98 2.067 . S
O108 C106 1.270 . S
C109 O102 1.262 . S
C109 O110 1.232 . S
O110 C109 1.232 . S
C111 O103 1.260 . S
C111 O104 1.257 . S
Zn112 O115 2.031 . S
Zn112 O117 2.049 . S
Zn112 O122 2.067 . S
Zn113 O114 1.962 1_455 S
Zn113 O116 1.986 . S
Zn113 O118 1.996 . S
Zn113 O121 1.943 . S
O114 Zn113 1.962 1_655 S
O114 C119 1.254 . S
O115 Zn112 2.031 . S
O115 C119 1.269 1_455 S
O116 Zn113 1.986 . S
O116 C123 1.262 . S
O117 Zn112 2.049 . S
O117 C125 1.260 . S
O118 Zn113 1.996 . S
O118 C125 1.257 . S
C119 O114 1.254 . S
C119 O115 1.269 1_655 S
C120 O121 1.249 . S
C120 O122 1.270 . S
O121 Zn113 1.943 . S
O121 C120 1.249 . S
O122 Zn112 2.067 . S
O122 C120 1.270 . S
C123 O116 1.262 . S
C123 O124 1.232 . S
O124 C123 1.232 . S
C125 O117 1.260 . S
C125 O118 1.257 . S
Zn126 O129 2.031 . S
Zn126 O131 2.049 . S
Zn126 O136 2.067 . S
Zn127 O128 1.962 1_565 S
Zn127 O130 1.986 . S
Zn127 O132 1.996 . S
Zn127 O135 1.943 . S
O128 Zn127 1.962 1_545 S
O128 C133 1.254 . S
O129 Zn126 2.031 . S
O129 C133 1.269 1_565 S
O130 Zn127 1.986 . S
O130 C137 1.262 . S
O131 Zn126 2.049 . S
O131 C139 1.260 . S
O132 Zn127 1.996 . S
O132 C139 1.257 . S
C133 O128 1.254 . S
C133 O129 1.269 1_545 S
C134 O135 1.249 . S
C134 O136 1.270 . S
O135 Zn127 1.943 . S
O135 C134 1.249 . S
O136 Zn126 2.067 . S
O136 C134 1.270 . S
C137 O130 1.262 . S
C137 O138 1.232 . S
O138 C137 1.232 . S
C139 O131 1.260 . S
C139 O132 1.257 . S
Zn140 O143 2.031 . S
Zn140 O145 2.049 . S
Zn140 O150 2.067 . S
Zn141 O142 1.962 1_455 S
Zn141 O144 1.986 . S
Zn141 O146 1.996 . S
Zn141 O149 1.943 . S
O142 Zn141 1.962 1_655 S
O142 C147 1.254 . S
O143 Zn140 2.031 . S
O143 C147 1.269 1_455 S
O144 Zn141 1.986 . S
O144 C151 1.262 . S
O145 Zn140 2.049 . S
O145 C153 1.260 . S
O146 Zn141 1.996 . S
O146 C153 1.257 . S
C147 O142 1.254 . S
C147 O143 1.269 1_655 S
C148 O149 1.249 . S
C148 O150 1.270 . S
O149 Zn141 1.943 . S
O149 C148 1.249 . S
O150 Zn140 2.067 . S
O150 C148 1.270 . S
C151 O144 1.262 . S
C151 O152 1.232 . S
O152 C151 1.232 . S
C153 O145 1.260 . S
C153 O146 1.257 . S
Zn154 O157 2.031 . S
Zn154 O159 2.049 . S
Zn154 O164 2.067 . S
Zn155 O156 1.962 . S
Zn155 O158 1.986 . S
Zn155 O160 1.996 . S
Zn155 O163 1.943 . S
O156 Zn155 1.962 . S
O156 C161 1.254 . S
O157 Zn154 2.031 . S
O157 C161 1.269 . S
O158 Zn155 1.986 . S
O158 C165 1.262 . S
O159 Zn154 2.049 . S
O159 C167 1.260 . S
O160 Zn155 1.996 . S
O160 C167 1.257 . S
C161 O156 1.254 . S
C161 O157 1.269 . S
C162 O163 1.249 . S
C162 O164 1.270 . S
O163 Zn155 1.943 . S
O163 C162 1.249 . S
O164 Zn154 2.067 . S
O164 C162 1.270 . S
C165 O158 1.262 . S
C165 O166 1.232 . S
O166 C165 1.232 . S
C167 O159 1.260 . S
C167 O160 1.257 . S
Zn168 O171 2.031 . S
Zn168 O173 2.049 . S
Zn168 O178 2.067 . S
Zn169 O170 1.911 1_545 S
Zn169 O172 1.986 . S
Zn169 O174 1.996 . S
Zn169 O177 1.943 . S
O170 Zn169 1.911 1_565 S
O170 C175 1.234 . S
O171 Zn168 2.031 . S
O171 C175 1.269 1_545 S
O172 Zn169 1.986 . S
O172 C179 1.262 . S
O173 Zn168 2.049 . S
O173 C181 1.260 . S
O174 Zn169 1.996 . S
O174 C181 1.257 . S
C175 O170 1.234 . S
C175 O171 1.269 1_565 S
C176 O177 1.249 . S
C176 O178 1.270 . S
O177 Zn169 1.943 . S
O177 C176 1.249 . S
O178 Zn168 2.067 . S
O178 C176 1.270 . S
C179 O172 1.262 . S
C179 O180 1.232 . S
O180 C179 1.232 . S
C181 O173 1.260 . S
C181 O174 1.257 . S
Zn182 O185 2.031 . S
Zn182 O187 2.049 . S
Zn182 O192 2.067 . S
Zn183 O184 1.962 1_655 S
Zn183 O186 1.986 . S
Zn183 O188 1.996 . S
Zn183 O191 1.943 . S
O184 Zn183 1.962 1_455 S
O184 C189 1.254 . S
O185 Zn182 2.031 . S
O185 C189 1.269 1_655 S
O186 Zn183 1.986 . S
O186 C193 1.262 . S
O187 Zn182 2.049 . S
O187 C195 1.260 . S
O188 Zn183 1.996 . S
O188 C195 1.257 . S
C189 O184 1.254 . S
C189 O185 1.269 1_455 S
C190 O191 1.249 . S
C190 O192 1.270 . S
O191 Zn183 1.943 . S
O191 C190 1.249 . S
O192 Zn182 2.067 . S
O192 C190 1.270 . S
C193 O186 1.262 . S
C193 O194 1.232 . S
O194 C193 1.232 . S
C195 O187 1.260 . S
C195 O188 1.257 . S
Zn196 O199 2.031 . S
Zn196 O201 2.049 . S
Zn196 O206 2.067 . S
Zn197 O198 1.962 . S
Zn197 O200 1.986 . S
Zn197 O202 1.996 . S
Zn197 O205 1.943 . S
O198 Zn197 1.962 . S
O198 C203 1.254 . S
O199 Zn196 2.031 . S
O199 C203 1.269 . S
O200 Zn197 1.986 . S
O200 C207 1.262 . S
O201 Zn196 2.049 . S
O201 C209 1.260 . S
O202 Zn197 1.996 . S
O202 C209 1.257 . S
C203 O198 1.254 . S
C203 O199 1.269 . S
C204 O205 1.249 . S
C204 O206 1.270 . S
O205 Zn197 1.943 . S
O205 C204 1.249 . S
O206 Zn196 2.067 . S
O206 C204 1.270 . S
C207 O200 1.262 . S
C207 O208 1.232 . S
O208 C207 1.232 . S
C209 O201 1.260 . S
C209 O202 1.257 . S
Zn210 O213 2.031 . S
Zn210 O215 2.049 . S
Zn210 O220 2.067 . S
Zn211 O212 1.962 . S
Zn211 O214 1.986 . S
Zn211 O216 1.996 . S
Zn211 O219 1.943 . S
O212 Zn211 1.962 . S
O212 C217 1.254 . S
O213 Zn210 2.031 . S
O213 C217 1.269 . S
O214 Zn211 1.986 . S
O214 C221 1.262 . S
O215 Zn210 2.049 . S
O215 C223 1.260 . S
O216 Zn211 1.996 . S
O216 C223 1.257 . S
C217 O212 1.254 . S
C217 O213 1.269 . S
C218 O219 1.249 . S
C218 O220 1.270 . S
O219 Zn211 1.943 . S
O219 C218 1.249 . S
O220 Zn210 2.067 . S
O220 C218 1.270 . S
C221 O214 1.262 . S
C221 O222 1.232 . S
O222 C221 1.232 . S
C223 O215 1.260 . S
C223 O216 1.257 . S
Zn224 O227 2.031 . S
Zn224 O229 2.049 . S
Zn224 O234 2.067 . S
Zn225 O226 1.962 . S
Zn225 O228 1.984 1_545 S
Zn225 O230 1.996 . S
Zn225 O233 1.943 . S
O226 Zn225 1.962 . S
O226 C231 1.254 . S
O227 Zn224 2.031 . S
O227 C231 1.269 . S
O228 Zn225 1.984 1_565 S
O228 C235 1.264 . S
O229 Zn224 2.049 . S
O229 C237 1.260 . S
O230 Zn225 1.996 . S
O230 C237 1.257 . S
C231 O226 1.254 . S
C231 O227 1.269 . S
C232 O233 1.249 . S
C232 O234 1.270 . S
O233 Zn225 1.943 . S
O233 C232 1.249 . S
O234 Zn224 2.067 . S
O234 C232 1.270 . S
C235 O228 1.264 . S
C235 O236 1.232 . S
O236 C235 1.232 . S
C237 O229 1.260 . S
C237 O230 1.257 . S
Zn238 O241 2.031 . S
Zn238 O243 2.049 . S
Zn238 O248 2.067 . S
Zn239 O240 1.962 1_655 S
Zn239 O242 1.986 . S
Zn239 O244 1.996 . S
Zn239 O247 1.943 . S
O240 Zn239 1.962 1_455 S
O240 C245 1.254 . S
O241 Zn238 2.031 . S
O241 C245 1.269 1_655 S
O242 Zn239 1.986 . S
O242 C249 1.262 . S
O243 Zn238 2.049 . S
O243 C251 1.260 . S
O244 Zn239 1.996 . S
O244 C251 1.257 . S
C245 O240 1.254 . S
C245 O241 1.269 1_455 S
C246 O247 1.249 . S
C246 O248 1.270 . S
O247 Zn239 1.943 . S
O247 C246 1.249 . S
O248 Zn238 2.067 . S
O248 C246 1.270 . S
C249 O242 1.262 . S
C249 O250 1.232 . S
O250 C249 1.232 . S
C251 O243 1.260 . S
C251 O244 1.257 . S
C252 C253 1.384 . S
C252 C254 1.384 . S
C252 H280 0.931 . S
C253 C252 1.384 . S
C253 C256 1.382 . S
C254 C252 1.384 . S
C254 C255 1.381 . S
C254 H281 0.930 . S
C255 C254 1.381 . S
C255 C257 1.381 . S
C255 C258 1.487 . S
C256 C253 1.382 . S
C256 C257 1.387 . S
C256 H282 0.930 . S
C257 C255 1.381 . S
C257 C256 1.387 . S
C257 H283 0.931 . S
C258 C255 1.487 . S
C258 C265 1.399 . S
C258 N296 1.343 . S
C259 C260 1.384 . S
C259 C261 1.384 . S
C259 H284 0.931 . S
C260 C259 1.384 . S
C260 C263 1.382 . S
C261 C259 1.384 . S
C261 C262 1.381 . S
C261 H285 0.930 . S
C262 C261 1.381 . S
C262 C264 1.381 . S
C262 C265 1.487 . S
C263 C260 1.382 . S
C263 C264 1.387 . S
C263 H286 0.930 . S
C264 C262 1.381 . S
C264 C263 1.387 . S
C264 H287 0.931 . S
C265 C258 1.399 . S
C265 C262 1.487 . S
C265 N297 1.343 . S
C266 C267 1.384 . S
C266 C268 1.384 . S
C266 H288 0.931 . S
C267 C266 1.384 . S
C267 C270 1.382 . S
C268 C266 1.384 . S
C268 C269 1.381 . S
C268 H289 0.930 . S
C269 C268 1.381 . S
C269 C271 1.381 . S
C269 C272 1.487 . S
C270 C267 1.382 . S
C270 C271 1.387 . S
C270 H290 0.930 . S
C271 C269 1.381 . S
C271 C270 1.387 . S
C271 H291 0.931 . S
C272 C269 1.487 . S
C272 C279 1.399 . S
C272 N297 1.343 . S
C273 C274 1.384 . S
C273 C275 1.384 . S
C273 H292 0.931 . S
C274 C273 1.384 . S
C274 C277 1.382 . S
C275 C273 1.384 . S
C275 C276 1.381 . S
C275 H293 0.930 . S
C276 C275 1.381 . S
C276 C278 1.381 . S
C276 C279 1.487 . S
C277 C274 1.382 . S
C277 C278 1.387 . S
C277 H294 0.930 . S
C278 C276 1.381 . S
C278 C277 1.387 . S
C278 H295 0.931 . S
C279 C272 1.399 . S
C279 C276 1.487 . S
C279 N296 1.343 . S
H280 C252 0.931 . S
H281 C254 0.930 . S
H282 C256 0.930 . S
H283 C257 0.931 . S
H284 C259 0.931 . S
H285 C261 0.930 . S
H286 C263 0.930 . S
H287 C264 0.931 . S
H288 C266 0.931 . S
H289 C268 0.930 . S
H290 C270 0.930 . S
H291 C271 0.931 . S
H292 C273 0.931 . S
H293 C275 0.930 . S
H294 C277 0.930 . S
H295 C278 0.931 . S
N296 C258 1.343 . S
N296 C279 1.343 . S
N297 C265 1.343 . S
N297 C272 1.343 . S
C298 C299 1.384 . S
C298 C300 1.384 . S
C298 H326 0.931 . S
C299 C298 1.384 . S
C299 C302 1.382 . S
C300 C298 1.384 . S
C300 C301 1.381 . S
C300 H327 0.930 . S
C301 C300 1.381 . S
C301 C303 1.381 . S
C301 C304 1.487 . S
C302 C299 1.382 . S
C302 C303 1.387 . S
C302 H328 0.930 . S
C303 C301 1.381 . S
C303 C302 1.387 . S
C303 H329 0.931 . S
C304 C301 1.487 . S
C304 C311 1.399 . S
C304 N342 1.343 . S
C305 C306 1.384 . S
C305 C307 1.384 . S
C305 H330 0.931 . S
C306 C305 1.384 . S
C306 C309 1.382 . S
C307 C305 1.384 . S
C307 C308 1.381 . S
C307 H331 0.930 . S
C308 C307 1.381 . S
C308 C310 1.381 . S
C308 C311 1.487 . S
C309 C306 1.382 . S
C309 C310 1.387 . S
C309 H332 0.930 . S
C310 C308 1.381 . S
C310 C309 1.387 . S
C310 H333 0.931 . S
C311 C304 1.399 . S
C311 C308 1.487 . S
C311 N343 1.343 . S
C312 C313 1.384 . S
C312 C314 1.384 . S
C312 H334 0.931 . S
C313 C312 1.384 . S
C313 C316 1.382 . S
C314 C312 1.384 . S
C314 C315 1.381 . S
C314 H335 0.930 . S
C315 C314 1.381 . S
C315 C317 1.381 . S
C315 C318 1.487 . S
C316 C313 1.382 . S
C316 C317 1.387 . S
C316 H336 0.930 . S
C317 C315 1.381 . S
C317 C316 1.387 . S
C317 H337 0.931 . S
C318 C315 1.487 . S
C318 C325 1.399 . S
C318 N343 1.343 . S
C319 C320 1.384 . S
C319 C321 1.384 . S
C319 H338 0.931 . S
C320 C319 1.384 . S
C320 C323 1.382 . S
C321 C319 1.384 . S
C321 C322 1.381 . S
C321 H339 0.930 . S
C322 C321 1.381 . S
C322 C324 1.381 . S
C322 C325 1.487 . S
C323 C320 1.382 . S
C323 C324 1.387 . S
C323 H340 0.930 . S
C324 C322 1.381 . S
C324 C323 1.387 . S
C324 H341 0.931 . S
C325 C318 1.399 . S
C325 C322 1.487 . S
C325 N342 1.343 . S
H326 C298 0.931 . S
H327 C300 0.930 . S
H328 C302 0.930 . S
H329 C303 0.931 . S
H330 C305 0.931 . S
H331 C307 0.930 . S
H332 C309 0.930 . S
H333 C310 0.931 . S
H334 C312 0.931 . S
H335 C314 0.930 . S
H336 C316 0.930 . S
H337 C317 0.931 . S
H338 C319 0.931 . S
H339 C321 0.930 . S
H340 C323 0.930 . S
H341 C324 0.931 . S
N342 C304 1.343 . S
N342 C325 1.343 . S
N343 C311 1.343 . S
N343 C318 1.343 . S
C344 C345 1.384 . S
C344 C346 1.384 . S
C344 H372 0.931 . S
C345 C344 1.384 . S
C345 C348 1.382 . S
C346 C344 1.384 . S
C346 C347 1.381 . S
C346 H373 0.930 . S
C347 C346 1.381 . S
C347 C349 1.381 . S
C347 C350 1.487 . S
C348 C345 1.382 . S
C348 C349 1.387 . S
C348 H374 0.930 . S
C349 C347 1.381 . S
C349 C348 1.387 . S
C349 H375 0.931 . S
C350 C347 1.487 . S
C350 C357 1.399 . S
C350 N388 1.343 . S
C351 C352 1.384 . S
C351 C353 1.384 . S
C351 H376 0.931 . S
C352 C351 1.384 . S
C352 C355 1.382 . S
C353 C351 1.384 . S
C353 C354 1.381 . S
C353 H377 0.930 . S
C354 C353 1.381 . S
C354 C356 1.381 . S
C354 C357 1.487 . S
C355 C352 1.382 . S
C355 C356 1.387 . S
C355 H378 0.930 . S
C356 C354 1.381 . S
C356 C355 1.387 . S
C356 H379 0.931 . S
C357 C350 1.399 . S
C357 C354 1.487 . S
C357 N389 1.343 . S
C358 C359 1.384 . S
C358 C360 1.384 . S
C358 H380 0.931 . S
C359 C358 1.384 . S
C359 C362 1.382 . S
C360 C358 1.384 . S
C360 C361 1.381 . S
C360 H381 0.930 . S
C361 C360 1.381 . S
C361 C363 1.381 . S
C361 C364 1.487 . S
C362 C359 1.382 . S
C362 C363 1.387 . S
C362 H382 0.930 . S
C363 C361 1.381 . S
C363 C362 1.387 . S
C363 H383 0.931 . S
C364 C361 1.487 . S
C364 C371 1.399 . S
C364 N389 1.343 . S
C365 C366 1.384 . S
C365 C367 1.384 . S
C365 H384 0.931 . S
C366 C365 1.384 . S
C366 C369 1.382 . S
C367 C365 1.384 . S
C367 C368 1.381 . S
C367 H385 0.930 . S
C368 C367 1.381 . S
C368 C370 1.381 . S
C368 C371 1.487 . S
C369 C366 1.382 . S
C369 C370 1.387 . S
C369 H386 0.930 . S
C370 C368 1.381 . S
C370 C369 1.387 . S
C370 H387 0.931 . S
C371 C364 1.399 . S
C371 C368 1.487 . S
C371 N388 1.343 . S
H372 C344 0.931 . S
H373 C346 0.930 . S
H374 C348 0.930 . S
H375 C349 0.931 . S
H376 C351 0.931 . S
H377 C353 0.930 . S
H378 C355 0.930 . S
H379 C356 0.931 . S
H380 C358 0.931 . S
H381 C360 0.930 . S
H382 C362 0.930 . S
H383 C363 0.931 . S
H384 C365 0.931 . S
H385 C367 0.930 . S
H386 C369 0.930 . S
H387 C370 0.931 . S
N388 C350 1.343 . S
N388 C371 1.343 . S
N389 C357 1.343 . S
N389 C364 1.343 . S
C390 C391 1.384 . S
C390 C392 1.384 . S
C390 H418 0.931 . S
C391 C390 1.384 . S
C391 C394 1.382 . S
C392 C390 1.384 . S
C392 C393 1.381 . S
C392 H419 0.930 . S
C393 C392 1.381 . S
C393 C395 1.381 . S
C393 C396 1.487 . S
C394 C391 1.382 . S
C394 C395 1.387 . S
C394 H420 0.930 . S
C395 C393 1.381 . S
C395 C394 1.387 . S
C395 H421 0.931 . S
C396 C393 1.487 . S
C396 C403 1.399 . S
C396 N434 1.343 . S
C397 C398 1.384 . S
C397 C399 1.384 . S
C397 H422 0.931 . S
C398 C397 1.384 . S
C398 C401 1.382 . S
C399 C397 1.384 . S
C399 C400 1.381 . S
C399 H423 0.930 . S
C400 C399 1.381 . S
C400 C402 1.381 . S
C400 C403 1.487 . S
C401 C398 1.382 . S
C401 C402 1.387 . S
C401 H424 0.930 . S
C402 C400 1.381 . S
C402 C401 1.387 . S
C402 H425 0.931 . S
C403 C396 1.399 . S
C403 C400 1.487 . S
C403 N435 1.343 . S
C404 C405 1.384 . S
C404 C406 1.384 . S
C404 H426 0.931 . S
C405 C404 1.384 . S
C405 C408 1.382 . S
C406 C404 1.384 . S
C406 C407 1.381 . S
C406 H427 0.930 . S
C407 C406 1.381 . S
C407 C409 1.381 . S
C407 C410 1.487 . S
C408 C405 1.382 . S
C408 C409 1.387 . S
C408 H428 0.930 . S
C409 C407 1.381 . S
C409 C408 1.387 . S
C409 H429 0.931 . S
C410 C407 1.487 . S
C410 C417 1.399 . S
C410 N435 1.343 . S
C411 C412 1.384 . S
C411 C413 1.384 . S
C411 H430 0.931 . S
C412 C411 1.384 . S
C412 C415 1.382 . S
C413 C411 1.384 . S
C413 C414 1.381 . S
C413 H431 0.930 . S
C414 C413 1.381 . S
C414 C416 1.381 . S
C414 C417 1.487 . S
C415 C412 1.382 . S
C415 C416 1.387 . S
C415 H432 0.930 . S
C416 C414 1.381 . S
C416 C415 1.387 . S
C416 H433 0.931 . S
C417 C410 1.399 . S
C417 C414 1.487 . S
C417 N434 1.343 . S
H418 C390 0.931 . S
H419 C392 0.930 . S
H420 C394 0.930 . S
H421 C395 0.931 . S
H422 C397 0.931 . S
H423 C399 0.930 . S
H424 C401 0.930 . S
H425 C402 0.931 . S
H426 C404 0.931 . S
H427 C406 0.930 . S
H428 C408 0.930 . S
H429 C409 0.931 . S
H430 C411 0.931 . S
H431 C413 0.930 . S
H432 C415 0.930 . S
H433 C416 0.931 . S
N434 C396 1.343 . S
N434 C417 1.343 . S
N435 C403 1.343 . S
N435 C410 1.343 . S
C436 C437 1.384 . S
C436 C438 1.384 . S
C436 H464 0.931 . S
C437 C436 1.384 . S
C437 C440 1.382 . S
C438 C436 1.384 . S
C438 C439 1.381 . S
C438 H465 0.930 . S
C439 C438 1.381 . S
C439 C441 1.381 . S
C439 C442 1.487 . S
C440 C437 1.382 . S
C440 C441 1.387 . S
C440 H466 0.930 . S
C441 C439 1.381 . S
C441 C440 1.387 . S
C441 H467 0.931 . S
C442 C439 1.487 . S
C442 C449 1.399 . S
C442 N480 1.343 . S
C443 C444 1.384 . S
C443 C445 1.384 . S
C443 H468 0.931 . S
C444 C443 1.384 . S
C444 C447 1.382 . S
C445 C443 1.384 . S
C445 C446 1.381 . S
C445 H469 0.930 . S
C446 C445 1.381 . S
C446 C448 1.381 . S
C446 C449 1.487 . S
C447 C444 1.382 . S
C447 C448 1.387 . S
C447 H470 0.930 . S
C448 C446 1.381 . S
C448 C447 1.387 . S
C448 H471 0.931 . S
C449 C442 1.399 . S
C449 C446 1.487 . S
C449 N481 1.343 . S
C450 C451 1.384 . S
C450 C452 1.384 . S
C450 H472 0.931 . S
C451 C450 1.384 . S
C451 C454 1.382 . S
C452 C450 1.384 . S
C452 C453 1.381 . S
C452 H473 0.930 . S
C453 C452 1.381 . S
C453 C455 1.381 . S
C453 C456 1.487 . S
C454 C451 1.382 . S
C454 C455 1.387 . S
C454 H474 0.930 . S
C455 C453 1.381 . S
C455 C454 1.387 . S
C455 H475 0.931 . S
C456 C453 1.487 . S
C456 C463 1.399 . S
C456 N481 1.343 . S
C457 C458 1.384 . S
C457 C459 1.384 . S
C457 H476 0.931 . S
C458 C457 1.384 . S
C458 C461 1.382 . S
C459 C457 1.384 . S
C459 C460 1.381 . S
C459 H477 0.930 . S
C460 C459 1.381 . S
C460 C462 1.381 . S
C460 C463 1.487 . S
C461 C458 1.382 . S
C461 C462 1.387 . S
C461 H478 0.930 . S
C462 C460 1.381 . S
C462 C461 1.387 . S
C462 H479 0.931 . S
C463 C456 1.399 . S
C463 C460 1.487 . S
C463 N480 1.343 . S
H464 C436 0.931 . S
H465 C438 0.930 . S
H466 C440 0.930 . S
H467 C441 0.931 . S
H468 C443 0.931 . S
H469 C445 0.930 . S
H470 C447 0.930 . S
H471 C448 0.931 . S
H472 C450 0.931 . S
H473 C452 0.930 . S
H474 C454 0.930 . S
H475 C455 0.931 . S
H476 C457 0.931 . S
H477 C459 0.930 . S
H478 C461 0.930 . S
H479 C462 0.931 . S
N480 C442 1.343 . S
N480 C463 1.343 . S
N481 C449 1.343 . S
N481 C456 1.343 . S
C482 C483 1.384 . S
C482 C484 1.384 . S
C482 H510 0.931 . S
C483 C482 1.384 . S
C483 C486 1.382 . S
C484 C482 1.384 . S
C484 C485 1.381 . S
C484 H511 0.930 . S
C485 C484 1.381 . S
C485 C487 1.381 . S
C485 C488 1.487 . S
C486 C483 1.382 . S
C486 C487 1.387 . S
C486 H512 0.930 . S
C487 C485 1.381 . S
C487 C486 1.387 . S
C487 H513 0.931 . S
C488 C485 1.487 . S
C488 C495 1.399 . S
C488 N526 1.343 . S
C489 C490 1.384 . S
C489 C491 1.384 . S
C489 H514 0.931 . S
C490 C489 1.384 . S
C490 C493 1.382 . S
C491 C489 1.384 . S
C491 C492 1.381 . S
C491 H515 0.930 . S
C492 C491 1.381 . S
C492 C494 1.381 . S
C492 C495 1.487 . S
C493 C490 1.382 . S
C493 C494 1.387 . S
C493 H516 0.930 . S
C494 C492 1.381 . S
C494 C493 1.387 . S
C494 H517 0.931 . S
C495 C488 1.399 . S
C495 C492 1.487 . S
C495 N527 1.343 . S
C496 C497 1.384 . S
C496 C498 1.384 . S
C496 H518 0.931 . S
C497 C496 1.384 . S
C497 C500 1.382 . S
C498 C496 1.384 . S
C498 C499 1.381 . S
C498 H519 0.930 . S
C499 C498 1.381 . S
C499 C501 1.381 . S
C499 C502 1.487 . S
C500 C497 1.382 . S
C500 C501 1.387 . S
C500 H520 0.930 . S
C501 C499 1.381 . S
C501 C500 1.387 . S
C501 H521 0.931 . S
C502 C499 1.487 . S
C502 C509 1.399 . S
C502 N527 1.343 . S
C503 C504 1.384 . S
C503 C505 1.384 . S
C503 H522 0.931 . S
C504 C503 1.384 . S
C504 C507 1.382 . S
C505 C503 1.384 . S
C505 C506 1.381 . S
C505 H523 0.930 . S
C506 C505 1.381 . S
C506 C508 1.381 . S
C506 C509 1.487 . S
C507 C504 1.382 . S
C507 C508 1.387 . S
C507 H524 0.930 . S
C508 C506 1.381 . S
C508 C507 1.387 . S
C508 H525 0.931 . S
C509 C502 1.399 . S
C509 C506 1.487 . S
C509 N526 1.343 . S
H510 C482 0.931 . S
H511 C484 0.930 . S
H512 C486 0.930 . S
H513 C487 0.931 . S
H514 C489 0.931 . S
H515 C491 0.930 . S
H516 C493 0.930 . S
H517 C494 0.931 . S
H518 C496 0.931 . S
H519 C498 0.930 . S
H520 C500 0.930 . S
H521 C501 0.931 . S
H522 C503 0.931 . S
H523 C505 0.930 . S
H524 C507 0.930 . S
H525 C508 0.931 . S
N526 C488 1.343 . S
N526 C509 1.343 . S
N527 C495 1.343 . S
N527 C502 1.343 . S
C528 C529 1.384 . S
C528 C530 1.384 . S
C528 H556 0.931 . S
C529 C528 1.384 . S
C529 C532 1.382 . S
C530 C528 1.384 . S
C530 C531 1.381 . S
C530 H557 0.930 . S
C531 C530 1.381 . S
C531 C533 1.381 . S
C531 C534 1.487 . S
C532 C529 1.382 . S
C532 C533 1.387 . S
C532 H558 0.930 . S
C533 C531 1.381 . S
C533 C532 1.387 . S
C533 H559 0.931 . S
C534 C531 1.487 . S
C534 C541 1.399 . S
C534 N572 1.343 . S
C535 C536 1.384 . S
C535 C537 1.384 . S
C535 H560 0.931 . S
C536 C535 1.384 . S
C536 C539 1.382 . S
C537 C535 1.384 . S
C537 C538 1.381 . S
C537 H561 0.930 . S
C538 C537 1.381 . S
C538 C540 1.381 . S
C538 C541 1.487 . S
C539 C536 1.382 . S
C539 C540 1.387 . S
C539 H562 0.930 . S
C540 C538 1.381 . S
C540 C539 1.387 . S
C540 H563 0.931 . S
C541 C534 1.399 . S
C541 C538 1.487 . S
C541 N573 1.343 . S
C542 C543 1.384 . S
C542 C544 1.384 . S
C542 H564 0.931 . S
C543 C542 1.384 . S
C543 C546 1.382 . S
C544 C542 1.384 . S
C544 C545 1.381 . S
C544 H565 0.930 . S
C545 C544 1.381 . S
C545 C547 1.381 . S
C545 C548 1.487 . S
C546 C543 1.382 . S
C546 C547 1.387 . S
C546 H566 0.930 . S
C547 C545 1.381 . S
C547 C546 1.387 . S
C547 H567 0.931 . S
C548 C545 1.487 . S
C548 C555 1.399 . S
C548 N573 1.343 . S
C549 C550 1.384 . S
C549 C551 1.384 . S
C549 H568 0.931 . S
C550 C549 1.384 . S
C550 C553 1.382 . S
C551 C549 1.384 . S
C551 C552 1.381 . S
C551 H569 0.930 . S
C552 C551 1.381 . S
C552 C554 1.381 . S
C552 C555 1.487 . S
C553 C550 1.382 . S
C553 C554 1.387 . S
C553 H570 0.930 . S
C554 C552 1.381 . S
C554 C553 1.387 . S
C554 H571 0.931 . S
C555 C548 1.399 . S
C555 C552 1.487 . S
C555 N572 1.343 . S
H556 C528 0.931 . S
H557 C530 0.930 . S
H558 C532 0.930 . S
H559 C533 0.931 . S
H560 C535 0.931 . S
H561 C537 0.930 . S
H562 C539 0.930 . S
H563 C540 0.931 . S
H564 C542 0.931 . S
H565 C544 0.930 . S
H566 C546 0.930 . S
H567 C547 0.931 . S
H568 C549 0.931 . S
H569 C551 0.930 . S
H570 C553 0.930 . S
H571 C554 0.931 . S
N572 C534 1.343 . S
N572 C555 1.343 . S
N573 C541 1.343 . S
N573 C548 1.343 . S
C574 C575 1.384 . S
C574 C576 1.384 . S
C574 H602 0.931 . S
C575 C574 1.384 . S
C575 C578 1.382 . S
C576 C574 1.384 . S
C576 C577 1.381 . S
C576 H603 0.930 . S
C577 C576 1.381 . S
C577 C579 1.381 . S
C577 C580 1.487 . S
C578 C575 1.382 . S
C578 C579 1.387 . S
C578 H604 0.930 . S
C579 C577 1.381 . S
C579 C578 1.387 . S
C579 H605 0.931 . S
C580 C577 1.487 . S
C580 C587 1.399 . S
C580 N618 1.343 . S
C581 C582 1.384 . S
C581 C583 1.384 . S
C581 H606 0.931 . S
C582 C581 1.384 . S
C582 C585 1.382 . S
C583 C581 1.384 . S
C583 C584 1.381 . S
C583 H607 0.930 . S
C584 C583 1.381 . S
C584 C586 1.381 . S
C584 C587 1.487 . S
C585 C582 1.382 . S
C585 C586 1.387 . S
C585 H608 0.930 . S
C586 C584 1.381 . S
C586 C585 1.387 . S
C586 H609 0.931 . S
C587 C580 1.399 . S
C587 C584 1.487 . S
C587 N619 1.343 . S
C588 C589 1.384 . S
C588 C590 1.384 . S
C588 H610 0.931 . S
C589 C588 1.384 . S
C589 C592 1.382 . S
C590 C588 1.384 . S
C590 C591 1.381 . S
C590 H611 0.930 . S
C591 C590 1.381 . S
C591 C593 1.381 . S
C591 C594 1.487 . S
C592 C589 1.382 . S
C592 C593 1.387 . S
C592 H612 0.930 . S
C593 C591 1.381 . S
C593 C592 1.387 . S
C593 H613 0.931 . S
C594 C591 1.487 . S
C594 C601 1.399 . S
C594 N619 1.343 . S
C595 C596 1.384 . S
C595 C597 1.384 . S
C595 H614 0.931 . S
C596 C595 1.384 . S
C596 C599 1.382 . S
C597 C595 1.384 . S
C597 C598 1.381 . S
C597 H615 0.930 . S
C598 C597 1.381 . S
C598 C600 1.381 . S
C598 C601 1.487 . S
C599 C596 1.382 . S
C599 C600 1.387 . S
C599 H616 0.930 . S
C600 C598 1.381 . S
C600 C599 1.387 . S
C600 H617 0.931 . S
C601 C594 1.399 . S
C601 C598 1.487 . S
C601 N618 1.343 . S
H602 C574 0.931 . S
H603 C576 0.930 . S
H604 C578 0.930 . S
H605 C579 0.931 . S
H606 C581 0.931 . S
H607 C583 0.930 . S
H608 C585 0.930 . S
H609 C586 0.931 . S
H610 C588 0.931 . S
H611 C590 0.930 . S
H612 C592 0.930 . S
H613 C593 0.931 . S
H614 C595 0.931 . S
H615 C597 0.930 . S
H616 C599 0.930 . S
H617 C600 0.931 . S
N618 C580 1.343 . S
N618 C601 1.343 . S
N619 C587 1.343 . S
N619 C594 1.343 . S
C620 C621 1.384 . S
C620 C622 1.384 . S
C620 H648 0.931 . S
C621 C620 1.384 . S
C621 C624 1.382 . S
C622 C620 1.384 . S
C622 C623 1.381 . S
C622 H649 0.930 . S
C623 C622 1.381 . S
C623 C625 1.381 . S
C623 C626 1.487 . S
C624 C621 1.382 . S
C624 C625 1.387 . S
C624 H650 0.930 . S
C625 C623 1.381 . S
C625 C624 1.387 . S
C625 H651 0.931 . S
C626 C623 1.487 . S
C626 C633 1.399 . S
C626 N664 1.343 . S
C627 C628 1.384 . S
C627 C629 1.384 . S
C627 H652 0.931 . S
C628 C627 1.384 . S
C628 C631 1.382 . S
C629 C627 1.384 . S
C629 C630 1.381 . S
C629 H653 0.930 . S
C630 C629 1.381 . S
C630 C632 1.381 . S
C630 C633 1.487 . S
C631 C628 1.382 . S
C631 C632 1.387 . S
C631 H654 0.930 . S
C632 C630 1.381 . S
C632 C631 1.387 . S
C632 H655 0.931 . S
C633 C626 1.399 . S
C633 C630 1.487 . S
C633 N665 1.343 . S
C634 C635 1.384 . S
C634 C636 1.384 . S
C634 H656 0.931 . S
C635 C634 1.384 . S
C635 C638 1.382 . S
C636 C634 1.384 . S
C636 C637 1.381 . S
C636 H657 0.930 . S
C637 C636 1.381 . S
C637 C639 1.381 . S
C637 C640 1.487 . S
C638 C635 1.382 . S
C638 C639 1.387 . S
C638 H658 0.930 . S
C639 C637 1.381 . S
C639 C638 1.387 . S
C639 H659 0.931 . S
C640 C637 1.487 . S
C640 C647 1.399 . S
C640 N665 1.343 . S
C641 C642 1.384 . S
C641 C643 1.384 . S
C641 H660 0.931 . S
C642 C641 1.384 . S
C642 C645 1.382 . S
C643 C641 1.384 . S
C643 C644 1.381 . S
C643 H661 0.930 . S
C644 C643 1.381 . S
C644 C646 1.381 . S
C644 C647 1.487 . S
C645 C642 1.382 . S
C645 C646 1.387 . S
C645 H662 0.930 . S
C646 C644 1.381 . S
C646 C645 1.387 . S
C646 H663 0.931 . S
C647 C640 1.399 . S
C647 C644 1.487 . S
C647 N664 1.343 . S
H648 C620 0.931 . S
H649 C622 0.930 . S
H650 C624 0.930 . S
H651 C625 0.931 . S
H652 C627 0.931 . S
H653 C629 0.930 . S
H654 C631 0.930 . S
H655 C632 0.931 . S
H656 C634 0.931 . S
H657 C636 0.930 . S
H658 C638 0.930 . S
H659 C639 0.931 . S
H660 C641 0.931 . S
H661 C643 0.930 . S
H662 C645 0.930 . S
H663 C646 0.931 . S
N664 C626 1.343 . S
N664 C647 1.343 . S
N665 C633 1.343 . S
N665 C640 1.343 . S
C666 C667 1.384 . S
C666 C668 1.384 . S
C666 H694 0.931 . S
C667 C666 1.384 . S
C667 C670 1.382 1_655 S
C668 C666 1.384 . S
C668 C669 1.403 . S
C668 H695 0.930 . S
C669 C668 1.403 . S
C669 C671 1.370 1_655 S
C669 C672 1.474 1_655 S
C670 C667 1.382 1_455 S
C670 C671 1.387 . S
C670 H696 0.930 . S
C671 C669 1.370 1_455 S
C671 C670 1.387 . S
C671 H697 0.931 . S
C672 C669 1.474 1_455 S
C672 C679 1.399 1_455 S
C672 N710 1.312 . S
C673 C674 1.384 . S
C673 C675 1.384 . S
C673 H698 0.931 . S
C674 C673 1.384 . S
C674 C677 1.382 1_455 S
C675 C673 1.384 . S
C675 C676 1.380 . S
C675 H699 0.930 . S
C676 C675 1.380 . S
C676 C678 1.384 1_455 S
C676 C679 1.489 1_455 S
C677 C674 1.382 1_655 S
C677 C678 1.387 . S
C677 H700 0.930 . S
C678 C676 1.384 1_655 S
C678 C677 1.387 . S
C678 H701 0.931 . S
C679 C672 1.399 1_655 S
C679 C676 1.489 1_655 S
C679 N711 1.361 . S
C680 C681 1.384 . S
C680 C682 1.384 . S
C680 H702 0.931 . S
C681 C680 1.384 . S
C681 C684 1.382 1_455 S
C682 C680 1.384 . S
C682 C683 1.424 . S
C682 H703 0.930 . S
C683 C682 1.424 . S
C683 C685 1.360 1_455 S
C683 C686 1.465 . S
C684 C681 1.382 1_655 S
C684 C685 1.387 . S
C684 H704 0.930 . S
C685 C683 1.360 1_655 S
C685 C684 1.387 . S
C685 H705 0.931 . S
C686 C683 1.465 . S
C686 C693 1.398 . S
C686 N711 1.322 1_455 S
C687 C688 1.384 . S
C687 C689 1.384 . S
C687 H706 0.931 . S
C688 C687 1.384 . S
C688 C691 1.382 1_655 S
C689 C687 1.384 . S
C689 C690 1.380 1_655 S
C689 H707 0.930 . S
C690 C689 1.380 1_455 S
C690 C692 1.384 . S
C690 C693 1.498 . S
C691 C688 1.382 1_455 S
C691 C692 1.387 . S
C691 H708 0.930 . S
C692 C690 1.384 . S
C692 C691 1.387 . S
C692 H709 0.931 . S
C693 C686 1.398 . S
C693 C690 1.498 . S
C693 N710 1.361 . S
H694 C666 0.931 . S
H695 C668 0.930 . S
H696 C670 0.930 . S
H697 C671 0.931 . S
H698 C673 0.931 . S
H699 C675 0.930 . S
H700 C677 0.930 . S
H701 C678 0.931 . S
H702 C680 0.931 . S
H703 C682 0.930 . S
H704 C684 0.930 . S
H705 C685 0.931 . S
H706 C687 0.931 . S
H707 C689 0.930 . S
H708 C691 0.930 . S
H709 C692 0.931 . S
N710 C672 1.312 . S
N710 C693 1.361 . S
N711 C679 1.361 . S
N711 C686 1.322 1_655 S
C712 C713 1.384 . S
C712 C714 1.384 . S
C712 H740 0.931 . S
C713 C712 1.384 . S
C713 C716 1.382 . S
C714 C712 1.384 . S
C714 C715 1.381 . S
C714 H741 0.930 . S
C715 C714 1.381 . S
C715 C717 1.381 . S
C715 C718 1.487 . S
C716 C713 1.382 . S
C716 C717 1.387 . S
C716 H742 0.930 . S
C717 C715 1.381 . S
C717 C716 1.387 . S
C717 H743 0.931 . S
C718 C715 1.487 . S
C718 C725 1.399 . S
C718 N756 1.343 . S
C719 C720 1.384 . S
C719 C721 1.384 . S
C719 H744 0.931 . S
C720 C719 1.384 . S
C720 C723 1.382 . S
C721 C719 1.384 . S
C721 C722 1.381 . S
C721 H745 0.930 . S
C722 C721 1.381 . S
C722 C724 1.381 . S
C722 C725 1.487 . S
C723 C720 1.382 . S
C723 C724 1.387 . S
C723 H746 0.930 . S
C724 C722 1.381 . S
C724 C723 1.387 . S
C724 H747 0.931 . S
C725 C718 1.399 . S
C725 C722 1.487 . S
C725 N757 1.343 . S
C726 C727 1.384 . S
C726 C728 1.384 . S
C726 H748 0.931 . S
C727 C726 1.384 . S
C727 C730 1.382 . S
C728 C726 1.384 . S
C728 C729 1.381 . S
C728 H749 0.930 . S
C729 C728 1.381 . S
C729 C731 1.381 . S
C729 C732 1.487 . S
C730 C727 1.382 . S
C730 C731 1.387 . S
C730 H750 0.930 . S
C731 C729 1.381 . S
C731 C730 1.387 . S
C731 H751 0.931 . S
C732 C729 1.487 . S
C732 C739 1.399 . S
C732 N757 1.343 . S
C733 C734 1.384 . S
C733 C735 1.384 . S
C733 H752 0.931 . S
C734 C733 1.384 . S
C734 C737 1.382 . S
C735 C733 1.384 . S
C735 C736 1.381 . S
C735 H753 0.930 . S
C736 C735 1.381 . S
C736 C738 1.381 . S
C736 C739 1.487 . S
C737 C734 1.382 . S
C737 C738 1.387 . S
C737 H754 0.930 . S
C738 C736 1.381 . S
C738 C737 1.387 . S
C738 H755 0.931 . S
C739 C732 1.399 . S
C739 C736 1.487 . S
C739 N756 1.343 . S
H740 C712 0.931 . S
H741 C714 0.930 . S
H742 C716 0.930 . S
H743 C717 0.931 . S
H744 C719 0.931 . S
H745 C721 0.930 . S
H746 C723 0.930 . S
H747 C724 0.931 . S
H748 C726 0.931 . S
H749 C728 0.930 . S
H750 C730 0.930 . S
H751 C731 0.931 . S
H752 C733 0.931 . S
H753 C735 0.930 . S
H754 C737 0.930 . S
H755 C738 0.931 . S
N756 C718 1.343 . S
N756 C739 1.343 . S
N757 C725 1.343 . S
N757 C732 1.343 . S
C758 C759 1.384 1_545 S
C758 C760 1.384 . S
C758 H786 0.931 . S
C759 C758 1.384 1_565 S
C759 C762 1.382 . S
C760 C758 1.384 . S
C760 C761 1.381 1_545 S
C760 H787 0.930 . S
C761 C760 1.381 1_565 S
C761 C763 1.381 . S
C761 C764 1.487 . S
C762 C759 1.382 . S
C762 C763 1.387 . S
C762 H788 0.930 . S
C763 C761 1.381 . S
C763 C762 1.387 . S
C763 H789 0.931 . S
C764 C761 1.487 . S
C764 C771 1.399 1_565 S
C764 N802 1.343 . S
C765 C766 1.384 1_565 S
C765 C767 1.384 . S
C765 H790 0.931 . S
C766 C765 1.384 1_545 S
C766 C769 1.382 . S
C767 C765 1.384 . S
C767 C768 1.381 1_565 S
C767 H791 0.930 . S
C768 C767 1.381 1_545 S
C768 C770 1.381 . S
C768 C771 1.487 . S
C769 C766 1.382 . S
C769 C770 1.387 . S
C769 H792 0.930 . S
C770 C768 1.381 . S
C770 C769 1.387 . S
C770 H793 0.931 . S
C771 C764 1.399 1_545 S
C771 C768 1.487 . S
C771 N803 1.343 . S
C772 C773 1.384 1_565 S
C772 C774 1.384 . S
C772 H794 0.931 . S
C773 C772 1.384 1_545 S
C773 C776 1.382 . S
C774 C772 1.384 . S
C774 C775 1.381 1_565 S
C774 H795 0.930 . S
C775 C774 1.381 1_545 S
C775 C777 1.381 . S
C775 C778 1.457 . S
C776 C773 1.382 . S
C776 C777 1.387 . S
C776 H796 0.930 . S
C777 C775 1.381 . S
C777 C776 1.387 . S
C777 H797 0.931 . S
C778 C775 1.457 . S
C778 C785 1.391 1_545 S
C778 N803 1.388 . S
C779 C780 1.384 1_545 S
C779 C781 1.384 . S
C779 H798 0.931 . S
C780 C779 1.384 1_565 S
C780 C783 1.382 . S
C781 C779 1.384 . S
C781 C782 1.381 1_545 S
C781 H799 0.930 . S
C782 C781 1.381 1_565 S
C782 C784 1.381 . S
C782 C785 1.487 . S
C783 C780 1.382 . S
C783 C784 1.387 . S
C783 H800 0.930 . S
C784 C782 1.381 . S
C784 C783 1.387 . S
C784 H801 0.931 . S
C785 C778 1.391 1_565 S
C785 C782 1.487 . S
C785 N802 1.343 . S
H786 C758 0.931 . S
H787 C760 0.930 . S
H788 C762 0.930 . S
H789 C763 0.931 . S
H790 C765 0.931 . S
H791 C767 0.930 . S
H792 C769 0.930 . S
H793 C770 0.931 . S
H794 C772 0.931 . S
H795 C774 0.930 . S
H796 C776 0.930 . S
H797 C777 0.931 . S
H798 C779 0.931 . S
H799 C781 0.930 . S
H800 C783 0.930 . S
H801 C784 0.931 . S
N802 C764 1.343 . S
N802 C785 1.343 . S
N803 C771 1.343 . S
N803 C778 1.388 . S
C804 C805 1.435 . S
C804 C806 1.384 . S
C804 H832 0.931 . S
C805 C804 1.435 . S
C805 C808 1.369 1_545 S
C806 C804 1.384 . S
C806 C807 1.380 1_545 S
C806 H833 0.930 . S
C807 C806 1.380 1_565 S
C807 C809 1.387 . S
C807 C810 1.492 . S
C808 C805 1.369 1_565 S
C808 C809 1.387 . S
C808 H834 0.930 . S
C809 C807 1.387 . S
C809 C808 1.387 . S
C809 H835 0.931 . S
C810 C807 1.492 . S
C810 C817 1.399 1_565 S
C810 N848 1.359 . S
C811 C812 1.384 . S
C811 C813 1.384 . S
C811 H836 0.931 . S
C812 C811 1.384 . S
C812 C815 1.382 1_565 S
C813 C811 1.384 . S
C813 C814 1.414 . S
C813 H837 0.930 . S
C814 C813 1.414 . S
C814 C816 1.365 1_565 S
C814 C817 1.471 1_565 S
C815 C812 1.382 1_545 S
C815 C816 1.387 . S
C815 H838 0.930 . S
C816 C814 1.365 1_545 S
C816 C815 1.387 . S
C816 H839 0.931 . S
C817 C810 1.399 1_545 S
C817 C814 1.471 1_545 S
C817 N849 1.306 . S
C818 C819 1.422 . S
C818 C820 1.384 . S
C818 H840 0.931 . S
C819 C818 1.422 . S
C819 C822 1.372 1_565 S
C820 C818 1.384 . S
C820 C821 1.376 1_565 S
C820 H841 0.930 . S
C821 C820 1.376 1_545 S
C821 C823 1.400 . S
C821 C824 1.492 . S
C822 C819 1.372 1_545 S
C822 C823 1.387 . S
C822 H842 0.930 . S
C823 C821 1.400 . S
C823 C822 1.387 . S
C823 H843 0.931 . S
C824 C821 1.492 . S
C824 C831 1.399 . S
C824 N849 1.359 . S
C825 C826 1.384 . S
C825 C827 1.384 . S
C825 H844 0.931 . S
C826 C825 1.384 . S
C826 C829 1.382 1_545 S
C827 C825 1.384 . S
C827 C828 1.435 . S
C827 H845 0.930 . S
C828 C827 1.435 . S
C828 C830 1.355 1_545 S
C828 C831 1.462 . S
C829 C826 1.382 1_565 S
C829 C830 1.387 . S
C829 H846 0.930 . S
C830 C828 1.355 1_565 S
C830 C829 1.387 . S
C830 H847 0.931 . S
C831 C824 1.399 . S
C831 C828 1.462 . S
C831 N848 1.316 1_545 S
H832 C804 0.931 . S
H833 C806 0.930 . S
H834 C808 0.930 . S
H835 C809 0.931 . S
H836 C811 0.931 . S
H837 C813 0.930 . S
H838 C815 0.930 . S
H839 C816 0.931 . S
H840 C818 0.931 . S
H841 C820 0.930 . S
H842 C822 0.930 . S
H843 C823 0.931 . S
H844 C825 0.931 . S
H845 C827 0.930 . S
H846 C829 0.930 . S
H847 C830 0.931 . S
N848 C810 1.359 . S
N848 C831 1.316 1_565 S
N849 C817 1.306 . S
N849 C824 1.359 . S
C850 C851 1.384 . S
C850 C852 1.384 . S
C850 H878 0.931 . S
C851 C850 1.384 . S
C851 C854 1.382 1_655 S
C852 C850 1.384 . S
C852 C853 1.437 . S
C852 H879 0.930 . S
C853 C852 1.437 . S
C853 C855 1.354 1_655 S
C853 C856 1.461 . S
C854 C851 1.382 1_455 S
C854 C855 1.387 . S
C854 H880 0.930 . S
C855 C853 1.354 1_455 S
C855 C854 1.387 . S
C855 H881 0.931 . S
C856 C853 1.461 . S
C856 C863 1.399 . S
C856 N894 1.325 1_655 S
C857 C858 1.384 . S
C857 C859 1.384 . S
C857 H882 0.931 . S
C858 C857 1.384 . S
C858 C861 1.382 1_455 S
C859 C857 1.384 . S
C859 C860 1.383 1_455 S
C859 H883 0.930 . S
C860 C859 1.383 1_655 S
C860 C862 1.377 . S
C860 C863 1.501 . S
C861 C858 1.382 1_655 S
C861 C862 1.387 . S
C861 H884 0.930 . S
C862 C860 1.377 . S
C862 C861 1.387 . S
C862 H885 0.931 . S
C863 C856 1.399 . S
C863 C860 1.501 . S
C863 N895 1.359 . S
C864 C865 1.384 . S
C864 C866 1.384 . S
C864 H886 0.931 . S
C865 C864 1.384 . S
C865 C868 1.382 1_455 S
C866 C864 1.384 . S
C866 C867 1.417 . S
C866 H887 0.930 . S
C867 C866 1.417 . S
C867 C869 1.364 1_455 S
C867 C870 1.470 1_455 S
C868 C865 1.382 1_655 S
C868 C869 1.387 . S
C868 H888 0.930 . S
C869 C867 1.364 1_655 S
C869 C868 1.387 . S
C869 H889 0.931 . S
C870 C867 1.470 1_655 S
C870 C877 1.399 1_655 S
C870 N895 1.315 . S
C871 C872 1.384 . S
C871 C873 1.384 . S
C871 H890 0.931 . S
C872 C871 1.384 . S
C872 C875 1.382 1_655 S
C873 C871 1.384 . S
C873 C874 1.383 . S
C873 H891 0.930 . S
C874 C873 1.383 . S
C874 C876 1.377 1_655 S
C874 C877 1.492 1_655 S
C875 C872 1.382 1_455 S
C875 C876 1.387 . S
C875 H892 0.930 . S
C876 C874 1.377 1_455 S
C876 C875 1.387 . S
C876 H893 0.931 . S
C877 C870 1.399 1_455 S
C877 C874 1.492 1_455 S
C877 N894 1.359 . S
H878 C850 0.931 . S
H879 C852 0.930 . S
H880 C854 0.930 . S
H881 C855 0.931 . S
H882 C857 0.931 . S
H883 C859 0.930 . S
H884 C861 0.930 . S
H885 C862 0.931 . S
H886 C864 0.931 . S
H887 C866 0.930 . S
H888 C868 0.930 . S
H889 C869 0.931 . S
H890 C871 0.931 . S
H891 C873 0.930 . S
H892 C875 0.930 . S
H893 C876 0.931 . S
N894 C856 1.325 1_455 S
N894 C877 1.359 . S
N895 C863 1.359 . S
N895 C870 1.315 . S
C896 C897 1.384 . S
C896 C898 1.384 . S
C896 H924 0.931 . S
C897 C896 1.384 . S
C897 C900 1.382 . S
C898 C896 1.384 . S
C898 C899 1.381 . S
C898 H925 0.930 . S
C899 C898 1.381 . S
C899 C901 1.381 . S
C899 C902 1.487 . S
C900 C897 1.382 . S
C900 C901 1.387 . S
C900 H926 0.930 . S
C901 C899 1.381 . S
C901 C900 1.387 . S
C901 H927 0.931 . S
C902 C899 1.487 . S
C902 C909 1.399 . S
C902 N940 1.343 . S
C903 C904 1.384 . S
C903 C905 1.384 . S
C903 H928 0.931 . S
C904 C903 1.384 . S
C904 C907 1.382 . S
C905 C903 1.384 . S
C905 C906 1.381 . S
C905 H929 0.930 . S
C906 C905 1.381 . S
C906 C908 1.381 . S
C906 C909 1.487 . S
C907 C904 1.382 . S
C907 C908 1.387 . S
C907 H930 0.930 . S
C908 C906 1.381 . S
C908 C907 1.387 . S
C908 H931 0.931 . S
C909 C902 1.399 . S
C909 C906 1.487 . S
C909 N941 1.343 . S
C910 C911 1.384 . S
C910 C912 1.384 . S
C910 H932 0.931 . S
C911 C910 1.384 . S
C911 C914 1.382 . S
C912 C910 1.384 . S
C912 C913 1.381 . S
C912 H933 0.930 . S
C913 C912 1.381 . S
C913 C915 1.381 . S
C913 C916 1.487 . S
C914 C911 1.382 . S
C914 C915 1.387 . S
C914 H934 0.930 . S
C915 C913 1.381 . S
C915 C914 1.387 . S
C915 H935 0.931 . S
C916 C913 1.487 . S
C916 C923 1.399 . S
C916 N941 1.343 . S
C917 C918 1.384 . S
C917 C919 1.384 . S
C917 H936 0.931 . S
C918 C917 1.384 . S
C918 C921 1.382 . S
C919 C917 1.384 . S
C919 C920 1.381 . S
C919 H937 0.930 . S
C920 C919 1.381 . S
C920 C922 1.381 . S
C920 C923 1.487 . S
C921 C918 1.382 . S
C921 C922 1.387 . S
C921 H938 0.930 . S
C922 C920 1.381 . S
C922 C921 1.387 . S
C922 H939 0.931 . S
C923 C916 1.399 . S
C923 C920 1.487 . S
C923 N940 1.343 . S
H924 C896 0.931 . S
H925 C898 0.930 . S
H926 C900 0.930 . S
H927 C901 0.931 . S
H928 C903 0.931 . S
H929 C905 0.930 . S
H930 C907 0.930 . S
H931 C908 0.931 . S
H932 C910 0.931 . S
H933 C912 0.930 . S
H934 C914 0.930 . S
H935 C915 0.931 . S
H936 C917 0.931 . S
H937 C919 0.930 . S
H938 C921 0.930 . S
H939 C922 0.931 . S
N940 C902 1.343 . S
N940 C923 1.343 . S
N941 C909 1.343 . S
N941 C916 1.343 . S
C942 C943 1.384 . S
C942 C944 1.384 . S
C942 H970 0.931 . S
C943 C942 1.384 . S
C943 C946 1.382 . S
C944 C942 1.384 . S
C944 C945 1.381 . S
C944 H971 0.930 . S
C945 C944 1.381 . S
C945 C947 1.381 . S
C945 C948 1.487 . S
C946 C943 1.382 . S
C946 C947 1.387 . S
C946 H972 0.930 . S
C947 C945 1.381 . S
C947 C946 1.387 . S
C947 H973 0.931 . S
C948 C945 1.487 . S
C948 C955 1.399 . S
C948 N986 1.343 . S
C949 C950 1.384 . S
C949 C951 1.384 . S
C949 H974 0.931 . S
C950 C949 1.384 . S
C950 C953 1.382 . S
C951 C949 1.384 . S
C951 C952 1.381 . S
C951 H975 0.930 . S
C952 C951 1.381 . S
C952 C954 1.381 . S
C952 C955 1.487 . S
C953 C950 1.382 . S
C953 C954 1.387 . S
C953 H976 0.930 . S
C954 C952 1.381 . S
C954 C953 1.387 . S
C954 H977 0.931 . S
C955 C948 1.399 . S
C955 C952 1.487 . S
C955 N987 1.343 . S
C956 C957 1.384 . S
C956 C958 1.384 . S
C956 H978 0.931 . S
C957 C956 1.384 . S
C957 C960 1.382 . S
C958 C956 1.384 . S
C958 C959 1.381 . S
C958 H979 0.930 . S
C959 C958 1.381 . S
C959 C961 1.381 . S
C959 C962 1.487 . S
C960 C957 1.382 . S
C960 C961 1.387 . S
C960 H980 0.930 . S
C961 C959 1.381 . S
C961 C960 1.387 . S
C961 H981 0.931 . S
C962 C959 1.487 . S
C962 C969 1.399 . S
C962 N987 1.343 . S
C963 C964 1.384 . S
C963 C965 1.384 . S
C963 H982 0.931 . S
C964 C963 1.384 . S
C964 C967 1.382 . S
C965 C963 1.384 . S
C965 C966 1.381 . S
C965 H983 0.930 . S
C966 C965 1.381 . S
C966 C968 1.381 . S
C966 C969 1.487 . S
C967 C964 1.382 . S
C967 C968 1.387 . S
C967 H984 0.930 . S
C968 C966 1.381 . S
C968 C967 1.387 . S
C968 H985 0.931 . S
C969 C962 1.399 . S
C969 C966 1.487 . S
C969 N986 1.343 . S
H970 C942 0.931 . S
H971 C944 0.930 . S
H972 C946 0.930 . S
H973 C947 0.931 . S
H974 C949 0.931 . S
H975 C951 0.930 . S
H976 C953 0.930 . S
H977 C954 0.931 . S
H978 C956 0.931 . S
H979 C958 0.930 . S
H980 C960 0.930 . S
H981 C961 0.931 . S
H982 C963 0.931 . S
H983 C965 0.930 . S
H984 C967 0.930 . S
H985 C968 0.931 . S
N986 C948 1.343 . S
N986 C969 1.343 . S
N987 C955 1.343 . S
N987 C962 1.343 . S
C988 C989 1.384 . S
C988 C990 1.384 . S
C988 H1016 0.931 . S
C989 C988 1.384 . S
C989 C992 1.382 . S
C990 C988 1.384 . S
C990 C991 1.381 . S
C990 H1017 0.930 . S
C991 C990 1.381 . S
C991 C993 1.381 . S
C991 C994 1.487 . S
C992 C989 1.382 . S
C992 C993 1.387 . S
C992 H1018 0.930 . S
C993 C991 1.381 . S
C993 C992 1.387 . S
C993 H1019 0.931 . S
C994 C991 1.487 . S
C994 C1001 1.399 . S
C994 N1032 1.343 . S
C995 C996 1.384 . S
C995 C997 1.384 . S
C995 H1020 0.931 . S
C996 C995 1.384 . S
C996 C999 1.382 . S
C997 C995 1.384 . S
C997 C998 1.381 . S
C997 H1021 0.930 . S
C998 C997 1.381 . S
C998 C1000 1.381 . S
C998 C1001 1.487 . S
C999 C996 1.382 . S
C999 C1000 1.387 . S
C999 H1022 0.930 . S
C1000 C998 1.381 . S
C1000 C999 1.387 . S
C1000 H1023 0.931 . S
C1001 C994 1.399 . S
C1001 C998 1.487 . S
C1001 N1033 1.343 . S
C1002 C1003 1.384 . S
C1002 C1004 1.384 . S
C1002 H1024 0.931 . S
C1003 C1002 1.384 . S
C1003 C1006 1.382 . S
C1004 C1002 1.384 . S
C1004 C1005 1.381 . S
C1004 H1025 0.930 . S
C1005 C1004 1.381 . S
C1005 C1007 1.381 . S
C1005 C1008 1.487 . S
C1006 C1003 1.382 . S
C1006 C1007 1.387 . S
C1006 H1026 0.930 . S
C1007 C1005 1.381 . S
C1007 C1006 1.387 . S
C1007 H1027 0.931 . S
C1008 C1005 1.487 . S
C1008 C1015 1.399 . S
C1008 N1033 1.343 . S
C1009 C1010 1.384 . S
C1009 C1011 1.384 . S
C1009 H1028 0.931 . S
C1010 C1009 1.384 . S
C1010 C1013 1.382 . S
C1011 C1009 1.384 . S
C1011 C1012 1.381 . S
C1011 H1029 0.930 . S
C1012 C1011 1.381 . S
C1012 C1014 1.381 . S
C1012 C1015 1.487 . S
C1013 C1010 1.382 . S
C1013 C1014 1.387 . S
C1013 H1030 0.930 . S
C1014 C1012 1.381 . S
C1014 C1013 1.387 . S
C1014 H1031 0.931 . S
C1015 C1008 1.399 . S
C1015 C1012 1.487 . S
C1015 N1032 1.343 . S
H1016 C988 0.931 . S
H1017 C990 0.930 . S
H1018 C992 0.930 . S
H1019 C993 0.931 . S
H1020 C995 0.931 . S
H1021 C997 0.930 . S
H1022 C999 0.930 . S
H1023 C1000 0.931 . S
H1024 C1002 0.931 . S
H1025 C1004 0.930 . S
H1026 C1006 0.930 . S
H1027 C1007 0.931 . S
H1028 C1009 0.931 . S
H1029 C1011 0.930 . S
H1030 C1013 0.930 . S
H1031 C1014 0.931 . S
N1032 C994 1.343 . S
N1032 C1015 1.343 . S
N1033 C1001 1.343 . S
N1033 C1008 1.343 . S
C1034 C1035 1.384 . S
C1034 C1036 1.384 . S
C1034 H1062 0.931 . S
C1035 C1034 1.384 . S
C1035 C1038 1.382 . S
C1036 C1034 1.384 . S
C1036 C1037 1.381 . S
C1036 H1063 0.930 . S
C1037 C1036 1.381 . S
C1037 C1039 1.381 . S
C1037 C1040 1.487 . S
C1038 C1035 1.382 . S
C1038 C1039 1.387 . S
C1038 H1064 0.930 . S
C1039 C1037 1.381 . S
C1039 C1038 1.387 . S
C1039 H1065 0.931 . S
C1040 C1037 1.487 . S
C1040 C1047 1.399 . S
C1040 N1078 1.343 . S
C1041 C1042 1.384 . S
C1041 C1043 1.384 . S
C1041 H1066 0.931 . S
C1042 C1041 1.384 . S
C1042 C1045 1.382 . S
C1043 C1041 1.384 . S
C1043 C1044 1.381 . S
C1043 H1067 0.930 . S
C1044 C1043 1.381 . S
C1044 C1046 1.381 . S
C1044 C1047 1.487 . S
C1045 C1042 1.382 . S
C1045 C1046 1.387 . S
C1045 H1068 0.930 . S
C1046 C1044 1.381 . S
C1046 C1045 1.387 . S
C1046 H1069 0.931 . S
C1047 C1040 1.399 . S
C1047 C1044 1.487 . S
C1047 N1079 1.343 . S
C1048 C1049 1.384 . S
C1048 C1050 1.384 . S
C1048 H1070 0.931 . S
C1049 C1048 1.384 . S
C1049 C1052 1.382 . S
C1050 C1048 1.384 . S
C1050 C1051 1.381 . S
C1050 H1071 0.930 . S
C1051 C1050 1.381 . S
C1051 C1053 1.381 . S
C1051 C1054 1.487 . S
C1052 C1049 1.382 . S
C1052 C1053 1.387 . S
C1052 H1072 0.930 . S
C1053 C1051 1.381 . S
C1053 C1052 1.387 . S
C1053 H1073 0.931 . S
C1054 C1051 1.487 . S
C1054 C1061 1.399 . S
C1054 N1079 1.343 . S
C1055 C1056 1.384 . S
C1055 C1057 1.384 . S
C1055 H1074 0.931 . S
C1056 C1055 1.384 . S
C1056 C1059 1.382 . S
C1057 C1055 1.384 . S
C1057 C1058 1.381 . S
C1057 H1075 0.930 . S
C1058 C1057 1.381 . S
C1058 C1060 1.381 . S
C1058 C1061 1.487 . S
C1059 C1056 1.382 . S
C1059 C1060 1.387 . S
C1059 H1076 0.930 . S
C1060 C1058 1.381 . S
C1060 C1059 1.387 . S
C1060 H1077 0.931 . S
C1061 C1054 1.399 . S
C1061 C1058 1.487 . S
C1061 N1078 1.343 . S
H1062 C1034 0.931 . S
H1063 C1036 0.930 . S
H1064 C1038 0.930 . S
H1065 C1039 0.931 . S
H1066 C1041 0.931 . S
H1067 C1043 0.930 . S
H1068 C1045 0.930 . S
H1069 C1046 0.931 . S
H1070 C1048 0.931 . S
H1071 C1050 0.930 . S
H1072 C1052 0.930 . S
H1073 C1053 0.931 . S
H1074 C1055 0.931 . S
H1075 C1057 0.930 . S
H1076 C1059 0.930 . S
H1077 C1060 0.931 . S
N1078 C1040 1.343 . S
N1078 C1061 1.343 . S
N1079 C1047 1.343 . S
N1079 C1054 1.343 . S
H1080 C1098 0.951 . S
H1081 C1100 0.951 . S
H1082 C1102 0.950 . S
H1083 C1103 0.950 . S
H1084 C1105 0.950 . S
H1085 C1108 0.950 . S
H1086 C1109 0.950 . S
H1087 C1111 0.950 . S
H1088 C1112 0.950 . S
H1089 C1113 0.951 . S
H1090 C1115 0.951 . S
H1091 C1117 0.950 . S
H1092 C1118 0.950 . S
H1093 C1120 0.950 . S
H1094 C1123 0.950 . S
H1095 C1124 0.950 . S
H1096 C1126 0.950 . S
H1097 C1127 0.950 . S
C1098 H1080 0.951 . S
C1098 C1099 1.366 1_455 S
C1098 C1100 1.388 . S
C1099 C1098 1.366 1_655 S
C1099 C1103 1.385 . S
C1100 H1081 0.951 . S
C1100 C1098 1.388 . S
C1100 C1101 1.366 1_455 S
C1101 C1100 1.366 1_655 S
C1101 C1102 1.414 . S
C1101 C1104 1.499 . S
C1102 H1082 0.950 . S
C1102 C1101 1.414 . S
C1102 C1103 1.374 . S
C1103 H1083 0.950 . S
C1103 C1099 1.385 . S
C1103 C1102 1.374 . S
C1104 C1101 1.499 . S
C1104 C1105 1.373 . S
C1104 C1106 1.389 1_655 S
C1105 H1084 0.950 . S
C1105 C1104 1.373 . S
C1105 C1121 1.377 . S
C1106 C1104 1.389 1_455 S
C1106 C1107 1.524 . S
C1106 C1120 1.377 . S
C1107 C1106 1.524 . S
C1107 C1108 1.397 . S
C1107 C1112 1.363 . S
C1108 H1085 0.950 . S
C1108 C1107 1.397 . S
C1108 C1109 1.334 . S
C1109 H1086 0.950 . S
C1109 C1108 1.334 . S
C1109 C1110 1.287 . S
C1110 C1109 1.287 . S
C1110 C1111 1.524 . S
C1110 H1129 0.913 . S
C1111 H1087 0.950 . S
C1111 C1110 1.524 . S
C1111 C1112 1.415 . S
C1112 H1088 0.950 . S
C1112 C1107 1.363 . S
C1112 C1111 1.415 . S
C1113 H1089 0.951 . S
C1113 C1114 1.366 . S
C1113 C1115 1.388 . S
C1114 C1113 1.366 . S
C1114 C1118 1.385 1_655 S
C1115 H1090 0.951 . S
C1115 C1113 1.388 . S
C1115 C1116 1.366 . S
C1116 C1115 1.366 . S
C1116 C1117 1.414 1_655 S
C1116 C1119 1.499 . S
C1117 H1091 0.950 . S
C1117 C1116 1.414 1_455 S
C1117 C1118 1.374 . S
C1118 H1092 0.950 . S
C1118 C1114 1.385 1_455 S
C1118 C1117 1.374 . S
C1119 C1116 1.499 . S
C1119 C1120 1.373 1_655 S
C1119 C1121 1.389 . S
C1120 H1093 0.950 . S
C1120 C1106 1.377 . S
C1120 C1119 1.373 1_455 S
C1121 C1105 1.377 . S
C1121 C1119 1.389 . S
C1121 C1122 1.524 . S
C1122 C1121 1.524 . S
C1122 C1123 1.397 . S
C1122 C1127 1.363 . S
C1123 H1094 0.950 . S
C1123 C1122 1.397 . S
C1123 C1124 1.334 . S
C1124 H1095 0.950 . S
C1124 C1123 1.334 . S
C1124 C1125 1.287 . S
C1125 C1124 1.287 . S
C1125 C1126 1.524 . S
C1125 H1128 0.999 . S
C1126 H1096 0.950 . S
C1126 C1125 1.524 . S
C1126 C1127 1.415 . S
C1127 H1097 0.950 . S
C1127 C1122 1.363 . S
C1127 C1126 1.415 . S
H1128 C1125 0.999 . S
H1129 C1110 0.913 . S
H1130 C1148 0.951 . S
H1131 C1150 0.951 . S
H1132 C1152 0.950 . S
H1133 C1153 0.950 . S
H1134 C1155 0.950 . S
H1135 C1158 0.950 . S
H1136 C1159 0.950 . S
H1137 C1161 0.950 . S
H1138 C1162 0.950 . S
H1139 C1163 0.951 . S
H1140 C1165 0.951 . S
H1141 C1167 0.950 . S
H1142 C1168 0.950 . S
H1143 C1170 0.950 . S
H1144 C1173 0.950 . S
H1145 C1174 0.950 . S
H1146 C1176 0.950 . S
H1147 C1177 0.950 . S
C1148 H1130 0.951 . S
C1148 C1149 1.366 . S
C1148 C1150 1.388 . S
C1149 C1148 1.366 . S
C1149 C1153 1.385 . S
C1150 H1131 0.951 . S
C1150 C1148 1.388 . S
C1150 C1151 1.366 . S
C1151 C1150 1.366 . S
C1151 C1152 1.414 . S
C1151 C1154 1.499 . S
C1152 H1132 0.950 . S
C1152 C1151 1.414 . S
C1152 C1153 1.374 . S
C1153 H1133 0.950 . S
C1153 C1149 1.385 . S
C1153 C1152 1.374 . S
C1154 C1151 1.499 . S
C1154 C1155 1.373 . S
C1154 C1156 1.389 . S
C1155 H1134 0.950 . S
C1155 C1154 1.373 . S
C1155 C1171 1.377 . S
C1156 C1154 1.389 . S
C1156 C1157 1.524 . S
C1156 C1170 1.377 . S
C1157 C1156 1.524 . S
C1157 C1158 1.397 . S
C1157 C1162 1.363 . S
C1158 H1135 0.950 . S
C1158 C1157 1.397 . S
C1158 C1159 1.334 . S
C1159 H1136 0.950 . S
C1159 C1158 1.334 . S
C1159 C1160 1.287 . S
C1160 C1159 1.287 . S
C1160 C1161 1.524 . S
C1160 H1179 0.913 . S
C1161 H1137 0.950 . S
C1161 C1160 1.524 . S
C1161 C1162 1.415 . S
C1162 H1138 0.950 . S
C1162 C1157 1.363 . S
C1162 C1161 1.415 . S
C1163 H1139 0.951 . S
C1163 C1164 1.366 . S
C1163 C1165 1.388 . S
C1164 C1163 1.366 . S
C1164 C1168 1.385 . S
C1165 H1140 0.951 . S
C1165 C1163 1.388 . S
C1165 C1166 1.366 . S
C1166 C1165 1.366 . S
C1166 C1167 1.414 . S
C1166 C1169 1.499 . S
C1167 H1141 0.950 . S
C1167 C1166 1.414 . S
C1167 C1168 1.374 . S
C1168 H1142 0.950 . S
C1168 C1164 1.385 . S
C1168 C1167 1.374 . S
C1169 C1166 1.499 . S
C1169 C1170 1.373 . S
C1169 C1171 1.389 . S
C1170 H1143 0.950 . S
C1170 C1156 1.377 . S
C1170 C1169 1.373 . S
C1171 C1155 1.377 . S
C1171 C1169 1.389 . S
C1171 C1172 1.524 . S
C1172 C1171 1.524 . S
C1172 C1173 1.397 . S
C1172 C1177 1.363 . S
C1173 H1144 0.950 . S
C1173 C1172 1.397 . S
C1173 C1174 1.334 . S
C1174 H1145 0.950 . S
C1174 C1173 1.334 . S
C1174 C1175 1.287 . S
C1175 C1174 1.287 . S
C1175 C1176 1.524 . S
C1175 H1178 0.999 . S
C1176 H1146 0.950 . S
C1176 C1175 1.524 . S
C1176 C1177 1.415 . S
C1177 H1147 0.950 . S
C1177 C1172 1.363 . S
C1177 C1176 1.415 . S
H1178 C1175 0.999 . S
H1179 C1160 0.913 . S
H1180 C1198 0.951 . S
H1181 C1200 0.975 . S
H1182 C1202 0.950 . S
H1183 C1203 0.950 . S
H1184 C1205 0.950 . S
H1185 C1208 0.950 . S
H1186 C1209 0.950 . S
H1187 C1211 0.950 . S
H1188 C1212 0.950 . S
H1189 C1213 0.951 . S
H1190 C1215 0.951 . S
H1191 C1217 0.950 . S
H1192 C1218 0.950 . S
H1193 C1220 0.950 . S
H1194 C1223 0.950 . S
H1195 C1224 0.950 . S
H1196 C1226 0.950 1_545 S
H1197 C1227 0.950 . S
C1198 H1180 0.951 . S
C1198 C1199 1.366 . S
C1198 C1200 1.388 . S
C1199 C1198 1.366 . S
C1199 C1203 1.385 . S
C1200 H1181 0.975 . S
C1200 C1198 1.388 . S
C1200 C1201 1.366 . S
C1201 C1200 1.366 . S
C1201 C1202 1.414 . S
C1201 C1204 1.499 . S
C1202 H1182 0.950 . S
C1202 C1201 1.414 . S
C1202 C1203 1.374 . S
C1203 H1183 0.950 . S
C1203 C1199 1.385 . S
C1203 C1202 1.374 . S
C1204 C1201 1.499 . S
C1204 C1205 1.373 . S
C1204 C1206 1.389 . S
C1205 H1184 0.950 . S
C1205 C1204 1.373 . S
C1205 C1221 1.377 . S
C1206 C1204 1.389 . S
C1206 C1207 1.524 . S
C1206 C1220 1.377 . S
C1207 C1206 1.524 . S
C1207 C1208 1.397 . S
C1207 C1212 1.363 . S
C1208 H1185 0.950 . S
C1208 C1207 1.397 . S
C1208 C1209 1.334 . S
C1209 H1186 0.950 . S
C1209 C1208 1.334 . S
C1209 C1210 1.287 . S
C1210 C1209 1.287 . S
C1210 C1211 1.524 . S
C1210 H1229 0.913 . S
C1211 H1187 0.950 . S
C1211 C1210 1.524 . S
C1211 C1212 1.415 . S
C1212 H1188 0.950 . S
C1212 C1207 1.363 . S
C1212 C1211 1.415 . S
C1213 H1189 0.951 . S
C1213 C1214 1.366 . S
C1213 C1215 1.388 . S
C1214 C1213 1.366 . S
C1214 C1218 1.385 1_545 S
C1215 H1190 0.951 . S
C1215 C1213 1.388 . S
C1215 C1216 1.366 . S
C1216 C1215 1.366 . S
C1216 C1217 1.414 1_545 S
C1216 C1219 1.499 . S
C1217 H1191 0.950 . S
C1217 C1216 1.414 1_565 S
C1217 C1218 1.374 . S
C1218 H1192 0.950 . S
C1218 C1214 1.385 1_565 S
C1218 C1217 1.374 . S
C1219 C1216 1.499 . S
C1219 C1220 1.373 . S
C1219 C1221 1.389 . S
C1220 H1193 0.950 . S
C1220 C1206 1.377 . S
C1220 C1219 1.373 . S
C1221 C1205 1.377 . S
C1221 C1219 1.389 . S
C1221 C1222 1.524 1_545 S
C1222 C1221 1.524 1_565 S
C1222 C1223 1.397 . S
C1222 C1227 1.363 1_565 S
C1223 H1194 0.950 . S
C1223 C1222 1.397 . S
C1223 C1224 1.334 . S
C1224 H1195 0.950 . S
C1224 C1223 1.334 . S
C1224 C1225 1.287 . S
C1225 C1224 1.287 . S
C1225 C1226 1.524 . S
C1225 H1228 0.999 . S
C1226 H1196 0.950 1_565 S
C1226 C1225 1.524 . S
C1226 C1227 1.415 1_565 S
C1227 H1197 0.950 . S
C1227 C1222 1.363 1_545 S
C1227 C1226 1.415 1_545 S
H1228 C1225 0.999 . S
H1229 C1210 0.913 . S
H1230 C1248 0.951 . S
H1231 C1250 0.951 . S
H1232 C1252 0.950 . S
H1233 C1253 0.950 . S
H1234 C1255 0.950 . S
H1235 C1258 0.950 . S
H1236 C1259 0.950 . S
H1237 C1261 0.950 . S
H1238 C1262 0.950 . S
H1239 C1263 0.951 . S
H1240 C1265 0.951 . S
H1241 C1267 0.950 . S
H1242 C1268 0.950 . S
H1243 C1270 0.950 . S
H1244 C1273 0.950 . S
H1245 C1274 0.950 . S
H1246 C1276 0.950 . S
H1247 C1277 0.950 . S
C1248 H1230 0.951 . S
C1248 C1249 1.366 1_545 S
C1248 C1250 1.388 . S
C1249 C1248 1.366 1_565 S
C1249 C1253 1.385 . S
C1250 H1231 0.951 . S
C1250 C1248 1.388 . S
C1250 C1251 1.366 1_545 S
C1251 C1250 1.366 1_565 S
C1251 C1252 1.414 . S
C1251 C1254 1.499 . S
C1252 H1232 0.950 . S
C1252 C1251 1.414 . S
C1252 C1253 1.374 . S
C1253 H1233 0.950 . S
C1253 C1249 1.385 . S
C1253 C1252 1.374 . S
C1254 C1251 1.499 . S
C1254 C1255 1.373 . S
C1254 C1256 1.389 1_565 S
C1255 H1234 0.950 . S
C1255 C1254 1.373 . S
C1255 C1271 1.377 . S
C1256 C1254 1.389 1_545 S
C1256 C1257 1.524 . S
C1256 C1270 1.377 . S
C1257 C1256 1.524 . S
C1257 C1258 1.397 1_545 S
C1257 C1262 1.363 . S
C1258 H1235 0.950 . S
C1258 C1257 1.397 1_565 S
C1258 C1259 1.334 . S
C1259 H1236 0.950 . S
C1259 C1258 1.334 . S
C1259 C1260 1.287 1_565 S
C1260 C1259 1.287 1_545 S
C1260 C1261 1.524 . S
C1260 H1279 0.913 . S
C1261 H1237 0.950 . S
C1261 C1260 1.524 . S
C1261 C1262 1.415 . S
C1262 H1238 0.950 . S
C1262 C1257 1.363 . S
C1262 C1261 1.415 . S
C1263 H1239 0.951 . S
C1263 C1264 1.366 . S
C1263 C1265 1.388 . S
C1264 C1263 1.366 . S
C1264 C1268 1.385 1_565 S
C1265 H1240 0.951 . S
C1265 C1263 1.388 . S
C1265 C1266 1.457 . S
C1266 C1265 1.457 . S
C1266 C1267 1.363 1_565 S
C1266 C1269 1.479 . S
C1267 H1241 0.950 . S
C1267 C1266 1.363 1_545 S
C1267 C1268 1.374 . S
C1268 H1242 0.950 . S
C1268 C1264 1.385 1_545 S
C1268 C1267 1.374 . S
C1269 C1266 1.479 . S
C1269 C1270 1.345 1_565 S
C1269 C1271 1.401 . S
C1270 H1243 0.950 . S
C1270 C1256 1.377 . S
C1270 C1269 1.345 1_545 S
C1271 C1255 1.377 . S
C1271 C1269 1.401 . S
C1271 C1272 1.524 . S
C1272 C1271 1.524 . S
C1272 C1273 1.397 1_565 S
C1272 C1277 1.363 . S
C1273 H1244 0.950 . S
C1273 C1272 1.397 1_545 S
C1273 C1274 1.334 . S
C1274 H1245 0.950 . S
C1274 C1273 1.334 . S
C1274 C1275 1.287 1_545 S
C1275 C1274 1.287 1_565 S
C1275 C1276 1.524 . S
C1275 H1278 0.999 . S
C1276 H1246 0.950 . S
C1276 C1275 1.524 . S
C1276 C1277 1.415 . S
C1277 H1247 0.950 . S
C1277 C1272 1.363 . S
C1277 C1276 1.415 . S
H1278 C1275 0.999 . S
H1279 C1260 0.913 . S
H1280 C1298 0.948 1_655 S
H1281 C1300 0.953 . S
H1282 C1302 0.950 . S
H1283 C1303 0.950 . S
H1284 C1305 0.950 . S
H1285 C1308 0.950 . S
H1286 C1309 0.950 . S
H1287 C1311 0.930 1_655 S
H1288 C1312 0.950 1_655 S
H1289 C1313 0.951 . S
H1290 C1315 0.951 . S
H1291 C1317 0.950 . S
H1292 C1318 0.950 . S
H1293 C1320 0.950 . S
H1294 C1323 0.950 . S
H1295 C1324 0.950 . S
H1296 C1326 0.950 . S
H1297 C1327 0.950 . S
C1298 H1280 0.948 1_455 S
C1298 C1299 1.379 . S
C1298 C1300 1.376 1_455 S
C1299 C1298 1.379 . S
C1299 C1303 1.385 . S
C1300 H1281 0.953 . S
C1300 C1298 1.376 1_655 S
C1300 C1301 1.365 1_655 S
C1301 C1300 1.365 1_455 S
C1301 C1302 1.414 . S
C1301 C1304 1.499 . S
C1302 H1282 0.950 . S
C1302 C1301 1.414 . S
C1302 C1303 1.374 . S
C1303 H1283 0.950 . S
C1303 C1299 1.385 . S
C1303 C1302 1.374 . S
C1304 C1301 1.499 . S
C1304 C1305 1.373 . S
C1304 C1306 1.389 . S
C1305 H1284 0.950 . S
C1305 C1304 1.373 . S
C1305 C1321 1.377 . S
C1306 C1304 1.389 . S
C1306 C1307 1.524 . S
C1306 C1320 1.377 . S
C1307 C1306 1.524 . S
C1307 C1308 1.397 . S
C1307 C1312 1.363 . S
C1308 H1285 0.950 . S
C1308 C1307 1.397 . S
C1308 C1309 1.334 . S
C1309 H1286 0.950 . S
C1309 C1308 1.334 . S
C1309 C1310 1.287 . S
C1310 C1309 1.287 . S
C1310 C1311 1.524 . S
C1310 H1329 0.913 . S
C1311 H1287 0.930 1_455 S
C1311 C1310 1.524 . S
C1311 C1312 1.415 . S
C1312 H1288 0.950 1_455 S
C1312 C1307 1.363 . S
C1312 C1311 1.415 . S
C1313 H1289 0.951 . S
C1313 C1314 1.366 . S
C1313 C1315 1.388 . S
C1314 C1313 1.366 . S
C1314 C1318 1.385 1_455 S
C1315 H1290 0.951 . S
C1315 C1313 1.388 . S
C1315 C1316 1.366 . S
C1316 C1315 1.366 . S
C1316 C1317 1.414 1_455 S
C1316 C1319 1.499 . S
C1317 H1291 0.950 . S
C1317 C1316 1.414 1_655 S
C1317 C1318 1.374 . S
C1318 H1292 0.950 . S
C1318 C1314 1.385 1_655 S
C1318 C1317 1.374 . S
C1319 C1316 1.499 . S
C1319 C1320 1.373 . S
C1319 C1321 1.389 . S
C1320 H1293 0.950 . S
C1320 C1306 1.377 . S
C1320 C1319 1.373 . S
C1321 C1305 1.377 . S
C1321 C1319 1.389 . S
C1321 C1322 1.524 . S
C1322 C1321 1.524 . S
C1322 C1323 1.397 1_455 S
C1322 C1327 1.363 . S
C1323 H1294 0.950 . S
C1323 C1322 1.397 1_655 S
C1323 C1324 1.334 . S
C1324 H1295 0.950 . S
C1324 C1323 1.334 . S
C1324 C1325 1.287 . S
C1325 C1324 1.287 . S
C1325 C1326 1.524 1_655 S
C1325 H1328 0.999 . S
C1326 H1296 0.950 . S
C1326 C1325 1.524 1_455 S
C1326 C1327 1.415 . S
C1327 H1297 0.950 . S
C1327 C1322 1.363 . S
C1327 C1326 1.415 . S
H1328 C1325 0.999 . S
H1329 C1310 0.913 . S
H1330 C1348 0.951 . S
H1331 C1350 0.951 . S
H1332 C1352 0.950 . S
H1333 C1353 0.950 . S
H1334 C1355 0.950 . S
H1335 C1358 0.950 . S
H1336 C1359 0.950 . S
H1337 C1361 0.950 . S
H1338 C1362 0.950 . S
H1339 C1363 0.951 . S
H1340 C1365 0.951 . S
H1341 C1367 0.950 . S
H1342 C1368 0.950 . S
H1343 C1370 0.950 . S
H1344 C1373 0.950 . S
H1345 C1374 0.950 . S
H1346 C1376 0.950 . S
H1347 C1377 0.950 . S
C1348 H1330 0.951 . S
C1348 C1349 1.366 . S
C1348 C1350 1.388 . S
C1349 C1348 1.366 . S
C1349 C1353 1.385 . S
C1350 H1331 0.951 . S
C1350 C1348 1.388 . S
C1350 C1351 1.366 . S
C1351 C1350 1.366 . S
C1351 C1352 1.414 . S
C1351 C1354 1.499 . S
C1352 H1332 0.950 . S
C1352 C1351 1.414 . S
C1352 C1353 1.374 . S
C1353 H1333 0.950 . S
C1353 C1349 1.385 . S
C1353 C1352 1.374 . S
C1354 C1351 1.499 . S
C1354 C1355 1.373 . S
C1354 C1356 1.389 . S
C1355 H1334 0.950 . S
C1355 C1354 1.373 . S
C1355 C1371 1.377 . S
C1356 C1354 1.389 . S
C1356 C1357 1.524 . S
C1356 C1370 1.377 . S
C1357 C1356 1.524 . S
C1357 C1358 1.397 . S
C1357 C1362 1.363 . S
C1358 H1335 0.950 . S
C1358 C1357 1.397 . S
C1358 C1359 1.334 . S
C1359 H1336 0.950 . S
C1359 C1358 1.334 . S
C1359 C1360 1.287 . S
C1360 C1359 1.287 . S
C1360 C1361 1.524 . S
C1360 H1379 0.913 . S
C1361 H1337 0.950 . S
C1361 C1360 1.524 . S
C1361 C1362 1.415 . S
C1362 H1338 0.950 . S
C1362 C1357 1.363 . S
C1362 C1361 1.415 . S
C1363 H1339 0.951 . S
C1363 C1364 1.366 . S
C1363 C1365 1.388 . S
C1364 C1363 1.366 . S
C1364 C1368 1.385 . S
C1365 H1340 0.951 . S
C1365 C1363 1.388 . S
C1365 C1366 1.366 . S
C1366 C1365 1.366 . S
C1366 C1367 1.414 . S
C1366 C1369 1.499 . S
C1367 H1341 0.950 . S
C1367 C1366 1.414 . S
C1367 C1368 1.374 . S
C1368 H1342 0.950 . S
C1368 C1364 1.385 . S
C1368 C1367 1.374 . S
C1369 C1366 1.499 . S
C1369 C1370 1.373 . S
C1369 C1371 1.389 . S
C1370 H1343 0.950 . S
C1370 C1356 1.377 . S
C1370 C1369 1.373 . S
C1371 C1355 1.377 . S
C1371 C1369 1.389 . S
C1371 C1372 1.524 . S
C1372 C1371 1.524 . S
C1372 C1373 1.397 . S
C1372 C1377 1.363 . S
C1373 H1344 0.950 . S
C1373 C1372 1.397 . S
C1373 C1374 1.334 . S
C1374 H1345 0.950 . S
C1374 C1373 1.334 . S
C1374 C1375 1.287 . S
C1375 C1374 1.287 . S
C1375 C1376 1.524 . S
C1375 H1378 0.999 . S
C1376 H1346 0.950 . S
C1376 C1375 1.524 . S
C1376 C1377 1.415 . S
C1377 H1347 0.950 . S
C1377 C1372 1.363 . S
C1377 C1376 1.415 . S
H1378 C1375 0.999 . S
H1379 C1360 0.913 . S
H1380 C1398 0.951 . S
H1381 C1400 0.951 . S
H1382 C1402 0.950 . S
H1383 C1403 0.950 . S
H1384 C1405 0.950 . S
H1385 C1408 0.950 . S
H1386 C1409 0.950 . S
H1387 C1411 0.950 . S
H1388 C1412 0.950 . S
H1389 C1413 0.951 . S
H1390 C1415 0.951 . S
H1391 C1417 0.950 . S
H1392 C1418 0.950 . S
H1393 C1420 0.950 . S
H1394 C1423 0.950 1_455 S
H1395 C1424 0.950 . S
H1396 C1426 0.950 . S
H1397 C1427 0.950 . S
C1398 H1380 0.951 . S
C1398 C1399 1.366 . S
C1398 C1400 1.388 . S
C1399 C1398 1.366 . S
C1399 C1403 1.385 1_455 S
C1400 H1381 0.951 . S
C1400 C1398 1.388 . S
C1400 C1401 1.366 . S
C1401 C1400 1.366 . S
C1401 C1402 1.414 1_455 S
C1401 C1404 1.499 . S
C1402 H1382 0.950 . S
C1402 C1401 1.414 1_655 S
C1402 C1403 1.374 . S
C1403 H1383 0.950 . S
C1403 C1399 1.385 1_655 S
C1403 C1402 1.374 . S
C1404 C1401 1.499 . S
C1404 C1405 1.373 1_455 S
C1404 C1406 1.389 . S
C1405 H1384 0.950 . S
C1405 C1404 1.373 1_655 S
C1405 C1421 1.377 . S
C1406 C1404 1.389 . S
C1406 C1407 1.524 . S
C1406 C1420 1.377 . S
C1407 C1406 1.524 . S
C1407 C1408 1.397 . S
C1407 C1412 1.363 . S
C1408 H1385 0.950 . S
C1408 C1407 1.397 . S
C1408 C1409 1.334 . S
C1409 H1386 0.950 . S
C1409 C1408 1.334 . S
C1409 C1410 1.287 . S
C1410 C1409 1.287 . S
C1410 C1411 1.524 . S
C1410 H1429 0.913 . S
C1411 H1387 0.950 . S
C1411 C1410 1.524 . S
C1411 C1412 1.415 . S
C1412 H1388 0.950 . S
C1412 C1407 1.363 . S
C1412 C1411 1.415 . S
C1413 H1389 0.951 . S
C1413 C1414 1.366 1_655 S
C1413 C1415 1.388 . S
C1414 C1413 1.366 1_455 S
C1414 C1418 1.385 . S
C1415 H1390 0.951 . S
C1415 C1413 1.388 . S
C1415 C1416 1.366 1_655 S
C1416 C1415 1.366 1_455 S
C1416 C1417 1.414 . S
C1416 C1419 1.499 . S
C1417 H1391 0.950 . S
C1417 C1416 1.414 . S
C1417 C1418 1.374 . S
C1418 H1392 0.950 . S
C1418 C1414 1.385 . S
C1418 C1417 1.374 . S
C1419 C1416 1.499 . S
C1419 C1420 1.373 . S
C1419 C1421 1.389 1_455 S
C1420 H1393 0.950 . S
C1420 C1406 1.377 . S
C1420 C1419 1.373 . S
C1421 C1405 1.377 . S
C1421 C1419 1.389 1_655 S
C1421 C1422 1.524 . S
C1422 C1421 1.524 . S
C1422 C1423 1.397 . S
C1422 C1427 1.363 . S
C1423 H1394 0.950 1_655 S
C1423 C1422 1.397 . S
C1423 C1424 1.334 . S
C1424 H1395 0.950 . S
C1424 C1423 1.334 . S
C1424 C1425 1.287 . S
C1425 C1424 1.287 . S
C1425 C1426 1.524 . S
C1425 H1428 0.999 . S
C1426 H1396 0.950 . S
C1426 C1425 1.524 . S
C1426 C1427 1.415 . S
C1427 H1397 0.950 . S
C1427 C1422 1.363 . S
C1427 C1426 1.415 . S
H1428 C1425 0.999 . S
H1429 C1410 0.913 . S
H1430 C1448 0.951 . S
H1431 C1450 0.951 . S
H1432 C1452 0.950 . S
H1433 C1453 0.950 . S
H1434 C1455 0.950 . S
H1435 C1458 0.950 . S
H1436 C1459 0.950 . S
H1437 C1461 0.950 . S
H1438 C1462 0.950 . S
H1439 C1463 0.951 . S
H1440 C1465 0.951 . S
H1441 C1467 0.950 . S
H1442 C1468 0.950 . S
H1443 C1470 0.950 . S
H1444 C1473 0.950 . S
H1445 C1474 0.950 . S
H1446 C1476 0.950 . S
H1447 C1477 0.950 . S
C1448 H1430 0.951 . S
C1448 C1449 1.366 . S
C1448 C1450 1.388 . S
C1449 C1448 1.366 . S
C1449 C1453 1.385 . S
C1450 H1431 0.951 . S
C1450 C1448 1.388 . S
C1450 C1451 1.366 . S
C1451 C1450 1.366 . S
C1451 C1452 1.414 . S
C1451 C1454 1.499 . S
C1452 H1432 0.950 . S
C1452 C1451 1.414 . S
C1452 C1453 1.374 . S
C1453 H1433 0.950 . S
C1453 C1449 1.385 . S
C1453 C1452 1.374 . S
C1454 C1451 1.499 . S
C1454 C1455 1.373 . S
C1454 C1456 1.389 . S
C1455 H1434 0.950 . S
C1455 C1454 1.373 . S
C1455 C1471 1.377 . S
C1456 C1454 1.389 . S
C1456 C1457 1.524 . S
C1456 C1470 1.377 . S
C1457 C1456 1.524 . S
C1457 C1458 1.397 . S
C1457 C1462 1.363 . S
C1458 H1435 0.950 . S
C1458 C1457 1.397 . S
C1458 C1459 1.334 . S
C1459 H1436 0.950 . S
C1459 C1458 1.334 . S
C1459 C1460 1.287 . S
C1460 C1459 1.287 . S
C1460 C1461 1.524 . S
C1460 H1479 0.913 . S
C1461 H1437 0.950 . S
C1461 C1460 1.524 . S
C1461 C1462 1.415 . S
C1462 H1438 0.950 . S
C1462 C1457 1.363 . S
C1462 C1461 1.415 . S
C1463 H1439 0.951 . S
C1463 C1464 1.366 . S
C1463 C1465 1.388 . S
C1464 C1463 1.366 . S
C1464 C1468 1.385 . S
C1465 H1440 0.951 . S
C1465 C1463 1.388 . S
C1465 C1466 1.366 . S
C1466 C1465 1.366 . S
C1466 C1467 1.414 . S
C1466 C1469 1.499 . S
C1467 H1441 0.950 . S
C1467 C1466 1.414 . S
C1467 C1468 1.374 . S
C1468 H1442 0.950 . S
C1468 C1464 1.385 . S
C1468 C1467 1.374 . S
C1469 C1466 1.499 . S
C1469 C1470 1.373 . S
C1469 C1471 1.389 . S
C1470 H1443 0.950 . S
C1470 C1456 1.377 . S
C1470 C1469 1.373 . S
C1471 C1455 1.377 . S
C1471 C1469 1.389 . S
C1471 C1472 1.524 . S
C1472 C1471 1.524 . S
C1472 C1473 1.397 . S
C1472 C1477 1.363 . S
C1473 H1444 0.950 . S
C1473 C1472 1.397 . S
C1473 C1474 1.334 . S
C1474 H1445 0.950 . S
C1474 C1473 1.334 . S
C1474 C1475 1.287 . S
C1475 C1474 1.287 . S
C1475 C1476 1.524 . S
C1475 H1478 0.999 . S
C1476 H1446 0.950 . S
C1476 C1475 1.524 . S
C1476 C1477 1.415 . S
C1477 H1447 0.950 . S
C1477 C1472 1.363 . S
C1477 C1476 1.415 . S
H1478 C1475 0.999 . S
H1479 C1460 0.913 . S
H1480 C1498 0.951 . S
H1481 C1500 0.951 . S
H1482 C1502 0.950 . S
H1483 C1503 0.950 . S
H1484 C1505 0.950 . S
H1485 C1508 0.950 . S
H1486 C1509 0.950 . S
H1487 C1511 0.950 . S
H1488 C1512 0.950 . S
H1489 C1513 0.951 . S
H1490 C1515 0.951 . S
H1491 C1517 0.950 . S
H1492 C1518 0.950 . S
H1493 C1520 0.950 . S
H1494 C1523 0.950 . S
H1495 C1524 0.950 . S
H1496 C1526 0.950 . S
H1497 C1527 0.950 . S
C1498 H1480 0.951 . S
C1498 C1499 1.366 . S
C1498 C1500 1.388 . S
C1499 C1498 1.366 . S
C1499 C1503 1.385 . S
C1500 H1481 0.951 . S
C1500 C1498 1.388 . S
C1500 C1501 1.366 . S
C1501 C1500 1.366 . S
C1501 C1502 1.414 . S
C1501 C1504 1.499 . S
C1502 H1482 0.950 . S
C1502 C1501 1.414 . S
C1502 C1503 1.374 . S
C1503 H1483 0.950 . S
C1503 C1499 1.385 . S
C1503 C1502 1.374 . S
C1504 C1501 1.499 . S
C1504 C1505 1.373 . S
C1504 C1506 1.389 1_565 S
C1505 H1484 0.950 . S
C1505 C1504 1.373 . S
C1505 C1521 1.377 . S
C1506 C1504 1.389 1_545 S
C1506 C1507 1.524 . S
C1506 C1520 1.377 . S
C1507 C1506 1.524 . S
C1507 C1508 1.397 . S
C1507 C1512 1.363 . S
C1508 H1485 0.950 . S
C1508 C1507 1.397 . S
C1508 C1509 1.334 . S
C1509 H1486 0.950 . S
C1509 C1508 1.334 . S
C1509 C1510 1.287 . S
C1510 C1509 1.287 . S
C1510 C1511 1.524 . S
C1510 H1529 0.913 . S
C1511 H1487 0.950 . S
C1511 C1510 1.524 . S
C1511 C1512 1.415 . S
C1512 H1488 0.950 . S
C1512 C1507 1.363 . S
C1512 C1511 1.415 . S
C1513 H1489 0.951 . S
C1513 C1514 1.366 . S
C1513 C1515 1.388 . S
C1514 C1513 1.366 . S
C1514 C1518 1.385 . S
C1515 H1490 0.951 . S
C1515 C1513 1.388 . S
C1515 C1516 1.366 . S
C1516 C1515 1.366 . S
C1516 C1517 1.414 . S
C1516 C1519 1.499 . S
C1517 H1491 0.950 . S
C1517 C1516 1.414 . S
C1517 C1518 1.374 . S
C1518 H1492 0.950 . S
C1518 C1514 1.385 . S
C1518 C1517 1.374 . S
C1519 C1516 1.499 . S
C1519 C1520 1.373 1_565 S
C1519 C1521 1.389 . S
C1520 H1493 0.950 . S
C1520 C1506 1.377 . S
C1520 C1519 1.373 1_545 S
C1521 C1505 1.377 . S
C1521 C1519 1.389 . S
C1521 C1522 1.524 . S
C1522 C1521 1.524 . S
C1522 C1523 1.397 . S
C1522 C1527 1.363 . S
C1523 H1494 0.950 . S
C1523 C1522 1.397 . S
C1523 C1524 1.334 . S
C1524 H1495 0.950 . S
C1524 C1523 1.334 . S
C1524 C1525 1.287 . S
C1525 C1524 1.287 . S
C1525 C1526 1.524 . S
C1525 H1528 0.999 . S
C1526 H1496 0.950 . S
C1526 C1525 1.524 . S
C1526 C1527 1.415 . S
C1527 H1497 0.950 . S
C1527 C1522 1.363 . S
C1527 C1526 1.415 . S
H1528 C1525 0.999 . S
H1529 C1510 0.913 . S
H1530 C1548 0.951 . S
H1531 C1550 0.951 . S
H1532 C1552 0.960 . S
H1533 C1553 0.950 . S
H1534 C1555 0.950 . S
H1535 C1558 0.950 . S
H1536 C1559 0.950 . S
H1537 C1561 0.950 . S
H1538 C1562 0.950 . S
H1539 C1563 0.951 . S
H1540 C1565 1.015 . S
H1541 C1567 0.950 . S
H1542 C1568 0.950 . S
H1543 C1570 0.950 . S
H1544 C1573 0.950 . S
H1545 C1574 0.950 . S
H1546 C1576 0.950 . S
H1547 C1577 0.950 . S
C1548 H1530 0.951 . S
C1548 C1549 1.366 . S
C1548 C1550 1.388 . S
C1549 C1548 1.366 . S
C1549 C1553 1.385 . S
C1550 H1531 0.951 . S
C1550 C1548 1.388 . S
C1550 C1551 1.366 . S
C1551 C1550 1.366 . S
C1551 C1552 1.414 . S
C1551 C1554 1.499 . S
C1552 H1532 0.960 . S
C1552 C1551 1.414 . S
C1552 C1553 1.374 . S
C1553 H1533 0.950 . S
C1553 C1549 1.385 . S
C1553 C1552 1.374 . S
C1554 C1551 1.499 . S
C1554 C1555 1.373 1_545 S
C1554 C1556 1.389 . S
C1555 H1534 0.950 . S
C1555 C1554 1.373 1_565 S
C1555 C1571 1.377 . S
C1556 C1554 1.389 . S
C1556 C1557 1.524 . S
C1556 C1570 1.377 . S
C1557 C1556 1.524 . S
C1557 C1558 1.397 . S
C1557 C1562 1.363 . S
C1558 H1535 0.950 . S
C1558 C1557 1.397 . S
C1558 C1559 1.334 . S
C1559 H1536 0.950 . S
C1559 C1558 1.334 . S
C1559 C1560 1.287 . S
C1560 C1559 1.287 . S
C1560 C1561 1.524 . S
C1560 H1579 0.913 . S
C1561 H1537 0.950 . S
C1561 C1560 1.524 . S
C1561 C1562 1.415 . S
C1562 H1538 0.950 . S
C1562 C1557 1.363 . S
C1562 C1561 1.415 . S
C1563 H1539 0.951 . S
C1563 C1564 1.366 1_565 S
C1563 C1565 1.356 . S
C1564 C1563 1.366 1_545 S
C1564 C1568 1.385 . S
C1565 H1540 1.015 . S
C1565 C1563 1.356 . S
C1565 C1566 1.341 1_565 S
C1566 C1565 1.341 1_545 S
C1566 C1567 1.414 . S
C1566 C1569 1.499 . S
C1567 H1541 0.950 . S
C1567 C1566 1.414 . S
C1567 C1568 1.374 . S
C1568 H1542 0.950 . S
C1568 C1564 1.385 . S
C1568 C1567 1.374 . S
C1569 C1566 1.499 . S
C1569 C1570 1.373 . S
C1569 C1571 1.389 1_545 S
C1570 H1543 0.950 . S
C1570 C1556 1.377 . S
C1570 C1569 1.373 . S
C1571 C1555 1.377 . S
C1571 C1569 1.389 1_565 S
C1571 C1572 1.524 . S
C1572 C1571 1.524 . S
C1572 C1573 1.397 . S
C1572 C1577 1.363 . S
C1573 H1544 0.950 . S
C1573 C1572 1.397 . S
C1573 C1574 1.334 . S
C1574 H1545 0.950 . S
C1574 C1573 1.334 . S
C1574 C1575 1.287 . S
C1575 C1574 1.287 . S
C1575 C1576 1.524 . S
C1575 H1578 0.999 . S
C1576 H1546 0.950 . S
C1576 C1575 1.524 . S
C1576 C1577 1.415 . S
C1577 H1547 0.950 . S
C1577 C1572 1.363 . S
C1577 C1576 1.415 . S
H1578 C1575 0.999 . S
H1579 C1560 0.913 . S
H1580 C1598 0.951 . S
H1581 C1600 0.951 . S
H1582 C1602 0.950 1_455 S
H1583 C1603 0.969 . S
H1584 C1605 0.950 . S
H1585 C1608 0.950 . S
H1586 C1609 0.950 . S
H1587 C1611 0.950 . S
H1588 C1612 0.950 . S
H1589 C1613 0.939 1_455 S
H1590 C1615 0.929 1_455 S
H1591 C1617 0.950 . S
H1592 C1618 0.950 . S
H1593 C1620 0.950 . S
H1594 C1623 0.950 . S
H1595 C1624 0.950 . S
H1596 C1626 0.950 . S
H1597 C1627 0.950 . S
C1598 H1580 0.951 . S
C1598 C1599 1.366 . S
C1598 C1600 1.388 . S
C1599 C1598 1.366 . S
C1599 C1603 1.385 . S
C1600 H1581 0.951 . S
C1600 C1598 1.388 . S
C1600 C1601 1.366 . S
C1601 C1600 1.366 . S
C1601 C1602 1.414 . S
C1601 C1604 1.499 . S
C1602 H1582 0.950 1_655 S
C1602 C1601 1.414 . S
C1602 C1603 1.374 . S
C1603 H1583 0.969 . S
C1603 C1599 1.385 . S
C1603 C1602 1.374 . S
C1604 C1601 1.499 . S
C1604 C1605 1.373 . S
C1604 C1606 1.389 1_655 S
C1605 H1584 0.950 . S
C1605 C1604 1.373 . S
C1605 C1621 1.377 . S
C1606 C1604 1.389 1_455 S
C1606 C1607 1.524 . S
C1606 C1620 1.377 . S
C1607 C1606 1.524 . S
C1607 C1608 1.397 . S
C1607 C1612 1.363 . S
C1608 H1585 0.950 . S
C1608 C1607 1.397 . S
C1608 C1609 1.334 . S
C1609 H1586 0.950 . S
C1609 C1608 1.334 . S
C1609 C1610 1.287 . S
C1610 C1609 1.287 . S
C1610 C1611 1.524 . S
C1610 H1629 0.913 . S
C1611 H1587 0.950 . S
C1611 C1610 1.524 . S
C1611 C1612 1.415 . S
C1612 H1588 0.950 . S
C1612 C1607 1.363 . S
C1612 C1611 1.415 . S
C1613 H1589 0.939 1_655 S
C1613 C1614 1.370 . S
C1613 C1615 1.356 . S
C1614 C1613 1.370 . S
C1614 C1618 1.385 . S
C1615 H1590 0.929 1_655 S
C1615 C1613 1.356 . S
C1615 C1616 1.435 . S
C1616 C1615 1.435 . S
C1616 C1617 1.414 . S
C1616 C1619 1.499 . S
C1617 H1591 0.950 . S
C1617 C1616 1.414 . S
C1617 C1618 1.374 . S
C1618 H1592 0.950 . S
C1618 C1614 1.385 . S
C1618 C1617 1.374 . S
C1619 C1616 1.499 . S
C1619 C1620 1.373 1_655 S
C1619 C1621 1.389 . S
C1620 H1593 0.950 . S
C1620 C1606 1.377 . S
C1620 C1619 1.373 1_455 S
C1621 C1605 1.377 . S
C1621 C1619 1.389 . S
C1621 C1622 1.524 . S
C1622 C1621 1.524 . S
C1622 C1623 1.397 . S
C1622 C1627 1.363 . S
C1623 H1594 0.950 . S
C1623 C1622 1.397 . S
C1623 C1624 1.334 . S
C1624 H1595 0.950 . S
C1624 C1623 1.334 . S
C1624 C1625 1.287 . S
C1625 C1624 1.287 . S
C1625 C1626 1.524 . S
C1625 H1628 0.999 . S
C1626 H1596 0.950 . S
C1626 C1625 1.524 . S
C1626 C1627 1.415 . S
C1627 H1597 0.950 . S
C1627 C1622 1.363 . S
C1627 C1626 1.415 . S
H1628 C1625 0.999 . S
H1629 C1610 0.913 . S
H1630 C1648 0.951 . S
H1631 C1650 0.951 . S
H1632 C1652 0.950 . S
H1633 C1653 0.950 . S
H1634 C1655 0.950 . S
H1635 C1658 0.950 . S
H1636 C1659 0.950 . S
H1637 C1661 0.950 . S
H1638 C1662 0.950 . S
H1639 C1663 0.951 . S
H1640 C1665 0.951 . S
H1641 C1667 0.950 . S
H1642 C1668 0.950 . S
H1643 C1670 0.950 . S
H1644 C1673 0.950 . S
H1645 C1674 0.950 . S
H1646 C1676 0.950 . S
H1647 C1677 0.950 . S
C1648 H1630 0.951 . S
C1648 C1649 1.366 . S
C1648 C1650 1.388 . S
C1649 C1648 1.366 . S
C1649 C1653 1.385 . S
C1650 H1631 0.951 . S
C1650 C1648 1.388 . S
C1650 C1651 1.366 . S
C1651 C1650 1.366 . S
C1651 C1652 1.414 . S
C1651 C1654 1.499 . S
C1652 H1632 0.950 . S
C1652 C1651 1.414 . S
C1652 C1653 1.374 . S
C1653 H1633 0.950 . S
C1653 C1649 1.385 . S
C1653 C1652 1.374 . S
C1654 C1651 1.499 . S
C1654 C1655 1.373 . S
C1654 C1656 1.389 . S
C1655 H1634 0.950 . S
C1655 C1654 1.373 . S
C1655 C1671 1.377 . S
C1656 C1654 1.389 . S
C1656 C1657 1.524 . S
C1656 C1670 1.377 . S
C1657 C1656 1.524 . S
C1657 C1658 1.397 . S
C1657 C1662 1.363 . S
C1658 H1635 0.950 . S
C1658 C1657 1.397 . S
C1658 C1659 1.334 . S
C1659 H1636 0.950 . S
C1659 C1658 1.334 . S
C1659 C1660 1.287 . S
C1660 C1659 1.287 . S
C1660 C1661 1.524 . S
C1660 H1679 0.913 . S
C1661 H1637 0.950 . S
C1661 C1660 1.524 . S
C1661 C1662 1.415 . S
C1662 H1638 0.950 . S
C1662 C1657 1.363 . S
C1662 C1661 1.415 . S
C1663 H1639 0.951 . S
C1663 C1664 1.366 . S
C1663 C1665 1.388 . S
C1664 C1663 1.366 . S
C1664 C1668 1.385 . S
C1665 H1640 0.951 . S
C1665 C1663 1.388 . S
C1665 C1666 1.366 . S
C1666 C1665 1.366 . S
C1666 C1667 1.414 . S
C1666 C1669 1.499 . S
C1667 H1641 0.950 . S
C1667 C1666 1.414 . S
C1667 C1668 1.374 . S
C1668 H1642 0.950 . S
C1668 C1664 1.385 . S
C1668 C1667 1.374 . S
C1669 C1666 1.499 . S
C1669 C1670 1.373 . S
C1669 C1671 1.389 . S
C1670 H1643 0.950 . S
C1670 C1656 1.377 . S
C1670 C1669 1.373 . S
C1671 C1655 1.377 . S
C1671 C1669 1.389 . S
C1671 C1672 1.524 . S
C1672 C1671 1.524 . S
C1672 C1673 1.397 . S
C1672 C1677 1.363 . S
C1673 H1644 0.950 . S
C1673 C1672 1.397 . S
C1673 C1674 1.334 . S
C1674 H1645 0.950 . S
C1674 C1673 1.334 . S
C1674 C1675 1.287 . S
C1675 C1674 1.287 . S
C1675 C1676 1.524 . S
C1675 H1678 0.999 . S
C1676 H1646 0.950 . S
C1676 C1675 1.524 . S
C1676 C1677 1.415 . S
C1677 H1647 0.950 . S
C1677 C1672 1.363 . S
C1677 C1676 1.415 . S
H1678 C1675 0.999 . S
H1679 C1660 0.913 . S
H1680 C1698 0.951 . S
H1681 C1700 0.951 . S
H1682 C1702 0.950 . S
H1683 C1703 0.950 . S
H1684 C1705 0.950 . S
H1685 C1708 0.950 . S
H1686 C1709 0.950 . S
H1687 C1711 0.950 . S
H1688 C1712 0.950 . S
H1689 C1713 0.951 . S
H1690 C1715 0.951 . S
H1691 C1717 0.950 . S
H1692 C1718 0.950 . S
H1693 C1720 0.950 . S
H1694 C1723 0.950 . S
H1695 C1724 0.950 . S
H1696 C1726 0.950 . S
H1697 C1727 0.950 . S
C1698 H1680 0.951 . S
C1698 C1699 1.366 . S
C1698 C1700 1.388 . S
C1699 C1698 1.366 . S
C1699 C1703 1.385 . S
C1700 H1681 0.951 . S
C1700 C1698 1.388 . S
C1700 C1701 1.366 . S
C1701 C1700 1.366 . S
C1701 C1702 1.414 . S
C1701 C1704 1.499 . S
C1702 H1682 0.950 . S
C1702 C1701 1.414 . S
C1702 C1703 1.374 . S
C1703 H1683 0.950 . S
C1703 C1699 1.385 . S
C1703 C1702 1.374 . S
C1704 C1701 1.499 . S
C1704 C1705 1.373 . S
C1704 C1706 1.389 . S
C1705 H1684 0.950 . S
C1705 C1704 1.373 . S
C1705 C1721 1.377 . S
C1706 C1704 1.389 . S
C1706 C1707 1.524 . S
C1706 C1720 1.377 . S
C1707 C1706 1.524 . S
C1707 C1708 1.397 . S
C1707 C1712 1.363 . S
C1708 H1685 0.950 . S
C1708 C1707 1.397 . S
C1708 C1709 1.334 . S
C1709 H1686 0.950 . S
C1709 C1708 1.334 . S
C1709 C1710 1.287 . S
C1710 C1709 1.287 . S
C1710 C1711 1.524 . S
C1710 H1729 0.913 . S
C1711 H1687 0.950 . S
C1711 C1710 1.524 . S
C1711 C1712 1.415 . S
C1712 H1688 0.950 . S
C1712 C1707 1.363 . S
C1712 C1711 1.415 . S
C1713 H1689 0.951 . S
C1713 C1714 1.366 . S
C1713 C1715 1.388 . S
C1714 C1713 1.366 . S
C1714 C1718 1.385 . S
C1715 H1690 0.951 . S
C1715 C1713 1.388 . S
C1715 C1716 1.366 . S
C1716 C1715 1.366 . S
C1716 C1717 1.414 . S
C1716 C1719 1.499 . S
C1717 H1691 0.950 . S
C1717 C1716 1.414 . S
C1717 C1718 1.374 . S
C1718 H1692 0.950 . S
C1718 C1714 1.385 . S
C1718 C1717 1.374 . S
C1719 C1716 1.499 . S
C1719 C1720 1.373 . S
C1719 C1721 1.389 . S
C1720 H1693 0.950 . S
C1720 C1706 1.377 . S
C1720 C1719 1.373 . S
C1721 C1705 1.377 . S
C1721 C1719 1.389 . S
C1721 C1722 1.524 . S
C1722 C1721 1.524 . S
C1722 C1723 1.397 . S
C1722 C1727 1.363 . S
C1723 H1694 0.950 . S
C1723 C1722 1.397 . S
C1723 C1724 1.334 . S
C1724 H1695 0.950 . S
C1724 C1723 1.334 . S
C1724 C1725 1.287 . S
C1725 C1724 1.287 . S
C1725 C1726 1.524 . S
C1725 H1728 0.999 . S
C1726 H1696 0.950 . S
C1726 C1725 1.524 . S
C1726 C1727 1.415 . S
C1727 H1697 0.950 . S
C1727 C1722 1.363 . S
C1727 C1726 1.415 . S
H1728 C1725 0.999 . S
H1729 C1710 0.913 . S
H1730 C1748 0.951 . S
H1731 C1750 0.951 . S
H1732 C1752 0.950 . S
H1733 C1753 0.950 . S
H1734 C1755 0.950 . S
H1735 C1758 0.950 . S
H1736 C1759 0.950 . S
H1737 C1761 0.950 . S
H1738 C1762 0.950 . S
H1739 C1763 0.951 . S
H1740 C1765 0.951 . S
H1741 C1767 0.950 . S
H1742 C1768 0.950 . S
H1743 C1770 0.950 . S
H1744 C1773 0.950 . S
H1745 C1774 0.950 . S
H1746 C1776 0.950 . S
H1747 C1777 0.950 . S
C1748 H1730 0.951 . S
C1748 C1749 1.366 . S
C1748 C1750 1.388 . S
C1749 C1748 1.366 . S
C1749 C1753 1.385 . S
C1750 H1731 0.951 . S
C1750 C1748 1.388 . S
C1750 C1751 1.366 . S
C1751 C1750 1.366 . S
C1751 C1752 1.414 . S
C1751 C1754 1.499 . S
C1752 H1732 0.950 . S
C1752 C1751 1.414 . S
C1752 C1753 1.374 . S
C1753 H1733 0.950 . S
C1753 C1749 1.385 . S
C1753 C1752 1.374 . S
C1754 C1751 1.499 . S
C1754 C1755 1.373 . S
C1754 C1756 1.389 . S
C1755 H1734 0.950 . S
C1755 C1754 1.373 . S
C1755 C1771 1.377 . S
C1756 C1754 1.389 . S
C1756 C1757 1.524 . S
C1756 C1770 1.377 . S
C1757 C1756 1.524 . S
C1757 C1758 1.397 . S
C1757 C1762 1.363 . S
C1758 H1735 0.950 . S
C1758 C1757 1.397 . S
C1758 C1759 1.334 . S
C1759 H1736 0.950 . S
C1759 C1758 1.334 . S
C1759 C1760 1.287 . S
C1760 C1759 1.287 . S
C1760 C1761 1.524 . S
C1760 H1779 0.913 . S
C1761 H1737 0.950 . S
C1761 C1760 1.524 . S
C1761 C1762 1.415 . S
C1762 H1738 0.950 . S
C1762 C1757 1.363 . S
C1762 C1761 1.415 . S
C1763 H1739 0.951 . S
C1763 C1764 1.366 . S
C1763 C1765 1.388 . S
C1764 C1763 1.366 . S
C1764 C1768 1.385 . S
C1765 H1740 0.951 . S
C1765 C1763 1.388 . S
C1765 C1766 1.366 . S
C1766 C1765 1.366 . S
C1766 C1767 1.414 . S
C1766 C1769 1.499 . S
C1767 H1741 0.950 . S
C1767 C1766 1.414 . S
C1767 C1768 1.374 . S
C1768 H1742 0.950 . S
C1768 C1764 1.385 . S
C1768 C1767 1.374 . S
C1769 C1766 1.499 . S
C1769 C1770 1.373 . S
C1769 C1771 1.389 . S
C1770 H1743 0.950 . S
C1770 C1756 1.377 . S
C1770 C1769 1.373 . S
C1771 C1755 1.377 . S
C1771 C1769 1.389 . S
C1771 C1772 1.524 . S
C1772 C1771 1.524 . S
C1772 C1773 1.397 . S
C1772 C1777 1.363 . S
C1773 H1744 0.950 . S
C1773 C1772 1.397 . S
C1773 C1774 1.334 . S
C1774 H1745 0.950 . S
C1774 C1773 1.334 . S
C1774 C1775 1.287 . S
C1775 C1774 1.287 . S
C1775 C1776 1.524 . S
C1775 H1778 0.999 . S
C1776 H1746 0.950 . S
C1776 C1775 1.524 . S
C1776 C1777 1.415 . S
C1777 H1747 0.950 . S
C1777 C1772 1.363 . S
C1777 C1776 1.415 . S
H1778 C1775 0.999 . S
H1779 C1760 0.913 . S
H1780 C1798 0.951 . S
H1781 C1800 0.951 . S
H1782 C1802 0.950 . S
H1783 C1803 0.950 . S
H1784 C1805 0.950 . S
H1785 C1808 0.950 . S
H1786 C1809 0.950 . S
H1787 C1811 0.950 . S
H1788 C1812 0.950 . S
H1789 C1813 0.951 . S
H1790 C1815 0.951 . S
H1791 C1817 0.950 . S
H1792 C1818 0.950 . S
H1793 C1820 0.950 . S
H1794 C1823 0.950 . S
H1795 C1824 0.950 . S
H1796 C1826 0.950 . S
H1797 C1827 0.950 . S
C1798 H1780 0.951 . S
C1798 C1799 1.366 . S
C1798 C1800 1.388 . S
C1799 C1798 1.366 . S
C1799 C1803 1.385 . S
C1800 H1781 0.951 . S
C1800 C1798 1.388 . S
C1800 C1801 1.366 . S
C1801 C1800 1.366 . S
C1801 C1802 1.414 . S
C1801 C1804 1.499 . S
C1802 H1782 0.950 . S
C1802 C1801 1.414 . S
C1802 C1803 1.374 . S
C1803 H1783 0.950 . S
C1803 C1799 1.385 . S
C1803 C1802 1.374 . S
C1804 C1801 1.499 . S
C1804 C1805 1.373 . S
C1804 C1806 1.389 . S
C1805 H1784 0.950 . S
C1805 C1804 1.373 . S
C1805 C1821 1.377 . S
C1806 C1804 1.389 . S
C1806 C1807 1.524 . S
C1806 C1820 1.377 . S
C1807 C1806 1.524 . S
C1807 C1808 1.397 . S
C1807 C1812 1.363 . S
C1808 H1785 0.950 . S
C1808 C1807 1.397 . S
C1808 C1809 1.334 . S
C1809 H1786 0.950 . S
C1809 C1808 1.334 . S
C1809 C1810 1.287 . S
C1810 C1809 1.287 . S
C1810 C1811 1.524 . S
C1810 H1829 0.913 . S
C1811 H1787 0.950 . S
C1811 C1810 1.524 . S
C1811 C1812 1.415 . S
C1812 H1788 0.950 . S
C1812 C1807 1.363 . S
C1812 C1811 1.415 . S
C1813 H1789 0.951 . S
C1813 C1814 1.366 . S
C1813 C1815 1.388 . S
C1814 C1813 1.366 . S
C1814 C1818 1.385 . S
C1815 H1790 0.951 . S
C1815 C1813 1.388 . S
C1815 C1816 1.366 . S
C1816 C1815 1.366 . S
C1816 C1817 1.414 . S
C1816 C1819 1.499 . S
C1817 H1791 0.950 . S
C1817 C1816 1.414 . S
C1817 C1818 1.374 . S
C1818 H1792 0.950 . S
C1818 C1814 1.385 . S
C1818 C1817 1.374 . S
C1819 C1816 1.499 . S
C1819 C1820 1.373 . S
C1819 C1821 1.389 . S
C1820 H1793 0.950 . S
C1820 C1806 1.377 . S
C1820 C1819 1.373 . S
C1821 C1805 1.377 . S
C1821 C1819 1.389 . S
C1821 C1822 1.524 . S
C1822 C1821 1.524 . S
C1822 C1823 1.397 . S
C1822 C1827 1.363 . S
C1823 H1794 0.950 . S
C1823 C1822 1.397 . S
C1823 C1824 1.334 . S
C1824 H1795 0.950 . S
C1824 C1823 1.334 . S
C1824 C1825 1.287 . S
C1825 C1824 1.287 . S
C1825 C1826 1.524 . S
C1825 H1828 0.999 . S
C1826 H1796 0.950 . S
C1826 C1825 1.524 . S
C1826 C1827 1.415 . S
C1827 H1797 0.950 . S
C1827 C1822 1.363 . S
C1827 C1826 1.415 . S
H1828 C1825 0.999 . S
H1829 C1810 0.913 . S
H1830 C1848 0.951 . S
H1831 C1850 0.951 . S
H1832 C1852 0.950 . S
H1833 C1853 0.950 . S
H1834 C1855 0.950 . S
H1835 C1858 0.950 . S
H1836 C1859 0.950 . S
H1837 C1861 0.950 . S
H1838 C1862 0.950 . S
H1839 C1863 0.951 . S
H1840 C1865 0.951 . S
H1841 C1867 0.950 . S
H1842 C1868 0.950 . S
H1843 C1870 0.950 . S
H1844 C1873 0.950 . S
H1845 C1874 0.950 . S
H1846 C1876 0.950 . S
H1847 C1877 0.950 . S
C1848 H1830 0.951 . S
C1848 C1849 1.366 . S
C1848 C1850 1.388 . S
C1849 C1848 1.366 . S
C1849 C1853 1.385 . S
C1850 H1831 0.951 . S
C1850 C1848 1.388 . S
C1850 C1851 1.366 . S
C1851 C1850 1.366 . S
C1851 C1852 1.414 . S
C1851 C1854 1.499 . S
C1852 H1832 0.950 . S
C1852 C1851 1.414 . S
C1852 C1853 1.374 . S
C1853 H1833 0.950 . S
C1853 C1849 1.385 . S
C1853 C1852 1.374 . S
C1854 C1851 1.499 . S
C1854 C1855 1.373 . S
C1854 C1856 1.389 . S
C1855 H1834 0.950 . S
C1855 C1854 1.373 . S
C1855 C1871 1.377 . S
C1856 C1854 1.389 . S
C1856 C1857 1.524 . S
C1856 C1870 1.377 . S
C1857 C1856 1.524 . S
C1857 C1858 1.397 . S
C1857 C1862 1.363 . S
C1858 H1835 0.950 . S
C1858 C1857 1.397 . S
C1858 C1859 1.334 . S
C1859 H1836 0.950 . S
C1859 C1858 1.334 . S
C1859 C1860 1.287 . S
C1860 C1859 1.287 . S
C1860 C1861 1.524 . S
C1860 H1879 0.913 . S
C1861 H1837 0.950 . S
C1861 C1860 1.524 . S
C1861 C1862 1.415 . S
C1862 H1838 0.950 . S
C1862 C1857 1.363 . S
C1862 C1861 1.415 . S
C1863 H1839 0.951 . S
C1863 C1864 1.366 . S
C1863 C1865 1.388 . S
C1864 C1863 1.366 . S
C1864 C1868 1.385 . S
C1865 H1840 0.951 . S
C1865 C1863 1.388 . S
C1865 C1866 1.366 . S
C1866 C1865 1.366 . S
C1866 C1867 1.414 . S
C1866 C1869 1.499 . S
C1867 H1841 0.950 . S
C1867 C1866 1.414 . S
C1867 C1868 1.374 . S
C1868 H1842 0.950 . S
C1868 C1864 1.385 . S
C1868 C1867 1.374 . S
C1869 C1866 1.499 . S
C1869 C1870 1.373 . S
C1869 C1871 1.389 . S
C1870 H1843 0.950 . S
C1870 C1856 1.377 . S
C1870 C1869 1.373 . S
C1871 C1855 1.377 . S
C1871 C1869 1.389 . S
C1871 C1872 1.524 . S
C1872 C1871 1.524 . S
C1872 C1873 1.397 . S
C1872 C1877 1.363 . S
C1873 H1844 0.950 . S
C1873 C1872 1.397 . S
C1873 C1874 1.334 . S
C1874 H1845 0.950 . S
C1874 C1873 1.334 . S
C1874 C1875 1.287 . S
C1875 C1874 1.287 . S
C1875 C1876 1.524 . S
C1875 H1878 0.999 . S
C1876 H1846 0.950 . S
C1876 C1875 1.524 . S
C1876 C1877 1.415 . S
C1877 H1847 0.950 . S
C1877 C1872 1.363 . S
C1877 C1876 1.415 . S
H1878 C1875 0.999 . S
H1879 C1860 0.913 . S
H1880 C1898 0.951 . S
H1881 C1900 0.951 . S
H1882 C1902 0.950 . S
H1883 C1903 0.950 . S
H1884 C1905 0.950 . S
H1885 C1908 0.950 . S
H1886 C1909 0.950 . S
H1887 C1911 0.950 . S
H1888 C1912 0.950 . S
H1889 C1913 0.951 . S
H1890 C1915 0.951 . S
H1891 C1917 0.950 . S
H1892 C1918 0.950 . S
H1893 C1920 0.950 . S
H1894 C1923 0.950 . S
H1895 C1924 0.950 . S
H1896 C1926 0.950 . S
H1897 C1927 0.950 . S
C1898 H1880 0.951 . S
C1898 C1899 1.366 . S
C1898 C1900 1.388 . S
C1899 C1898 1.366 . S
C1899 C1903 1.385 . S
C1900 H1881 0.951 . S
C1900 C1898 1.388 . S
C1900 C1901 1.366 . S
C1901 C1900 1.366 . S
C1901 C1902 1.414 . S
C1901 C1904 1.499 . S
C1902 H1882 0.950 . S
C1902 C1901 1.414 . S
C1902 C1903 1.374 . S
C1903 H1883 0.950 . S
C1903 C1899 1.385 . S
C1903 C1902 1.374 . S
C1904 C1901 1.499 . S
C1904 C1905 1.373 . S
C1904 C1906 1.389 . S
C1905 H1884 0.950 . S
C1905 C1904 1.373 . S
C1905 C1921 1.377 . S
C1906 C1904 1.389 . S
C1906 C1907 1.524 . S
C1906 C1920 1.377 . S
C1907 C1906 1.524 . S
C1907 C1908 1.397 . S
C1907 C1912 1.363 . S
C1908 H1885 0.950 . S
C1908 C1907 1.397 . S
C1908 C1909 1.334 . S
C1909 H1886 0.950 . S
C1909 C1908 1.334 . S
C1909 C1910 1.287 . S
C1910 C1909 1.287 . S
C1910 C1911 1.524 . S
C1910 H1929 0.913 . S
C1911 H1887 0.950 . S
C1911 C1910 1.524 . S
C1911 C1912 1.415 . S
C1912 H1888 0.950 . S
C1912 C1907 1.363 . S
C1912 C1911 1.415 . S
C1913 H1889 0.951 . S
C1913 C1914 1.366 . S
C1913 C1915 1.388 . S
C1914 C1913 1.366 . S
C1914 C1918 1.385 . S
C1915 H1890 0.951 . S
C1915 C1913 1.388 . S
C1915 C1916 1.366 . S
C1916 C1915 1.366 . S
C1916 C1917 1.414 . S
C1916 C1919 1.499 . S
C1917 H1891 0.950 . S
C1917 C1916 1.414 . S
C1917 C1918 1.374 . S
C1918 H1892 0.950 . S
C1918 C1914 1.385 . S
C1918 C1917 1.374 . S
C1919 C1916 1.499 . S
C1919 C1920 1.373 . S
C1919 C1921 1.389 . S
C1920 H1893 0.950 . S
C1920 C1906 1.377 . S
C1920 C1919 1.373 . S
C1921 C1905 1.377 . S
C1921 C1919 1.389 . S
C1921 C1922 1.524 . S
C1922 C1921 1.524 . S
C1922 C1923 1.397 . S
C1922 C1927 1.363 . S
C1923 H1894 0.950 . S
C1923 C1922 1.397 . S
C1923 C1924 1.334 . S
C1924 H1895 0.950 . S
C1924 C1923 1.334 . S
C1924 C1925 1.287 . S
C1925 C1924 1.287 . S
C1925 C1926 1.524 . S
C1925 H1928 0.999 . S
C1926 H1896 0.950 . S
C1926 C1925 1.524 . S
C1926 C1927 1.415 . S
C1927 H1897 0.950 . S
C1927 C1922 1.363 . S
C1927 C1926 1.415 . S
H1928 C1925 0.999 . S
H1929 C1910 0.913 . S
H1930 C1948 0.951 . S
H1931 C1950 0.951 . S
H1932 C1952 0.950 . S
H1933 C1953 0.950 . S
H1934 C1955 0.950 . S
H1935 C1958 0.950 . S
H1936 C1959 0.950 . S
H1937 C1961 0.950 . S
H1938 C1962 0.950 . S
H1939 C1963 0.951 . S
H1940 C1965 0.951 . S
H1941 C1967 0.950 . S
H1942 C1968 0.950 . S
H1943 C1970 0.950 . S
H1944 C1973 0.950 . S
H1945 C1974 0.950 . S
H1946 C1976 0.950 . S
H1947 C1977 0.950 . S
C1948 H1930 0.951 . S
C1948 C1949 1.366 . S
C1948 C1950 1.388 . S
C1949 C1948 1.366 . S
C1949 C1953 1.385 . S
C1950 H1931 0.951 . S
C1950 C1948 1.388 . S
C1950 C1951 1.366 . S
C1951 C1950 1.366 . S
C1951 C1952 1.414 . S
C1951 C1954 1.499 . S
C1952 H1932 0.950 . S
C1952 C1951 1.414 . S
C1952 C1953 1.374 . S
C1953 H1933 0.950 . S
C1953 C1949 1.385 . S
C1953 C1952 1.374 . S
C1954 C1951 1.499 . S
C1954 C1955 1.373 . S
C1954 C1956 1.389 . S
C1955 H1934 0.950 . S
C1955 C1954 1.373 . S
C1955 C1971 1.377 . S
C1956 C1954 1.389 . S
C1956 C1957 1.524 . S
C1956 C1970 1.377 . S
C1957 C1956 1.524 . S
C1957 C1958 1.397 . S
C1957 C1962 1.363 . S
C1958 H1935 0.950 . S
C1958 C1957 1.397 . S
C1958 C1959 1.334 . S
C1959 H1936 0.950 . S
C1959 C1958 1.334 . S
C1959 C1960 1.287 . S
C1960 C1959 1.287 . S
C1960 C1961 1.524 . S
C1960 H1979 0.913 . S
C1961 H1937 0.950 . S
C1961 C1960 1.524 . S
C1961 C1962 1.415 . S
C1962 H1938 0.950 . S
C1962 C1957 1.363 . S
C1962 C1961 1.415 . S
C1963 H1939 0.951 . S
C1963 C1964 1.366 . S
C1963 C1965 1.388 . S
C1964 C1963 1.366 . S
C1964 C1968 1.385 . S
C1965 H1940 0.951 . S
C1965 C1963 1.388 . S
C1965 C1966 1.366 . S
C1966 C1965 1.366 . S
C1966 C1967 1.414 . S
C1966 C1969 1.499 . S
C1967 H1941 0.950 . S
C1967 C1966 1.414 . S
C1967 C1968 1.374 . S
C1968 H1942 0.950 . S
C1968 C1964 1.385 . S
C1968 C1967 1.374 . S
C1969 C1966 1.499 . S
C1969 C1970 1.373 . S
C1969 C1971 1.389 . S
C1970 H1943 0.950 . S
C1970 C1956 1.377 . S
C1970 C1969 1.373 . S
C1971 C1955 1.377 . S
C1971 C1969 1.389 . S
C1971 C1972 1.524 . S
C1972 C1971 1.524 . S
C1972 C1973 1.397 . S
C1972 C1977 1.363 . S
C1973 H1944 0.950 . S
C1973 C1972 1.397 . S
C1973 C1974 1.334 . S
C1974 H1945 0.950 . S
C1974 C1973 1.334 . S
C1974 C1975 1.287 . S
C1975 C1974 1.287 . S
C1975 C1976 1.524 . S
C1975 H1978 0.999 . S
C1976 H1946 0.950 . S
C1976 C1975 1.524 . S
C1976 C1977 1.415 . S
C1977 H1947 0.950 . S
C1977 C1972 1.363 . S
C1977 C1976 1.415 . S
H1978 C1975 0.999 . S
H1979 C1960 0.913 . S
H1980 C1998 0.951 . S
H1981 C2000 0.951 . S
H1982 C2002 0.950 . S
H1983 C2003 0.950 . S
H1984 C2005 0.950 . S
H1985 C2008 0.950 . S
H1986 C2009 0.950 . S
H1987 C2011 0.950 . S
H1988 C2012 0.950 . S
H1989 C2013 0.951 . S
H1990 C2015 0.951 . S
H1991 C2017 0.950 . S
H1992 C2018 0.950 . S
H1993 C2020 0.950 . S
H1994 C2023 0.950 . S
H1995 C2024 0.950 . S
H1996 C2026 0.950 . S
H1997 C2027 0.950 . S
C1998 H1980 0.951 . S
C1998 C1999 1.366 . S
C1998 C2000 1.388 . S
C1999 C1998 1.366 . S
C1999 C2003 1.385 . S
C2000 H1981 0.951 . S
C2000 C1998 1.388 . S
C2000 C2001 1.366 . S
C2001 C2000 1.366 . S
C2001 C2002 1.414 . S
C2001 C2004 1.499 . S
C2002 H1982 0.950 . S
C2002 C2001 1.414 . S
C2002 C2003 1.374 . S
C2003 H1983 0.950 . S
C2003 C1999 1.385 . S
C2003 C2002 1.374 . S
C2004 C2001 1.499 . S
C2004 C2005 1.373 . S
C2004 C2006 1.389 . S
C2005 H1984 0.950 . S
C2005 C2004 1.373 . S
C2005 C2021 1.377 . S
C2006 C2004 1.389 . S
C2006 C2007 1.524 . S
C2006 C2020 1.377 . S
C2007 C2006 1.524 . S
C2007 C2008 1.397 . S
C2007 C2012 1.363 . S
C2008 H1985 0.950 . S
C2008 C2007 1.397 . S
C2008 C2009 1.334 . S
C2009 H1986 0.950 . S
C2009 C2008 1.334 . S
C2009 C2010 1.287 . S
C2010 C2009 1.287 . S
C2010 C2011 1.524 . S
C2010 H2029 0.913 . S
C2011 H1987 0.950 . S
C2011 C2010 1.524 . S
C2011 C2012 1.415 . S
C2012 H1988 0.950 . S
C2012 C2007 1.363 . S
C2012 C2011 1.415 . S
C2013 H1989 0.951 . S
C2013 C2014 1.366 . S
C2013 C2015 1.388 . S
C2014 C2013 1.366 . S
C2014 C2018 1.385 . S
C2015 H1990 0.951 . S
C2015 C2013 1.388 . S
C2015 C2016 1.366 . S
C2016 C2015 1.366 . S
C2016 C2017 1.414 . S
C2016 C2019 1.499 . S
C2017 H1991 0.950 . S
C2017 C2016 1.414 . S
C2017 C2018 1.374 . S
C2018 H1992 0.950 . S
C2018 C2014 1.385 . S
C2018 C2017 1.374 . S
C2019 C2016 1.499 . S
C2019 C2020 1.373 . S
C2019 C2021 1.389 . S
C2020 H1993 0.950 . S
C2020 C2006 1.377 . S
C2020 C2019 1.373 . S
C2021 C2005 1.377 . S
C2021 C2019 1.389 . S
C2021 C2022 1.524 . S
C2022 C2021 1.524 . S
C2022 C2023 1.397 . S
C2022 C2027 1.363 . S
C2023 H1994 0.950 . S
C2023 C2022 1.397 . S
C2023 C2024 1.334 . S
C2024 H1995 0.950 . S
C2024 C2023 1.334 . S
C2024 C2025 1.287 . S
C2025 C2024 1.287 . S
C2025 C2026 1.524 . S
C2025 H2028 0.999 . S
C2026 H1996 0.950 . S
C2026 C2025 1.524 . S
C2026 C2027 1.415 . S
C2027 H1997 0.950 . S
C2027 C2022 1.363 . S
C2027 C2026 1.415 . S
H2028 C2025 0.999 . S
H2029 C2010 0.913 . S
H2030 C2048 0.951 . S
H2031 C2050 0.951 . S
H2032 C2052 0.950 . S
H2033 C2053 0.950 . S
H2034 C2055 0.950 . S
H2035 C2058 0.950 . S
H2036 C2059 0.950 . S
H2037 C2061 0.950 . S
H2038 C2062 0.950 . S
H2039 C2063 0.951 . S
H2040 C2065 0.951 . S
H2041 C2067 0.950 . S
H2042 C2068 0.950 . S
H2043 C2070 0.950 . S
H2044 C2073 0.950 . S
H2045 C2074 0.950 . S
H2046 C2076 0.950 . S
H2047 C2077 0.950 . S
C2048 H2030 0.951 . S
C2048 C2049 1.366 . S
C2048 C2050 1.388 . S
C2049 C2048 1.366 . S
C2049 C2053 1.385 . S
C2050 H2031 0.951 . S
C2050 C2048 1.388 . S
C2050 C2051 1.366 . S
C2051 C2050 1.366 . S
C2051 C2052 1.414 . S
C2051 C2054 1.499 . S
C2052 H2032 0.950 . S
C2052 C2051 1.414 . S
C2052 C2053 1.374 . S
C2053 H2033 0.950 . S
C2053 C2049 1.385 . S
C2053 C2052 1.374 . S
C2054 C2051 1.499 . S
C2054 C2055 1.373 . S
C2054 C2056 1.389 . S
C2055 H2034 0.950 . S
C2055 C2054 1.373 . S
C2055 C2071 1.377 . S
C2056 C2054 1.389 . S
C2056 C2057 1.524 . S
C2056 C2070 1.377 . S
C2057 C2056 1.524 . S
C2057 C2058 1.397 . S
C2057 C2062 1.363 . S
C2058 H2035 0.950 . S
C2058 C2057 1.397 . S
C2058 C2059 1.334 . S
C2059 H2036 0.950 . S
C2059 C2058 1.334 . S
C2059 C2060 1.287 . S
C2060 C2059 1.287 . S
C2060 C2061 1.524 . S
C2060 H2079 0.913 . S
C2061 H2037 0.950 . S
C2061 C2060 1.524 . S
C2061 C2062 1.415 . S
C2062 H2038 0.950 . S
C2062 C2057 1.363 . S
C2062 C2061 1.415 . S
C2063 H2039 0.951 . S
C2063 C2064 1.366 . S
C2063 C2065 1.388 . S
C2064 C2063 1.366 . S
C2064 C2068 1.385 . S
C2065 H2040 0.951 . S
C2065 C2063 1.388 . S
C2065 C2066 1.366 . S
C2066 C2065 1.366 . S
C2066 C2067 1.414 . S
C2066 C2069 1.499 . S
C2067 H2041 0.950 . S
C2067 C2066 1.414 . S
C2067 C2068 1.374 . S
C2068 H2042 0.950 . S
C2068 C2064 1.385 . S
C2068 C2067 1.374 . S
C2069 C2066 1.499 . S
C2069 C2070 1.373 . S
C2069 C2071 1.389 . S
C2070 H2043 0.950 . S
C2070 C2056 1.377 . S
C2070 C2069 1.373 . S
C2071 C2055 1.377 . S
C2071 C2069 1.389 . S
C2071 C2072 1.524 . S
C2072 C2071 1.524 . S
C2072 C2073 1.397 . S
C2072 C2077 1.363 . S
C2073 H2044 0.950 . S
C2073 C2072 1.397 . S
C2073 C2074 1.334 . S
C2074 H2045 0.950 . S
C2074 C2073 1.334 . S
C2074 C2075 1.287 . S
C2075 C2074 1.287 . S
C2075 C2076 1.524 . S
C2075 H2078 0.999 . S
C2076 H2046 0.950 . S
C2076 C2075 1.524 . S
C2076 C2077 1.415 . S
C2077 H2047 0.950 . S
C2077 C2072 1.363 . S
C2077 C2076 1.415 . S
H2078 C2075 0.999 . S
H2079 C2060 0.913 . S
H2080 C2098 0.951 . S
H2081 C2100 0.951 . S
H2082 C2102 0.950 . S
H2083 C2103 0.950 . S
H2084 C2105 0.950 . S
H2085 C2108 0.950 . S
H2086 C2109 0.950 . S
H2087 C2111 0.950 . S
H2088 C2112 0.950 . S
H2089 C2113 0.951 . S
H2090 C2115 0.951 . S
H2091 C2117 0.950 . S
H2092 C2118 0.950 . S
H2093 C2120 0.950 . S
H2094 C2123 0.950 . S
H2095 C2124 0.950 . S
H2096 C2126 0.950 . S
H2097 C2127 0.950 . S
C2098 H2080 0.951 . S
C2098 C2099 1.366 . S
C2098 C2100 1.388 . S
C2099 C2098 1.366 . S
C2099 C2103 1.385 . S
C2100 H2081 0.951 . S
C2100 C2098 1.388 . S
C2100 C2101 1.366 . S
C2101 C2100 1.366 . S
C2101 C2102 1.414 . S
C2101 C2104 1.499 . S
C2102 H2082 0.950 . S
C2102 C2101 1.414 . S
C2102 C2103 1.374 . S
C2103 H2083 0.950 . S
C2103 C2099 1.385 . S
C2103 C2102 1.374 . S
C2104 C2101 1.499 . S
C2104 C2105 1.373 . S
C2104 C2106 1.389 . S
C2105 H2084 0.950 . S
C2105 C2104 1.373 . S
C2105 C2121 1.377 . S
C2106 C2104 1.389 . S
C2106 C2107 1.524 . S
C2106 C2120 1.377 . S
C2107 C2106 1.524 . S
C2107 C2108 1.397 . S
C2107 C2112 1.363 . S
C2108 H2085 0.950 . S
C2108 C2107 1.397 . S
C2108 C2109 1.334 . S
C2109 H2086 0.950 . S
C2109 C2108 1.334 . S
C2109 C2110 1.287 . S
C2110 C2109 1.287 . S
C2110 C2111 1.524 . S
C2110 H2129 0.913 . S
C2111 H2087 0.950 . S
C2111 C2110 1.524 . S
C2111 C2112 1.415 . S
C2112 H2088 0.950 . S
C2112 C2107 1.363 . S
C2112 C2111 1.415 . S
C2113 H2089 0.951 . S
C2113 C2114 1.366 . S
C2113 C2115 1.388 . S
C2114 C2113 1.366 . S
C2114 C2118 1.385 . S
C2115 H2090 0.951 . S
C2115 C2113 1.388 . S
C2115 C2116 1.366 . S
C2116 C2115 1.366 . S
C2116 C2117 1.414 . S
C2116 C2119 1.499 . S
C2117 H2091 0.950 . S
C2117 C2116 1.414 . S
C2117 C2118 1.374 . S
C2118 H2092 0.950 . S
C2118 C2114 1.385 . S
C2118 C2117 1.374 . S
C2119 C2116 1.499 . S
C2119 C2120 1.373 . S
C2119 C2121 1.389 . S
C2120 H2093 0.950 . S
C2120 C2106 1.377 . S
C2120 C2119 1.373 . S
C2121 C2105 1.377 . S
C2121 C2119 1.389 . S
C2121 C2122 1.524 . S
C2122 C2121 1.524 . S
C2122 C2123 1.397 . S
C2122 C2127 1.363 . S
C2123 H2094 0.950 . S
C2123 C2122 1.397 . S
C2123 C2124 1.334 . S
C2124 H2095 0.950 . S
C2124 C2123 1.334 . S
C2124 C2125 1.287 . S
C2125 C2124 1.287 . S
C2125 C2126 1.524 . S
C2125 H2128 0.999 . S
C2126 H2096 0.950 . S
C2126 C2125 1.524 . S
C2126 C2127 1.415 . S
C2127 H2097 0.950 . S
C2127 C2122 1.363 . S
C2127 C2126 1.415 . S
H2128 C2125 0.999 . S
H2129 C2110 0.913 . S
H2130 C2148 0.951 . S
H2131 C2150 0.951 . S
H2132 C2152 0.950 . S
H2133 C2153 0.950 . S
H2134 C2155 0.950 . S
H2135 C2158 0.950 . S
H2136 C2159 0.950 . S
H2137 C2161 0.950 . S
H2138 C2162 0.950 . S
H2139 C2163 0.951 . S
H2140 C2165 0.951 . S
H2141 C2167 0.950 . S
H2142 C2168 0.950 . S
H2143 C2170 0.950 . S
H2144 C2173 0.950 . S
H2145 C2174 0.950 . S
H2146 C2176 0.950 . S
H2147 C2177 0.950 . S
C2148 H2130 0.951 . S
C2148 C2149 1.366 . S
C2148 C2150 1.388 . S
C2149 C2148 1.366 . S
C2149 C2153 1.385 . S
C2150 H2131 0.951 . S
C2150 C2148 1.388 . S
C2150 C2151 1.366 . S
C2151 C2150 1.366 . S
C2151 C2152 1.414 . S
C2151 C2154 1.499 . S
C2152 H2132 0.950 . S
C2152 C2151 1.414 . S
C2152 C2153 1.374 . S
C2153 H2133 0.950 . S
C2153 C2149 1.385 . S
C2153 C2152 1.374 . S
C2154 C2151 1.499 . S
C2154 C2155 1.373 . S
C2154 C2156 1.389 . S
C2155 H2134 0.950 . S
C2155 C2154 1.373 . S
C2155 C2171 1.377 . S
C2156 C2154 1.389 . S
C2156 C2157 1.524 . S
C2156 C2170 1.377 . S
C2157 C2156 1.524 . S
C2157 C2158 1.397 . S
C2157 C2162 1.363 . S
C2158 H2135 0.950 . S
C2158 C2157 1.397 . S
C2158 C2159 1.334 . S
C2159 H2136 0.950 . S
C2159 C2158 1.334 . S
C2159 C2160 1.287 . S
C2160 C2159 1.287 . S
C2160 C2161 1.524 . S
C2160 H2179 0.913 . S
C2161 H2137 0.950 . S
C2161 C2160 1.524 . S
C2161 C2162 1.415 . S
C2162 H2138 0.950 . S
C2162 C2157 1.363 . S
C2162 C2161 1.415 . S
C2163 H2139 0.951 . S
C2163 C2164 1.366 . S
C2163 C2165 1.388 . S
C2164 C2163 1.366 . S
C2164 C2168 1.385 . S
C2165 H2140 0.951 . S
C2165 C2163 1.388 . S
C2165 C2166 1.366 . S
C2166 C2165 1.366 . S
C2166 C2167 1.414 . S
C2166 C2169 1.499 . S
C2167 H2141 0.950 . S
C2167 C2166 1.414 . S
C2167 C2168 1.374 . S
C2168 H2142 0.950 . S
C2168 C2164 1.385 . S
C2168 C2167 1.374 . S
C2169 C2166 1.499 . S
C2169 C2170 1.373 . S
C2169 C2171 1.389 . S
C2170 H2143 0.950 . S
C2170 C2156 1.377 . S
C2170 C2169 1.373 . S
C2171 C2155 1.377 . S
C2171 C2169 1.389 . S
C2171 C2172 1.524 . S
C2172 C2171 1.524 . S
C2172 C2173 1.397 . S
C2172 C2177 1.363 . S
C2173 H2144 0.950 . S
C2173 C2172 1.397 . S
C2173 C2174 1.334 . S
C2174 H2145 0.950 . S
C2174 C2173 1.334 . S
C2174 C2175 1.287 . S
C2175 C2174 1.287 . S
C2175 C2176 1.524 . S
C2175 H2178 0.999 . S
C2176 H2146 0.950 . S
C2176 C2175 1.524 . S
C2176 C2177 1.415 . S
C2177 H2147 0.950 . S
C2177 C2172 1.363 . S
C2177 C2176 1.415 . S
H2178 C2175 0.999 . S
H2179 C2160 0.913 . S
H2180 C2198 0.951 . S
H2181 C2200 0.951 . S
H2182 C2202 0.950 . S
H2183 C2203 0.950 . S
H2184 C2205 0.950 . S
H2185 C2208 0.950 . S
H2186 C2209 0.950 . S
H2187 C2211 0.950 . S
H2188 C2212 0.950 . S
H2189 C2213 0.951 . S
H2190 C2215 0.951 . S
H2191 C2217 0.950 . S
H2192 C2218 0.950 . S
H2193 C2220 0.950 . S
H2194 C2223 0.950 . S
H2195 C2224 0.950 . S
H2196 C2226 0.950 . S
H2197 C2227 0.950 . S
C2198 H2180 0.951 . S
C2198 C2199 1.366 . S
C2198 C2200 1.388 . S
C2199 C2198 1.366 . S
C2199 C2203 1.385 . S
C2200 H2181 0.951 . S
C2200 C2198 1.388 . S
C2200 C2201 1.366 . S
C2201 C2200 1.366 . S
C2201 C2202 1.414 . S
C2201 C2204 1.499 . S
C2202 H2182 0.950 . S
C2202 C2201 1.414 . S
C2202 C2203 1.374 . S
C2203 H2183 0.950 . S
C2203 C2199 1.385 . S
C2203 C2202 1.374 . S
C2204 C2201 1.499 . S
C2204 C2205 1.373 . S
C2204 C2206 1.389 . S
C2205 H2184 0.950 . S
C2205 C2204 1.373 . S
C2205 C2221 1.377 . S
C2206 C2204 1.389 . S
C2206 C2207 1.524 . S
C2206 C2220 1.377 . S
C2207 C2206 1.524 . S
C2207 C2208 1.397 . S
C2207 C2212 1.363 . S
C2208 H2185 0.950 . S
C2208 C2207 1.397 . S
C2208 C2209 1.334 . S
C2209 H2186 0.950 . S
C2209 C2208 1.334 . S
C2209 C2210 1.287 . S
C2210 C2209 1.287 . S
C2210 C2211 1.524 . S
C2210 H2229 0.913 . S
C2211 H2187 0.950 . S
C2211 C2210 1.524 . S
C2211 C2212 1.415 . S
C2212 H2188 0.950 . S
C2212 C2207 1.363 . S
C2212 C2211 1.415 . S
C2213 H2189 0.951 . S
C2213 C2214 1.366 . S
C2213 C2215 1.388 . S
C2214 C2213 1.366 . S
C2214 C2218 1.385 . S
C2215 H2190 0.951 . S
C2215 C2213 1.388 . S
C2215 C2216 1.366 . S
C2216 C2215 1.366 . S
C2216 C2217 1.414 . S
C2216 C2219 1.499 . S
C2217 H2191 0.950 . S
C2217 C2216 1.414 . S
C2217 C2218 1.374 . S
C2218 H2192 0.950 . S
C2218 C2214 1.385 . S
C2218 C2217 1.374 . S
C2219 C2216 1.499 . S
C2219 C2220 1.373 . S
C2219 C2221 1.389 . S
C2220 H2193 0.950 . S
C2220 C2206 1.377 . S
C2220 C2219 1.373 . S
C2221 C2205 1.377 . S
C2221 C2219 1.389 . S
C2221 C2222 1.524 . S
C2222 C2221 1.524 . S
C2222 C2223 1.397 . S
C2222 C2227 1.363 . S
C2223 H2194 0.950 . S
C2223 C2222 1.397 . S
C2223 C2224 1.334 . S
C2224 H2195 0.950 . S
C2224 C2223 1.334 . S
C2224 C2225 1.287 . S
C2225 C2224 1.287 . S
C2225 C2226 1.524 . S
C2225 H2228 0.999 . S
C2226 H2196 0.950 . S
C2226 C2225 1.524 . S
C2226 C2227 1.415 . S
C2227 H2197 0.950 . S
C2227 C2222 1.363 . S
C2227 C2226 1.415 . S
H2228 C2225 0.999 . S
H2229 C2210 0.913 . S
H2230 C2248 0.951 . S
H2231 C2250 0.951 . S
H2232 C2252 0.950 . S
H2233 C2253 0.950 . S
H2234 C2255 0.950 . S
H2235 C2258 0.950 . S
H2236 C2259 0.950 . S
H2237 C2261 0.950 . S
H2238 C2262 0.950 . S
H2239 C2263 0.951 . S
H2240 C2265 0.951 . S
H2241 C2267 0.950 . S
H2242 C2268 0.950 . S
H2243 C2270 0.950 . S
H2244 C2273 0.950 . S
H2245 C2274 0.950 . S
H2246 C2276 0.950 . S
H2247 C2277 0.950 . S
C2248 H2230 0.951 . S
C2248 C2249 1.366 . S
C2248 C2250 1.388 . S
C2249 C2248 1.366 . S
C2249 C2253 1.385 . S
C2250 H2231 0.951 . S
C2250 C2248 1.388 . S
C2250 C2251 1.366 . S
C2251 C2250 1.366 . S
C2251 C2252 1.414 . S
C2251 C2254 1.499 . S
C2252 H2232 0.950 . S
C2252 C2251 1.414 . S
C2252 C2253 1.374 . S
C2253 H2233 0.950 . S
C2253 C2249 1.385 . S
C2253 C2252 1.374 . S
C2254 C2251 1.499 . S
C2254 C2255 1.373 . S
C2254 C2256 1.389 . S
C2255 H2234 0.950 . S
C2255 C2254 1.373 . S
C2255 C2271 1.377 . S
C2256 C2254 1.389 . S
C2256 C2257 1.524 . S
C2256 C2270 1.377 . S
C2257 C2256 1.524 . S
C2257 C2258 1.397 . S
C2257 C2262 1.363 . S
C2258 H2235 0.950 . S
C2258 C2257 1.397 . S
C2258 C2259 1.334 . S
C2259 H2236 0.950 . S
C2259 C2258 1.334 . S
C2259 C2260 1.287 . S
C2260 C2259 1.287 . S
C2260 C2261 1.524 . S
C2260 H2279 0.913 . S
C2261 H2237 0.950 . S
C2261 C2260 1.524 . S
C2261 C2262 1.415 . S
C2262 H2238 0.950 . S
C2262 C2257 1.363 . S
C2262 C2261 1.415 . S
C2263 H2239 0.951 . S
C2263 C2264 1.366 . S
C2263 C2265 1.388 . S
C2264 C2263 1.366 . S
C2264 C2268 1.385 . S
C2265 H2240 0.951 . S
C2265 C2263 1.388 . S
C2265 C2266 1.366 . S
C2266 C2265 1.366 . S
C2266 C2267 1.414 . S
C2266 C2269 1.499 . S
C2267 H2241 0.950 . S
C2267 C2266 1.414 . S
C2267 C2268 1.374 . S
C2268 H2242 0.950 . S
C2268 C2264 1.385 . S
C2268 C2267 1.374 . S
C2269 C2266 1.499 . S
C2269 C2270 1.373 . S
C2269 C2271 1.389 . S
C2270 H2243 0.950 . S
C2270 C2256 1.377 . S
C2270 C2269 1.373 . S
C2271 C2255 1.377 . S
C2271 C2269 1.389 . S
C2271 C2272 1.524 . S
C2272 C2271 1.524 . S
C2272 C2273 1.397 . S
C2272 C2277 1.363 . S
C2273 H2244 0.950 . S
C2273 C2272 1.397 . S
C2273 C2274 1.334 . S
C2274 H2245 0.950 . S
C2274 C2273 1.334 . S
C2274 C2275 1.287 . S
C2275 C2274 1.287 . S
C2275 C2276 1.524 . S
C2275 H2278 0.999 . S
C2276 H2246 0.950 . S
C2276 C2275 1.524 . S
C2276 C2277 1.415 . S
C2277 H2247 0.950 . S
C2277 C2272 1.363 . S
C2277 C2276 1.415 . S
H2278 C2275 0.999 . S
H2279 C2260 0.913 . S
H2280 C2298 0.951 . S
H2281 C2300 0.951 . S
H2282 C2302 0.950 . S
H2283 C2303 0.950 . S
H2284 C2305 0.950 . S
H2285 C2308 0.950 . S
H2286 C2309 0.950 . S
H2287 C2311 0.950 . S
H2288 C2312 0.950 . S
H2289 C2313 0.951 . S
H2290 C2315 0.951 . S
H2291 C2317 0.950 . S
H2292 C2318 0.950 . S
H2293 C2320 0.950 . S
H2294 C2323 0.950 . S
H2295 C2324 0.950 . S
H2296 C2326 0.950 . S
H2297 C2327 0.950 . S
C2298 H2280 0.951 . S
C2298 C2299 1.366 . S
C2298 C2300 1.388 . S
C2299 C2298 1.366 . S
C2299 C2303 1.385 . S
C2300 H2281 0.951 . S
C2300 C2298 1.388 . S
C2300 C2301 1.366 . S
C2301 C2300 1.366 . S
C2301 C2302 1.414 . S
C2301 C2304 1.499 . S
C2302 H2282 0.950 . S
C2302 C2301 1.414 . S
C2302 C2303 1.374 . S
C2303 H2283 0.950 . S
C2303 C2299 1.385 . S
C2303 C2302 1.374 . S
C2304 C2301 1.499 . S
C2304 C2305 1.373 . S
C2304 C2306 1.389 . S
C2305 H2284 0.950 . S
C2305 C2304 1.373 . S
C2305 C2321 1.377 . S
C2306 C2304 1.389 . S
C2306 C2307 1.524 . S
C2306 C2320 1.377 . S
C2307 C2306 1.524 . S
C2307 C2308 1.397 . S
C2307 C2312 1.363 . S
C2308 H2285 0.950 . S
C2308 C2307 1.397 . S
C2308 C2309 1.334 . S
C2309 H2286 0.950 . S
C2309 C2308 1.334 . S
C2309 C2310 1.287 . S
C2310 C2309 1.287 . S
C2310 C2311 1.524 . S
C2310 H2329 0.913 . S
C2311 H2287 0.950 . S
C2311 C2310 1.524 . S
C2311 C2312 1.415 . S
C2312 H2288 0.950 . S
C2312 C2307 1.363 . S
C2312 C2311 1.415 . S
C2313 H2289 0.951 . S
C2313 C2314 1.366 . S
C2313 C2315 1.388 . S
C2314 C2313 1.366 . S
C2314 C2318 1.385 . S
C2315 H2290 0.951 . S
C2315 C2313 1.388 . S
C2315 C2316 1.366 . S
C2316 C2315 1.366 . S
C2316 C2317 1.414 . S
C2316 C2319 1.499 . S
C2317 H2291 0.950 . S
C2317 C2316 1.414 . S
C2317 C2318 1.374 . S
C2318 H2292 0.950 . S
C2318 C2314 1.385 . S
C2318 C2317 1.374 . S
C2319 C2316 1.499 . S
C2319 C2320 1.373 . S
C2319 C2321 1.389 . S
C2320 H2293 0.950 . S
C2320 C2306 1.377 . S
C2320 C2319 1.373 . S
C2321 C2305 1.377 . S
C2321 C2319 1.389 . S
C2321 C2322 1.524 . S
C2322 C2321 1.524 . S
C2322 C2323 1.397 . S
C2322 C2327 1.363 . S
C2323 H2294 0.950 . S
C2323 C2322 1.397 . S
C2323 C2324 1.334 . S
C2324 H2295 0.950 . S
C2324 C2323 1.334 . S
C2324 C2325 1.287 . S
C2325 C2324 1.287 . S
C2325 C2326 1.524 . S
C2325 H2328 0.999 . S
C2326 H2296 0.950 . S
C2326 C2325 1.524 . S
C2326 C2327 1.415 . S
C2327 H2297 0.950 . S
C2327 C2322 1.363 . S
C2327 C2326 1.415 . S
H2328 C2325 0.999 . S
H2329 C2310 0.913 . S
H2330 C2348 0.951 . S
H2331 C2350 0.951 . S
H2332 C2352 0.950 . S
H2333 C2353 0.950 . S
H2334 C2355 0.950 . S
H2335 C2358 0.950 . S
H2336 C2359 0.950 . S
H2337 C2361 0.950 . S
H2338 C2362 0.950 . S
H2339 C2363 0.951 . S
H2340 C2365 0.951 . S
H2341 C2367 0.950 . S
H2342 C2368 0.950 . S
H2343 C2370 0.950 . S
H2344 C2373 0.950 . S
H2345 C2374 0.950 . S
H2346 C2376 0.950 . S
H2347 C2377 0.950 . S
C2348 H2330 0.951 . S
C2348 C2349 1.366 . S
C2348 C2350 1.388 . S
C2349 C2348 1.366 . S
C2349 C2353 1.385 . S
C2350 H2331 0.951 . S
C2350 C2348 1.388 . S
C2350 C2351 1.366 . S
C2351 C2350 1.366 . S
C2351 C2352 1.414 . S
C2351 C2354 1.499 . S
C2352 H2332 0.950 . S
C2352 C2351 1.414 . S
C2352 C2353 1.374 . S
C2353 H2333 0.950 . S
C2353 C2349 1.385 . S
C2353 C2352 1.374 . S
C2354 C2351 1.499 . S
C2354 C2355 1.373 . S
C2354 C2356 1.389 . S
C2355 H2334 0.950 . S
C2355 C2354 1.373 . S
C2355 C2371 1.377 . S
C2356 C2354 1.389 . S
C2356 C2357 1.524 . S
C2356 C2370 1.377 . S
C2357 C2356 1.524 . S
C2357 C2358 1.397 . S
C2357 C2362 1.363 . S
C2358 H2335 0.950 . S
C2358 C2357 1.397 . S
C2358 C2359 1.334 . S
C2359 H2336 0.950 . S
C2359 C2358 1.334 . S
C2359 C2360 1.287 . S
C2360 C2359 1.287 . S
C2360 C2361 1.524 . S
C2360 H2379 0.913 . S
C2361 H2337 0.950 . S
C2361 C2360 1.524 . S
C2361 C2362 1.415 . S
C2362 H2338 0.950 . S
C2362 C2357 1.363 . S
C2362 C2361 1.415 . S
C2363 H2339 0.951 . S
C2363 C2364 1.366 . S
C2363 C2365 1.388 . S
C2364 C2363 1.366 . S
C2364 C2368 1.385 . S
C2365 H2340 0.951 . S
C2365 C2363 1.388 . S
C2365 C2366 1.366 . S
C2366 C2365 1.366 . S
C2366 C2367 1.414 . S
C2366 C2369 1.499 . S
C2367 H2341 0.950 . S
C2367 C2366 1.414 . S
C2367 C2368 1.374 . S
C2368 H2342 0.950 . S
C2368 C2364 1.385 . S
C2368 C2367 1.374 . S
C2369 C2366 1.499 . S
C2369 C2370 1.373 . S
C2369 C2371 1.389 . S
C2370 H2343 0.950 . S
C2370 C2356 1.377 . S
C2370 C2369 1.373 . S
C2371 C2355 1.377 . S
C2371 C2369 1.389 . S
C2371 C2372 1.524 . S
C2372 C2371 1.524 . S
C2372 C2373 1.397 . S
C2372 C2377 1.363 . S
C2373 H2344 0.950 . S
C2373 C2372 1.397 . S
C2373 C2374 1.334 . S
C2374 H2345 0.950 . S
C2374 C2373 1.334 . S
C2374 C2375 1.287 . S
C2375 C2374 1.287 . S
C2375 C2376 1.524 . S
C2375 H2378 0.999 . S
C2376 H2346 0.950 . S
C2376 C2375 1.524 . S
C2376 C2377 1.415 . S
C2377 H2347 0.950 . S
C2377 C2372 1.363 . S
C2377 C2376 1.415 . S
H2378 C2375 0.999 . S
H2379 C2360 0.913 . S
H2380 C2398 0.951 . S
H2381 C2400 0.951 . S
H2382 C2402 0.950 . S
H2383 C2403 0.950 . S
H2384 C2405 0.950 . S
H2385 C2408 0.950 . S
H2386 C2409 0.950 . S
H2387 C2411 0.950 . S
H2388 C2412 0.950 . S
H2389 C2413 0.951 . S
H2390 C2415 0.951 . S
H2391 C2417 0.950 . S
H2392 C2418 0.950 . S
H2393 C2420 0.950 . S
H2394 C2423 0.950 . S
H2395 C2424 0.950 . S
H2396 C2426 0.950 . S
H2397 C2427 0.950 . S
C2398 H2380 0.951 . S
C2398 C2399 1.366 . S
C2398 C2400 1.388 . S
C2399 C2398 1.366 . S
C2399 C2403 1.385 . S
C2400 H2381 0.951 . S
C2400 C2398 1.388 . S
C2400 C2401 1.366 . S
C2401 C2400 1.366 . S
C2401 C2402 1.414 . S
C2401 C2404 1.499 . S
C2402 H2382 0.950 . S
C2402 C2401 1.414 . S
C2402 C2403 1.374 . S
C2403 H2383 0.950 . S
C2403 C2399 1.385 . S
C2403 C2402 1.374 . S
C2404 C2401 1.499 . S
C2404 C2405 1.373 . S
C2404 C2406 1.389 . S
C2405 H2384 0.950 . S
C2405 C2404 1.373 . S
C2405 C2421 1.377 . S
C2406 C2404 1.389 . S
C2406 C2407 1.524 . S
C2406 C2420 1.377 . S
C2407 C2406 1.524 . S
C2407 C2408 1.397 . S
C2407 C2412 1.363 . S
C2408 H2385 0.950 . S
C2408 C2407 1.397 . S
C2408 C2409 1.334 . S
C2409 H2386 0.950 . S
C2409 C2408 1.334 . S
C2409 C2410 1.287 . S
C2410 C2409 1.287 . S
C2410 C2411 1.524 . S
C2410 H2429 0.913 . S
C2411 H2387 0.950 . S
C2411 C2410 1.524 . S
C2411 C2412 1.415 . S
C2412 H2388 0.950 . S
C2412 C2407 1.363 . S
C2412 C2411 1.415 . S
C2413 H2389 0.951 . S
C2413 C2414 1.366 . S
C2413 C2415 1.388 . S
C2414 C2413 1.366 . S
C2414 C2418 1.385 . S
C2415 H2390 0.951 . S
C2415 C2413 1.388 . S
C2415 C2416 1.366 . S
C2416 C2415 1.366 . S
C2416 C2417 1.414 . S
C2416 C2419 1.499 . S
C2417 H2391 0.950 . S
C2417 C2416 1.414 . S
C2417 C2418 1.374 . S
C2418 H2392 0.950 . S
C2418 C2414 1.385 . S
C2418 C2417 1.374 . S
C2419 C2416 1.499 . S
C2419 C2420 1.373 . S
C2419 C2421 1.389 . S
C2420 H2393 0.950 . S
C2420 C2406 1.377 . S
C2420 C2419 1.373 . S
C2421 C2405 1.377 . S
C2421 C2419 1.389 . S
C2421 C2422 1.524 . S
C2422 C2421 1.524 . S
C2422 C2423 1.397 . S
C2422 C2427 1.363 . S
C2423 H2394 0.950 . S
C2423 C2422 1.397 . S
C2423 C2424 1.334 . S
C2424 H2395 0.950 . S
C2424 C2423 1.334 . S
C2424 C2425 1.287 . S
C2425 C2424 1.287 . S
C2425 C2426 1.524 . S
C2425 H2428 0.999 . S
C2426 H2396 0.950 . S
C2426 C2425 1.524 . S
C2426 C2427 1.415 . S
C2427 H2397 0.950 . S
C2427 C2422 1.363 . S
C2427 C2426 1.415 . S
H2428 C2425 0.999 . S
H2429 C2410 0.913 . S
H2430 C2448 0.951 . S
H2431 C2450 0.951 . S
H2432 C2452 0.950 . S
H2433 C2453 0.950 . S
H2434 C2455 0.950 . S
H2435 C2458 0.950 . S
H2436 C2459 0.950 . S
H2437 C2461 0.950 . S
H2438 C2462 0.950 . S
H2439 C2463 0.951 . S
H2440 C2465 0.951 . S
H2441 C2467 0.950 . S
H2442 C2468 0.950 . S
H2443 C2470 0.950 . S
H2444 C2473 0.950 . S
H2445 C2474 0.950 . S
H2446 C2476 0.950 . S
H2447 C2477 0.950 . S
C2448 H2430 0.951 . S
C2448 C2449 1.366 . S
C2448 C2450 1.388 . S
C2449 C2448 1.366 . S
C2449 C2453 1.385 . S
C2450 H2431 0.951 . S
C2450 C2448 1.388 . S
C2450 C2451 1.366 . S
C2451 C2450 1.366 . S
C2451 C2452 1.414 . S
C2451 C2454 1.499 . S
C2452 H2432 0.950 . S
C2452 C2451 1.414 . S
C2452 C2453 1.374 . S
C2453 H2433 0.950 . S
C2453 C2449 1.385 . S
C2453 C2452 1.374 . S
C2454 C2451 1.499 . S
C2454 C2455 1.373 . S
C2454 C2456 1.389 . S
C2455 H2434 0.950 . S
C2455 C2454 1.373 . S
C2455 C2471 1.377 . S
C2456 C2454 1.389 . S
C2456 C2457 1.524 . S
C2456 C2470 1.377 . S
C2457 C2456 1.524 . S
C2457 C2458 1.397 . S
C2457 C2462 1.363 . S
C2458 H2435 0.950 . S
C2458 C2457 1.397 . S
C2458 C2459 1.334 . S
C2459 H2436 0.950 . S
C2459 C2458 1.334 . S
C2459 C2460 1.287 . S
C2460 C2459 1.287 . S
C2460 C2461 1.524 . S
C2460 H2479 0.913 . S
C2461 H2437 0.950 . S
C2461 C2460 1.524 . S
C2461 C2462 1.415 . S
C2462 H2438 0.950 . S
C2462 C2457 1.363 . S
C2462 C2461 1.415 . S
C2463 H2439 0.951 . S
C2463 C2464 1.366 . S
C2463 C2465 1.388 . S
C2464 C2463 1.366 . S
C2464 C2468 1.385 . S
C2465 H2440 0.951 . S
C2465 C2463 1.388 . S
C2465 C2466 1.366 . S
C2466 C2465 1.366 . S
C2466 C2467 1.414 . S
C2466 C2469 1.499 . S
C2467 H2441 0.950 . S
C2467 C2466 1.414 . S
C2467 C2468 1.374 . S
C2468 H2442 0.950 . S
C2468 C2464 1.385 . S
C2468 C2467 1.374 . S
C2469 C2466 1.499 . S
C2469 C2470 1.373 . S
C2469 C2471 1.389 . S
C2470 H2443 0.950 . S
C2470 C2456 1.377 . S
C2470 C2469 1.373 . S
C2471 C2455 1.377 . S
C2471 C2469 1.389 . S
C2471 C2472 1.524 . S
C2472 C2471 1.524 . S
C2472 C2473 1.397 . S
C2472 C2477 1.363 . S
C2473 H2444 0.950 . S
C2473 C2472 1.397 . S
C2473 C2474 1.334 . S
C2474 H2445 0.950 . S
C2474 C2473 1.334 . S
C2474 C2475 1.287 . S
C2475 C2474 1.287 . S
C2475 C2476 1.524 . S
C2475 H2478 0.999 . S
C2476 H2446 0.950 . S
C2476 C2475 1.524 . S
C2476 C2477 1.415 . S
C2477 H2447 0.950 . S
C2477 C2472 1.363 . S
C2477 C2476 1.415 . S
H2478 C2475 0.999 . S
H2479 C2460 0.913 . S
H2480 C2498 0.951 . S
H2481 C2500 0.951 . S
H2482 C2502 0.950 . S
H2483 C2503 0.950 . S
H2484 C2505 0.950 . S
H2485 C2508 0.950 . S
H2486 C2509 0.950 . S
H2487 C2511 0.950 . S
H2488 C2512 0.950 . S
H2489 C2513 0.951 . S
H2490 C2515 0.951 . S
H2491 C2517 0.950 . S
H2492 C2518 0.950 . S
H2493 C2520 0.950 . S
H2494 C2523 0.950 . S
H2495 C2524 0.950 . S
H2496 C2526 0.950 . S
H2497 C2527 0.950 . S
C2498 H2480 0.951 . S
C2498 C2499 1.366 . S
C2498 C2500 1.388 . S
C2499 C2498 1.366 . S
C2499 C2503 1.385 . S
C2500 H2481 0.951 . S
C2500 C2498 1.388 . S
C2500 C2501 1.366 . S
C2501 C2500 1.366 . S
C2501 C2502 1.414 . S
C2501 C2504 1.499 . S
C2502 H2482 0.950 . S
C2502 C2501 1.414 . S
C2502 C2503 1.374 . S
C2503 H2483 0.950 . S
C2503 C2499 1.385 . S
C2503 C2502 1.374 . S
C2504 C2501 1.499 . S
C2504 C2505 1.373 . S
C2504 C2506 1.389 . S
C2505 H2484 0.950 . S
C2505 C2504 1.373 . S
C2505 C2521 1.377 . S
C2506 C2504 1.389 . S
C2506 C2507 1.524 . S
C2506 C2520 1.377 . S
C2507 C2506 1.524 . S
C2507 C2508 1.397 . S
C2507 C2512 1.363 . S
C2508 H2485 0.950 . S
C2508 C2507 1.397 . S
C2508 C2509 1.334 . S
C2509 H2486 0.950 . S
C2509 C2508 1.334 . S
C2509 C2510 1.287 . S
C2510 C2509 1.287 . S
C2510 C2511 1.524 . S
C2510 H2529 0.913 . S
C2511 H2487 0.950 . S
C2511 C2510 1.524 . S
C2511 C2512 1.415 . S
C2512 H2488 0.950 . S
C2512 C2507 1.363 . S
C2512 C2511 1.415 . S
C2513 H2489 0.951 . S
C2513 C2514 1.366 . S
C2513 C2515 1.388 . S
C2514 C2513 1.366 . S
C2514 C2518 1.385 . S
C2515 H2490 0.951 . S
C2515 C2513 1.388 . S
C2515 C2516 1.366 . S
C2516 C2515 1.366 . S
C2516 C2517 1.414 . S
C2516 C2519 1.499 . S
C2517 H2491 0.950 . S
C2517 C2516 1.414 . S
C2517 C2518 1.374 . S
C2518 H2492 0.950 . S
C2518 C2514 1.385 . S
C2518 C2517 1.374 . S
C2519 C2516 1.499 . S
C2519 C2520 1.373 . S
C2519 C2521 1.389 . S
C2520 H2493 0.950 . S
C2520 C2506 1.377 . S
C2520 C2519 1.373 . S
C2521 C2505 1.377 . S
C2521 C2519 1.389 . S
C2521 C2522 1.524 . S
C2522 C2521 1.524 . S
C2522 C2523 1.397 . S
C2522 C2527 1.363 . S
C2523 H2494 0.950 . S
C2523 C2522 1.397 . S
C2523 C2524 1.334 . S
C2524 H2495 0.950 . S
C2524 C2523 1.334 . S
C2524 C2525 1.287 . S
C2525 C2524 1.287 . S
C2525 C2526 1.524 . S
C2525 H2528 0.999 . S
C2526 H2496 0.950 . S
C2526 C2525 1.524 . S
C2526 C2527 1.415 . S
C2527 H2497 0.950 . S
C2527 C2522 1.363 . S
C2527 C2526 1.415 . S
H2528 C2525 0.999 . S
H2529 C2510 0.913 . S
H2530 C2548 0.951 . S
H2531 C2550 0.951 . S
H2532 C2552 0.950 . S
H2533 C2553 0.950 . S
H2534 C2555 0.950 . S
H2535 C2558 0.950 . S
H2536 C2559 0.950 . S
H2537 C2561 0.950 . S
H2538 C2562 0.950 . S
H2539 C2563 0.951 . S
H2540 C2565 0.951 . S
H2541 C2567 0.950 . S
H2542 C2568 0.950 . S
H2543 C2570 0.950 . S
H2544 C2573 0.950 . S
H2545 C2574 0.950 . S
H2546 C2576 0.950 . S
H2547 C2577 0.950 . S
C2548 H2530 0.951 . S
C2548 C2549 1.366 . S
C2548 C2550 1.388 . S
C2549 C2548 1.366 . S
C2549 C2553 1.385 . S
C2550 H2531 0.951 . S
C2550 C2548 1.388 . S
C2550 C2551 1.366 . S
C2551 C2550 1.366 . S
C2551 C2552 1.414 . S
C2551 C2554 1.499 . S
C2552 H2532 0.950 . S
C2552 C2551 1.414 . S
C2552 C2553 1.374 . S
C2553 H2533 0.950 . S
C2553 C2549 1.385 . S
C2553 C2552 1.374 . S
C2554 C2551 1.499 . S
C2554 C2555 1.373 . S
C2554 C2556 1.389 . S
C2555 H2534 0.950 . S
C2555 C2554 1.373 . S
C2555 C2571 1.377 . S
C2556 C2554 1.389 . S
C2556 C2557 1.524 . S
C2556 C2570 1.377 . S
C2557 C2556 1.524 . S
C2557 C2558 1.397 . S
C2557 C2562 1.363 . S
C2558 H2535 0.950 . S
C2558 C2557 1.397 . S
C2558 C2559 1.334 . S
C2559 H2536 0.950 . S
C2559 C2558 1.334 . S
C2559 C2560 1.287 . S
C2560 C2559 1.287 . S
C2560 C2561 1.524 . S
C2560 H2579 0.913 . S
C2561 H2537 0.950 . S
C2561 C2560 1.524 . S
C2561 C2562 1.415 . S
C2562 H2538 0.950 . S
C2562 C2557 1.363 . S
C2562 C2561 1.415 . S
C2563 H2539 0.951 . S
C2563 C2564 1.366 . S
C2563 C2565 1.388 . S
C2564 C2563 1.366 . S
C2564 C2568 1.385 . S
C2565 H2540 0.951 . S
C2565 C2563 1.388 . S
C2565 C2566 1.366 . S
C2566 C2565 1.366 . S
C2566 C2567 1.414 . S
C2566 C2569 1.499 . S
C2567 H2541 0.950 . S
C2567 C2566 1.414 . S
C2567 C2568 1.374 . S
C2568 H2542 0.950 . S
C2568 C2564 1.385 . S
C2568 C2567 1.374 . S
C2569 C2566 1.499 . S
C2569 C2570 1.373 . S
C2569 C2571 1.389 . S
C2570 H2543 0.950 . S
C2570 C2556 1.377 . S
C2570 C2569 1.373 . S
C2571 C2555 1.377 . S
C2571 C2569 1.389 . S
C2571 C2572 1.524 . S
C2572 C2571 1.524 . S
C2572 C2573 1.397 . S
C2572 C2577 1.363 . S
C2573 H2544 0.950 . S
C2573 C2572 1.397 . S
C2573 C2574 1.334 . S
C2574 H2545 0.950 . S
C2574 C2573 1.334 . S
C2574 C2575 1.287 . S
C2575 C2574 1.287 . S
C2575 C2576 1.524 . S
C2575 H2578 0.999 . S
C2576 H2546 0.950 . S
C2576 C2575 1.524 . S
C2576 C2577 1.415 . S
C2577 H2547 0.950 . S
C2577 C2572 1.363 . S
C2577 C2576 1.415 . S
H2578 C2575 0.999 . S
H2579 C2560 0.913 . S
H2580 C2598 0.951 . S
H2581 C2600 0.951 . S
H2582 C2602 0.950 . S
H2583 C2603 0.950 . S
H2584 C2605 0.950 . S
H2585 C2608 0.950 . S
H2586 C2609 0.950 . S
H2587 C2611 0.950 . S
H2588 C2612 0.950 . S
H2589 C2613 0.951 . S
H2590 C2615 0.951 . S
H2591 C2617 0.950 . S
H2592 C2618 0.950 . S
H2593 C2620 0.950 . S
H2594 C2623 0.950 . S
H2595 C2624 0.950 . S
H2596 C2626 0.950 . S
H2597 C2627 0.950 . S
C2598 H2580 0.951 . S
C2598 C2599 1.366 . S
C2598 C2600 1.388 . S
C2599 C2598 1.366 . S
C2599 C2603 1.385 . S
C2600 H2581 0.951 . S
C2600 C2598 1.388 . S
C2600 C2601 1.366 . S
C2601 C2600 1.366 . S
C2601 C2602 1.414 . S
C2601 C2604 1.499 . S
C2602 H2582 0.950 . S
C2602 C2601 1.414 . S
C2602 C2603 1.374 . S
C2603 H2583 0.950 . S
C2603 C2599 1.385 . S
C2603 C2602 1.374 . S
C2604 C2601 1.499 . S
C2604 C2605 1.373 . S
C2604 C2606 1.389 . S
C2605 H2584 0.950 . S
C2605 C2604 1.373 . S
C2605 C2621 1.377 . S
C2606 C2604 1.389 . S
C2606 C2607 1.524 . S
C2606 C2620 1.377 . S
C2607 C2606 1.524 . S
C2607 C2608 1.397 . S
C2607 C2612 1.363 . S
C2608 H2585 0.950 . S
C2608 C2607 1.397 . S
C2608 C2609 1.334 . S
C2609 H2586 0.950 . S
C2609 C2608 1.334 . S
C2609 C2610 1.287 . S
C2610 C2609 1.287 . S
C2610 C2611 1.524 . S
C2610 H2629 0.913 . S
C2611 H2587 0.950 . S
C2611 C2610 1.524 . S
C2611 C2612 1.415 . S
C2612 H2588 0.950 . S
C2612 C2607 1.363 . S
C2612 C2611 1.415 . S
C2613 H2589 0.951 . S
C2613 C2614 1.366 . S
C2613 C2615 1.388 . S
C2614 C2613 1.366 . S
C2614 C2618 1.385 . S
C2615 H2590 0.951 . S
C2615 C2613 1.388 . S
C2615 C2616 1.366 . S
C2616 C2615 1.366 . S
C2616 C2617 1.414 . S
C2616 C2619 1.499 . S
C2617 H2591 0.950 . S
C2617 C2616 1.414 . S
C2617 C2618 1.374 . S
C2618 H2592 0.950 . S
C2618 C2614 1.385 . S
C2618 C2617 1.374 . S
C2619 C2616 1.499 . S
C2619 C2620 1.373 . S
C2619 C2621 1.389 . S
C2620 H2593 0.950 . S
C2620 C2606 1.377 . S
C2620 C2619 1.373 . S
C2621 C2605 1.377 . S
C2621 C2619 1.389 . S
C2621 C2622 1.524 . S
C2622 C2621 1.524 . S
C2622 C2623 1.397 . S
C2622 C2627 1.363 . S
C2623 H2594 0.950 . S
C2623 C2622 1.397 . S
C2623 C2624 1.334 . S
C2624 H2595 0.950 . S
C2624 C2623 1.334 . S
C2624 C2625 1.287 . S
C2625 C2624 1.287 . S
C2625 C2626 1.524 . S
C2625 H2628 0.999 . S
C2626 H2596 0.950 . S
C2626 C2625 1.524 . S
C2626 C2627 1.415 . S
C2627 H2597 0.950 . S
C2627 C2622 1.363 . S
C2627 C2626 1.415 . S
H2628 C2625 0.999 . S
H2629 C2610 0.913 . S
H2630 C2648 0.951 . S
H2631 C2650 0.951 . S
H2632 C2652 0.950 . S
H2633 C2653 0.950 . S
H2634 C2655 0.950 . S
H2635 C2658 0.950 . S
H2636 C2659 0.950 . S
H2637 C2661 0.950 . S
H2638 C2662 0.950 . S
H2639 C2663 0.951 . S
H2640 C2665 0.951 . S
H2641 C2667 0.950 . S
H2642 C2668 0.950 . S
H2643 C2670 0.950 . S
H2644 C2673 0.950 . S
H2645 C2674 0.950 . S
H2646 C2676 0.950 . S
H2647 C2677 0.950 . S
C2648 H2630 0.951 . S
C2648 C2649 1.366 . S
C2648 C2650 1.388 . S
C2649 C2648 1.366 . S
C2649 C2653 1.385 . S
C2650 H2631 0.951 . S
C2650 C2648 1.388 . S
C2650 C2651 1.366 . S
C2651 C2650 1.366 . S
C2651 C2652 1.414 . S
C2651 C2654 1.499 . S
C2652 H2632 0.950 . S
C2652 C2651 1.414 . S
C2652 C2653 1.374 . S
C2653 H2633 0.950 . S
C2653 C2649 1.385 . S
C2653 C2652 1.374 . S
C2654 C2651 1.499 . S
C2654 C2655 1.373 . S
C2654 C2656 1.389 . S
C2655 H2634 0.950 . S
C2655 C2654 1.373 . S
C2655 C2671 1.377 . S
C2656 C2654 1.389 . S
C2656 C2657 1.524 . S
C2656 C2670 1.377 . S
C2657 C2656 1.524 . S
C2657 C2658 1.397 . S
C2657 C2662 1.363 . S
C2658 H2635 0.950 . S
C2658 C2657 1.397 . S
C2658 C2659 1.334 . S
C2659 H2636 0.950 . S
C2659 C2658 1.334 . S
C2659 C2660 1.287 . S
C2660 C2659 1.287 . S
C2660 C2661 1.524 . S
C2660 H2679 0.913 . S
C2661 H2637 0.950 . S
C2661 C2660 1.524 . S
C2661 C2662 1.415 . S
C2662 H2638 0.950 . S
C2662 C2657 1.363 . S
C2662 C2661 1.415 . S
C2663 H2639 0.951 . S
C2663 C2664 1.366 . S
C2663 C2665 1.388 . S
C2664 C2663 1.366 . S
C2664 C2668 1.385 . S
C2665 H2640 0.951 . S
C2665 C2663 1.388 . S
C2665 C2666 1.366 . S
C2666 C2665 1.366 . S
C2666 C2667 1.414 . S
C2666 C2669 1.499 . S
C2667 H2641 0.950 . S
C2667 C2666 1.414 . S
C2667 C2668 1.374 . S
C2668 H2642 0.950 . S
C2668 C2664 1.385 . S
C2668 C2667 1.374 . S
C2669 C2666 1.499 . S
C2669 C2670 1.373 . S
C2669 C2671 1.389 . S
C2670 H2643 0.950 . S
C2670 C2656 1.377 . S
C2670 C2669 1.373 . S
C2671 C2655 1.377 . S
C2671 C2669 1.389 . S
C2671 C2672 1.524 . S
C2672 C2671 1.524 . S
C2672 C2673 1.397 . S
C2672 C2677 1.363 . S
C2673 H2644 0.950 . S
C2673 C2672 1.397 . S
C2673 C2674 1.334 . S
C2674 H2645 0.950 . S
C2674 C2673 1.334 . S
C2674 C2675 1.287 . S
C2675 C2674 1.287 . S
C2675 C2676 1.524 . S
C2675 H2678 0.999 . S
C2676 H2646 0.950 . S
C2676 C2675 1.524 . S
C2676 C2677 1.415 . S
C2677 H2647 0.950 . S
C2677 C2672 1.363 . S
C2677 C2676 1.415 . S
H2678 C2675 0.999 . S
H2679 C2660 0.913 . S
H2680 C2698 0.951 . S
H2681 C2700 0.951 . S
H2682 C2702 0.950 . S
H2683 C2703 0.950 . S
H2684 C2705 0.950 . S
H2685 C2708 0.950 . S
H2686 C2709 0.950 . S
H2687 C2711 0.950 . S
H2688 C2712 0.950 . S
H2689 C2713 0.951 . S
H2690 C2715 0.951 . S
H2691 C2717 0.950 . S
H2692 C2718 0.950 . S
H2693 C2720 0.950 . S
H2694 C2723 0.950 . S
H2695 C2724 0.950 . S
H2696 C2726 0.950 . S
H2697 C2727 0.950 . S
C2698 H2680 0.951 . S
C2698 C2699 1.366 . S
C2698 C2700 1.388 . S
C2699 C2698 1.366 . S
C2699 C2703 1.385 . S
C2700 H2681 0.951 . S
C2700 C2698 1.388 . S
C2700 C2701 1.366 . S
C2701 C2700 1.366 . S
C2701 C2702 1.414 . S
C2701 C2704 1.499 . S
C2702 H2682 0.950 . S
C2702 C2701 1.414 . S
C2702 C2703 1.374 . S
C2703 H2683 0.950 . S
C2703 C2699 1.385 . S
C2703 C2702 1.374 . S
C2704 C2701 1.499 . S
C2704 C2705 1.373 . S
C2704 C2706 1.389 . S
C2705 H2684 0.950 . S
C2705 C2704 1.373 . S
C2705 C2721 1.377 . S
C2706 C2704 1.389 . S
C2706 C2707 1.524 . S
C2706 C2720 1.377 . S
C2707 C2706 1.524 . S
C2707 C2708 1.397 . S
C2707 C2712 1.363 . S
C2708 H2685 0.950 . S
C2708 C2707 1.397 . S
C2708 C2709 1.334 . S
C2709 H2686 0.950 . S
C2709 C2708 1.334 . S
C2709 C2710 1.287 . S
C2710 C2709 1.287 . S
C2710 C2711 1.524 . S
C2710 H2729 0.913 . S
C2711 H2687 0.950 . S
C2711 C2710 1.524 . S
C2711 C2712 1.415 . S
C2712 H2688 0.950 . S
C2712 C2707 1.363 . S
C2712 C2711 1.415 . S
C2713 H2689 0.951 . S
C2713 C2714 1.366 . S
C2713 C2715 1.388 . S
C2714 C2713 1.366 . S
C2714 C2718 1.385 . S
C2715 H2690 0.951 . S
C2715 C2713 1.388 . S
C2715 C2716 1.366 . S
C2716 C2715 1.366 . S
C2716 C2717 1.414 . S
C2716 C2719 1.499 . S
C2717 H2691 0.950 . S
C2717 C2716 1.414 . S
C2717 C2718 1.374 . S
C2718 H2692 0.950 . S
C2718 C2714 1.385 . S
C2718 C2717 1.374 . S
C2719 C2716 1.499 . S
C2719 C2720 1.373 . S
C2719 C2721 1.389 . S
C2720 H2693 0.950 . S
C2720 C2706 1.377 . S
C2720 C2719 1.373 . S
C2721 C2705 1.377 . S
C2721 C2719 1.389 . S
C2721 C2722 1.524 . S
C2722 C2721 1.524 . S
C2722 C2723 1.397 . S
C2722 C2727 1.363 . S
C2723 H2694 0.950 . S
C2723 C2722 1.397 . S
C2723 C2724 1.334 . S
C2724 H2695 0.950 . S
C2724 C2723 1.334 . S
C2724 C2725 1.287 . S
C2725 C2724 1.287 . S
C2725 C2726 1.524 . S
C2725 H2728 0.999 . S
C2726 H2696 0.950 . S
C2726 C2725 1.524 . S
C2726 C2727 1.415 . S
C2727 H2697 0.950 . S
C2727 C2722 1.363 . S
C2727 C2726 1.415 . S
H2728 C2725 0.999 . S
H2729 C2710 0.913 . S
H2730 C2748 0.951 . S
H2731 C2750 0.951 . S
H2732 C2752 0.950 . S
H2733 C2753 0.950 . S
H2734 C2755 0.950 . S
H2735 C2758 0.950 . S
H2736 C2759 0.950 . S
H2737 C2761 0.950 . S
H2738 C2762 0.950 . S
H2739 C2763 0.951 . S
H2740 C2765 0.951 . S
H2741 C2767 0.950 . S
H2742 C2768 0.950 . S
H2743 C2770 0.950 . S
H2744 C2773 0.950 . S
H2745 C2774 0.950 . S
H2746 C2776 0.950 . S
H2747 C2777 0.950 . S
C2748 H2730 0.951 . S
C2748 C2749 1.366 . S
C2748 C2750 1.388 . S
C2749 C2748 1.366 . S
C2749 C2753 1.385 . S
C2750 H2731 0.951 . S
C2750 C2748 1.388 . S
C2750 C2751 1.366 . S
C2751 C2750 1.366 . S
C2751 C2752 1.414 . S
C2751 C2754 1.499 . S
C2752 H2732 0.950 . S
C2752 C2751 1.414 . S
C2752 C2753 1.374 . S
C2753 H2733 0.950 . S
C2753 C2749 1.385 . S
C2753 C2752 1.374 . S
C2754 C2751 1.499 . S
C2754 C2755 1.373 . S
C2754 C2756 1.389 . S
C2755 H2734 0.950 . S
C2755 C2754 1.373 . S
C2755 C2771 1.377 . S
C2756 C2754 1.389 . S
C2756 C2757 1.524 . S
C2756 C2770 1.377 . S
C2757 C2756 1.524 . S
C2757 C2758 1.397 . S
C2757 C2762 1.363 . S
C2758 H2735 0.950 . S
C2758 C2757 1.397 . S
C2758 C2759 1.334 . S
C2759 H2736 0.950 . S
C2759 C2758 1.334 . S
C2759 C2760 1.287 . S
C2760 C2759 1.287 . S
C2760 C2761 1.524 . S
C2760 H2779 0.913 . S
C2761 H2737 0.950 . S
C2761 C2760 1.524 . S
C2761 C2762 1.415 . S
C2762 H2738 0.950 . S
C2762 C2757 1.363 . S
C2762 C2761 1.415 . S
C2763 H2739 0.951 . S
C2763 C2764 1.366 . S
C2763 C2765 1.388 . S
C2764 C2763 1.366 . S
C2764 C2768 1.385 . S
C2765 H2740 0.951 . S
C2765 C2763 1.388 . S
C2765 C2766 1.366 . S
C2766 C2765 1.366 . S
C2766 C2767 1.414 . S
C2766 C2769 1.499 . S
C2767 H2741 0.950 . S
C2767 C2766 1.414 . S
C2767 C2768 1.374 . S
C2768 H2742 0.950 . S
C2768 C2764 1.385 . S
C2768 C2767 1.374 . S
C2769 C2766 1.499 . S
C2769 C2770 1.373 . S
C2769 C2771 1.389 . S
C2770 H2743 0.950 . S
C2770 C2756 1.377 . S
C2770 C2769 1.373 . S
C2771 C2755 1.377 . S
C2771 C2769 1.389 . S
C2771 C2772 1.524 . S
C2772 C2771 1.524 . S
C2772 C2773 1.397 . S
C2772 C2777 1.363 . S
C2773 H2744 0.950 . S
C2773 C2772 1.397 . S
C2773 C2774 1.334 . S
C2774 H2745 0.950 . S
C2774 C2773 1.334 . S
C2774 C2775 1.287 . S
C2775 C2774 1.287 . S
C2775 C2776 1.524 . S
C2775 H2778 0.999 . S
C2776 H2746 0.950 . S
C2776 C2775 1.524 . S
C2776 C2777 1.415 . S
C2777 H2747 0.950 . S
C2777 C2772 1.363 . S
C2777 C2776 1.415 . S
H2778 C2775 0.999 . S
H2779 C2760 0.913 . S
H2780 C2798 0.951 . S
H2781 C2800 0.951 . S
H2782 C2802 0.950 . S
H2783 C2803 0.950 . S
H2784 C2805 0.950 . S
H2785 C2808 0.950 . S
H2786 C2809 0.950 . S
H2787 C2811 0.950 . S
H2788 C2812 0.950 . S
H2789 C2813 0.951 . S
H2790 C2815 0.951 . S
H2791 C2817 0.950 . S
H2792 C2818 0.950 . S
H2793 C2820 0.950 . S
H2794 C2823 0.950 . S
H2795 C2824 0.950 . S
H2796 C2826 0.950 . S
H2797 C2827 0.950 . S
C2798 H2780 0.951 . S
C2798 C2799 1.366 . S
C2798 C2800 1.388 . S
C2799 C2798 1.366 . S
C2799 C2803 1.385 . S
C2800 H2781 0.951 . S
C2800 C2798 1.388 . S
C2800 C2801 1.366 . S
C2801 C2800 1.366 . S
C2801 C2802 1.414 . S
C2801 C2804 1.499 . S
C2802 H2782 0.950 . S
C2802 C2801 1.414 . S
C2802 C2803 1.374 . S
C2803 H2783 0.950 . S
C2803 C2799 1.385 . S
C2803 C2802 1.374 . S
C2804 C2801 1.499 . S
C2804 C2805 1.373 . S
C2804 C2806 1.389 . S
C2805 H2784 0.950 . S
C2805 C2804 1.373 . S
C2805 C2821 1.377 . S
C2806 C2804 1.389 . S
C2806 C2807 1.524 . S
C2806 C2820 1.377 . S
C2807 C2806 1.524 . S
C2807 C2808 1.397 . S
C2807 C2812 1.363 . S
C2808 H2785 0.950 . S
C2808 C2807 1.397 . S
C2808 C2809 1.334 . S
C2809 H2786 0.950 . S
C2809 C2808 1.334 . S
C2809 C2810 1.287 . S
C2810 C2809 1.287 . S
C2810 C2811 1.524 . S
C2810 H2829 0.913 . S
C2811 H2787 0.950 . S
C2811 C2810 1.524 . S
C2811 C2812 1.415 . S
C2812 H2788 0.950 . S
C2812 C2807 1.363 . S
C2812 C2811 1.415 . S
C2813 H2789 0.951 . S
C2813 C2814 1.366 . S
C2813 C2815 1.388 . S
C2814 C2813 1.366 . S
C2814 C2818 1.385 . S
C2815 H2790 0.951 . S
C2815 C2813 1.388 . S
C2815 C2816 1.366 . S
C2816 C2815 1.366 . S
C2816 C2817 1.414 . S
C2816 C2819 1.499 . S
C2817 H2791 0.950 . S
C2817 C2816 1.414 . S
C2817 C2818 1.374 . S
C2818 H2792 0.950 . S
C2818 C2814 1.385 . S
C2818 C2817 1.374 . S
C2819 C2816 1.499 . S
C2819 C2820 1.373 . S
C2819 C2821 1.389 . S
C2820 H2793 0.950 . S
C2820 C2806 1.377 . S
C2820 C2819 1.373 . S
C2821 C2805 1.377 . S
C2821 C2819 1.389 . S
C2821 C2822 1.524 . S
C2822 C2821 1.524 . S
C2822 C2823 1.397 . S
C2822 C2827 1.363 . S
C2823 H2794 0.950 . S
C2823 C2822 1.397 . S
C2823 C2824 1.334 . S
C2824 H2795 0.950 . S
C2824 C2823 1.334 . S
C2824 C2825 1.287 . S
C2825 C2824 1.287 . S
C2825 C2826 1.524 . S
C2825 H2828 0.999 . S
C2826 H2796 0.950 . S
C2826 C2825 1.524 . S
C2826 C2827 1.415 . S
C2827 H2797 0.950 . S
C2827 C2822 1.363 . S
C2827 C2826 1.415 . S
H2828 C2825 0.999 . S
H2829 C2810 0.913 . S
H2830 C2848 0.951 . S
H2831 C2850 0.951 . S
H2832 C2852 0.950 . S
H2833 C2853 0.950 . S
H2834 C2855 0.950 . S
H2835 C2858 0.950 . S
H2836 C2859 0.950 . S
H2837 C2861 0.950 . S
H2838 C2862 0.950 . S
H2839 C2863 0.951 . S
H2840 C2865 0.951 . S
H2841 C2867 0.950 . S
H2842 C2868 0.950 . S
H2843 C2870 0.950 . S
H2844 C2873 0.950 . S
H2845 C2874 0.950 . S
H2846 C2876 0.950 . S
H2847 C2877 0.950 . S
C2848 H2830 0.951 . S
C2848 C2849 1.366 . S
C2848 C2850 1.388 . S
C2849 C2848 1.366 . S
C2849 C2853 1.385 . S
C2850 H2831 0.951 . S
C2850 C2848 1.388 . S
C2850 C2851 1.366 . S
C2851 C2850 1.366 . S
C2851 C2852 1.414 . S
C2851 C2854 1.499 . S
C2852 H2832 0.950 . S
C2852 C2851 1.414 . S
C2852 C2853 1.374 . S
C2853 H2833 0.950 . S
C2853 C2849 1.385 . S
C2853 C2852 1.374 . S
C2854 C2851 1.499 . S
C2854 C2855 1.373 . S
C2854 C2856 1.389 . S
C2855 H2834 0.950 . S
C2855 C2854 1.373 . S
C2855 C2871 1.377 . S
C2856 C2854 1.389 . S
C2856 C2857 1.524 . S
C2856 C2870 1.377 . S
C2857 C2856 1.524 . S
C2857 C2858 1.397 . S
C2857 C2862 1.363 . S
C2858 H2835 0.950 . S
C2858 C2857 1.397 . S
C2858 C2859 1.334 . S
C2859 H2836 0.950 . S
C2859 C2858 1.334 . S
C2859 C2860 1.287 . S
C2860 C2859 1.287 . S
C2860 C2861 1.524 . S
C2860 H2879 0.913 . S
C2861 H2837 0.950 . S
C2861 C2860 1.524 . S
C2861 C2862 1.415 . S
C2862 H2838 0.950 . S
C2862 C2857 1.363 . S
C2862 C2861 1.415 . S
C2863 H2839 0.951 . S
C2863 C2864 1.366 . S
C2863 C2865 1.388 . S
C2864 C2863 1.366 . S
C2864 C2868 1.385 . S
C2865 H2840 0.951 . S
C2865 C2863 1.388 . S
C2865 C2866 1.366 . S
C2866 C2865 1.366 . S
C2866 C2867 1.414 . S
C2866 C2869 1.499 . S
C2867 H2841 0.950 . S
C2867 C2866 1.414 . S
C2867 C2868 1.374 . S
C2868 H2842 0.950 . S
C2868 C2864 1.385 . S
C2868 C2867 1.374 . S
C2869 C2866 1.499 . S
C2869 C2870 1.373 . S
C2869 C2871 1.389 . S
C2870 H2843 0.950 . S
C2870 C2856 1.377 . S
C2870 C2869 1.373 . S
C2871 C2855 1.377 . S
C2871 C2869 1.389 . S
C2871 C2872 1.524 . S
C2872 C2871 1.524 . S
C2872 C2873 1.397 . S
C2872 C2877 1.363 . S
C2873 H2844 0.950 . S
C2873 C2872 1.397 . S
C2873 C2874 1.334 . S
C2874 H2845 0.950 . S
C2874 C2873 1.334 . S
C2874 C2875 1.287 . S
C2875 C2874 1.287 . S
C2875 C2876 1.524 . S
C2875 H2878 0.999 . S
C2876 H2846 0.950 . S
C2876 C2875 1.524 . S
C2876 C2877 1.415 . S
C2877 H2847 0.950 . S
C2877 C2872 1.363 . S
C2877 C2876 1.415 . S
H2878 C2875 0.999 . S
H2879 C2860 0.913 . S
H2880 C2898 0.951 . S
H2881 C2900 0.951 . S
H2882 C2902 0.950 . S
H2883 C2903 0.950 . S
H2884 C2905 0.950 . S
H2885 C2908 0.950 . S
H2886 C2909 0.950 . S
H2887 C2911 0.950 . S
H2888 C2912 0.950 . S
H2889 C2913 0.951 . S
H2890 C2915 0.951 . S
H2891 C2917 0.950 . S
H2892 C2918 0.950 . S
H2893 C2920 0.950 . S
H2894 C2923 0.950 . S
H2895 C2924 0.950 . S
H2896 C2926 0.950 . S
H2897 C2927 0.950 . S
C2898 H2880 0.951 . S
C2898 C2899 1.366 . S
C2898 C2900 1.388 . S
C2899 C2898 1.366 . S
C2899 C2903 1.385 . S
C2900 H2881 0.951 . S
C2900 C2898 1.388 . S
C2900 C2901 1.366 . S
C2901 C2900 1.366 . S
C2901 C2902 1.414 . S
C2901 C2904 1.499 . S
C2902 H2882 0.950 . S
C2902 C2901 1.414 . S
C2902 C2903 1.374 . S
C2903 H2883 0.950 . S
C2903 C2899 1.385 . S
C2903 C2902 1.374 . S
C2904 C2901 1.499 . S
C2904 C2905 1.373 . S
C2904 C2906 1.389 . S
C2905 H2884 0.950 . S
C2905 C2904 1.373 . S
C2905 C2921 1.377 . S
C2906 C2904 1.389 . S
C2906 C2907 1.524 . S
C2906 C2920 1.377 . S
C2907 C2906 1.524 . S
C2907 C2908 1.397 . S
C2907 C2912 1.363 . S
C2908 H2885 0.950 . S
C2908 C2907 1.397 . S
C2908 C2909 1.334 . S
C2909 H2886 0.950 . S
C2909 C2908 1.334 . S
C2909 C2910 1.287 . S
C2910 C2909 1.287 . S
C2910 C2911 1.524 . S
C2910 H2929 0.913 . S
C2911 H2887 0.950 . S
C2911 C2910 1.524 . S
C2911 C2912 1.415 . S
C2912 H2888 0.950 . S
C2912 C2907 1.363 . S
C2912 C2911 1.415 . S
C2913 H2889 0.951 . S
C2913 C2914 1.366 . S
C2913 C2915 1.388 . S
C2914 C2913 1.366 . S
C2914 C2918 1.385 . S
C2915 H2890 0.951 . S
C2915 C2913 1.388 . S
C2915 C2916 1.366 . S
C2916 C2915 1.366 . S
C2916 C2917 1.414 . S
C2916 C2919 1.499 . S
C2917 H2891 0.950 . S
C2917 C2916 1.414 . S
C2917 C2918 1.374 . S
C2918 H2892 0.950 . S
C2918 C2914 1.385 . S
C2918 C2917 1.374 . S
C2919 C2916 1.499 . S
C2919 C2920 1.373 . S
C2919 C2921 1.389 . S
C2920 H2893 0.950 . S
C2920 C2906 1.377 . S
C2920 C2919 1.373 . S
C2921 C2905 1.377 . S
C2921 C2919 1.389 . S
C2921 C2922 1.524 . S
C2922 C2921 1.524 . S
C2922 C2923 1.397 . S
C2922 C2927 1.363 . S
C2923 H2894 0.950 . S
C2923 C2922 1.397 . S
C2923 C2924 1.334 . S
C2924 H2895 0.950 . S
C2924 C2923 1.334 . S
C2924 C2925 1.287 . S
C2925 C2924 1.287 . S
C2925 C2926 1.524 . S
C2925 H2928 0.999 . S
C2926 H2896 0.950 . S
C2926 C2925 1.524 . S
C2926 C2927 1.415 . S
C2927 H2897 0.950 . S
C2927 C2922 1.363 . S
C2927 C2926 1.415 . S
H2928 C2925 0.999 . S
H2929 C2910 0.913 . S
H2930 C2948 0.951 . S
H2931 C2950 0.951 . S
H2932 C2952 0.950 . S
H2933 C2953 0.950 . S
H2934 C2955 0.950 . S
H2935 C2958 0.950 . S
H2936 C2959 0.950 . S
H2937 C2961 0.950 . S
H2938 C2962 0.950 . S
H2939 C2963 0.951 . S
H2940 C2965 0.951 . S
H2941 C2967 0.950 . S
H2942 C2968 0.950 . S
H2943 C2970 0.950 . S
H2944 C2973 0.950 . S
H2945 C2974 0.950 . S
H2946 C2976 0.950 . S
H2947 C2977 0.950 . S
C2948 H2930 0.951 . S
C2948 C2949 1.366 . S
C2948 C2950 1.388 . S
C2949 C2948 1.366 . S
C2949 C2953 1.385 . S
C2950 H2931 0.951 . S
C2950 C2948 1.388 . S
C2950 C2951 1.366 . S
C2951 C2950 1.366 . S
C2951 C2952 1.414 . S
C2951 C2954 1.499 . S
C2952 H2932 0.950 . S
C2952 C2951 1.414 . S
C2952 C2953 1.374 . S
C2953 H2933 0.950 . S
C2953 C2949 1.385 . S
C2953 C2952 1.374 . S
C2954 C2951 1.499 . S
C2954 C2955 1.373 . S
C2954 C2956 1.389 . S
C2955 H2934 0.950 . S
C2955 C2954 1.373 . S
C2955 C2971 1.377 . S
C2956 C2954 1.389 . S
C2956 C2957 1.524 . S
C2956 C2970 1.377 . S
C2957 C2956 1.524 . S
C2957 C2958 1.397 . S
C2957 C2962 1.363 . S
C2958 H2935 0.950 . S
C2958 C2957 1.397 . S
C2958 C2959 1.334 . S
C2959 H2936 0.950 . S
C2959 C2958 1.334 . S
C2959 C2960 1.287 . S
C2960 C2959 1.287 . S
C2960 C2961 1.524 . S
C2960 H2979 0.913 . S
C2961 H2937 0.950 . S
C2961 C2960 1.524 . S
C2961 C2962 1.415 . S
C2962 H2938 0.950 . S
C2962 C2957 1.363 . S
C2962 C2961 1.415 . S
C2963 H2939 0.951 . S
C2963 C2964 1.366 . S
C2963 C2965 1.388 . S
C2964 C2963 1.366 . S
C2964 C2968 1.385 . S
C2965 H2940 0.951 . S
C2965 C2963 1.388 . S
C2965 C2966 1.366 . S
C2966 C2965 1.366 . S
C2966 C2967 1.414 . S
C2966 C2969 1.499 . S
C2967 H2941 0.950 . S
C2967 C2966 1.414 . S
C2967 C2968 1.374 . S
C2968 H2942 0.950 . S
C2968 C2964 1.385 . S
C2968 C2967 1.374 . S
C2969 C2966 1.499 . S
C2969 C2970 1.373 . S
C2969 C2971 1.389 . S
C2970 H2943 0.950 . S
C2970 C2956 1.377 . S
C2970 C2969 1.373 . S
C2971 C2955 1.377 . S
C2971 C2969 1.389 . S
C2971 C2972 1.524 . S
C2972 C2971 1.524 . S
C2972 C2973 1.397 . S
C2972 C2977 1.363 . S
C2973 H2944 0.950 . S
C2973 C2972 1.397 . S
C2973 C2974 1.334 . S
C2974 H2945 0.950 . S
C2974 C2973 1.334 . S
C2974 C2975 1.287 . S
C2975 C2974 1.287 . S
C2975 C2976 1.524 . S
C2975 H2978 0.999 . S
C2976 H2946 0.950 . S
C2976 C2975 1.524 . S
C2976 C2977 1.415 . S
C2977 H2947 0.950 . S
C2977 C2972 1.363 . S
C2977 C2976 1.415 . S
H2978 C2975 0.999 . S
H2979 C2960 0.913 . S
H2980 C2998 0.951 . S
H2981 C3000 0.951 . S
H2982 C3002 0.950 . S
H2983 C3003 0.950 . S
H2984 C3005 0.950 . S
H2985 C3008 0.950 . S
H2986 C3009 0.950 . S
H2987 C3011 0.950 . S
H2988 C3012 0.950 . S
H2989 C3013 0.951 . S
H2990 C3015 0.951 . S
H2991 C3017 0.950 . S
H2992 C3018 0.950 . S
H2993 C3020 0.950 . S
H2994 C3023 0.950 . S
H2995 C3024 0.950 . S
H2996 C3026 0.950 . S
H2997 C3027 0.950 . S
C2998 H2980 0.951 . S
C2998 C2999 1.366 . S
C2998 C3000 1.388 . S
C2999 C2998 1.366 . S
C2999 C3003 1.385 . S
C3000 H2981 0.951 . S
C3000 C2998 1.388 . S
C3000 C3001 1.366 . S
C3001 C3000 1.366 . S
C3001 C3002 1.414 . S
C3001 C3004 1.499 . S
C3002 H2982 0.950 . S
C3002 C3001 1.414 . S
C3002 C3003 1.374 . S
C3003 H2983 0.950 . S
C3003 C2999 1.385 . S
C3003 C3002 1.374 . S
C3004 C3001 1.499 . S
C3004 C3005 1.373 . S
C3004 C3006 1.389 . S
C3005 H2984 0.950 . S
C3005 C3004 1.373 . S
C3005 C3021 1.377 . S
C3006 C3004 1.389 . S
C3006 C3007 1.524 . S
C3006 C3020 1.377 . S
C3007 C3006 1.524 . S
C3007 C3008 1.397 . S
C3007 C3012 1.363 . S
C3008 H2985 0.950 . S
C3008 C3007 1.397 . S
C3008 C3009 1.334 . S
C3009 H2986 0.950 . S
C3009 C3008 1.334 . S
C3009 C3010 1.287 . S
C3010 C3009 1.287 . S
C3010 C3011 1.524 . S
C3010 H3029 0.913 . S
C3011 H2987 0.950 . S
C3011 C3010 1.524 . S
C3011 C3012 1.415 . S
C3012 H2988 0.950 . S
C3012 C3007 1.363 . S
C3012 C3011 1.415 . S
C3013 H2989 0.951 . S
C3013 C3014 1.366 . S
C3013 C3015 1.388 . S
C3014 C3013 1.366 . S
C3014 C3018 1.385 . S
C3015 H2990 0.951 . S
C3015 C3013 1.388 . S
C3015 C3016 1.366 . S
C3016 C3015 1.366 . S
C3016 C3017 1.414 . S
C3016 C3019 1.499 . S
C3017 H2991 0.950 . S
C3017 C3016 1.414 . S
C3017 C3018 1.374 . S
C3018 H2992 0.950 . S
C3018 C3014 1.385 . S
C3018 C3017 1.374 . S
C3019 C3016 1.499 . S
C3019 C3020 1.373 . S
C3019 C3021 1.389 . S
C3020 H2993 0.950 . S
C3020 C3006 1.377 . S
C3020 C3019 1.373 . S
C3021 C3005 1.377 . S
C3021 C3019 1.389 . S
C3021 C3022 1.524 . S
C3022 C3021 1.524 . S
C3022 C3023 1.397 . S
C3022 C3027 1.363 . S
C3023 H2994 0.950 . S
C3023 C3022 1.397 . S
C3023 C3024 1.334 . S
C3024 H2995 0.950 . S
C3024 C3023 1.334 . S
C3024 C3025 1.287 . S
C3025 C3024 1.287 . S
C3025 C3026 1.524 . S
C3025 H3028 0.999 . S
C3026 H2996 0.950 . S
C3026 C3025 1.524 . S
C3026 C3027 1.415 . S
C3027 H2997 0.950 . S
C3027 C3022 1.363 . S
C3027 C3026 1.415 . S
H3028 C3025 0.999 . S
H3029 C3010 0.913 . S
H3030 C3048 0.916 1_554 S
H3031 C3050 0.951 . S
H3032 C3052 0.950 . S
H3033 C3053 0.950 . S
H3034 C3055 0.950 . S
H3035 C3058 0.950 . S
H3036 C3059 0.950 . S
H3037 C3061 0.950 . S
H3038 C3062 0.950 . S
H3039 C3063 0.951 . S
H3040 C3065 0.951 . S
H3041 C3067 0.950 . S
H3042 C3068 0.950 . S
H3043 C3070 0.950 . S
H3044 C3073 0.950 . S
H3045 C3074 0.950 . S
H3046 C3076 0.950 . S
H3047 C3077 0.950 . S
C3048 H3030 0.916 1_556 S
C3048 C3049 1.366 . S
C3048 C3050 1.388 . S
C3049 C3048 1.366 . S
C3049 C3053 1.385 . S
C3050 H3031 0.951 . S
C3050 C3048 1.388 . S
C3050 C3051 1.366 . S
C3051 C3050 1.366 . S
C3051 C3052 1.414 . S
C3051 C3054 1.499 . S
C3052 H3032 0.950 . S
C3052 C3051 1.414 . S
C3052 C3053 1.374 . S
C3053 H3033 0.950 . S
C3053 C3049 1.385 . S
C3053 C3052 1.374 . S
C3054 C3051 1.499 . S
C3054 C3055 1.373 . S
C3054 C3056 1.389 . S
C3055 H3034 0.950 . S
C3055 C3054 1.373 . S
C3055 C3071 1.377 . S
C3056 C3054 1.389 . S
C3056 C3057 1.524 . S
C3056 C3070 1.377 . S
C3057 C3056 1.524 . S
C3057 C3058 1.397 . S
C3057 C3062 1.363 . S
C3058 H3035 0.950 . S
C3058 C3057 1.397 . S
C3058 C3059 1.334 . S
C3059 H3036 0.950 . S
C3059 C3058 1.334 . S
C3059 C3060 1.287 . S
C3060 C3059 1.287 . S
C3060 C3061 1.524 . S
C3060 H3079 0.913 . S
C3061 H3037 0.950 . S
C3061 C3060 1.524 . S
C3061 C3062 1.415 . S
C3062 H3038 0.950 . S
C3062 C3057 1.363 . S
C3062 C3061 1.415 . S
C3063 H3039 0.951 . S
C3063 C3064 1.366 . S
C3063 C3065 1.388 . S
C3064 C3063 1.366 . S
C3064 C3068 1.385 . S
C3065 H3040 0.951 . S
C3065 C3063 1.388 . S
C3065 C3066 1.366 . S
C3066 C3065 1.366 . S
C3066 C3067 1.414 . S
C3066 C3069 1.499 . S
C3067 H3041 0.950 . S
C3067 C3066 1.414 . S
C3067 C3068 1.374 . S
C3068 H3042 0.950 . S
C3068 C3064 1.385 . S
C3068 C3067 1.374 . S
C3069 C3066 1.499 . S
C3069 C3070 1.373 . S
C3069 C3071 1.389 . S
C3070 H3043 0.950 . S
C3070 C3056 1.377 . S
C3070 C3069 1.373 . S
C3071 C3055 1.377 . S
C3071 C3069 1.389 . S
C3071 C3072 1.524 . S
C3072 C3071 1.524 . S
C3072 C3073 1.397 . S
C3072 C3077 1.363 . S
C3073 H3044 0.950 . S
C3073 C3072 1.397 . S
C3073 C3074 1.334 . S
C3074 H3045 0.950 . S
C3074 C3073 1.334 . S
C3074 C3075 1.287 . S
C3075 C3074 1.287 . S
C3075 C3076 1.524 . S
C3075 H3078 0.999 . S
C3076 H3046 0.950 . S
C3076 C3075 1.524 . S
C3076 C3077 1.415 . S
C3077 H3047 0.950 . S
C3077 C3072 1.363 . S
C3077 C3076 1.415 . S
H3078 C3075 0.999 . S
H3079 C3060 0.913 . S
H3080 C3098 0.951 . S
H3081 C3100 0.951 . S
H3082 C3102 0.950 . S
H3083 C3103 0.950 1_554 S
H3084 C3105 0.950 . S
H3085 C3108 0.950 . S
H3086 C3109 0.950 1_554 S
H3087 C3111 0.950 . S
H3088 C3112 0.950 . S
H3089 C3113 0.951 . S
H3090 C3115 0.951 . S
H3091 C3117 0.950 . S
H3092 C3118 0.950 . S
H3093 C3120 0.950 . S
H3094 C3123 0.950 . S
H3095 C3124 0.950 . S
H3096 C3126 0.950 . S
H3097 C3127 0.950 . S
C3098 H3080 0.951 . S
C3098 C3099 1.366 . S
C3098 C3100 1.388 . S
C3099 C3098 1.366 . S
C3099 C3103 1.385 . S
C3100 H3081 0.951 . S
C3100 C3098 1.388 . S
C3100 C3101 1.366 . S
C3101 C3100 1.366 . S
C3101 C3102 1.414 . S
C3101 C3104 1.499 . S
C3102 H3082 0.950 . S
C3102 C3101 1.414 . S
C3102 C3103 1.374 . S
C3103 H3083 0.950 1_556 S
C3103 C3099 1.385 . S
C3103 C3102 1.374 . S
C3104 C3101 1.499 . S
C3104 C3105 1.373 . S
C3104 C3106 1.389 . S
C3105 H3084 0.950 . S
C3105 C3104 1.373 . S
C3105 C3121 1.377 . S
C3106 C3104 1.389 . S
C3106 C3107 1.524 . S
C3106 C3120 1.377 . S
C3107 C3106 1.524 . S
C3107 C3108 1.397 . S
C3107 C3112 1.363 . S
C3108 H3085 0.950 . S
C3108 C3107 1.397 . S
C3108 C3109 1.334 . S
C3109 H3086 0.950 1_556 S
C3109 C3108 1.334 . S
C3109 C3110 1.287 . S
C3110 C3109 1.287 . S
C3110 C3111 1.524 . S
C3110 H3129 0.913 . S
C3111 H3087 0.950 . S
C3111 C3110 1.524 . S
C3111 C3112 1.415 . S
C3112 H3088 0.950 . S
C3112 C3107 1.363 . S
C3112 C3111 1.415 . S
C3113 H3089 0.951 . S
C3113 C3114 1.366 . S
C3113 C3115 1.388 . S
C3114 C3113 1.366 . S
C3114 C3118 1.385 . S
C3115 H3090 0.951 . S
C3115 C3113 1.388 . S
C3115 C3116 1.366 . S
C3116 C3115 1.366 . S
C3116 C3117 1.414 . S
C3116 C3119 1.499 . S
C3117 H3091 0.950 . S
C3117 C3116 1.414 . S
C3117 C3118 1.374 . S
C3118 H3092 0.950 . S
C3118 C3114 1.385 . S
C3118 C3117 1.374 . S
C3119 C3116 1.499 . S
C3119 C3120 1.373 . S
C3119 C3121 1.389 . S
C3120 H3093 0.950 . S
C3120 C3106 1.377 . S
C3120 C3119 1.373 . S
C3121 C3105 1.377 . S
C3121 C3119 1.389 . S
C3121 C3122 1.524 . S
C3122 C3121 1.524 . S
C3122 C3123 1.397 . S
C3122 C3127 1.363 . S
C3123 H3094 0.950 . S
C3123 C3122 1.397 . S
C3123 C3124 1.334 . S
C3124 H3095 0.950 . S
C3124 C3123 1.334 . S
C3124 C3125 1.287 . S
C3125 C3124 1.287 . S
C3125 C3126 1.524 . S
C3125 H3128 0.999 . S
C3126 H3096 0.950 . S
C3126 C3125 1.524 . S
C3126 C3127 1.415 . S
C3127 H3097 0.950 . S
C3127 C3122 1.363 . S
C3127 C3126 1.415 . S
H3128 C3125 0.999 . S
H3129 C3110 0.913 . S
H3130 C3148 0.951 . S
H3131 C3150 0.951 . S
H3132 C3152 0.981 . S
H3133 C3153 0.950 . S
H3134 C3155 0.950 . S
H3135 C3158 0.950 . S
H3136 C3159 0.950 . S
H3137 C3161 0.950 . S
H3138 C3162 0.950 . S
H3139 C3163 0.951 . S
H3140 C3165 0.951 . S
H3141 C3167 0.950 . S
H3142 C3168 0.950 . S
H3143 C3170 0.950 . S
H3144 C3173 0.950 . S
H3145 C3174 0.950 . S
H3146 C3176 0.950 1_554 S
H3147 C3177 0.950 . S
C3148 H3130 0.951 . S
C3148 C3149 1.366 . S
C3148 C3150 1.388 . S
C3149 C3148 1.366 . S
C3149 C3153 1.385 1_556 S
C3150 H3131 0.951 . S
C3150 C3148 1.388 . S
C3150 C3151 1.366 . S
C3151 C3150 1.366 . S
C3151 C3152 1.414 . S
C3151 C3154 1.499 . S
C3152 H3132 0.981 . S
C3152 C3151 1.414 . S
C3152 C3153 1.374 1_556 S
C3153 H3133 0.950 . S
C3153 C3149 1.385 1_554 S
C3153 C3152 1.374 1_554 S
C3154 C3151 1.499 . S
C3154 C3155 1.373 . S
C3154 C3156 1.389 . S
C3155 H3134 0.950 . S
C3155 C3154 1.373 . S
C3155 C3171 1.377 . S
C3156 C3154 1.389 . S
C3156 C3157 1.524 . S
C3156 C3170 1.377 . S
C3157 C3156 1.524 . S
C3157 C3158 1.397 . S
C3157 C3162 1.363 . S
C3158 H3135 0.950 . S
C3158 C3157 1.397 . S
C3158 C3159 1.334 . S
C3159 H3136 0.950 . S
C3159 C3158 1.334 . S
C3159 C3160 1.287 . S
C3160 C3159 1.287 . S
C3160 C3161 1.524 . S
C3160 H3179 0.913 . S
C3161 H3137 0.950 . S
C3161 C3160 1.524 . S
C3161 C3162 1.415 . S
C3162 H3138 0.950 . S
C3162 C3157 1.363 . S
C3162 C3161 1.415 . S
C3163 H3139 0.951 . S
C3163 C3164 1.366 . S
C3163 C3165 1.388 . S
C3164 C3163 1.366 . S
C3164 C3168 1.385 . S
C3165 H3140 0.951 . S
C3165 C3163 1.388 . S
C3165 C3166 1.366 . S
C3166 C3165 1.366 . S
C3166 C3167 1.414 . S
C3166 C3169 1.499 . S
C3167 H3141 0.950 . S
C3167 C3166 1.414 . S
C3167 C3168 1.374 . S
C3168 H3142 0.950 . S
C3168 C3164 1.385 . S
C3168 C3167 1.374 . S
C3169 C3166 1.499 . S
C3169 C3170 1.373 . S
C3169 C3171 1.389 . S
C3170 H3143 0.950 . S
C3170 C3156 1.377 . S
C3170 C3169 1.373 . S
C3171 C3155 1.377 . S
C3171 C3169 1.389 . S
C3171 C3172 1.524 . S
C3172 C3171 1.524 . S
C3172 C3173 1.397 . S
C3172 C3177 1.363 . S
C3173 H3144 0.950 . S
C3173 C3172 1.397 . S
C3173 C3174 1.334 . S
C3174 H3145 0.950 . S
C3174 C3173 1.334 . S
C3174 C3175 1.287 . S
C3175 C3174 1.287 . S
C3175 C3176 1.524 . S
C3175 H3178 0.999 . S
C3176 H3146 0.950 1_556 S
C3176 C3175 1.524 . S
C3176 C3177 1.415 . S
C3177 H3147 0.950 . S
C3177 C3172 1.363 . S
C3177 C3176 1.415 . S
H3178 C3175 0.999 . S
H3179 C3160 0.913 . S
H3180 C3198 0.951 . S
H3181 C3200 0.951 . S
H3182 C3202 0.950 . S
H3183 C3203 0.950 1_554 S
H3184 C3205 0.950 . S
H3185 C3208 0.950 . S
H3186 C3209 0.950 . S
H3187 C3211 0.950 . S
H3188 C3212 0.950 . S
H3189 C3213 0.951 . S
H3190 C3215 0.951 . S
H3191 C3217 0.950 . S
H3192 C3218 0.950 . S
H3193 C3220 0.950 . S
H3194 C3223 0.950 . S
H3195 C3224 0.950 . S
H3196 C3226 0.950 . S
H3197 C3227 0.950 . S
C3198 H3180 0.951 . S
C3198 C3199 1.366 . S
C3198 C3200 1.388 . S
C3199 C3198 1.366 . S
C3199 C3203 1.385 . S
C3200 H3181 0.951 . S
C3200 C3198 1.388 . S
C3200 C3201 1.366 . S
C3201 C3200 1.366 . S
C3201 C3202 1.414 . S
C3201 C3204 1.499 . S
C3202 H3182 0.950 . S
C3202 C3201 1.414 . S
C3202 C3203 1.374 . S
C3203 H3183 0.950 1_556 S
C3203 C3199 1.385 . S
C3203 C3202 1.374 . S
C3204 C3201 1.499 . S
C3204 C3205 1.373 . S
C3204 C3206 1.389 . S
C3205 H3184 0.950 . S
C3205 C3204 1.373 . S
C3205 C3221 1.377 . S
C3206 C3204 1.389 . S
C3206 C3207 1.524 . S
C3206 C3220 1.377 . S
C3207 C3206 1.524 . S
C3207 C3208 1.397 . S
C3207 C3212 1.363 . S
C3208 H3185 0.950 . S
C3208 C3207 1.397 . S
C3208 C3209 1.334 . S
C3209 H3186 0.950 . S
C3209 C3208 1.334 . S
C3209 C3210 1.287 . S
C3210 C3209 1.287 . S
C3210 C3211 1.524 . S
C3210 H3229 0.913 . S
C3211 H3187 0.950 . S
C3211 C3210 1.524 . S
C3211 C3212 1.415 . S
C3212 H3188 0.950 . S
C3212 C3207 1.363 . S
C3212 C3211 1.415 . S
C3213 H3189 0.951 . S
C3213 C3214 1.366 . S
C3213 C3215 1.388 . S
C3214 C3213 1.366 . S
C3214 C3218 1.385 . S
C3215 H3190 0.951 . S
C3215 C3213 1.388 . S
C3215 C3216 1.366 . S
C3216 C3215 1.366 . S
C3216 C3217 1.414 . S
C3216 C3219 1.499 . S
C3217 H3191 0.950 . S
C3217 C3216 1.414 . S
C3217 C3218 1.374 . S
C3218 H3192 0.950 . S
C3218 C3214 1.385 . S
C3218 C3217 1.374 . S
C3219 C3216 1.499 . S
C3219 C3220 1.373 . S
C3219 C3221 1.389 . S
C3220 H3193 0.950 . S
C3220 C3206 1.377 . S
C3220 C3219 1.373 . S
C3221 C3205 1.377 . S
C3221 C3219 1.389 . S
C3221 C3222 1.524 . S
C3222 C3221 1.524 . S
C3222 C3223 1.397 . S
C3222 C3227 1.363 . S
C3223 H3194 0.950 . S
C3223 C3222 1.397 . S
C3223 C3224 1.334 . S
C3224 H3195 0.950 . S
C3224 C3223 1.334 . S
C3224 C3225 1.287 . S
C3225 C3224 1.287 . S
C3225 C3226 1.524 . S
C3225 H3228 0.999 . S
C3226 H3196 0.950 . S
C3226 C3225 1.524 . S
C3226 C3227 1.415 . S
C3227 H3197 0.950 . S
C3227 C3222 1.363 . S
C3227 C3226 1.415 . S
H3228 C3225 0.999 . S
H3229 C3210 0.913 . S
H3230 C3248 0.922 1_554 S
H3231 C3250 0.951 . S
H3232 C3252 0.950 . S
H3233 C3253 0.950 . S
H3234 C3255 0.950 . S
H3235 C3258 0.950 . S
H3236 C3259 0.950 . S
H3237 C3261 0.950 . S
H3238 C3262 0.950 . S
H3239 C3263 0.951 . S
H3240 C3265 0.951 . S
H3241 C3267 0.950 . S
H3242 C3268 0.950 . S
H3243 C3270 0.950 . S
H3244 C3273 0.950 . S
H3245 C3274 0.950 . S
H3246 C3276 0.950 . S
H3247 C3277 0.950 . S
C3248 H3230 0.922 1_556 S
C3248 C3249 1.380 . S
C3248 C3250 1.402 . S
C3249 C3248 1.380 . S
C3249 C3253 1.385 . S
C3250 H3231 0.951 . S
C3250 C3248 1.402 . S
C3250 C3251 1.366 . S
C3251 C3250 1.366 . S
C3251 C3252 1.414 . S
C3251 C3254 1.499 . S
C3252 H3232 0.950 . S
C3252 C3251 1.414 . S
C3252 C3253 1.374 . S
C3253 H3233 0.950 . S
C3253 C3249 1.385 . S
C3253 C3252 1.374 . S
C3254 C3251 1.499 . S
C3254 C3255 1.373 . S
C3254 C3256 1.389 . S
C3255 H3234 0.950 . S
C3255 C3254 1.373 . S
C3255 C3271 1.377 . S
C3256 C3254 1.389 . S
C3256 C3257 1.524 . S
C3256 C3270 1.377 . S
C3257 C3256 1.524 . S
C3257 C3258 1.397 . S
C3257 C3262 1.363 . S
C3258 H3235 0.950 . S
C3258 C3257 1.397 . S
C3258 C3259 1.334 . S
C3259 H3236 0.950 . S
C3259 C3258 1.334 . S
C3259 C3260 1.287 1_556 S
C3260 C3259 1.287 1_554 S
C3260 C3261 1.524 . S
C3260 H3279 0.913 . S
C3261 H3237 0.950 . S
C3261 C3260 1.524 . S
C3261 C3262 1.415 1_554 S
C3262 H3238 0.950 . S
C3262 C3257 1.363 . S
C3262 C3261 1.415 1_556 S
C3263 H3239 0.951 . S
C3263 C3264 1.366 . S
C3263 C3265 1.388 . S
C3264 C3263 1.366 . S
C3264 C3268 1.385 . S
C3265 H3240 0.951 . S
C3265 C3263 1.388 . S
C3265 C3266 1.366 . S
C3266 C3265 1.366 . S
C3266 C3267 1.414 . S
C3266 C3269 1.499 . S
C3267 H3241 0.950 . S
C3267 C3266 1.414 . S
C3267 C3268 1.374 . S
C3268 H3242 0.950 . S
C3268 C3264 1.385 . S
C3268 C3267 1.374 . S
C3269 C3266 1.499 . S
C3269 C3270 1.373 . S
C3269 C3271 1.389 . S
C3270 H3243 0.950 . S
C3270 C3256 1.377 . S
C3270 C3269 1.373 . S
C3271 C3255 1.377 . S
C3271 C3269 1.389 . S
C3271 C3272 1.524 . S
C3272 C3271 1.524 . S
C3272 C3273 1.397 . S
C3272 C3277 1.363 . S
C3273 H3244 0.950 . S
C3273 C3272 1.397 . S
C3273 C3274 1.334 . S
C3274 H3245 0.950 . S
C3274 C3273 1.334 . S
C3274 C3275 1.287 . S
C3275 C3274 1.287 . S
C3275 C3276 1.524 . S
C3275 H3278 0.999 . S
C3276 H3246 0.950 . S
C3276 C3275 1.524 . S
C3276 C3277 1.415 . S
C3277 H3247 0.950 . S
C3277 C3272 1.363 . S
C3277 C3276 1.415 . S
H3278 C3275 0.999 . S
H3279 C3260 0.913 . S
H3280 C3298 0.951 . S
H3281 C3300 0.951 . S
H3282 C3302 0.950 . S
H3283 C3303 0.950 . S
H3284 C3305 0.950 . S
H3285 C3308 0.950 . S
H3286 C3309 0.950 . S
H3287 C3311 0.950 . S
H3288 C3312 0.950 . S
H3289 C3313 0.951 . S
H3290 C3315 0.951 . S
H3291 C3317 0.950 . S
H3292 C3318 0.950 . S
H3293 C3320 0.950 . S
H3294 C3323 0.950 . S
H3295 C3324 0.950 . S
H3296 C3326 0.950 . S
H3297 C3327 0.950 . S
C3298 H3280 0.951 . S
C3298 C3299 1.366 . S
C3298 C3300 1.388 . S
C3299 C3298 1.366 . S
C3299 C3303 1.385 . S
C3300 H3281 0.951 . S
C3300 C3298 1.388 . S
C3300 C3301 1.366 . S
C3301 C3300 1.366 . S
C3301 C3302 1.414 . S
C3301 C3304 1.499 . S
C3302 H3282 0.950 . S
C3302 C3301 1.414 . S
C3302 C3303 1.374 . S
C3303 H3283 0.950 . S
C3303 C3299 1.385 . S
C3303 C3302 1.374 . S
C3304 C3301 1.499 . S
C3304 C3305 1.373 . S
C3304 C3306 1.389 . S
C3305 H3284 0.950 . S
C3305 C3304 1.373 . S
C3305 C3321 1.377 . S
C3306 C3304 1.389 . S
C3306 C3307 1.524 . S
C3306 C3320 1.377 . S
C3307 C3306 1.524 . S
C3307 C3308 1.397 1_556 S
C3307 C3312 1.363 . S
C3308 H3285 0.950 . S
C3308 C3307 1.397 1_554 S
C3308 C3309 1.334 . S
C3309 H3286 0.950 . S
C3309 C3308 1.334 . S
C3309 C3310 1.287 . S
C3310 C3309 1.287 . S
C3310 C3311 1.524 . S
C3310 H3329 0.913 . S
C3311 H3287 0.950 . S
C3311 C3310 1.524 . S
C3311 C3312 1.415 1_554 S
C3312 H3288 0.950 . S
C3312 C3307 1.363 . S
C3312 C3311 1.415 1_556 S
C3313 H3289 0.951 . S
C3313 C3314 1.366 . S
C3313 C3315 1.388 . S
C3314 C3313 1.366 . S
C3314 C3318 1.385 . S
C3315 H3290 0.951 . S
C3315 C3313 1.388 . S
C3315 C3316 1.366 . S
C3316 C3315 1.366 . S
C3316 C3317 1.414 . S
C3316 C3319 1.499 . S
C3317 H3291 0.950 . S
C3317 C3316 1.414 . S
C3317 C3318 1.374 . S
C3318 H3292 0.950 . S
C3318 C3314 1.385 . S
C3318 C3317 1.374 . S
C3319 C3316 1.499 . S
C3319 C3320 1.373 . S
C3319 C3321 1.389 . S
C3320 H3293 0.950 . S
C3320 C3306 1.377 . S
C3320 C3319 1.373 . S
C3321 C3305 1.377 . S
C3321 C3319 1.389 . S
C3321 C3322 1.524 . S
C3322 C3321 1.524 . S
C3322 C3323 1.397 . S
C3322 C3327 1.363 . S
C3323 H3294 0.950 . S
C3323 C3322 1.397 . S
C3323 C3324 1.334 . S
C3324 H3295 0.950 . S
C3324 C3323 1.334 . S
C3324 C3325 1.287 . S
C3325 C3324 1.287 . S
C3325 C3326 1.524 . S
C3325 H3328 0.999 . S
C3326 H3296 0.950 . S
C3326 C3325 1.524 . S
C3326 C3327 1.415 . S
C3327 H3297 0.950 . S
C3327 C3322 1.363 . S
C3327 C3326 1.415 . S
H3328 C3325 0.999 . S
H3329 C3310 0.913 . S
H3330 C3348 0.951 . S
H3331 C3350 0.951 . S
H3332 C3352 0.950 . S
H3333 C3353 0.950 . S
H3334 C3355 0.950 . S
H3335 C3358 0.950 . S
H3336 C3359 0.938 1_556 S
H3337 C3361 0.950 . S
H3338 C3362 0.950 . S
H3339 C3363 0.951 . S
H3340 C3365 0.951 . S
H3341 C3367 0.950 . S
H3342 C3368 0.950 . S
H3343 C3370 0.950 . S
H3344 C3373 0.950 . S
H3345 C3374 0.950 . S
H3346 C3376 0.950 . S
H3347 C3377 0.950 . S
C3348 H3330 0.951 . S
C3348 C3349 1.366 . S
C3348 C3350 1.388 . S
C3349 C3348 1.366 . S
C3349 C3353 1.385 . S
C3350 H3331 0.951 . S
C3350 C3348 1.388 . S
C3350 C3351 1.366 . S
C3351 C3350 1.366 . S
C3351 C3352 1.414 . S
C3351 C3354 1.499 . S
C3352 H3332 0.950 . S
C3352 C3351 1.414 . S
C3352 C3353 1.374 . S
C3353 H3333 0.950 . S
C3353 C3349 1.385 . S
C3353 C3352 1.374 . S
C3354 C3351 1.499 . S
C3354 C3355 1.373 . S
C3354 C3356 1.389 . S
C3355 H3334 0.950 . S
C3355 C3354 1.373 . S
C3355 C3371 1.377 . S
C3356 C3354 1.389 . S
C3356 C3357 1.524 . S
C3356 C3370 1.377 . S
C3357 C3356 1.524 . S
C3357 C3358 1.397 . S
C3357 C3362 1.363 . S
C3358 H3335 0.950 . S
C3358 C3357 1.397 . S
C3358 C3359 1.334 . S
C3359 H3336 0.938 1_554 S
C3359 C3358 1.334 . S
C3359 C3360 1.287 . S
C3360 C3359 1.287 . S
C3360 C3361 1.524 . S
C3360 H3379 0.913 1_554 S
C3361 H3337 0.950 . S
C3361 C3360 1.524 . S
C3361 C3362 1.415 . S
C3362 H3338 0.950 . S
C3362 C3357 1.363 . S
C3362 C3361 1.415 . S
C3363 H3339 0.951 . S
C3363 C3364 1.366 . S
C3363 C3365 1.388 . S
C3364 C3363 1.366 . S
C3364 C3368 1.385 . S
C3365 H3340 0.951 . S
C3365 C3363 1.388 . S
C3365 C3366 1.366 . S
C3366 C3365 1.366 . S
C3366 C3367 1.414 . S
C3366 C3369 1.499 . S
C3367 H3341 0.950 . S
C3367 C3366 1.414 . S
C3367 C3368 1.374 . S
C3368 H3342 0.950 . S
C3368 C3364 1.385 . S
C3368 C3367 1.374 . S
C3369 C3366 1.499 . S
C3369 C3370 1.373 . S
C3369 C3371 1.389 . S
C3370 H3343 0.950 . S
C3370 C3356 1.377 . S
C3370 C3369 1.373 . S
C3371 C3355 1.377 . S
C3371 C3369 1.389 . S
C3371 C3372 1.524 . S
C3372 C3371 1.524 . S
C3372 C3373 1.397 . S
C3372 C3377 1.363 . S
C3373 H3344 0.950 . S
C3373 C3372 1.397 . S
C3373 C3374 1.334 . S
C3374 H3345 0.950 . S
C3374 C3373 1.334 . S
C3374 C3375 1.287 . S
C3375 C3374 1.287 . S
C3375 C3376 1.524 . S
C3375 H3378 0.999 . S
C3376 H3346 0.950 . S
C3376 C3375 1.524 . S
C3376 C3377 1.415 . S
C3377 H3347 0.950 . S
C3377 C3372 1.363 . S
C3377 C3376 1.415 . S
H3378 C3375 0.999 . S
H3379 C3360 0.913 1_556 S
H3380 C3398 0.951 . S
H3381 C3400 0.951 . S
H3382 C3402 0.950 . S
H3383 C3403 0.950 . S
H3384 C3405 0.950 . S
H3385 C3408 0.950 . S
H3386 C3409 0.950 1_556 S
H3387 C3411 0.950 . S
H3388 C3412 0.950 . S
H3389 C3413 0.951 . S
H3390 C3415 0.951 . S
H3391 C3417 0.950 . S
H3392 C3418 0.950 . S
H3393 C3420 0.950 . S
H3394 C3423 0.950 . S
H3395 C3424 0.950 . S
H3396 C3426 0.950 . S
H3397 C3427 0.950 . S
C3398 H3380 0.951 . S
C3398 C3399 1.366 . S
C3398 C3400 1.388 . S
C3399 C3398 1.366 . S
C3399 C3403 1.385 . S
C3400 H3381 0.951 . S
C3400 C3398 1.388 . S
C3400 C3401 1.366 . S
C3401 C3400 1.366 . S
C3401 C3402 1.414 . S
C3401 C3404 1.499 . S
C3402 H3382 0.950 . S
C3402 C3401 1.414 . S
C3402 C3403 1.374 . S
C3403 H3383 0.950 . S
C3403 C3399 1.385 . S
C3403 C3402 1.374 . S
C3404 C3401 1.499 . S
C3404 C3405 1.373 . S
C3404 C3406 1.389 . S
C3405 H3384 0.950 . S
C3405 C3404 1.373 . S
C3405 C3421 1.377 . S
C3406 C3404 1.389 . S
C3406 C3407 1.524 . S
C3406 C3420 1.377 . S
C3407 C3406 1.524 . S
C3407 C3408 1.397 . S
C3407 C3412 1.363 . S
C3408 H3385 0.950 . S
C3408 C3407 1.397 . S
C3408 C3409 1.334 . S
C3409 H3386 0.950 1_554 S
C3409 C3408 1.334 . S
C3409 C3410 1.282 1_554 S
C3410 C3409 1.282 1_556 S
C3410 C3411 1.515 1_556 S
C3410 H3429 0.929 . S
C3411 H3387 0.950 . S
C3411 C3410 1.515 1_554 S
C3411 C3412 1.415 . S
C3412 H3388 0.950 . S
C3412 C3407 1.363 . S
C3412 C3411 1.415 . S
C3413 H3389 0.951 . S
C3413 C3414 1.366 . S
C3413 C3415 1.388 . S
C3414 C3413 1.366 . S
C3414 C3418 1.385 . S
C3415 H3390 0.951 . S
C3415 C3413 1.388 . S
C3415 C3416 1.366 . S
C3416 C3415 1.366 . S
C3416 C3417 1.414 . S
C3416 C3419 1.499 . S
C3417 H3391 0.950 . S
C3417 C3416 1.414 . S
C3417 C3418 1.374 . S
C3418 H3392 0.950 . S
C3418 C3414 1.385 . S
C3418 C3417 1.374 . S
C3419 C3416 1.499 . S
C3419 C3420 1.373 . S
C3419 C3421 1.389 . S
C3420 H3393 0.950 . S
C3420 C3406 1.377 . S
C3420 C3419 1.373 . S
C3421 C3405 1.377 . S
C3421 C3419 1.389 . S
C3421 C3422 1.524 . S
C3422 C3421 1.524 . S
C3422 C3423 1.397 . S
C3422 C3427 1.363 . S
C3423 H3394 0.950 . S
C3423 C3422 1.397 . S
C3423 C3424 1.334 . S
C3424 H3395 0.950 . S
C3424 C3423 1.334 . S
C3424 C3425 1.287 . S
C3425 C3424 1.287 . S
C3425 C3426 1.524 . S
C3425 H3428 0.999 . S
C3426 H3396 0.950 . S
C3426 C3425 1.524 . S
C3426 C3427 1.415 . S
C3427 H3397 0.950 . S
C3427 C3422 1.363 . S
C3427 C3426 1.415 . S
H3428 C3425 0.999 . S
H3429 C3410 0.929 . S
H3430 C3448 0.951 . S
H3431 C3450 0.951 . S
H3432 C3452 0.950 . S
H3433 C3453 0.950 . S
H3434 C3455 0.950 . S
H3435 C3458 0.950 . S
H3436 C3459 0.950 . S
H3437 C3461 0.950 . S
H3438 C3462 0.950 . S
H3439 C3463 0.951 . S
H3440 C3465 0.951 . S
H3441 C3467 0.950 . S
H3442 C3468 0.950 . S
H3443 C3470 0.950 . S
H3444 C3473 0.950 . S
H3445 C3474 0.950 . S
H3446 C3476 0.950 . S
H3447 C3477 0.950 . S
C3448 H3430 0.951 . S
C3448 C3449 1.366 . S
C3448 C3450 1.388 . S
C3449 C3448 1.366 . S
C3449 C3453 1.385 . S
C3450 H3431 0.951 . S
C3450 C3448 1.388 . S
C3450 C3451 1.366 . S
C3451 C3450 1.366 . S
C3451 C3452 1.414 . S
C3451 C3454 1.499 . S
C3452 H3432 0.950 . S
C3452 C3451 1.414 . S
C3452 C3453 1.374 . S
C3453 H3433 0.950 . S
C3453 C3449 1.385 . S
C3453 C3452 1.374 . S
C3454 C3451 1.499 . S
C3454 C3455 1.373 . S
C3454 C3456 1.389 . S
C3455 H3434 0.950 . S
C3455 C3454 1.373 . S
C3455 C3471 1.377 . S
C3456 C3454 1.389 . S
C3456 C3457 1.524 . S
C3456 C3470 1.377 . S
C3457 C3456 1.524 . S
C3457 C3458 1.397 . S
C3457 C3462 1.363 . S
C3458 H3435 0.950 . S
C3458 C3457 1.397 . S
C3458 C3459 1.334 . S
C3459 H3436 0.950 . S
C3459 C3458 1.334 . S
C3459 C3460 1.287 . S
C3460 C3459 1.287 . S
C3460 C3461 1.524 . S
C3460 H3479 0.913 . S
C3461 H3437 0.950 . S
C3461 C3460 1.524 . S
C3461 C3462 1.415 . S
C3462 H3438 0.950 . S
C3462 C3457 1.363 . S
C3462 C3461 1.415 . S
C3463 H3439 0.951 . S
C3463 C3464 1.366 . S
C3463 C3465 1.388 . S
C3464 C3463 1.366 . S
C3464 C3468 1.385 . S
C3465 H3440 0.951 . S
C3465 C3463 1.388 . S
C3465 C3466 1.366 . S
C3466 C3465 1.366 . S
C3466 C3467 1.414 . S
C3466 C3469 1.499 . S
C3467 H3441 0.950 . S
C3467 C3466 1.414 . S
C3467 C3468 1.374 . S
C3468 H3442 0.950 . S
C3468 C3464 1.385 . S
C3468 C3467 1.374 . S
C3469 C3466 1.499 . S
C3469 C3470 1.373 . S
C3469 C3471 1.389 . S
C3470 H3443 0.950 . S
C3470 C3456 1.377 . S
C3470 C3469 1.373 . S
C3471 C3455 1.377 . S
C3471 C3469 1.389 . S
C3471 C3472 1.524 . S
C3472 C3471 1.524 . S
C3472 C3473 1.397 . S
C3472 C3477 1.363 . S
C3473 H3444 0.950 . S
C3473 C3472 1.397 . S
C3473 C3474 1.334 . S
C3474 H3445 0.950 . S
C3474 C3473 1.334 . S
C3474 C3475 1.287 . S
C3475 C3474 1.287 . S
C3475 C3476 1.524 . S
C3475 H3478 0.999 . S
C3476 H3446 0.950 . S
C3476 C3475 1.524 . S
C3476 C3477 1.415 . S
C3477 H3447 0.950 . S
C3477 C3472 1.363 . S
C3477 C3476 1.415 . S
H3478 C3475 0.999 . S
H3479 C3460 0.913 . S
H3480 C3498 0.951 . S
H3481 C3500 0.951 . S
H3482 C3502 0.950 . S
H3483 C3503 0.950 . S
H3484 C3505 0.950 . S
H3485 C3508 0.950 . S
H3486 C3509 0.950 . S
H3487 C3511 0.950 . S
H3488 C3512 0.950 . S
H3489 C3513 0.951 . S
H3490 C3515 0.951 . S
H3491 C3517 0.950 . S
H3492 C3518 0.950 . S
H3493 C3520 0.950 . S
H3494 C3523 0.950 . S
H3495 C3524 0.950 . S
H3496 C3526 0.950 . S
H3497 C3527 0.950 . S
C3498 H3480 0.951 . S
C3498 C3499 1.366 . S
C3498 C3500 1.388 . S
C3499 C3498 1.366 . S
C3499 C3503 1.385 . S
C3500 H3481 0.951 . S
C3500 C3498 1.388 . S
C3500 C3501 1.366 . S
C3501 C3500 1.366 . S
C3501 C3502 1.414 . S
C3501 C3504 1.499 . S
C3502 H3482 0.950 . S
C3502 C3501 1.414 . S
C3502 C3503 1.374 . S
C3503 H3483 0.950 . S
C3503 C3499 1.385 . S
C3503 C3502 1.374 . S
C3504 C3501 1.499 . S
C3504 C3505 1.373 . S
C3504 C3506 1.389 . S
C3505 H3484 0.950 . S
C3505 C3504 1.373 . S
C3505 C3521 1.377 . S
C3506 C3504 1.389 . S
C3506 C3507 1.524 . S
C3506 C3520 1.377 . S
C3507 C3506 1.524 . S
C3507 C3508 1.397 . S
C3507 C3512 1.363 . S
C3508 H3485 0.950 . S
C3508 C3507 1.397 . S
C3508 C3509 1.334 . S
C3509 H3486 0.950 . S
C3509 C3508 1.334 . S
C3509 C3510 1.287 . S
C3510 C3509 1.287 . S
C3510 C3511 1.524 . S
C3510 H3529 0.913 . S
C3511 H3487 0.950 . S
C3511 C3510 1.524 . S
C3511 C3512 1.415 . S
C3512 H3488 0.950 . S
C3512 C3507 1.363 . S
C3512 C3511 1.415 . S
C3513 H3489 0.951 . S
C3513 C3514 1.366 . S
C3513 C3515 1.388 . S
C3514 C3513 1.366 . S
C3514 C3518 1.385 . S
C3515 H3490 0.951 . S
C3515 C3513 1.388 . S
C3515 C3516 1.366 . S
C3516 C3515 1.366 . S
C3516 C3517 1.414 . S
C3516 C3519 1.499 . S
C3517 H3491 0.950 . S
C3517 C3516 1.414 . S
C3517 C3518 1.374 . S
C3518 H3492 0.950 . S
C3518 C3514 1.385 . S
C3518 C3517 1.374 . S
C3519 C3516 1.499 . S
C3519 C3520 1.373 . S
C3519 C3521 1.389 . S
C3520 H3493 0.950 . S
C3520 C3506 1.377 . S
C3520 C3519 1.373 . S
C3521 C3505 1.377 . S
C3521 C3519 1.389 . S
C3521 C3522 1.524 . S
C3522 C3521 1.524 . S
C3522 C3523 1.397 . S
C3522 C3527 1.363 . S
C3523 H3494 0.950 . S
C3523 C3522 1.397 . S
C3523 C3524 1.334 . S
C3524 H3495 0.950 . S
C3524 C3523 1.334 . S
C3524 C3525 1.287 . S
C3525 C3524 1.287 . S
C3525 C3526 1.524 . S
C3525 H3528 0.999 . S
C3526 H3496 0.950 . S
C3526 C3525 1.524 . S
C3526 C3527 1.415 . S
C3527 H3497 0.950 . S
C3527 C3522 1.363 . S
C3527 C3526 1.415 . S
H3528 C3525 0.999 . S
H3529 C3510 0.913 . S
H3530 C3548 0.951 . S
H3531 C3550 0.951 . S
H3532 C3552 0.950 . S
H3533 C3553 0.950 . S
H3534 C3555 0.950 . S
H3535 C3558 0.950 . S
H3536 C3559 0.950 . S
H3537 C3561 0.950 . S
H3538 C3562 0.950 . S
H3539 C3563 0.951 . S
H3540 C3565 0.951 . S
H3541 C3567 0.950 . S
H3542 C3568 0.950 . S
H3543 C3570 0.950 . S
H3544 C3573 0.950 . S
H3545 C3574 0.950 . S
H3546 C3576 0.950 . S
H3547 C3577 0.950 . S
C3548 H3530 0.951 . S
C3548 C3549 1.366 . S
C3548 C3550 1.388 . S
C3549 C3548 1.366 . S
C3549 C3553 1.385 . S
C3550 H3531 0.951 . S
C3550 C3548 1.388 . S
C3550 C3551 1.366 . S
C3551 C3550 1.366 . S
C3551 C3552 1.414 . S
C3551 C3554 1.499 . S
C3552 H3532 0.950 . S
C3552 C3551 1.414 . S
C3552 C3553 1.374 . S
C3553 H3533 0.950 . S
C3553 C3549 1.385 . S
C3553 C3552 1.374 . S
C3554 C3551 1.499 . S
C3554 C3555 1.373 . S
C3554 C3556 1.389 . S
C3555 H3534 0.950 . S
C3555 C3554 1.373 . S
C3555 C3571 1.377 . S
C3556 C3554 1.389 . S
C3556 C3557 1.524 . S
C3556 C3570 1.377 . S
C3557 C3556 1.524 . S
C3557 C3558 1.397 . S
C3557 C3562 1.363 . S
C3558 H3535 0.950 . S
C3558 C3557 1.397 . S
C3558 C3559 1.334 . S
C3559 H3536 0.950 . S
C3559 C3558 1.334 . S
C3559 C3560 1.287 . S
C3560 C3559 1.287 . S
C3560 C3561 1.524 . S
C3560 H3579 0.913 . S
C3561 H3537 0.950 . S
C3561 C3560 1.524 . S
C3561 C3562 1.415 . S
C3562 H3538 0.950 . S
C3562 C3557 1.363 . S
C3562 C3561 1.415 . S
C3563 H3539 0.951 . S
C3563 C3564 1.366 . S
C3563 C3565 1.388 . S
C3564 C3563 1.366 . S
C3564 C3568 1.385 . S
C3565 H3540 0.951 . S
C3565 C3563 1.388 . S
C3565 C3566 1.366 . S
C3566 C3565 1.366 . S
C3566 C3567 1.414 . S
C3566 C3569 1.499 . S
C3567 H3541 0.950 . S
C3567 C3566 1.414 . S
C3567 C3568 1.374 . S
C3568 H3542 0.950 . S
C3568 C3564 1.385 . S
C3568 C3567 1.374 . S
C3569 C3566 1.499 . S
C3569 C3570 1.373 . S
C3569 C3571 1.389 . S
C3570 H3543 0.950 . S
C3570 C3556 1.377 . S
C3570 C3569 1.373 . S
C3571 C3555 1.377 . S
C3571 C3569 1.389 . S
C3571 C3572 1.524 . S
C3572 C3571 1.524 . S
C3572 C3573 1.397 . S
C3572 C3577 1.363 . S
C3573 H3544 0.950 . S
C3573 C3572 1.397 . S
C3573 C3574 1.334 . S
C3574 H3545 0.950 . S
C3574 C3573 1.334 . S
C3574 C3575 1.287 . S
C3575 C3574 1.287 . S
C3575 C3576 1.524 . S
C3575 H3578 0.999 . S
C3576 H3546 0.950 . S
C3576 C3575 1.524 . S
C3576 C3577 1.415 . S
C3577 H3547 0.950 . S
C3577 C3572 1.363 . S
C3577 C3576 1.415 . S
H3578 C3575 0.999 . S
H3579 C3560 0.913 . S
H3580 C3598 0.951 . S
H3581 C3600 0.951 . S
H3582 C3602 0.950 . S
H3583 C3603 0.950 . S
H3584 C3605 0.950 . S
H3585 C3608 0.950 . S
H3586 C3609 0.950 . S
H3587 C3611 0.950 . S
H3588 C3612 0.950 . S
H3589 C3613 0.951 . S
H3590 C3615 0.951 . S
H3591 C3617 0.950 . S
H3592 C3618 0.950 . S
H3593 C3620 0.950 . S
H3594 C3623 0.950 . S
H3595 C3624 0.950 . S
H3596 C3626 0.950 . S
H3597 C3627 0.950 . S
C3598 H3580 0.951 . S
C3598 C3599 1.366 . S
C3598 C3600 1.388 . S
C3599 C3598 1.366 . S
C3599 C3603 1.385 . S
C3600 H3581 0.951 . S
C3600 C3598 1.388 . S
C3600 C3601 1.366 . S
C3601 C3600 1.366 . S
C3601 C3602 1.414 . S
C3601 C3604 1.499 . S
C3602 H3582 0.950 . S
C3602 C3601 1.414 . S
C3602 C3603 1.374 . S
C3603 H3583 0.950 . S
C3603 C3599 1.385 . S
C3603 C3602 1.374 . S
C3604 C3601 1.499 . S
C3604 C3605 1.373 . S
C3604 C3606 1.389 . S
C3605 H3584 0.950 . S
C3605 C3604 1.373 . S
C3605 C3621 1.377 . S
C3606 C3604 1.389 . S
C3606 C3607 1.524 . S
C3606 C3620 1.377 . S
C3607 C3606 1.524 . S
C3607 C3608 1.397 . S
C3607 C3612 1.363 . S
C3608 H3585 0.950 . S
C3608 C3607 1.397 . S
C3608 C3609 1.334 . S
C3609 H3586 0.950 . S
C3609 C3608 1.334 . S
C3609 C3610 1.287 . S
C3610 C3609 1.287 . S
C3610 C3611 1.524 . S
C3610 H3629 0.913 . S
C3611 H3587 0.950 . S
C3611 C3610 1.524 . S
C3611 C3612 1.415 . S
C3612 H3588 0.950 . S
C3612 C3607 1.363 . S
C3612 C3611 1.415 . S
C3613 H3589 0.951 . S
C3613 C3614 1.366 . S
C3613 C3615 1.388 . S
C3614 C3613 1.366 . S
C3614 C3618 1.385 . S
C3615 H3590 0.951 . S
C3615 C3613 1.388 . S
C3615 C3616 1.366 . S
C3616 C3615 1.366 . S
C3616 C3617 1.414 . S
C3616 C3619 1.499 . S
C3617 H3591 0.950 . S
C3617 C3616 1.414 . S
C3617 C3618 1.374 . S
C3618 H3592 0.950 . S
C3618 C3614 1.385 . S
C3618 C3617 1.374 . S
C3619 C3616 1.499 . S
C3619 C3620 1.373 . S
C3619 C3621 1.389 . S
C3620 H3593 0.950 . S
C3620 C3606 1.377 . S
C3620 C3619 1.373 . S
C3621 C3605 1.377 . S
C3621 C3619 1.389 . S
C3621 C3622 1.524 . S
C3622 C3621 1.524 . S
C3622 C3623 1.397 . S
C3622 C3627 1.363 . S
C3623 H3594 0.950 . S
C3623 C3622 1.397 . S
C3623 C3624 1.334 . S
C3624 H3595 0.950 . S
C3624 C3623 1.334 . S
C3624 C3625 1.287 . S
C3625 C3624 1.287 . S
C3625 C3626 1.524 . S
C3625 H3628 0.999 . S
C3626 H3596 0.950 . S
C3626 C3625 1.524 . S
C3626 C3627 1.415 . S
C3627 H3597 0.950 . S
C3627 C3622 1.363 . S
C3627 C3626 1.415 . S
H3628 C3625 0.999 . S
H3629 C3610 0.913 . S
H3630 C3648 0.951 . S
H3631 C3650 0.951 . S
H3632 C3652 0.903 1_655 S
H3633 C3653 0.950 . S
H3634 C3655 0.950 . S
H3635 C3658 0.950 . S
H3636 C3659 0.950 . S
H3637 C3661 0.950 . S
H3638 C3662 0.950 . S
H3639 C3663 0.951 . S
H3640 C3665 0.951 . S
H3641 C3667 0.950 . S
H3642 C3668 0.950 . S
H3643 C3670 0.950 . S
H3644 C3673 0.950 . S
H3645 C3674 0.950 . S
H3646 C3676 0.950 . S
H3647 C3677 0.950 . S
C3648 H3630 0.951 . S
C3648 C3649 1.366 . S
C3648 C3650 1.388 . S
C3649 C3648 1.366 . S
C3649 C3653 1.385 . S
C3650 H3631 0.951 . S
C3650 C3648 1.388 . S
C3650 C3651 1.366 . S
C3651 C3650 1.366 . S
C3651 C3652 1.414 . S
C3651 C3654 1.499 . S
C3652 H3632 0.903 1_455 S
C3652 C3651 1.414 . S
C3652 C3653 1.374 . S
C3653 H3633 0.950 . S
C3653 C3649 1.385 . S
C3653 C3652 1.374 . S
C3654 C3651 1.499 . S
C3654 C3655 1.373 1_455 S
C3654 C3656 1.389 . S
C3655 H3634 0.950 . S
C3655 C3654 1.373 1_655 S
C3655 C3671 1.377 . S
C3656 C3654 1.389 . S
C3656 C3657 1.524 . S
C3656 C3670 1.377 . S
C3657 C3656 1.524 . S
C3657 C3658 1.397 . S
C3657 C3662 1.363 . S
C3658 H3635 0.950 . S
C3658 C3657 1.397 . S
C3658 C3659 1.334 . S
C3659 H3636 0.950 . S
C3659 C3658 1.334 . S
C3659 C3660 1.287 . S
C3660 C3659 1.287 . S
C3660 C3661 1.524 . S
C3660 H3679 0.913 . S
C3661 H3637 0.950 . S
C3661 C3660 1.524 . S
C3661 C3662 1.415 . S
C3662 H3638 0.950 . S
C3662 C3657 1.363 . S
C3662 C3661 1.415 . S
C3663 H3639 0.951 . S
C3663 C3664 1.366 1_655 S
C3663 C3665 1.388 . S
C3664 C3663 1.366 1_455 S
C3664 C3668 1.385 . S
C3665 H3640 0.951 . S
C3665 C3663 1.388 . S
C3665 C3666 1.366 1_655 S
C3666 C3665 1.366 1_455 S
C3666 C3667 1.414 . S
C3666 C3669 1.499 . S
C3667 H3641 0.950 . S
C3667 C3666 1.414 . S
C3667 C3668 1.374 . S
C3668 H3642 0.950 . S
C3668 C3664 1.385 . S
C3668 C3667 1.374 . S
C3669 C3666 1.499 . S
C3669 C3670 1.373 . S
C3669 C3671 1.389 1_455 S
C3670 H3643 0.950 . S
C3670 C3656 1.377 . S
C3670 C3669 1.373 . S
C3671 C3655 1.377 . S
C3671 C3669 1.389 1_655 S
C3671 C3672 1.524 . S
C3672 C3671 1.524 . S
C3672 C3673 1.397 . S
C3672 C3677 1.363 . S
C3673 H3644 0.950 . S
C3673 C3672 1.397 . S
C3673 C3674 1.334 . S
C3674 H3645 0.950 . S
C3674 C3673 1.334 . S
C3674 C3675 1.287 . S
C3675 C3674 1.287 . S
C3675 C3676 1.524 . S
C3675 H3678 0.999 . S
C3676 H3646 0.950 . S
C3676 C3675 1.524 . S
C3676 C3677 1.415 . S
C3677 H3647 0.950 . S
C3677 C3672 1.363 . S
C3677 C3676 1.415 . S
H3678 C3675 0.999 . S
H3679 C3660 0.913 . S
H3680 C3698 0.951 . S
H3681 C3700 0.951 . S
H3682 C3702 0.950 . S
H3683 C3703 0.950 . S
H3684 C3705 0.950 . S
H3685 C3708 0.950 . S
H3686 C3709 0.950 . S
H3687 C3711 0.950 . S
H3688 C3712 0.950 . S
H3689 C3713 0.951 . S
H3690 C3715 0.951 . S
H3691 C3717 0.950 . S
H3692 C3718 0.950 . S
H3693 C3720 0.950 . S
H3694 C3723 0.950 . S
H3695 C3724 0.950 . S
H3696 C3726 0.950 . S
H3697 C3727 0.950 . S
C3698 H3680 0.951 . S
C3698 C3699 1.366 . S
C3698 C3700 1.388 . S
C3699 C3698 1.366 . S
C3699 C3703 1.385 . S
C3700 H3681 0.951 . S
C3700 C3698 1.388 . S
C3700 C3701 1.366 . S
C3701 C3700 1.366 . S
C3701 C3702 1.414 . S
C3701 C3704 1.499 . S
C3702 H3682 0.950 . S
C3702 C3701 1.414 . S
C3702 C3703 1.374 . S
C3703 H3683 0.950 . S
C3703 C3699 1.385 . S
C3703 C3702 1.374 . S
C3704 C3701 1.499 . S
C3704 C3705 1.373 . S
C3704 C3706 1.389 . S
C3705 H3684 0.950 . S
C3705 C3704 1.373 . S
C3705 C3721 1.377 . S
C3706 C3704 1.389 . S
C3706 C3707 1.524 . S
C3706 C3720 1.377 . S
C3707 C3706 1.524 . S
C3707 C3708 1.397 . S
C3707 C3712 1.363 . S
C3708 H3685 0.950 . S
C3708 C3707 1.397 . S
C3708 C3709 1.334 . S
C3709 H3686 0.950 . S
C3709 C3708 1.334 . S
C3709 C3710 1.287 . S
C3710 C3709 1.287 . S
C3710 C3711 1.524 . S
C3710 H3729 0.913 . S
C3711 H3687 0.950 . S
C3711 C3710 1.524 . S
C3711 C3712 1.415 . S
C3712 H3688 0.950 . S
C3712 C3707 1.363 . S
C3712 C3711 1.415 . S
C3713 H3689 0.951 . S
C3713 C3714 1.366 . S
C3713 C3715 1.388 . S
C3714 C3713 1.366 . S
C3714 C3718 1.385 . S
C3715 H3690 0.951 . S
C3715 C3713 1.388 . S
C3715 C3716 1.366 . S
C3716 C3715 1.366 . S
C3716 C3717 1.414 . S
C3716 C3719 1.499 . S
C3717 H3691 0.950 . S
C3717 C3716 1.414 . S
C3717 C3718 1.374 . S
C3718 H3692 0.950 . S
C3718 C3714 1.385 . S
C3718 C3717 1.374 . S
C3719 C3716 1.499 . S
C3719 C3720 1.373 . S
C3719 C3721 1.389 . S
C3720 H3693 0.950 . S
C3720 C3706 1.377 . S
C3720 C3719 1.373 . S
C3721 C3705 1.377 . S
C3721 C3719 1.389 . S
C3721 C3722 1.524 . S
C3722 C3721 1.524 . S
C3722 C3723 1.397 . S
C3722 C3727 1.363 . S
C3723 H3694 0.950 . S
C3723 C3722 1.397 . S
C3723 C3724 1.334 . S
C3724 H3695 0.950 . S
C3724 C3723 1.334 . S
C3724 C3725 1.287 . S
C3725 C3724 1.287 . S
C3725 C3726 1.524 . S
C3725 H3728 0.999 . S
C3726 H3696 0.950 . S
C3726 C3725 1.524 . S
C3726 C3727 1.415 . S
C3727 H3697 0.950 . S
C3727 C3722 1.363 . S
C3727 C3726 1.415 . S
H3728 C3725 0.999 . S
H3729 C3710 0.913 . S
H3730 C3748 0.951 . S
H3731 C3750 0.951 . S
H3732 C3752 0.950 . S
H3733 C3753 1.023 . S
H3734 C3755 0.950 . S
H3735 C3758 0.950 . S
H3736 C3759 0.950 . S
H3737 C3761 0.950 . S
H3738 C3762 0.950 . S
H3739 C3763 0.951 . S
H3740 C3765 0.951 . S
H3741 C3767 0.950 . S
H3742 C3768 0.950 . S
H3743 C3770 0.950 . S
H3744 C3773 0.950 . S
H3745 C3774 0.950 . S
H3746 C3776 0.950 . S
H3747 C3777 0.950 . S
C3748 H3730 0.951 . S
C3748 C3749 1.366 . S
C3748 C3750 1.388 . S
C3749 C3748 1.366 . S
C3749 C3753 1.342 1_565 S
C3750 H3731 0.951 . S
C3750 C3748 1.388 . S
C3750 C3751 1.366 . S
C3751 C3750 1.366 . S
C3751 C3752 1.414 1_565 S
C3751 C3754 1.499 . S
C3752 H3732 0.950 . S
C3752 C3751 1.414 1_545 S
C3752 C3753 1.347 . S
C3753 H3733 1.023 . S
C3753 C3749 1.342 1_545 S
C3753 C3752 1.347 . S
C3754 C3751 1.499 . S
C3754 C3755 1.373 . S
C3754 C3756 1.389 . S
C3755 H3734 0.950 . S
C3755 C3754 1.373 . S
C3755 C3771 1.377 . S
C3756 C3754 1.389 . S
C3756 C3757 1.524 . S
C3756 C3770 1.377 . S
C3757 C3756 1.524 . S
C3757 C3758 1.397 1_565 S
C3757 C3762 1.363 . S
C3758 H3735 0.950 . S
C3758 C3757 1.397 1_545 S
C3758 C3759 1.334 . S
C3759 H3736 0.950 . S
C3759 C3758 1.334 . S
C3759 C3760 1.287 1_545 S
C3760 C3759 1.287 1_565 S
C3760 C3761 1.524 . S
C3760 H3779 0.913 . S
C3761 H3737 0.950 . S
C3761 C3760 1.524 . S
C3761 C3762 1.415 . S
C3762 H3738 0.950 . S
C3762 C3757 1.363 . S
C3762 C3761 1.415 . S
C3763 H3739 0.951 . S
C3763 C3764 1.366 1_545 S
C3763 C3765 1.388 . S
C3764 C3763 1.366 1_565 S
C3764 C3768 1.385 . S
C3765 H3740 0.951 . S
C3765 C3763 1.388 . S
C3765 C3766 1.366 1_545 S
C3766 C3765 1.366 1_565 S
C3766 C3767 1.414 . S
C3766 C3769 1.499 . S
C3767 H3741 0.950 . S
C3767 C3766 1.414 . S
C3767 C3768 1.374 . S
C3768 H3742 0.950 . S
C3768 C3764 1.385 . S
C3768 C3767 1.374 . S
C3769 C3766 1.499 . S
C3769 C3770 1.373 . S
C3769 C3771 1.389 . S
C3770 H3743 0.950 . S
C3770 C3756 1.377 . S
C3770 C3769 1.373 . S
C3771 C3755 1.377 . S
C3771 C3769 1.389 . S
C3771 C3772 1.524 . S
C3772 C3771 1.524 . S
C3772 C3773 1.397 . S
C3772 C3777 1.363 1_565 S
C3773 H3744 0.950 . S
C3773 C3772 1.397 . S
C3773 C3774 1.334 . S
C3774 H3745 0.950 . S
C3774 C3773 1.334 . S
C3774 C3775 1.287 . S
C3775 C3774 1.287 . S
C3775 C3776 1.524 1_565 S
C3775 H3778 0.999 . S
C3776 H3746 0.950 . S
C3776 C3775 1.524 1_545 S
C3776 C3777 1.415 . S
C3777 H3747 0.950 . S
C3777 C3772 1.363 1_545 S
C3777 C3776 1.415 . S
H3778 C3775 0.999 . S
H3779 C3760 0.913 . S
H3780 C3798 0.951 . S
H3781 C3800 0.951 . S
H3782 C3802 0.950 . S
H3783 C3803 0.950 . S
H3784 C3805 0.950 . S
H3785 C3808 0.950 . S
H3786 C3809 0.950 . S
H3787 C3811 0.950 . S
H3788 C3812 0.950 . S
H3789 C3813 0.951 . S
H3790 C3815 0.951 . S
H3791 C3817 0.950 . S
H3792 C3818 0.950 . S
H3793 C3820 0.950 . S
H3794 C3823 0.950 . S
H3795 C3824 0.950 . S
H3796 C3826 0.950 . S
H3797 C3827 0.950 . S
C3798 H3780 0.951 . S
C3798 C3799 1.366 . S
C3798 C3800 1.388 . S
C3799 C3798 1.366 . S
C3799 C3803 1.385 . S
C3800 H3781 0.951 . S
C3800 C3798 1.388 . S
C3800 C3801 1.366 . S
C3801 C3800 1.366 . S
C3801 C3802 1.414 . S
C3801 C3804 1.499 . S
C3802 H3782 0.950 . S
C3802 C3801 1.414 . S
C3802 C3803 1.374 . S
C3803 H3783 0.950 . S
C3803 C3799 1.385 . S
C3803 C3802 1.374 . S
C3804 C3801 1.499 . S
C3804 C3805 1.373 . S
C3804 C3806 1.349 1_565 S
C3805 H3784 0.950 . S
C3805 C3804 1.373 . S
C3805 C3821 1.377 . S
C3806 C3804 1.349 1_545 S
C3806 C3807 1.543 . S
C3806 C3820 1.406 . S
C3807 C3806 1.543 . S
C3807 C3808 1.397 . S
C3807 C3812 1.363 . S
C3808 H3785 0.950 . S
C3808 C3807 1.397 . S
C3808 C3809 1.334 . S
C3809 H3786 0.950 . S
C3809 C3808 1.334 . S
C3809 C3810 1.287 . S
C3810 C3809 1.287 . S
C3810 C3811 1.524 . S
C3810 H3829 0.913 . S
C3811 H3787 0.950 . S
C3811 C3810 1.524 . S
C3811 C3812 1.415 . S
C3812 H3788 0.950 . S
C3812 C3807 1.363 . S
C3812 C3811 1.415 . S
C3813 H3789 0.951 . S
C3813 C3814 1.366 . S
C3813 C3815 1.388 . S
C3814 C3813 1.366 . S
C3814 C3818 1.385 . S
C3815 H3790 0.951 . S
C3815 C3813 1.388 . S
C3815 C3816 1.366 . S
C3816 C3815 1.366 . S
C3816 C3817 1.414 . S
C3816 C3819 1.499 . S
C3817 H3791 0.950 . S
C3817 C3816 1.414 . S
C3817 C3818 1.374 . S
C3818 H3792 0.950 . S
C3818 C3814 1.385 . S
C3818 C3817 1.374 . S
C3819 C3816 1.499 . S
C3819 C3820 1.373 1_565 S
C3819 C3821 1.389 . S
C3820 H3793 0.950 . S
C3820 C3806 1.406 . S
C3820 C3819 1.373 1_545 S
C3821 C3805 1.377 . S
C3821 C3819 1.389 . S
C3821 C3822 1.524 . S
C3822 C3821 1.524 . S
C3822 C3823 1.397 . S
C3822 C3827 1.363 . S
C3823 H3794 0.950 . S
C3823 C3822 1.397 . S
C3823 C3824 1.334 . S
C3824 H3795 0.950 . S
C3824 C3823 1.334 . S
C3824 C3825 1.287 . S
C3825 C3824 1.287 . S
C3825 C3826 1.524 . S
C3825 H3828 0.999 . S
C3826 H3796 0.950 . S
C3826 C3825 1.524 . S
C3826 C3827 1.415 . S
C3827 H3797 0.950 . S
C3827 C3822 1.363 . S
C3827 C3826 1.415 . S
H3828 C3825 0.999 . S
H3829 C3810 0.913 . S
H3830 C3848 0.951 . S
H3831 C3850 0.951 . S
H3832 C3852 0.995 . S
H3833 C3853 0.907 1_655 S
H3834 C3855 0.950 . S
H3835 C3858 0.950 1_655 S
H3836 C3859 0.950 . S
H3837 C3861 0.950 . S
H3838 C3862 0.950 . S
H3839 C3863 0.951 . S
H3840 C3865 0.951 . S
H3841 C3867 0.950 . S
H3842 C3868 0.950 . S
H3843 C3870 0.950 . S
H3844 C3873 0.950 . S
H3845 C3874 0.950 . S
H3846 C3876 0.950 . S
H3847 C3877 0.950 . S
C3848 H3830 0.951 . S
C3848 C3849 1.366 . S
C3848 C3850 1.388 . S
C3849 C3848 1.366 . S
C3849 C3853 1.409 . S
C3850 H3831 0.951 . S
C3850 C3848 1.388 . S
C3850 C3851 1.366 . S
C3851 C3850 1.366 . S
C3851 C3852 1.342 1_455 S
C3851 C3854 1.499 . S
C3852 H3832 0.995 . S
C3852 C3851 1.342 1_655 S
C3852 C3853 1.432 1_655 S
C3853 H3833 0.907 1_455 S
C3853 C3849 1.409 . S
C3853 C3852 1.432 1_455 S
C3854 C3851 1.499 . S
C3854 C3855 1.373 . S
C3854 C3856 1.389 . S
C3855 H3834 0.950 . S
C3855 C3854 1.373 . S
C3855 C3871 1.377 . S
C3856 C3854 1.389 . S
C3856 C3857 1.524 . S
C3856 C3870 1.377 . S
C3857 C3856 1.524 . S
C3857 C3858 1.397 . S
C3857 C3862 1.363 . S
C3858 H3835 0.950 1_455 S
C3858 C3857 1.397 . S
C3858 C3859 1.334 . S
C3859 H3836 0.950 . S
C3859 C3858 1.334 . S
C3859 C3860 1.287 . S
C3860 C3859 1.287 . S
C3860 C3861 1.524 . S
C3860 H3879 0.913 . S
C3861 H3837 0.950 . S
C3861 C3860 1.524 . S
C3861 C3862 1.415 . S
C3862 H3838 0.950 . S
C3862 C3857 1.363 . S
C3862 C3861 1.415 . S
C3863 H3839 0.951 . S
C3863 C3864 1.366 1_655 S
C3863 C3865 1.388 . S
C3864 C3863 1.366 1_455 S
C3864 C3868 1.385 . S
C3865 H3840 0.951 . S
C3865 C3863 1.388 . S
C3865 C3866 1.366 1_655 S
C3866 C3865 1.366 1_455 S
C3866 C3867 1.414 . S
C3866 C3869 1.499 . S
C3867 H3841 0.950 . S
C3867 C3866 1.414 . S
C3867 C3868 1.374 . S
C3868 H3842 0.950 . S
C3868 C3864 1.385 . S
C3868 C3867 1.374 . S
C3869 C3866 1.499 . S
C3869 C3870 1.373 . S
C3869 C3871 1.389 . S
C3870 H3843 0.950 . S
C3870 C3856 1.377 . S
C3870 C3869 1.373 . S
C3871 C3855 1.377 . S
C3871 C3869 1.389 . S
C3871 C3872 1.528 1_455 S
C3872 C3871 1.528 1_655 S
C3872 C3873 1.382 1_655 S
C3872 C3877 1.373 . S
C3873 H3844 0.950 . S
C3873 C3872 1.382 1_455 S
C3873 C3874 1.334 . S
C3874 H3845 0.950 . S
C3874 C3873 1.334 . S
C3874 C3875 1.287 1_455 S
C3875 C3874 1.287 1_655 S
C3875 C3876 1.524 . S
C3875 H3878 0.999 . S
C3876 H3846 0.950 . S
C3876 C3875 1.524 . S
C3876 C3877 1.415 . S
C3877 H3847 0.950 . S
C3877 C3872 1.373 . S
C3877 C3876 1.415 . S
H3878 C3875 0.999 . S
H3879 C3860 0.913 . S
H3880 C3898 0.951 . S
H3881 C3900 0.951 . S
H3882 C3902 0.950 . S
H3883 C3903 0.950 . S
H3884 C3905 0.950 . S
H3885 C3908 0.950 . S
H3886 C3909 0.950 . S
H3887 C3911 0.950 . S
H3888 C3912 0.950 . S
H3889 C3913 0.951 . S
H3890 C3915 0.951 . S
H3891 C3917 0.950 . S
H3892 C3918 0.950 . S
H3893 C3920 0.950 . S
H3894 C3923 0.950 . S
H3895 C3924 0.950 . S
H3896 C3926 0.950 . S
H3897 C3927 0.950 . S
C3898 H3880 0.951 . S
C3898 C3899 1.366 . S
C3898 C3900 1.388 . S
C3899 C3898 1.366 . S
C3899 C3903 1.385 . S
C3900 H3881 0.951 . S
C3900 C3898 1.388 . S
C3900 C3901 1.366 . S
C3901 C3900 1.366 . S
C3901 C3902 1.414 . S
C3901 C3904 1.499 . S
C3902 H3882 0.950 . S
C3902 C3901 1.414 . S
C3902 C3903 1.374 . S
C3903 H3883 0.950 . S
C3903 C3899 1.385 . S
C3903 C3902 1.374 . S
C3904 C3901 1.499 . S
C3904 C3905 1.373 . S
C3904 C3906 1.389 . S
C3905 H3884 0.950 . S
C3905 C3904 1.373 . S
C3905 C3921 1.377 . S
C3906 C3904 1.389 . S
C3906 C3907 1.524 . S
C3906 C3920 1.377 . S
C3907 C3906 1.524 . S
C3907 C3908 1.397 . S
C3907 C3912 1.363 . S
C3908 H3885 0.950 . S
C3908 C3907 1.397 . S
C3908 C3909 1.334 . S
C3909 H3886 0.950 . S
C3909 C3908 1.334 . S
C3909 C3910 1.287 . S
C3910 C3909 1.287 . S
C3910 C3911 1.524 . S
C3910 H3929 0.913 . S
C3911 H3887 0.950 . S
C3911 C3910 1.524 . S
C3911 C3912 1.415 . S
C3912 H3888 0.950 . S
C3912 C3907 1.363 . S
C3912 C3911 1.415 . S
C3913 H3889 0.951 . S
C3913 C3914 1.366 . S
C3913 C3915 1.388 . S
C3914 C3913 1.366 . S
C3914 C3918 1.385 . S
C3915 H3890 0.951 . S
C3915 C3913 1.388 . S
C3915 C3916 1.366 . S
C3916 C3915 1.366 . S
C3916 C3917 1.414 . S
C3916 C3919 1.499 . S
C3917 H3891 0.950 . S
C3917 C3916 1.414 . S
C3917 C3918 1.374 . S
C3918 H3892 0.950 . S
C3918 C3914 1.385 . S
C3918 C3917 1.374 . S
C3919 C3916 1.499 . S
C3919 C3920 1.373 . S
C3919 C3921 1.389 . S
C3920 H3893 0.950 . S
C3920 C3906 1.377 . S
C3920 C3919 1.373 . S
C3921 C3905 1.377 . S
C3921 C3919 1.389 . S
C3921 C3922 1.524 . S
C3922 C3921 1.524 . S
C3922 C3923 1.397 . S
C3922 C3927 1.363 . S
C3923 H3894 0.950 . S
C3923 C3922 1.397 . S
C3923 C3924 1.334 . S
C3924 H3895 0.950 . S
C3924 C3923 1.334 . S
C3924 C3925 1.287 . S
C3925 C3924 1.287 . S
C3925 C3926 1.524 . S
C3925 H3928 0.999 . S
C3926 H3896 0.950 . S
C3926 C3925 1.524 . S
C3926 C3927 1.415 . S
C3927 H3897 0.950 . S
C3927 C3922 1.363 . S
C3927 C3926 1.415 . S
H3928 C3925 0.999 . S
H3929 C3910 0.913 . S
H3930 C3948 0.951 . S
H3931 C3950 0.951 . S
H3932 C3952 0.950 . S
H3933 C3953 0.950 . S
H3934 C3955 0.950 . S
H3935 C3958 0.950 . S
H3936 C3959 0.950 . S
H3937 C3961 0.950 . S
H3938 C3962 0.950 . S
H3939 C3963 0.951 . S
H3940 C3965 0.951 . S
H3941 C3967 0.950 . S
H3942 C3968 0.950 . S
H3943 C3970 0.950 . S
H3944 C3973 0.950 . S
H3945 C3974 0.950 . S
H3946 C3976 0.950 . S
H3947 C3977 0.950 . S
C3948 H3930 0.951 . S
C3948 C3949 1.366 . S
C3948 C3950 1.388 . S
C3949 C3948 1.366 . S
C3949 C3953 1.385 . S
C3950 H3931 0.951 . S
C3950 C3948 1.388 . S
C3950 C3951 1.366 . S
C3951 C3950 1.366 . S
C3951 C3952 1.414 . S
C3951 C3954 1.499 . S
C3952 H3932 0.950 . S
C3952 C3951 1.414 . S
C3952 C3953 1.374 . S
C3953 H3933 0.950 . S
C3953 C3949 1.385 . S
C3953 C3952 1.374 . S
C3954 C3951 1.499 . S
C3954 C3955 1.373 . S
C3954 C3956 1.389 . S
C3955 H3934 0.950 . S
C3955 C3954 1.373 . S
C3955 C3971 1.377 . S
C3956 C3954 1.389 . S
C3956 C3957 1.524 . S
C3956 C3970 1.377 . S
C3957 C3956 1.524 . S
C3957 C3958 1.397 . S
C3957 C3962 1.363 . S
C3958 H3935 0.950 . S
C3958 C3957 1.397 . S
C3958 C3959 1.334 . S
C3959 H3936 0.950 . S
C3959 C3958 1.334 . S
C3959 C3960 1.287 . S
C3960 C3959 1.287 . S
C3960 C3961 1.524 . S
C3960 H3979 0.913 . S
C3961 H3937 0.950 . S
C3961 C3960 1.524 . S
C3961 C3962 1.415 . S
C3962 H3938 0.950 . S
C3962 C3957 1.363 . S
C3962 C3961 1.415 . S
C3963 H3939 0.951 . S
C3963 C3964 1.366 . S
C3963 C3965 1.388 . S
C3964 C3963 1.366 . S
C3964 C3968 1.385 . S
C3965 H3940 0.951 . S
C3965 C3963 1.388 . S
C3965 C3966 1.366 . S
C3966 C3965 1.366 . S
C3966 C3967 1.414 . S
C3966 C3969 1.499 . S
C3967 H3941 0.950 . S
C3967 C3966 1.414 . S
C3967 C3968 1.374 . S
C3968 H3942 0.950 . S
C3968 C3964 1.385 . S
C3968 C3967 1.374 . S
C3969 C3966 1.499 . S
C3969 C3970 1.373 . S
C3969 C3971 1.389 . S
C3970 H3943 0.950 . S
C3970 C3956 1.377 . S
C3970 C3969 1.373 . S
C3971 C3955 1.377 . S
C3971 C3969 1.389 . S
C3971 C3972 1.524 . S
C3972 C3971 1.524 . S
C3972 C3973 1.397 . S
C3972 C3977 1.363 . S
C3973 H3944 0.950 . S
C3973 C3972 1.397 . S
C3973 C3974 1.334 . S
C3974 H3945 0.950 . S
C3974 C3973 1.334 . S
C3974 C3975 1.287 . S
C3975 C3974 1.287 . S
C3975 C3976 1.524 . S
C3975 H3978 0.999 . S
C3976 H3946 0.950 . S
C3976 C3975 1.524 . S
C3976 C3977 1.415 . S
C3977 H3947 0.950 . S
C3977 C3972 1.363 . S
C3977 C3976 1.415 . S
H3978 C3975 0.999 . S
H3979 C3960 0.913 . S
H3980 C3998 0.951 . S
H3981 C4000 0.951 . S
H3982 C4002 0.950 . S
H3983 C4003 0.950 . S
H3984 C4005 0.950 . S
H3985 C4008 0.950 . S
H3986 C4009 0.950 . S
H3987 C4011 0.950 . S
H3988 C4012 0.950 . S
H3989 C4013 0.951 . S
H3990 C4015 0.951 . S
H3991 C4017 0.950 . S
H3992 C4018 0.950 . S
H3993 C4020 0.950 . S
H3994 C4023 0.950 . S
H3995 C4024 0.950 . S
H3996 C4026 0.950 . S
H3997 C4027 0.950 . S
C3998 H3980 0.951 . S
C3998 C3999 1.366 . S
C3998 C4000 1.388 . S
C3999 C3998 1.366 . S
C3999 C4003 1.385 . S
C4000 H3981 0.951 . S
C4000 C3998 1.388 . S
C4000 C4001 1.366 . S
C4001 C4000 1.366 . S
C4001 C4002 1.414 . S
C4001 C4004 1.499 . S
C4002 H3982 0.950 . S
C4002 C4001 1.414 . S
C4002 C4003 1.374 . S
C4003 H3983 0.950 . S
C4003 C3999 1.385 . S
C4003 C4002 1.374 . S
C4004 C4001 1.499 . S
C4004 C4005 1.373 . S
C4004 C4006 1.389 . S
C4005 H3984 0.950 . S
C4005 C4004 1.373 . S
C4005 C4021 1.377 . S
C4006 C4004 1.389 . S
C4006 C4007 1.524 . S
C4006 C4020 1.377 . S
C4007 C4006 1.524 . S
C4007 C4008 1.397 . S
C4007 C4012 1.363 . S
C4008 H3985 0.950 . S
C4008 C4007 1.397 . S
C4008 C4009 1.334 . S
C4009 H3986 0.950 . S
C4009 C4008 1.334 . S
C4009 C4010 1.287 . S
C4010 C4009 1.287 . S
C4010 C4011 1.524 . S
C4010 H4029 0.913 . S
C4011 H3987 0.950 . S
C4011 C4010 1.524 . S
C4011 C4012 1.415 . S
C4012 H3988 0.950 . S
C4012 C4007 1.363 . S
C4012 C4011 1.415 . S
C4013 H3989 0.951 . S
C4013 C4014 1.366 . S
C4013 C4015 1.388 . S
C4014 C4013 1.366 . S
C4014 C4018 1.385 . S
C4015 H3990 0.951 . S
C4015 C4013 1.388 . S
C4015 C4016 1.366 . S
C4016 C4015 1.366 . S
C4016 C4017 1.414 . S
C4016 C4019 1.499 . S
C4017 H3991 0.950 . S
C4017 C4016 1.414 . S
C4017 C4018 1.374 . S
C4018 H3992 0.950 . S
C4018 C4014 1.385 . S
C4018 C4017 1.374 . S
C4019 C4016 1.499 . S
C4019 C4020 1.373 . S
C4019 C4021 1.389 . S
C4020 H3993 0.950 . S
C4020 C4006 1.377 . S
C4020 C4019 1.373 . S
C4021 C4005 1.377 . S
C4021 C4019 1.389 . S
C4021 C4022 1.524 . S
C4022 C4021 1.524 . S
C4022 C4023 1.397 . S
C4022 C4027 1.363 . S
C4023 H3994 0.950 . S
C4023 C4022 1.397 . S
C4023 C4024 1.334 . S
C4024 H3995 0.950 . S
C4024 C4023 1.334 . S
C4024 C4025 1.287 . S
C4025 C4024 1.287 . S
C4025 C4026 1.524 . S
C4025 H4028 0.999 . S
C4026 H3996 0.950 . S
C4026 C4025 1.524 . S
C4026 C4027 1.415 . S
C4027 H3997 0.950 . S
C4027 C4022 1.363 . S
C4027 C4026 1.415 . S
H4028 C4025 0.999 . S
H4029 C4010 0.913 . S
H4030 C4048 0.951 . S
H4031 C4050 0.951 . S
H4032 C4052 0.950 . S
H4033 C4053 0.950 . S
H4034 C4055 0.950 . S
H4035 C4058 0.950 . S
H4036 C4059 0.950 . S
H4037 C4061 0.950 . S
H4038 C4062 0.950 . S
H4039 C4063 0.951 . S
H4040 C4065 0.951 . S
H4041 C4067 0.950 . S
H4042 C4068 0.950 . S
H4043 C4070 0.950 . S
H4044 C4073 0.950 . S
H4045 C4074 0.950 . S
H4046 C4076 0.950 . S
H4047 C4077 0.950 . S
C4048 H4030 0.951 . S
C4048 C4049 1.366 . S
C4048 C4050 1.388 . S
C4049 C4048 1.366 . S
C4049 C4053 1.385 . S
C4050 H4031 0.951 . S
C4050 C4048 1.388 . S
C4050 C4051 1.366 . S
C4051 C4050 1.366 . S
C4051 C4052 1.414 . S
C4051 C4054 1.499 . S
C4052 H4032 0.950 . S
C4052 C4051 1.414 . S
C4052 C4053 1.374 . S
C4053 H4033 0.950 . S
C4053 C4049 1.385 . S
C4053 C4052 1.374 . S
C4054 C4051 1.499 . S
C4054 C4055 1.373 . S
C4054 C4056 1.389 . S
C4055 H4034 0.950 . S
C4055 C4054 1.373 . S
C4055 C4071 1.377 . S
C4056 C4054 1.389 . S
C4056 C4057 1.524 . S
C4056 C4070 1.377 . S
C4057 C4056 1.524 . S
C4057 C4058 1.397 . S
C4057 C4062 1.363 . S
C4058 H4035 0.950 . S
C4058 C4057 1.397 . S
C4058 C4059 1.334 . S
C4059 H4036 0.950 . S
C4059 C4058 1.334 . S
C4059 C4060 1.287 . S
C4060 C4059 1.287 . S
C4060 C4061 1.524 . S
C4060 H4079 0.913 . S
C4061 H4037 0.950 . S
C4061 C4060 1.524 . S
C4061 C4062 1.415 . S
C4062 H4038 0.950 . S
C4062 C4057 1.363 . S
C4062 C4061 1.415 . S
C4063 H4039 0.951 . S
C4063 C4064 1.366 . S
C4063 C4065 1.388 . S
C4064 C4063 1.366 . S
C4064 C4068 1.385 . S
C4065 H4040 0.951 . S
C4065 C4063 1.388 . S
C4065 C4066 1.366 . S
C4066 C4065 1.366 . S
C4066 C4067 1.414 . S
C4066 C4069 1.499 . S
C4067 H4041 0.950 . S
C4067 C4066 1.414 . S
C4067 C4068 1.374 . S
C4068 H4042 0.950 . S
C4068 C4064 1.385 . S
C4068 C4067 1.374 . S
C4069 C4066 1.499 . S
C4069 C4070 1.373 . S
C4069 C4071 1.389 . S
C4070 H4043 0.950 . S
C4070 C4056 1.377 . S
C4070 C4069 1.373 . S
C4071 C4055 1.377 . S
C4071 C4069 1.389 . S
C4071 C4072 1.524 . S
C4072 C4071 1.524 . S
C4072 C4073 1.397 . S
C4072 C4077 1.363 . S
C4073 H4044 0.950 . S
C4073 C4072 1.397 . S
C4073 C4074 1.334 . S
C4074 H4045 0.950 . S
C4074 C4073 1.334 . S
C4074 C4075 1.287 . S
C4075 C4074 1.287 . S
C4075 C4076 1.524 . S
C4075 H4078 0.999 . S
C4076 H4046 0.950 . S
C4076 C4075 1.524 . S
C4076 C4077 1.415 . S
C4077 H4047 0.950 . S
C4077 C4072 1.363 . S
C4077 C4076 1.415 . S
H4078 C4075 0.999 . S
H4079 C4060 0.913 . S
H4080 C4098 0.951 . S
H4081 C4100 0.951 . S
H4082 C4102 0.950 . S
H4083 C4103 0.950 . S
H4084 C4105 0.950 1_565 S
H4085 C4108 0.950 . S
H4086 C4109 0.950 . S
H4087 C4111 0.950 . S
H4088 C4112 0.950 . S
H4089 C4113 0.951 . S
H4090 C4115 0.951 . S
H4091 C4117 0.950 . S
H4092 C4118 0.950 . S
H4093 C4120 0.950 . S
H4094 C4123 0.950 . S
H4095 C4124 0.950 . S
H4096 C4126 0.950 . S
H4097 C4127 0.950 . S
C4098 H4080 0.951 . S
C4098 C4099 1.366 . S
C4098 C4100 1.388 . S
C4099 C4098 1.366 . S
C4099 C4103 1.385 . S
C4100 H4081 0.951 . S
C4100 C4098 1.388 . S
C4100 C4101 1.366 . S
C4101 C4100 1.366 . S
C4101 C4102 1.414 . S
C4101 C4104 1.499 . S
C4102 H4082 0.950 . S
C4102 C4101 1.414 . S
C4102 C4103 1.374 . S
C4103 H4083 0.950 . S
C4103 C4099 1.385 . S
C4103 C4102 1.374 . S
C4104 C4101 1.499 . S
C4104 C4105 1.373 . S
C4104 C4106 1.389 . S
C4105 H4084 0.950 1_545 S
C4105 C4104 1.373 . S
C4105 C4121 1.420 . S
C4106 C4104 1.389 . S
C4106 C4107 1.524 . S
C4106 C4120 1.377 . S
C4107 C4106 1.524 . S
C4107 C4108 1.397 . S
C4107 C4112 1.363 . S
C4108 H4085 0.950 . S
C4108 C4107 1.397 . S
C4108 C4109 1.334 . S
C4109 H4086 0.950 . S
C4109 C4108 1.334 . S
C4109 C4110 1.287 . S
C4110 C4109 1.287 . S
C4110 C4111 1.524 . S
C4110 H4129 0.913 . S
C4111 H4087 0.950 . S
C4111 C4110 1.524 . S
C4111 C4112 1.415 . S
C4112 H4088 0.950 . S
C4112 C4107 1.363 . S
C4112 C4111 1.415 . S
C4113 H4089 0.951 . S
C4113 C4114 1.366 . S
C4113 C4115 1.388 . S
C4114 C4113 1.366 . S
C4114 C4118 1.385 . S
C4115 H4090 0.951 . S
C4115 C4113 1.388 . S
C4115 C4116 1.366 . S
C4116 C4115 1.366 . S
C4116 C4117 1.414 . S
C4116 C4119 1.499 . S
C4117 H4091 0.950 . S
C4117 C4116 1.414 . S
C4117 C4118 1.374 . S
C4118 H4092 0.950 . S
C4118 C4114 1.385 . S
C4118 C4117 1.374 . S
C4119 C4116 1.499 . S
C4119 C4120 1.373 . S
C4119 C4121 1.414 . S
C4120 H4093 0.950 . S
C4120 C4106 1.377 . S
C4120 C4119 1.373 . S
C4121 C4105 1.420 . S
C4121 C4119 1.414 . S
C4121 C4122 1.457 1_545 S
C4122 C4121 1.457 1_565 S
C4122 C4123 1.397 . S
C4122 C4127 1.363 . S
C4123 H4094 0.950 . S
C4123 C4122 1.397 . S
C4123 C4124 1.334 . S
C4124 H4095 0.950 . S
C4124 C4123 1.334 . S
C4124 C4125 1.287 . S
C4125 C4124 1.287 . S
C4125 C4126 1.524 . S
C4125 H4128 0.999 . S
C4126 H4096 0.950 . S
C4126 C4125 1.524 . S
C4126 C4127 1.415 . S
C4127 H4097 0.950 . S
C4127 C4122 1.363 . S
C4127 C4126 1.415 . S
H4128 C4125 0.999 . S
H4129 C4110 0.913 . S
H4130 C4148 0.951 . S
H4131 C4150 0.951 . S
H4132 C4152 0.950 . S
H4133 C4153 0.950 . S
H4134 C4155 0.950 . S
H4135 C4158 0.950 . S
H4136 C4159 0.950 . S
H4137 C4161 0.950 . S
H4138 C4162 0.950 . S
H4139 C4163 0.951 . S
H4140 C4165 0.951 . S
H4141 C4167 0.949 1_455 S
H4142 C4168 0.955 1_455 S
H4143 C4170 0.950 . S
H4144 C4173 0.950 . S
H4145 C4174 0.950 . S
H4146 C4176 0.950 . S
H4147 C4177 0.950 . S
C4148 H4130 0.951 . S
C4148 C4149 1.366 . S
C4148 C4150 1.388 . S
C4149 C4148 1.366 . S
C4149 C4153 1.385 . S
C4150 H4131 0.951 . S
C4150 C4148 1.388 . S
C4150 C4151 1.366 . S
C4151 C4150 1.366 . S
C4151 C4152 1.414 . S
C4151 C4154 1.499 . S
C4152 H4132 0.950 . S
C4152 C4151 1.414 . S
C4152 C4153 1.374 . S
C4153 H4133 0.950 . S
C4153 C4149 1.385 . S
C4153 C4152 1.374 . S
C4154 C4151 1.499 . S
C4154 C4155 1.373 . S
C4154 C4156 1.389 1_655 S
C4155 H4134 0.950 . S
C4155 C4154 1.373 . S
C4155 C4171 1.377 . S
C4156 C4154 1.389 1_455 S
C4156 C4157 1.524 . S
C4156 C4170 1.377 . S
C4157 C4156 1.524 . S
C4157 C4158 1.397 . S
C4157 C4162 1.363 . S
C4158 H4135 0.950 . S
C4158 C4157 1.397 . S
C4158 C4159 1.334 . S
C4159 H4136 0.950 . S
C4159 C4158 1.334 . S
C4159 C4160 1.287 . S
C4160 C4159 1.287 . S
C4160 C4161 1.524 . S
C4160 H4179 0.913 . S
C4161 H4137 0.950 . S
C4161 C4160 1.524 . S
C4161 C4162 1.415 . S
C4162 H4138 0.950 . S
C4162 C4157 1.363 . S
C4162 C4161 1.415 . S
C4163 H4139 0.951 . S
C4163 C4164 1.366 . S
C4163 C4165 1.388 . S
C4164 C4163 1.366 . S
C4164 C4168 1.387 . S
C4165 H4140 0.951 . S
C4165 C4163 1.388 . S
C4165 C4166 1.366 . S
C4166 C4165 1.366 . S
C4166 C4167 1.414 . S
C4166 C4169 1.499 . S
C4167 H4141 0.949 1_655 S
C4167 C4166 1.414 . S
C4167 C4168 1.366 . S
C4168 H4142 0.955 1_655 S
C4168 C4164 1.387 . S
C4168 C4167 1.366 . S
C4169 C4166 1.499 . S
C4169 C4170 1.373 1_655 S
C4169 C4171 1.389 . S
C4170 H4143 0.950 . S
C4170 C4156 1.377 . S
C4170 C4169 1.373 1_455 S
C4171 C4155 1.377 . S
C4171 C4169 1.389 . S
C4171 C4172 1.524 . S
C4172 C4171 1.524 . S
C4172 C4173 1.397 . S
C4172 C4177 1.363 . S
C4173 H4144 0.950 . S
C4173 C4172 1.397 . S
C4173 C4174 1.334 . S
C4174 H4145 0.950 . S
C4174 C4173 1.334 . S
C4174 C4175 1.287 . S
C4175 C4174 1.287 . S
C4175 C4176 1.524 . S
C4175 H4178 0.999 . S
C4176 H4146 0.950 . S
C4176 C4175 1.524 . S
C4176 C4177 1.415 . S
C4177 H4147 0.950 . S
C4177 C4172 1.363 . S
C4177 C4176 1.415 . S
H4178 C4175 0.999 . S
H4179 C4160 0.913 . S
H4180 C4198 0.951 . S
H4181 C4200 0.951 . S
H4182 C4202 0.950 . S
H4183 C4203 0.950 . S
H4184 C4205 0.950 . S
H4185 C4208 0.950 . S
H4186 C4209 0.950 . S
H4187 C4211 0.950 . S
H4188 C4212 0.950 . S
H4189 C4213 0.951 . S
H4190 C4215 0.951 . S
H4191 C4217 0.950 . S
H4192 C4218 0.950 . S
H4193 C4220 0.950 . S
H4194 C4223 0.950 . S
H4195 C4224 0.950 . S
H4196 C4226 0.950 . S
H4197 C4227 0.950 . S
C4198 H4180 0.951 . S
C4198 C4199 1.366 . S
C4198 C4200 1.388 . S
C4199 C4198 1.366 . S
C4199 C4203 1.385 . S
C4200 H4181 0.951 . S
C4200 C4198 1.388 . S
C4200 C4201 1.366 . S
C4201 C4200 1.366 . S
C4201 C4202 1.414 . S
C4201 C4204 1.499 . S
C4202 H4182 0.950 . S
C4202 C4201 1.414 . S
C4202 C4203 1.374 . S
C4203 H4183 0.950 . S
C4203 C4199 1.385 . S
C4203 C4202 1.374 . S
C4204 C4201 1.499 . S
C4204 C4205 1.373 . S
C4204 C4206 1.389 . S
C4205 H4184 0.950 . S
C4205 C4204 1.373 . S
C4205 C4221 1.377 . S
C4206 C4204 1.389 . S
C4206 C4207 1.524 . S
C4206 C4220 1.377 . S
C4207 C4206 1.524 . S
C4207 C4208 1.397 . S
C4207 C4212 1.363 . S
C4208 H4185 0.950 . S
C4208 C4207 1.397 . S
C4208 C4209 1.334 . S
C4209 H4186 0.950 . S
C4209 C4208 1.334 . S
C4209 C4210 1.287 . S
C4210 C4209 1.287 . S
C4210 C4211 1.524 . S
C4210 H4229 0.913 . S
C4211 H4187 0.950 . S
C4211 C4210 1.524 . S
C4211 C4212 1.415 . S
C4212 H4188 0.950 . S
C4212 C4207 1.363 . S
C4212 C4211 1.415 . S
C4213 H4189 0.951 . S
C4213 C4214 1.366 . S
C4213 C4215 1.388 . S
C4214 C4213 1.366 . S
C4214 C4218 1.385 . S
C4215 H4190 0.951 . S
C4215 C4213 1.388 . S
C4215 C4216 1.366 . S
C4216 C4215 1.366 . S
C4216 C4217 1.414 . S
C4216 C4219 1.499 . S
C4217 H4191 0.950 . S
C4217 C4216 1.414 . S
C4217 C4218 1.374 . S
C4218 H4192 0.950 . S
C4218 C4214 1.385 . S
C4218 C4217 1.374 . S
C4219 C4216 1.499 . S
C4219 C4220 1.373 . S
C4219 C4221 1.389 . S
C4220 H4193 0.950 . S
C4220 C4206 1.377 . S
C4220 C4219 1.373 . S
C4221 C4205 1.377 . S
C4221 C4219 1.389 . S
C4221 C4222 1.524 . S
C4222 C4221 1.524 . S
C4222 C4223 1.397 . S
C4222 C4227 1.363 . S
C4223 H4194 0.950 . S
C4223 C4222 1.397 . S
C4223 C4224 1.334 . S
C4224 H4195 0.950 . S
C4224 C4223 1.334 . S
C4224 C4225 1.287 . S
C4225 C4224 1.287 . S
C4225 C4226 1.524 . S
C4225 H4228 0.999 . S
C4226 H4196 0.950 . S
C4226 C4225 1.524 . S
C4226 C4227 1.415 . S
C4227 H4197 0.950 . S
C4227 C4222 1.363 . S
C4227 C4226 1.415 . S
H4228 C4225 0.999 . S
H4229 C4210 0.913 . S
H4230 C4248 0.951 . S
H4231 C4250 0.951 . S
H4232 C4252 0.950 . S
H4233 C4253 0.950 . S
H4234 C4255 0.950 . S
H4235 C4258 0.950 . S
H4236 C4259 0.950 . S
H4237 C4261 0.950 . S
H4238 C4262 0.950 . S
H4239 C4263 0.951 . S
H4240 C4265 0.951 . S
H4241 C4267 0.950 . S
H4242 C4268 0.950 . S
H4243 C4270 0.950 . S
H4244 C4273 0.950 . S
H4245 C4274 0.950 . S
H4246 C4276 0.950 . S
H4247 C4277 0.950 . S
C4248 H4230 0.951 . S
C4248 C4249 1.366 . S
C4248 C4250 1.388 . S
C4249 C4248 1.366 . S
C4249 C4253 1.385 . S
C4250 H4231 0.951 . S
C4250 C4248 1.388 . S
C4250 C4251 1.366 . S
C4251 C4250 1.366 . S
C4251 C4252 1.414 . S
C4251 C4254 1.499 . S
C4252 H4232 0.950 . S
C4252 C4251 1.414 . S
C4252 C4253 1.374 . S
C4253 H4233 0.950 . S
C4253 C4249 1.385 . S
C4253 C4252 1.374 . S
C4254 C4251 1.499 . S
C4254 C4255 1.373 . S
C4254 C4256 1.389 . S
C4255 H4234 0.950 . S
C4255 C4254 1.373 . S
C4255 C4271 1.377 . S
C4256 C4254 1.389 . S
C4256 C4257 1.524 . S
C4256 C4270 1.377 . S
C4257 C4256 1.524 . S
C4257 C4258 1.397 . S
C4257 C4262 1.363 . S
C4258 H4235 0.950 . S
C4258 C4257 1.397 . S
C4258 C4259 1.334 . S
C4259 H4236 0.950 . S
C4259 C4258 1.334 . S
C4259 C4260 1.287 . S
C4260 C4259 1.287 . S
C4260 C4261 1.524 . S
C4260 H4279 0.913 . S
C4261 H4237 0.950 . S
C4261 C4260 1.524 . S
C4261 C4262 1.415 . S
C4262 H4238 0.950 . S
C4262 C4257 1.363 . S
C4262 C4261 1.415 . S
C4263 H4239 0.951 . S
C4263 C4264 1.366 . S
C4263 C4265 1.388 . S
C4264 C4263 1.366 . S
C4264 C4268 1.385 . S
C4265 H4240 0.951 . S
C4265 C4263 1.388 . S
C4265 C4266 1.366 . S
C4266 C4265 1.366 . S
C4266 C4267 1.414 . S
C4266 C4269 1.499 . S
C4267 H4241 0.950 . S
C4267 C4266 1.414 . S
C4267 C4268 1.374 . S
C4268 H4242 0.950 . S
C4268 C4264 1.385 . S
C4268 C4267 1.374 . S
C4269 C4266 1.499 . S
C4269 C4270 1.373 . S
C4269 C4271 1.389 . S
C4270 H4243 0.950 . S
C4270 C4256 1.377 . S
C4270 C4269 1.373 . S
C4271 C4255 1.377 . S
C4271 C4269 1.389 . S
C4271 C4272 1.524 . S
C4272 C4271 1.524 . S
C4272 C4273 1.397 . S
C4272 C4277 1.363 . S
C4273 H4244 0.950 . S
C4273 C4272 1.397 . S
C4273 C4274 1.334 . S
C4274 H4245 0.950 . S
C4274 C4273 1.334 . S
C4274 C4275 1.287 . S
C4275 C4274 1.287 . S
C4275 C4276 1.524 . S
C4275 H4278 0.999 . S
C4276 H4246 0.950 . S
C4276 C4275 1.524 . S
C4276 C4277 1.415 . S
C4277 H4247 0.950 . S
C4277 C4272 1.363 . S
C4277 C4276 1.415 . S
H4278 C4275 0.999 . S
H4279 C4260 0.913 . S
H4280 C4298 0.951 . S
H4281 C4300 0.951 . S
H4282 C4302 0.950 . S
H4283 C4303 0.950 . S
H4284 C4305 0.950 . S
H4285 C4308 0.950 . S
H4286 C4309 0.950 . S
H4287 C4311 0.950 . S
H4288 C4312 0.950 . S
H4289 C4313 0.951 . S
H4290 C4315 0.951 . S
H4291 C4317 0.950 . S
H4292 C4318 0.950 . S
H4293 C4320 0.950 . S
H4294 C4323 0.950 . S
H4295 C4324 0.950 . S
H4296 C4326 0.950 . S
H4297 C4327 0.950 . S
C4298 H4280 0.951 . S
C4298 C4299 1.366 . S
C4298 C4300 1.388 . S
C4299 C4298 1.366 . S
C4299 C4303 1.385 . S
C4300 H4281 0.951 . S
C4300 C4298 1.388 . S
C4300 C4301 1.366 . S
C4301 C4300 1.366 . S
C4301 C4302 1.414 . S
C4301 C4304 1.499 . S
C4302 H4282 0.950 . S
C4302 C4301 1.414 . S
C4302 C4303 1.374 . S
C4303 H4283 0.950 . S
C4303 C4299 1.385 . S
C4303 C4302 1.374 . S
C4304 C4301 1.499 . S
C4304 C4305 1.373 . S
C4304 C4306 1.389 . S
C4305 H4284 0.950 . S
C4305 C4304 1.373 . S
C4305 C4321 1.377 . S
C4306 C4304 1.389 . S
C4306 C4307 1.524 . S
C4306 C4320 1.377 . S
C4307 C4306 1.524 . S
C4307 C4308 1.397 . S
C4307 C4312 1.363 . S
C4308 H4285 0.950 . S
C4308 C4307 1.397 . S
C4308 C4309 1.334 . S
C4309 H4286 0.950 . S
C4309 C4308 1.334 . S
C4309 C4310 1.287 . S
C4310 C4309 1.287 . S
C4310 C4311 1.524 . S
C4310 H4329 0.913 . S
C4311 H4287 0.950 . S
C4311 C4310 1.524 . S
C4311 C4312 1.415 . S
C4312 H4288 0.950 . S
C4312 C4307 1.363 . S
C4312 C4311 1.415 . S
C4313 H4289 0.951 . S
C4313 C4314 1.366 . S
C4313 C4315 1.388 . S
C4314 C4313 1.366 . S
C4314 C4318 1.385 . S
C4315 H4290 0.951 . S
C4315 C4313 1.388 . S
C4315 C4316 1.366 . S
C4316 C4315 1.366 . S
C4316 C4317 1.414 . S
C4316 C4319 1.499 . S
C4317 H4291 0.950 . S
C4317 C4316 1.414 . S
C4317 C4318 1.374 . S
C4318 H4292 0.950 . S
C4318 C4314 1.385 . S
C4318 C4317 1.374 . S
C4319 C4316 1.499 . S
C4319 C4320 1.373 . S
C4319 C4321 1.389 . S
C4320 H4293 0.950 . S
C4320 C4306 1.377 . S
C4320 C4319 1.373 . S
C4321 C4305 1.377 . S
C4321 C4319 1.389 . S
C4321 C4322 1.524 . S
C4322 C4321 1.524 . S
C4322 C4323 1.397 . S
C4322 C4327 1.363 . S
C4323 H4294 0.950 . S
C4323 C4322 1.397 . S
C4323 C4324 1.334 . S
C4324 H4295 0.950 . S
C4324 C4323 1.334 . S
C4324 C4325 1.287 . S
C4325 C4324 1.287 . S
C4325 C4326 1.524 . S
C4325 H4328 0.999 . S
C4326 H4296 0.950 . S
C4326 C4325 1.524 . S
C4326 C4327 1.415 . S
C4327 H4297 0.950 . S
C4327 C4322 1.363 . S
C4327 C4326 1.415 . S
H4328 C4325 0.999 . S
H4329 C4310 0.913 . S
H4330 C4348 0.951 . S
H4331 C4350 0.951 . S
H4332 C4352 0.950 . S
H4333 C4353 0.950 . S
H4334 C4355 0.950 . S
H4335 C4358 0.950 . S
H4336 C4359 0.950 . S
H4337 C4361 0.950 . S
H4338 C4362 0.950 . S
H4339 C4363 0.951 . S
H4340 C4365 0.951 . S
H4341 C4367 0.950 . S
H4342 C4368 0.950 . S
H4343 C4370 0.950 . S
H4344 C4373 0.950 . S
H4345 C4374 0.950 . S
H4346 C4376 0.950 . S
H4347 C4377 0.950 . S
C4348 H4330 0.951 . S
C4348 C4349 1.366 . S
C4348 C4350 1.388 . S
C4349 C4348 1.366 . S
C4349 C4353 1.385 . S
C4350 H4331 0.951 . S
C4350 C4348 1.388 . S
C4350 C4351 1.366 . S
C4351 C4350 1.366 . S
C4351 C4352 1.414 . S
C4351 C4354 1.499 . S
C4352 H4332 0.950 . S
C4352 C4351 1.414 . S
C4352 C4353 1.374 . S
C4353 H4333 0.950 . S
C4353 C4349 1.385 . S
C4353 C4352 1.374 . S
C4354 C4351 1.499 . S
C4354 C4355 1.373 . S
C4354 C4356 1.389 . S
C4355 H4334 0.950 . S
C4355 C4354 1.373 . S
C4355 C4371 1.377 . S
C4356 C4354 1.389 . S
C4356 C4357 1.524 . S
C4356 C4370 1.377 . S
C4357 C4356 1.524 . S
C4357 C4358 1.397 . S
C4357 C4362 1.363 . S
C4358 H4335 0.950 . S
C4358 C4357 1.397 . S
C4358 C4359 1.334 . S
C4359 H4336 0.950 . S
C4359 C4358 1.334 . S
C4359 C4360 1.287 . S
C4360 C4359 1.287 . S
C4360 C4361 1.524 . S
C4360 H4379 0.913 . S
C4361 H4337 0.950 . S
C4361 C4360 1.524 . S
C4361 C4362 1.415 . S
C4362 H4338 0.950 . S
C4362 C4357 1.363 . S
C4362 C4361 1.415 . S
C4363 H4339 0.951 . S
C4363 C4364 1.366 . S
C4363 C4365 1.388 . S
C4364 C4363 1.366 . S
C4364 C4368 1.385 . S
C4365 H4340 0.951 . S
C4365 C4363 1.388 . S
C4365 C4366 1.366 . S
C4366 C4365 1.366 . S
C4366 C4367 1.414 . S
C4366 C4369 1.499 . S
C4367 H4341 0.950 . S
C4367 C4366 1.414 . S
C4367 C4368 1.374 . S
C4368 H4342 0.950 . S
C4368 C4364 1.385 . S
C4368 C4367 1.374 . S
C4369 C4366 1.499 . S
C4369 C4370 1.373 . S
C4369 C4371 1.389 . S
C4370 H4343 0.950 . S
C4370 C4356 1.377 . S
C4370 C4369 1.373 . S
C4371 C4355 1.377 . S
C4371 C4369 1.389 . S
C4371 C4372 1.524 . S
C4372 C4371 1.524 . S
C4372 C4373 1.397 . S
C4372 C4377 1.363 . S
C4373 H4344 0.950 . S
C4373 C4372 1.397 . S
C4373 C4374 1.334 . S
C4374 H4345 0.950 . S
C4374 C4373 1.334 . S
C4374 C4375 1.287 . S
C4375 C4374 1.287 . S
C4375 C4376 1.524 . S
C4375 H4378 0.999 . S
C4376 H4346 0.950 . S
C4376 C4375 1.524 . S
C4376 C4377 1.415 . S
C4377 H4347 0.950 . S
C4377 C4372 1.363 . S
C4377 C4376 1.415 . S
H4378 C4375 0.999 . S
H4379 C4360 0.913 . S
H4380 C4398 0.951 . S
H4381 C4400 0.951 . S
H4382 C4402 0.950 . S
H4383 C4403 0.950 . S
H4384 C4405 0.950 . S
H4385 C4408 0.950 . S
H4386 C4409 0.950 . S
H4387 C4411 0.950 . S
H4388 C4412 0.950 . S
H4389 C4413 0.951 . S
H4390 C4415 0.951 . S
H4391 C4417 0.950 . S
H4392 C4418 0.950 . S
H4393 C4420 0.950 . S
H4394 C4423 0.950 . S
H4395 C4424 0.950 . S
H4396 C4426 0.950 . S
H4397 C4427 0.950 . S
C4398 H4380 0.951 . S
C4398 C4399 1.366 . S
C4398 C4400 1.388 . S
C4399 C4398 1.366 . S
C4399 C4403 1.385 . S
C4400 H4381 0.951 . S
C4400 C4398 1.388 . S
C4400 C4401 1.366 . S
C4401 C4400 1.366 . S
C4401 C4402 1.414 . S
C4401 C4404 1.499 . S
C4402 H4382 0.950 . S
C4402 C4401 1.414 . S
C4402 C4403 1.374 . S
C4403 H4383 0.950 . S
C4403 C4399 1.385 . S
C4403 C4402 1.374 . S
C4404 C4401 1.499 . S
C4404 C4405 1.373 . S
C4404 C4406 1.389 . S
C4405 H4384 0.950 . S
C4405 C4404 1.373 . S
C4405 C4421 1.377 . S
C4406 C4404 1.389 . S
C4406 C4407 1.524 . S
C4406 C4420 1.377 . S
C4407 C4406 1.524 . S
C4407 C4408 1.397 . S
C4407 C4412 1.363 . S
C4408 H4385 0.950 . S
C4408 C4407 1.397 . S
C4408 C4409 1.334 . S
C4409 H4386 0.950 . S
C4409 C4408 1.334 . S
C4409 C4410 1.287 . S
C4410 C4409 1.287 . S
C4410 C4411 1.524 . S
C4410 H4429 0.913 . S
C4411 H4387 0.950 . S
C4411 C4410 1.524 . S
C4411 C4412 1.415 . S
C4412 H4388 0.950 . S
C4412 C4407 1.363 . S
C4412 C4411 1.415 . S
C4413 H4389 0.951 . S
C4413 C4414 1.366 . S
C4413 C4415 1.388 . S
C4414 C4413 1.366 . S
C4414 C4418 1.385 . S
C4415 H4390 0.951 . S
C4415 C4413 1.388 . S
C4415 C4416 1.366 . S
C4416 C4415 1.366 . S
C4416 C4417 1.414 . S
C4416 C4419 1.499 . S
C4417 H4391 0.950 . S
C4417 C4416 1.414 . S
C4417 C4418 1.374 . S
C4418 H4392 0.950 . S
C4418 C4414 1.385 . S
C4418 C4417 1.374 . S
C4419 C4416 1.499 . S
C4419 C4420 1.373 . S
C4419 C4421 1.389 . S
C4420 H4393 0.950 . S
C4420 C4406 1.377 . S
C4420 C4419 1.373 . S
C4421 C4405 1.377 . S
C4421 C4419 1.389 . S
C4421 C4422 1.524 . S
C4422 C4421 1.524 . S
C4422 C4423 1.397 . S
C4422 C4427 1.363 . S
C4423 H4394 0.950 . S
C4423 C4422 1.397 . S
C4423 C4424 1.334 . S
C4424 H4395 0.950 . S
C4424 C4423 1.334 . S
C4424 C4425 1.287 . S
C4425 C4424 1.287 . S
C4425 C4426 1.524 . S
C4425 H4428 0.999 . S
C4426 H4396 0.950 . S
C4426 C4425 1.524 . S
C4426 C4427 1.415 . S
C4427 H4397 0.950 . S
C4427 C4422 1.363 . S
C4427 C4426 1.415 . S
H4428 C4425 0.999 . S
H4429 C4410 0.913 . S
H4430 C4448 0.951 . S
H4431 C4450 0.951 . S
H4432 C4452 0.950 . S
H4433 C4453 0.950 . S
H4434 C4455 0.950 . S
H4435 C4458 0.950 . S
H4436 C4459 0.950 . S
H4437 C4461 0.950 . S
H4438 C4462 0.950 . S
H4439 C4463 0.951 . S
H4440 C4465 0.951 . S
H4441 C4467 0.950 . S
H4442 C4468 0.950 . S
H4443 C4470 0.950 . S
H4444 C4473 0.950 . S
H4445 C4474 0.950 . S
H4446 C4476 0.950 . S
H4447 C4477 0.950 . S
C4448 H4430 0.951 . S
C4448 C4449 1.366 . S
C4448 C4450 1.388 . S
C4449 C4448 1.366 . S
C4449 C4453 1.385 . S
C4450 H4431 0.951 . S
C4450 C4448 1.388 . S
C4450 C4451 1.366 . S
C4451 C4450 1.366 . S
C4451 C4452 1.414 . S
C4451 C4454 1.499 . S
C4452 H4432 0.950 . S
C4452 C4451 1.414 . S
C4452 C4453 1.374 . S
C4453 H4433 0.950 . S
C4453 C4449 1.385 . S
C4453 C4452 1.374 . S
C4454 C4451 1.499 . S
C4454 C4455 1.373 . S
C4454 C4456 1.389 . S
C4455 H4434 0.950 . S
C4455 C4454 1.373 . S
C4455 C4471 1.377 . S
C4456 C4454 1.389 . S
C4456 C4457 1.524 . S
C4456 C4470 1.377 . S
C4457 C4456 1.524 . S
C4457 C4458 1.397 . S
C4457 C4462 1.363 . S
C4458 H4435 0.950 . S
C4458 C4457 1.397 . S
C4458 C4459 1.334 . S
C4459 H4436 0.950 . S
C4459 C4458 1.334 . S
C4459 C4460 1.287 . S
C4460 C4459 1.287 . S
C4460 C4461 1.524 . S
C4460 H4479 0.913 . S
C4461 H4437 0.950 . S
C4461 C4460 1.524 . S
C4461 C4462 1.415 . S
C4462 H4438 0.950 . S
C4462 C4457 1.363 . S
C4462 C4461 1.415 . S
C4463 H4439 0.951 . S
C4463 C4464 1.366 . S
C4463 C4465 1.388 . S
C4464 C4463 1.366 . S
C4464 C4468 1.385 . S
C4465 H4440 0.951 . S
C4465 C4463 1.388 . S
C4465 C4466 1.366 . S
C4466 C4465 1.366 . S
C4466 C4467 1.414 . S
C4466 C4469 1.499 . S
C4467 H4441 0.950 . S
C4467 C4466 1.414 . S
C4467 C4468 1.374 . S
C4468 H4442 0.950 . S
C4468 C4464 1.385 . S
C4468 C4467 1.374 . S
C4469 C4466 1.499 . S
C4469 C4470 1.373 . S
C4469 C4471 1.389 . S
C4470 H4443 0.950 . S
C4470 C4456 1.377 . S
C4470 C4469 1.373 . S
C4471 C4455 1.377 . S
C4471 C4469 1.389 . S
C4471 C4472 1.524 . S
C4472 C4471 1.524 . S
C4472 C4473 1.397 . S
C4472 C4477 1.363 . S
C4473 H4444 0.950 . S
C4473 C4472 1.397 . S
C4473 C4474 1.334 . S
C4474 H4445 0.950 . S
C4474 C4473 1.334 . S
C4474 C4475 1.287 . S
C4475 C4474 1.287 . S
C4475 C4476 1.524 . S
C4475 H4478 0.999 . S
C4476 H4446 0.950 . S
C4476 C4475 1.524 . S
C4476 C4477 1.415 . S
C4477 H4447 0.950 . S
C4477 C4472 1.363 . S
C4477 C4476 1.415 . S
H4478 C4475 0.999 . S
H4479 C4460 0.913 . S
H4480 C4498 0.951 . S
H4481 C4500 0.951 . S
H4482 C4502 0.950 . S
H4483 C4503 0.950 . S
H4484 C4505 0.950 . S
H4485 C4508 0.950 . S
H4486 C4509 0.950 . S
H4487 C4511 0.950 . S
H4488 C4512 0.950 . S
H4489 C4513 0.951 . S
H4490 C4515 0.951 . S
H4491 C4517 0.950 . S
H4492 C4518 0.950 . S
H4493 C4520 0.950 . S
H4494 C4523 0.950 . S
H4495 C4524 0.950 . S
H4496 C4526 0.950 . S
H4497 C4527 0.950 . S
C4498 H4480 0.951 . S
C4498 C4499 1.366 . S
C4498 C4500 1.388 . S
C4499 C4498 1.366 . S
C4499 C4503 1.385 . S
C4500 H4481 0.951 . S
C4500 C4498 1.388 . S
C4500 C4501 1.366 . S
C4501 C4500 1.366 . S
C4501 C4502 1.414 . S
C4501 C4504 1.499 . S
C4502 H4482 0.950 . S
C4502 C4501 1.414 . S
C4502 C4503 1.374 . S
C4503 H4483 0.950 . S
C4503 C4499 1.385 . S
C4503 C4502 1.374 . S
C4504 C4501 1.499 . S
C4504 C4505 1.373 . S
C4504 C4506 1.389 . S
C4505 H4484 0.950 . S
C4505 C4504 1.373 . S
C4505 C4521 1.377 . S
C4506 C4504 1.389 . S
C4506 C4507 1.524 . S
C4506 C4520 1.377 . S
C4507 C4506 1.524 . S
C4507 C4508 1.397 . S
C4507 C4512 1.363 . S
C4508 H4485 0.950 . S
C4508 C4507 1.397 . S
C4508 C4509 1.334 . S
C4509 H4486 0.950 . S
C4509 C4508 1.334 . S
C4509 C4510 1.287 . S
C4510 C4509 1.287 . S
C4510 C4511 1.524 . S
C4510 H4529 0.913 . S
C4511 H4487 0.950 . S
C4511 C4510 1.524 . S
C4511 C4512 1.415 . S
C4512 H4488 0.950 . S
C4512 C4507 1.363 . S
C4512 C4511 1.415 . S
C4513 H4489 0.951 . S
C4513 C4514 1.366 . S
C4513 C4515 1.388 . S
C4514 C4513 1.366 . S
C4514 C4518 1.385 . S
C4515 H4490 0.951 . S
C4515 C4513 1.388 . S
C4515 C4516 1.366 . S
C4516 C4515 1.366 . S
C4516 C4517 1.414 . S
C4516 C4519 1.499 . S
C4517 H4491 0.950 . S
C4517 C4516 1.414 . S
C4517 C4518 1.374 . S
C4518 H4492 0.950 . S
C4518 C4514 1.385 . S
C4518 C4517 1.374 . S
C4519 C4516 1.499 . S
C4519 C4520 1.373 . S
C4519 C4521 1.389 . S
C4520 H4493 0.950 . S
C4520 C4506 1.377 . S
C4520 C4519 1.373 . S
C4521 C4505 1.377 . S
C4521 C4519 1.389 . S
C4521 C4522 1.524 . S
C4522 C4521 1.524 . S
C4522 C4523 1.397 . S
C4522 C4527 1.363 . S
C4523 H4494 0.950 . S
C4523 C4522 1.397 . S
C4523 C4524 1.334 . S
C4524 H4495 0.950 . S
C4524 C4523 1.334 . S
C4524 C4525 1.287 . S
C4525 C4524 1.287 . S
C4525 C4526 1.524 . S
C4525 H4528 0.999 . S
C4526 H4496 0.950 . S
C4526 C4525 1.524 . S
C4526 C4527 1.415 . S
C4527 H4497 0.950 . S
C4527 C4522 1.363 . S
C4527 C4526 1.415 . S
H4528 C4525 0.999 . S
H4529 C4510 0.913 . S
H4530 C4548 0.951 . S
H4531 C4550 0.951 . S
H4532 C4552 0.950 . S
H4533 C4553 0.950 . S
H4534 C4555 0.950 1_455 S
H4535 C4558 0.950 . S
H4536 C4559 0.950 . S
H4537 C4561 0.950 . S
H4538 C4562 0.950 . S
H4539 C4563 0.951 . S
H4540 C4565 0.951 . S
H4541 C4567 0.950 . S
H4542 C4568 0.950 . S
H4543 C4570 0.950 . S
H4544 C4573 0.950 . S
H4545 C4574 0.950 . S
H4546 C4576 0.950 . S
H4547 C4577 0.950 . S
C4548 H4530 0.951 . S
C4548 C4549 1.366 . S
C4548 C4550 1.388 . S
C4549 C4548 1.366 . S
C4549 C4553 1.385 . S
C4550 H4531 0.951 . S
C4550 C4548 1.388 . S
C4550 C4551 1.366 . S
C4551 C4550 1.366 . S
C4551 C4552 1.414 . S
C4551 C4554 1.499 . S
C4552 H4532 0.950 . S
C4552 C4551 1.414 . S
C4552 C4553 1.374 . S
C4553 H4533 0.950 . S
C4553 C4549 1.385 . S
C4553 C4552 1.374 . S
C4554 C4551 1.499 . S
C4554 C4555 1.373 . S
C4554 C4556 1.389 . S
C4555 H4534 0.950 1_655 S
C4555 C4554 1.373 . S
C4555 C4571 1.346 1_655 S
C4556 C4554 1.389 . S
C4556 C4557 1.524 . S
C4556 C4570 1.377 . S
C4557 C4556 1.524 . S
C4557 C4558 1.397 . S
C4557 C4562 1.363 . S
C4558 H4535 0.950 . S
C4558 C4557 1.397 . S
C4558 C4559 1.334 . S
C4559 H4536 0.950 . S
C4559 C4558 1.334 . S
C4559 C4560 1.287 . S
C4560 C4559 1.287 . S
C4560 C4561 1.524 . S
C4560 H4579 0.913 . S
C4561 H4537 0.950 . S
C4561 C4560 1.524 . S
C4561 C4562 1.415 . S
C4562 H4538 0.950 . S
C4562 C4557 1.363 . S
C4562 C4561 1.415 . S
C4563 H4539 0.951 . S
C4563 C4564 1.366 . S
C4563 C4565 1.388 . S
C4564 C4563 1.366 . S
C4564 C4568 1.385 . S
C4565 H4540 0.951 . S
C4565 C4563 1.388 . S
C4565 C4566 1.366 . S
C4566 C4565 1.366 . S
C4566 C4567 1.414 . S
C4566 C4569 1.499 . S
C4567 H4541 0.950 . S
C4567 C4566 1.414 . S
C4567 C4568 1.374 . S
C4568 H4542 0.950 . S
C4568 C4564 1.385 . S
C4568 C4567 1.374 . S
C4569 C4566 1.499 . S
C4569 C4570 1.373 . S
C4569 C4571 1.389 1_655 S
C4570 H4543 0.950 . S
C4570 C4556 1.377 . S
C4570 C4569 1.373 . S
C4571 C4555 1.346 1_455 S
C4571 C4569 1.389 1_455 S
C4571 C4572 1.560 . S
C4572 C4571 1.560 . S
C4572 C4573 1.397 . S
C4572 C4577 1.363 . S
C4573 H4544 0.950 . S
C4573 C4572 1.397 . S
C4573 C4574 1.334 . S
C4574 H4545 0.950 . S
C4574 C4573 1.334 . S
C4574 C4575 1.287 . S
C4575 C4574 1.287 . S
C4575 C4576 1.524 . S
C4575 H4578 0.999 . S
C4576 H4546 0.950 . S
C4576 C4575 1.524 . S
C4576 C4577 1.415 . S
C4577 H4547 0.950 . S
C4577 C4572 1.363 . S
C4577 C4576 1.415 . S
H4578 C4575 0.999 . S
H4579 C4560 0.913 . S
H4580 C4598 0.951 . S
H4581 C4600 0.951 . S
H4582 C4602 0.950 . S
H4583 C4603 0.950 . S
H4584 C4605 0.950 . S
H4585 C4608 0.950 . S
H4586 C4609 0.950 . S
H4587 C4611 0.950 . S
H4588 C4612 0.950 . S
H4589 C4613 0.951 . S
H4590 C4615 0.951 . S
H4591 C4617 0.950 . S
H4592 C4618 0.950 . S
H4593 C4620 0.950 . S
H4594 C4623 0.950 . S
H4595 C4624 0.950 . S
H4596 C4626 0.950 . S
H4597 C4627 0.950 . S
C4598 H4580 0.951 . S
C4598 C4599 1.366 . S
C4598 C4600 1.388 . S
C4599 C4598 1.366 . S
C4599 C4603 1.385 . S
C4600 H4581 0.951 . S
C4600 C4598 1.388 . S
C4600 C4601 1.366 . S
C4601 C4600 1.366 . S
C4601 C4602 1.414 . S
C4601 C4604 1.499 . S
C4602 H4582 0.950 . S
C4602 C4601 1.414 . S
C4602 C4603 1.374 . S
C4603 H4583 0.950 . S
C4603 C4599 1.385 . S
C4603 C4602 1.374 . S
C4604 C4601 1.499 . S
C4604 C4605 1.373 . S
C4604 C4606 1.389 . S
C4605 H4584 0.950 . S
C4605 C4604 1.373 . S
C4605 C4621 1.377 . S
C4606 C4604 1.389 . S
C4606 C4607 1.524 . S
C4606 C4620 1.377 . S
C4607 C4606 1.524 . S
C4607 C4608 1.397 . S
C4607 C4612 1.363 . S
C4608 H4585 0.950 . S
C4608 C4607 1.397 . S
C4608 C4609 1.334 . S
C4609 H4586 0.950 . S
C4609 C4608 1.334 . S
C4609 C4610 1.287 . S
C4610 C4609 1.287 . S
C4610 C4611 1.524 . S
C4610 H4629 0.913 . S
C4611 H4587 0.950 . S
C4611 C4610 1.524 . S
C4611 C4612 1.415 . S
C4612 H4588 0.950 . S
C4612 C4607 1.363 . S
C4612 C4611 1.415 . S
C4613 H4589 0.951 . S
C4613 C4614 1.366 . S
C4613 C4615 1.388 . S
C4614 C4613 1.366 . S
C4614 C4618 1.385 . S
C4615 H4590 0.951 . S
C4615 C4613 1.388 . S
C4615 C4616 1.366 . S
C4616 C4615 1.366 . S
C4616 C4617 1.414 . S
C4616 C4619 1.499 . S
C4617 H4591 0.950 . S
C4617 C4616 1.414 . S
C4617 C4618 1.374 . S
C4618 H4592 0.950 . S
C4618 C4614 1.385 . S
C4618 C4617 1.374 . S
C4619 C4616 1.499 . S
C4619 C4620 1.373 . S
C4619 C4621 1.389 . S
C4620 H4593 0.950 . S
C4620 C4606 1.377 . S
C4620 C4619 1.373 . S
C4621 C4605 1.377 . S
C4621 C4619 1.389 . S
C4621 C4622 1.524 . S
C4622 C4621 1.524 . S
C4622 C4623 1.397 . S
C4622 C4627 1.363 . S
C4623 H4594 0.950 . S
C4623 C4622 1.397 . S
C4623 C4624 1.334 . S
C4624 H4595 0.950 . S
C4624 C4623 1.334 . S
C4624 C4625 1.287 . S
C4625 C4624 1.287 . S
C4625 C4626 1.524 . S
C4625 H4628 0.999 . S
C4626 H4596 0.950 . S
C4626 C4625 1.524 . S
C4626 C4627 1.415 . S
C4627 H4597 0.950 . S
C4627 C4622 1.363 . S
C4627 C4626 1.415 . S
H4628 C4625 0.999 . S
H4629 C4610 0.913 . S
H4630 C4648 0.951 . S
H4631 C4650 0.951 . S
H4632 C4652 0.950 . S
H4633 C4653 0.950 . S
H4634 C4655 0.950 1_565 S
H4635 C4658 0.950 . S
H4636 C4659 0.950 . S
H4637 C4661 0.950 . S
H4638 C4662 0.950 . S
H4639 C4663 0.951 . S
H4640 C4665 0.951 . S
H4641 C4667 0.950 . S
H4642 C4668 0.972 1_565 S
H4643 C4670 0.950 . S
H4644 C4673 0.950 . S
H4645 C4674 0.950 . S
H4646 C4676 0.950 . S
H4647 C4677 0.950 . S
C4648 H4630 0.951 . S
C4648 C4649 1.366 . S
C4648 C4650 1.388 . S
C4649 C4648 1.366 . S
C4649 C4653 1.385 . S
C4650 H4631 0.951 . S
C4650 C4648 1.388 . S
C4650 C4651 1.366 . S
C4651 C4650 1.366 . S
C4651 C4652 1.414 . S
C4651 C4654 1.499 . S
C4652 H4632 0.950 . S
C4652 C4651 1.414 . S
C4652 C4653 1.374 . S
C4653 H4633 0.950 . S
C4653 C4649 1.385 . S
C4653 C4652 1.374 . S
C4654 C4651 1.499 . S
C4654 C4655 1.373 . S
C4654 C4656 1.389 . S
C4655 H4634 0.950 1_545 S
C4655 C4654 1.373 . S
C4655 C4671 1.377 1_545 S
C4656 C4654 1.389 . S
C4656 C4657 1.524 . S
C4656 C4670 1.377 . S
C4657 C4656 1.524 . S
C4657 C4658 1.397 . S
C4657 C4662 1.363 . S
C4658 H4635 0.950 . S
C4658 C4657 1.397 . S
C4658 C4659 1.334 . S
C4659 H4636 0.950 . S
C4659 C4658 1.334 . S
C4659 C4660 1.287 . S
C4660 C4659 1.287 . S
C4660 C4661 1.524 . S
C4660 H4679 0.913 . S
C4661 H4637 0.950 . S
C4661 C4660 1.524 . S
C4661 C4662 1.415 . S
C4662 H4638 0.950 . S
C4662 C4657 1.363 . S
C4662 C4661 1.415 . S
C4663 H4639 0.951 . S
C4663 C4664 1.366 . S
C4663 C4665 1.388 . S
C4664 C4663 1.366 . S
C4664 C4668 1.390 . S
C4665 H4640 0.951 . S
C4665 C4663 1.388 . S
C4665 C4666 1.366 . S
C4666 C4665 1.366 . S
C4666 C4667 1.414 . S
C4666 C4669 1.499 . S
C4667 H4641 0.950 . S
C4667 C4666 1.414 . S
C4667 C4668 1.352 . S
C4668 H4642 0.972 1_545 S
C4668 C4664 1.390 . S
C4668 C4667 1.352 . S
C4669 C4666 1.499 . S
C4669 C4670 1.373 . S
C4669 C4671 1.389 1_545 S
C4670 H4643 0.950 . S
C4670 C4656 1.377 . S
C4670 C4669 1.373 . S
C4671 C4655 1.377 1_565 S
C4671 C4669 1.389 1_565 S
C4671 C4672 1.524 . S
C4672 C4671 1.524 . S
C4672 C4673 1.397 . S
C4672 C4677 1.363 . S
C4673 H4644 0.950 . S
C4673 C4672 1.397 . S
C4673 C4674 1.334 . S
C4674 H4645 0.950 . S
C4674 C4673 1.334 . S
C4674 C4675 1.287 . S
C4675 C4674 1.287 . S
C4675 C4676 1.524 . S
C4675 H4678 0.999 . S
C4676 H4646 0.950 . S
C4676 C4675 1.524 . S
C4676 C4677 1.415 . S
C4677 H4647 0.950 . S
C4677 C4672 1.363 . S
C4677 C4676 1.415 . S
H4678 C4675 0.999 . S
H4679 C4660 0.913 . S
C1099 C13 1.380 . S
C1114 C688 1.450 . S
C1149 C27 1.315 . S
C1164 C734 1.388 . S
C1214 C766 1.413 . S
C1199 C36 1.310 . S
C1249 C41 1.368 . S
C1264 C819 1.421 . S
C1299 C8 1.426 . S
C1314 C865 1.541 . S
C1349 C22 1.411 . S
C1364 C904 1.489 . S
C1399 C55 1.374 . S
C1414 C858 1.438 . S
C1464 C911 1.389 . S
C1449 C69 1.311 . S
C1514 C812 1.438 . S
C1499 C78 1.341 . S
C1549 C83 1.357 . S
C1564 C773 1.421 . S
C1614 C667 1.552 . S
C1599 C50 1.446 . S
C1649 C64 1.407 . S
C1664 C713 1.477 . S
C1699 C97 1.555 . S
C1714 C943 1.652 . S
C1749 C111 1.379 . S
C1764 C1010 1.460 . S
C1814 C1056 1.556 . S
C1799 C120 1.502 . S
C1849 C125 1.444 . S
C1864 C267 1.523 . S
C1899 C92 1.665 . S
C1914 C313 1.723 . S
C1949 C106 1.477 . S
C1964 C359 1.534 . S
C1999 C139 1.470 . S
C2014 C306 1.548 . S
C2049 C153 1.368 . S
C2064 C352 1.433 . S
C2114 C260 1.575 . S
C2099 C162 1.513 . S
C2164 C1035 1.620 . S
C2149 C167 1.528 . S
C2214 C964 1.712 . S
C2199 C134 1.652 . S
C2264 C989 1.560 . S
C2249 C148 1.507 . S
C2299 C181 1.477 . S
C2314 C391 1.565 . S
C2349 C195 1.359 . S
C2364 C444 1.430 . S
C2399 C204 1.510 . S
C2414 C490 1.579 . S
C2449 C209 1.523 . S
C2464 C536 1.622 . S
C2514 C589 1.720 . S
C2499 C176 1.669 . S
C2564 C635 1.563 . S
C2549 C190 1.511 . S
C2614 C582 1.655 . S
C2599 C223 1.567 . S
C2664 C628 1.472 . S
C2649 C237 1.391 . S
C2699 C246 1.493 . S
C2714 C543 1.553 . S
C2764 C497 1.522 . S
C2749 C251 1.433 . S
C2799 C218 1.664 . S
C2814 C412 1.732 . S
C2864 C451 1.551 . S
C2849 C232 1.484 . S
C2914 C274 1.467 . S
C2899 C11 1.452 . S
C2949 C25 1.299 . S
C2964 C320 1.305 . S
C3014 C366 1.454 . S
C2999 C35 1.465 . S
C3064 C398 1.456 . S
C3049 C39 1.450 1_556 S
C3114 C437 1.550 . S
C3099 C7 1.574 1_556 S
C3164 C483 1.370 . S
C3149 C21 1.396 1_556 S
C3199 C53 1.467 . S
C3214 C504 1.478 . S
C3249 C67 1.289 . S
C3264 C405 1.285 . S
C3299 C77 1.434 1_556 S
C3314 C458 1.411 . S
C3349 C81 1.481 . S
C3364 C299 1.502 . S
C3414 C345 1.552 . S
C3399 C49 1.565 . S
C3449 C63 1.394 . S
C3464 C253 1.380 . S
C3514 C529 1.401 . S
C3499 C95 1.406 . S
C3549 C109 1.419 . S
C3564 C596 1.418 . S
C3599 C119 1.529 . S
C3614 C642 1.517 . S
C3664 C681 1.203 . S
C3649 C123 1.197 . S
C3699 C91 1.505 . S
C3714 C727 1.493 . S
C3749 C105 1.191 . S
C3764 C759 1.198 . S
C3799 C137 1.240 . S
C3814 C780 1.234 . S
C3849 C151 1.085 . S
C3864 C674 1.090 . S
C3914 C720 1.396 . S
C3899 C161 1.404 . S
C3949 C165 1.437 . S
C3964 C575 1.442 . S
C3999 C133 1.610 . S
C4014 C621 1.595 . S
C4064 C550 1.498 . S
C4049 C147 1.522 . S
C4114 C826 1.260 . S
C4099 C179 1.254 . S
C4149 C193 1.079 . S
C4164 C872 1.084 . S
C4199 C203 1.395 . S
C4214 C897 1.379 . S
C4264 C950 1.406 . S
C4249 C207 1.413 . S
C4314 C1003 1.599 . S
C4299 C175 1.615 . S
C4349 C189 1.527 . S
C4364 C1049 1.513 . S
C4399 C221 1.420 . S
C4414 C1042 1.425 . S
C4449 C235 1.413 . S
C4464 C957 1.402 . S
C4514 C996 1.497 . S
C4499 C245 1.508 . S
C4564 C851 1.184 . S
C4549 C249 1.178 . S
C4614 C918 1.494 . S
C4599 C217 1.513 . S
C4649 C231 1.210 . S
C4664 C805 1.188 . S
