# Generated by pormake.
# Topology ctn, (3,4)-cn, num edge types: 1
# Building blocks:
#     Node 0, Type 0, BuildingBlock: CUQRIR_clean_linker_1, # of connection points: 3
#     Node 1, Type 0, BuildingBlock: CUQRIR_clean_linker_1, # of connection points: 3
#     Node 2, Type 0, BuildingBlock: CUQRIR_clean_linker_1, # of connection points: 3
#     Node 3, Type 0, BuildingBlock: CUQRIR_clean_linker_1, # of connection points: 3
#     Node 4, Type 0, BuildingBlock: CUQRIR_clean_linker_1, # of connection points: 3
#     Node 5, Type 0, BuildingBlock: CUQRIR_clean_linker_1, # of connection points: 3
#     Node 6, Type 0, BuildingBlock: CUQRIR_clean_linker_1, # of connection points: 3
#     Node 7, Type 0, BuildingBlock: CUQRIR_clean_linker_1, # of connection points: 3
#     Node 8, Type 0, BuildingBlock: CUQRIR_clean_linker_1, # of connection points: 3
#     Node 9, Type 0, BuildingBlock: CUQRIR_clean_linker_1, # of connection points: 3
#     Node 10, Type 0, BuildingBlock: CUQRIR_clean_linker_1, # of connection points: 3
#     Node 11, Type 0, BuildingBlock: CUQRIR_clean_linker_1, # of connection points: 3
#     Node 12, Type 0, BuildingBlock: CUQRIR_clean_linker_1, # of connection points: 3
#     Node 13, Type 0, BuildingBlock: CUQRIR_clean_linker_1, # of connection points: 3
#     Node 14, Type 0, BuildingBlock: CUQRIR_clean_linker_1, # of connection points: 3
#     Node 15, Type 0, BuildingBlock: CUQRIR_clean_linker_1, # of connection points: 3
#     Node 16, Type 1, BuildingBlock: TATPOV_clean_sbu_0, # of connection points: 4
#     Node 17, Type 1, BuildingBlock: TATPOV_clean_sbu_0, # of connection points: 4
#     Node 18, Type 1, BuildingBlock: TATPOV_clean_sbu_0, # of connection points: 4
#     Node 19, Type 1, BuildingBlock: TATPOV_clean_sbu_0, # of connection points: 4
#     Node 20, Type 1, BuildingBlock: TATPOV_clean_sbu_0, # of connection points: 4
#     Node 21, Type 1, BuildingBlock: TATPOV_clean_sbu_0, # of connection points: 4
#     Node 22, Type 1, BuildingBlock: TATPOV_clean_sbu_0, # of connection points: 4
#     Node 23, Type 1, BuildingBlock: TATPOV_clean_sbu_0, # of connection points: 4
#     Node 24, Type 1, BuildingBlock: TATPOV_clean_sbu_0, # of connection points: 4
#     Node 25, Type 1, BuildingBlock: TATPOV_clean_sbu_0, # of connection points: 4
#     Node 26, Type 1, BuildingBlock: TATPOV_clean_sbu_0, # of connection points: 4
#     Node 27, Type 1, BuildingBlock: TATPOV_clean_sbu_0, # of connection points: 4
#     Edge 28, Type (0, 1), BuildingBlock: XIVTED_clean_linker_0, # of connection points: 2
#     Edge 29, Type (0, 1), BuildingBlock: XIVTED_clean_linker_0, # of connection points: 2
#     Edge 30, Type (0, 1), BuildingBlock: XIVTED_clean_linker_0, # of connection points: 2
#     Edge 31, Type (0, 1), BuildingBlock: XIVTED_clean_linker_0, # of connection points: 2
#     Edge 32, Type (0, 1), BuildingBlock: XIVTED_clean_linker_0, # of connection points: 2
#     Edge 33, Type (0, 1), BuildingBlock: XIVTED_clean_linker_0, # of connection points: 2
#     Edge 34, Type (0, 1), BuildingBlock: XIVTED_clean_linker_0, # of connection points: 2
#     Edge 35, Type (0, 1), BuildingBlock: XIVTED_clean_linker_0, # of connection points: 2
#     Edge 36, Type (0, 1), BuildingBlock: XIVTED_clean_linker_0, # of connection points: 2
#     Edge 37, Type (0, 1), BuildingBlock: XIVTED_clean_linker_0, # of connection points: 2
#     Edge 38, Type (0, 1), BuildingBlock: XIVTED_clean_linker_0, # of connection points: 2
#     Edge 39, Type (0, 1), BuildingBlock: XIVTED_clean_linker_0, # of connection points: 2
#     Edge 40, Type (0, 1), BuildingBlock: XIVTED_clean_linker_0, # of connection points: 2
#     Edge 41, Type (0, 1), BuildingBlock: XIVTED_clean_linker_0, # of connection points: 2
#     Edge 42, Type (0, 1), BuildingBlock: XIVTED_clean_linker_0, # of connection points: 2
#     Edge 43, Type (0, 1), BuildingBlock: XIVTED_clean_linker_0, # of connection points: 2
#     Edge 44, Type (0, 1), BuildingBlock: XIVTED_clean_linker_0, # of connection points: 2
#     Edge 45, Type (0, 1), BuildingBlock: XIVTED_clean_linker_0, # of connection points: 2
#     Edge 46, Type (0, 1), BuildingBlock: XIVTED_clean_linker_0, # of connection points: 2
#     Edge 47, Type (0, 1), BuildingBlock: XIVTED_clean_linker_0, # of connection points: 2
#     Edge 48, Type (0, 1), BuildingBlock: XIVTED_clean_linker_0, # of connection points: 2
#     Edge 49, Type (0, 1), BuildingBlock: XIVTED_clean_linker_0, # of connection points: 2
#     Edge 50, Type (0, 1), BuildingBlock: XIVTED_clean_linker_0, # of connection points: 2
#     Edge 51, Type (0, 1), BuildingBlock: XIVTED_clean_linker_0, # of connection points: 2
#     Edge 52, Type (0, 1), BuildingBlock: XIVTED_clean_linker_0, # of connection points: 2
#     Edge 53, Type (0, 1), BuildingBlock: XIVTED_clean_linker_0, # of connection points: 2
#     Edge 54, Type (0, 1), BuildingBlock: XIVTED_clean_linker_0, # of connection points: 2
#     Edge 55, Type (0, 1), BuildingBlock: XIVTED_clean_linker_0, # of connection points: 2
#     Edge 56, Type (0, 1), BuildingBlock: XIVTED_clean_linker_0, # of connection points: 2
#     Edge 57, Type (0, 1), BuildingBlock: XIVTED_clean_linker_0, # of connection points: 2
#     Edge 58, Type (0, 1), BuildingBlock: XIVTED_clean_linker_0, # of connection points: 2
#     Edge 59, Type (0, 1), BuildingBlock: XIVTED_clean_linker_0, # of connection points: 2
#     Edge 60, Type (0, 1), BuildingBlock: XIVTED_clean_linker_0, # of connection points: 2
#     Edge 61, Type (0, 1), BuildingBlock: XIVTED_clean_linker_0, # of connection points: 2
#     Edge 62, Type (0, 1), BuildingBlock: XIVTED_clean_linker_0, # of connection points: 2
#     Edge 63, Type (0, 1), BuildingBlock: XIVTED_clean_linker_0, # of connection points: 2
#     Edge 64, Type (0, 1), BuildingBlock: XIVTED_clean_linker_0, # of connection points: 2
#     Edge 65, Type (0, 1), BuildingBlock: XIVTED_clean_linker_0, # of connection points: 2
#     Edge 66, Type (0, 1), BuildingBlock: XIVTED_clean_linker_0, # of connection points: 2
#     Edge 67, Type (0, 1), BuildingBlock: XIVTED_clean_linker_0, # of connection points: 2
#     Edge 68, Type (0, 1), BuildingBlock: XIVTED_clean_linker_0, # of connection points: 2
#     Edge 69, Type (0, 1), BuildingBlock: XIVTED_clean_linker_0, # of connection points: 2
#     Edge 70, Type (0, 1), BuildingBlock: XIVTED_clean_linker_0, # of connection points: 2
#     Edge 71, Type (0, 1), BuildingBlock: XIVTED_clean_linker_0, # of connection points: 2
#     Edge 72, Type (0, 1), BuildingBlock: XIVTED_clean_linker_0, # of connection points: 2
#     Edge 73, Type (0, 1), BuildingBlock: XIVTED_clean_linker_0, # of connection points: 2
#     Edge 74, Type (0, 1), BuildingBlock: XIVTED_clean_linker_0, # of connection points: 2
#     Edge 75, Type (0, 1), BuildingBlock: XIVTED_clean_linker_0, # of connection points: 2
# Relax obj value: 0.083
# Max RMSD: 0.208
# Mean RMSD: 0.129
data_MOF--net-ctn--node1-TATPOV_clean_sbu_0--node2-CUQRIR_clean_linker_1--edge1-XIVTED_clean_linker_0
_symmetry_space_group_name_H-M    P1
_symmetry_Int_Tables_number       1
_symmetry_cell_setting            triclinic
loop_
_symmetry_equiv_pos_as_xyz
'x, y, z'
_cell_length_a     52.070052
_cell_length_b     48.506471
_cell_length_c     49.706346
_cell_angle_alpha  97.921398
_cell_angle_beta   90.123553
_cell_angle_gamma 94.032206
loop_
_atom_site_label
_atom_site_type_symbol
_atom_site_fract_x
_atom_site_fract_y
_atom_site_fract_z
_atom_type_partial_charge
C0 C 0.02989 1.00142 0.06768 0.0
N1 N 0.04172 0.01059 0.04595 0.0
N2 N 0.00636 0.01148 0.07121 0.0
C3 C 0.04152 0.98293 0.0857 0.0
C4 C 0.00414 0.02692 0.05072 0.0
N5 N 0.02547 0.02607 0.03507 0.0
C6 C 0.98142 0.04341 0.04632 0.0
H7 H 0.05217 0.96671 0.07335 0.0
H8 H 0.0268 0.97266 0.09776 0.0
H9 H 0.0554 0.9958 0.10002 0.0
H10 H 0.98816 0.06483 0.04283 0.0
H11 H 0.96803 0.0446 0.06365 0.0
H12 H 0.97063 0.03328 0.0279 0.0
C13 C 0.2616 0.72236 0.23033 0.0
N14 N 0.27291 0.71065 0.2501 0.0
N15 N 0.27579 0.74547 0.225 0.0
C16 C 0.23545 0.71271 0.21814 0.0
C17 C 0.29605 0.74748 0.24259 0.0
N18 N 0.29415 0.72646 0.25803 0.0
C19 C 0.31874 0.76857 0.24324 0.0
H20 H 0.2377 0.69673 0.20022 0.0
H21 H 0.22571 0.73032 0.21156 0.0
H22 H 0.22306 0.7031 0.23297 0.0
H23 H 0.31487 0.78725 0.2578 0.0
H24 H 0.32204 0.77505 0.22291 0.0
H25 H 0.33647 0.75999 0.25006 0.0
C26 C 0.97344 0.47356 0.08672 0.0
N27 N 0.98799 0.45155 0.08747 0.0
N28 N 0.95661 0.46855 0.06547 0.0
C29 C 0.97409 0.49884 0.10805 0.0
C30 C 0.96135 0.44259 0.05348 0.0
N31 N 0.98006 0.43209 0.06714 0.0
C32 C 0.94949 0.42852 0.02699 0.0
H33 H 0.95515 0.50805 0.1095 0.0
H34 H 0.98879 0.51473 0.10255 0.0
H35 H 0.97935 0.49341 0.12821 0.0
H36 H 0.94367 0.44408 0.01419 0.0
H37 H 0.93218 0.41525 0.03132 0.0
H38 H 0.96311 0.41495 0.01541 0.0
C39 C 0.7014 0.72871 0.21691 0.0
N40 N 0.72321 0.74324 0.21054 0.0
N41 N 0.69352 0.73858 0.24213 0.0
C42 C 0.68849 0.70395 0.19919 0.0
C43 C 0.71127 0.75969 0.25085 0.0
N44 N 0.72954 0.76229 0.2318 0.0
C45 C 0.70921 0.77957 0.27674 0.0
H46 H 0.67516 0.71143 0.18478 0.0
H47 H 0.67722 0.69012 0.21154 0.0
H48 H 0.70293 0.69182 0.18726 0.0
H49 H 0.72045 0.77216 0.29297 0.0
H50 H 0.68893 0.78064 0.28334 0.0
H51 H 0.71712 0.80088 0.27417 0.0
C52 C 0.04141 0.99109 0.46599 0.0
N53 N 0.0648 0.99144 0.47803 0.0
N54 N 0.04353 1.00121 0.44198 0.0
C55 C 0.01672 0.97885 0.47667 0.0
C56 C 0.06912 0.00737 0.43963 0.0
N57 N 0.08213 1.00109 0.46142 0.0
C58 C 0.0811 0.02164 0.41721 0.0
H59 H 0.00267 0.9715 0.45997 0.0
H60 H 0.00813 0.99511 0.49109 0.0
H61 H 0.02038 0.9611 0.4877 0.0
H62 H 0.0669 0.03345 0.40771 0.0
H63 H 0.08817 0.00561 0.4014 0.0
H64 H 0.0977 0.03615 0.42501 0.0
C65 C 0.18693 0.73612 0.78508 0.0
N66 N 0.20435 0.7233 0.79833 0.0
N67 N 0.18385 0.72376 0.75908 0.0
C68 C 0.1744 0.76212 0.79679 0.0
C69 C 0.20028 0.70317 0.75676 0.0
N70 N 0.21303 0.70307 0.78059 0.0
C71 C 0.20207 0.6817 0.73205 0.0
H72 H 0.15657 0.75611 0.80738 0.0
H73 H 0.16916 0.77436 0.78056 0.0
H74 H 0.18741 0.77551 0.81166 0.0
H75 H 0.21827 0.68836 0.7194 0.0
H76 H 0.18413 0.67956 0.71963 0.0
H77 H 0.2058 0.66108 0.73792 0.0
C78 C 0.92906 0.55385 0.4495 0.0
N79 N 0.9464 0.5762 0.45228 0.0
N80 N 0.90614 0.56103 0.46014 0.0
C81 C 0.93455 0.52477 0.43704 0.0
C82 C 0.9102 0.58862 0.46939 0.0
N83 N 0.93464 0.59789 0.46435 0.0
C84 C 0.89077 0.6062 0.48452 0.0
H85 H 0.92583 0.52048 0.41638 0.0
H86 H 0.9257 0.5092 0.44928 0.0
H87 H 0.9554 0.52196 0.43515 0.0
H88 H 0.89597 0.60971 0.50645 0.0
H89 H 0.87102 0.59601 0.48185 0.0
H90 H 0.89095 0.62686 0.47738 0.0
C91 C 0.82337 0.83593 0.85453 0.0
N92 N 0.84195 0.81976 0.84357 0.0
N93 N 0.81829 0.85543 0.83855 0.0
C94 C 0.80823 0.83077 0.87937 0.0
C95 C 0.83443 0.85052 0.81742 0.0
N96 N 0.84861 0.82874 0.82031 0.0
C97 C 0.83424 0.86495 0.79248 0.0
H98 H 0.79457 0.84705 0.88512 0.0
H99 H 0.82154 0.83054 0.89676 0.0
H100 H 0.79747 0.81001 0.87547 0.0
H101 H 0.82993 0.88708 0.79775 0.0
H102 H 0.81902 0.85437 0.77828 0.0
H103 H 0.85302 0.86407 0.782 0.0
C104 C 0.3184 0.33894 0.35497 0.0
N105 N 0.33575 0.32133 0.34378 0.0
N106 N 0.31561 0.35985 0.34001 0.0
C107 C 0.30287 0.3349 0.37981 0.0
C108 C 0.33243 0.35469 0.31952 0.0
N109 N 0.34468 0.33137 0.32181 0.0
C110 C 0.33421 0.37018 0.29528 0.0
H111 H 0.28511 0.32149 0.37376 0.0
H112 H 0.29717 0.35528 0.39019 0.0
H113 H 0.31407 0.32455 0.39407 0.0
H114 H 0.35311 0.36808 0.28523 0.0
H115 H 0.33142 0.39261 0.30136 0.0
H116 H 0.3188 0.36139 0.28046 0.0
C117 C 0.48096 0.97451 0.58909 0.0
N118 N 0.49385 0.95133 0.59014 0.0
N119 N 0.46327 0.97001 0.5687 0.0
C120 C 0.48623 0.0018 0.6073 0.0
C121 C 0.46564 0.94323 0.55763 0.0
N122 N 0.48396 0.93171 0.57089 0.0
C123 C 0.45145 0.92897 0.53254 0.0
H124 H 0.4693 0.0145 0.60854 0.0
H125 H 0.50248 0.01387 0.59894 0.0
H126 H 0.49166 0.99818 0.62806 0.0
H127 H 0.4649 0.92741 0.51519 0.0
H128 H 0.43482 0.9405 0.52755 0.0
H129 H 0.44439 0.90748 0.5354 0.0
C130 C 0.18777 0.23266 0.70585 0.0
N131 N 0.20954 0.2469 0.69898 0.0
N132 N 0.18171 0.24103 0.73203 0.0
C133 C 0.17304 0.2097 0.68744 0.0
C134 C 0.20052 0.26097 0.74082 0.0
N135 N 0.21769 0.26425 0.72084 0.0
C136 C 0.20053 0.27928 0.76789 0.0
H137 H 0.15945 0.21906 0.6747 0.0
H138 H 0.16186 0.19536 0.69935 0.0
H139 H 0.18632 0.19763 0.67376 0.0
H140 H 0.18078 0.28065 0.77605 0.0
H141 H 0.2088 0.30068 0.76624 0.0
H142 H 0.21247 0.27027 0.78252 0.0
C143 C 0.75908 0.22401 0.72547 0.0
N144 N 0.77061 0.21288 0.74551 0.0
N145 N 0.77349 0.24648 0.71894 0.0
C146 C 0.73257 0.2145 0.71418 0.0
C147 C 0.79411 0.24873 0.7361 0.0
N148 N 0.79222 0.22847 0.75243 0.0
C149 C 0.81719 0.26908 0.73531 0.0
H150 H 0.73418 0.19794 0.69662 0.0
H151 H 0.72295 0.23203 0.70727 0.0
H152 H 0.72042 0.2057 0.72968 0.0
H153 H 0.81402 0.28847 0.74919 0.0
H154 H 0.82018 0.27446 0.71451 0.0
H155 H 0.83485 0.26038 0.74213 0.0
C156 C 0.52156 0.49591 0.56657 0.0
N157 N 0.53453 0.50639 0.54615 0.0
N158 N 0.50125 0.51105 0.57426 0.0
C159 C 0.53018 0.4726 0.58078 0.0
C160 C 0.50247 0.53127 0.55796 0.0
N161 N 0.52286 0.52869 0.54112 0.0
C162 C 0.48281 0.55249 0.55728 0.0
H163 H 0.52358 0.47469 0.60212 0.0
H164 H 0.55147 0.4723 0.58069 0.0
H165 H 0.5219 0.4524 0.56993 0.0
H166 H 0.48953 0.57192 0.57063 0.0
H167 H 0.4639 0.54476 0.56462 0.0
H168 H 0.48037 0.55761 0.53638 0.0
C169 C 0.53119 0.49707 0.97504 0.0
N170 N 0.55456 0.50006 0.98755 0.0
N171 N 0.53292 0.50462 0.94983 0.0
C172 C 0.5068 0.48579 0.98718 0.0
C173 C 0.5582 0.51234 0.94741 0.0
N174 N 0.57141 0.50922 0.97021 0.0
C175 C 0.56979 0.52293 0.92272 0.0
H176 H 0.50752 0.46295 0.98699 0.0
H177 H 0.48942 0.48993 0.97589 0.0
H178 H 0.505 0.49541 0.00856 0.0
H179 H 0.56649 0.5454 0.9237 0.0
H180 H 0.56031 0.5117 0.90394 0.0
H181 H 0.59078 0.52075 0.92147 0.0
C182 C 0.6806 0.22789 0.27819 0.0
N183 N 0.69926 0.21591 0.29041 0.0
N184 N 0.67651 0.21522 0.25241 0.0
C185 C 0.66671 0.25244 0.29122 0.0
C186 C 0.69361 0.19526 0.24924 0.0
N187 N 0.70762 0.19579 0.27237 0.0
C188 C 0.69528 0.17408 0.22431 0.0
H189 H 0.64896 0.24457 0.30082 0.0
H190 H 0.66112 0.26549 0.27581 0.0
H191 H 0.67865 0.26557 0.30723 0.0
H192 H 0.71088 0.18134 0.21125 0.0
H193 H 0.67697 0.17144 0.21248 0.0
H194 H 0.69992 0.15361 0.2299 0.0
C195 C 0.42957 0.05975 0.94468 0.0
N196 N 0.44622 0.08241 0.94463 0.0
N197 N 0.40759 0.06671 0.95752 0.0
C198 C 0.43526 0.03041 0.93354 0.0
C199 C 0.41147 0.09458 0.96523 0.0
N200 N 0.43488 0.1042 0.95717 0.0
C201 C 0.39423 0.11161 0.98414 0.0
H202 H 0.41716 0.01739 0.92789 0.0
H203 H 0.44543 0.02111 0.94935 0.0
H204 H 0.44785 0.0303 0.91554 0.0
H205 H 0.40516 0.12067 0.00285 0.0
H206 H 0.37694 0.09907 0.98974 0.0
H207 H 0.38796 0.12919 0.97424 0.0
Zn208 Zn 0.2881 0.85566 0.02077 0.0
Zn209 Zn 0.24279 0.87897 0.02191 0.0
O210 O 0.24442 0.86238 0.05849 0.0
O211 O 0.28265 0.84533 0.05801 0.0
O212 O 0.21004 0.89998 0.025 0.0
O213 O 0.30744 0.89176 0.01685 0.0
O214 O 0.27033 0.91084 0.0164 0.0
C215 C 0.26167 0.85027 0.06982 0.0
C216 C 0.25318 0.83076 0.97734 0.0
O217 O 0.23799 0.8485 0.98835 0.0
O218 O 0.27542 0.82976 0.98738 0.0
C219 C 0.19725 0.90606 0.005 0.0
O220 O 0.20435 0.89718 0.98015 0.0
C221 C 0.29485 0.91281 0.01507 0.0
Zn222 Zn 0.10166 0.45948 0.3112 0.0
Zn223 Zn 0.12861 0.50514 0.29845 0.0
O224 O 0.10504 0.52196 0.32882 0.0
O225 O 0.08522 0.48424 0.34144 0.0
O226 O 0.15113 0.53802 0.2893 0.0
O227 O 0.13426 0.44196 0.3188 0.0
O228 O 0.15594 0.48019 0.30998 0.0
C229 C 0.08936 0.51054 0.34433 0.0
C230 C 0.09297 0.46907 0.25593 0.0
O231 O 0.10922 0.48985 0.26263 0.0
O232 O 0.08625 0.45305 0.27316 0.0
C233 C 0.16432 0.55359 0.30778 0.0
O234 O 0.16212 0.54879 0.33307 0.0
C235 C 0.15552 0.45591 0.31709 0.0
Zn236 Zn 0.80179 0.59361 0.93877 0.0
Zn237 Zn 0.79696 0.62889 0.98546 0.0
O238 O 0.82481 0.60444 0.99651 0.0
O239 O 0.82795 0.57481 0.95897 0.0
O240 O 0.78978 0.65559 0.01922 0.0
O241 O 0.81245 0.62665 0.91912 0.0
O242 O 0.80907 0.65476 0.95751 0.0
C243 C 0.83455 0.58327 0.98344 0.0
C244 C 0.75147 0.58807 0.9608 0.0
O245 O 0.76145 0.60698 0.97892 0.0
O246 O 0.76457 0.57905 0.94044 0.0
C247 C 0.80387 0.66132 0.04047 0.0
O248 O 0.82598 0.64998 0.04138 0.0
C249 C 0.81438 0.65103 0.93227 0.0
Zn250 Zn 0.83335 0.99327 0.31871 0.0
Zn251 Zn 0.85789 0.99837 0.27259 0.0
O252 O 0.83366 0.03101 0.27637 0.0
O253 O 0.81161 0.02466 0.31301 0.0
O254 O 0.87801 0.00307 0.23841 0.0
O255 O 0.86624 0.00186 0.3402 0.0
O256 O 0.88701 0.00215 0.30171 0.0
C257 C 0.8162 0.03828 0.29337 0.0
C258 C 0.82686 0.94356 0.27984 0.0
O259 O 0.83937 0.95868 0.26456 0.0
O260 O 0.82237 0.95331 0.3042 0.0
C261 C 0.88854 0.98268 0.225 0.0
O262 O 0.88569 0.95801 0.23312 0.0
C263 C 0.88719 0.00392 0.32756 0.0
Zn264 Zn 0.31276 0.09345 0.43922 0.0
Zn265 Zn 0.30322 0.12747 0.48574 0.0
O266 O 0.33323 0.1057 0.49657 0.0
O267 O 0.34156 0.07841 0.45885 0.0
O268 O 0.29625 0.15287 0.52029 0.0
O269 O 0.32084 0.12731 0.42009 0.0
O270 O 0.31138 0.15441 0.45758 0.0
C271 C 0.34633 0.08701 0.48371 0.0
C272 C 0.26166 0.08317 0.46092 0.0
O273 O 0.26947 0.10296 0.47929 0.0
O274 O 0.2762 0.07552 0.44124 0.0
C275 C 0.27798 0.16902 0.52118 0.0
O276 O 0.2642 0.16949 0.49909 0.0
C277 C 0.31844 0.15144 0.43285 0.0
Zn278 Zn 0.32557 0.48852 0.81987 0.0
Zn279 Zn 0.35107 0.49626 0.77409 0.0
O280 O 0.32849 0.52996 0.78007 0.0
O281 O 0.30741 0.52371 0.81737 0.0
O282 O 0.37151 0.50189 0.74036 0.0
O283 O 0.35914 0.49018 0.84028 0.0
O284 O 0.37989 0.49741 0.803 0.0
C285 C 0.31228 0.53796 0.79822 0.0
C286 C 0.31667 0.44227 0.77741 0.0
O287 O 0.33115 0.4575 0.76388 0.0
O288 O 0.31126 0.45091 0.8018 0.0
C289 C 0.38188 0.48152 0.72674 0.0
O290 O 0.37861 0.45668 0.73445 0.0
C291 C 0.38006 0.49437 0.82807 0.0
Zn292 Zn 0.77964 0.34907 0.50979 0.0
Zn293 Zn 0.73582 0.37367 0.51309 0.0
O294 O 0.73835 0.35767 0.54988 0.0
O295 O 0.77846 0.34573 0.54962 0.0
O296 O 0.70191 0.39277 0.5145 0.0
O297 O 0.79762 0.38278 0.49675 0.0
O298 O 0.76305 0.40543 0.50742 0.0
C299 C 0.75734 0.3489 0.56176 0.0
C300 C 0.74359 0.32231 0.4705 0.0
O301 O 0.73141 0.34368 0.47905 0.0
O302 O 0.76423 0.31791 0.48216 0.0
C303 C 0.70078 0.41875 0.52267 0.0
O304 O 0.72192 0.43366 0.53148 0.0
C305 C 0.78626 0.40519 0.49937 0.0
Zn306 Zn 0.60559 0.95886 0.81408 0.0
Zn307 Zn 0.63311 0.00382 0.80059 0.0
O308 O 0.60903 0.02159 0.83004 0.0
O309 O 0.58881 0.98445 0.84337 0.0
O310 O 0.65554 0.03629 0.79035 0.0
O311 O 0.63794 0.94135 0.8226 0.0
O312 O 0.66017 0.97897 0.81308 0.0
C313 C 0.59296 0.01071 0.84554 0.0
C314 C 0.59785 0.96693 0.75831 0.0
O315 O 0.61419 0.98764 0.76483 0.0
O316 O 0.59063 0.95147 0.77584 0.0
C317 C 0.6682 0.05348 0.808 0.0
O318 O 0.66599 0.05065 0.83382 0.0
C319 C 0.65938 0.9549 0.82073 0.0
Zn320 Zn 0.99288 0.26618 0.87811 0.0
Zn321 Zn 0.99461 0.21961 0.89655 0.0
O322 O 0.02428 0.21921 0.86828 0.0
O323 O 0.0171 0.25553 0.84803 0.0
O324 O 0.99811 0.18331 0.91224 0.0
O325 O 0.00631 0.28864 0.91264 0.0
O326 O 0.99962 0.25001 0.93091 0.0
C327 C 0.02949 0.23432 0.84963 0.0
C328 C 0.94455 0.23509 0.87117 0.0
O329 O 0.95761 0.2161 0.87877 0.0
O330 O 0.95489 0.25951 0.87129 0.0
C331 C 0.01882 0.18019 0.92485 0.0
O332 O 0.03713 0.20048 0.92723 0.0
C333 C 0.00556 0.27625 0.93342 0.0
Zn334 Zn 0.49769 0.76455 0.37616 0.0
Zn335 Zn 0.49958 0.71937 0.39802 0.0
O336 O 0.52978 0.71734 0.37036 0.0
O337 O 0.52313 0.75217 0.34774 0.0
O338 O 0.50374 0.68627 0.4184 0.0
O339 O 0.50963 0.78953 0.41002 0.0
O340 O 0.50372 0.75204 0.43017 0.0
C341 C 0.53553 0.73135 0.35099 0.0
C342 C 0.44964 0.73174 0.37066 0.0
O343 O 0.46267 0.71373 0.38005 0.0
O344 O 0.45992 0.75583 0.36882 0.0
C345 C 0.5102 0.66212 0.40862 0.0
O346 O 0.51342 0.65619 0.38231 0.0
C347 C 0.50885 0.77832 0.43152 0.0
Zn348 Zn 0.96686 0.83022 0.60499 0.0
Zn349 Zn 0.00806 0.81203 0.62687 0.0
O350 O 0.02317 0.84813 0.61328 0.0
O351 O 0.98819 0.86591 0.60021 0.0
O352 O 0.03744 0.79786 0.64578 0.0
O353 O 0.94625 0.82664 0.63902 0.0
O354 O 0.98147 0.81518 0.65788 0.0
C355 C 0.01238 0.86764 0.60387 0.0
C356 C 0.98214 0.77793 0.57666 0.0
O357 O 0.99876 0.78053 0.59585 0.0
O358 O 0.96669 0.79679 0.57537 0.0
C359 C 0.05882 0.7912 0.63544 0.0
O360 O 0.0635 0.79423 0.61001 0.0
C361 C 0.95775 0.82006 0.65943 0.0
Zn362 Zn 0.46022 0.33159 0.10567 0.0
Zn363 Zn 0.50163 0.31301 0.12708 0.0
O364 O 0.51645 0.35026 0.1157 0.0
O365 O 0.48131 0.368 0.10297 0.0
O366 O 0.53091 0.29797 0.14543 0.0
O367 O 0.43934 0.32612 0.13914 0.0
O368 O 0.47466 0.31446 0.15766 0.0
C369 C 0.50544 0.3701 0.10714 0.0
C370 C 0.47677 0.28097 0.07515 0.0
O371 O 0.49317 0.283 0.0945 0.0
O372 O 0.46085 0.29951 0.07469 0.0
C373 C 0.55137 0.28965 0.13412 0.0
O374 O 0.55506 0.29169 0.10831 0.0
C375 C 0.45084 0.31893 0.15926 0.0
H376 H 0.25309 0.73679 0.8169 0.0
H377 H 0.20478 0.81821 0.95475 0.0
H378 H 0.17435 0.72894 0.84254 0.0
H379 H 0.28415 0.79945 0.94302 0.0
H380 H 0.19323 0.78692 0.91279 0.0
H381 H 0.2655 0.7599 0.86273 0.0
C382 C 0.23859 0.73939 0.83244 0.0
C383 C 0.2127 0.73135 0.8261 0.0
C384 C 0.21314 0.78951 0.91957 0.0
C385 C 0.22637 0.75834 0.87795 0.0
C386 C 0.21975 0.80749 0.94341 0.0
C387 C 0.24546 0.81153 0.9524 0.0
C388 C 0.23244 0.77585 0.90437 0.0
C389 C 0.26407 0.79697 0.93691 0.0
C390 C 0.24555 0.75274 0.85845 0.0
C391 C 0.19446 0.73532 0.84673 0.0
N392 N 0.25724 0.78001 0.91355 0.0
N393 N 0.20154 0.74898 0.87162 0.0
H394 H 0.98578 0.55366 0.47416 0.0
H395 H 0.07292 0.56289 0.34288 0.0
H396 H 0.96573 0.59884 0.40949 0.0
H397 H 0.07219 0.49662 0.39256 0.0
H398 H 0.04261 0.58687 0.37435 0.0
H399 H 0.02702 0.54426 0.45206 0.0
C400 C 0.99057 0.56223 0.45565 0.0
C401 C 0.97256 0.57663 0.44325 0.0
C402 C 0.04952 0.56733 0.37855 0.0
C403 C 0.01909 0.56586 0.41776 0.0
C404 C 0.06683 0.55373 0.36071 0.0
C405 C 0.07472 0.52759 0.365 0.0
C406 C 0.04053 0.55487 0.40097 0.0
C407 C 0.06625 0.51655 0.38833 0.0
C408 C 0.01388 0.55676 0.44297 0.0
C409 C 0.97929 0.58747 0.41936 0.0
N410 N 0.04952 0.53016 0.40534 0.0
N411 N 0.00194 0.5815 0.40706 0.0
H412 H 0.82949 0.76833 0.81688 0.0
H413 H 0.83048 0.70422 0.95499 0.0
H414 H 0.86499 0.81201 0.89021 0.0
H415 H 0.81795 0.65272 0.87744 0.0
H416 H 0.8437 0.74378 0.93132 0.0
H417 H 0.82705 0.72499 0.83744 0.0
C418 C 0.83764 0.76846 0.83696 0.0
C419 C 0.8475 0.79355 0.85195 0.0
C420 C 0.83827 0.72376 0.91947 0.0
C421 C 0.8438 0.74467 0.87606 0.0
C422 C 0.83053 0.7012 0.93299 0.0
C423 C 0.82292 0.67512 0.91821 0.0
C424 C 0.83805 0.7204 0.89092 0.0
C425 C 0.8236 0.67244 0.88969 0.0
C426 C 0.83596 0.74388 0.84885 0.0
C427 C 0.85725 0.79295 0.87813 0.0
N428 N 0.83075 0.69485 0.87699 0.0
N429 N 0.85473 0.76904 0.88959 0.0
H430 H 0.03937 0.98238 0.3882 0.0
H431 H 0.89399 0.02227 0.3815 0.0
H432 H 0.00123 0.02896 0.45453 0.0
H433 H 0.93604 0.99381 0.30943 0.0
H434 H 0.93349 0.02489 0.40822 0.0
H435 H 0.00243 0.98648 0.35839 0.0
C436 C 0.02328 0.99373 0.3963 0.0
C437 C 0.02304 0.00517 0.42376 0.0
C438 C 0.93421 0.01828 0.38653 0.0
C439 C 0.98086 0.00968 0.39023 0.0
C440 C 0.91161 0.01669 0.37124 0.0
C441 C 0.91168 0.00762 0.3432 0.0
C442 C 0.95713 0.01038 0.37384 0.0
C443 C 0.93515 1.0009 0.33101 0.0
C444 C 0.00225 0.99602 0.3794 0.0
C445 C 0.00183 0.01954 0.43352 0.0
N446 N 0.95693 0.00211 0.34647 0.0
N447 N 0.98149 0.0212 0.41684 0.0
H448 H 0.18994 0.25256 0.65005 0.0
H449 H 0.30239 0.17325 0.57076 0.0
H450 H 0.25777 0.23121 0.68977 0.0
H451 H 0.23771 0.20226 0.53099 0.0
H452 H 0.28844 0.19754 0.61409 0.0
H453 H 0.20913 0.23802 0.60583 0.0
C454 C 0.20909 0.24513 0.64927 0.0
C455 C 0.22233 0.24279 0.67328 0.0
C456 C 0.27743 0.19881 0.59584 0.0
C457 C 0.24434 0.22576 0.62308 0.0
C458 C 0.28537 0.18489 0.57108 0.0
C459 C 0.27107 0.18548 0.5472 0.0
C460 C 0.25494 0.21328 0.5968 0.0
C461 C 0.24926 0.20105 0.54887 0.0
C462 C 0.22005 0.23681 0.62414 0.0
C463 C 0.24712 0.23327 0.67152 0.0
N464 N 0.24175 0.2141 0.57325 0.0
N465 N 0.25724 0.22472 0.64681 0.0
H466 H 0.48841 0.55002 0.61533 0.0
H467 H 0.40105 0.44169 0.68927 0.0
H468 H 0.47347 0.46362 0.58204 0.0
H469 H 0.40031 0.53097 0.71048 0.0
H470 H 0.42944 0.44895 0.65142 0.0
H471 H 0.458 0.5433 0.65188 0.0
C472 C 0.47852 0.52969 0.61569 0.0
C473 C 0.48329 0.50734 0.59571 0.0
C474 C 0.42298 0.46696 0.66428 0.0
C475 C 0.4489 0.49928 0.63756 0.0
C476 C 0.4068 0.46284 0.68594 0.0
C477 C 0.39829 0.48576 0.70312 0.0
C478 C 0.43099 0.49421 0.65987 0.0
C479 C 0.40634 0.51268 0.69774 0.0
C480 C 0.46127 0.52581 0.63654 0.0
C481 C 0.4704 0.48126 0.59725 0.0
N482 N 0.42237 0.51616 0.67669 0.0
N483 N 0.45386 0.4779 0.61787 0.0
H484 H 0.75813 0.22772 0.66719 0.0
H485 H 0.78838 0.36442 0.60603 0.0
H486 H 0.77766 0.30307 0.72216 0.0
H487 H 0.72156 0.31082 0.57754 0.0
H488 H 0.78935 0.34147 0.6471 0.0
H489 H 0.74925 0.25601 0.63147 0.0
C490 C 0.76029 0.25023 0.67181 0.0
C491 C 0.7685 0.26307 0.69773 0.0
C492 C 0.77417 0.33518 0.63212 0.0
C493 C 0.7593 0.29544 0.65673 0.0
C494 C 0.77356 0.34827 0.60881 0.0
C495 C 0.75467 0.33964 0.58867 0.0
C496 C 0.7564 0.31262 0.63468 0.0
C497 C 0.73616 0.3183 0.59287 0.0
C498 C 0.75528 0.26631 0.65144 0.0
C499 C 0.77173 0.29235 0.70237 0.0
N500 N 0.73782 0.30504 0.61517 0.0
N501 N 0.76747 0.30758 0.68194 0.0
H502 H 0.49326 0.91244 0.62385 0.0
H503 H 0.60742 0.99613 0.71534 0.0
H504 H 0.53868 0.98272 0.60067 0.0
H505 H 0.5624 0.92483 0.73786 0.0
H506 H 0.58606 0.98817 0.67081 0.0
H507 H 0.52242 0.91244 0.66273 0.0
C508 C 0.50975 0.92748 0.62676 0.0
C509 C 0.51347 0.94789 0.60956 0.0
C510 C 0.58102 0.97413 0.68542 0.0
C511 C 0.54655 0.94854 0.65395 0.0
C512 C 0.59319 0.97869 0.71089 0.0
C513 C 0.58651 0.96133 0.73053 0.0
C514 C 0.56196 0.95209 0.67954 0.0
C515 C 0.56803 0.93894 0.72349 0.0
C516 C 0.52626 0.92768 0.64899 0.0
C517 C 0.53499 0.96705 0.61397 0.0
N518 N 0.55628 0.93511 0.69869 0.0
N519 N 0.55056 0.96717 0.63596 0.0
H520 H 0.81916 0.18339 0.75708 0.0
H521 H 0.90608 0.27004 0.87682 0.0
H522 H 0.80574 0.26587 0.79595 0.0
H523 H 0.92279 0.18756 0.84007 0.0
H524 H 0.86539 0.26507 0.8519 0.0
H525 H 0.85337 0.18082 0.79093 0.0
C526 C 0.8232 0.20071 0.77308 0.0
C527 C 0.80995 0.22497 0.7738 0.0
C528 C 0.87768 0.24781 0.84942 0.0
C529 C 0.8488 0.2224 0.81226 0.0
C530 C 0.90092 0.25062 0.86378 0.0
C531 C 0.9179 0.22926 0.86038 0.0
C532 C 0.87139 0.22361 0.83099 0.0
C533 C 0.91018 0.2045 0.84331 0.0
C534 C 0.8427 0.19932 0.79228 0.0
C535 C 0.81581 0.24697 0.79469 0.0
N536 N 0.88764 0.20251 0.82885 0.0
N537 N 0.83487 0.24525 0.81292 0.0
H538 H 0.52925 0.9269 0.5458 0.0
H539 H 0.48847 0.76969 0.48091 0.0
H540 H 0.46338 0.87918 0.57147 0.0
H541 H 0.53648 0.82839 0.44212 0.0
H542 H 0.48848 0.80412 0.52216 0.0
H543 H 0.54195 0.8851 0.51663 0.0
C544 C 0.51807 0.90724 0.54597 0.0
C545 C 0.49529 0.90621 0.56076 0.0
C546 C 0.49939 0.80918 0.50475 0.0
C547 C 0.50907 0.85872 0.5272 0.0
C548 C 0.49948 0.78955 0.48129 0.0
C549 C 0.51219 0.7964 0.45797 0.0
C550 C 0.51243 0.83559 0.50492 0.0
C551 C 0.52611 0.82243 0.45952 0.0
C552 C 0.52507 0.88353 0.52917 0.0
C553 C 0.48107 0.88053 0.5602 0.0
N554 N 0.5257 0.84112 0.48248 0.0
N555 N 0.48794 0.8578 0.54329 0.0
H556 H 0.1327 0.24382 0.71591 0.0
H557 H 0.07278 0.20615 0.85596 0.0
H558 H 0.17888 0.22181 0.78054 0.0
H559 H 0.03395 0.24912 0.79908 0.0
H560 H 0.10957 0.20223 0.82497 0.0
H561 H 0.09394 0.23597 0.74246 0.0
C562 C 0.1345 0.23684 0.73555 0.0
C563 C 0.15879 0.23348 0.74622 0.0
C564 C 0.09283 0.21222 0.81923 0.0
C565 C 0.11484 0.22486 0.7769 0.0
C566 C 0.07184 0.21433 0.8368 0.0
C567 C 0.05046 0.22825 0.83018 0.0
C568 C 0.09215 0.22379 0.79481 0.0
C569 C 0.0502 0.23855 0.80515 0.0
C570 C 0.1125 0.23254 0.75079 0.0
C571 C 0.16035 0.22473 0.77187 0.0
N572 N 0.07073 0.2362 0.78848 0.0
N573 N 0.13865 0.22088 0.78649 0.0
H574 H 0.53711 0.58337 0.55068 0.0
H575 H 0.51795 0.6063 0.39537 0.0
H576 H 0.52249 0.51504 0.48645 0.0
H577 H 0.51461 0.67087 0.46405 0.0
H578 H 0.5266 0.57294 0.42666 0.0
H579 H 0.53759 0.6161 0.51727 0.0
C580 C 0.53472 0.57534 0.52933 0.0
C581 C 0.52979 0.54667 0.52115 0.0
C582 C 0.52405 0.59444 0.4348 0.0
C583 C 0.52956 0.58379 0.48281 0.0
C584 C 0.51908 0.6135 0.41698 0.0
C585 C 0.51534 0.64144 0.42708 0.0
C586 C 0.52562 0.60346 0.4629 0.0
C587 C 0.51712 0.64954 0.45529 0.0
C588 C 0.53469 0.59394 0.5103 0.0
C589 C 0.52655 0.53707 0.49336 0.0
N590 N 0.52212 0.6307 0.47213 0.0
N591 N 0.52618 0.55564 0.47512 0.0
H592 H 0.83532 0.7985 0.77243 0.0
H593 H 0.97648 0.81888 0.71114 0.0
H594 H 0.90048 0.83337 0.82205 0.0
H595 H 0.90566 0.81316 0.66478 0.0
H596 H 0.95121 0.81372 0.75215 0.0
H597 H 0.86358 0.79112 0.73308 0.0
C598 C 0.85583 0.80357 0.77511 0.0
C599 C 0.86577 0.81635 0.8003 0.0
C600 C 0.94131 0.81345 0.73292 0.0
C601 C 0.89807 0.80899 0.7555 0.0
C602 C 0.95567 0.81644 0.70955 0.0
C603 C 0.94315 0.81678 0.68454 0.0
C604 C 0.91431 0.81025 0.7311 0.0
C605 C 0.91615 0.8134 0.68365 0.0
C606 C 0.87188 0.79979 0.75268 0.0
C607 C 0.89233 0.82317 0.80289 0.0
N608 N 0.90269 0.81025 0.70653 0.0
N609 N 0.90762 0.81976 0.78063 0.0
H610 H 0.09041 0.94619 0.48413 0.0
H611 H 0.99927 0.92094 0.60379 0.0
H612 H 0.0483 0.01094 0.52768 0.0
H613 H 0.06022 0.86696 0.58091 0.0
H614 H 0.02073 0.95637 0.57961 0.0
H615 H 0.0848 0.91921 0.52242 0.0
C616 C 0.08096 0.95517 0.50232 0.0
C617 C 0.06965 0.9806 0.50293 0.0
C618 C 0.02979 0.93705 0.58028 0.0
C619 C 0.06232 0.94978 0.54615 0.0
C620 C 0.01748 0.9168 0.59408 0.0
C621 C 0.02789 0.89095 0.59417 0.0
C622 C 0.05232 0.93114 0.56573 0.0
C623 C 0.05157 0.88667 0.58133 0.0
C624 C 0.07751 0.93973 0.52404 0.0
C625 C 0.05719 0.99131 0.52662 0.0
N626 N 0.06271 0.90631 0.56706 0.0
N627 N 0.05332 0.97559 0.54704 0.0
H628 H 0.13278 0.72501 0.76542 0.0
H629 H 0.10843 0.77844 0.62256 0.0
H630 H 0.19348 0.7365 0.70856 0.0
H631 H 0.05232 0.77707 0.6863 0.0
H632 H 0.13914 0.75923 0.65127 0.0
H633 H 0.10199 0.73958 0.73392 0.0
C634 C 0.13947 0.73055 0.74612 0.0
C635 C 0.16552 0.72988 0.73949 0.0
C636 C 0.12007 0.76313 0.65887 0.0
C637 C 0.13067 0.74661 0.70332 0.0
C638 C 0.10255 0.77408 0.64252 0.0
C639 C 0.0778 0.7795 0.65208 0.0
C640 C 0.11267 0.75743 0.68482 0.0
C641 C 0.0712 0.7734 0.67809 0.0
C642 C 0.122 0.73886 0.72816 0.0
C643 C 0.17344 0.73682 0.7142 0.0
N644 N 0.08851 0.76272 0.69349 0.0
N645 N 0.15606 0.74511 0.697 0.0
H646 H 0.92526 0.64798 0.45036 0.0
H647 H 0.0075 0.73015 0.57644 0.0
H648 H 0.97169 0.60784 0.50289 0.0
H649 H 0.95191 0.76747 0.53078 0.0
H650 H 0.00067 0.68683 0.54489 0.0
H651 H 0.94119 0.69363 0.47446 0.0
C652 C 0.93915 0.649 0.46678 0.0
C653 C 0.94707 0.6245 0.47505 0.0
C654 C 0.99014 0.70459 0.54167 0.0
C655 C 0.96523 0.67612 0.50274 0.0
C656 C 0.99404 0.72934 0.55966 0.0
C657 C 0.98001 0.75239 0.55647 0.0
C658 C 0.97216 0.7029 0.52029 0.0
C659 C 0.96293 0.75016 0.53424 0.0
C660 C 0.94819 0.67489 0.48055 0.0
C661 C 0.96524 0.6265 0.49612 0.0
N662 N 0.95937 0.72581 0.51714 0.0
N663 N 0.97354 0.65192 0.50952 0.0
H664 H 0.73792 0.80037 0.19721 0.0
H665 H 0.81859 0.90102 0.30959 0.0
H666 H 0.7668 0.77406 0.27 0.0
H667 H 0.8141 0.91975 0.22742 0.0
H668 H 0.80033 0.85391 0.29434 0.0
H669 H 0.76688 0.84311 0.20571 0.0
C670 C 0.75093 0.80333 0.21455 0.0
C671 C 0.74999 0.78402 0.23312 0.0
C672 C 0.80354 0.86813 0.27949 0.0
C673 C 0.78246 0.83274 0.24335 0.0
C674 C 0.81384 0.89514 0.28824 0.0
C675 C 0.81763 0.91441 0.26979 0.0
C676 C 0.7964 0.86031 0.25211 0.0
C677 C 0.8114 0.90551 0.24231 0.0
C678 C 0.7673 0.82771 0.2195 0.0
C679 C 0.76691 0.78873 0.25545 0.0
N680 N 0.80067 0.87917 0.23433 0.0
N681 N 0.78215 0.81281 0.2602 0.0
H682 H 0.751 0.18462 0.24436 0.0
H683 H 0.77783 0.05819 0.32625 0.0
H684 H 0.70534 0.16181 0.31092 0.0
H685 H 0.82068 0.07465 0.25519 0.0
H686 H 0.75348 0.09848 0.32271 0.0
H687 H 0.77926 0.14713 0.24986 0.0
C688 C 0.74726 0.17192 0.2604 0.0
C689 C 0.72612 0.17637 0.27747 0.0
C690 C 0.76819 0.09337 0.30786 0.0
C691 C 0.75793 0.13352 0.28379 0.0
C692 C 0.78216 0.07026 0.30983 0.0
C693 C 0.80134 0.06284 0.29089 0.0
C694 C 0.7733 0.1094 0.28679 0.0
C695 C 0.80602 0.07948 0.27017 0.0
C696 C 0.76325 0.15055 0.2635 0.0
C697 C 0.72183 0.15944 0.29786 0.0
N698 N 0.79206 0.10197 0.26864 0.0
N699 N 0.7375 0.13869 0.30039 0.0
H700 H 0.41832 0.03507 0.99547 0.0
H701 H 0.27726 0.95696 0.99261 0.0
H702 H 0.35677 0.05585 0.94578 0.0
H703 H 0.34508 0.9284 0.02701 0.0
H704 H 0.30344 0.99787 0.98108 0.0
H705 H 0.38905 1.00045 0.01325 0.0
C706 C 0.39847 0.03222 0.98847 0.0
C707 C 0.3898 0.04779 0.96906 0.0
C708 C 0.31244 0.9827 0.99136 0.0
C709 C 0.35615 0.00842 0.98905 0.0
C710 C 0.29752 0.95949 0.99805 0.0
C711 C 0.30909 0.93916 0.01054 0.0
C712 C 0.33894 0.98561 0.99754 0.0
C713 C 0.33541 0.94337 0.01709 0.0
C714 C 0.38177 0.01257 0.99853 0.0
C715 C 0.36396 0.0439 0.96066 0.0
N716 N 0.3494 0.96601 0.01045 0.0
N717 N 0.34795 0.02436 0.97059 0.0
H718 H 0.26747 0.33702 0.33163 0.0
H719 H 0.20506 0.48018 0.31877 0.0
H720 H 0.31213 0.41589 0.34456 0.0
H721 H 0.16129 0.40308 0.32788 0.0
H722 H 0.24482 0.45775 0.32613 0.0
H723 H 0.22849 0.36142 0.32798 0.0
C724 C 0.26887 0.35961 0.33404 0.0
C725 C 0.29276 0.37461 0.33876 0.0
C726 C 0.22646 0.44589 0.32666 0.0
C727 C 0.24847 0.40279 0.33398 0.0
C728 C 0.20378 0.45862 0.3224 0.0
C729 C 0.17979 0.44345 0.32258 0.0
C730 C 0.22506 0.41778 0.33085 0.0
C731 C 0.17929 0.41562 0.32748 0.0
C732 C 0.24671 0.37355 0.33184 0.0
C733 C 0.29389 0.40377 0.341 0.0
N734 N 0.20155 0.40369 0.33125 0.0
N735 N 0.27197 0.41703 0.33848 0.0
H736 H 0.10469 0.03561 0.50333 0.0
H737 H 0.23992 0.03822 0.42704 0.0
H738 H 0.12076 0.98087 0.43063 0.0
H739 H 0.22475 0.09424 0.49964 0.0
H740 H 0.19766 0.0141 0.43071 0.0
H741 H 0.15014 0.05359 0.50593 0.0
C742 C 0.11807 0.02688 0.4884 0.0
C743 C 0.10925 0.00689 0.46673 0.0
C744 C 0.20357 0.0316 0.44592 0.0
C745 C 0.16078 0.0276 0.46898 0.0
C746 C 0.22771 0.0455 0.44376 0.0
C747 C 0.2359 0.06848 0.46293 0.0
C748 C 0.18731 0.04073 0.46735 0.0
C749 C 0.21923 0.07674 0.48429 0.0
C750 C 0.14387 0.0373 0.48965 0.0
C751 C 0.12703 0.99638 0.44757 0.0
N752 N 0.19569 0.06297 0.48585 0.0
N753 N 0.15189 0.00707 0.44895 0.0
H754 H 0.75924 0.2087 0.79803 0.0
H755 H 0.68298 0.06022 0.75645 0.0
H756 H 0.76004 0.16172 0.71808 0.0
H757 H 0.69342 0.09794 0.83998 0.0
H758 H 0.71158 0.09746 0.74248 0.0
H759 H 0.7365 0.16826 0.81479 0.0
C760 C 0.75504 0.18961 0.78422 0.0
C761 C 0.76123 0.18833 0.75671 0.0
C762 C 0.70775 0.09758 0.7639 0.0
C763 C 0.73497 0.14252 0.77527 0.0
C764 C 0.69128 0.07635 0.77189 0.0
C765 C 0.68567 0.076 0.79943 0.0
C766 C 0.71858 0.11888 0.78353 0.0
C767 C 0.69718 0.09741 0.81851 0.0
C768 C 0.74196 0.16666 0.79365 0.0
C769 C 0.75527 0.16339 0.7394 0.0
N770 N 0.71296 0.11811 0.81019 0.0
N771 N 0.74224 0.14157 0.74888 0.0
H772 H 0.47013 0.98819 0.52046 0.0
H773 H 0.35294 0.08738 0.5386 0.0
H774 H 0.42392 0.99731 0.59234 0.0
H775 H 0.38495 0.05675 0.46106 0.0
H776 H 0.38369 0.06159 0.56095 0.0
H777 H 0.44378 0.02041 0.50059 0.0
C778 C 0.45446 0.99728 0.53203 0.0
C779 C 0.44896 0.9903 0.55788 0.0
C780 C 0.38404 0.06073 0.53906 0.0
C781 C 0.41888 0.02699 0.53563 0.0
C782 C 0.36662 0.07553 0.52632 0.0
C783 C 0.36626 0.07402 0.49791 0.0
C784 C 0.40139 0.04464 0.52328 0.0
C785 C 0.38437 0.05829 0.48299 0.0
C786 C 0.43946 0.01556 0.52079 0.0
C787 C 0.42864 0.00247 0.57235 0.0
N788 N 0.40114 0.04419 0.49584 0.0
N789 N 0.41421 0.02025 0.561 0.0
H790 H 0.58106 0.53502 0.54824 0.0
H791 H 0.65291 0.39474 0.50603 0.0
H792 H 0.54178 0.45541 0.51956 0.0
H793 H 0.69232 0.47389 0.53761 0.0
H794 H 0.61251 0.41766 0.50605 0.0
H795 H 0.62254 0.51458 0.53856 0.0
C796 C 0.58127 0.51344 0.53911 0.0
C797 C 0.55819 0.49679 0.53458 0.0
C798 C 0.63002 0.43005 0.51286 0.0
C799 C 0.60525 0.47299 0.5242 0.0
C800 C 0.65311 0.41694 0.51292 0.0
C801 C 0.67608 0.43232 0.52204 0.0
C802 C 0.6298 0.4588 0.522 0.0
C803 C 0.6751 0.46109 0.53057 0.0
C804 C 0.60487 0.50165 0.5339 0.0
C805 C 0.5593 0.46881 0.52323 0.0
N806 N 0.65238 0.47334 0.53046 0.0
N807 N 0.58242 0.45769 0.51871 0.0
H808 H 0.73582 0.25748 0.30173 0.0
H809 H 0.74387 0.26558 0.45987 0.0
H810 H 0.68553 0.19947 0.33836 0.0
H811 H 0.72616 0.33792 0.42364 0.0
H812 H 0.73478 0.2363 0.41581 0.0
H813 H 0.7467 0.28279 0.34724 0.0
C814 C 0.72795 0.24955 0.31953 0.0
C815 C 0.71035 0.22614 0.31665 0.0
C816 C 0.73278 0.25856 0.41772 0.0
C817 C 0.72234 0.25469 0.36814 0.0
C818 C 0.73785 0.27519 0.4427 0.0
C819 C 0.73545 0.30408 0.4453 0.0
C820 C 0.72634 0.27118 0.39516 0.0
C821 C 0.72786 0.31566 0.42248 0.0
C822 C 0.73381 0.26408 0.34526 0.0
C823 C 0.69977 0.21699 0.34004 0.0
N824 N 0.72396 0.29922 0.39817 0.0
N825 N 0.706 0.23126 0.36499 0.0
H826 H 0.46771 0.10546 0.90286 0.0
H827 H 0.57572 0.99899 0.89442 0.0
H828 H 0.48389 0.05749 0.96666 0.0
H829 H 0.5751 0.06187 0.84104 0.0
H830 H 0.54484 0.02384 0.92348 0.0
H831 H 0.50943 0.09446 0.88221 0.0
C832 C 0.4805 0.0933 0.91284 0.0
C833 C 0.47257 0.08202 0.93615 0.0
C834 C 0.55169 0.03257 0.90568 0.0
C835 C 0.51962 0.06891 0.91276 0.0
C836 C 0.5693 0.01831 0.88905 0.0
C837 C 0.57775 0.02828 0.86521 0.0
C838 C 0.54186 0.05666 0.8981 0.0
C839 C 0.56899 0.05352 0.85928 0.0
C840 C 0.50416 0.0869 0.90109 0.0
C841 C 0.48946 0.06622 0.94846 0.0
N842 N 0.55106 0.0666 0.87534 0.0
N843 N 0.512 0.05975 0.93639 0.0
H844 H 0.37712 0.29851 0.36268 0.0
H845 H 0.29438 0.20003 0.44021 0.0
H846 H 0.29735 0.28117 0.33946 0.0
H847 H 0.35369 0.15874 0.39321 0.0
H848 H 0.30118 0.23965 0.41446 0.0
H849 H 0.3754 0.25465 0.3832 0.0
C850 C 0.35954 0.28506 0.3613 0.0
C851 C 0.33729 0.29327 0.34967 0.0
C852 C 0.31278 0.22192 0.41005 0.0
C853 C 0.3349 0.24452 0.37365 0.0
C854 C 0.30901 0.19946 0.42472 0.0
C855 C 0.3234 0.17609 0.41867 0.0
C856 C 0.33156 0.22133 0.38984 0.0
C857 C 0.34208 0.17634 0.39827 0.0
C858 C 0.3585 0.26034 0.3731 0.0
C859 C 0.31478 0.27548 0.34855 0.0
N860 N 0.34581 0.19878 0.38464 0.0
N861 N 0.31393 0.25228 0.36103 0.0
H862 H 0.50305 0.45826 0.93134 0.0
H863 H 0.42558 0.52462 0.82103 0.0
H864 H 0.51799 0.5447 0.92139 0.0
H865 H 0.39006 0.46549 0.86945 0.0
H866 H 0.46523 0.5266 0.84868 0.0
H867 H 0.4669 0.4547 0.89899 0.0
C868 C 0.49867 0.47643 0.9222 0.0
C869 C 0.51304 0.50192 0.92928 0.0
C870 C 0.44872 0.51314 0.85302 0.0
C871 C 0.4725 0.49786 0.89187 0.0
C872 C 0.42624 0.51191 0.83727 0.0
C873 C 0.40456 0.49501 0.84316 0.0
C874 C 0.44957 0.49676 0.87415 0.0
C875 C 0.40629 0.47899 0.86444 0.0
C876 C 0.47822 0.47439 0.90377 0.0
C877 C 0.50722 0.52474 0.91641 0.0
N878 N 0.42845 0.48012 0.87906 0.0
N879 N 0.48728 0.52222 0.89828 0.0
H880 H 0.77312 0.73171 0.20606 0.0
H881 H 0.75956 0.68874 0.04499 0.0
H882 H 0.70587 0.74259 0.15931 0.0
H883 H 0.82613 0.67364 0.0913 0.0
H884 H 0.74209 0.71392 0.08593 0.0
H885 H 0.7955 0.71622 0.16369 0.0
C886 C 0.76332 0.73125 0.18675 0.0
C887 C 0.73766 0.73805 0.18593 0.0
C888 C 0.76061 0.70529 0.08715 0.0
C889 C 0.76271 0.72018 0.13765 0.0
C890 C 0.77063 0.69088 0.06373 0.0
C891 C 0.79426 0.67877 0.06471 0.0
C892 C 0.77422 0.7076 0.11189 0.0
C893 C 0.80777 0.68246 0.0896 0.0
C894 C 0.77594 0.72228 0.16264 0.0
C895 C 0.72557 0.73708 0.16061 0.0
N896 N 0.79746 0.69633 0.11224 0.0
N897 N 0.7381 0.72806 0.13747 0.0
H898 H 0.99328 0.05087 0.11148 0.0
H899 H 0.90798 0.94271 0.18786 0.0
H900 H 0.97926 0.96407 0.07962 0.0
H901 H 0.90616 0.03201 0.20791 0.0
H902 H 0.93596 0.94983 0.14965 0.0
H903 H 0.96327 0.04432 0.1486 0.0
C904 C 0.98371 0.03047 0.11241 0.0
C905 C 0.98854 0.00794 0.09273 0.0
C906 C 0.92935 0.96787 0.16233 0.0
C907 C 0.95459 1.00008 0.13493 0.0
C908 C 0.91341 0.96383 0.18421 0.0
C909 C 0.90471 0.9868 0.20116 0.0
C910 C 0.93694 0.99509 0.15748 0.0
C911 C 0.91235 0.01368 0.19535 0.0
C912 C 0.96665 0.02669 0.13347 0.0
C913 C 0.97595 0.98182 0.09461 0.0
N914 N 0.92815 0.01709 0.17411 0.0
N915 N 0.95962 0.97854 0.11543 0.0
H916 H 0.27854 0.80215 0.23074 0.0
H917 H 0.22673 0.80923 0.08102 0.0
H918 H 0.26185 0.7286 0.17251 0.0
H919 H 0.28814 0.86674 0.11704 0.0
H920 H 0.22718 0.78479 0.12127 0.0
H921 H 0.2712 0.83119 0.19492 0.0
C922 C 0.27332 0.79215 0.21046 0.0
C923 C 0.2709 0.76294 0.20452 0.0
C924 C 0.24011 0.80317 0.12056 0.0
C925 C 0.26139 0.79584 0.16406 0.0
C926 C 0.23965 0.81724 0.09785 0.0
C927 C 0.25725 0.84007 0.09604 0.0
C928 C 0.25798 0.81241 0.14164 0.0
C929 C 0.27413 0.84931 0.11796 0.0
C930 C 0.26893 0.80868 0.19019 0.0
C931 C 0.26352 0.75101 0.17804 0.0
N932 N 0.27411 0.83543 0.13994 0.0
N933 N 0.2589 0.76748 0.15882 0.0
H934 H 0.98997 0.41161 0.12007 0.0
H935 H 0.10044 0.5001 0.21393 0.0
H936 H 0.02988 0.48678 0.10036 0.0
H937 H 0.05864 0.4261 0.23488 0.0
H938 H 0.07858 0.49243 0.16964 0.0
H939 H 0.01916 0.41281 0.15919 0.0
C940 C 0.0053 0.42799 0.12376 0.0
C941 C 0.00756 0.44925 0.10735 0.0
C942 C 0.07434 0.47776 0.18387 0.0
C943 C 0.04059 0.45124 0.15205 0.0
C944 C 0.08681 0.48215 0.20919 0.0
C945 C 0.08121 0.4639 0.22832 0.0
C946 C 0.05609 0.45498 0.1776 0.0
C947 C 0.06344 0.44089 0.22092 0.0
C948 C 0.0218 0.42887 0.14614 0.0
C949 C 0.02749 0.47024 0.11289 0.0
N950 N 0.05141 0.43721 0.19626 0.0
N951 N 0.04308 0.47091 0.13495 0.0
H952 H 0.30495 0.76163 0.30371 0.0
H953 H 0.42742 0.68292 0.34212 0.0
H954 H 0.32334 0.68264 0.2604 0.0
H955 H 0.41113 0.76654 0.37568 0.0
H956 H 0.38538 0.67749 0.31825 0.0
H957 H 0.33937 0.75878 0.33657 0.0
C958 C 0.31614 0.74348 0.3015 0.0
C959 C 0.31162 0.72246 0.27944 0.0
C960 C 0.39087 0.69681 0.33125 0.0
C961 C 0.35139 0.71906 0.3165 0.0
C962 C 0.41473 0.69981 0.34501 0.0
C963 C 0.42278 0.72529 0.3607 0.0
C964 C 0.37504 0.71938 0.33352 0.0
C965 C 0.40577 0.74664 0.36357 0.0
C966 C 0.33582 0.74181 0.32012 0.0
C967 C 0.32642 0.69921 0.27728 0.0
N968 N 0.38289 0.74327 0.35001 0.0
N969 N 0.34596 0.69826 0.2954 0.0
H970 H 0.0273 0.4245 0.04687 0.0
H971 H 0.9821 0.26862 0.98158 0.0
H972 H 0.95682 0.38081 0.06702 0.0
H973 H 0.03715 0.32326 0.94612 0.0
H974 H 0.98177 0.30335 0.02258 0.0
H975 H 0.04029 0.38124 0.02024 0.0
C976 C 0.0151 0.40543 0.04648 0.0
C977 C 0.99106 0.40592 0.05894 0.0
C978 C 0.99436 0.30739 0.00604 0.0
C979 C 0.00523 0.35681 0.02828 0.0
C980 C 0.99466 0.28753 0.98275 0.0
C981 C 0.0094 0.29331 0.96034 0.0
C982 C 0.00914 0.33293 0.00693 0.0
C983 C 0.02523 0.3182 0.96282 0.0
C984 C 0.0223 0.38088 0.03112 0.0
C985 C 0.97555 0.38096 0.05761 0.0
N986 N 0.02449 0.33719 0.98554 0.0
N987 N 0.9827 0.35744 0.04218 0.0
H988 H 0.64523 0.7377 0.22242 0.0
H989 H 0.57912 0.70535 0.36138 0.0
H990 H 0.68871 0.72268 0.29201 0.0
H991 H 0.54182 0.74304 0.29945 0.0
H992 H 0.61758 0.70151 0.33278 0.0
H993 H 0.60525 0.72945 0.24696 0.0
C994 C 0.64621 0.73218 0.24275 0.0
C995 C 0.67007 0.73091 0.25536 0.0
C996 C 0.60082 0.71029 0.32539 0.0
C997 C 0.62469 0.72178 0.28371 0.0
C998 C 0.57886 0.71233 0.3416 0.0
C999 C 0.5574 0.72481 0.33287 0.0
C1000 C 0.60104 0.72046 0.30022 0.0
C1001 C 0.55807 0.7336 0.30712 0.0
C1002 C 0.6235 0.72764 0.25682 0.0
C1003 C 0.67054 0.72399 0.28182 0.0
N1004 N 0.57954 0.73137 0.2918 0.0
N1005 N 0.64815 0.71983 0.29525 0.0
H1006 H 0.06305 0.06712 0.03406 0.0
H1007 H 0.98694 0.13205 0.92098 0.0
H1008 H 0.99882 0.02371 0.98812 0.0
H1009 H 0.05856 0.16976 0.95739 0.0
H1010 H 0.99239 0.09098 0.94346 0.0
H1011 H 0.06429 0.10304 0.00357 0.0
C1012 C 0.04974 0.06481 0.01699 0.0
C1013 C 0.03075 0.04266 0.01353 0.0
C1014 C 0.00703 0.10815 0.94637 0.0
C1015 C 0.03133 0.08388 0.97919 0.0
C1016 C 0.00386 0.13168 0.9336 0.0
C1017 C 0.02221 0.15454 0.93741 0.0
C1018 C 0.0286 0.10748 0.96331 0.0
C1019 C 0.04383 0.15273 0.95391 0.0
C1020 C 0.0502 0.08541 0.99979 0.0
C1021 C 0.01361 0.04068 0.99145 0.0
N1022 N 0.04631 0.12977 0.96641 0.0
N1023 N 0.01402 0.06123 0.97537 0.0
H1024 H 0.32903 0.30216 0.27412 0.0
H1025 H 0.46981 0.31604 0.21047 0.0
H1026 H 0.39638 0.33234 0.32235 0.0
H1027 H 0.3987 0.31264 0.16496 0.0
H1028 H 0.44481 0.31109 0.25162 0.0
H1029 H 0.35622 0.29306 0.23405 0.0
C1030 C 0.34974 0.30577 0.27633 0.0
C1031 C 0.36068 0.31775 0.30133 0.0
C1032 C 0.43476 0.31123 0.23255 0.0
C1033 C 0.39178 0.30846 0.25577 0.0
C1034 C 0.44898 0.31409 0.20908 0.0
C1035 C 0.43632 0.31511 0.18428 0.0
C1036 C 0.40773 0.30892 0.23108 0.0
C1037 C 0.4093 0.31234 0.18367 0.0
C1038 C 0.3652 0.30102 0.2535 0.0
C1039 C 0.38747 0.32277 0.30333 0.0
N1040 N 0.39595 0.30941 0.20668 0.0
N1041 N 0.40217 0.31845 0.28072 0.0
H1042 H 0.57969 0.45404 0.99061 0.0
H1043 H 0.49143 0.42339 0.10926 0.0
H1044 H 0.54117 0.51879 0.03883 0.0
H1045 H 0.55367 0.37157 0.08521 0.0
H1046 H 0.51264 0.46052 0.08699 0.0
H1047 H 0.5754 0.42564 0.02783 0.0
C1048 C 0.57132 0.46267 0.00958 0.0
C1049 C 0.56049 0.48849 0.01176 0.0
C1050 C 0.52203 0.4413 0.08707 0.0
C1051 C 0.55457 0.45601 0.05384 0.0
C1052 C 0.50987 0.42008 0.09975 0.0
C1053 C 0.52072 0.39434 0.09888 0.0
C1054 C 0.54484 0.43648 0.07267 0.0
C1055 C 0.54467 0.39115 0.08633 0.0
C1056 C 0.56863 0.44643 0.03071 0.0
C1057 C 0.54951 0.49879 0.03648 0.0
N1058 N 0.55565 0.41173 0.07311 0.0
N1059 N 0.54616 0.48223 0.05632 0.0
H1060 H 0.62541 0.2161 0.25944 0.0
H1061 H 0.59971 0.2741 0.11916 0.0
H1062 H 0.68546 0.22901 0.20222 0.0
H1063 H 0.54579 0.27557 0.18514 0.0
H1064 H 0.63017 0.25271 0.14633 0.0
H1065 H 0.59438 0.23223 0.22912 0.0
C1066 C 0.6319 0.22222 0.24031 0.0
C1067 C 0.65786 0.22158 0.23327 0.0
C1068 C 0.61164 0.25771 0.15476 0.0
C1069 C 0.62275 0.24006 0.19848 0.0
C1070 C 0.59426 0.26991 0.1393 0.0
C1071 C 0.57021 0.27678 0.14994 0.0
C1072 C 0.60477 0.25215 0.18091 0.0
C1073 C 0.56415 0.27082 0.17613 0.0
C1074 C 0.6143 0.23144 0.22303 0.0
C1075 C 0.66549 0.22927 0.20817 0.0
N1076 N 0.58128 0.25887 0.19065 0.0
N1077 N 0.64801 0.23842 0.19166 0.0
H1078 H 0.42187 0.15404 0.9459 0.0
H1079 H 0.50489 0.23482 0.07165 0.0
H1080 H 0.47515 0.11483 0.99203 0.0
H1081 H 0.44607 0.27133 0.02957 0.0
H1082 H 0.49996 0.19305 0.03785 0.0
H1083 H 0.43665 0.19959 0.9709 0.0
C1084 C 0.4372 0.1553 0.96087 0.0
C1085 C 0.44744 0.131 0.96703 0.0
C1086 C 0.48831 0.21031 0.03589 0.0
C1087 C 0.46403 0.18251 0.99612 0.0
C1088 C 0.49109 0.23418 0.0552 0.0
C1089 C 0.47561 0.25649 0.05368 0.0
C1090 C 0.46993 0.20875 0.0149 0.0
C1091 C 0.4582 0.25453 0.03177 0.0
C1092 C 0.44552 0.18114 0.97525 0.0
C1093 C 0.46709 0.13332 0.98664 0.0
N1094 N 0.4557 0.23101 0.0134 0.0
N1095 N 0.47456 0.15864 1.0008 0.0
H1096 H 0.22454 0.30516 0.68911 0.0
H1097 H 0.30707 0.39779 0.80418 0.0
H1098 H 0.25745 0.27206 0.75627 0.0
H1099 H 0.30416 0.42197 0.72397 0.0
H1100 H 0.28862 0.35148 0.78604 0.0
H1101 H 0.25398 0.34739 0.6992 0.0
C1102 C 0.23857 0.30651 0.70543 0.0
C1103 C 0.2386 0.28544 0.7221 0.0
C1104 C 0.29222 0.36674 0.77225 0.0
C1105 C 0.27156 0.33354 0.73421 0.0
C1106 C 0.30257 0.39328 0.78266 0.0
C1107 C 0.3069 0.41381 0.76559 0.0
C1108 C 0.2855 0.36067 0.74461 0.0
C1109 C 0.30103 0.4067 0.73779 0.0
C1110 C 0.2552 0.33059 0.7113 0.0
C1111 C 0.25681 0.2881 0.74321 0.0
N1112 N 0.29017 0.38077 0.72818 0.0
N1113 N 0.27223 0.31193 0.74899 0.0
H1114 H 0.25633 0.69001 0.75356 0.0
H1115 H 0.27597 0.56 0.83302 0.0
H1116 H 0.20919 0.67002 0.82016 0.0
H1117 H 0.31862 0.57553 0.76158 0.0
H1118 H 0.25414 0.60258 0.83125 0.0
H1119 H 0.28253 0.65104 0.75917 0.0
C1120 C 0.25178 0.6775 0.76957 0.0
C1121 C 0.23062 0.68295 0.78634 0.0
C1122 C 0.26831 0.59674 0.81599 0.0
C1123 C 0.26021 0.63837 0.79289 0.0
C1124 C 0.2808 0.57236 0.81694 0.0
C1125 C 0.29911 0.564 0.79731 0.0
C1126 C 0.27412 0.61304 0.79526 0.0
C1127 C 0.30457 0.58102 0.77706 0.0
C1128 C 0.26662 0.65527 0.77275 0.0
C1129 C 0.22548 0.66646 0.80697 0.0
N1130 N 0.29209 0.60468 0.77654 0.0
N1131 N 0.24005 0.64473 0.80954 0.0
H1132 H 0.8799 0.52481 0.42197 0.0
H1133 H 0.7832 0.45913 0.52379 0.0
H1134 H 0.88289 0.55458 0.50773 0.0
H1135 H 0.82061 0.40907 0.45896 0.0
H1136 H 0.80924 0.50063 0.51311 0.0
H1137 H 0.84695 0.48826 0.4303 0.0
C1138 C 0.87334 0.52379 0.44248 0.0
C1139 C 0.88419 0.5424 0.46424 0.0
C1140 C 0.81144 0.48053 0.50115 0.0
C1141 C 0.84631 0.50146 0.4738 0.0
C1142 C 0.79664 0.45699 0.50714 0.0
C1143 C 0.80005 0.43074 0.49236 0.0
C1144 C 0.82903 0.47773 0.47976 0.0
C1145 C 0.81767 0.42894 0.47101 0.0
C1146 C 0.85458 0.50311 0.44719 0.0
C1147 C 0.87478 0.54068 0.49043 0.0
N1148 N 0.83145 0.45215 0.46526 0.0
N1149 N 0.85636 0.52045 0.49456 0.0
H1150 H 0.76952 0.8334 0.83425 0.0
H1151 H 0.7093 0.97782 0.82099 0.0
H1152 H 0.81557 0.91136 0.84261 0.0
H1153 H 0.66425 0.90235 0.83292 0.0
H1154 H 0.74863 0.95444 0.82762 0.0
H1155 H 0.73065 0.85867 0.83236 0.0
C1156 C 0.77125 0.85596 0.83594 0.0
C1157 C 0.7955 0.87049 0.83874 0.0
C1158 C 0.7301 0.94313 0.82896 0.0
C1159 C 0.75143 0.89958 0.83611 0.0
C1160 C 0.70765 0.95643 0.82514 0.0
C1161 C 0.68342 0.942 0.82627 0.0
C1162 C 0.72824 0.91516 0.83367 0.0
C1163 C 0.68246 0.91433 0.83178 0.0
C1164 C 0.74919 0.87039 0.83481 0.0
C1165 C 0.79705 0.89962 0.84042 0.0
N1166 N 0.70451 0.9018 0.83508 0.0
N1167 N 0.77526 0.9133 0.83893 0.0
H1168 H 0.59209 0.55345 0.00373 0.0
H1169 H 0.72775 0.54182 0.93074 0.0
H1170 H 0.61129 0.48257 0.94755 0.0
H1171 H 0.71536 0.60464 0.99898 0.0
H1172 H 0.68515 0.51985 0.93729 0.0
H1173 H 0.63741 0.57188 0.0044 0.0
C1174 C 0.60614 0.5415 0.99214 0.0
C1175 C 0.5983 0.51667 0.9755 0.0
C1176 C 0.69173 0.53838 0.95093 0.0
C1177 C 0.64961 0.53764 0.97543 0.0
C1178 C 0.71604 0.5511 0.94707 0.0
C1179 C 0.72516 0.57527 0.96422 0.0
C1180 C 0.67615 0.54996 0.97196 0.0
C1181 C 0.7091 0.58611 0.98519 0.0
C1182 C 0.63186 0.55204 0.99229 0.0
C1183 C 0.61686 0.50185 0.96056 0.0
N1184 N 0.68531 0.57348 0.98836 0.0
N1185 N 0.64162 0.51275 0.96055 0.0
H1186 H 0.26408 0.65987 0.22145 0.0
H1187 H 0.19046 0.59536 0.34222 0.0
H1188 H 0.25934 0.70521 0.30177 0.0
H1189 H 0.18046 0.56282 0.25726 0.0
H1190 H 0.22111 0.63212 0.3298 0.0
H1191 H 0.23992 0.61977 0.23658 0.0
C1192 C 0.25827 0.66102 0.24246 0.0
C1193 C 0.26343 0.68566 0.26042 0.0
C1194 C 0.21222 0.61687 0.31393 0.0
C1195 C 0.23556 0.6403 0.27789 0.0
C1196 C 0.19472 0.59591 0.32097 0.0
C1197 C 0.18274 0.57608 0.30072 0.0
C1198 C 0.21799 0.61779 0.28648 0.0
C1199 C 0.18905 0.57776 0.27354 0.0
C1200 C 0.24438 0.63832 0.25106 0.0
C1201 C 0.25571 0.68639 0.28747 0.0
N1202 N 0.20623 0.59821 0.26725 0.0
N1203 N 0.24187 0.66407 0.29539 0.0
H1204 H 0.96542 0.5231 0.05938 0.0
H1205 H 0.84039 0.52771 0.97282 0.0
H1206 H 0.90652 0.45543 0.05189 0.0
H1207 H 0.86899 0.60205 0.02512 0.0
H1208 H 0.8694 0.50057 0.99554 0.0
H1209 H 0.93472 0.55282 0.04187 0.0
C1210 C 0.94594 0.51466 0.05436 0.0
C1211 C 0.93845 0.48678 0.0569 0.0
C1212 C 0.86927 0.52281 0.00205 0.0
C1213 C 0.90379 0.52012 0.03617 0.0
C1214 C 0.8529 0.53834 0.989 0.0
C1215 C 0.85238 0.56716 0.99709 0.0
C1216 C 0.88573 0.53627 0.02287 0.0
C1217 C 0.86883 0.57984 0.01836 0.0
C1218 C 0.92855 0.53152 0.04432 0.0
C1219 C 0.91314 0.47664 0.04971 0.0
N1220 N 0.88515 0.56433 0.03036 0.0
N1221 N 0.89681 0.49317 0.03927 0.0
H1222 H 0.05164 0.98203 0.99692 0.0
H1223 H 0.18391 0.93728 0.05243 0.0
H1224 H 0.08748 0.02023 0.07219 0.0
H1225 H 0.1607 0.91634 0.96829 0.0
H1226 H 0.14814 0.96731 0.05979 0.0
H1227 H 0.09137 0.95866 0.98476 0.0
C1228 C 0.06821 0.98607 0.01046 0.0
C1229 C 0.06642 0.00284 0.0356 0.0
C1230 C 0.1509 0.95627 0.03966 0.0
C1231 C 0.11139 0.9757 0.02246 0.0
C1232 C 0.17126 0.93893 0.03549 0.0
C1233 C 0.17531 0.92411 0.00972 0.0
C1234 C 0.13413 0.95864 0.01803 0.0
C1235 C 0.15832 0.92732 0.98851 0.0
C1236 C 0.09073 0.97255 0.00372 0.0
C1237 C 0.08817 0.00721 0.05273 0.0
N1238 N 0.13837 0.94404 0.99317 0.0
N1239 N 0.10958 0.9934 0.04607 0.0
loop_
_geom_bond_atom_site_label_1
_geom_bond_atom_site_label_2
_geom_bond_distance
_geom_bond_site_symmetry_2
_ccdc_geom_bond_type
C0 N1 1.304 1_565 S
C0 N2 1.333 1_565 S
C0 C3 1.510 . S
N1 C0 1.304 1_545 S
N1 N5 1.370 . S
N2 C0 1.333 1_545 S
N2 C4 1.346 . S
C3 C0 1.510 . S
C3 H7 0.960 . S
C3 H8 0.961 . S
C3 H9 0.960 . S
C4 N2 1.346 . S
C4 N5 1.307 . S
C4 C6 1.486 1_455 S
N5 N1 1.370 . S
N5 C4 1.307 . S
C6 C4 1.486 1_655 S
C6 H10 0.960 . S
C6 H11 0.960 . S
C6 H12 0.959 . S
H7 C3 0.960 . S
H8 C3 0.961 . S
H9 C3 0.960 . S
H10 C6 0.960 . S
H11 C6 0.960 . S
H12 C6 0.959 . S
C13 N14 1.317 . S
C13 N15 1.348 . S
C13 C16 1.485 . S
N14 C13 1.317 . S
N14 N18 1.370 . S
N15 C13 1.348 . S
N15 C17 1.346 . S
C16 C13 1.485 . S
C16 H20 0.960 . S
C16 H21 0.961 . S
C16 H22 0.960 . S
C17 N15 1.346 . S
C17 N18 1.307 . S
C17 C19 1.486 . S
N18 N14 1.370 . S
N18 C17 1.307 . S
C19 C17 1.486 . S
C19 H23 0.960 . S
C19 H24 0.960 . S
C19 H25 0.959 . S
H20 C16 0.960 . S
H21 C16 0.961 . S
H22 C16 0.960 . S
H23 C19 0.960 . S
H24 C19 0.960 . S
H25 C19 0.959 . S
C26 N27 1.317 . S
C26 N28 1.348 . S
C26 C29 1.485 . S
N27 C26 1.317 . S
N27 N31 1.370 . S
N28 C26 1.348 . S
N28 C30 1.346 . S
C29 C26 1.485 . S
C29 H33 0.960 . S
C29 H34 0.961 . S
C29 H35 0.960 . S
C30 N28 1.346 . S
C30 N31 1.307 . S
C30 C32 1.486 . S
N31 N27 1.370 . S
N31 C30 1.307 . S
C32 C30 1.486 . S
C32 H36 0.960 . S
C32 H37 0.960 . S
C32 H38 0.959 . S
H33 C29 0.960 . S
H34 C29 0.961 . S
H35 C29 0.960 . S
H36 C32 0.960 . S
H37 C32 0.960 . S
H38 C32 0.959 . S
C39 N40 1.317 . S
C39 N41 1.348 . S
C39 C42 1.485 . S
N40 C39 1.317 . S
N40 N44 1.370 . S
N41 C39 1.348 . S
N41 C43 1.346 . S
C42 C39 1.485 . S
C42 H46 0.960 . S
C42 H47 0.961 . S
C42 H48 0.960 . S
C43 N41 1.346 . S
C43 N44 1.307 . S
C43 C45 1.486 . S
N44 N40 1.370 . S
N44 C43 1.307 . S
C45 C43 1.486 . S
C45 H49 0.960 . S
C45 H50 0.960 . S
C45 H51 0.959 . S
H46 C42 0.960 . S
H47 C42 0.961 . S
H48 C42 0.960 . S
H49 C45 0.960 . S
H50 C45 0.960 . S
H51 C45 0.959 . S
C52 N53 1.317 . S
C52 N54 1.348 . S
C52 C55 1.485 . S
N53 C52 1.317 . S
N53 N57 1.370 . S
N54 C52 1.348 . S
N54 C56 1.346 . S
C55 C52 1.485 . S
C55 H59 0.960 . S
C55 H60 0.961 1_455 S
C55 H61 0.960 . S
C56 N54 1.346 . S
C56 N57 1.307 . S
C56 C58 1.486 1_565 S
N57 N53 1.370 . S
N57 C56 1.307 . S
C58 C56 1.486 1_545 S
C58 H62 0.960 . S
C58 H63 0.960 1_545 S
C58 H64 0.959 . S
H59 C55 0.960 . S
H60 C55 0.961 1_655 S
H61 C55 0.960 . S
H62 C58 0.960 . S
H63 C58 0.960 1_565 S
H64 C58 0.959 . S
C65 N66 1.317 . S
C65 N67 1.348 . S
C65 C68 1.485 . S
N66 C65 1.317 . S
N66 N70 1.370 . S
N67 C65 1.348 . S
N67 C69 1.346 . S
C68 C65 1.485 . S
C68 H72 0.960 . S
C68 H73 0.961 . S
C68 H74 0.960 . S
C69 N67 1.346 . S
C69 N70 1.307 . S
C69 C71 1.486 . S
N70 N66 1.370 . S
N70 C69 1.307 . S
C71 C69 1.486 . S
C71 H75 0.960 . S
C71 H76 0.960 . S
C71 H77 0.959 . S
H72 C68 0.960 . S
H73 C68 0.961 . S
H74 C68 0.960 . S
H75 C71 0.960 . S
H76 C71 0.960 . S
H77 C71 0.959 . S
C78 N79 1.317 . S
C78 N80 1.348 . S
C78 C81 1.485 . S
N79 C78 1.317 . S
N79 N83 1.370 . S
N80 C78 1.348 . S
N80 C82 1.346 . S
C81 C78 1.485 . S
C81 H85 0.960 . S
C81 H86 0.961 . S
C81 H87 0.960 . S
C82 N80 1.346 . S
C82 N83 1.307 . S
C82 C84 1.486 . S
N83 N79 1.370 . S
N83 C82 1.307 . S
C84 C82 1.486 . S
C84 H88 0.960 . S
C84 H89 0.960 . S
C84 H90 0.959 . S
H85 C81 0.960 . S
H86 C81 0.961 . S
H87 C81 0.960 . S
H88 C84 0.960 . S
H89 C84 0.960 . S
H90 C84 0.959 . S
C91 N92 1.317 . S
C91 N93 1.348 . S
C91 C94 1.485 . S
N92 C91 1.317 . S
N92 N96 1.370 . S
N93 C91 1.348 . S
N93 C95 1.346 . S
C94 C91 1.485 . S
C94 H98 0.960 . S
C94 H99 0.961 . S
C94 H100 0.960 . S
C95 N93 1.346 . S
C95 N96 1.307 . S
C95 C97 1.486 . S
N96 N92 1.370 . S
N96 C95 1.307 . S
C97 C95 1.486 . S
C97 H101 0.960 . S
C97 H102 0.960 . S
C97 H103 0.959 . S
H98 C94 0.960 . S
H99 C94 0.961 . S
H100 C94 0.960 . S
H101 C97 0.960 . S
H102 C97 0.960 . S
H103 C97 0.959 . S
C104 N105 1.317 . S
C104 N106 1.348 . S
C104 C107 1.485 . S
N105 C104 1.317 . S
N105 N109 1.370 . S
N106 C104 1.348 . S
N106 C108 1.346 . S
C107 C104 1.485 . S
C107 H111 0.960 . S
C107 H112 0.961 . S
C107 H113 0.960 . S
C108 N106 1.346 . S
C108 N109 1.307 . S
C108 C110 1.486 . S
N109 N105 1.370 . S
N109 C108 1.307 . S
C110 C108 1.486 . S
C110 H114 0.960 . S
C110 H115 0.960 . S
C110 H116 0.959 . S
H111 C107 0.960 . S
H112 C107 0.961 . S
H113 C107 0.960 . S
H114 C110 0.960 . S
H115 C110 0.960 . S
H116 C110 0.959 . S
C117 N118 1.317 . S
C117 N119 1.348 . S
C117 C120 1.485 1_565 S
N118 C117 1.317 . S
N118 N122 1.370 . S
N119 C117 1.348 . S
N119 C121 1.346 . S
C120 C117 1.485 1_545 S
C120 H124 0.960 . S
C120 H125 0.961 . S
C120 H126 0.960 . S
C121 N119 1.346 . S
C121 N122 1.307 . S
C121 C123 1.486 . S
N122 N118 1.370 . S
N122 C121 1.307 . S
C123 C121 1.486 . S
C123 H127 0.960 . S
C123 H128 0.960 . S
C123 H129 0.959 . S
H124 C120 0.960 . S
H125 C120 0.961 . S
H126 C120 0.960 . S
H127 C123 0.960 . S
H128 C123 0.960 . S
H129 C123 0.959 . S
C130 N131 1.317 . S
C130 N132 1.348 . S
C130 C133 1.485 . S
N131 C130 1.317 . S
N131 N135 1.370 . S
N132 C130 1.348 . S
N132 C134 1.346 . S
C133 C130 1.485 . S
C133 H137 0.960 . S
C133 H138 0.961 . S
C133 H139 0.960 . S
C134 N132 1.346 . S
C134 N135 1.307 . S
C134 C136 1.486 . S
N135 N131 1.370 . S
N135 C134 1.307 . S
C136 C134 1.486 . S
C136 H140 0.960 . S
C136 H141 0.960 . S
C136 H142 0.959 . S
H137 C133 0.960 . S
H138 C133 0.961 . S
H139 C133 0.960 . S
H140 C136 0.960 . S
H141 C136 0.960 . S
H142 C136 0.959 . S
C143 N144 1.317 . S
C143 N145 1.348 . S
C143 C146 1.485 . S
N144 C143 1.317 . S
N144 N148 1.370 . S
N145 C143 1.348 . S
N145 C147 1.346 . S
C146 C143 1.485 . S
C146 H150 0.960 . S
C146 H151 0.961 . S
C146 H152 0.960 . S
C147 N145 1.346 . S
C147 N148 1.307 . S
C147 C149 1.486 . S
N148 N144 1.370 . S
N148 C147 1.307 . S
C149 C147 1.486 . S
C149 H153 0.960 . S
C149 H154 0.960 . S
C149 H155 0.959 . S
H150 C146 0.960 . S
H151 C146 0.961 . S
H152 C146 0.960 . S
H153 C149 0.960 . S
H154 C149 0.960 . S
H155 C149 0.959 . S
C156 N157 1.317 . S
C156 N158 1.348 . S
C156 C159 1.485 . S
N157 C156 1.317 . S
N157 N161 1.370 . S
N158 C156 1.348 . S
N158 C160 1.346 . S
C159 C156 1.485 . S
C159 H163 0.960 . S
C159 H164 0.961 . S
C159 H165 0.960 . S
C160 N158 1.346 . S
C160 N161 1.307 . S
C160 C162 1.486 . S
N161 N157 1.370 . S
N161 C160 1.307 . S
C162 C160 1.486 . S
C162 H166 0.960 . S
C162 H167 0.960 . S
C162 H168 0.959 . S
H163 C159 0.960 . S
H164 C159 0.961 . S
H165 C159 0.960 . S
H166 C162 0.960 . S
H167 C162 0.960 . S
H168 C162 0.959 . S
C169 N170 1.317 . S
C169 N171 1.348 . S
C169 C172 1.485 . S
N170 C169 1.317 . S
N170 N174 1.370 . S
N171 C169 1.348 . S
N171 C173 1.346 . S
C172 C169 1.485 . S
C172 H176 0.960 . S
C172 H177 0.961 . S
C172 H178 0.960 . S
C173 N171 1.346 . S
C173 N174 1.307 . S
C173 C175 1.486 . S
N174 N170 1.370 . S
N174 C173 1.307 . S
C175 C173 1.486 . S
C175 H179 0.960 . S
C175 H180 0.960 . S
C175 H181 0.959 . S
H176 C172 0.960 . S
H177 C172 0.961 . S
H178 C172 0.960 . S
H179 C175 0.960 . S
H180 C175 0.960 . S
H181 C175 0.959 . S
C182 N183 1.317 . S
C182 N184 1.348 . S
C182 C185 1.485 . S
N183 C182 1.317 . S
N183 N187 1.370 . S
N184 C182 1.348 . S
N184 C186 1.346 . S
C185 C182 1.485 . S
C185 H189 0.960 . S
C185 H190 0.961 . S
C185 H191 0.960 . S
C186 N184 1.346 . S
C186 N187 1.307 . S
C186 C188 1.486 . S
N187 N183 1.370 . S
N187 C186 1.307 . S
C188 C186 1.486 . S
C188 H192 0.960 . S
C188 H193 0.960 . S
C188 H194 0.959 . S
H189 C185 0.960 . S
H190 C185 0.961 . S
H191 C185 0.960 . S
H192 C188 0.960 . S
H193 C188 0.960 . S
H194 C188 0.959 . S
C195 N196 1.317 . S
C195 N197 1.348 . S
C195 C198 1.485 . S
N196 C195 1.317 . S
N196 N200 1.370 . S
N197 C195 1.348 . S
N197 C199 1.346 . S
C198 C195 1.485 . S
C198 H202 0.960 . S
C198 H203 0.961 . S
C198 H204 0.960 . S
C199 N197 1.346 . S
C199 N200 1.307 . S
C199 C201 1.486 . S
N200 N196 1.370 . S
N200 C199 1.307 . S
C201 C199 1.486 . S
C201 H205 0.960 1_556 S
C201 H206 0.960 . S
C201 H207 0.958 1_556 S
H202 C198 0.960 . S
H203 C198 0.961 . S
H204 C198 0.960 . S
H205 C201 0.960 1_554 S
H206 C201 0.960 . S
H207 C201 0.958 1_554 S
Zn208 O211 2.031 . S
Zn208 O213 2.049 1_554 S
Zn208 O218 2.067 1_554 S
Zn209 O210 1.962 . S
Zn209 O212 1.986 . S
Zn209 O214 1.996 . S
Zn209 O217 1.943 1_554 S
O210 Zn209 1.962 . S
O210 C215 1.254 . S
O211 Zn208 2.031 . S
O211 C215 1.269 . S
O212 Zn209 1.986 . S
O212 C219 1.262 . S
O213 Zn208 2.049 1_556 S
O213 C221 1.260 . S
O214 Zn209 1.996 . S
O214 C221 1.257 1_554 S
C215 O210 1.254 . S
C215 O211 1.269 . S
C216 O217 1.249 . S
C216 O218 1.270 . S
O217 Zn209 1.943 1_556 S
O217 C216 1.249 . S
O218 Zn208 2.067 1_556 S
O218 C216 1.270 . S
C219 O212 1.262 . S
C219 O220 1.232 . S
O220 C219 1.232 . S
C221 O213 1.260 . S
C221 O214 1.257 1_556 S
Zn222 O225 2.031 . S
Zn222 O227 2.049 . S
Zn222 O232 2.067 . S
Zn223 O224 1.962 . S
Zn223 O226 1.986 . S
Zn223 O228 1.996 . S
Zn223 O231 1.943 . S
O224 Zn223 1.962 . S
O224 C229 1.254 . S
O225 Zn222 2.031 . S
O225 C229 1.269 . S
O226 Zn223 1.986 . S
O226 C233 1.262 . S
O227 Zn222 2.049 . S
O227 C235 1.260 . S
O228 Zn223 1.996 . S
O228 C235 1.257 . S
C229 O224 1.254 . S
C229 O225 1.269 . S
C230 O231 1.249 . S
C230 O232 1.270 . S
O231 Zn223 1.943 . S
O231 C230 1.249 . S
O232 Zn222 2.067 . S
O232 C230 1.270 . S
C233 O226 1.262 . S
C233 O234 1.232 . S
O234 C233 1.232 . S
C235 O227 1.260 . S
C235 O228 1.257 . S
Zn236 O239 2.031 . S
Zn236 O241 2.049 . S
Zn236 O246 2.067 . S
Zn237 O238 1.962 . S
Zn237 O240 1.986 . S
Zn237 O242 1.996 1_554 S
Zn237 O245 1.943 . S
O238 Zn237 1.962 . S
O238 C243 1.254 . S
O239 Zn236 2.031 . S
O239 C243 1.269 1_556 S
O240 Zn237 1.986 . S
O240 C247 1.262 . S
O241 Zn236 2.049 . S
O241 C249 1.260 . S
O242 Zn237 1.996 1_556 S
O242 C249 1.257 . S
C243 O238 1.254 . S
C243 O239 1.269 1_554 S
C244 O245 1.249 1_556 S
C244 O246 1.270 . S
O245 Zn237 1.943 . S
O245 C244 1.249 1_554 S
O246 Zn236 2.067 . S
O246 C244 1.270 . S
C247 O240 1.262 . S
C247 O248 1.232 . S
O248 C247 1.232 . S
C249 O241 1.260 . S
C249 O242 1.257 . S
Zn250 O253 2.031 . S
Zn250 O255 2.049 1_545 S
Zn250 O260 2.067 1_545 S
Zn251 O252 1.962 . S
Zn251 O254 1.986 . S
Zn251 O256 1.996 . S
Zn251 O259 1.943 1_545 S
O252 Zn251 1.962 . S
O252 C257 1.254 . S
O253 Zn250 2.031 . S
O253 C257 1.269 . S
O254 Zn251 1.986 . S
O254 C261 1.262 . S
O255 Zn250 2.049 1_565 S
O255 C263 1.260 . S
O256 Zn251 1.996 . S
O256 C263 1.257 1_545 S
C257 O252 1.254 . S
C257 O253 1.269 . S
C258 O259 1.249 . S
C258 O260 1.270 . S
O259 Zn251 1.943 1_565 S
O259 C258 1.249 . S
O260 Zn250 2.067 1_565 S
O260 C258 1.270 . S
C261 O254 1.262 . S
C261 O262 1.232 . S
O262 C261 1.232 . S
C263 O255 1.260 . S
C263 O256 1.257 1_565 S
Zn264 O267 2.031 . S
Zn264 O269 2.049 . S
Zn264 O274 2.067 . S
Zn265 O266 1.962 . S
Zn265 O268 1.986 . S
Zn265 O270 1.996 . S
Zn265 O273 1.943 . S
O266 Zn265 1.962 . S
O266 C271 1.254 . S
O267 Zn264 2.031 . S
O267 C271 1.269 . S
O268 Zn265 1.986 . S
O268 C275 1.262 . S
O269 Zn264 2.049 . S
O269 C277 1.260 . S
O270 Zn265 1.996 . S
O270 C277 1.257 . S
C271 O266 1.254 . S
C271 O267 1.269 . S
C272 O273 1.249 . S
C272 O274 1.270 . S
O273 Zn265 1.943 . S
O273 C272 1.249 . S
O274 Zn264 2.067 . S
O274 C272 1.270 . S
C275 O268 1.262 . S
C275 O276 1.232 . S
O276 C275 1.232 . S
C277 O269 1.260 . S
C277 O270 1.257 . S
Zn278 O281 2.031 . S
Zn278 O283 2.049 . S
Zn278 O288 2.067 . S
Zn279 O280 1.962 . S
Zn279 O282 1.986 . S
Zn279 O284 1.996 . S
Zn279 O287 1.943 . S
O280 Zn279 1.962 . S
O280 C285 1.254 . S
O281 Zn278 2.031 . S
O281 C285 1.269 . S
O282 Zn279 1.986 . S
O282 C289 1.262 . S
O283 Zn278 2.049 . S
O283 C291 1.260 . S
O284 Zn279 1.996 . S
O284 C291 1.257 . S
C285 O280 1.254 . S
C285 O281 1.269 . S
C286 O287 1.249 . S
C286 O288 1.270 . S
O287 Zn279 1.943 . S
O287 C286 1.249 . S
O288 Zn278 2.067 . S
O288 C286 1.270 . S
C289 O282 1.262 . S
C289 O290 1.232 . S
O290 C289 1.232 . S
C291 O283 1.260 . S
C291 O284 1.257 . S
Zn292 O295 2.031 . S
Zn292 O297 2.049 . S
Zn292 O302 2.067 . S
Zn293 O294 1.962 . S
Zn293 O296 1.986 . S
Zn293 O298 1.996 . S
Zn293 O301 1.943 . S
O294 Zn293 1.962 . S
O294 C299 1.254 . S
O295 Zn292 2.031 . S
O295 C299 1.269 . S
O296 Zn293 1.986 . S
O296 C303 1.262 . S
O297 Zn292 2.049 . S
O297 C305 1.260 . S
O298 Zn293 1.996 . S
O298 C305 1.257 . S
C299 O294 1.254 . S
C299 O295 1.269 . S
C300 O301 1.249 . S
C300 O302 1.270 . S
O301 Zn293 1.943 . S
O301 C300 1.249 . S
O302 Zn292 2.067 . S
O302 C300 1.270 . S
C303 O296 1.262 . S
C303 O304 1.232 . S
O304 C303 1.232 . S
C305 O297 1.260 . S
C305 O298 1.257 . S
Zn306 O309 2.031 1_565 S
Zn306 O311 2.049 . S
Zn306 O316 2.067 . S
Zn307 O308 1.962 . S
Zn307 O310 1.986 . S
Zn307 O312 1.996 1_545 S
Zn307 O315 1.943 . S
O308 Zn307 1.962 . S
O308 C313 1.254 . S
O309 Zn306 2.031 1_545 S
O309 C313 1.269 . S
O310 Zn307 1.986 . S
O310 C317 1.262 . S
O311 Zn306 2.049 . S
O311 C319 1.260 . S
O312 Zn307 1.996 1_565 S
O312 C319 1.257 . S
C313 O308 1.254 . S
C313 O309 1.269 . S
C314 O315 1.249 1_565 S
C314 O316 1.270 . S
O315 Zn307 1.943 . S
O315 C314 1.249 1_545 S
O316 Zn306 2.067 . S
O316 C314 1.270 . S
C317 O310 1.262 . S
C317 O318 1.232 . S
O318 C317 1.232 . S
C319 O311 1.260 . S
C319 O312 1.257 . S
Zn320 O323 2.031 . S
Zn320 O325 2.049 1_455 S
Zn320 O330 2.067 1_455 S
Zn321 O322 1.962 . S
Zn321 O324 1.986 . S
Zn321 O326 1.996 . S
Zn321 O329 1.943 1_455 S
O322 Zn321 1.962 . S
O322 C327 1.254 . S
O323 Zn320 2.031 . S
O323 C327 1.269 . S
O324 Zn321 1.986 . S
O324 C331 1.262 . S
O325 Zn320 2.049 1_655 S
O325 C333 1.260 . S
O326 Zn321 1.996 . S
O326 C333 1.257 1_455 S
C327 O322 1.254 . S
C327 O323 1.269 . S
C328 O329 1.249 . S
C328 O330 1.270 . S
O329 Zn321 1.943 1_655 S
O329 C328 1.249 . S
O330 Zn320 2.067 1_655 S
O330 C328 1.270 . S
C331 O324 1.262 . S
C331 O332 1.232 . S
O332 C331 1.232 . S
C333 O325 1.260 . S
C333 O326 1.257 1_655 S
Zn334 O337 2.031 . S
Zn334 O339 2.049 . S
Zn334 O344 2.067 . S
Zn335 O336 1.962 . S
Zn335 O338 1.986 . S
Zn335 O340 1.996 . S
Zn335 O343 1.943 . S
O336 Zn335 1.962 . S
O336 C341 1.254 . S
O337 Zn334 2.031 . S
O337 C341 1.269 . S
O338 Zn335 1.986 . S
O338 C345 1.262 . S
O339 Zn334 2.049 . S
O339 C347 1.260 . S
O340 Zn335 1.996 . S
O340 C347 1.257 . S
C341 O336 1.254 . S
C341 O337 1.269 . S
C342 O343 1.249 . S
C342 O344 1.270 . S
O343 Zn335 1.943 . S
O343 C342 1.249 . S
O344 Zn334 2.067 . S
O344 C342 1.270 . S
C345 O338 1.262 . S
C345 O346 1.232 . S
O346 C345 1.232 . S
C347 O339 1.260 . S
C347 O340 1.257 . S
Zn348 O351 2.031 1_655 S
Zn348 O353 2.049 . S
Zn348 O358 2.067 . S
Zn349 O350 1.962 . S
Zn349 O352 1.986 . S
Zn349 O354 1.996 1_455 S
Zn349 O357 1.943 . S
O350 Zn349 1.962 . S
O350 C355 1.254 . S
O351 Zn348 2.031 1_455 S
O351 C355 1.269 . S
O352 Zn349 1.986 . S
O352 C359 1.262 . S
O353 Zn348 2.049 . S
O353 C361 1.260 . S
O354 Zn349 1.996 1_655 S
O354 C361 1.257 . S
C355 O350 1.254 . S
C355 O351 1.269 . S
C356 O357 1.249 . S
C356 O358 1.270 1_455 S
O357 Zn349 1.943 . S
O357 C356 1.249 . S
O358 Zn348 2.067 . S
O358 C356 1.270 1_655 S
C359 O352 1.262 . S
C359 O360 1.232 . S
O360 C359 1.232 . S
C361 O353 1.260 . S
C361 O354 1.257 . S
Zn362 O365 2.031 . S
Zn362 O367 2.049 . S
Zn362 O372 2.067 . S
Zn363 O364 1.962 . S
Zn363 O366 1.986 . S
Zn363 O368 1.996 . S
Zn363 O371 1.943 . S
O364 Zn363 1.962 . S
O364 C369 1.254 . S
O365 Zn362 2.031 . S
O365 C369 1.269 . S
O366 Zn363 1.986 . S
O366 C373 1.262 . S
O367 Zn362 2.049 . S
O367 C375 1.260 . S
O368 Zn363 1.996 . S
O368 C375 1.257 . S
C369 O364 1.254 . S
C369 O365 1.269 . S
C370 O371 1.249 . S
C370 O372 1.270 . S
O371 Zn363 1.943 . S
O371 C370 1.249 . S
O372 Zn362 2.067 . S
O372 C370 1.270 . S
C373 O366 1.262 . S
C373 O374 1.232 . S
O374 C373 1.232 . S
C375 O367 1.260 . S
C375 O368 1.257 . S
H376 C382 0.930 . S
H377 C386 0.930 . S
H378 C391 0.929 . S
H379 C389 0.929 . S
H380 C384 0.929 . S
H381 C390 0.929 . S
C382 H376 0.930 . S
C382 C383 1.367 . S
C382 C390 1.378 . S
C383 C382 1.367 . S
C383 C391 1.433 . S
C384 H380 0.929 . S
C384 C386 1.378 . S
C384 C388 1.350 . S
C385 C388 1.463 . S
C385 C390 1.350 . S
C385 N393 1.427 . S
C386 H377 0.930 . S
C386 C384 1.378 . S
C386 C387 1.367 . S
C387 C386 1.367 . S
C387 C389 1.433 . S
C388 C384 1.350 . S
C388 C385 1.463 . S
C388 N392 1.427 . S
C389 H379 0.929 . S
C389 C387 1.433 . S
C389 N392 1.384 . S
C390 H381 0.929 . S
C390 C382 1.378 . S
C390 C385 1.350 . S
C391 H378 0.929 . S
C391 C383 1.433 . S
C391 N393 1.384 . S
N392 C388 1.427 . S
N392 C389 1.384 . S
N393 C385 1.427 . S
N393 C391 1.384 . S
H394 C400 0.930 . S
H395 C404 0.930 . S
H396 C409 0.929 . S
H397 C407 0.929 . S
H398 C402 0.929 . S
H399 C408 0.929 . S
C400 H394 0.930 . S
C400 C401 1.367 1_455 S
C400 C408 1.378 . S
C401 C400 1.367 1_655 S
C401 C409 1.433 . S
C402 H398 0.929 . S
C402 C404 1.378 . S
C402 C406 1.350 . S
C403 C406 1.463 . S
C403 C408 1.350 . S
C403 N411 1.429 . S
C404 H395 0.930 . S
C404 C402 1.378 . S
C404 C405 1.367 . S
C405 C404 1.367 . S
C405 C407 1.433 . S
C406 C402 1.350 . S
C406 C403 1.463 . S
C406 N410 1.427 . S
C407 H397 0.929 . S
C407 C405 1.433 . S
C407 N410 1.384 . S
C408 H399 0.929 . S
C408 C400 1.378 . S
C408 C403 1.350 . S
C409 H396 0.929 . S
C409 C401 1.433 . S
C409 N411 1.382 1_655 S
N410 C406 1.427 . S
N410 C407 1.384 . S
N411 C403 1.429 . S
N411 C409 1.382 1_455 S
H412 C418 0.930 . S
H413 C422 0.930 . S
H414 C427 0.929 . S
H415 C425 0.929 . S
H416 C420 0.929 . S
H417 C426 0.929 . S
C418 H412 0.930 . S
C418 C419 1.367 . S
C418 C426 1.378 . S
C419 C418 1.367 . S
C419 C427 1.433 . S
C420 H416 0.929 . S
C420 C422 1.378 . S
C420 C424 1.350 . S
C421 C424 1.463 . S
C421 C426 1.350 . S
C421 N429 1.427 . S
C422 H413 0.930 . S
C422 C420 1.378 . S
C422 C423 1.367 . S
C423 C422 1.367 . S
C423 C425 1.433 . S
C424 C420 1.350 . S
C424 C421 1.463 . S
C424 N428 1.427 . S
C425 H415 0.929 . S
C425 C423 1.433 . S
C425 N428 1.384 . S
C426 H417 0.929 . S
C426 C418 1.378 . S
C426 C421 1.350 . S
C427 H414 0.929 . S
C427 C419 1.433 . S
C427 N429 1.384 . S
N428 C424 1.427 . S
N428 C425 1.384 . S
N429 C421 1.427 . S
N429 C427 1.384 . S
H430 C436 0.930 . S
H431 C440 0.930 . S
H432 C445 0.929 1_545 S
H433 C443 0.929 . S
H434 C438 0.929 . S
H435 C444 0.929 . S
C436 H430 0.930 . S
C436 C437 1.367 . S
C436 C444 1.378 1_455 S
C437 C436 1.367 . S
C437 C445 1.433 . S
C438 H434 0.929 . S
C438 C440 1.378 . S
C438 C442 1.350 1_545 S
C439 C442 1.463 . S
C439 C444 1.350 . S
C439 N447 1.427 . S
C440 H431 0.930 . S
C440 C438 1.378 . S
C440 C441 1.367 1_545 S
C441 C440 1.367 1_565 S
C441 C443 1.433 . S
C442 C438 1.350 1_565 S
C442 C439 1.463 . S
C442 N446 1.427 . S
C443 H433 0.929 . S
C443 C441 1.433 . S
C443 N446 1.384 . S
C444 H435 0.929 . S
C444 C436 1.378 1_655 S
C444 C439 1.350 . S
C445 H432 0.929 1_565 S
C445 C437 1.433 . S
C445 N447 1.384 1_455 S
N446 C442 1.427 . S
N446 C443 1.384 . S
N447 C439 1.427 . S
N447 C445 1.384 1_655 S
H448 C454 0.930 . S
H449 C458 0.930 . S
H450 C463 0.929 . S
H451 C461 0.929 . S
H452 C456 0.929 . S
H453 C462 0.929 . S
C454 H448 0.930 . S
C454 C455 1.367 . S
C454 C462 1.378 . S
C455 C454 1.367 . S
C455 C463 1.433 . S
C456 H452 0.929 . S
C456 C458 1.378 . S
C456 C460 1.350 . S
C457 C460 1.463 . S
C457 C462 1.350 . S
C457 N465 1.427 . S
C458 H449 0.930 . S
C458 C456 1.378 . S
C458 C459 1.367 . S
C459 C458 1.367 . S
C459 C461 1.433 . S
C460 C456 1.350 . S
C460 C457 1.463 . S
C460 N464 1.427 . S
C461 H451 0.929 . S
C461 C459 1.433 . S
C461 N464 1.384 . S
C462 H453 0.929 . S
C462 C454 1.378 . S
C462 C457 1.350 . S
C463 H450 0.929 . S
C463 C455 1.433 . S
C463 N465 1.384 . S
N464 C460 1.427 . S
N464 C461 1.384 . S
N465 C457 1.427 . S
N465 C463 1.384 . S
H466 C472 0.930 . S
H467 C476 0.930 . S
H468 C481 0.929 . S
H469 C479 0.929 . S
H470 C474 0.929 . S
H471 C480 0.929 . S
C472 H466 0.930 . S
C472 C473 1.367 . S
C472 C480 1.378 . S
C473 C472 1.367 . S
C473 C481 1.433 . S
C474 H470 0.929 . S
C474 C476 1.378 . S
C474 C478 1.350 . S
C475 C478 1.463 . S
C475 C480 1.350 . S
C475 N483 1.427 . S
C476 H467 0.930 . S
C476 C474 1.378 . S
C476 C477 1.367 . S
C477 C476 1.367 . S
C477 C479 1.433 . S
C478 C474 1.350 . S
C478 C475 1.463 . S
C478 N482 1.427 . S
C479 H469 0.929 . S
C479 C477 1.433 . S
C479 N482 1.384 . S
C480 H471 0.929 . S
C480 C472 1.378 . S
C480 C475 1.350 . S
C481 H468 0.929 . S
C481 C473 1.433 . S
C481 N483 1.384 . S
N482 C478 1.427 . S
N482 C479 1.384 . S
N483 C475 1.427 . S
N483 C481 1.384 . S
H484 C490 0.930 . S
H485 C494 0.930 . S
H486 C499 0.929 . S
H487 C497 0.929 . S
H488 C492 0.929 . S
H489 C498 0.929 . S
C490 H484 0.930 . S
C490 C491 1.367 . S
C490 C498 1.378 . S
C491 C490 1.367 . S
C491 C499 1.433 . S
C492 H488 0.929 . S
C492 C494 1.378 . S
C492 C496 1.350 . S
C493 C496 1.463 . S
C493 C498 1.350 . S
C493 N501 1.427 . S
C494 H485 0.930 . S
C494 C492 1.378 . S
C494 C495 1.367 . S
C495 C494 1.367 . S
C495 C497 1.433 . S
C496 C492 1.350 . S
C496 C493 1.463 . S
C496 N500 1.427 . S
C497 H487 0.929 . S
C497 C495 1.433 . S
C497 N500 1.384 . S
C498 H489 0.929 . S
C498 C490 1.378 . S
C498 C493 1.350 . S
C499 H486 0.929 . S
C499 C491 1.433 . S
C499 N501 1.384 . S
N500 C496 1.427 . S
N500 C497 1.384 . S
N501 C493 1.427 . S
N501 C499 1.384 . S
H502 C508 0.930 1_545 S
H503 C512 0.930 . S
H504 C517 0.929 . S
H505 C515 0.929 . S
H506 C510 0.929 . S
H507 C516 0.929 1_545 S
C508 H502 0.930 1_565 S
C508 C509 1.367 . S
C508 C516 1.378 . S
C509 C508 1.367 . S
C509 C517 1.433 . S
C510 H506 0.929 . S
C510 C512 1.378 . S
C510 C514 1.350 . S
C511 C514 1.463 . S
C511 C516 1.350 . S
C511 N519 1.427 . S
C512 H503 0.930 . S
C512 C510 1.378 . S
C512 C513 1.367 . S
C513 C512 1.367 . S
C513 C515 1.433 1_565 S
C514 C510 1.350 . S
C514 C511 1.463 . S
C514 N518 1.427 1_565 S
C515 H505 0.929 . S
C515 C513 1.433 1_545 S
C515 N518 1.384 . S
C516 H507 0.929 1_565 S
C516 C508 1.378 . S
C516 C511 1.350 . S
C517 H504 0.929 . S
C517 C509 1.433 . S
C517 N519 1.384 . S
N518 C514 1.427 1_545 S
N518 C515 1.384 . S
N519 C511 1.427 . S
N519 C517 1.384 . S
H520 C526 0.930 . S
H521 C530 0.930 . S
H522 C535 0.929 . S
H523 C533 0.929 . S
H524 C528 0.929 . S
H525 C534 0.929 . S
C526 H520 0.930 . S
C526 C527 1.367 . S
C526 C534 1.378 . S
C527 C526 1.367 . S
C527 C535 1.433 . S
C528 H524 0.929 . S
C528 C530 1.378 . S
C528 C532 1.350 . S
C529 C532 1.463 . S
C529 C534 1.350 . S
C529 N537 1.427 . S
C530 H521 0.930 . S
C530 C528 1.378 . S
C530 C531 1.367 . S
C531 C530 1.367 . S
C531 C533 1.433 . S
C532 C528 1.350 . S
C532 C529 1.463 . S
C532 N536 1.427 . S
C533 H523 0.929 . S
C533 C531 1.433 . S
C533 N536 1.384 . S
C534 H525 0.929 . S
C534 C526 1.378 . S
C534 C529 1.350 . S
C535 H522 0.929 . S
C535 C527 1.433 . S
C535 N537 1.384 . S
N536 C532 1.427 . S
N536 C533 1.384 . S
N537 C529 1.427 . S
N537 C535 1.384 . S
H538 C544 0.930 . S
H539 C548 0.930 . S
H540 C553 0.929 . S
H541 C551 0.929 . S
H542 C546 0.929 . S
H543 C552 0.929 . S
C544 H538 0.930 . S
C544 C545 1.367 . S
C544 C552 1.378 . S
C545 C544 1.367 . S
C545 C553 1.433 . S
C546 H542 0.929 . S
C546 C548 1.378 . S
C546 C550 1.350 . S
C547 C550 1.463 . S
C547 C552 1.350 . S
C547 N555 1.427 . S
C548 H539 0.930 . S
C548 C546 1.378 . S
C548 C549 1.367 . S
C549 C548 1.367 . S
C549 C551 1.433 . S
C550 C546 1.350 . S
C550 C547 1.463 . S
C550 N554 1.427 . S
C551 H541 0.929 . S
C551 C549 1.433 . S
C551 N554 1.384 . S
C552 H543 0.929 . S
C552 C544 1.378 . S
C552 C547 1.350 . S
C553 H540 0.929 . S
C553 C545 1.433 . S
C553 N555 1.384 . S
N554 C550 1.427 . S
N554 C551 1.384 . S
N555 C547 1.427 . S
N555 C553 1.384 . S
H556 C562 0.930 . S
H557 C566 0.930 . S
H558 C571 0.929 . S
H559 C569 0.929 . S
H560 C564 0.929 . S
H561 C570 0.929 . S
C562 H556 0.930 . S
C562 C563 1.367 . S
C562 C570 1.378 . S
C563 C562 1.367 . S
C563 C571 1.433 . S
C564 H560 0.929 . S
C564 C566 1.378 . S
C564 C568 1.350 . S
C565 C568 1.463 . S
C565 C570 1.350 . S
C565 N573 1.427 . S
C566 H557 0.930 . S
C566 C564 1.378 . S
C566 C567 1.367 . S
C567 C566 1.367 . S
C567 C569 1.433 . S
C568 C564 1.350 . S
C568 C565 1.463 . S
C568 N572 1.427 . S
C569 H559 0.929 . S
C569 C567 1.433 . S
C569 N572 1.384 . S
C570 H561 0.929 . S
C570 C562 1.378 . S
C570 C565 1.350 . S
C571 H558 0.929 . S
C571 C563 1.433 . S
C571 N573 1.384 . S
N572 C568 1.427 . S
N572 C569 1.384 . S
N573 C565 1.427 . S
N573 C571 1.384 . S
H574 C580 0.930 . S
H575 C584 0.930 . S
H576 C589 0.929 . S
H577 C587 0.929 . S
H578 C582 0.929 . S
H579 C588 0.929 . S
C580 H574 0.930 . S
C580 C581 1.367 . S
C580 C588 1.378 . S
C581 C580 1.367 . S
C581 C589 1.433 . S
C582 H578 0.929 . S
C582 C584 1.378 . S
C582 C586 1.350 . S
C583 C586 1.463 . S
C583 C588 1.350 . S
C583 N591 1.427 . S
C584 H575 0.930 . S
C584 C582 1.378 . S
C584 C585 1.367 . S
C585 C584 1.367 . S
C585 C587 1.433 . S
C586 C582 1.350 . S
C586 C583 1.463 . S
C586 N590 1.427 . S
C587 H577 0.929 . S
C587 C585 1.433 . S
C587 N590 1.384 . S
C588 H579 0.929 . S
C588 C580 1.378 . S
C588 C583 1.350 . S
C589 H576 0.929 . S
C589 C581 1.433 . S
C589 N591 1.384 . S
N590 C586 1.427 . S
N590 C587 1.384 . S
N591 C583 1.427 . S
N591 C589 1.384 . S
H592 C598 0.930 . S
H593 C602 0.930 . S
H594 C607 0.929 . S
H595 C605 0.929 . S
H596 C600 0.929 . S
H597 C606 0.929 . S
C598 H592 0.930 . S
C598 C599 1.367 . S
C598 C606 1.378 . S
C599 C598 1.367 . S
C599 C607 1.433 . S
C600 H596 0.929 . S
C600 C602 1.378 . S
C600 C604 1.350 . S
C601 C604 1.463 . S
C601 C606 1.350 . S
C601 N609 1.427 . S
C602 H593 0.930 . S
C602 C600 1.378 . S
C602 C603 1.367 . S
C603 C602 1.367 . S
C603 C605 1.433 . S
C604 C600 1.350 . S
C604 C601 1.463 . S
C604 N608 1.427 . S
C605 H595 0.929 . S
C605 C603 1.433 . S
C605 N608 1.384 . S
C606 H597 0.929 . S
C606 C598 1.378 . S
C606 C601 1.350 . S
C607 H594 0.929 . S
C607 C599 1.433 . S
C607 N609 1.384 . S
N608 C604 1.427 . S
N608 C605 1.384 . S
N609 C601 1.427 . S
N609 C607 1.384 . S
H610 C616 0.930 . S
H611 C620 0.930 . S
H612 C625 0.929 . S
H613 C623 0.929 . S
H614 C618 0.929 . S
H615 C624 0.929 . S
C616 H610 0.930 . S
C616 C617 1.367 . S
C616 C624 1.378 . S
C617 C616 1.367 . S
C617 C625 1.433 . S
C618 H614 0.929 . S
C618 C620 1.378 . S
C618 C622 1.350 . S
C619 C622 1.463 . S
C619 C624 1.350 . S
C619 N627 1.427 . S
C620 H611 0.930 . S
C620 C618 1.378 . S
C620 C621 1.367 . S
C621 C620 1.367 . S
C621 C623 1.433 . S
C622 C618 1.350 . S
C622 C619 1.463 . S
C622 N626 1.427 . S
C623 H613 0.929 . S
C623 C621 1.433 . S
C623 N626 1.384 . S
C624 H615 0.929 . S
C624 C616 1.378 . S
C624 C619 1.350 . S
C625 H612 0.929 . S
C625 C617 1.433 . S
C625 N627 1.384 . S
N626 C622 1.427 . S
N626 C623 1.384 . S
N627 C619 1.427 . S
N627 C625 1.384 . S
H628 C634 0.930 . S
H629 C638 0.930 . S
H630 C643 0.929 . S
H631 C641 0.929 . S
H632 C636 0.929 . S
H633 C642 0.929 . S
C634 H628 0.930 . S
C634 C635 1.367 . S
C634 C642 1.378 . S
C635 C634 1.367 . S
C635 C643 1.433 . S
C636 H632 0.929 . S
C636 C638 1.378 . S
C636 C640 1.350 . S
C637 C640 1.463 . S
C637 C642 1.350 . S
C637 N645 1.427 . S
C638 H629 0.930 . S
C638 C636 1.378 . S
C638 C639 1.367 . S
C639 C638 1.367 . S
C639 C641 1.433 . S
C640 C636 1.350 . S
C640 C637 1.463 . S
C640 N644 1.427 . S
C641 H631 0.929 . S
C641 C639 1.433 . S
C641 N644 1.384 . S
C642 H633 0.929 . S
C642 C634 1.378 . S
C642 C637 1.350 . S
C643 H630 0.929 . S
C643 C635 1.433 . S
C643 N645 1.384 . S
N644 C640 1.427 . S
N644 C641 1.384 . S
N645 C637 1.427 . S
N645 C643 1.384 . S
H646 C652 0.930 . S
H647 C656 0.930 . S
H648 C661 0.929 . S
H649 C659 0.929 . S
H650 C654 0.923 1_455 S
H651 C660 0.929 . S
C652 H646 0.930 . S
C652 C653 1.367 . S
C652 C660 1.378 . S
C653 C652 1.367 . S
C653 C661 1.433 . S
C654 H650 0.923 1_655 S
C654 C656 1.374 1_655 S
C654 C658 1.360 . S
C655 C658 1.463 . S
C655 C660 1.350 . S
C655 N663 1.427 . S
C656 H647 0.930 . S
C656 C654 1.374 1_455 S
C656 C657 1.380 . S
C657 C656 1.380 . S
C657 C659 1.412 1_455 S
C658 C654 1.360 . S
C658 C655 1.463 . S
C658 N662 1.427 . S
C659 H649 0.929 . S
C659 C657 1.412 1_655 S
C659 N662 1.384 . S
C660 H651 0.929 . S
C660 C652 1.378 . S
C660 C655 1.350 . S
C661 H648 0.929 . S
C661 C653 1.433 . S
C661 N663 1.384 . S
N662 C658 1.427 . S
N662 C659 1.384 . S
N663 C655 1.427 . S
N663 C661 1.384 . S
H664 C670 0.930 . S
H665 C674 0.930 . S
H666 C679 0.929 . S
H667 C677 0.929 . S
H668 C672 0.929 . S
H669 C678 0.929 . S
C670 H664 0.930 . S
C670 C671 1.367 . S
C670 C678 1.378 . S
C671 C670 1.367 . S
C671 C679 1.433 . S
C672 H668 0.929 . S
C672 C674 1.378 . S
C672 C676 1.350 . S
C673 C676 1.463 . S
C673 C678 1.350 . S
C673 N681 1.427 . S
C674 H665 0.930 . S
C674 C672 1.378 . S
C674 C675 1.367 . S
C675 C674 1.367 . S
C675 C677 1.433 . S
C676 C672 1.350 . S
C676 C673 1.463 . S
C676 N680 1.427 . S
C677 H667 0.929 . S
C677 C675 1.433 . S
C677 N680 1.384 . S
C678 H669 0.929 . S
C678 C670 1.378 . S
C678 C673 1.350 . S
C679 H666 0.929 . S
C679 C671 1.433 . S
C679 N681 1.384 . S
N680 C676 1.427 . S
N680 C677 1.384 . S
N681 C673 1.427 . S
N681 C679 1.384 . S
H682 C688 0.930 . S
H683 C692 0.930 . S
H684 C697 0.929 . S
H685 C695 0.929 . S
H686 C690 0.929 . S
H687 C696 0.929 . S
C688 H682 0.930 . S
C688 C689 1.367 . S
C688 C696 1.378 . S
C689 C688 1.367 . S
C689 C697 1.433 . S
C690 H686 0.929 . S
C690 C692 1.378 . S
C690 C694 1.350 . S
C691 C694 1.463 . S
C691 C696 1.350 . S
C691 N699 1.427 . S
C692 H683 0.930 . S
C692 C690 1.378 . S
C692 C693 1.367 . S
C693 C692 1.367 . S
C693 C695 1.433 . S
C694 C690 1.350 . S
C694 C691 1.463 . S
C694 N698 1.427 . S
C695 H685 0.929 . S
C695 C693 1.433 . S
C695 N698 1.384 . S
C696 H687 0.929 . S
C696 C688 1.378 . S
C696 C691 1.350 . S
C697 H684 0.929 . S
C697 C689 1.433 . S
C697 N699 1.384 . S
N698 C694 1.427 . S
N698 C695 1.384 . S
N699 C691 1.427 . S
N699 C697 1.384 . S
H700 C706 0.930 . S
H701 C710 0.930 . S
H702 C715 0.929 . S
H703 C713 0.929 1_554 S
H704 C708 0.929 . S
H705 C714 0.929 . S
C706 H700 0.930 . S
C706 C707 1.367 . S
C706 C714 1.378 1_545 S
C707 C706 1.367 . S
C707 C715 1.433 . S
C708 H704 0.929 . S
C708 C710 1.378 . S
C708 C712 1.350 . S
C709 C712 1.463 . S
C709 C714 1.350 . S
C709 N717 1.427 1_565 S
C710 H701 0.930 . S
C710 C708 1.378 . S
C710 C711 1.367 . S
C711 C710 1.367 . S
C711 C713 1.433 . S
C712 C708 1.350 . S
C712 C709 1.463 . S
C712 N716 1.427 . S
C713 H703 0.929 1_556 S
C713 C711 1.433 . S
C713 N716 1.384 . S
C714 H705 0.929 . S
C714 C706 1.378 1_565 S
C714 C709 1.350 . S
C715 H702 0.929 . S
C715 C707 1.433 . S
C715 N717 1.384 . S
N716 C712 1.427 . S
N716 C713 1.384 . S
N717 C709 1.427 1_545 S
N717 C715 1.384 . S
H718 C724 0.930 . S
H719 C728 0.930 . S
H720 C733 0.929 . S
H721 C731 0.929 . S
H722 C726 0.929 . S
H723 C732 0.929 . S
C724 H718 0.930 . S
C724 C725 1.367 . S
C724 C732 1.378 . S
C725 C724 1.367 . S
C725 C733 1.433 . S
C726 H722 0.929 . S
C726 C728 1.378 . S
C726 C730 1.350 . S
C727 C730 1.463 . S
C727 C732 1.350 . S
C727 N735 1.427 . S
C728 H719 0.930 . S
C728 C726 1.378 . S
C728 C729 1.367 . S
C729 C728 1.367 . S
C729 C731 1.433 . S
C730 C726 1.350 . S
C730 C727 1.463 . S
C730 N734 1.427 . S
C731 H721 0.929 . S
C731 C729 1.433 . S
C731 N734 1.384 . S
C732 H723 0.929 . S
C732 C724 1.378 . S
C732 C727 1.350 . S
C733 H720 0.929 . S
C733 C725 1.433 . S
C733 N735 1.384 . S
N734 C730 1.427 . S
N734 C731 1.384 . S
N735 C727 1.427 . S
N735 C733 1.384 . S
H736 C742 0.930 . S
H737 C746 0.930 . S
H738 C751 0.929 . S
H739 C749 0.929 . S
H740 C744 0.929 . S
H741 C750 0.929 . S
C742 H736 0.930 . S
C742 C743 1.367 1_545 S
C742 C750 1.378 . S
C743 C742 1.367 1_565 S
C743 C751 1.433 . S
C744 H740 0.929 . S
C744 C746 1.378 . S
C744 C748 1.350 . S
C745 C748 1.463 . S
C745 C750 1.350 . S
C745 N753 1.427 1_545 S
C746 H737 0.930 . S
C746 C744 1.378 . S
C746 C747 1.367 . S
C747 C746 1.367 . S
C747 C749 1.433 . S
C748 C744 1.350 . S
C748 C745 1.463 . S
C748 N752 1.427 . S
C749 H739 0.929 . S
C749 C747 1.433 . S
C749 N752 1.384 . S
C750 H741 0.929 . S
C750 C742 1.378 . S
C750 C745 1.350 . S
C751 H738 0.929 . S
C751 C743 1.433 . S
C751 N753 1.384 . S
N752 C748 1.427 . S
N752 C749 1.384 . S
N753 C745 1.427 1_565 S
N753 C751 1.384 . S
H754 C760 0.930 . S
H755 C764 0.930 . S
H756 C769 0.929 . S
H757 C767 0.929 . S
H758 C762 0.929 . S
H759 C768 0.929 . S
C760 H754 0.930 . S
C760 C761 1.367 . S
C760 C768 1.378 . S
C761 C760 1.367 . S
C761 C769 1.433 . S
C762 H758 0.929 . S
C762 C764 1.378 . S
C762 C766 1.350 . S
C763 C766 1.463 . S
C763 C768 1.350 . S
C763 N771 1.427 . S
C764 H755 0.930 . S
C764 C762 1.378 . S
C764 C765 1.367 . S
C765 C764 1.367 . S
C765 C767 1.433 . S
C766 C762 1.350 . S
C766 C763 1.463 . S
C766 N770 1.427 . S
C767 H757 0.929 . S
C767 C765 1.433 . S
C767 N770 1.384 . S
C768 H759 0.929 . S
C768 C760 1.378 . S
C768 C763 1.350 . S
C769 H756 0.929 . S
C769 C761 1.433 . S
C769 N771 1.384 . S
N770 C766 1.427 . S
N770 C767 1.384 . S
N771 C763 1.427 . S
N771 C769 1.384 . S
H772 C778 0.951 . S
H773 C782 0.930 . S
H774 C787 0.929 . S
H775 C785 0.929 . S
H776 C780 0.929 . S
H777 C786 0.929 . S
C778 H772 0.951 . S
C778 C779 1.378 . S
C778 C786 1.347 1_565 S
C779 C778 1.378 . S
C779 C787 1.433 1_565 S
C780 H776 0.929 . S
C780 C782 1.378 . S
C780 C784 1.350 . S
C781 C784 1.463 . S
C781 C786 1.350 . S
C781 N789 1.427 . S
C782 H773 0.930 . S
C782 C780 1.378 . S
C782 C783 1.367 . S
C783 C782 1.367 . S
C783 C785 1.433 . S
C784 C780 1.350 . S
C784 C781 1.463 . S
C784 N788 1.427 . S
C785 H775 0.929 . S
C785 C783 1.433 . S
C785 N788 1.384 . S
C786 H777 0.929 . S
C786 C778 1.347 1_545 S
C786 C781 1.350 . S
C787 H774 0.929 . S
C787 C779 1.433 1_545 S
C787 N789 1.384 . S
N788 C784 1.427 . S
N788 C785 1.384 . S
N789 C781 1.427 . S
N789 C787 1.384 . S
H790 C796 0.930 . S
H791 C800 0.930 . S
H792 C805 0.929 . S
H793 C803 0.929 . S
H794 C798 0.929 . S
H795 C804 0.929 . S
C796 H790 0.930 . S
C796 C797 1.367 . S
C796 C804 1.378 . S
C797 C796 1.367 . S
C797 C805 1.433 . S
C798 H794 0.929 . S
C798 C800 1.378 . S
C798 C802 1.350 . S
C799 C802 1.463 . S
C799 C804 1.350 . S
C799 N807 1.427 . S
C800 H791 0.930 . S
C800 C798 1.378 . S
C800 C801 1.367 . S
C801 C800 1.367 . S
C801 C803 1.433 . S
C802 C798 1.350 . S
C802 C799 1.463 . S
C802 N806 1.427 . S
C803 H793 0.929 . S
C803 C801 1.433 . S
C803 N806 1.384 . S
C804 H795 0.929 . S
C804 C796 1.378 . S
C804 C799 1.350 . S
C805 H792 0.929 . S
C805 C797 1.433 . S
C805 N807 1.384 . S
N806 C802 1.427 . S
N806 C803 1.384 . S
N807 C799 1.427 . S
N807 C805 1.384 . S
H808 C814 0.930 . S
H809 C818 0.930 . S
H810 C823 0.929 . S
H811 C821 0.929 . S
H812 C816 0.929 . S
H813 C822 0.929 . S
C814 H808 0.930 . S
C814 C815 1.367 . S
C814 C822 1.378 . S
C815 C814 1.367 . S
C815 C823 1.433 . S
C816 H812 0.929 . S
C816 C818 1.378 . S
C816 C820 1.350 . S
C817 C820 1.463 . S
C817 C822 1.350 . S
C817 N825 1.427 . S
C818 H809 0.930 . S
C818 C816 1.378 . S
C818 C819 1.367 . S
C819 C818 1.367 . S
C819 C821 1.433 . S
C820 C816 1.350 . S
C820 C817 1.463 . S
C820 N824 1.427 . S
C821 H811 0.929 . S
C821 C819 1.433 . S
C821 N824 1.384 . S
C822 H813 0.929 . S
C822 C814 1.378 . S
C822 C817 1.350 . S
C823 H810 0.929 . S
C823 C815 1.433 . S
C823 N825 1.384 . S
N824 C820 1.427 . S
N824 C821 1.384 . S
N825 C817 1.427 . S
N825 C823 1.384 . S
H826 C832 0.930 . S
H827 C836 0.930 1_565 S
H828 C841 0.929 . S
H829 C839 0.929 . S
H830 C834 0.929 . S
H831 C840 0.929 . S
C832 H826 0.930 . S
C832 C833 1.367 . S
C832 C840 1.378 . S
C833 C832 1.367 . S
C833 C841 1.433 . S
C834 H830 0.929 . S
C834 C836 1.378 . S
C834 C838 1.350 . S
C835 C838 1.463 . S
C835 C840 1.350 . S
C835 N843 1.427 . S
C836 H827 0.930 1_545 S
C836 C834 1.378 . S
C836 C837 1.367 . S
C837 C836 1.367 . S
C837 C839 1.433 . S
C838 C834 1.350 . S
C838 C835 1.463 . S
C838 N842 1.427 . S
C839 H829 0.929 . S
C839 C837 1.433 . S
C839 N842 1.384 . S
C840 H831 0.929 . S
C840 C832 1.378 . S
C840 C835 1.350 . S
C841 H828 0.929 . S
C841 C833 1.433 . S
C841 N843 1.384 . S
N842 C838 1.427 . S
N842 C839 1.384 . S
N843 C835 1.427 . S
N843 C841 1.384 . S
H844 C850 0.930 . S
H845 C854 0.930 . S
H846 C859 0.929 . S
H847 C857 0.929 . S
H848 C852 0.929 . S
H849 C858 0.929 . S
C850 H844 0.930 . S
C850 C851 1.367 . S
C850 C858 1.378 . S
C851 C850 1.367 . S
C851 C859 1.433 . S
C852 H848 0.929 . S
C852 C854 1.378 . S
C852 C856 1.350 . S
C853 C856 1.463 . S
C853 C858 1.350 . S
C853 N861 1.427 . S
C854 H845 0.930 . S
C854 C852 1.378 . S
C854 C855 1.367 . S
C855 C854 1.367 . S
C855 C857 1.433 . S
C856 C852 1.350 . S
C856 C853 1.463 . S
C856 N860 1.427 . S
C857 H847 0.929 . S
C857 C855 1.433 . S
C857 N860 1.384 . S
C858 H849 0.929 . S
C858 C850 1.378 . S
C858 C853 1.350 . S
C859 H846 0.929 . S
C859 C851 1.433 . S
C859 N861 1.384 . S
N860 C856 1.427 . S
N860 C857 1.384 . S
N861 C853 1.427 . S
N861 C859 1.384 . S
H862 C868 0.930 . S
H863 C872 0.930 . S
H864 C877 0.929 . S
H865 C875 0.929 . S
H866 C870 0.929 . S
H867 C876 0.929 . S
C868 H862 0.930 . S
C868 C869 1.367 . S
C868 C876 1.378 . S
C869 C868 1.367 . S
C869 C877 1.433 . S
C870 H866 0.929 . S
C870 C872 1.378 . S
C870 C874 1.350 . S
C871 C874 1.463 . S
C871 C876 1.350 . S
C871 N879 1.427 . S
C872 H863 0.930 . S
C872 C870 1.378 . S
C872 C873 1.367 . S
C873 C872 1.367 . S
C873 C875 1.433 . S
C874 C870 1.350 . S
C874 C871 1.463 . S
C874 N878 1.427 . S
C875 H865 0.929 . S
C875 C873 1.433 . S
C875 N878 1.384 . S
C876 H867 0.929 . S
C876 C868 1.378 . S
C876 C871 1.350 . S
C877 H864 0.929 . S
C877 C869 1.433 . S
C877 N879 1.384 . S
N878 C874 1.427 . S
N878 C875 1.384 . S
N879 C871 1.427 . S
N879 C877 1.384 . S
H880 C886 0.930 . S
H881 C890 0.930 . S
H882 C895 0.929 . S
H883 C893 0.929 . S
H884 C888 0.929 . S
H885 C894 0.929 . S
C886 H880 0.930 . S
C886 C887 1.367 . S
C886 C894 1.378 . S
C887 C886 1.367 . S
C887 C895 1.433 . S
C888 H884 0.929 . S
C888 C890 1.378 . S
C888 C892 1.350 . S
C889 C892 1.463 . S
C889 C894 1.350 . S
C889 N897 1.427 . S
C890 H881 0.930 . S
C890 C888 1.378 . S
C890 C891 1.367 . S
C891 C890 1.367 . S
C891 C893 1.433 . S
C892 C888 1.350 . S
C892 C889 1.463 . S
C892 N896 1.427 . S
C893 H883 0.929 . S
C893 C891 1.433 . S
C893 N896 1.384 . S
C894 H885 0.929 . S
C894 C886 1.378 . S
C894 C889 1.350 . S
C895 H882 0.929 . S
C895 C887 1.433 . S
C895 N897 1.384 . S
N896 C892 1.427 . S
N896 C893 1.384 . S
N897 C889 1.427 . S
N897 C895 1.384 . S
H898 C904 0.930 . S
H899 C908 0.930 . S
H900 C913 0.929 . S
H901 C911 0.929 . S
H902 C906 0.929 . S
H903 C912 0.929 . S
C904 H898 0.930 . S
C904 C905 1.367 . S
C904 C912 1.378 . S
C905 C904 1.367 . S
C905 C913 1.433 1_545 S
C906 H902 0.929 . S
C906 C908 1.378 . S
C906 C910 1.350 1_565 S
C907 C910 1.463 . S
C907 C912 1.350 . S
C907 N915 1.427 1_545 S
C908 H899 0.930 . S
C908 C906 1.378 . S
C908 C909 1.367 1_565 S
C909 C908 1.367 1_545 S
C909 C911 1.433 . S
C910 C906 1.350 1_545 S
C910 C907 1.463 . S
C910 N914 1.427 . S
C911 H901 0.929 . S
C911 C909 1.433 . S
C911 N914 1.384 . S
C912 H903 0.929 . S
C912 C904 1.378 . S
C912 C907 1.350 . S
C913 H900 0.929 . S
C913 C905 1.433 1_565 S
C913 N915 1.384 . S
N914 C910 1.427 . S
N914 C911 1.384 . S
N915 C907 1.427 1_565 S
N915 C913 1.384 . S
H916 C922 0.930 . S
H917 C926 0.930 . S
H918 C931 0.929 . S
H919 C929 0.929 . S
H920 C924 0.929 . S
H921 C930 0.929 . S
C922 H916 0.930 . S
C922 C923 1.367 . S
C922 C930 1.378 . S
C923 C922 1.367 . S
C923 C931 1.433 . S
C924 H920 0.929 . S
C924 C926 1.378 . S
C924 C928 1.350 . S
C925 C928 1.463 . S
C925 C930 1.350 . S
C925 N933 1.427 . S
C926 H917 0.930 . S
C926 C924 1.378 . S
C926 C927 1.367 . S
C927 C926 1.367 . S
C927 C929 1.433 . S
C928 C924 1.350 . S
C928 C925 1.463 . S
C928 N932 1.427 . S
C929 H919 0.929 . S
C929 C927 1.433 . S
C929 N932 1.384 . S
C930 H921 0.929 . S
C930 C922 1.378 . S
C930 C925 1.350 . S
C931 H918 0.929 . S
C931 C923 1.433 . S
C931 N933 1.384 . S
N932 C928 1.427 . S
N932 C929 1.384 . S
N933 C925 1.427 . S
N933 C931 1.384 . S
H934 C940 0.930 1_655 S
H935 C944 0.930 . S
H936 C949 0.929 . S
H937 C947 0.929 . S
H938 C942 0.929 . S
H939 C948 0.929 . S
C940 H934 0.930 1_455 S
C940 C941 1.367 1_455 S
C940 C948 1.378 . S
C941 C940 1.367 1_655 S
C941 C949 1.433 . S
C942 H938 0.929 . S
C942 C944 1.378 . S
C942 C946 1.350 . S
C943 C946 1.463 . S
C943 C948 1.350 . S
C943 N951 1.427 . S
C944 H935 0.930 . S
C944 C942 1.378 . S
C944 C945 1.367 . S
C945 C944 1.367 . S
C945 C947 1.433 . S
C946 C942 1.350 . S
C946 C943 1.463 . S
C946 N950 1.427 . S
C947 H937 0.929 . S
C947 C945 1.433 . S
C947 N950 1.384 . S
C948 H939 0.929 . S
C948 C940 1.378 . S
C948 C943 1.350 . S
C949 H936 0.929 . S
C949 C941 1.433 . S
C949 N951 1.384 1_655 S
N950 C946 1.427 . S
N950 C947 1.384 . S
N951 C943 1.427 . S
N951 C949 1.384 1_455 S
H952 C958 0.930 . S
H953 C962 0.930 . S
H954 C967 0.929 . S
H955 C965 0.929 . S
H956 C960 0.929 . S
H957 C966 0.929 . S
C958 H952 0.930 . S
C958 C959 1.367 . S
C958 C966 1.378 . S
C959 C958 1.367 . S
C959 C967 1.433 . S
C960 H956 0.929 . S
C960 C962 1.378 . S
C960 C964 1.350 . S
C961 C964 1.463 . S
C961 C966 1.350 . S
C961 N969 1.427 . S
C962 H953 0.930 . S
C962 C960 1.378 . S
C962 C963 1.367 . S
C963 C962 1.367 . S
C963 C965 1.433 . S
C964 C960 1.350 . S
C964 C961 1.463 . S
C964 N968 1.427 . S
C965 H955 0.929 . S
C965 C963 1.433 . S
C965 N968 1.384 . S
C966 H957 0.929 . S
C966 C958 1.378 . S
C966 C961 1.350 . S
C967 H954 0.929 . S
C967 C959 1.433 . S
C967 N969 1.384 . S
N968 C964 1.427 . S
N968 C965 1.384 . S
N969 C961 1.427 . S
N969 C967 1.384 . S
H970 C976 0.914 1_455 S
H971 C980 0.930 . S
H972 C985 0.929 . S
H973 C983 0.929 . S
H974 C978 0.929 . S
H975 C984 0.929 1_455 S
C976 H970 0.914 1_655 S
C976 C977 1.367 . S
C976 C984 1.378 . S
C977 C976 1.367 . S
C977 C985 1.433 . S
C978 H974 0.929 . S
C978 C980 1.378 . S
C978 C982 1.350 . S
C979 C982 1.463 1_554 S
C979 C984 1.350 . S
C979 N987 1.427 . S
C980 H971 0.930 . S
C980 C978 1.378 . S
C980 C981 1.367 . S
C981 C980 1.367 . S
C981 C983 1.433 1_655 S
C982 C978 1.350 . S
C982 C979 1.463 1_556 S
C982 N986 1.434 1_655 S
C983 H973 0.929 . S
C983 C981 1.433 1_455 S
C983 N986 1.398 . S
C984 H975 0.929 1_655 S
C984 C976 1.378 . S
C984 C979 1.350 . S
C985 H972 0.929 . S
C985 C977 1.433 . S
C985 N987 1.384 . S
N986 C982 1.434 1_455 S
N986 C983 1.398 . S
N987 C979 1.427 . S
N987 C985 1.384 . S
H988 C994 0.930 . S
H989 C998 0.930 . S
H990 C1003 0.929 . S
H991 C1001 0.929 . S
H992 C996 0.929 . S
H993 C1002 0.929 . S
C994 H988 0.930 . S
C994 C995 1.367 . S
C994 C1002 1.378 . S
C995 C994 1.367 . S
C995 C1003 1.433 . S
C996 H992 0.929 . S
C996 C998 1.378 . S
C996 C1000 1.350 . S
C997 C1000 1.463 . S
C997 C1002 1.350 . S
C997 N1005 1.427 . S
C998 H989 0.930 . S
C998 C996 1.378 . S
C998 C999 1.367 . S
C999 C998 1.367 . S
C999 C1001 1.433 . S
C1000 C996 1.350 . S
C1000 C997 1.463 . S
C1000 N1004 1.427 . S
C1001 H991 0.929 . S
C1001 C999 1.433 . S
C1001 N1004 1.384 . S
C1002 H993 0.929 . S
C1002 C994 1.378 . S
C1002 C997 1.350 . S
C1003 H990 0.929 . S
C1003 C995 1.433 . S
C1003 N1005 1.384 . S
N1004 C1000 1.427 . S
N1004 C1001 1.384 . S
N1005 C997 1.427 . S
N1005 C1003 1.384 . S
H1006 C1012 0.930 . S
H1007 C1016 0.930 . S
H1008 C1021 0.929 . S
H1009 C1019 0.929 . S
H1010 C1014 0.929 . S
H1011 C1020 0.929 . S
C1012 H1006 0.930 . S
C1012 C1013 1.367 . S
C1012 C1020 1.378 . S
C1013 C1012 1.367 . S
C1013 C1021 1.433 1_455 S
C1014 H1010 0.929 . S
C1014 C1016 1.378 . S
C1014 C1018 1.350 1_655 S
C1015 C1018 1.463 . S
C1015 C1020 1.350 1_556 S
C1015 N1023 1.427 1_455 S
C1016 H1007 0.930 . S
C1016 C1014 1.378 . S
C1016 C1017 1.367 1_655 S
C1017 C1016 1.367 1_455 S
C1017 C1019 1.433 . S
C1018 C1014 1.350 1_455 S
C1018 C1015 1.463 . S
C1018 N1022 1.427 . S
C1019 H1009 0.929 . S
C1019 C1017 1.433 . S
C1019 N1022 1.384 . S
C1020 H1011 0.929 . S
C1020 C1012 1.378 . S
C1020 C1015 1.350 1_554 S
C1021 H1008 0.929 . S
C1021 C1013 1.433 1_655 S
C1021 N1023 1.384 1_554 S
N1022 C1018 1.427 . S
N1022 C1019 1.384 . S
N1023 C1015 1.427 1_655 S
N1023 C1021 1.384 1_556 S
H1024 C1030 0.930 . S
H1025 C1034 0.930 . S
H1026 C1039 0.929 . S
H1027 C1037 0.929 . S
H1028 C1032 0.929 . S
H1029 C1038 0.929 . S
C1030 H1024 0.930 . S
C1030 C1031 1.367 . S
C1030 C1038 1.378 . S
C1031 C1030 1.367 . S
C1031 C1039 1.433 . S
C1032 H1028 0.929 . S
C1032 C1034 1.378 . S
C1032 C1036 1.350 . S
C1033 C1036 1.463 . S
C1033 C1038 1.350 . S
C1033 N1041 1.427 . S
C1034 H1025 0.930 . S
C1034 C1032 1.378 . S
C1034 C1035 1.367 . S
C1035 C1034 1.367 . S
C1035 C1037 1.433 . S
C1036 C1032 1.350 . S
C1036 C1033 1.463 . S
C1036 N1040 1.427 . S
C1037 H1027 0.929 . S
C1037 C1035 1.433 . S
C1037 N1040 1.384 . S
C1038 H1029 0.929 . S
C1038 C1030 1.378 . S
C1038 C1033 1.350 . S
C1039 H1026 0.929 . S
C1039 C1031 1.433 . S
C1039 N1041 1.384 . S
N1040 C1036 1.427 . S
N1040 C1037 1.384 . S
N1041 C1033 1.427 . S
N1041 C1039 1.384 . S
H1042 C1048 0.930 . S
H1043 C1052 0.930 . S
H1044 C1057 0.929 . S
H1045 C1055 0.929 . S
H1046 C1050 0.929 . S
H1047 C1056 0.929 . S
C1048 H1042 0.930 . S
C1048 C1049 1.367 . S
C1048 C1056 1.378 1_556 S
C1049 C1048 1.367 . S
C1049 C1057 1.433 1_556 S
C1050 H1046 0.929 . S
C1050 C1052 1.378 . S
C1050 C1054 1.350 . S
C1051 C1054 1.463 . S
C1051 C1056 1.350 . S
C1051 N1059 1.427 . S
C1052 H1043 0.930 . S
C1052 C1050 1.378 . S
C1052 C1053 1.367 . S
C1053 C1052 1.367 . S
C1053 C1055 1.433 . S
C1054 C1050 1.350 . S
C1054 C1051 1.463 . S
C1054 N1058 1.427 . S
C1055 H1045 0.929 . S
C1055 C1053 1.433 . S
C1055 N1058 1.384 . S
C1056 H1047 0.929 . S
C1056 C1048 1.378 1_554 S
C1056 C1051 1.350 . S
C1057 H1044 0.929 . S
C1057 C1049 1.433 1_554 S
C1057 N1059 1.384 . S
N1058 C1054 1.427 . S
N1058 C1055 1.384 . S
N1059 C1051 1.427 . S
N1059 C1057 1.384 . S
H1060 C1066 0.930 . S
H1061 C1070 0.930 . S
H1062 C1075 0.929 . S
H1063 C1073 0.929 . S
H1064 C1068 0.929 . S
H1065 C1074 0.929 . S
C1066 H1060 0.930 . S
C1066 C1067 1.367 . S
C1066 C1074 1.378 . S
C1067 C1066 1.367 . S
C1067 C1075 1.433 . S
C1068 H1064 0.929 . S
C1068 C1070 1.378 . S
C1068 C1072 1.350 . S
C1069 C1072 1.463 . S
C1069 C1074 1.350 . S
C1069 N1077 1.427 . S
C1070 H1061 0.930 . S
C1070 C1068 1.378 . S
C1070 C1071 1.367 . S
C1071 C1070 1.367 . S
C1071 C1073 1.433 . S
C1072 C1068 1.350 . S
C1072 C1069 1.463 . S
C1072 N1076 1.427 . S
C1073 H1063 0.929 . S
C1073 C1071 1.433 . S
C1073 N1076 1.384 . S
C1074 H1065 0.929 . S
C1074 C1066 1.378 . S
C1074 C1069 1.350 . S
C1075 H1062 0.929 . S
C1075 C1067 1.433 . S
C1075 N1077 1.384 . S
N1076 C1072 1.427 . S
N1076 C1073 1.384 . S
N1077 C1069 1.427 . S
N1077 C1075 1.384 . S
H1078 C1084 0.930 . S
H1079 C1088 0.930 . S
H1080 C1093 0.929 . S
H1081 C1091 0.929 . S
H1082 C1086 0.929 . S
H1083 C1092 0.929 . S
C1084 H1078 0.930 . S
C1084 C1085 1.367 . S
C1084 C1092 1.378 1_556 S
C1085 C1084 1.367 . S
C1085 C1093 1.433 . S
C1086 H1082 0.929 . S
C1086 C1088 1.378 . S
C1086 C1090 1.350 . S
C1087 C1090 1.463 . S
C1087 C1092 1.350 . S
C1087 N1095 1.427 . S
C1088 H1079 0.930 . S
C1088 C1086 1.378 . S
C1088 C1089 1.367 . S
C1089 C1088 1.367 . S
C1089 C1091 1.433 . S
C1090 C1086 1.350 . S
C1090 C1087 1.463 . S
C1090 N1094 1.427 . S
C1091 H1081 0.929 . S
C1091 C1089 1.433 . S
C1091 N1094 1.384 . S
C1092 H1083 0.929 . S
C1092 C1084 1.378 1_554 S
C1092 C1087 1.350 . S
C1093 H1080 0.929 . S
C1093 C1085 1.433 . S
C1093 N1095 1.384 1_556 S
N1094 C1090 1.427 . S
N1094 C1091 1.384 . S
N1095 C1087 1.427 . S
N1095 C1093 1.384 1_554 S
H1096 C1102 0.930 . S
H1097 C1106 0.930 . S
H1098 C1111 0.929 . S
H1099 C1109 0.929 . S
H1100 C1104 0.929 . S
H1101 C1110 0.929 . S
C1102 H1096 0.930 . S
C1102 C1103 1.367 . S
C1102 C1110 1.378 . S
C1103 C1102 1.367 . S
C1103 C1111 1.433 . S
C1104 H1100 0.929 . S
C1104 C1106 1.378 . S
C1104 C1108 1.350 . S
C1105 C1108 1.463 . S
C1105 C1110 1.350 . S
C1105 N1113 1.427 . S
C1106 H1097 0.930 . S
C1106 C1104 1.378 . S
C1106 C1107 1.367 . S
C1107 C1106 1.367 . S
C1107 C1109 1.433 . S
C1108 C1104 1.350 . S
C1108 C1105 1.463 . S
C1108 N1112 1.427 . S
C1109 H1099 0.929 . S
C1109 C1107 1.433 . S
C1109 N1112 1.384 . S
C1110 H1101 0.929 . S
C1110 C1102 1.378 . S
C1110 C1105 1.350 . S
C1111 H1098 0.929 . S
C1111 C1103 1.433 . S
C1111 N1113 1.384 . S
N1112 C1108 1.427 . S
N1112 C1109 1.384 . S
N1113 C1105 1.427 . S
N1113 C1111 1.384 . S
H1114 C1120 0.930 . S
H1115 C1124 0.930 . S
H1116 C1129 0.929 . S
H1117 C1127 0.929 . S
H1118 C1122 0.929 . S
H1119 C1128 0.929 . S
C1120 H1114 0.930 . S
C1120 C1121 1.367 . S
C1120 C1128 1.378 . S
C1121 C1120 1.367 . S
C1121 C1129 1.433 . S
C1122 H1118 0.929 . S
C1122 C1124 1.378 . S
C1122 C1126 1.350 . S
C1123 C1126 1.463 . S
C1123 C1128 1.350 . S
C1123 N1131 1.427 . S
C1124 H1115 0.930 . S
C1124 C1122 1.378 . S
C1124 C1125 1.367 . S
C1125 C1124 1.367 . S
C1125 C1127 1.433 . S
C1126 C1122 1.350 . S
C1126 C1123 1.463 . S
C1126 N1130 1.427 . S
C1127 H1117 0.929 . S
C1127 C1125 1.433 . S
C1127 N1130 1.384 . S
C1128 H1119 0.929 . S
C1128 C1120 1.378 . S
C1128 C1123 1.350 . S
C1129 H1116 0.929 . S
C1129 C1121 1.433 . S
C1129 N1131 1.384 . S
N1130 C1126 1.427 . S
N1130 C1127 1.384 . S
N1131 C1123 1.427 . S
N1131 C1129 1.384 . S
H1132 C1138 0.930 . S
H1133 C1142 0.930 . S
H1134 C1147 0.929 . S
H1135 C1145 0.929 . S
H1136 C1140 0.929 . S
H1137 C1146 0.929 . S
C1138 H1132 0.930 . S
C1138 C1139 1.367 . S
C1138 C1146 1.378 . S
C1139 C1138 1.367 . S
C1139 C1147 1.433 . S
C1140 H1136 0.929 . S
C1140 C1142 1.378 . S
C1140 C1144 1.350 . S
C1141 C1144 1.463 . S
C1141 C1146 1.350 . S
C1141 N1149 1.427 . S
C1142 H1133 0.930 . S
C1142 C1140 1.378 . S
C1142 C1143 1.367 . S
C1143 C1142 1.367 . S
C1143 C1145 1.433 . S
C1144 C1140 1.350 . S
C1144 C1141 1.463 . S
C1144 N1148 1.427 . S
C1145 H1135 0.929 . S
C1145 C1143 1.433 . S
C1145 N1148 1.384 . S
C1146 H1137 0.929 . S
C1146 C1138 1.378 . S
C1146 C1141 1.350 . S
C1147 H1134 0.929 . S
C1147 C1139 1.433 . S
C1147 N1149 1.384 . S
N1148 C1144 1.427 . S
N1148 C1145 1.384 . S
N1149 C1141 1.427 . S
N1149 C1147 1.384 . S
H1150 C1156 0.930 . S
H1151 C1160 0.930 . S
H1152 C1165 0.929 . S
H1153 C1163 0.929 . S
H1154 C1158 0.929 . S
H1155 C1164 0.929 . S
C1156 H1150 0.930 . S
C1156 C1157 1.367 . S
C1156 C1164 1.378 . S
C1157 C1156 1.367 . S
C1157 C1165 1.433 . S
C1158 H1154 0.929 . S
C1158 C1160 1.378 . S
C1158 C1162 1.350 . S
C1159 C1162 1.463 . S
C1159 C1164 1.350 . S
C1159 N1167 1.427 . S
C1160 H1151 0.930 . S
C1160 C1158 1.378 . S
C1160 C1161 1.367 . S
C1161 C1160 1.367 . S
C1161 C1163 1.433 . S
C1162 C1158 1.350 . S
C1162 C1159 1.463 . S
C1162 N1166 1.427 . S
C1163 H1153 0.929 . S
C1163 C1161 1.433 . S
C1163 N1166 1.384 . S
C1164 H1155 0.929 . S
C1164 C1156 1.378 . S
C1164 C1159 1.350 . S
C1165 H1152 0.929 . S
C1165 C1157 1.433 . S
C1165 N1167 1.384 . S
N1166 C1162 1.427 . S
N1166 C1163 1.384 . S
N1167 C1159 1.427 . S
N1167 C1165 1.384 . S
H1168 C1174 0.930 . S
H1169 C1178 0.930 1_554 S
H1170 C1183 0.929 . S
H1171 C1181 0.929 . S
H1172 C1176 0.915 1_554 S
H1173 C1182 0.929 . S
C1174 H1168 0.930 . S
C1174 C1175 1.367 . S
C1174 C1182 1.378 . S
C1175 C1174 1.367 . S
C1175 C1183 1.433 . S
C1176 H1172 0.915 1_556 S
C1176 C1178 1.378 . S
C1176 C1180 1.350 . S
C1177 C1180 1.463 . S
C1177 C1182 1.350 . S
C1177 N1185 1.427 . S
C1178 H1169 0.930 1_556 S
C1178 C1176 1.378 . S
C1178 C1179 1.367 . S
C1179 C1178 1.367 . S
C1179 C1181 1.433 . S
C1180 C1176 1.350 . S
C1180 C1177 1.463 . S
C1180 N1184 1.427 . S
C1181 H1171 0.929 . S
C1181 C1179 1.433 . S
C1181 N1184 1.384 . S
C1182 H1173 0.929 . S
C1182 C1174 1.378 . S
C1182 C1177 1.350 . S
C1183 H1170 0.929 . S
C1183 C1175 1.433 . S
C1183 N1185 1.384 . S
N1184 C1180 1.427 . S
N1184 C1181 1.384 . S
N1185 C1177 1.427 . S
N1185 C1183 1.384 . S
H1186 C1192 0.930 . S
H1187 C1196 0.930 . S
H1188 C1201 0.929 . S
H1189 C1199 0.929 . S
H1190 C1194 0.929 . S
H1191 C1200 0.929 . S
C1192 H1186 0.930 . S
C1192 C1193 1.367 . S
C1192 C1200 1.378 . S
C1193 C1192 1.367 . S
C1193 C1201 1.433 . S
C1194 H1190 0.929 . S
C1194 C1196 1.378 . S
C1194 C1198 1.350 . S
C1195 C1198 1.463 . S
C1195 C1200 1.350 . S
C1195 N1203 1.427 . S
C1196 H1187 0.930 . S
C1196 C1194 1.378 . S
C1196 C1197 1.367 . S
C1197 C1196 1.367 . S
C1197 C1199 1.433 . S
C1198 C1194 1.350 . S
C1198 C1195 1.463 . S
C1198 N1202 1.427 . S
C1199 H1189 0.929 . S
C1199 C1197 1.433 . S
C1199 N1202 1.384 . S
C1200 H1191 0.929 . S
C1200 C1192 1.378 . S
C1200 C1195 1.350 . S
C1201 H1188 0.929 . S
C1201 C1193 1.433 . S
C1201 N1203 1.384 . S
N1202 C1198 1.427 . S
N1202 C1199 1.384 . S
N1203 C1195 1.427 . S
N1203 C1201 1.384 . S
H1204 C1210 0.930 . S
H1205 C1214 0.930 1_556 S
H1206 C1219 0.929 . S
H1207 C1217 0.929 . S
H1208 C1212 0.929 . S
H1209 C1218 0.929 . S
C1210 H1204 0.930 . S
C1210 C1211 1.367 . S
C1210 C1218 1.378 . S
C1211 C1210 1.367 . S
C1211 C1219 1.433 . S
C1212 H1208 0.929 . S
C1212 C1214 1.378 . S
C1212 C1216 1.350 . S
C1213 C1216 1.463 . S
C1213 C1218 1.350 . S
C1213 N1221 1.427 . S
C1214 H1205 0.930 1_554 S
C1214 C1212 1.378 . S
C1214 C1215 1.367 . S
C1215 C1214 1.367 . S
C1215 C1217 1.433 . S
C1216 C1212 1.350 . S
C1216 C1213 1.463 . S
C1216 N1220 1.427 . S
C1217 H1207 0.929 . S
C1217 C1215 1.433 . S
C1217 N1220 1.384 . S
C1218 H1209 0.929 . S
C1218 C1210 1.378 . S
C1218 C1213 1.350 . S
C1219 H1206 0.929 . S
C1219 C1211 1.433 . S
C1219 N1221 1.384 . S
N1220 C1216 1.427 . S
N1220 C1217 1.384 . S
N1221 C1213 1.427 . S
N1221 C1219 1.384 . S
H1222 C1228 0.930 . S
H1223 C1232 0.930 . S
H1224 C1237 0.929 . S
H1225 C1235 0.929 . S
H1226 C1230 0.929 . S
H1227 C1236 0.929 . S
C1228 H1222 0.930 . S
C1228 C1229 1.367 . S
C1228 C1236 1.378 . S
C1229 C1228 1.367 . S
C1229 C1237 1.433 1_565 S
C1230 H1226 0.929 . S
C1230 C1232 1.378 . S
C1230 C1234 1.350 . S
C1231 C1234 1.463 . S
C1231 C1236 1.350 . S
C1231 N1239 1.427 . S
C1232 H1223 0.930 . S
C1232 C1230 1.378 . S
C1232 C1233 1.367 . S
C1233 C1232 1.367 . S
C1233 C1235 1.433 . S
C1234 C1230 1.350 . S
C1234 C1231 1.463 . S
C1234 N1238 1.427 . S
C1235 H1225 0.929 . S
C1235 C1233 1.433 . S
C1235 N1238 1.384 . S
C1236 H1227 0.929 . S
C1236 C1228 1.378 . S
C1236 C1231 1.350 . S
C1237 H1224 0.929 . S
C1237 C1229 1.433 1_545 S
C1237 N1239 1.384 1_545 S
N1238 C1234 1.427 . S
N1238 C1235 1.384 . S
N1239 C1231 1.427 . S
N1239 C1237 1.384 1_565 S
C387 C216 1.287 . S
C383 N66 1.287 . S
C405 C229 1.547 . S
C401 N79 1.539 . S
C419 N92 1.850 . S
C423 C249 1.778 . S
C441 C263 1.289 . S
C437 N54 1.334 . S
C459 C275 1.525 . S
C455 N131 1.517 . S
C477 C289 1.164 . S
C473 N158 1.157 . S
C491 N145 1.540 . S
C495 C299 1.533 . S
C513 C314 1.771 . S
C509 N118 1.770 . S
C527 N148 1.901 . S
C531 C328 1.838 . S
C549 C347 1.419 . S
C545 N122 1.505 . S
C563 N132 1.241 . S
C567 C327 1.227 . S
C585 C345 1.440 . S
C581 N161 1.412 . S
C599 N96 1.942 . S
C603 C361 1.871 . S
C617 N53 1.679 . S
C621 C355 1.692 . S
C635 N67 1.134 . S
C639 C359 1.134 . S
C653 N83 1.379 . S
C657 C356 1.374 . S
C671 N44 1.416 . S
C675 C258 1.399 . S
C689 N187 1.457 . S
C693 C257 1.474 . S
C711 C221 1.130 . S
C707 N197 1.179 . S
C729 C235 1.343 . S
C725 N106 1.414 . S
C743 N57 1.816 . S
C747 C272 1.837 . S
C765 C317 1.500 . S
C761 N144 1.479 . S
C783 C271 1.370 . S
C779 N119 1.364 . S
C801 C303 1.730 . S
C797 N157 1.688 . S
C819 C300 1.287 . S
C815 N183 1.273 . S
C833 N196 1.539 . S
C837 C313 1.547 . S
C851 N105 1.850 . S
C855 C277 1.777 . S
C873 C291 1.295 . S
C869 N171 1.332 . S
C887 N40 1.518 . S
C891 C247 1.526 . S
C909 C261 1.165 . S
C905 N2 1.158 1_655 S
C927 C215 1.538 . S
C923 N15 1.543 . S
C945 C230 1.779 . S
C941 N27 1.778 . S
C959 N18 1.903 . S
C963 C342 1.844 . S
C977 N31 1.508 . S
C981 C333 1.409 . S
C995 N41 1.239 . S
C999 C341 1.223 . S
C1013 N5 1.420 . S
C1017 C331 1.444 . S
C1035 C375 1.866 . S
C1031 N109 1.946 . S
C1053 C369 1.692 . S
C1049 N170 1.679 . S
C1071 C373 1.134 . S
C1067 N184 1.134 . S
C1085 N200 1.376 . S
C1089 C370 1.377 . S
C1103 N135 1.417 . S
C1107 C286 1.399 . S
C1125 C285 1.474 . S
C1121 N70 1.457 . S
C1143 C305 1.120 . S
C1139 N80 1.185 . S
C1161 C319 1.347 . S
C1157 N93 1.414 . S
C1175 N174 1.815 . S
C1179 C244 1.838 . S
C1197 C233 1.499 . S
C1193 N14 1.479 . S
C1211 N28 1.365 . S
C1215 C243 1.368 . S
C1233 C219 1.731 . S
C1229 N1 1.692 1_565 S
