# Generated by pormake.
# Topology anh, (6,3)-cn, num edge types: 1
# Building blocks:
#     Node 0, Type 0, BuildingBlock: PAMTUU_clean_sbu_0, # of connection points: 6
#     Node 1, Type 0, BuildingBlock: PAMTUU_clean_sbu_0, # of connection points: 6
#     Node 2, Type 0, BuildingBlock: PAMTUU_clean_sbu_0, # of connection points: 6
#     Node 3, Type 1, BuildingBlock: MIDCAF_clean_linker_0, # of connection points: 3
#     Node 4, Type 1, BuildingBlock: MIDCAF_clean_linker_0, # of connection points: 3
#     Node 5, Type 1, BuildingBlock: MIDCAF_clean_linker_0, # of connection points: 3
#     Node 6, Type 1, BuildingBlock: MIDCAF_clean_linker_0, # of connection points: 3
#     Node 7, Type 1, BuildingBlock: MIDCAF_clean_linker_0, # of connection points: 3
#     Node 8, Type 1, BuildingBlock: MIDCAF_clean_linker_0, # of connection points: 3
#     Edge 9, Type (0, 1), BuildingBlock: CIFDUS_clean_linker_0, # of connection points: 2
#     Edge 10, Type (0, 1), BuildingBlock: CIFDUS_clean_linker_0, # of connection points: 2
#     Edge 11, Type (0, 1), BuildingBlock: CIFDUS_clean_linker_0, # of connection points: 2
#     Edge 12, Type (0, 1), BuildingBlock: CIFDUS_clean_linker_0, # of connection points: 2
#     Edge 13, Type (0, 1), BuildingBlock: CIFDUS_clean_linker_0, # of connection points: 2
#     Edge 14, Type (0, 1), BuildingBlock: CIFDUS_clean_linker_0, # of connection points: 2
#     Edge 15, Type (0, 1), BuildingBlock: CIFDUS_clean_linker_0, # of connection points: 2
#     Edge 16, Type (0, 1), BuildingBlock: CIFDUS_clean_linker_0, # of connection points: 2
#     Edge 17, Type (0, 1), BuildingBlock: CIFDUS_clean_linker_0, # of connection points: 2
#     Edge 18, Type (0, 1), BuildingBlock: CIFDUS_clean_linker_0, # of connection points: 2
#     Edge 19, Type (0, 1), BuildingBlock: CIFDUS_clean_linker_0, # of connection points: 2
#     Edge 20, Type (0, 1), BuildingBlock: CIFDUS_clean_linker_0, # of connection points: 2
#     Edge 21, Type (0, 1), BuildingBlock: CIFDUS_clean_linker_0, # of connection points: 2
#     Edge 22, Type (0, 1), BuildingBlock: CIFDUS_clean_linker_0, # of connection points: 2
#     Edge 23, Type (0, 1), BuildingBlock: CIFDUS_clean_linker_0, # of connection points: 2
#     Edge 24, Type (0, 1), BuildingBlock: CIFDUS_clean_linker_0, # of connection points: 2
#     Edge 25, Type (0, 1), BuildingBlock: CIFDUS_clean_linker_0, # of connection points: 2
#     Edge 26, Type (0, 1), BuildingBlock: CIFDUS_clean_linker_0, # of connection points: 2
# Relax obj value: 0.265
# Max RMSD: 0.192
# Mean RMSD: 0.159
data_MOF--net-anh--node1-PAMTUU_clean_sbu_0--node2-MIDCAF_clean_linker_0--edge1-CIFDUS_clean_linker_0
_symmetry_space_group_name_H-M    P1
_symmetry_Int_Tables_number       1
_symmetry_cell_setting            triclinic
loop_
_symmetry_equiv_pos_as_xyz
'x, y, z'
_cell_length_a     31.874288
_cell_length_b     31.966986
_cell_length_c     59.946814
_cell_angle_alpha  91.65215
_cell_angle_beta   91.400735
_cell_angle_gamma 120.32245
loop_
_atom_site_label
_atom_site_type_symbol
_atom_site_fract_x
_atom_site_fract_y
_atom_site_fract_z
_atom_type_partial_charge
Tb0 Tb 0.14264 0.69461 0.16089 0.0
Tb1 Tb 0.19198 0.62701 0.16146 0.0
C2 C 0.1774 0.66551 0.11685 0.0
C3 C 1.04039 0.71027 0.16548 0.0
C4 C 0.94366 0.6337 0.16391 0.0
C5 C 0.95961 0.66818 0.14746 0.0
C6 C 1.00775 0.70653 0.14831 0.0
C7 C 1.02243 0.67896 0.18333 0.0
C8 C 0.97434 0.6408 0.18248 0.0
C9 C 1.09285 0.73541 0.16142 0.0
O10 O 1.08338 0.62083 0.16724 0.0
O11 O 1.11612 0.58012 0.15016 0.0
O12 O 0.15673 0.61967 0.19271 0.0
O13 O 0.16711 0.69524 0.19502 0.0
O14 O 0.19325 0.56578 0.14907 0.0
O15 O 0.23755 0.60737 0.17835 0.0
O16 O 0.25224 0.70132 0.16872 0.0
O17 O 0.21967 0.74803 0.1576 0.0
O18 O 0.14416 0.67197 0.12633 0.0
O19 O 0.20679 0.6562 0.12857 0.0
C20 C 1.07864 0.58023 0.15867 0.0
O21 O 1.12163 0.73902 0.1781 0.0
O22 O 1.10346 0.7206 0.1431 0.0
C23 C 0.15867 0.65562 0.20454 0.0
C24 C 0.26243 0.56006 0.15744 0.0
C25 C 0.33087 0.53548 0.14316 0.0
C26 C 0.28397 0.49924 0.14848 0.0
C27 C 0.25024 0.51148 0.15561 0.0
C28 C 0.30908 0.59673 0.15221 0.0
C29 C 0.34321 0.58446 0.14512 0.0
C30 C 0.22481 0.57021 0.16454 0.0
C31 C 0.2572 0.74372 0.16399 0.0
H32 H 0.93631 0.6628 0.13289 0.0
H33 H 1.02075 0.7299 0.13431 0.0
H34 H 1.04659 0.68059 0.19679 0.0
H35 H 0.96255 0.61424 0.19521 0.0
H36 H 0.27279 0.46116 0.14663 0.0
H37 H 0.2142 0.48278 0.15946 0.0
H38 H 0.31892 0.6345 0.1535 0.0
H39 H 0.37912 0.61316 0.14118 0.0
Tb40 Tb 0.62139 0.10924 0.48292 0.0
Tb41 Tb 0.73508 0.15844 0.50017 0.0
C42 C 0.70365 0.15224 0.44977 0.0
C43 C 0.49604 1.01441 0.47647 0.0
C44 C 0.43768 0.91737 0.4881 0.0
C45 C 0.4524 0.92833 0.46608 0.0
C46 C 0.48113 0.97639 0.46031 0.0
C47 C 0.47996 1.00343 0.49836 0.0
C48 C 0.451 0.95535 0.50409 0.0
C49 C 0.53302 1.06426 0.4712 0.0
O50 O 0.63763 1.04999 0.47988 0.0
O51 O 0.71105 0.08132 0.49969 0.0
O52 O 0.69254 0.15024 0.52946 0.0
O53 O 0.62185 0.08475 0.51583 0.0
O54 O 0.80856 0.20752 0.49488 0.0
O55 O 0.78745 0.16542 0.52431 0.0
O56 O 0.72261 0.21969 0.49843 0.0
O57 O 0.63896 0.1819 0.49512 0.0
O58 O 0.66516 0.15251 0.45658 0.0
O59 O 0.73104 0.14446 0.46385 0.0
C60 C 0.67218 1.04461 0.48964 0.0
O61 O 0.55104 0.09591 0.4881 0.0
O62 O 0.5669 1.06782 0.45818 0.0
C63 C 0.64998 0.11204 0.53266 0.0
C64 C 0.84775 0.24798 0.5286 0.0
C65 C 0.88768 0.3452 0.54368 0.0
C66 C 0.91617 0.33016 0.53218 0.0
C67 C 0.8962 0.28182 0.52461 0.0
C68 C 0.82113 0.26179 0.54225 0.0
C69 C 0.84108 0.31005 0.54984 0.0
C70 C 0.82219 0.20258 0.51485 0.0
C71 C 0.68204 0.22123 0.49848 0.0
H72 H 0.4415 0.8997 0.45327 0.0
H73 H 0.49287 0.98375 0.44334 0.0
H74 H 0.49082 1.03181 0.51129 0.0
H75 H 0.43985 0.94784 0.52114 0.0
H76 H 0.95205 0.35648 0.52699 0.0
H77 H 0.91711 0.27187 0.51399 0.0
H78 H 0.78348 0.23628 0.54544 0.0
H79 H 0.8185 0.32065 0.55877 0.0
Tb80 Tb 0.68799 0.59357 0.81846 0.0
Tb81 Tb 0.74672 0.70924 0.83096 0.0
C82 C 0.71643 0.66722 0.78142 0.0
C83 C 0.65009 0.46479 0.82069 0.0
C84 C 0.66042 0.3907 0.83925 0.0
C85 C 0.61701 0.38005 0.82758 0.0
C86 C 0.61191 0.41682 0.81842 0.0
C87 C 0.69339 0.47604 0.83252 0.0
C88 C 0.69867 0.43908 0.84163 0.0
C89 C 0.64272 0.50299 0.81216 0.0
O90 O 0.76461 0.61533 0.81438 0.0
O91 O 0.8036 0.68988 0.83344 0.0
O92 O 0.71277 0.67035 0.86081 0.0
O93 O 0.72058 0.60559 0.85161 0.0
O94 O 0.77187 0.78016 0.8212 0.0
O95 O 0.78781 0.76695 0.85455 0.0
O96 O 0.67098 0.6924 0.82716 0.0
O97 O 0.63088 0.60912 0.82766 0.0
O98 O 0.68132 0.62713 0.78896 0.0
O99 O 0.752 0.69938 0.79496 0.0
C100 C 0.80423 0.65237 0.82404 0.0
O101 O 0.63229 0.52582 0.82737 0.0
O102 O 0.67495 0.53255 0.79866 0.0
C103 C 0.7158 0.6328 0.86669 0.0
C104 C 0.76138 0.82346 0.85005 0.0
C105 C 0.68725 0.84593 0.85151 0.0
C106 C 0.72827 0.8738 0.83909 0.0
C107 C 0.7654 0.86274 0.83845 0.0
C108 C 0.72354 0.80019 0.86486 0.0
C109 C 0.68671 0.81153 0.8656 0.0
C110 C 0.78597 0.79816 0.84159 0.0
C111 C 0.6306 0.65019 0.82827 0.0
H112 H 0.58734 0.343 0.82489 0.0
H113 H 0.57814 0.40778 0.80954 0.0
H114 H 0.72293 0.51329 0.8347 0.0
H115 H 0.73255 0.4482 0.85041 0.0
H116 H 0.72896 0.90024 0.82797 0.0
H117 H 0.79402 0.88089 0.82683 0.0
H118 H 0.71929 0.76955 0.87394 0.0
H119 H 0.65527 0.7898 0.8753 0.0
C120 C 0.53143 1.00072 0.203 0.0
C121 C 0.50588 1.0027 0.184 0.0
C122 C 0.52645 1.04686 0.17294 0.0
C123 C 0.57082 0.08781 0.18092 0.0
H124 H 0.70266 0.27468 0.18836 0.0
H125 H 0.76884 0.35295 0.17626 0.0
H126 H 0.8738 0.31236 0.19635 0.0
H127 H 0.80815 0.23537 0.20892 0.0
H128 H 0.76462 0.22848 0.27331 0.0
H129 H 0.76899 0.22855 0.31432 0.0
H130 H 0.62655 0.10039 0.31282 0.0
H131 H 0.62196 0.09954 0.27233 0.0
H132 H 0.59266 1.03775 0.22592 0.0
H133 H 0.51693 0.96808 0.2123 0.0
H134 H 0.50816 1.04988 0.15814 0.0
H135 H 0.58503 0.12132 0.17231 0.0
N136 N 0.67181 0.16853 0.19975 0.0
N137 N 0.71959 0.20374 0.2332 0.0
N138 N 0.64772 0.12881 0.23346 0.0
C139 C 0.7124 0.20579 0.21085 0.0
C140 C 0.68711 0.16558 0.24469 0.0
C141 C 0.63946 0.12925 0.21117 0.0
C142 C 0.75013 0.24854 0.19931 0.0
C143 C 0.73978 0.28212 0.18965 0.0
C144 C 0.77773 0.32711 0.18295 0.0
C145 C 0.82677 0.33905 0.18533 0.0
C146 C 0.83661 0.30434 0.19405 0.0
C147 C 0.79894 0.26012 0.20122 0.0
C148 C 0.69272 0.16432 0.26939 0.0
C149 C 0.73449 0.19998 0.28171 0.0
C150 C 0.73721 0.19992 0.30516 0.0
C151 C 0.69801 0.16459 0.31666 0.0
C152 C 0.65719 0.12817 0.30434 0.0
C153 C 0.65466 0.12782 0.28107 0.0
C154 C 0.59532 0.08578 0.20036 0.0
C155 C 0.57508 1.04129 0.21099 0.0
C156 C 0.66273 0.49691 0.5028 0.0
C157 C 0.67442 0.4697 0.51733 0.0
C158 C 0.68908 0.48804 0.5395 0.0
C159 C 0.69156 0.53111 0.54698 0.0
H160 H 0.72748 0.7266 0.50587 0.0
H161 H 0.73256 0.80054 0.49174 0.0
H162 H 0.61906 0.78316 0.53491 0.0
H163 H 0.61482 0.71041 0.54921 0.0
H164 H 0.6941 0.72045 0.60414 0.0
H165 H 0.69559 0.72351 0.64517 0.0
H166 H 0.66485 0.57566 0.64473 0.0
H167 H 0.66345 0.57236 0.60422 0.0
H168 H 0.65508 0.55985 0.4989 0.0
H169 H 0.65167 0.48453 0.48552 0.0
H170 H 0.69748 0.46839 0.55152 0.0
H171 H 0.7027 0.54278 0.56433 0.0
N172 N 0.67546 0.63575 0.53022 0.0
N173 N 0.67445 0.67657 0.5636 0.0
N174 N 0.67883 0.60607 0.56525 0.0
C175 C 0.67353 0.67354 0.54085 0.0
C176 C 0.67731 0.64312 0.57592 0.0
C177 C 0.67794 0.60145 0.54264 0.0
C178 C 0.67058 0.71229 0.5286 0.0
C179 C 0.70281 0.73791 0.51189 0.0
C180 C 0.70599 0.7806 0.50397 0.0
C181 C 0.67628 0.79817 0.5122 0.0
C182 C 0.64223 0.77081 0.52799 0.0
C183 C 0.63986 0.72899 0.53623 0.0
C184 C 0.67843 0.64609 0.60078 0.0
C185 C 0.68764 0.68862 0.61282 0.0
C186 C 0.68885 0.69054 0.6363 0.0
C187 C 0.6801 0.64974 0.64814 0.0
C188 C 0.67123 0.60752 0.63609 0.0
C189 C 0.67061 0.60576 0.61279 0.0
C190 C 0.67905 0.55802 0.53277 0.0
C191 C 0.66514 0.54054 0.51039 0.0
C192 C 1.09556 0.70493 0.86975 0.0
C193 C 1.06691 0.67756 0.85074 0.0
C194 C 1.08083 0.64735 0.83935 0.0
C195 C 1.12167 0.64434 0.84704 0.0
H196 H 0.28181 0.64306 0.837 0.0
H197 H 0.35833 0.64829 0.82536 0.0
H198 H 0.41856 0.69415 0.89279 0.0
H199 H 0.34489 0.69015 0.90403 0.0
H200 H 0.28604 0.66222 0.94362 0.0
H201 H 0.28258 0.66066 0.98403 0.0
H202 H 0.1359 0.6351 0.97909 0.0
H203 H 0.13998 0.63835 0.93859 0.0
H204 H 0.15537 0.72239 0.89254 0.0
H205 H 1.08611 0.72795 0.87937 0.0
H206 H 1.06001 0.62581 0.8246 0.0
H207 H 0.13038 0.61965 0.8384 0.0
N208 N 0.22537 0.66417 0.86783 0.0
N209 N 0.25478 0.65553 0.90285 0.0
N210 N 0.18277 0.65745 0.90052 0.0
C211 C 0.26018 0.66077 0.88048 0.0
C212 C 0.21649 0.65364 0.91302 0.0
C213 C 0.1863 0.66256 0.87807 0.0
C214 C 0.30648 0.66609 0.87152 0.0
C215 C 0.31169 0.65476 0.8492 0.0
C216 C 0.35545 0.65731 0.84259 0.0
C217 C 0.39523 0.67197 0.85807 0.0
C218 C 0.3896 0.68349 0.88018 0.0
C219 C 0.34654 0.68074 0.8867 0.0
C220 C 0.2133 0.65047 0.93772 0.0
C221 C 0.2529 0.65608 0.95108 0.0
C222 C 0.25083 0.65494 0.97436 0.0
C223 C 0.20894 0.64773 0.98499 0.0
C224 C 0.1691 0.64155 0.9716 0.0
C225 C 0.17131 0.64308 0.9483 0.0
C226 C 0.14914 0.67103 0.86644 0.0
C227 C 0.13559 0.70166 0.87741 0.0
C228 C 0.25483 0.63765 0.4463 0.0
C229 C 0.25748 0.64466 0.46969 0.0
C230 C 0.21415 0.62194 0.48123 0.0
C231 C 0.16923 0.60023 0.46948 0.0
H232 H 1.06247 0.65159 0.47054 0.0
H233 H 1.00565 0.62923 0.50048 0.0
H234 H 0.89523 0.51216 0.45766 0.0
H235 H 0.95143 0.53587 0.42768 0.0
H236 H 1.03065 0.60843 0.37047 0.0
H237 H 1.03619 0.60978 0.32979 0.0
H238 H 0.12552 0.54389 0.33365 0.0
H239 H 1.12007 0.54243 0.37403 0.0
H240 H 0.20941 0.61476 0.41647 0.0
H241 H 0.28735 0.65437 0.43678 0.0
H242 H 0.215 0.62545 0.49929 0.0
H243 H 0.13656 0.58717 0.4788 0.0
N244 N 1.08851 0.59638 0.44501 0.0
N245 N 1.04398 0.58537 0.4114 0.0
N246 N 1.11708 0.58402 0.41142 0.0
C247 C 1.04945 0.59352 0.43396 0.0
C248 C 1.0781 0.58087 0.40004 0.0
C249 C 1.12229 0.59135 0.43392 0.0
C250 C 1.01157 0.59421 0.4472 0.0
C251 C 1.02518 0.62269 0.46724 0.0
C252 C 0.99264 0.6099 0.48437 0.0
C253 C 0.94673 0.56756 0.48184 0.0
C254 C 0.93052 0.54466 0.46038 0.0
C255 C 0.96286 0.55804 0.4431 0.0
C256 C 1.07524 0.57568 0.37543 0.0
C257 C 1.05067 0.59342 0.36256 0.0
C258 C 1.0541 0.59451 0.33934 0.0
C259 C 1.08148 0.57717 0.32865 0.0
C260 C 1.10389 0.55718 0.34143 0.0
C261 C 1.101 0.55665 0.36458 0.0
C262 C 0.16705 0.59996 0.44602 0.0
C263 C 0.20992 0.61531 0.43455 0.0
C264 C 0.60789 0.14692 0.79569 0.0
C265 C 0.59247 0.13476 0.81756 0.0
C266 C 0.55796 0.08645 0.82157 0.0
C267 C 0.53862 1.05129 0.80396 0.0
H268 H 0.42708 0.9025 0.78383 0.0
H269 H 0.4284 0.83981 0.80543 0.0
H270 H 0.50206 0.81192 0.75262 0.0
H271 H 0.50008 0.8738 0.731 0.0
H272 H 0.51671 0.94986 0.68682 0.0
H273 H 0.55064 0.97655 0.65039 0.0
H274 H 0.628 0.12526 0.67636 0.0
H275 H 0.59499 0.09897 0.71269 0.0
H276 H 0.60102 0.12322 0.76156 0.0
H277 H 0.63337 0.18402 0.79181 0.0
H278 H 0.54523 1.07609 0.83822 0.0
H279 H 0.51178 1.01444 0.80754 0.0
N280 N 0.5032 0.97994 0.76696 0.0
N281 N 0.50426 0.95881 0.72922 0.0
N282 N 0.54791 1.0403 0.74223 0.0
C283 C 0.48834 0.94543 0.75014 0.0
C284 C 0.53349 1.00656 0.72511 0.0
C285 C 0.5331 1.02734 0.76319 0.0
C286 C 0.46563 0.89446 0.75628 0.0
C287 C 0.44098 0.88097 0.7763 0.0
C288 C 0.44172 0.84505 0.78868 0.0
C289 C 0.46749 0.82281 0.78119 0.0
C290 C 0.48266 0.82906 0.75906 0.0
C291 C 0.48164 0.86479 0.7466 0.0
C292 C 0.5529 1.02214 0.70273 0.0
C293 C 0.54091 0.98821 0.68478 0.0
C294 C 0.56029 1.00353 0.66389 0.0
C295 C 0.59209 1.05303 0.66054 0.0
C296 C 0.6042 0.08684 0.67849 0.0
C297 C 0.58482 1.07163 0.6993 0.0
C298 C 0.55325 1.06398 0.782 0.0
C299 C 0.58858 0.11206 0.77818 0.0
C300 C 0.75198 0.38738 0.08367 0.0
C301 C 0.74541 0.38589 0.10681 0.0
C302 C 0.69791 0.36083 0.1144 0.0
C303 C 0.65808 0.34484 0.09934 0.0
H304 H 0.54556 0.36099 0.10686 0.0
H305 H 0.49675 0.38639 0.12757 0.0
H306 H 0.43899 0.40652 0.06548 0.0
H307 H 0.48827 0.38201 0.04471 0.0
H308 H 0.60914 0.47174 0.02354 0.0
H309 H 0.64176 0.5238 0.9924 0.0
H310 H 0.67904 0.4228 0.96213 0.0
H311 H 0.65 0.37305 0.99462 0.0
H312 H 0.71909 0.37786 0.05109 0.0
H313 H 0.78811 0.40607 0.07722 0.0
H314 H 0.69178 0.35801 0.13213 0.0
H315 H 0.62228 0.33009 0.10598 0.0
N316 N 0.58799 0.3526 0.07233 0.0
N317 N 0.57061 0.38515 0.04142 0.0
N318 N 0.63881 0.37559 0.04196 0.0
C319 C 0.55889 0.36615 0.0618 0.0
C320 C 0.61006 0.38948 0.0313 0.0
C321 C 0.62786 0.35681 0.06252 0.0
C322 C 0.52148 0.37031 0.07412 0.0
C323 C 0.52165 0.36976 0.09758 0.0
C324 C 0.49373 0.38437 0.10948 0.0
C325 C 0.46503 0.39954 0.09812 0.0
C326 C 0.46189 0.39632 0.07467 0.0
C327 C 0.48985 0.3819 0.06278 0.0
C328 C 0.62678 0.41826 0.01131 0.0
C329 C 0.62414 0.46065 0.01013 0.0
C330 C 0.64268 0.49041 0.99212 0.0
C331 C 0.66301 0.47778 0.97444 0.0
C332 C 0.66476 0.43461 0.97555 0.0
C333 C 0.6476 0.40562 0.99401 0.0
C334 C 0.66532 0.35402 0.0765 0.0
C335 C 0.7122 0.37143 0.06862 0.0
H336 H 0.34675 0.46497 0.15805 0.0
H337 H 0.39185 0.57367 0.10872 0.0
H338 H 0.43986 0.54269 0.09132 0.0
H339 H 0.46338 0.48076 0.08831 0.0
H340 H 0.41388 0.3687 0.13606 0.0
H341 H 0.37269 0.40475 0.15584 0.0
C342 C 0.36706 0.48188 0.14347 0.0
C343 C 0.36525 0.5212 0.13453 0.0
C344 C 0.39323 0.46292 0.13314 0.0
C345 C 0.39285 0.54358 0.11603 0.0
C346 C 0.41988 0.52556 0.10592 0.0
C347 C 0.44322 0.46399 0.10294 0.0
C348 C 0.44095 0.42169 0.11052 0.0
C349 C 0.41928 0.48452 0.11401 0.0
C350 C 0.41603 0.40121 0.1299 0.0
C351 C 0.39243 0.42173 0.14115 0.0
H352 H 0.83165 0.38096 0.53027 0.0
H353 H 0.97599 0.42509 0.55615 0.0
H354 H 1.00495 0.50741 0.54416 0.0
H355 H 0.99284 0.55753 0.51801 0.0
H356 H 0.84925 0.51106 0.48971 0.0
H357 H 0.81552 0.43937 0.51197 0.0
C358 C 0.86871 0.40923 0.53444 0.0
C359 C 0.90167 0.397 0.54394 0.0
C360 C 0.88524 0.45573 0.52675 0.0
C361 C 0.95012 0.43364 0.54865 0.0
C362 C 0.96664 0.48058 0.54171 0.0
C363 C 0.95378 0.53317 0.51745 0.0
C364 C 0.92379 0.53889 0.50162 0.0
C365 C 0.93512 0.49096 0.52947 0.0
C366 C 0.87327 0.50684 0.50133 0.0
C367 C 0.85404 0.46562 0.51396 0.0
H368 H 0.61988 0.77897 0.82319 0.0
H369 H 0.65323 0.90611 0.86384 0.0
H370 H 0.57955 0.90328 0.84849 0.0
H371 H 0.51329 0.87093 0.81997 0.0
H372 H 0.48114 0.74456 0.7786 0.0
H373 H 0.54567 0.73887 0.79878 0.0
C374 C 0.61008 0.80518 0.82906 0.0
C375 C 0.64103 0.84239 0.84467 0.0
C376 C 0.56806 0.80312 0.82019 0.0
C377 C 0.62933 0.87709 0.85192 0.0
C378 C 0.58736 0.87532 0.84319 0.0
C379 C 0.51891 0.84089 0.81591 0.0
C380 C 0.4927 0.80836 0.79765 0.0
C381 C 0.55721 0.83917 0.82691 0.0
C382 C 0.50107 0.77015 0.79246 0.0
C383 C 0.53829 0.7673 0.80379 0.0
H384 H 0.944 0.55929 0.14315 0.0
H385 H 0.84886 0.60165 0.17307 0.0
H386 H 0.77792 0.52256 0.16132 0.0
H387 H 0.74386 0.44668 0.13859 0.0
H388 H 0.83954 0.40466 0.10845 0.0
H389 H 0.9102 0.47798 0.12505 0.0
C390 C 0.90768 0.55049 0.14749 0.0
C391 C 0.90101 0.58548 0.15889 0.0
C392 C 0.86767 0.50532 0.14074 0.0
C393 C 0.85426 0.5748 0.16425 0.0
C394 C 0.81401 0.52975 0.15759 0.0
C395 C 0.78005 0.45248 0.13632 0.0
C396 C 0.7865 0.4205 0.12209 0.0
C397 C 0.82031 0.49523 0.14538 0.0
C398 C 0.83372 0.42902 0.11912 0.0
C399 C 0.87405 0.47107 0.12844 0.0
H400 H 0.44949 0.84091 0.47749 0.0
H401 H 0.3555 0.87974 0.51164 0.0
H402 H 0.29495 0.79423 0.51446 0.0
H403 H 0.26233 0.71166 0.49976 0.0
H404 H 0.35318 0.67189 0.46331 0.0
H405 H 0.42194 0.75462 0.46928 0.0
C406 C 0.41602 0.83045 0.48585 0.0
C407 C 0.40627 0.86634 0.49384 0.0
C408 C 0.38081 0.78124 0.48685 0.0
C409 C 0.36358 0.85268 0.50522 0.0
C410 C 0.32887 0.80381 0.50674 0.0
C411 C 0.2976 0.72016 0.49393 0.0
C412 C 0.30222 0.68588 0.48057 0.0
C413 C 0.33612 0.76803 0.4966 0.0
C414 C 0.3484 0.69796 0.47321 0.0
C415 C 0.38759 0.74532 0.47647 0.0
H416 H 0.59621 0.31117 0.86054 0.0
H417 H 0.73856 0.37899 0.83327 0.0
H418 H 0.73556 0.30126 0.83125 0.0
H419 H 0.68261 0.21314 0.82629 0.0
H420 H 0.53492 0.14566 0.8474 0.0
H421 H 0.5502 0.22306 0.86356 0.0
C422 C 0.62713 0.30902 0.8548 0.0
C423 C 0.66668 0.35013 0.84628 0.0
C424 C 0.62369 0.26374 0.85224 0.0
C425 C 0.70734 0.34763 0.83962 0.0
C426 C 0.70539 0.30302 0.83822 0.0
C427 C 0.65428 0.21524 0.83504 0.0
C428 C 0.60723 0.17432 0.83484 0.0
C429 C 0.66219 0.26051 0.84276 0.0
C430 C 0.5713 0.17678 0.84698 0.0
C431 C 0.57982 0.22127 0.85598 0.0
H432 H 0.74177 1.01904 0.4969 0.0
H433 H 0.58705 0.95698 0.48542 0.0
H434 H 0.57443 0.87593 0.49084 0.0
H435 H 0.60691 0.82225 0.50059 0.0
H436 H 0.76194 0.88413 0.51025 0.0
H437 H 0.77465 0.96476 0.50364 0.0
C438 C 0.70527 0.98779 0.49539 0.0
C439 C 0.66546 0.99464 0.4908 0.0
C440 C 0.69823 0.94083 0.49826 0.0
C441 C 0.61853 0.95327 0.48879 0.0
C442 C 0.61122 0.90669 0.49202 0.0
C443 C 0.64352 0.85333 0.50111 0.0
C444 C 0.6834 0.84668 0.50599 0.0
C445 C 0.65071 0.89997 0.49702 0.0
C446 C 0.73054 0.88765 0.50635 0.0
C447 C 0.73784 0.93403 0.5027 0.0
H448 H 0.89759 0.72601 0.83526 0.0
H449 H 0.81502 0.57302 0.81696 0.0
H450 H 0.88816 0.5672 0.82232 0.0
H451 H 0.97568 0.60471 0.83425 0.0
H452 H 1.05799 0.75851 0.85104 0.0
H453 H 0.98564 0.76443 0.84426 0.0
C454 C 0.8955 0.69138 0.83228 0.0
C455 C 0.85026 0.65005 0.82574 0.0
C456 C 0.93806 0.68822 0.83529 0.0
C457 C 0.84896 0.60566 0.8219 0.0
C458 C 0.89098 0.6022 0.82505 0.0
C459 C 0.97809 0.6397 0.8361 0.0
C460 C 1.02278 0.6809 0.84362 0.0
C461 C 0.93582 0.64314 0.83197 0.0
C462 C 1.02437 0.72576 0.84588 0.0
C463 C 0.98281 0.72934 0.84188 0.0
H464 H 0.28539 0.84028 0.15875 0.0
H465 H 0.34263 0.74753 0.1754 0.0
H466 H 0.42356 0.81808 0.18165 0.0
H467 H 0.47855 0.90626 0.18373 0.0
H468 H 0.42279 1.00045 0.16798 0.0
H469 H 0.34197 0.92966 0.1596 0.0
C470 C 0.31555 0.83539 0.16364 0.0
C471 C 0.30714 0.78803 0.16669 0.0
C472 C 0.36277 0.87664 0.16733 0.0
C473 C 0.34723 0.78303 0.17299 0.0
C474 C 0.39389 0.82358 0.17658 0.0
C475 C 0.44881 0.91157 0.17853 0.0
C476 C 0.45729 0.9592 0.17671 0.0
C477 C 0.40209 0.87059 0.17404 0.0
C478 C 0.41801 0.96462 0.1694 0.0
C479 C 0.37144 0.92396 0.16477 0.0
H480 H 0.62419 0.25691 0.48252 0.0
H481 H 0.74823 0.29394 0.52657 0.0
H482 H 0.75611 0.37239 0.53627 0.0
H483 H 0.732 0.43279 0.53087 0.0
H484 H 0.60752 0.3976 0.4874 0.0
H485 H 0.59822 0.31831 0.47773 0.0
C486 C 0.6532 0.28234 0.4941 0.0
C487 C 0.6858 0.26928 0.50368 0.0
C488 C 0.65882 0.32873 0.49911 0.0
C489 C 0.7231 0.30294 0.51866 0.0
C490 C 0.72789 0.34808 0.52413 0.0
C491 C 0.70232 0.40783 0.51946 0.0
C492 C 0.67039 0.42191 0.51009 0.0
C493 C 0.69656 0.36175 0.51424 0.0
C494 C 0.63322 0.38874 0.4948 0.0
C495 C 0.62754 0.3429 0.48938 0.0
H496 H 0.61276 0.71527 0.85052 0.0
H497 H 0.54018 0.57998 0.8118 0.0
H498 H 0.46182 0.57579 0.81591 0.0
H499 H 0.41266 0.60958 0.83172 0.0
H500 H 0.48675 0.74443 0.87119 0.0
H501 H 0.56415 0.74857 0.86639 0.0
C502 C 0.57989 0.68518 0.84279 0.0
C503 C 0.58285 0.64842 0.83062 0.0
C504 C 0.53457 0.68252 0.84562 0.0
C505 C 0.53937 0.60899 0.8212 0.0
C506 C 0.49436 0.60661 0.82352 0.0
C507 C 0.44586 0.64046 0.83882 0.0
C508 C 0.4431 0.67642 0.85199 0.0
C509 C 0.49131 0.64315 0.83575 0.0
C510 C 0.48697 0.71567 0.86128 0.0
C511 C 0.5317 0.71834 0.85841 0.0
H512 H 0.99529 0.55979 0.18058 0.0
H513 H 1.05692 0.49224 0.1401 0.0
H514 H 0.98514 0.41308 0.14422 0.0
H515 H 0.90571 0.36144 0.16045 0.0
H516 H 0.841 0.42796 0.19921 0.0
H517 H 0.91221 0.50827 0.19451 0.0
C518 C 0.99281 0.52788 0.17244 0.0
C519 C 1.03202 0.53263 0.16002 0.0
C520 C 0.95068 0.48179 0.17469 0.0
C521 C 1.02779 0.49035 0.14977 0.0
C522 C 0.98655 0.44471 0.15212 0.0
C523 C 0.90704 0.39356 0.16774 0.0
C524 C 0.86797 0.3884 0.18029 0.0
C525 C 0.94794 0.43981 0.16471 0.0
C526 C 0.87027 0.43064 0.18939 0.0
C527 C 0.91128 0.47666 0.18685 0.0
H528 H 0.22191 0.63074 0.08985 0.0
H529 H 0.13821 0.70277 0.08818 0.0
H530 H 0.1407 0.70382 0.04754 0.0
H531 H 0.16686 0.68475 0.01241 0.0
H532 H 0.24699 0.60898 0.01386 0.0
H533 H 0.24619 0.60965 0.05453 0.0
C534 C 0.20439 0.64687 0.08062 0.0
C535 C 0.18003 0.66676 0.09214 0.0
C536 C 0.20539 0.64682 0.05714 0.0
C537 C 0.15714 0.68708 0.07981 0.0
C538 C 0.15856 0.68774 0.05653 0.0
C539 C 0.18365 0.66779 0.02154 0.0
C540 C 0.20714 0.64704 0.0099 0.0
C541 C 0.18243 0.66758 0.04499 0.0
C542 C 0.22936 0.62603 0.02224 0.0
C543 C 0.22867 0.62608 0.04556 0.0
H544 H 0.6499 0.16389 0.41767 0.0
H545 H 0.77925 0.15409 0.4272 0.0
H546 H 0.79119 0.16017 0.38683 0.0
H547 H 0.762 0.1646 0.34833 0.0
H548 H 0.63045 0.17079 0.34024 0.0
H549 H 0.6224 0.17003 0.38057 0.0
C550 C 0.681 0.1633 0.41109 0.0
C551 C 0.71357 0.1584 0.42558 0.0
C552 C 0.68713 0.16608 0.38801 0.0
C553 C 0.75354 0.15776 0.4165 0.0
C554 C 0.76032 0.16119 0.39339 0.0
C555 C 0.73196 0.16625 0.35553 0.0
C556 C 0.69671 0.16758 0.34137 0.0
C557 C 0.72702 0.16488 0.37891 0.0
C558 C 0.65775 0.1694 0.35081 0.0
C559 C 0.65315 0.16898 0.37386 0.0
H560 H 0.64714 0.6081 0.75015 0.0
H561 H 0.78471 0.74227 0.75758 0.0
H562 H 0.78448 0.75058 0.71703 0.0
H563 H 0.74651 0.71716 0.67909 0.0
H564 H 0.60982 0.58199 0.67278 0.0
H565 H 0.60842 0.57678 0.71326 0.0
C566 C 0.67717 0.63938 0.74303 0.0
C567 C 0.71606 0.67436 0.757 0.0
C568 C 0.67697 0.64365 0.71981 0.0
C569 C 0.75435 0.71467 0.74729 0.0
C570 C 0.75424 0.71942 0.72408 0.0
C571 C 0.71623 0.68694 0.68666 0.0
C572 C 0.67847 0.6498 0.67293 0.0
C573 C 0.71593 0.68383 0.71011 0.0
C574 C 0.63959 0.61068 0.68295 0.0
C575 C 0.63872 0.60772 0.7061 0.0
H576 H 0.70174 0.14602 0.57269 0.0
H577 H 0.55844 1.04603 0.54356 0.0
H578 H 0.5285 1.01904 0.58029 0.0
H579 H 0.5423 1.02297 0.62063 0.0
H580 H 0.68496 0.12109 0.6505 0.0
H581 H 0.7156 0.14981 0.61366 0.0
C582 C 0.66396 0.11854 0.57444 0.0
C583 C 0.63255 0.0981 0.55537 0.0
C584 C 0.64675 0.10267 0.59575 0.0
C585 C 0.58364 1.06233 0.5579 0.0
C586 C 0.56632 1.04675 0.57893 0.0
C587 C 0.58025 1.05022 0.61906 0.0
C588 C 0.61131 1.06966 0.63823 0.0
C589 C 0.59757 1.06639 0.59793 0.0
C590 C 0.66018 0.10575 0.63597 0.0
C591 C 0.67777 0.12209 0.61492 0.0
H592 H 0.75785 0.58944 0.88763 0.0
H593 H 0.6545 0.63718 0.89649 0.0
H594 H 0.62925 0.59361 0.93114 0.0
H595 H 0.63087 0.53515 0.95626 0.0
H596 H 0.73939 0.49302 0.94875 0.0
H597 H 0.76712 0.54006 0.91562 0.0
C598 C 0.73042 0.591 0.89742 0.0
C599 C 0.70779 0.61609 0.88961 0.0
C600 C 0.71617 0.56592 0.91714 0.0
C601 C 0.6726 0.61832 0.90236 0.0
C602 C 0.65785 0.593 0.92199 0.0
C603 C 0.6614 0.53698 0.94784 0.0
C604 C 0.68218 0.50944 0.95501 0.0
C605 C 0.67856 0.56565 0.9292 0.0
C606 C 0.72128 0.51217 0.94337 0.0
C607 C 0.73774 0.53968 0.92453 0.0
H608 H 0.12686 0.57377 0.22731 0.0
H609 H 0.16107 0.72263 0.23482 0.0
H610 H 0.13728 0.71049 0.27361 0.0
H611 H 1.10847 0.65795 0.30559 0.0
H612 H 1.07456 0.50937 0.29784 0.0
H613 H 1.09628 0.52099 0.25876 0.0
C614 C 0.12936 0.6037 0.23742 0.0
C615 C 0.14608 0.64915 0.22822 0.0
C616 C 1.11538 0.5964 0.25959 0.0
C617 C 0.1486 0.68735 0.24153 0.0
C618 C 0.13485 0.6804 0.26368 0.0
C619 C 1.1051 0.62795 0.29521 0.0
C620 C 1.08986 0.58285 0.30449 0.0
C621 C 1.1182 0.63508 0.27287 0.0
C622 C 1.08644 0.54446 0.29103 0.0
C623 C 1.0989 0.5511 0.26874 0.0
loop_
_geom_bond_atom_site_label_1
_geom_bond_atom_site_label_2
_geom_bond_distance
_geom_bond_site_symmetry_2
_ccdc_geom_bond_type
Tb0 C9 2.764 1_455 S
Tb0 O10 2.325 1_455 S
Tb0 O13 2.303 . S
Tb0 O17 2.322 . S
Tb0 O18 2.349 . S
Tb0 O21 2.415 1_455 S
Tb0 O22 2.399 1_455 S
Tb1 O11 2.322 . S
Tb1 O12 2.349 . S
Tb1 O14 2.415 . S
Tb1 O15 2.399 . S
Tb1 O16 2.325 . S
Tb1 O19 2.303 . S
Tb1 C30 2.764 . S
C2 O18 1.261 . S
C2 O19 1.257 . S
C3 C6 1.358 . S
C3 C7 1.332 . S
C3 C9 1.504 . S
C4 C5 1.373 . S
C4 C8 1.308 . S
C5 C4 1.373 . S
C5 C6 1.429 . S
C5 H32 0.932 . S
C6 C3 1.358 . S
C6 C5 1.429 . S
C6 H33 0.930 . S
C7 C3 1.332 . S
C7 C8 1.394 . S
C7 H34 0.932 . S
C8 C4 1.308 . S
C8 C7 1.394 . S
C8 H35 0.929 . S
C9 Tb0 2.764 1_655 S
C9 C3 1.504 . S
C9 O21 1.239 . S
C9 O22 1.263 . S
O10 Tb0 2.325 1_655 S
O10 C20 1.236 . S
O11 Tb1 2.322 . S
O11 C20 1.258 1_455 S
O12 Tb1 2.349 . S
O12 C23 1.261 . S
O13 Tb0 2.303 . S
O13 C23 1.257 . S
O14 Tb1 2.415 . S
O14 C30 1.239 . S
O15 Tb1 2.399 . S
O15 C30 1.263 . S
O16 Tb1 2.325 . S
O16 C31 1.236 . S
O17 Tb0 2.322 . S
O17 C31 1.257 . S
O18 Tb0 2.349 . S
O18 C2 1.261 . S
O19 Tb1 2.303 . S
O19 C2 1.257 . S
C20 O10 1.236 . S
C20 O11 1.258 1_655 S
O21 Tb0 2.415 1_655 S
O21 C9 1.239 . S
O22 Tb0 2.399 1_655 S
O22 C9 1.263 . S
C23 O12 1.261 . S
C23 O13 1.257 . S
C24 C27 1.358 . S
C24 C28 1.332 . S
C24 C30 1.504 . S
C25 C26 1.373 . S
C25 C29 1.308 . S
C26 C25 1.373 . S
C26 C27 1.429 . S
C26 H36 0.932 . S
C27 C24 1.358 . S
C27 C26 1.429 . S
C27 H37 0.930 . S
C28 C24 1.332 . S
C28 C29 1.394 . S
C28 H38 0.932 . S
C29 C25 1.308 . S
C29 C28 1.394 . S
C29 H39 0.929 . S
C30 Tb1 2.764 . S
C30 O14 1.239 . S
C30 O15 1.263 . S
C30 C24 1.504 . S
C31 O16 1.236 . S
C31 O17 1.257 . S
H32 C5 0.932 . S
H33 C6 0.930 . S
H34 C7 0.932 . S
H35 C8 0.929 . S
H36 C26 0.932 . S
H37 C27 0.930 . S
H38 C28 0.932 . S
H39 C29 0.929 . S
Tb40 C49 2.764 . S
Tb40 O50 2.325 . S
Tb40 O53 2.303 1_565 S
Tb40 O57 2.322 1_565 S
Tb40 O58 2.349 1_565 S
Tb40 O61 2.415 . S
Tb40 O62 2.399 . S
Tb41 O51 2.322 1_545 S
Tb41 O52 2.349 . S
Tb41 O54 2.415 . S
Tb41 O55 2.399 . S
Tb41 O56 2.325 . S
Tb41 O59 2.303 . S
Tb41 C70 2.764 . S
C42 O58 1.261 . S
C42 O59 1.257 . S
C43 C46 1.358 . S
C43 C47 1.332 . S
C43 C49 1.504 . S
C44 C45 1.373 . S
C44 C48 1.308 . S
C45 C44 1.373 . S
C45 C46 1.429 . S
C45 H72 0.932 . S
C46 C43 1.358 . S
C46 C45 1.429 . S
C46 H73 0.930 . S
C47 C43 1.332 . S
C47 C48 1.394 . S
C47 H74 0.932 . S
C48 C44 1.308 . S
C48 C47 1.394 . S
C48 H75 0.929 . S
C49 Tb40 2.764 . S
C49 C43 1.504 . S
C49 O61 1.239 . S
C49 O62 1.263 . S
O50 Tb40 2.325 . S
O50 C60 1.236 . S
O51 Tb41 2.322 1_565 S
O51 C60 1.257 . S
O52 Tb41 2.349 . S
O52 C63 1.261 . S
O53 Tb40 2.303 1_545 S
O53 C63 1.257 . S
O54 Tb41 2.415 . S
O54 C70 1.239 . S
O55 Tb41 2.399 . S
O55 C70 1.263 . S
O56 Tb41 2.325 . S
O56 C71 1.236 . S
O57 Tb40 2.322 1_545 S
O57 C71 1.257 . S
O58 Tb40 2.349 1_545 S
O58 C42 1.261 . S
O59 Tb41 2.303 . S
O59 C42 1.257 . S
C60 O50 1.236 . S
C60 O51 1.257 . S
O61 Tb40 2.415 . S
O61 C49 1.239 . S
O62 Tb40 2.399 . S
O62 C49 1.263 . S
C63 O52 1.261 . S
C63 O53 1.257 . S
C64 C67 1.358 . S
C64 C68 1.332 . S
C64 C70 1.504 . S
C65 C66 1.373 . S
C65 C69 1.308 . S
C66 C65 1.373 . S
C66 C67 1.429 . S
C66 H76 0.932 . S
C67 C64 1.358 . S
C67 C66 1.429 . S
C67 H77 0.930 . S
C68 C64 1.332 . S
C68 C69 1.394 . S
C68 H78 0.932 . S
C69 C65 1.308 . S
C69 C68 1.394 . S
C69 H79 0.929 . S
C70 Tb41 2.764 . S
C70 O54 1.239 . S
C70 O55 1.263 . S
C70 C64 1.504 . S
C71 O56 1.236 . S
C71 O57 1.257 . S
H72 C45 0.932 . S
H73 C46 0.930 . S
H74 C47 0.932 . S
H75 C48 0.929 . S
H76 C66 0.932 . S
H77 C67 0.930 . S
H78 C68 0.932 . S
H79 C69 0.929 . S
Tb80 C89 2.764 . S
Tb80 O90 2.325 . S
Tb80 O93 2.303 . S
Tb80 O97 2.322 . S
Tb80 O98 2.349 . S
Tb80 O101 2.415 . S
Tb80 O102 2.399 . S
Tb81 O91 2.322 . S
Tb81 O92 2.349 . S
Tb81 O94 2.415 . S
Tb81 O95 2.399 . S
Tb81 O96 2.325 . S
Tb81 O99 2.303 . S
Tb81 C110 2.764 . S
C82 O98 1.261 . S
C82 O99 1.257 . S
C83 C86 1.358 . S
C83 C87 1.332 . S
C83 C89 1.504 . S
C84 C85 1.373 . S
C84 C88 1.308 . S
C85 C84 1.373 . S
C85 C86 1.429 . S
C85 H112 0.932 . S
C86 C83 1.358 . S
C86 C85 1.429 . S
C86 H113 0.930 . S
C87 C83 1.332 . S
C87 C88 1.394 . S
C87 H114 0.932 . S
C88 C84 1.308 . S
C88 C87 1.394 . S
C88 H115 0.929 . S
C89 Tb80 2.764 . S
C89 C83 1.504 . S
C89 O101 1.239 . S
C89 O102 1.263 . S
O90 Tb80 2.325 . S
O90 C100 1.236 . S
O91 Tb81 2.322 . S
O91 C100 1.257 . S
O92 Tb81 2.349 . S
O92 C103 1.261 . S
O93 Tb80 2.303 . S
O93 C103 1.257 . S
O94 Tb81 2.415 . S
O94 C110 1.239 . S
O95 Tb81 2.399 . S
O95 C110 1.263 . S
O96 Tb81 2.325 . S
O96 C111 1.236 . S
O97 Tb80 2.322 . S
O97 C111 1.257 . S
O98 Tb80 2.349 . S
O98 C82 1.261 . S
O99 Tb81 2.303 . S
O99 C82 1.257 . S
C100 O90 1.236 . S
C100 O91 1.257 . S
O101 Tb80 2.415 . S
O101 C89 1.239 . S
O102 Tb80 2.399 . S
O102 C89 1.263 . S
C103 O92 1.261 . S
C103 O93 1.257 . S
C104 C107 1.358 . S
C104 C108 1.332 . S
C104 C110 1.504 . S
C105 C106 1.373 . S
C105 C109 1.308 . S
C106 C105 1.373 . S
C106 C107 1.429 . S
C106 H116 0.932 . S
C107 C104 1.358 . S
C107 C106 1.429 . S
C107 H117 0.930 . S
C108 C104 1.332 . S
C108 C109 1.394 . S
C108 H118 0.932 . S
C109 C105 1.308 . S
C109 C108 1.394 . S
C109 H119 0.929 . S
C110 Tb81 2.764 . S
C110 O94 1.239 . S
C110 O95 1.263 . S
C110 C104 1.504 . S
C111 O96 1.236 . S
C111 O97 1.257 . S
H112 C85 0.932 . S
H113 C86 0.930 . S
H114 C87 0.932 . S
H115 C88 0.929 . S
H116 C106 0.932 . S
H117 C107 0.930 . S
H118 C108 0.932 . S
H119 C109 0.929 . S
C120 C121 1.384 . S
C120 H133 0.947 . S
C120 C155 1.382 . S
C121 C120 1.384 . S
C121 C122 1.378 . S
C122 C121 1.378 . S
C122 C123 1.378 . S
C122 H134 0.952 . S
C123 C122 1.378 . S
C123 H135 0.950 . S
C123 C154 1.383 . S
H124 C143 0.947 . S
H125 C144 0.946 . S
H126 C146 0.953 . S
H127 C147 0.945 . S
H128 C149 0.952 . S
H129 C150 0.949 . S
H130 C152 0.950 1_565 S
H131 C153 0.948 . S
H132 C155 0.951 . S
H133 C120 0.947 . S
H134 C122 0.952 . S
H135 C123 0.950 . S
N136 C139 1.382 . S
N136 C141 1.363 1_545 S
N137 C139 1.371 . S
N137 C140 1.372 . S
N138 C140 1.361 1_565 S
N138 C141 1.377 . S
C139 N136 1.382 . S
C139 N137 1.371 . S
C139 C142 1.480 . S
C140 N137 1.372 . S
C140 N138 1.361 1_545 S
C140 C148 1.457 . S
C141 N136 1.363 1_565 S
C141 N138 1.377 . S
C141 C154 1.479 . S
C142 C139 1.480 . S
C142 C143 1.383 . S
C142 C147 1.385 . S
C143 H124 0.947 . S
C143 C142 1.383 . S
C143 C144 1.388 . S
C144 H125 0.946 . S
C144 C143 1.388 . S
C144 C145 1.384 . S
C145 C144 1.384 . S
C145 C146 1.377 . S
C146 H126 0.953 . S
C146 C145 1.377 . S
C146 C147 1.369 . S
C147 H127 0.945 . S
C147 C142 1.385 . S
C147 C146 1.369 . S
C148 C140 1.457 . S
C148 C149 1.372 . S
C148 C153 1.364 1_545 S
C149 H128 0.952 . S
C149 C148 1.372 . S
C149 C150 1.389 . S
C150 H129 0.949 . S
C150 C149 1.389 . S
C150 C151 1.387 . S
C151 C150 1.387 . S
C151 C152 1.372 . S
C152 H130 0.950 1_545 S
C152 C151 1.372 . S
C152 C153 1.379 1_545 S
C153 H131 0.948 . S
C153 C148 1.364 1_565 S
C153 C152 1.379 1_565 S
C154 C123 1.383 . S
C154 C141 1.479 . S
C154 C155 1.398 . S
C155 C120 1.382 . S
C155 H132 0.951 . S
C155 C154 1.398 . S
C156 C157 1.384 . S
C156 H169 0.947 . S
C156 C191 1.382 . S
C157 C156 1.384 . S
C157 C158 1.378 . S
C158 C157 1.378 . S
C158 C159 1.378 . S
C158 H170 0.952 . S
C159 C158 1.378 . S
C159 H171 0.950 . S
C159 C190 1.383 . S
H160 C179 0.947 . S
H161 C180 0.946 . S
H162 C182 0.953 . S
H163 C183 0.945 . S
H164 C185 0.952 . S
H165 C186 0.949 . S
H166 C188 0.950 . S
H167 C189 0.948 . S
H168 C191 0.951 . S
H169 C156 0.947 . S
H170 C158 0.952 . S
H171 C159 0.950 . S
N172 C175 1.382 . S
N172 C177 1.363 . S
N173 C175 1.371 . S
N173 C176 1.372 . S
N174 C176 1.361 . S
N174 C177 1.377 . S
C175 N172 1.382 . S
C175 N173 1.371 . S
C175 C178 1.480 . S
C176 N173 1.372 . S
C176 N174 1.361 . S
C176 C184 1.457 . S
C177 N172 1.363 . S
C177 N174 1.377 . S
C177 C190 1.479 . S
C178 C175 1.480 . S
C178 C179 1.383 . S
C178 C183 1.385 . S
C179 H160 0.947 . S
C179 C178 1.383 . S
C179 C180 1.388 . S
C180 H161 0.946 . S
C180 C179 1.388 . S
C180 C181 1.384 . S
C181 C180 1.384 . S
C181 C182 1.377 . S
C182 H162 0.953 . S
C182 C181 1.377 . S
C182 C183 1.369 . S
C183 H163 0.945 . S
C183 C178 1.385 . S
C183 C182 1.369 . S
C184 C176 1.457 . S
C184 C185 1.372 . S
C184 C189 1.364 . S
C185 H164 0.952 . S
C185 C184 1.372 . S
C185 C186 1.389 . S
C186 H165 0.949 . S
C186 C185 1.389 . S
C186 C187 1.387 . S
C187 C186 1.387 . S
C187 C188 1.372 . S
C188 H166 0.950 . S
C188 C187 1.372 . S
C188 C189 1.379 . S
C189 H167 0.948 . S
C189 C184 1.364 . S
C189 C188 1.379 . S
C190 C159 1.383 . S
C190 C177 1.479 . S
C190 C191 1.398 . S
C191 C156 1.382 . S
C191 H168 0.951 . S
C191 C190 1.398 . S
C192 C193 1.384 . S
C192 H205 0.947 . S
C192 C227 1.382 . S
C193 C192 1.384 . S
C193 C194 1.378 . S
C194 C193 1.378 . S
C194 C195 1.378 . S
C194 H206 0.952 . S
C195 C194 1.378 . S
C195 H207 0.950 1_655 S
C195 C226 1.383 . S
H196 C215 0.947 . S
H197 C216 0.946 . S
H198 C218 0.953 . S
H199 C219 0.945 . S
H200 C221 0.952 . S
H201 C222 0.949 . S
H202 C224 0.950 1_655 S
H203 C225 0.948 1_655 S
H204 C227 0.951 . S
H205 C192 0.947 . S
H206 C194 0.952 . S
H207 C195 0.950 1_455 S
N208 C211 1.382 . S
N208 C213 1.363 . S
N209 C211 1.371 . S
N209 C212 1.372 . S
N210 C212 1.361 . S
N210 C213 1.377 . S
C211 N208 1.382 . S
C211 N209 1.371 . S
C211 C214 1.480 . S
C212 N209 1.372 . S
C212 N210 1.361 . S
C212 C220 1.457 . S
C213 N208 1.363 . S
C213 N210 1.377 . S
C213 C226 1.479 1_455 S
C214 C211 1.480 . S
C214 C215 1.383 . S
C214 C219 1.385 . S
C215 H196 0.947 . S
C215 C214 1.383 . S
C215 C216 1.388 . S
C216 H197 0.946 . S
C216 C215 1.388 . S
C216 C217 1.384 . S
C217 C216 1.384 . S
C217 C218 1.377 . S
C218 H198 0.953 . S
C218 C217 1.377 . S
C218 C219 1.369 . S
C219 H199 0.945 . S
C219 C214 1.385 . S
C219 C218 1.369 . S
C220 C212 1.457 . S
C220 C221 1.372 . S
C220 C225 1.364 . S
C221 H200 0.952 . S
C221 C220 1.372 . S
C221 C222 1.389 . S
C222 H201 0.949 . S
C222 C221 1.389 . S
C222 C223 1.387 . S
C223 C222 1.387 . S
C223 C224 1.372 . S
C224 H202 0.950 1_455 S
C224 C223 1.372 . S
C224 C225 1.379 . S
C225 H203 0.948 1_455 S
C225 C220 1.364 . S
C225 C224 1.379 . S
C226 C195 1.383 . S
C226 C213 1.479 1_655 S
C226 C227 1.398 . S
C227 C192 1.382 . S
C227 H204 0.951 . S
C227 C226 1.398 . S
C228 C229 1.384 . S
C228 H241 0.947 . S
C228 C263 1.382 . S
C229 C228 1.384 . S
C229 C230 1.378 . S
C230 C229 1.378 . S
C230 C231 1.378 . S
C230 H242 0.952 . S
C231 C230 1.378 . S
C231 H243 0.950 . S
C231 C262 1.383 . S
H232 C251 0.947 . S
H233 C252 0.946 . S
H234 C254 0.953 . S
H235 C255 0.945 . S
H236 C257 0.952 . S
H237 C258 0.949 . S
H238 C260 0.950 . S
H239 C261 0.948 . S
H240 C263 0.951 . S
H241 C228 0.947 . S
H242 C230 0.952 . S
H243 C231 0.950 . S
N244 C247 1.382 1_455 S
N244 C249 1.363 . S
N245 C247 1.371 . S
N245 C248 1.372 1_655 S
N246 C248 1.361 . S
N246 C249 1.377 . S
C247 N244 1.382 1_655 S
C247 N245 1.371 . S
C247 C250 1.480 . S
C248 N245 1.372 1_455 S
C248 N246 1.361 . S
C248 C256 1.457 . S
C249 N244 1.363 . S
C249 N246 1.377 . S
C249 C262 1.479 . S
C250 C247 1.480 . S
C250 C251 1.383 . S
C250 C255 1.385 . S
C251 H232 0.947 . S
C251 C250 1.383 . S
C251 C252 1.388 . S
C252 H233 0.946 . S
C252 C251 1.388 . S
C252 C253 1.384 . S
C253 C252 1.384 . S
C253 C254 1.377 . S
C254 H234 0.953 . S
C254 C253 1.377 . S
C254 C255 1.369 . S
C255 H235 0.945 . S
C255 C250 1.385 . S
C255 C254 1.369 . S
C256 C248 1.457 . S
C256 C257 1.372 1_455 S
C256 C261 1.364 . S
C257 H236 0.952 . S
C257 C256 1.372 1_655 S
C257 C258 1.389 . S
C258 H237 0.949 . S
C258 C257 1.389 . S
C258 C259 1.387 1_655 S
C259 C258 1.387 1_455 S
C259 C260 1.372 . S
C260 H238 0.950 . S
C260 C259 1.372 . S
C260 C261 1.379 . S
C261 H239 0.948 . S
C261 C256 1.364 . S
C261 C260 1.379 . S
C262 C231 1.383 . S
C262 C249 1.479 . S
C262 C263 1.398 . S
C263 C228 1.382 . S
C263 H240 0.951 . S
C263 C262 1.398 . S
C264 C265 1.384 . S
C264 H277 0.947 . S
C264 C299 1.382 . S
C265 C264 1.384 . S
C265 C266 1.378 . S
C266 C265 1.378 . S
C266 C267 1.378 . S
C266 H278 0.952 . S
C267 C266 1.378 . S
C267 H279 0.950 . S
C267 C298 1.383 . S
H268 C287 0.947 . S
H269 C288 0.946 . S
H270 C290 0.953 . S
H271 C291 0.945 . S
H272 C293 0.952 . S
H273 C294 0.949 . S
H274 C296 0.950 . S
H275 C297 0.948 . S
H276 C299 0.951 . S
H277 C264 0.947 . S
H278 C266 0.952 . S
H279 C267 0.950 . S
N280 C283 1.382 1_545 S
N280 C285 1.363 . S
N281 C283 1.371 . S
N281 C284 1.372 1_565 S
N282 C284 1.361 . S
N282 C285 1.377 . S
C283 N280 1.382 1_565 S
C283 N281 1.371 . S
C283 C286 1.480 . S
C284 N281 1.372 1_545 S
C284 N282 1.361 . S
C284 C292 1.457 . S
C285 N280 1.363 . S
C285 N282 1.377 . S
C285 C298 1.479 . S
C286 C283 1.480 . S
C286 C287 1.383 . S
C286 C291 1.385 . S
C287 H268 0.947 . S
C287 C286 1.383 . S
C287 C288 1.388 . S
C288 H269 0.946 . S
C288 C287 1.388 . S
C288 C289 1.384 . S
C289 C288 1.384 . S
C289 C290 1.377 . S
C290 H270 0.953 . S
C290 C289 1.377 . S
C290 C291 1.369 . S
C291 H271 0.945 . S
C291 C286 1.385 . S
C291 C290 1.369 . S
C292 C284 1.457 . S
C292 C293 1.372 1_545 S
C292 C297 1.364 . S
C293 H272 0.952 . S
C293 C292 1.372 1_565 S
C293 C294 1.389 . S
C294 H273 0.949 . S
C294 C293 1.389 . S
C294 C295 1.387 . S
C295 C294 1.387 . S
C295 C296 1.372 1_565 S
C296 H274 0.950 . S
C296 C295 1.372 1_545 S
C296 C297 1.379 . S
C297 H275 0.948 . S
C297 C292 1.364 . S
C297 C296 1.379 . S
C298 C267 1.383 . S
C298 C285 1.479 . S
C298 C299 1.398 . S
C299 C264 1.382 . S
C299 H276 0.951 . S
C299 C298 1.398 . S
C300 C301 1.384 . S
C300 H313 0.947 . S
C300 C335 1.382 . S
C301 C300 1.384 . S
C301 C302 1.378 . S
C302 C301 1.378 . S
C302 C303 1.378 . S
C302 H314 0.952 . S
C303 C302 1.378 . S
C303 H315 0.950 . S
C303 C334 1.383 . S
H304 C323 0.947 . S
H305 C324 0.946 . S
H306 C326 0.953 . S
H307 C327 0.945 . S
H308 C329 0.952 . S
H309 C330 0.949 1_556 S
H310 C332 0.950 1_556 S
H311 C333 0.948 . S
H312 C335 0.951 . S
H313 C300 0.947 . S
H314 C302 0.952 . S
H315 C303 0.950 . S
N316 C319 1.382 . S
N316 C321 1.363 . S
N317 C319 1.371 . S
N317 C320 1.372 . S
N318 C320 1.361 . S
N318 C321 1.377 . S
C319 N316 1.382 . S
C319 N317 1.371 . S
C319 C322 1.480 . S
C320 N317 1.372 . S
C320 N318 1.361 . S
C320 C328 1.457 . S
C321 N316 1.363 . S
C321 N318 1.377 . S
C321 C334 1.479 . S
C322 C319 1.480 . S
C322 C323 1.383 . S
C322 C327 1.385 . S
C323 H304 0.947 . S
C323 C322 1.383 . S
C323 C324 1.388 . S
C324 H305 0.946 . S
C324 C323 1.388 . S
C324 C325 1.384 . S
C325 C324 1.384 . S
C325 C326 1.377 . S
C326 H306 0.953 . S
C326 C325 1.377 . S
C326 C327 1.369 . S
C327 H307 0.945 . S
C327 C322 1.385 . S
C327 C326 1.369 . S
C328 C320 1.457 . S
C328 C329 1.372 . S
C328 C333 1.364 . S
C329 H308 0.952 . S
C329 C328 1.372 . S
C329 C330 1.389 . S
C330 H309 0.949 1_554 S
C330 C329 1.389 . S
C330 C331 1.387 1_554 S
C331 C330 1.387 1_556 S
C331 C332 1.372 1_556 S
C332 H310 0.950 1_554 S
C332 C331 1.372 1_554 S
C332 C333 1.379 . S
C333 H311 0.948 . S
C333 C328 1.364 . S
C333 C332 1.379 . S
C334 C303 1.383 . S
C334 C321 1.479 . S
C334 C335 1.398 . S
C335 C300 1.382 . S
C335 H312 0.951 . S
C335 C334 1.398 . S
H336 C342 0.930 . S
H337 C345 0.930 . S
H338 C346 0.930 . S
H339 C347 0.930 . S
H340 C350 0.930 . S
H341 C351 0.930 . S
C342 H336 0.930 . S
C342 C343 1.355 . S
C342 C344 1.415 . S
C343 C342 1.355 . S
C343 C345 1.419 . S
C344 C342 1.415 . S
C344 C349 1.425 . S
C344 C351 1.409 . S
C345 H337 0.930 . S
C345 C343 1.419 . S
C345 C346 1.362 . S
C346 H338 0.930 . S
C346 C345 1.362 . S
C346 C349 1.409 . S
C347 H339 0.930 . S
C347 C348 1.355 . S
C347 C349 1.415 . S
C348 C347 1.355 . S
C348 C350 1.419 . S
C349 C344 1.425 . S
C349 C346 1.409 . S
C349 C347 1.415 . S
C350 H340 0.930 . S
C350 C348 1.419 . S
C350 C351 1.362 . S
C351 H341 0.930 . S
C351 C344 1.409 . S
C351 C350 1.362 . S
H352 C358 0.930 . S
H353 C361 0.930 . S
H354 C362 0.930 . S
H355 C363 0.930 . S
H356 C366 0.930 . S
H357 C367 0.930 . S
C358 H352 0.930 . S
C358 C359 1.355 . S
C358 C360 1.415 . S
C359 C358 1.355 . S
C359 C361 1.419 . S
C360 C358 1.415 . S
C360 C365 1.425 . S
C360 C367 1.409 . S
C361 H353 0.930 . S
C361 C359 1.419 . S
C361 C362 1.362 . S
C362 H354 0.930 . S
C362 C361 1.362 . S
C362 C365 1.409 . S
C363 H355 0.930 . S
C363 C364 1.355 . S
C363 C365 1.415 . S
C364 C363 1.355 . S
C364 C366 1.419 . S
C365 C360 1.425 . S
C365 C362 1.409 . S
C365 C363 1.415 . S
C366 H356 0.930 . S
C366 C364 1.419 . S
C366 C367 1.362 . S
C367 H357 0.930 . S
C367 C360 1.409 . S
C367 C366 1.362 . S
H368 C374 0.930 . S
H369 C377 0.930 . S
H370 C378 0.930 . S
H371 C379 0.930 . S
H372 C382 0.930 . S
H373 C383 0.930 . S
C374 H368 0.930 . S
C374 C375 1.355 . S
C374 C376 1.415 . S
C375 C374 1.355 . S
C375 C377 1.419 . S
C376 C374 1.415 . S
C376 C381 1.425 . S
C376 C383 1.409 . S
C377 H369 0.930 . S
C377 C375 1.419 . S
C377 C378 1.362 . S
C378 H370 0.930 . S
C378 C377 1.362 . S
C378 C381 1.409 . S
C379 H371 0.930 . S
C379 C380 1.355 . S
C379 C381 1.415 . S
C380 C379 1.355 . S
C380 C382 1.419 . S
C381 C376 1.425 . S
C381 C378 1.409 . S
C381 C379 1.415 . S
C382 H372 0.930 . S
C382 C380 1.419 . S
C382 C383 1.362 . S
C383 H373 0.930 . S
C383 C376 1.409 . S
C383 C382 1.362 . S
H384 C390 0.930 . S
H385 C393 0.930 . S
H386 C394 0.930 . S
H387 C395 0.930 . S
H388 C398 0.930 . S
H389 C399 0.930 . S
C390 H384 0.930 . S
C390 C391 1.355 . S
C390 C392 1.415 . S
C391 C390 1.355 . S
C391 C393 1.419 . S
C392 C390 1.415 . S
C392 C397 1.425 . S
C392 C399 1.409 . S
C393 H385 0.930 . S
C393 C391 1.419 . S
C393 C394 1.362 . S
C394 H386 0.930 . S
C394 C393 1.362 . S
C394 C397 1.409 . S
C395 H387 0.930 . S
C395 C396 1.355 . S
C395 C397 1.415 . S
C396 C395 1.355 . S
C396 C398 1.419 . S
C397 C392 1.425 . S
C397 C394 1.409 . S
C397 C395 1.415 . S
C398 H388 0.930 . S
C398 C396 1.419 . S
C398 C399 1.362 . S
C399 H389 0.930 . S
C399 C392 1.409 . S
C399 C398 1.362 . S
H400 C406 0.930 . S
H401 C409 0.930 . S
H402 C410 0.930 . S
H403 C411 0.930 . S
H404 C414 0.930 . S
H405 C415 0.930 . S
C406 H400 0.930 . S
C406 C407 1.355 . S
C406 C408 1.415 . S
C407 C406 1.355 . S
C407 C409 1.419 . S
C408 C406 1.415 . S
C408 C413 1.425 . S
C408 C415 1.409 . S
C409 H401 0.930 . S
C409 C407 1.419 . S
C409 C410 1.362 . S
C410 H402 0.930 . S
C410 C409 1.362 . S
C410 C413 1.409 . S
C411 H403 0.930 . S
C411 C412 1.355 . S
C411 C413 1.415 . S
C412 C411 1.355 . S
C412 C414 1.419 . S
C413 C408 1.425 . S
C413 C410 1.409 . S
C413 C411 1.415 . S
C414 H404 0.930 . S
C414 C412 1.419 . S
C414 C415 1.362 . S
C415 H405 0.930 . S
C415 C408 1.409 . S
C415 C414 1.362 . S
H416 C422 0.930 . S
H417 C425 0.930 . S
H418 C426 0.930 . S
H419 C427 0.930 . S
H420 C430 0.930 . S
H421 C431 0.930 . S
C422 H416 0.930 . S
C422 C423 1.355 . S
C422 C424 1.415 . S
C423 C422 1.355 . S
C423 C425 1.419 . S
C424 C422 1.415 . S
C424 C429 1.425 . S
C424 C431 1.409 . S
C425 H417 0.930 . S
C425 C423 1.419 . S
C425 C426 1.362 . S
C426 H418 0.930 . S
C426 C425 1.362 . S
C426 C429 1.409 . S
C427 H419 0.930 . S
C427 C428 1.355 . S
C427 C429 1.415 . S
C428 C427 1.355 . S
C428 C430 1.419 . S
C429 C424 1.425 . S
C429 C426 1.409 . S
C429 C427 1.415 . S
C430 H420 0.930 . S
C430 C428 1.419 . S
C430 C431 1.362 . S
C431 H421 0.930 . S
C431 C424 1.409 . S
C431 C430 1.362 . S
H432 C438 0.930 . S
H433 C441 0.930 . S
H434 C442 0.930 . S
H435 C443 0.930 . S
H436 C446 0.930 . S
H437 C447 0.930 . S
C438 H432 0.930 . S
C438 C439 1.355 . S
C438 C440 1.415 . S
C439 C438 1.355 . S
C439 C441 1.419 . S
C440 C438 1.415 . S
C440 C445 1.425 . S
C440 C447 1.409 . S
C441 H433 0.930 . S
C441 C439 1.419 . S
C441 C442 1.362 . S
C442 H434 0.930 . S
C442 C441 1.362 . S
C442 C445 1.409 . S
C443 H435 0.930 . S
C443 C444 1.355 . S
C443 C445 1.415 . S
C444 C443 1.355 . S
C444 C446 1.419 . S
C445 C440 1.425 . S
C445 C442 1.409 . S
C445 C443 1.415 . S
C446 H436 0.930 . S
C446 C444 1.419 . S
C446 C447 1.362 . S
C447 H437 0.930 . S
C447 C440 1.409 . S
C447 C446 1.362 . S
H448 C454 0.930 . S
H449 C457 0.930 . S
H450 C458 0.930 . S
H451 C459 0.930 . S
H452 C462 0.930 . S
H453 C463 0.930 . S
C454 H448 0.930 . S
C454 C455 1.355 . S
C454 C456 1.415 . S
C455 C454 1.355 . S
C455 C457 1.419 . S
C456 C454 1.415 . S
C456 C461 1.425 . S
C456 C463 1.409 . S
C457 H449 0.930 . S
C457 C455 1.419 . S
C457 C458 1.362 . S
C458 H450 0.930 . S
C458 C457 1.362 . S
C458 C461 1.409 . S
C459 H451 0.930 . S
C459 C460 1.355 . S
C459 C461 1.415 . S
C460 C459 1.355 . S
C460 C462 1.419 . S
C461 C456 1.425 . S
C461 C458 1.409 . S
C461 C459 1.415 . S
C462 H452 0.930 . S
C462 C460 1.419 . S
C462 C463 1.362 . S
C463 H453 0.930 . S
C463 C456 1.409 . S
C463 C462 1.362 . S
H464 C470 0.930 . S
H465 C473 0.930 . S
H466 C474 0.930 . S
H467 C475 0.930 . S
H468 C478 0.930 . S
H469 C479 0.930 . S
C470 H464 0.930 . S
C470 C471 1.355 . S
C470 C472 1.415 . S
C471 C470 1.355 . S
C471 C473 1.419 . S
C472 C470 1.415 . S
C472 C477 1.425 . S
C472 C479 1.409 . S
C473 H465 0.930 . S
C473 C471 1.419 . S
C473 C474 1.362 . S
C474 H466 0.930 . S
C474 C473 1.362 . S
C474 C477 1.409 . S
C475 H467 0.930 . S
C475 C476 1.355 . S
C475 C477 1.415 . S
C476 C475 1.355 . S
C476 C478 1.419 . S
C477 C472 1.425 . S
C477 C474 1.409 . S
C477 C475 1.415 . S
C478 H468 0.930 . S
C478 C476 1.419 . S
C478 C479 1.362 . S
C479 H469 0.930 . S
C479 C472 1.409 . S
C479 C478 1.362 . S
H480 C486 0.930 . S
H481 C489 0.930 . S
H482 C490 0.930 . S
H483 C491 0.930 . S
H484 C494 0.930 . S
H485 C495 0.930 . S
C486 H480 0.930 . S
C486 C487 1.355 . S
C486 C488 1.415 . S
C487 C486 1.355 . S
C487 C489 1.419 . S
C488 C486 1.415 . S
C488 C493 1.425 . S
C488 C495 1.409 . S
C489 H481 0.930 . S
C489 C487 1.419 . S
C489 C490 1.362 . S
C490 H482 0.930 . S
C490 C489 1.362 . S
C490 C493 1.409 . S
C491 H483 0.930 . S
C491 C492 1.355 . S
C491 C493 1.415 . S
C492 C491 1.355 . S
C492 C494 1.419 . S
C493 C488 1.425 . S
C493 C490 1.409 . S
C493 C491 1.415 . S
C494 H484 0.930 . S
C494 C492 1.419 . S
C494 C495 1.362 . S
C495 H485 0.930 . S
C495 C488 1.409 . S
C495 C494 1.362 . S
H496 C502 0.930 . S
H497 C505 0.930 . S
H498 C506 0.930 . S
H499 C507 0.930 . S
H500 C510 0.930 . S
H501 C511 0.930 . S
C502 H496 0.930 . S
C502 C503 1.355 . S
C502 C504 1.415 . S
C503 C502 1.355 . S
C503 C505 1.419 . S
C504 C502 1.415 . S
C504 C509 1.425 . S
C504 C511 1.409 . S
C505 H497 0.930 . S
C505 C503 1.419 . S
C505 C506 1.362 . S
C506 H498 0.930 . S
C506 C505 1.362 . S
C506 C509 1.409 . S
C507 H499 0.930 . S
C507 C508 1.355 . S
C507 C509 1.415 . S
C508 C507 1.355 . S
C508 C510 1.419 . S
C509 C504 1.425 . S
C509 C506 1.409 . S
C509 C507 1.415 . S
C510 H500 0.930 . S
C510 C508 1.419 . S
C510 C511 1.362 . S
C511 H501 0.930 . S
C511 C504 1.409 . S
C511 C510 1.362 . S
H512 C518 0.930 . S
H513 C521 0.930 . S
H514 C522 0.930 . S
H515 C523 0.930 . S
H516 C526 0.930 . S
H517 C527 0.930 . S
C518 H512 0.930 . S
C518 C519 1.355 . S
C518 C520 1.415 . S
C519 C518 1.355 . S
C519 C521 1.419 . S
C520 C518 1.415 . S
C520 C525 1.425 . S
C520 C527 1.409 . S
C521 H513 0.930 . S
C521 C519 1.419 . S
C521 C522 1.362 . S
C522 H514 0.930 . S
C522 C521 1.362 . S
C522 C525 1.409 . S
C523 H515 0.930 . S
C523 C524 1.355 . S
C523 C525 1.415 . S
C524 C523 1.355 . S
C524 C526 1.419 . S
C525 C520 1.425 . S
C525 C522 1.409 . S
C525 C523 1.415 . S
C526 H516 0.930 . S
C526 C524 1.419 . S
C526 C527 1.362 . S
C527 H517 0.930 . S
C527 C520 1.409 . S
C527 C526 1.362 . S
H528 C534 0.930 . S
H529 C537 0.930 . S
H530 C538 0.921 1_655 S
H531 C539 0.930 . S
H532 C542 0.930 . S
H533 C543 0.930 . S
C534 H528 0.930 . S
C534 C535 1.355 . S
C534 C536 1.415 . S
C535 C534 1.355 . S
C535 C537 1.419 . S
C536 C534 1.415 . S
C536 C541 1.425 . S
C536 C543 1.409 . S
C537 H529 0.930 . S
C537 C535 1.419 . S
C537 C538 1.362 . S
C538 H530 0.921 1_455 S
C538 C537 1.362 . S
C538 C541 1.409 . S
C539 H531 0.930 . S
C539 C540 1.355 . S
C539 C541 1.415 . S
C540 C539 1.355 . S
C540 C542 1.419 . S
C541 C536 1.425 . S
C541 C538 1.409 . S
C541 C539 1.415 . S
C542 H532 0.930 . S
C542 C540 1.419 . S
C542 C543 1.362 . S
C543 H533 0.930 . S
C543 C536 1.409 . S
C543 C542 1.362 . S
H544 C550 0.930 . S
H545 C553 0.930 . S
H546 C554 0.930 . S
H547 C555 0.930 . S
H548 C558 0.930 . S
H549 C559 0.930 . S
C550 H544 0.930 . S
C550 C551 1.355 . S
C550 C552 1.415 . S
C551 C550 1.355 . S
C551 C553 1.419 . S
C552 C550 1.415 . S
C552 C557 1.425 . S
C552 C559 1.409 . S
C553 H545 0.930 . S
C553 C551 1.419 . S
C553 C554 1.362 . S
C554 H546 0.930 . S
C554 C553 1.362 . S
C554 C557 1.409 . S
C555 H547 0.930 . S
C555 C556 1.355 . S
C555 C557 1.415 . S
C556 C555 1.355 . S
C556 C558 1.419 . S
C557 C552 1.425 . S
C557 C554 1.409 . S
C557 C555 1.415 . S
C558 H548 0.930 . S
C558 C556 1.419 . S
C558 C559 1.362 . S
C559 H549 0.930 . S
C559 C552 1.409 . S
C559 C558 1.362 . S
H560 C566 0.930 . S
H561 C569 0.930 . S
H562 C570 0.930 . S
H563 C571 0.930 . S
H564 C574 0.930 . S
H565 C575 0.930 . S
C566 H560 0.930 . S
C566 C567 1.355 . S
C566 C568 1.415 . S
C567 C566 1.355 . S
C567 C569 1.419 . S
C568 C566 1.415 . S
C568 C573 1.425 . S
C568 C575 1.409 . S
C569 H561 0.930 . S
C569 C567 1.419 . S
C569 C570 1.362 . S
C570 H562 0.930 . S
C570 C569 1.362 . S
C570 C573 1.409 . S
C571 H563 0.930 . S
C571 C572 1.355 . S
C571 C573 1.415 . S
C572 C571 1.355 . S
C572 C574 1.419 . S
C573 C568 1.425 . S
C573 C570 1.409 . S
C573 C571 1.415 . S
C574 H564 0.930 . S
C574 C572 1.419 . S
C574 C575 1.362 . S
C575 H565 0.930 . S
C575 C568 1.409 . S
C575 C574 1.362 . S
H576 C582 0.930 . S
H577 C585 0.930 . S
H578 C586 0.930 . S
H579 C587 0.930 . S
H580 C590 0.930 . S
H581 C591 0.930 . S
C582 H576 0.930 . S
C582 C583 1.355 . S
C582 C584 1.415 . S
C583 C582 1.355 . S
C583 C585 1.419 1_545 S
C584 C582 1.415 . S
C584 C589 1.425 1_545 S
C584 C591 1.409 . S
C585 H577 0.930 . S
C585 C583 1.419 1_565 S
C585 C586 1.362 . S
C586 H578 0.930 . S
C586 C585 1.362 . S
C586 C589 1.409 . S
C587 H579 0.930 . S
C587 C588 1.355 . S
C587 C589 1.415 . S
C588 C587 1.355 . S
C588 C590 1.419 1_565 S
C589 C584 1.425 1_565 S
C589 C586 1.409 . S
C589 C587 1.415 . S
C590 H580 0.930 . S
C590 C588 1.419 1_545 S
C590 C591 1.362 . S
C591 H581 0.930 . S
C591 C584 1.409 . S
C591 C590 1.362 . S
H592 C598 0.930 . S
H593 C601 0.930 . S
H594 C602 0.930 . S
H595 C603 0.930 . S
H596 C606 0.930 . S
H597 C607 0.930 . S
C598 H592 0.930 . S
C598 C599 1.355 . S
C598 C600 1.415 . S
C599 C598 1.355 . S
C599 C601 1.419 . S
C600 C598 1.415 . S
C600 C605 1.425 . S
C600 C607 1.409 . S
C601 H593 0.930 . S
C601 C599 1.419 . S
C601 C602 1.362 . S
C602 H594 0.930 . S
C602 C601 1.362 . S
C602 C605 1.409 . S
C603 H595 0.930 . S
C603 C604 1.355 . S
C603 C605 1.415 . S
C604 C603 1.355 . S
C604 C606 1.419 . S
C605 C600 1.425 . S
C605 C602 1.409 . S
C605 C603 1.415 . S
C606 H596 0.930 . S
C606 C604 1.419 . S
C606 C607 1.362 . S
C607 H597 0.930 . S
C607 C600 1.409 . S
C607 C606 1.362 . S
H608 C614 0.930 . S
H609 C617 0.930 . S
H610 C618 0.930 . S
H611 C619 0.930 . S
H612 C622 0.930 . S
H613 C623 0.930 . S
C614 H608 0.930 . S
C614 C615 1.355 . S
C614 C616 1.415 . S
C615 C614 1.355 . S
C615 C617 1.419 1_455 S
C616 C614 1.415 . S
C616 C621 1.425 1_455 S
C616 C623 1.409 . S
C617 H609 0.930 . S
C617 C615 1.419 1_655 S
C617 C618 1.362 . S
C618 H610 0.930 . S
C618 C617 1.362 . S
C618 C621 1.409 . S
C619 H611 0.930 . S
C619 C620 1.355 1_655 S
C619 C621 1.415 . S
C620 C619 1.355 1_455 S
C620 C622 1.419 . S
C621 C616 1.425 1_655 S
C621 C618 1.409 . S
C621 C619 1.415 . S
C622 H612 0.930 . S
C622 C620 1.419 . S
C622 C623 1.362 . S
C623 H613 0.930 . S
C623 C616 1.409 . S
C623 C622 1.362 . S
C343 C25 0.451 . S
C348 C325 0.529 . S
C359 C65 0.569 . S
C364 C253 0.371 . S
C375 C105 0.648 . S
C380 C289 0.486 . S
C391 C4 0.655 . S
C396 C301 0.488 . S
C412 C229 0.369 . S
C407 C44 0.444 . S
C428 C265 0.579 . S
C423 C84 0.497 . S
C439 C60 2.958 . S
C444 C181 2.875 . S
C455 C100 3.119 . S
C460 C193 3.054 . S
C471 C31 3.146 . S
C476 C121 3.083 . S
C492 C157 3.073 . S
C487 C71 3.144 . S
C508 C217 2.885 . S
C503 C111 2.977 . S
C519 C20 2.962 . S
C524 C145 2.892 . S
C540 C223 1.795 1_554 S
C535 C2 1.709 . S
C551 C42 1.763 . S
C556 C151 1.800 . S
C567 C82 1.767 . S
C572 C187 1.804 . S
C588 C295 1.012 . S
C583 C63 1.076 . S
C604 C331 1.090 . S
C599 C103 1.094 . S
C615 C23 1.059 . S
C620 C259 1.001 . S
