# Generated by pormake.
# Topology nom, (4,4)-cn, num edge types: 1
# Building blocks:
#     Node 0, Type 0, BuildingBlock: MIFKUJ_clean_linker_1, # of connection points: 4
#     Node 1, Type 0, BuildingBlock: MIFKUJ_clean_linker_1, # of connection points: 4
#     Node 2, Type 0, BuildingBlock: MIFKUJ_clean_linker_1, # of connection points: 4
#     Node 3, Type 0, BuildingBlock: MIFKUJ_clean_linker_1, # of connection points: 4
#     Node 4, Type 0, BuildingBlock: MIFKUJ_clean_linker_1, # of connection points: 4
#     Node 5, Type 0, BuildingBlock: MIFKUJ_clean_linker_1, # of connection points: 4
#     Node 6, Type 1, BuildingBlock: AZAVOO_clean_sbu_0, # of connection points: 4
#     Node 7, Type 1, BuildingBlock: AZAVOO_clean_sbu_0, # of connection points: 4
#     Node 8, Type 1, BuildingBlock: AZAVOO_clean_sbu_0, # of connection points: 4
#     Node 9, Type 1, BuildingBlock: AZAVOO_clean_sbu_0, # of connection points: 4
#     Node 10, Type 1, BuildingBlock: AZAVOO_clean_sbu_0, # of connection points: 4
#     Node 11, Type 1, BuildingBlock: AZAVOO_clean_sbu_0, # of connection points: 4
#     Edge 12, Type (0, 1), BuildingBlock: UVAHIK_clean_linker_0, # of connection points: 2
#     Edge 13, Type (0, 1), BuildingBlock: UVAHIK_clean_linker_0, # of connection points: 2
#     Edge 14, Type (0, 1), BuildingBlock: UVAHIK_clean_linker_0, # of connection points: 2
#     Edge 15, Type (0, 1), BuildingBlock: UVAHIK_clean_linker_0, # of connection points: 2
#     Edge 16, Type (0, 1), BuildingBlock: UVAHIK_clean_linker_0, # of connection points: 2
#     Edge 17, Type (0, 1), BuildingBlock: UVAHIK_clean_linker_0, # of connection points: 2
#     Edge 18, Type (0, 1), BuildingBlock: UVAHIK_clean_linker_0, # of connection points: 2
#     Edge 19, Type (0, 1), BuildingBlock: UVAHIK_clean_linker_0, # of connection points: 2
#     Edge 20, Type (0, 1), BuildingBlock: UVAHIK_clean_linker_0, # of connection points: 2
#     Edge 21, Type (0, 1), BuildingBlock: UVAHIK_clean_linker_0, # of connection points: 2
#     Edge 22, Type (0, 1), BuildingBlock: UVAHIK_clean_linker_0, # of connection points: 2
#     Edge 23, Type (0, 1), BuildingBlock: UVAHIK_clean_linker_0, # of connection points: 2
#     Edge 24, Type (0, 1), BuildingBlock: UVAHIK_clean_linker_0, # of connection points: 2
#     Edge 25, Type (0, 1), BuildingBlock: UVAHIK_clean_linker_0, # of connection points: 2
#     Edge 26, Type (0, 1), BuildingBlock: UVAHIK_clean_linker_0, # of connection points: 2
#     Edge 27, Type (0, 1), BuildingBlock: UVAHIK_clean_linker_0, # of connection points: 2
#     Edge 28, Type (0, 1), BuildingBlock: UVAHIK_clean_linker_0, # of connection points: 2
#     Edge 29, Type (0, 1), BuildingBlock: UVAHIK_clean_linker_0, # of connection points: 2
#     Edge 30, Type (0, 1), BuildingBlock: UVAHIK_clean_linker_0, # of connection points: 2
#     Edge 31, Type (0, 1), BuildingBlock: UVAHIK_clean_linker_0, # of connection points: 2
#     Edge 32, Type (0, 1), BuildingBlock: UVAHIK_clean_linker_0, # of connection points: 2
#     Edge 33, Type (0, 1), BuildingBlock: UVAHIK_clean_linker_0, # of connection points: 2
#     Edge 34, Type (0, 1), BuildingBlock: UVAHIK_clean_linker_0, # of connection points: 2
#     Edge 35, Type (0, 1), BuildingBlock: UVAHIK_clean_linker_0, # of connection points: 2
# Relax obj value: 0.034
# Max RMSD: 0.155
# Mean RMSD: 0.122
data_MOF--net-nom--node1-AZAVOO_clean_sbu_0--node2-MIFKUJ_clean_linker_1--edge1-UVAHIK_clean_linker_0
_symmetry_space_group_name_H-M    P1
_symmetry_Int_Tables_number       1
_symmetry_cell_setting            triclinic
loop_
_symmetry_equiv_pos_as_xyz
'x, y, z'
_cell_length_a     66.337541
_cell_length_b     66.8761
_cell_length_c     68.309605
_cell_angle_alpha  90.971998
_cell_angle_beta   90.901133
_cell_angle_gamma 119.98382
loop_
_atom_site_label
_atom_site_type_symbol
_atom_site_fract_x
_atom_site_fract_y
_atom_site_fract_z
_atom_type_partial_charge
H0 H 0.97647 0.46394 0.2831 0.0
H1 H 0.94601 0.45054 0.25758 0.0
H2 H 0.9137 0.48333 0.28904 0.0
H3 H 0.94501 0.49783 0.31386 0.0
H4 H 0.00858 0.50613 0.2942 0.0
H5 H 0.94465 0.44254 0.32649 0.0
H6 H 0.90428 0.42159 0.33705 0.0
H7 H 0.91686 0.48085 0.37285 0.0
H8 H 0.95701 0.50159 0.36229 0.0
H9 H 0.0253 0.542 0.37226 0.0
H10 H 0.05663 0.55977 0.3971 0.0
H11 H 0.0866 0.52014 0.37387 0.0
H12 H 0.05562 0.50315 0.34864 0.0
H13 H 0.99289 0.49506 0.36515 0.0
H14 H 0.05124 0.55962 0.33145 0.0
H15 H 0.09091 0.58496 0.32094 0.0
H16 H 0.08901 0.52757 0.28911 0.0
H17 H 0.04906 0.50235 0.29952 0.0
C18 C 0.96291 0.48163 0.30056 0.0
C19 C 0.96285 0.46829 0.28446 0.0
C20 C 0.94524 0.46043 0.26997 0.0
C21 C 0.92722 0.46568 0.27127 0.0
C22 C 0.92736 0.4791 0.28742 0.0
C23 C 0.94512 0.48716 0.3018 0.0
C24 C 0.98198 0.49036 0.3157 0.0
C25 C 0.00508 0.50326 0.30967 0.0
C26 C 0.97757 0.48724 0.33598 0.0
C27 C 0.9537 0.47373 0.3434 0.0
C28 C 0.93869 0.45093 0.33669 0.0
C29 C 0.91568 0.43899 0.34275 0.0
C30 C 0.9074 0.44959 0.35576 0.0
C31 C 0.92279 0.47207 0.36306 0.0
C32 C 0.94572 0.484 0.35696 0.0
C33 C 0.03817 0.52129 0.35866 0.0
C34 C 0.03866 0.53718 0.37256 0.0
C35 C 0.05655 0.54725 0.38679 0.0
C36 C 0.07415 0.54135 0.38758 0.0
C37 C 0.07359 0.5254 0.37354 0.0
C38 C 0.0558 0.51552 0.35919 0.0
C39 C 0.01918 0.51076 0.34358 0.0
C40 C -0.00377 0.49752 0.34963 0.0
C41 C 0.02365 0.51375 0.32339 0.0
C42 C 0.04738 0.5291 0.31642 0.0
C43 C 0.05942 0.5525 0.32225 0.0
C44 C 0.08211 0.56692 0.31631 0.0
C45 C 0.09319 0.55822 0.30434 0.0
C46 C 0.0809 0.53482 0.29821 0.0
C47 C 0.05813 0.52039 0.30416 0.0
H48 H 0.46284 0.96904 0.52337 0.0
H49 H 0.43855 0.92824 0.53005 0.0
H50 H 0.48335 0.91267 0.49559 0.0
H51 H 0.50781 0.95387 0.48896 0.0
H52 H 0.50844 0.00091 0.53 0.0
H53 H 0.45675 0.95995 0.47344 0.0
H54 H 0.44312 0.92982 0.44775 0.0
H55 H 0.51181 0.96366 0.4234 0.0
H56 H 0.52557 0.99289 0.44981 0.0
H57 H 0.5508 0.06353 0.46464 0.0
H58 H 0.56042 0.10248 0.45554 0.0
H59 H 0.51172 0.10119 0.49753 0.0
H60 H 0.50147 0.06198 0.50588 0.0
H61 H 0.51135 0.02399 0.46101 0.0
H62 H 0.56148 0.06907 0.5135 0.0
H63 H 0.57737 0.09763 0.5406 0.0
H64 H 0.5151 0.05684 0.57295 0.0
H65 H 0.49869 0.02881 0.54553 0.0
C66 C 0.48701 0.96446 0.50556 0.0
C67 C 0.46772 0.95692 0.51755 0.0
C68 C 0.45385 0.93357 0.52137 0.0
C69 C 0.45902 0.91722 0.51332 0.0
C70 C 0.47882 0.92486 0.50181 0.0
C71 C 0.49282 0.94835 0.49808 0.0
C72 C 0.49976 0.98898 0.49999 0.0
C73 C 0.50903 0.00606 0.51495 0.0
C74 C 0.50129 0.99558 0.48026 0.0
C75 C 0.4923 0.97839 0.46376 0.0
C76 C 0.46888 0.96076 0.46262 0.0
C77 C 0.46107 0.94366 0.4478 0.0
C78 C 0.47642 0.94414 0.43358 0.0
C79 C 0.49964 0.9624 0.43436 0.0
C80 C 0.50749 0.97931 0.44931 0.0
C81 C 0.52561 0.05994 0.48608 0.0
C82 C 0.5422 0.07166 0.47185 0.0
C83 C 0.54783 0.094 0.4668 0.0
C84 C 0.53688 0.10497 0.47585 0.0
C85 C 0.5203 0.09316 0.49013 0.0
C86 C 0.51461 0.07083 0.49509 0.0
C87 C 0.51911 0.03602 0.49116 0.0
C88 C 0.5111 0.01904 0.47609 0.0
C89 C 0.51887 0.02954 0.51083 0.0
C90 C 0.52874 0.04685 0.52732 0.0
C91 C 0.55103 0.06643 0.52625 0.0
C92 C 0.56015 0.0827 0.54174 0.0
C93 C 0.5474 0.07937 0.55877 0.0
C94 C 0.52528 0.05969 0.55998 0.0
C95 C 0.51596 0.04366 0.54435 0.0
H96 H 0.53853 0.55395 0.67739 0.0
H97 H 0.52629 0.56861 0.7051 0.0
H98 H 0.45543 0.53189 0.68235 0.0
H99 H 0.46759 0.51664 0.65493 0.0
H100 H 0.5249 0.50955 0.66756 0.0
H101 H 0.51342 0.57073 0.63637 0.0
H102 H 0.48718 0.58516 0.62701 0.0
H103 H 0.44323 0.52128 0.59459 0.0
H104 H 0.46876 0.50674 0.60455 0.0
H105 H 0.50173 0.47868 0.58653 0.0
H106 H 0.51566 0.46397 0.56004 0.0
H107 H 0.58467 0.49902 0.58682 0.0
H108 H 0.57069 0.51383 0.6132 0.0
H109 H 0.5131 0.52126 0.59773 0.0
H110 H 0.50924 0.45752 0.62527 0.0
H111 H 0.51946 0.4287 0.63471 0.0
H112 H 0.57417 0.47916 0.67336 0.0
H113 H 0.56439 0.50835 0.66318 0.0
C114 C 0.50407 0.53452 0.66389 0.0
C115 C 0.52035 0.54903 0.67836 0.0
C116 C 0.51335 0.55735 0.69419 0.0
C117 C 0.48994 0.55143 0.69579 0.0
C118 C 0.47363 0.53694 0.6813 0.0
C119 C 0.48059 0.52831 0.66561 0.0
C120 C 0.51175 0.52522 0.64757 0.0
C121 C 0.5228 0.5126 0.6523 0.0
C122 C 0.50747 0.52767 0.62761 0.0
C123 C 0.49288 0.53756 0.62135 0.0
C124 C 0.49808 0.55987 0.62731 0.0
C125 C 0.4832 0.56815 0.62182 0.0
C126 C 0.46301 0.55424 0.61024 0.0
C127 C 0.45836 0.53223 0.60384 0.0
C128 C 0.47309 0.52399 0.60937 0.0
C129 C 0.53519 0.49734 0.6018 0.0
C130 C 0.51986 0.48323 0.58665 0.0
C131 C 0.52778 0.47467 0.57166 0.0
C132 C 0.55122 0.48033 0.57143 0.0
C133 C 0.56655 0.49451 0.58659 0.0
C134 C 0.55857 0.50288 0.60168 0.0
C135 C 0.52675 0.50625 0.61779 0.0
C136 C 0.51569 0.51875 0.61302 0.0
C137 C 0.52944 0.50229 0.63765 0.0
C138 C 0.53631 0.48519 0.64328 0.0
C139 C 0.52371 0.46252 0.63552 0.0
C140 C 0.52937 0.44596 0.64113 0.0
C141 C 0.54757 0.45162 0.65484 0.0
C142 C 0.56023 0.47436 0.6626 0.0
C143 C 0.55457 0.491 0.65691 0.0
H144 H 0.02899 0.57016 0.78675 0.0
H145 H 0.0552 0.58463 0.75935 0.0
H146 H 0.08587 0.54359 0.77677 0.0
H147 H 0.05863 0.52816 0.80343 0.0
H148 H -0.00381 0.52597 0.79126 0.0
H149 H 0.06531 0.58262 0.83417 0.0
H150 H 0.10498 0.59772 0.84748 0.0
H151 H 0.08909 0.52792 0.85892 0.0
H152 H 0.04942 0.51337 0.84667 0.0
H153 H 0.98508 0.48714 0.869 0.0
H154 H 0.95867 0.47489 0.89635 0.0
H155 H 0.92658 0.51248 0.87341 0.0
H156 H 0.95363 0.52534 0.8464 0.0
H157 H 0.01739 0.52786 0.86144 0.0
H158 H 0.95307 0.47048 0.82769 0.0
H159 H 0.91466 0.4453 0.81297 0.0
H160 H 0.9208 0.50193 0.77895 0.0
H161 H 0.95881 0.52747 0.79466 0.0
C162 C 0.04202 0.54831 0.79731 0.0
C163 C 0.04148 0.56441 0.78473 0.0
C164 C 0.05662 0.5728 0.76914 0.0
C165 C 0.07268 0.56529 0.76582 0.0
C166 C 0.07353 0.54953 0.77874 0.0
C167 C 0.05822 0.54098 0.79422 0.0
C168 C 0.02432 0.53787 0.81257 0.0
C169 C 0.00074 0.52687 0.80671 0.0
C170 C 0.03027 0.53756 0.83245 0.0
C171 C 0.05456 0.54694 0.83951 0.0
C172 C 0.07051 0.5707 0.83961 0.0
C173 C 0.09318 0.57924 0.84715 0.0
C174 C 0.10028 0.56408 0.85448 0.0
C175 C 0.08418 0.54023 0.85396 0.0
C176 C 0.06152 0.5318 0.84677 0.0
C177 C 0.97137 0.50718 0.85566 0.0
C178 C 0.97228 0.49266 0.86981 0.0
C179 C 0.95704 0.48551 0.88535 0.0
C180 C 0.94058 0.49279 0.8871 0.0
C181 C 0.93926 0.50682 0.87261 0.0
C182 C 0.95454 0.51398 0.85705 0.0
C183 C 0.98906 0.51654 0.84028 0.0
C184 C 0.01263 0.52731 0.84608 0.0
C185 C 0.98301 0.51562 0.82019 0.0
C186 C 0.95876 0.501 0.81252 0.0
C187 C 0.94593 0.47769 0.81748 0.0
C188 C 0.9241 0.46317 0.80875 0.0
C189 C 0.91475 0.47151 0.79457 0.0
C190 C 0.92739 0.49498 0.78991 0.0
C191 C 0.94919 0.50957 0.7988 0.0
H192 H 0.54658 0.06464 0.98474 0.0
H193 H 0.57375 0.10473 0.99457 0.0
H194 H 0.52079 0.10598 0.02975 0.0
H195 H 0.49341 0.06601 0.01934 0.0
H196 H 0.49824 0.03016 0.02785 0.0
H197 H 0.52321 0.02613 0.94811 0.0
H198 H 0.53513 0.04977 0.91899 0.0
H199 H 0.49976 0.0853 0.93948 0.0
H200 H 0.48757 0.06134 0.96843 0.0
H201 H 0.43854 0.96116 0.96893 0.0
H202 H 0.42311 0.92055 0.9596 0.0
H203 H 0.47738 0.91971 0.99485 0.0
H204 H 0.49235 0.96016 0.00441 0.0
H205 H 0.48123 0.99601 0.96045 0.0
H206 H 0.43737 0.96674 0.01882 0.0
H207 H 0.4236 0.94547 0.04904 0.0
H208 H 0.4946 0.97747 0.07149 0.0
H209 H 0.50813 -0.00102 0.04142 0.0
C210 C 0.51791 0.06238 0.00119 0.0
C211 C 0.54062 0.07371 0.99416 0.0
C212 C 0.55623 0.09654 -0.0 0.0
C213 C 0.54947 0.10843 0.01309 0.0
C214 C 0.52646 0.09733 0.01955 0.0
C215 C 0.51084 0.07448 0.01369 0.0
C216 C 0.50246 0.03731 0.99712 0.0
C217 C 0.49437 0.02271 0.01309 0.0
C218 C 0.49727 0.02757 0.97791 0.0
C219 C 0.50461 0.04208 0.96044 0.0
C220 C 0.51797 0.03896 0.94628 0.0
C221 C 0.52488 0.05256 0.92974 0.0
C222 C 0.51836 0.06936 0.927 0.0
C223 C 0.50484 0.07233 0.94114 0.0
C224 C 0.49805 0.05882 0.95774 0.0
C225 C 0.46653 0.96364 0.9874 0.0
C226 C 0.44688 0.9521 0.97484 0.0
C227 C 0.43819 0.92893 0.96944 0.0
C228 C 0.44914 0.9169 0.97632 0.0
C229 C 0.46834 0.92833 0.98946 0.0
C230 C 0.47695 0.95148 0.99493 0.0
C231 C 0.47739 0.98886 0.99122 0.0
C232 C 0.4848 0.00347 0.97519 0.0
C233 C 0.48194 -0.00136 0.01038 0.0
C234 C 0.47375 0.98435 0.02791 0.0
C235 C 0.44995 0.96894 0.03018 0.0
C236 C 0.44213 0.95682 0.04746 0.0
C237 C 0.45801 0.95992 0.06272 0.0
C238 C 0.48189 0.97505 0.06018 0.0
C239 C 0.48966 0.98722 0.04297 0.0
H240 H 0.46545 0.47059 0.18287 0.0
H241 H 0.47506 0.45308 0.20999 0.0
H242 H 0.54827 0.49746 0.1999 0.0
H243 H 0.53868 0.51559 0.17324 0.0
H244 H 0.47505 0.5136 0.17773 0.0
H245 H 0.49731 0.46205 0.14519 0.0
H246 H 0.52566 0.44935 0.14029 0.0
H247 H 0.57452 0.51667 0.11889 0.0
H248 H 0.54651 0.52951 0.12469 0.0
H249 H 0.50959 0.55718 0.10334 0.0
H250 H 0.49699 0.57101 0.07535 0.0
H251 H 0.42516 0.52485 0.08921 0.0
H252 H 0.43785 0.51079 0.11694 0.0
H253 H 0.50315 0.51557 0.11055 0.0
H254 H 0.48572 0.56816 0.14056 0.0
H255 H 0.46641 0.58887 0.15208 0.0
H256 H 0.41577 0.52787 0.1811 0.0
H257 H 0.43468 0.50681 0.16894 0.0
C258 C 0.50133 0.49411 0.1758 0.0
C259 C 0.48358 0.47669 0.18659 0.0
C260 C 0.48906 0.46672 0.20206 0.0
C261 C 0.51237 0.47386 0.20687 0.0
C262 C 0.53015 0.49148 0.19626 0.0
C263 C 0.52468 0.50176 0.18101 0.0
C264 C 0.49519 0.50432 0.15926 0.0
C265 C 0.48074 0.51359 0.16292 0.0
C266 C 0.50376 0.50543 0.14021 0.0
C267 C 0.51992 0.49683 0.13557 0.0
C268 C 0.51415 0.47405 0.13947 0.0
C269 C 0.53033 0.46678 0.13652 0.0
C270 C 0.55248 0.48206 0.12936 0.0
C271 C 0.55783 0.5046 0.12481 0.0
C272 C 0.54172 0.51189 0.12789 0.0
C273 C 0.47466 0.53301 0.11225 0.0
C274 C 0.49113 0.55005 0.10034 0.0
C275 C 0.48392 0.55808 0.08447 0.0
C276 C 0.46009 0.54903 0.08012 0.0
C277 C 0.44364 0.53202 0.09212 0.0
C278 C 0.45086 0.52409 0.10804 0.0
C279 C 0.48231 0.52422 0.1289 0.0
C280 C 0.4971 0.51528 0.12527 0.0
C281 C 0.4745 0.5239 0.14811 0.0
C282 C 0.46149 0.53579 0.15362 0.0
C283 C 0.47005 0.55896 0.14887 0.0
C284 C 0.45907 0.57083 0.15554 0.0
C285 C 0.4396 0.55992 0.16744 0.0
C286 C 0.43082 0.53667 0.17201 0.0
C287 C 0.4416 0.52467 0.16507 0.0
Mg288 Mg 0.61828 0.36466 0.37045 0.0
O289 O 0.61514 0.38557 0.39603 0.0
O290 O 0.63192 0.42234 0.38703 0.0
Mg291 Mg 0.64419 0.42469 0.35572 0.0
C292 C 0.62143 0.40674 0.39957 0.0
C293 C 0.59044 0.32363 0.39838 0.0
O294 O 0.57466 0.32974 0.39548 0.0
O295 O 0.6569 0.38013 0.37733 0.0
O296 O 0.67176 0.41592 0.36639 0.0
O297 O 0.5841 0.35765 0.35783 0.0
O298 O 0.61791 0.38794 0.35088 0.0
C299 C 0.67425 0.39994 0.37399 0.0
C300 C 0.59553 0.37701 0.34898 0.0
O301 O 0.61002 0.33485 0.39035 0.0
Mg302 Mg 0.26667 0.64761 0.58776 0.0
O303 O 0.24242 0.62934 0.56114 0.0
O304 O 0.22008 0.59217 0.56827 0.0
Mg305 Mg 0.22881 0.58719 0.59969 0.0
C306 C 0.22651 0.60877 0.55648 0.0
C307 C 0.28333 0.68933 0.55943 0.0
O308 O 0.26116 0.68317 0.55936 0.0
O309 O 0.28778 0.63043 0.58086 0.0
O310 O 0.26495 0.59423 0.59027 0.0
O311 O 0.24093 0.65603 0.60033 0.0
O312 O 0.24197 0.62417 0.60624 0.0
C313 C 0.2841 0.61008 0.58359 0.0
C314 C 0.23192 0.63624 0.60866 0.0
O315 O 0.29035 0.67799 0.56934 0.0
Mg316 Mg 0.63141 0.27149 0.75668 0.0
O317 O 0.6272 0.24593 0.73191 0.0
O318 O 0.64301 0.2253 0.7427 0.0
Mg319 Mg 0.65818 0.23835 0.77355 0.0
C320 C 0.63234 0.23003 0.72948 0.0
C321 C 0.6012 0.28387 0.72929 0.0
O322 O 0.5849 0.26321 0.73422 0.0
O323 O 0.66946 0.2939 0.75009 0.0
O324 O 0.68529 0.27364 0.76158 0.0
O325 O 0.59802 0.24519 0.76913 0.0
O326 O 0.63242 0.24961 0.77737 0.0
C327 C 0.6871 0.29157 0.75353 0.0
C328 C 0.61012 0.23814 0.77885 0.0
O329 O 0.62191 0.29159 0.73573 0.0
Mg330 Mg 0.39013 0.65344 0.87352 0.0
O331 O 0.39553 0.63453 0.8992 0.0
O332 O 0.37802 0.59711 0.89035 0.0
Mg333 Mg 0.36231 0.59212 0.85953 0.0
C334 C 0.38964 0.61363 0.90276 0.0
C335 C 0.39884 0.70125 0.88462 0.0
O336 O 0.39216 0.69832 0.86607 0.0
O337 O 0.35226 0.63896 0.88101 0.0
O338 O 0.33591 0.60182 0.87142 0.0
O339 O 0.42276 0.65889 0.85989 0.0
O340 O 0.38805 0.62839 0.85385 0.0
C341 C 0.33454 0.61881 0.87871 0.0
C342 C 0.41013 0.639 0.85106 0.0
O343 O 0.40045 0.68525 0.89295 0.0
Mg344 Mg 0.74575 0.39318 0.06382 0.0
O345 O 0.76764 0.39844 0.09199 0.0
O346 O 0.78968 0.38252 0.0859 0.0
Mg347 Mg 0.78377 0.36929 0.05413 0.0
C348 C 0.78273 0.39296 0.09741 0.0
C349 C 0.72694 0.42074 0.08805 0.0
O350 O 0.7489 0.43708 0.08778 0.0
O351 O 0.72308 0.35474 0.06921 0.0
O352 O 0.74666 0.34117 0.06117 0.0
O353 O 0.77336 0.42687 0.05241 0.0
O354 O 0.77149 0.39338 0.0469 0.0
C355 C 0.72693 0.33801 0.06657 0.0
C356 C 0.78226 0.41533 0.04461 0.0
O357 O 0.72085 0.40112 0.08017 0.0
Mg358 Mg 0.36615 0.76264 0.22978 0.0
O359 O 0.38585 0.78141 0.25827 0.0
O360 O 0.42367 0.80111 0.25139 0.0
Mg361 Mg 0.4278 0.79626 0.2188 0.0
C362 C 0.40717 0.79477 0.26343 0.0
C363 C 0.31965 0.72069 0.23611 0.0
O364 O 0.32486 0.71822 0.21808 0.0
O365 O 0.37916 0.7373 0.23189 0.0
O366 O 0.41626 0.75793 0.22328 0.0
O367 O 0.36189 0.79249 0.22241 0.0
O368 O 0.39166 0.78847 0.21361 0.0
C369 C 0.39868 0.73891 0.22819 0.0
C370 C 0.38181 0.8009 0.21407 0.0
O371 O 0.33393 0.73851 0.24617 0.0
C372 C 0.12405 0.57241 0.27906 0.0
C373 C 0.11745 0.5736 0.2983 0.0
C374 C 0.1467 0.5875 0.27324 0.0
C375 C 0.19712 0.64434 0.28548 0.0
H376 H 0.23046 0.62316 0.25289 0.0
C377 C 0.29204 0.70507 0.26378 0.0
C378 C 0.29739 0.70319 0.24426 0.0
C379 C 0.27075 0.68864 0.27124 0.0
C380 C 0.22129 0.62938 0.26185 0.0
H381 H 0.12968 0.591 0.32671 0.0
H382 H 0.16914 0.61748 0.31648 0.0
H383 H 0.19189 0.5954 0.26421 0.0
H384 H 0.28468 0.68256 0.21728 0.0
H385 H 0.24748 0.65422 0.23017 0.0
H386 H 0.22625 0.67835 0.28287 0.0
C387 C 0.15669 0.60508 0.30584 0.0
C388 C 0.19923 0.61348 0.26833 0.0
C389 C 0.13409 0.58995 0.31168 0.0
C390 C 0.28113 0.68448 0.23241 0.0
C391 C 0.25984 0.66812 0.23984 0.0
C392 C 0.21913 0.66026 0.27894 0.0
C393 C 0.16318 0.60413 0.28653 0.0
C394 C 0.18688 0.62082 0.28013 0.0
C395 C 0.25436 0.67004 0.25931 0.0
C396 C 0.23141 0.65298 0.26694 0.0
H397 H 0.11156 0.56021 0.26834 0.0
H398 H 0.15114 0.58656 0.25819 0.0
H399 H 0.18786 0.65055 0.29434 0.0
H400 H 0.30427 0.71923 0.2733 0.0
H401 H 0.26717 0.69044 0.28638 0.0
C402 C 0.52443 0.13381 0.46809 0.0
C403 C 0.5423 0.12844 0.47012 0.0
C404 C 0.52938 0.1557 0.46233 0.0
C405 C 0.57758 0.21593 0.45814 0.0
H406 H 0.53588 0.21966 0.41984 0.0
C407 C 0.60225 0.29698 0.4133 0.0
C408 C 0.58501 0.30293 0.40967 0.0
C409 C 0.5968 0.27658 0.42271 0.0
C410 C 0.54751 0.21895 0.43076 0.0
H411 H 0.57948 0.14204 0.46805 0.0
H412 H 0.58805 0.18007 0.45748 0.0
H413 H 0.52689 0.18222 0.43215 0.0
H414 H 0.54872 0.29252 0.41365 0.0
H415 H 0.53923 0.25685 0.43011 0.0
H416 H 0.59845 0.25269 0.45636 0.0
C417 C 0.57023 0.16744 0.4606 0.0
C418 C 0.54236 0.19749 0.43782 0.0
C419 C 0.56528 0.14554 0.46641 0.0
C420 C 0.56237 0.28838 0.41616 0.0
C421 C 0.5569 0.2679 0.42549 0.0
C422 C 0.58277 0.2374 0.45101 0.0
C423 C 0.55231 0.17273 0.45839 0.0
C424 C 0.55742 0.1957 0.45149 0.0
C425 C 0.57399 0.26165 0.42863 0.0
C426 C 0.56787 0.23911 0.43714 0.0
H427 H 0.50649 0.12097 0.47061 0.0
H428 H 0.51521 0.15928 0.46098 0.0
H429 H 0.58934 0.21519 0.46889 0.0
H430 H 0.61989 0.30785 0.40854 0.0
H431 H 0.6103 0.27213 0.42475 0.0
C432 C 0.4541 0.58477 0.59913 0.0
C433 C 0.44633 0.56211 0.60512 0.0
C434 C 0.43806 0.59157 0.59355 0.0
C435 C 0.37691 0.56736 0.57657 0.0
H436 H 0.38319 0.62457 0.59734 0.0
C437 C 0.29974 0.58288 0.58319 0.0
C438 C 0.30326 0.60517 0.58041 0.0
C439 C 0.31838 0.5788 0.58247 0.0
C440 C 0.3814 0.60875 0.59109 0.0
H441 H 0.41572 0.52917 0.61078 0.0
H442 H 0.38792 0.54096 0.60103 0.0
H443 H 0.41412 0.61565 0.60367 0.0
H444 H 0.32901 0.64042 0.57369 0.0
H445 H 0.36152 0.63315 0.5724 0.0
H446 H 0.34394 0.56014 0.56443 0.0
C447 C 0.40634 0.55332 0.60017 0.0
C448 C 0.39911 0.60364 0.59474 0.0
C449 C 0.42228 0.54658 0.60579 0.0
C450 C 0.32568 0.62304 0.57601 0.0
C451 C 0.34436 0.61895 0.57537 0.0
C452 C 0.35924 0.57246 0.57291 0.0
C453 C 0.41402 0.5758 0.59382 0.0
C454 C 0.39674 0.58261 0.58796 0.0
C455 C 0.34098 0.59688 0.57898 0.0
C456 C 0.36103 0.59293 0.58054 0.0
H457 H 0.47253 0.59707 0.59835 0.0
H458 H 0.44446 0.60901 0.58869 0.0
H459 H 0.37484 0.55123 0.57081 0.0
H460 H 0.28273 0.5687 0.58654 0.0
H461 H 0.31523 0.56163 0.58551 0.0
C462 C 0.8866 0.43289 0.77921 0.0
C463 C 0.89217 0.45554 0.78443 0.0
C464 C 0.86496 0.41738 0.77065 0.0
C465 C 0.80502 0.40684 0.7674 0.0
H466 H 0.79632 0.35706 0.73191 0.0
C467 C 0.71368 0.33299 0.74557 0.0
C468 C 0.71058 0.31109 0.74968 0.0
C469 C 0.73602 0.35218 0.74479 0.0
C470 C 0.79853 0.37095 0.74173 0.0
H471 H 0.87959 0.47989 0.784 0.0
H472 H 0.84202 0.45298 0.76848 0.0
H473 H 0.83561 0.38878 0.73972 0.0
H474 H 0.72853 0.29191 0.75473 0.0
H475 H 0.76749 0.32541 0.75327 0.0
H476 H 0.76798 0.38879 0.76965 0.0
C477 C 0.85426 0.44708 0.77142 0.0
C478 C 0.82099 0.38905 0.74629 0.0
C479 C 0.87589 0.46259 0.78014 0.0
C480 C 0.7303 0.30856 0.75169 0.0
C481 C 0.75263 0.32771 0.75072 0.0
C482 C 0.78258 0.38888 0.76267 0.0
C483 C 0.84838 0.42416 0.76688 0.0
C484 C 0.82454 0.40685 0.75966 0.0
C485 C 0.75569 0.34981 0.74786 0.0
C486 C 0.77916 0.37045 0.75024 0.0
H487 H 0.89891 0.42702 0.7819 0.0
H488 H 0.86099 0.39982 0.76761 0.0
H489 H 0.80704 0.42003 0.77794 0.0
H490 H 0.69889 0.33556 0.74384 0.0
H491 H 0.73793 0.369 0.74237 0.0
C492 C 0.44144 0.8764 0.98111 0.0
C493 C 0.44154 0.89311 0.9688 0.0
C494 C 0.4354 0.85444 0.97362 0.0
C495 C 0.40498 0.81412 0.93171 0.0
H496 H 0.44416 0.78822 0.94487 0.0
C497 C 0.40227 0.74019 0.88585 0.0
C498 C 0.40357 0.72251 0.89558 0.0
C499 C 0.40602 0.76004 0.89609 0.0
C500 C 0.43284 0.79504 0.94126 0.0
H501 H 0.43561 0.89981 0.93889 0.0
H502 H 0.42487 0.8616 0.92596 0.0
H503 H 0.4517 0.82443 0.9607 0.0
H504 H 0.41003 0.71191 0.92372 0.0
H505 H 0.41644 0.74663 0.94169 0.0
H506 H 0.38626 0.78496 0.91215 0.0
C507 C 0.42911 0.86532 0.94146 0.0
C508 C 0.43716 0.81578 0.95034 0.0
C509 C 0.43522 0.88724 0.9489 0.0
C510 C 0.40895 0.72524 0.91579 0.0
C511 C 0.4127 0.74516 0.92607 0.0
C512 C 0.40065 0.79342 0.92268 0.0
C513 C 0.42924 0.84871 0.95369 0.0
C514 C 0.42351 0.82574 0.9454 0.0
C515 C 0.4111 0.76271 0.91634 0.0
C516 C 0.41477 0.78384 0.92708 0.0
H517 H 0.44597 0.88027 0.99655 0.0
H518 H 0.43544 0.84191 0.98344 0.0
H519 H 0.39389 0.82113 0.92786 0.0
H520 H 0.3983 0.73873 0.87028 0.0
H521 H 0.40512 0.77342 0.88806 0.0
C522 C 0.59368 0.48998 0.13164 0.0
C523 C 0.57007 0.47469 0.12684 0.0
C524 C 0.61033 0.48329 0.12894 0.0
C525 C 0.62007 0.44115 0.10109 0.0
H526 H 0.67197 0.46066 0.13802 0.0
C527 C 0.68531 0.4088 0.09389 0.0
C528 C 0.70902 0.4257 0.09555 0.0
C529 C 0.66818 0.414 0.09923 0.0
C530 C 0.65765 0.45521 0.12753 0.0
H531 H 0.54547 0.44026 0.11554 0.0
H532 H 0.57441 0.42837 0.11132 0.0
H533 H 0.64214 0.47098 0.14444 0.0
H534 H 0.73334 0.46108 0.10484 0.0
H535 H 0.70335 0.47016 0.11419 0.0
H536 H 0.63555 0.42539 0.08421 0.0
C537 C 0.58012 0.44569 0.11689 0.0
C538 C 0.64058 0.46115 0.13117 0.0
C539 C 0.56347 0.45242 0.11953 0.0
C540 C 0.71523 0.44768 0.10335 0.0
C541 C 0.69807 0.45286 0.10878 0.0
C542 C 0.63704 0.43513 0.09752 0.0
C543 C 0.60378 0.46111 0.12144 0.0
C544 C 0.62162 0.45427 0.11794 0.0
C545 C 0.67435 0.43619 0.10643 0.0
C546 C 0.65606 0.44215 0.11066 0.0
H547 H 0.59933 0.50715 0.13759 0.0
H548 H 0.62841 0.4957 0.13241 0.0
H549 H 0.60598 0.43594 0.0904 0.0
H550 H 0.67989 0.39164 0.08804 0.0
H551 H 0.65006 0.40069 0.09755 0.0
C552 C 0.43307 0.88465 0.53461 0.0
C553 C 0.44299 0.89228 0.51628 0.0
C554 C 0.41589 0.86172 0.53693 0.0
C555 C 0.38985 0.80291 0.51588 0.0
H556 H 0.33616 0.79373 0.54484 0.0
C557 C 0.324 0.7165 0.54939 0.0
C558 C 0.30044 0.71048 0.54965 0.0
C559 C 0.34067 0.73761 0.54207 0.0
C560 C 0.35086 0.79597 0.53648 0.0
H561 H 0.44326 0.88163 0.48616 0.0
H562 H 0.41331 0.84132 0.49032 0.0
H563 H 0.36737 0.83277 0.53896 0.0
H564 H 0.27573 0.72135 0.54144 0.0
H565 H 0.30493 0.75829 0.52864 0.0
H566 H 0.37331 0.766 0.51359 0.0
C567 C 0.4189 0.85318 0.50286 0.0
C568 C 0.36888 0.81833 0.53335 0.0
C569 C 0.43609 0.87621 0.50051 0.0
C570 C 0.29376 0.72555 0.54158 0.0
C571 C 0.31048 0.74673 0.53432 0.0
C572 C 0.37183 0.78047 0.51913 0.0
C573 C 0.40827 0.84587 0.52099 0.0
C574 C 0.38872 0.82204 0.52329 0.0
C575 C 0.33417 0.75319 0.5349 0.0
C576 C 0.35228 0.77679 0.52968 0.0
H577 H 0.43835 0.89652 0.54712 0.0
H578 H 0.40836 0.85644 0.55119 0.0
H579 H 0.40495 0.80529 0.50808 0.0
H580 H 0.32971 0.70521 0.55539 0.0
H581 H 0.3588 0.74215 0.54287 0.0
C582 C 0.57599 0.43857 0.66368 0.0
C583 C 0.55286 0.43362 0.66126 0.0
C584 C 0.58082 0.42144 0.66953 0.0
C585 C 0.55453 0.36572 0.69429 0.0
H586 H 0.60459 0.36041 0.67087 0.0
C587 C 0.5719 0.29215 0.71353 0.0
C588 C 0.59524 0.299 0.71807 0.0
C589 C 0.5662 0.30744 0.7047 0.0
C590 C 0.59063 0.36176 0.6776 0.0
H591 H 0.51667 0.40692 0.66337 0.0
H592 H 0.52507 0.37697 0.67315 0.0
H593 H 0.59583 0.38976 0.6596 0.0
H594 H 0.63097 0.32688 0.7161 0.0
H595 H 0.62099 0.35351 0.70081 0.0
H596 H 0.54944 0.33788 0.71239 0.0
C597 C 0.53949 0.39411 0.67069 0.0
C598 C 0.58566 0.3786 0.67119 0.0
C599 C 0.53468 0.41122 0.66487 0.0
C600 C 0.6128 0.32108 0.71286 0.0
C601 C 0.60711 0.33632 0.70398 0.0
C602 C 0.55947 0.34887 0.70066 0.0
C603 C 0.56261 0.39902 0.6731 0.0
C604 C 0.56764 0.38085 0.67956 0.0
C605 C 0.58372 0.32982 0.70015 0.0
C606 C 0.57766 0.34681 0.69247 0.0
H607 H 0.59037 0.45562 0.66086 0.0
H608 H 0.59882 0.42582 0.67147 0.0
H609 H 0.54077 0.36723 0.70124 0.0
H610 H 0.55797 0.27522 0.71727 0.0
H611 H 0.54804 0.30185 0.70166 0.0
C612 C 0.14354 0.59158 0.85374 0.0
C613 C 0.12441 0.57282 0.86231 0.0
C614 C 0.16627 0.59839 0.86006 0.0
C615 C 0.19984 0.57397 0.87666 0.0
H616 H 0.24748 0.6356 0.89365 0.0
C617 C 0.29365 0.59384 0.88915 0.0
C618 C 0.31133 0.61534 0.88305 0.0
C619 C 0.27096 0.5897 0.89101 0.0
C620 C 0.2345 0.61835 0.88871 0.0
H621 H 0.11438 0.54763 0.8852 0.0
H622 H 0.15412 0.55883 0.89537 0.0
H623 H 0.20747 0.62716 0.88798 0.0
H624 H 0.31948 0.64962 0.8747 0.0
H625 H 0.27978 0.64211 0.87675 0.0
H626 H 0.22659 0.56526 0.87588 0.0
C627 C 0.15134 0.56821 0.88386 0.0
C628 C 0.21159 0.61355 0.88563 0.0
C629 C 0.12862 0.56169 0.87785 0.0
C630 C 0.30615 0.63291 0.87955 0.0
C631 C 0.28333 0.62859 0.88086 0.0
C632 C 0.22277 0.57886 0.87926 0.0
C633 C 0.1703 0.58638 0.87482 0.0
C634 C 0.19417 0.59135 0.87947 0.0
C635 C 0.26528 0.60674 0.88619 0.0
C636 C 0.24052 0.60118 0.88515 0.0
H637 H 0.14106 0.60042 0.84162 0.0
H638 H 0.18073 0.61234 0.85278 0.0
H639 H 0.18667 0.55678 0.87168 0.0
H640 H 0.29731 0.5801 0.8922 0.0
H641 H 0.25779 0.57291 0.89579 0.0
C642 C 0.58927 0.13662 0.02653 0.0
C643 C 0.56679 0.1318 0.02086 0.0
C644 C 0.6057 0.15847 0.03391 0.0
C645 C 0.61268 0.21241 0.05608 0.0
H646 H 0.67526 0.23842 0.03678 0.0
C647 C 0.68424 0.30894 0.06563 0.0
C648 C 0.70746 0.31398 0.0676 0.0
C649 C 0.66619 0.2861 0.06283 0.0
C650 C 0.65799 0.23129 0.04261 0.0
H651 H 0.54385 0.14608 0.01868 0.0
H652 H 0.57274 0.18447 0.0315 0.0
H653 H 0.64551 0.20005 0.02561 0.0
H654 H 0.72972 0.29892 0.07002 0.0
H655 H 0.69828 0.25918 0.06562 0.0
H656 H 0.6253 0.24397 0.07292 0.0
C657 C 0.5775 0.17119 0.03041 0.0
C658 C 0.6409 0.20929 0.03615 0.0
C659 C 0.561 0.14926 0.02302 0.0
C660 C 0.71206 0.29564 0.06823 0.0
C661 C 0.69405 0.27287 0.06559 0.0
C662 C 0.62986 0.23452 0.06258 0.0
C663 C 0.60009 0.17607 0.03579 0.0
C664 C 0.61807 0.19955 0.04281 0.0
C665 C 0.67105 0.2679 0.06208 0.0
C666 C 0.65274 0.24417 0.05594 0.0
H667 H 0.5941 0.12339 0.02549 0.0
H668 H 0.6228 0.16153 0.03829 0.0
H669 H 0.59527 0.20527 0.06161 0.0
H670 H 0.68012 0.32269 0.06508 0.0
H671 H 0.64866 0.28286 0.06014 0.0
C672 C 0.42612 0.57318 0.19627 0.0
C673 C 0.42955 0.57334 0.17601 0.0
C674 C 0.41918 0.58786 0.20473 0.0
C675 C 0.42407 0.63415 0.21785 0.0
H676 H 0.37662 0.64444 0.19418 0.0
C677 C 0.42209 0.719 0.22596 0.0
C678 C 0.40039 0.71768 0.22785 0.0
C679 C 0.4234 0.69895 0.22316 0.0
C680 C 0.38969 0.64155 0.20113 0.0
H681 H 0.42738 0.58804 0.14859 0.0
H682 H 0.41499 0.61356 0.16334 0.0
H683 H 0.38168 0.61275 0.18187 0.0
H684 H 0.36313 0.69416 0.22925 0.0
H685 H 0.36551 0.65922 0.22414 0.0
H686 H 0.43264 0.66347 0.23664 0.0
C687 C 0.41772 0.60214 0.17268 0.0
C688 C 0.3927 0.62355 0.19399 0.0
C689 C 0.42495 0.58769 0.16426 0.0
C690 C 0.38013 0.69581 0.22779 0.0
C691 C 0.38144 0.67579 0.22478 0.0
C692 C 0.42125 0.65232 0.22485 0.0
C693 C 0.41523 0.60271 0.19304 0.0
C694 C 0.41018 0.61995 0.20205 0.0
C695 C 0.40304 0.67721 0.22203 0.0
C696 C 0.4043 0.65642 0.21632 0.0
H697 H 0.42974 0.56239 0.20567 0.0
H698 H 0.41727 0.58791 0.22045 0.0
H699 H 0.43781 0.63185 0.22423 0.0
H700 H 0.43803 0.73555 0.22603 0.0
H701 H 0.44028 0.70055 0.22094 0.0
C702 C 0.87539 0.44014 0.37934 0.0
C703 C 0.88239 0.43826 0.36039 0.0
C704 C 0.85203 0.43266 0.38289 0.0
C705 C 0.80148 0.42714 0.35653 0.0
H706 H 0.76731 0.39668 0.40268 0.0
C707 C 0.7174 0.42595 0.37417 0.0
C708 C 0.69813 0.40409 0.37749 0.0
C709 C 0.73986 0.42923 0.37465 0.0
C710 C 0.77668 0.40514 0.38972 0.0
H711 H 0.87022 0.42592 0.33057 0.0
H712 H 0.82946 0.41257 0.33685 0.0
H713 H 0.80615 0.40165 0.39786 0.0
H714 H 0.68754 0.36891 0.38533 0.0
H715 H 0.72696 0.37472 0.38607 0.0
H716 H 0.7723 0.43073 0.34831 0.0
C717 C 0.84208 0.42005 0.34889 0.0
C718 C 0.79886 0.40805 0.387 0.0
C719 C 0.86539 0.42748 0.34535 0.0
C720 C 0.70199 0.38594 0.38258 0.0
C721 C 0.72455 0.38926 0.38308 0.0
C722 C 0.77952 0.42441 0.35931 0.0
C723 C 0.8353 0.42326 0.36753 0.0
C724 C 0.81143 0.41906 0.37034 0.0
C725 C 0.74358 0.41075 0.37849 0.0
C726 C 0.76694 0.41352 0.37596 0.0
H727 H 0.8881 0.44812 0.39126 0.0
H728 H 0.84729 0.43538 0.39738 0.0
H729 H 0.81088 0.43601 0.3437 0.0
H730 H 0.71514 0.44042 0.3705 0.0
H731 H 0.7543 0.4461 0.37144 0.0
C732 C 0.1156 0.55678 0.39954 0.0
C733 C 0.09261 0.55129 0.40331 0.0
C734 C 0.13264 0.56534 0.41457 0.0
C735 C 0.14712 0.59425 0.46322 0.0
H736 H 0.18369 0.56427 0.47104 0.0
C737 C 0.2168 0.62226 0.52551 0.0
C738 C 0.21464 0.60406 0.537 0.0
C739 C 0.20442 0.61764 0.50768 0.0
C740 C 0.17366 0.57286 0.46897 0.0
H741 H 0.06965 0.55048 0.426 0.0
H742 H 0.09948 0.56589 0.45197 0.0
H743 H 0.15701 0.55323 0.44261 0.0
H744 H 0.19839 0.56678 0.5384 0.0
H745 H 0.17698 0.55881 0.50727 0.0
H746 H 0.16335 0.6135 0.48979 0.0
C747 C 0.10431 0.56372 0.43734 0.0
C748 C 0.15855 0.56668 0.45265 0.0
C749 C 0.08723 0.55493 0.42241 0.0
C750 C 0.20038 0.5812 0.52997 0.0
C751 C 0.18824 0.57662 0.51206 0.0
C752 C 0.16241 0.60061 0.47941 0.0
C753 C 0.12713 0.56885 0.43362 0.0
C754 C 0.1448 0.577 0.44983 0.0
C755 C 0.18989 0.59477 0.50086 0.0
C756 C 0.1755 0.58966 0.48265 0.0
H757 H 0.12048 0.55458 0.38495 0.0
H758 H 0.15017 0.56935 0.41127 0.0
H759 H 0.13685 0.60261 0.4613 0.0
H760 H 0.22765 0.64007 0.53048 0.0
H761 H 0.20612 0.63196 0.49926 0.0
C762 C 0.56587 0.11978 0.57264 0.0
C763 C 0.55732 0.09615 0.57544 0.0
C764 C 0.57497 0.13553 0.58851 0.0
C765 C 0.60315 0.14479 0.63642 0.0
H766 H 0.57799 0.18476 0.64843 0.0
C767 C 0.62351 0.19436 0.71019 0.0
C768 C 0.62517 0.21613 0.71097 0.0
C769 C 0.61619 0.18084 0.69296 0.0
C770 C 0.58557 0.17408 0.64512 0.0
H771 H 0.55184 0.07042 0.59675 0.0
H772 H 0.56829 0.09807 0.62447 0.0
H773 H 0.56383 0.15938 0.61929 0.0
H774 H 0.62083 0.241 0.69415 0.0
H775 H 0.60891 0.21779 0.66379 0.0
H776 H 0.62529 0.15966 0.66181 0.0
C777 C 0.56774 0.10433 0.61006 0.0
C778 C 0.57734 0.15947 0.62847 0.0
C779 C 0.55824 0.08855 0.59428 0.0
C780 C 0.61959 0.22422 0.69404 0.0
C781 C 0.61262 0.21083 0.67666 0.0
C782 C 0.61168 0.15965 0.65285 0.0
C783 C 0.57609 0.12793 0.60733 0.0
C784 C 0.58582 0.14447 0.62418 0.0
C785 C 0.61072 0.1889 0.67592 0.0
C786 C 0.60272 0.17422 0.65764 0.0
H787 H 0.56523 0.12598 0.55822 0.0
H788 H 0.58139 0.15367 0.58607 0.0
H789 H 0.61015 0.13356 0.63323 0.0
H790 H 0.62741 0.1875 0.72304 0.0
H791 H 0.61443 0.16386 0.69316 0.0
C792 C 0.46873 0.57036 0.70972 0.0
C793 C 0.4826 0.5602 0.71267 0.0
C794 C 0.46221 0.57906 0.72565 0.0
C795 C 0.45244 0.573 0.77815 0.0
H796 H 0.45992 0.6343 0.77633 0.0
C797 C 0.40705 0.60658 0.82988 0.0
C798 C 0.42052 0.62916 0.83775 0.0
C799 C 0.41621 0.59801 0.81597 0.0
C800 C 0.45791 0.61723 0.77709 0.0
H801 H 0.50017 0.55074 0.73449 0.0
H802 H 0.48848 0.56567 0.7624 0.0
H803 H 0.47252 0.61962 0.74888 0.0
H804 H 0.45437 0.66029 0.83746 0.0
H805 H 0.47024 0.64536 0.81285 0.0
H806 H 0.4374 0.57045 0.8062 0.0
C807 C 0.48281 0.56703 0.74778 0.0
C808 C 0.46491 0.60877 0.76134 0.0
C809 C 0.4896 0.55864 0.73183 0.0
C810 C 0.44356 0.6428 0.83172 0.0
C811 C 0.45261 0.63433 0.81757 0.0
C812 C 0.44513 0.58133 0.79379 0.0
C813 C 0.46917 0.57743 0.74482 0.0
C814 C 0.46216 0.58655 0.76169 0.0
C815 C 0.43892 0.61194 0.80942 0.0
C816 C 0.44775 0.6035 0.79337 0.0
H817 H 0.46321 0.57187 0.69508 0.0
H818 H 0.45154 0.58684 0.723 0.0
H819 H 0.45003 0.55576 0.77873 0.0
H820 H 0.38924 0.59564 0.83409 0.0
H821 H 0.40522 0.58076 0.80979 0.0
C822 C 0.91573 0.46427 0.91198 0.0
C823 C 0.92556 0.48652 0.90441 0.0
C824 C 0.90247 0.45871 0.92879 0.0
C825 C 0.86804 0.47629 0.95872 0.0
H826 H 0.87529 0.4388 -0.00218 0.0
C827 C 0.8137 0.45013 0.02845 0.0
C828 C 0.80315 0.42652 0.0325 0.0
C829 C 0.83146 0.45986 0.01488 0.0
C830 C 0.87302 0.44923 0.98701 0.0
H831 H 0.92927 0.52044 0.90864 0.0
H832 H 0.90593 0.51066 0.9379 0.0
H833 H 0.90016 0.45073 0.96945 0.0
H834 H 0.80358 0.39486 0.026 0.0
H835 H 0.83433 0.41173 0.00251 0.0
H836 H 0.84056 0.47436 0.97603 0.0
C837 C 0.90832 0.49745 0.93071 0.0
C838 C 0.88721 0.45601 0.97074 0.0
C839 C 0.92162 0.50303 0.91391 0.0
C840 C 0.81141 0.41312 0.02337 0.0
C841 C 0.82914 0.42283 0.0099 0.0
C842 C 0.85381 0.46949 0.97498 0.0
C843 C 0.89871 0.47527 0.9384 0.0
C844 C 0.88462 0.4693 0.95626 0.0
C845 C 0.83903 0.44618 0.00517 0.0
C846 C 0.85589 0.45556 0.98914 0.0
H847 H 0.91817 0.45107 0.90485 0.0
H848 H 0.89492 0.44133 0.93414 0.0
H849 H 0.86547 0.48635 0.94773 0.0
H850 H 0.80774 0.46092 0.03526 0.0
H851 H 0.83895 0.47799 0.01171 0.0
C852 C 0.45984 0.95873 0.09937 0.0
C853 C 0.44975 0.94752 0.08128 0.0
C854 C 0.45256 0.94683 0.1168 0.0
C855 C 0.40455 0.89492 0.13816 0.0
H856 H 0.45242 0.89822 0.17365 0.0
C857 C 0.38053 0.836 0.20393 0.0
C858 C 0.3923 0.82344 0.20455 0.0
C859 C 0.38869 0.85552 0.19248 0.0
C860 C 0.43887 0.89727 0.16395 0.0
H861 H 0.42402 0.91509 0.06731 0.0
H862 H 0.41123 0.89439 0.09772 0.0
H863 H 0.46348 0.92361 0.14574 0.0
H864 H 0.42263 0.82229 0.19464 0.0
H865 H 0.43679 0.85619 0.17468 0.0
H866 H 0.38001 0.86784 0.15576 0.0
C867 C 0.42457 0.91246 0.09844 0.0
C868 C 0.44518 0.9119 0.14808 0.0
C869 C 0.43192 0.9243 0.08102 0.0
C870 C 0.41316 0.83157 0.19449 0.0
C871 C 0.42136 0.85111 0.18312 0.0
C872 C 0.39824 0.88037 0.15406 0.0
C873 C 0.43495 0.92355 0.11648 0.0
C874 C 0.4281 0.91038 0.13472 0.0
C875 C 0.40883 0.86287 0.18152 0.0
C876 C 0.41538 0.88095 0.1668 0.0
H877 H 0.47332 0.97674 0.10009 0.0
H878 H 0.46069 0.95584 0.13053 0.0
H879 H 0.39102 0.89361 0.12822 0.0
H880 H 0.36448 0.83024 0.21163 0.0
H881 H 0.37885 0.86443 0.19169 0.0
C882 C 0.50829 0.46037 0.24128 0.0
C883 C 0.51809 0.4627 0.22279 0.0
C884 C 0.51379 0.44985 0.25631 0.0
C885 C 0.53379 0.40897 0.26562 0.0
H886 H 0.55827 0.4423 0.31526 0.0
C887 C 0.56014 0.37176 0.33071 0.0
C888 C 0.58333 0.38627 0.33721 0.0
C889 C 0.54921 0.38006 0.31826 0.0
C890 C 0.55125 0.43275 0.30153 0.0
H891 H 0.54088 0.4556 0.20531 0.0
H892 H 0.55025 0.43687 0.23156 0.0
H893 H 0.54462 0.45853 0.28987 0.0
H894 H 0.61284 0.42105 0.33627 0.0
H895 H 0.59365 0.43556 0.315 0.0
H896 H 0.54076 0.38337 0.27715 0.0
C897 C 0.53843 0.44327 0.23441 0.0
C898 C 0.54339 0.44195 0.28708 0.0
C899 C 0.53325 0.45413 0.21949 0.0
C900 C 0.59505 0.40939 0.33158 0.0
C901 C 0.584 0.41777 0.31946 0.0
C902 C 0.5413 0.39959 0.28018 0.0
C903 C 0.52882 0.44114 0.25296 0.0
C904 C 0.53505 0.43037 0.26887 0.0
C905 C 0.56114 0.4031 0.31244 0.0
C906 C 0.55053 0.41163 0.29809 0.0
H907 H 0.49662 0.46695 0.24415 0.0
H908 H 0.50616 0.44836 0.2705 0.0
H909 H 0.52728 0.39967 0.25172 0.0
H910 H 0.55067 0.35383 0.33477 0.0
H911 H 0.53152 0.36844 0.31304 0.0
C912 C 0.48321 0.91764 0.41166 0.0
C913 C 0.46838 0.92567 0.41805 0.0
C914 C 0.47609 0.90096 0.39656 0.0
C915 C 0.42495 0.85498 0.3699 0.0
H916 H 0.46722 0.86927 0.32704 0.0
C917 C 0.39636 0.80684 0.29462 0.0
C918 C 0.41296 0.80479 0.28358 0.0
C919 C 0.40275 0.81912 0.31255 0.0
C920 C 0.45535 0.86467 0.33902 0.0
H921 H 0.43421 0.92206 0.41367 0.0
H922 H 0.42166 0.89257 0.38757 0.0
H923 H 0.47903 0.89522 0.35557 0.0
H924 H 0.44884 0.81258 0.28328 0.0
H925 H 0.45977 0.83315 0.31484 0.0
H926 H 0.40129 0.82432 0.35345 0.0
C927 C 0.43879 0.89923 0.39434 0.0
C928 C 0.46212 0.87966 0.35535 0.0
C929 C 0.44599 0.91611 0.40931 0.0
C930 C 0.43573 0.81413 0.29133 0.0
C931 C 0.44202 0.82608 0.30938 0.0
C932 C 0.41825 0.83979 0.35365 0.0
C933 C 0.45388 0.89172 0.38766 0.0
C934 C 0.44692 0.87509 0.37086 0.0
C935 C 0.42581 0.82934 0.31995 0.0
C936 C 0.4333 0.84456 0.3379 0.0
H937 H 0.50035 0.92418 0.41834 0.0
H938 H 0.48796 0.89525 0.39185 0.0
H939 H 0.41299 0.85096 0.38178 0.0
H940 H 0.37869 0.79992 0.28899 0.0
H941 H 0.38982 0.82143 0.32013 0.0
C942 C 0.54716 0.4488 0.54848 0.0
C943 C 0.55977 0.47196 0.55513 0.0
C944 C 0.55483 0.44118 0.5326 0.0
C945 C 0.58873 0.46231 0.48856 0.0
H946 H 0.59102 0.40549 0.48905 0.0
C947 C 0.62723 0.43684 0.42475 0.0
C948 C 0.61592 0.4135 0.4186 0.0
C949 C 0.62131 0.44354 0.44218 0.0
C950 C 0.59022 0.42125 0.48858 0.0
H951 H 0.5903 0.50528 0.55051 0.0
H952 H 0.60365 0.49198 0.52269 0.0
H953 H 0.57867 0.41787 0.51813 0.0
H954 H 0.58978 0.37879 0.42613 0.0
H955 H 0.57894 0.39055 0.45632 0.0
H956 H 0.5996 0.46555 0.45898 0.0
C957 C 0.58786 0.47974 0.52978 0.0
C958 C 0.58322 0.42835 0.50525 0.0
C959 C 0.58033 0.48729 0.54576 0.0
C960 C 0.59886 0.39692 0.43049 0.0
C961 C 0.59273 0.40366 0.44786 0.0
C962 C 0.59548 0.45512 0.47186 0.0
C963 C 0.5751 0.45666 0.52296 0.0
C964 C 0.58252 0.449 0.50541 0.0
C965 C 0.60371 0.4271 0.45379 0.0
C966 C 0.59644 0.43457 0.47167 0.0
H967 H 0.53134 0.4366 0.55555 0.0
H968 H 0.54461 0.42333 0.52756 0.0
H969 H 0.58796 0.4781 0.48817 0.0
H970 H 0.64067 0.45003 0.41605 0.0
H971 H 0.63053 0.46167 0.44651 0.0
C972 C 0.09224 0.55768 0.73782 0.0
C973 C 0.08778 0.57315 0.74851 0.0
C974 C 0.10591 0.56483 0.72126 0.0
C975 C 0.14984 0.61726 0.6969 0.0
H976 H 0.13507 0.57453 0.65273 0.0
C977 C 0.20345 0.6433 0.62676 0.0
C978 C 0.21151 0.62823 0.62122 0.0
C979 C 0.18602 0.6367 0.64054 0.0
C980 C 0.13937 0.58663 0.66496 0.0
H981 H 0.09446 0.60839 0.75017 0.0
H982 H 0.11763 0.62063 0.7209 0.0
H983 H 0.10933 0.56306 0.68053 0.0
H984 H 0.20688 0.59407 0.62519 0.0
H985 H 0.1763 0.58248 0.6489 0.0
H986 H 0.1799 0.6408 0.68125 0.0
C987 C 0.11086 0.60305 0.72551 0.0
C988 C 0.12473 0.58004 0.68094 0.0
C989 C 0.09733 0.59595 0.74218 0.0
C990 C 0.20105 0.60607 0.62906 0.0
C991 C 0.18346 0.59939 0.64262 0.0
C992 C 0.16435 0.62392 0.68083 0.0
C993 C 0.11531 0.58756 0.71484 0.0
C994 C 0.13001 0.59513 0.69727 0.0
C995 C 0.17614 0.61481 0.64882 0.0
C996 C 0.15945 0.60854 0.66486 0.0
H997 H 0.0849 0.5399 0.74207 0.0
H998 H 0.10927 0.55253 0.7136 0.0
H999 H 0.15464 0.62922 0.70931 0.0
H1000 H 0.21116 0.6605 0.621 0.0
H1001 H 0.18054 0.64884 0.64496 0.0
C1002 C 0.5489 0.09385 0.9034 0.0
C1003 C 0.52584 0.08389 0.90953 0.0
C1004 C 0.55616 0.10808 0.88726 0.0
C1005 C 0.541 0.14471 0.85805 0.0
H1006 H 0.58607 0.14467 0.82258 0.0
C1007 C 0.57441 0.20519 0.79254 0.0
C1008 C 0.59874 0.21751 0.79101 0.0
C1009 C 0.5638 0.18659 0.80505 0.0
C1010 C 0.57351 0.14488 0.8324 0.0
H1011 H 0.49208 0.08041 0.90326 0.0
H1012 H 0.50468 0.1051 0.8749 0.0
H1013 H 0.57045 0.11617 0.84816 0.0
H1014 H 0.63099 0.21975 0.80117 0.0
H1015 H 0.61249 0.18728 0.82283 0.0
H1016 H 0.54426 0.17358 0.8424 0.0
C1017 C 0.51728 0.10228 0.8828 0.0
C1018 C 0.56461 0.12862 0.84708 0.0
C1019 C 0.51006 0.08815 0.89902 0.0
C1020 C 0.6122 0.21051 0.80185 0.0
C1021 C 0.6016 0.19185 0.81424 0.0
C1022 C 0.5498 0.16088 0.84332 0.0
C1023 C 0.54047 0.11256 0.87683 0.0
C1024 C 0.54855 0.1286 0.86027 0.0
C1025 C 0.57733 0.17989 0.81616 0.0
C1026 C 0.56642 0.16136 0.83055 0.0
H1027 H 0.56151 0.09109 0.91139 0.0
H1028 H 0.57424 0.11604 0.88328 0.0
H1029 H 0.52891 0.1454 0.86813 0.0
H1030 H 0.56355 0.21014 0.78434 0.0
H1031 H 0.54503 0.17754 0.80613 0.0
C1032 C 0.46323 0.58025 0.05826 0.0
C1033 C 0.45242 0.55673 0.06271 0.0
C1034 C 0.45643 0.58731 0.04147 0.0
C1035 C 0.42908 0.56574 0.9928 0.0
H1036 H 0.41913 0.61817 0.99376 0.0
C1037 C 0.38752 0.58502 0.92696 0.0
C1038 C 0.39659 0.60815 0.92176 0.0
C1039 C 0.39443 0.57957 0.94451 0.0
C1040 C 0.42213 0.60368 0.9932 0.0
H1041 H 0.42603 0.5222 0.0531 0.0
H1042 H 0.4141 0.53452 0.02389 0.0
H1043 H 0.43109 0.60718 0.02386 0.0
H1044 H 0.41988 0.64375 0.93118 0.0
H1045 H 0.43229 0.63418 0.96175 0.0
H1046 H 0.42043 0.56227 0.96222 0.0
C1047 C 0.42788 0.54749 0.03332 0.0
C1048 C 0.42893 0.59737 0.01044 0.0
C1049 C 0.43455 0.54046 0.05015 0.0
C1050 C 0.41253 0.62575 0.93473 0.0
C1051 C 0.41956 0.62027 0.9523 0.0
C1052 C 0.42243 0.5721 0.97559 0.0
C1053 C 0.43885 0.57096 0.02873 0.0
C1054 C 0.43225 0.57819 0.01044 0.0
C1055 C 0.41073 0.59708 0.9573 0.0
C1056 C 0.41863 0.59099 0.97559 0.0
H1057 H 0.47692 0.5932 0.06777 0.0
H1058 H 0.46527 0.60551 0.03824 0.0
H1059 H 0.43195 0.55116 0.99226 0.0
H1060 H 0.37502 0.571 0.91746 0.0
H1061 H 0.38687 0.56155 0.94808 0.0
C1062 C 0.89981 0.47169 0.24946 0.0
C1063 C 0.90865 0.45752 0.25565 0.0
C1064 C 0.88304 0.46435 0.23426 0.0
C1065 C 0.84085 0.41205 0.20468 0.0
H1066 H 0.84767 0.45692 0.16627 0.0
C1067 C 0.8039 0.38773 0.12566 0.0
C1068 C 0.79307 0.39925 0.1175 0.0
C1069 C 0.81489 0.39434 0.14412 0.0
C1070 C 0.84532 0.44427 0.17703 0.0
H1071 H 0.90605 0.42412 0.25102 0.0
H1072 H 0.8777 0.41178 0.22409 0.0
H1073 H 0.87298 0.46951 0.19551 0.0
H1074 H 0.78496 0.42654 0.12248 0.0
H1075 H 0.80468 0.43844 0.15474 0.0
H1076 H 0.81387 0.38668 0.18563 0.0
C1077 C 0.88336 0.42842 0.23117 0.0
C1078 C 0.8598 0.45146 0.19384 0.0
C1079 C 0.89996 0.43567 0.24646 0.0
C1080 C 0.79312 0.41731 0.12839 0.0
C1081 C 0.80447 0.42418 0.14679 0.0
C1082 C 0.82658 0.40483 0.18777 0.0
C1083 C 0.87478 0.44271 0.22476 0.0
C1084 C 0.85802 0.43538 0.20773 0.0
C1085 C 0.81558 0.41283 0.15476 0.0
C1086 C 0.82892 0.42081 0.17364 0.0
H1087 H 0.90622 0.48872 0.25604 0.0
H1088 H 0.87664 0.47571 0.22992 0.0
H1089 H 0.83858 0.39924 0.21525 0.0
H1090 H 0.80408 0.37367 0.1177 0.0
H1091 H 0.82349 0.38542 0.14982 0.0
loop_
_geom_bond_atom_site_label_1
_geom_bond_atom_site_label_2
_geom_bond_distance
_geom_bond_site_symmetry_2
_ccdc_geom_bond_type
H0 C19 0.949 . S
H1 C20 0.950 . S
H2 C22 0.950 . S
H3 C23 0.950 . S
H4 C25 0.950 . S
H5 C28 0.950 . S
H6 C29 0.950 . S
H7 C31 0.951 . S
H8 C32 0.949 . S
H9 C34 0.949 . S
H10 C35 0.950 . S
H11 C37 0.950 . S
H12 C38 0.950 . S
H13 C40 0.950 . S
H14 C43 0.950 . S
H15 C44 0.950 . S
H16 C46 0.951 . S
H17 C47 0.949 . S
C18 C19 1.376 . S
C18 C23 1.386 . S
C18 C24 1.483 . S
C19 H0 0.949 . S
C19 C18 1.376 . S
C19 C20 1.397 . S
C20 H1 0.950 . S
C20 C19 1.397 . S
C20 C21 1.391 . S
C21 C20 1.391 . S
C21 C22 1.405 . S
C22 H2 0.950 . S
C22 C21 1.405 . S
C22 C23 1.367 . S
C23 H3 0.950 . S
C23 C18 1.386 . S
C23 C22 1.367 . S
C24 C18 1.483 . S
C24 C25 1.382 1_655 S
C24 C26 1.403 . S
C25 H4 0.950 . S
C25 C24 1.382 1_455 S
C25 C41 1.411 . S
C26 C24 1.403 . S
C26 C27 1.489 . S
C26 C40 1.411 . S
C27 C26 1.489 . S
C27 C28 1.383 . S
C27 C32 1.382 . S
C28 H5 0.950 . S
C28 C27 1.383 . S
C28 C29 1.395 . S
C29 H6 0.950 . S
C29 C28 1.395 . S
C29 C30 1.288 . S
C30 C29 1.288 . S
C30 C31 1.392 . S
C31 H7 0.951 . S
C31 C30 1.392 . S
C31 C32 1.392 . S
C32 H8 0.949 . S
C32 C27 1.382 . S
C32 C31 1.392 . S
C33 C34 1.376 . S
C33 C38 1.386 . S
C33 C39 1.483 . S
C34 H9 0.949 . S
C34 C33 1.376 . S
C34 C35 1.397 . S
C35 H10 0.950 . S
C35 C34 1.397 . S
C35 C36 1.391 . S
C36 C35 1.391 . S
C36 C37 1.405 . S
C37 H11 0.950 . S
C37 C36 1.405 . S
C37 C38 1.367 . S
C38 H12 0.950 . S
C38 C33 1.386 . S
C38 C37 1.367 . S
C39 C33 1.483 . S
C39 C40 1.382 1_455 S
C39 C41 1.403 . S
C40 H13 0.950 . S
C40 C26 1.411 . S
C40 C39 1.382 1_655 S
C41 C25 1.411 . S
C41 C39 1.403 . S
C41 C42 1.489 . S
C42 C41 1.489 . S
C42 C43 1.383 . S
C42 C47 1.382 . S
C43 H14 0.950 . S
C43 C42 1.383 . S
C43 C44 1.395 . S
C44 H15 0.950 . S
C44 C43 1.395 . S
C44 C45 1.288 . S
C45 C44 1.288 . S
C45 C46 1.392 . S
C46 H16 0.951 . S
C46 C45 1.392 . S
C46 C47 1.392 . S
C47 H17 0.949 . S
C47 C42 1.382 . S
C47 C46 1.392 . S
H48 C67 0.949 . S
H49 C68 0.950 . S
H50 C70 0.950 . S
H51 C71 0.950 . S
H52 C73 0.950 . S
H53 C76 0.950 . S
H54 C77 0.950 . S
H55 C79 0.951 . S
H56 C80 0.949 . S
H57 C82 0.949 . S
H58 C83 0.950 . S
H59 C85 0.950 . S
H60 C86 0.950 . S
H61 C88 0.950 . S
H62 C91 0.950 . S
H63 C92 0.950 . S
H64 C94 0.951 . S
H65 C95 0.949 . S
C66 C67 1.376 . S
C66 C71 1.386 . S
C66 C72 1.483 . S
C67 H48 0.949 . S
C67 C66 1.376 . S
C67 C68 1.397 . S
C68 H49 0.950 . S
C68 C67 1.397 . S
C68 C69 1.391 . S
C69 C68 1.391 . S
C69 C70 1.405 . S
C70 H50 0.950 . S
C70 C69 1.405 . S
C70 C71 1.367 . S
C71 H51 0.950 . S
C71 C66 1.386 . S
C71 C70 1.367 . S
C72 C66 1.483 . S
C72 C73 1.382 1_565 S
C72 C74 1.403 . S
C73 H52 0.950 . S
C73 C72 1.382 1_545 S
C73 C89 1.411 . S
C74 C72 1.403 . S
C74 C75 1.489 . S
C74 C88 1.411 1_565 S
C75 C74 1.489 . S
C75 C76 1.383 . S
C75 C80 1.382 . S
C76 H53 0.950 . S
C76 C75 1.383 . S
C76 C77 1.395 . S
C77 H54 0.950 . S
C77 C76 1.395 . S
C77 C78 1.288 . S
C78 C77 1.288 . S
C78 C79 1.392 . S
C79 H55 0.951 . S
C79 C78 1.392 . S
C79 C80 1.392 . S
C80 H56 0.949 . S
C80 C75 1.382 . S
C80 C79 1.392 . S
C81 C82 1.376 . S
C81 C86 1.386 . S
C81 C87 1.483 . S
C82 H57 0.949 . S
C82 C81 1.376 . S
C82 C83 1.397 . S
C83 H58 0.950 . S
C83 C82 1.397 . S
C83 C84 1.391 . S
C84 C83 1.391 . S
C84 C85 1.405 . S
C85 H59 0.950 . S
C85 C84 1.405 . S
C85 C86 1.367 . S
C86 H60 0.950 . S
C86 C81 1.386 . S
C86 C85 1.367 . S
C87 C81 1.483 . S
C87 C88 1.382 . S
C87 C89 1.403 . S
C88 H61 0.950 . S
C88 C74 1.411 1_545 S
C88 C87 1.382 . S
C89 C73 1.411 . S
C89 C87 1.403 . S
C89 C90 1.489 . S
C90 C89 1.489 . S
C90 C91 1.383 . S
C90 C95 1.382 . S
C91 H62 0.950 . S
C91 C90 1.383 . S
C91 C92 1.395 . S
C92 H63 0.950 . S
C92 C91 1.395 . S
C92 C93 1.288 . S
C93 C92 1.288 . S
C93 C94 1.392 . S
C94 H64 0.951 . S
C94 C93 1.392 . S
C94 C95 1.392 . S
C95 H65 0.949 . S
C95 C90 1.382 . S
C95 C94 1.392 . S
H96 C115 0.949 . S
H97 C116 0.950 . S
H98 C118 0.950 . S
H99 C119 0.950 . S
H100 C121 0.950 . S
H101 C124 0.950 . S
H102 C125 0.950 . S
H103 C127 0.951 . S
H104 C128 0.949 . S
H105 C130 0.949 . S
H106 C131 0.950 . S
H107 C133 0.950 . S
H108 C134 0.950 . S
H109 C136 0.950 . S
H110 C139 0.950 . S
H111 C140 0.950 . S
H112 C142 0.951 . S
H113 C143 0.949 . S
C114 C115 1.376 . S
C114 C119 1.386 . S
C114 C120 1.483 . S
C115 H96 0.949 . S
C115 C114 1.376 . S
C115 C116 1.397 . S
C116 H97 0.950 . S
C116 C115 1.397 . S
C116 C117 1.391 . S
C117 C116 1.391 . S
C117 C118 1.405 . S
C118 H98 0.950 . S
C118 C117 1.405 . S
C118 C119 1.367 . S
C119 H99 0.950 . S
C119 C114 1.386 . S
C119 C118 1.367 . S
C120 C114 1.483 . S
C120 C121 1.382 . S
C120 C122 1.403 . S
C121 H100 0.950 . S
C121 C120 1.382 . S
C121 C137 1.411 . S
C122 C120 1.403 . S
C122 C123 1.489 . S
C122 C136 1.411 . S
C123 C122 1.489 . S
C123 C124 1.383 . S
C123 C128 1.382 . S
C124 H101 0.950 . S
C124 C123 1.383 . S
C124 C125 1.395 . S
C125 H102 0.950 . S
C125 C124 1.395 . S
C125 C126 1.288 . S
C126 C125 1.288 . S
C126 C127 1.392 . S
C127 H103 0.951 . S
C127 C126 1.392 . S
C127 C128 1.392 . S
C128 H104 0.949 . S
C128 C123 1.382 . S
C128 C127 1.392 . S
C129 C130 1.376 . S
C129 C134 1.386 . S
C129 C135 1.483 . S
C130 H105 0.949 . S
C130 C129 1.376 . S
C130 C131 1.397 . S
C131 H106 0.950 . S
C131 C130 1.397 . S
C131 C132 1.391 . S
C132 C131 1.391 . S
C132 C133 1.405 . S
C133 H107 0.950 . S
C133 C132 1.405 . S
C133 C134 1.367 . S
C134 H108 0.950 . S
C134 C129 1.386 . S
C134 C133 1.367 . S
C135 C129 1.483 . S
C135 C136 1.382 . S
C135 C137 1.403 . S
C136 H109 0.950 . S
C136 C122 1.411 . S
C136 C135 1.382 . S
C137 C121 1.411 . S
C137 C135 1.403 . S
C137 C138 1.489 . S
C138 C137 1.489 . S
C138 C139 1.383 . S
C138 C143 1.382 . S
C139 H110 0.950 . S
C139 C138 1.383 . S
C139 C140 1.395 . S
C140 H111 0.950 . S
C140 C139 1.395 . S
C140 C141 1.288 . S
C141 C140 1.288 . S
C141 C142 1.392 . S
C142 H112 0.951 . S
C142 C141 1.392 . S
C142 C143 1.392 . S
C143 H113 0.949 . S
C143 C138 1.382 . S
C143 C142 1.392 . S
H144 C163 0.949 . S
H145 C164 0.950 . S
H146 C166 0.950 . S
H147 C167 0.950 . S
H148 C169 0.950 1_655 S
H149 C172 0.950 . S
H150 C173 0.950 . S
H151 C175 0.951 . S
H152 C176 0.949 . S
H153 C178 0.949 . S
H154 C179 0.950 . S
H155 C181 0.950 . S
H156 C182 0.950 . S
H157 C184 0.950 . S
H158 C187 0.950 . S
H159 C188 0.950 . S
H160 C190 0.951 . S
H161 C191 0.949 . S
C162 C163 1.376 . S
C162 C167 1.386 . S
C162 C168 1.483 . S
C163 H144 0.949 . S
C163 C162 1.376 . S
C163 C164 1.397 . S
C164 H145 0.950 . S
C164 C163 1.397 . S
C164 C165 1.391 . S
C165 C164 1.391 . S
C165 C166 1.405 . S
C166 H146 0.950 . S
C166 C165 1.405 . S
C166 C167 1.367 . S
C167 H147 0.950 . S
C167 C162 1.386 . S
C167 C166 1.367 . S
C168 C162 1.483 . S
C168 C169 1.382 . S
C168 C170 1.403 . S
C169 H148 0.950 1_455 S
C169 C168 1.382 . S
C169 C185 1.411 1_455 S
C170 C168 1.403 . S
C170 C171 1.489 . S
C170 C184 1.411 . S
C171 C170 1.489 . S
C171 C172 1.383 . S
C171 C176 1.382 . S
C172 H149 0.950 . S
C172 C171 1.383 . S
C172 C173 1.395 . S
C173 H150 0.950 . S
C173 C172 1.395 . S
C173 C174 1.288 . S
C174 C173 1.288 . S
C174 C175 1.392 . S
C175 H151 0.951 . S
C175 C174 1.392 . S
C175 C176 1.392 . S
C176 H152 0.949 . S
C176 C171 1.382 . S
C176 C175 1.392 . S
C177 C178 1.376 . S
C177 C182 1.386 . S
C177 C183 1.483 . S
C178 H153 0.949 . S
C178 C177 1.376 . S
C178 C179 1.397 . S
C179 H154 0.950 . S
C179 C178 1.397 . S
C179 C180 1.391 . S
C180 C179 1.391 . S
C180 C181 1.405 . S
C181 H155 0.950 . S
C181 C180 1.405 . S
C181 C182 1.367 . S
C182 H156 0.950 . S
C182 C177 1.386 . S
C182 C181 1.367 . S
C183 C177 1.483 . S
C183 C184 1.382 1_655 S
C183 C185 1.403 . S
C184 H157 0.950 . S
C184 C170 1.411 . S
C184 C183 1.382 1_455 S
C185 C169 1.411 1_655 S
C185 C183 1.403 . S
C185 C186 1.489 . S
C186 C185 1.489 . S
C186 C187 1.383 . S
C186 C191 1.382 . S
C187 H158 0.950 . S
C187 C186 1.383 . S
C187 C188 1.395 . S
C188 H159 0.950 . S
C188 C187 1.395 . S
C188 C189 1.288 . S
C189 C188 1.288 . S
C189 C190 1.392 . S
C190 H160 0.951 . S
C190 C189 1.392 . S
C190 C191 1.392 . S
C191 H161 0.949 . S
C191 C186 1.382 . S
C191 C190 1.392 . S
H192 C211 0.949 . S
H193 C212 0.950 . S
H194 C214 0.950 . S
H195 C215 0.950 . S
H196 C217 0.950 . S
H197 C220 0.950 . S
H198 C221 0.950 . S
H199 C223 0.951 . S
H200 C224 0.949 . S
H201 C226 0.949 . S
H202 C227 0.950 . S
H203 C229 0.950 . S
H204 C230 0.950 . S
H205 C232 0.950 . S
H206 C235 0.950 . S
H207 C236 0.950 . S
H208 C238 0.951 . S
H209 C239 0.949 1_545 S
C210 C211 1.376 . S
C210 C215 1.386 1_554 S
C210 C216 1.483 1_554 S
C211 H192 0.949 . S
C211 C210 1.376 . S
C211 C212 1.397 . S
C212 H193 0.950 . S
C212 C211 1.397 . S
C212 C213 1.391 . S
C213 C212 1.391 . S
C213 C214 1.405 . S
C214 H194 0.950 . S
C214 C213 1.405 . S
C214 C215 1.367 1_554 S
C215 H195 0.950 . S
C215 C210 1.386 1_556 S
C215 C214 1.367 1_556 S
C216 C210 1.483 1_556 S
C216 C217 1.382 1_556 S
C216 C218 1.403 . S
C217 H196 0.950 . S
C217 C216 1.382 1_554 S
C217 C233 1.411 . S
C218 C216 1.403 . S
C218 C219 1.489 . S
C218 C232 1.411 . S
C219 C218 1.489 . S
C219 C220 1.383 . S
C219 C224 1.382 . S
C220 H197 0.950 . S
C220 C219 1.383 . S
C220 C221 1.395 . S
C221 H198 0.950 . S
C221 C220 1.395 . S
C221 C222 1.288 . S
C222 C221 1.288 . S
C222 C223 1.392 . S
C223 H199 0.951 . S
C223 C222 1.392 . S
C223 C224 1.392 . S
C224 H200 0.949 . S
C224 C219 1.382 . S
C224 C223 1.392 . S
C225 C226 1.376 . S
C225 C230 1.386 . S
C225 C231 1.483 . S
C226 H201 0.949 . S
C226 C225 1.376 . S
C226 C227 1.397 . S
C227 H202 0.950 . S
C227 C226 1.397 . S
C227 C228 1.391 . S
C228 C227 1.391 . S
C228 C229 1.405 . S
C229 H203 0.950 . S
C229 C228 1.405 . S
C229 C230 1.367 . S
C230 H204 0.950 . S
C230 C225 1.386 . S
C230 C229 1.367 . S
C231 C225 1.483 . S
C231 C232 1.382 1_565 S
C231 C233 1.403 1_566 S
C232 H205 0.950 . S
C232 C218 1.411 . S
C232 C231 1.382 1_545 S
C233 C217 1.411 . S
C233 C231 1.403 1_544 S
C233 C234 1.489 1_545 S
C234 C233 1.489 1_565 S
C234 C235 1.383 . S
C234 C239 1.382 . S
C235 H206 0.950 . S
C235 C234 1.383 . S
C235 C236 1.395 . S
C236 H207 0.950 . S
C236 C235 1.395 . S
C236 C237 1.288 . S
C237 C236 1.288 . S
C237 C238 1.392 . S
C238 H208 0.951 . S
C238 C237 1.392 . S
C238 C239 1.392 . S
C239 H209 0.949 1_565 S
C239 C234 1.382 . S
C239 C238 1.392 . S
H240 C259 0.949 . S
H241 C260 0.950 . S
H242 C262 0.950 . S
H243 C263 0.950 . S
H244 C265 0.950 . S
H245 C268 0.950 . S
H246 C269 0.950 . S
H247 C271 0.951 . S
H248 C272 0.949 . S
H249 C274 0.949 . S
H250 C275 0.950 . S
H251 C277 0.950 . S
H252 C278 0.950 . S
H253 C280 0.950 . S
H254 C283 0.950 . S
H255 C284 0.950 . S
H256 C286 0.951 . S
H257 C287 0.949 . S
C258 C259 1.376 . S
C258 C263 1.386 . S
C258 C264 1.483 . S
C259 H240 0.949 . S
C259 C258 1.376 . S
C259 C260 1.397 . S
C260 H241 0.950 . S
C260 C259 1.397 . S
C260 C261 1.391 . S
C261 C260 1.391 . S
C261 C262 1.405 . S
C262 H242 0.950 . S
C262 C261 1.405 . S
C262 C263 1.367 . S
C263 H243 0.950 . S
C263 C258 1.386 . S
C263 C262 1.367 . S
C264 C258 1.483 . S
C264 C265 1.382 . S
C264 C266 1.403 . S
C265 H244 0.950 . S
C265 C264 1.382 . S
C265 C281 1.411 . S
C266 C264 1.403 . S
C266 C267 1.489 . S
C266 C280 1.411 . S
C267 C266 1.489 . S
C267 C268 1.383 . S
C267 C272 1.382 . S
C268 H245 0.950 . S
C268 C267 1.383 . S
C268 C269 1.395 . S
C269 H246 0.950 . S
C269 C268 1.395 . S
C269 C270 1.288 . S
C270 C269 1.288 . S
C270 C271 1.392 . S
C271 H247 0.951 . S
C271 C270 1.392 . S
C271 C272 1.392 . S
C272 H248 0.949 . S
C272 C267 1.382 . S
C272 C271 1.392 . S
C273 C274 1.376 . S
C273 C278 1.386 . S
C273 C279 1.483 . S
C274 H249 0.949 . S
C274 C273 1.376 . S
C274 C275 1.397 . S
C275 H250 0.950 . S
C275 C274 1.397 . S
C275 C276 1.391 . S
C276 C275 1.391 . S
C276 C277 1.405 . S
C277 H251 0.950 . S
C277 C276 1.405 . S
C277 C278 1.367 . S
C278 H252 0.950 . S
C278 C273 1.386 . S
C278 C277 1.367 . S
C279 C273 1.483 . S
C279 C280 1.382 . S
C279 C281 1.403 . S
C280 H253 0.950 . S
C280 C266 1.411 . S
C280 C279 1.382 . S
C281 C265 1.411 . S
C281 C279 1.403 . S
C281 C282 1.489 . S
C282 C281 1.489 . S
C282 C283 1.383 . S
C282 C287 1.382 . S
C283 H254 0.950 . S
C283 C282 1.383 . S
C283 C284 1.395 . S
C284 H255 0.950 . S
C284 C283 1.395 . S
C284 C285 1.288 . S
C285 C284 1.288 . S
C285 C286 1.392 . S
C286 H256 0.951 . S
C286 C285 1.392 . S
C286 C287 1.392 . S
C287 H257 0.949 . S
C287 C282 1.382 . S
C287 C286 1.392 . S
Mg288 O289 2.028 . S
Mg288 O295 1.986 . S
Mg288 O297 2.114 . S
Mg288 O298 2.251 . S
Mg288 O301 2.010 . S
O289 Mg288 2.028 . S
O289 C292 1.250 . S
O290 Mg291 2.028 . S
O290 C292 1.248 . S
Mg291 O290 2.028 . S
Mg291 O296 2.032 . S
Mg291 O298 2.079 . S
C292 O289 1.250 . S
C292 O290 1.248 . S
C293 O294 1.264 . S
C293 O301 1.249 . S
O294 C293 1.264 . S
O295 Mg288 1.986 . S
O295 C299 1.246 . S
O296 Mg291 2.032 . S
O296 C299 1.259 . S
O297 Mg288 2.114 . S
O297 C300 1.252 . S
O298 Mg288 2.251 . S
O298 Mg291 2.079 . S
O298 C300 1.273 . S
C299 O295 1.246 . S
C299 O296 1.259 . S
C300 O297 1.252 . S
C300 O298 1.273 . S
O301 Mg288 2.010 . S
O301 C293 1.249 . S
Mg302 O303 2.028 . S
Mg302 O309 1.986 . S
Mg302 O311 2.114 . S
Mg302 O312 2.251 . S
Mg302 O315 2.010 . S
O303 Mg302 2.028 . S
O303 C306 1.250 . S
O304 Mg305 2.028 . S
O304 C306 1.248 . S
Mg305 O304 2.028 . S
Mg305 O310 2.032 . S
Mg305 O312 2.079 . S
C306 O303 1.250 . S
C306 O304 1.248 . S
C307 O308 1.264 . S
C307 O315 1.249 . S
O308 C307 1.264 . S
O309 Mg302 1.986 . S
O309 C313 1.246 . S
O310 Mg305 2.032 . S
O310 C313 1.259 . S
O311 Mg302 2.114 . S
O311 C314 1.252 . S
O312 Mg302 2.251 . S
O312 Mg305 2.079 . S
O312 C314 1.273 . S
C313 O309 1.246 . S
C313 O310 1.259 . S
C314 O311 1.252 . S
C314 O312 1.273 . S
O315 Mg302 2.010 . S
O315 C307 1.249 . S
Mg316 O317 2.028 . S
Mg316 O323 1.986 . S
Mg316 O325 2.114 . S
Mg316 O326 2.251 . S
Mg316 O329 2.010 . S
O317 Mg316 2.028 . S
O317 C320 1.250 . S
O318 Mg319 2.028 . S
O318 C320 1.248 . S
Mg319 O318 2.028 . S
Mg319 O324 2.032 . S
Mg319 O326 2.079 . S
C320 O317 1.250 . S
C320 O318 1.248 . S
C321 O322 1.264 . S
C321 O329 1.249 . S
O322 C321 1.264 . S
O323 Mg316 1.986 . S
O323 C327 1.246 . S
O324 Mg319 2.032 . S
O324 C327 1.259 . S
O325 Mg316 2.114 . S
O325 C328 1.252 . S
O326 Mg316 2.251 . S
O326 Mg319 2.079 . S
O326 C328 1.273 . S
C327 O323 1.246 . S
C327 O324 1.259 . S
C328 O325 1.252 . S
C328 O326 1.273 . S
O329 Mg316 2.010 . S
O329 C321 1.249 . S
Mg330 O331 2.028 . S
Mg330 O337 1.986 . S
Mg330 O339 2.114 . S
Mg330 O340 2.251 . S
Mg330 O343 2.010 . S
O331 Mg330 2.028 . S
O331 C334 1.250 . S
O332 Mg333 2.028 . S
O332 C334 1.248 . S
Mg333 O332 2.028 . S
Mg333 O338 2.032 . S
Mg333 O340 2.079 . S
C334 O331 1.250 . S
C334 O332 1.248 . S
C335 O336 1.264 . S
C335 O343 1.249 . S
O336 C335 1.264 . S
O337 Mg330 1.986 . S
O337 C341 1.246 . S
O338 Mg333 2.032 . S
O338 C341 1.259 . S
O339 Mg330 2.114 . S
O339 C342 1.252 . S
O340 Mg330 2.251 . S
O340 Mg333 2.079 . S
O340 C342 1.273 . S
C341 O337 1.246 . S
C341 O338 1.259 . S
C342 O339 1.252 . S
C342 O340 1.273 . S
O343 Mg330 2.010 . S
O343 C335 1.249 . S
Mg344 O345 2.028 . S
Mg344 O351 1.986 . S
Mg344 O353 2.114 . S
Mg344 O354 2.251 . S
Mg344 O357 2.010 . S
O345 Mg344 2.028 . S
O345 C348 1.250 . S
O346 Mg347 2.028 . S
O346 C348 1.248 . S
Mg347 O346 2.028 . S
Mg347 O352 2.032 . S
Mg347 O354 2.079 . S
C348 O345 1.250 . S
C348 O346 1.248 . S
C349 O350 1.264 . S
C349 O357 1.249 . S
O350 C349 1.264 . S
O351 Mg344 1.986 . S
O351 C355 1.246 . S
O352 Mg347 2.032 . S
O352 C355 1.259 . S
O353 Mg344 2.114 . S
O353 C356 1.252 . S
O354 Mg344 2.251 . S
O354 Mg347 2.079 . S
O354 C356 1.273 . S
C355 O351 1.246 . S
C355 O352 1.259 . S
C356 O353 1.252 . S
C356 O354 1.273 . S
O357 Mg344 2.010 . S
O357 C349 1.249 . S
Mg358 O359 2.028 . S
Mg358 O365 1.986 . S
Mg358 O367 2.114 . S
Mg358 O368 2.251 . S
Mg358 O371 2.010 . S
O359 Mg358 2.028 . S
O359 C362 1.250 . S
O360 Mg361 2.028 . S
O360 C362 1.248 . S
Mg361 O360 2.028 . S
Mg361 O366 2.032 . S
Mg361 O368 2.079 . S
C362 O359 1.250 . S
C362 O360 1.248 . S
C363 O364 1.264 . S
C363 O371 1.249 . S
O364 C363 1.264 . S
O365 Mg358 1.986 . S
O365 C369 1.246 . S
O366 Mg361 2.032 . S
O366 C369 1.259 . S
O367 Mg358 2.114 . S
O367 C370 1.252 . S
O368 Mg358 2.251 . S
O368 Mg361 2.079 . S
O368 C370 1.273 . S
C369 O365 1.246 . S
C369 O366 1.259 . S
C370 O367 1.252 . S
C370 O368 1.273 . S
O371 Mg358 2.010 . S
O371 C363 1.249 . S
C372 C373 1.349 . S
C372 C374 1.327 . S
C372 H397 0.950 . S
C373 C372 1.349 . S
C373 C389 1.349 . S
C374 C372 1.327 . S
C374 C393 1.429 . S
C374 H398 0.950 . S
C375 C392 1.574 . S
C375 C394 1.368 . S
C375 H399 0.949 . S
H376 C380 0.949 . S
C377 C378 1.349 . S
C377 C379 1.327 . S
C377 H400 0.950 . S
C378 C377 1.349 . S
C378 C390 1.349 . S
C379 C377 1.327 . S
C379 C395 1.429 . S
C379 H401 0.950 . S
C380 H376 0.949 . S
C380 C388 1.574 . S
C380 C396 1.368 . S
H381 C389 0.950 . S
H382 C387 0.950 . S
H383 C388 0.949 . S
H384 C390 0.950 . S
H385 C391 0.950 . S
H386 C392 0.949 . S
C387 H382 0.950 . S
C387 C389 1.327 . S
C387 C393 1.429 . S
C388 C380 1.574 . S
C388 H383 0.949 . S
C388 C394 1.368 . S
C389 C373 1.349 . S
C389 H381 0.950 . S
C389 C387 1.327 . S
C390 C378 1.349 . S
C390 H384 0.950 . S
C390 C391 1.327 . S
C391 H385 0.950 . S
C391 C390 1.327 . S
C391 C395 1.429 . S
C392 C375 1.574 . S
C392 H386 0.949 . S
C392 C396 1.368 . S
C393 C374 1.429 . S
C393 C387 1.429 . S
C393 C394 1.523 . S
C394 C375 1.368 . S
C394 C388 1.368 . S
C394 C393 1.523 . S
C395 C379 1.429 . S
C395 C391 1.429 . S
C395 C396 1.523 . S
C396 C380 1.368 . S
C396 C392 1.368 . S
C396 C395 1.523 . S
H397 C372 0.950 . S
H398 C374 0.950 . S
H399 C375 0.949 . S
H400 C377 0.950 . S
H401 C379 0.950 . S
C402 C403 1.349 . S
C402 C404 1.327 . S
C402 H427 0.950 . S
C403 C402 1.349 . S
C403 C419 1.349 . S
C404 C402 1.327 . S
C404 C423 1.429 . S
C404 H428 0.950 . S
C405 C422 1.574 . S
C405 C424 1.368 . S
C405 H429 0.949 . S
H406 C410 0.949 . S
C407 C408 1.349 . S
C407 C409 1.327 . S
C407 H430 0.950 . S
C408 C407 1.349 . S
C408 C420 1.349 . S
C409 C407 1.327 . S
C409 C425 1.429 . S
C409 H431 0.950 . S
C410 H406 0.949 . S
C410 C418 1.574 . S
C410 C426 1.368 . S
H411 C419 0.950 . S
H412 C417 0.950 . S
H413 C418 0.949 . S
H414 C420 0.950 . S
H415 C421 0.950 . S
H416 C422 0.949 . S
C417 H412 0.950 . S
C417 C419 1.327 . S
C417 C423 1.429 . S
C418 C410 1.574 . S
C418 H413 0.949 . S
C418 C424 1.368 . S
C419 C403 1.349 . S
C419 H411 0.950 . S
C419 C417 1.327 . S
C420 C408 1.349 . S
C420 H414 0.950 . S
C420 C421 1.327 . S
C421 H415 0.950 . S
C421 C420 1.327 . S
C421 C425 1.429 . S
C422 C405 1.574 . S
C422 H416 0.949 . S
C422 C426 1.368 . S
C423 C404 1.429 . S
C423 C417 1.429 . S
C423 C424 1.523 . S
C424 C405 1.368 . S
C424 C418 1.368 . S
C424 C423 1.523 . S
C425 C409 1.429 . S
C425 C421 1.429 . S
C425 C426 1.523 . S
C426 C410 1.368 . S
C426 C422 1.368 . S
C426 C425 1.523 . S
H427 C402 0.950 . S
H428 C404 0.950 . S
H429 C405 0.949 . S
H430 C407 0.950 . S
H431 C409 0.950 . S
C432 C433 1.349 . S
C432 C434 1.327 . S
C432 H457 0.950 . S
C433 C432 1.349 . S
C433 C449 1.349 . S
C434 C432 1.327 . S
C434 C453 1.429 . S
C434 H458 0.950 . S
C435 C452 1.574 . S
C435 C454 1.368 . S
C435 H459 0.949 . S
H436 C440 0.949 . S
C437 C438 1.349 . S
C437 C439 1.327 . S
C437 H460 0.950 . S
C438 C437 1.349 . S
C438 C450 1.349 . S
C439 C437 1.327 . S
C439 C455 1.429 . S
C439 H461 0.950 . S
C440 H436 0.949 . S
C440 C448 1.574 . S
C440 C456 1.368 . S
H441 C449 0.950 . S
H442 C447 0.950 . S
H443 C448 0.949 . S
H444 C450 0.950 . S
H445 C451 0.950 . S
H446 C452 0.949 . S
C447 H442 0.950 . S
C447 C449 1.327 . S
C447 C453 1.429 . S
C448 C440 1.574 . S
C448 H443 0.949 . S
C448 C454 1.368 . S
C449 C433 1.349 . S
C449 H441 0.950 . S
C449 C447 1.327 . S
C450 C438 1.349 . S
C450 H444 0.950 . S
C450 C451 1.327 . S
C451 H445 0.950 . S
C451 C450 1.327 . S
C451 C455 1.429 . S
C452 C435 1.574 . S
C452 H446 0.949 . S
C452 C456 1.368 . S
C453 C434 1.429 . S
C453 C447 1.429 . S
C453 C454 1.523 . S
C454 C435 1.368 . S
C454 C448 1.368 . S
C454 C453 1.523 . S
C455 C439 1.429 . S
C455 C451 1.429 . S
C455 C456 1.523 . S
C456 C440 1.368 . S
C456 C452 1.368 . S
C456 C455 1.523 . S
H457 C432 0.950 . S
H458 C434 0.950 . S
H459 C435 0.949 . S
H460 C437 0.950 . S
H461 C439 0.950 . S
C462 C463 1.349 . S
C462 C464 1.327 . S
C462 H487 0.950 . S
C463 C462 1.349 . S
C463 C479 1.349 . S
C464 C462 1.327 . S
C464 C483 1.429 . S
C464 H488 0.950 . S
C465 C482 1.574 . S
C465 C484 1.368 . S
C465 H489 0.949 . S
H466 C470 0.949 . S
C467 C468 1.349 . S
C467 C469 1.327 . S
C467 H490 0.950 . S
C468 C467 1.349 . S
C468 C480 1.349 . S
C469 C467 1.327 . S
C469 C485 1.429 . S
C469 H491 0.950 . S
C470 H466 0.949 . S
C470 C478 1.574 . S
C470 C486 1.368 . S
H471 C479 0.950 . S
H472 C477 0.950 . S
H473 C478 0.949 . S
H474 C480 0.950 . S
H475 C481 0.950 . S
H476 C482 0.949 . S
C477 H472 0.950 . S
C477 C479 1.327 . S
C477 C483 1.429 . S
C478 C470 1.574 . S
C478 H473 0.949 . S
C478 C484 1.368 . S
C479 C463 1.349 . S
C479 H471 0.950 . S
C479 C477 1.327 . S
C480 C468 1.349 . S
C480 H474 0.950 . S
C480 C481 1.327 . S
C481 H475 0.950 . S
C481 C480 1.327 . S
C481 C485 1.429 . S
C482 C465 1.574 . S
C482 H476 0.949 . S
C482 C486 1.368 . S
C483 C464 1.429 . S
C483 C477 1.429 . S
C483 C484 1.523 . S
C484 C465 1.368 . S
C484 C478 1.368 . S
C484 C483 1.523 . S
C485 C469 1.429 . S
C485 C481 1.429 . S
C485 C486 1.523 . S
C486 C470 1.368 . S
C486 C482 1.368 . S
C486 C485 1.523 . S
H487 C462 0.950 . S
H488 C464 0.950 . S
H489 C465 0.949 . S
H490 C467 0.950 . S
H491 C469 0.950 . S
C492 C493 1.349 . S
C492 C494 1.327 . S
C492 H517 0.950 . S
C493 C492 1.349 . S
C493 C509 1.349 . S
C494 C492 1.327 . S
C494 C513 1.429 . S
C494 H518 0.950 . S
C495 C512 1.574 . S
C495 C514 1.368 . S
C495 H519 0.949 . S
H496 C500 0.949 . S
C497 C498 1.349 . S
C497 C499 1.327 . S
C497 H520 0.950 . S
C498 C497 1.349 . S
C498 C510 1.349 . S
C499 C497 1.327 . S
C499 C515 1.429 . S
C499 H521 0.950 . S
C500 H496 0.949 . S
C500 C508 1.574 . S
C500 C516 1.368 . S
H501 C509 0.950 . S
H502 C507 0.950 . S
H503 C508 0.949 . S
H504 C510 0.950 . S
H505 C511 0.950 . S
H506 C512 0.949 . S
C507 H502 0.950 . S
C507 C509 1.327 . S
C507 C513 1.429 . S
C508 C500 1.574 . S
C508 H503 0.949 . S
C508 C514 1.368 . S
C509 C493 1.349 . S
C509 H501 0.950 . S
C509 C507 1.327 . S
C510 C498 1.349 . S
C510 H504 0.950 . S
C510 C511 1.327 . S
C511 H505 0.950 . S
C511 C510 1.327 . S
C511 C515 1.429 . S
C512 C495 1.574 . S
C512 H506 0.949 . S
C512 C516 1.368 . S
C513 C494 1.429 . S
C513 C507 1.429 . S
C513 C514 1.523 . S
C514 C495 1.368 . S
C514 C508 1.368 . S
C514 C513 1.523 . S
C515 C499 1.429 . S
C515 C511 1.429 . S
C515 C516 1.523 . S
C516 C500 1.368 . S
C516 C512 1.368 . S
C516 C515 1.523 . S
H517 C492 0.950 . S
H518 C494 0.950 . S
H519 C495 0.949 . S
H520 C497 0.950 . S
H521 C499 0.950 . S
C522 C523 1.349 . S
C522 C524 1.327 . S
C522 H547 0.950 . S
C523 C522 1.349 . S
C523 C539 1.349 . S
C524 C522 1.327 . S
C524 C543 1.429 . S
C524 H548 0.950 . S
C525 C542 1.574 . S
C525 C544 1.368 . S
C525 H549 0.949 . S
H526 C530 0.949 . S
C527 C528 1.349 . S
C527 C529 1.327 . S
C527 H550 0.950 . S
C528 C527 1.349 . S
C528 C540 1.349 . S
C529 C527 1.327 . S
C529 C545 1.429 . S
C529 H551 0.950 . S
C530 H526 0.949 . S
C530 C538 1.574 . S
C530 C546 1.368 . S
H531 C539 0.950 . S
H532 C537 0.950 . S
H533 C538 0.949 . S
H534 C540 0.950 . S
H535 C541 0.950 . S
H536 C542 0.949 . S
C537 H532 0.950 . S
C537 C539 1.327 . S
C537 C543 1.429 . S
C538 C530 1.574 . S
C538 H533 0.949 . S
C538 C544 1.368 . S
C539 C523 1.349 . S
C539 H531 0.950 . S
C539 C537 1.327 . S
C540 C528 1.349 . S
C540 H534 0.950 . S
C540 C541 1.327 . S
C541 H535 0.950 . S
C541 C540 1.327 . S
C541 C545 1.429 . S
C542 C525 1.574 . S
C542 H536 0.949 . S
C542 C546 1.368 . S
C543 C524 1.429 . S
C543 C537 1.429 . S
C543 C544 1.523 . S
C544 C525 1.368 . S
C544 C538 1.368 . S
C544 C543 1.523 . S
C545 C529 1.429 . S
C545 C541 1.429 . S
C545 C546 1.523 . S
C546 C530 1.368 . S
C546 C542 1.368 . S
C546 C545 1.523 . S
H547 C522 0.950 . S
H548 C524 0.950 . S
H549 C525 0.949 . S
H550 C527 0.950 . S
H551 C529 0.950 . S
C552 C553 1.349 . S
C552 C554 1.327 . S
C552 H577 0.950 . S
C553 C552 1.349 . S
C553 C569 1.349 . S
C554 C552 1.327 . S
C554 C573 1.429 . S
C554 H578 0.950 . S
C555 C572 1.574 . S
C555 C574 1.368 . S
C555 H579 0.949 . S
H556 C560 0.949 . S
C557 C558 1.349 . S
C557 C559 1.327 . S
C557 H580 0.950 . S
C558 C557 1.349 . S
C558 C570 1.349 . S
C559 C557 1.327 . S
C559 C575 1.429 . S
C559 H581 0.950 . S
C560 H556 0.949 . S
C560 C568 1.574 . S
C560 C576 1.368 . S
H561 C569 0.950 . S
H562 C567 0.950 . S
H563 C568 0.949 . S
H564 C570 0.950 . S
H565 C571 0.950 . S
H566 C572 0.949 . S
C567 H562 0.950 . S
C567 C569 1.327 . S
C567 C573 1.429 . S
C568 C560 1.574 . S
C568 H563 0.949 . S
C568 C574 1.368 . S
C569 C553 1.349 . S
C569 H561 0.950 . S
C569 C567 1.327 . S
C570 C558 1.349 . S
C570 H564 0.950 . S
C570 C571 1.327 . S
C571 H565 0.950 . S
C571 C570 1.327 . S
C571 C575 1.429 . S
C572 C555 1.574 . S
C572 H566 0.949 . S
C572 C576 1.368 . S
C573 C554 1.429 . S
C573 C567 1.429 . S
C573 C574 1.523 . S
C574 C555 1.368 . S
C574 C568 1.368 . S
C574 C573 1.523 . S
C575 C559 1.429 . S
C575 C571 1.429 . S
C575 C576 1.523 . S
C576 C560 1.368 . S
C576 C572 1.368 . S
C576 C575 1.523 . S
H577 C552 0.950 . S
H578 C554 0.950 . S
H579 C555 0.949 . S
H580 C557 0.950 . S
H581 C559 0.950 . S
C582 C583 1.349 . S
C582 C584 1.327 . S
C582 H607 0.950 . S
C583 C582 1.349 . S
C583 C599 1.349 . S
C584 C582 1.327 . S
C584 C603 1.429 . S
C584 H608 0.950 . S
C585 C602 1.574 . S
C585 C604 1.368 . S
C585 H609 0.949 . S
H586 C590 0.949 . S
C587 C588 1.349 . S
C587 C589 1.327 . S
C587 H610 0.950 . S
C588 C587 1.349 . S
C588 C600 1.349 . S
C589 C587 1.327 . S
C589 C605 1.429 . S
C589 H611 0.950 . S
C590 H586 0.949 . S
C590 C598 1.574 . S
C590 C606 1.368 . S
H591 C599 0.950 . S
H592 C597 0.950 . S
H593 C598 0.949 . S
H594 C600 0.950 . S
H595 C601 0.950 . S
H596 C602 0.949 . S
C597 H592 0.950 . S
C597 C599 1.327 . S
C597 C603 1.429 . S
C598 C590 1.574 . S
C598 H593 0.949 . S
C598 C604 1.368 . S
C599 C583 1.349 . S
C599 H591 0.950 . S
C599 C597 1.327 . S
C600 C588 1.349 . S
C600 H594 0.950 . S
C600 C601 1.327 . S
C601 H595 0.950 . S
C601 C600 1.327 . S
C601 C605 1.429 . S
C602 C585 1.574 . S
C602 H596 0.949 . S
C602 C606 1.368 . S
C603 C584 1.429 . S
C603 C597 1.429 . S
C603 C604 1.523 . S
C604 C585 1.368 . S
C604 C598 1.368 . S
C604 C603 1.523 . S
C605 C589 1.429 . S
C605 C601 1.429 . S
C605 C606 1.523 . S
C606 C590 1.368 . S
C606 C602 1.368 . S
C606 C605 1.523 . S
H607 C582 0.950 . S
H608 C584 0.950 . S
H609 C585 0.949 . S
H610 C587 0.950 . S
H611 C589 0.950 . S
C612 C613 1.349 . S
C612 C614 1.327 . S
C612 H637 0.950 . S
C613 C612 1.349 . S
C613 C629 1.349 . S
C614 C612 1.327 . S
C614 C633 1.429 . S
C614 H638 0.950 . S
C615 C632 1.574 . S
C615 C634 1.368 . S
C615 H639 0.949 . S
H616 C620 0.949 . S
C617 C618 1.349 . S
C617 C619 1.327 . S
C617 H640 0.950 . S
C618 C617 1.349 . S
C618 C630 1.349 . S
C619 C617 1.327 . S
C619 C635 1.429 . S
C619 H641 0.950 . S
C620 H616 0.949 . S
C620 C628 1.574 . S
C620 C636 1.368 . S
H621 C629 0.950 . S
H622 C627 0.950 . S
H623 C628 0.949 . S
H624 C630 0.950 . S
H625 C631 0.950 . S
H626 C632 0.949 . S
C627 H622 0.950 . S
C627 C629 1.327 . S
C627 C633 1.429 . S
C628 C620 1.574 . S
C628 H623 0.949 . S
C628 C634 1.368 . S
C629 C613 1.349 . S
C629 H621 0.950 . S
C629 C627 1.327 . S
C630 C618 1.349 . S
C630 H624 0.950 . S
C630 C631 1.327 . S
C631 H625 0.950 . S
C631 C630 1.327 . S
C631 C635 1.429 . S
C632 C615 1.574 . S
C632 H626 0.949 . S
C632 C636 1.368 . S
C633 C614 1.429 . S
C633 C627 1.429 . S
C633 C634 1.523 . S
C634 C615 1.368 . S
C634 C628 1.368 . S
C634 C633 1.523 . S
C635 C619 1.429 . S
C635 C631 1.429 . S
C635 C636 1.523 . S
C636 C620 1.368 . S
C636 C632 1.368 . S
C636 C635 1.523 . S
H637 C612 0.950 . S
H638 C614 0.950 . S
H639 C615 0.949 . S
H640 C617 0.950 . S
H641 C619 0.950 . S
C642 C643 1.349 . S
C642 C644 1.327 . S
C642 H667 0.950 . S
C643 C642 1.349 . S
C643 C659 1.349 . S
C644 C642 1.327 . S
C644 C663 1.429 . S
C644 H668 0.950 . S
C645 C662 1.574 . S
C645 C664 1.368 . S
C645 H669 0.949 . S
H646 C650 0.949 . S
C647 C648 1.349 . S
C647 C649 1.327 . S
C647 H670 0.950 . S
C648 C647 1.349 . S
C648 C660 1.349 . S
C649 C647 1.327 . S
C649 C665 1.429 . S
C649 H671 0.950 . S
C650 H646 0.949 . S
C650 C658 1.574 . S
C650 C666 1.368 . S
H651 C659 0.974 . S
H652 C657 0.950 . S
H653 C658 0.949 . S
H654 C660 0.950 . S
H655 C661 0.950 . S
H656 C662 0.949 . S
C657 H652 0.950 . S
C657 C659 1.327 . S
C657 C663 1.429 . S
C658 C650 1.574 . S
C658 H653 0.949 . S
C658 C664 1.368 . S
C659 C643 1.349 . S
C659 H651 0.974 . S
C659 C657 1.327 . S
C660 C648 1.349 . S
C660 H654 0.950 . S
C660 C661 1.327 . S
C661 H655 0.950 . S
C661 C660 1.327 . S
C661 C665 1.429 . S
C662 C645 1.574 . S
C662 H656 0.949 . S
C662 C666 1.368 . S
C663 C644 1.429 . S
C663 C657 1.429 . S
C663 C664 1.523 . S
C664 C645 1.368 . S
C664 C658 1.368 . S
C664 C663 1.523 . S
C665 C649 1.429 . S
C665 C661 1.429 . S
C665 C666 1.523 . S
C666 C650 1.368 . S
C666 C662 1.368 . S
C666 C665 1.523 . S
H667 C642 0.950 . S
H668 C644 0.950 . S
H669 C645 0.949 . S
H670 C647 0.950 . S
H671 C649 0.950 . S
C672 C673 1.349 . S
C672 C674 1.327 . S
C672 H697 0.950 . S
C673 C672 1.349 . S
C673 C689 1.349 . S
C674 C672 1.327 . S
C674 C693 1.429 . S
C674 H698 0.950 . S
C675 C692 1.574 . S
C675 C694 1.368 . S
C675 H699 0.949 . S
H676 C680 0.949 . S
C677 C678 1.349 . S
C677 C679 1.327 . S
C677 H700 0.950 . S
C678 C677 1.349 . S
C678 C690 1.349 . S
C679 C677 1.327 . S
C679 C695 1.429 . S
C679 H701 0.950 . S
C680 H676 0.949 . S
C680 C688 1.574 . S
C680 C696 1.368 . S
H681 C689 0.950 . S
H682 C687 0.950 . S
H683 C688 0.949 . S
H684 C690 0.950 . S
H685 C691 0.950 . S
H686 C692 0.949 . S
C687 H682 0.950 . S
C687 C689 1.327 . S
C687 C693 1.429 . S
C688 C680 1.574 . S
C688 H683 0.949 . S
C688 C694 1.368 . S
C689 C673 1.349 . S
C689 H681 0.950 . S
C689 C687 1.327 . S
C690 C678 1.349 . S
C690 H684 0.950 . S
C690 C691 1.327 . S
C691 H685 0.950 . S
C691 C690 1.327 . S
C691 C695 1.429 . S
C692 C675 1.574 . S
C692 H686 0.949 . S
C692 C696 1.368 . S
C693 C674 1.429 . S
C693 C687 1.429 . S
C693 C694 1.523 . S
C694 C675 1.368 . S
C694 C688 1.368 . S
C694 C693 1.523 . S
C695 C679 1.429 . S
C695 C691 1.429 . S
C695 C696 1.523 . S
C696 C680 1.368 . S
C696 C692 1.368 . S
C696 C695 1.523 . S
H697 C672 0.950 . S
H698 C674 0.950 . S
H699 C675 0.949 . S
H700 C677 0.950 . S
H701 C679 0.950 . S
C702 C703 1.349 . S
C702 C704 1.327 . S
C702 H727 0.950 . S
C703 C702 1.349 . S
C703 C719 1.349 . S
C704 C702 1.327 . S
C704 C723 1.429 . S
C704 H728 0.950 . S
C705 C722 1.574 . S
C705 C724 1.368 . S
C705 H729 0.949 . S
H706 C710 0.949 . S
C707 C708 1.349 . S
C707 C709 1.327 . S
C707 H730 0.950 . S
C708 C707 1.349 . S
C708 C720 1.349 . S
C709 C707 1.327 . S
C709 C725 1.429 . S
C709 H731 0.950 . S
C710 H706 0.949 . S
C710 C718 1.574 . S
C710 C726 1.368 . S
H711 C719 0.950 . S
H712 C717 0.950 . S
H713 C718 0.949 . S
H714 C720 0.950 . S
H715 C721 0.950 . S
H716 C722 0.949 . S
C717 H712 0.950 . S
C717 C719 1.327 . S
C717 C723 1.429 . S
C718 C710 1.574 . S
C718 H713 0.949 . S
C718 C724 1.368 . S
C719 C703 1.349 . S
C719 H711 0.950 . S
C719 C717 1.327 . S
C720 C708 1.349 . S
C720 H714 0.950 . S
C720 C721 1.327 . S
C721 H715 0.950 . S
C721 C720 1.327 . S
C721 C725 1.429 . S
C722 C705 1.574 . S
C722 H716 0.949 . S
C722 C726 1.368 . S
C723 C704 1.429 . S
C723 C717 1.429 . S
C723 C724 1.523 . S
C724 C705 1.368 . S
C724 C718 1.368 . S
C724 C723 1.523 . S
C725 C709 1.429 . S
C725 C721 1.429 . S
C725 C726 1.523 . S
C726 C710 1.368 . S
C726 C722 1.368 . S
C726 C725 1.523 . S
H727 C702 0.950 . S
H728 C704 0.950 . S
H729 C705 0.949 . S
H730 C707 0.950 . S
H731 C709 0.950 . S
C732 C733 1.349 . S
C732 C734 1.327 . S
C732 H757 0.950 . S
C733 C732 1.349 . S
C733 C749 1.349 . S
C734 C732 1.327 . S
C734 C753 1.429 . S
C734 H758 0.950 . S
C735 C752 1.574 . S
C735 C754 1.368 . S
C735 H759 0.949 . S
H736 C740 0.949 . S
C737 C738 1.349 . S
C737 C739 1.327 . S
C737 H760 0.950 . S
C738 C737 1.349 . S
C738 C750 1.349 . S
C739 C737 1.327 . S
C739 C755 1.429 . S
C739 H761 0.950 . S
C740 H736 0.949 . S
C740 C748 1.574 . S
C740 C756 1.368 . S
H741 C749 0.950 . S
H742 C747 0.950 . S
H743 C748 0.949 . S
H744 C750 0.950 . S
H745 C751 0.950 . S
H746 C752 0.949 . S
C747 H742 0.950 . S
C747 C749 1.327 . S
C747 C753 1.429 . S
C748 C740 1.574 . S
C748 H743 0.949 . S
C748 C754 1.368 . S
C749 C733 1.349 . S
C749 H741 0.950 . S
C749 C747 1.327 . S
C750 C738 1.349 . S
C750 H744 0.950 . S
C750 C751 1.327 . S
C751 H745 0.950 . S
C751 C750 1.327 . S
C751 C755 1.429 . S
C752 C735 1.574 . S
C752 H746 0.949 . S
C752 C756 1.368 . S
C753 C734 1.429 . S
C753 C747 1.429 . S
C753 C754 1.523 . S
C754 C735 1.368 . S
C754 C748 1.368 . S
C754 C753 1.523 . S
C755 C739 1.429 . S
C755 C751 1.429 . S
C755 C756 1.523 . S
C756 C740 1.368 . S
C756 C752 1.368 . S
C756 C755 1.523 . S
H757 C732 0.950 . S
H758 C734 0.950 . S
H759 C735 0.949 . S
H760 C737 0.950 . S
H761 C739 0.950 . S
C762 C763 1.349 . S
C762 C764 1.327 . S
C762 H787 0.950 . S
C763 C762 1.349 . S
C763 C779 1.349 . S
C764 C762 1.327 . S
C764 C783 1.429 . S
C764 H788 0.950 . S
C765 C782 1.574 . S
C765 C784 1.368 . S
C765 H789 0.949 . S
H766 C770 0.949 . S
C767 C768 1.349 . S
C767 C769 1.327 . S
C767 H790 0.950 . S
C768 C767 1.349 . S
C768 C780 1.349 . S
C769 C767 1.327 . S
C769 C785 1.429 . S
C769 H791 0.950 . S
C770 H766 0.949 . S
C770 C778 1.574 . S
C770 C786 1.368 . S
H771 C779 0.950 . S
H772 C777 0.950 . S
H773 C778 0.949 . S
H774 C780 0.950 . S
H775 C781 0.950 . S
H776 C782 0.949 . S
C777 H772 0.950 . S
C777 C779 1.327 . S
C777 C783 1.429 . S
C778 C770 1.574 . S
C778 H773 0.949 . S
C778 C784 1.368 . S
C779 C763 1.349 . S
C779 H771 0.950 . S
C779 C777 1.327 . S
C780 C768 1.349 . S
C780 H774 0.950 . S
C780 C781 1.327 . S
C781 H775 0.950 . S
C781 C780 1.327 . S
C781 C785 1.429 . S
C782 C765 1.574 . S
C782 H776 0.949 . S
C782 C786 1.368 . S
C783 C764 1.429 . S
C783 C777 1.429 . S
C783 C784 1.523 . S
C784 C765 1.368 . S
C784 C778 1.368 . S
C784 C783 1.523 . S
C785 C769 1.429 . S
C785 C781 1.429 . S
C785 C786 1.523 . S
C786 C770 1.368 . S
C786 C782 1.368 . S
C786 C785 1.523 . S
H787 C762 0.950 . S
H788 C764 0.950 . S
H789 C765 0.949 . S
H790 C767 0.950 . S
H791 C769 0.950 . S
C792 C793 1.349 . S
C792 C794 1.327 . S
C792 H817 0.950 . S
C793 C792 1.349 . S
C793 C809 1.349 . S
C794 C792 1.327 . S
C794 C813 1.429 . S
C794 H818 0.950 . S
C795 C812 1.574 . S
C795 C814 1.368 . S
C795 H819 0.949 . S
H796 C800 0.949 . S
C797 C798 1.349 . S
C797 C799 1.327 . S
C797 H820 0.950 . S
C798 C797 1.349 . S
C798 C810 1.349 . S
C799 C797 1.327 . S
C799 C815 1.429 . S
C799 H821 0.950 . S
C800 H796 0.949 . S
C800 C808 1.574 . S
C800 C816 1.368 . S
H801 C809 0.950 . S
H802 C807 0.950 . S
H803 C808 0.949 . S
H804 C810 0.950 . S
H805 C811 0.950 . S
H806 C812 0.949 . S
C807 H802 0.950 . S
C807 C809 1.327 . S
C807 C813 1.429 . S
C808 C800 1.574 . S
C808 H803 0.949 . S
C808 C814 1.368 . S
C809 C793 1.349 . S
C809 H801 0.950 . S
C809 C807 1.327 . S
C810 C798 1.349 . S
C810 H804 0.950 . S
C810 C811 1.327 . S
C811 H805 0.950 . S
C811 C810 1.327 . S
C811 C815 1.429 . S
C812 C795 1.574 . S
C812 H806 0.949 . S
C812 C816 1.368 . S
C813 C794 1.429 . S
C813 C807 1.429 . S
C813 C814 1.523 . S
C814 C795 1.368 . S
C814 C808 1.368 . S
C814 C813 1.523 . S
C815 C799 1.429 . S
C815 C811 1.429 . S
C815 C816 1.523 . S
C816 C800 1.368 . S
C816 C812 1.368 . S
C816 C815 1.523 . S
H817 C792 0.950 . S
H818 C794 0.950 . S
H819 C795 0.949 . S
H820 C797 0.950 . S
H821 C799 0.950 . S
C822 C823 1.349 . S
C822 C824 1.327 . S
C822 H847 0.950 . S
C823 C822 1.349 . S
C823 C839 1.349 . S
C824 C822 1.327 . S
C824 C843 1.429 . S
C824 H848 0.950 . S
C825 C842 1.574 . S
C825 C844 1.368 . S
C825 H849 0.949 . S
H826 C830 0.949 . S
C827 C828 1.349 . S
C827 C829 1.327 . S
C827 H850 0.950 . S
C828 C827 1.349 . S
C828 C840 1.349 . S
C829 C827 1.327 . S
C829 C845 1.429 1_554 S
C829 H851 0.950 1_554 S
C830 H826 0.949 . S
C830 C838 1.574 . S
C830 C846 1.368 . S
H831 C839 0.950 . S
H832 C837 0.950 . S
H833 C838 0.949 . S
H834 C840 0.950 . S
H835 C841 0.950 . S
H836 C842 0.949 . S
C837 H832 0.950 . S
C837 C839 1.327 . S
C837 C843 1.429 . S
C838 C830 1.574 . S
C838 H833 0.949 . S
C838 C844 1.368 . S
C839 C823 1.349 . S
C839 H831 0.950 . S
C839 C837 1.327 . S
C840 C828 1.349 . S
C840 H834 0.950 . S
C840 C841 1.327 . S
C841 H835 0.950 . S
C841 C840 1.327 . S
C841 C845 1.429 1_554 S
C842 C825 1.574 . S
C842 H836 0.949 . S
C842 C846 1.368 . S
C843 C824 1.429 . S
C843 C837 1.429 . S
C843 C844 1.523 . S
C844 C825 1.368 . S
C844 C838 1.368 . S
C844 C843 1.523 . S
C845 C829 1.429 1_556 S
C845 C841 1.429 1_556 S
C845 C846 1.523 . S
C846 C830 1.368 . S
C846 C842 1.368 . S
C846 C845 1.523 . S
H847 C822 0.950 . S
H848 C824 0.950 . S
H849 C825 0.949 . S
H850 C827 0.950 . S
H851 C829 0.950 1_556 S
C852 C853 1.349 . S
C852 C854 1.327 . S
C852 H877 0.950 . S
C853 C852 1.349 . S
C853 C869 1.349 . S
C854 C852 1.327 . S
C854 C873 1.429 . S
C854 H878 0.950 . S
C855 C872 1.574 . S
C855 C874 1.368 . S
C855 H879 0.949 . S
H856 C860 0.949 . S
C857 C858 1.349 . S
C857 C859 1.327 . S
C857 H880 0.950 . S
C858 C857 1.349 . S
C858 C870 1.349 . S
C859 C857 1.327 . S
C859 C875 1.429 . S
C859 H881 0.950 . S
C860 H856 0.949 . S
C860 C868 1.574 . S
C860 C876 1.368 . S
H861 C869 0.950 . S
H862 C867 0.950 . S
H863 C868 0.949 . S
H864 C870 0.950 . S
H865 C871 0.950 . S
H866 C872 0.949 . S
C867 H862 0.950 . S
C867 C869 1.327 . S
C867 C873 1.429 . S
C868 C860 1.574 . S
C868 H863 0.949 . S
C868 C874 1.368 . S
C869 C853 1.349 . S
C869 H861 0.950 . S
C869 C867 1.327 . S
C870 C858 1.349 . S
C870 H864 0.950 . S
C870 C871 1.327 . S
C871 H865 0.950 . S
C871 C870 1.327 . S
C871 C875 1.429 . S
C872 C855 1.574 . S
C872 H866 0.949 . S
C872 C876 1.368 . S
C873 C854 1.429 . S
C873 C867 1.429 . S
C873 C874 1.523 . S
C874 C855 1.368 . S
C874 C868 1.368 . S
C874 C873 1.523 . S
C875 C859 1.429 . S
C875 C871 1.429 . S
C875 C876 1.523 . S
C876 C860 1.368 . S
C876 C872 1.368 . S
C876 C875 1.523 . S
H877 C852 0.950 . S
H878 C854 0.950 . S
H879 C855 0.949 . S
H880 C857 0.950 . S
H881 C859 0.950 . S
C882 C883 1.349 . S
C882 C884 1.327 . S
C882 H907 0.950 . S
C883 C882 1.349 . S
C883 C899 1.349 . S
C884 C882 1.327 . S
C884 C903 1.429 . S
C884 H908 0.950 . S
C885 C902 1.574 . S
C885 C904 1.368 . S
C885 H909 0.949 . S
H886 C890 0.949 . S
C887 C888 1.349 . S
C887 C889 1.327 . S
C887 H910 0.950 . S
C888 C887 1.349 . S
C888 C900 1.349 . S
C889 C887 1.327 . S
C889 C905 1.429 . S
C889 H911 0.950 . S
C890 H886 0.949 . S
C890 C898 1.574 . S
C890 C906 1.368 . S
H891 C899 0.950 . S
H892 C897 0.950 . S
H893 C898 0.949 . S
H894 C900 0.950 . S
H895 C901 0.950 . S
H896 C902 0.949 . S
C897 H892 0.950 . S
C897 C899 1.327 . S
C897 C903 1.429 . S
C898 C890 1.574 . S
C898 H893 0.949 . S
C898 C904 1.368 . S
C899 C883 1.349 . S
C899 H891 0.950 . S
C899 C897 1.327 . S
C900 C888 1.349 . S
C900 H894 0.950 . S
C900 C901 1.327 . S
C901 H895 0.950 . S
C901 C900 1.327 . S
C901 C905 1.429 . S
C902 C885 1.574 . S
C902 H896 0.949 . S
C902 C906 1.368 . S
C903 C884 1.429 . S
C903 C897 1.429 . S
C903 C904 1.523 . S
C904 C885 1.368 . S
C904 C898 1.368 . S
C904 C903 1.523 . S
C905 C889 1.429 . S
C905 C901 1.429 . S
C905 C906 1.523 . S
C906 C890 1.368 . S
C906 C902 1.368 . S
C906 C905 1.523 . S
H907 C882 0.950 . S
H908 C884 0.950 . S
H909 C885 0.949 . S
H910 C887 0.950 . S
H911 C889 0.950 . S
C912 C913 1.349 . S
C912 C914 1.327 . S
C912 H937 0.950 . S
C913 C912 1.349 . S
C913 C929 1.349 . S
C914 C912 1.327 . S
C914 C933 1.429 . S
C914 H938 0.950 . S
C915 C932 1.574 . S
C915 C934 1.368 . S
C915 H939 0.949 . S
H916 C920 0.949 . S
C917 C918 1.349 . S
C917 C919 1.327 . S
C917 H940 0.950 . S
C918 C917 1.349 . S
C918 C930 1.349 . S
C919 C917 1.327 . S
C919 C935 1.429 . S
C919 H941 0.950 . S
C920 H916 0.949 . S
C920 C928 1.574 . S
C920 C936 1.368 . S
H921 C929 0.950 . S
H922 C927 0.950 . S
H923 C928 0.949 . S
H924 C930 0.950 . S
H925 C931 0.950 . S
H926 C932 0.949 . S
C927 H922 0.950 . S
C927 C929 1.327 . S
C927 C933 1.429 . S
C928 C920 1.574 . S
C928 H923 0.949 . S
C928 C934 1.368 . S
C929 C913 1.349 . S
C929 H921 0.950 . S
C929 C927 1.327 . S
C930 C918 1.349 . S
C930 H924 0.950 . S
C930 C931 1.327 . S
C931 H925 0.950 . S
C931 C930 1.327 . S
C931 C935 1.429 . S
C932 C915 1.574 . S
C932 H926 0.949 . S
C932 C936 1.368 . S
C933 C914 1.429 . S
C933 C927 1.429 . S
C933 C934 1.523 . S
C934 C915 1.368 . S
C934 C928 1.368 . S
C934 C933 1.523 . S
C935 C919 1.429 . S
C935 C931 1.429 . S
C935 C936 1.523 . S
C936 C920 1.368 . S
C936 C932 1.368 . S
C936 C935 1.523 . S
H937 C912 0.950 . S
H938 C914 0.950 . S
H939 C915 0.949 . S
H940 C917 0.950 . S
H941 C919 0.950 . S
C942 C943 1.349 . S
C942 C944 1.327 . S
C942 H967 0.950 . S
C943 C942 1.349 . S
C943 C959 1.349 . S
C944 C942 1.327 . S
C944 C963 1.429 . S
C944 H968 0.950 . S
C945 C962 1.574 . S
C945 C964 1.368 . S
C945 H969 0.949 . S
H946 C950 0.949 . S
C947 C948 1.349 . S
C947 C949 1.327 . S
C947 H970 0.950 . S
C948 C947 1.349 . S
C948 C960 1.349 . S
C949 C947 1.327 . S
C949 C965 1.429 . S
C949 H971 0.950 . S
C950 H946 0.949 . S
C950 C958 1.574 . S
C950 C966 1.368 . S
H951 C959 0.950 . S
H952 C957 0.950 . S
H953 C958 0.949 . S
H954 C960 0.950 . S
H955 C961 0.950 . S
H956 C962 0.949 . S
C957 H952 0.950 . S
C957 C959 1.327 . S
C957 C963 1.429 . S
C958 C950 1.574 . S
C958 H953 0.949 . S
C958 C964 1.368 . S
C959 C943 1.349 . S
C959 H951 0.950 . S
C959 C957 1.327 . S
C960 C948 1.349 . S
C960 H954 0.950 . S
C960 C961 1.327 . S
C961 H955 0.950 . S
C961 C960 1.327 . S
C961 C965 1.429 . S
C962 C945 1.574 . S
C962 H956 0.949 . S
C962 C966 1.368 . S
C963 C944 1.429 . S
C963 C957 1.429 . S
C963 C964 1.523 . S
C964 C945 1.368 . S
C964 C958 1.368 . S
C964 C963 1.523 . S
C965 C949 1.429 . S
C965 C961 1.429 . S
C965 C966 1.523 . S
C966 C950 1.368 . S
C966 C962 1.368 . S
C966 C965 1.523 . S
H967 C942 0.950 . S
H968 C944 0.950 . S
H969 C945 0.949 . S
H970 C947 0.950 . S
H971 C949 0.950 . S
C972 C973 1.349 . S
C972 C974 1.327 . S
C972 H997 0.950 . S
C973 C972 1.349 . S
C973 C989 1.349 . S
C974 C972 1.327 . S
C974 C993 1.429 . S
C974 H998 0.950 . S
C975 C992 1.574 . S
C975 C994 1.368 . S
C975 H999 0.949 . S
H976 C980 0.949 . S
C977 C978 1.349 . S
C977 C979 1.327 . S
C977 H1000 0.950 . S
C978 C977 1.349 . S
C978 C990 1.349 . S
C979 C977 1.327 . S
C979 C995 1.429 . S
C979 H1001 0.950 . S
C980 H976 0.949 . S
C980 C988 1.574 . S
C980 C996 1.368 . S
H981 C989 0.950 . S
H982 C987 0.950 . S
H983 C988 0.949 . S
H984 C990 0.950 . S
H985 C991 0.950 . S
H986 C992 0.949 . S
C987 H982 0.950 . S
C987 C989 1.327 . S
C987 C993 1.429 . S
C988 C980 1.574 . S
C988 H983 0.949 . S
C988 C994 1.368 . S
C989 C973 1.349 . S
C989 H981 0.950 . S
C989 C987 1.327 . S
C990 C978 1.349 . S
C990 H984 0.950 . S
C990 C991 1.327 . S
C991 H985 0.950 . S
C991 C990 1.327 . S
C991 C995 1.429 . S
C992 C975 1.574 . S
C992 H986 0.949 . S
C992 C996 1.368 . S
C993 C974 1.429 . S
C993 C987 1.429 . S
C993 C994 1.523 . S
C994 C975 1.368 . S
C994 C988 1.368 . S
C994 C993 1.523 . S
C995 C979 1.429 . S
C995 C991 1.429 . S
C995 C996 1.523 . S
C996 C980 1.368 . S
C996 C992 1.368 . S
C996 C995 1.523 . S
H997 C972 0.950 . S
H998 C974 0.950 . S
H999 C975 0.949 . S
H1000 C977 0.950 . S
H1001 C979 0.950 . S
C1002 C1003 1.349 . S
C1002 C1004 1.327 . S
C1002 H1027 0.950 . S
C1003 C1002 1.349 . S
C1003 C1019 1.349 . S
C1004 C1002 1.327 . S
C1004 C1023 1.429 . S
C1004 H1028 0.950 . S
C1005 C1022 1.574 . S
C1005 C1024 1.368 . S
C1005 H1029 0.949 . S
H1006 C1010 0.949 . S
C1007 C1008 1.349 . S
C1007 C1009 1.327 . S
C1007 H1030 0.950 . S
C1008 C1007 1.349 . S
C1008 C1020 1.349 . S
C1009 C1007 1.327 . S
C1009 C1025 1.429 . S
C1009 H1031 0.950 . S
C1010 H1006 0.949 . S
C1010 C1018 1.574 . S
C1010 C1026 1.368 . S
H1011 C1019 0.950 . S
H1012 C1017 0.950 . S
H1013 C1018 0.949 . S
H1014 C1020 0.950 . S
H1015 C1021 0.950 . S
H1016 C1022 0.949 . S
C1017 H1012 0.950 . S
C1017 C1019 1.327 . S
C1017 C1023 1.429 . S
C1018 C1010 1.574 . S
C1018 H1013 0.949 . S
C1018 C1024 1.368 . S
C1019 C1003 1.349 . S
C1019 H1011 0.950 . S
C1019 C1017 1.327 . S
C1020 C1008 1.349 . S
C1020 H1014 0.950 . S
C1020 C1021 1.327 . S
C1021 H1015 0.950 . S
C1021 C1020 1.327 . S
C1021 C1025 1.429 . S
C1022 C1005 1.574 . S
C1022 H1016 0.949 . S
C1022 C1026 1.368 . S
C1023 C1004 1.429 . S
C1023 C1017 1.429 . S
C1023 C1024 1.523 . S
C1024 C1005 1.368 . S
C1024 C1018 1.368 . S
C1024 C1023 1.523 . S
C1025 C1009 1.429 . S
C1025 C1021 1.429 . S
C1025 C1026 1.523 . S
C1026 C1010 1.368 . S
C1026 C1022 1.368 . S
C1026 C1025 1.523 . S
H1027 C1002 0.950 . S
H1028 C1004 0.950 . S
H1029 C1005 0.949 . S
H1030 C1007 0.950 . S
H1031 C1009 0.950 . S
C1032 C1033 1.349 . S
C1032 C1034 1.327 . S
C1032 H1057 0.950 . S
C1033 C1032 1.349 . S
C1033 C1049 1.349 . S
C1034 C1032 1.327 . S
C1034 C1053 1.429 . S
C1034 H1058 0.950 . S
C1035 C1052 1.574 1_554 S
C1035 C1054 1.368 . S
C1035 H1059 0.949 . S
H1036 C1040 0.949 . S
C1037 C1038 1.349 . S
C1037 C1039 1.327 . S
C1037 H1060 0.950 . S
C1038 C1037 1.349 . S
C1038 C1050 1.349 . S
C1039 C1037 1.327 . S
C1039 C1055 1.429 . S
C1039 H1061 0.950 . S
C1040 H1036 0.949 . S
C1040 C1048 1.574 . S
C1040 C1056 1.368 1_554 S
H1041 C1049 0.950 . S
H1042 C1047 0.950 . S
H1043 C1048 0.949 . S
H1044 C1050 0.950 . S
H1045 C1051 0.950 . S
H1046 C1052 0.949 . S
C1047 H1042 0.950 . S
C1047 C1049 1.327 . S
C1047 C1053 1.429 . S
C1048 C1040 1.574 . S
C1048 H1043 0.949 . S
C1048 C1054 1.368 . S
C1049 C1033 1.349 . S
C1049 H1041 0.950 . S
C1049 C1047 1.327 . S
C1050 C1038 1.349 . S
C1050 H1044 0.950 . S
C1050 C1051 1.327 . S
C1051 H1045 0.950 . S
C1051 C1050 1.327 . S
C1051 C1055 1.429 . S
C1052 C1035 1.574 1_556 S
C1052 H1046 0.949 . S
C1052 C1056 1.368 . S
C1053 C1034 1.429 . S
C1053 C1047 1.429 . S
C1053 C1054 1.523 . S
C1054 C1035 1.368 . S
C1054 C1048 1.368 . S
C1054 C1053 1.523 . S
C1055 C1039 1.429 . S
C1055 C1051 1.429 . S
C1055 C1056 1.523 . S
C1056 C1040 1.368 1_556 S
C1056 C1052 1.368 . S
C1056 C1055 1.523 . S
H1057 C1032 0.950 . S
H1058 C1034 0.950 . S
H1059 C1035 0.949 . S
H1060 C1037 0.950 . S
H1061 C1039 0.950 . S
C1062 C1063 1.349 . S
C1062 C1064 1.327 . S
C1062 H1087 0.950 . S
C1063 C1062 1.349 . S
C1063 C1079 1.349 . S
C1064 C1062 1.327 . S
C1064 C1083 1.429 . S
C1064 H1088 0.950 . S
C1065 C1082 1.574 . S
C1065 C1084 1.368 . S
C1065 H1089 0.949 . S
H1066 C1070 0.949 . S
C1067 C1068 1.349 . S
C1067 C1069 1.327 . S
C1067 H1090 0.950 . S
C1068 C1067 1.349 . S
C1068 C1080 1.349 . S
C1069 C1067 1.327 . S
C1069 C1085 1.429 . S
C1069 H1091 0.950 . S
C1070 H1066 0.949 . S
C1070 C1078 1.574 . S
C1070 C1086 1.368 . S
H1071 C1079 0.950 . S
H1072 C1077 0.950 . S
H1073 C1078 0.949 . S
H1074 C1080 0.950 . S
H1075 C1081 0.950 . S
H1076 C1082 0.949 . S
C1077 H1072 0.950 . S
C1077 C1079 1.327 . S
C1077 C1083 1.429 . S
C1078 C1070 1.574 . S
C1078 H1073 0.949 . S
C1078 C1084 1.368 . S
C1079 C1063 1.349 . S
C1079 H1071 0.950 . S
C1079 C1077 1.327 . S
C1080 C1068 1.349 . S
C1080 H1074 0.950 . S
C1080 C1081 1.327 . S
C1081 H1075 0.950 . S
C1081 C1080 1.327 . S
C1081 C1085 1.429 . S
C1082 C1065 1.574 . S
C1082 H1076 0.949 . S
C1082 C1086 1.368 . S
C1083 C1064 1.429 . S
C1083 C1077 1.429 . S
C1083 C1084 1.523 . S
C1084 C1065 1.368 . S
C1084 C1078 1.368 . S
C1084 C1083 1.523 . S
C1085 C1069 1.429 . S
C1085 C1081 1.429 . S
C1085 C1086 1.523 . S
C1086 C1070 1.368 . S
C1086 C1082 1.368 . S
C1086 C1085 1.523 . S
H1087 C1062 0.950 . S
H1088 C1064 0.950 . S
H1089 C1065 0.949 . S
H1090 C1067 0.950 . S
H1091 C1069 0.950 . S
C378 C363 1.258 . S
C373 C45 1.499 . S
C403 C84 1.532 . S
C408 C293 1.293 . S
C433 C126 1.465 . S
C438 C313 1.495 . S
C463 C189 1.428 . S
C468 C327 1.422 . S
C498 C335 1.235 . S
C493 C228 1.470 . S
C523 C270 1.458 . S
C528 C349 1.246 . S
C553 C69 1.508 . S
C558 C307 1.281 . S
C583 C141 1.470 . S
C588 C321 1.232 . S
C613 C174 1.389 . S
C618 C341 1.414 . S
C648 C355 1.463 . S
C643 C213 1.446 . S
C678 C369 1.461 . S
C673 C285 1.467 . S
C708 C299 1.488 . S
C703 C30 1.459 . S
C733 C36 1.439 . S
C738 C306 1.412 . S
C763 C93 1.457 . S
C768 C320 1.431 . S
C798 C342 1.448 . S
C793 C117 1.447 . S
C823 C180 1.451 . S
C828 C356 1.451 . S
C858 C370 1.413 . S
C853 C237 1.416 . S
C888 C300 1.397 . S
C883 C261 1.396 . S
C918 C362 1.409 . S
C913 C78 1.431 . S
C943 C132 1.439 . S
C948 C292 1.411 . S
C978 C314 1.430 . S
C973 C165 1.427 . S
C1003 C222 1.440 . S
C1008 C328 1.446 . S
C1033 C276 1.495 . S
C1038 C334 1.468 . S
C1063 C21 1.469 . S
C1068 C348 1.444 . S
