# Generated by pormake.
# Topology zzz, (3,6)-cn, num edge types: 1
# Building blocks:
#     Node 0, Type 0, BuildingBlock: ESEHIV_clean_linker_0, # of connection points: 3
#     Node 1, Type 0, BuildingBlock: ESEHIV_clean_linker_0, # of connection points: 3
#     Node 2, Type 0, BuildingBlock: ESEHIV_clean_linker_0, # of connection points: 3
#     Node 3, Type 0, BuildingBlock: ESEHIV_clean_linker_0, # of connection points: 3
#     Node 4, Type 0, BuildingBlock: ESEHIV_clean_linker_0, # of connection points: 3
#     Node 5, Type 0, BuildingBlock: ESEHIV_clean_linker_0, # of connection points: 3
#     Node 6, Type 0, BuildingBlock: ESEHIV_clean_linker_0, # of connection points: 3
#     Node 7, Type 0, BuildingBlock: ESEHIV_clean_linker_0, # of connection points: 3
#     Node 8, Type 1, BuildingBlock: KUMJIN_clean_sbu_1, # of connection points: 6
#     Node 9, Type 1, BuildingBlock: KUMJIN_clean_sbu_1, # of connection points: 6
#     Node 10, Type 1, BuildingBlock: KUMJIN_clean_sbu_1, # of connection points: 6
#     Node 11, Type 1, BuildingBlock: KUMJIN_clean_sbu_1, # of connection points: 6
#     Edge 12, Type (0, 1), BuildingBlock: OJICUG_clean_linker_0, # of connection points: 2
#     Edge 13, Type (0, 1), BuildingBlock: OJICUG_clean_linker_0, # of connection points: 2
#     Edge 14, Type (0, 1), BuildingBlock: OJICUG_clean_linker_0, # of connection points: 2
#     Edge 15, Type (0, 1), BuildingBlock: OJICUG_clean_linker_0, # of connection points: 2
#     Edge 16, Type (0, 1), BuildingBlock: OJICUG_clean_linker_0, # of connection points: 2
#     Edge 17, Type (0, 1), BuildingBlock: OJICUG_clean_linker_0, # of connection points: 2
#     Edge 18, Type (0, 1), BuildingBlock: OJICUG_clean_linker_0, # of connection points: 2
#     Edge 19, Type (0, 1), BuildingBlock: OJICUG_clean_linker_0, # of connection points: 2
#     Edge 20, Type (0, 1), BuildingBlock: OJICUG_clean_linker_0, # of connection points: 2
#     Edge 21, Type (0, 1), BuildingBlock: OJICUG_clean_linker_0, # of connection points: 2
#     Edge 22, Type (0, 1), BuildingBlock: OJICUG_clean_linker_0, # of connection points: 2
#     Edge 23, Type (0, 1), BuildingBlock: OJICUG_clean_linker_0, # of connection points: 2
#     Edge 24, Type (0, 1), BuildingBlock: OJICUG_clean_linker_0, # of connection points: 2
#     Edge 25, Type (0, 1), BuildingBlock: OJICUG_clean_linker_0, # of connection points: 2
#     Edge 26, Type (0, 1), BuildingBlock: OJICUG_clean_linker_0, # of connection points: 2
#     Edge 27, Type (0, 1), BuildingBlock: OJICUG_clean_linker_0, # of connection points: 2
#     Edge 28, Type (0, 1), BuildingBlock: OJICUG_clean_linker_0, # of connection points: 2
#     Edge 29, Type (0, 1), BuildingBlock: OJICUG_clean_linker_0, # of connection points: 2
#     Edge 30, Type (0, 1), BuildingBlock: OJICUG_clean_linker_0, # of connection points: 2
#     Edge 31, Type (0, 1), BuildingBlock: OJICUG_clean_linker_0, # of connection points: 2
#     Edge 32, Type (0, 1), BuildingBlock: OJICUG_clean_linker_0, # of connection points: 2
#     Edge 33, Type (0, 1), BuildingBlock: OJICUG_clean_linker_0, # of connection points: 2
#     Edge 34, Type (0, 1), BuildingBlock: OJICUG_clean_linker_0, # of connection points: 2
#     Edge 35, Type (0, 1), BuildingBlock: OJICUG_clean_linker_0, # of connection points: 2
# Relax obj value: 0.449
# Max RMSD: 0.196
# Mean RMSD: 0.187
data_MOF--net-zzz--node1-KUMJIN_clean_sbu_1--node2-ESEHIV_clean_linker_0--edge1-OJICUG_clean_linker_0
_symmetry_space_group_name_H-M    P1
_symmetry_Int_Tables_number       1
_symmetry_cell_setting            triclinic
loop_
_symmetry_equiv_pos_as_xyz
'x, y, z'
_cell_length_a     30.548749
_cell_length_b     30.677268
_cell_length_c     11.540855
_cell_angle_alpha  89.895169
_cell_angle_beta   89.704852
_cell_angle_gamma 90.283747
loop_
_atom_site_label
_atom_site_type_symbol
_atom_site_fract_x
_atom_site_fract_y
_atom_site_fract_z
_atom_type_partial_charge
H0 H 0.83174 0.57115 0.30156 0.0
H1 H 0.73138 0.54947 0.06209 0.0
H2 H 0.70171 0.5416 0.4278 0.0
C3 C 0.79734 0.56526 0.28716 0.0
C4 C 0.77082 0.5558 0.38289 0.0
C5 C 0.78512 0.54768 0.18089 0.0
C6 C 0.74115 0.55276 0.15176 0.0
C7 C 0.7089 0.55202 0.23873 0.0
C8 C 0.72442 0.54893 0.35822 0.0
H9 H 0.02589 0.84431 0.23392 0.0
H10 H 0.98299 0.73604 0.03726 0.0
H11 H 0.99208 0.72449 0.41073 0.0
C12 C 1.01126 0.81207 0.23454 0.0
C13 C 1.00343 0.79063 0.34048 0.0
C14 C 1.00619 0.79101 0.12818 0.0
C15 C 0.98675 0.75047 0.12275 0.0
C16 C 0.98551 0.72371 0.22022 0.0
C17 C 0.99302 0.74416 0.33281 0.0
H18 H 0.71798 0.92961 0.33961 0.0
H19 H 0.83268 0.90473 0.15599 0.0
H20 H 0.82509 0.02079 0.37039 0.0
C21 C 0.75181 0.93847 0.32245 0.0
C22 C 0.76961 0.97481 0.37998 0.0
C23 C 0.77194 0.92305 0.22095 0.0
C24 C 0.81739 0.92483 0.22121 0.0
C25 C 0.83724 0.96429 0.25676 0.0
C26 C 0.81229 0.98995 0.33992 0.0
H27 H 0.50337 0.69152 0.24648 0.0
H28 H 0.54739 0.81332 0.39728 0.0
H29 H 0.53129 0.79925 1.02705 0.0
C30 C 0.5163 0.72443 0.23881 0.0
C31 C 0.51534 0.74414 0.13032 0.0
C32 C 0.52895 0.74748 0.33815 0.0
C33 C 0.54093 0.79314 0.32241 0.0
C34 C 0.54246 0.81223 0.20674 0.0
C35 C 0.53262 0.78534 0.11346 0.0
H36 H 0.2109 0.57263 0.19309 0.0
H37 H 0.32455 0.54374 0.38813 0.0
H38 H 0.31299 0.49274 0.03944 0.0
C39 C 0.24212 0.55602 0.196 0.0
C40 C 0.25633 0.53097 0.10069 0.0
C41 C 0.26718 0.56074 0.29624 0.0
C42 C 0.30624 0.53903 0.30846 0.0
C43 C 0.32469 0.51546 0.21799 0.0
C44 C 0.29932 0.51063 0.11171 0.0
H45 H 0.05041 0.20751 0.20211 0.0
H46 H 0.08573 0.32113 0.3862 0.0
H47 H 0.0396 0.33183 1.03314 0.0
C48 C 0.05825 0.24189 0.19946 0.0
C49 C 0.05187 0.26494 0.09607 0.0
C50 C 0.06517 0.26343 0.30421 0.0
C51 C 0.07764 0.30678 0.30312 0.0
C52 C 0.06307 0.33374 0.21385 0.0
C53 C 0.05056 0.31242 0.1057 0.0
H54 H 0.34103 0.11784 0.13985 0.0
H55 H 0.23271 0.12479 0.37378 0.0
H56 H 0.23157 0.03076 0.09427 0.0
C57 C 0.30805 0.10791 0.16333 0.0
C58 C 0.28911 0.07388 0.10007 0.0
C59 C 0.28886 0.12419 0.26556 0.0
C60 C 0.24631 0.11179 0.29408 0.0
C61 C 0.22409 0.07843 0.23495 0.0
C62 C 0.24665 0.05802 0.13839 0.0
H63 H 0.43527 0.30965 0.09912 0.0
H64 H 0.55041 0.22887 0.07219 0.0
H65 H 0.4579 0.21606 0.3547 0.0
C66 C 0.4542 0.28187 0.12566 0.0
C67 C 0.45187 0.27114 0.24301 0.0
C68 C 0.49321 0.27233 0.06512 0.0
C69 C 0.51944 0.23716 0.11218 0.0
C70 C 0.50419 0.21355 0.21412 0.0
C71 C 0.46694 0.22969 0.27105 0.0
Eu72 Eu 0.97351 0.03513 0.64775 0.0
C73 C 0.13972 0.09525 0.8933 0.0
N74 N 0.13472 0.06902 0.79915 0.0
C75 C 0.19635 0.1033 0.70602 0.0
C76 C 0.17266 0.1277 0.89509 0.0
C77 C 0.16271 0.07229 0.70676 0.0
C78 C 0.20135 0.13116 0.8005 0.0
C79 C 0.11144 0.12168 0.07689 0.0
C80 C 0.10995 0.09147 0.98499 0.0
C81 C 0.14403 0.15412 0.07836 0.0
C82 C 0.17503 0.15659 0.98893 0.0
Eu83 Eu 0.07982 1.01453 0.81498 0.0
N84 N 0.07852 0.05963 0.98218 0.0
C85 C 0.07988 0.11857 0.1646 0.0
C86 C 0.05137 0.0536 0.07526 0.0
C87 C 0.05045 0.08384 0.16531 0.0
H88 H 0.16041 0.04964 0.63587 0.0
H89 H 0.02761 0.0799 0.23652 0.0
H90 H 0.89001 1.00313 0.82063 0.0
H91 H 0.02874 0.96667 0.23263 0.0
H92 H 0.03096 0.02524 0.08322 0.0
H93 H 0.07951 0.14139 0.23583 0.0
H94 H 0.02275 0.02348 0.3801 0.0
H95 H 0.21859 0.10547 0.63287 0.0
H96 H 0.14548 0.17761 0.14825 0.0
H97 H 0.19996 0.18181 0.99152 0.0
H98 H 0.83023 0.94874 0.81958 0.0
H99 H 0.22722 0.15545 0.79916 0.0
H100 H 0.97833 0.90371 0.23755 0.0
N101 N 0.91684 0.98236 0.65972 0.0
C102 C 0.91274 0.95516 0.56729 0.0
C103 C 0.8536 0.94985 0.74918 0.0
C104 C 0.87976 0.92278 0.56532 0.0
C105 C 0.88777 0.98031 0.74988 0.0
C106 C 0.84966 0.92084 0.65689 0.0
N107 N 0.97478 0.98969 0.48087 0.0
C108 C 1.0027 0.99493 0.38908 0.0
C109 C 0.94353 0.92618 0.38949 0.0
C110 C 0.9435 0.95781 0.47799 0.0
C111 C 0.97651 0.92798 0.30522 0.0
C112 C 1.00519 0.96336 0.30247 0.0
H113 H 0.82355 0.8968 0.65774 0.0
H114 H 0.85391 0.86714 0.4722 0.0
H115 H 0.91093 0.86875 0.3217 0.0
O116 O 0.95113 0.07889 0.51124 0.0
O117 O 0.98774 0.96212 0.68991 0.0
O118 O 0.06208 0.95869 0.68587 0.0
O119 O 0.90719 0.06139 0.65008 0.0
O120 O 0.0392 0.05818 0.55985 0.0
O121 O 0.08717 1.00618 0.62119 0.0
O122 O 0.10388 0.9695 0.94704 0.0
O123 O 0.06487 0.0873 0.77203 0.0
O124 O 0.99069 0.0905 0.77821 0.0
O125 O 0.14771 0.99317 0.81476 0.0
O126 O 1.01469 0.99081 0.90416 0.0
O127 O 0.96516 0.0415 0.84235 0.0
C128 C 0.02366 0.94014 0.6648 0.0
C129 C 0.90752 0.13405 0.59481 0.0
C130 C 0.93752 0.20696 0.61548 0.0
C131 C 0.89636 0.22229 0.65075 0.0
C132 C 0.86642 0.14919 0.63137 0.0
C133 C 0.86111 0.19316 0.66096 0.0
C134 C 0.94305 0.1627 0.59268 0.0
C135 C 0.07621 0.03593 0.5456 0.0
C136 C 0.91471 0.0881 0.56554 0.0
C137 C 0.87877 0.89243 0.47461 0.0
C138 C 0.91114 0.89351 0.38851 0.0
C139 C 0.02902 0.10925 0.79773 0.0
C140 C 0.15593 0.92108 0.86676 0.0
C141 C 0.13609 0.8456 0.83293 0.0
C142 C 0.18044 0.83526 0.81662 0.0
C143 C 0.20019 0.91093 0.84913 0.0
C144 C 0.12421 0.88898 0.85127 0.0
C145 C 0.21227 0.86817 0.82179 0.0
C146 C 0.97694 1.01191 0.91774 0.0
C147 C 0.14214 0.96526 0.89722 0.0
H148 H 0.89116 0.25678 0.66508 0.0
H149 H 0.83866 0.12717 0.63677 0.0
H150 H 0.8293 0.20495 0.68772 0.0
H151 H 0.97479 0.15119 0.56377 0.0
H152 H 0.19055 0.80167 0.807 0.0
H153 H 0.22523 0.93584 0.85753 0.0
H154 H 0.09011 0.89709 0.86594 0.0
H155 H 0.24647 0.86014 0.81021 0.0
Eu156 Eu 0.55008 0.06924 0.85766 0.0
C157 C 0.52409 0.88361 0.71562 0.0
N158 N 0.54666 0.91583 0.66026 0.0
C159 C 0.60546 0.86671 0.61875 0.0
C160 C 0.54238 0.84176 0.72763 0.0
C161 C 0.58618 0.90774 0.60894 0.0
C162 C 0.58363 0.83363 0.67914 0.0
C163 C 0.4585 0.85927 0.81648 0.0
C164 C 0.4824 0.89243 0.7597 0.0
C165 C 0.47717 0.8182 0.831 0.0
C166 C 0.51876 0.8092 0.7859 0.0
Eu167 Eu 0.51049 0.98305 0.64419 0.0
N168 N 0.46438 0.93244 0.74218 0.0
C169 C 0.41569 0.86766 0.85328 0.0
C170 C 0.42098 0.9389 0.76619 0.0
C171 C 0.39653 0.90737 0.82565 0.0
H172 H 0.60281 0.93261 0.55917 0.0
H173 H 0.36253 0.91326 0.84704 0.0
H174 H 0.45412 0.10112 0.99771 0.0
H175 H 0.67773 0.18182 0.71582 0.0
H176 H 0.40407 0.96731 0.7357 0.0
H177 H 0.39646 0.84291 0.89765 0.0
H178 H 0.64664 0.11065 0.77607 0.0
H179 H 0.63696 0.86052 0.57884 0.0
H180 H 0.45884 0.79323 0.87516 0.0
H181 H 0.53239 0.77693 0.79533 0.0
H182 H 0.40099 0.16022 0.97976 0.0
H183 H 0.59856 0.80177 0.68619 0.0
H184 H 0.62922 0.24563 0.69499 0.0
N185 N 0.4982 0.12689 0.87074 0.0
C186 C 0.51122 0.16455 0.81844 0.0
C187 C 0.43121 0.16128 0.93038 0.0
C188 C 0.48246 0.20002 0.80882 0.0
C189 C 0.46107 0.12705 0.93774 0.0
C190 C 0.4411 0.19717 0.86082 0.0
N191 N 0.5818 0.1346 0.79204 0.0
C192 C 0.62551 0.13858 0.7689 0.0
C193 C 0.57078 0.21014 0.74677 0.0
C194 C 0.55473 0.16936 0.78444 0.0
C195 C 0.6156 0.2147 0.72304 0.0
C196 C 0.6431 0.17873 0.73447 0.0
H197 H 0.4182 0.22396 0.85591 0.0
H198 H 0.4738 0.26389 0.73792 0.0
H199 H 0.55309 0.27552 0.69854 0.0
O200 O 0.58723 0.0478 1.00602 0.0
O201 O 0.55821 0.08939 0.66433 0.0
O202 O 0.50122 0.05365 0.58079 0.0
O203 O 0.56931 0.11519 0.99524 0.0
O204 O 0.6085 0.03369 0.763 0.0
O205 O 0.57889 1.00725 0.59266 0.0
O206 O 0.46262 0.95024 0.53478 0.0
O207 O 0.55201 0.96126 0.80209 0.0
O208 O 0.52411 1.00553 0.93787 0.0
O209 O 0.52425 0.97169 0.46135 0.0
O210 O 0.45357 0.02556 0.71476 0.0
O211 O 0.48047 0.04277 0.89205 0.0
C212 C 0.53116 0.08472 0.57642 0.0
C213 C 0.63978 0.09822 0.06247 0.0
C214 C 0.70981 0.06411 0.04592 0.0
C215 C 0.72506 0.08824 0.14118 0.0
C216 C 0.65373 0.12187 0.15936 0.0
C217 C 0.69743 0.11867 0.1947 0.0
C218 C 0.67039 0.07541 0.99615 0.0
C219 C 0.61322 0.01857 0.65511 0.0
C220 C 0.59371 0.08682 0.04634 0.0
C221 C 0.49686 0.23826 0.75477 0.0
C222 C 0.54142 0.24435 0.72987 0.0
C223 C 0.53986 0.96725 0.91035 0.0
C224 C 0.46127 0.99 0.36285 0.0
C225 C 0.41969 0.05702 0.33922 0.0
C226 C 0.43118 0.05709 0.22128 0.0
C227 C 0.47569 0.99328 0.24874 0.0
C228 C 0.43298 0.02193 0.40828 0.0
C229 C 0.45981 0.026 0.17779 0.0
C230 C 0.4467 0.03665 0.82365 0.0
C231 C 0.48391 0.96048 0.44088 0.0
H232 H 0.75587 0.0801 0.18179 0.0
H233 H 0.63059 0.14021 0.21113 0.0
H234 H 0.70831 0.13589 0.27117 0.0
H235 H 0.65966 0.05654 0.92232 0.0
H236 H 0.41917 0.08201 0.16352 0.0
H237 H 0.50145 0.97247 0.2178 0.0
H238 H 0.42407 0.02125 0.49911 0.0
H239 H 0.47122 0.02837 0.09059 0.0
Eu240 Eu 0.57287 0.50902 0.6409 0.0
C241 C 0.40752 0.43577 0.8758 0.0
N242 N 0.41454 0.46017 0.77897 0.0
C243 C 0.3573 0.42164 0.67999 0.0
C244 C 0.3752 0.40263 0.87713 0.0
C245 C 0.38901 0.45453 0.68339 0.0
C246 C 0.35043 0.39544 0.77725 0.0
C247 C 0.42726 0.41726 0.07276 0.0
C248 C 0.43332 0.44333 0.97317 0.0
C249 C 0.39397 0.38559 0.07576 0.0
C250 C 0.36831 0.37798 0.97797 0.0
Eu251 Eu 0.46214 0.52037 0.802 0.0
N252 N 0.46365 0.47626 0.97154 0.0
C253 C 0.45425 0.42429 0.16792 0.0
C254 C 0.48709 0.48543 0.0692 0.0
C255 C 0.48445 0.45833 0.1661 0.0
H256 H 0.391 0.47743 0.61318 0.0
H257 H 0.50402 0.4652 0.24188 0.0
H258 H 0.65413 0.52819 0.83144 0.0
H259 H 0.53445 0.59409 0.23589 0.0
H260 H 0.50629 0.51456 0.07713 0.0
H261 H 0.45028 0.40507 0.24578 0.0
H262 H 0.52906 0.53531 0.37925 0.0
H263 H 0.33724 0.41749 0.60373 0.0
H264 H 0.38794 0.3666 0.15354 0.0
H265 H 0.34323 0.35289 0.98118 0.0
H266 H 0.71656 0.57839 0.85434 0.0
H267 H 0.32536 0.37034 0.7751 0.0
H268 H 0.59243 0.65009 0.25385 0.0
N269 N 0.63226 0.55719 0.67446 0.0
C270 C 0.64072 0.58714 0.59008 0.0
C271 C 0.69524 0.58149 0.78021 0.0
C272 C 0.67638 0.61633 0.59947 0.0
C273 C 0.65932 0.5535 0.76777 0.0
C274 C 0.70376 0.61311 0.6959 0.0
N275 N 0.57889 0.56071 0.48803 0.0
C276 C 0.55252 0.56078 0.39298 0.0
C277 C 0.61942 0.62182 0.40982 0.0
C278 C 0.61302 0.5893 0.49501 0.0
C279 C 0.58942 0.62478 0.31907 0.0
C280 C 0.55638 0.59353 0.30926 0.0
H281 H 0.73164 0.63475 0.70582 0.0
H282 H 0.71078 0.67047 0.51873 0.0
H283 H 0.66038 0.67582 0.35391 0.0
O284 O 0.59917 0.47587 0.48912 0.0
O285 O 0.5552 0.58033 0.68389 0.0
O286 O 0.48015 0.58094 0.68881 0.0
O287 O 0.63483 0.47357 0.64915 0.0
O288 O 0.5099 0.48675 0.5373 0.0
O289 O 0.45571 0.53118 0.60768 0.0
O290 O 0.4258 0.55537 0.93656 0.0
O291 O 0.48348 0.45104 0.7494 0.0
O292 O 0.55707 0.45274 0.76904 0.0
O293 O 0.39327 0.53593 0.7808 0.0
O294 O 0.52375 0.54832 0.90102 0.0
O295 O 0.57767 0.50234 0.83719 0.0
C296 C 0.51795 0.60067 0.66501 0.0
C297 C 0.62446 0.40853 0.55106 0.0
C298 C 0.57497 0.3476 0.5289 0.0
C299 C 0.61062 0.3189 0.53066 0.0
C300 C 0.66027 0.38026 0.55491 0.0
C301 C 0.6531 0.33517 0.5477 0.0
C302 C 0.582 0.39158 0.54744 0.0
C303 C 0.47101 0.50596 0.52524 0.0
C304 C 0.62917 0.45585 0.54861 0.0
C305 C 0.68351 0.64787 0.51298 0.0
C306 C 0.6549 0.65083 0.41894 0.0
C307 C 0.51973 0.43169 0.78235 0.0
C308 C 0.37106 0.60045 0.85975 0.0
C309 C 0.38486 0.67771 0.84614 0.0
C310 C 0.33955 0.68544 0.84055 0.0
C311 C 0.32583 0.60754 0.85382 0.0
C312 C 0.39985 0.63497 0.84658 0.0
C313 C 0.31016 0.65015 0.8411 0.0
C314 C 0.56307 0.53004 0.91468 0.0
C315 C 0.38979 0.55743 0.87607 0.0
H316 H 0.60592 0.28464 0.51158 0.0
H317 H 0.69333 0.39294 0.56101 0.0
H318 H 0.68062 0.31309 0.54821 0.0
H319 H 0.5541 0.41325 0.54391 0.0
H320 H 0.32706 0.71841 0.84223 0.0
H321 H 0.30297 0.5805 0.85987 0.0
H322 H 0.43463 0.62835 0.85132 0.0
H323 H 0.27526 0.65595 0.83765 0.0
Eu324 Eu 0.0241 0.58196 0.63405 0.0
C325 C 0.08041 0.40392 0.84464 0.0
N326 N 0.0516 0.41378 0.75889 0.0
C327 C 0.07202 0.34892 0.65609 0.0
C328 C 0.10731 0.36671 0.83668 0.0
C329 C 0.04686 0.38664 0.66583 0.0
C330 C 0.10254 0.33899 0.74141 0.0
C331 C 0.11648 0.42443 1.02364 0.0
C332 C 0.08388 0.43167 0.93967 0.0
C333 C 0.14326 0.38749 1.01565 0.0
C334 C 0.13823 0.35838 0.92342 0.0
Eu335 Eu 1.00602 0.47489 0.79383 0.0
N336 N 0.0576 0.46744 0.94565 0.0
C337 C 0.12239 0.45551 0.11074 0.0
C338 C 0.06043 0.49517 0.03771 0.0
C339 C 0.09356 0.49041 0.11954 0.0
H340 H 0.02189 0.39254 0.60213 0.0
H341 H 0.09664 0.5135 0.18988 0.0
H342 H 0.97881 0.65708 0.81035 0.0
H343 H 0.97265 0.52959 0.19842 0.0
H344 H 0.03761 0.5212 0.04899 0.0
H345 H 0.14853 0.45233 0.17324 0.0
H346 H 0.02431 0.53723 0.35789 0.0
H347 H 0.06729 0.32713 0.58376 0.0
H348 H 0.16812 0.38127 0.08014 0.0
H349 H 0.15903 0.32991 0.91874 0.0
H350 H 0.92067 0.71242 0.80288 0.0
H351 H 0.12208 0.30976 0.73322 0.0
H352 H 0.90597 0.57463 0.19472 0.0
N353 N 0.96543 0.63191 0.64266 0.0
C354 C 0.94139 0.63574 0.54418 0.0
C355 C 0.92588 0.69086 0.73001 0.0
C356 C 0.9079 0.66718 0.53629 0.0
C357 C 0.95824 0.65892 0.73495 0.0
C358 C 0.9007 0.69513 0.63016 0.0
N359 N 0.98247 0.57761 0.46029 0.0
C360 C 0.99333 0.55343 0.36503 0.0
C361 C 0.9208 0.60699 0.35644 0.0
C362 C 0.9486 0.60644 0.4537 0.0
C363 C 0.92768 0.57647 0.2685 0.0
C364 C 0.96494 0.55057 0.27095 0.0
H365 H 0.87541 0.71973 0.62696 0.0
H366 H 0.8559 0.69275 0.42941 0.0
H367 H 0.86694 0.64008 0.2727 0.0
O368 O 0.07101 0.61007 0.50985 0.0
O369 O 0.95172 0.56595 0.68476 0.0
O370 O 0.94836 0.49237 0.67124 0.0
O371 O 0.03844 0.65138 0.63233 0.0
O372 O 0.05045 0.51842 0.5426 0.0
O373 O 0.99816 0.46967 0.59845 0.0
O374 O 0.96319 0.45659 0.93723 0.0
O375 O 0.07997 0.49267 0.76737 0.0
O376 O 0.0815 0.56713 0.75971 0.0
O377 O 0.97587 0.40992 0.79813 0.0
O378 O 0.98432 0.53765 0.89704 0.0
O379 O 0.03092 0.591 0.82916 0.0
C380 C 0.92888 0.53052 0.66024 0.0
C381 C 0.10849 0.67292 0.58134 0.0
C382 C 0.18757 0.67435 0.59524 0.0
C383 C 0.18659 0.71927 0.61762 0.0
C384 C 0.10743 0.71786 0.6044 0.0
C385 C 0.14638 0.74075 0.6243 0.0
C386 C 0.1483 0.65119 0.58266 0.0
C387 C 0.0288 0.4812 0.52471 0.0
C388 C 0.06813 0.64926 0.55315 0.0
C389 C 0.88168 0.6688 0.43712 0.0
C390 C 0.88773 0.63849 0.34833 0.0
C391 C 0.101 0.52988 0.78569 0.0
C392 C 0.92913 0.38491 0.95459 0.0
C393 C 0.86446 0.3848 0.07338 0.0
C394 C 0.84865 0.34773 1.01567 0.0
C395 C 0.91442 0.34723 0.89729 0.0
C396 C 0.90741 0.39871 0.05328 0.0
C397 C 0.87494 0.3275 0.93187 0.0
C398 C 1.00388 0.57638 0.90938 0.0
C399 C 0.95691 0.41736 0.89636 0.0
H400 H 0.21673 0.73787 0.62338 0.0
H401 H 0.07667 0.73531 0.60476 0.0
H402 H 0.14543 0.77554 0.63882 0.0
H403 H 0.14908 0.61671 0.56204 0.0
H404 H 0.81537 0.33649 1.0296 0.0
H405 H 0.93131 0.33522 0.82111 0.0
H406 H 0.91969 0.42754 0.097 0.0
H407 H 0.86267 0.29938 0.88553 0.0
C408 C 0.16934 0.02174 0.31921 0.0
C409 C 0.18012 0.06516 0.28999 0.0
H410 H 0.12866 0.97846 0.42208 0.0
C411 C 0.15272 0.0979 0.33797 0.0
H412 H 0.1897 0.9954 0.28812 0.0
C413 C 0.11757 0.08831 0.41376 0.0
C414 C 0.1083 0.04539 0.44752 0.0
H415 H 0.15954 0.13193 0.32045 0.0
H416 H 0.09914 0.11497 0.45095 0.0
C417 C 0.13437 1.0121 0.39745 0.0
C418 C 0.51397 0.13376 0.26886 0.0
C419 C 0.52731 0.17762 0.28113 0.0
H420 H 0.50751 0.07028 0.34847 0.0
C421 C 0.54859 0.18822 0.38596 0.0
H422 H 0.49756 0.12374 0.19037 0.0
C423 C 0.55266 0.1575 0.47732 0.0
C424 C 0.53411 0.1154 0.47096 0.0
H425 H 0.55905 0.22151 0.40116 0.0
H426 H 0.56889 0.16749 0.5547 0.0
C427 C 0.51782 0.10336 0.36148 0.0
C428 C 0.3795 0.46609 0.31841 0.0
C429 C 0.37181 0.50275 0.24651 0.0
H430 H 0.41828 0.43633 0.45326 0.0
C431 C 0.403 0.53699 0.25551 0.0
H432 H 0.35597 0.43957 0.31944 0.0
C433 C 0.43651 0.53685 0.34052 0.0
C434 C 0.44281 0.50114 0.41604 0.0
H435 H 0.39779 0.56683 0.20725 0.0
H436 H 0.45589 0.56616 0.35164 0.0
C437 C 0.4149 0.4648 0.39858 0.0
C438 C 0.0891 0.40328 0.31424 0.0
C439 C 0.055 0.3807 0.25559 0.0
H440 H 0.10856 0.45253 0.43778 0.0
C441 C 1.01213 0.39547 0.27961 0.0
H442 H 0.12246 0.39195 0.30474 0.0
C443 C 1.00396 0.42932 0.36158 0.0
C444 C 0.03825 0.4508 0.42184 0.0
H445 H 0.98448 0.37819 0.24303 0.0
H446 H 0.97031 0.43747 0.38162 0.0
C447 C 0.08111 0.438 0.39285 0.0
C448 C 0.88597 0.02261 0.15348 0.0
C449 C 0.87806 0.97887 0.18653 0.0
H450 H 0.92235 0.06737 0.04358 0.0
C451 C 0.90559 0.94736 0.13282 0.0
H452 H 0.86544 0.04823 0.18778 0.0
C453 C 0.93861 0.95832 0.05197 0.0
C454 C 0.9454 1.00143 1.01659 0.0
H455 H 0.90206 0.91313 0.1523 0.0
H456 H 0.95778 0.93242 1.01353 0.0
C457 C 0.91861 0.03358 0.06924 0.0
C458 C 0.506 0.88163 0.14167 0.0
C459 C 0.54546 0.85997 0.16941 0.0
H460 H 0.47299 0.92986 0.0376 0.0
C461 C 0.58353 0.87542 0.11132 0.0
H462 H 0.47538 0.86956 0.17729 0.0
C463 C 0.58204 0.91011 1.02915 0.0
C464 C 0.5423 0.93076 1.00032 0.0
H465 H 0.61419 0.85844 0.12315 0.0
H466 H 0.61199 0.92005 0.9858 0.0
C467 C 0.50441 0.91571 0.05834 0.0
C468 C 0.64172 0.50826 0.17197 0.0
C469 C 0.66213 0.54908 0.19082 0.0
H470 H 0.59543 0.47028 0.07237 0.0
C471 C 0.64564 0.58432 0.12429 0.0
H472 H 0.65446 0.4796 0.21484 0.0
C473 C 0.6109 0.57922 0.04351 0.0
C474 C 0.59206 0.53807 1.02097 0.0
H475 H 0.66152 0.61588 0.13011 0.0
H476 H 0.60112 0.60707 0.99219 0.0
C477 C 0.6079 0.50283 0.08833 0.0
C478 C 0.02544 0.65358 0.16979 0.0
C479 C 0.98514 0.67548 0.18514 0.0
H480 H 0.06317 0.60656 0.0723 0.0
C481 C 0.9499 0.65968 0.11666 0.0
H482 H 0.05423 0.66562 0.21407 0.0
C483 C 0.95499 0.62541 1.03481 0.0
C484 C 0.99588 0.60559 1.015 0.0
H485 H 0.91891 0.67666 0.11906 0.0
H486 H 0.9274 0.61658 0.98102 0.0
C487 C 0.03081 0.61993 0.08586 0.0
C488 C 0.04725 0.23643 0.50391 0.0
C489 C 0.03418 0.25343 0.39731 0.0
H490 H 0.02495 0.21037 0.66576 0.0
C491 C 0.99056 0.26628 0.38091 0.0
H492 H 0.08118 0.22826 0.51941 0.0
C493 C 0.95931 0.25816 0.46546 0.0
C494 C 0.97102 0.23597 0.5664 0.0
H495 H 0.98039 0.28129 0.30033 0.0
H496 H 0.92529 0.26442 0.44542 0.0
C497 C 1.01555 0.22773 0.5886 0.0
C498 C 0.35739 0.15963 0.3269 0.0
C499 C 0.31791 0.13968 0.36048 0.0
H500 H 0.4237 0.14472 0.2851 0.0
C501 C 0.32035 0.10989 0.45338 0.0
H502 H 0.35717 0.1866 0.26615 0.0
C503 C 0.35756 0.08388 0.46057 0.0
C504 C 0.39309 0.0931 0.38674 0.0
H505 H 0.29085 0.09794 0.49542 0.0
H506 H 0.35544 0.05362 0.50873 0.0
C507 C 0.39545 0.13484 0.33547 0.0
C508 C 0.46617 0.29857 0.44503 0.0
C509 C 0.46821 0.30534 0.32425 0.0
H510 H 0.4982 0.31011 0.60754 0.0
C511 C 0.49915 0.33584 0.28159 0.0
H512 H 0.44155 0.27726 0.48268 0.0
C513 C 0.53314 0.34985 0.35027 0.0
C514 C 0.53527 0.33647 0.46541 0.0
H515 H 0.5008 0.3453 0.19167 0.0
H516 H 0.55906 0.36942 0.31164 0.0
C517 C 0.49947 0.31506 0.51567 0.0
C518 C 0.25046 0.58025 0.50124 0.0
C519 C 0.25567 0.59277 0.38496 0.0
H520 H 0.22679 0.59939 0.66831 0.0
C521 C 0.25246 0.63674 0.35396 0.0
H522 H 0.25455 0.54655 0.5272 0.0
C523 C 0.23867 0.66713 0.43526 0.0
C524 C 0.22641 0.65331 0.54676 0.0
H525 H 0.25855 0.64716 0.26551 0.0
H526 H 0.23158 0.69991 0.40593 0.0
C527 C 0.23611 0.61062 0.5825 0.0
C528 C 0.08191 0.78686 0.06114 0.0
C529 C 0.03868 0.79903 0.03753 0.0
H530 H 0.14808 0.78804 1.00425 0.0
C531 C 0.02702 0.81139 0.92511 0.0
H532 H 0.09078 0.77412 0.14549 0.0
C533 C 0.05988 0.81788 0.84215 0.0
C534 C 0.10418 0.81299 0.87317 0.0
H535 H 0.99321 0.81802 0.90363 0.0
H536 H 0.0514 0.83244 0.75997 0.0
C537 C 0.11439 0.79294 0.97857 0.0
C538 C 0.77686 0.96289 1.0317 0.0
C539 C 0.75107 0.93735 0.10933 0.0
H540 H 0.78622 0.02776 0.96489 0.0
C541 C 0.70588 0.94531 0.11006 0.0
H542 H 0.81079 0.95526 1.01487 0.0
C543 C 0.6913 0.98642 0.0773 0.0
C544 C 0.72147 1.0179 0.03624 0.0
H545 H 0.68373 0.92432 0.15834 0.0
H546 H 0.65788 0.99524 0.09832 0.0
C547 C 0.76324 1.00482 1.00317 0.0
C548 C 0.43829 0.73894 0.07606 0.0
C549 C 0.48214 0.73041 0.04811 0.0
H550 H 0.37168 0.73166 1.02664 0.0
C551 C 0.49342 0.71555 0.93779 0.0
H552 H 0.42948 0.75237 0.15978 0.0
C553 C 0.46046 0.70679 0.85804 0.0
C554 C 0.41603 0.70992 0.89136 0.0
H555 H 0.52737 0.71054 0.91398 0.0
H556 H 0.46938 0.69273 0.77546 0.0
C557 C 0.40539 0.72895 0.99804 0.0
C558 C 0.78996 0.47951 0.05711 0.0
C559 C 0.80646 0.50548 0.14793 0.0
H560 H 0.79384 0.41904 0.96592 0.0
C561 C 0.83805 0.4867 0.22176 0.0
H562 H 0.76643 0.49201 0.99598 0.0
C563 C 0.84966 0.44336 0.21206 0.0
C564 C 0.83512 0.41869 0.11808 0.0
H565 H 0.85412 0.5047 0.28948 0.0
H566 H 0.87448 0.43071 0.26979 0.0
C567 C 0.80435 0.43676 0.04207 0.0
C568 C 0.0753 0.21964 0.91896 0.0
C569 C 0.04134 0.2355 0.9913 0.0
H570 H 0.09805 0.17006 0.80028 0.0
C571 C 1.00188 0.21085 0.98948 0.0
H572 H 0.10681 0.23598 0.91923 0.0
C573 C 0.99726 0.17178 0.92348 0.0
C574 C 0.0321 0.15456 0.85669 0.0
H575 H 0.97524 0.22021 0.04632 0.0
H576 H 0.9668 0.15373 0.93006 0.0
C577 C 0.07066 0.18055 0.85277 0.0
C578 C 0.33079 0.07926 0.90686 0.0
C579 C 0.31944 0.05452 1.00684 0.0
H580 H 0.37787 0.09287 0.77012 0.0
C581 C 0.34852 0.02051 1.03562 0.0
H582 H 0.31078 0.1069 0.88323 0.0
C583 C 0.38781 1.01312 0.97179 0.0
C584 C 0.40033 0.03944 0.87621 0.0
H585 H 0.3427 1.00162 0.11361 0.0
H586 H 0.40953 0.98759 1.00064 0.0
C587 C 0.36993 0.07152 0.84213 0.0
C588 C 0.54584 0.33034 0.97584 0.0
C589 C 0.50624 0.30619 0.97225 0.0
H590 H 0.58123 0.38853 0.92234 0.0
C591 C 0.47375 0.32251 0.89672 0.0
H592 H 0.57137 0.32049 1.03494 0.0
C593 C 0.47994 0.36048 0.8294 0.0
C594 C 0.51769 0.38658 0.8397 0.0
H595 H 0.44238 0.30605 0.89127 0.0
H596 H 0.45403 0.37022 0.77155 0.0
C597 C 0.55132 0.36994 0.91152 0.0
C598 C 0.20897 0.49177 0.94176 0.0
C599 C 0.22437 0.53029 0.99585 0.0
H600 H 0.16096 0.46141 0.82956 0.0
C601 C 0.20178 0.56901 0.96441 0.0
H602 H 0.22453 0.46101 0.96124 0.0
C603 C 0.1637 0.56888 0.89405 0.0
C604 C 0.1461 0.53009 0.84748 0.0
H605 H 0.2123 0.59997 0.99994 0.0
H606 H 0.14704 0.59948 0.87988 0.0
C607 C 0.17129 0.4919 0.86771 0.0
C608 C 0.05135 0.84393 0.45674 0.0
C609 C 1.01211 0.81896 0.44955 0.0
H610 H 0.08569 0.89986 0.52514 0.0
C611 C 0.97853 0.83142 0.52775 0.0
H612 H 0.07835 0.83635 0.39914 0.0
C613 C 0.98295 0.86871 0.60185 0.0
C614 C 0.02085 0.89586 0.60034 0.0
H615 H 0.94749 0.81425 0.52606 0.0
H616 H 0.95565 0.87735 0.65712 0.0
C617 C 0.05558 0.88115 0.52944 0.0
C618 C 0.73431 0.98859 0.58062 0.0
C619 C 0.73737 0.99837 0.46058 0.0
H620 H 0.69443 0.98808 0.73706 0.0
C621 C 0.70049 0.01886 0.4114 0.0
H622 H 0.76073 0.97114 0.62191 0.0
C623 C 0.66192 0.02714 0.47627 0.0
C624 C 0.65805 1.01598 0.59482 0.0
H625 H 0.70013 0.02541 0.31925 0.0
H626 H 0.6341 0.0409 0.43156 0.0
C627 C 0.69574 0.99788 0.64689 0.0
C628 C 0.48402 0.69821 0.47207 0.0
C629 C 0.52373 0.72134 0.45146 0.0
H630 H 0.4511 0.6431 0.54995 0.0
C631 C 0.55994 0.70803 0.51823 0.0
H632 H 0.45512 0.70672 0.42309 0.0
C633 C 0.55725 0.67128 0.59422 0.0
C634 C 0.51876 0.64531 0.60385 0.0
H635 H 0.5913 0.72396 0.50559 0.0
H636 H 0.58633 0.66179 0.64076 0.0
C637 C 0.4817 0.661 0.54493 0.0
C638 C 0.81779 0.57979 0.55544 0.0
C639 C 0.79763 0.5456 0.49258 0.0
H640 H 0.87101 0.60117 0.66434 0.0
C641 C 0.81844 0.50445 0.50233 0.0
H642 H 0.80422 0.61228 0.55036 0.0
C643 C 0.85955 0.49905 0.55913 0.0
C644 C 0.88141 0.53421 0.61372 0.0
H645 H 0.80521 0.47702 0.45486 0.0
H646 H 0.87525 0.46753 0.55486 0.0
C647 C 0.85771 0.57382 0.61728 0.0
loop_
_geom_bond_atom_site_label_1
_geom_bond_atom_site_label_2
_geom_bond_distance
_geom_bond_site_symmetry_2
_ccdc_geom_bond_type
H0 C3 0.931 . S
H1 C6 0.928 . S
H2 C8 0.930 . S
C3 H0 0.931 . S
C3 C4 1.413 . S
C3 C5 1.360 . S
C4 C3 1.413 . S
C4 C8 1.429 . S
C5 C3 1.360 . S
C5 C6 1.372 . S
C6 H1 0.928 . S
C6 C5 1.372 . S
C6 C7 1.404 . S
C7 C6 1.404 . S
C7 C8 1.391 . S
C8 H2 0.930 . S
C8 C4 1.429 . S
C8 C7 1.391 . S
H9 C12 0.931 . S
H10 C15 0.928 . S
H11 C17 0.930 . S
C12 H9 0.931 . S
C12 C13 1.413 . S
C12 C14 1.360 . S
C13 C12 1.413 . S
C13 C17 1.429 . S
C14 C12 1.360 . S
C14 C15 1.372 . S
C15 H10 0.928 . S
C15 C14 1.372 . S
C15 C16 1.404 . S
C16 C15 1.404 . S
C16 C17 1.391 . S
C17 H11 0.930 . S
C17 C13 1.429 . S
C17 C16 1.391 . S
H18 C21 0.931 . S
H19 C24 0.928 . S
H20 C26 0.930 . S
C21 H18 0.931 . S
C21 C22 1.413 . S
C21 C23 1.360 . S
C22 C21 1.413 . S
C22 C26 1.429 . S
C23 C21 1.360 . S
C23 C24 1.372 . S
C24 H19 0.928 . S
C24 C23 1.372 . S
C24 C25 1.404 . S
C25 C24 1.404 . S
C25 C26 1.391 . S
C26 H20 0.930 . S
C26 C22 1.429 . S
C26 C25 1.391 . S
H27 C30 0.931 . S
H28 C33 0.928 . S
H29 C35 0.930 . S
C30 H27 0.931 . S
C30 C31 1.413 . S
C30 C32 1.360 . S
C31 C30 1.413 . S
C31 C35 1.429 . S
C32 C30 1.360 . S
C32 C33 1.372 . S
C33 H28 0.928 . S
C33 C32 1.372 . S
C33 C34 1.404 . S
C34 C33 1.404 . S
C34 C35 1.391 . S
C35 H29 0.930 . S
C35 C31 1.429 . S
C35 C34 1.391 . S
H36 C39 0.931 . S
H37 C42 0.928 . S
H38 C44 0.930 . S
C39 H36 0.931 . S
C39 C40 1.413 . S
C39 C41 1.360 1_556 S
C40 C39 1.413 . S
C40 C44 1.429 . S
C41 C39 1.360 1_554 S
C41 C42 1.372 . S
C42 H37 0.928 . S
C42 C41 1.372 . S
C42 C43 1.404 . S
C43 C42 1.404 . S
C43 C44 1.391 1_554 S
C44 H38 0.930 . S
C44 C40 1.429 . S
C44 C43 1.391 1_556 S
H45 C48 0.931 . S
H46 C51 0.928 . S
H47 C53 0.930 . S
C48 H45 0.931 . S
C48 C49 1.413 . S
C48 C50 1.360 1_556 S
C49 C48 1.413 . S
C49 C53 1.429 . S
C50 C48 1.360 1_554 S
C50 C51 1.372 . S
C51 H46 0.928 . S
C51 C50 1.372 . S
C51 C52 1.404 . S
C52 C51 1.404 . S
C52 C53 1.391 1_554 S
C53 H47 0.930 . S
C53 C49 1.429 . S
C53 C52 1.391 1_556 S
H54 C57 0.931 . S
H55 C60 0.928 . S
H56 C62 0.930 . S
C57 H54 0.931 . S
C57 C58 1.413 . S
C57 C59 1.360 1_556 S
C58 C57 1.413 . S
C58 C62 1.429 . S
C59 C57 1.360 1_554 S
C59 C60 1.372 . S
C60 H55 0.928 . S
C60 C59 1.372 . S
C60 C61 1.404 . S
C61 C60 1.404 . S
C61 C62 1.391 1_554 S
C62 H56 0.930 . S
C62 C58 1.429 . S
C62 C61 1.391 1_556 S
H63 C66 0.931 . S
H64 C69 0.928 . S
H65 C71 0.930 . S
C66 H63 0.931 . S
C66 C67 1.413 1_556 S
C66 C68 1.360 . S
C67 C66 1.413 1_554 S
C67 C71 1.429 . S
C68 C66 1.360 . S
C68 C69 1.372 . S
C69 H64 0.928 . S
C69 C68 1.372 . S
C69 C70 1.404 1_556 S
C70 C69 1.404 1_554 S
C70 C71 1.391 . S
C71 H65 0.930 . S
C71 C67 1.429 . S
C71 C70 1.391 . S
Eu72 N101 2.600 . S
Eu72 N107 2.562 . S
Eu72 O116 2.462 . S
Eu72 O117 2.373 1_545 S
Eu72 O119 2.432 . S
Eu72 O120 2.291 1_655 S
Eu72 O124 2.335 . S
Eu72 O127 2.372 . S
Eu72 C136 2.787 . S
C73 N74 1.365 . S
C73 C76 1.405 . S
C73 C80 1.448 1_556 S
N74 C73 1.365 . S
N74 C77 1.318 1_545 S
N74 Eu83 2.600 1_545 S
C75 C77 1.395 1_545 S
C75 C78 1.367 . S
C75 H95 0.931 . S
C76 C73 1.405 . S
C76 C78 1.403 . S
C76 C82 1.439 1_556 S
C77 N74 1.318 1_565 S
C77 C75 1.395 1_565 S
C77 H88 0.933 . S
C78 C75 1.367 . S
C78 C76 1.403 . S
C78 H99 0.929 . S
C79 C80 1.430 . S
C79 C81 1.387 . S
C79 C85 1.404 . S
C80 C73 1.448 1_554 S
C80 C79 1.430 . S
C80 N84 1.351 1_554 S
C81 C79 1.387 . S
C81 C82 1.374 . S
C81 H96 0.931 . S
C82 C76 1.439 1_554 S
C82 C81 1.374 . S
C82 H97 0.931 . S
Eu83 N74 2.600 1_565 S
Eu83 N84 2.562 1_565 S
Eu83 O118 2.335 . S
Eu83 O121 2.372 . S
Eu83 O122 2.462 . S
Eu83 O123 2.373 1_565 S
Eu83 O125 2.432 . S
Eu83 O126 2.290 1_455 S
Eu83 C147 2.787 . S
N84 C80 1.351 1_556 S
N84 Eu83 2.562 1_545 S
N84 C86 1.325 1_556 S
C85 C79 1.404 . S
C85 C87 1.366 . S
C85 H93 0.930 . S
C86 N84 1.325 1_554 S
C86 C87 1.416 . S
C86 H92 0.929 . S
C87 C85 1.366 . S
C87 C86 1.416 . S
C87 H89 0.930 . S
H88 C77 0.933 . S
H89 C87 0.930 . S
H90 C105 0.930 . S
H91 C112 0.930 . S
H92 C86 0.929 . S
H93 C85 0.930 . S
H94 C108 0.929 1_445 S
H95 C75 0.931 . S
H96 C81 0.931 . S
H97 C82 0.931 . S
H98 C103 0.928 1_545 S
H99 C78 0.929 . S
H100 C111 0.930 . S
N101 Eu72 2.600 . S
N101 C102 1.365 1_545 S
N101 C105 1.319 . S
C102 N101 1.365 1_565 S
C102 C104 1.405 . S
C102 C110 1.448 . S
C103 H98 0.928 1_565 S
C103 C105 1.390 1_565 S
C103 C106 1.378 . S
C104 C102 1.405 . S
C104 C106 1.403 . S
C104 C137 1.439 . S
C105 H90 0.930 . S
C105 N101 1.319 . S
C105 C103 1.390 1_545 S
C106 C103 1.378 . S
C106 C104 1.403 . S
C106 H113 0.929 . S
N107 Eu72 2.562 . S
N107 C108 1.325 1_545 S
N107 C110 1.351 1_545 S
C108 H94 0.929 1_665 S
C108 N107 1.325 1_565 S
C108 C112 1.416 . S
C109 C110 1.430 . S
C109 C111 1.404 . S
C109 C138 1.387 . S
C110 C102 1.448 . S
C110 N107 1.351 1_565 S
C110 C109 1.430 . S
C111 H100 0.930 . S
C111 C109 1.404 . S
C111 C112 1.366 . S
C112 H91 0.930 . S
C112 C108 1.416 . S
C112 C111 1.366 . S
H113 C106 0.929 . S
H114 C137 0.931 . S
H115 C138 0.931 . S
O116 Eu72 2.462 . S
O116 C136 1.252 . S
O117 Eu72 2.373 1_565 S
O117 C128 1.249 . S
O118 Eu83 2.335 . S
O118 C128 1.264 1_455 S
O119 Eu72 2.432 . S
O119 C136 1.268 . S
O120 Eu72 2.291 1_455 S
O120 C135 1.255 . S
O121 Eu83 2.372 . S
O121 C135 1.257 1_565 S
O122 Eu83 2.462 . S
O122 C147 1.252 . S
O123 Eu83 2.373 1_545 S
O123 C139 1.249 . S
O124 Eu72 2.335 . S
O124 C139 1.264 1_655 S
O125 Eu83 2.432 . S
O125 C147 1.268 . S
O126 Eu83 2.290 1_655 S
O126 C146 1.256 1_565 S
O127 Eu72 2.372 . S
O127 C146 1.257 . S
C128 O117 1.249 . S
C128 O118 1.264 1_655 S
C129 C132 1.382 . S
C129 C134 1.390 . S
C129 C136 1.506 . S
C130 C131 1.398 . S
C130 C134 1.392 . S
C131 C130 1.398 . S
C131 C133 1.372 . S
C131 H148 0.931 . S
C132 C129 1.382 . S
C132 C133 1.390 . S
C132 H149 0.931 . S
C133 C131 1.372 . S
C133 C132 1.390 . S
C133 H150 0.929 . S
C134 C129 1.390 . S
C134 C130 1.392 . S
C134 H151 0.930 . S
C135 O120 1.255 . S
C135 O121 1.257 1_545 S
C136 Eu72 2.787 . S
C136 O116 1.252 . S
C136 O119 1.268 . S
C136 C129 1.506 . S
C137 C104 1.439 . S
C137 H114 0.931 . S
C137 C138 1.374 . S
C138 C109 1.387 . S
C138 H115 0.931 . S
C138 C137 1.374 . S
C139 O123 1.249 . S
C139 O124 1.264 1_455 S
C140 C143 1.382 . S
C140 C144 1.390 1_556 S
C140 C147 1.506 . S
C141 C142 1.398 . S
C141 C144 1.392 . S
C142 C141 1.398 . S
C142 C145 1.372 . S
C142 H152 0.931 . S
C143 C140 1.382 . S
C143 C145 1.390 1_556 S
C143 H153 0.931 . S
C144 C140 1.390 1_554 S
C144 C141 1.392 . S
C144 H154 0.930 . S
C145 C142 1.372 . S
C145 C143 1.390 1_554 S
C145 H155 0.929 1_554 S
C146 O126 1.256 1_545 S
C146 O127 1.257 . S
C147 Eu83 2.787 . S
C147 O122 1.252 . S
C147 O125 1.268 . S
C147 C140 1.506 . S
H148 C131 0.931 . S
H149 C132 0.931 . S
H150 C133 0.929 . S
H151 C134 0.930 . S
H152 C142 0.931 . S
H153 C143 0.931 . S
H154 C144 0.930 . S
H155 C145 0.929 1_556 S
Eu156 N185 2.600 . S
Eu156 N191 2.562 . S
Eu156 O200 2.462 . S
Eu156 O201 2.373 . S
Eu156 O203 2.432 . S
Eu156 O204 2.291 . S
Eu156 O208 2.335 1_545 S
Eu156 O211 2.372 . S
Eu156 C220 2.787 . S
C157 N158 1.365 . S
C157 C160 1.405 . S
C157 C164 1.448 . S
N158 C157 1.365 . S
N158 C161 1.319 . S
N158 Eu167 2.600 . S
C159 C161 1.397 . S
C159 C162 1.367 . S
C159 H179 0.931 . S
C160 C157 1.405 . S
C160 C162 1.403 . S
C160 C166 1.439 . S
C161 N158 1.319 . S
C161 C159 1.397 . S
C161 H172 0.930 . S
C162 C159 1.367 . S
C162 C160 1.403 . S
C162 H183 0.929 . S
C163 C164 1.430 . S
C163 C165 1.387 . S
C163 C169 1.404 . S
C164 C157 1.448 . S
C164 C163 1.430 . S
C164 N168 1.351 . S
C165 C163 1.387 . S
C165 C166 1.374 . S
C165 H180 0.931 . S
C166 C160 1.439 . S
C166 C165 1.374 . S
C166 H181 0.931 . S
Eu167 N158 2.600 . S
Eu167 N168 2.562 . S
Eu167 O202 2.335 1_565 S
Eu167 O205 2.372 . S
Eu167 O206 2.462 . S
Eu167 O207 2.373 . S
Eu167 O209 2.432 . S
Eu167 O210 2.291 . S
Eu167 C231 2.787 . S
N168 C164 1.351 . S
N168 Eu167 2.562 . S
N168 C170 1.325 . S
C169 C163 1.404 . S
C169 C171 1.366 . S
C169 H177 0.930 . S
C170 N168 1.325 . S
C170 C171 1.416 . S
C170 H176 0.929 . S
C171 C169 1.366 . S
C171 C170 1.416 . S
C171 H173 0.930 . S
H172 C161 0.930 . S
H173 C171 0.930 . S
H174 C189 0.930 . S
H175 C196 0.930 . S
H176 C170 0.929 . S
H177 C169 0.930 . S
H178 C192 0.929 . S
H179 C159 0.931 . S
H180 C165 0.931 . S
H181 C166 0.931 . S
H182 C187 0.931 . S
H183 C162 0.929 . S
H184 C195 0.930 . S
N185 Eu156 2.600 . S
N185 C186 1.365 . S
N185 C189 1.319 . S
C186 N185 1.365 . S
C186 C188 1.405 . S
C186 C194 1.448 . S
C187 H182 0.931 . S
C187 C189 1.397 . S
C187 C190 1.367 . S
C188 C186 1.405 . S
C188 C190 1.403 . S
C188 C221 1.439 . S
C189 H174 0.930 . S
C189 N185 1.319 . S
C189 C187 1.397 . S
C190 C187 1.367 . S
C190 C188 1.403 . S
C190 H197 0.929 . S
N191 Eu156 2.562 . S
N191 C192 1.325 . S
N191 C194 1.351 . S
C192 H178 0.929 . S
C192 N191 1.325 . S
C192 C196 1.416 . S
C193 C194 1.430 . S
C193 C195 1.404 . S
C193 C222 1.387 . S
C194 C186 1.448 . S
C194 N191 1.351 . S
C194 C193 1.430 . S
C195 H184 0.930 . S
C195 C193 1.404 . S
C195 C196 1.366 . S
C196 H175 0.930 . S
C196 C192 1.416 . S
C196 C195 1.366 . S
H197 C190 0.929 . S
H198 C221 0.931 . S
H199 C222 0.931 . S
O200 Eu156 2.462 . S
O200 C220 1.252 . S
O201 Eu156 2.373 . S
O201 C212 1.249 . S
O202 Eu167 2.335 1_545 S
O202 C212 1.264 . S
O203 Eu156 2.432 . S
O203 C220 1.268 . S
O204 Eu156 2.291 . S
O204 C219 1.255 1_545 S
O205 Eu167 2.372 . S
O205 C219 1.257 . S
O206 Eu167 2.462 . S
O206 C231 1.252 . S
O207 Eu167 2.373 . S
O207 C223 1.249 . S
O208 Eu156 2.335 1_565 S
O208 C223 1.264 . S
O209 Eu167 2.432 . S
O209 C231 1.268 . S
O210 Eu167 2.291 . S
O210 C230 1.255 1_565 S
O211 Eu156 2.372 . S
O211 C230 1.257 . S
C212 O201 1.249 . S
C212 O202 1.264 . S
C213 C216 1.382 . S
C213 C218 1.390 . S
C213 C220 1.506 1_554 S
C214 C215 1.398 . S
C214 C218 1.392 . S
C215 C214 1.398 . S
C215 C217 1.372 . S
C215 H232 0.931 . S
C216 C213 1.382 . S
C216 C217 1.390 . S
C216 H233 0.931 . S
C217 C215 1.372 . S
C217 C216 1.390 . S
C217 H234 0.929 . S
C218 C213 1.390 . S
C218 C214 1.392 . S
C218 H235 0.936 . S
C219 O204 1.255 1_565 S
C219 O205 1.257 . S
C220 Eu156 2.787 . S
C220 O200 1.252 . S
C220 O203 1.268 . S
C220 C213 1.506 1_556 S
C221 C188 1.439 . S
C221 H198 0.931 . S
C221 C222 1.374 . S
C222 C193 1.387 . S
C222 H199 0.931 . S
C222 C221 1.374 . S
C223 O207 1.249 . S
C223 O208 1.264 . S
C224 C227 1.382 . S
C224 C228 1.390 . S
C224 C231 1.506 . S
C225 C226 1.398 . S
C225 C228 1.392 . S
C226 C225 1.398 . S
C226 C229 1.372 . S
C226 H236 0.931 . S
C227 C224 1.382 . S
C227 C229 1.390 . S
C227 H237 0.931 . S
C228 C224 1.390 . S
C228 C225 1.392 . S
C228 H238 0.930 . S
C229 C226 1.372 . S
C229 C227 1.390 . S
C229 H239 0.929 . S
C230 O210 1.255 1_545 S
C230 O211 1.257 . S
C231 Eu167 2.787 . S
C231 O206 1.252 . S
C231 O209 1.268 . S
C231 C224 1.506 . S
H232 C215 0.931 . S
H233 C216 0.931 . S
H234 C217 0.929 . S
H235 C218 0.936 . S
H236 C226 0.931 . S
H237 C227 0.931 . S
H238 C228 0.930 . S
H239 C229 0.929 . S
Eu240 N269 2.600 . S
Eu240 N275 2.562 . S
Eu240 O284 2.462 . S
Eu240 O285 2.373 . S
Eu240 O287 2.432 . S
Eu240 O288 2.291 . S
Eu240 O292 2.335 . S
Eu240 O295 2.372 . S
Eu240 C304 2.787 . S
C241 N242 1.365 . S
C241 C244 1.405 . S
C241 C248 1.448 1_556 S
N242 C241 1.365 . S
N242 C245 1.319 . S
N242 Eu251 2.600 . S
C243 C245 1.397 . S
C243 C246 1.367 . S
C243 H263 0.931 . S
C244 C241 1.405 . S
C244 C246 1.403 . S
C244 C250 1.439 1_556 S
C245 N242 1.319 . S
C245 C243 1.397 . S
C245 H256 0.930 . S
C246 C243 1.367 . S
C246 C244 1.403 . S
C246 H267 0.929 . S
C247 C248 1.430 . S
C247 C249 1.387 . S
C247 C253 1.404 . S
C248 C241 1.448 1_554 S
C248 C247 1.430 . S
C248 N252 1.351 1_554 S
C249 C247 1.387 . S
C249 C250 1.374 . S
C249 H264 0.931 . S
C250 C244 1.439 1_554 S
C250 C249 1.374 . S
C250 H265 0.931 . S
Eu251 N242 2.600 . S
Eu251 N252 2.562 . S
Eu251 O286 2.335 . S
Eu251 O289 2.372 . S
Eu251 O290 2.462 . S
Eu251 O291 2.373 . S
Eu251 O293 2.432 . S
Eu251 O294 2.291 . S
Eu251 C315 2.787 . S
N252 C248 1.351 1_556 S
N252 Eu251 2.562 . S
N252 C254 1.325 1_556 S
C253 C247 1.404 . S
C253 C255 1.366 . S
C253 H261 0.930 . S
C254 N252 1.325 1_554 S
C254 C255 1.416 . S
C254 H260 0.929 . S
C255 C253 1.366 . S
C255 C254 1.416 . S
C255 H257 0.930 . S
H256 C245 0.930 . S
H257 C255 0.930 . S
H258 C273 0.930 . S
H259 C280 0.930 . S
H260 C254 0.929 . S
H261 C253 0.930 . S
H262 C276 0.929 . S
H263 C243 0.931 . S
H264 C249 0.931 . S
H265 C250 0.931 . S
H266 C271 0.931 . S
H267 C246 0.929 . S
H268 C279 0.930 . S
N269 Eu240 2.600 . S
N269 C270 1.365 . S
N269 C273 1.319 . S
C270 N269 1.365 . S
C270 C272 1.405 . S
C270 C278 1.448 . S
C271 H266 0.931 . S
C271 C273 1.397 . S
C271 C274 1.367 . S
C272 C270 1.405 . S
C272 C274 1.403 . S
C272 C305 1.439 . S
C273 H258 0.930 . S
C273 N269 1.319 . S
C273 C271 1.397 . S
C274 C271 1.367 . S
C274 C272 1.403 . S
C274 H281 0.929 . S
N275 Eu240 2.562 . S
N275 C276 1.325 . S
N275 C278 1.351 . S
C276 H262 0.929 . S
C276 N275 1.325 . S
C276 C280 1.416 . S
C277 C278 1.430 . S
C277 C279 1.404 . S
C277 C306 1.387 . S
C278 C270 1.448 . S
C278 N275 1.351 . S
C278 C277 1.430 . S
C279 H268 0.930 . S
C279 C277 1.404 . S
C279 C280 1.366 . S
C280 H259 0.930 . S
C280 C276 1.416 . S
C280 C279 1.366 . S
H281 C274 0.929 . S
H282 C305 0.931 . S
H283 C306 0.931 . S
O284 Eu240 2.462 . S
O284 C304 1.252 . S
O285 Eu240 2.373 . S
O285 C296 1.249 . S
O286 Eu251 2.335 . S
O286 C296 1.264 . S
O287 Eu240 2.432 . S
O287 C304 1.268 . S
O288 Eu240 2.291 . S
O288 C303 1.255 . S
O289 Eu251 2.372 . S
O289 C303 1.257 . S
O290 Eu251 2.462 . S
O290 C315 1.252 . S
O291 Eu251 2.373 . S
O291 C307 1.249 . S
O292 Eu240 2.335 . S
O292 C307 1.264 . S
O293 Eu251 2.432 . S
O293 C315 1.268 . S
O294 Eu251 2.291 . S
O294 C314 1.255 . S
O295 Eu240 2.372 . S
O295 C314 1.257 . S
C296 O285 1.249 . S
C296 O286 1.264 . S
C297 C300 1.382 . S
C297 C302 1.390 . S
C297 C304 1.506 . S
C298 C299 1.398 . S
C298 C302 1.392 . S
C299 C298 1.398 . S
C299 C301 1.372 . S
C299 H316 0.931 . S
C300 C297 1.382 . S
C300 C301 1.390 . S
C300 H317 0.931 . S
C301 C299 1.372 . S
C301 C300 1.390 . S
C301 H318 0.929 . S
C302 C297 1.390 . S
C302 C298 1.392 . S
C302 H319 0.930 . S
C303 O288 1.255 . S
C303 O289 1.257 . S
C304 Eu240 2.787 . S
C304 O284 1.252 . S
C304 O287 1.268 . S
C304 C297 1.506 . S
C305 C272 1.439 . S
C305 H282 0.931 . S
C305 C306 1.374 . S
C306 C277 1.387 . S
C306 H283 0.931 . S
C306 C305 1.374 . S
C307 O291 1.249 . S
C307 O292 1.264 . S
C308 C311 1.382 . S
C308 C312 1.390 1_556 S
C308 C315 1.506 . S
C309 C310 1.398 . S
C309 C312 1.392 . S
C310 C309 1.398 . S
C310 C313 1.372 . S
C310 H320 0.931 . S
C311 C308 1.382 . S
C311 C313 1.390 1_556 S
C311 H321 0.931 . S
C312 C308 1.390 1_554 S
C312 C309 1.392 . S
C312 H322 0.930 . S
C313 C310 1.372 . S
C313 C311 1.390 1_554 S
C313 H323 0.929 1_554 S
C314 O294 1.255 . S
C314 O295 1.257 . S
C315 Eu251 2.787 . S
C315 O290 1.252 . S
C315 O293 1.268 . S
C315 C308 1.506 . S
H316 C299 0.931 . S
H317 C300 0.931 . S
H318 C301 0.929 . S
H319 C302 0.930 . S
H320 C310 0.931 . S
H321 C311 0.931 . S
H322 C312 0.930 . S
H323 C313 0.929 1_556 S
Eu324 N353 2.600 . S
Eu324 N359 2.562 . S
Eu324 O368 2.462 . S
Eu324 O369 2.373 1_455 S
Eu324 O371 2.432 . S
Eu324 O372 2.291 . S
Eu324 O376 2.335 . S
Eu324 O379 2.372 . S
Eu324 C388 2.787 . S
C325 N326 1.366 . S
C325 C328 1.405 . S
C325 C332 1.448 1_556 S
N326 C325 1.366 . S
N326 C329 1.319 1_455 S
N326 Eu335 2.600 1_455 S
C327 C329 1.397 1_455 S
C327 C330 1.367 . S
C327 H347 0.931 . S
C328 C325 1.405 . S
C328 C330 1.403 . S
C328 C334 1.439 1_556 S
C329 N326 1.319 1_655 S
C329 C327 1.397 1_655 S
C329 H340 0.930 . S
C330 C327 1.367 . S
C330 C328 1.403 . S
C330 H351 0.929 . S
C331 C332 1.430 . S
C331 C333 1.387 . S
C331 C337 1.404 . S
C332 C325 1.448 1_554 S
C332 C331 1.430 . S
C332 N336 1.351 1_554 S
C333 C331 1.387 . S
C333 C334 1.374 . S
C333 H348 0.931 . S
C334 C328 1.439 1_554 S
C334 C333 1.374 . S
C334 H349 0.931 . S
Eu335 N326 2.600 1_655 S
Eu335 N336 2.562 1_655 S
Eu335 O370 2.335 . S
Eu335 O373 2.372 . S
Eu335 O374 2.462 . S
Eu335 O375 2.373 1_655 S
Eu335 O377 2.432 . S
Eu335 O378 2.291 . S
Eu335 C399 2.787 . S
N336 C332 1.351 1_556 S
N336 Eu335 2.562 1_455 S
N336 C338 1.325 1_556 S
C337 C331 1.404 . S
C337 C339 1.366 . S
C337 H345 0.930 . S
C338 N336 1.325 1_554 S
C338 C339 1.416 . S
C338 H344 0.929 . S
C339 C337 1.366 . S
C339 C338 1.416 . S
C339 H341 0.930 . S
H340 C329 0.930 . S
H341 C339 0.930 . S
H342 C357 0.930 . S
H343 C364 0.930 . S
H344 C338 0.929 . S
H345 C337 0.930 . S
H346 C360 0.929 1_455 S
H347 C327 0.931 . S
H348 C333 0.931 . S
H349 C334 0.931 . S
H350 C355 0.931 1_455 S
H351 C330 0.929 . S
H352 C363 0.930 . S
N353 Eu324 2.600 . S
N353 C354 1.365 1_455 S
N353 C357 1.319 . S
C354 N353 1.365 1_655 S
C354 C356 1.405 . S
C354 C362 1.448 . S
C355 H350 0.931 1_655 S
C355 C357 1.397 1_655 S
C355 C358 1.367 . S
C356 C354 1.405 . S
C356 C358 1.403 . S
C356 C389 1.439 . S
C357 H342 0.930 . S
C357 N353 1.319 . S
C357 C355 1.397 1_455 S
C358 C355 1.367 . S
C358 C356 1.403 . S
C358 H365 0.929 . S
N359 Eu324 2.562 . S
N359 C360 1.325 1_455 S
N359 C362 1.351 1_455 S
C360 H346 0.929 1_655 S
C360 N359 1.325 1_655 S
C360 C364 1.416 . S
C361 C362 1.430 . S
C361 C363 1.404 . S
C361 C390 1.387 . S
C362 C354 1.448 . S
C362 N359 1.351 1_655 S
C362 C361 1.430 . S
C363 H352 0.930 . S
C363 C361 1.404 . S
C363 C364 1.366 . S
C364 H343 0.930 . S
C364 C360 1.416 . S
C364 C363 1.366 . S
H365 C358 0.929 . S
H366 C389 0.931 . S
H367 C390 0.931 . S
O368 Eu324 2.462 . S
O368 C388 1.252 . S
O369 Eu324 2.373 1_655 S
O369 C380 1.249 . S
O370 Eu335 2.335 . S
O370 C380 1.264 . S
O371 Eu324 2.432 . S
O371 C388 1.268 . S
O372 Eu324 2.291 . S
O372 C387 1.255 . S
O373 Eu335 2.372 . S
O373 C387 1.257 1_655 S
O374 Eu335 2.462 . S
O374 C399 1.252 . S
O375 Eu335 2.373 1_455 S
O375 C391 1.249 . S
O376 Eu324 2.335 . S
O376 C391 1.264 . S
O377 Eu335 2.432 . S
O377 C399 1.268 . S
O378 Eu335 2.291 . S
O378 C398 1.255 1_655 S
O379 Eu324 2.372 . S
O379 C398 1.257 . S
C380 O369 1.249 . S
C380 O370 1.264 . S
C381 C384 1.382 . S
C381 C386 1.390 . S
C381 C388 1.506 . S
C382 C383 1.398 . S
C382 C386 1.392 . S
C383 C382 1.398 . S
C383 C385 1.372 . S
C383 H400 0.931 . S
C384 C381 1.382 . S
C384 C385 1.390 . S
C384 H401 0.931 . S
C385 C383 1.372 . S
C385 C384 1.390 . S
C385 H402 0.929 . S
C386 C381 1.390 . S
C386 C382 1.392 . S
C386 H403 0.930 . S
C387 O372 1.255 . S
C387 O373 1.257 1_455 S
C388 Eu324 2.787 . S
C388 O368 1.252 . S
C388 O371 1.268 . S
C388 C381 1.506 . S
C389 C356 1.439 . S
C389 H366 0.931 . S
C389 C390 1.374 . S
C390 C361 1.387 . S
C390 H367 0.931 . S
C390 C389 1.374 . S
C391 O375 1.249 . S
C391 O376 1.264 . S
C392 C395 1.382 . S
C392 C396 1.390 1_556 S
C392 C399 1.506 . S
C393 C394 1.398 . S
C393 C396 1.392 . S
C394 C393 1.398 . S
C394 C397 1.372 . S
C394 H404 0.931 . S
C395 C392 1.382 . S
C395 C397 1.390 1_556 S
C395 H405 0.931 . S
C396 C392 1.390 1_554 S
C396 C393 1.392 . S
C396 H406 0.930 . S
C397 C394 1.372 . S
C397 C395 1.390 1_554 S
C397 H407 0.929 1_554 S
C398 O378 1.255 1_455 S
C398 O379 1.257 . S
C399 Eu335 2.787 . S
C399 O374 1.252 . S
C399 O377 1.268 . S
C399 C392 1.506 . S
H400 C383 0.931 . S
H401 C384 0.931 . S
H402 C385 0.929 . S
H403 C386 0.930 . S
H404 C394 0.931 . S
H405 C395 0.931 . S
H406 C396 0.930 . S
H407 C397 0.929 1_556 S
C408 C409 1.387 1_565 S
C408 H412 0.950 . S
C408 C417 1.390 . S
C409 C408 1.387 1_545 S
C409 C411 1.387 . S
H410 C417 0.950 . S
C411 C409 1.387 . S
C411 C413 1.390 . S
C411 H415 0.950 . S
H412 C408 0.950 . S
C413 C411 1.390 . S
C413 C414 1.387 . S
C413 H416 0.950 . S
C414 C413 1.387 . S
C414 C417 1.387 1_545 S
H415 C411 0.950 . S
H416 C413 0.950 . S
C417 C408 1.390 . S
C417 H410 0.950 . S
C417 C414 1.387 1_565 S
C418 C419 1.387 . S
C418 H422 0.950 . S
C418 C427 1.390 . S
C419 C418 1.387 . S
C419 C421 1.387 . S
H420 C427 0.950 . S
C421 C419 1.387 . S
C421 C423 1.390 . S
C421 H425 0.950 . S
H422 C418 0.950 . S
C423 C421 1.390 . S
C423 C424 1.387 . S
C423 H426 0.950 . S
C424 C423 1.387 . S
C424 C427 1.387 . S
H425 C421 0.950 . S
H426 C423 0.950 . S
C427 C418 1.390 . S
C427 H420 0.950 . S
C427 C424 1.387 . S
C428 C429 1.387 . S
C428 H432 0.950 . S
C428 C437 1.390 . S
C429 C428 1.387 . S
C429 C431 1.387 . S
H430 C437 0.950 . S
C431 C429 1.387 . S
C431 C433 1.390 . S
C431 H435 0.950 . S
H432 C428 0.950 . S
C433 C431 1.390 . S
C433 C434 1.387 . S
C433 H436 0.950 . S
C434 C433 1.387 . S
C434 C437 1.387 . S
H435 C431 0.950 . S
H436 C433 0.950 . S
C437 C428 1.390 . S
C437 H430 0.950 . S
C437 C434 1.387 . S
C438 C439 1.387 . S
C438 H442 0.950 . S
C438 C447 1.390 . S
C439 C438 1.387 . S
C439 C441 1.387 1_455 S
H440 C447 0.950 . S
C441 C439 1.387 1_655 S
C441 C443 1.390 . S
C441 H445 0.950 . S
H442 C438 0.950 . S
C443 C441 1.390 . S
C443 C444 1.387 1_655 S
C443 H446 0.950 . S
C444 C443 1.387 1_455 S
C444 C447 1.387 . S
H445 C441 0.950 . S
H446 C443 0.950 . S
C447 C438 1.390 . S
C447 H440 0.950 . S
C447 C444 1.387 . S
C448 C449 1.387 1_545 S
C448 H452 0.950 . S
C448 C457 1.390 . S
C449 C448 1.387 1_565 S
C449 C451 1.387 . S
H450 C457 0.950 . S
C451 C449 1.387 . S
C451 C453 1.390 . S
C451 H455 0.950 . S
H452 C448 0.950 . S
C453 C451 1.390 . S
C453 C454 1.387 1_554 S
C453 H456 0.950 . S
C454 C453 1.387 1_556 S
C454 C457 1.387 1_566 S
H455 C451 0.950 . S
H456 C453 0.950 . S
C457 C448 1.390 . S
C457 H450 0.950 . S
C457 C454 1.387 1_544 S
C458 C459 1.387 . S
C458 H462 0.950 . S
C458 C467 1.390 . S
C459 C458 1.387 . S
C459 C461 1.387 . S
H460 C467 0.950 1_556 S
C461 C459 1.387 . S
C461 C463 1.390 . S
C461 H465 0.950 . S
H462 C458 0.950 . S
C463 C461 1.390 . S
C463 C464 1.390 . S
C463 H466 0.950 . S
C464 C463 1.390 . S
C464 C467 1.388 . S
H465 C461 0.950 . S
H466 C463 0.950 . S
C467 C458 1.390 . S
C467 H460 0.950 1_554 S
C467 C464 1.388 . S
C468 C469 1.387 . S
C468 H472 0.950 . S
C468 C477 1.390 . S
C469 C468 1.387 . S
C469 C471 1.387 . S
H470 C477 0.950 . S
C471 C469 1.387 . S
C471 C473 1.390 . S
C471 H475 0.950 . S
H472 C468 0.950 . S
C473 C471 1.390 . S
C473 C474 1.387 1_554 S
C473 H476 0.950 . S
C474 C473 1.387 1_556 S
C474 C477 1.387 1_556 S
H475 C471 0.950 . S
H476 C473 0.950 . S
C477 C468 1.390 . S
C477 H470 0.950 . S
C477 C474 1.387 1_554 S
C478 C479 1.387 1_455 S
C478 H482 0.950 . S
C478 C487 1.390 . S
C479 C478 1.387 1_655 S
C479 C481 1.387 . S
H480 C487 0.950 . S
C481 C479 1.387 . S
C481 C483 1.390 . S
C481 H485 0.950 . S
H482 C478 0.950 . S
C483 C481 1.390 . S
C483 C484 1.387 1_554 S
C483 H486 0.950 1_554 S
C484 C483 1.387 1_556 S
C484 C487 1.387 1_656 S
H485 C481 0.950 . S
H486 C483 0.950 1_556 S
C487 C478 1.390 . S
C487 H480 0.950 . S
C487 C484 1.387 1_454 S
C488 C489 1.387 . S
C488 H492 0.950 . S
C488 C497 1.390 . S
C489 C488 1.387 . S
C489 C491 1.387 1_455 S
H490 C497 0.950 . S
C491 C489 1.387 1_655 S
C491 C493 1.390 . S
C491 H495 0.950 . S
H492 C488 0.950 . S
C493 C491 1.390 . S
C493 C494 1.387 . S
C493 H496 0.950 . S
C494 C493 1.387 . S
C494 C497 1.387 1_655 S
H495 C491 0.950 . S
H496 C493 0.950 . S
C497 C488 1.390 . S
C497 H490 0.950 . S
C497 C494 1.387 1_455 S
C498 C499 1.387 . S
C498 H502 0.950 . S
C498 C507 1.390 . S
C499 C498 1.387 . S
C499 C501 1.387 . S
H500 C507 0.950 . S
C501 C499 1.387 . S
C501 C503 1.390 1_545 S
C501 H505 0.950 . S
H502 C498 0.950 . S
C503 C501 1.390 1_565 S
C503 C504 1.387 . S
C503 H506 0.950 . S
C504 C503 1.387 . S
C504 C507 1.387 1_565 S
H505 C501 0.950 . S
H506 C503 0.950 . S
C507 C498 1.390 . S
C507 H500 0.950 . S
C507 C504 1.387 1_545 S
C508 C509 1.387 . S
C508 H512 0.950 . S
C508 C517 1.390 . S
C509 C508 1.387 . S
C509 C511 1.387 . S
H510 C517 0.950 . S
C511 C509 1.387 . S
C511 C513 1.390 . S
C511 H515 0.950 . S
H512 C508 0.950 . S
C513 C511 1.390 . S
C513 C514 1.387 . S
C513 H516 0.950 . S
C514 C513 1.387 . S
C514 C517 1.387 . S
H515 C511 0.950 . S
H516 C513 0.950 . S
C517 C508 1.390 . S
C517 H510 0.950 . S
C517 C514 1.387 . S
C518 C519 1.387 . S
C518 H522 0.950 . S
C518 C527 1.390 . S
C519 C518 1.387 . S
C519 C521 1.387 . S
H520 C527 0.950 . S
C521 C519 1.387 . S
C521 C523 1.390 . S
C521 H525 0.950 . S
H522 C518 0.950 . S
C523 C521 1.390 . S
C523 C524 1.387 . S
C523 H526 0.950 . S
C524 C523 1.387 . S
C524 C527 1.387 . S
H525 C521 0.950 . S
H526 C523 0.950 . S
C527 C518 1.390 . S
C527 H520 0.950 . S
C527 C524 1.387 . S
C528 C529 1.387 1_455 S
C528 H532 0.950 . S
C528 C537 1.390 . S
C529 C528 1.387 1_655 S
C529 C531 1.387 . S
H530 C537 0.950 . S
C531 C529 1.387 . S
C531 C533 1.390 1_655 S
C531 H535 0.950 . S
H532 C528 0.950 . S
C533 C531 1.390 1_455 S
C533 C534 1.387 . S
C533 H536 0.950 . S
C534 C533 1.387 . S
C534 C537 1.387 . S
H535 C531 0.950 . S
H536 C533 0.950 . S
C537 C528 1.390 . S
C537 H530 0.950 . S
C537 C534 1.387 . S
C538 C539 1.387 . S
C538 H542 0.950 . S
C538 C547 1.390 1_565 S
C539 C538 1.387 . S
C539 C541 1.387 1_565 S
H540 C547 0.950 . S
C541 C539 1.387 1_545 S
C541 C543 1.390 . S
C541 H545 0.950 . S
H542 C538 0.950 . S
C543 C541 1.390 . S
C543 C544 1.387 . S
C543 H546 0.950 . S
C544 C543 1.387 . S
C544 C547 1.387 . S
H545 C541 0.950 . S
H546 C543 0.950 . S
C547 C538 1.390 1_545 S
C547 H540 0.950 . S
C547 C544 1.387 . S
C548 C549 1.387 . S
C548 H552 0.950 . S
C548 C557 1.390 . S
C549 C548 1.387 . S
C549 C551 1.387 . S
H550 C557 0.950 . S
C551 C549 1.387 . S
C551 C553 1.390 . S
C551 H555 0.950 . S
H552 C548 0.950 . S
C553 C551 1.390 . S
C553 C554 1.387 . S
C553 H556 0.950 . S
C554 C553 1.387 . S
C554 C557 1.387 . S
H555 C551 0.950 . S
H556 C553 0.950 . S
C557 C548 1.390 . S
C557 H550 0.950 . S
C557 C554 1.387 . S
C558 C559 1.387 . S
C558 H562 0.950 . S
C558 C567 1.390 . S
C559 C558 1.387 . S
C559 C561 1.387 . S
H560 C567 0.950 . S
C561 C559 1.387 . S
C561 C563 1.390 . S
C561 H565 0.950 . S
H562 C558 0.950 . S
C563 C561 1.390 . S
C563 C564 1.387 . S
C563 H566 0.950 . S
C564 C563 1.387 . S
C564 C567 1.387 . S
H565 C561 0.950 . S
H566 C563 0.950 . S
C567 C558 1.390 . S
C567 H560 0.950 . S
C567 C564 1.387 . S
C568 C569 1.387 . S
C568 H572 0.950 . S
C568 C577 1.390 . S
C569 C568 1.387 . S
C569 C571 1.387 1_455 S
H570 C577 0.950 . S
C571 C569 1.387 1_655 S
C571 C573 1.390 . S
C571 H575 0.950 . S
H572 C568 0.950 . S
C573 C571 1.390 . S
C573 C574 1.387 1_655 S
C573 H576 0.950 . S
C574 C573 1.387 1_455 S
C574 C577 1.387 . S
H575 C571 0.950 . S
H576 C573 0.950 . S
C577 C568 1.390 . S
C577 H570 0.950 . S
C577 C574 1.387 . S
C578 C579 1.387 . S
C578 H582 0.950 . S
C578 C587 1.390 . S
C579 C578 1.387 . S
C579 C581 1.371 1_545 S
H580 C587 0.950 . S
C581 C579 1.371 1_565 S
C581 C583 1.390 . S
C581 H585 0.966 . S
H582 C578 0.950 . S
C583 C581 1.390 . S
C583 C584 1.372 1_565 S
C583 H586 0.966 . S
C584 C583 1.372 1_545 S
C584 C587 1.387 . S
H585 C581 0.966 . S
H586 C583 0.966 . S
C587 C578 1.390 . S
C587 H580 0.950 . S
C587 C584 1.387 . S
C588 C589 1.387 . S
C588 H592 0.950 . S
C588 C597 1.390 . S
C589 C588 1.387 . S
C589 C591 1.387 . S
H590 C597 0.950 . S
C591 C589 1.387 . S
C591 C593 1.390 . S
C591 H595 0.950 . S
H592 C588 0.950 . S
C593 C591 1.390 . S
C593 C594 1.387 . S
C593 H596 0.950 . S
C594 C593 1.387 . S
C594 C597 1.387 . S
H595 C591 0.950 . S
H596 C593 0.950 . S
C597 C588 1.390 . S
C597 H590 0.950 . S
C597 C594 1.387 . S
C598 C599 1.387 . S
C598 H602 0.950 . S
C598 C607 1.390 . S
C599 C598 1.387 . S
C599 C601 1.387 . S
H600 C607 0.950 . S
C601 C599 1.387 . S
C601 C603 1.390 . S
C601 H605 0.950 . S
H602 C598 0.950 . S
C603 C601 1.390 . S
C603 C604 1.387 . S
C603 H606 0.950 . S
C604 C603 1.387 . S
C604 C607 1.387 . S
H605 C601 0.950 . S
H606 C603 0.950 . S
C607 C598 1.390 . S
C607 H600 0.950 . S
C607 C604 1.387 . S
C608 C609 1.387 1_455 S
C608 H612 0.950 . S
C608 C617 1.390 . S
C609 C608 1.387 1_655 S
C609 C611 1.387 . S
H610 C617 0.950 . S
C611 C609 1.387 . S
C611 C613 1.390 . S
C611 H615 0.950 . S
H612 C608 0.950 . S
C613 C611 1.390 . S
C613 C614 1.387 . S
C613 H616 0.950 . S
C614 C613 1.387 . S
C614 C617 1.387 1_655 S
H615 C611 0.950 . S
H616 C613 0.950 . S
C617 C608 1.390 . S
C617 H610 0.950 . S
C617 C614 1.387 1_455 S
C618 C619 1.387 . S
C618 H622 0.950 . S
C618 C627 1.390 . S
C619 C618 1.387 . S
C619 C621 1.387 1_565 S
H620 C627 0.950 . S
C621 C619 1.387 1_545 S
C621 C623 1.390 . S
C621 H625 0.950 . S
H622 C618 0.950 . S
C623 C621 1.390 . S
C623 C624 1.387 1_545 S
C623 H626 0.950 . S
C624 C623 1.387 1_565 S
C624 C627 1.387 . S
H625 C621 0.950 . S
H626 C623 0.950 . S
C627 C618 1.390 . S
C627 H620 0.950 . S
C627 C624 1.387 . S
C628 C629 1.387 . S
C628 H632 0.950 . S
C628 C637 1.390 . S
C629 C628 1.387 . S
C629 C631 1.387 . S
H630 C637 0.950 . S
C631 C629 1.387 . S
C631 C633 1.390 . S
C631 H635 0.950 . S
H632 C628 0.950 . S
C633 C631 1.390 . S
C633 C634 1.387 . S
C633 H636 0.950 . S
C634 C633 1.387 . S
C634 C637 1.387 . S
H635 C631 0.950 . S
H636 C633 0.950 . S
C637 C628 1.390 . S
C637 H630 0.950 . S
C637 C634 1.387 . S
C638 C639 1.387 . S
C638 H642 0.950 . S
C638 C647 1.390 . S
C639 C638 1.387 . S
C639 C641 1.387 . S
H640 C647 0.950 . S
C641 C639 1.387 . S
C641 C643 1.390 . S
C641 H645 0.950 . S
H642 C638 0.950 . S
C643 C641 1.390 . S
C643 C644 1.387 . S
C643 H646 0.950 . S
C644 C643 1.387 . S
C644 C647 1.387 . S
H645 C641 0.950 . S
H646 C643 0.950 . S
C647 C638 1.390 . S
C647 H640 0.950 . S
C647 C644 1.387 . S
C409 C61 2.013 . S
C414 C135 2.222 . S
C424 C212 2.228 . S
C419 C70 2.023 . S
C434 C303 2.221 . S
C429 C43 2.008 . S
C444 C387 2.210 . S
C439 C52 2.001 . S
C454 C146 2.220 1_565 S
C449 C25 2.011 . S
C459 C34 2.023 . S
C464 C223 2.226 1_554 S
C469 C7 2.009 . S
C474 C314 2.221 . S
C479 C16 2.003 . S
C484 C398 2.211 1_655 S
C494 C130 0.781 . S
C489 C50 0.778 . S
C504 C225 0.767 . S
C499 C59 0.766 . S
C514 C298 0.790 . S
C509 C67 0.786 . S
C519 C41 0.768 . S
C524 C382 0.770 . S
C529 C14 0.780 . S
C534 C141 0.781 . S
C544 C214 0.761 . S
C539 C23 0.761 . S
C554 C309 0.789 . S
C549 C31 0.784 . S
C559 C5 0.766 . S
C564 C393 0.773 . S
C569 C49 2.061 . S
C574 C139 2.344 . S
C579 C58 2.067 . S
C584 C230 2.367 . S
C594 C307 2.353 . S
C589 C68 2.064 . S
C604 C391 2.359 . S
C599 C40 2.075 . S
C609 C13 2.061 . S
C614 C128 2.344 . S
C624 C219 2.367 . S
C619 C22 2.064 . S
C634 C296 2.354 . S
C629 C32 2.068 . S
C639 C4 2.071 . S
C644 C380 2.357 . S
