# Generated by pormake.
# Topology ptr, (4,4)-cn, num edge types: 1
# Building blocks:
#     Node 0, Type 0, BuildingBlock: QUQFOY_clean_sbu_1, # of connection points: 4
#     Node 1, Type 0, BuildingBlock: QUQFOY_clean_sbu_1, # of connection points: 4
#     Node 2, Type 0, BuildingBlock: QUQFOY_clean_sbu_1, # of connection points: 4
#     Node 3, Type 0, BuildingBlock: QUQFOY_clean_sbu_1, # of connection points: 4
#     Node 4, Type 0, BuildingBlock: QUQFOY_clean_sbu_1, # of connection points: 4
#     Node 5, Type 0, BuildingBlock: QUQFOY_clean_sbu_1, # of connection points: 4
#     Node 6, Type 0, BuildingBlock: QUQFOY_clean_sbu_1, # of connection points: 4
#     Node 7, Type 0, BuildingBlock: QUQFOY_clean_sbu_1, # of connection points: 4
#     Node 8, Type 0, BuildingBlock: QUQFOY_clean_sbu_1, # of connection points: 4
#     Node 9, Type 0, BuildingBlock: QUQFOY_clean_sbu_1, # of connection points: 4
#     Node 10, Type 0, BuildingBlock: QUQFOY_clean_sbu_1, # of connection points: 4
#     Node 11, Type 0, BuildingBlock: QUQFOY_clean_sbu_1, # of connection points: 4
#     Node 12, Type 0, BuildingBlock: QUQFOY_clean_sbu_1, # of connection points: 4
#     Node 13, Type 0, BuildingBlock: QUQFOY_clean_sbu_1, # of connection points: 4
#     Node 14, Type 0, BuildingBlock: QUQFOY_clean_sbu_1, # of connection points: 4
#     Node 15, Type 0, BuildingBlock: QUQFOY_clean_sbu_1, # of connection points: 4
#     Node 16, Type 0, BuildingBlock: QUQFOY_clean_sbu_1, # of connection points: 4
#     Node 17, Type 0, BuildingBlock: QUQFOY_clean_sbu_1, # of connection points: 4
#     Node 18, Type 1, BuildingBlock: MIFKUJ_clean_linker_1, # of connection points: 4
#     Node 19, Type 1, BuildingBlock: MIFKUJ_clean_linker_1, # of connection points: 4
#     Node 20, Type 1, BuildingBlock: MIFKUJ_clean_linker_1, # of connection points: 4
#     Node 21, Type 1, BuildingBlock: MIFKUJ_clean_linker_1, # of connection points: 4
#     Node 22, Type 1, BuildingBlock: MIFKUJ_clean_linker_1, # of connection points: 4
#     Node 23, Type 1, BuildingBlock: MIFKUJ_clean_linker_1, # of connection points: 4
#     Node 24, Type 1, BuildingBlock: MIFKUJ_clean_linker_1, # of connection points: 4
#     Node 25, Type 1, BuildingBlock: MIFKUJ_clean_linker_1, # of connection points: 4
#     Node 26, Type 1, BuildingBlock: MIFKUJ_clean_linker_1, # of connection points: 4
#     Node 27, Type 1, BuildingBlock: MIFKUJ_clean_linker_1, # of connection points: 4
#     Node 28, Type 1, BuildingBlock: MIFKUJ_clean_linker_1, # of connection points: 4
#     Node 29, Type 1, BuildingBlock: MIFKUJ_clean_linker_1, # of connection points: 4
#     Node 30, Type 1, BuildingBlock: MIFKUJ_clean_linker_1, # of connection points: 4
#     Node 31, Type 1, BuildingBlock: MIFKUJ_clean_linker_1, # of connection points: 4
#     Node 32, Type 1, BuildingBlock: MIFKUJ_clean_linker_1, # of connection points: 4
#     Node 33, Type 1, BuildingBlock: MIFKUJ_clean_linker_1, # of connection points: 4
#     Node 34, Type 1, BuildingBlock: MIFKUJ_clean_linker_1, # of connection points: 4
#     Node 35, Type 1, BuildingBlock: MIFKUJ_clean_linker_1, # of connection points: 4
#     Edge 36, Type (0, 1), BuildingBlock: XIVTED_clean_linker_0, # of connection points: 2
#     Edge 37, Type (0, 1), BuildingBlock: XIVTED_clean_linker_0, # of connection points: 2
#     Edge 38, Type (0, 1), BuildingBlock: XIVTED_clean_linker_0, # of connection points: 2
#     Edge 39, Type (0, 1), BuildingBlock: XIVTED_clean_linker_0, # of connection points: 2
#     Edge 40, Type (0, 1), BuildingBlock: XIVTED_clean_linker_0, # of connection points: 2
#     Edge 41, Type (0, 1), BuildingBlock: XIVTED_clean_linker_0, # of connection points: 2
#     Edge 42, Type (0, 1), BuildingBlock: XIVTED_clean_linker_0, # of connection points: 2
#     Edge 43, Type (0, 1), BuildingBlock: XIVTED_clean_linker_0, # of connection points: 2
#     Edge 44, Type (0, 1), BuildingBlock: XIVTED_clean_linker_0, # of connection points: 2
#     Edge 45, Type (0, 1), BuildingBlock: XIVTED_clean_linker_0, # of connection points: 2
#     Edge 46, Type (0, 1), BuildingBlock: XIVTED_clean_linker_0, # of connection points: 2
#     Edge 47, Type (0, 1), BuildingBlock: XIVTED_clean_linker_0, # of connection points: 2
#     Edge 48, Type (0, 1), BuildingBlock: XIVTED_clean_linker_0, # of connection points: 2
#     Edge 49, Type (0, 1), BuildingBlock: XIVTED_clean_linker_0, # of connection points: 2
#     Edge 50, Type (0, 1), BuildingBlock: XIVTED_clean_linker_0, # of connection points: 2
#     Edge 51, Type (0, 1), BuildingBlock: XIVTED_clean_linker_0, # of connection points: 2
#     Edge 52, Type (0, 1), BuildingBlock: XIVTED_clean_linker_0, # of connection points: 2
#     Edge 53, Type (0, 1), BuildingBlock: XIVTED_clean_linker_0, # of connection points: 2
#     Edge 54, Type (0, 1), BuildingBlock: XIVTED_clean_linker_0, # of connection points: 2
#     Edge 55, Type (0, 1), BuildingBlock: XIVTED_clean_linker_0, # of connection points: 2
#     Edge 56, Type (0, 1), BuildingBlock: XIVTED_clean_linker_0, # of connection points: 2
#     Edge 57, Type (0, 1), BuildingBlock: XIVTED_clean_linker_0, # of connection points: 2
#     Edge 58, Type (0, 1), BuildingBlock: XIVTED_clean_linker_0, # of connection points: 2
#     Edge 59, Type (0, 1), BuildingBlock: XIVTED_clean_linker_0, # of connection points: 2
#     Edge 60, Type (0, 1), BuildingBlock: XIVTED_clean_linker_0, # of connection points: 2
#     Edge 61, Type (0, 1), BuildingBlock: XIVTED_clean_linker_0, # of connection points: 2
#     Edge 62, Type (0, 1), BuildingBlock: XIVTED_clean_linker_0, # of connection points: 2
#     Edge 63, Type (0, 1), BuildingBlock: XIVTED_clean_linker_0, # of connection points: 2
#     Edge 64, Type (0, 1), BuildingBlock: XIVTED_clean_linker_0, # of connection points: 2
#     Edge 65, Type (0, 1), BuildingBlock: XIVTED_clean_linker_0, # of connection points: 2
#     Edge 66, Type (0, 1), BuildingBlock: XIVTED_clean_linker_0, # of connection points: 2
#     Edge 67, Type (0, 1), BuildingBlock: XIVTED_clean_linker_0, # of connection points: 2
#     Edge 68, Type (0, 1), BuildingBlock: XIVTED_clean_linker_0, # of connection points: 2
#     Edge 69, Type (0, 1), BuildingBlock: XIVTED_clean_linker_0, # of connection points: 2
#     Edge 70, Type (0, 1), BuildingBlock: XIVTED_clean_linker_0, # of connection points: 2
#     Edge 71, Type (0, 1), BuildingBlock: XIVTED_clean_linker_0, # of connection points: 2
#     Edge 72, Type (0, 1), BuildingBlock: XIVTED_clean_linker_0, # of connection points: 2
#     Edge 73, Type (0, 1), BuildingBlock: XIVTED_clean_linker_0, # of connection points: 2
#     Edge 74, Type (0, 1), BuildingBlock: XIVTED_clean_linker_0, # of connection points: 2
#     Edge 75, Type (0, 1), BuildingBlock: XIVTED_clean_linker_0, # of connection points: 2
#     Edge 76, Type (0, 1), BuildingBlock: XIVTED_clean_linker_0, # of connection points: 2
#     Edge 77, Type (0, 1), BuildingBlock: XIVTED_clean_linker_0, # of connection points: 2
#     Edge 78, Type (0, 1), BuildingBlock: XIVTED_clean_linker_0, # of connection points: 2
#     Edge 79, Type (0, 1), BuildingBlock: XIVTED_clean_linker_0, # of connection points: 2
#     Edge 80, Type (0, 1), BuildingBlock: XIVTED_clean_linker_0, # of connection points: 2
#     Edge 81, Type (0, 1), BuildingBlock: XIVTED_clean_linker_0, # of connection points: 2
#     Edge 82, Type (0, 1), BuildingBlock: XIVTED_clean_linker_0, # of connection points: 2
#     Edge 83, Type (0, 1), BuildingBlock: XIVTED_clean_linker_0, # of connection points: 2
#     Edge 84, Type (0, 1), BuildingBlock: XIVTED_clean_linker_0, # of connection points: 2
#     Edge 85, Type (0, 1), BuildingBlock: XIVTED_clean_linker_0, # of connection points: 2
#     Edge 86, Type (0, 1), BuildingBlock: XIVTED_clean_linker_0, # of connection points: 2
#     Edge 87, Type (0, 1), BuildingBlock: XIVTED_clean_linker_0, # of connection points: 2
#     Edge 88, Type (0, 1), BuildingBlock: XIVTED_clean_linker_0, # of connection points: 2
#     Edge 89, Type (0, 1), BuildingBlock: XIVTED_clean_linker_0, # of connection points: 2
#     Edge 90, Type (0, 1), BuildingBlock: XIVTED_clean_linker_0, # of connection points: 2
#     Edge 91, Type (0, 1), BuildingBlock: XIVTED_clean_linker_0, # of connection points: 2
#     Edge 92, Type (0, 1), BuildingBlock: XIVTED_clean_linker_0, # of connection points: 2
#     Edge 93, Type (0, 1), BuildingBlock: XIVTED_clean_linker_0, # of connection points: 2
#     Edge 94, Type (0, 1), BuildingBlock: XIVTED_clean_linker_0, # of connection points: 2
#     Edge 95, Type (0, 1), BuildingBlock: XIVTED_clean_linker_0, # of connection points: 2
#     Edge 96, Type (0, 1), BuildingBlock: XIVTED_clean_linker_0, # of connection points: 2
#     Edge 97, Type (0, 1), BuildingBlock: XIVTED_clean_linker_0, # of connection points: 2
#     Edge 98, Type (0, 1), BuildingBlock: XIVTED_clean_linker_0, # of connection points: 2
#     Edge 99, Type (0, 1), BuildingBlock: XIVTED_clean_linker_0, # of connection points: 2
#     Edge 100, Type (0, 1), BuildingBlock: XIVTED_clean_linker_0, # of connection points: 2
#     Edge 101, Type (0, 1), BuildingBlock: XIVTED_clean_linker_0, # of connection points: 2
#     Edge 102, Type (0, 1), BuildingBlock: XIVTED_clean_linker_0, # of connection points: 2
#     Edge 103, Type (0, 1), BuildingBlock: XIVTED_clean_linker_0, # of connection points: 2
#     Edge 104, Type (0, 1), BuildingBlock: XIVTED_clean_linker_0, # of connection points: 2
#     Edge 105, Type (0, 1), BuildingBlock: XIVTED_clean_linker_0, # of connection points: 2
#     Edge 106, Type (0, 1), BuildingBlock: XIVTED_clean_linker_0, # of connection points: 2
#     Edge 107, Type (0, 1), BuildingBlock: XIVTED_clean_linker_0, # of connection points: 2
# Relax obj value: 0.012
# Max RMSD: 0.044
# Mean RMSD: 0.040
data_MOF--net-ptr--node1-QUQFOY_clean_sbu_1--node2-MIFKUJ_clean_linker_1--edge1-XIVTED_clean_linker_0
_symmetry_space_group_name_H-M    P1
_symmetry_Int_Tables_number       1
_symmetry_cell_setting            triclinic
loop_
_symmetry_equiv_pos_as_xyz
'x, y, z'
_cell_length_a     92.262226
_cell_length_b     92.249468
_cell_length_c     63.252039
_cell_angle_alpha  90.075229
_cell_angle_beta   89.941427
_cell_angle_gamma 119.93562
loop_
_atom_site_label
_atom_site_type_symbol
_atom_site_fract_x
_atom_site_fract_y
_atom_site_fract_z
_atom_type_partial_charge
O0 O 0.01154 0.38294 0.04987 0.0
Cd1 Cd 0.01862 0.37467 0.02354 0.0
Cd2 Cd 0.98498 0.35679 0.01794 0.0
O3 O 0.98424 0.3663 0.0473 0.0
O4 O 0.04243 0.38145 0.02917 0.0
O5 O 0.0223 0.35502 0.02727 0.0
C6 C 0.03784 0.36581 0.03075 0.0
C7 C 0.96838 0.32838 0.0101 0.0
C8 C 0.99688 0.37755 0.05714 0.0
C9 C 0.00499 0.38261 0.98495 0.0
O10 O 0.99061 0.37257 0.99244 0.0
O11 O 0.0181 0.38467 0.9943 0.0
O12 O 0.96197 0.3379 0.01247 0.0
O13 O 0.9843 0.33486 0.01298 0.0
O14 O 0.62225 0.6273 0.04976 0.0
Cd15 Cd 0.62869 0.64343 0.02446 0.0
Cd16 Cd 0.64536 0.62651 0.01272 0.0
O17 O 0.63591 0.61418 0.04114 0.0
O18 O 0.62196 0.65981 0.03393 0.0
O19 O 0.64825 0.66691 0.0277 0.0
C20 C 0.63754 0.67116 0.03387 0.0
C21 C 0.67308 0.63543 1.00331 0.0
C22 C 0.62648 0.61644 0.05378 0.0
C23 C 0.61851 0.62455 0.98337 0.0
O24 O 0.62927 0.62017 0.9874 0.0
O25 O 0.61636 0.63405 0.996 0.0
O26 O 0.66176 0.61984 1.00315 0.0
O27 O 0.6688 0.6461 0.00964 0.0
O28 O 0.38037 0.00992 0.9891 0.0
Cd29 Cd 0.37145 0.01603 0.01558 0.0
Cd30 Cd 0.35496 0.98262 0.02 0.0
O31 O 0.36394 0.98257 0.99004 0.0
O32 O 0.37804 0.03981 0.01043 0.0
O33 O 0.35167 0.01952 0.01187 0.0
C34 C 0.3624 0.03511 0.00863 0.0
C35 C 0.32663 0.96647 0.02809 0.0
C36 C 0.37518 0.9956 0.98084 0.0
C37 C 0.3805 0.00256 0.05318 0.0
O38 O 0.3712 0.98821 0.04508 0.0
O39 O 0.38154 0.01553 0.04463 0.0
O40 O 0.33584 0.95975 0.02526 0.0
O41 O 0.33342 0.98246 0.02563 0.0
O42 O 0.99157 0.61927 0.99114 0.0
Cd43 Cd 0.98657 0.62976 0.017 0.0
Cd44 Cd 0.01985 0.64636 0.02009 0.0
O45 O 0.01882 0.63644 0.99038 0.0
O46 O 0.96324 0.62524 0.01309 0.0
O47 O 0.9854 0.65067 0.01185 0.0
C48 C 0.96941 0.64107 0.01008 0.0
C49 C 0.03666 0.67482 0.02725 0.0
C50 C 0.00566 0.62451 0.9822 0.0
C51 C 1.00084 0.62201 0.05475 0.0
O52 O 0.01493 0.63082 0.04579 0.0
O53 O 0.9877 0.62086 0.04664 0.0
O54 O 0.04305 0.66534 0.02417 0.0
O55 O 0.02065 0.66825 0.0254 0.0
O56 O 0.38326 0.37334 0.98926 0.0
Cd57 Cd 0.37377 0.35716 0.01459 0.0
Cd58 Cd 0.35693 0.37355 0.02042 0.0
O59 O 0.36624 0.38357 0.9909 0.0
O60 O 0.37973 0.33966 0.00802 0.0
O61 O 0.3536 0.33436 0.00977 0.0
C62 C 0.36399 0.32913 0.00597 0.0
C63 C 0.32853 0.36174 0.02823 0.0
C64 C 0.37792 0.38253 0.98163 0.0
C65 C 0.3823 0.37812 0.05351 0.0
O66 O 0.37296 0.38332 0.04591 0.0
O67 O 0.38356 0.36658 0.04416 0.0
O68 O 0.33805 0.37768 0.02615 0.0
O69 O 0.33504 0.35232 0.0252 0.0
O70 O 0.62211 0.99352 0.04801 0.0
Cd71 Cd 0.62981 0.98535 0.02219 0.0
Cd72 Cd 0.64773 0.01921 0.0146 0.0
O73 O 0.63781 0.02076 0.04329 0.0
O74 O 0.62311 0.96185 0.02949 0.0
O75 O 0.64951 0.98174 0.02599 0.0
C76 C 0.63876 0.96639 0.03057 0.0
C77 C 0.6758 0.03777 0.0066 0.0
C78 C 0.62708 0.00841 0.05406 0.0
C79 C 0.6218 0.99723 0.98222 0.0
O80 O 0.63226 0.01185 0.98861 0.0
O81 O 0.61918 0.98449 0.99296 0.0
O82 O 0.66489 0.04259 0.00742 0.0
O83 O 0.67091 0.02237 0.01125 0.0
O84 O 0.67334 0.71416 0.38471 0.0
Cd85 Cd 0.68139 0.70653 0.35867 0.0
Cd86 Cd 0.6478 0.68912 0.35102 0.0
O87 O 0.64613 0.69816 0.38031 0.0
O88 O 0.70506 0.7137 0.36575 0.0
O89 O 0.68556 0.68716 0.36228 0.0
C90 C 0.70085 0.69814 0.36679 0.0
C91 C 0.63107 0.66088 0.34243 0.0
C92 C 0.65847 0.70894 0.39103 0.0
C93 C 0.66934 0.71548 0.31935 0.0
O94 O 0.65464 0.70538 0.32587 0.0
O95 O 0.682 0.71723 0.32955 0.0
O96 O 0.62487 0.67062 0.34429 0.0
O97 O 0.64684 0.66705 0.34618 0.0
O98 O 0.28716 0.96044 0.3831 0.0
Cd99 Cd 0.29417 0.9761 0.35712 0.0
Cd100 Cd 0.31113 0.95935 0.34804 0.0
O101 O 0.30234 0.94845 0.37723 0.0
O102 O 0.28766 0.99293 0.36522 0.0
O103 O 0.31394 0.99944 0.36016 0.0
C104 C 0.30332 0.00405 0.36551 0.0
C105 C 0.33884 0.96857 0.33833 0.0
C106 C 0.29213 0.95041 0.38869 0.0
C107 C 0.28419 0.95553 0.31751 0.0
O108 O 0.29447 0.95093 0.32325 0.0
O109 O 0.28254 0.96624 0.32835 0.0
O110 O 0.3279 0.95289 0.33955 0.0
O111 O 0.3342 0.97921 0.34344 0.0
O112 O 0.04894 0.343 0.32335 0.0
Cd113 Cd 0.04026 0.34987 0.34942 0.0
Cd114 Cd 0.02376 0.31601 0.35487 0.0
O115 O 0.03297 0.3156 0.32517 0.0
O116 O 0.04716 0.37359 0.3432 0.0
O117 O 0.02069 0.35368 0.34545 0.0
C118 C 0.03156 0.36912 0.34159 0.0
C119 C 0.99582 0.29774 0.36371 0.0
C120 C 0.04401 0.32855 0.31563 0.0
C121 C 0.04948 0.33734 0.38766 0.0
O122 O 0.0401 0.32285 0.38002 0.0
O123 O 0.05062 0.35016 0.37858 0.0
O124 O 0.00641 0.29259 0.36158 0.0
O125 O 1.00094 0.31332 0.35988 0.0
O126 O 0.65576 0.95136 0.3247 0.0
Cd127 Cd 0.64972 0.96116 0.35023 0.0
Cd128 Cd 0.68305 0.97755 0.35615 0.0
O129 O 0.68314 0.96739 0.32684 0.0
O130 O 0.6265 0.95647 0.34478 0.0
O131 O 0.64842 0.98206 0.34536 0.0
C132 C 0.63256 0.97234 0.34246 0.0
C133 C 0.70001 0.00607 0.36302 0.0
C134 C 0.67027 0.95614 0.31732 0.0
C135 C 0.66197 0.95271 0.38952 0.0
O136 O 0.67663 0.96222 0.38241 0.0
O137 O 0.64929 0.95113 0.37957 0.0
O138 O 0.70621 0.9963 0.36132 0.0
O139 O 0.68413 0.99974 0.36003 0.0
O140 O 0.04839 0.70961 0.32057 0.0
Cd141 Cd 0.0412 0.69409 0.3467 0.0
Cd142 Cd 0.02325 0.7097 0.35464 0.0
O143 O 0.03215 0.72053 0.32545 0.0
O144 O 0.04861 0.67775 0.33962 0.0
O145 O 0.022 0.67046 0.34336 0.0
C146 C 0.03309 0.66628 0.3388 0.0
C147 C 0.99491 0.6978 0.36282 0.0
C148 C 0.04292 0.71911 0.31448 0.0
C149 C 0.04988 0.71502 0.38615 0.0
O150 O 0.03943 0.71924 0.37987 0.0
O151 O 0.05197 0.70439 0.37573 0.0
O152 O 0.00448 0.71377 0.36128 0.0
O153 O 1.00135 0.68841 0.35913 0.0
O154 O 0.28796 0.32475 0.38021 0.0
Cd155 Cd 0.29708 0.3184 0.35406 0.0
Cd156 Cd 0.31437 0.35187 0.34866 0.0
O157 O 0.30438 0.3521 0.37784 0.0
O158 O 0.29204 0.29499 0.35903 0.0
O159 O 0.31778 0.31665 0.3584 0.0
C160 C 0.30789 0.3008 0.36115 0.0
C161 C 0.34282 0.36895 0.34159 0.0
C162 C 0.29311 0.33937 0.38752 0.0
C163 C 0.28925 0.33177 0.31514 0.0
O164 O 0.29896 0.34619 0.32278 0.0
O165 O 0.28734 0.31876 0.32457 0.0
O166 O 0.33305 0.37509 0.34378 0.0
O167 O 0.33655 0.35303 0.34422 0.0
O168 O 0.34408 0.04887 0.71515 0.0
Cd169 Cd 0.35185 0.04114 0.68888 0.0
Cd170 Cd 0.3184 0.02345 0.68156 0.0
O171 O 0.31689 0.03259 0.71082 0.0
O172 O 0.37542 0.04747 0.6953 0.0
O173 O 0.35515 0.02121 0.69207 0.0
C174 C 0.37065 0.03175 0.69616 0.0
C175 C 0.30165 0.99511 0.67343 0.0
C176 C 0.32918 0.04349 0.72151 0.0
C177 C 0.33944 0.0499 0.64974 0.0
O178 O 0.32483 0.03958 0.65631 0.0
O179 O 0.35223 0.05188 0.65986 0.0
O180 O 0.29543 0.00483 0.67525 0.0
O181 O 0.31747 0.00138 0.67688 0.0
O182 O 0.95408 0.29364 0.71463 0.0
Cd183 Cd 0.96017 0.30938 0.68896 0.0
Cd184 Cd 0.9771 0.29257 0.67763 0.0
O185 O 0.96793 0.28064 0.70633 0.0
O186 O 0.95312 0.32559 0.69811 0.0
O187 O 0.9795 0.33301 0.6919 0.0
C188 C 0.96863 0.33709 0.698 0.0
C189 C 0.00485 0.30146 0.66837 0.0
C190 C 0.95853 0.28298 0.71892 0.0
C191 C 0.94996 0.2899 0.64824 0.0
O192 O 0.96085 0.28573 0.6524 0.0
O193 O 0.94778 0.29951 0.66065 0.0
O194 O 0.99355 0.28586 0.66846 0.0
O195 O 1.00051 0.31218 0.67423 0.0
O196 O 0.71631 0.67667 0.65612 0.0
Cd197 Cd 0.70971 0.68563 0.68208 0.0
Cd198 Cd 0.69245 0.65188 0.69177 0.0
O199 O 0.70186 0.64962 0.66293 0.0
O200 O 0.71663 0.70901 0.67386 0.0
O201 O 0.69024 0.68974 0.67928 0.0
C202 C 0.70105 0.70483 0.67376 0.0
C203 C 0.66453 0.63348 0.70071 0.0
C204 C 0.71171 0.66165 0.65104 0.0
C205 C 0.71932 0.67525 0.72223 0.0
O206 O 0.70847 0.66036 0.71728 0.0
O207 O 0.72168 0.68743 0.7105 0.0
O208 O 0.67549 0.62871 0.70016 0.0
O209 O 0.66927 0.64872 0.69534 0.0
O210 O 0.33039 0.28816 0.65242 0.0
Cd211 Cd 0.32152 0.29499 0.67841 0.0
Cd212 Cd 0.35511 0.31244 0.68733 0.0
O213 O 0.35751 0.30373 0.65819 0.0
O214 O 0.29802 0.28778 0.67048 0.0
O215 O 0.31721 0.3143 0.67526 0.0
C216 C 0.30208 0.30333 0.67008 0.0
C217 C 0.37271 0.34038 0.69685 0.0
C218 C 0.34542 0.29335 0.64678 0.0
C219 C 0.33256 0.28545 0.71801 0.0
O220 O 0.34736 0.29588 0.7122 0.0
O221 O 0.32011 0.28359 0.70723 0.0
O222 O 0.37807 0.3299 0.6957 0.0
O223 O 0.35731 0.33514 0.69176 0.0
O224 O 0.71694 0.04153 0.65807 0.0
Cd225 Cd 0.70799 0.02571 0.68379 0.0
Cd226 Cd 0.69099 0.04248 0.68938 0.0
O227 O 0.70031 0.05225 0.65978 0.0
O228 O 0.71481 0.00882 0.67743 0.0
O229 O 0.68837 0.00246 0.67937 0.0
C230 C 0.6992 0.9978 0.67558 0.0
C231 C 0.66281 0.03237 0.69743 0.0
C232 C 0.71171 0.05081 0.65037 0.0
C233 C 0.71662 0.04704 0.7224 0.0
O234 O 0.70713 0.05205 0.71481 0.0
O235 O 0.71801 0.03554 0.71314 0.0
O236 O 0.67324 0.04815 0.69553 0.0
O237 O 0.66828 0.02212 0.69402 0.0
O238 O 0.95248 0.65556 0.71151 0.0
Cd239 Cd 0.9622 0.64952 0.68574 0.0
Cd240 Cd 0.97871 0.68295 0.6807 0.0
O241 O 0.96922 0.68289 0.71038 0.0
O242 O 0.95763 0.62632 0.69093 0.0
O243 O 0.98317 0.64833 0.69048 0.0
C244 C 0.97352 0.63243 0.69321 0.0
C245 C 0.00671 0.70152 0.67244 0.0
C246 C 0.9577 0.66998 0.7195 0.0
C247 C 0.95344 0.66213 0.64733 0.0
O248 O 0.96263 0.67654 0.65529 0.0
O249 O 0.95231 0.64927 0.65628 0.0
O250 O 0.99602 0.70654 0.67468 0.0
O251 O 0.00165 0.6859 0.6758 0.0
H252 H 0.15526 0.3439 0.18869 0.0
H253 H 0.13454 0.34456 0.21203 0.0
H254 H 0.0951 0.30266 0.17839 0.0
H255 H 0.11606 0.30195 0.15506 0.0
H256 H 0.16227 0.31892 0.18356 0.0
H257 H 0.14405 0.35 0.14121 0.0
H258 H 0.12439 0.35564 0.12213 0.0
H259 H 0.11055 0.31246 0.08253 0.0
H260 H 0.13003 0.30667 0.10207 0.0
H261 H 0.18746 0.30102 0.12736 0.0
H262 H 0.21125 0.30458 0.10618 0.0
H263 H 0.22202 0.3544 0.08913 0.0
H264 H 0.1979 0.35039 0.10949 0.0
H265 H 0.16443 0.32703 0.10591 0.0
H266 H 0.17294 0.29701 0.18231 0.0
H267 H 0.19422 0.29776 0.20588 0.0
H268 H 0.23094 0.34484 0.17835 0.0
H269 H 0.20938 0.3444 0.15561 0.0
C270 C 0.13721 0.3229 0.17012 0.0
C271 C 0.14215 0.33487 0.18629 0.0
C272 C 0.13028 0.33532 0.19951 0.0
C273 C 0.11317 0.32371 0.19698 0.0
C274 C 0.1082 0.3117 0.18077 0.0
C275 C 0.12013 0.31135 0.16737 0.0
C276 C 0.15013 0.32243 0.15664 0.0
C277 C 0.16264 0.32045 0.16653 0.0
C278 C 0.15066 0.32466 0.13448 0.0
C279 C 0.13837 0.3278 0.12323 0.0
C280 C 0.13664 0.34162 0.1286 0.0
C281 C 0.12551 0.34493 0.11752 0.0
C282 C 0.11592 0.33452 0.10075 0.0
C283 C 0.11761 0.32062 0.09549 0.0
C284 C 0.12881 0.31735 0.10655 0.0
C285 C 0.1909 0.32543 0.11994 0.0
C286 C 0.19494 0.31265 0.11893 0.0
C287 C 0.20862 0.31477 0.1069 0.0
C288 C 0.21862 0.32977 0.09579 0.0
C289 C 0.21446 0.34251 0.09696 0.0
C290 C 0.2007 0.3403 0.10874 0.0
C291 C 0.17665 0.32356 0.13288 0.0
C292 C 0.16384 0.32503 0.12287 0.0
C293 C 0.176 0.32115 0.15503 0.0
C294 C 0.18955 0.32057 0.16704 0.0
C295 C 0.18563 0.3074 0.18118 0.0
C296 C 0.19787 0.30779 0.19456 0.0
C297 C 0.21433 0.32139 0.19412 0.0
C298 C 0.21836 0.33427 0.17935 0.0
C299 C 0.20608 0.33392 0.16608 0.0
H300 H 0.70849 0.87741 0.18279 0.0
H301 H 0.70697 0.89712 0.20719 0.0
H302 H 0.65856 0.88438 0.1817 0.0
H303 H 0.6598 0.86405 0.15819 0.0
H304 H 0.68818 0.84463 0.18341 0.0
H305 H 0.70082 0.88838 0.13173 0.0
H306 H 0.69485 0.90796 0.11287 0.0
H307 H 0.64959 0.8663 0.08784 0.0
H308 H 0.65512 0.84698 0.10758 0.0
H309 H 0.65481 0.80809 0.10835 0.0
H310 H 0.64903 0.7828 0.08939 0.0
H311 H 0.69435 0.78661 0.11458 0.0
H312 H 0.70051 0.81252 0.13277 0.0
H313 H 0.67756 0.83874 0.10626 0.0
H314 H 0.65927 0.79649 0.15885 0.0
H315 H 0.6575 0.77505 0.18291 0.0
H316 H 0.70576 0.81049 0.20895 0.0
H317 H 0.70785 0.83158 0.18395 0.0
C318 C 0.68434 0.86932 0.1685 0.0
C319 C 0.69762 0.87898 0.18234 0.0
C320 C 0.69678 0.89037 0.19618 0.0
C321 C 0.68261 0.89235 0.19651 0.0
C322 C 0.66956 0.88303 0.18213 0.0
C323 C 0.67035 0.87155 0.16842 0.0
C324 C 0.68444 0.85585 0.15568 0.0
C325 C 0.68629 0.84355 0.16642 0.0
C326 C 0.68119 0.85409 0.13366 0.0
C327 C 0.67832 0.86617 0.12135 0.0
C328 C 0.68955 0.88349 0.12231 0.0
C329 C 0.6862 0.89467 0.11131 0.0
C330 C 0.67164 0.88875 0.09895 0.0
C331 C 0.66073 0.87138 0.09754 0.0
C332 C 0.66399 0.86026 0.10865 0.0
C333 C 0.67803 0.81219 0.12217 0.0
C334 C 0.66363 0.80362 0.10963 0.0
C335 C 0.66024 0.78901 0.09896 0.0
C336 C 0.67111 0.78251 0.10064 0.0
C337 C 0.68575 0.7913 0.11283 0.0
C338 C 0.6892 0.80603 0.12343 0.0
C339 C 0.68102 0.82737 0.13408 0.0
C340 C 0.67984 0.84001 0.12317 0.0
C341 C 0.68422 0.82914 0.1561 0.0
C342 C 0.6838 0.81562 0.16935 0.0
C343 C 0.66969 0.79952 0.16931 0.0
C344 C 0.66859 0.78732 0.18335 0.0
C345 C 0.68143 0.79103 0.19806 0.0
C346 C 0.69572 0.80706 0.19771 0.0
C347 C 0.69689 0.81921 0.18351 0.0
H348 H 0.11847 0.83257 0.17253 0.0
H349 H 0.09712 0.8117 0.19585 0.0
H350 H 0.11869 0.77986 0.18701 0.0
H351 H 0.13932 0.80041 0.16295 0.0
H352 H 0.15452 0.847 0.18057 0.0
H353 H 0.1135 0.81747 0.12448 0.0
H354 H 0.09389 0.79272 0.10436 0.0
H355 H 0.13312 0.78085 0.0935 0.0
H356 H 0.15269 0.80593 0.11287 0.0
H357 H 0.19518 0.84916 0.11098 0.0
H358 H 0.21994 0.86882 0.09127 0.0
H359 H 0.20924 0.90842 0.10552 0.0
H360 H 0.18477 0.88866 0.12599 0.0
H361 H 0.16272 0.83912 0.10483 0.0
H362 H 0.20356 0.86568 0.15685 0.0
H363 H 0.22466 0.88552 0.18094 0.0
H364 H 0.18878 0.89819 0.20604 0.0
H365 H 0.16801 0.87912 0.18073 0.0
C366 C 0.13037 0.81796 0.16595 0.0
C367 C 0.11836 0.82095 0.17541 0.0
C368 C 0.10626 0.80904 0.1889 0.0
C369 C 0.10616 0.79405 0.19354 0.0
C370 C 0.11808 0.79103 0.18361 0.0
C371 C 0.12999 0.80283 0.16989 0.0
C372 C 0.14417 0.83115 0.15335 0.0
C373 C 0.15614 0.84562 0.16383 0.0
C374 C 0.14661 0.82874 0.13188 0.0
C375 C 0.13455 0.81353 0.12014 0.0
C376 C 0.11782 0.80949 0.11774 0.0
C377 C 0.10661 0.79527 0.1063 0.0
C378 C 0.11187 0.78473 0.09716 0.0
C379 C 0.12864 0.78881 0.09984 0.0
C380 C 0.13986 0.80311 0.11105 0.0
C381 C 0.18814 0.86744 0.11997 0.0
C382 C 0.19816 0.86208 0.10981 0.0
C383 C 0.21229 0.87336 0.09841 0.0
C384 C 0.2166 0.89026 0.09657 0.0
C385 C 0.20648 0.89559 0.10677 0.0
C386 C 0.19243 0.88429 0.11842 0.0
C387 C 0.17312 0.85526 0.13195 0.0
C388 C 0.16097 0.8409 0.1214 0.0
C389 C 0.17082 0.85756 0.1536 0.0
C390 C 0.18419 0.87102 0.16666 0.0
C391 C 0.20036 0.87314 0.16697 0.0
C392 C 0.21237 0.88431 0.18111 0.0
C393 C 0.20842 0.89335 0.1957 0.0
C394 C 0.19237 0.8916 0.19494 0.0
C395 C 0.18041 0.88058 0.18056 0.0
H396 H 0.2928 0.16916 0.85407 0.0
H397 H 0.29489 0.19011 0.82883 0.0
H398 H 0.3435 0.22543 0.85409 0.0
H399 H 0.34177 0.20411 0.87827 0.0
H400 H 0.31182 0.15559 0.85446 0.0
H401 H 0.30132 0.18888 0.90521 0.0
H402 H 0.30797 0.21491 0.92344 0.0
H403 H 0.35328 0.21817 0.94775 0.0
H404 H 0.34708 0.19285 0.92864 0.0
H405 H 0.34704 0.15432 0.92878 0.0
H406 H 0.35274 0.13525 0.94883 0.0
H407 H 0.30693 0.09334 0.92539 0.0
H408 H 0.30076 0.11268 0.90637 0.0
H409 H 0.3246 0.16254 0.9311 0.0
H410 H 0.34282 0.14074 0.87292 0.0
H411 H 0.34362 0.12059 0.84865 0.0
H412 H 0.29026 0.09817 0.83873 0.0
H413 H 0.28992 0.11909 0.86213 0.0
C414 C 0.31704 0.18505 0.86826 0.0
C415 C 0.30385 0.18147 0.85428 0.0
C416 C 0.30501 0.19354 0.83995 0.0
C417 C 0.31941 0.2095 0.83929 0.0
C418 C 0.33234 0.21322 0.85386 0.0
C419 C 0.33125 0.20109 0.86799 0.0
C420 C 0.31667 0.17158 0.88156 0.0
C421 C 0.31421 0.15698 0.87135 0.0
C422 C 0.32044 0.17362 0.90347 0.0
C423 C 0.32378 0.18896 0.9153 0.0
C424 C 0.31275 0.1953 0.91433 0.0
C425 C 0.31648 0.2101 0.92497 0.0
C426 C 0.33125 0.21876 0.93696 0.0
C427 C 0.34199 0.21208 0.93833 0.0
C428 C 0.33834 0.19743 0.92759 0.0
C429 C 0.32355 0.13498 0.91583 0.0
C430 C 0.33812 0.14103 0.92807 0.0
C431 C 0.34147 0.13005 0.93938 0.0
C432 C 0.3304 0.11268 0.9386 0.0
C433 C 0.31569 0.10663 0.92651 0.0
C434 C 0.31226 0.11767 0.91535 0.0
C435 C 0.32028 0.14692 0.90382 0.0
C436 C 0.32188 0.16109 0.9143 0.0
C437 C 0.31635 0.14486 0.88203 0.0
C438 C 0.31631 0.13135 0.86932 0.0
C439 C 0.33129 0.13135 0.86565 0.0
C440 C 0.33167 0.1197 0.85182 0.0
C441 C 0.31701 0.10768 0.84152 0.0
C442 C 0.30189 0.10742 0.84591 0.0
C443 C 0.3016 0.11926 0.85946 0.0
H444 H 0.8347 0.1241 0.85625 0.0
H445 H 0.81323 0.10483 0.83179 0.0
H446 H 0.77928 0.12062 0.8554 0.0
H447 H 0.8011 0.14051 0.87888 0.0
H448 H 0.84951 0.15669 0.85556 0.0
H449 H 0.81603 0.11496 0.90713 0.0
H450 H 0.79015 0.09597 0.92575 0.0
H451 H 0.78681 0.13842 0.94856 0.0
H452 H 0.81204 0.15717 0.92902 0.0
H453 H 0.85277 0.19822 0.92317 0.0
H454 H 0.87254 0.22313 0.94259 0.0
H455 H 0.91138 0.21076 0.93144 0.0
H456 H 0.89153 0.18612 0.91126 0.0
H457 H 0.84242 0.16521 0.93143 0.0
H458 H 0.86725 0.20402 0.8738 0.0
H459 H 0.88782 0.22373 0.84897 0.0
H460 H 0.90598 0.18924 0.83793 0.0
H461 H 0.88475 0.16929 0.8622 0.0
C462 C 0.81952 0.13368 0.8696 0.0
C463 C 0.82258 0.12332 0.85626 0.0
C464 C 0.81021 0.11218 0.84238 0.0
C465 C 0.79448 0.11116 0.84152 0.0
C466 C 0.79131 0.12122 0.85537 0.0
C467 C 0.80372 0.13245 0.86908 0.0
C468 C 0.83324 0.14679 0.88263 0.0
C469 C 0.8481 0.15824 0.87231 0.0
C470 C 0.83122 0.14919 0.90435 0.0
C471 C 0.81592 0.13752 0.91641 0.0
C472 C 0.80963 0.12016 0.91599 0.0
C473 C 0.79492 0.10931 0.92687 0.0
C474 C 0.78629 0.11562 0.93858 0.0
C475 C 0.7929 0.13305 0.93939 0.0
C476 C 0.80748 0.14384 0.92839 0.0
C477 C 0.87067 0.19032 0.91578 0.0
C478 C 0.86556 0.20089 0.92492 0.0
C479 C 0.87689 0.21509 0.93618 0.0
C480 C 0.8936 0.21896 0.93885 0.0
C481 C 0.89871 0.20834 0.92955 0.0
C482 C 0.88736 0.19419 0.91806 0.0
C483 C 0.85836 0.17512 0.90418 0.0
C484 C 0.84389 0.1633 0.91481 0.0
C485 C 0.86053 0.17249 0.8827 0.0
C486 C 0.87455 0.18525 0.8699 0.0
C487 C 0.87587 0.20085 0.8663 0.0
C488 C 0.88773 0.21215 0.85211 0.0
C489 C 0.89862 0.20813 0.84128 0.0
C490 C 0.89763 0.19268 0.84561 0.0
C491 C 0.88561 0.1813 0.85963 0.0
H492 H 0.80152 0.65885 0.87161 0.0
H493 H 0.78148 0.65949 0.84703 0.0
H494 H 0.8144 0.71267 0.83836 0.0
H495 H 0.83468 0.71165 0.86225 0.0
H496 H 0.84878 0.69012 0.85519 0.0
H497 H 0.80914 0.65143 0.9256 0.0
H498 H 0.78334 0.64465 0.94405 0.0
H499 H 0.78859 0.69191 0.9244 0.0
H500 H 0.81494 0.699 0.90685 0.0
H501 H 0.88966 0.70263 0.91061 0.0
H502 H 0.90979 0.69871 0.93136 0.0
H503 H 0.87114 0.64814 0.94585 0.0
H504 H 0.85106 0.65247 0.92586 0.0
H505 H 0.84002 0.6743 0.93094 0.0
H506 H 0.88107 0.70911 0.8561 0.0
H507 H 0.90072 0.70759 0.83156 0.0
H508 H 0.88755 0.65887 0.85632 0.0
H509 H 0.86728 0.66006 0.87984 0.0
C510 C 0.81953 0.68521 0.86878 0.0
C511 C 0.80429 0.67067 0.86457 0.0
C512 C 0.7928 0.6711 0.85056 0.0
C513 C 0.79627 0.68614 0.84056 0.0
C514 C 0.8114 0.7008 0.84537 0.0
C515 C 0.82296 0.70029 0.85917 0.0
C516 C 0.8324 0.68441 0.88191 0.0
C517 C 0.84713 0.68711 0.87192 0.0
C518 C 0.82964 0.67951 0.9034 0.0
C519 C 0.81394 0.67566 0.91461 0.0
C520 C 0.80483 0.66041 0.92539 0.0
C521 C 0.78994 0.65647 0.93577 0.0
C522 C 0.78375 0.66765 0.93557 0.0
C523 C 0.79302 0.68304 0.92502 0.0
C524 C 0.808 0.68703 0.91473 0.0
C525 C 0.86887 0.67785 0.9167 0.0
C526 C 0.88557 0.69073 0.91832 0.0
C527 C 0.89708 0.68842 0.93012 0.0
C528 C 0.89216 0.67311 0.94041 0.0
C529 C 0.87538 0.66023 0.93862 0.0
C530 C 0.86386 0.66264 0.92706 0.0
C531 C 0.85655 0.68018 0.90427 0.0
C532 C 0.84191 0.67772 0.91435 0.0
C533 C 0.85904 0.68461 0.8826 0.0
C534 C 0.87276 0.68478 0.87001 0.0
C535 C 0.88256 0.69818 0.8564 0.0
C536 C 0.8939 0.69734 0.84246 0.0
C537 C 0.89568 0.68305 0.84183 0.0
C538 C 0.88634 0.66995 0.85611 0.0
C539 C 0.87491 0.67074 0.86988 0.0
H540 H 0.80693 0.6765 0.49842 0.0
H541 H 0.78647 0.67589 0.52338 0.0
H542 H 0.76685 0.62285 0.5327 0.0
H543 H 0.78796 0.62386 0.50843 0.0
H544 H 0.8234 0.64551 0.51497 0.0
H545 H 0.82157 0.68356 0.44383 0.0
H546 H 0.80217 0.68955 0.42498 0.0
H547 H 0.76082 0.64241 0.4461 0.0
H548 H 0.78047 0.63606 0.46394 0.0
H549 H 0.85239 0.63378 0.45899 0.0
H550 H 0.8768 0.63846 0.43835 0.0
H551 H 0.88781 0.68897 0.42511 0.0
H552 H 0.86307 0.68387 0.44494 0.0
H553 H 0.83027 0.66138 0.43924 0.0
H554 H 0.83688 0.6266 0.51367 0.0
H555 H 0.85814 0.62795 0.53785 0.0
H556 H 0.89345 0.67689 0.51352 0.0
H557 H 0.87189 0.67589 0.49044 0.0
C558 C 0.79891 0.65022 0.50155 0.0
C559 C 0.79807 0.66472 0.50567 0.0
C560 C 0.78626 0.6643 0.5199 0.0
C561 C 0.77494 0.64931 0.53022 0.0
C562 C 0.77553 0.63469 0.52545 0.0
C563 C 0.78749 0.63519 0.51142 0.0
C564 C 0.81257 0.65109 0.48831 0.0
C565 C 0.82472 0.64854 0.49825 0.0
C566 C 0.81463 0.65594 0.46681 0.0
C567 C 0.80252 0.65942 0.45554 0.0
C568 C 0.80834 0.67443 0.44429 0.0
C569 C 0.79717 0.67793 0.43368 0.0
C570 C 0.77985 0.66655 0.43414 0.0
C571 C 0.77406 0.65143 0.44524 0.0
C572 C 0.78528 0.64787 0.45572 0.0
C573 C 0.85591 0.65847 0.45347 0.0
C574 C 0.86008 0.64582 0.45156 0.0
C575 C 0.87411 0.64858 0.43983 0.0
C576 C 0.88434 0.6641 0.42992 0.0
C577 C 0.88009 0.67673 0.43203 0.0
C578 C 0.86597 0.67389 0.4435 0.0
C579 C 0.8411 0.65572 0.46589 0.0
C580 C 0.82878 0.65796 0.45583 0.0
C581 C 0.83919 0.65122 0.48752 0.0
C582 C 0.85277 0.65105 0.50002 0.0
C583 C 0.84926 0.63755 0.51341 0.0
C584 C 0.8615 0.63829 0.52714 0.0
C585 C 0.87754 0.65258 0.52777 0.0
C586 C 0.88118 0.6658 0.51375 0.0
C587 C 0.8689 0.66512 0.50021 0.0
H588 H 0.38099 0.21543 0.50513 0.0
H589 H 0.38239 0.23737 0.52825 0.0
H590 H 0.32939 0.218 0.51892 0.0
H591 H 0.32841 0.19676 0.49511 0.0
H592 H 0.35839 0.17987 0.51342 0.0
H593 H 0.37108 0.22069 0.45652 0.0
H594 H 0.36651 0.2407 0.43644 0.0
H595 H 0.31492 0.20253 0.4265 0.0
H596 H 0.31986 0.18254 0.44578 0.0
H597 H 0.31989 0.14095 0.44129 0.0
H598 H 0.3133 0.11537 0.42244 0.0
H599 H 0.3595 0.11939 0.44453 0.0
H600 H 0.36645 0.14556 0.46251 0.0
H601 H 0.34227 0.17141 0.43776 0.0
H602 H 0.32649 0.13086 0.49138 0.0
H603 H 0.32505 0.10965 0.51553 0.0
H604 H 0.37463 0.14459 0.53843 0.0
H605 H 0.37638 0.1654 0.51321 0.0
C606 C 0.35464 0.20458 0.49833 0.0
C607 C 0.36977 0.21616 0.50785 0.0
C608 C 0.37049 0.22859 0.52122 0.0
C609 C 0.35598 0.22948 0.52567 0.0
C610 C 0.34091 0.21801 0.51565 0.0
C611 C 0.34028 0.20575 0.50207 0.0
C612 C 0.3534 0.19036 0.48598 0.0
C613 C 0.35533 0.17814 0.49671 0.0
C614 C 0.34853 0.18785 0.46453 0.0
C615 C 0.34582 0.20013 0.4526 0.0
C616 C 0.35881 0.21668 0.44995 0.0
C617 C 0.35613 0.22813 0.43855 0.0
C618 C 0.34034 0.22329 0.4297 0.0
C619 C 0.32735 0.20668 0.43259 0.0
C620 C 0.3301 0.19522 0.44376 0.0
C621 C 0.34361 0.14517 0.45351 0.0
C622 C 0.32871 0.13645 0.44192 0.0
C623 C 0.32486 0.12168 0.43131 0.0
C624 C 0.33577 0.11517 0.43211 0.0
C625 C 0.35085 0.12407 0.44343 0.0
C626 C 0.35476 0.13896 0.45394 0.0
C627 C 0.34731 0.16068 0.46515 0.0
C628 C 0.34577 0.17317 0.45432 0.0
C629 C 0.35194 0.16312 0.4868 0.0
C630 C 0.35164 0.14971 0.5002 0.0
C631 C 0.33725 0.13382 0.50114 0.0
C632 C 0.33634 0.12175 0.51527 0.0
C633 C 0.34966 0.12539 0.52915 0.0
C634 C 0.3642 0.14121 0.52785 0.0
C635 C 0.36518 0.15321 0.51353 0.0
H636 H 0.78838 0.16533 0.51237 0.0
H637 H 0.76864 0.14456 0.53715 0.0
H638 H 0.78146 0.10845 0.51324 0.0
H639 H 0.80186 0.12953 0.48956 0.0
H640 H 0.82069 0.17824 0.51356 0.0
H641 H 0.7797 0.14916 0.45769 0.0
H642 H 0.7599 0.1247 0.43723 0.0
H643 H 0.79906 0.11306 0.42449 0.0
H644 H 0.81879 0.13786 0.4441 0.0
H645 H 0.85992 0.17866 0.44237 0.0
H646 H 0.88553 0.19751 0.42358 0.0
H647 H 0.88107 0.23975 0.44458 0.0
H648 H 0.85482 0.22064 0.46235 0.0
H649 H 0.82935 0.17066 0.43791 0.0
H650 H 0.86808 0.19377 0.49628 0.0
H651 H 0.8884 0.21412 0.52088 0.0
H652 H 0.85566 0.23442 0.53156 0.0
H653 H 0.83511 0.21347 0.50756 0.0
C654 C 0.79654 0.14901 0.49889 0.0
C655 C 0.78679 0.15287 0.51231 0.0
C656 C 0.7754 0.14091 0.52639 0.0
C657 C 0.7735 0.12481 0.52734 0.0
C658 C 0.78276 0.12078 0.51322 0.0
C659 C 0.79427 0.13278 0.49934 0.0
C660 C 0.81035 0.16235 0.48624 0.0
C661 C 0.82233 0.17678 0.49685 0.0
C662 C 0.81287 0.16022 0.46464 0.0
C663 C 0.80072 0.14534 0.45238 0.0
C664 C 0.78397 0.14132 0.4504 0.0
C665 C 0.77264 0.12726 0.43878 0.0
C666 C 0.77781 0.11683 0.42905 0.0
C667 C 0.79463 0.12093 0.43124 0.0
C668 C 0.80596 0.13508 0.4426 0.0
C669 C 0.85546 0.19818 0.454 0.0
C670 C 0.86435 0.19196 0.44279 0.0
C671 C 0.87915 0.20282 0.43223 0.0
C672 C 0.88553 0.22022 0.4327 0.0
C673 C 0.8765 0.22643 0.44372 0.0
C674 C 0.86158 0.21552 0.45415 0.0
C675 C 0.8398 0.1864 0.46534 0.0
C676 C 0.82749 0.17231 0.45448 0.0
C677 C 0.83712 0.18865 0.48684 0.0
C678 C 0.85014 0.20217 0.50003 0.0
C679 C 0.86541 0.20276 0.50373 0.0
C680 C 0.87706 0.21449 0.51777 0.0
C681 C 0.87373 0.22598 0.52834 0.0
C682 C 0.85857 0.22561 0.52408 0.0
C683 C 0.84684 0.21373 0.51021 0.0
H684 H 0.96468 0.50669 0.19039 0.0
H685 H 0.96613 0.52782 0.16589 0.0
H686 H 0.01549 0.5629 0.18926 0.0
H687 H 0.01427 0.54147 0.21293 0.0
H688 H 0.9838 0.493 0.18954 0.0
H689 H 0.97321 0.5253 0.24074 0.0
H690 H 0.97902 0.55094 0.25922 0.0
H691 H 0.02515 0.55583 0.28307 0.0
H692 H 0.01974 0.53081 0.26368 0.0
H693 H 0.02015 0.49136 0.26244 0.0
H694 H 0.02586 0.47203 0.28191 0.0
H695 H 0.97908 0.43059 0.25998 0.0
H696 H 0.97297 0.45019 0.24155 0.0
H697 H 0.99786 0.50006 0.26585 0.0
H698 H 0.01446 0.47736 0.20642 0.0
H699 H 0.01407 0.45667 0.18203 0.0
H700 H 0.96057 0.43513 0.17461 0.0
H701 H 0.9614 0.45658 0.19809 0.0
C702 C 0.98929 0.52249 0.20366 0.0
C703 C 0.97576 0.51899 0.19035 0.0
C704 C 0.97656 0.53114 0.17645 0.0
C705 C 0.99095 0.54709 0.17553 0.0
C706 C 0.0043 0.5507 0.18932 0.0
C707 C 0.00353 0.53851 0.20311 0.0
C708 C 0.98914 0.50902 0.2167 0.0
C709 C 0.98649 0.49441 0.20636 0.0
C710 C 0.99317 0.51106 0.23853 0.0
C711 C 0.99613 0.52619 0.25055 0.0
C712 C 0.98465 0.53198 0.2498 0.0
C713 C 0.9879 0.54656 0.2606 0.0
C714 C 0.00263 0.55557 0.27257 0.0
C715 C 0.01386 0.54945 0.2737 0.0
C716 C 0.01067 0.53499 0.26279 0.0
C717 C 0.99622 0.47227 0.25027 0.0
C718 C 0.01103 0.47813 0.26195 0.0
C719 C 0.01438 0.467 0.27291 0.0
C720 C 0.00303 0.44968 0.27237 0.0
C721 C 0.98806 0.44384 0.2609 0.0
C722 C 0.98465 0.45503 0.25007 0.0
C723 C 0.99298 0.48434 0.23851 0.0
C724 C 0.99487 0.49859 0.24912 0.0
C725 C 0.98864 0.48223 0.21684 0.0
C726 C 0.98796 0.46845 0.20404 0.0
C727 C 0.00265 0.46805 0.19966 0.0
C728 C 0.00235 0.45609 0.18577 0.0
C729 C 0.98728 0.44415 0.17613 0.0
C730 C 0.97248 0.4443 0.18126 0.0
C731 C 0.97287 0.45645 0.19485 0.0
H732 H 0.49937 0.45664 0.18755 0.0
H733 H 0.47802 0.43731 0.16298 0.0
H734 H 0.44314 0.45129 0.1882 0.0
H735 H 0.46478 0.47126 0.21169 0.0
H736 H 0.51349 0.48894 0.18743 0.0
H737 H 0.48416 0.44786 0.24219 0.0
H738 H 0.45995 0.42782 0.26276 0.0
H739 H 0.4485 0.46684 0.2775 0.0
H740 H 0.47309 0.48682 0.25773 0.0
H741 H 0.51596 0.53056 0.25448 0.0
H742 H 0.53551 0.55561 0.27387 0.0
H743 H 0.57457 0.54337 0.26381 0.0
H744 H 0.55497 0.51864 0.2436 0.0
H745 H 0.50588 0.49733 0.2632 0.0
H746 H 0.53088 0.53646 0.20576 0.0
H747 H 0.55193 0.55654 0.18167 0.0
H748 H 0.57024 0.52218 0.17062 0.0
H749 H 0.5486 0.50189 0.19418 0.0
C750 C 0.4837 0.46533 0.20169 0.0
C751 C 0.48707 0.45542 0.18791 0.0
C752 C 0.47478 0.44426 0.17396 0.0
C753 C 0.45883 0.44276 0.17348 0.0
C754 C 0.45533 0.45227 0.18786 0.0
C755 C 0.46766 0.46353 0.20162 0.0
C756 C 0.49732 0.47872 0.21455 0.0
C757 C 0.51201 0.49047 0.20417 0.0
C758 C 0.49524 0.48109 0.23623 0.0
C759 C 0.48042 0.46882 0.24844 0.0
C760 C 0.47641 0.45205 0.24991 0.0
C761 C 0.46249 0.44059 0.26161 0.0
C762 C 0.4522 0.44565 0.27193 0.0
C763 C 0.45628 0.46249 0.27025 0.0
C764 C 0.4703 0.47396 0.25881 0.0
C765 C 0.53401 0.52275 0.24759 0.0
C766 C 0.52875 0.5333 0.25645 0.0
C767 C 0.53996 0.54758 0.2677 0.0
C768 C 0.55667 0.55152 0.27067 0.0
C769 C 0.5619 0.54091 0.26167 0.0
C770 C 0.55069 0.5267 0.25018 0.0
C771 C 0.52187 0.5075 0.23598 0.0
C772 C 0.50752 0.49547 0.24662 0.0
C773 C 0.5242 0.50489 0.21453 0.0
C774 C 0.53825 0.51774 0.20183 0.0
C775 C 0.53961 0.53338 0.19839 0.0
C776 C 0.55174 0.54489 0.18463 0.0
C777 C 0.56286 0.54104 0.17407 0.0
C778 C 0.56175 0.52551 0.17812 0.0
C779 C 0.54947 0.51393 0.19173 0.0
H780 H 0.54818 0.04477 0.19446 0.0
H781 H 0.56997 0.04618 0.17106 0.0
H782 H 0.55056 0.99314 0.18007 0.0
H783 H 0.52949 0.99216 0.20419 0.0
H784 H 0.51232 0.02179 0.18626 0.0
H785 H 0.55383 0.0351 0.24273 0.0
H786 H 0.57382 0.03078 0.26327 0.0
H787 H 0.53564 0.97931 0.27395 0.0
H788 H 0.5157 0.984 0.25418 0.0
H789 H 0.47431 0.98408 0.25939 0.0
H790 H 0.44899 0.97776 0.27869 0.0
H791 H 0.45268 0.02363 0.25582 0.0
H792 H 0.47861 0.03034 0.2374 0.0
H793 H 0.50479 0.00653 0.26221 0.0
H794 H 0.4638 0.98969 0.20909 0.0
H795 H 0.44209 0.98781 0.18544 0.0
H796 H 0.4761 0.03754 0.1622 0.0
H797 H 0.49747 0.03967 0.18678 0.0
C798 C 0.53734 0.0184 0.20113 0.0
C799 C 0.54887 0.03355 0.19162 0.0
C800 C 0.56122 0.03427 0.17808 0.0
C801 C 0.56204 0.01975 0.17344 0.0
C802 C 0.55061 0.00467 0.18346 0.0
C803 C 0.53846 0.00403 0.19722 0.0
C804 C 0.5232 0.01717 0.21364 0.0
C805 C 0.5108 0.0189 0.20302 0.0
C806 C 0.52092 0.01251 0.23515 0.0
C807 C 0.53328 0.00988 0.24698 0.0
C808 C 0.54983 0.0229 0.24951 0.0
C809 C 0.56126 0.02037 0.2612 0.0
C810 C 0.55638 0.00471 0.27046 0.0
C811 C 0.5398 0.99165 0.26756 0.0
C812 C 0.52838 0.99426 0.25611 0.0
C813 C 0.47835 0.00763 0.24675 0.0
C814 C 0.46979 0.99289 0.25869 0.0
C815 C 0.45517 0.98919 0.26955 0.0
C816 C 0.44865 1.00009 0.26867 0.0
C817 C 0.45738 0.015 0.25699 0.0
C818 C 0.47212 0.01876 0.24623 0.0
C819 C 0.49372 0.01119 0.23489 0.0
C820 C 0.50635 0.00983 0.24558 0.0
C821 C 0.49587 0.01553 0.21316 0.0
C822 C 0.48224 0.01492 0.19997 0.0
C823 C 0.46646 1.00037 0.19932 0.0
C824 C 0.45411 0.99922 0.18552 0.0
C825 C 0.45734 0.01248 0.17176 0.0
C826 C 0.47306 0.02716 0.17273 0.0
C827 C 0.48536 0.02836 0.18668 0.0
H828 H 0.48645 0.01262 0.85417 0.0
H829 H 0.4652 0.01333 0.87636 0.0
H830 H 0.42674 0.96994 0.84381 0.0
H831 H 0.44825 0.96918 0.82166 0.0
H832 H 0.49427 0.98838 0.85209 0.0
H833 H 0.47756 0.01729 0.80553 0.0
H834 H 0.45861 0.02311 0.78518 0.0
H835 H 0.44319 0.97815 0.7486 0.0
H836 H 0.46204 0.97219 0.76948 0.0
H837 H 0.51162 0.97171 0.77036 0.0
H838 H 0.53669 0.9776 0.75005 0.0
H839 H 0.56587 0.0222 0.78733 0.0
H840 H 0.54087 0.01645 0.80715 0.0
H841 H 0.497 0.99203 0.77383 0.0
H842 H 0.52064 0.96791 0.8233 0.0
H843 H 0.54211 0.96797 0.84635 0.0
H844 H 0.54774 0.01199 0.87809 0.0
H845 H 0.52653 0.01193 0.85506 0.0
C846 C 0.46894 0.99084 0.83628 0.0
C847 C 0.47343 0.0033 0.85172 0.0
C848 C 0.46125 0.00377 0.86428 0.0
C849 C 0.44427 0.99172 0.86179 0.0
C850 C 0.43973 0.97933 0.84615 0.0
C851 C 0.45197 0.97894 0.83342 0.0
C852 C 0.48221 0.99009 0.82387 0.0
C853 C 0.49486 0.98916 0.83496 0.0
C854 C 0.48286 0.99097 0.80154 0.0
C855 C 0.47106 0.99419 0.78922 0.0
C856 C 0.46997 0.00857 0.7933 0.0
C857 C 0.45925 0.01198 0.78148 0.0
C858 C 0.44942 0.00113 0.7652 0.0
C859 C 0.45048 0.98668 0.76116 0.0
C860 C 0.4613 0.9833 0.77297 0.0
C861 C 0.52441 0.99354 0.79042 0.0
C862 C 0.52346 0.9827 0.77417 0.0
C863 C 0.53779 0.98604 0.76267 0.0
C864 C 0.55325 1.0004 0.76704 0.0
C865 C 0.55413 0.01114 0.7834 0.0
C866 C 0.53987 0.00777 0.79491 0.0
C867 C 0.50923 0.99056 0.80213 0.0
C868 C 0.49615 0.99075 0.7909 0.0
C869 C 0.50848 0.98965 0.82446 0.0
C870 C 0.52201 0.98993 0.83746 0.0
C871 C 0.52665 0.97764 0.8351 0.0
C872 C 0.53881 0.97763 0.84835 0.0
C873 C 0.54664 0.99001 0.86399 0.0
C874 C 0.54211 0.00241 0.86603 0.0
C875 C 0.5299 0.00232 0.85298 0.0
H876 H 0.04023 0.5431 0.84797 0.0
H877 H 0.03934 0.5634 0.87198 0.0
H878 H 0.99095 0.55117 0.84697 0.0
H879 H 0.99156 0.53033 0.82384 0.0
H880 H 0.0198 0.51049 0.84914 0.0
H881 H 0.03453 0.55252 0.79374 0.0
H882 H 0.03089 0.57282 0.77294 0.0
H883 H 0.98049 0.5343 0.75746 0.0
H884 H 0.98455 0.51407 0.77746 0.0
H885 H 0.98437 0.47264 0.77555 0.0
H886 H 0.97856 0.44744 0.75632 0.0
H887 H 0.02466 0.45195 0.77969 0.0
H888 H 0.03082 0.47776 0.79811 0.0
H889 H 0.00709 0.50343 0.77247 0.0
H890 H 0.99036 0.46182 0.82618 0.0
H891 H 0.98971 0.4408 0.85013 0.0
H892 H 0.03871 0.47696 0.87348 0.0
H893 H 0.03964 0.49761 0.84863 0.0
C894 C 0.01605 0.53527 0.83392 0.0
C895 C 0.02951 0.54493 0.84751 0.0
C896 C 0.02903 0.55664 0.86114 0.0
C897 C 0.01504 0.55891 0.8615 0.0
C898 C 0.00182 0.54961 0.84734 0.0
C899 C 0.00227 0.53784 0.83383 0.0
C900 C 0.01565 0.52142 0.82141 0.0
C901 C 0.01748 0.50914 0.83224 0.0
C902 C 0.01193 0.51934 0.79956 0.0
C903 C 0.00982 0.53179 0.78712 0.0
C904 C 0.02273 0.5485 0.78579 0.0
C905 C 0.02058 0.56011 0.77396 0.0
C906 C 0.0054 0.55526 0.76337 0.0
C907 C 0.99249 0.53848 0.76491 0.0
C908 C 0.99474 0.52687 0.77649 0.0
C909 C 0.00797 0.47707 0.78847 0.0
C910 C 0.99333 0.46832 0.7764 0.0
C911 C 0.98993 0.45377 0.76557 0.0
C912 C 1.00104 0.44751 0.76661 0.0
C913 C 0.01586 0.45644 0.77842 0.0
C914 C 0.01932 0.47111 0.78917 0.0
C915 C 0.01116 0.49237 0.80023 0.0
C916 C 0.00984 0.50492 0.78927 0.0
C917 C 0.01502 0.49452 0.8221 0.0
C918 C 0.01514 0.48127 0.83537 0.0
C919 C 1.00115 0.4651 0.83605 0.0
C920 C 1.0007 0.45314 0.85002 0.0
C921 C 0.01411 0.45717 0.86391 0.0
C922 C 0.02825 0.47329 0.86286 0.0
C923 C 0.02875 0.48519 0.84876 0.0
H924 H 0.45597 0.49989 0.84803 0.0
H925 H 0.43672 0.47834 0.87241 0.0
H926 H 0.45231 0.44439 0.84818 0.0
H927 H 0.47218 0.46629 0.82483 0.0
H928 H 0.4887 0.51436 0.84891 0.0
H929 H 0.44667 0.48114 0.79676 0.0
H930 H 0.42795 0.45503 0.77831 0.0
H931 H 0.4708 0.45235 0.75579 0.0
H932 H 0.48928 0.47779 0.7751 0.0
H933 H 0.5275 0.51616 0.77715 0.0
H934 H 0.55312 0.53524 0.75859 0.0
H935 H 0.5483 0.57717 0.77997 0.0
H936 H 0.52203 0.55782 0.79761 0.0
H937 H 0.49691 0.50804 0.77274 0.0
H938 H 0.53583 0.53105 0.83103 0.0
H939 H 0.55598 0.55133 0.85583 0.0
H940 H 0.52262 0.57079 0.86729 0.0
H941 H 0.50224 0.54989 0.84306 0.0
C942 C 0.46543 0.48471 0.83439 0.0
C943 C 0.45513 0.48775 0.84786 0.0
C944 C 0.44401 0.47534 0.86169 0.0
C945 C 0.44296 0.45959 0.86237 0.0
C946 C 0.45293 0.45643 0.84837 0.0
C947 C 0.46415 0.46889 0.83471 0.0
C948 C 0.4786 0.49849 0.82153 0.0
C949 C 0.49023 0.51313 0.8321 0.0
C950 C 0.48095 0.49668 0.79974 0.0
C951 C 0.46941 0.48138 0.78757 0.0
C952 C 0.45201 0.47485 0.78795 0.0
C953 C 0.44132 0.46 0.7772 0.0
C954 C 0.44783 0.45146 0.76568 0.0
C955 C 0.46529 0.45835 0.76483 0.0
C956 C 0.47592 0.47306 0.77569 0.0
C957 C 0.52284 0.53551 0.78898 0.0
C958 C 0.53184 0.52945 0.77771 0.0
C959 C 0.54664 0.54043 0.76727 0.0
C960 C 0.55294 0.5578 0.76795 0.0
C961 C 0.54379 0.56387 0.77899 0.0
C962 C 0.52885 0.55282 0.78932 0.0
C963 C 0.50725 0.52354 0.80032 0.0
C964 C 0.49511 0.50938 0.78942 0.0
C965 C 0.50468 0.52546 0.82196 0.0
C966 C 0.5176 0.53904 0.83514 0.0
C967 C 0.53299 0.53986 0.83868 0.0
C968 C 0.54454 0.55155 0.85284 0.0
C969 C 0.54098 0.56277 0.8637 0.0
C970 C 0.52571 0.5622 0.85956 0.0
C971 C 0.51408 0.55035 0.84558 0.0
H972 H 0.6242 0.83903 0.53197 0.0
H973 H 0.62396 0.8597 0.50808 0.0
H974 H 0.67759 0.89056 0.51535 0.0
H975 H 0.67743 0.87026 0.54009 0.0
H976 H 0.64463 0.82345 0.52421 0.0
H977 H 0.63665 0.8572 0.57577 0.0
H978 H 0.64312 0.88305 0.59413 0.0
H979 H 0.69023 0.88839 0.61469 0.0
H980 H 0.68415 0.8632 0.59525 0.0
H981 H 0.6843 0.82364 0.59483 0.0
H982 H 0.69071 0.80471 0.6141 0.0
H983 H 0.64318 0.76285 0.59504 0.0
H984 H 0.63642 0.78205 0.57676 0.0
H985 H 0.66236 0.83255 0.59931 0.0
H986 H 0.67667 0.80836 0.54084 0.0
H987 H 0.67619 0.78746 0.5168 0.0
H988 H 0.62278 0.76625 0.50894 0.0
H989 H 0.62366 0.78785 0.53222 0.0
C990 C 0.6508 0.85319 0.53787 0.0
C991 C 0.63583 0.85041 0.52862 0.0
C992 C 0.63577 0.8622 0.51479 0.0
C993 C 0.65078 0.87685 0.50951 0.0
C994 C 0.66572 0.87966 0.51921 0.0
C995 C 0.6657 0.868 0.53331 0.0
C996 C 0.65119 0.84006 0.5509 0.0
C997 C 0.64812 0.82525 0.54079 0.0
C998 C 0.65638 0.84278 0.57228 0.0
C999 C 0.66 0.85832 0.58381 0.0
C1000 C 0.64849 0.86408 0.58395 0.0
C1001 C 0.65211 0.87877 0.59475 0.0
C1002 C 0.66725 0.88792 0.60587 0.0
C1003 C 0.6786 0.88192 0.60598 0.0
C1004 C 0.67505 0.86735 0.59504 0.0
C1005 C 0.65994 0.80431 0.58412 0.0
C1006 C 0.67517 0.8104 0.59493 0.0
C1007 C 0.67891 0.7995 0.60578 0.0
C1008 C 0.66755 0.78218 0.60599 0.0
C1009 C 0.65219 0.7761 0.59537 0.0
C1010 C 0.64839 0.78706 0.58464 0.0
C1011 C 0.65625 0.8161 0.57247 0.0
C1012 C 0.65859 0.83062 0.58284 0.0
C1013 C 0.65097 0.81344 0.55111 0.0
C1014 C 0.6502 0.7996 0.53834 0.0
C1015 C 0.66485 0.79907 0.5341 0.0
C1016 C 0.6645 0.787 0.52039 0.0
C1017 C 0.64943 0.77508 0.51077 0.0
C1018 C 0.63468 0.77538 0.51565 0.0
C1019 C 0.6351 0.78763 0.52911 0.0
H1020 H 0.16655 0.79048 0.52266 0.0
H1021 H 0.14559 0.77151 0.4975 0.0
H1022 H 0.11074 0.78606 0.52131 0.0
H1023 H 0.13208 0.80571 0.54544 0.0
H1024 H 0.18088 0.8229 0.52262 0.0
H1025 H 0.14714 0.78045 0.57337 0.0
H1026 H 0.1212 0.76112 0.59159 0.0
H1027 H 0.11733 0.80309 0.6151 0.0
H1028 H 0.14261 0.82219 0.59591 0.0
H1029 H 0.1834 0.86387 0.59032 0.0
H1030 H 0.20312 0.88891 0.60959 0.0
H1031 H 0.24195 0.87638 0.59925 0.0
H1032 H 0.22217 0.85165 0.57918 0.0
H1033 H 0.173 0.83052 0.59853 0.0
H1034 H 0.19725 0.86952 0.54061 0.0
H1035 H 0.21802 0.88969 0.51634 0.0
H1036 H 0.23825 0.85671 0.50723 0.0
H1037 H 0.21677 0.83625 0.53081 0.0
C1038 C 0.15091 0.79946 0.53613 0.0
C1039 C 0.15434 0.78948 0.52256 0.0
C1040 C 0.14226 0.77851 0.50827 0.0
C1041 C 0.12643 0.77726 0.50724 0.0
C1042 C 0.12285 0.78687 0.52137 0.0
C1043 C 0.13499 0.79795 0.53547 0.0
C1044 C 0.16439 0.81254 0.54945 0.0
C1045 C 0.17928 0.82423 0.53938 0.0
C1046 C 0.16213 0.8147 0.57118 0.0
C1047 C 0.14677 0.80281 0.58299 0.0
C1048 C 0.14061 0.78547 0.58228 0.0
C1049 C 0.12585 0.77443 0.59294 0.0
C1050 C 0.11705 0.7805 0.60474 0.0
C1051 C 0.12353 0.7979 0.60584 0.0
C1052 C 0.13815 0.80889 0.59505 0.0
C1053 C 0.20131 0.85591 0.58332 0.0
C1054 C 0.19616 0.86653 0.59224 0.0
C1055 C 0.20748 0.88081 0.6034 0.0
C1056 C 0.22418 0.88469 0.60621 0.0
C1057 C 0.22929 0.87397 0.59722 0.0
C1058 C 0.21798 0.85976 0.58582 0.0
C1059 C 0.18914 0.84079 0.57152 0.0
C1060 C 0.17462 0.82879 0.58191 0.0
C1061 C 0.19151 0.83843 0.55003 0.0
C1062 C 0.20553 0.85145 0.53752 0.0
C1063 C 0.20634 0.86678 0.5336 0.0
C1064 C 0.21832 0.87835 0.51975 0.0
C1065 C 0.22988 0.87489 0.50964 0.0
C1066 C 0.22939 0.85971 0.51432 0.0
C1067 C 0.21722 0.84805 0.52796 0.0
H1068 H 0.13126 0.32441 0.54509 0.0
H1069 H 0.10974 0.32303 0.52153 0.0
H1070 H 0.14484 0.37205 0.49718 0.0
H1071 H 0.16603 0.37373 0.52173 0.0
H1072 H 0.17965 0.35465 0.52119 0.0
H1073 H 0.14216 0.31873 0.5951 0.0
H1074 H 0.11681 0.31278 0.61403 0.0
H1075 H 0.12141 0.35896 0.59085 0.0
H1076 H 0.14737 0.36528 0.57278 0.0
H1077 H 0.2226 0.36541 0.573 0.0
H1078 H 0.24218 0.35911 0.59113 0.0
H1079 H 0.20071 0.31234 0.61299 0.0
H1080 H 0.18136 0.31828 0.59388 0.0
H1081 H 0.17287 0.34082 0.59756 0.0
H1082 H 0.21643 0.37673 0.52963 0.0
H1083 H 0.23743 0.37695 0.50587 0.0
H1084 H 0.21469 0.32331 0.51312 0.0
H1085 H 0.19447 0.32351 0.53782 0.0
C1086 C 0.15025 0.34928 0.53544 0.0
C1087 C 0.13421 0.33507 0.53512 0.0
C1088 C 0.12196 0.33419 0.52136 0.0
C1089 C 0.12555 0.34737 0.50727 0.0
C1090 C 0.14152 0.36175 0.50795 0.0
C1091 C 0.15372 0.36268 0.52189 0.0
C1092 C 0.16377 0.34949 0.54845 0.0
C1093 C 0.17831 0.35204 0.53803 0.0
C1094 C 0.16181 0.3455 0.57029 0.0
C1095 C 0.14665 0.34239 0.58231 0.0
C1096 C 0.13786 0.3277 0.59429 0.0
C1097 C 0.12321 0.32421 0.60492 0.0
C1098 C 0.1169 0.33528 0.60377 0.0
C1099 C 0.12593 0.3502 0.5922 0.0
C1100 C 0.1407 0.35375 0.58165 0.0
C1101 C 0.20049 0.34221 0.58176 0.0
C1102 C 0.21775 0.3537 0.58147 0.0
C1103 C 0.22893 0.35018 0.59211 0.0
C1104 C 0.22307 0.33516 0.60346 0.0
C1105 C 0.20574 0.32388 0.60409 0.0
C1106 C 0.19461 0.32735 0.59334 0.0
C1107 C 0.18845 0.34556 0.57012 0.0
C1108 C 0.1743 0.34379 0.58083 0.0
C1109 C 0.19046 0.3498 0.54844 0.0
C1110 C 0.20401 0.35013 0.53552 0.0
C1111 C 0.21621 0.3651 0.52631 0.0
C1112 C 0.2281 0.36514 0.51254 0.0
C1113 C 0.22776 0.35012 0.50728 0.0
C1114 C 0.21563 0.33518 0.51696 0.0
C1115 C 0.20395 0.33522 0.53103 0.0
H1116 H 0.01988 0.3948 0.08806 0.0
H1117 H 0.9675 0.43169 0.14063 0.0
H1118 H 0.96873 0.37788 0.07028 0.0
H1119 H 0.00698 0.42937 0.17445 0.0
H1120 H 0.9686 0.41349 0.11352 0.0
H1121 H 0.01651 0.40925 0.11853 0.0
C1122 C 0.0079 0.39404 0.09064 0.0
C1123 C 0.99457 0.38516 0.07656 0.0
C1124 C 0.97692 0.41687 0.12699 0.0
C1125 C 0.99074 0.40187 0.11121 0.0
C1126 C 0.97625 0.42722 0.14263 0.0
C1127 C 0.98719 0.43222 0.16003 0.0
C1128 C 0.98881 0.41169 0.12845 0.0
C1129 C 0.99852 0.42622 0.1612 0.0
C1130 C 0.00599 0.40224 0.10806 0.0
C1131 C 0.97932 0.38454 0.08074 0.0
N1132 N 0.99915 0.41644 0.14554 0.0
N1133 N 0.97789 0.39297 0.09753 0.0
H1134 H 0.62384 0.586 0.0621 0.0
H1135 H 0.58011 0.57553 0.17468 0.0
H1136 H 0.61364 0.62299 0.08908 0.0
H1137 H 0.57304 0.53351 0.13671 0.0
H1138 H 0.59748 0.59438 0.14661 0.0
H1139 H 0.61038 0.56796 0.0928 0.0
C1140 C 0.61895 0.59041 0.07457 0.0
C1141 C 0.61975 0.60596 0.07295 0.0
C1142 C 0.59219 0.58103 0.14454 0.0
C1143 C 0.60447 0.58549 0.10807 0.0
C1144 C 0.58219 0.57022 0.16051 0.0
C1145 C 0.57486 0.5528 0.15807 0.0
C1146 C 0.5951 0.57445 0.12604 0.0
C1147 C 0.57849 0.54679 0.13951 0.0
C1148 C 0.61121 0.58009 0.09201 0.0
C1149 C 0.61316 0.61102 0.08957 0.0
N1150 N 0.58829 0.55759 0.1242 0.0
N1151 N 0.60581 0.60082 0.10642 0.0
H1152 H 0.40128 0.03096 0.07579 0.0
H1153 H 0.43624 0.98456 0.14877 0.0
H1154 H 0.38297 0.9778 0.07377 0.0
H1155 H 0.44977 0.03622 0.1577 0.0
H1156 H 0.4165 0.98197 0.12148 0.0
H1157 H 0.41903 0.03331 0.10583 0.0
C1158 C 0.40091 0.01977 0.0817 0.0
C1159 C 0.39064 0.00416 0.07214 0.0
C1160 C 0.42371 0.99386 0.12947 0.0
C1161 C 0.41102 0.0068 0.10647 0.0
C1162 C 0.43493 0.99533 0.14522 0.0
C1163 C 0.44472 0.01064 0.15568 0.0
C1164 C 0.42227 0.00782 0.12391 0.0
C1165 C 0.44268 0.02423 0.14991 0.0
C1166 C 0.41105 0.02113 0.09887 0.0
C1167 C 0.39069 0.9901 0.08056 0.0
N1168 N 0.43174 0.02252 0.13437 0.0
N1169 N 0.40077 0.99178 0.09712 0.0
H1170 H 0.37066 0.96714 0.96077 0.0
H1171 H 0.4417 0.01868 0.87466 0.0
H1172 H 0.39734 0.02099 0.95545 0.0
H1173 H 0.41812 0.96514 0.88186 0.0
H1174 H 0.42298 0.0192 0.90153 0.0
H1175 H 0.3854 0.96563 0.92934 0.0
C1176 C 0.37949 0.97863 0.95292 0.0
C1177 C 0.38287 0.99422 0.96091 0.0
C1178 C 0.42178 0.0073 0.89715 0.0
C1179 C 0.39977 0.99257 0.92496 0.0
C1180 C 0.43251 0.00701 0.88184 0.0
C1181 C 0.43161 0.99186 0.87618 0.0
C1182 C 0.41007 0.99235 0.90703 0.0
C1183 C 0.41922 0.97708 0.88571 0.0
C1184 C 0.38792 0.97775 0.93499 0.0
C1185 C 0.39442 0.00869 0.95002 0.0
N1186 N 0.40905 0.97771 0.90083 0.0
N1187 N 0.40249 0.0075 0.93272 0.0
H1188 H 0.97955 0.38234 0.96249 0.0
H1189 H 0.03905 0.45158 0.87864 0.0
H1190 H 0.03335 0.40514 0.9634 0.0
H1191 H 0.98658 0.43503 0.88676 0.0
H1192 H 0.03703 0.4327 0.90709 0.0
H1193 H 0.98175 0.39938 0.93197 0.0
C1194 C 0.99185 0.39087 0.95623 0.0
C1195 C 0.0063 0.39234 0.96567 0.0
C1196 C 0.02596 0.43317 0.90254 0.0
C1197 C 0.00889 0.412 0.93055 0.0
C1198 C 0.02711 0.444 0.88635 0.0
C1199 C 0.01297 0.44498 0.88022 0.0
C1200 C 0.01056 0.42317 0.91267 0.0
C1201 C 0.99777 0.43458 0.89061 0.0
C1202 C 0.99309 0.40065 0.93879 0.0
C1203 C 0.02188 0.40362 0.95672 0.0
N1204 N 0.997 0.42418 0.9063 0.0
N1205 N 0.02276 0.41305 0.93969 0.0
H1206 H 0.62496 0.61164 0.94806 0.0
H1207 H 0.53348 0.57272 0.90125 0.0
H1208 H 0.58815 0.62209 0.97504 0.0
H1209 H 0.57547 0.57915 0.86377 0.0
H1210 H 0.55285 0.58998 0.92891 0.0
H1211 H 0.60664 0.59866 0.91767 0.0
C1212 C 0.61305 0.61129 0.94754 0.0
C1213 C 0.60804 0.61789 0.96417 0.0
C1214 C 0.55781 0.58772 0.91454 0.0
C1215 C 0.58692 0.60286 0.92949 0.0
C1216 C 0.54675 0.57793 0.89862 0.0
C1217 C 0.55276 0.57431 0.88005 0.0
C1218 C 0.57501 0.59378 0.9121 0.0
C1219 C 0.57015 0.58122 0.87793 0.0
C1220 C 0.60263 0.60392 0.93014 0.0
C1221 C 0.59251 0.61717 0.96256 0.0
N1222 N 0.58062 0.59046 0.89382 0.0
N1223 N 0.5824 0.60959 0.94564 0.0
H1224 H 0.98017 0.59835 0.96098 0.0
H1225 H 0.03981 0.58952 0.87609 0.0
H1226 H 0.03364 0.63148 0.95898 0.0
H1227 H 0.98732 0.55367 0.88377 0.0
H1228 H 0.03755 0.60655 0.9042 0.0
H1229 H 0.9823 0.58353 0.93029 0.0
C1230 C 0.99237 0.60259 0.95404 0.0
C1231 C 0.00676 0.61615 0.96271 0.0
C1232 C 0.02652 0.595 0.89962 0.0
C1233 C 0.00929 0.59911 0.92745 0.0
C1234 C 0.02781 0.58522 0.88362 0.0
C1235 C 0.01374 0.57008 0.87751 0.0
C1236 C 0.01105 0.58961 0.9096 0.0
C1237 C 0.99846 0.56533 0.88766 0.0
C1238 C 0.99357 0.59408 0.93649 0.0
C1239 C 0.02221 0.62106 0.95291 0.0
N1240 N 0.99755 0.57501 0.90321 0.0
N1241 N 0.02307 0.6125 0.93586 0.0
H1242 H 0.37001 0.4036 0.96013 0.0
H1243 H 0.44991 0.43827 0.88459 0.0
H1244 H 0.40434 0.3846 0.95944 0.0
H1245 H 0.41183 0.45208 0.87728 0.0
H1246 H 0.43308 0.41844 0.91191 0.0
H1247 H 0.38485 0.42139 0.92981 0.0
C1248 C 0.38059 0.40308 0.95355 0.0
C1249 C 0.38597 0.39263 0.96245 0.0
C1250 C 0.42832 0.42572 0.90426 0.0
C1251 C 0.40305 0.41303 0.92785 0.0
C1252 C 0.43791 0.437 0.88849 0.0
C1253 C 0.43232 0.4469 0.87846 0.0
C1254 C 0.41304 0.42433 0.91032 0.0
C1255 C 0.41679 0.44491 0.88471 0.0
C1256 C 0.38905 0.41324 0.93624 0.0
C1257 C 0.39974 0.39247 0.95321 0.0
N1258 N 0.40773 0.43392 0.90029 0.0
N1259 N 0.40783 0.40257 0.93654 0.0
H1260 H 0.62683 0.02152 0.95376 0.0
H1261 H 0.54525 0.96328 0.88503 0.0
H1262 H 0.59503 0.96873 0.96576 0.0
H1263 H 0.57645 0.01656 0.87656 0.0
H1264 H 0.56477 0.96412 0.91196 0.0
H1265 H 0.60996 0.01902 0.92299 0.0
C1266 C 0.61633 0.00935 0.94988 0.0
C1267 C 0.61227 0.99534 0.96255 0.0
C1268 C 0.5674 0.9756 0.90408 0.0
C1269 C 0.59274 0.9924 0.92715 0.0
C1270 C 0.55632 0.97511 0.88862 0.0
C1271 C 0.55915 0.98991 0.87868 0.0
C1272 C 0.58142 0.99098 0.90956 0.0
C1273 C 0.57362 0.0049 0.88408 0.0
C1274 C 0.60668 0.00793 0.93225 0.0
C1275 C 0.59858 0.97988 0.95653 0.0
N1276 N 0.58414 0.00505 0.89919 0.0
N1277 N 0.58922 0.97885 0.93935 0.0
H1278 H 0.61155 0.98675 0.08675 0.0
H1279 H 0.57323 0.03863 0.13708 0.0
H1280 H 0.62571 0.03645 0.06518 0.0
H1281 H 0.57825 0.00141 0.17267 0.0
H1282 H 0.59116 0.03736 0.10968 0.0
H1283 H 0.5977 0.99087 0.11729 0.0
C1284 C 0.61182 0.99857 0.0885 0.0
C1285 C 0.61974 0.01126 0.07335 0.0
C1286 C 0.58844 0.02959 0.1236 0.0
C1287 C 0.60375 0.01596 0.10812 0.0
C1288 C 0.57826 0.03037 0.13939 0.0
C1289 C 0.57405 0.02004 0.15734 0.0
C1290 C 0.59426 0.01822 0.1255 0.0
C1291 C 0.58076 0.00934 0.15898 0.0
C1292 C 0.60398 1.00093 0.10597 0.0
C1293 C 0.61978 0.02635 0.07649 0.0
N1294 N 0.59035 0.00857 0.14318 0.0
N1295 N 0.61171 0.02821 0.09339 0.0
H1296 H 0.02623 0.62072 0.07541 0.0
H1297 H 0.96666 0.55389 0.16164 0.0
H1298 H 0.97295 0.60154 0.07836 0.0
H1299 H 0.01857 0.56854 0.15234 0.0
H1300 H 0.9691 0.57313 0.13345 0.0
H1301 H 0.02404 0.60375 0.10605 0.0
C1302 C 0.01407 0.61301 0.08255 0.0
C1303 C 0.99974 0.6125 0.07416 0.0
C1304 C 0.97997 0.57218 0.13768 0.0
C1305 C 0.99714 0.59293 0.10936 0.0
C1306 C 0.97857 0.56114 0.15372 0.0
C1307 C 0.99241 0.55952 0.15941 0.0
C1308 C 0.99532 0.5817 0.12723 0.0
C1309 C 0.0076 0.56949 0.14878 0.0
C1310 C 0.01283 0.60328 0.10006 0.0
C1311 C 0.98433 0.60228 0.0842 0.0
N1312 N 0.00862 0.58008 0.1332 0.0
N1313 N 0.98343 0.59285 0.10122 0.0
H1314 H 0.40349 0.37034 0.07489 0.0
H1315 H 0.43714 0.44947 0.15174 0.0
H1316 H 0.38412 0.40437 0.07595 0.0
H1317 H 0.45201 0.41207 0.15768 0.0
H1318 H 0.41745 0.43275 0.12422 0.0
H1319 H 0.42118 0.38508 0.10529 0.0
C1320 C 0.40286 0.38083 0.08157 0.0
C1321 C 0.39233 0.38615 0.07274 0.0
C1322 C 0.42493 0.42812 0.13161 0.0
C1323 C 0.41263 0.40314 0.10748 0.0
C1324 C 0.43614 0.43763 0.1475 0.0
C1325 C 0.44628 0.43219 0.15721 0.0
C1326 C 0.42387 0.41305 0.12512 0.0
C1327 C 0.44463 0.41689 0.15051 0.0
C1328 C 0.41297 0.38924 0.09894 0.0
C1329 C 0.39205 0.39982 0.08213 0.0
N1330 N 0.43369 0.4079 0.13484 0.0
N1331 N 0.40211 0.40787 0.09886 0.0
H1332 H 0.63007 0.70934 0.40286 0.0
H1333 H 0.66867 0.75982 0.51012 0.0
H1334 H 0.68045 0.72521 0.42326 0.0
H1335 H 0.63001 0.76265 0.47497 0.0
H1336 H 0.66994 0.74209 0.48231 0.0
H1337 H 0.6266 0.72363 0.43351 0.0
C1338 C 0.64032 0.71565 0.41391 0.0
C1339 C 0.65562 0.71618 0.41042 0.0
C1340 C 0.66112 0.74654 0.48082 0.0
C1341 C 0.65168 0.73242 0.44551 0.0
C1342 C 0.66044 0.75676 0.49664 0.0
C1343 C 0.64933 0.76299 0.49493 0.0
C1344 C 0.65047 0.74225 0.46328 0.0
C1345 C 0.63865 0.75808 0.47726 0.0
C1346 C 0.63836 0.72386 0.43131 0.0
C1347 C 0.6685 0.7246 0.42524 0.0
N1348 N 0.63951 0.74805 0.46214 0.0
N1349 N 0.66624 0.73239 0.44213 0.0
H1350 H 0.27735 0.95682 0.42213 0.0
H1351 H 0.2409 0.86716 0.47312 0.0
H1352 H 0.29124 0.92123 0.39965 0.0
H1353 H 0.24559 0.90937 0.50859 0.0
H1354 H 0.25826 0.88624 0.44535 0.0
H1355 H 0.26429 0.93914 0.45307 0.0
C1356 C 0.27773 0.94533 0.42376 0.0
C1357 C 0.28533 0.94045 0.40824 0.0
C1358 C 0.2556 0.89131 0.45932 0.0
C1359 C 0.27024 0.92009 0.44348 0.0
C1360 C 0.24575 0.88043 0.47532 0.0
C1361 C 0.24161 0.88656 0.49335 0.0
C1362 C 0.26116 0.90846 0.46109 0.0
C1363 C 0.24806 0.90394 0.49485 0.0
C1364 C 0.27034 0.93529 0.44147 0.0
C1365 C 0.28554 0.92548 0.41124 0.0
N1366 N 0.25734 0.91423 0.47885 0.0
N1367 N 0.27791 0.91571 0.42838 0.0
H1368 H 0.07104 0.36615 0.40918 0.0
H1369 H 0.10376 0.31932 0.48503 0.0
H1370 H 0.05105 0.31268 0.40969 0.0
H1371 H 0.11898 0.37158 0.49214 0.0
H1372 H 0.08427 0.31688 0.45753 0.0
H1373 H 0.08866 0.36868 0.43952 0.0
C1374 C 0.07028 0.35494 0.41571 0.0
C1375 C 0.05958 0.33918 0.40676 0.0
C1376 C 0.09179 0.32888 0.46517 0.0
C1377 C 0.07977 0.34201 0.4414 0.0
C1378 C 0.10288 0.33026 0.48105 0.0
C1379 C 0.11307 0.34568 0.49107 0.0
C1380 C 0.09089 0.34302 0.45901 0.0
C1381 C 0.11157 0.35949 0.48471 0.0
C1382 C 0.08034 0.3564 0.43304 0.0
C1383 C 0.05912 0.3251 0.41595 0.0
N1384 N 0.10075 0.35785 0.46904 0.0
N1385 N 0.06911 0.32687 0.43264 0.0
H1386 H 0.03983 0.29993 0.29631 0.0
H1387 H 0.1116 0.35097 0.21083 0.0
H1388 H 0.0662 0.3537 0.29 0.0
H1389 H 0.08662 0.29726 0.21674 0.0
H1390 H 0.09305 0.35173 0.23775 0.0
H1391 H 0.0548 0.2982 0.26523 0.0
C1392 C 0.04865 0.31135 0.28832 0.0
C1393 C 0.05186 0.32699 0.29592 0.0
C1394 C 0.09151 0.33974 0.2331 0.0
C1395 C 0.06903 0.3251 0.2604 0.0
C1396 C 0.10215 0.33931 0.21777 0.0
C1397 C 0.10078 0.32405 0.2117 0.0
C1398 C 0.07942 0.32479 0.24262 0.0
C1399 C 0.08808 0.3093 0.22092 0.0
C1400 C 0.0572 0.31035 0.27059 0.0
C1401 C 0.0634 0.34137 0.28487 0.0
N1402 N 0.07799 0.31005 0.23608 0.0
N1403 N 0.0716 0.34007 0.26779 0.0
H1404 H 0.69863 0.73785 0.2994 0.0
H1405 H 0.6529 0.76895 0.2193 0.0
H1406 H 0.64505 0.71634 0.29556 0.0
H1407 H 0.70548 0.78489 0.21482 0.0
H1408 H 0.65003 0.74967 0.24732 0.0
H1409 H 0.7017 0.75536 0.26871 0.0
C1410 C 0.68751 0.73674 0.29208 0.0
C1411 C 0.67156 0.72563 0.30017 0.0
C1412 C 0.66219 0.7573 0.24014 0.0
C1413 C 0.675 0.74569 0.26513 0.0
C1414 C 0.66383 0.76827 0.22396 0.0
C1415 C 0.67947 0.77861 0.21452 0.0
C1416 C 0.67629 0.75668 0.2472 0.0
C1417 C 0.69322 0.77736 0.22176 0.0
C1418 C 0.68928 0.74673 0.27455 0.0
C1419 C 0.65761 0.72473 0.28997 0.0
N1420 N 0.69133 0.76667 0.23772 0.0
N1421 N 0.65966 0.73467 0.27311 0.0
H1422 H 0.26119 0.96234 0.29893 0.0
H1423 H 0.23007 0.8865 0.21721 0.0
H1424 H 0.28336 0.93093 0.29261 0.0
H1425 H 0.21428 0.92331 0.21319 0.0
H1426 H 0.24918 0.90258 0.24548 0.0
H1427 H 0.24335 0.94815 0.2683 0.0
C1428 C 0.26237 0.95254 0.29109 0.0
C1429 C 0.27377 0.9478 0.29846 0.0
C1430 C 0.24163 0.90723 0.23835 0.0
C1431 C 0.25336 0.93148 0.26353 0.0
C1432 C 0.23076 0.89809 0.22202 0.0
C1433 C 0.22056 0.90356 0.21256 0.0
C1434 C 0.24229 0.92194 0.2456 0.0
C1435 C 0.22175 0.91848 0.22009 0.0
C1436 C 0.2522 0.94446 0.2736 0.0
C1437 C 0.27476 0.93502 0.28761 0.0
N1438 N 0.23236 0.92712 0.23622 0.0
N1439 N 0.26465 0.92729 0.27084 0.0
H1440 H 0.64541 0.93097 0.29418 0.0
H1441 H 0.70706 0.92281 0.21204 0.0
H1442 H 0.6991 0.96267 0.29635 0.0
H1443 H 0.65449 0.88666 0.21821 0.0
H1444 H 0.70424 0.93934 0.24037 0.0
H1445 H 0.64839 0.91661 0.26361 0.0
C1446 C 0.65785 0.93499 0.28819 0.0
C1447 C 0.67204 0.94802 0.29799 0.0
C1448 C 0.69332 0.92783 0.23541 0.0
C1449 C 0.67553 0.9315 0.26283 0.0
C1450 C 0.69492 0.91833 0.21929 0.0
C1451 C 0.681 0.90325 0.21267 0.0
C1452 C 0.67768 0.92226 0.24497 0.0
C1453 C 0.66554 0.89829 0.22247 0.0
C1454 C 0.65953 0.92673 0.27071 0.0
C1455 C 0.68781 0.95266 0.28938 0.0
N1456 N 0.66433 0.90773 0.23811 0.0
N1457 N 0.68914 0.94437 0.27233 0.0
H1458 H 0.04254 0.74754 0.30294 0.0
H1459 H 0.09124 0.75961 0.19413 0.0
H1460 H 0.05909 0.71367 0.28179 0.0
H1461 H 0.0941 0.80096 0.22978 0.0
H1462 H 0.07422 0.74063 0.22232 0.0
H1463 H 0.05604 0.76519 0.27201 0.0
C1464 C 0.04884 0.74371 0.29168 0.0
C1465 C 0.04979 0.72917 0.29502 0.0
C1466 C 0.07851 0.75386 0.22382 0.0
C1467 C 0.06511 0.74921 0.25961 0.0
C1468 C 0.08832 0.76476 0.2078 0.0
C1469 C 0.09437 0.78205 0.20954 0.0
C1470 C 0.07445 0.7602 0.24163 0.0
C1471 C 0.08965 0.78778 0.22746 0.0
C1472 C 0.05659 0.75383 0.27412 0.0
C1473 C 0.05817 0.72485 0.27993 0.0
N1474 N 0.08002 0.77691 0.24279 0.0
N1475 N 0.0655 0.73482 0.26287 0.0
H1476 H 0.28999 0.35701 0.29167 0.0
H1477 H 0.21917 0.29631 0.2101 0.0
H1478 H 0.26664 0.30318 0.29406 0.0
H1479 H 0.23798 0.34946 0.21476 0.0
H1480 H 0.23836 0.29864 0.23832 0.0
H1481 H 0.2731 0.3545 0.26084 0.0
C1482 C 0.28136 0.34464 0.28567 0.0
C1483 C 0.27968 0.33028 0.29562 0.0
C1484 C 0.23834 0.3098 0.23305 0.0
C1485 C 0.26019 0.32732 0.26016 0.0
C1486 C 0.22734 0.30847 0.21698 0.0
C1487 C 0.22687 0.3227 0.21 0.0
C1488 C 0.24899 0.32546 0.24222 0.0
C1489 C 0.23799 0.33817 0.21932 0.0
C1490 C 0.27168 0.34322 0.26804 0.0
C1491 C 0.26831 0.3146 0.28699 0.0
N1492 N 0.24851 0.33911 0.23496 0.0
N1493 N 0.25895 0.31354 0.2698 0.0
H1494 H 0.27525 0.31613 0.41799 0.0
H1495 H 0.24024 0.36981 0.47175 0.0
H1496 H 0.2931 0.3676 0.40091 0.0
H1497 H 0.24171 0.32969 0.50508 0.0
H1498 H 0.2579 0.36821 0.4443 0.0
H1499 H 0.26093 0.3196 0.44856 0.0
C1500 C 0.27623 0.32818 0.42073 0.0
C1501 C 0.28535 0.34158 0.40684 0.0
C1502 C 0.25445 0.35986 0.45772 0.0
C1503 C 0.26883 0.34554 0.44158 0.0
C1504 C 0.24442 0.36082 0.47356 0.0
C1505 C 0.23935 0.34986 0.49095 0.0
C1506 C 0.25924 0.34766 0.45896 0.0
C1507 C 0.24493 0.33818 0.49187 0.0
C1508 C 0.26811 0.33016 0.4382 0.0
C1509 C 0.28624 0.35694 0.41122 0.0
N1510 N 0.25442 0.33728 0.47601 0.0
N1511 N 0.27791 0.35844 0.42806 0.0
H1512 H 0.68501 0.95819 0.42035 0.0
H1513 H 0.63115 0.86959 0.4739 0.0
H1514 H 0.63371 0.92448 0.40267 0.0
H1515 H 0.67115 0.91118 0.50738 0.0
H1516 H 0.63283 0.88881 0.44638 0.0
H1517 H 0.68138 0.94045 0.45097 0.0
C1518 C 0.67296 0.94711 0.42296 0.0
C1519 C 0.65965 0.94279 0.4089 0.0
C1520 C 0.64114 0.89372 0.45985 0.0
C1521 C 0.65552 0.92236 0.4437 0.0
C1522 C 0.64013 0.88276 0.47573 0.0
C1523 C 0.65104 0.88866 0.49317 0.0
C1524 C 0.65333 0.9107 0.46111 0.0
C1525 C 0.6627 0.9059 0.49412 0.0
C1526 C 0.67089 0.93704 0.44047 0.0
C1527 C 0.6443 0.92832 0.41312 0.0
N1528 N 0.66364 0.91626 0.47823 0.0
N1529 N 0.64271 0.91851 0.43 0.0
H1530 H 0.05038 0.73999 0.41003 0.0
H1531 H 0.11976 0.74659 0.4915 0.0
H1532 H 0.07258 0.70849 0.406 0.0
H1533 H 0.10505 0.78407 0.48488 0.0
H1534 H 0.1005 0.73057 0.46288 0.0
H1535 H 0.06803 0.75413 0.44043 0.0
C1536 C 0.05891 0.73597 0.41557 0.0
C1537 C 0.06003 0.72306 0.40531 0.0
C1538 C 0.10146 0.74227 0.4678 0.0
C1539 C 0.08037 0.7393 0.44028 0.0
C1540 C 0.11251 0.75148 0.48408 0.0
C1541 C 0.1141 0.76677 0.49071 0.0
C1542 C 0.09184 0.74833 0.45811 0.0
C1543 C 0.10411 0.77226 0.48067 0.0
C1544 C 0.06903 0.7441 0.43294 0.0
C1545 C 0.07134 0.71842 0.41333 0.0
N1546 N 0.09347 0.76307 0.46492 0.0
N1547 N 0.08109 0.72655 0.43033 0.0
H1548 H 0.30038 0.043 0.73338 0.0
H1549 H 0.33727 0.09351 0.84093 0.0
H1550 H 0.35115 0.06052 0.75357 0.0
H1551 H 0.29835 0.09537 0.80513 0.0
H1552 H 0.33958 0.07649 0.81292 0.0
H1553 H 0.29641 0.05699 0.76394 0.0
C1554 C 0.31063 0.04962 0.74435 0.0
C1555 C 0.32616 0.05068 0.74084 0.0
C1556 C 0.33048 0.08058 0.81135 0.0
C1557 C 0.32164 0.06659 0.77585 0.0
C1558 C 0.3292 0.0904 0.82727 0.0
C1559 C 0.31767 0.09611 0.82547 0.0
C1560 C 0.32 0.07617 0.79362 0.0
C1561 C 0.30726 0.09116 0.80754 0.0
C1562 C 0.30837 0.05766 0.76171 0.0
C1563 C 0.33902 0.05949 0.75558 0.0
N1564 N 0.30868 0.0815 0.79235 0.0
N1565 N 0.33647 0.0671 0.77245 0.0
H1566 H 0.9462 0.29016 0.7542 0.0
H1567 H 0.90781 0.19974 0.80379 0.0
H1568 H 0.9562 0.25279 0.72804 0.0
H1569 H 0.91562 0.24263 0.84041 0.0
H1570 H 0.92469 0.21849 0.77544 0.0
H1571 H 0.93384 0.27252 0.78529 0.0
C1572 C 0.94587 0.27827 0.75505 0.0
C1573 C 0.95217 0.2729 0.73844 0.0
C1574 C 0.92283 0.22378 0.78978 0.0
C1575 C 0.93787 0.25257 0.77393 0.0
C1576 C 0.91326 0.21308 0.8061 0.0
C1577 C 0.91012 0.21952 0.82463 0.0
C1578 C 0.92913 0.24105 0.79178 0.0
C1579 C 0.91732 0.23698 0.82632 0.0
C1580 C 0.93888 0.26825 0.77285 0.0
C1581 C 0.95151 0.25742 0.74048 0.0
N1582 N 0.92631 0.2471 0.81003 0.0
N1583 N 0.94428 0.24769 0.75779 0.0
H1584 H 0.71268 0.65433 0.7559 0.0
H1585 H 0.80391 0.7049 0.80413 0.0
H1586 H 0.74962 0.70268 0.732 0.0
H1587 H 0.76179 0.6677 0.83985 0.0
H1588 H 0.78467 0.70379 0.77693 0.0
H1589 H 0.73086 0.65826 0.78601 0.0
C1590 C 0.72459 0.66582 0.75704 0.0
C1591 C 0.72967 0.67817 0.74135 0.0
C1592 C 0.77965 0.69598 0.79082 0.0
C1593 C 0.75063 0.68265 0.77569 0.0
C1594 C 0.79063 0.69666 0.80649 0.0
C1595 C 0.78455 0.68633 0.82443 0.0
C1596 C 0.76246 0.68472 0.79287 0.0
C1597 C 0.76717 0.67566 0.82617 0.0
C1598 C 0.73493 0.66808 0.77428 0.0
C1599 C 0.74519 0.69285 0.74374 0.0
N1600 N 0.75677 0.67502 0.81052 0.0
N1601 N 0.75522 0.6946 0.76046 0.0
H1602 H 0.72533 0.68223 0.61695 0.0
H1603 H 0.76452 0.63085 0.56694 0.0
H1604 H 0.71389 0.63386 0.64085 0.0
H1605 H 0.75871 0.6676 0.53138 0.0
H1606 H 0.7469 0.63221 0.59473 0.0
H1607 H 0.73872 0.67783 0.58619 0.0
C1608 C 0.72555 0.67063 0.61567 0.0
C1609 C 0.71855 0.65842 0.63155 0.0
C1610 C 0.74937 0.63985 0.58074 0.0
C1611 C 0.73404 0.6534 0.59647 0.0
C1612 C 0.75938 0.63903 0.56474 0.0
C1613 C 0.76325 0.64918 0.54667 0.0
C1614 C 0.74337 0.65109 0.57891 0.0
C1615 C 0.75643 0.65979 0.54514 0.0
C1616 C 0.73314 0.6681 0.59806 0.0
C1617 C 0.71911 0.64359 0.62897 0.0
N1618 N 0.74699 0.66059 0.56113 0.0
N1619 N 0.72692 0.64158 0.61189 0.0
H1620 H 0.36847 0.07239 0.62933 0.0
H1621 H 0.32171 0.1041 0.55196 0.0
H1622 H 0.31483 0.05075 0.62669 0.0
H1623 H 0.37382 0.11883 0.54455 0.0
H1624 H 0.3193 0.0849 0.57985 0.0
H1625 H 0.37109 0.08999 0.59892 0.0
C1626 C 0.35725 0.07127 0.62233 0.0
C1627 C 0.3414 0.06009 0.63068 0.0
C1628 C 0.33125 0.09225 0.57206 0.0
C1629 C 0.34434 0.08027 0.59597 0.0
C1630 C 0.33263 0.10318 0.55595 0.0
C1631 C 0.348 0.11313 0.5457 0.0
C1632 C 0.34537 0.0913 0.57824 0.0
C1633 C 0.36177 0.1116 0.55213 0.0
C1634 C 0.35876 0.08131 0.60495 0.0
C1635 C 0.32731 0.05918 0.62089 0.0
N1636 N 0.36015 0.10096 0.56803 0.0
N1637 N 0.32913 0.06919 0.60419 0.0
H1638 H 0.9197 0.28758 0.63964 0.0
H1639 H 0.9082 0.242 0.52818 0.0
H1640 H 0.95605 0.2761 0.61349 0.0
H1641 H 0.86661 0.23674 0.56554 0.0
H1642 H 0.92724 0.2592 0.55621 0.0
H1643 H 0.9015 0.27379 0.60918 0.0
C1644 C 0.92393 0.28233 0.62741 0.0
C1645 C 0.93937 0.28289 0.62919 0.0
C1646 C 0.91394 0.25434 0.55817 0.0
C1647 C 0.91868 0.26722 0.59433 0.0
C1648 C 0.90302 0.24442 0.54222 0.0
C1649 C 0.88566 0.23769 0.54446 0.0
C1650 C 0.90755 0.25775 0.57646 0.0
C1651 C 0.87984 0.24174 0.56287 0.0
C1652 C 0.91351 0.27441 0.6101 0.0
C1653 C 0.94419 0.27584 0.61287 0.0
N1654 N 0.89074 0.25146 0.57815 0.0
N1655 N 0.93389 0.2683 0.59615 0.0
H1656 H 0.37385 0.29264 0.63595 0.0
H1657 H 0.33782 0.24586 0.52584 0.0
H1658 H 0.32442 0.27851 0.61326 0.0
H1659 H 0.37469 0.24077 0.56215 0.0
H1660 H 0.33639 0.26324 0.55402 0.0
H1661 H 0.37797 0.27915 0.60489 0.0
C1662 C 0.36395 0.28688 0.62433 0.0
C1663 C 0.34872 0.28658 0.62727 0.0
C1664 C 0.34486 0.25839 0.55567 0.0
C1665 C 0.35341 0.2713 0.59173 0.0
C1666 C 0.34564 0.24837 0.53965 0.0
C1667 C 0.35625 0.24158 0.5416 0.0
C1668 C 0.35493 0.26189 0.57369 0.0
C1669 C 0.36644 0.24579 0.5597 0.0
C1670 C 0.36628 0.27913 0.60669 0.0
C1671 C 0.3363 0.2789 0.61172 0.0
N1672 N 0.36548 0.25562 0.57504 0.0
N1673 N 0.33892 0.27156 0.59462 0.0
H1674 H 0.73683 0.0511 0.6271 0.0
H1675 H 0.74313 0.11896 0.54321 0.0
H1676 H 0.70448 0.07243 0.62893 0.0
H1677 H 0.77978 0.10317 0.54983 0.0
H1678 H 0.72704 0.10013 0.57216 0.0
H1679 H 0.75068 0.06796 0.59609 0.0
C1680 C 0.73256 0.05928 0.62095 0.0
C1681 C 0.71951 0.06039 0.63079 0.0
C1682 C 0.73856 0.10075 0.56715 0.0
C1683 C 0.73544 0.07987 0.5951 0.0
C1684 C 0.7478 0.11154 0.55068 0.0
C1685 C 0.76288 0.1127 0.54397 0.0
C1686 C 0.7444 0.09098 0.57696 0.0
C1687 C 0.76813 0.10255 0.5541 0.0
C1688 C 0.74053 0.06895 0.60321 0.0
C1689 C 0.71453 0.0712 0.62194 0.0
N1690 N 0.75894 0.0922 0.57005 0.0
N1691 N 0.72255 0.08057 0.60464 0.0
H1692 H 0.93206 0.63344 0.62549 0.0
H1693 H 0.8995 0.68057 0.54996 0.0
H1694 H 0.95198 0.68689 0.6254 0.0
H1695 H 0.88395 0.62823 0.54284 0.0
H1696 H 0.91901 0.68291 0.57735 0.0
H1697 H 0.91452 0.63102 0.59511 0.0
C1698 C 0.93284 0.64467 0.61904 0.0
C1699 C 0.94347 0.66039 0.62813 0.0
C1700 C 0.91142 0.67092 0.56973 0.0
C1701 C 0.92337 0.65768 0.59344 0.0
C1702 C 0.90032 0.66959 0.55391 0.0
C1703 C 0.89004 0.65418 0.5439 0.0
C1704 C 0.91225 0.65673 0.57586 0.0
C1705 C 0.89145 0.64033 0.55024 0.0
C1706 C 0.92282 0.64328 0.60169 0.0
C1707 C 0.94395 0.6745 0.61903 0.0
N1708 N 0.90229 0.64191 0.56586 0.0
N1709 N 0.93399 0.67279 0.60232 0.0
H1710 H 0.93204 0.6452 0.74217 0.0
H1711 H 0.92622 0.7072 0.82614 0.0
H1712 H 0.96525 0.69869 0.74145 0.0
H1713 H 0.88924 0.6549 0.81965 0.0
H1714 H 0.94233 0.7041 0.79747 0.0
H1715 H 0.91807 0.6483 0.77312 0.0
C1716 C 0.93647 0.65761 0.74856 0.0
C1717 C 0.9498 0.67172 0.73906 0.0
C1718 C 0.93073 0.6933 0.80244 0.0
C1719 C 0.93376 0.67536 0.77462 0.0
C1720 C 0.92148 0.69506 0.81875 0.0
C1721 C 0.9063 0.6813 0.8254 0.0
C1722 C 0.92479 0.67765 0.79269 0.0
C1723 C 0.90097 0.66583 0.8154 0.0
C1724 C 0.92844 0.65937 0.76625 0.0
C1725 C 0.95499 0.68746 0.74817 0.0
N1726 N 0.91016 0.66446 0.79956 0.0
N1727 N 0.94692 0.68887 0.7654 0.0
H1728 H 0.30294 0.26252 0.73692 0.0
H1729 H 0.34793 0.23121 0.8178 0.0
H1730 H 0.35651 0.28469 0.74256 0.0
H1731 H 0.29545 0.21573 0.82235 0.0
H1732 H 0.35094 0.25046 0.78969 0.0
H1733 H 0.29951 0.24475 0.76751 0.0
C1734 C 0.31397 0.26371 0.74461 0.0
C1735 C 0.33004 0.27509 0.73706 0.0
C1736 C 0.33877 0.24294 0.7969 0.0
C1737 C 0.32619 0.25476 0.77196 0.0
C1738 C 0.33705 0.23199 0.81314 0.0
C1739 C 0.32141 0.22181 0.82265 0.0
C1740 C 0.32474 0.24369 0.78984 0.0
C1741 C 0.30771 0.22315 0.81536 0.0
C1742 C 0.312 0.25359 0.76208 0.0
C1743 C 0.34387 0.27611 0.74772 0.0
N1744 N 0.30968 0.23382 0.79934 0.0
N1745 N 0.34161 0.26603 0.76449 0.0
H1746 H 0.71812 0.07323 0.74462 0.0
H1747 H 0.78696 0.0799 0.82718 0.0
H1748 H 0.73814 0.03974 0.74389 0.0
H1749 H 0.77315 0.1179 0.81892 0.0
H1750 H 0.76716 0.06335 0.79931 0.0
H1751 H 0.73595 0.08782 0.77474 0.0
C1752 C 0.72619 0.06886 0.75085 0.0
C1753 C 0.72667 0.05526 0.74157 0.0
C1754 C 0.76843 0.07528 0.8037 0.0
C1755 C 0.74723 0.07203 0.77618 0.0
C1756 C 0.7798 0.08479 0.81956 0.0
C1757 C 0.78181 0.10039 0.82548 0.0
C1758 C 0.75893 0.08135 0.79372 0.0
C1759 C 0.77191 0.10588 0.81522 0.0
C1760 C 0.73642 0.07725 0.76805 0.0
C1761 C 0.73739 0.05019 0.75045 0.0
N1762 N 0.76097 0.09641 0.79987 0.0
N1763 N 0.74728 0.05861 0.76722 0.0
H1764 H 0.07131 0.38577 0.03775 0.0
H1765 H 0.0841 0.3128 0.0865 0.0
H1766 H 0.03187 0.33419 0.04038 0.0
H1767 H 0.1217 0.36512 0.08712 0.0
H1768 H 0.06541 0.31977 0.0671 0.0
H1769 H 0.09055 0.37779 0.053 0.0
C1770 C 0.06671 0.37272 0.04136 0.0
C1771 C 0.0499 0.36065 0.03787 0.0
C1772 C 0.07777 0.32971 0.07145 0.0
C1773 C 0.07193 0.3514 0.0556 0.0
C1774 C 0.08847 0.32573 0.08244 0.0
C1775 C 0.10447 0.33841 0.08859 0.0
C1776 C 0.08312 0.34648 0.06645 0.0
C1777 C 0.10939 0.35497 0.08306 0.0
C1778 C 0.07772 0.36817 0.05015 0.0
C1779 C 0.04471 0.34392 0.04283 0.0
N1780 N 0.09877 0.3585 0.07236 0.0
N1781 N 0.05566 0.3398 0.05158 0.0
H1782 H 0.61749 0.6831 0.04763 0.0
H1783 H 0.69216 0.77372 0.08043 0.0
H1784 H 0.66945 0.698 0.03842 0.0
H1785 H 0.64031 0.75441 0.09695 0.0
H1786 H 0.68445 0.74704 0.06307 0.0
H1787 H 0.62594 0.71033 0.06308 0.0
C1788 C 0.63071 0.69215 0.04873 0.0
C1789 C 0.64278 0.68821 0.04177 0.0
C1790 C 0.67479 0.7487 0.07048 0.0
C1791 C 0.65259 0.71956 0.05968 0.0
C1792 C 0.67919 0.76389 0.0805 0.0
C1793 C 0.66686 0.76641 0.0901 0.0
C1794 C 0.65795 0.73595 0.07002 0.0
C1795 C 0.65022 0.75324 0.08944 0.0
C1796 C 0.63553 0.70772 0.05765 0.0
C1797 C 0.65972 0.7005 0.04361 0.0
N1798 N 0.64629 0.73866 0.07958 0.0
N1799 N 0.66415 0.71563 0.05245 0.0
H1800 H 0.30699 0.97666 0.04849 0.0
H1801 H 0.22889 0.88422 0.06 0.0
H1802 H 0.30655 0.9327 0.02423 0.0
H1803 H 0.23872 0.92363 0.10455 0.0
H1804 H 0.25463 0.90324 0.04139 0.0
H1805 H 0.27905 0.95866 0.06356 0.0
C1806 C 0.30092 0.96326 0.04607 0.0
C1807 C 0.30911 0.95613 0.0352 0.0
C1808 C 0.25109 0.90772 0.0552 0.0
C1809 C 0.27726 0.93559 0.05225 0.0
C1810 C 0.23643 0.89683 0.06596 0.0
C1811 C 0.23165 0.90217 0.08417 0.0
C1812 C 0.261 0.92419 0.06242 0.0
C1813 C 0.24177 0.91891 0.09058 0.0
C1814 C 0.28505 0.95302 0.05478 0.0
C1815 C 0.30072 0.9387 0.03263 0.0
N1816 N 0.25598 0.9293 0.07976 0.0
N1817 N 0.28527 0.92903 0.04108 0.0
H1818 H 0.38248 0.06813 0.9993 0.0
H1819 H 0.30891 0.08339 0.95947 0.0
H1820 H 0.33056 0.02941 1.00098 0.0
H1821 H 0.3611 0.11527 0.94402 0.0
H1822 H 0.31614 0.06465 0.97828 0.0
H1823 H 0.37434 0.08707 0.98356 0.0
C1824 C 0.36932 0.06363 0.99655 0.0
C1825 C 0.3572 0.04709 1.00137 0.0
C1826 C 0.32597 0.07579 0.97079 0.0
C1827 C 0.34778 0.06879 0.98312 0.0
C1828 C 0.32186 0.08645 0.95993 0.0
C1829 C 0.33441 0.10103 0.95014 0.0
C1830 C 0.34276 0.07978 0.97202 0.0
C1831 C 0.35101 0.10441 0.95162 0.0
C1832 C 0.36469 0.07446 0.98744 0.0
C1833 C 0.34033 0.04204 0.99747 0.0
N1834 N 0.35467 0.09391 0.96235 0.0
N1835 N 0.33611 0.05283 0.98847 0.0
H1836 H 0.93452 0.30893 0.01329 0.0
H1837 H 0.9273 0.2403 0.93186 0.0
H1838 H 0.97814 0.30825 0.99 0.0
H1839 H 0.88724 0.23209 0.9744 0.0
H1840 H 0.94611 0.26565 0.95161 0.0
H1841 H 0.91682 0.28128 0.99783 0.0
C1842 C 0.94038 0.30288 0.00509 0.0
C1843 C 0.95782 0.3109 1.0029 0.0
C1844 C 0.93322 0.2582 0.95666 0.0
C1845 C 0.9376 0.27936 0.98481 0.0
C1846 C 0.92245 0.24367 0.94545 0.0
C1847 C 0.90553 0.23402 0.95126 0.0
C1848 C 0.927 0.26327 0.97367 0.0
C1849 C 0.90002 0.23927 0.96889 0.0
C1850 C 0.93027 0.28708 0.99628 0.0
C1851 C 0.96474 0.30246 0.99212 0.0
N1852 N 0.91066 0.25358 0.9793 0.0
N1853 N 0.9546 0.28722 0.98321 0.0
H1854 H 0.70017 0.66732 1.00046 0.0
H1855 H 0.75521 0.63697 0.93665 0.0
H1856 H 0.68471 0.61564 0.98753 0.0
H1857 H 0.77518 0.68784 0.95831 0.0
H1858 H 0.72897 0.62938 0.9544 0.0
H1859 H 0.72749 0.67555 0.98456 0.0
C1860 C 0.70254 0.65771 0.99444 0.0
C1861 C 0.6901 0.64077 0.9953 0.0
C1862 C 0.73909 0.64221 0.95536 0.0
C1863 C 0.72121 0.65009 0.97694 0.0
C1864 C 0.75415 0.64655 0.94529 0.0
C1865 C 0.76755 0.66307 0.94607 0.0
C1866 C 0.73723 0.65445 0.96626 0.0
C1867 C 0.76518 0.67498 0.95709 0.0
C1868 C 0.71812 0.66241 0.98534 0.0
C1869 C 0.69388 0.62885 0.98721 0.0
N1870 N 0.75032 0.67045 0.96674 0.0
N1871 N 0.70901 0.63374 0.9783 0.0
H1872 H 0.93559 0.62647 0.01483 0.0
H1873 H 0.92563 0.68519 0.93215 0.0
H1874 H 0.97828 0.67042 0.98936 0.0
H1875 H 0.8868 0.65483 0.97688 0.0
H1876 H 0.945 0.67936 0.95164 0.0
H1877 H 0.91725 0.63586 0.99986 0.0
C1878 C 0.94111 0.63819 0.00626 0.0
C1879 C 0.95847 0.64767 1.00329 0.0
C1880 C 0.93226 0.6741 0.95724 0.0
C1881 C 0.93753 0.65833 0.98578 0.0
C1882 C 0.92117 0.67747 0.94617 0.0
C1883 C 0.90441 0.6704 0.9527 0.0
C1884 C 0.92655 0.6634 0.97481 0.0
C1885 C 0.89942 0.66024 0.97085 0.0
C1886 C 0.93064 0.64355 0.99775 0.0
C1887 C 0.96496 0.66277 0.99208 0.0
N1888 N 0.91037 0.65692 0.98111 0.0
N1889 N 0.95446 0.66753 0.98346 0.0
H1890 H 0.33177 0.30353 0.99904 0.0
H1891 H 0.3623 0.24652 0.94086 0.0
H1892 H 0.38335 0.31578 0.99445 0.0
H1893 H 0.31054 0.22799 0.95727 0.0
H1894 H 0.36981 0.27253 0.95912 0.0
H1895 H 0.32328 0.27622 0.98287 0.0
C1896 C 0.34129 0.30044 0.99482 0.0
C1897 C 0.35831 0.312 0.99806 0.0
C1898 C 0.3568 0.26277 0.95883 0.0
C1899 C 0.3487 0.28093 0.97936 0.0
C1900 C 0.35249 0.24783 0.94846 0.0
C1901 C 0.33575 0.23488 0.94766 0.0
C1902 C 0.34431 0.265 0.96839 0.0
C1903 C 0.32359 0.23763 0.95732 0.0
C1904 C 0.33643 0.28487 0.98557 0.0
C1905 C 0.37009 0.30732 0.99224 0.0
N1906 N 0.3281 0.25239 0.96728 0.0
N1907 N 0.36508 0.29224 0.98308 0.0
H1908 H 0.70202 0.03179 1.00127 0.0
H1909 H 0.75842 0.11883 0.94218 0.0
H1910 H 0.68868 0.07022 0.99442 0.0
H1911 H 0.77739 0.08617 0.95974 0.0
H1912 H 0.73242 0.10039 0.96043 0.0
H1913 H 0.72945 0.05082 0.98562 0.0
C1914 C 0.7049 0.04425 0.99667 0.0
C1915 C 0.693 0.04939 0.9991 0.0
C1916 C 0.74228 0.09725 0.9604 0.0
C1917 C 0.7242 0.07109 0.98101 0.0
C1918 C 0.75722 0.10786 0.95005 0.0
C1919 C 0.77026 0.10418 0.94952 0.0
C1920 C 0.74017 0.08269 0.97024 0.0
C1921 C 0.76766 0.08946 0.95954 0.0
C1922 C 0.72053 0.05509 0.98772 0.0
C1923 C 0.6974 0.06567 0.99283 0.0
N1924 N 0.75291 0.07924 0.96947 0.0
N1925 N 0.71256 0.07586 0.98397 0.0
H1926 H 0.61868 0.9338 0.04189 0.0
H1927 H 0.69296 0.91849 0.0788 0.0
H1928 H 0.67068 0.97192 0.03705 0.0
H1929 H 0.64085 0.88598 0.09408 0.0
H1930 H 0.68546 0.93735 0.06077 0.0
H1931 H 0.62701 0.91497 0.05749 0.0
C1932 C 0.63189 0.9382 0.04396 0.0
C1933 C 0.64399 0.95452 0.03823 0.0
C1934 C 0.6757 0.92606 0.06805 0.0
C1935 C 0.65365 0.93294 0.05632 0.0
C1936 C 0.67997 0.91532 0.07846 0.0
C1937 C 0.66752 0.90052 0.08793 0.0
C1938 C 0.65886 0.92194 0.06702 0.0
C1939 C 0.65087 0.89702 0.08669 0.0
C1940 C 0.63664 0.92743 0.05298 0.0
C1941 C 0.66092 0.95945 0.04128 0.0
N1942 N 0.64706 0.9076 0.07644 0.0
N1943 N 0.66526 0.94872 0.0502 0.0
H1944 H 0.07054 0.69423 0.02338 0.0
H1945 H 0.07828 0.76329 0.10449 0.0
H1946 H 0.02721 0.6951 0.04747 0.0
H1947 H 0.11823 0.7713 0.06186 0.0
H1948 H 0.05946 0.73783 0.08505 0.0
H1949 H 0.08843 0.72197 0.03853 0.0
C1950 C 0.06478 0.70034 0.03169 0.0
C1951 C 0.04736 0.69234 0.03421 0.0
C1952 C 0.07232 0.74525 0.0799 0.0
C1953 C 0.0678 0.72397 0.05192 0.0
C1954 C 0.0831 0.75986 0.09094 0.0
C1955 C 0.09999 0.76951 0.08499 0.0
C1956 C 0.07849 0.74009 0.06292 0.0
C1957 C 0.10547 0.76414 0.06745 0.0
C1958 C 0.075 0.71618 0.04031 0.0
C1959 C 0.04058 0.70085 0.0451 0.0
N1960 N 0.09481 0.74975 0.05719 0.0
N1961 N 0.05083 0.71613 0.05381 0.0
H1962 H 0.30844 0.33191 0.04823 0.0
H1963 H 0.2307 0.34703 0.05848 0.0
H1964 H 0.30883 0.37586 0.02426 0.0
H1965 H 0.2406 0.31842 0.10441 0.0
H1966 H 0.2564 0.35326 0.04005 0.0
H1967 H 0.28044 0.32228 0.063 0.0
C1968 C 0.30253 0.33939 0.04579 0.0
C1969 C 0.31098 0.35474 0.03511 0.0
C1970 C 0.25286 0.34554 0.05411 0.0
C1971 C 0.27906 0.34378 0.05176 0.0
C1972 C 0.23823 0.34206 0.06477 0.0
C1973 C 0.2335 0.33239 0.08334 0.0
C1974 C 0.26278 0.33913 0.06178 0.0
C1975 C 0.24359 0.32584 0.09016 0.0
C1976 C 0.28664 0.33394 0.05433 0.0
C1977 C 0.30281 0.36401 0.03252 0.0
N1978 N 0.25778 0.32937 0.07942 0.0
N1979 N 0.28731 0.35838 0.04077 0.0
H1980 H 0.73315 0.71872 0.37898 0.0
H1981 H 0.75093 0.64538 0.41239 0.0
H1982 H 0.69624 0.66646 0.37216 0.0
H1983 H 0.78158 0.69705 0.43107 0.0
H1984 H 0.73181 0.65265 0.39468 0.0
H1985 H 0.75238 0.71081 0.39436 0.0
C1986 C 0.72911 0.70555 0.38056 0.0
C1987 C 0.713 0.69323 0.37433 0.0
C1988 C 0.74275 0.66237 0.40264 0.0
C1989 C 0.73505 0.68406 0.39214 0.0
C1990 C 0.75363 0.65822 0.41289 0.0
C1991 C 0.76798 0.67061 0.42325 0.0
C1992 C 0.74627 0.67904 0.40265 0.0
C1993 C 0.77091 0.68709 0.423 0.0
C1994 C 0.74011 0.70104 0.38945 0.0
C1995 C 0.70853 0.67637 0.37677 0.0
N1996 N 0.76019 0.6908 0.41287 0.0
N1997 N 0.71949 0.67227 0.38555 0.0
H1998 H 0.33537 0.03071 0.3695 0.0
H1999 H 0.30483 0.08708 0.42959 0.0
H2000 H 0.28361 0.01645 0.37913 0.0
H2001 H 0.35618 0.10615 0.41068 0.0
H2002 H 0.29724 0.06082 0.41188 0.0
H2003 H 0.34368 0.05821 0.38493 0.0
C2004 C 0.32576 0.0334 0.37468 0.0
C2005 C 0.30876 0.02123 0.37306 0.0
C2006 C 0.31017 0.07075 0.4115 0.0
C2007 C 0.31817 0.05253 0.39089 0.0
C2008 C 0.31452 0.08583 0.42155 0.0
C2009 C 0.33117 0.09898 0.42154 0.0
C2010 C 0.32254 0.06862 0.40141 0.0
C2011 C 0.34321 0.09635 0.41129 0.0
C2012 C 0.33051 0.04907 0.38351 0.0
C2013 C 0.29685 0.02539 0.38007 0.0
N2014 N 0.33866 0.08147 0.40166 0.0
N2015 N 0.30179 0.04061 0.38876 0.0
H2016 H 0.9699 0.30402 0.37 0.0
H2017 H 0.91372 0.21744 0.43005 0.0
H2018 H 0.98291 0.26529 0.37605 0.0
H2019 H 0.89433 0.24944 0.41099 0.0
H2020 H 0.93976 0.23589 0.41185 0.0
H2021 H 0.94262 0.28518 0.38615 0.0
C2022 C 0.96699 0.29154 0.37455 0.0
C2023 C 0.97874 0.28625 0.3717 0.0
C2024 C 0.9298 0.23887 0.41155 0.0
C2025 C 0.94771 0.26476 0.39038 0.0
C2026 C 0.91484 0.22826 0.42189 0.0
C2027 C 0.90165 0.23174 0.42196 0.0
C2028 C 0.93179 0.25324 0.4013 0.0
C2029 C 0.90416 0.24629 0.41156 0.0
C2030 C 0.95143 0.28081 0.38378 0.0
C2031 C 0.97429 0.26995 0.37793 0.0
N2032 N 0.91893 0.25652 0.40167 0.0
N2033 N 0.95922 0.25986 0.38708 0.0
H2034 H 0.99982 0.36412 0.33531 0.0
H2035 H 0.03353 0.45155 0.27611 0.0
H2036 H 0.05202 0.40161 0.33015 0.0
H2037 H 0.98168 0.42064 0.29382 0.0
H2038 H 0.04009 0.43249 0.2947 0.0
H2039 H 0.99243 0.38383 0.31938 0.0
C2040 C 0.00971 0.37652 0.33103 0.0
C2041 C 0.02657 0.38119 0.33401 0.0
C2042 C 0.02728 0.42989 0.29463 0.0
C2043 C 0.01822 0.40366 0.31557 0.0
C2044 C 0.02351 0.44084 0.28407 0.0
C2045 C 0.00702 0.43784 0.28348 0.0
C2046 C 0.01447 0.41564 0.30458 0.0
C2047 C 0.99454 0.42342 0.29364 0.0
C2048 C 0.00548 0.38774 0.32191 0.0
C2049 C 0.03886 0.39742 0.32813 0.0
N2050 N 0.99852 0.41284 0.30374 0.0
N2051 N 0.03444 0.40798 0.31908 0.0
H2052 H 0.59711 0.6419 0.3443 0.0
H2053 H 0.59044 0.57283 0.26413 0.0
H2054 H 0.64084 0.64046 0.32313 0.0
H2055 H 0.54995 0.56486 0.30574 0.0
H2056 H 0.60908 0.5982 0.28392 0.0
H2057 H 0.57943 0.61432 0.32863 0.0
C2058 C 0.60299 0.6357 0.3365 0.0
C2059 C 0.62046 0.64348 0.33499 0.0
C2060 C 0.59613 0.5908 0.28876 0.0
C2061 C 0.60029 0.61202 0.31667 0.0
C2062 C 0.58546 0.57625 0.27751 0.0
C2063 C 0.56847 0.56666 0.28306 0.0
C2064 C 0.58975 0.59595 0.30551 0.0
C2065 C 0.56279 0.572 0.30043 0.0
C2066 C 0.5929 0.61995 0.32759 0.0
C2067 C 0.62741 0.63486 0.32472 0.0
N2068 N 0.57334 0.58633 0.31086 0.0
N2069 N 0.6173 0.61967 0.31569 0.0
H2070 H 0.3652 1.0006 0.33277 0.0
H2071 H 0.4206 0.9692 0.27209 0.0
H2072 H 0.35109 0.94871 0.32479 0.0
H2073 H 0.43999 0.02083 0.28993 0.0
H2074 H 0.39465 0.96188 0.29039 0.0
H2075 H 0.39237 0.00872 0.31647 0.0
C2076 C 0.36785 0.99093 0.32775 0.0
C2077 C 0.35582 0.97395 0.33011 0.0
C2078 C 0.40458 0.97482 0.2904 0.0
C2079 C 0.38673 0.98313 0.3113 0.0
C2080 C 0.41949 0.97901 0.28001 0.0
C2081 C 0.43263 0.99566 0.27956 0.0
C2082 C 0.40262 0.98735 0.30036 0.0
C2083 C 0.43017 0.00786 0.28967 0.0
C2084 C 0.38334 0.99557 0.31843 0.0
C2085 C 0.35993 0.96195 0.32329 0.0
N2086 N 0.41546 0.00346 0.29965 0.0
N2087 N 0.37496 0.96677 0.31411 0.0
H2088 H 0.5986 0.9572 0.34533 0.0
H2089 H 0.59021 0.01769 0.26386 0.0
H2090 H 0.64172 0.00213 0.32264 0.0
H2091 H 0.55014 0.98526 0.30595 0.0
H2092 H 0.60927 0.01168 0.28387 0.0
H2093 H 0.58048 0.96658 0.32973 0.0
C2094 C 0.60426 0.96913 0.33724 0.0
C2095 C 0.62169 0.97889 0.33524 0.0
C2096 C 0.59632 0.006 0.28878 0.0
C2097 C 0.601 0.98956 0.31701 0.0
C2098 C 0.58541 0.00946 0.2774 0.0
C2099 C 0.56842 0.00186 0.28302 0.0
C2100 C 0.59019 0.9947 0.30574 0.0
C2101 C 0.56298 0.9911 0.3006 0.0
C2102 C 0.59391 0.97449 0.32836 0.0
C2103 C 0.62834 0.99426 0.32461 0.0
N2104 N 0.57377 0.98773 0.31117 0.0
N2105 N 0.61798 0.99903 0.31562 0.0
H2106 H 0.0539 0.6546 0.32732 0.0
H2107 H 0.98105 0.56349 0.29309 0.0
H2108 H 0.00153 0.63911 0.33329 0.0
H2109 H 0.03314 0.58406 0.27685 0.0
H2110 H 0.98804 0.58989 0.31063 0.0
H2111 H 0.04626 0.62739 0.31235 0.0
C2112 C 0.04076 0.64543 0.32564 0.0
C2113 C 0.02834 0.6492 0.3315 0.0
C2114 C 0.99791 0.58857 0.30326 0.0
C2115 C 0.01947 0.6179 0.31415 0.0
C2116 C 0.99393 0.57353 0.29312 0.0
C2117 C 0.00652 0.57145 0.28348 0.0
C2118 C 0.01461 0.60161 0.30385 0.0
C2119 C 0.02303 0.58488 0.28436 0.0
C2120 C 0.0364 0.62988 0.31698 0.0
C2121 C 0.01152 0.63675 0.32895 0.0
N2122 N 0.02657 0.59931 0.29435 0.0
N2123 N 0.00757 0.62166 0.32039 0.0
H2124 H 0.3619 0.4028 0.34576 0.0
H2125 H 0.43067 0.41221 0.26362 0.0
H2126 H 0.36341 0.35985 0.32147 0.0
H2127 H 0.4393 0.45113 0.3084 0.0
H2128 H 0.40544 0.39295 0.28314 0.0
H2129 H 0.38964 0.421 0.33079 0.0
C2130 C 0.36816 0.39719 0.33745 0.0
C2131 C 0.36035 0.3798 0.33481 0.0
C2132 C 0.41296 0.40569 0.28874 0.0
C2133 C 0.39195 0.40058 0.31729 0.0
C2134 C 0.42743 0.41671 0.27766 0.0
C2135 C 0.43718 0.43346 0.28419 0.0
C2136 C 0.40801 0.41146 0.30631 0.0
C2137 C 0.43205 0.43852 0.30235 0.0
C2138 C 0.384 0.40759 0.32894 0.0
C2139 C 0.36903 0.3732 0.32393 0.0
N2140 N 0.41776 0.42763 0.31262 0.0
N2141 N 0.38429 0.38362 0.31528 0.0
H2142 H 0.29217 0.26678 0.35819 0.0
H2143 H 0.35359 0.25712 0.43681 0.0
H2144 H 0.33786 0.30942 0.38011 0.0
H2145 H 0.32014 0.21737 0.39497 0.0
H2146 H 0.34741 0.27641 0.4177 0.0
H2147 H 0.30141 0.24827 0.373 0.0
C2148 C 0.30423 0.27225 0.36595 0.0
C2149 C 0.31426 0.28966 0.36795 0.0
C2150 C 0.34153 0.26348 0.41265 0.0
C2151 C 0.32477 0.26853 0.38528 0.0
C2152 C 0.34509 0.25243 0.4235 0.0
C2153 C 0.3373 0.23546 0.41768 0.0
C2154 C 0.32991 0.25752 0.39602 0.0
C2155 C 0.32617 0.23018 0.40046 0.0
C2156 C 0.3095 0.26168 0.37437 0.0
C2157 C 0.32978 0.29607 0.37815 0.0
N2158 N 0.32271 0.24111 0.3904 0.0
N2159 N 0.33447 0.28549 0.38669 0.0
H2160 H 0.69052 0.02697 0.38144 0.0
H2161 H 0.7838 0.10347 0.39337 0.0
H2162 H 0.73397 0.02512 0.35994 0.0
H2163 H 0.74422 0.0954 0.43672 0.0
H2164 H 0.76452 0.07752 0.3753 0.0
H2165 H 0.70901 0.05505 0.39583 0.0
C2166 C 0.70392 0.03257 0.37946 0.0
C2167 C 0.71074 0.02369 0.36958 0.0
C2168 C 0.76007 0.08151 0.38872 0.0
C2169 C 0.73185 0.05571 0.38586 0.0
C2170 C 0.7711 0.09628 0.39919 0.0
C2171 C 0.76579 0.10164 0.4169 0.0
C2172 C 0.74349 0.07205 0.39572 0.0
C2173 C 0.74894 0.09195 0.4231 0.0
C2174 C 0.71444 0.04852 0.38779 0.0
C2175 C 0.72819 0.03149 0.36757 0.0
N2176 N 0.73842 0.07762 0.41256 0.0
N2177 N 0.73814 0.04704 0.37563 0.0
H2178 H 0.97456 0.66747 0.38164 0.0
H2179 H 0.8972 0.68302 0.39392 0.0
H2180 H 0.97545 0.71225 0.36006 0.0
H2181 H 0.90614 0.65238 0.43765 0.0
H2182 H 0.92312 0.68979 0.37565 0.0
H2183 H 0.94649 0.65761 0.39634 0.0
C2184 C 0.96876 0.6751 0.37972 0.0
C2185 C 0.97735 0.69073 0.36972 0.0
C2186 C 0.91933 0.68152 0.3892 0.0
C2187 C 0.94537 0.67953 0.38631 0.0
C2188 C 0.90458 0.67772 0.39978 0.0
C2189 C 0.89949 0.66728 0.41765 0.0
C2190 C 0.92903 0.67467 0.39627 0.0
C2191 C 0.90941 0.66038 0.42391 0.0
C2192 C 0.95282 0.66952 0.38822 0.0
C2193 C 0.96931 0.70017 0.36778 0.0
N2194 N 0.92372 0.66423 0.41327 0.0
N2195 N 0.95378 0.69442 0.37599 0.0
H2196 H 0.36413 0.99979 0.7047 0.0
H2197 H 0.45645 0.03151 0.7493 0.0
H2198 H 0.40413 0.05116 0.70353 0.0
H2199 H 0.41716 0.97989 0.7519 0.0
H2200 H 0.43773 0.03836 0.73021 0.0
H2201 H 0.38364 0.99164 0.71939 0.0
C2202 C 0.37704 0.00932 0.7073 0.0
C2203 C 0.38247 0.0262 0.70298 0.0
C2204 C 0.43317 0.02551 0.73485 0.0
C2205 C 0.4048 0.01699 0.71989 0.0
C2206 C 0.44385 0.0216 0.74588 0.0
C2207 C 0.43833 0.00512 0.75243 0.0
C2208 C 0.41675 0.01288 0.73033 0.0
C2209 C 0.42197 0.99275 0.7471 0.0
C2210 C 0.38815 0.00467 0.71575 0.0
C2211 C 0.39933 0.03802 0.70671 0.0
N2212 N 0.41171 0.9969 0.7365 0.0
N2213 N 0.40983 0.0332 0.71503 0.0
H2214 H 0.94827 0.34865 0.7118 0.0
H2215 H 0.02221 0.43941 0.7454 0.0
H2216 H 1.00038 0.36418 0.70258 0.0
H2217 H 0.97042 0.41912 0.763 0.0
H2218 H 0.01476 0.41302 0.72744 0.0
H2219 H 0.95641 0.37571 0.72759 0.0
C2220 C 0.96146 0.3578 0.71296 0.0
C2221 C 0.97366 0.35409 0.70591 0.0
C2222 C 0.00505 0.4144 0.73521 0.0
C2223 C 0.98312 0.38523 0.72422 0.0
C2224 C 0.0093 0.42942 0.74559 0.0
C2225 C 0.99693 0.43158 0.75569 0.0
C2226 C 0.9883 0.40146 0.73488 0.0
C2227 C 0.98037 0.41824 0.75512 0.0
C2228 C 0.9661 0.37327 0.72208 0.0
C2229 C 0.99056 0.36651 0.70782 0.0
N2230 N 0.97657 0.40382 0.74491 0.0
N2231 N 0.9948 0.38152 0.71687 0.0
H2232 H 0.65188 0.60132 0.71407 0.0
H2233 H 0.56174 0.587 0.74619 0.0
H2234 H 0.63821 0.63939 0.70556 0.0
H2235 H 0.58124 0.55522 0.76581 0.0
H2236 H 0.58846 0.60547 0.72869 0.0
H2237 H 0.62459 0.58308 0.72967 0.0
C2238 C 0.64309 0.60583 0.71534 0.0
C2239 C 0.6474 0.62197 0.70855 0.0
C2240 C 0.58683 0.59443 0.73683 0.0
C2241 C 0.61599 0.60105 0.72662 0.0
C2242 C 0.57162 0.58392 0.74693 0.0
C2243 C 0.56913 0.56942 0.75743 0.0
C2244 C 0.59962 0.59038 0.73713 0.0
C2245 C 0.58237 0.56602 0.75759 0.0
C2246 C 0.62749 0.5954 0.72436 0.0
C2247 C 0.63543 0.62706 0.71061 0.0
N2248 N 0.59696 0.57636 0.74758 0.0
N2249 N 0.62026 0.61664 0.71952 0.0
H2250 H 0.72124 0.7368 0.66015 0.0
H2251 H 0.64697 0.75377 0.62898 0.0
H2252 H 0.66923 0.70011 0.66973 0.0
H2253 H 0.69811 0.78401 0.60808 0.0
H2254 H 0.65473 0.73508 0.64685 0.0
H2255 H 0.71287 0.75566 0.64472 0.0
C2256 C 0.70803 0.73273 0.65916 0.0
C2257 C 0.69591 0.71679 0.66617 0.0
C2258 C 0.66422 0.74584 0.63837 0.0
C2259 C 0.68621 0.7384 0.64831 0.0
C2260 C 0.6598 0.75647 0.62804 0.0
C2261 C 0.6719 0.77058 0.61701 0.0
C2262 C 0.68089 0.74937 0.63777 0.0
C2263 C 0.68838 0.77353 0.61668 0.0
C2264 C 0.70326 0.74351 0.65025 0.0
C2265 C 0.67899 0.71227 0.66449 0.0
N2266 N 0.69236 0.76305 0.62691 0.0
N2267 N 0.67462 0.72302 0.65566 0.0
H2268 H 0.31127 0.97433 0.65487 0.0
H2269 H 0.21784 0.89836 0.64125 0.0
H2270 H 0.26769 0.97616 0.67576 0.0
H2271 H 0.25794 0.90579 0.59923 0.0
H2272 H 0.23704 0.92424 0.65949 0.0
H2273 H 0.29285 0.94636 0.64006 0.0
C2274 C 0.29786 0.96875 0.6566 0.0
C2275 C 0.29098 0.97759 0.66646 0.0
C2276 C 0.24163 0.92014 0.64631 0.0
C2277 C 0.26995 0.94572 0.64971 0.0
C2278 C 0.23064 0.90541 0.63575 0.0
C2279 C 0.23613 0.8999 0.61838 0.0
C2280 C 0.25834 0.92942 0.63972 0.0
C2281 C 0.25309 0.9094 0.61258 0.0
C2282 C 0.28738 0.95287 0.64804 0.0
C2283 C 0.27351 0.96984 0.66816 0.0
N2284 N 0.26357 0.92371 0.62319 0.0
N2285 N 0.26361 0.95436 0.65989 0.0
H2286 H 0.01682 0.28141 0.65466 0.0
H2287 H 0.10814 0.35608 0.62469 0.0
H2288 H 0.03179 0.33336 0.6644 0.0
H2289 H 0.08859 0.30452 0.60638 0.0
H2290 H 0.08127 0.34829 0.64149 0.0
H2291 H 0.04424 0.28989 0.63983 0.0
C2292 C 0.02591 0.29463 0.6538 0.0
C2293 C 0.02195 0.30669 0.66073 0.0
C2294 C 0.08292 0.33871 0.63382 0.0
C2295 C 0.05352 0.31654 0.64356 0.0
C2296 C 0.09822 0.34315 0.62412 0.0
C2297 C 0.10073 0.33094 0.61415 0.0
C2298 C 0.07004 0.32192 0.63361 0.0
C2299 C 0.08744 0.31434 0.61419 0.0
C2300 C 0.04159 0.29948 0.64523 0.0
C2301 C 0.03431 0.32364 0.65921 0.0
N2302 N 0.07274 0.31036 0.62376 0.0
N2303 N 0.04954 0.32808 0.65073 0.0
H2304 H 0.26993 0.28277 0.65733 0.0
H2305 H 0.25208 0.35629 0.62505 0.0
H2306 H 0.30653 0.335 0.66543 0.0
H2307 H 0.22117 0.30461 0.60657 0.0
H2308 H 0.27119 0.34894 0.64261 0.0
H2309 H 0.25068 0.29073 0.64219 0.0
C2310 C 0.2739 0.29594 0.65607 0.0
C2311 C 0.28993 0.30824 0.66259 0.0
C2312 C 0.2602 0.33924 0.63474 0.0
C2313 C 0.26785 0.31747 0.64505 0.0
C2314 C 0.24932 0.34342 0.62459 0.0
C2315 C 0.2349 0.33105 0.61432 0.0
C2316 C 0.25662 0.32255 0.63471 0.0
C2317 C 0.2319 0.31455 0.61457 0.0
C2318 C 0.26289 0.30048 0.64732 0.0
C2319 C 0.29431 0.32511 0.66057 0.0
N2320 N 0.24262 0.3108 0.62459 0.0
N2321 N 0.28334 0.32924 0.65191 0.0
H2322 H 0.71956 0.98556 0.66423 0.0
H2323 H 0.64608 0.89556 0.62795 0.0
H2324 H 0.66742 0.97129 0.6689 0.0
H2325 H 0.6978 0.9165 0.60954 0.0
H2326 H 0.65338 0.92173 0.6463 0.0
H2327 H 0.71152 0.95853 0.64833 0.0
C2328 C 0.70639 0.97668 0.66208 0.0
C2329 C 0.69415 0.98076 0.66784 0.0
C2330 C 0.6631 0.92053 0.63825 0.0
C2331 C 0.68484 0.94969 0.64943 0.0
C2332 C 0.65894 0.90564 0.62765 0.0
C2333 C 0.67134 0.90372 0.61716 0.0
C2334 C 0.67979 0.93359 0.63853 0.0
C2335 C 0.68784 0.91718 0.61769 0.0
C2336 C 0.70181 0.96126 0.65288 0.0
C2337 C 0.67727 0.96869 0.66466 0.0
N2338 N 0.69156 0.93147 0.6282 0.0
N2339 N 0.6731 0.95369 0.6556 0.0
H2340 H 0.03271 0.69545 0.66556 0.0
H2341 H 0.08905 0.78346 0.6087 0.0
H2342 H 0.01968 0.73428 0.66154 0.0
H2343 H 0.10823 0.75078 0.62521 0.0
H2344 H 0.06306 0.76469 0.62677 0.0
H2345 H 0.06006 0.71471 0.64991 0.0
C2346 C 0.03564 0.70804 0.66157 0.0
C2347 C 0.02385 0.71323 0.66482 0.0
C2348 C 0.07296 0.76163 0.62654 0.0
C2349 C 0.05497 0.7352 0.64672 0.0
C2350 C 0.0879 0.77242 0.61629 0.0
C2351 C 0.101 0.76884 0.61552 0.0
C2352 C 0.07092 0.74697 0.63602 0.0
C2353 C 0.09846 0.75402 0.62519 0.0
C2354 C 0.05123 0.71901 0.65262 0.0
C2355 C 0.02832 0.72968 0.65932 0.0
N2356 N 0.08371 0.74361 0.63501 0.0
N2357 N 0.04344 0.74 0.65043 0.0
H2358 H 0.95882 0.5986 0.68898 0.0
H2359 H 0.01742 0.58874 0.77175 0.0
H2360 H 0.00301 0.64145 0.71372 0.0
H2361 H 0.98754 0.55006 0.72656 0.0
H2362 H 0.01169 0.60815 0.75216 0.0
H2363 H 0.96826 0.58034 0.70406 0.0
C2364 C 0.9706 0.60417 0.69742 0.0
C2365 C 0.98014 0.62156 0.70014 0.0
C2366 C 0.00652 0.59544 0.74649 0.0
C2367 C 0.99086 0.60071 0.71778 0.0
C2368 C 0.00983 0.58432 0.75761 0.0
C2369 C 0.00284 0.56759 0.751 0.0
C2370 C 0.99595 0.58976 0.72879 0.0
C2371 C 0.99287 0.56266 0.73268 0.0
C2372 C 0.97599 0.59375 0.70599 0.0
C2373 C 0.99532 0.62811 0.71119 0.0
N2374 N 0.98959 0.57362 0.72238 0.0
N2375 N 1.00011 0.61766 0.71989 0.0
H2376 H 0.36569 0.36592 0.7022 0.0
H2377 H 0.45163 0.42392 0.76295 0.0
H2378 H 0.40491 0.35383 0.71038 0.0
H2379 H 0.41827 0.44177 0.74432 0.0
H2380 H 0.4337 0.39766 0.7449 0.0
H2381 H 0.38389 0.39338 0.71838 0.0
C2382 C 0.37815 0.36907 0.70723 0.0
C2383 C 0.38376 0.35753 0.70497 0.0
C2384 C 0.43029 0.40732 0.74465 0.0
C2385 C 0.40451 0.38876 0.72364 0.0
C2386 C 0.44061 0.42241 0.7549 0.0
C2387 C 0.4366 0.43523 0.75502 0.0
C2388 C 0.4157 0.40484 0.73451 0.0
C2389 C 0.42182 0.43223 0.74479 0.0
C2390 C 0.38851 0.38473 0.71648 0.0
C2391 C 0.4 0.36227 0.71181 0.0
N2392 N 0.4119 0.41734 0.73495 0.0
N2393 N 0.40973 0.37744 0.72091 0.0
H2394 H 0.63825 1.00034 0.7075 0.0
H2395 H 0.57634 0.03083 0.75121 0.0
H2396 H 0.64787 0.05111 0.7039 0.0
H2397 H 0.56466 0.97938 0.75391 0.0
H2398 H 0.60198 0.03793 0.73211 0.0
H2399 H 0.61058 0.99179 0.72247 0.0
C2400 C 0.63449 0.00965 0.70964 0.0
C2401 C 0.64545 0.02649 0.70454 0.0
C2402 C 0.59382 0.02506 0.73678 0.0
C2403 C 0.6139 0.01683 0.72176 0.0
C2404 C 0.5792 0.02101 0.74781 0.0
C2405 C 0.56842 0.00452 0.75438 0.0
C2406 C 0.59783 0.01255 0.73229 0.0
C2407 C 0.5726 0.99225 0.7491 0.0
C2408 C 0.61872 0.00477 0.71823 0.0
C2409 C 0.63991 0.03801 0.70769 0.0
N2410 N 0.58705 0.99654 0.7385 0.0
N2411 N 0.62461 0.03299 0.71617 0.0
loop_
_geom_bond_atom_site_label_1
_geom_bond_atom_site_label_2
_geom_bond_distance
_geom_bond_site_symmetry_2
_ccdc_geom_bond_type
O0 Cd1 2.223 . S
O0 C8 1.315 . S
Cd1 O0 2.223 . S
Cd1 O4 2.297 . S
Cd1 O5 2.439 . S
Cd1 O11 2.240 1_554 S
Cd2 O3 2.240 . S
Cd2 O10 2.223 1_554 S
Cd2 O12 2.297 1_554 S
Cd2 O13 2.418 1_554 S
O3 Cd2 2.240 . S
O3 C8 1.279 1_655 S
O4 Cd1 2.297 . S
O4 C6 1.247 . S
O5 Cd1 2.439 . S
O5 C6 1.208 . S
C6 O4 1.247 . S
C6 O5 1.208 . S
C7 O12 1.247 . S
C7 O13 1.238 . S
C8 O0 1.315 . S
C8 O3 1.279 1_455 S
C9 O10 1.315 . S
C9 O11 1.279 1_655 S
O10 Cd2 2.223 1_556 S
O10 C9 1.315 . S
O11 Cd1 2.240 1_556 S
O11 C9 1.279 1_455 S
O12 Cd2 2.297 1_556 S
O12 C7 1.247 . S
O13 Cd2 2.418 1_556 S
O13 C7 1.238 . S
O14 Cd15 2.223 . S
O14 C22 1.315 . S
Cd15 O14 2.223 . S
Cd15 O18 2.297 . S
Cd15 O19 2.439 . S
Cd15 O25 2.240 1_554 S
Cd16 O17 2.240 . S
Cd16 O24 2.223 1_554 S
Cd16 O26 2.297 1_554 S
Cd16 O27 2.439 1_554 S
O17 Cd16 2.240 . S
O17 C22 1.279 . S
O18 Cd15 2.297 . S
O18 C20 1.247 . S
O19 Cd15 2.439 . S
O19 C20 1.208 . S
C20 O18 1.247 . S
C20 O19 1.208 . S
C21 O26 1.247 . S
C21 O27 1.208 . S
C22 O14 1.315 . S
C22 O17 1.279 . S
C23 O24 1.315 . S
C23 O25 1.279 . S
O24 Cd16 2.223 1_556 S
O24 C23 1.315 . S
O25 Cd15 2.240 1_556 S
O25 C23 1.279 . S
O26 Cd16 2.297 1_556 S
O26 C21 1.247 . S
O27 Cd16 2.439 1_556 S
O27 C21 1.208 . S
O28 Cd29 2.223 1_556 S
O28 C36 1.315 . S
Cd29 O28 2.223 1_554 S
Cd29 O32 2.297 1_554 S
Cd29 O33 2.439 1_554 S
Cd29 O39 2.240 . S
Cd30 O31 2.240 1_554 S
Cd30 O38 2.223 . S
Cd30 O40 2.297 . S
Cd30 O41 2.439 . S
O31 Cd30 2.240 1_556 S
O31 C36 1.279 1_565 S
O32 Cd29 2.297 1_556 S
O32 C34 1.247 . S
O33 Cd29 2.439 1_556 S
O33 C34 1.208 . S
C34 O32 1.247 . S
C34 O33 1.208 . S
C35 O40 1.247 . S
C35 O41 1.208 . S
C36 O28 1.315 . S
C36 O31 1.279 1_545 S
C37 O38 1.315 . S
C37 O39 1.279 1_565 S
O38 Cd30 2.223 . S
O38 C37 1.315 . S
O39 Cd29 2.240 . S
O39 C37 1.279 1_545 S
O40 Cd30 2.297 . S
O40 C35 1.247 . S
O41 Cd30 2.439 . S
O41 C35 1.208 . S
O42 Cd43 2.223 1_556 S
O42 C50 1.315 . S
Cd43 O42 2.223 1_554 S
Cd43 O46 2.297 1_554 S
Cd43 O47 2.439 1_554 S
Cd43 O53 2.240 . S
Cd44 O45 2.240 1_554 S
Cd44 O52 2.223 . S
Cd44 O54 2.297 . S
Cd44 O55 2.439 . S
O45 Cd44 2.240 1_556 S
O45 C50 1.279 1_455 S
O46 Cd43 2.297 1_556 S
O46 C48 1.247 . S
O47 Cd43 2.439 1_556 S
O47 C48 1.208 . S
C48 O46 1.247 . S
C48 O47 1.208 . S
C49 O54 1.247 . S
C49 O55 1.208 . S
C50 O42 1.315 . S
C50 O45 1.279 1_655 S
C51 O52 1.315 . S
C51 O53 1.279 1_455 S
O52 Cd44 2.223 . S
O52 C51 1.315 . S
O53 Cd43 2.240 . S
O53 C51 1.279 1_655 S
O54 Cd44 2.297 . S
O54 C49 1.247 . S
O55 Cd44 2.439 . S
O55 C49 1.208 . S
O56 Cd57 2.223 1_556 S
O56 C64 1.315 . S
Cd57 O56 2.223 1_554 S
Cd57 O60 2.297 1_554 S
Cd57 O61 2.439 1_554 S
Cd57 O67 2.240 . S
Cd58 O59 2.240 1_554 S
Cd58 O66 2.223 . S
Cd58 O68 2.297 . S
Cd58 O69 2.439 . S
O59 Cd58 2.240 1_556 S
O59 C64 1.279 . S
O60 Cd57 2.297 1_556 S
O60 C62 1.247 . S
O61 Cd57 2.439 1_556 S
O61 C62 1.208 . S
C62 O60 1.247 . S
C62 O61 1.208 . S
C63 O68 1.247 . S
C63 O69 1.208 . S
C64 O56 1.315 . S
C64 O59 1.279 . S
C65 O66 1.315 . S
C65 O67 1.279 . S
O66 Cd58 2.223 . S
O66 C65 1.315 . S
O67 Cd57 2.240 . S
O67 C65 1.279 . S
O68 Cd58 2.297 . S
O68 C63 1.247 . S
O69 Cd58 2.439 . S
O69 C63 1.208 . S
O70 Cd71 2.223 . S
O70 C78 1.315 . S
Cd71 O70 2.223 . S
Cd71 O74 2.297 . S
Cd71 O75 2.439 . S
Cd71 O81 2.240 1_554 S
Cd72 O73 2.240 . S
Cd72 O80 2.223 1_554 S
Cd72 O82 2.297 1_554 S
Cd72 O83 2.425 1_554 S
O73 Cd72 2.240 . S
O73 C78 1.279 1_545 S
O74 Cd71 2.297 . S
O74 C76 1.247 . S
O75 Cd71 2.439 . S
O75 C76 1.208 . S
C76 O74 1.247 . S
C76 O75 1.208 . S
C77 O82 1.247 . S
C77 O83 1.228 . S
C78 O70 1.315 . S
C78 O73 1.279 1_565 S
C79 O80 1.315 . S
C79 O81 1.279 1_545 S
O80 Cd72 2.223 1_556 S
O80 C79 1.315 . S
O81 Cd71 2.240 1_556 S
O81 C79 1.279 1_565 S
O82 Cd72 2.297 1_556 S
O82 C77 1.247 . S
O83 Cd72 2.425 1_556 S
O83 C77 1.228 . S
O84 Cd85 2.223 . S
O84 C92 1.315 . S
Cd85 O84 2.223 . S
Cd85 O88 2.297 . S
Cd85 O89 2.439 . S
Cd85 O95 2.240 . S
Cd86 O87 2.240 . S
Cd86 O94 2.223 . S
Cd86 O96 2.297 . S
Cd86 O97 2.439 . S
O87 Cd86 2.240 . S
O87 C92 1.279 . S
O88 Cd85 2.297 . S
O88 C90 1.247 . S
O89 Cd85 2.439 . S
O89 C90 1.208 . S
C90 O88 1.247 . S
C90 O89 1.208 . S
C91 O96 1.247 . S
C91 O97 1.208 . S
C92 O84 1.315 . S
C92 O87 1.279 . S
C93 O94 1.315 . S
C93 O95 1.279 . S
O94 Cd86 2.223 . S
O94 C93 1.315 . S
O95 Cd85 2.240 . S
O95 C93 1.279 . S
O96 Cd86 2.297 . S
O96 C91 1.247 . S
O97 Cd86 2.439 . S
O97 C91 1.208 . S
O98 Cd99 2.223 . S
O98 C106 1.315 . S
Cd99 O98 2.223 . S
Cd99 O102 2.297 1_565 S
Cd99 O103 2.439 1_565 S
Cd99 O109 2.240 . S
Cd100 O101 2.240 . S
Cd100 O108 2.223 . S
Cd100 O110 2.297 . S
Cd100 O111 2.439 . S
O101 Cd100 2.240 . S
O101 C106 1.279 . S
O102 Cd99 2.297 1_545 S
O102 C104 1.247 . S
O103 Cd99 2.439 1_545 S
O103 C104 1.208 . S
C104 O102 1.247 . S
C104 O103 1.208 . S
C105 O110 1.247 . S
C105 O111 1.208 . S
C106 O98 1.315 . S
C106 O101 1.279 . S
C107 O108 1.315 . S
C107 O109 1.279 . S
O108 Cd100 2.223 . S
O108 C107 1.315 . S
O109 Cd99 2.240 . S
O109 C107 1.279 . S
O110 Cd100 2.297 . S
O110 C105 1.247 . S
O111 Cd100 2.439 . S
O111 C105 1.208 . S
O112 Cd113 2.223 . S
O112 C120 1.315 . S
Cd113 O112 2.223 . S
Cd113 O116 2.297 . S
Cd113 O117 2.439 . S
Cd113 O123 2.240 . S
Cd114 O115 2.240 . S
Cd114 O122 2.223 . S
Cd114 O124 2.297 1_455 S
Cd114 O125 2.439 1_455 S
O115 Cd114 2.240 . S
O115 C120 1.279 . S
O116 Cd113 2.297 . S
O116 C118 1.247 . S
O117 Cd113 2.439 . S
O117 C118 1.208 . S
C118 O116 1.247 . S
C118 O117 1.208 . S
C119 O124 1.247 . S
C119 O125 1.208 . S
C120 O112 1.315 . S
C120 O115 1.279 . S
C121 O122 1.315 . S
C121 O123 1.279 . S
O122 Cd114 2.223 . S
O122 C121 1.315 . S
O123 Cd113 2.240 . S
O123 C121 1.279 . S
O124 Cd114 2.297 1_655 S
O124 C119 1.247 . S
O125 Cd114 2.439 1_655 S
O125 C119 1.208 . S
O126 Cd127 2.223 . S
O126 C134 1.315 . S
Cd127 O126 2.223 . S
Cd127 O130 2.297 . S
Cd127 O131 2.439 . S
Cd127 O137 2.240 . S
Cd128 O129 2.240 . S
Cd128 O136 2.223 . S
Cd128 O138 2.297 1_565 S
Cd128 O139 2.439 1_565 S
O129 Cd128 2.240 . S
O129 C134 1.279 . S
O130 Cd127 2.297 . S
O130 C132 1.247 . S
O131 Cd127 2.439 . S
O131 C132 1.208 . S
C132 O130 1.247 . S
C132 O131 1.208 . S
C133 O138 1.247 . S
C133 O139 1.208 . S
C134 O126 1.315 . S
C134 O129 1.279 . S
C135 O136 1.315 . S
C135 O137 1.279 . S
O136 Cd128 2.223 . S
O136 C135 1.315 . S
O137 Cd127 2.240 . S
O137 C135 1.279 . S
O138 Cd128 2.297 1_545 S
O138 C133 1.247 . S
O139 Cd128 2.439 1_545 S
O139 C133 1.208 . S
O140 Cd141 2.223 . S
O140 C148 1.315 . S
Cd141 O140 2.223 . S
Cd141 O144 2.297 . S
Cd141 O145 2.439 . S
Cd141 O151 2.240 . S
Cd142 O143 2.240 . S
Cd142 O150 2.223 . S
Cd142 O152 2.297 1_455 S
Cd142 O153 2.439 1_455 S
O143 Cd142 2.240 . S
O143 C148 1.279 . S
O144 Cd141 2.297 . S
O144 C146 1.247 . S
O145 Cd141 2.439 . S
O145 C146 1.208 . S
C146 O144 1.247 . S
C146 O145 1.208 . S
C147 O152 1.247 . S
C147 O153 1.208 . S
C148 O140 1.315 . S
C148 O143 1.279 . S
C149 O150 1.315 . S
C149 O151 1.279 . S
O150 Cd142 2.223 . S
O150 C149 1.315 . S
O151 Cd141 2.240 . S
O151 C149 1.279 . S
O152 Cd142 2.297 1_655 S
O152 C147 1.247 . S
O153 Cd142 2.439 1_655 S
O153 C147 1.208 . S
O154 Cd155 2.223 . S
O154 C162 1.315 . S
Cd155 O154 2.223 . S
Cd155 O158 2.297 . S
Cd155 O159 2.439 . S
Cd155 O165 2.240 . S
Cd156 O157 2.240 . S
Cd156 O164 2.223 . S
Cd156 O166 2.297 . S
Cd156 O167 2.439 . S
O157 Cd156 2.240 . S
O157 C162 1.279 . S
O158 Cd155 2.297 . S
O158 C160 1.247 . S
O159 Cd155 2.439 . S
O159 C160 1.208 . S
C160 O158 1.247 . S
C160 O159 1.208 . S
C161 O166 1.247 . S
C161 O167 1.208 . S
C162 O154 1.315 . S
C162 O157 1.279 . S
C163 O164 1.315 . S
C163 O165 1.279 . S
O164 Cd156 2.223 . S
O164 C163 1.315 . S
O165 Cd155 2.240 . S
O165 C163 1.279 . S
O166 Cd156 2.297 . S
O166 C161 1.247 . S
O167 Cd156 2.439 . S
O167 C161 1.208 . S
O168 Cd169 2.223 . S
O168 C176 1.315 . S
Cd169 O168 2.223 . S
Cd169 O172 2.297 . S
Cd169 O173 2.439 . S
Cd169 O179 2.240 . S
Cd170 O171 2.240 . S
Cd170 O178 2.223 . S
Cd170 O180 2.297 1_545 S
Cd170 O181 2.439 1_545 S
O171 Cd170 2.240 . S
O171 C176 1.279 . S
O172 Cd169 2.297 . S
O172 C174 1.247 . S
O173 Cd169 2.439 . S
O173 C174 1.208 . S
C174 O172 1.247 . S
C174 O173 1.208 . S
C175 O180 1.247 . S
C175 O181 1.208 . S
C176 O168 1.315 . S
C176 O171 1.279 . S
C177 O178 1.315 . S
C177 O179 1.279 . S
O178 Cd170 2.223 . S
O178 C177 1.315 . S
O179 Cd169 2.240 . S
O179 C177 1.279 . S
O180 Cd170 2.297 1_565 S
O180 C175 1.247 . S
O181 Cd170 2.439 1_565 S
O181 C175 1.208 . S
O182 Cd183 2.223 . S
O182 C190 1.315 . S
Cd183 O182 2.223 . S
Cd183 O186 2.297 . S
Cd183 O187 2.439 . S
Cd183 O193 2.240 . S
Cd184 O185 2.240 . S
Cd184 O192 2.223 . S
Cd184 O194 2.297 1_655 S
Cd184 O195 2.439 1_655 S
O185 Cd184 2.240 . S
O185 C190 1.279 . S
O186 Cd183 2.297 . S
O186 C188 1.247 . S
O187 Cd183 2.439 . S
O187 C188 1.208 . S
C188 O186 1.247 . S
C188 O187 1.208 . S
C189 O194 1.247 . S
C189 O195 1.208 . S
C190 O182 1.315 . S
C190 O185 1.279 . S
C191 O192 1.315 . S
C191 O193 1.279 . S
O192 Cd184 2.223 . S
O192 C191 1.315 . S
O193 Cd183 2.240 . S
O193 C191 1.279 . S
O194 Cd184 2.297 1_455 S
O194 C189 1.247 . S
O195 Cd184 2.439 1_455 S
O195 C189 1.208 . S
O196 Cd197 2.223 . S
O196 C204 1.315 . S
Cd197 O196 2.223 . S
Cd197 O200 2.297 . S
Cd197 O201 2.439 . S
Cd197 O207 2.240 . S
Cd198 O199 2.240 . S
Cd198 O206 2.223 . S
Cd198 O208 2.297 . S
Cd198 O209 2.439 . S
O199 Cd198 2.240 . S
O199 C204 1.279 . S
O200 Cd197 2.297 . S
O200 C202 1.247 . S
O201 Cd197 2.439 . S
O201 C202 1.208 . S
C202 O200 1.247 . S
C202 O201 1.208 . S
C203 O208 1.247 . S
C203 O209 1.208 . S
C204 O196 1.315 . S
C204 O199 1.279 . S
C205 O206 1.315 . S
C205 O207 1.279 . S
O206 Cd198 2.223 . S
O206 C205 1.315 . S
O207 Cd197 2.240 . S
O207 C205 1.279 . S
O208 Cd198 2.297 . S
O208 C203 1.247 . S
O209 Cd198 2.439 . S
O209 C203 1.208 . S
O210 Cd211 2.223 . S
O210 C218 1.315 . S
Cd211 O210 2.223 . S
Cd211 O214 2.297 . S
Cd211 O215 2.439 . S
Cd211 O221 2.240 . S
Cd212 O213 2.240 . S
Cd212 O220 2.223 . S
Cd212 O222 2.297 . S
Cd212 O223 2.439 . S
O213 Cd212 2.240 . S
O213 C218 1.279 . S
O214 Cd211 2.297 . S
O214 C216 1.247 . S
O215 Cd211 2.439 . S
O215 C216 1.208 . S
C216 O214 1.247 . S
C216 O215 1.208 . S
C217 O222 1.247 . S
C217 O223 1.208 . S
C218 O210 1.315 . S
C218 O213 1.279 . S
C219 O220 1.315 . S
C219 O221 1.279 . S
O220 Cd212 2.223 . S
O220 C219 1.315 . S
O221 Cd211 2.240 . S
O221 C219 1.279 . S
O222 Cd212 2.297 . S
O222 C217 1.247 . S
O223 Cd212 2.439 . S
O223 C217 1.208 . S
O224 Cd225 2.223 . S
O224 C232 1.315 . S
Cd225 O224 2.223 . S
Cd225 O228 2.297 1_545 S
Cd225 O229 2.439 1_545 S
Cd225 O235 2.240 . S
Cd226 O227 2.240 . S
Cd226 O234 2.223 . S
Cd226 O236 2.297 . S
Cd226 O237 2.439 . S
O227 Cd226 2.240 . S
O227 C232 1.279 . S
O228 Cd225 2.297 1_565 S
O228 C230 1.247 . S
O229 Cd225 2.439 1_565 S
O229 C230 1.208 . S
C230 O228 1.247 . S
C230 O229 1.208 . S
C231 O236 1.247 . S
C231 O237 1.208 . S
C232 O224 1.315 . S
C232 O227 1.279 . S
C233 O234 1.315 . S
C233 O235 1.279 . S
O234 Cd226 2.223 . S
O234 C233 1.315 . S
O235 Cd225 2.240 . S
O235 C233 1.279 . S
O236 Cd226 2.297 . S
O236 C231 1.247 . S
O237 Cd226 2.439 . S
O237 C231 1.208 . S
O238 Cd239 2.223 . S
O238 C246 1.315 . S
Cd239 O238 2.223 . S
Cd239 O242 2.297 . S
Cd239 O243 2.439 . S
Cd239 O249 2.240 . S
Cd240 O241 2.240 . S
Cd240 O248 2.223 . S
Cd240 O250 2.297 1_655 S
Cd240 O251 2.439 1_655 S
O241 Cd240 2.240 . S
O241 C246 1.279 . S
O242 Cd239 2.297 . S
O242 C244 1.247 . S
O243 Cd239 2.439 . S
O243 C244 1.208 . S
C244 O242 1.247 . S
C244 O243 1.208 . S
C245 O250 1.247 . S
C245 O251 1.208 . S
C246 O238 1.315 . S
C246 O241 1.279 . S
C247 O248 1.315 . S
C247 O249 1.279 . S
O248 Cd240 2.223 . S
O248 C247 1.315 . S
O249 Cd239 2.240 . S
O249 C247 1.279 . S
O250 Cd240 2.297 1_455 S
O250 C245 1.247 . S
O251 Cd240 2.439 1_455 S
O251 C245 1.208 . S
H252 C271 0.949 . S
H253 C272 0.950 . S
H254 C274 0.950 . S
H255 C275 0.950 . S
H256 C277 0.950 . S
H257 C280 0.950 . S
H258 C281 0.950 . S
H259 C283 0.951 . S
H260 C284 0.949 . S
H261 C286 0.949 . S
H262 C287 0.950 . S
H263 C289 0.950 . S
H264 C290 0.950 . S
H265 C292 0.950 . S
H266 C295 0.950 . S
H267 C296 0.950 . S
H268 C298 0.951 . S
H269 C299 0.949 . S
C270 C271 1.376 . S
C270 C275 1.386 . S
C270 C276 1.483 . S
C271 H252 0.949 . S
C271 C270 1.376 . S
C271 C272 1.397 . S
C272 H253 0.950 . S
C272 C271 1.397 . S
C272 C273 1.391 . S
C273 C272 1.391 . S
C273 C274 1.405 . S
C274 H254 0.950 . S
C274 C273 1.405 . S
C274 C275 1.367 . S
C275 H255 0.950 . S
C275 C270 1.386 . S
C275 C274 1.367 . S
C276 C270 1.483 . S
C276 C277 1.382 . S
C276 C278 1.403 . S
C277 H256 0.950 . S
C277 C276 1.382 . S
C277 C293 1.411 . S
C278 C276 1.403 . S
C278 C279 1.489 . S
C278 C292 1.411 . S
C279 C278 1.489 . S
C279 C280 1.383 . S
C279 C284 1.382 . S
C280 H257 0.950 . S
C280 C279 1.383 . S
C280 C281 1.395 . S
C281 H258 0.950 . S
C281 C280 1.395 . S
C281 C282 1.288 . S
C282 C281 1.288 . S
C282 C283 1.392 . S
C283 H259 0.951 . S
C283 C282 1.392 . S
C283 C284 1.392 . S
C284 H260 0.949 . S
C284 C279 1.382 . S
C284 C283 1.392 . S
C285 C286 1.376 . S
C285 C290 1.386 . S
C285 C291 1.483 . S
C286 H261 0.949 . S
C286 C285 1.376 . S
C286 C287 1.397 . S
C287 H262 0.950 . S
C287 C286 1.397 . S
C287 C288 1.391 . S
C288 C287 1.391 . S
C288 C289 1.405 . S
C289 H263 0.950 . S
C289 C288 1.405 . S
C289 C290 1.367 . S
C290 H264 0.950 . S
C290 C285 1.386 . S
C290 C289 1.367 . S
C291 C285 1.483 . S
C291 C292 1.382 . S
C291 C293 1.403 . S
C292 H265 0.950 . S
C292 C278 1.411 . S
C292 C291 1.382 . S
C293 C277 1.411 . S
C293 C291 1.403 . S
C293 C294 1.489 . S
C294 C293 1.489 . S
C294 C295 1.383 . S
C294 C299 1.382 . S
C295 H266 0.950 . S
C295 C294 1.383 . S
C295 C296 1.395 . S
C296 H267 0.950 . S
C296 C295 1.395 . S
C296 C297 1.288 . S
C297 C296 1.288 . S
C297 C298 1.392 . S
C298 H268 0.951 . S
C298 C297 1.392 . S
C298 C299 1.392 . S
C299 H269 0.949 . S
C299 C294 1.382 . S
C299 C298 1.392 . S
H300 C319 0.949 . S
H301 C320 0.950 . S
H302 C322 0.950 . S
H303 C323 0.950 . S
H304 C325 0.950 . S
H305 C328 0.950 . S
H306 C329 0.950 . S
H307 C331 0.951 . S
H308 C332 0.949 . S
H309 C334 0.949 . S
H310 C335 0.950 . S
H311 C337 0.950 . S
H312 C338 0.950 . S
H313 C340 0.950 . S
H314 C343 0.950 . S
H315 C344 0.950 . S
H316 C346 0.951 . S
H317 C347 0.949 . S
C318 C319 1.376 . S
C318 C323 1.386 . S
C318 C324 1.483 . S
C319 H300 0.949 . S
C319 C318 1.376 . S
C319 C320 1.397 . S
C320 H301 0.950 . S
C320 C319 1.397 . S
C320 C321 1.391 . S
C321 C320 1.391 . S
C321 C322 1.405 . S
C322 H302 0.950 . S
C322 C321 1.405 . S
C322 C323 1.367 . S
C323 H303 0.950 . S
C323 C318 1.386 . S
C323 C322 1.367 . S
C324 C318 1.483 . S
C324 C325 1.382 . S
C324 C326 1.403 . S
C325 H304 0.950 . S
C325 C324 1.382 . S
C325 C341 1.411 . S
C326 C324 1.403 . S
C326 C327 1.489 . S
C326 C340 1.411 . S
C327 C326 1.489 . S
C327 C328 1.383 . S
C327 C332 1.382 . S
C328 H305 0.950 . S
C328 C327 1.383 . S
C328 C329 1.395 . S
C329 H306 0.950 . S
C329 C328 1.395 . S
C329 C330 1.288 . S
C330 C329 1.288 . S
C330 C331 1.392 . S
C331 H307 0.951 . S
C331 C330 1.392 . S
C331 C332 1.392 . S
C332 H308 0.949 . S
C332 C327 1.382 . S
C332 C331 1.392 . S
C333 C334 1.376 . S
C333 C338 1.386 . S
C333 C339 1.483 . S
C334 H309 0.949 . S
C334 C333 1.376 . S
C334 C335 1.397 . S
C335 H310 0.950 . S
C335 C334 1.397 . S
C335 C336 1.391 . S
C336 C335 1.391 . S
C336 C337 1.405 . S
C337 H311 0.950 . S
C337 C336 1.405 . S
C337 C338 1.367 . S
C338 H312 0.950 . S
C338 C333 1.386 . S
C338 C337 1.367 . S
C339 C333 1.483 . S
C339 C340 1.382 . S
C339 C341 1.403 . S
C340 H313 0.950 . S
C340 C326 1.411 . S
C340 C339 1.382 . S
C341 C325 1.411 . S
C341 C339 1.403 . S
C341 C342 1.489 . S
C342 C341 1.489 . S
C342 C343 1.383 . S
C342 C347 1.382 . S
C343 H314 0.950 . S
C343 C342 1.383 . S
C343 C344 1.395 . S
C344 H315 0.950 . S
C344 C343 1.395 . S
C344 C345 1.288 . S
C345 C344 1.288 . S
C345 C346 1.392 . S
C346 H316 0.951 . S
C346 C345 1.392 . S
C346 C347 1.392 . S
C347 H317 0.949 . S
C347 C342 1.382 . S
C347 C346 1.392 . S
H348 C367 0.949 . S
H349 C368 0.950 . S
H350 C370 0.950 . S
H351 C371 0.950 . S
H352 C373 0.950 . S
H353 C376 0.950 . S
H354 C377 0.950 . S
H355 C379 0.951 . S
H356 C380 0.949 . S
H357 C382 0.949 . S
H358 C383 0.950 . S
H359 C385 0.950 . S
H360 C386 0.950 . S
H361 C388 0.950 . S
H362 C391 0.950 . S
H363 C392 0.950 . S
H364 C394 0.951 . S
H365 C395 0.949 . S
C366 C367 1.376 . S
C366 C371 1.386 . S
C366 C372 1.483 . S
C367 H348 0.949 . S
C367 C366 1.376 . S
C367 C368 1.397 . S
C368 H349 0.950 . S
C368 C367 1.397 . S
C368 C369 1.391 . S
C369 C368 1.391 . S
C369 C370 1.405 . S
C370 H350 0.950 . S
C370 C369 1.405 . S
C370 C371 1.367 . S
C371 H351 0.950 . S
C371 C366 1.386 . S
C371 C370 1.367 . S
C372 C366 1.483 . S
C372 C373 1.382 . S
C372 C374 1.403 . S
C373 H352 0.950 . S
C373 C372 1.382 . S
C373 C389 1.411 . S
C374 C372 1.403 . S
C374 C375 1.489 . S
C374 C388 1.411 . S
C375 C374 1.489 . S
C375 C376 1.383 . S
C375 C380 1.382 . S
C376 H353 0.950 . S
C376 C375 1.383 . S
C376 C377 1.395 . S
C377 H354 0.950 . S
C377 C376 1.395 . S
C377 C378 1.288 . S
C378 C377 1.288 . S
C378 C379 1.392 . S
C379 H355 0.951 . S
C379 C378 1.392 . S
C379 C380 1.392 . S
C380 H356 0.949 . S
C380 C375 1.382 . S
C380 C379 1.392 . S
C381 C382 1.376 . S
C381 C386 1.386 . S
C381 C387 1.483 . S
C382 H357 0.949 . S
C382 C381 1.376 . S
C382 C383 1.397 . S
C383 H358 0.950 . S
C383 C382 1.397 . S
C383 C384 1.391 . S
C384 C383 1.391 . S
C384 C385 1.405 . S
C385 H359 0.950 . S
C385 C384 1.405 . S
C385 C386 1.367 . S
C386 H360 0.950 . S
C386 C381 1.386 . S
C386 C385 1.367 . S
C387 C381 1.483 . S
C387 C388 1.382 . S
C387 C389 1.403 . S
C388 H361 0.950 . S
C388 C374 1.411 . S
C388 C387 1.382 . S
C389 C373 1.411 . S
C389 C387 1.403 . S
C389 C390 1.489 . S
C390 C389 1.489 . S
C390 C391 1.383 . S
C390 C395 1.382 . S
C391 H362 0.950 . S
C391 C390 1.383 . S
C391 C392 1.395 . S
C392 H363 0.950 . S
C392 C391 1.395 . S
C392 C393 1.288 . S
C393 C392 1.288 . S
C393 C394 1.392 . S
C394 H364 0.951 . S
C394 C393 1.392 . S
C394 C395 1.392 . S
C395 H365 0.949 . S
C395 C390 1.382 . S
C395 C394 1.392 . S
H396 C415 0.949 . S
H397 C416 0.950 . S
H398 C418 0.950 . S
H399 C419 0.950 . S
H400 C421 0.950 . S
H401 C424 0.950 . S
H402 C425 0.950 . S
H403 C427 0.951 . S
H404 C428 0.949 . S
H405 C430 0.949 . S
H406 C431 0.950 . S
H407 C433 0.950 . S
H408 C434 0.950 . S
H409 C436 0.950 . S
H410 C439 0.950 . S
H411 C440 0.950 . S
H412 C442 0.951 . S
H413 C443 0.949 . S
C414 C415 1.376 . S
C414 C419 1.386 . S
C414 C420 1.483 . S
C415 H396 0.949 . S
C415 C414 1.376 . S
C415 C416 1.397 . S
C416 H397 0.950 . S
C416 C415 1.397 . S
C416 C417 1.391 . S
C417 C416 1.391 . S
C417 C418 1.405 . S
C418 H398 0.950 . S
C418 C417 1.405 . S
C418 C419 1.367 . S
C419 H399 0.950 . S
C419 C414 1.386 . S
C419 C418 1.367 . S
C420 C414 1.483 . S
C420 C421 1.382 . S
C420 C422 1.403 . S
C421 H400 0.950 . S
C421 C420 1.382 . S
C421 C437 1.411 . S
C422 C420 1.403 . S
C422 C423 1.489 . S
C422 C436 1.411 . S
C423 C422 1.489 . S
C423 C424 1.383 . S
C423 C428 1.382 . S
C424 H401 0.950 . S
C424 C423 1.383 . S
C424 C425 1.395 . S
C425 H402 0.950 . S
C425 C424 1.395 . S
C425 C426 1.288 . S
C426 C425 1.288 . S
C426 C427 1.392 . S
C427 H403 0.951 . S
C427 C426 1.392 . S
C427 C428 1.392 . S
C428 H404 0.949 . S
C428 C423 1.382 . S
C428 C427 1.392 . S
C429 C430 1.376 . S
C429 C434 1.386 . S
C429 C435 1.483 . S
C430 H405 0.949 . S
C430 C429 1.376 . S
C430 C431 1.397 . S
C431 H406 0.950 . S
C431 C430 1.397 . S
C431 C432 1.391 . S
C432 C431 1.391 . S
C432 C433 1.405 . S
C433 H407 0.950 . S
C433 C432 1.405 . S
C433 C434 1.367 . S
C434 H408 0.950 . S
C434 C429 1.386 . S
C434 C433 1.367 . S
C435 C429 1.483 . S
C435 C436 1.382 . S
C435 C437 1.403 . S
C436 H409 0.950 . S
C436 C422 1.411 . S
C436 C435 1.382 . S
C437 C421 1.411 . S
C437 C435 1.403 . S
C437 C438 1.489 . S
C438 C437 1.489 . S
C438 C439 1.383 . S
C438 C443 1.382 . S
C439 H410 0.950 . S
C439 C438 1.383 . S
C439 C440 1.395 . S
C440 H411 0.950 . S
C440 C439 1.395 . S
C440 C441 1.288 . S
C441 C440 1.288 . S
C441 C442 1.392 . S
C442 H412 0.951 . S
C442 C441 1.392 . S
C442 C443 1.392 . S
C443 H413 0.949 . S
C443 C438 1.382 . S
C443 C442 1.392 . S
H444 C463 0.949 . S
H445 C464 0.950 . S
H446 C466 0.950 . S
H447 C467 0.950 . S
H448 C469 0.950 . S
H449 C472 0.950 . S
H450 C473 0.950 . S
H451 C475 0.951 . S
H452 C476 0.949 . S
H453 C478 0.949 . S
H454 C479 0.950 . S
H455 C481 0.950 . S
H456 C482 0.950 . S
H457 C484 0.950 . S
H458 C487 0.950 . S
H459 C488 0.950 . S
H460 C490 0.951 . S
H461 C491 0.949 . S
C462 C463 1.376 . S
C462 C467 1.386 . S
C462 C468 1.483 . S
C463 H444 0.949 . S
C463 C462 1.376 . S
C463 C464 1.397 . S
C464 H445 0.950 . S
C464 C463 1.397 . S
C464 C465 1.391 . S
C465 C464 1.391 . S
C465 C466 1.405 . S
C466 H446 0.950 . S
C466 C465 1.405 . S
C466 C467 1.367 . S
C467 H447 0.950 . S
C467 C462 1.386 . S
C467 C466 1.367 . S
C468 C462 1.483 . S
C468 C469 1.382 . S
C468 C470 1.403 . S
C469 H448 0.950 . S
C469 C468 1.382 . S
C469 C485 1.411 . S
C470 C468 1.403 . S
C470 C471 1.489 . S
C470 C484 1.411 . S
C471 C470 1.489 . S
C471 C472 1.383 . S
C471 C476 1.382 . S
C472 H449 0.950 . S
C472 C471 1.383 . S
C472 C473 1.395 . S
C473 H450 0.950 . S
C473 C472 1.395 . S
C473 C474 1.288 . S
C474 C473 1.288 . S
C474 C475 1.392 . S
C475 H451 0.951 . S
C475 C474 1.392 . S
C475 C476 1.392 . S
C476 H452 0.949 . S
C476 C471 1.382 . S
C476 C475 1.392 . S
C477 C478 1.376 . S
C477 C482 1.386 . S
C477 C483 1.483 . S
C478 H453 0.949 . S
C478 C477 1.376 . S
C478 C479 1.397 . S
C479 H454 0.950 . S
C479 C478 1.397 . S
C479 C480 1.391 . S
C480 C479 1.391 . S
C480 C481 1.405 . S
C481 H455 0.950 . S
C481 C480 1.405 . S
C481 C482 1.367 . S
C482 H456 0.950 . S
C482 C477 1.386 . S
C482 C481 1.367 . S
C483 C477 1.483 . S
C483 C484 1.382 . S
C483 C485 1.403 . S
C484 H457 0.950 . S
C484 C470 1.411 . S
C484 C483 1.382 . S
C485 C469 1.411 . S
C485 C483 1.403 . S
C485 C486 1.489 . S
C486 C485 1.489 . S
C486 C487 1.383 . S
C486 C491 1.382 . S
C487 H458 0.950 . S
C487 C486 1.383 . S
C487 C488 1.395 . S
C488 H459 0.950 . S
C488 C487 1.395 . S
C488 C489 1.288 . S
C489 C488 1.288 . S
C489 C490 1.392 . S
C490 H460 0.951 . S
C490 C489 1.392 . S
C490 C491 1.392 . S
C491 H461 0.949 . S
C491 C486 1.382 . S
C491 C490 1.392 . S
H492 C511 0.949 . S
H493 C512 0.950 . S
H494 C514 0.950 . S
H495 C515 0.950 . S
H496 C517 0.950 . S
H497 C520 0.950 . S
H498 C521 0.950 . S
H499 C523 0.951 . S
H500 C524 0.949 . S
H501 C526 0.949 . S
H502 C527 0.950 . S
H503 C529 0.950 . S
H504 C530 0.950 . S
H505 C532 0.950 . S
H506 C535 0.950 . S
H507 C536 0.950 . S
H508 C538 0.951 . S
H509 C539 0.949 . S
C510 C511 1.376 . S
C510 C515 1.386 . S
C510 C516 1.483 . S
C511 H492 0.949 . S
C511 C510 1.376 . S
C511 C512 1.397 . S
C512 H493 0.950 . S
C512 C511 1.397 . S
C512 C513 1.391 . S
C513 C512 1.391 . S
C513 C514 1.405 . S
C514 H494 0.950 . S
C514 C513 1.405 . S
C514 C515 1.367 . S
C515 H495 0.950 . S
C515 C510 1.386 . S
C515 C514 1.367 . S
C516 C510 1.483 . S
C516 C517 1.382 . S
C516 C518 1.403 . S
C517 H496 0.950 . S
C517 C516 1.382 . S
C517 C533 1.411 . S
C518 C516 1.403 . S
C518 C519 1.489 . S
C518 C532 1.411 . S
C519 C518 1.489 . S
C519 C520 1.383 . S
C519 C524 1.382 . S
C520 H497 0.950 . S
C520 C519 1.383 . S
C520 C521 1.395 . S
C521 H498 0.950 . S
C521 C520 1.395 . S
C521 C522 1.288 . S
C522 C521 1.288 . S
C522 C523 1.392 . S
C523 H499 0.951 . S
C523 C522 1.392 . S
C523 C524 1.392 . S
C524 H500 0.949 . S
C524 C519 1.382 . S
C524 C523 1.392 . S
C525 C526 1.376 . S
C525 C530 1.386 . S
C525 C531 1.483 . S
C526 H501 0.949 . S
C526 C525 1.376 . S
C526 C527 1.397 . S
C527 H502 0.950 . S
C527 C526 1.397 . S
C527 C528 1.391 . S
C528 C527 1.391 . S
C528 C529 1.405 . S
C529 H503 0.950 . S
C529 C528 1.405 . S
C529 C530 1.367 . S
C530 H504 0.950 . S
C530 C525 1.386 . S
C530 C529 1.367 . S
C531 C525 1.483 . S
C531 C532 1.382 . S
C531 C533 1.403 . S
C532 H505 0.950 . S
C532 C518 1.411 . S
C532 C531 1.382 . S
C533 C517 1.411 . S
C533 C531 1.403 . S
C533 C534 1.489 . S
C534 C533 1.489 . S
C534 C535 1.383 . S
C534 C539 1.382 . S
C535 H506 0.950 . S
C535 C534 1.383 . S
C535 C536 1.395 . S
C536 H507 0.950 . S
C536 C535 1.395 . S
C536 C537 1.288 . S
C537 C536 1.288 . S
C537 C538 1.392 . S
C538 H508 0.951 . S
C538 C537 1.392 . S
C538 C539 1.392 . S
C539 H509 0.949 . S
C539 C534 1.382 . S
C539 C538 1.392 . S
H540 C559 0.949 . S
H541 C560 0.950 . S
H542 C562 0.950 . S
H543 C563 0.950 . S
H544 C565 0.950 . S
H545 C568 0.950 . S
H546 C569 0.950 . S
H547 C571 0.951 . S
H548 C572 0.949 . S
H549 C574 0.949 . S
H550 C575 0.950 . S
H551 C577 0.950 . S
H552 C578 0.950 . S
H553 C580 0.950 . S
H554 C583 0.950 . S
H555 C584 0.950 . S
H556 C586 0.951 . S
H557 C587 0.949 . S
C558 C559 1.376 . S
C558 C563 1.386 . S
C558 C564 1.483 . S
C559 H540 0.949 . S
C559 C558 1.376 . S
C559 C560 1.397 . S
C560 H541 0.950 . S
C560 C559 1.397 . S
C560 C561 1.391 . S
C561 C560 1.391 . S
C561 C562 1.405 . S
C562 H542 0.950 . S
C562 C561 1.405 . S
C562 C563 1.367 . S
C563 H543 0.950 . S
C563 C558 1.386 . S
C563 C562 1.367 . S
C564 C558 1.483 . S
C564 C565 1.382 . S
C564 C566 1.403 . S
C565 H544 0.950 . S
C565 C564 1.382 . S
C565 C581 1.411 . S
C566 C564 1.403 . S
C566 C567 1.489 . S
C566 C580 1.411 . S
C567 C566 1.489 . S
C567 C568 1.383 . S
C567 C572 1.382 . S
C568 H545 0.950 . S
C568 C567 1.383 . S
C568 C569 1.395 . S
C569 H546 0.950 . S
C569 C568 1.395 . S
C569 C570 1.288 . S
C570 C569 1.288 . S
C570 C571 1.392 . S
C571 H547 0.951 . S
C571 C570 1.392 . S
C571 C572 1.392 . S
C572 H548 0.949 . S
C572 C567 1.382 . S
C572 C571 1.392 . S
C573 C574 1.376 . S
C573 C578 1.386 . S
C573 C579 1.483 . S
C574 H549 0.949 . S
C574 C573 1.376 . S
C574 C575 1.397 . S
C575 H550 0.950 . S
C575 C574 1.397 . S
C575 C576 1.391 . S
C576 C575 1.391 . S
C576 C577 1.405 . S
C577 H551 0.950 . S
C577 C576 1.405 . S
C577 C578 1.367 . S
C578 H552 0.950 . S
C578 C573 1.386 . S
C578 C577 1.367 . S
C579 C573 1.483 . S
C579 C580 1.382 . S
C579 C581 1.403 . S
C580 H553 0.950 . S
C580 C566 1.411 . S
C580 C579 1.382 . S
C581 C565 1.411 . S
C581 C579 1.403 . S
C581 C582 1.489 . S
C582 C581 1.489 . S
C582 C583 1.383 . S
C582 C587 1.382 . S
C583 H554 0.950 . S
C583 C582 1.383 . S
C583 C584 1.395 . S
C584 H555 0.950 . S
C584 C583 1.395 . S
C584 C585 1.288 . S
C585 C584 1.288 . S
C585 C586 1.392 . S
C586 H556 0.951 . S
C586 C585 1.392 . S
C586 C587 1.392 . S
C587 H557 0.949 . S
C587 C582 1.382 . S
C587 C586 1.392 . S
H588 C607 0.949 . S
H589 C608 0.950 . S
H590 C610 0.950 . S
H591 C611 0.950 . S
H592 C613 0.950 . S
H593 C616 0.950 . S
H594 C617 0.950 . S
H595 C619 0.951 . S
H596 C620 0.949 . S
H597 C622 0.949 . S
H598 C623 0.950 . S
H599 C625 0.950 . S
H600 C626 0.950 . S
H601 C628 0.950 . S
H602 C631 0.950 . S
H603 C632 0.950 . S
H604 C634 0.951 . S
H605 C635 0.949 . S
C606 C607 1.376 . S
C606 C611 1.386 . S
C606 C612 1.483 . S
C607 H588 0.949 . S
C607 C606 1.376 . S
C607 C608 1.397 . S
C608 H589 0.950 . S
C608 C607 1.397 . S
C608 C609 1.391 . S
C609 C608 1.391 . S
C609 C610 1.405 . S
C610 H590 0.950 . S
C610 C609 1.405 . S
C610 C611 1.367 . S
C611 H591 0.950 . S
C611 C606 1.386 . S
C611 C610 1.367 . S
C612 C606 1.483 . S
C612 C613 1.382 . S
C612 C614 1.403 . S
C613 H592 0.950 . S
C613 C612 1.382 . S
C613 C629 1.411 . S
C614 C612 1.403 . S
C614 C615 1.489 . S
C614 C628 1.411 . S
C615 C614 1.489 . S
C615 C616 1.383 . S
C615 C620 1.382 . S
C616 H593 0.950 . S
C616 C615 1.383 . S
C616 C617 1.395 . S
C617 H594 0.950 . S
C617 C616 1.395 . S
C617 C618 1.288 . S
C618 C617 1.288 . S
C618 C619 1.392 . S
C619 H595 0.951 . S
C619 C618 1.392 . S
C619 C620 1.392 . S
C620 H596 0.949 . S
C620 C615 1.382 . S
C620 C619 1.392 . S
C621 C622 1.376 . S
C621 C626 1.386 . S
C621 C627 1.483 . S
C622 H597 0.949 . S
C622 C621 1.376 . S
C622 C623 1.397 . S
C623 H598 0.950 . S
C623 C622 1.397 . S
C623 C624 1.391 . S
C624 C623 1.391 . S
C624 C625 1.405 . S
C625 H599 0.950 . S
C625 C624 1.405 . S
C625 C626 1.367 . S
C626 H600 0.950 . S
C626 C621 1.386 . S
C626 C625 1.367 . S
C627 C621 1.483 . S
C627 C628 1.382 . S
C627 C629 1.403 . S
C628 H601 0.950 . S
C628 C614 1.411 . S
C628 C627 1.382 . S
C629 C613 1.411 . S
C629 C627 1.403 . S
C629 C630 1.489 . S
C630 C629 1.489 . S
C630 C631 1.383 . S
C630 C635 1.382 . S
C631 H602 0.950 . S
C631 C630 1.383 . S
C631 C632 1.395 . S
C632 H603 0.950 . S
C632 C631 1.395 . S
C632 C633 1.288 . S
C633 C632 1.288 . S
C633 C634 1.392 . S
C634 H604 0.951 . S
C634 C633 1.392 . S
C634 C635 1.392 . S
C635 H605 0.949 . S
C635 C630 1.382 . S
C635 C634 1.392 . S
H636 C655 0.949 . S
H637 C656 0.950 . S
H638 C658 0.950 . S
H639 C659 0.950 . S
H640 C661 0.950 . S
H641 C664 0.950 . S
H642 C665 0.950 . S
H643 C667 0.951 . S
H644 C668 0.949 . S
H645 C670 0.949 . S
H646 C671 0.950 . S
H647 C673 0.950 . S
H648 C674 0.950 . S
H649 C676 0.950 . S
H650 C679 0.950 . S
H651 C680 0.950 . S
H652 C682 0.951 . S
H653 C683 0.949 . S
C654 C655 1.376 . S
C654 C659 1.386 . S
C654 C660 1.483 . S
C655 H636 0.949 . S
C655 C654 1.376 . S
C655 C656 1.397 . S
C656 H637 0.950 . S
C656 C655 1.397 . S
C656 C657 1.391 . S
C657 C656 1.391 . S
C657 C658 1.405 . S
C658 H638 0.950 . S
C658 C657 1.405 . S
C658 C659 1.367 . S
C659 H639 0.950 . S
C659 C654 1.386 . S
C659 C658 1.367 . S
C660 C654 1.483 . S
C660 C661 1.382 . S
C660 C662 1.403 . S
C661 H640 0.950 . S
C661 C660 1.382 . S
C661 C677 1.411 . S
C662 C660 1.403 . S
C662 C663 1.489 . S
C662 C676 1.411 . S
C663 C662 1.489 . S
C663 C664 1.383 . S
C663 C668 1.382 . S
C664 H641 0.950 . S
C664 C663 1.383 . S
C664 C665 1.395 . S
C665 H642 0.950 . S
C665 C664 1.395 . S
C665 C666 1.288 . S
C666 C665 1.288 . S
C666 C667 1.392 . S
C667 H643 0.951 . S
C667 C666 1.392 . S
C667 C668 1.392 . S
C668 H644 0.949 . S
C668 C663 1.382 . S
C668 C667 1.392 . S
C669 C670 1.376 . S
C669 C674 1.386 . S
C669 C675 1.483 . S
C670 H645 0.949 . S
C670 C669 1.376 . S
C670 C671 1.397 . S
C671 H646 0.950 . S
C671 C670 1.397 . S
C671 C672 1.391 . S
C672 C671 1.391 . S
C672 C673 1.405 . S
C673 H647 0.950 . S
C673 C672 1.405 . S
C673 C674 1.367 . S
C674 H648 0.950 . S
C674 C669 1.386 . S
C674 C673 1.367 . S
C675 C669 1.483 . S
C675 C676 1.382 . S
C675 C677 1.403 . S
C676 H649 0.950 . S
C676 C662 1.411 . S
C676 C675 1.382 . S
C677 C661 1.411 . S
C677 C675 1.403 . S
C677 C678 1.489 . S
C678 C677 1.489 . S
C678 C679 1.383 . S
C678 C683 1.382 . S
C679 H650 0.950 . S
C679 C678 1.383 . S
C679 C680 1.395 . S
C680 H651 0.950 . S
C680 C679 1.395 . S
C680 C681 1.288 . S
C681 C680 1.288 . S
C681 C682 1.392 . S
C682 H652 0.951 . S
C682 C681 1.392 . S
C682 C683 1.392 . S
C683 H653 0.949 . S
C683 C678 1.382 . S
C683 C682 1.392 . S
H684 C703 0.949 . S
H685 C704 0.950 . S
H686 C706 0.950 . S
H687 C707 0.950 . S
H688 C709 0.950 . S
H689 C712 0.950 . S
H690 C713 0.950 . S
H691 C715 0.951 . S
H692 C716 0.949 . S
H693 C718 0.949 . S
H694 C719 0.950 . S
H695 C721 0.950 . S
H696 C722 0.950 . S
H697 C724 0.950 . S
H698 C727 0.950 . S
H699 C728 0.950 . S
H700 C730 0.951 . S
H701 C731 0.949 . S
C702 C703 1.376 . S
C702 C707 1.386 1_655 S
C702 C708 1.483 . S
C703 H684 0.949 . S
C703 C702 1.376 . S
C703 C704 1.397 . S
C704 H685 0.950 . S
C704 C703 1.397 . S
C704 C705 1.391 . S
C705 C704 1.391 . S
C705 C706 1.405 1_655 S
C706 H686 0.950 . S
C706 C705 1.405 1_455 S
C706 C707 1.367 . S
C707 H687 0.950 . S
C707 C702 1.386 1_455 S
C707 C706 1.367 . S
C708 C702 1.483 . S
C708 C709 1.382 . S
C708 C710 1.403 1_655 S
C709 H688 0.950 . S
C709 C708 1.382 . S
C709 C725 1.411 . S
C710 C708 1.403 1_455 S
C710 C711 1.489 . S
C710 C724 1.411 . S
C711 C710 1.489 . S
C711 C712 1.383 1_455 S
C711 C716 1.382 . S
C712 H689 0.950 . S
C712 C711 1.383 1_655 S
C712 C713 1.395 . S
C713 H690 0.950 . S
C713 C712 1.395 . S
C713 C714 1.288 1_655 S
C714 C713 1.288 1_455 S
C714 C715 1.392 . S
C715 H691 0.951 . S
C715 C714 1.392 . S
C715 C716 1.392 . S
C716 H692 0.949 . S
C716 C711 1.382 . S
C716 C715 1.392 . S
C717 C718 1.376 . S
C717 C722 1.386 1_455 S
C717 C723 1.483 . S
C718 H693 0.949 . S
C718 C717 1.376 . S
C718 C719 1.397 . S
C719 H694 0.950 . S
C719 C718 1.397 . S
C719 C720 1.391 . S
C720 C719 1.391 . S
C720 C721 1.405 1_455 S
C721 H695 0.950 . S
C721 C720 1.405 1_655 S
C721 C722 1.367 . S
C722 H696 0.950 . S
C722 C717 1.386 1_655 S
C722 C721 1.367 . S
C723 C717 1.483 . S
C723 C724 1.382 . S
C723 C725 1.403 1_455 S
C724 H697 0.950 . S
C724 C710 1.411 . S
C724 C723 1.382 . S
C725 C709 1.411 . S
C725 C723 1.403 1_655 S
C725 C726 1.489 . S
C726 C725 1.489 . S
C726 C727 1.383 1_655 S
C726 C731 1.382 . S
C727 H698 0.950 . S
C727 C726 1.383 1_455 S
C727 C728 1.395 . S
C728 H699 0.950 . S
C728 C727 1.395 . S
C728 C729 1.288 1_455 S
C729 C728 1.288 1_655 S
C729 C730 1.392 . S
C730 H700 0.951 . S
C730 C729 1.392 . S
C730 C731 1.392 . S
C731 H701 0.949 . S
C731 C726 1.382 . S
C731 C730 1.392 . S
H732 C751 0.949 . S
H733 C752 0.950 . S
H734 C754 0.950 . S
H735 C755 0.950 . S
H736 C757 0.950 . S
H737 C760 0.950 . S
H738 C761 0.950 . S
H739 C763 0.951 . S
H740 C764 0.949 . S
H741 C766 0.949 . S
H742 C767 0.950 . S
H743 C769 0.950 . S
H744 C770 0.950 . S
H745 C772 0.950 . S
H746 C775 0.950 . S
H747 C776 0.950 . S
H748 C778 0.951 . S
H749 C779 0.949 . S
C750 C751 1.376 . S
C750 C755 1.386 . S
C750 C756 1.483 . S
C751 H732 0.949 . S
C751 C750 1.376 . S
C751 C752 1.397 . S
C752 H733 0.950 . S
C752 C751 1.397 . S
C752 C753 1.391 . S
C753 C752 1.391 . S
C753 C754 1.405 . S
C754 H734 0.950 . S
C754 C753 1.405 . S
C754 C755 1.367 . S
C755 H735 0.950 . S
C755 C750 1.386 . S
C755 C754 1.367 . S
C756 C750 1.483 . S
C756 C757 1.382 . S
C756 C758 1.403 . S
C757 H736 0.950 . S
C757 C756 1.382 . S
C757 C773 1.411 . S
C758 C756 1.403 . S
C758 C759 1.489 . S
C758 C772 1.411 . S
C759 C758 1.489 . S
C759 C760 1.383 . S
C759 C764 1.382 . S
C760 H737 0.950 . S
C760 C759 1.383 . S
C760 C761 1.395 . S
C761 H738 0.950 . S
C761 C760 1.395 . S
C761 C762 1.288 . S
C762 C761 1.288 . S
C762 C763 1.392 . S
C763 H739 0.951 . S
C763 C762 1.392 . S
C763 C764 1.392 . S
C764 H740 0.949 . S
C764 C759 1.382 . S
C764 C763 1.392 . S
C765 C766 1.376 . S
C765 C770 1.386 . S
C765 C771 1.483 . S
C766 H741 0.949 . S
C766 C765 1.376 . S
C766 C767 1.397 . S
C767 H742 0.950 . S
C767 C766 1.397 . S
C767 C768 1.391 . S
C768 C767 1.391 . S
C768 C769 1.405 . S
C769 H743 0.950 . S
C769 C768 1.405 . S
C769 C770 1.367 . S
C770 H744 0.950 . S
C770 C765 1.386 . S
C770 C769 1.367 . S
C771 C765 1.483 . S
C771 C772 1.382 . S
C771 C773 1.403 . S
C772 H745 0.950 . S
C772 C758 1.411 . S
C772 C771 1.382 . S
C773 C757 1.411 . S
C773 C771 1.403 . S
C773 C774 1.489 . S
C774 C773 1.489 . S
C774 C775 1.383 . S
C774 C779 1.382 . S
C775 H746 0.950 . S
C775 C774 1.383 . S
C775 C776 1.395 . S
C776 H747 0.950 . S
C776 C775 1.395 . S
C776 C777 1.288 . S
C777 C776 1.288 . S
C777 C778 1.392 . S
C778 H748 0.951 . S
C778 C777 1.392 . S
C778 C779 1.392 . S
C779 H749 0.949 . S
C779 C774 1.382 . S
C779 C778 1.392 . S
H780 C799 0.949 . S
H781 C800 0.950 . S
H782 C802 0.950 . S
H783 C803 0.950 . S
H784 C805 0.950 . S
H785 C808 0.950 . S
H786 C809 0.950 . S
H787 C811 0.951 . S
H788 C812 0.949 . S
H789 C814 0.949 . S
H790 C815 0.950 . S
H791 C817 0.950 . S
H792 C818 0.950 . S
H793 C820 0.950 . S
H794 C823 0.950 . S
H795 C824 0.950 . S
H796 C826 0.951 . S
H797 C827 0.949 . S
C798 C799 1.376 . S
C798 C803 1.386 1_545 S
C798 C804 1.483 . S
C799 H780 0.949 . S
C799 C798 1.376 . S
C799 C800 1.397 . S
C800 H781 0.950 . S
C800 C799 1.397 . S
C800 C801 1.391 . S
C801 C800 1.391 . S
C801 C802 1.405 1_545 S
C802 H782 0.950 . S
C802 C801 1.405 1_565 S
C802 C803 1.367 . S
C803 H783 0.950 . S
C803 C798 1.386 1_565 S
C803 C802 1.367 . S
C804 C798 1.483 . S
C804 C805 1.382 . S
C804 C806 1.403 1_545 S
C805 H784 0.950 . S
C805 C804 1.382 . S
C805 C821 1.411 . S
C806 C804 1.403 1_565 S
C806 C807 1.489 . S
C806 C820 1.411 . S
C807 C806 1.489 . S
C807 C808 1.383 1_565 S
C807 C812 1.382 . S
C808 H785 0.950 . S
C808 C807 1.383 1_545 S
C808 C809 1.395 . S
C809 H786 0.950 . S
C809 C808 1.395 . S
C809 C810 1.288 1_545 S
C810 C809 1.288 1_565 S
C810 C811 1.392 . S
C811 H787 0.951 . S
C811 C810 1.392 . S
C811 C812 1.392 . S
C812 H788 0.949 . S
C812 C807 1.382 . S
C812 C811 1.392 . S
C813 C814 1.376 . S
C813 C818 1.386 1_565 S
C813 C819 1.483 . S
C814 H789 0.949 . S
C814 C813 1.376 . S
C814 C815 1.397 . S
C815 H790 0.950 . S
C815 C814 1.397 . S
C815 C816 1.391 . S
C816 C815 1.391 . S
C816 C817 1.405 1_565 S
C817 H791 0.950 . S
C817 C816 1.405 1_545 S
C817 C818 1.367 . S
C818 H792 0.950 . S
C818 C813 1.386 1_545 S
C818 C817 1.367 . S
C819 C813 1.483 . S
C819 C820 1.382 . S
C819 C821 1.403 1_565 S
C820 H793 0.950 . S
C820 C806 1.411 . S
C820 C819 1.382 . S
C821 C805 1.411 . S
C821 C819 1.403 1_545 S
C821 C822 1.489 . S
C822 C821 1.489 . S
C822 C823 1.383 1_545 S
C822 C827 1.382 . S
C823 H794 0.950 . S
C823 C822 1.383 1_565 S
C823 C824 1.395 . S
C824 H795 0.950 . S
C824 C823 1.395 . S
C824 C825 1.288 1_565 S
C825 C824 1.288 1_545 S
C825 C826 1.392 . S
C826 H796 0.951 . S
C826 C825 1.392 . S
C826 C827 1.392 . S
C827 H797 0.949 . S
C827 C822 1.382 . S
C827 C826 1.392 . S
H828 C847 0.949 . S
H829 C848 0.950 . S
H830 C850 0.950 . S
H831 C851 0.950 . S
H832 C853 0.950 . S
H833 C856 0.950 . S
H834 C857 0.950 . S
H835 C859 0.951 . S
H836 C860 0.949 . S
H837 C862 0.949 . S
H838 C863 0.950 . S
H839 C865 0.950 . S
H840 C866 0.950 . S
H841 C868 0.950 . S
H842 C871 0.950 . S
H843 C872 0.950 . S
H844 C874 0.951 . S
H845 C875 0.949 . S
C846 C847 1.390 . S
C846 C851 1.379 1_545 S
C846 C852 1.502 . S
C847 H828 0.949 . S
C847 C846 1.390 . S
C847 C848 1.397 . S
C848 H829 0.950 . S
C848 C847 1.397 . S
C848 C849 1.391 1_545 S
C849 C848 1.391 1_565 S
C849 C850 1.405 . S
C850 H830 0.950 . S
C850 C849 1.405 . S
C850 C851 1.367 . S
C851 H831 0.950 . S
C851 C846 1.379 1_565 S
C851 C850 1.367 . S
C852 C846 1.502 . S
C852 C853 1.357 . S
C852 C854 1.398 1_545 S
C853 H832 0.950 . S
C853 C852 1.357 . S
C853 C869 1.448 . S
C854 C852 1.398 1_565 S
C854 C855 1.487 . S
C854 C868 1.438 . S
C855 C854 1.487 . S
C855 C856 1.336 1_565 S
C855 C860 1.408 . S
C856 H833 0.950 . S
C856 C855 1.336 1_545 S
C856 C857 1.395 . S
C857 H834 0.950 . S
C857 C856 1.395 . S
C857 C858 1.327 . S
C858 C857 1.327 . S
C858 C859 1.316 1_545 S
C859 H835 0.951 . S
C859 C858 1.316 1_565 S
C859 C860 1.392 . S
C860 H836 0.949 . S
C860 C855 1.408 . S
C860 C859 1.392 . S
C861 C862 1.377 . S
C861 C866 1.386 1_565 S
C861 C867 1.502 . S
C862 H837 0.949 . S
C862 C861 1.377 . S
C862 C863 1.397 . S
C863 H838 0.950 . S
C863 C862 1.397 . S
C863 C864 1.391 1_565 S
C864 C863 1.391 1_545 S
C864 C865 1.405 . S
C865 H839 0.950 . S
C865 C864 1.405 . S
C865 C866 1.367 . S
C866 H840 0.950 . S
C866 C861 1.386 1_545 S
C866 C865 1.367 . S
C867 C861 1.502 . S
C867 C868 1.364 . S
C867 C869 1.398 1_565 S
C868 H841 0.950 . S
C868 C854 1.438 . S
C868 C867 1.364 . S
C869 C853 1.448 . S
C869 C867 1.398 1_545 S
C869 C870 1.487 . S
C870 C869 1.487 . S
C870 C871 1.319 1_545 S
C870 C875 1.418 . S
C871 H842 0.950 . S
C871 C870 1.319 1_565 S
C871 C872 1.395 . S
C872 H843 0.950 . S
C872 C871 1.395 . S
C872 C873 1.318 . S
C873 C872 1.318 . S
C873 C874 1.334 1_565 S
C874 H844 0.951 . S
C874 C873 1.334 1_545 S
C874 C875 1.392 . S
C875 H845 0.949 . S
C875 C870 1.418 . S
C875 C874 1.392 . S
H876 C895 0.949 . S
H877 C896 0.950 . S
H878 C898 0.950 . S
H879 C899 0.950 . S
H880 C901 0.950 . S
H881 C904 0.950 . S
H882 C905 0.950 . S
H883 C907 0.951 . S
H884 C908 0.949 . S
H885 C910 0.949 . S
H886 C911 0.950 . S
H887 C913 0.950 . S
H888 C914 0.950 . S
H889 C916 0.950 . S
H890 C919 0.950 . S
H891 C920 0.950 . S
H892 C922 0.951 . S
H893 C923 0.949 . S
C894 C895 1.376 . S
C894 C899 1.386 1_455 S
C894 C900 1.483 . S
C895 H876 0.949 . S
C895 C894 1.376 . S
C895 C896 1.397 . S
C896 H877 0.950 . S
C896 C895 1.397 . S
C896 C897 1.391 . S
C897 C896 1.391 . S
C897 C898 1.405 1_455 S
C898 H878 0.950 . S
C898 C897 1.405 1_655 S
C898 C899 1.367 . S
C899 H879 0.950 . S
C899 C894 1.386 1_655 S
C899 C898 1.367 . S
C900 C894 1.483 . S
C900 C901 1.382 . S
C900 C902 1.403 1_455 S
C901 H880 0.950 . S
C901 C900 1.382 . S
C901 C917 1.411 . S
C902 C900 1.403 1_655 S
C902 C903 1.489 . S
C902 C916 1.411 . S
C903 C902 1.489 . S
C903 C904 1.383 1_655 S
C903 C908 1.382 . S
C904 H881 0.950 . S
C904 C903 1.383 1_455 S
C904 C905 1.395 . S
C905 H882 0.950 . S
C905 C904 1.395 . S
C905 C906 1.288 1_455 S
C906 C905 1.288 1_655 S
C906 C907 1.392 . S
C907 H883 0.951 . S
C907 C906 1.392 . S
C907 C908 1.392 . S
C908 H884 0.949 . S
C908 C903 1.382 . S
C908 C907 1.392 . S
C909 C910 1.376 . S
C909 C914 1.386 1_655 S
C909 C915 1.483 . S
C910 H885 0.949 . S
C910 C909 1.376 . S
C910 C911 1.397 . S
C911 H886 0.950 . S
C911 C910 1.397 . S
C911 C912 1.391 . S
C912 C911 1.391 . S
C912 C913 1.405 1_655 S
C913 H887 0.950 . S
C913 C912 1.405 1_455 S
C913 C914 1.367 . S
C914 H888 0.950 . S
C914 C909 1.386 1_455 S
C914 C913 1.367 . S
C915 C909 1.483 . S
C915 C916 1.382 . S
C915 C917 1.403 1_655 S
C916 H889 0.950 . S
C916 C902 1.411 . S
C916 C915 1.382 . S
C917 C901 1.411 . S
C917 C915 1.403 1_455 S
C917 C918 1.489 . S
C918 C917 1.489 . S
C918 C919 1.383 1_455 S
C918 C923 1.382 . S
C919 H890 0.950 . S
C919 C918 1.383 1_655 S
C919 C920 1.395 . S
C920 H891 0.950 . S
C920 C919 1.395 . S
C920 C921 1.288 1_655 S
C921 C920 1.288 1_455 S
C921 C922 1.392 . S
C922 H892 0.951 . S
C922 C921 1.392 . S
C922 C923 1.392 . S
C923 H893 0.949 . S
C923 C918 1.382 . S
C923 C922 1.392 . S
H924 C943 0.949 . S
H925 C944 0.950 . S
H926 C946 0.950 . S
H927 C947 0.950 . S
H928 C949 0.950 . S
H929 C952 0.950 . S
H930 C953 0.950 . S
H931 C955 0.951 . S
H932 C956 0.949 . S
H933 C958 0.949 . S
H934 C959 0.950 . S
H935 C961 0.950 . S
H936 C962 0.950 . S
H937 C964 0.950 . S
H938 C967 0.950 . S
H939 C968 0.950 . S
H940 C970 0.951 . S
H941 C971 0.949 . S
C942 C943 1.376 . S
C942 C947 1.386 . S
C942 C948 1.483 . S
C943 H924 0.949 . S
C943 C942 1.376 . S
C943 C944 1.397 . S
C944 H925 0.950 . S
C944 C943 1.397 . S
C944 C945 1.391 . S
C945 C944 1.391 . S
C945 C946 1.405 . S
C946 H926 0.950 . S
C946 C945 1.405 . S
C946 C947 1.367 . S
C947 H927 0.950 . S
C947 C942 1.386 . S
C947 C946 1.367 . S
C948 C942 1.483 . S
C948 C949 1.382 . S
C948 C950 1.403 . S
C949 H928 0.950 . S
C949 C948 1.382 . S
C949 C965 1.411 . S
C950 C948 1.403 . S
C950 C951 1.489 . S
C950 C964 1.411 . S
C951 C950 1.489 . S
C951 C952 1.383 . S
C951 C956 1.382 . S
C952 H929 0.950 . S
C952 C951 1.383 . S
C952 C953 1.395 . S
C953 H930 0.950 . S
C953 C952 1.395 . S
C953 C954 1.288 . S
C954 C953 1.288 . S
C954 C955 1.392 . S
C955 H931 0.951 . S
C955 C954 1.392 . S
C955 C956 1.392 . S
C956 H932 0.949 . S
C956 C951 1.382 . S
C956 C955 1.392 . S
C957 C958 1.376 . S
C957 C962 1.386 . S
C957 C963 1.483 . S
C958 H933 0.949 . S
C958 C957 1.376 . S
C958 C959 1.397 . S
C959 H934 0.950 . S
C959 C958 1.397 . S
C959 C960 1.391 . S
C960 C959 1.391 . S
C960 C961 1.405 . S
C961 H935 0.950 . S
C961 C960 1.405 . S
C961 C962 1.367 . S
C962 H936 0.950 . S
C962 C957 1.386 . S
C962 C961 1.367 . S
C963 C957 1.483 . S
C963 C964 1.382 . S
C963 C965 1.403 . S
C964 H937 0.950 . S
C964 C950 1.411 . S
C964 C963 1.382 . S
C965 C949 1.411 . S
C965 C963 1.403 . S
C965 C966 1.489 . S
C966 C965 1.489 . S
C966 C967 1.383 . S
C966 C971 1.382 . S
C967 H938 0.950 . S
C967 C966 1.383 . S
C967 C968 1.395 . S
C968 H939 0.950 . S
C968 C967 1.395 . S
C968 C969 1.288 . S
C969 C968 1.288 . S
C969 C970 1.392 . S
C970 H940 0.951 . S
C970 C969 1.392 . S
C970 C971 1.392 . S
C971 H941 0.949 . S
C971 C966 1.382 . S
C971 C970 1.392 . S
H972 C991 0.949 . S
H973 C992 0.950 . S
H974 C994 0.950 . S
H975 C995 0.950 . S
H976 C997 0.950 . S
H977 C1000 0.950 . S
H978 C1001 0.950 . S
H979 C1003 0.951 . S
H980 C1004 0.949 . S
H981 C1006 0.949 . S
H982 C1007 0.950 . S
H983 C1009 0.950 . S
H984 C1010 0.950 . S
H985 C1012 0.950 . S
H986 C1015 0.950 . S
H987 C1016 0.950 . S
H988 C1018 0.951 . S
H989 C1019 0.949 . S
C990 C991 1.376 . S
C990 C995 1.386 . S
C990 C996 1.483 . S
C991 H972 0.949 . S
C991 C990 1.376 . S
C991 C992 1.397 . S
C992 H973 0.950 . S
C992 C991 1.397 . S
C992 C993 1.391 . S
C993 C992 1.391 . S
C993 C994 1.405 . S
C994 H974 0.950 . S
C994 C993 1.405 . S
C994 C995 1.367 . S
C995 H975 0.950 . S
C995 C990 1.386 . S
C995 C994 1.367 . S
C996 C990 1.483 . S
C996 C997 1.382 . S
C996 C998 1.403 . S
C997 H976 0.950 . S
C997 C996 1.382 . S
C997 C1013 1.411 . S
C998 C996 1.403 . S
C998 C999 1.489 . S
C998 C1012 1.411 . S
C999 C998 1.489 . S
C999 C1000 1.383 . S
C999 C1004 1.382 . S
C1000 H977 0.950 . S
C1000 C999 1.383 . S
C1000 C1001 1.395 . S
C1001 H978 0.950 . S
C1001 C1000 1.395 . S
C1001 C1002 1.288 . S
C1002 C1001 1.288 . S
C1002 C1003 1.392 . S
C1003 H979 0.951 . S
C1003 C1002 1.392 . S
C1003 C1004 1.392 . S
C1004 H980 0.949 . S
C1004 C999 1.382 . S
C1004 C1003 1.392 . S
C1005 C1006 1.376 . S
C1005 C1010 1.386 . S
C1005 C1011 1.483 . S
C1006 H981 0.949 . S
C1006 C1005 1.376 . S
C1006 C1007 1.397 . S
C1007 H982 0.950 . S
C1007 C1006 1.397 . S
C1007 C1008 1.391 . S
C1008 C1007 1.391 . S
C1008 C1009 1.405 . S
C1009 H983 0.950 . S
C1009 C1008 1.405 . S
C1009 C1010 1.367 . S
C1010 H984 0.950 . S
C1010 C1005 1.386 . S
C1010 C1009 1.367 . S
C1011 C1005 1.483 . S
C1011 C1012 1.382 . S
C1011 C1013 1.403 . S
C1012 H985 0.950 . S
C1012 C998 1.411 . S
C1012 C1011 1.382 . S
C1013 C997 1.411 . S
C1013 C1011 1.403 . S
C1013 C1014 1.489 . S
C1014 C1013 1.489 . S
C1014 C1015 1.383 . S
C1014 C1019 1.382 . S
C1015 H986 0.950 . S
C1015 C1014 1.383 . S
C1015 C1016 1.395 . S
C1016 H987 0.950 . S
C1016 C1015 1.395 . S
C1016 C1017 1.288 . S
C1017 C1016 1.288 . S
C1017 C1018 1.392 . S
C1018 H988 0.951 . S
C1018 C1017 1.392 . S
C1018 C1019 1.392 . S
C1019 H989 0.949 . S
C1019 C1014 1.382 . S
C1019 C1018 1.392 . S
H1020 C1039 0.949 . S
H1021 C1040 0.950 . S
H1022 C1042 0.950 . S
H1023 C1043 0.950 . S
H1024 C1045 0.950 . S
H1025 C1048 0.950 . S
H1026 C1049 0.950 . S
H1027 C1051 0.951 . S
H1028 C1052 0.949 . S
H1029 C1054 0.949 . S
H1030 C1055 0.950 . S
H1031 C1057 0.950 . S
H1032 C1058 0.950 . S
H1033 C1060 0.950 . S
H1034 C1063 0.950 . S
H1035 C1064 0.950 . S
H1036 C1066 0.951 . S
H1037 C1067 0.949 . S
C1038 C1039 1.376 . S
C1038 C1043 1.386 . S
C1038 C1044 1.483 . S
C1039 H1020 0.949 . S
C1039 C1038 1.376 . S
C1039 C1040 1.397 . S
C1040 H1021 0.950 . S
C1040 C1039 1.397 . S
C1040 C1041 1.391 . S
C1041 C1040 1.391 . S
C1041 C1042 1.405 . S
C1042 H1022 0.950 . S
C1042 C1041 1.405 . S
C1042 C1043 1.367 . S
C1043 H1023 0.950 . S
C1043 C1038 1.386 . S
C1043 C1042 1.367 . S
C1044 C1038 1.483 . S
C1044 C1045 1.382 . S
C1044 C1046 1.403 . S
C1045 H1024 0.950 . S
C1045 C1044 1.382 . S
C1045 C1061 1.411 . S
C1046 C1044 1.403 . S
C1046 C1047 1.489 . S
C1046 C1060 1.411 . S
C1047 C1046 1.489 . S
C1047 C1048 1.383 . S
C1047 C1052 1.382 . S
C1048 H1025 0.950 . S
C1048 C1047 1.383 . S
C1048 C1049 1.395 . S
C1049 H1026 0.950 . S
C1049 C1048 1.395 . S
C1049 C1050 1.288 . S
C1050 C1049 1.288 . S
C1050 C1051 1.392 . S
C1051 H1027 0.951 . S
C1051 C1050 1.392 . S
C1051 C1052 1.392 . S
C1052 H1028 0.949 . S
C1052 C1047 1.382 . S
C1052 C1051 1.392 . S
C1053 C1054 1.376 . S
C1053 C1058 1.386 . S
C1053 C1059 1.483 . S
C1054 H1029 0.949 . S
C1054 C1053 1.376 . S
C1054 C1055 1.397 . S
C1055 H1030 0.950 . S
C1055 C1054 1.397 . S
C1055 C1056 1.391 . S
C1056 C1055 1.391 . S
C1056 C1057 1.405 . S
C1057 H1031 0.950 . S
C1057 C1056 1.405 . S
C1057 C1058 1.367 . S
C1058 H1032 0.950 . S
C1058 C1053 1.386 . S
C1058 C1057 1.367 . S
C1059 C1053 1.483 . S
C1059 C1060 1.382 . S
C1059 C1061 1.403 . S
C1060 H1033 0.950 . S
C1060 C1046 1.411 . S
C1060 C1059 1.382 . S
C1061 C1045 1.411 . S
C1061 C1059 1.403 . S
C1061 C1062 1.489 . S
C1062 C1061 1.489 . S
C1062 C1063 1.383 . S
C1062 C1067 1.382 . S
C1063 H1034 0.950 . S
C1063 C1062 1.383 . S
C1063 C1064 1.395 . S
C1064 H1035 0.950 . S
C1064 C1063 1.395 . S
C1064 C1065 1.288 . S
C1065 C1064 1.288 . S
C1065 C1066 1.392 . S
C1066 H1036 0.951 . S
C1066 C1065 1.392 . S
C1066 C1067 1.392 . S
C1067 H1037 0.949 . S
C1067 C1062 1.382 . S
C1067 C1066 1.392 . S
H1068 C1087 0.949 . S
H1069 C1088 0.950 . S
H1070 C1090 0.950 . S
H1071 C1091 0.950 . S
H1072 C1093 0.950 . S
H1073 C1096 0.950 . S
H1074 C1097 0.950 . S
H1075 C1099 0.951 . S
H1076 C1100 0.949 . S
H1077 C1102 0.949 . S
H1078 C1103 0.950 . S
H1079 C1105 0.950 . S
H1080 C1106 0.950 . S
H1081 C1108 0.950 . S
H1082 C1111 0.950 . S
H1083 C1112 0.950 . S
H1084 C1114 0.951 . S
H1085 C1115 0.949 . S
C1086 C1087 1.376 . S
C1086 C1091 1.386 . S
C1086 C1092 1.483 . S
C1087 H1068 0.949 . S
C1087 C1086 1.376 . S
C1087 C1088 1.397 . S
C1088 H1069 0.950 . S
C1088 C1087 1.397 . S
C1088 C1089 1.391 . S
C1089 C1088 1.391 . S
C1089 C1090 1.405 . S
C1090 H1070 0.950 . S
C1090 C1089 1.405 . S
C1090 C1091 1.367 . S
C1091 H1071 0.950 . S
C1091 C1086 1.386 . S
C1091 C1090 1.367 . S
C1092 C1086 1.483 . S
C1092 C1093 1.382 . S
C1092 C1094 1.403 . S
C1093 H1072 0.950 . S
C1093 C1092 1.382 . S
C1093 C1109 1.411 . S
C1094 C1092 1.403 . S
C1094 C1095 1.489 . S
C1094 C1108 1.411 . S
C1095 C1094 1.489 . S
C1095 C1096 1.383 . S
C1095 C1100 1.382 . S
C1096 H1073 0.950 . S
C1096 C1095 1.383 . S
C1096 C1097 1.395 . S
C1097 H1074 0.950 . S
C1097 C1096 1.395 . S
C1097 C1098 1.288 . S
C1098 C1097 1.288 . S
C1098 C1099 1.392 . S
C1099 H1075 0.951 . S
C1099 C1098 1.392 . S
C1099 C1100 1.392 . S
C1100 H1076 0.949 . S
C1100 C1095 1.382 . S
C1100 C1099 1.392 . S
C1101 C1102 1.376 . S
C1101 C1106 1.386 . S
C1101 C1107 1.483 . S
C1102 H1077 0.949 . S
C1102 C1101 1.376 . S
C1102 C1103 1.397 . S
C1103 H1078 0.950 . S
C1103 C1102 1.397 . S
C1103 C1104 1.391 . S
C1104 C1103 1.391 . S
C1104 C1105 1.405 . S
C1105 H1079 0.950 . S
C1105 C1104 1.405 . S
C1105 C1106 1.367 . S
C1106 H1080 0.950 . S
C1106 C1101 1.386 . S
C1106 C1105 1.367 . S
C1107 C1101 1.483 . S
C1107 C1108 1.382 . S
C1107 C1109 1.403 . S
C1108 H1081 0.950 . S
C1108 C1094 1.411 . S
C1108 C1107 1.382 . S
C1109 C1093 1.411 . S
C1109 C1107 1.403 . S
C1109 C1110 1.489 . S
C1110 C1109 1.489 . S
C1110 C1111 1.383 . S
C1110 C1115 1.382 . S
C1111 H1082 0.950 . S
C1111 C1110 1.383 . S
C1111 C1112 1.395 . S
C1112 H1083 0.950 . S
C1112 C1111 1.395 . S
C1112 C1113 1.288 . S
C1113 C1112 1.288 . S
C1113 C1114 1.392 . S
C1114 H1084 0.951 . S
C1114 C1113 1.392 . S
C1114 C1115 1.392 . S
C1115 H1085 0.949 . S
C1115 C1110 1.382 . S
C1115 C1114 1.392 . S
H1116 C1122 0.930 . S
H1117 C1126 0.930 . S
H1118 C1131 0.929 . S
H1119 C1129 0.929 . S
H1120 C1124 0.929 . S
H1121 C1130 0.929 . S
C1122 H1116 0.930 . S
C1122 C1123 1.366 1_455 S
C1122 C1130 1.378 . S
C1123 C1122 1.366 1_655 S
C1123 C1131 1.435 . S
C1124 H1120 0.929 . S
C1124 C1126 1.378 . S
C1124 C1128 1.350 . S
C1125 C1128 1.495 . S
C1125 C1130 1.294 1_655 S
C1125 N1133 1.459 . S
C1126 H1117 0.930 . S
C1126 C1124 1.378 . S
C1126 C1127 1.367 . S
C1127 C1126 1.367 . S
C1127 C1129 1.433 1_655 S
C1128 C1124 1.350 . S
C1128 C1125 1.495 . S
C1128 N1132 1.427 1_655 S
C1129 H1119 0.929 . S
C1129 C1127 1.433 1_455 S
C1129 N1132 1.384 . S
C1130 H1121 0.929 . S
C1130 C1122 1.378 . S
C1130 C1125 1.294 1_455 S
C1131 H1118 0.929 . S
C1131 C1123 1.435 . S
C1131 N1133 1.384 . S
N1132 C1128 1.427 1_455 S
N1132 C1129 1.384 . S
N1133 C1125 1.459 . S
N1133 C1131 1.384 . S
H1134 C1140 0.930 . S
H1135 C1144 0.930 . S
H1136 C1149 0.929 . S
H1137 C1147 0.929 . S
H1138 C1142 0.929 . S
H1139 C1148 0.929 . S
C1140 H1134 0.930 . S
C1140 C1141 1.367 . S
C1140 C1148 1.378 . S
C1141 C1140 1.367 . S
C1141 C1149 1.433 . S
C1142 H1138 0.929 . S
C1142 C1144 1.378 . S
C1142 C1146 1.350 . S
C1143 C1146 1.463 . S
C1143 C1148 1.350 . S
C1143 N1151 1.427 . S
C1144 H1135 0.930 . S
C1144 C1142 1.378 . S
C1144 C1145 1.367 . S
C1145 C1144 1.367 . S
C1145 C1147 1.433 . S
C1146 C1142 1.350 . S
C1146 C1143 1.463 . S
C1146 N1150 1.427 . S
C1147 H1137 0.929 . S
C1147 C1145 1.433 . S
C1147 N1150 1.384 . S
C1148 H1139 0.929 . S
C1148 C1140 1.378 . S
C1148 C1143 1.350 . S
C1149 H1136 0.929 . S
C1149 C1141 1.433 . S
C1149 N1151 1.384 . S
N1150 C1146 1.427 . S
N1150 C1147 1.384 . S
N1151 C1143 1.427 . S
N1151 C1149 1.384 . S
H1152 C1158 0.930 . S
H1153 C1162 0.930 . S
H1154 C1167 0.929 . S
H1155 C1165 0.929 . S
H1156 C1160 0.929 . S
H1157 C1166 0.929 . S
C1158 H1152 0.930 . S
C1158 C1159 1.367 . S
C1158 C1166 1.378 . S
C1159 C1158 1.367 . S
C1159 C1167 1.433 1_545 S
C1160 H1156 0.929 . S
C1160 C1162 1.378 . S
C1160 C1164 1.350 1_565 S
C1161 C1164 1.463 . S
C1161 C1166 1.350 . S
C1161 N1169 1.427 1_545 S
C1162 H1153 0.930 . S
C1162 C1160 1.378 . S
C1162 C1163 1.367 1_565 S
C1163 C1162 1.367 1_545 S
C1163 C1165 1.433 . S
C1164 C1160 1.350 1_545 S
C1164 C1161 1.463 . S
C1164 N1168 1.427 . S
C1165 H1155 0.929 . S
C1165 C1163 1.433 . S
C1165 N1168 1.384 . S
C1166 H1157 0.929 . S
C1166 C1158 1.378 . S
C1166 C1161 1.350 . S
C1167 H1154 0.929 . S
C1167 C1159 1.433 1_565 S
C1167 N1169 1.384 . S
N1168 C1164 1.427 . S
N1168 C1165 1.384 . S
N1169 C1161 1.427 1_565 S
N1169 C1167 1.384 . S
H1170 C1176 0.930 . S
H1171 C1180 0.930 . S
H1172 C1185 0.929 . S
H1173 C1183 0.929 . S
H1174 C1178 0.929 . S
H1175 C1184 0.929 . S
C1176 H1170 0.930 . S
C1176 C1177 1.403 . S
C1176 C1184 1.378 . S
C1177 C1176 1.403 . S
C1177 C1185 1.415 1_565 S
C1178 H1174 0.929 . S
C1178 C1180 1.378 . S
C1178 C1182 1.350 1_545 S
C1179 C1182 1.463 . S
C1179 C1184 1.350 . S
C1179 N1187 1.427 1_565 S
C1180 H1171 0.930 . S
C1180 C1178 1.378 . S
C1180 C1181 1.367 1_545 S
C1181 C1180 1.367 1_565 S
C1181 C1183 1.433 . S
C1182 C1178 1.350 1_565 S
C1182 C1179 1.463 . S
C1182 N1186 1.427 . S
C1183 H1173 0.929 . S
C1183 C1181 1.433 . S
C1183 N1186 1.384 . S
C1184 H1175 0.929 . S
C1184 C1176 1.378 . S
C1184 C1179 1.350 . S
C1185 H1172 0.929 . S
C1185 C1177 1.415 1_545 S
C1185 N1187 1.384 . S
N1186 C1182 1.427 . S
N1186 C1183 1.384 . S
N1187 C1179 1.427 1_545 S
N1187 C1185 1.384 . S
H1188 C1194 0.930 . S
H1189 C1198 0.930 . S
H1190 C1203 0.929 . S
H1191 C1201 0.929 . S
H1192 C1196 0.929 . S
H1193 C1202 0.929 . S
C1194 H1188 0.930 . S
C1194 C1195 1.367 1_655 S
C1194 C1202 1.378 . S
C1195 C1194 1.367 1_455 S
C1195 C1203 1.433 . S
C1196 H1192 0.929 . S
C1196 C1198 1.378 . S
C1196 C1200 1.350 . S
C1197 C1200 1.463 . S
C1197 C1202 1.350 1_455 S
C1197 N1205 1.427 . S
C1198 H1189 0.930 . S
C1198 C1196 1.378 . S
C1198 C1199 1.367 . S
C1199 C1198 1.367 . S
C1199 C1201 1.433 1_455 S
C1200 C1196 1.350 . S
C1200 C1197 1.463 . S
C1200 N1204 1.427 1_455 S
C1201 H1191 0.929 . S
C1201 C1199 1.433 1_655 S
C1201 N1204 1.384 . S
C1202 H1193 0.929 . S
C1202 C1194 1.378 . S
C1202 C1197 1.350 1_655 S
C1203 H1190 0.929 . S
C1203 C1195 1.433 . S
C1203 N1205 1.384 . S
N1204 C1200 1.427 1_655 S
N1204 C1201 1.384 . S
N1205 C1197 1.427 . S
N1205 C1203 1.384 . S
H1206 C1212 0.930 . S
H1207 C1216 0.930 . S
H1208 C1221 0.929 . S
H1209 C1219 0.929 . S
H1210 C1214 0.929 . S
H1211 C1220 0.929 . S
C1212 H1206 0.930 . S
C1212 C1213 1.367 . S
C1212 C1220 1.378 . S
C1213 C1212 1.367 . S
C1213 C1221 1.433 . S
C1214 H1210 0.929 . S
C1214 C1216 1.378 . S
C1214 C1218 1.350 . S
C1215 C1218 1.463 . S
C1215 C1220 1.350 . S
C1215 N1223 1.427 . S
C1216 H1207 0.930 . S
C1216 C1214 1.378 . S
C1216 C1217 1.367 . S
C1217 C1216 1.367 . S
C1217 C1219 1.433 . S
C1218 C1214 1.350 . S
C1218 C1215 1.463 . S
C1218 N1222 1.427 . S
C1219 H1209 0.929 . S
C1219 C1217 1.433 . S
C1219 N1222 1.384 . S
C1220 H1211 0.929 . S
C1220 C1212 1.378 . S
C1220 C1215 1.350 . S
C1221 H1208 0.929 . S
C1221 C1213 1.433 . S
C1221 N1223 1.384 . S
N1222 C1218 1.427 . S
N1222 C1219 1.384 . S
N1223 C1215 1.427 . S
N1223 C1221 1.384 . S
H1224 C1230 0.930 . S
H1225 C1234 0.930 . S
H1226 C1239 0.929 . S
H1227 C1237 0.929 . S
H1228 C1232 0.929 . S
H1229 C1238 0.929 . S
C1230 H1224 0.930 . S
C1230 C1231 1.369 1_655 S
C1230 C1238 1.378 . S
C1231 C1230 1.369 1_455 S
C1231 C1239 1.466 . S
C1232 H1228 0.929 . S
C1232 C1234 1.378 . S
C1232 C1236 1.350 . S
C1233 C1236 1.463 . S
C1233 C1238 1.350 1_455 S
C1233 N1241 1.427 . S
C1234 H1225 0.930 . S
C1234 C1232 1.378 . S
C1234 C1235 1.367 . S
C1235 C1234 1.367 . S
C1235 C1237 1.433 1_455 S
C1236 C1232 1.350 . S
C1236 C1233 1.463 . S
C1236 N1240 1.427 1_455 S
C1237 H1227 0.929 . S
C1237 C1235 1.433 1_655 S
C1237 N1240 1.384 . S
C1238 H1229 0.929 . S
C1238 C1230 1.378 . S
C1238 C1233 1.350 1_655 S
C1239 H1226 0.929 . S
C1239 C1231 1.466 . S
C1239 N1241 1.384 . S
N1240 C1236 1.427 1_655 S
N1240 C1237 1.384 . S
N1241 C1233 1.427 . S
N1241 C1239 1.384 . S
H1242 C1248 0.930 . S
H1243 C1252 0.930 . S
H1244 C1257 0.929 . S
H1245 C1255 0.929 . S
H1246 C1250 0.929 . S
H1247 C1256 0.929 . S
C1248 H1242 0.930 . S
C1248 C1249 1.367 . S
C1248 C1256 1.378 . S
C1249 C1248 1.367 . S
C1249 C1257 1.433 . S
C1250 H1246 0.929 . S
C1250 C1252 1.378 . S
C1250 C1254 1.350 . S
C1251 C1254 1.463 . S
C1251 C1256 1.350 . S
C1251 N1259 1.427 . S
C1252 H1243 0.930 . S
C1252 C1250 1.378 . S
C1252 C1253 1.367 . S
C1253 C1252 1.367 . S
C1253 C1255 1.433 . S
C1254 C1250 1.350 . S
C1254 C1251 1.463 . S
C1254 N1258 1.427 . S
C1255 H1245 0.929 . S
C1255 C1253 1.433 . S
C1255 N1258 1.384 . S
C1256 H1247 0.929 . S
C1256 C1248 1.378 . S
C1256 C1251 1.350 . S
C1257 H1244 0.929 . S
C1257 C1249 1.433 . S
C1257 N1259 1.384 . S
N1258 C1254 1.427 . S
N1258 C1255 1.384 . S
N1259 C1251 1.427 . S
N1259 C1257 1.384 . S
H1260 C1266 0.930 . S
H1261 C1270 0.930 . S
H1262 C1275 0.929 . S
H1263 C1273 0.929 . S
H1264 C1268 0.929 . S
H1265 C1274 0.929 . S
C1266 H1260 0.930 . S
C1266 C1267 1.351 1_545 S
C1266 C1274 1.378 . S
C1267 C1266 1.351 1_565 S
C1267 C1275 1.432 . S
C1268 H1264 0.929 . S
C1268 C1270 1.378 . S
C1268 C1272 1.350 . S
C1269 C1272 1.463 . S
C1269 C1274 1.350 1_565 S
C1269 N1277 1.427 . S
C1270 H1261 0.930 . S
C1270 C1268 1.378 . S
C1270 C1271 1.367 . S
C1271 C1270 1.367 . S
C1271 C1273 1.433 1_565 S
C1272 C1268 1.350 . S
C1272 C1269 1.463 . S
C1272 N1276 1.427 1_565 S
C1273 H1263 0.929 . S
C1273 C1271 1.433 1_545 S
C1273 N1276 1.384 . S
C1274 H1265 0.929 . S
C1274 C1266 1.378 . S
C1274 C1269 1.350 1_545 S
C1275 H1262 0.929 . S
C1275 C1267 1.432 . S
C1275 N1277 1.384 . S
N1276 C1272 1.427 1_545 S
N1276 C1273 1.384 . S
N1277 C1269 1.427 . S
N1277 C1275 1.384 . S
H1278 C1284 0.930 . S
H1279 C1288 0.971 1_565 S
H1280 C1293 0.933 . S
H1281 C1291 0.929 . S
H1282 C1286 0.929 1_565 S
H1283 C1292 0.929 . S
C1284 H1278 0.930 . S
C1284 C1285 1.367 . S
C1284 C1292 1.378 . S
C1285 C1284 1.367 . S
C1285 C1293 1.457 1_545 S
C1286 H1282 0.929 1_545 S
C1286 C1288 1.368 . S
C1286 C1290 1.350 . S
C1287 C1290 1.463 . S
C1287 C1292 1.350 . S
C1287 N1295 1.427 1_545 S
C1288 H1279 0.971 1_545 S
C1288 C1286 1.368 . S
C1288 C1289 1.368 . S
C1289 C1288 1.368 . S
C1289 C1291 1.433 . S
C1290 C1286 1.350 . S
C1290 C1287 1.463 . S
C1290 N1294 1.427 . S
C1291 H1281 0.929 . S
C1291 C1289 1.433 . S
C1291 N1294 1.384 . S
C1292 H1283 0.929 . S
C1292 C1284 1.378 . S
C1292 C1287 1.350 . S
C1293 H1280 0.933 . S
C1293 C1285 1.457 1_565 S
C1293 N1295 1.373 . S
N1294 C1290 1.427 . S
N1294 C1291 1.384 . S
N1295 C1287 1.427 1_565 S
N1295 C1293 1.373 . S
H1296 C1302 0.930 . S
H1297 C1306 0.930 . S
H1298 C1311 0.929 . S
H1299 C1309 0.929 . S
H1300 C1304 0.929 . S
H1301 C1310 0.929 . S
C1302 H1296 0.930 . S
C1302 C1303 1.335 1_455 S
C1302 C1310 1.378 . S
C1303 C1302 1.335 1_655 S
C1303 C1311 1.453 . S
C1304 H1300 0.929 . S
C1304 C1306 1.378 . S
C1304 C1308 1.350 . S
C1305 C1308 1.438 . S
C1305 C1310 1.313 1_655 S
C1305 N1313 1.496 . S
C1306 H1297 0.930 . S
C1306 C1304 1.378 . S
C1306 C1307 1.367 . S
C1307 C1306 1.367 . S
C1307 C1309 1.433 1_655 S
C1308 C1304 1.350 . S
C1308 C1305 1.438 . S
C1308 N1312 1.427 1_655 S
C1309 H1299 0.929 . S
C1309 C1307 1.433 1_455 S
C1309 N1312 1.384 . S
C1310 H1301 0.929 . S
C1310 C1302 1.378 . S
C1310 C1305 1.313 1_455 S
C1311 H1298 0.929 . S
C1311 C1303 1.453 . S
C1311 N1313 1.384 . S
N1312 C1308 1.427 1_455 S
N1312 C1309 1.384 . S
N1313 C1305 1.496 . S
N1313 C1311 1.384 . S
H1314 C1320 0.930 . S
H1315 C1324 0.930 . S
H1316 C1329 0.929 . S
H1317 C1327 0.929 . S
H1318 C1322 0.929 . S
H1319 C1328 0.929 . S
C1320 H1314 0.930 . S
C1320 C1321 1.367 . S
C1320 C1328 1.378 . S
C1321 C1320 1.367 . S
C1321 C1329 1.433 . S
C1322 H1318 0.929 . S
C1322 C1324 1.378 . S
C1322 C1326 1.350 . S
C1323 C1326 1.463 . S
C1323 C1328 1.350 . S
C1323 N1331 1.427 . S
C1324 H1315 0.930 . S
C1324 C1322 1.378 . S
C1324 C1325 1.367 . S
C1325 C1324 1.367 . S
C1325 C1327 1.433 . S
C1326 C1322 1.350 . S
C1326 C1323 1.463 . S
C1326 N1330 1.427 . S
C1327 H1317 0.929 . S
C1327 C1325 1.433 . S
C1327 N1330 1.384 . S
C1328 H1319 0.929 . S
C1328 C1320 1.378 . S
C1328 C1323 1.350 . S
C1329 H1316 0.929 . S
C1329 C1321 1.433 . S
C1329 N1331 1.384 . S
N1330 C1326 1.427 . S
N1330 C1327 1.384 . S
N1331 C1323 1.427 . S
N1331 C1329 1.384 . S
H1332 C1338 0.930 . S
H1333 C1342 0.930 . S
H1334 C1347 0.929 . S
H1335 C1345 0.929 . S
H1336 C1340 0.929 . S
H1337 C1346 0.929 . S
C1338 H1332 0.930 . S
C1338 C1339 1.367 . S
C1338 C1346 1.378 . S
C1339 C1338 1.367 . S
C1339 C1347 1.433 . S
C1340 H1336 0.929 . S
C1340 C1342 1.378 . S
C1340 C1344 1.350 . S
C1341 C1344 1.463 . S
C1341 C1346 1.350 . S
C1341 N1349 1.427 . S
C1342 H1333 0.930 . S
C1342 C1340 1.378 . S
C1342 C1343 1.367 . S
C1343 C1342 1.367 . S
C1343 C1345 1.433 . S
C1344 C1340 1.350 . S
C1344 C1341 1.463 . S
C1344 N1348 1.427 . S
C1345 H1335 0.929 . S
C1345 C1343 1.433 . S
C1345 N1348 1.384 . S
C1346 H1337 0.929 . S
C1346 C1338 1.378 . S
C1346 C1341 1.350 . S
C1347 H1334 0.929 . S
C1347 C1339 1.433 . S
C1347 N1349 1.384 . S
N1348 C1344 1.427 . S
N1348 C1345 1.384 . S
N1349 C1341 1.427 . S
N1349 C1347 1.384 . S
H1350 C1356 0.930 . S
H1351 C1360 0.930 . S
H1352 C1365 0.929 . S
H1353 C1363 0.929 . S
H1354 C1358 0.929 . S
H1355 C1364 0.929 . S
C1356 H1350 0.930 . S
C1356 C1357 1.367 . S
C1356 C1364 1.378 . S
C1357 C1356 1.367 . S
C1357 C1365 1.433 . S
C1358 H1354 0.929 . S
C1358 C1360 1.378 . S
C1358 C1362 1.350 . S
C1359 C1362 1.463 . S
C1359 C1364 1.350 . S
C1359 N1367 1.427 . S
C1360 H1351 0.930 . S
C1360 C1358 1.378 . S
C1360 C1361 1.367 . S
C1361 C1360 1.367 . S
C1361 C1363 1.433 . S
C1362 C1358 1.350 . S
C1362 C1359 1.463 . S
C1362 N1366 1.427 . S
C1363 H1353 0.929 . S
C1363 C1361 1.433 . S
C1363 N1366 1.384 . S
C1364 H1355 0.929 . S
C1364 C1356 1.378 . S
C1364 C1359 1.350 . S
C1365 H1352 0.929 . S
C1365 C1357 1.433 . S
C1365 N1367 1.384 . S
N1366 C1362 1.427 . S
N1366 C1363 1.384 . S
N1367 C1359 1.427 . S
N1367 C1365 1.384 . S
H1368 C1374 0.930 . S
H1369 C1378 0.930 . S
H1370 C1383 0.929 . S
H1371 C1381 0.929 . S
H1372 C1376 0.929 . S
H1373 C1382 0.929 . S
C1374 H1368 0.930 . S
C1374 C1375 1.367 . S
C1374 C1382 1.378 . S
C1375 C1374 1.367 . S
C1375 C1383 1.433 . S
C1376 H1372 0.929 . S
C1376 C1378 1.378 . S
C1376 C1380 1.350 . S
C1377 C1380 1.463 . S
C1377 C1382 1.350 . S
C1377 N1385 1.427 . S
C1378 H1369 0.930 . S
C1378 C1376 1.378 . S
C1378 C1379 1.367 . S
C1379 C1378 1.367 . S
C1379 C1381 1.433 . S
C1380 C1376 1.350 . S
C1380 C1377 1.463 . S
C1380 N1384 1.427 . S
C1381 H1371 0.929 . S
C1381 C1379 1.433 . S
C1381 N1384 1.384 . S
C1382 H1373 0.929 . S
C1382 C1374 1.378 . S
C1382 C1377 1.350 . S
C1383 H1370 0.929 . S
C1383 C1375 1.433 . S
C1383 N1385 1.384 . S
N1384 C1380 1.427 . S
N1384 C1381 1.384 . S
N1385 C1377 1.427 . S
N1385 C1383 1.384 . S
H1386 C1392 0.930 . S
H1387 C1396 0.930 . S
H1388 C1401 0.929 . S
H1389 C1399 0.929 . S
H1390 C1394 0.929 . S
H1391 C1400 0.929 . S
C1392 H1386 0.930 . S
C1392 C1393 1.367 . S
C1392 C1400 1.378 . S
C1393 C1392 1.367 . S
C1393 C1401 1.433 . S
C1394 H1390 0.929 . S
C1394 C1396 1.378 . S
C1394 C1398 1.350 . S
C1395 C1398 1.463 . S
C1395 C1400 1.350 . S
C1395 N1403 1.427 . S
C1396 H1387 0.930 . S
C1396 C1394 1.378 . S
C1396 C1397 1.367 . S
C1397 C1396 1.367 . S
C1397 C1399 1.433 . S
C1398 C1394 1.350 . S
C1398 C1395 1.463 . S
C1398 N1402 1.427 . S
C1399 H1389 0.929 . S
C1399 C1397 1.433 . S
C1399 N1402 1.384 . S
C1400 H1391 0.929 . S
C1400 C1392 1.378 . S
C1400 C1395 1.350 . S
C1401 H1388 0.929 . S
C1401 C1393 1.433 . S
C1401 N1403 1.384 . S
N1402 C1398 1.427 . S
N1402 C1399 1.384 . S
N1403 C1395 1.427 . S
N1403 C1401 1.384 . S
H1404 C1410 0.930 . S
H1405 C1414 0.930 . S
H1406 C1419 0.929 . S
H1407 C1417 0.929 . S
H1408 C1412 0.929 . S
H1409 C1418 0.929 . S
C1410 H1404 0.930 . S
C1410 C1411 1.367 . S
C1410 C1418 1.378 . S
C1411 C1410 1.367 . S
C1411 C1419 1.433 . S
C1412 H1408 0.929 . S
C1412 C1414 1.378 . S
C1412 C1416 1.350 . S
C1413 C1416 1.463 . S
C1413 C1418 1.350 . S
C1413 N1421 1.427 . S
C1414 H1405 0.930 . S
C1414 C1412 1.378 . S
C1414 C1415 1.367 . S
C1415 C1414 1.367 . S
C1415 C1417 1.433 . S
C1416 C1412 1.350 . S
C1416 C1413 1.463 . S
C1416 N1420 1.427 . S
C1417 H1407 0.929 . S
C1417 C1415 1.433 . S
C1417 N1420 1.384 . S
C1418 H1409 0.929 . S
C1418 C1410 1.378 . S
C1418 C1413 1.350 . S
C1419 H1406 0.929 . S
C1419 C1411 1.433 . S
C1419 N1421 1.384 . S
N1420 C1416 1.427 . S
N1420 C1417 1.384 . S
N1421 C1413 1.427 . S
N1421 C1419 1.384 . S
H1422 C1428 0.930 . S
H1423 C1432 0.930 . S
H1424 C1437 0.929 . S
H1425 C1435 0.929 . S
H1426 C1430 0.929 . S
H1427 C1436 0.929 . S
C1428 H1422 0.930 . S
C1428 C1429 1.367 . S
C1428 C1436 1.378 . S
C1429 C1428 1.367 . S
C1429 C1437 1.433 . S
C1430 H1426 0.929 . S
C1430 C1432 1.378 . S
C1430 C1434 1.350 . S
C1431 C1434 1.463 . S
C1431 C1436 1.350 . S
C1431 N1439 1.427 . S
C1432 H1423 0.930 . S
C1432 C1430 1.378 . S
C1432 C1433 1.367 . S
C1433 C1432 1.367 . S
C1433 C1435 1.433 . S
C1434 C1430 1.350 . S
C1434 C1431 1.463 . S
C1434 N1438 1.427 . S
C1435 H1425 0.929 . S
C1435 C1433 1.433 . S
C1435 N1438 1.384 . S
C1436 H1427 0.929 . S
C1436 C1428 1.378 . S
C1436 C1431 1.350 . S
C1437 H1424 0.929 . S
C1437 C1429 1.433 . S
C1437 N1439 1.384 . S
N1438 C1434 1.427 . S
N1438 C1435 1.384 . S
N1439 C1431 1.427 . S
N1439 C1437 1.384 . S
H1440 C1446 0.930 . S
H1441 C1450 0.930 . S
H1442 C1455 0.929 . S
H1443 C1453 0.929 . S
H1444 C1448 0.929 . S
H1445 C1454 0.929 . S
C1446 H1440 0.930 . S
C1446 C1447 1.367 . S
C1446 C1454 1.378 . S
C1447 C1446 1.367 . S
C1447 C1455 1.433 . S
C1448 H1444 0.929 . S
C1448 C1450 1.378 . S
C1448 C1452 1.350 . S
C1449 C1452 1.463 . S
C1449 C1454 1.350 . S
C1449 N1457 1.427 . S
C1450 H1441 0.930 . S
C1450 C1448 1.378 . S
C1450 C1451 1.367 . S
C1451 C1450 1.367 . S
C1451 C1453 1.433 . S
C1452 C1448 1.350 . S
C1452 C1449 1.463 . S
C1452 N1456 1.427 . S
C1453 H1443 0.929 . S
C1453 C1451 1.433 . S
C1453 N1456 1.384 . S
C1454 H1445 0.929 . S
C1454 C1446 1.378 . S
C1454 C1449 1.350 . S
C1455 H1442 0.929 . S
C1455 C1447 1.433 . S
C1455 N1457 1.384 . S
N1456 C1452 1.427 . S
N1456 C1453 1.384 . S
N1457 C1449 1.427 . S
N1457 C1455 1.384 . S
H1458 C1464 0.930 . S
H1459 C1468 0.930 . S
H1460 C1473 0.929 . S
H1461 C1471 0.929 . S
H1462 C1466 0.929 . S
H1463 C1472 0.929 . S
C1464 H1458 0.930 . S
C1464 C1465 1.367 . S
C1464 C1472 1.378 . S
C1465 C1464 1.367 . S
C1465 C1473 1.433 . S
C1466 H1462 0.929 . S
C1466 C1468 1.378 . S
C1466 C1470 1.350 . S
C1467 C1470 1.463 . S
C1467 C1472 1.350 . S
C1467 N1475 1.427 . S
C1468 H1459 0.930 . S
C1468 C1466 1.378 . S
C1468 C1469 1.367 . S
C1469 C1468 1.367 . S
C1469 C1471 1.433 . S
C1470 C1466 1.350 . S
C1470 C1467 1.463 . S
C1470 N1474 1.427 . S
C1471 H1461 0.929 . S
C1471 C1469 1.433 . S
C1471 N1474 1.384 . S
C1472 H1463 0.929 . S
C1472 C1464 1.378 . S
C1472 C1467 1.350 . S
C1473 H1460 0.929 . S
C1473 C1465 1.433 . S
C1473 N1475 1.384 . S
N1474 C1470 1.427 . S
N1474 C1471 1.384 . S
N1475 C1467 1.427 . S
N1475 C1473 1.384 . S
H1476 C1482 0.930 . S
H1477 C1486 0.930 . S
H1478 C1491 0.929 . S
H1479 C1489 0.929 . S
H1480 C1484 0.929 . S
H1481 C1490 0.929 . S
C1482 H1476 0.930 . S
C1482 C1483 1.367 . S
C1482 C1490 1.378 . S
C1483 C1482 1.367 . S
C1483 C1491 1.433 . S
C1484 H1480 0.929 . S
C1484 C1486 1.378 . S
C1484 C1488 1.350 . S
C1485 C1488 1.463 . S
C1485 C1490 1.350 . S
C1485 N1493 1.427 . S
C1486 H1477 0.930 . S
C1486 C1484 1.378 . S
C1486 C1487 1.367 . S
C1487 C1486 1.367 . S
C1487 C1489 1.433 . S
C1488 C1484 1.350 . S
C1488 C1485 1.463 . S
C1488 N1492 1.427 . S
C1489 H1479 0.929 . S
C1489 C1487 1.433 . S
C1489 N1492 1.384 . S
C1490 H1481 0.929 . S
C1490 C1482 1.378 . S
C1490 C1485 1.350 . S
C1491 H1478 0.929 . S
C1491 C1483 1.433 . S
C1491 N1493 1.384 . S
N1492 C1488 1.427 . S
N1492 C1489 1.384 . S
N1493 C1485 1.427 . S
N1493 C1491 1.384 . S
H1494 C1500 0.930 . S
H1495 C1504 0.930 . S
H1496 C1509 0.929 . S
H1497 C1507 0.929 . S
H1498 C1502 0.929 . S
H1499 C1508 0.929 . S
C1500 H1494 0.930 . S
C1500 C1501 1.367 . S
C1500 C1508 1.378 . S
C1501 C1500 1.367 . S
C1501 C1509 1.433 . S
C1502 H1498 0.929 . S
C1502 C1504 1.378 . S
C1502 C1506 1.350 . S
C1503 C1506 1.463 . S
C1503 C1508 1.350 . S
C1503 N1511 1.427 . S
C1504 H1495 0.930 . S
C1504 C1502 1.378 . S
C1504 C1505 1.367 . S
C1505 C1504 1.367 . S
C1505 C1507 1.433 . S
C1506 C1502 1.350 . S
C1506 C1503 1.463 . S
C1506 N1510 1.427 . S
C1507 H1497 0.929 . S
C1507 C1505 1.433 . S
C1507 N1510 1.384 . S
C1508 H1499 0.929 . S
C1508 C1500 1.378 . S
C1508 C1503 1.350 . S
C1509 H1496 0.929 . S
C1509 C1501 1.433 . S
C1509 N1511 1.384 . S
N1510 C1506 1.427 . S
N1510 C1507 1.384 . S
N1511 C1503 1.427 . S
N1511 C1509 1.384 . S
H1512 C1518 0.930 . S
H1513 C1522 0.930 . S
H1514 C1527 0.929 . S
H1515 C1525 0.929 . S
H1516 C1520 0.929 . S
H1517 C1526 0.929 . S
C1518 H1512 0.930 . S
C1518 C1519 1.367 . S
C1518 C1526 1.378 . S
C1519 C1518 1.367 . S
C1519 C1527 1.433 . S
C1520 H1516 0.929 . S
C1520 C1522 1.378 . S
C1520 C1524 1.350 . S
C1521 C1524 1.463 . S
C1521 C1526 1.350 . S
C1521 N1529 1.427 . S
C1522 H1513 0.930 . S
C1522 C1520 1.378 . S
C1522 C1523 1.367 . S
C1523 C1522 1.367 . S
C1523 C1525 1.433 . S
C1524 C1520 1.350 . S
C1524 C1521 1.463 . S
C1524 N1528 1.427 . S
C1525 H1515 0.929 . S
C1525 C1523 1.433 . S
C1525 N1528 1.384 . S
C1526 H1517 0.929 . S
C1526 C1518 1.378 . S
C1526 C1521 1.350 . S
C1527 H1514 0.929 . S
C1527 C1519 1.433 . S
C1527 N1529 1.384 . S
N1528 C1524 1.427 . S
N1528 C1525 1.384 . S
N1529 C1521 1.427 . S
N1529 C1527 1.384 . S
H1530 C1536 0.930 . S
H1531 C1540 0.930 . S
H1532 C1545 0.929 . S
H1533 C1543 0.929 . S
H1534 C1538 0.929 . S
H1535 C1544 0.929 . S
C1536 H1530 0.930 . S
C1536 C1537 1.367 . S
C1536 C1544 1.378 . S
C1537 C1536 1.367 . S
C1537 C1545 1.433 . S
C1538 H1534 0.929 . S
C1538 C1540 1.378 . S
C1538 C1542 1.350 . S
C1539 C1542 1.463 . S
C1539 C1544 1.350 . S
C1539 N1547 1.427 . S
C1540 H1531 0.930 . S
C1540 C1538 1.378 . S
C1540 C1541 1.367 . S
C1541 C1540 1.367 . S
C1541 C1543 1.433 . S
C1542 C1538 1.350 . S
C1542 C1539 1.463 . S
C1542 N1546 1.427 . S
C1543 H1533 0.929 . S
C1543 C1541 1.433 . S
C1543 N1546 1.384 . S
C1544 H1535 0.929 . S
C1544 C1536 1.378 . S
C1544 C1539 1.350 . S
C1545 H1532 0.929 . S
C1545 C1537 1.433 . S
C1545 N1547 1.384 . S
N1546 C1542 1.427 . S
N1546 C1543 1.384 . S
N1547 C1539 1.427 . S
N1547 C1545 1.384 . S
H1548 C1554 0.930 . S
H1549 C1558 0.930 . S
H1550 C1563 0.929 . S
H1551 C1561 0.929 . S
H1552 C1556 0.929 . S
H1553 C1562 0.929 . S
C1554 H1548 0.930 . S
C1554 C1555 1.367 . S
C1554 C1562 1.378 . S
C1555 C1554 1.367 . S
C1555 C1563 1.433 . S
C1556 H1552 0.929 . S
C1556 C1558 1.378 . S
C1556 C1560 1.350 . S
C1557 C1560 1.463 . S
C1557 C1562 1.350 . S
C1557 N1565 1.427 . S
C1558 H1549 0.930 . S
C1558 C1556 1.378 . S
C1558 C1559 1.367 . S
C1559 C1558 1.367 . S
C1559 C1561 1.433 . S
C1560 C1556 1.350 . S
C1560 C1557 1.463 . S
C1560 N1564 1.427 . S
C1561 H1551 0.929 . S
C1561 C1559 1.433 . S
C1561 N1564 1.384 . S
C1562 H1553 0.929 . S
C1562 C1554 1.378 . S
C1562 C1557 1.350 . S
C1563 H1550 0.929 . S
C1563 C1555 1.433 . S
C1563 N1565 1.384 . S
N1564 C1560 1.427 . S
N1564 C1561 1.384 . S
N1565 C1557 1.427 . S
N1565 C1563 1.384 . S
H1566 C1572 0.930 . S
H1567 C1576 0.930 . S
H1568 C1581 0.929 . S
H1569 C1579 0.929 . S
H1570 C1574 0.929 . S
H1571 C1580 0.929 . S
C1572 H1566 0.930 . S
C1572 C1573 1.367 . S
C1572 C1580 1.378 . S
C1573 C1572 1.367 . S
C1573 C1581 1.433 . S
C1574 H1570 0.929 . S
C1574 C1576 1.378 . S
C1574 C1578 1.350 . S
C1575 C1578 1.463 . S
C1575 C1580 1.350 . S
C1575 N1583 1.427 . S
C1576 H1567 0.930 . S
C1576 C1574 1.378 . S
C1576 C1577 1.367 . S
C1577 C1576 1.367 . S
C1577 C1579 1.433 . S
C1578 C1574 1.350 . S
C1578 C1575 1.463 . S
C1578 N1582 1.427 . S
C1579 H1569 0.929 . S
C1579 C1577 1.433 . S
C1579 N1582 1.384 . S
C1580 H1571 0.929 . S
C1580 C1572 1.378 . S
C1580 C1575 1.350 . S
C1581 H1568 0.929 . S
C1581 C1573 1.433 . S
C1581 N1583 1.384 . S
N1582 C1578 1.427 . S
N1582 C1579 1.384 . S
N1583 C1575 1.427 . S
N1583 C1581 1.384 . S
H1584 C1590 0.930 . S
H1585 C1594 0.930 . S
H1586 C1599 0.929 . S
H1587 C1597 0.929 . S
H1588 C1592 0.929 . S
H1589 C1598 0.929 . S
C1590 H1584 0.930 . S
C1590 C1591 1.367 . S
C1590 C1598 1.378 . S
C1591 C1590 1.367 . S
C1591 C1599 1.433 . S
C1592 H1588 0.929 . S
C1592 C1594 1.378 . S
C1592 C1596 1.350 . S
C1593 C1596 1.463 . S
C1593 C1598 1.350 . S
C1593 N1601 1.427 . S
C1594 H1585 0.930 . S
C1594 C1592 1.378 . S
C1594 C1595 1.367 . S
C1595 C1594 1.367 . S
C1595 C1597 1.433 . S
C1596 C1592 1.350 . S
C1596 C1593 1.463 . S
C1596 N1600 1.427 . S
C1597 H1587 0.929 . S
C1597 C1595 1.433 . S
C1597 N1600 1.384 . S
C1598 H1589 0.929 . S
C1598 C1590 1.378 . S
C1598 C1593 1.350 . S
C1599 H1586 0.929 . S
C1599 C1591 1.433 . S
C1599 N1601 1.384 . S
N1600 C1596 1.427 . S
N1600 C1597 1.384 . S
N1601 C1593 1.427 . S
N1601 C1599 1.384 . S
H1602 C1608 0.930 . S
H1603 C1612 0.930 . S
H1604 C1617 0.929 . S
H1605 C1615 0.929 . S
H1606 C1610 0.929 . S
H1607 C1616 0.929 . S
C1608 H1602 0.930 . S
C1608 C1609 1.367 . S
C1608 C1616 1.378 . S
C1609 C1608 1.367 . S
C1609 C1617 1.433 . S
C1610 H1606 0.929 . S
C1610 C1612 1.378 . S
C1610 C1614 1.350 . S
C1611 C1614 1.463 . S
C1611 C1616 1.350 . S
C1611 N1619 1.427 . S
C1612 H1603 0.930 . S
C1612 C1610 1.378 . S
C1612 C1613 1.367 . S
C1613 C1612 1.367 . S
C1613 C1615 1.433 . S
C1614 C1610 1.350 . S
C1614 C1611 1.463 . S
C1614 N1618 1.427 . S
C1615 H1605 0.929 . S
C1615 C1613 1.433 . S
C1615 N1618 1.384 . S
C1616 H1607 0.929 . S
C1616 C1608 1.378 . S
C1616 C1611 1.350 . S
C1617 H1604 0.929 . S
C1617 C1609 1.433 . S
C1617 N1619 1.384 . S
N1618 C1614 1.427 . S
N1618 C1615 1.384 . S
N1619 C1611 1.427 . S
N1619 C1617 1.384 . S
H1620 C1626 0.930 . S
H1621 C1630 0.930 . S
H1622 C1635 0.929 . S
H1623 C1633 0.929 . S
H1624 C1628 0.929 . S
H1625 C1634 0.929 . S
C1626 H1620 0.930 . S
C1626 C1627 1.367 . S
C1626 C1634 1.378 . S
C1627 C1626 1.367 . S
C1627 C1635 1.433 . S
C1628 H1624 0.929 . S
C1628 C1630 1.378 . S
C1628 C1632 1.350 . S
C1629 C1632 1.463 . S
C1629 C1634 1.350 . S
C1629 N1637 1.427 . S
C1630 H1621 0.930 . S
C1630 C1628 1.378 . S
C1630 C1631 1.367 . S
C1631 C1630 1.367 . S
C1631 C1633 1.433 . S
C1632 C1628 1.350 . S
C1632 C1629 1.463 . S
C1632 N1636 1.427 . S
C1633 H1623 0.929 . S
C1633 C1631 1.433 . S
C1633 N1636 1.384 . S
C1634 H1625 0.929 . S
C1634 C1626 1.378 . S
C1634 C1629 1.350 . S
C1635 H1622 0.929 . S
C1635 C1627 1.433 . S
C1635 N1637 1.384 . S
N1636 C1632 1.427 . S
N1636 C1633 1.384 . S
N1637 C1629 1.427 . S
N1637 C1635 1.384 . S
H1638 C1644 0.930 . S
H1639 C1648 0.930 . S
H1640 C1653 0.929 . S
H1641 C1651 0.929 . S
H1642 C1646 0.929 . S
H1643 C1652 0.929 . S
C1644 H1638 0.930 . S
C1644 C1645 1.367 . S
C1644 C1652 1.378 . S
C1645 C1644 1.367 . S
C1645 C1653 1.433 . S
C1646 H1642 0.929 . S
C1646 C1648 1.378 . S
C1646 C1650 1.350 . S
C1647 C1650 1.463 . S
C1647 C1652 1.350 . S
C1647 N1655 1.427 . S
C1648 H1639 0.930 . S
C1648 C1646 1.378 . S
C1648 C1649 1.367 . S
C1649 C1648 1.367 . S
C1649 C1651 1.433 . S
C1650 C1646 1.350 . S
C1650 C1647 1.463 . S
C1650 N1654 1.427 . S
C1651 H1641 0.929 . S
C1651 C1649 1.433 . S
C1651 N1654 1.384 . S
C1652 H1643 0.929 . S
C1652 C1644 1.378 . S
C1652 C1647 1.350 . S
C1653 H1640 0.929 . S
C1653 C1645 1.433 . S
C1653 N1655 1.384 . S
N1654 C1650 1.427 . S
N1654 C1651 1.384 . S
N1655 C1647 1.427 . S
N1655 C1653 1.384 . S
H1656 C1662 0.930 . S
H1657 C1666 0.930 . S
H1658 C1671 0.929 . S
H1659 C1669 0.929 . S
H1660 C1664 0.929 . S
H1661 C1670 0.929 . S
C1662 H1656 0.930 . S
C1662 C1663 1.367 . S
C1662 C1670 1.378 . S
C1663 C1662 1.367 . S
C1663 C1671 1.433 . S
C1664 H1660 0.929 . S
C1664 C1666 1.378 . S
C1664 C1668 1.350 . S
C1665 C1668 1.463 . S
C1665 C1670 1.350 . S
C1665 N1673 1.427 . S
C1666 H1657 0.930 . S
C1666 C1664 1.378 . S
C1666 C1667 1.367 . S
C1667 C1666 1.367 . S
C1667 C1669 1.433 . S
C1668 C1664 1.350 . S
C1668 C1665 1.463 . S
C1668 N1672 1.427 . S
C1669 H1659 0.929 . S
C1669 C1667 1.433 . S
C1669 N1672 1.384 . S
C1670 H1661 0.929 . S
C1670 C1662 1.378 . S
C1670 C1665 1.350 . S
C1671 H1658 0.929 . S
C1671 C1663 1.433 . S
C1671 N1673 1.384 . S
N1672 C1668 1.427 . S
N1672 C1669 1.384 . S
N1673 C1665 1.427 . S
N1673 C1671 1.384 . S
H1674 C1680 0.930 . S
H1675 C1684 0.930 . S
H1676 C1689 0.929 . S
H1677 C1687 0.929 . S
H1678 C1682 0.929 . S
H1679 C1688 0.929 . S
C1680 H1674 0.930 . S
C1680 C1681 1.367 . S
C1680 C1688 1.378 . S
C1681 C1680 1.367 . S
C1681 C1689 1.433 . S
C1682 H1678 0.929 . S
C1682 C1684 1.378 . S
C1682 C1686 1.350 . S
C1683 C1686 1.463 . S
C1683 C1688 1.350 . S
C1683 N1691 1.427 . S
C1684 H1675 0.930 . S
C1684 C1682 1.378 . S
C1684 C1685 1.367 . S
C1685 C1684 1.367 . S
C1685 C1687 1.433 . S
C1686 C1682 1.350 . S
C1686 C1683 1.463 . S
C1686 N1690 1.427 . S
C1687 H1677 0.929 . S
C1687 C1685 1.433 . S
C1687 N1690 1.384 . S
C1688 H1679 0.929 . S
C1688 C1680 1.378 . S
C1688 C1683 1.350 . S
C1689 H1676 0.929 . S
C1689 C1681 1.433 . S
C1689 N1691 1.384 . S
N1690 C1686 1.427 . S
N1690 C1687 1.384 . S
N1691 C1683 1.427 . S
N1691 C1689 1.384 . S
H1692 C1698 0.930 . S
H1693 C1702 0.930 . S
H1694 C1707 0.929 . S
H1695 C1705 0.929 . S
H1696 C1700 0.929 . S
H1697 C1706 0.929 . S
C1698 H1692 0.930 . S
C1698 C1699 1.367 . S
C1698 C1706 1.378 . S
C1699 C1698 1.367 . S
C1699 C1707 1.433 . S
C1700 H1696 0.929 . S
C1700 C1702 1.378 . S
C1700 C1704 1.350 . S
C1701 C1704 1.463 . S
C1701 C1706 1.350 . S
C1701 N1709 1.427 . S
C1702 H1693 0.930 . S
C1702 C1700 1.378 . S
C1702 C1703 1.367 . S
C1703 C1702 1.367 . S
C1703 C1705 1.433 . S
C1704 C1700 1.350 . S
C1704 C1701 1.463 . S
C1704 N1708 1.427 . S
C1705 H1695 0.929 . S
C1705 C1703 1.433 . S
C1705 N1708 1.384 . S
C1706 H1697 0.929 . S
C1706 C1698 1.378 . S
C1706 C1701 1.350 . S
C1707 H1694 0.929 . S
C1707 C1699 1.433 . S
C1707 N1709 1.384 . S
N1708 C1704 1.427 . S
N1708 C1705 1.384 . S
N1709 C1701 1.427 . S
N1709 C1707 1.384 . S
H1710 C1716 0.930 . S
H1711 C1720 0.930 . S
H1712 C1725 0.929 . S
H1713 C1723 0.929 . S
H1714 C1718 0.929 . S
H1715 C1724 0.929 . S
C1716 H1710 0.930 . S
C1716 C1717 1.367 . S
C1716 C1724 1.378 . S
C1717 C1716 1.367 . S
C1717 C1725 1.433 . S
C1718 H1714 0.929 . S
C1718 C1720 1.378 . S
C1718 C1722 1.350 . S
C1719 C1722 1.463 . S
C1719 C1724 1.350 . S
C1719 N1727 1.427 . S
C1720 H1711 0.930 . S
C1720 C1718 1.378 . S
C1720 C1721 1.367 . S
C1721 C1720 1.367 . S
C1721 C1723 1.433 . S
C1722 C1718 1.350 . S
C1722 C1719 1.463 . S
C1722 N1726 1.427 . S
C1723 H1713 0.929 . S
C1723 C1721 1.433 . S
C1723 N1726 1.384 . S
C1724 H1715 0.929 . S
C1724 C1716 1.378 . S
C1724 C1719 1.350 . S
C1725 H1712 0.929 . S
C1725 C1717 1.433 . S
C1725 N1727 1.384 . S
N1726 C1722 1.427 . S
N1726 C1723 1.384 . S
N1727 C1719 1.427 . S
N1727 C1725 1.384 . S
H1728 C1734 0.930 . S
H1729 C1738 0.930 . S
H1730 C1743 0.929 . S
H1731 C1741 0.929 . S
H1732 C1736 0.929 . S
H1733 C1742 0.929 . S
C1734 H1728 0.930 . S
C1734 C1735 1.367 . S
C1734 C1742 1.378 . S
C1735 C1734 1.367 . S
C1735 C1743 1.433 . S
C1736 H1732 0.929 . S
C1736 C1738 1.378 . S
C1736 C1740 1.350 . S
C1737 C1740 1.463 . S
C1737 C1742 1.350 . S
C1737 N1745 1.427 . S
C1738 H1729 0.930 . S
C1738 C1736 1.378 . S
C1738 C1739 1.367 . S
C1739 C1738 1.367 . S
C1739 C1741 1.433 . S
C1740 C1736 1.350 . S
C1740 C1737 1.463 . S
C1740 N1744 1.427 . S
C1741 H1731 0.929 . S
C1741 C1739 1.433 . S
C1741 N1744 1.384 . S
C1742 H1733 0.929 . S
C1742 C1734 1.378 . S
C1742 C1737 1.350 . S
C1743 H1730 0.929 . S
C1743 C1735 1.433 . S
C1743 N1745 1.384 . S
N1744 C1740 1.427 . S
N1744 C1741 1.384 . S
N1745 C1737 1.427 . S
N1745 C1743 1.384 . S
H1746 C1752 0.930 . S
H1747 C1756 0.930 . S
H1748 C1761 0.929 . S
H1749 C1759 0.929 . S
H1750 C1754 0.929 . S
H1751 C1760 0.929 . S
C1752 H1746 0.930 . S
C1752 C1753 1.367 . S
C1752 C1760 1.378 . S
C1753 C1752 1.367 . S
C1753 C1761 1.433 . S
C1754 H1750 0.929 . S
C1754 C1756 1.378 . S
C1754 C1758 1.350 . S
C1755 C1758 1.463 . S
C1755 C1760 1.350 . S
C1755 N1763 1.427 . S
C1756 H1747 0.930 . S
C1756 C1754 1.378 . S
C1756 C1757 1.367 . S
C1757 C1756 1.367 . S
C1757 C1759 1.433 . S
C1758 C1754 1.350 . S
C1758 C1755 1.463 . S
C1758 N1762 1.427 . S
C1759 H1749 0.929 . S
C1759 C1757 1.433 . S
C1759 N1762 1.384 . S
C1760 H1751 0.929 . S
C1760 C1752 1.378 . S
C1760 C1755 1.350 . S
C1761 H1748 0.929 . S
C1761 C1753 1.433 . S
C1761 N1763 1.384 . S
N1762 C1758 1.427 . S
N1762 C1759 1.384 . S
N1763 C1755 1.427 . S
N1763 C1761 1.384 . S
H1764 C1770 0.930 . S
H1765 C1774 0.930 . S
H1766 C1779 0.929 . S
H1767 C1777 0.929 . S
H1768 C1772 0.929 . S
H1769 C1778 0.929 . S
C1770 H1764 0.930 . S
C1770 C1771 1.367 . S
C1770 C1778 1.378 . S
C1771 C1770 1.367 . S
C1771 C1779 1.433 . S
C1772 H1768 0.929 . S
C1772 C1774 1.378 . S
C1772 C1776 1.350 . S
C1773 C1776 1.463 . S
C1773 C1778 1.350 . S
C1773 N1781 1.427 . S
C1774 H1765 0.930 . S
C1774 C1772 1.378 . S
C1774 C1775 1.367 . S
C1775 C1774 1.367 . S
C1775 C1777 1.433 . S
C1776 C1772 1.350 . S
C1776 C1773 1.463 . S
C1776 N1780 1.427 . S
C1777 H1767 0.929 . S
C1777 C1775 1.433 . S
C1777 N1780 1.384 . S
C1778 H1769 0.929 . S
C1778 C1770 1.378 . S
C1778 C1773 1.350 . S
C1779 H1766 0.929 . S
C1779 C1771 1.433 . S
C1779 N1781 1.384 . S
N1780 C1776 1.427 . S
N1780 C1777 1.384 . S
N1781 C1773 1.427 . S
N1781 C1779 1.384 . S
H1782 C1788 0.930 . S
H1783 C1792 0.930 . S
H1784 C1797 0.929 . S
H1785 C1795 0.929 . S
H1786 C1790 0.929 . S
H1787 C1796 0.929 . S
C1788 H1782 0.930 . S
C1788 C1789 1.367 . S
C1788 C1796 1.378 . S
C1789 C1788 1.367 . S
C1789 C1797 1.433 . S
C1790 H1786 0.929 . S
C1790 C1792 1.378 . S
C1790 C1794 1.350 . S
C1791 C1794 1.463 . S
C1791 C1796 1.350 . S
C1791 N1799 1.427 . S
C1792 H1783 0.930 . S
C1792 C1790 1.378 . S
C1792 C1793 1.367 . S
C1793 C1792 1.367 . S
C1793 C1795 1.433 . S
C1794 C1790 1.350 . S
C1794 C1791 1.463 . S
C1794 N1798 1.427 . S
C1795 H1785 0.929 . S
C1795 C1793 1.433 . S
C1795 N1798 1.384 . S
C1796 H1787 0.929 . S
C1796 C1788 1.378 . S
C1796 C1791 1.350 . S
C1797 H1784 0.929 . S
C1797 C1789 1.433 . S
C1797 N1799 1.384 . S
N1798 C1794 1.427 . S
N1798 C1795 1.384 . S
N1799 C1791 1.427 . S
N1799 C1797 1.384 . S
H1800 C1806 0.930 . S
H1801 C1810 0.930 . S
H1802 C1815 0.929 . S
H1803 C1813 0.929 . S
H1804 C1808 0.929 . S
H1805 C1814 0.929 . S
C1806 H1800 0.930 . S
C1806 C1807 1.367 . S
C1806 C1814 1.378 . S
C1807 C1806 1.367 . S
C1807 C1815 1.433 . S
C1808 H1804 0.929 . S
C1808 C1810 1.378 . S
C1808 C1812 1.350 . S
C1809 C1812 1.463 . S
C1809 C1814 1.350 . S
C1809 N1817 1.427 . S
C1810 H1801 0.930 . S
C1810 C1808 1.378 . S
C1810 C1811 1.367 . S
C1811 C1810 1.367 . S
C1811 C1813 1.433 . S
C1812 C1808 1.350 . S
C1812 C1809 1.463 . S
C1812 N1816 1.427 . S
C1813 H1803 0.929 . S
C1813 C1811 1.433 . S
C1813 N1816 1.384 . S
C1814 H1805 0.929 . S
C1814 C1806 1.378 . S
C1814 C1809 1.350 . S
C1815 H1802 0.929 . S
C1815 C1807 1.433 . S
C1815 N1817 1.384 . S
N1816 C1812 1.427 . S
N1816 C1813 1.384 . S
N1817 C1809 1.427 . S
N1817 C1815 1.384 . S
H1818 C1824 0.930 . S
H1819 C1828 0.930 . S
H1820 C1833 0.929 . S
H1821 C1831 0.929 . S
H1822 C1826 0.929 . S
H1823 C1832 0.929 . S
C1824 H1818 0.930 . S
C1824 C1825 1.367 . S
C1824 C1832 1.378 . S
C1825 C1824 1.367 . S
C1825 C1833 1.433 . S
C1826 H1822 0.929 . S
C1826 C1828 1.378 . S
C1826 C1830 1.350 . S
C1827 C1830 1.463 . S
C1827 C1832 1.350 . S
C1827 N1835 1.427 . S
C1828 H1819 0.930 . S
C1828 C1826 1.378 . S
C1828 C1829 1.367 . S
C1829 C1828 1.367 . S
C1829 C1831 1.433 . S
C1830 C1826 1.350 . S
C1830 C1827 1.463 . S
C1830 N1834 1.427 . S
C1831 H1821 0.929 . S
C1831 C1829 1.433 . S
C1831 N1834 1.384 . S
C1832 H1823 0.929 . S
C1832 C1824 1.378 . S
C1832 C1827 1.350 . S
C1833 H1820 0.929 . S
C1833 C1825 1.433 . S
C1833 N1835 1.384 . S
N1834 C1830 1.427 . S
N1834 C1831 1.384 . S
N1835 C1827 1.427 . S
N1835 C1833 1.384 . S
H1836 C1842 0.930 . S
H1837 C1846 0.930 . S
H1838 C1851 0.929 . S
H1839 C1849 0.929 . S
H1840 C1844 0.929 . S
H1841 C1850 0.929 . S
C1842 H1836 0.930 . S
C1842 C1843 1.367 . S
C1842 C1850 1.378 . S
C1843 C1842 1.367 . S
C1843 C1851 1.433 . S
C1844 H1840 0.929 . S
C1844 C1846 1.378 . S
C1844 C1848 1.350 . S
C1845 C1848 1.463 . S
C1845 C1850 1.350 . S
C1845 N1853 1.427 . S
C1846 H1837 0.930 . S
C1846 C1844 1.378 . S
C1846 C1847 1.367 . S
C1847 C1846 1.367 . S
C1847 C1849 1.433 . S
C1848 C1844 1.350 . S
C1848 C1845 1.463 . S
C1848 N1852 1.427 . S
C1849 H1839 0.929 . S
C1849 C1847 1.433 . S
C1849 N1852 1.384 . S
C1850 H1841 0.929 . S
C1850 C1842 1.378 . S
C1850 C1845 1.350 . S
C1851 H1838 0.929 . S
C1851 C1843 1.433 . S
C1851 N1853 1.384 . S
N1852 C1848 1.427 . S
N1852 C1849 1.384 . S
N1853 C1845 1.427 . S
N1853 C1851 1.384 . S
H1854 C1860 0.930 . S
H1855 C1864 0.930 . S
H1856 C1869 0.929 . S
H1857 C1867 0.929 . S
H1858 C1862 0.929 . S
H1859 C1868 0.929 . S
C1860 H1854 0.930 . S
C1860 C1861 1.367 . S
C1860 C1868 1.378 . S
C1861 C1860 1.367 . S
C1861 C1869 1.433 . S
C1862 H1858 0.929 . S
C1862 C1864 1.378 . S
C1862 C1866 1.350 . S
C1863 C1866 1.463 . S
C1863 C1868 1.350 . S
C1863 N1871 1.427 . S
C1864 H1855 0.930 . S
C1864 C1862 1.378 . S
C1864 C1865 1.367 . S
C1865 C1864 1.367 . S
C1865 C1867 1.433 . S
C1866 C1862 1.350 . S
C1866 C1863 1.463 . S
C1866 N1870 1.427 . S
C1867 H1857 0.929 . S
C1867 C1865 1.433 . S
C1867 N1870 1.384 . S
C1868 H1859 0.929 . S
C1868 C1860 1.378 . S
C1868 C1863 1.350 . S
C1869 H1856 0.929 . S
C1869 C1861 1.433 . S
C1869 N1871 1.384 . S
N1870 C1866 1.427 . S
N1870 C1867 1.384 . S
N1871 C1863 1.427 . S
N1871 C1869 1.384 . S
H1872 C1878 0.930 . S
H1873 C1882 0.930 . S
H1874 C1887 0.929 . S
H1875 C1885 0.929 . S
H1876 C1880 0.929 . S
H1877 C1886 0.929 . S
C1878 H1872 0.930 . S
C1878 C1879 1.367 . S
C1878 C1886 1.378 . S
C1879 C1878 1.367 . S
C1879 C1887 1.433 . S
C1880 H1876 0.929 . S
C1880 C1882 1.378 . S
C1880 C1884 1.350 . S
C1881 C1884 1.463 . S
C1881 C1886 1.350 . S
C1881 N1889 1.427 . S
C1882 H1873 0.930 . S
C1882 C1880 1.378 . S
C1882 C1883 1.367 . S
C1883 C1882 1.367 . S
C1883 C1885 1.433 . S
C1884 C1880 1.350 . S
C1884 C1881 1.463 . S
C1884 N1888 1.427 . S
C1885 H1875 0.929 . S
C1885 C1883 1.433 . S
C1885 N1888 1.384 . S
C1886 H1877 0.929 . S
C1886 C1878 1.378 . S
C1886 C1881 1.350 . S
C1887 H1874 0.929 . S
C1887 C1879 1.433 . S
C1887 N1889 1.384 . S
N1888 C1884 1.427 . S
N1888 C1885 1.384 . S
N1889 C1881 1.427 . S
N1889 C1887 1.384 . S
H1890 C1896 0.933 . S
H1891 C1900 0.930 . S
H1892 C1905 0.929 . S
H1893 C1903 0.929 . S
H1894 C1898 0.929 . S
H1895 C1904 0.929 . S
C1896 H1890 0.933 . S
C1896 C1897 1.367 . S
C1896 C1904 1.378 . S
C1897 C1896 1.367 . S
C1897 C1905 1.433 . S
C1898 H1894 0.929 . S
C1898 C1900 1.378 . S
C1898 C1902 1.350 . S
C1899 C1902 1.463 . S
C1899 C1904 1.350 . S
C1899 N1907 1.427 . S
C1900 H1891 0.930 . S
C1900 C1898 1.378 . S
C1900 C1901 1.367 . S
C1901 C1900 1.367 . S
C1901 C1903 1.433 . S
C1902 C1898 1.350 . S
C1902 C1899 1.463 . S
C1902 N1906 1.427 . S
C1903 H1893 0.929 . S
C1903 C1901 1.433 . S
C1903 N1906 1.384 . S
C1904 H1895 0.929 . S
C1904 C1896 1.378 . S
C1904 C1899 1.350 . S
C1905 H1892 0.929 . S
C1905 C1897 1.433 . S
C1905 N1907 1.384 . S
N1906 C1902 1.427 . S
N1906 C1903 1.384 . S
N1907 C1899 1.427 . S
N1907 C1905 1.384 . S
H1908 C1914 0.930 . S
H1909 C1918 0.930 . S
H1910 C1923 0.929 . S
H1911 C1921 0.929 . S
H1912 C1916 0.929 . S
H1913 C1922 0.929 . S
C1914 H1908 0.930 . S
C1914 C1915 1.367 . S
C1914 C1922 1.378 . S
C1915 C1914 1.367 . S
C1915 C1923 1.433 . S
C1916 H1912 0.929 . S
C1916 C1918 1.378 . S
C1916 C1920 1.350 . S
C1917 C1920 1.463 . S
C1917 C1922 1.350 . S
C1917 N1925 1.427 . S
C1918 H1909 0.930 . S
C1918 C1916 1.378 . S
C1918 C1919 1.367 . S
C1919 C1918 1.367 . S
C1919 C1921 1.433 . S
C1920 C1916 1.350 . S
C1920 C1917 1.463 . S
C1920 N1924 1.427 . S
C1921 H1911 0.929 . S
C1921 C1919 1.433 . S
C1921 N1924 1.384 . S
C1922 H1913 0.929 . S
C1922 C1914 1.378 . S
C1922 C1917 1.350 . S
C1923 H1910 0.929 . S
C1923 C1915 1.433 . S
C1923 N1925 1.384 . S
N1924 C1920 1.427 . S
N1924 C1921 1.384 . S
N1925 C1917 1.427 . S
N1925 C1923 1.384 . S
H1926 C1932 0.930 . S
H1927 C1936 0.930 . S
H1928 C1941 0.929 . S
H1929 C1939 0.929 . S
H1930 C1934 0.929 . S
H1931 C1940 0.929 . S
C1932 H1926 0.930 . S
C1932 C1933 1.367 . S
C1932 C1940 1.378 . S
C1933 C1932 1.367 . S
C1933 C1941 1.433 . S
C1934 H1930 0.929 . S
C1934 C1936 1.378 . S
C1934 C1938 1.350 . S
C1935 C1938 1.463 . S
C1935 C1940 1.350 . S
C1935 N1943 1.427 . S
C1936 H1927 0.930 . S
C1936 C1934 1.378 . S
C1936 C1937 1.367 . S
C1937 C1936 1.367 . S
C1937 C1939 1.433 . S
C1938 C1934 1.350 . S
C1938 C1935 1.463 . S
C1938 N1942 1.427 . S
C1939 H1929 0.929 . S
C1939 C1937 1.433 . S
C1939 N1942 1.384 . S
C1940 H1931 0.929 . S
C1940 C1932 1.378 . S
C1940 C1935 1.350 . S
C1941 H1928 0.929 . S
C1941 C1933 1.433 . S
C1941 N1943 1.384 . S
N1942 C1938 1.427 . S
N1942 C1939 1.384 . S
N1943 C1935 1.427 . S
N1943 C1941 1.384 . S
H1944 C1950 0.930 . S
H1945 C1954 0.930 . S
H1946 C1959 0.929 . S
H1947 C1957 0.929 . S
H1948 C1952 0.929 . S
H1949 C1958 0.929 . S
C1950 H1944 0.930 . S
C1950 C1951 1.367 . S
C1950 C1958 1.378 . S
C1951 C1950 1.367 . S
C1951 C1959 1.433 . S
C1952 H1948 0.929 . S
C1952 C1954 1.378 . S
C1952 C1956 1.350 . S
C1953 C1956 1.463 . S
C1953 C1958 1.350 . S
C1953 N1961 1.427 . S
C1954 H1945 0.930 . S
C1954 C1952 1.378 . S
C1954 C1955 1.367 . S
C1955 C1954 1.367 . S
C1955 C1957 1.433 . S
C1956 C1952 1.350 . S
C1956 C1953 1.463 . S
C1956 N1960 1.427 . S
C1957 H1947 0.929 . S
C1957 C1955 1.433 . S
C1957 N1960 1.384 . S
C1958 H1949 0.929 . S
C1958 C1950 1.378 . S
C1958 C1953 1.350 . S
C1959 H1946 0.929 . S
C1959 C1951 1.433 . S
C1959 N1961 1.384 . S
N1960 C1956 1.427 . S
N1960 C1957 1.384 . S
N1961 C1953 1.427 . S
N1961 C1959 1.384 . S
H1962 C1968 0.930 . S
H1963 C1972 0.930 . S
H1964 C1977 0.929 . S
H1965 C1975 0.929 . S
H1966 C1970 0.929 . S
H1967 C1976 0.929 . S
C1968 H1962 0.930 . S
C1968 C1969 1.367 . S
C1968 C1976 1.378 . S
C1969 C1968 1.367 . S
C1969 C1977 1.433 . S
C1970 H1966 0.929 . S
C1970 C1972 1.378 . S
C1970 C1974 1.350 . S
C1971 C1974 1.463 . S
C1971 C1976 1.350 . S
C1971 N1979 1.427 . S
C1972 H1963 0.930 . S
C1972 C1970 1.378 . S
C1972 C1973 1.367 . S
C1973 C1972 1.367 . S
C1973 C1975 1.433 . S
C1974 C1970 1.350 . S
C1974 C1971 1.463 . S
C1974 N1978 1.427 . S
C1975 H1965 0.929 . S
C1975 C1973 1.433 . S
C1975 N1978 1.384 . S
C1976 H1967 0.929 . S
C1976 C1968 1.378 . S
C1976 C1971 1.350 . S
C1977 H1964 0.929 . S
C1977 C1969 1.433 . S
C1977 N1979 1.384 . S
N1978 C1974 1.427 . S
N1978 C1975 1.384 . S
N1979 C1971 1.427 . S
N1979 C1977 1.384 . S
H1980 C1986 0.930 . S
H1981 C1990 0.930 . S
H1982 C1995 0.929 . S
H1983 C1993 0.929 . S
H1984 C1988 0.929 . S
H1985 C1994 0.929 . S
C1986 H1980 0.930 . S
C1986 C1987 1.367 . S
C1986 C1994 1.378 . S
C1987 C1986 1.367 . S
C1987 C1995 1.433 . S
C1988 H1984 0.929 . S
C1988 C1990 1.378 . S
C1988 C1992 1.350 . S
C1989 C1992 1.463 . S
C1989 C1994 1.350 . S
C1989 N1997 1.427 . S
C1990 H1981 0.930 . S
C1990 C1988 1.378 . S
C1990 C1991 1.367 . S
C1991 C1990 1.367 . S
C1991 C1993 1.433 . S
C1992 C1988 1.350 . S
C1992 C1989 1.463 . S
C1992 N1996 1.427 . S
C1993 H1983 0.929 . S
C1993 C1991 1.433 . S
C1993 N1996 1.384 . S
C1994 H1985 0.929 . S
C1994 C1986 1.378 . S
C1994 C1989 1.350 . S
C1995 H1982 0.929 . S
C1995 C1987 1.433 . S
C1995 N1997 1.384 . S
N1996 C1992 1.427 . S
N1996 C1993 1.384 . S
N1997 C1989 1.427 . S
N1997 C1995 1.384 . S
H1998 C2004 0.930 . S
H1999 C2008 0.930 . S
H2000 C2013 0.929 . S
H2001 C2011 0.929 . S
H2002 C2006 0.929 . S
H2003 C2012 0.929 . S
C2004 H1998 0.930 . S
C2004 C2005 1.367 . S
C2004 C2012 1.378 . S
C2005 C2004 1.367 . S
C2005 C2013 1.433 . S
C2006 H2002 0.929 . S
C2006 C2008 1.378 . S
C2006 C2010 1.350 . S
C2007 C2010 1.463 . S
C2007 C2012 1.350 . S
C2007 N2015 1.427 . S
C2008 H1999 0.930 . S
C2008 C2006 1.378 . S
C2008 C2009 1.367 . S
C2009 C2008 1.367 . S
C2009 C2011 1.433 . S
C2010 C2006 1.350 . S
C2010 C2007 1.463 . S
C2010 N2014 1.427 . S
C2011 H2001 0.929 . S
C2011 C2009 1.433 . S
C2011 N2014 1.384 . S
C2012 H2003 0.929 . S
C2012 C2004 1.378 . S
C2012 C2007 1.350 . S
C2013 H2000 0.929 . S
C2013 C2005 1.433 . S
C2013 N2015 1.384 . S
N2014 C2010 1.427 . S
N2014 C2011 1.384 . S
N2015 C2007 1.427 . S
N2015 C2013 1.384 . S
H2016 C2022 0.930 . S
H2017 C2026 0.930 . S
H2018 C2031 0.929 . S
H2019 C2029 0.929 . S
H2020 C2024 0.929 . S
H2021 C2030 0.929 . S
C2022 H2016 0.930 . S
C2022 C2023 1.367 . S
C2022 C2030 1.378 . S
C2023 C2022 1.367 . S
C2023 C2031 1.433 . S
C2024 H2020 0.929 . S
C2024 C2026 1.378 . S
C2024 C2028 1.350 . S
C2025 C2028 1.463 . S
C2025 C2030 1.350 . S
C2025 N2033 1.427 . S
C2026 H2017 0.930 . S
C2026 C2024 1.378 . S
C2026 C2027 1.367 . S
C2027 C2026 1.367 . S
C2027 C2029 1.433 . S
C2028 C2024 1.350 . S
C2028 C2025 1.463 . S
C2028 N2032 1.427 . S
C2029 H2019 0.929 . S
C2029 C2027 1.433 . S
C2029 N2032 1.384 . S
C2030 H2021 0.929 . S
C2030 C2022 1.378 . S
C2030 C2025 1.350 . S
C2031 H2018 0.929 . S
C2031 C2023 1.433 . S
C2031 N2033 1.384 . S
N2032 C2028 1.427 . S
N2032 C2029 1.384 . S
N2033 C2025 1.427 . S
N2033 C2031 1.384 . S
H2034 C2040 0.930 . S
H2035 C2044 0.930 . S
H2036 C2049 0.929 . S
H2037 C2047 0.929 . S
H2038 C2042 0.929 . S
H2039 C2048 0.929 . S
C2040 H2034 0.930 . S
C2040 C2041 1.367 1_655 S
C2040 C2048 1.378 . S
C2041 C2040 1.367 1_455 S
C2041 C2049 1.433 . S
C2042 H2038 0.929 . S
C2042 C2044 1.378 . S
C2042 C2046 1.350 . S
C2043 C2046 1.463 . S
C2043 C2048 1.350 1_455 S
C2043 N2051 1.427 . S
C2044 H2035 0.930 . S
C2044 C2042 1.378 . S
C2044 C2045 1.367 . S
C2045 C2044 1.367 . S
C2045 C2047 1.433 1_455 S
C2046 C2042 1.350 . S
C2046 C2043 1.463 . S
C2046 N2050 1.427 1_455 S
C2047 H2037 0.929 . S
C2047 C2045 1.433 1_655 S
C2047 N2050 1.384 . S
C2048 H2039 0.929 . S
C2048 C2040 1.378 . S
C2048 C2043 1.350 1_655 S
C2049 H2036 0.929 . S
C2049 C2041 1.433 . S
C2049 N2051 1.384 . S
N2050 C2046 1.427 1_655 S
N2050 C2047 1.384 . S
N2051 C2043 1.427 . S
N2051 C2049 1.384 . S
H2052 C2058 0.930 . S
H2053 C2062 0.930 . S
H2054 C2067 0.929 . S
H2055 C2065 0.929 . S
H2056 C2060 0.929 . S
H2057 C2066 0.929 . S
C2058 H2052 0.930 . S
C2058 C2059 1.367 . S
C2058 C2066 1.378 . S
C2059 C2058 1.367 . S
C2059 C2067 1.433 . S
C2060 H2056 0.929 . S
C2060 C2062 1.378 . S
C2060 C2064 1.350 . S
C2061 C2064 1.463 . S
C2061 C2066 1.350 . S
C2061 N2069 1.427 . S
C2062 H2053 0.930 . S
C2062 C2060 1.378 . S
C2062 C2063 1.367 . S
C2063 C2062 1.367 . S
C2063 C2065 1.433 . S
C2064 C2060 1.350 . S
C2064 C2061 1.463 . S
C2064 N2068 1.427 . S
C2065 H2055 0.929 . S
C2065 C2063 1.433 . S
C2065 N2068 1.384 . S
C2066 H2057 0.929 . S
C2066 C2058 1.378 . S
C2066 C2061 1.350 . S
C2067 H2054 0.929 . S
C2067 C2059 1.433 . S
C2067 N2069 1.384 . S
N2068 C2064 1.427 . S
N2068 C2065 1.384 . S
N2069 C2061 1.427 . S
N2069 C2067 1.384 . S
H2070 C2076 0.930 . S
H2071 C2080 0.930 . S
H2072 C2085 0.929 . S
H2073 C2083 0.929 . S
H2074 C2078 0.929 . S
H2075 C2084 0.929 . S
C2076 H2070 0.930 . S
C2076 C2077 1.367 1_545 S
C2076 C2084 1.378 . S
C2077 C2076 1.367 1_565 S
C2077 C2085 1.433 . S
C2078 H2074 0.929 . S
C2078 C2080 1.378 . S
C2078 C2082 1.350 . S
C2079 C2082 1.463 . S
C2079 C2084 1.350 1_565 S
C2079 N2087 1.427 . S
C2080 H2071 0.930 . S
C2080 C2078 1.378 . S
C2080 C2081 1.367 . S
C2081 C2080 1.367 . S
C2081 C2083 1.433 1_565 S
C2082 C2078 1.350 . S
C2082 C2079 1.463 . S
C2082 N2086 1.427 1_565 S
C2083 H2073 0.929 . S
C2083 C2081 1.433 1_545 S
C2083 N2086 1.384 . S
C2084 H2075 0.929 . S
C2084 C2076 1.378 . S
C2084 C2079 1.350 1_545 S
C2085 H2072 0.929 . S
C2085 C2077 1.433 . S
C2085 N2087 1.384 . S
N2086 C2082 1.427 1_545 S
N2086 C2083 1.384 . S
N2087 C2079 1.427 . S
N2087 C2085 1.384 . S
H2088 C2094 0.930 . S
H2089 C2098 0.930 . S
H2090 C2103 0.929 . S
H2091 C2101 0.929 . S
H2092 C2096 0.929 . S
H2093 C2102 0.929 . S
C2094 H2088 0.930 . S
C2094 C2095 1.367 . S
C2094 C2102 1.378 . S
C2095 C2094 1.367 . S
C2095 C2103 1.433 1_565 S
C2096 H2092 0.929 . S
C2096 C2098 1.378 . S
C2096 C2100 1.350 1_545 S
C2097 C2100 1.463 . S
C2097 C2102 1.350 . S
C2097 N2105 1.427 1_565 S
C2098 H2089 0.930 . S
C2098 C2096 1.378 . S
C2098 C2099 1.367 1_545 S
C2099 C2098 1.367 1_565 S
C2099 C2101 1.433 . S
C2100 C2096 1.350 1_565 S
C2100 C2097 1.463 . S
C2100 N2104 1.427 . S
C2101 H2091 0.929 . S
C2101 C2099 1.433 . S
C2101 N2104 1.384 . S
C2102 H2093 0.929 . S
C2102 C2094 1.378 . S
C2102 C2097 1.350 . S
C2103 H2090 0.929 . S
C2103 C2095 1.433 1_545 S
C2103 N2105 1.384 . S
N2104 C2100 1.427 . S
N2104 C2101 1.384 . S
N2105 C2097 1.427 1_545 S
N2105 C2103 1.384 . S
H2106 C2112 0.930 . S
H2107 C2116 0.930 . S
H2108 C2121 0.929 . S
H2109 C2119 0.929 . S
H2110 C2114 0.929 . S
H2111 C2120 0.929 . S
C2112 H2106 0.930 . S
C2112 C2113 1.367 . S
C2112 C2120 1.378 . S
C2113 C2112 1.367 . S
C2113 C2121 1.433 1_455 S
C2114 H2110 0.929 . S
C2114 C2116 1.378 . S
C2114 C2118 1.350 1_655 S
C2115 C2118 1.463 . S
C2115 C2120 1.350 . S
C2115 N2123 1.427 1_455 S
C2116 H2107 0.930 . S
C2116 C2114 1.378 . S
C2116 C2117 1.367 1_655 S
C2117 C2116 1.367 1_455 S
C2117 C2119 1.433 . S
C2118 C2114 1.350 1_455 S
C2118 C2115 1.463 . S
C2118 N2122 1.427 . S
C2119 H2109 0.929 . S
C2119 C2117 1.433 . S
C2119 N2122 1.384 . S
C2120 H2111 0.929 . S
C2120 C2112 1.378 . S
C2120 C2115 1.350 . S
C2121 H2108 0.929 . S
C2121 C2113 1.433 1_655 S
C2121 N2123 1.384 . S
N2122 C2118 1.427 . S
N2122 C2119 1.384 . S
N2123 C2115 1.427 1_655 S
N2123 C2121 1.384 . S
H2124 C2130 0.930 . S
H2125 C2134 0.930 . S
H2126 C2139 0.929 . S
H2127 C2137 0.929 . S
H2128 C2132 0.929 . S
H2129 C2138 0.929 . S
C2130 H2124 0.930 . S
C2130 C2131 1.367 . S
C2130 C2138 1.378 . S
C2131 C2130 1.367 . S
C2131 C2139 1.433 . S
C2132 H2128 0.929 . S
C2132 C2134 1.378 . S
C2132 C2136 1.350 . S
C2133 C2136 1.463 . S
C2133 C2138 1.350 . S
C2133 N2141 1.427 . S
C2134 H2125 0.930 . S
C2134 C2132 1.378 . S
C2134 C2135 1.367 . S
C2135 C2134 1.367 . S
C2135 C2137 1.433 . S
C2136 C2132 1.350 . S
C2136 C2133 1.463 . S
C2136 N2140 1.427 . S
C2137 H2127 0.929 . S
C2137 C2135 1.433 . S
C2137 N2140 1.384 . S
C2138 H2129 0.929 . S
C2138 C2130 1.378 . S
C2138 C2133 1.350 . S
C2139 H2126 0.929 . S
C2139 C2131 1.433 . S
C2139 N2141 1.384 . S
N2140 C2136 1.427 . S
N2140 C2137 1.384 . S
N2141 C2133 1.427 . S
N2141 C2139 1.384 . S
H2142 C2148 0.930 . S
H2143 C2152 0.930 . S
H2144 C2157 0.929 . S
H2145 C2155 0.929 . S
H2146 C2150 0.929 . S
H2147 C2156 0.929 . S
C2148 H2142 0.930 . S
C2148 C2149 1.367 . S
C2148 C2156 1.378 . S
C2149 C2148 1.367 . S
C2149 C2157 1.433 . S
C2150 H2146 0.929 . S
C2150 C2152 1.378 . S
C2150 C2154 1.350 . S
C2151 C2154 1.463 . S
C2151 C2156 1.350 . S
C2151 N2159 1.427 . S
C2152 H2143 0.930 . S
C2152 C2150 1.378 . S
C2152 C2153 1.367 . S
C2153 C2152 1.367 . S
C2153 C2155 1.433 . S
C2154 C2150 1.350 . S
C2154 C2151 1.463 . S
C2154 N2158 1.427 . S
C2155 H2145 0.929 . S
C2155 C2153 1.433 . S
C2155 N2158 1.384 . S
C2156 H2147 0.929 . S
C2156 C2148 1.378 . S
C2156 C2151 1.350 . S
C2157 H2144 0.929 . S
C2157 C2149 1.433 . S
C2157 N2159 1.384 . S
N2158 C2154 1.427 . S
N2158 C2155 1.384 . S
N2159 C2151 1.427 . S
N2159 C2157 1.384 . S
H2160 C2166 0.930 . S
H2161 C2170 0.930 . S
H2162 C2175 0.929 . S
H2163 C2173 0.929 . S
H2164 C2168 0.929 . S
H2165 C2174 0.929 . S
C2166 H2160 0.930 . S
C2166 C2167 1.367 . S
C2166 C2174 1.378 . S
C2167 C2166 1.367 . S
C2167 C2175 1.433 . S
C2168 H2164 0.929 . S
C2168 C2170 1.378 . S
C2168 C2172 1.350 . S
C2169 C2172 1.463 . S
C2169 C2174 1.350 . S
C2169 N2177 1.427 . S
C2170 H2161 0.930 . S
C2170 C2168 1.378 . S
C2170 C2171 1.367 . S
C2171 C2170 1.367 . S
C2171 C2173 1.433 . S
C2172 C2168 1.350 . S
C2172 C2169 1.463 . S
C2172 N2176 1.427 . S
C2173 H2163 0.929 . S
C2173 C2171 1.433 . S
C2173 N2176 1.384 . S
C2174 H2165 0.929 . S
C2174 C2166 1.378 . S
C2174 C2169 1.350 . S
C2175 H2162 0.929 . S
C2175 C2167 1.433 . S
C2175 N2177 1.384 . S
N2176 C2172 1.427 . S
N2176 C2173 1.384 . S
N2177 C2169 1.427 . S
N2177 C2175 1.384 . S
H2178 C2184 0.930 . S
H2179 C2188 0.930 . S
H2180 C2193 0.929 . S
H2181 C2191 0.929 . S
H2182 C2186 0.929 . S
H2183 C2192 0.929 . S
C2184 H2178 0.930 . S
C2184 C2185 1.367 . S
C2184 C2192 1.378 . S
C2185 C2184 1.367 . S
C2185 C2193 1.433 . S
C2186 H2182 0.929 . S
C2186 C2188 1.378 . S
C2186 C2190 1.350 . S
C2187 C2190 1.463 . S
C2187 C2192 1.350 . S
C2187 N2195 1.427 . S
C2188 H2179 0.930 . S
C2188 C2186 1.378 . S
C2188 C2189 1.367 . S
C2189 C2188 1.367 . S
C2189 C2191 1.433 . S
C2190 C2186 1.350 . S
C2190 C2187 1.463 . S
C2190 N2194 1.427 . S
C2191 H2181 0.929 . S
C2191 C2189 1.433 . S
C2191 N2194 1.384 . S
C2192 H2183 0.929 . S
C2192 C2184 1.378 . S
C2192 C2187 1.350 . S
C2193 H2180 0.929 . S
C2193 C2185 1.433 . S
C2193 N2195 1.384 . S
N2194 C2190 1.427 . S
N2194 C2191 1.384 . S
N2195 C2187 1.427 . S
N2195 C2193 1.384 . S
H2196 C2202 0.930 . S
H2197 C2206 0.930 . S
H2198 C2211 0.929 . S
H2199 C2209 0.928 1_565 S
H2200 C2204 0.929 . S
H2201 C2210 0.938 . S
C2202 H2196 0.930 . S
C2202 C2203 1.367 . S
C2202 C2210 1.378 . S
C2203 C2202 1.367 . S
C2203 C2211 1.433 . S
C2204 H2200 0.929 . S
C2204 C2206 1.378 . S
C2204 C2208 1.350 . S
C2205 C2208 1.463 . S
C2205 C2210 1.350 . S
C2205 N2213 1.427 . S
C2206 H2197 0.930 . S
C2206 C2204 1.378 . S
C2206 C2207 1.367 . S
C2207 C2206 1.367 . S
C2207 C2209 1.432 . S
C2208 C2204 1.350 . S
C2208 C2205 1.463 . S
C2208 N2212 1.427 . S
C2209 H2199 0.928 1_545 S
C2209 C2207 1.432 . S
C2209 N2212 1.387 . S
C2210 H2201 0.938 . S
C2210 C2202 1.378 . S
C2210 C2205 1.350 . S
C2211 H2198 0.929 . S
C2211 C2203 1.433 . S
C2211 N2213 1.384 . S
N2212 C2208 1.427 . S
N2212 C2209 1.387 . S
N2213 C2205 1.427 . S
N2213 C2211 1.384 . S
H2214 C2220 0.930 . S
H2215 C2224 0.930 . S
H2216 C2229 0.909 1_455 S
H2217 C2227 0.929 . S
H2218 C2222 0.929 . S
H2219 C2228 0.929 . S
C2220 H2214 0.930 . S
C2220 C2221 1.367 . S
C2220 C2228 1.378 . S
C2221 C2220 1.367 . S
C2221 C2229 1.431 . S
C2222 H2218 0.929 . S
C2222 C2224 1.378 . S
C2222 C2226 1.350 1_455 S
C2223 C2226 1.463 . S
C2223 C2228 1.350 . S
C2223 N2231 1.426 . S
C2224 H2215 0.930 . S
C2224 C2222 1.378 . S
C2224 C2225 1.367 1_455 S
C2225 C2224 1.367 1_655 S
C2225 C2227 1.433 . S
C2226 C2222 1.350 1_655 S
C2226 C2223 1.463 . S
C2226 N2230 1.427 . S
C2227 H2217 0.929 . S
C2227 C2225 1.433 . S
C2227 N2230 1.384 . S
C2228 H2219 0.929 . S
C2228 C2220 1.378 . S
C2228 C2223 1.350 . S
C2229 H2216 0.909 1_655 S
C2229 C2221 1.431 . S
C2229 N2231 1.415 . S
N2230 C2226 1.427 . S
N2230 C2227 1.384 . S
N2231 C2223 1.426 . S
N2231 C2229 1.415 . S
H2232 C2238 0.930 . S
H2233 C2242 0.930 . S
H2234 C2247 0.929 . S
H2235 C2245 0.929 . S
H2236 C2240 0.929 . S
H2237 C2246 0.929 . S
C2238 H2232 0.930 . S
C2238 C2239 1.367 . S
C2238 C2246 1.378 . S
C2239 C2238 1.367 . S
C2239 C2247 1.433 . S
C2240 H2236 0.929 . S
C2240 C2242 1.378 . S
C2240 C2244 1.350 . S
C2241 C2244 1.463 . S
C2241 C2246 1.350 . S
C2241 N2249 1.427 . S
C2242 H2233 0.930 . S
C2242 C2240 1.378 . S
C2242 C2243 1.367 . S
C2243 C2242 1.367 . S
C2243 C2245 1.433 . S
C2244 C2240 1.350 . S
C2244 C2241 1.463 . S
C2244 N2248 1.427 . S
C2245 H2235 0.929 . S
C2245 C2243 1.433 . S
C2245 N2248 1.384 . S
C2246 H2237 0.929 . S
C2246 C2238 1.378 . S
C2246 C2241 1.350 . S
C2247 H2234 0.929 . S
C2247 C2239 1.433 . S
C2247 N2249 1.384 . S
N2248 C2244 1.427 . S
N2248 C2245 1.384 . S
N2249 C2241 1.427 . S
N2249 C2247 1.384 . S
H2250 C2256 0.930 . S
H2251 C2260 0.930 . S
H2252 C2265 0.929 . S
H2253 C2263 0.929 . S
H2254 C2258 0.929 . S
H2255 C2264 0.929 . S
C2256 H2250 0.930 . S
C2256 C2257 1.367 . S
C2256 C2264 1.378 . S
C2257 C2256 1.367 . S
C2257 C2265 1.433 . S
C2258 H2254 0.929 . S
C2258 C2260 1.378 . S
C2258 C2262 1.350 . S
C2259 C2262 1.463 . S
C2259 C2264 1.350 . S
C2259 N2267 1.427 . S
C2260 H2251 0.930 . S
C2260 C2258 1.378 . S
C2260 C2261 1.367 . S
C2261 C2260 1.367 . S
C2261 C2263 1.433 . S
C2262 C2258 1.350 . S
C2262 C2259 1.463 . S
C2262 N2266 1.427 . S
C2263 H2253 0.929 . S
C2263 C2261 1.433 . S
C2263 N2266 1.384 . S
C2264 H2255 0.929 . S
C2264 C2256 1.378 . S
C2264 C2259 1.350 . S
C2265 H2252 0.929 . S
C2265 C2257 1.433 . S
C2265 N2267 1.384 . S
N2266 C2262 1.427 . S
N2266 C2263 1.384 . S
N2267 C2259 1.427 . S
N2267 C2265 1.384 . S
H2268 C2274 0.930 . S
H2269 C2278 0.930 . S
H2270 C2283 0.929 . S
H2271 C2281 0.929 . S
H2272 C2276 0.929 . S
H2273 C2282 0.929 . S
C2274 H2268 0.930 . S
C2274 C2275 1.367 . S
C2274 C2282 1.378 . S
C2275 C2274 1.367 . S
C2275 C2283 1.433 . S
C2276 H2272 0.929 . S
C2276 C2278 1.378 . S
C2276 C2280 1.350 . S
C2277 C2280 1.463 . S
C2277 C2282 1.350 . S
C2277 N2285 1.427 . S
C2278 H2269 0.930 . S
C2278 C2276 1.378 . S
C2278 C2279 1.367 . S
C2279 C2278 1.367 . S
C2279 C2281 1.433 . S
C2280 C2276 1.350 . S
C2280 C2277 1.463 . S
C2280 N2284 1.427 . S
C2281 H2271 0.929 . S
C2281 C2279 1.433 . S
C2281 N2284 1.384 . S
C2282 H2273 0.929 . S
C2282 C2274 1.378 . S
C2282 C2277 1.350 . S
C2283 H2270 0.929 . S
C2283 C2275 1.433 . S
C2283 N2285 1.384 . S
N2284 C2280 1.427 . S
N2284 C2281 1.384 . S
N2285 C2277 1.427 . S
N2285 C2283 1.384 . S
H2286 C2292 0.930 . S
H2287 C2296 0.930 . S
H2288 C2301 0.929 . S
H2289 C2299 0.929 . S
H2290 C2294 0.929 . S
H2291 C2300 0.929 . S
C2292 H2286 0.930 . S
C2292 C2293 1.367 . S
C2292 C2300 1.378 . S
C2293 C2292 1.367 . S
C2293 C2301 1.433 . S
C2294 H2290 0.929 . S
C2294 C2296 1.378 . S
C2294 C2298 1.350 . S
C2295 C2298 1.463 . S
C2295 C2300 1.350 . S
C2295 N2303 1.427 . S
C2296 H2287 0.930 . S
C2296 C2294 1.378 . S
C2296 C2297 1.367 . S
C2297 C2296 1.367 . S
C2297 C2299 1.433 . S
C2298 C2294 1.350 . S
C2298 C2295 1.463 . S
C2298 N2302 1.427 . S
C2299 H2289 0.929 . S
C2299 C2297 1.433 . S
C2299 N2302 1.384 . S
C2300 H2291 0.929 . S
C2300 C2292 1.378 . S
C2300 C2295 1.350 . S
C2301 H2288 0.929 . S
C2301 C2293 1.433 . S
C2301 N2303 1.384 . S
N2302 C2298 1.427 . S
N2302 C2299 1.384 . S
N2303 C2295 1.427 . S
N2303 C2301 1.384 . S
H2304 C2310 0.930 . S
H2305 C2314 0.930 . S
H2306 C2319 0.929 . S
H2307 C2317 0.929 . S
H2308 C2312 0.929 . S
H2309 C2318 0.929 . S
C2310 H2304 0.930 . S
C2310 C2311 1.367 . S
C2310 C2318 1.378 . S
C2311 C2310 1.367 . S
C2311 C2319 1.433 . S
C2312 H2308 0.929 . S
C2312 C2314 1.378 . S
C2312 C2316 1.350 . S
C2313 C2316 1.463 . S
C2313 C2318 1.350 . S
C2313 N2321 1.427 . S
C2314 H2305 0.930 . S
C2314 C2312 1.378 . S
C2314 C2315 1.367 . S
C2315 C2314 1.367 . S
C2315 C2317 1.433 . S
C2316 C2312 1.350 . S
C2316 C2313 1.463 . S
C2316 N2320 1.427 . S
C2317 H2307 0.929 . S
C2317 C2315 1.433 . S
C2317 N2320 1.384 . S
C2318 H2309 0.929 . S
C2318 C2310 1.378 . S
C2318 C2313 1.350 . S
C2319 H2306 0.929 . S
C2319 C2311 1.433 . S
C2319 N2321 1.384 . S
N2320 C2316 1.427 . S
N2320 C2317 1.384 . S
N2321 C2313 1.427 . S
N2321 C2319 1.384 . S
H2322 C2328 0.930 . S
H2323 C2332 0.930 . S
H2324 C2337 0.929 . S
H2325 C2335 0.929 . S
H2326 C2330 0.929 . S
H2327 C2336 0.929 . S
C2328 H2322 0.930 . S
C2328 C2329 1.367 . S
C2328 C2336 1.378 . S
C2329 C2328 1.367 . S
C2329 C2337 1.433 . S
C2330 H2326 0.929 . S
C2330 C2332 1.378 . S
C2330 C2334 1.350 . S
C2331 C2334 1.463 . S
C2331 C2336 1.350 . S
C2331 N2339 1.427 . S
C2332 H2323 0.930 . S
C2332 C2330 1.378 . S
C2332 C2333 1.367 . S
C2333 C2332 1.367 . S
C2333 C2335 1.433 . S
C2334 C2330 1.350 . S
C2334 C2331 1.463 . S
C2334 N2338 1.427 . S
C2335 H2325 0.929 . S
C2335 C2333 1.433 . S
C2335 N2338 1.384 . S
C2336 H2327 0.929 . S
C2336 C2328 1.378 . S
C2336 C2331 1.350 . S
C2337 H2324 0.929 . S
C2337 C2329 1.433 . S
C2337 N2339 1.384 . S
N2338 C2334 1.427 . S
N2338 C2335 1.384 . S
N2339 C2331 1.427 . S
N2339 C2337 1.384 . S
H2340 C2346 0.930 . S
H2341 C2350 0.930 . S
H2342 C2355 0.929 . S
H2343 C2353 0.929 . S
H2344 C2348 0.929 . S
H2345 C2354 0.929 . S
C2346 H2340 0.930 . S
C2346 C2347 1.367 . S
C2346 C2354 1.378 . S
C2347 C2346 1.367 . S
C2347 C2355 1.433 . S
C2348 H2344 0.929 . S
C2348 C2350 1.378 . S
C2348 C2352 1.350 . S
C2349 C2352 1.463 . S
C2349 C2354 1.350 . S
C2349 N2357 1.427 . S
C2350 H2341 0.930 . S
C2350 C2348 1.378 . S
C2350 C2351 1.367 . S
C2351 C2350 1.367 . S
C2351 C2353 1.433 . S
C2352 C2348 1.350 . S
C2352 C2349 1.463 . S
C2352 N2356 1.427 . S
C2353 H2343 0.929 . S
C2353 C2351 1.433 . S
C2353 N2356 1.384 . S
C2354 H2345 0.929 . S
C2354 C2346 1.378 . S
C2354 C2349 1.350 . S
C2355 H2342 0.929 . S
C2355 C2347 1.433 . S
C2355 N2357 1.384 . S
N2356 C2352 1.427 . S
N2356 C2353 1.384 . S
N2357 C2349 1.427 . S
N2357 C2355 1.384 . S
H2358 C2364 0.930 . S
H2359 C2368 0.927 1_455 S
H2360 C2373 0.929 . S
H2361 C2371 0.929 . S
H2362 C2366 0.948 1_455 S
H2363 C2372 0.929 . S
C2364 H2358 0.930 . S
C2364 C2365 1.367 . S
C2364 C2372 1.378 . S
C2365 C2364 1.367 . S
C2365 C2373 1.433 . S
C2366 H2362 0.948 1_655 S
C2366 C2368 1.387 . S
C2366 C2370 1.350 . S
C2367 C2370 1.463 . S
C2367 C2372 1.350 . S
C2367 N2375 1.427 . S
C2368 H2359 0.927 1_655 S
C2368 C2366 1.387 . S
C2368 C2369 1.361 . S
C2369 C2368 1.361 . S
C2369 C2371 1.433 . S
C2370 C2366 1.350 . S
C2370 C2367 1.463 . S
C2370 N2374 1.427 . S
C2371 H2361 0.929 . S
C2371 C2369 1.433 . S
C2371 N2374 1.384 . S
C2372 H2363 0.929 . S
C2372 C2364 1.378 . S
C2372 C2367 1.350 . S
C2373 H2360 0.929 . S
C2373 C2365 1.433 . S
C2373 N2375 1.384 . S
N2374 C2370 1.427 . S
N2374 C2371 1.384 . S
N2375 C2367 1.427 . S
N2375 C2373 1.384 . S
H2376 C2382 0.930 . S
H2377 C2386 0.930 . S
H2378 C2391 0.929 . S
H2379 C2389 0.929 . S
H2380 C2384 0.929 . S
H2381 C2390 0.929 . S
C2382 H2376 0.930 . S
C2382 C2383 1.367 . S
C2382 C2390 1.378 . S
C2383 C2382 1.367 . S
C2383 C2391 1.433 . S
C2384 H2380 0.929 . S
C2384 C2386 1.378 . S
C2384 C2388 1.350 . S
C2385 C2388 1.463 . S
C2385 C2390 1.350 . S
C2385 N2393 1.427 . S
C2386 H2377 0.930 . S
C2386 C2384 1.378 . S
C2386 C2387 1.367 . S
C2387 C2386 1.367 . S
C2387 C2389 1.433 . S
C2388 C2384 1.350 . S
C2388 C2385 1.463 . S
C2388 N2392 1.427 . S
C2389 H2379 0.929 . S
C2389 C2387 1.433 . S
C2389 N2392 1.384 . S
C2390 H2381 0.929 . S
C2390 C2382 1.378 . S
C2390 C2385 1.350 . S
C2391 H2378 0.929 . S
C2391 C2383 1.433 . S
C2391 N2393 1.384 . S
N2392 C2388 1.427 . S
N2392 C2389 1.384 . S
N2393 C2385 1.427 . S
N2393 C2391 1.384 . S
H2394 C2400 0.930 . S
H2395 C2404 0.930 . S
H2396 C2409 0.929 . S
H2397 C2407 0.929 . S
H2398 C2402 0.929 . S
H2399 C2408 0.929 . S
C2400 H2394 0.930 . S
C2400 C2401 1.367 1_565 S
C2400 C2408 1.378 . S
C2401 C2400 1.367 1_545 S
C2401 C2409 1.433 . S
C2402 H2398 0.929 . S
C2402 C2404 1.378 . S
C2402 C2406 1.350 . S
C2403 C2406 1.463 . S
C2403 C2408 1.350 1_545 S
C2403 N2411 1.427 . S
C2404 H2395 0.930 . S
C2404 C2402 1.378 . S
C2404 C2405 1.367 . S
C2405 C2404 1.367 . S
C2405 C2407 1.433 1_545 S
C2406 C2402 1.350 . S
C2406 C2403 1.463 . S
C2406 N2410 1.427 1_545 S
C2407 H2397 0.929 . S
C2407 C2405 1.433 1_565 S
C2407 N2410 1.384 . S
C2408 H2399 0.929 . S
C2408 C2400 1.378 . S
C2408 C2403 1.350 1_565 S
C2409 H2396 0.929 . S
C2409 C2401 1.433 . S
C2409 N2411 1.384 . S
N2410 C2406 1.427 1_565 S
N2410 C2407 1.384 . S
N2411 C2403 1.427 . S
N2411 C2409 1.384 . S
C1123 C8 1.485 1_655 S
C1127 C729 1.502 . S
C1141 C22 1.555 . S
C1145 C777 1.565 . S
C1163 C825 1.514 . S
C1159 C37 1.499 1_545 S
C1177 C36 1.471 1_565 S
C1181 C849 1.509 . S
C1195 C9 1.486 1_455 S
C1199 C921 1.513 . S
C1213 C23 1.554 . S
C1217 C969 1.563 . S
C1231 C50 1.441 1_455 S
C1235 C897 1.504 . S
C1253 C945 1.567 . S
C1249 C64 1.559 . S
C1271 C873 1.539 . S
C1267 C79 1.506 1_565 S
C1285 C78 1.485 1_545 S
C1289 C801 1.503 . S
C1307 C705 1.526 . S
C1303 C51 1.504 1_655 S
C1321 C65 1.559 . S
C1325 C753 1.566 . S
C1339 C92 1.590 . S
C1343 C1017 1.601 . S
C1357 C106 1.597 . S
C1361 C1065 1.605 . S
C1379 C1089 1.575 . S
C1375 C121 1.580 . S
C1393 C120 1.548 . S
C1397 C273 1.545 . S
C1411 C93 1.566 . S
C1415 C345 1.573 . S
C1429 C107 1.574 . S
C1433 C393 1.579 . S
C1447 C134 1.537 . S
C1451 C321 1.555 . S
C1465 C148 1.575 . S
C1469 C369 1.584 . S
C1487 C297 1.552 . S
C1483 C163 1.562 . S
C1505 C1113 1.580 . S
C1501 C162 1.586 . S
C1523 C993 1.584 . S
C1519 C135 1.573 . S
C1541 C1041 1.612 . S
C1537 C149 1.598 . S
C1555 C176 1.543 . S
C1559 C441 1.554 . S
C1573 C190 1.567 . S
C1577 C489 1.577 . S
C1591 C205 1.563 . S
C1595 C513 1.574 . S
C1609 C204 1.588 . S
C1613 C561 1.597 . S
C1631 C633 1.582 . S
C1627 C177 1.577 . S
C1649 C681 1.607 . S
C1645 C191 1.601 . S
C1667 C609 1.603 . S
C1663 C218 1.596 . S
C1685 C657 1.612 . S
C1681 C232 1.602 . S
C1699 C247 1.573 . S
C1703 C585 1.552 . S
C1721 C537 1.529 . S
C1717 C246 1.538 . S
C1735 C219 1.568 . S
C1739 C417 1.576 . S
C1757 C465 1.585 . S
C1753 C233 1.569 . S
C1775 C282 1.542 . S
C1771 C6 1.515 . S
C1789 C20 1.484 . S
C1793 C336 1.504 . S
C1811 C384 1.534 . S
C1807 C35 1.530 . S
C1829 C432 1.538 . S
C1825 C34 1.518 . S
C1847 C480 1.533 . S
C1843 C7 1.519 . S
C1865 C522 1.510 . S
C1861 C21 1.486 . S
C1879 C48 1.522 . S
C1883 C528 1.552 . S
C1897 C62 1.486 . S
C1901 C426 1.492 . S
C1915 C77 1.524 . S
C1919 C474 1.513 . S
C1933 C76 1.522 . S
C1937 C330 1.536 . S
C1955 C378 1.525 . S
C1951 C49 1.517 . S
C1969 C63 1.492 . S
C1973 C288 1.511 . S
C1991 C570 1.536 . S
C1987 C90 1.505 . S
C2005 C104 1.540 . S
C2009 C624 1.557 . S
C2023 C119 1.551 . S
C2027 C672 1.563 . S
C2045 C720 1.497 . S
C2041 C118 1.461 . S
C2059 C91 1.510 . S
C2063 C768 1.531 . S
C2077 C105 1.463 . S
C2081 C816 1.498 . S
C2095 C132 1.451 . S
C2099 C810 1.491 . S
C2113 C146 1.458 . S
C2117 C714 1.502 . S
C2135 C762 1.523 . S
C2131 C161 1.511 . S
C2149 C160 1.508 . S
C2153 C618 1.518 . S
C2167 C133 1.546 . S
C2171 C666 1.552 . S
C2189 C576 1.566 . S
C2185 C147 1.544 . S
C2207 C858 1.540 . S
C2203 C174 1.456 . S
C2221 C188 1.458 . S
C2225 C912 1.502 . S
C2239 C203 1.511 . S
C2243 C960 1.536 . S
C2261 C1008 1.531 . S
C2257 C202 1.507 . S
C2279 C1056 1.560 . S
C2275 C175 1.548 . S
C2293 C189 1.536 . S
C2297 C1098 1.570 . S
C2311 C216 1.511 . S
C2315 C1104 1.539 . S
C2329 C230 1.533 . S
C2333 C1002 1.556 . S
C2351 C1050 1.548 . S
C2347 C245 1.542 . S
C2369 C906 1.490 . S
C2365 C244 1.446 . S
C2387 C954 1.525 . S
C2383 C217 1.515 . S
C2401 C231 1.470 . S
C2405 C864 1.506 . S
