# Generated by pormake.
# Topology pto, (3,4)-cn, num edge types: 1
# Building blocks:
#     Node 0, Type 0, BuildingBlock: PAMTOO_clean_linker_0, # of connection points: 3
#     Node 1, Type 0, BuildingBlock: PAMTOO_clean_linker_0, # of connection points: 3
#     Node 2, Type 0, BuildingBlock: PAMTOO_clean_linker_0, # of connection points: 3
#     Node 3, Type 0, BuildingBlock: PAMTOO_clean_linker_0, # of connection points: 3
#     Node 4, Type 0, BuildingBlock: PAMTOO_clean_linker_0, # of connection points: 3
#     Node 5, Type 0, BuildingBlock: PAMTOO_clean_linker_0, # of connection points: 3
#     Node 6, Type 0, BuildingBlock: PAMTOO_clean_linker_0, # of connection points: 3
#     Node 7, Type 0, BuildingBlock: PAMTOO_clean_linker_0, # of connection points: 3
#     Node 8, Type 1, BuildingBlock: NAWXER_clean_sbu_0, # of connection points: 4
#     Node 9, Type 1, BuildingBlock: NAWXER_clean_sbu_0, # of connection points: 4
#     Node 10, Type 1, BuildingBlock: NAWXER_clean_sbu_0, # of connection points: 4
#     Node 11, Type 1, BuildingBlock: NAWXER_clean_sbu_0, # of connection points: 4
#     Node 12, Type 1, BuildingBlock: NAWXER_clean_sbu_0, # of connection points: 4
#     Node 13, Type 1, BuildingBlock: NAWXER_clean_sbu_0, # of connection points: 4
#     Edge 14, Type (0, 1), BuildingBlock: XUDNAN_clean_linker_2, # of connection points: 2
#     Edge 15, Type (0, 1), BuildingBlock: XUDNAN_clean_linker_2, # of connection points: 2
#     Edge 16, Type (0, 1), BuildingBlock: XUDNAN_clean_linker_2, # of connection points: 2
#     Edge 17, Type (0, 1), BuildingBlock: XUDNAN_clean_linker_2, # of connection points: 2
#     Edge 18, Type (0, 1), BuildingBlock: XUDNAN_clean_linker_2, # of connection points: 2
#     Edge 19, Type (0, 1), BuildingBlock: XUDNAN_clean_linker_2, # of connection points: 2
#     Edge 20, Type (0, 1), BuildingBlock: XUDNAN_clean_linker_2, # of connection points: 2
#     Edge 21, Type (0, 1), BuildingBlock: XUDNAN_clean_linker_2, # of connection points: 2
#     Edge 22, Type (0, 1), BuildingBlock: XUDNAN_clean_linker_2, # of connection points: 2
#     Edge 23, Type (0, 1), BuildingBlock: XUDNAN_clean_linker_2, # of connection points: 2
#     Edge 24, Type (0, 1), BuildingBlock: XUDNAN_clean_linker_2, # of connection points: 2
#     Edge 25, Type (0, 1), BuildingBlock: XUDNAN_clean_linker_2, # of connection points: 2
#     Edge 26, Type (0, 1), BuildingBlock: XUDNAN_clean_linker_2, # of connection points: 2
#     Edge 27, Type (0, 1), BuildingBlock: XUDNAN_clean_linker_2, # of connection points: 2
#     Edge 28, Type (0, 1), BuildingBlock: XUDNAN_clean_linker_2, # of connection points: 2
#     Edge 29, Type (0, 1), BuildingBlock: XUDNAN_clean_linker_2, # of connection points: 2
#     Edge 30, Type (0, 1), BuildingBlock: XUDNAN_clean_linker_2, # of connection points: 2
#     Edge 31, Type (0, 1), BuildingBlock: XUDNAN_clean_linker_2, # of connection points: 2
#     Edge 32, Type (0, 1), BuildingBlock: XUDNAN_clean_linker_2, # of connection points: 2
#     Edge 33, Type (0, 1), BuildingBlock: XUDNAN_clean_linker_2, # of connection points: 2
#     Edge 34, Type (0, 1), BuildingBlock: XUDNAN_clean_linker_2, # of connection points: 2
#     Edge 35, Type (0, 1), BuildingBlock: XUDNAN_clean_linker_2, # of connection points: 2
#     Edge 36, Type (0, 1), BuildingBlock: XUDNAN_clean_linker_2, # of connection points: 2
#     Edge 37, Type (0, 1), BuildingBlock: XUDNAN_clean_linker_2, # of connection points: 2
# Relax obj value: 0.016
# Max RMSD: 0.152
# Mean RMSD: 0.065
data_MOF--net-pto--node1-NAWXER_clean_sbu_0--node2-PAMTOO_clean_linker_0--edge1-XUDNAN_clean_linker_2
_symmetry_space_group_name_H-M    P1
_symmetry_Int_Tables_number       1
_symmetry_cell_setting            triclinic
loop_
_symmetry_equiv_pos_as_xyz
'x, y, z'
_cell_length_a     43.104181
_cell_length_b     38.929643
_cell_length_c     37.758388
_cell_angle_alpha  82.045463
_cell_angle_beta   84.074786
_cell_angle_gamma 99.543741
loop_
_atom_site_label
_atom_site_type_symbol
_atom_site_fract_x
_atom_site_fract_y
_atom_site_fract_z
_atom_type_partial_charge
H0 H 0.17032 0.31342 0.35739 0.0
H1 H 0.26315 0.28552 0.33884 0.0
H2 H 0.23728 0.36586 0.26543 0.0
H3 H 0.27397 0.32016 0.22862 0.0
C4 C 0.28578 0.30997 0.25166 0.0
O5 O 0.28097 0.32889 0.2795 0.0
H6 H 0.27532 0.28159 0.26087 0.0
C7 C 0.1935 0.3169 0.34189 0.0
C8 C 0.20118 0.34264 0.31053 0.0
C9 C 0.21533 0.2951 0.35233 0.0
C10 C 0.24512 0.30035 0.33113 0.0
C11 C 0.25249 0.32507 0.29967 0.0
C12 C 0.23076 0.34622 0.28952 0.0
H13 H 0.21003 0.77363 0.81853 0.0
H14 H 0.27324 0.72545 0.88223 0.0
H15 H 0.30149 0.83269 0.82954 0.0
H16 H 0.34972 0.77982 0.8269 0.0
C17 C 0.34337 0.76765 0.85577 0.0
O18 O 0.31826 0.78079 0.87109 0.0
H19 H 0.33646 0.73865 0.85683 0.0
C20 C 0.23252 0.77522 0.82924 0.0
C21 C 0.2547 0.80703 0.82147 0.0
C22 C 0.23887 0.74556 0.85107 0.0
C23 C 0.26782 0.74797 0.86534 0.0
C24 C 0.2905 0.77908 0.85708 0.0
C25 C 0.28404 0.80851 0.83506 0.0
H26 H 0.70605 0.78376 0.33409 0.0
H27 H 0.75642 0.73863 0.25287 0.0
H28 H 0.79902 0.76183 0.34678 0.0
H29 H 0.84219 0.77668 0.28197 0.0
C30 C 0.83225 0.75566 0.26692 0.0
O31 O 0.80578 0.73451 0.2874 0.0
H32 H 0.82541 0.76876 0.24153 0.0
C33 C 0.72667 0.77371 0.3241 0.0
C34 C 0.75232 0.77477 0.34422 0.0
C35 C 0.72784 0.76163 0.29061 0.0
C36 C 0.75466 0.74802 0.27855 0.0
C37 C 0.78008 0.74769 0.29909 0.0
C38 C 0.77899 0.7614 0.3316 0.0
H39 H 0.77215 0.28866 0.87768 0.0
H40 H 0.71783 0.2185 0.81898 0.0
H41 H 0.8196 0.24059 0.79675 0.0
H42 H 0.7764 0.24442 0.73527 0.0
C43 C 0.76218 0.21752 0.74499 0.0
O44 O 0.76713 0.20563 0.77976 0.0
H45 H 0.73671 0.21923 0.74458 0.0
C46 C 0.77132 0.27087 0.85793 0.0
C47 C 0.79961 0.2662 0.83872 0.0
C48 C 0.74185 0.2539 0.85085 0.0
C49 C 0.74055 0.23145 0.82487 0.0
C50 C 0.76858 0.2268 0.80529 0.0
C51 C 0.79805 0.24432 0.81203 0.0
H52 H 0.78831 0.82026 0.8191 0.0
H53 H 0.8054 0.72555 0.88172 0.0
H54 H 0.8643 0.76914 0.78223 0.0
H55 H 0.82723 0.69004 0.80231 0.0
C56 C 0.8411 0.68584 0.82538 0.0
O57 O 0.85246 0.71747 0.8363 0.0
H58 H 0.82469 0.66862 0.84795 0.0
C59 C 0.80213 0.79954 0.82314 0.0
C60 C 0.8279 0.79871 0.79722 0.0
C61 C 0.79339 0.77305 0.85358 0.0
C62 C 0.81148 0.74619 0.85845 0.0
C63 C 0.83685 0.7449 0.83269 0.0
C64 C 0.84509 0.7711 0.80232 0.0
H65 H 0.83956 0.30226 0.36017 0.0
H66 H 0.76355 0.2602 0.30406 0.0
H67 H 0.78912 0.37226 0.30022 0.0
H68 H 0.72096 0.34345 0.3096 0.0
C69 C 0.7209 0.32446 0.2901 0.0
O70 O 0.75161 0.32212 0.27767 0.0
H71 H 0.70818 0.29822 0.30449 0.0
C72 C 0.82085 0.30639 0.34381 0.0
C73 C 0.81629 0.34081 0.33222 0.0
C74 C 0.80212 0.27719 0.33372 0.0
C75 C 0.77805 0.28249 0.31226 0.0
C76 C 0.77348 0.31683 0.30013 0.0
C77 C 0.79268 0.34586 0.30996 0.0
H78 H 0.25409 0.30466 0.74557 0.0
H79 H 0.28728 0.37926 0.81319 0.0
H80 H 0.34345 0.30309 0.78776 0.0
H81 H 0.32616 0.31144 0.86704 0.0
C82 C 0.33293 0.34076 0.8623 0.0
O83 O 0.33787 0.35312 0.82569 0.0
H84 H 0.31301 0.35153 0.8751 0.0
C85 C 0.27243 0.31547 0.76056 0.0
C86 C 0.29971 0.30009 0.7633 0.0
C87 C 0.26792 0.34439 0.77777 0.0
C88 C 0.29035 0.35713 0.79949 0.0
C89 C 0.31702 0.3415 0.80361 0.0
C90 C 0.32198 0.31367 0.78508 0.0
H91 H 0.23552 0.83057 0.36557 0.0
H92 H 0.30001 0.81464 0.27703 0.0
H93 H 0.33171 0.8888 0.34491 0.0
H94 H 0.35274 0.91551 0.26869 0.0
C95 C 0.35187 0.89011 0.25813 0.0
O96 O 0.34664 0.86278 0.28688 0.0
H97 H 0.33206 0.88715 0.24142 0.0
C98 C 0.25905 0.83614 0.35055 0.0
C99 C 0.28285 0.8616 0.35991 0.0
C100 C 0.26487 0.81859 0.32103 0.0
C101 C 0.29479 0.82761 0.29995 0.0
C102 C 0.31839 0.85345 0.30823 0.0
C103 C 0.31267 0.86977 0.33845 0.0
C104 C 0.99334 0.53263 0.33185 0.0
C105 C 0.0874 0.627 0.3062 0.0
O106 O 1.00769 0.54722 0.35528 0.0
Zn107 Zn 0.04078 0.57857 0.32077 0.0
O108 O 1.00427 0.54146 0.29838 0.0
Zn109 Zn 0.04233 0.57689 0.2645 0.0
O110 O 0.06569 0.54478 0.24327 0.0
O111 O 0.06747 0.54093 0.30175 0.0
O112 O 0.0782 0.61575 0.27799 0.0
O113 O 0.07264 0.61279 0.33701 0.0
O114 O 0.01216 0.61122 0.29234 0.0
O115 O 0.01854 0.60484 0.23503 0.0
C116 C 0.07488 0.5305 0.27173 0.0
C117 C 1.00548 0.61845 0.26008 0.0
C118 C 0.99349 0.43513 0.84793 0.0
C119 C 0.07699 0.53476 0.85308 0.0
O120 O 1.00546 0.44503 0.87497 0.0
Zn121 Zn 0.036 0.48481 0.84996 0.0
O122 O 1.00438 0.45211 0.81628 0.0
Zn123 Zn 0.04094 0.49722 0.7937 0.0
O124 O 0.07034 0.47793 0.76382 0.0
O125 O 0.07138 0.46145 0.82183 0.0
O126 O 0.07192 0.53218 0.82053 0.0
O127 O 0.06105 0.51228 0.87889 0.0
O128 O 1.00694 0.52143 0.82894 0.0
O129 O 0.0176 0.5293 0.76967 0.0
C130 C 0.08201 0.46115 0.78887 0.0
C131 C 1.00253 0.53622 0.79774 0.0
C132 C 0.23144 0.01084 0.64625 0.0
C133 C 0.21924 0.10351 0.55004 0.0
O134 O 0.20684 0.02345 0.63996 0.0
Zn135 Zn 0.22553 0.05724 0.59799 0.0
O136 O 0.25773 0.02339 0.62582 0.0
Zn137 Zn 0.27421 0.06428 0.57929 0.0
O138 O 0.30488 0.09695 0.59821 0.0
O139 O 0.25532 0.09639 0.62038 0.0
O140 O 0.24798 0.09832 0.54864 0.0
O141 O 0.19826 0.08512 0.57447 0.0
O142 O 0.23806 0.02362 0.55967 0.0
O143 O 0.2898 0.03843 0.54332 0.0
C144 C 0.28503 0.10866 0.61839 0.0
C145 C 0.26338 0.01941 0.54095 0.0
C146 C 0.57452 0.77069 0.11654 0.0
C147 C 0.51086 0.78166 0.01591 0.0
O148 O 0.55462 0.74561 0.10894 0.0
Zn149 Zn 0.54243 0.7731 0.06639 0.0
O150 O 0.58009 0.80089 0.09646 0.0
Zn151 Zn 0.5666 0.82739 0.04922 0.0
O152 O 0.54918 0.865 0.06902 0.0
O153 O 0.52123 0.8119 0.09004 0.0
O154 O 0.53115 0.80924 0.01758 0.0
O155 O 0.50901 0.75402 0.03903 0.0
O156 O 0.58419 0.78006 0.02899 0.0
O157 O 0.60579 0.83645 0.01527 0.0
C158 C 0.52558 0.84539 0.08934 0.0
C159 C 0.6063 0.80451 0.01162 0.0
C160 C 0.83239 0.96628 0.57592 0.0
C161 C 0.82175 0.05406 0.4742 0.0
O162 O 0.80373 0.97071 0.57414 0.0
Zn163 Zn 0.77789 1.00123 0.54022 0.0
O164 O 0.8544 0.98339 0.55178 0.0
Zn165 Zn 0.82766 0.00886 0.52391 0.0
O166 O 0.81281 0.04185 0.5611 0.0
O167 O 0.76067 0.02903 0.5739 0.0
O168 O 0.84667 0.04278 0.48188 0.0
O169 O 0.79513 0.04063 0.49354 0.0
O170 O 0.74994 0.9648 0.52257 0.0
O171 O 0.80022 0.96772 0.50206 0.0
C172 C 0.78711 0.04704 0.57816 0.0
C173 C 0.77101 0.95333 0.50379 0.0
C174 C 0.58433 0.35897 0.09882 0.0
C175 C 0.50551 0.36427 0.01391 0.0
O176 O 0.56862 0.32862 0.09623 0.0
Zn177 Zn 0.5322 0.30669 0.06685 0.0
O178 O 0.5788 0.38635 0.07976 0.0
Zn179 Zn 0.54535 0.36314 0.05576 0.0
O180 O 0.50832 0.34291 0.09922 0.0
O181 O 0.49766 0.28477 0.10488 0.0
O182 O 0.52373 0.39037 0.02219 0.0
O183 O 0.50683 0.33289 0.02858 0.0
O184 O 0.5541 0.27816 0.03765 0.0
O185 O 0.56994 0.33553 0.02045 0.0
C186 C 0.49211 0.31319 0.11517 0.0
C187 C 0.57137 0.30377 0.01601 0.0
H188 H 0.16898 0.382 0.35167 0.0
H189 H 0.1839 0.35736 0.24335 0.0
H190 H 0.15224 0.40159 0.22204 0.0
H191 H 0.08725 0.39827 0.3483 0.0
H192 H 0.09302 0.43412 0.37387 0.0
H193 H 0.11479 0.39859 0.38114 0.0
H194 H 0.16752 0.4438 0.36822 0.0
H195 H 0.14596 0.47941 0.36053 0.0
H196 H 0.17631 0.474 0.32624 0.0
H197 H 0.12185 0.45097 0.21154 0.0
H198 H 0.09297 0.50056 0.2131 0.0
H199 H 0.09766 0.49374 0.32814 0.0
C200 C 0.16494 0.3854 0.32366 0.0
C201 C 0.17886 0.36618 0.29916 0.0
C202 C 0.17358 0.3719 0.26254 0.0
C203 C 0.15559 0.39692 0.25019 0.0
C204 C 0.14292 0.4161 0.27477 0.0
C205 C 0.14712 0.4105 0.3108 0.0
C206 C 0.13196 0.43575 0.3312 0.0
C207 C 0.10516 0.41547 0.36035 0.0
C208 C 0.15693 0.45965 0.3475 0.0
C209 C 0.11897 0.45663 0.30095 0.0
C210 C 0.12547 0.44476 0.26865 0.0
C211 C 0.11644 0.46034 0.23674 0.0
C212 C 0.10011 0.48861 0.23787 0.0
C213 C 0.09298 0.50118 0.27069 0.0
C214 C 0.10267 0.48484 0.30258 0.0
H215 H 0.20466 0.71335 0.80357 0.0
H216 H 0.2198 0.7023 0.91612 0.0
H217 H 0.18029 0.64684 0.92901 0.0
H218 H 0.12054 0.68133 0.81864 0.0
H219 H 0.12048 0.65864 0.78014 0.0
H220 H 0.15012 0.6972 0.7799 0.0
H221 H 0.19449 0.66148 0.7666 0.0
H222 H 0.16499 0.6228 0.76683 0.0
H223 H 0.19525 0.62123 0.79628 0.0
H224 H 0.13824 0.59312 0.92968 0.0
H225 H 0.0979 0.54453 0.91783 0.0
H226 H 0.11077 0.59088 0.80469 0.0
C227 C 0.19951 0.69939 0.83099 0.0
C228 C 0.21526 0.71216 0.85888 0.0
C229 C 0.20822 0.69282 0.89428 0.0
C230 C 0.18572 0.66142 0.90189 0.0
C231 C 0.17058 0.64964 0.87376 0.0
C232 C 0.17726 0.66798 0.839 0.0
C233 C 0.15786 0.64958 0.81357 0.0
C234 C 0.13595 0.67309 0.7971 0.0
C235 C 0.17944 0.63809 0.78409 0.0
C236 C 0.13909 0.61808 0.83947 0.0
C237 C 0.1467 0.6186 0.87407 0.0
C238 C 0.13215 0.5924 0.90266 0.0
C239 C 0.10924 0.56493 0.89566 0.0
C240 C 0.10118 0.56381 0.86033 0.0
C241 C 0.11644 0.59083 0.83197 0.0
H242 H 0.87069 0.72814 0.3128 0.0
H243 H 0.84998 0.73442 0.20245 0.0
H244 H 0.89275 0.70126 0.18812 0.0
H245 H 0.95529 0.73905 0.29312 0.0
H246 H 0.95957 0.70812 0.3317 0.0
H247 H 0.92711 0.73188 0.33335 0.0
H248 H 0.88702 0.67288 0.35001 0.0
H249 H 0.91938 0.64897 0.34868 0.0
H250 H 0.88805 0.63955 0.32138 0.0
H251 H 0.93872 0.66836 0.18569 0.0
H252 H 0.98222 0.63552 0.1961 0.0
H253 H 0.97263 0.65045 0.3083 0.0
C254 C 0.87518 0.72236 0.28569 0.0
C255 C 0.85731 0.73402 0.25861 0.0
C256 C 0.86359 0.72587 0.22347 0.0
C257 C 0.88784 0.70712 0.2151 0.0
C258 C 0.90545 0.69651 0.24225 0.0
C259 C 0.89926 0.70361 0.27691 0.0
C260 C 0.92148 0.68902 0.3012 0.0
C261 C 0.94208 0.7188 0.31569 0.0
C262 C 0.90287 0.66094 0.33214 0.0
C263 C 0.9412 0.67272 0.2748 0.0
C264 C 0.93167 0.6774 0.24091 0.0
C265 C 0.94635 0.66452 0.21215 0.0
C266 C 0.97113 0.64598 0.2183 0.0
C267 C 0.98099 0.6404 0.25298 0.0
C268 C 0.96584 0.6543 0.28141 0.0
H269 H 0.84731 0.30881 0.79061 0.0
H270 H 0.82058 0.2671 0.90422 0.0
H271 H 0.86941 0.30278 0.91835 0.0
H272 H 0.934 0.31527 0.7896 0.0
H273 H 0.94287 0.35623 0.75858 0.0
H274 H 0.90758 0.32463 0.75697 0.0
H275 H 0.87339 0.37259 0.76453 0.0
H276 H 0.90849 0.40424 0.76636 0.0
H277 H 0.87618 0.39576 0.80258 0.0
H278 H 0.91887 0.34567 0.92069 0.0
H279 H 0.96551 0.3936 0.91137 0.0
H280 H 0.95999 0.40881 0.7962 0.0
C281 C 0.85221 0.30663 0.81832 0.0
C282 C 0.83041 0.28503 0.84636 0.0
C283 C 0.83709 0.28348 0.88242 0.0
C284 C 0.86476 0.30354 0.89065 0.0
C285 C 0.88549 0.32512 0.86252 0.0
C286 C 0.87962 0.32682 0.82706 0.0
C287 C 0.90468 0.35402 0.80228 0.0
C288 C 0.92339 0.33648 0.77526 0.0
C289 C 0.88979 0.38339 0.7828 0.0
C290 C 0.92522 0.36771 0.82943 0.0
C291 C 0.91387 0.35042 0.86396 0.0
C292 C 0.92815 0.35921 0.89374 0.0
C293 C 0.95463 0.38656 0.88815 0.0
C294 C 0.96653 0.40501 0.85305 0.0
C295 C 0.95166 0.39512 0.82334 0.0
H296 H 0.23698 0.23192 0.36329 0.0
H297 H 0.17666 0.29382 0.4163 0.0
H298 H 0.16731 0.24871 0.47091 0.0
H299 H 0.19687 0.14486 0.40525 0.0
H300 H 0.23334 0.12869 0.40971 0.0
H301 H 0.23167 0.16324 0.37328 0.0
H302 H 0.27888 0.20309 0.39334 0.0
H303 H 0.28075 0.16869 0.42974 0.0
H304 H 0.27635 0.21192 0.43908 0.0
H305 H 0.16603 0.19684 0.52095 0.0
H306 H 0.17672 0.14658 0.56293 0.0
H307 H 0.24359 0.12428 0.4791 0.0
C308 C 0.22199 0.23657 0.38627 0.0
C309 C 0.20771 0.26696 0.38501 0.0
C310 C 0.18754 0.27073 0.41588 0.0
C311 C 0.18222 0.24527 0.44726 0.0
C312 C 0.1975 0.21631 0.44766 0.0
C313 C 0.21723 0.21213 0.418 0.0
C314 C 0.2331 0.1805 0.42601 0.0
C315 C 0.22314 0.15268 0.40214 0.0
C316 C 0.26941 0.19173 0.4218 0.0
C317 C 0.2195 0.16761 0.46505 0.0
C318 C 0.19844 0.18808 0.47688 0.0
C319 C 0.18255 0.18078 0.51194 0.0
C320 C 0.18869 0.15215 0.53554 0.0
C321 C 0.21108 0.13177 0.52423 0.0
C322 C 0.22653 0.13961 0.48849 0.0
H323 H 0.35852 0.72743 0.9155 0.0
H324 H 0.39078 0.82565 0.84179 0.0
H325 H 0.43755 0.83857 0.87388 0.0
H326 H 0.38243 0.76044 0.99528 0.0
H327 H 0.3946 0.72036 0.01394 0.0
H328 H 0.36382 0.71861 0.98504 0.0
H329 H 0.39564 0.68583 0.94309 0.0
H330 H 0.42659 0.68763 0.97178 0.0
H331 H 0.43593 0.70534 0.92445 0.0
H332 H 0.48043 0.8407 0.91299 0.0
H333 H 0.51643 0.83396 0.9587 0.0
H334 H 0.457 0.73413 0.00856 0.0
C335 C 0.37558 0.75155 0.90616 0.0
C336 C 0.37152 0.77536 0.87584 0.0
C337 C 0.39385 0.80696 0.86465 0.0
C338 C 0.42041 0.81445 0.88269 0.0
C339 C 0.4241 0.79017 0.91205 0.0
C340 C 0.40228 0.75946 0.92394 0.0
C341 C 0.4118 0.73823 0.95663 0.0
C342 C 0.38667 0.73419 0.98968 0.0
C343 C 0.41785 0.70212 0.94848 0.0
C344 C 0.44238 0.76187 0.96125 0.0
C345 C 0.44893 0.79159 0.93509 0.0
C346 C 0.47555 0.81758 0.93363 0.0
C347 C 0.49588 0.81343 0.95984 0.0
C348 C 0.48962 0.7835 0.98739 0.0
C349 C 0.46257 0.75719 0.98781 0.0
H350 H 0.79897 0.82464 0.36103 0.0
H351 H 0.7036 0.76716 0.39907 0.0
H352 H 0.69851 0.80536 0.44562 0.0
H353 H 0.82038 0.84083 0.4513 0.0
H354 H 0.84287 0.88411 0.43316 0.0
H355 H 0.84006 0.8497 0.40562 0.0
H356 H 0.81875 0.89009 0.35702 0.0
H357 H 0.82092 0.92435 0.38462 0.0
H358 H 0.78388 0.90799 0.36924 0.0
H359 H 0.70152 0.85424 0.48322 0.0
H360 H 0.71454 0.90647 0.51321 0.0
H361 H 0.80843 0.93097 0.45174 0.0
C362 C 0.77744 0.81932 0.37994 0.0
C363 C 0.75169 0.79289 0.37643 0.0
C364 C 0.72357 0.78737 0.40116 0.0
C365 C 0.72047 0.80892 0.4277 0.0
C366 C 0.7458 0.83568 0.42946 0.0
C367 C 0.77397 0.84056 0.40668 0.0
C368 C 0.79702 0.87228 0.41311 0.0
C369 C 0.82685 0.86105 0.42661 0.0
C370 C 0.80563 0.90032 0.37897 0.0
C371 C 0.77716 0.88491 0.44245 0.0
C372 C 0.74769 0.86347 0.45153 0.0
C373 C 0.72471 0.87092 0.47672 0.0
C374 C 0.73223 0.90078 0.49343 0.0
C375 C 0.76252 0.92274 0.48498 0.0
C376 C 0.78515 0.91455 0.45908 0.0
H377 H 0.70345 0.21872 0.91199 0.0
H378 H 0.71592 0.31016 0.82873 0.0
H379 H 0.67009 0.32976 0.85966 0.0
H380 H 0.61501 0.20456 0.92831 0.0
H381 H 0.61387 0.19187 0.97625 0.0
H382 H 0.64542 0.18289 0.94565 0.0
H383 H 0.68692 0.21666 0.97943 0.0
H384 H 0.65557 0.22585 0.00999 0.0
H385 H 0.68506 0.26159 0.98489 0.0
H386 H 0.6275 0.34258 0.90181 0.0
H387 H 0.58902 0.34793 0.95267 0.0
H388 H 0.60221 0.24759 0.00942 0.0
C389 C 0.69589 0.24238 0.90006 0.0
C390 C 0.71264 0.2629 0.86792 0.0
C391 C 0.70291 0.29411 0.85318 0.0
C392 C 0.67699 0.30534 0.87051 0.0
C393 C 0.66107 0.28489 0.90245 0.0
C394 C 0.66991 0.25395 0.91707 0.0
C395 C 0.64984 0.23825 0.95291 0.0
C396 C 0.62985 0.20226 0.95063 0.0
C397 C 0.67059 0.23544 0.98361 0.0
C398 C 0.62909 0.2658 0.95663 0.0
C399 C 0.63592 0.29226 0.92698 0.0
C400 C 0.62157 0.32181 0.92492 0.0
C401 C 0.59987 0.32466 0.95404 0.0
C402 C 0.59255 0.2981 0.98487 0.0
C403 C 0.60699 0.26797 0.98592 0.0
H404 H 0.29194 0.85449 0.7659 0.0
H405 H 0.19869 0.831 0.82877 0.0
H406 H 0.18328 0.88125 0.79188 0.0
H407 H 0.29973 0.95061 0.75355 0.0
H408 H 0.31953 0.95676 0.70808 0.0
H409 H 0.32378 0.91966 0.74031 0.0
H410 H 0.30394 0.87711 0.69703 0.0
H411 H 0.29953 0.91405 0.66476 0.0
H412 H 0.26621 0.87882 0.68088 0.0
H413 H 0.17705 0.93243 0.74702 0.0
H414 H 0.18068 0.98189 0.69741 0.0
H415 H 0.27811 0.97321 0.66357 0.0
C416 C 0.26844 0.86024 0.77218 0.0
C417 C 0.24645 0.83863 0.80013 0.0
C418 C 0.21578 0.84681 0.80719 0.0
C419 C 0.20685 0.87544 0.78651 0.0
C420 C 0.22887 0.89586 0.75886 0.0
C421 C 0.25907 0.88879 0.75169 0.0
C422 C 0.27781 0.91445 0.71974 0.0
C423 C 0.30694 0.93669 0.73111 0.0
C424 C 0.28743 0.89493 0.68877 0.0
C425 C 0.25332 0.93679 0.70996 0.0
C426 C 0.22529 0.92563 0.73297 0.0
C427 C 0.19894 0.94156 0.72894 0.0
C428 C 0.20123 0.96962 0.7006 0.0
C429 C 0.22968 0.98158 0.67657 0.0
C430 C 0.25607 0.9649 0.68155 0.0
H431 H 0.70263 0.71815 0.24349 0.0
H432 H 0.69493 0.81602 0.28421 0.0
H433 H 0.6502 0.82255 0.25074 0.0
H434 H 0.68877 0.75141 0.15389 0.0
H435 H 0.66697 0.71007 0.14602 0.0
H436 H 0.69653 0.71034 0.17642 0.0
H437 H 0.65454 0.67243 0.22687 0.0
H438 H 0.62473 0.67248 0.19671 0.0
H439 H 0.61835 0.68783 0.2393 0.0
H440 H 0.60796 0.82079 0.21277 0.0
H441 H 0.57461 0.81541 0.1641 0.0
H442 H 0.60995 0.72136 0.14239 0.0
C443 C 0.69151 0.7409 0.24544 0.0
C444 C 0.70179 0.76577 0.26793 0.0
C445 C 0.68679 0.79552 0.2689 0.0
C446 C 0.66134 0.7997 0.24969 0.0
C447 C 0.65133 0.7744 0.22874 0.0
C448 C 0.66621 0.74597 0.22569 0.0
C449 C 0.65219 0.72468 0.19833 0.0
C450 C 0.67763 0.72411 0.16679 0.0
C451 C 0.63652 0.68712 0.21639 0.0
C452 C 0.6275 0.74603 0.18631 0.0
C453 C 0.62723 0.77418 0.20494 0.0
C454 C 0.60776 0.79878 0.1981 0.0
C455 C 0.58884 0.79545 0.1705 0.0
C456 C 0.58948 0.7678 0.14992 0.0
C457 C 0.60847 0.74218 0.15841 0.0
H458 H 0.72386 0.16825 0.71483 0.0
H459 H 0.82235 0.21122 0.72034 0.0
H460 H 0.83924 0.17181 0.67886 0.0
H461 H 0.73415 0.07797 0.7118 0.0
H462 H 0.70571 0.07033 0.68063 0.0
H463 H 0.70139 0.10137 0.71123 0.0
H464 H 0.70071 0.15009 0.65726 0.0
H465 H 0.70509 0.11924 0.6265 0.0
H466 H 0.73306 0.16011 0.62098 0.0
H467 H 0.84531 0.12939 0.63603 0.0
H468 H 0.84083 0.08534 0.59519 0.0
H469 H 0.73804 0.06902 0.61714 0.0
C470 C 0.74895 0.16923 0.70727 0.0
C471 C 0.77194 0.19289 0.72035 0.0
C472 C 0.80454 0.19338 0.71024 0.0
C473 C 0.81427 0.17114 0.6868 0.0
C474 C 0.79105 0.14846 0.67392 0.0
C475 C 0.75907 0.14719 0.68384 0.0
C476 C 0.73906 0.12051 0.66584 0.0
C477 C 0.71889 0.09078 0.69406 0.0
C478 C 0.71826 0.13858 0.64118 0.0
C479 C 0.76481 0.10712 0.6441 0.0
C480 C 0.79458 0.12365 0.64924 0.0
C481 C 0.82214 0.11618 0.63186 0.0
C482 C 0.81929 0.09109 0.60862 0.0
C483 C 0.78906 0.0736 0.60287 0.0
C484 C 0.76147 0.08181 0.62097 0.0
H485 H 0.3141 0.26676 0.21276 0.0
H486 H 0.33579 0.36234 0.25946 0.0
H487 H 0.39209 0.36882 0.23522 0.0
H488 H 0.38886 0.23452 0.22515 0.0
H489 H 0.39122 0.21899 0.18231 0.0
H490 H 0.35306 0.21946 0.20661 0.0
H491 H 0.33849 0.25734 0.15091 0.0
H492 H 0.37648 0.25688 0.12645 0.0
H493 H 0.3644 0.29832 0.13132 0.0
H494 H 0.44471 0.3679 0.20239 0.0
H495 H 0.49018 0.36137 0.16028 0.0
H496 H 0.43542 0.26645 0.13395 0.0
C497 C 0.33092 0.28858 0.21851 0.0
C498 C 0.3207 0.31336 0.23897 0.0
C499 C 0.34309 0.34242 0.24479 0.0
C500 C 0.37517 0.34634 0.2311 0.0
C501 C 0.38448 0.32125 0.21134 0.0
C502 C 0.36305 0.293 0.20486 0.0
C503 C 0.37887 0.27148 0.18026 0.0
C504 C 0.37795 0.23388 0.19976 0.0
C505 C 0.36366 0.271 0.14516 0.0
C506 C 0.41242 0.2925 0.17334 0.0
C507 C 0.4151 0.32088 0.19189 0.0
C508 C 0.44304 0.34555 0.1881 0.0
C509 C 0.46871 0.34163 0.16408 0.0
C510 C 0.46636 0.31324 0.14415 0.0
C511 C 0.43807 0.28792 0.14948 0.0
H512 H 0.86836 0.63908 0.86789 0.0
H513 H 0.87486 0.69316 0.75835 0.0
H514 H 0.91758 0.66157 0.73927 0.0
H515 H 0.95307 0.63906 0.86769 0.0
H516 H 0.94686 0.59596 0.8947 0.0
H517 H 0.91777 0.62385 0.8997 0.0
H518 H 0.87431 0.57424 0.88691 0.0
H519 H 0.90328 0.54629 0.88167 0.0
H520 H 0.87978 0.55578 0.84596 0.0
H521 H 0.95739 0.62158 0.73176 0.0
H522 H 0.99356 0.57864 0.73677 0.0
H523 H 0.9616 0.55136 0.85168 0.0
C524 C 0.87898 0.64432 0.83996 0.0
C525 C 0.86817 0.66803 0.81436 0.0
C526 C 0.8827 0.67469 0.77814 0.0
C527 C 0.90691 0.65692 0.76713 0.0
C528 C 0.91651 0.63295 0.79284 0.0
C529 C 0.90321 0.62687 0.82857 0.0
C530 C 0.91758 0.59954 0.85073 0.0
C531 C 0.93485 0.61557 0.87993 0.0
C532 C 0.89223 0.56704 0.86728 0.0
C533 C 0.94076 0.59086 0.82182 0.0
C534 C 0.93979 0.6104 0.78862 0.0
C535 C 0.95852 0.60632 0.75767 0.0
C536 C 0.97892 0.58176 0.76078 0.0
C537 C 0.98051 0.56165 0.79462 0.0
C538 C 0.9611 0.56641 0.82546 0.0
H539 H 0.84795 0.39979 0.28689 0.0
H540 H 0.83408 0.34937 0.39856 0.0
H541 H 0.87503 0.39631 0.4126 0.0
H542 H 0.92965 0.42149 0.279 0.0
H543 H 0.93312 0.46321 0.25006 0.0
H544 H 0.89982 0.42864 0.25004 0.0
H545 H 0.86109 0.47048 0.26509 0.0
H546 H 0.89436 0.50535 0.26486 0.0
H547 H 0.86477 0.49236 0.30392 0.0
H548 H 0.92121 0.44643 0.41292 0.0
H549 H 0.96862 0.49426 0.39892 0.0
H550 H 0.95173 0.51015 0.28699 0.0
C551 C 0.85284 0.39924 0.31451 0.0
C552 C 0.83771 0.37117 0.3417 0.0
C553 C 0.84545 0.37073 0.37734 0.0
C554 C 0.86855 0.39732 0.38558 0.0
C555 C 0.88365 0.4242 0.3579 0.0
C556 C 0.87595 0.42539 0.32311 0.0
C557 C 0.89734 0.45525 0.29756 0.0
C558 C 0.91609 0.4413 0.26741 0.0
C559 C 0.87825 0.48248 0.28195 0.0
C560 C 0.9188 0.47013 0.32315 0.0
C561 C 0.91039 0.45233 0.35796 0.0
C562 C 0.92781 0.46078 0.3858 0.0
C563 C 0.95467 0.48793 0.37765 0.0
C564 C 0.96396 0.50582 0.3419 0.0
C565 C 0.94539 0.49694 0.31462 0.0
H566 H 0.2285 0.36623 0.82892 0.0
H567 H 0.24416 0.3611 0.71452 0.0
H568 H 0.19762 0.38901 0.70514 0.0
H569 H 0.14299 0.34733 0.83823 0.0
H570 H 0.13813 0.37734 0.86984 0.0
H571 H 0.17259 0.35673 0.8677 0.0
H572 H 0.20913 0.41818 0.85674 0.0
H573 H 0.17479 0.43896 0.85898 0.0
H574 H 0.2044 0.45084 0.81988 0.0
H575 H 0.15021 0.41878 0.70786 0.0
H576 H 0.1048 0.44778 0.72267 0.0
H577 H 0.1195 0.43293 0.83542 0.0
C578 C 0.22222 0.37117 0.80188 0.0
C579 C 0.23992 0.3614 0.77246 0.0
C580 C 0.23072 0.36796 0.73753 0.0
C581 C 0.20441 0.38394 0.7319 0.0
C582 C 0.18743 0.39312 0.76148 0.0
C583 C 0.1959 0.38694 0.79579 0.0
C584 C 0.17359 0.39938 0.82293 0.0
C585 C 0.15577 0.36834 0.85135 0.0
C586 C 0.19155 0.42858 0.84067 0.0
C587 C 0.1514 0.41372 0.79845 0.0
C588 C 0.15983 0.40988 0.76311 0.0
C589 C 0.14329 0.4218 0.73547 0.0
C590 C 0.11754 0.43825 0.74415 0.0
C591 C 0.10846 0.44251 0.78021 0.0
C592 C 0.12562 0.42983 0.80765 0.0
H593 H 0.22148 0.76763 0.36751 0.0
H594 H 0.2505 0.80814 0.25373 0.0
H595 H 0.209 0.76316 0.23821 0.0
H596 H 0.20282 0.67584 0.35893 0.0
H597 H 0.1687 0.66611 0.39297 0.0
H598 H 0.20108 0.70112 0.39541 0.0
H599 H 0.16221 0.74515 0.39716 0.0
H600 H 0.1297 0.71026 0.39479 0.0
H601 H 0.13731 0.74992 0.36192 0.0
H602 H 0.16463 0.71431 0.23472 0.0
H603 H 0.1195 0.66495 0.24319 0.0
H604 H 0.11745 0.65637 0.35941 0.0
C605 C 0.21898 0.76726 0.33932 0.0
C606 C 0.23952 0.79145 0.31183 0.0
C607 C 0.23557 0.78963 0.27529 0.0
C608 C 0.21188 0.76429 0.26619 0.0
C609 C 0.19216 0.74093 0.29389 0.0
C610 C 0.19534 0.74218 0.32972 0.0
C611 C 0.17078 0.71405 0.3542 0.0
C612 C 0.18681 0.68772 0.3767 0.0
C613 C 0.14869 0.73086 0.37844 0.0
C614 C 0.15326 0.69685 0.32648 0.0
C615 C 0.16614 0.7128 0.29189 0.0
C616 C 0.15432 0.70163 0.26167 0.0
C617 C 0.12862 0.67347 0.26683 0.0
C618 C 0.11478 0.65665 0.30199 0.0
C619 C 0.12739 0.66864 0.3322 0.0
H620 H 0.78645 0.82607 0.75576 0.0
H621 H 0.88696 0.83123 0.76275 0.0
H622 H 0.8996 0.87378 0.70594 0.0
H623 H 0.79077 0.83132 0.66043 0.0
H624 H 0.76083 0.8584 0.65631 0.0
H625 H 0.75989 0.82835 0.69735 0.0
H626 H 0.76038 0.87993 0.73414 0.0
H627 H 0.76108 0.91009 0.69323 0.0
H628 H 0.79141 0.9183 0.72208 0.0
H629 H 0.90093 0.91595 0.64759 0.0
H630 H 0.89064 0.95516 0.59425 0.0
H631 H 0.78933 0.92242 0.62749 0.0
C632 C 0.81115 0.83647 0.74572 0.0
C633 C 0.83571 0.82534 0.76382 0.0
C634 C 0.86772 0.8391 0.74918 0.0
C635 C 0.87514 0.86338 0.71701 0.0
C636 C 0.85029 0.87365 0.69982 0.0
C637 C 0.81895 0.86071 0.71382 0.0
C638 C 0.79657 0.87591 0.6904 0.0
C639 C 0.7758 0.84675 0.67522 0.0
C640 C 0.77617 0.89733 0.7112 0.0
C641 C 0.82017 0.89952 0.66103 0.0
C642 C 0.85106 0.89786 0.66673 0.0
C643 C 0.87682 0.91748 0.6429 0.0
C644 C 0.87076 0.9396 0.61265 0.0
C645 C 0.83921 0.94194 0.60668 0.0
C646 C 0.81375 0.92138 0.63122 0.0
H647 H 0.67879 0.28467 0.25491 0.0
H648 H 0.72581 0.39202 0.25496 0.0
H649 H 0.69725 0.41302 0.20479 0.0
H650 H 0.67901 0.29149 0.15791 0.0
H651 H 0.6405 0.26388 0.1617 0.0
H652 H 0.66548 0.25757 0.19657 0.0
H653 H 0.62048 0.26532 0.24427 0.0
H654 H 0.5954 0.2717 0.20955 0.0
H655 H 0.60334 0.30462 0.23825 0.0
H656 H 0.66164 0.42216 0.15585 0.0
H657 H 0.6229 0.41861 0.11183 0.0
H658 H 0.59966 0.30498 0.14431 0.0
C659 C 0.68309 0.31257 0.24422 0.0
C660 C 0.70415 0.33689 0.25892 0.0
C661 C 0.70949 0.37313 0.24413 0.0
C662 C 0.69342 0.38522 0.21569 0.0
C663 C 0.67232 0.36063 0.20218 0.0
C664 C 0.66726 0.32503 0.21589 0.0
C665 C 0.64302 0.30407 0.19708 0.0
C666 C 0.6579 0.2777 0.17713 0.0
C667 C 0.61384 0.28534 0.22389 0.0
C668 C 0.63498 0.33341 0.17088 0.0
C669 C 0.65214 0.36585 0.17409 0.0
C670 C 0.6482 0.39685 0.15301 0.0
C671 C 0.62612 0.39458 0.12809 0.0
C672 C 0.60822 0.36155 0.12447 0.0
C673 C 0.61297 0.33068 0.1462 0.0
H674 H 0.27742 0.28464 0.69983 0.0
H675 H 0.33251 0.2459 0.78198 0.0
H676 H 0.33958 0.19642 0.74987 0.0
H677 H 0.23367 0.19971 0.69633 0.0
H678 H 0.23083 0.20916 0.64879 0.0
H679 H 0.23403 0.2443 0.67531 0.0
H680 H 0.28336 0.2781 0.63164 0.0
H681 H 0.28047 0.24287 0.60514 0.0
H682 H 0.31684 0.25677 0.62309 0.0
H683 H 0.33993 0.14987 0.70875 0.0
H684 H 0.32738 0.10679 0.6672 0.0
H685 H 0.26561 0.17148 0.61856 0.0
C686 C 0.29074 0.26581 0.71167 0.0
C687 C 0.30456 0.26998 0.74368 0.0
C688 C 0.32233 0.24447 0.7571 0.0
C689 C 0.32634 0.21591 0.73914 0.0
C690 C 0.31199 0.2126 0.70807 0.0
C691 C 0.29408 0.23657 0.69487 0.0
C692 C 0.2785 0.22536 0.66311 0.0
C693 C 0.24211 0.21926 0.6714 0.0
C694 C 0.29052 0.25239 0.62871 0.0
C695 C 0.29018 0.1911 0.6607 0.0
C696 C 0.31016 0.18459 0.68624 0.0
C697 C 0.32423 0.15467 0.68876 0.0
C698 C 0.31714 0.13047 0.66505 0.0
C699 C 0.29559 0.13603 0.63996 0.0
C700 C 0.28216 0.16678 0.63764 0.0
H701 H 0.37047 0.83498 0.22844 0.0
H702 H 0.40081 0.94596 0.23289 0.0
H703 H 0.44872 0.94728 0.19008 0.0
H704 H 0.4491 0.81194 0.22329 0.0
H705 H 0.4402 0.78097 0.1928 0.0
H706 H 0.409 0.78895 0.22446 0.0
H707 H 0.3772 0.80495 0.17182 0.0
H708 H 0.40842 0.79729 0.13999 0.0
H709 H 0.39544 0.8392 0.13489 0.0
H710 H 0.49282 0.93647 0.14481 0.0
H711 H 0.52996 0.91378 0.10316 0.0
H712 H 0.47035 0.80993 0.12944 0.0
C713 C 0.38749 0.85938 0.22076 0.0
C714 C 0.3823 0.89021 0.23438 0.0
C715 C 0.40466 0.92191 0.22316 0.0
C716 C 0.43185 0.92293 0.19878 0.0
C717 C 0.43628 0.89204 0.18578 0.0
C718 C 0.41477 0.86081 0.19658 0.0
C719 C 0.4248 0.83138 0.17843 0.0
C720 C 0.43116 0.80156 0.20642 0.0
C721 C 0.39999 0.8174 0.15488 0.0
C722 C 0.45518 0.85092 0.15559 0.0
C723 C 0.46147 0.8859 0.16004 0.0
C724 C 0.48817 0.90907 0.14124 0.0
C725 C 0.50909 0.896 0.11756 0.0
C726 C 0.50319 0.86009 0.11301 0.0
C727 C 0.47573 0.83751 0.13229 0.0
H728 H 0.76193 0.21977 0.37362 0.0
H729 H 0.85823 0.25534 0.32058 0.0
H730 H 0.87236 0.19872 0.34561 0.0
H731 H 0.78235 0.18041 0.45395 0.0
H732 H 0.74962 0.14367 0.4626 0.0
H733 H 0.74566 0.18446 0.43614 0.0
H734 H 0.73046 0.15133 0.38366 0.0
H735 H 0.73421 0.1103 0.41009 0.0
H736 H 0.7565 0.12428 0.36589 0.0
H737 H 0.87758 0.14145 0.38153 0.0
H738 H 0.87363 0.08768 0.42619 0.0
H739 H 0.77403 0.08936 0.45672 0.0
C740 C 0.78567 0.21505 0.36648 0.0
C741 C 0.80896 0.24155 0.34492 0.0
C742 C 0.84009 0.23512 0.33692 0.0
C743 C 0.84828 0.20306 0.35092 0.0
C744 C 0.82504 0.17771 0.37291 0.0
C745 C 0.79432 0.18324 0.38057 0.0
C746 C 0.77473 0.15308 0.40763 0.0
C747 C 0.76238 0.1662 0.44211 0.0
C748 C 0.74736 0.13359 0.3908 0.0
C749 C 0.79944 0.1303 0.41469 0.0
C750 C 0.82818 0.14474 0.39405 0.0
C751 C 0.85507 0.12959 0.39747 0.0
C752 C 0.85261 0.09908 0.42297 0.0
C753 C 0.82351 0.08414 0.44487 0.0
C754 C 0.79654 0.0998 0.44013 0.0
H755 H 0.36673 0.29883 0.90165 0.0
H756 H 0.36394 0.40823 0.86303 0.0
H757 H 0.40938 0.42708 0.89569 0.0
H758 H 0.38288 0.3104 0.98937 0.0
H759 H 0.40864 0.27838 0.99303 0.0
H760 H 0.37766 0.2739 0.96458 0.0
H761 H 0.41906 0.27278 0.91 0.0
H762 H 0.45017 0.27706 0.93837 0.0
H763 H 0.45272 0.3083 0.89774 0.0
H764 H 0.45394 0.4334 0.93556 0.0
H765 H 0.49334 0.4266 0.97826 0.0
H766 H 0.46551 0.31278 0.9903 0.0
C767 C 0.37603 0.32674 0.89961 0.0
C768 C 0.3622 0.35216 0.87951 0.0
C769 C 0.37459 0.38844 0.87798 0.0
C770 C 0.40028 0.39932 0.89648 0.0
C771 C 0.41321 0.37352 0.9164 0.0
C772 C 0.4015 0.33797 0.91791 0.0
C773 C 0.41861 0.31543 0.94222 0.0
C774 C 0.39557 0.29324 0.97419 0.0
C775 C 0.43619 0.29202 0.92079 0.0
C776 C 0.44159 0.34377 0.95449 0.0
C777 C 0.43832 0.37714 0.9393 0.0
C778 C 0.45678 0.40735 0.94744 0.0
C779 C 0.47907 0.40325 0.97174 0.0
C780 C 0.4826 0.36919 0.98768 0.0
C781 C 0.46356 0.33924 0.97865 0.0
H782 H 0.30801 0.92973 0.36933 0.0
H783 H 0.24317 0.83488 0.42342 0.0
H784 H 0.23022 0.86557 0.4741 0.0
H785 H 0.33904 0.95139 0.45107 0.0
H786 H 0.34362 0.99828 0.43677 0.0
H787 H 0.34678 0.96938 0.40372 0.0
H788 H 0.30284 0.99445 0.37222 0.0
H789 H 0.29936 0.02324 0.4053 0.0
H790 H 0.26491 0.99322 0.39792 0.0
H791 H 0.22212 0.90745 0.51778 0.0
H792 H 0.22418 0.95546 0.55454 0.0
H793 H 0.29886 0.02038 0.47594 0.0
C794 C 0.29145 0.91498 0.39193 0.0
C795 C 0.27629 0.87979 0.39163 0.0
C796 C 0.25445 0.86211 0.422 0.0
C797 C 0.2471 0.87923 0.45126 0.0
C798 C 0.26223 0.91388 0.45034 0.0
C799 C 0.28439 0.93136 0.4218 0.0
C800 C 0.29817 0.96811 0.4282 0.0
C801 C 0.33403 0.972 0.43006 0.0
C802 C 0.29087 0.99642 0.39918 0.0
C803 C 0.28006 0.96863 0.46468 0.0
C804 C 0.25912 0.93723 0.47671 0.0
C805 C 0.2387 0.93198 0.50887 0.0
C806 C 0.23992 0.95942 0.52945 0.0
C807 C 0.26183 0.9914 0.51816 0.0
C808 C 0.28218 0.99598 0.48539 0.0
H809 H 0.77072 0.82807 0.8808 0.0
H810 H 0.74889 0.71482 0.8822 0.0
H811 H 0.69945 0.71145 0.92238 0.0
H812 H 0.7396 0.82695 0.97379 0.0
H813 H 0.72338 0.86658 0.96453 0.0
H814 H 0.75764 0.86047 0.93614 0.0
H815 H 0.72831 0.86993 0.88006 0.0
H816 H 0.69394 0.876 0.90828 0.0
H817 H 0.69025 0.84282 0.87931 0.0
H818 H 0.65255 0.71962 0.96113 0.0
H819 H 0.61031 0.73855 0.99802 0.0
H820 H 0.66067 0.84711 0.97225 0.0
C821 C 0.75549 0.8026 0.88953 0.0
C822 C 0.76396 0.77162 0.87859 0.0
C823 C 0.74338 0.73879 0.89076 0.0
C824 C 0.71507 0.73662 0.91338 0.0
C825 C 0.70747 0.76752 0.92362 0.0
C826 C 0.72698 0.79991 0.91224 0.0
C827 C 0.71285 0.82894 0.92742 0.0
C828 C 0.73467 0.84678 0.95193 0.0
C829 C 0.70593 0.85602 0.89695 0.0
C830 C 0.68236 0.80768 0.94903 0.0
C831 C 0.67991 0.77233 0.94626 0.0
C832 C 0.65416 0.74721 0.96358 0.0
C833 C 0.63024 0.75835 0.98453 0.0
C834 C 0.63204 0.7944 0.98819 0.0
C835 C 0.65851 0.81942 0.97 0.0
loop_
_geom_bond_atom_site_label_1
_geom_bond_atom_site_label_2
_geom_bond_distance
_geom_bond_site_symmetry_2
_ccdc_geom_bond_type
H0 C7 0.929 . S
H1 C10 0.930 . S
H2 C12 0.929 . S
H3 C4 0.969 . S
C4 H3 0.969 . S
C4 O5 1.550 . S
C4 H6 0.973 . S
O5 C4 1.550 . S
O5 C11 1.412 . S
H6 C4 0.973 . S
C7 H0 0.929 . S
C7 C8 1.400 . S
C7 C9 1.364 . S
C8 C7 1.400 . S
C8 C12 1.377 . S
C9 C7 1.364 . S
C9 C10 1.374 . S
C10 H1 0.930 . S
C10 C9 1.374 . S
C10 C11 1.383 . S
C11 O5 1.412 . S
C11 C10 1.383 . S
C11 C12 1.394 . S
C12 H2 0.929 . S
C12 C8 1.377 . S
C12 C11 1.394 . S
H13 C20 0.929 . S
H14 C23 0.930 . S
H15 C25 0.929 . S
H16 C17 0.969 . S
C17 H16 0.969 . S
C17 O18 1.550 . S
C17 H19 0.973 . S
O18 C17 1.550 . S
O18 C24 1.412 . S
H19 C17 0.973 . S
C20 H13 0.929 . S
C20 C21 1.400 . S
C20 C22 1.364 . S
C21 C20 1.400 . S
C21 C25 1.377 . S
C22 C20 1.364 . S
C22 C23 1.374 . S
C23 H14 0.930 . S
C23 C22 1.374 . S
C23 C24 1.383 . S
C24 O18 1.412 . S
C24 C23 1.383 . S
C24 C25 1.394 . S
C25 H15 0.929 . S
C25 C21 1.377 . S
C25 C24 1.394 . S
H26 C33 0.929 . S
H27 C36 0.930 . S
H28 C38 0.929 . S
H29 C30 0.969 . S
C30 H29 0.969 . S
C30 O31 1.550 . S
C30 H32 0.973 . S
O31 C30 1.550 . S
O31 C37 1.412 . S
H32 C30 0.973 . S
C33 H26 0.929 . S
C33 C34 1.400 . S
C33 C35 1.364 . S
C34 C33 1.400 . S
C34 C38 1.377 . S
C35 C33 1.364 . S
C35 C36 1.374 . S
C36 H27 0.930 . S
C36 C35 1.374 . S
C36 C37 1.383 . S
C37 O31 1.412 . S
C37 C36 1.383 . S
C37 C38 1.394 . S
C38 H28 0.929 . S
C38 C34 1.377 . S
C38 C37 1.394 . S
H39 C46 0.929 . S
H40 C49 0.930 . S
H41 C51 0.929 . S
H42 C43 0.969 . S
C43 H42 0.969 . S
C43 O44 1.550 . S
C43 H45 0.973 . S
O44 C43 1.550 . S
O44 C50 1.412 . S
H45 C43 0.973 . S
C46 H39 0.929 . S
C46 C47 1.400 . S
C46 C48 1.364 . S
C47 C46 1.400 . S
C47 C51 1.377 . S
C48 C46 1.364 . S
C48 C49 1.374 . S
C49 H40 0.930 . S
C49 C48 1.374 . S
C49 C50 1.383 . S
C50 O44 1.412 . S
C50 C49 1.383 . S
C50 C51 1.394 . S
C51 H41 0.929 . S
C51 C47 1.377 . S
C51 C50 1.394 . S
H52 C59 0.929 . S
H53 C62 0.930 . S
H54 C64 0.929 . S
H55 C56 0.969 . S
C56 H55 0.969 . S
C56 O57 1.550 . S
C56 H58 0.973 . S
O57 C56 1.550 . S
O57 C63 1.412 . S
H58 C56 0.973 . S
C59 H52 0.929 . S
C59 C60 1.400 . S
C59 C61 1.364 . S
C60 C59 1.400 . S
C60 C64 1.377 . S
C61 C59 1.364 . S
C61 C62 1.374 . S
C62 H53 0.930 . S
C62 C61 1.374 . S
C62 C63 1.383 . S
C63 O57 1.412 . S
C63 C62 1.383 . S
C63 C64 1.394 . S
C64 H54 0.929 . S
C64 C60 1.377 . S
C64 C63 1.394 . S
H65 C72 0.929 . S
H66 C75 0.930 . S
H67 C77 0.929 . S
H68 C69 0.969 . S
C69 H68 0.969 . S
C69 O70 1.550 . S
C69 H71 0.973 . S
O70 C69 1.550 . S
O70 C76 1.412 . S
H71 C69 0.973 . S
C72 H65 0.929 . S
C72 C73 1.400 . S
C72 C74 1.364 . S
C73 C72 1.400 . S
C73 C77 1.377 . S
C74 C72 1.364 . S
C74 C75 1.374 . S
C75 H66 0.930 . S
C75 C74 1.374 . S
C75 C76 1.383 . S
C76 O70 1.412 . S
C76 C75 1.383 . S
C76 C77 1.394 . S
C77 H67 0.929 . S
C77 C73 1.377 . S
C77 C76 1.394 . S
H78 C85 0.929 . S
H79 C88 0.930 . S
H80 C90 0.929 . S
H81 C82 0.969 . S
C82 H81 0.969 . S
C82 O83 1.550 . S
C82 H84 0.973 . S
O83 C82 1.550 . S
O83 C89 1.412 . S
H84 C82 0.973 . S
C85 H78 0.929 . S
C85 C86 1.400 . S
C85 C87 1.364 . S
C86 C85 1.400 . S
C86 C90 1.377 . S
C87 C85 1.364 . S
C87 C88 1.374 . S
C88 H79 0.930 . S
C88 C87 1.374 . S
C88 C89 1.383 . S
C89 O83 1.412 . S
C89 C88 1.383 . S
C89 C90 1.394 . S
C90 H80 0.929 . S
C90 C86 1.377 . S
C90 C89 1.394 . S
H91 C98 0.929 . S
H92 C101 0.930 . S
H93 C103 0.929 . S
H94 C95 0.969 . S
C95 H94 0.969 . S
C95 O96 1.550 . S
C95 H97 0.973 . S
O96 C95 1.550 . S
O96 C102 1.412 . S
H97 C95 0.973 . S
C98 H91 0.929 . S
C98 C99 1.400 . S
C98 C100 1.364 . S
C99 C98 1.400 . S
C99 C103 1.377 . S
C100 C98 1.364 . S
C100 C101 1.374 . S
C101 H92 0.930 . S
C101 C100 1.374 . S
C101 C102 1.383 . S
C102 O96 1.412 . S
C102 C101 1.383 . S
C102 C103 1.394 . S
C103 H93 0.929 . S
C103 C99 1.377 . S
C103 C102 1.394 . S
C104 O106 1.247 . S
C104 O108 1.258 . S
C105 O112 1.247 . S
C105 O113 1.258 . S
O106 C104 1.247 . S
O106 Zn107 2.028 1_655 S
Zn107 O106 2.028 1_455 S
Zn107 O111 2.035 . S
Zn107 O113 2.035 . S
Zn107 O114 2.028 1_455 S
O108 C104 1.258 . S
O108 Zn109 2.035 1_655 S
Zn109 O108 2.035 1_455 S
Zn109 O110 2.028 . S
Zn109 O112 2.028 . S
Zn109 O115 2.035 1_455 S
O110 Zn109 2.028 . S
O110 C116 1.247 . S
O111 Zn107 2.035 . S
O111 C116 1.258 . S
O112 C105 1.247 . S
O112 Zn109 2.028 . S
O113 C105 1.258 . S
O113 Zn107 2.035 . S
O114 Zn107 2.028 1_655 S
O114 C117 1.247 . S
O115 Zn109 2.035 1_655 S
O115 C117 1.258 . S
C116 O110 1.247 . S
C116 O111 1.258 . S
C117 O114 1.247 . S
C117 O115 1.258 . S
C118 O120 1.247 1_655 S
C118 O122 1.258 1_655 S
C119 O126 1.247 . S
C119 O127 1.258 . S
O120 C118 1.247 1_455 S
O120 Zn121 2.028 . S
Zn121 O120 2.028 . S
Zn121 O125 2.035 . S
Zn121 O127 2.035 . S
Zn121 O128 2.028 . S
O122 C118 1.258 1_455 S
O122 Zn123 2.035 . S
Zn123 O122 2.035 . S
Zn123 O124 2.028 . S
Zn123 O126 2.028 . S
Zn123 O129 2.035 . S
O124 Zn123 2.028 . S
O124 C130 1.247 . S
O125 Zn121 2.035 . S
O125 C130 1.258 . S
O126 C119 1.247 . S
O126 Zn123 2.028 . S
O127 C119 1.258 . S
O127 Zn121 2.035 . S
O128 Zn121 2.028 . S
O128 C131 1.257 . S
O129 Zn123 2.035 . S
O129 C131 1.271 . S
C130 O124 1.247 . S
C130 O125 1.258 . S
C131 O128 1.257 . S
C131 O129 1.271 . S
C132 O134 1.247 . S
C132 O136 1.258 1_565 S
C133 O140 1.247 . S
C133 O141 1.258 . S
O134 C132 1.247 . S
O134 Zn135 2.028 1_565 S
Zn135 O134 2.028 1_545 S
Zn135 O139 2.035 . S
Zn135 O141 2.035 . S
Zn135 O142 2.028 1_545 S
O136 C132 1.258 1_545 S
O136 Zn137 2.035 . S
Zn137 O136 2.035 . S
Zn137 O138 2.028 . S
Zn137 O140 2.028 . S
Zn137 O143 2.035 . S
O138 Zn137 2.028 . S
O138 C144 1.247 . S
O139 Zn135 2.035 . S
O139 C144 1.258 . S
O140 C133 1.247 . S
O140 Zn137 2.028 . S
O141 C133 1.258 . S
O141 Zn135 2.035 . S
O142 Zn135 2.028 1_565 S
O142 C145 1.247 . S
O143 Zn137 2.035 . S
O143 C145 1.258 1_545 S
C144 O138 1.247 . S
C144 O139 1.258 . S
C145 O142 1.247 . S
C145 O143 1.258 1_565 S
C146 O148 1.247 . S
C146 O150 1.258 . S
C147 O154 1.247 . S
C147 O155 1.258 . S
O148 C146 1.247 . S
O148 Zn149 2.028 . S
Zn149 O148 2.028 . S
Zn149 O153 2.035 . S
Zn149 O155 2.035 . S
Zn149 O156 2.028 . S
O150 C146 1.258 . S
O150 Zn151 2.035 . S
Zn151 O150 2.035 . S
Zn151 O152 2.028 . S
Zn151 O154 2.028 . S
Zn151 O157 2.035 . S
O152 Zn151 2.028 . S
O152 C158 1.247 . S
O153 Zn149 2.035 . S
O153 C158 1.258 . S
O154 C147 1.247 . S
O154 Zn151 2.028 . S
O155 C147 1.258 . S
O155 Zn149 2.035 . S
O156 Zn149 2.028 . S
O156 C159 1.247 . S
O157 Zn151 2.035 . S
O157 C159 1.258 . S
C158 O152 1.247 . S
C158 O153 1.258 . S
C159 O156 1.247 . S
C159 O157 1.258 . S
C160 O162 1.247 . S
C160 O164 1.258 . S
C161 O168 1.247 . S
C161 O169 1.258 . S
O162 C160 1.247 . S
O162 Zn163 2.028 . S
Zn163 O162 2.028 . S
Zn163 O167 2.035 1_565 S
Zn163 O169 2.035 1_565 S
Zn163 O170 2.028 . S
O164 C160 1.258 . S
O164 Zn165 2.035 1_565 S
Zn165 O164 2.035 1_545 S
Zn165 O166 2.028 . S
Zn165 O168 2.028 . S
Zn165 O171 2.035 1_545 S
O166 Zn165 2.028 . S
O166 C172 1.247 . S
O167 Zn163 2.035 1_545 S
O167 C172 1.258 . S
O168 C161 1.247 . S
O168 Zn165 2.028 . S
O169 C161 1.258 . S
O169 Zn163 2.035 1_545 S
O170 Zn163 2.028 . S
O170 C173 1.247 . S
O171 Zn165 2.035 1_565 S
O171 C173 1.258 . S
C172 O166 1.247 . S
C172 O167 1.258 . S
C173 O170 1.247 . S
C173 O171 1.258 . S
C174 O176 1.247 . S
C174 O178 1.258 . S
C175 O182 1.247 . S
C175 O183 1.258 . S
O176 C174 1.247 . S
O176 Zn177 2.028 . S
Zn177 O176 2.028 . S
Zn177 O181 2.035 . S
Zn177 O183 2.035 1_554 S
Zn177 O184 2.028 1_554 S
O178 C174 1.258 . S
O178 Zn179 2.035 1_554 S
Zn179 O178 2.035 1_556 S
Zn179 O180 2.028 1_556 S
Zn179 O182 2.028 . S
Zn179 O185 2.035 . S
O180 Zn179 2.028 1_554 S
O180 C186 1.247 . S
O181 Zn177 2.035 . S
O181 C186 1.258 . S
O182 C175 1.247 . S
O182 Zn179 2.028 . S
O183 C175 1.258 . S
O183 Zn177 2.035 1_556 S
O184 Zn177 2.028 1_556 S
O184 C187 1.247 . S
O185 Zn179 2.035 . S
O185 C187 1.258 . S
C186 O180 1.247 . S
C186 O181 1.258 . S
C187 O184 1.247 . S
C187 O185 1.258 . S
H188 C200 0.930 . S
H189 C202 0.930 . S
H190 C203 0.930 . S
H191 C207 0.959 . S
H192 C207 0.959 . S
H193 C207 0.961 . S
H194 C208 0.960 . S
H195 C208 0.961 . S
H196 C208 0.959 . S
H197 C211 0.929 . S
H198 C212 0.931 . S
H199 C214 0.930 . S
C200 H188 0.930 . S
C200 C201 1.399 . S
C200 C205 1.399 . S
C201 C200 1.399 . S
C201 C202 1.376 . S
C202 H189 0.930 . S
C202 C201 1.376 . S
C202 C203 1.388 . S
C203 H190 0.930 . S
C203 C202 1.388 . S
C203 C204 1.390 . S
C204 C203 1.390 . S
C204 C205 1.394 . S
C204 C210 1.465 . S
C205 C200 1.399 . S
C205 C204 1.394 . S
C205 C206 1.516 . S
C206 C205 1.516 . S
C206 C207 1.502 . S
C206 C208 1.561 . S
C206 C209 1.526 . S
C207 H191 0.959 . S
C207 H192 0.959 . S
C207 H193 0.961 . S
C207 C206 1.502 . S
C208 H194 0.960 . S
C208 H195 0.961 . S
C208 H196 0.959 . S
C208 C206 1.561 . S
C209 C206 1.526 . S
C209 C210 1.396 . S
C209 C214 1.390 . S
C210 C204 1.465 . S
C210 C209 1.396 . S
C210 C211 1.399 . S
C211 H197 0.929 . S
C211 C210 1.399 . S
C211 C212 1.385 . S
C212 H198 0.931 . S
C212 C211 1.385 . S
C212 C213 1.389 . S
C213 C212 1.389 . S
C213 C214 1.387 . S
C214 H199 0.930 . S
C214 C209 1.390 . S
C214 C213 1.387 . S
H215 C227 0.930 . S
H216 C229 0.930 . S
H217 C230 0.930 . S
H218 C234 0.959 . S
H219 C234 0.959 . S
H220 C234 0.961 . S
H221 C235 0.960 . S
H222 C235 0.961 . S
H223 C235 0.959 . S
H224 C238 0.929 . S
H225 C239 0.931 . S
H226 C241 0.930 . S
C227 H215 0.930 . S
C227 C228 1.399 . S
C227 C232 1.399 . S
C228 C227 1.399 . S
C228 C229 1.376 . S
C229 H216 0.930 . S
C229 C228 1.376 . S
C229 C230 1.388 . S
C230 H217 0.930 . S
C230 C229 1.388 . S
C230 C231 1.390 . S
C231 C230 1.390 . S
C231 C232 1.394 . S
C231 C237 1.465 . S
C232 C227 1.399 . S
C232 C231 1.394 . S
C232 C233 1.516 . S
C233 C232 1.516 . S
C233 C234 1.502 . S
C233 C235 1.561 . S
C233 C236 1.526 . S
C234 H218 0.959 . S
C234 H219 0.959 . S
C234 H220 0.961 . S
C234 C233 1.502 . S
C235 H221 0.960 . S
C235 H222 0.961 . S
C235 H223 0.959 . S
C235 C233 1.561 . S
C236 C233 1.526 . S
C236 C237 1.396 . S
C236 C241 1.390 . S
C237 C231 1.465 . S
C237 C236 1.396 . S
C237 C238 1.399 . S
C238 H224 0.929 . S
C238 C237 1.399 . S
C238 C239 1.385 . S
C239 H225 0.931 . S
C239 C238 1.385 . S
C239 C240 1.389 . S
C240 C239 1.389 . S
C240 C241 1.387 . S
C241 H226 0.930 . S
C241 C236 1.390 . S
C241 C240 1.387 . S
H242 C254 0.930 . S
H243 C256 0.930 . S
H244 C257 0.930 . S
H245 C261 0.959 . S
H246 C261 0.959 . S
H247 C261 0.961 . S
H248 C262 0.960 . S
H249 C262 0.961 . S
H250 C262 0.959 . S
H251 C265 0.929 . S
H252 C266 0.931 . S
H253 C268 0.930 . S
C254 H242 0.930 . S
C254 C255 1.399 . S
C254 C259 1.399 . S
C255 C254 1.399 . S
C255 C256 1.376 . S
C256 H243 0.930 . S
C256 C255 1.376 . S
C256 C257 1.388 . S
C257 H244 0.930 . S
C257 C256 1.388 . S
C257 C258 1.390 . S
C258 C257 1.390 . S
C258 C259 1.394 . S
C258 C264 1.465 . S
C259 C254 1.399 . S
C259 C258 1.394 . S
C259 C260 1.516 . S
C260 C259 1.516 . S
C260 C261 1.502 . S
C260 C262 1.561 . S
C260 C263 1.526 . S
C261 H245 0.959 . S
C261 H246 0.959 . S
C261 H247 0.961 . S
C261 C260 1.502 . S
C262 H248 0.960 . S
C262 H249 0.961 . S
C262 H250 0.959 . S
C262 C260 1.561 . S
C263 C260 1.526 . S
C263 C264 1.396 . S
C263 C268 1.390 . S
C264 C258 1.465 . S
C264 C263 1.396 . S
C264 C265 1.399 . S
C265 H251 0.929 . S
C265 C264 1.399 . S
C265 C266 1.385 . S
C266 H252 0.931 . S
C266 C265 1.385 . S
C266 C267 1.389 . S
C267 C266 1.389 . S
C267 C268 1.387 . S
C268 H253 0.930 . S
C268 C263 1.390 . S
C268 C267 1.387 . S
H269 C281 0.930 . S
H270 C283 0.930 . S
H271 C284 0.930 . S
H272 C288 0.959 . S
H273 C288 0.959 . S
H274 C288 0.961 . S
H275 C289 0.960 . S
H276 C289 0.961 . S
H277 C289 0.959 . S
H278 C292 0.929 . S
H279 C293 0.908 1_455 S
H280 C295 0.930 . S
C281 H269 0.930 . S
C281 C282 1.399 . S
C281 C286 1.399 . S
C282 C281 1.399 . S
C282 C283 1.376 . S
C283 H270 0.930 . S
C283 C282 1.376 . S
C283 C284 1.388 . S
C284 H271 0.930 . S
C284 C283 1.388 . S
C284 C285 1.390 . S
C285 C284 1.390 . S
C285 C286 1.394 . S
C285 C291 1.465 . S
C286 C281 1.399 . S
C286 C285 1.394 . S
C286 C287 1.516 . S
C287 C286 1.516 . S
C287 C288 1.502 . S
C287 C289 1.561 . S
C287 C290 1.526 . S
C288 H272 0.959 . S
C288 H273 0.959 . S
C288 H274 0.961 . S
C288 C287 1.502 . S
C289 H275 0.960 . S
C289 H276 0.961 . S
C289 H277 0.959 . S
C289 C287 1.561 . S
C290 C287 1.526 . S
C290 C291 1.396 . S
C290 C295 1.390 . S
C291 C285 1.465 . S
C291 C290 1.396 . S
C291 C292 1.399 . S
C292 H278 0.929 . S
C292 C291 1.399 . S
C292 C293 1.385 . S
C293 H279 0.908 1_655 S
C293 C292 1.385 . S
C293 C294 1.389 . S
C294 C293 1.389 . S
C294 C295 1.387 . S
C295 H280 0.930 . S
C295 C290 1.390 . S
C295 C294 1.387 . S
H296 C308 0.930 . S
H297 C310 0.930 . S
H298 C311 0.930 . S
H299 C315 0.959 . S
H300 C315 0.959 . S
H301 C315 0.961 . S
H302 C316 0.960 . S
H303 C316 0.961 . S
H304 C316 0.959 . S
H305 C319 0.929 . S
H306 C320 0.931 . S
H307 C322 0.930 . S
C308 H296 0.930 . S
C308 C309 1.399 . S
C308 C313 1.399 . S
C309 C308 1.399 . S
C309 C310 1.376 . S
C310 H297 0.930 . S
C310 C309 1.376 . S
C310 C311 1.388 . S
C311 H298 0.930 . S
C311 C310 1.388 . S
C311 C312 1.390 . S
C312 C311 1.390 . S
C312 C313 1.394 . S
C312 C318 1.465 . S
C313 C308 1.399 . S
C313 C312 1.394 . S
C313 C314 1.516 . S
C314 C313 1.516 . S
C314 C315 1.502 . S
C314 C316 1.561 . S
C314 C317 1.526 . S
C315 H299 0.959 . S
C315 H300 0.959 . S
C315 H301 0.961 . S
C315 C314 1.502 . S
C316 H302 0.960 . S
C316 H303 0.961 . S
C316 H304 0.959 . S
C316 C314 1.561 . S
C317 C314 1.526 . S
C317 C318 1.396 . S
C317 C322 1.390 . S
C318 C312 1.465 . S
C318 C317 1.396 . S
C318 C319 1.399 . S
C319 H305 0.929 . S
C319 C318 1.399 . S
C319 C320 1.385 . S
C320 H306 0.931 . S
C320 C319 1.385 . S
C320 C321 1.389 . S
C321 C320 1.389 . S
C321 C322 1.387 . S
C322 H307 0.930 . S
C322 C317 1.390 . S
C322 C321 1.387 . S
H323 C335 0.930 . S
H324 C337 0.930 . S
H325 C338 0.930 . S
H326 C342 0.958 . S
H327 C342 0.958 . S
H328 C342 0.962 1_556 S
H329 C343 0.960 . S
H330 C343 0.961 . S
H331 C343 0.959 . S
H332 C346 0.929 . S
H333 C347 0.931 . S
H334 C349 0.930 . S
C335 H323 0.930 . S
C335 C336 1.399 . S
C335 C340 1.399 . S
C336 C335 1.399 . S
C336 C337 1.376 . S
C337 H324 0.930 . S
C337 C336 1.376 . S
C337 C338 1.388 . S
C338 H325 0.930 . S
C338 C337 1.388 . S
C338 C339 1.390 . S
C339 C338 1.390 . S
C339 C340 1.394 . S
C339 C345 1.465 . S
C340 C335 1.399 . S
C340 C339 1.394 . S
C340 C341 1.516 . S
C341 C340 1.516 . S
C341 C342 1.503 1_556 S
C341 C343 1.561 . S
C341 C344 1.526 . S
C342 H326 0.958 . S
C342 H327 0.958 . S
C342 H328 0.962 1_554 S
C342 C341 1.503 1_554 S
C343 H329 0.960 . S
C343 H330 0.961 . S
C343 H331 0.959 . S
C343 C341 1.561 . S
C344 C341 1.526 . S
C344 C345 1.396 . S
C344 C349 1.390 1_556 S
C345 C339 1.465 . S
C345 C344 1.396 . S
C345 C346 1.399 . S
C346 H332 0.929 . S
C346 C345 1.399 . S
C346 C347 1.385 . S
C347 H333 0.931 . S
C347 C346 1.385 . S
C347 C348 1.389 1_556 S
C348 C347 1.389 1_554 S
C348 C349 1.387 . S
C349 H334 0.930 . S
C349 C344 1.390 1_554 S
C349 C348 1.387 . S
H350 C362 0.930 . S
H351 C364 0.930 . S
H352 C365 0.930 . S
H353 C369 0.959 . S
H354 C369 0.959 . S
H355 C369 0.961 . S
H356 C370 0.960 . S
H357 C370 0.961 . S
H358 C370 0.959 . S
H359 C373 0.929 . S
H360 C374 0.931 . S
H361 C376 0.930 . S
C362 H350 0.930 . S
C362 C363 1.399 . S
C362 C367 1.399 . S
C363 C362 1.399 . S
C363 C364 1.376 . S
C364 H351 0.930 . S
C364 C363 1.376 . S
C364 C365 1.388 . S
C365 H352 0.930 . S
C365 C364 1.388 . S
C365 C366 1.390 . S
C366 C365 1.390 . S
C366 C367 1.394 . S
C366 C372 1.465 . S
C367 C362 1.399 . S
C367 C366 1.394 . S
C367 C368 1.516 . S
C368 C367 1.516 . S
C368 C369 1.502 . S
C368 C370 1.561 . S
C368 C371 1.526 . S
C369 H353 0.959 . S
C369 H354 0.959 . S
C369 H355 0.961 . S
C369 C368 1.502 . S
C370 H356 0.960 . S
C370 H357 0.961 . S
C370 H358 0.959 . S
C370 C368 1.561 . S
C371 C368 1.526 . S
C371 C372 1.396 . S
C371 C376 1.390 . S
C372 C366 1.465 . S
C372 C371 1.396 . S
C372 C373 1.399 . S
C373 H359 0.929 . S
C373 C372 1.399 . S
C373 C374 1.385 . S
C374 H360 0.931 . S
C374 C373 1.385 . S
C374 C375 1.389 . S
C375 C374 1.389 . S
C375 C376 1.387 . S
C376 H361 0.930 . S
C376 C371 1.390 . S
C376 C375 1.387 . S
H377 C389 0.930 . S
H378 C391 0.930 . S
H379 C392 0.930 . S
H380 C396 0.959 . S
H381 C396 0.959 . S
H382 C396 0.961 . S
H383 C397 0.960 . S
H384 C397 0.961 . S
H385 C397 0.959 . S
H386 C400 0.929 . S
H387 C401 0.931 . S
H388 C403 0.930 . S
C389 H377 0.930 . S
C389 C390 1.399 . S
C389 C394 1.399 . S
C390 C389 1.399 . S
C390 C391 1.376 . S
C391 H378 0.930 . S
C391 C390 1.376 . S
C391 C392 1.388 . S
C392 H379 0.930 . S
C392 C391 1.388 . S
C392 C393 1.390 . S
C393 C392 1.390 . S
C393 C394 1.394 . S
C393 C399 1.465 . S
C394 C389 1.399 . S
C394 C393 1.394 . S
C394 C395 1.516 . S
C395 C394 1.516 . S
C395 C396 1.502 . S
C395 C397 1.561 . S
C395 C398 1.526 . S
C396 H380 0.959 . S
C396 H381 0.959 . S
C396 H382 0.961 . S
C396 C395 1.502 . S
C397 H383 0.960 . S
C397 H384 0.961 . S
C397 H385 0.959 . S
C397 C395 1.561 . S
C398 C395 1.526 . S
C398 C399 1.396 . S
C398 C403 1.390 . S
C399 C393 1.465 . S
C399 C398 1.396 . S
C399 C400 1.399 . S
C400 H386 0.929 . S
C400 C399 1.399 . S
C400 C401 1.385 . S
C401 H387 0.931 . S
C401 C400 1.385 . S
C401 C402 1.389 . S
C402 C401 1.389 . S
C402 C403 1.387 . S
C403 H388 0.930 . S
C403 C398 1.390 . S
C403 C402 1.387 . S
H404 C416 0.930 . S
H405 C418 0.930 . S
H406 C419 0.930 . S
H407 C423 0.959 . S
H408 C423 0.959 . S
H409 C423 0.961 . S
H410 C424 0.960 . S
H411 C424 0.961 . S
H412 C424 0.959 . S
H413 C427 0.929 . S
H414 C428 0.931 . S
H415 C430 0.930 . S
C416 H404 0.930 . S
C416 C417 1.399 . S
C416 C421 1.399 . S
C417 C416 1.399 . S
C417 C418 1.376 . S
C418 H405 0.930 . S
C418 C417 1.376 . S
C418 C419 1.388 . S
C419 H406 0.930 . S
C419 C418 1.388 . S
C419 C420 1.390 . S
C420 C419 1.390 . S
C420 C421 1.394 . S
C420 C426 1.465 . S
C421 C416 1.399 . S
C421 C420 1.394 . S
C421 C422 1.516 . S
C422 C421 1.516 . S
C422 C423 1.502 . S
C422 C424 1.561 . S
C422 C425 1.526 . S
C423 H407 0.959 . S
C423 H408 0.959 . S
C423 H409 0.961 . S
C423 C422 1.502 . S
C424 H410 0.960 . S
C424 H411 0.961 . S
C424 H412 0.959 . S
C424 C422 1.561 . S
C425 C422 1.526 . S
C425 C426 1.396 . S
C425 C430 1.390 . S
C426 C420 1.465 . S
C426 C425 1.396 . S
C426 C427 1.399 . S
C427 H413 0.929 . S
C427 C426 1.399 . S
C427 C428 1.385 . S
C428 H414 0.931 . S
C428 C427 1.385 . S
C428 C429 1.389 . S
C429 C428 1.389 . S
C429 C430 1.387 . S
C430 H415 0.930 . S
C430 C425 1.390 . S
C430 C429 1.387 . S
H431 C443 0.930 . S
H432 C445 0.930 . S
H433 C446 0.930 . S
H434 C450 0.959 . S
H435 C450 0.959 . S
H436 C450 0.961 . S
H437 C451 0.960 . S
H438 C451 0.961 . S
H439 C451 0.959 . S
H440 C454 0.929 . S
H441 C455 0.931 . S
H442 C457 0.930 . S
C443 H431 0.930 . S
C443 C444 1.399 . S
C443 C448 1.399 . S
C444 C443 1.399 . S
C444 C445 1.376 . S
C445 H432 0.930 . S
C445 C444 1.376 . S
C445 C446 1.388 . S
C446 H433 0.930 . S
C446 C445 1.388 . S
C446 C447 1.390 . S
C447 C446 1.390 . S
C447 C448 1.394 . S
C447 C453 1.465 . S
C448 C443 1.399 . S
C448 C447 1.394 . S
C448 C449 1.516 . S
C449 C448 1.516 . S
C449 C450 1.502 . S
C449 C451 1.561 . S
C449 C452 1.526 . S
C450 H434 0.959 . S
C450 H435 0.959 . S
C450 H436 0.961 . S
C450 C449 1.502 . S
C451 H437 0.960 . S
C451 H438 0.961 . S
C451 H439 0.959 . S
C451 C449 1.561 . S
C452 C449 1.526 . S
C452 C453 1.396 . S
C452 C457 1.390 . S
C453 C447 1.465 . S
C453 C452 1.396 . S
C453 C454 1.399 . S
C454 H440 0.929 . S
C454 C453 1.399 . S
C454 C455 1.385 . S
C455 H441 0.931 . S
C455 C454 1.385 . S
C455 C456 1.389 . S
C456 C455 1.389 . S
C456 C457 1.387 . S
C457 H442 0.930 . S
C457 C452 1.390 . S
C457 C456 1.387 . S
H458 C470 0.930 . S
H459 C472 0.930 . S
H460 C473 0.930 . S
H461 C477 0.959 . S
H462 C477 0.959 . S
H463 C477 0.961 . S
H464 C478 0.960 . S
H465 C478 0.961 . S
H466 C478 0.959 . S
H467 C481 0.929 . S
H468 C482 0.931 . S
H469 C484 0.930 . S
C470 H458 0.930 . S
C470 C471 1.399 . S
C470 C475 1.399 . S
C471 C470 1.399 . S
C471 C472 1.376 . S
C472 H459 0.930 . S
C472 C471 1.376 . S
C472 C473 1.388 . S
C473 H460 0.930 . S
C473 C472 1.388 . S
C473 C474 1.390 . S
C474 C473 1.390 . S
C474 C475 1.394 . S
C474 C480 1.465 . S
C475 C470 1.399 . S
C475 C474 1.394 . S
C475 C476 1.516 . S
C476 C475 1.516 . S
C476 C477 1.502 . S
C476 C478 1.561 . S
C476 C479 1.526 . S
C477 H461 0.959 . S
C477 H462 0.959 . S
C477 H463 0.961 . S
C477 C476 1.502 . S
C478 H464 0.960 . S
C478 H465 0.961 . S
C478 H466 0.959 . S
C478 C476 1.561 . S
C479 C476 1.526 . S
C479 C480 1.396 . S
C479 C484 1.390 . S
C480 C474 1.465 . S
C480 C479 1.396 . S
C480 C481 1.399 . S
C481 H467 0.929 . S
C481 C480 1.399 . S
C481 C482 1.385 . S
C482 H468 0.931 . S
C482 C481 1.385 . S
C482 C483 1.389 . S
C483 C482 1.389 . S
C483 C484 1.387 . S
C484 H469 0.930 . S
C484 C479 1.390 . S
C484 C483 1.387 . S
H485 C497 0.930 . S
H486 C499 0.930 . S
H487 C500 0.930 . S
H488 C504 0.959 . S
H489 C504 0.959 . S
H490 C504 0.961 . S
H491 C505 0.960 . S
H492 C505 0.961 . S
H493 C505 0.959 . S
H494 C508 0.929 . S
H495 C509 0.931 . S
H496 C511 0.930 . S
C497 H485 0.930 . S
C497 C498 1.399 . S
C497 C502 1.399 . S
C498 C497 1.399 . S
C498 C499 1.376 . S
C499 H486 0.930 . S
C499 C498 1.376 . S
C499 C500 1.388 . S
C500 H487 0.930 . S
C500 C499 1.388 . S
C500 C501 1.390 . S
C501 C500 1.390 . S
C501 C502 1.394 . S
C501 C507 1.465 . S
C502 C497 1.399 . S
C502 C501 1.394 . S
C502 C503 1.516 . S
C503 C502 1.516 . S
C503 C504 1.502 . S
C503 C505 1.561 . S
C503 C506 1.526 . S
C504 H488 0.959 . S
C504 H489 0.959 . S
C504 H490 0.961 . S
C504 C503 1.502 . S
C505 H491 0.960 . S
C505 H492 0.961 . S
C505 H493 0.959 . S
C505 C503 1.561 . S
C506 C503 1.526 . S
C506 C507 1.396 . S
C506 C511 1.390 . S
C507 C501 1.465 . S
C507 C506 1.396 . S
C507 C508 1.399 . S
C508 H494 0.929 . S
C508 C507 1.399 . S
C508 C509 1.385 . S
C509 H495 0.931 . S
C509 C508 1.385 . S
C509 C510 1.389 . S
C510 C509 1.389 . S
C510 C511 1.387 . S
C511 H496 0.930 . S
C511 C506 1.390 . S
C511 C510 1.387 . S
H512 C524 0.930 . S
H513 C526 0.930 . S
H514 C527 0.930 . S
H515 C531 0.959 . S
H516 C531 0.959 . S
H517 C531 0.961 . S
H518 C532 0.960 . S
H519 C532 0.961 . S
H520 C532 0.959 . S
H521 C535 0.929 . S
H522 C536 0.931 . S
H523 C538 0.930 . S
C524 H512 0.930 . S
C524 C525 1.399 . S
C524 C529 1.399 . S
C525 C524 1.399 . S
C525 C526 1.376 . S
C526 H513 0.930 . S
C526 C525 1.376 . S
C526 C527 1.388 . S
C527 H514 0.930 . S
C527 C526 1.388 . S
C527 C528 1.390 . S
C528 C527 1.390 . S
C528 C529 1.394 . S
C528 C534 1.465 . S
C529 C524 1.399 . S
C529 C528 1.394 . S
C529 C530 1.516 . S
C530 C529 1.516 . S
C530 C531 1.502 . S
C530 C532 1.561 . S
C530 C533 1.526 . S
C531 H515 0.959 . S
C531 H516 0.959 . S
C531 H517 0.961 . S
C531 C530 1.502 . S
C532 H518 0.960 . S
C532 H519 0.961 . S
C532 H520 0.959 . S
C532 C530 1.561 . S
C533 C530 1.526 . S
C533 C534 1.396 . S
C533 C538 1.390 . S
C534 C528 1.465 . S
C534 C533 1.396 . S
C534 C535 1.399 . S
C535 H521 0.929 . S
C535 C534 1.399 . S
C535 C536 1.385 . S
C536 H522 0.931 . S
C536 C535 1.385 . S
C536 C537 1.389 . S
C537 C536 1.389 . S
C537 C538 1.387 . S
C538 H523 0.930 . S
C538 C533 1.390 . S
C538 C537 1.387 . S
H539 C551 0.930 . S
H540 C553 0.930 . S
H541 C554 0.930 . S
H542 C558 0.959 . S
H543 C558 0.959 . S
H544 C558 0.961 . S
H545 C559 0.960 . S
H546 C559 0.961 . S
H547 C559 0.959 . S
H548 C562 0.929 . S
H549 C563 0.931 . S
H550 C565 0.930 . S
C551 H539 0.930 . S
C551 C552 1.399 . S
C551 C556 1.399 . S
C552 C551 1.399 . S
C552 C553 1.376 . S
C553 H540 0.930 . S
C553 C552 1.376 . S
C553 C554 1.388 . S
C554 H541 0.930 . S
C554 C553 1.388 . S
C554 C555 1.390 . S
C555 C554 1.390 . S
C555 C556 1.394 . S
C555 C561 1.465 . S
C556 C551 1.399 . S
C556 C555 1.394 . S
C556 C557 1.516 . S
C557 C556 1.516 . S
C557 C558 1.502 . S
C557 C559 1.561 . S
C557 C560 1.526 . S
C558 H542 0.959 . S
C558 H543 0.959 . S
C558 H544 0.961 . S
C558 C557 1.502 . S
C559 H545 0.960 . S
C559 H546 0.961 . S
C559 H547 0.959 . S
C559 C557 1.561 . S
C560 C557 1.526 . S
C560 C561 1.396 . S
C560 C565 1.390 . S
C561 C555 1.465 . S
C561 C560 1.396 . S
C561 C562 1.399 . S
C562 H548 0.929 . S
C562 C561 1.399 . S
C562 C563 1.385 . S
C563 H549 0.931 . S
C563 C562 1.385 . S
C563 C564 1.389 . S
C564 C563 1.389 . S
C564 C565 1.387 . S
C565 H550 0.930 . S
C565 C560 1.390 . S
C565 C564 1.387 . S
H566 C578 0.930 . S
H567 C580 0.930 . S
H568 C581 0.930 . S
H569 C585 0.959 . S
H570 C585 0.959 . S
H571 C585 0.961 . S
H572 C586 0.960 . S
H573 C586 0.961 . S
H574 C586 0.959 . S
H575 C589 0.929 . S
H576 C590 0.931 . S
H577 C592 0.930 . S
C578 H566 0.930 . S
C578 C579 1.399 . S
C578 C583 1.399 . S
C579 C578 1.399 . S
C579 C580 1.376 . S
C580 H567 0.930 . S
C580 C579 1.376 . S
C580 C581 1.388 . S
C581 H568 0.930 . S
C581 C580 1.388 . S
C581 C582 1.390 . S
C582 C581 1.390 . S
C582 C583 1.394 . S
C582 C588 1.465 . S
C583 C578 1.399 . S
C583 C582 1.394 . S
C583 C584 1.516 . S
C584 C583 1.516 . S
C584 C585 1.502 . S
C584 C586 1.561 . S
C584 C587 1.526 . S
C585 H569 0.959 . S
C585 H570 0.959 . S
C585 H571 0.961 . S
C585 C584 1.502 . S
C586 H572 0.960 . S
C586 H573 0.961 . S
C586 H574 0.959 . S
C586 C584 1.561 . S
C587 C584 1.526 . S
C587 C588 1.396 . S
C587 C592 1.390 . S
C588 C582 1.465 . S
C588 C587 1.396 . S
C588 C589 1.399 . S
C589 H575 0.929 . S
C589 C588 1.399 . S
C589 C590 1.385 . S
C590 H576 0.931 . S
C590 C589 1.385 . S
C590 C591 1.389 . S
C591 C590 1.389 . S
C591 C592 1.387 . S
C592 H577 0.930 . S
C592 C587 1.390 . S
C592 C591 1.387 . S
H593 C605 0.930 . S
H594 C607 0.930 . S
H595 C608 0.930 . S
H596 C612 0.959 . S
H597 C612 0.959 . S
H598 C612 0.961 . S
H599 C613 0.960 . S
H600 C613 0.961 . S
H601 C613 0.959 . S
H602 C616 0.929 . S
H603 C617 0.931 . S
H604 C619 0.930 . S
C605 H593 0.930 . S
C605 C606 1.399 . S
C605 C610 1.399 . S
C606 C605 1.399 . S
C606 C607 1.376 . S
C607 H594 0.930 . S
C607 C606 1.376 . S
C607 C608 1.388 . S
C608 H595 0.930 . S
C608 C607 1.388 . S
C608 C609 1.390 . S
C609 C608 1.390 . S
C609 C610 1.394 . S
C609 C615 1.465 . S
C610 C605 1.399 . S
C610 C609 1.394 . S
C610 C611 1.516 . S
C611 C610 1.516 . S
C611 C612 1.502 . S
C611 C613 1.561 . S
C611 C614 1.526 . S
C612 H596 0.959 . S
C612 H597 0.959 . S
C612 H598 0.961 . S
C612 C611 1.502 . S
C613 H599 0.960 . S
C613 H600 0.961 . S
C613 H601 0.959 . S
C613 C611 1.561 . S
C614 C611 1.526 . S
C614 C615 1.396 . S
C614 C619 1.390 . S
C615 C609 1.465 . S
C615 C614 1.396 . S
C615 C616 1.399 . S
C616 H602 0.929 . S
C616 C615 1.399 . S
C616 C617 1.385 . S
C617 H603 0.931 . S
C617 C616 1.385 . S
C617 C618 1.389 . S
C618 C617 1.389 . S
C618 C619 1.387 . S
C619 H604 0.930 . S
C619 C614 1.390 . S
C619 C618 1.387 . S
H620 C632 0.930 . S
H621 C634 0.930 . S
H622 C635 0.930 . S
H623 C639 0.959 . S
H624 C639 0.959 . S
H625 C639 0.961 . S
H626 C640 0.960 . S
H627 C640 0.961 . S
H628 C640 0.959 . S
H629 C643 0.929 . S
H630 C644 0.931 . S
H631 C646 0.930 . S
C632 H620 0.930 . S
C632 C633 1.399 . S
C632 C637 1.399 . S
C633 C632 1.399 . S
C633 C634 1.376 . S
C634 H621 0.930 . S
C634 C633 1.376 . S
C634 C635 1.388 . S
C635 H622 0.930 . S
C635 C634 1.388 . S
C635 C636 1.390 . S
C636 C635 1.390 . S
C636 C637 1.394 . S
C636 C642 1.465 . S
C637 C632 1.399 . S
C637 C636 1.394 . S
C637 C638 1.516 . S
C638 C637 1.516 . S
C638 C639 1.502 . S
C638 C640 1.561 . S
C638 C641 1.526 . S
C639 H623 0.959 . S
C639 H624 0.959 . S
C639 H625 0.961 . S
C639 C638 1.502 . S
C640 H626 0.960 . S
C640 H627 0.961 . S
C640 H628 0.959 . S
C640 C638 1.561 . S
C641 C638 1.526 . S
C641 C642 1.396 . S
C641 C646 1.390 . S
C642 C636 1.465 . S
C642 C641 1.396 . S
C642 C643 1.399 . S
C643 H629 0.929 . S
C643 C642 1.399 . S
C643 C644 1.385 . S
C644 H630 0.931 . S
C644 C643 1.385 . S
C644 C645 1.389 . S
C645 C644 1.389 . S
C645 C646 1.387 . S
C646 H631 0.930 . S
C646 C641 1.390 . S
C646 C645 1.387 . S
H647 C659 0.930 . S
H648 C661 0.930 . S
H649 C662 0.930 . S
H650 C666 0.959 . S
H651 C666 0.959 . S
H652 C666 0.961 . S
H653 C667 0.960 . S
H654 C667 0.961 . S
H655 C667 0.959 . S
H656 C670 0.929 . S
H657 C671 0.931 . S
H658 C673 0.930 . S
C659 H647 0.930 . S
C659 C660 1.399 . S
C659 C664 1.399 . S
C660 C659 1.399 . S
C660 C661 1.376 . S
C661 H648 0.930 . S
C661 C660 1.376 . S
C661 C662 1.388 . S
C662 H649 0.930 . S
C662 C661 1.388 . S
C662 C663 1.390 . S
C663 C662 1.390 . S
C663 C664 1.394 . S
C663 C669 1.465 . S
C664 C659 1.399 . S
C664 C663 1.394 . S
C664 C665 1.516 . S
C665 C664 1.516 . S
C665 C666 1.502 . S
C665 C667 1.561 . S
C665 C668 1.526 . S
C666 H650 0.959 . S
C666 H651 0.959 . S
C666 H652 0.961 . S
C666 C665 1.502 . S
C667 H653 0.960 . S
C667 H654 0.961 . S
C667 H655 0.959 . S
C667 C665 1.561 . S
C668 C665 1.526 . S
C668 C669 1.396 . S
C668 C673 1.390 . S
C669 C663 1.465 . S
C669 C668 1.396 . S
C669 C670 1.399 . S
C670 H656 0.929 . S
C670 C669 1.399 . S
C670 C671 1.385 . S
C671 H657 0.931 . S
C671 C670 1.385 . S
C671 C672 1.389 . S
C672 C671 1.389 . S
C672 C673 1.387 . S
C673 H658 0.930 . S
C673 C668 1.390 . S
C673 C672 1.387 . S
H674 C686 0.930 . S
H675 C688 0.930 . S
H676 C689 0.930 . S
H677 C693 0.959 . S
H678 C693 0.959 . S
H679 C693 0.961 . S
H680 C694 0.960 . S
H681 C694 0.961 . S
H682 C694 0.959 . S
H683 C697 0.929 . S
H684 C698 0.931 . S
H685 C700 0.930 . S
C686 H674 0.930 . S
C686 C687 1.399 . S
C686 C691 1.399 . S
C687 C686 1.399 . S
C687 C688 1.376 . S
C688 H675 0.930 . S
C688 C687 1.376 . S
C688 C689 1.388 . S
C689 H676 0.930 . S
C689 C688 1.388 . S
C689 C690 1.390 . S
C690 C689 1.390 . S
C690 C691 1.394 . S
C690 C696 1.465 . S
C691 C686 1.399 . S
C691 C690 1.394 . S
C691 C692 1.516 . S
C692 C691 1.516 . S
C692 C693 1.502 . S
C692 C694 1.561 . S
C692 C695 1.526 . S
C693 H677 0.959 . S
C693 H678 0.959 . S
C693 H679 0.961 . S
C693 C692 1.502 . S
C694 H680 0.960 . S
C694 H681 0.961 . S
C694 H682 0.959 . S
C694 C692 1.561 . S
C695 C692 1.526 . S
C695 C696 1.396 . S
C695 C700 1.390 . S
C696 C690 1.465 . S
C696 C695 1.396 . S
C696 C697 1.399 . S
C697 H683 0.929 . S
C697 C696 1.399 . S
C697 C698 1.385 . S
C698 H684 0.931 . S
C698 C697 1.385 . S
C698 C699 1.389 . S
C699 C698 1.389 . S
C699 C700 1.387 . S
C700 H685 0.930 . S
C700 C695 1.390 . S
C700 C699 1.387 . S
H701 C713 0.930 . S
H702 C715 0.930 . S
H703 C716 0.930 . S
H704 C720 0.959 . S
H705 C720 0.959 . S
H706 C720 0.961 . S
H707 C721 0.960 . S
H708 C721 0.961 . S
H709 C721 0.959 . S
H710 C724 0.929 . S
H711 C725 0.931 . S
H712 C727 0.930 . S
C713 H701 0.930 . S
C713 C714 1.399 . S
C713 C718 1.399 . S
C714 C713 1.399 . S
C714 C715 1.376 . S
C715 H702 0.930 . S
C715 C714 1.376 . S
C715 C716 1.388 . S
C716 H703 0.930 . S
C716 C715 1.388 . S
C716 C717 1.390 . S
C717 C716 1.390 . S
C717 C718 1.394 . S
C717 C723 1.465 . S
C718 C713 1.399 . S
C718 C717 1.394 . S
C718 C719 1.516 . S
C719 C718 1.516 . S
C719 C720 1.502 . S
C719 C721 1.561 . S
C719 C722 1.526 . S
C720 H704 0.959 . S
C720 H705 0.959 . S
C720 H706 0.961 . S
C720 C719 1.502 . S
C721 H707 0.960 . S
C721 H708 0.961 . S
C721 H709 0.959 . S
C721 C719 1.561 . S
C722 C719 1.526 . S
C722 C723 1.396 . S
C722 C727 1.390 . S
C723 C717 1.465 . S
C723 C722 1.396 . S
C723 C724 1.399 . S
C724 H710 0.929 . S
C724 C723 1.399 . S
C724 C725 1.385 . S
C725 H711 0.931 . S
C725 C724 1.385 . S
C725 C726 1.389 . S
C726 C725 1.389 . S
C726 C727 1.387 . S
C727 H712 0.930 . S
C727 C722 1.390 . S
C727 C726 1.387 . S
H728 C740 0.930 . S
H729 C742 0.930 . S
H730 C743 0.930 . S
H731 C747 0.959 . S
H732 C747 0.959 . S
H733 C747 0.961 . S
H734 C748 0.960 . S
H735 C748 0.961 . S
H736 C748 0.959 . S
H737 C751 0.929 . S
H738 C752 0.931 . S
H739 C754 0.930 . S
C740 H728 0.930 . S
C740 C741 1.399 . S
C740 C745 1.399 . S
C741 C740 1.399 . S
C741 C742 1.376 . S
C742 H729 0.930 . S
C742 C741 1.376 . S
C742 C743 1.388 . S
C743 H730 0.930 . S
C743 C742 1.388 . S
C743 C744 1.390 . S
C744 C743 1.390 . S
C744 C745 1.394 . S
C744 C750 1.465 . S
C745 C740 1.399 . S
C745 C744 1.394 . S
C745 C746 1.516 . S
C746 C745 1.516 . S
C746 C747 1.502 . S
C746 C748 1.561 . S
C746 C749 1.526 . S
C747 H731 0.959 . S
C747 H732 0.959 . S
C747 H733 0.961 . S
C747 C746 1.502 . S
C748 H734 0.960 . S
C748 H735 0.961 . S
C748 H736 0.959 . S
C748 C746 1.561 . S
C749 C746 1.526 . S
C749 C750 1.396 . S
C749 C754 1.390 . S
C750 C744 1.465 . S
C750 C749 1.396 . S
C750 C751 1.399 . S
C751 H737 0.929 . S
C751 C750 1.399 . S
C751 C752 1.385 . S
C752 H738 0.931 . S
C752 C751 1.385 . S
C752 C753 1.389 . S
C753 C752 1.389 . S
C753 C754 1.387 . S
C754 H739 0.930 . S
C754 C749 1.390 . S
C754 C753 1.387 . S
H755 C767 0.930 . S
H756 C769 0.930 . S
H757 C770 0.930 . S
H758 C774 0.959 . S
H759 C774 0.959 . S
H760 C774 0.961 . S
H761 C775 0.960 . S
H762 C775 0.961 . S
H763 C775 0.959 . S
H764 C778 0.929 . S
H765 C779 0.931 . S
H766 C781 0.930 . S
C767 H755 0.930 . S
C767 C768 1.399 . S
C767 C772 1.399 . S
C768 C767 1.399 . S
C768 C769 1.376 . S
C769 H756 0.930 . S
C769 C768 1.376 . S
C769 C770 1.388 . S
C770 H757 0.930 . S
C770 C769 1.388 . S
C770 C771 1.390 . S
C771 C770 1.390 . S
C771 C772 1.394 . S
C771 C777 1.465 . S
C772 C767 1.399 . S
C772 C771 1.394 . S
C772 C773 1.516 . S
C773 C772 1.516 . S
C773 C774 1.502 . S
C773 C775 1.561 . S
C773 C776 1.526 . S
C774 H758 0.959 . S
C774 H759 0.959 . S
C774 H760 0.961 . S
C774 C773 1.502 . S
C775 H761 0.960 . S
C775 H762 0.961 . S
C775 H763 0.959 . S
C775 C773 1.561 . S
C776 C773 1.526 . S
C776 C777 1.396 . S
C776 C781 1.390 . S
C777 C771 1.465 . S
C777 C776 1.396 . S
C777 C778 1.399 . S
C778 H764 0.929 . S
C778 C777 1.399 . S
C778 C779 1.385 . S
C779 H765 0.931 . S
C779 C778 1.385 . S
C779 C780 1.389 . S
C780 C779 1.389 . S
C780 C781 1.387 . S
C781 H766 0.930 . S
C781 C776 1.390 . S
C781 C780 1.387 . S
H782 C794 0.930 . S
H783 C796 0.930 . S
H784 C797 0.930 . S
H785 C801 0.959 . S
H786 C801 0.959 . S
H787 C801 0.961 . S
H788 C802 0.960 . S
H789 C802 0.961 . S
H790 C802 0.959 . S
H791 C805 0.929 . S
H792 C806 0.931 . S
H793 C808 0.930 . S
C794 H782 0.930 . S
C794 C795 1.399 . S
C794 C799 1.399 . S
C795 C794 1.399 . S
C795 C796 1.376 . S
C796 H783 0.930 . S
C796 C795 1.376 . S
C796 C797 1.388 . S
C797 H784 0.930 . S
C797 C796 1.388 . S
C797 C798 1.390 . S
C798 C797 1.390 . S
C798 C799 1.394 . S
C798 C804 1.465 . S
C799 C794 1.399 . S
C799 C798 1.394 . S
C799 C800 1.516 . S
C800 C799 1.516 . S
C800 C801 1.502 . S
C800 C802 1.561 . S
C800 C803 1.526 . S
C801 H785 0.959 . S
C801 H786 0.959 . S
C801 H787 0.961 . S
C801 C800 1.502 . S
C802 H788 0.960 . S
C802 H789 0.961 . S
C802 H790 0.959 . S
C802 C800 1.561 . S
C803 C800 1.526 . S
C803 C804 1.396 . S
C803 C808 1.390 . S
C804 C798 1.465 . S
C804 C803 1.396 . S
C804 C805 1.399 . S
C805 H791 0.929 . S
C805 C804 1.399 . S
C805 C806 1.385 . S
C806 H792 0.931 . S
C806 C805 1.385 . S
C806 C807 1.389 . S
C807 C806 1.389 . S
C807 C808 1.387 . S
C808 H793 0.930 . S
C808 C803 1.390 . S
C808 C807 1.387 . S
H809 C821 0.930 . S
H810 C823 0.930 . S
H811 C824 0.930 . S
H812 C828 0.959 . S
H813 C828 0.959 . S
H814 C828 0.961 . S
H815 C829 0.960 . S
H816 C829 0.961 . S
H817 C829 0.959 . S
H818 C832 0.929 . S
H819 C833 0.939 . S
H820 C835 0.930 . S
C821 H809 0.930 . S
C821 C822 1.399 . S
C821 C826 1.399 . S
C822 C821 1.399 . S
C822 C823 1.376 . S
C823 H810 0.930 . S
C823 C822 1.376 . S
C823 C824 1.388 . S
C824 H811 0.930 . S
C824 C823 1.388 . S
C824 C825 1.390 . S
C825 C824 1.390 . S
C825 C826 1.394 . S
C825 C831 1.465 . S
C826 C821 1.399 . S
C826 C825 1.394 . S
C826 C827 1.516 . S
C827 C826 1.516 . S
C827 C828 1.502 . S
C827 C829 1.561 . S
C827 C830 1.526 . S
C828 H812 0.959 . S
C828 H813 0.959 . S
C828 H814 0.961 . S
C828 C827 1.502 . S
C829 H815 0.960 . S
C829 H816 0.961 . S
C829 H817 0.959 . S
C829 C827 1.561 . S
C830 C827 1.526 . S
C830 C831 1.396 . S
C830 C835 1.390 . S
C831 C825 1.465 . S
C831 C830 1.396 . S
C831 C832 1.399 . S
C832 H818 0.929 . S
C832 C831 1.399 . S
C832 C833 1.385 . S
C833 H819 0.939 . S
C833 C832 1.385 . S
C833 C834 1.389 . S
C834 C833 1.389 . S
C834 C835 1.387 . S
C835 H820 0.930 . S
C835 C830 1.390 . S
C835 C834 1.387 . S
C213 C116 1.642 . S
C201 C8 1.632 . S
C240 C119 1.572 . S
C228 C22 1.570 . S
C267 C117 1.555 . S
C255 C30 1.561 . S
C294 C118 1.383 . S
C282 C47 1.387 . S
C321 C133 1.677 . S
C309 C9 1.708 . S
C348 C147 1.643 . S
C336 C17 1.613 . S
C363 C34 1.509 . S
C375 C173 1.523 . S
C402 C187 1.614 . S
C390 C48 1.573 . S
C429 C132 1.725 . S
C417 C21 1.702 . S
C444 C35 1.621 . S
C456 C146 1.662 . S
C483 C172 1.362 . S
C471 C43 1.318 . S
C510 C186 1.606 . S
C498 C4 1.580 . S
C525 C56 1.401 . S
C537 C131 1.424 1_655 S
C564 C104 1.603 . S
C552 C73 1.567 . S
C579 C87 1.599 . S
C591 C130 1.585 . S
C606 C100 1.724 . S
C618 C105 1.691 . S
C645 C160 1.600 . S
C633 C60 1.611 . S
C672 C174 1.491 . S
C660 C69 1.390 . S
C699 C144 1.775 . S
C687 C86 1.799 . S
C714 C95 1.422 . S
C726 C158 1.493 . S
C753 C161 1.610 . S
C741 C74 1.629 . S
C780 C175 1.484 . S
C768 C82 1.454 . S
C807 C145 1.853 . S
C795 C99 1.844 . S
C822 C61 1.531 . S
C834 C159 1.536 1_556 S
