# Generated by pormake.
# Topology pyr, (3,6)-cn, num edge types: 1
# Building blocks:
#     Node 0, Type 0, BuildingBlock: INOVEN_clean_linker_0, # of connection points: 3
#     Node 1, Type 0, BuildingBlock: INOVEN_clean_linker_0, # of connection points: 3
#     Node 2, Type 0, BuildingBlock: INOVEN_clean_linker_0, # of connection points: 3
#     Node 3, Type 0, BuildingBlock: INOVEN_clean_linker_0, # of connection points: 3
#     Node 4, Type 0, BuildingBlock: INOVEN_clean_linker_0, # of connection points: 3
#     Node 5, Type 0, BuildingBlock: INOVEN_clean_linker_0, # of connection points: 3
#     Node 6, Type 0, BuildingBlock: INOVEN_clean_linker_0, # of connection points: 3
#     Node 7, Type 0, BuildingBlock: INOVEN_clean_linker_0, # of connection points: 3
#     Node 8, Type 1, BuildingBlock: LEVNOQ01_clean_sbu_1, # of connection points: 6
#     Node 9, Type 1, BuildingBlock: LEVNOQ01_clean_sbu_1, # of connection points: 6
#     Node 10, Type 1, BuildingBlock: LEVNOQ01_clean_sbu_1, # of connection points: 6
#     Node 11, Type 1, BuildingBlock: LEVNOQ01_clean_sbu_1, # of connection points: 6
#     Edge 12, Type (0, 1), BuildingBlock: XIVTED_clean_linker_0, # of connection points: 2
#     Edge 13, Type (0, 1), BuildingBlock: XIVTED_clean_linker_0, # of connection points: 2
#     Edge 14, Type (0, 1), BuildingBlock: XIVTED_clean_linker_0, # of connection points: 2
#     Edge 15, Type (0, 1), BuildingBlock: XIVTED_clean_linker_0, # of connection points: 2
#     Edge 16, Type (0, 1), BuildingBlock: XIVTED_clean_linker_0, # of connection points: 2
#     Edge 17, Type (0, 1), BuildingBlock: XIVTED_clean_linker_0, # of connection points: 2
#     Edge 18, Type (0, 1), BuildingBlock: XIVTED_clean_linker_0, # of connection points: 2
#     Edge 19, Type (0, 1), BuildingBlock: XIVTED_clean_linker_0, # of connection points: 2
#     Edge 20, Type (0, 1), BuildingBlock: XIVTED_clean_linker_0, # of connection points: 2
#     Edge 21, Type (0, 1), BuildingBlock: XIVTED_clean_linker_0, # of connection points: 2
#     Edge 22, Type (0, 1), BuildingBlock: XIVTED_clean_linker_0, # of connection points: 2
#     Edge 23, Type (0, 1), BuildingBlock: XIVTED_clean_linker_0, # of connection points: 2
#     Edge 24, Type (0, 1), BuildingBlock: XIVTED_clean_linker_0, # of connection points: 2
#     Edge 25, Type (0, 1), BuildingBlock: XIVTED_clean_linker_0, # of connection points: 2
#     Edge 26, Type (0, 1), BuildingBlock: XIVTED_clean_linker_0, # of connection points: 2
#     Edge 27, Type (0, 1), BuildingBlock: XIVTED_clean_linker_0, # of connection points: 2
#     Edge 28, Type (0, 1), BuildingBlock: XIVTED_clean_linker_0, # of connection points: 2
#     Edge 29, Type (0, 1), BuildingBlock: XIVTED_clean_linker_0, # of connection points: 2
#     Edge 30, Type (0, 1), BuildingBlock: XIVTED_clean_linker_0, # of connection points: 2
#     Edge 31, Type (0, 1), BuildingBlock: XIVTED_clean_linker_0, # of connection points: 2
#     Edge 32, Type (0, 1), BuildingBlock: XIVTED_clean_linker_0, # of connection points: 2
#     Edge 33, Type (0, 1), BuildingBlock: XIVTED_clean_linker_0, # of connection points: 2
#     Edge 34, Type (0, 1), BuildingBlock: XIVTED_clean_linker_0, # of connection points: 2
#     Edge 35, Type (0, 1), BuildingBlock: XIVTED_clean_linker_0, # of connection points: 2
# Relax obj value: 0.078
# Max RMSD: 0.169
# Mean RMSD: 0.132
data_MOF--net-pry--node1-LEVNOQ01_clean_sbu_1--node2-INOVEN_clean_linker_0--edge1-XIVTED_clean_linker_0
_symmetry_space_group_name_H-M    P1
_symmetry_Int_Tables_number       1
_symmetry_cell_setting            triclinic
loop_
_symmetry_equiv_pos_as_xyz
'x, y, z'
_cell_length_a     36.176342
_cell_length_b     35.393623
_cell_length_c     36.50612
_cell_angle_alpha  92.851293
_cell_angle_beta   92.179483
_cell_angle_gamma 99.638398
loop_
_atom_site_label
_atom_site_type_symbol
_atom_site_fract_x
_atom_site_fract_y
_atom_site_fract_z
_atom_type_partial_charge
H0 H 0.10307 0.18769 0.18976 0.0
H1 H 0.1865 0.11514 0.19884 0.0
H2 H 0.18749 0.19068 0.10949 0.0
N3 N 0.1254 0.22037 0.13047 0.0
N4 N 0.13855 0.2398 0.10486 0.0
C5 C 0.12767 0.17759 0.17963 0.0
C6 C 0.14308 0.14983 0.19838 0.0
C7 C 0.14317 0.19237 0.1476 0.0
C8 C 0.17507 0.17912 0.13396 0.0
C9 C 0.19119 0.15129 0.15261 0.0
C10 C 0.17459 0.1367 0.18449 0.0
H11 H 0.37969 0.87646 0.58635 0.0
H12 H 0.44014 0.88076 0.69043 0.0
H13 H 0.3615 0.95761 0.67254 0.0
N14 N 0.33773 0.92702 0.60434 0.0
N15 N 0.32376 0.95652 0.60987 0.0
C16 C 0.38712 0.89004 0.61353 0.0
C17 C 0.41342 0.87657 0.63628 0.0
C18 C 0.36828 0.91903 0.62632 0.0
C19 C 0.37687 0.93594 0.66205 0.0
C20 C 0.40282 0.92225 0.68543 0.0
C21 C 0.42091 0.89235 0.67234 0.0
H22 H 0.58285 0.36368 0.85142 0.0
H23 H 0.64327 0.37696 0.95635 0.0
H24 H 0.68227 0.44857 0.86923 0.0
N25 N 0.6291 0.41455 0.81864 0.0
N26 N 0.65463 0.4354 0.80351 0.0
C27 C 0.60519 0.37903 0.86984 0.0
C28 C 0.60907 0.36801 0.9059 0.0
C29 C 0.63143 0.40787 0.85648 0.0
C30 C 0.66123 0.42684 0.87978 0.0
C31 C 0.66573 0.41581 0.91589 0.0
C32 C 0.6389 0.38707 0.92921 0.0
H33 H 0.84495 0.58503 0.40062 0.0
H34 H 0.86399 0.65705 0.49989 0.0
H35 H 0.93904 0.67633 0.41122 0.0
N36 N 0.89959 0.62067 0.36514 0.0
N37 N 0.92134 0.64304 0.34728 0.0
C38 C 0.86249 0.60755 0.41767 0.0
C39 C 0.85034 0.61922 0.45177 0.0
C40 C 0.8941 0.62814 0.40288 0.0
C41 C 0.91583 0.65907 0.4237 0.0
C42 C 0.90561 0.66965 0.4592 0.0
C43 C 0.87331 0.64847 0.4734 0.0
H44 H 0.8472 0.94098 0.83741 0.0
H45 H 0.92616 0.86296 0.83549 0.0
H46 H 0.85062 0.86459 0.92441 0.0
N47 N 0.81751 0.92246 0.89901 0.0
N48 N 0.8053 0.91477 0.92977 0.0
C49 C 0.85964 0.91857 0.84977 0.0
C50 C 0.8881 0.90328 0.83214 0.0
C51 C 0.8465 0.90533 0.8831 0.0
C52 C 0.86169 0.87553 0.89918 0.0
C53 C 0.8903 0.85925 0.88211 0.0
C54 C 0.90336 0.87377 0.84856 0.0
H55 H 0.58207 0.16034 0.37788 0.0
H56 H 0.67761 0.10297 0.37257 0.0
H57 H 0.66413 0.17479 0.46818 0.0
N58 N 0.59971 0.1964 0.44219 0.0
N59 N 0.61167 0.21682 0.47041 0.0
C60 C 0.60743 0.15328 0.39061 0.0
C61 C 0.62784 0.12892 0.37153 0.0
C62 C 0.62013 0.16983 0.42542 0.0
C63 C 0.65364 0.16161 0.44155 0.0
C64 C 0.6745 0.13753 0.42252 0.0
C65 C 0.66128 0.12102 0.38764 0.0
H66 H 0.38941 0.74572 0.25492 0.0
H67 H 0.35083 0.74129 0.14201 0.0
H68 H 0.30839 0.64979 0.211 0.0
N69 N 0.35028 0.68135 0.27209 0.0
N70 N 0.33042 0.65104 0.28047 0.0
C71 C 0.37249 0.7307 0.2318 0.0
C72 C 0.37289 0.74707 0.19789 0.0
C73 C 0.34982 0.69556 0.23658 0.0
C74 C 0.32697 0.67645 0.20692 0.0
C75 C 0.32683 0.69297 0.17252 0.0
C76 C 0.35065 0.728 0.16815 0.0
H77 H 0.04527 0.40114 0.63176 0.0
H78 H 0.13307 0.38792 0.5572 0.0
H79 H 0.15474 0.4686 0.64959 0.0
N80 N 0.08984 0.44528 0.68098 0.0
N81 N 0.11258 0.46757 0.70193 0.0
C82 C 0.07326 0.40965 0.62227 0.0
C83 C 0.08489 0.3918 0.5902 0.0
C84 C 0.09854 0.43648 0.64425 0.0
C85 C 0.13482 0.44819 0.63254 0.0
C86 C 0.14727 0.43063 0.60132 0.0
C87 C 0.12225 0.40296 0.57988 0.0
O88 O 0.01263 0.05139 0.61157 0.0
Mg89 Mg 0.04807 0.07957 0.57362 0.0
O90 O 0.97816 0.01254 0.56911 0.0
Mg91 Mg 0.99752 0.03332 0.51011 0.0
O92 O 0.01866 0.09642 0.53063 0.0
O93 O 0.05322 0.13752 0.57219 0.0
O94 O 0.01774 0.05326 0.45146 0.0
O95 O 0.93953 0.05436 0.50241 0.0
Mg96 Mg 0.9466 0.98782 0.44505 0.0
O97 O 0.97504 0.97099 0.48912 0.0
O98 O 0.98451 0.01445 0.40816 0.0
O99 O 0.90253 0.01584 0.46143 0.0
O100 O 0.94083 0.92964 0.4477 0.0
C101 C 0.08821 0.02596 0.53283 0.0
C102 C 0.98641 0.02354 0.60291 0.0
C103 C 0.03122 0.13139 0.54308 0.0
C104 C 0.01092 0.0419 0.41759 0.0
C105 C 0.90794 0.04401 0.48486 0.0
C106 C 0.96229 0.93596 0.47716 0.0
O107 O 0.09269 0.05482 0.55538 0.0
O108 O 0.05629 0.01283 0.51679 0.0
O109 O 0.45594 0.07816 0.09505 0.0
Mg110 Mg 0.50496 0.08704 0.06371 0.0
O111 O 0.43314 0.04063 0.04789 0.0
Mg112 Mg 0.49393 0.0306 0.03253 0.0
O113 O 0.50782 0.09436 0.00894 0.0
O114 O 0.50264 0.14082 0.05158 0.0
O115 O 0.55442 0.01883 0.01587 0.0
O116 O 0.46888 0.01543 0.9712 0.0
Mg117 Mg 0.49119 0.93862 0.00647 0.0
O118 O 0.47808 0.97061 0.04927 0.0
O119 O 0.54986 0.95543 0.00473 0.0
O120 O 0.45854 0.9517 0.96175 0.0
O121 O 0.46853 0.90751 0.0497 0.0
C122 C 0.54752 0.06161 0.1094 0.0
C123 C 0.42762 0.05977 0.07702 0.0
C124 C 0.50609 0.13007 0.01798 0.0
C125 C 0.56922 0.98896 0.00817 0.0
C126 C 0.45578 0.98483 0.9513 0.0
C127 C 0.46777 0.94021 0.06655 0.0
O128 O 0.55718 0.09036 0.09099 0.0
O129 O 0.51954 0.03686 0.09672 0.0
O130 O 0.49162 0.62514 0.60431 0.0
Mg131 Mg 0.48977 0.57171 0.62747 0.0
O132 O 0.48947 0.60515 0.54507 0.0
Mg133 Mg 0.49951 0.54096 0.54065 0.0
O134 O 0.52498 0.5458 0.59754 0.0
O135 O 0.53642 0.55834 0.65687 0.0
O136 O 0.50975 0.47668 0.53698 0.0
O137 O 0.55958 0.56194 0.52142 0.0
Mg138 Mg 0.50897 0.51014 0.45584 0.0
O139 O 0.47228 0.53628 0.48347 0.0
O140 O 0.50706 0.4563 0.47801 0.0
O141 O 0.56115 0.54758 0.4615 0.0
O142 O 0.46399 0.52137 0.42378 0.0
C143 C 0.4221 0.51848 0.5898 0.0
C144 C 0.48934 0.63147 0.57045 0.0
C145 C 0.54596 0.54394 0.62627 0.0
C146 C 0.50982 0.4501 0.51185 0.0
C147 C 0.57676 0.56328 0.4915 0.0
C148 C 0.45257 0.53631 0.4533 0.0
O149 O 0.43691 0.53441 0.62011 0.0
O150 O 0.44014 0.51982 0.56038 0.0
O151 O 0.00491 0.47313 0.07091 0.0
Mg152 Mg 0.02945 0.53131 0.0735 0.0
O153 O 0.03052 0.48938 0.0199 0.0
Mg154 Mg 0.0102 0.55144 0.01251 0.0
O155 O 0.99504 0.57108 0.07292 0.0
O156 O 0.02325 0.55361 0.124 0.0
O157 O 0.9914 0.61138 0.99542 0.0
O158 O 0.94875 0.51909 0.01174 0.0
Mg159 Mg 0.96939 0.54464 0.93157 0.0
O160 O 0.02119 0.53781 0.95279 0.0
O161 O 0.9772 0.60456 0.93493 0.0
O162 O 0.92147 0.51808 0.9565 0.0
O163 O 0.9941 0.50354 0.90439 0.0
C164 C 0.09695 0.57141 0.0391 0.0
C165 C 0.02057 0.46354 0.04256 0.0
C166 C 0.00019 0.57257 0.10846 0.0
C167 C 0.98304 0.62532 0.9647 0.0
C168 C 0.92023 0.51019 0.98977 0.0
C169 C 0.0213 0.50985 0.92882 0.0
O170 O 0.08673 0.5459 0.06141 0.0
O171 O 0.07238 0.58343 0.01882 0.0
H172 H 0.12688 0.07474 0.21591 0.0
H173 H 0.05108 0.11571 0.41529 0.0
H174 H 0.12057 0.18938 0.25806 0.0
H175 H 0.02384 0.00741 0.35245 0.0
H176 H 0.08555 0.14312 0.363 0.0
H177 H 0.09811 0.04936 0.27111 0.0
C178 C 0.11968 0.09461 0.23692 0.0
C179 C 0.12607 0.13424 0.23227 0.0
C180 C 0.07207 0.11333 0.36089 0.0
C181 C 0.09305 0.10533 0.29578 0.0
C182 C 0.05263 0.09766 0.39074 0.0
C183 C 0.03431 0.05929 0.38815 0.0
C184 C 0.07378 0.09018 0.32869 0.0
C185 C 0.03714 0.03723 0.3556 0.0
C186 C 0.10308 0.0801 0.26838 0.0
C187 C 0.11578 0.15859 0.26036 0.0
N188 N 0.05646 0.0529 0.32735 0.0
N189 N 0.09988 0.14379 0.29096 0.0
H190 H 0.39336 0.87838 0.74415 0.0
H191 H 0.47681 0.03656 0.89841 0.0
H192 H 0.42221 0.99614 0.71583 0.0
H193 H 0.3986 0.93444 0.9184 0.0
H194 H 0.46015 0.02526 0.83207 0.0
H195 H 0.40038 0.89943 0.80902 0.0
C196 C 0.40137 0.90874 0.75171 0.0
C197 C 0.40748 0.93555 0.72474 0.0
C198 C 0.44608 0.00595 0.85121 0.0
C199 C 0.41552 0.96005 0.79907 0.0
C200 C 0.4553 0.01258 0.889 0.0
C201 C 0.43931 0.98614 0.91379 0.0
C202 C 0.42112 0.97257 0.83859 0.0
C203 C 0.41196 0.95525 0.90017 0.0
C204 C 0.40504 0.92082 0.78872 0.0
C205 C 0.41731 0.97464 0.73598 0.0
N206 N 0.40424 0.94898 0.86357 0.0
N207 N 0.42149 0.98579 0.77244 0.0
H208 H 0.60695 0.39325 0.75166 0.0
H209 H 0.61895 0.5728 0.64312 0.0
H210 H 0.69618 0.49042 0.76885 0.0
H211 H 0.54301 0.46774 0.61321 0.0
H212 H 0.66143 0.53625 0.67344 0.0
H213 H 0.59591 0.4116 0.68929 0.0
C214 C 0.62456 0.41825 0.742 0.0
C215 C 0.65167 0.44138 0.76555 0.0
C216 C 0.63626 0.52081 0.65904 0.0
C217 C 0.639 0.46277 0.69443 0.0
C218 C 0.61223 0.54173 0.6414 0.0
C219 C 0.57743 0.52306 0.62641 0.0
C220 C 0.6243 0.48138 0.66285 0.0
C221 C 0.56968 0.48298 0.62482 0.0
C222 C 0.61851 0.42857 0.70625 0.0
C223 C 0.67446 0.47262 0.75151 0.0
N224 N 0.59236 0.46341 0.64408 0.0
N225 N 0.66699 0.4831 0.71708 0.0
H226 H 0.87776 0.58885 0.3014 0.0
H227 H 0.92861 0.54741 0.12523 0.0
H228 H 0.97114 0.68236 0.30591 0.0
H229 H 0.02133 0.64001 0.14787 0.0
H230 H 0.89906 0.56783 0.17983 0.0
H231 H 0.88597 0.57736 0.23644 0.0
C232 C 0.90012 0.60698 0.28851 0.0
C233 C 0.92453 0.63613 0.30903 0.0
C234 C 0.92545 0.58444 0.17293 0.0
C235 C 0.93414 0.62349 0.23407 0.0
C236 C 0.94193 0.57307 0.14117 0.0
C237 C 0.97717 0.59232 0.13229 0.0
C238 C 0.94488 0.61499 0.19608 0.0
C239 C 0.99397 0.62469 0.15397 0.0
C240 C 0.90473 0.60063 0.25106 0.0
C241 C 0.95229 0.65929 0.29094 0.0
N242 N 0.97787 0.63475 0.18514 0.0
N243 N 0.95664 0.65222 0.2546 0.0
H244 H 0.25259 0.14235 0.19485 0.0
H245 H 0.36245 0.05352 0.03338 0.0
H246 H 0.20905 0.12884 0.08249 0.0
H247 H 0.40667 0.08134 0.1446 0.0
H248 H 0.30371 0.07496 0.05052 0.0
H249 H 0.30718 0.1156 0.17646 0.0
C250 C 0.25449 0.13368 0.1662 0.0
C251 C 0.22592 0.13767 0.14027 0.0
C252 C 0.32618 0.07598 0.07119 0.0
C253 C 0.28909 0.10681 0.11872 0.0
C254 C 0.35955 0.06336 0.06153 0.0
C255 C 0.3896 0.06568 0.08759 0.0
C256 C 0.32282 0.09072 0.10722 0.0
C257 C 0.38441 0.07916 0.12353 0.0
C258 C 0.28583 0.11841 0.15565 0.0
C259 C 0.23045 0.12649 0.10339 0.0
N260 N 0.35191 0.09121 0.13215 0.0
N261 N 0.26134 0.11141 0.09371 0.0
H262 H 0.26925 0.90197 0.57657 0.0
H263 H 0.15444 0.06211 0.51163 0.0
H264 H 0.3042 0.02385 0.5974 0.0
H265 H 0.09801 0.95161 0.54145 0.0
H266 H 0.21479 0.04104 0.52121 0.0
H267 H 0.21118 0.91402 0.54532 0.0
C268 C 0.26494 0.93127 0.57391 0.0
C269 C 0.29138 0.96225 0.58929 0.0
C270 C 0.18921 0.02104 0.52478 0.0
C271 C 0.22593 0.97593 0.55338 0.0
C272 C 0.15485 0.03287 0.51896 0.0
C273 C 0.1215 0.00855 0.52601 0.0
C274 C 0.1902 0.98477 0.53811 0.0
C275 C 0.12329 0.97103 0.53563 0.0
C276 C 0.2319 0.93803 0.55624 0.0
C277 C 0.28438 -0.00052 0.58577 0.0
N278 N 0.15734 0.96039 0.54215 0.0
N279 N 0.25236 0.00535 0.56805 0.0
H280 H 0.73388 0.41347 0.88979 0.0
H281 H 0.86532 0.54102 0.02296 0.0
H282 H 0.68045 0.44451 0.98796 0.0
H283 H 0.8937 0.43465 0.97979 0.0
H284 H 0.79837 0.51269 0.01545 0.0
H285 H 0.79465 0.4303 0.92235 0.0
C286 C 0.73502 0.42413 0.91823 0.0
C287 C 0.70223 0.42801 0.93616 0.0
C288 C 0.81935 0.49503 0.0094 0.0
C289 C 0.77177 0.44656 0.97378 0.0
C290 C 0.85743 0.51103 0.01387 0.0
C291 C 0.88464 0.48993 1.00185 0.0
C292 C 0.80915 0.45834 0.99201 0.0
C293 C 0.87333 0.45163 0.98939 0.0
C294 C 0.76962 0.43311 0.93692 0.0
C295 C 0.7053 0.44133 0.97327 0.0
N296 N 0.8363 0.43732 0.98378 0.0
N297 N 0.73978 0.45081 0.99095 0.0
H298 H 0.79072 0.61551 0.40393 0.0
H299 H 0.6311 0.56408 0.54634 0.0
H300 H 0.81838 0.60154 0.51805 0.0
H301 H 0.61352 0.59848 0.43617 0.0
H302 H 0.69934 0.57856 0.53929 0.0
H303 H 0.72514 0.60664 0.41687 0.0
C304 C 0.78295 0.60966 0.43171 0.0
C305 C 0.8102 0.60859 0.45984 0.0
C306 C 0.68046 0.58349 0.51697 0.0
C307 C 0.73434 0.59984 0.47529 0.0
C308 C 0.64164 0.5756 0.52108 0.0
C309 C 0.61685 0.57972 0.49155 0.0
C310 C 0.69409 0.59554 0.48319 0.0
C311 C 0.63172 0.5944 0.45936 0.0
C312 C 0.74532 0.60528 0.43925 0.0
C313 C 0.79822 0.60238 0.49556 0.0
N314 N 0.6693 0.60144 0.45596 0.0
N315 N 0.76099 0.59813 0.50233 0.0
H316 H 0.06682 0.24964 0.1169 0.0
H317 H 0.08264 0.44369 0.0095 0.0
H318 H 0.16475 0.29371 0.05855 0.0
H319 H 0.98967 0.3983 0.07391 0.0
H320 H 0.1102 0.3857 0.01948 0.0
H321 H 0.03567 0.30035 0.09439 0.0
C322 C 0.08181 0.26999 0.0992 0.0
C323 C 0.11875 0.26769 0.08989 0.0
C324 C 0.08348 0.38821 0.03091 0.0
C325 C 0.08293 0.32646 0.06391 0.0
C326 C 0.06755 0.42114 0.02492 0.0
C327 C 0.03383 0.42594 0.04103 0.0
C328 C 0.06539 0.35987 0.05296 0.0
C329 C 0.0158 0.39599 0.06115 0.0
C330 C 0.06391 0.29904 0.08624 0.0
C331 C 0.13638 0.29468 0.06645 0.0
N332 N 0.03186 0.36456 0.06671 0.0
N333 N 0.1185 0.3232 0.05452 0.0
H334 H 0.56759 0.35839 0.96666 0.0
H335 H 0.54639 0.13369 0.95545 0.0
H336 H 0.59923 0.29743 0.87079 0.0
H337 H 0.47629 0.19495 0.02086 0.0
H338 H 0.56505 0.19188 0.92185 0.0
H339 H 0.53381 0.29771 0.98695 0.0
C340 C 0.56697 0.3322 0.94978 0.0
C341 C 0.58588 0.33263 0.91708 0.0
C342 C 0.54491 0.19217 0.94302 0.0
C343 C 0.54812 0.26342 0.94005 0.0
C344 C 0.53416 0.15899 0.96197 0.0
C345 C 0.51044 0.15997 0.99129 0.0
C346 C 0.53191 0.22613 0.95394 0.0
C347 C 0.49536 0.19339 0.99888 0.0
C348 C 0.54765 0.29769 0.96115 0.0
C349 C 0.58455 0.29809 0.89605 0.0
N350 N 0.50687 0.22537 0.98078 0.0
N351 N 0.56639 0.26466 0.90815 0.0
H352 H 0.98016 0.70435 0.45947 0.0
H353 H 0.92661 0.90193 0.53369 0.0
H354 H 0.87347 0.72087 0.5015 0.0
H355 H 0.01466 0.89297 0.45932 0.0
H356 H 0.92217 0.83358 0.54438 0.0
H357 H 0.00591 0.77093 0.4795 0.0
C358 C 0.96229 0.72149 0.47345 0.0
C359 C 0.92425 0.70673 0.47808 0.0
C360 C 0.94348 0.84686 0.52681 0.0
C361 C 0.95403 0.78252 0.50202 0.0
C362 C 0.94633 0.88592 0.52113 0.0
C363 C 0.9711 0.90274 0.49575 0.0
C364 C 0.96521 0.82471 0.50646 0.0
C365 C 0.99541 0.88077 0.47931 0.0
C366 C 0.97717 0.75938 0.48515 0.0
C367 C 0.90294 0.73024 0.49739 0.0
N368 N 0.99136 0.84256 0.48433 0.0
N369 N 0.91799 0.76695 0.50818 0.0
H370 H 0.39743 0.80541 0.66127 0.0
H371 H 0.53726 0.69901 0.56526 0.0
H372 H 0.46213 0.87022 0.58164 0.0
H373 H 0.42024 0.64844 0.56238 0.0
H374 H 0.51976 0.76282 0.5768 0.0
H375 H 0.416 0.74657 0.635 0.0
C376 C 0.41607 0.80718 0.63864 0.0
C377 C 0.4286 0.84237 0.62362 0.0
C378 C 0.49798 0.73782 0.5723 0.0
C379 C 0.44965 0.7758 0.59362 0.0
C380 C 0.50785 0.70166 0.56528 0.0
C381 C 0.47997 0.66883 0.56211 0.0
C382 C 0.46027 0.74043 0.57757 0.0
C383 C 0.44236 0.67331 0.56389 0.0
C384 C 0.42623 0.77377 0.62346 0.0
C385 C 0.45225 0.8434 0.59395 0.0
N386 N 0.43361 0.70838 0.57251 0.0
N387 N 0.46244 0.81045 0.57998 0.0
H388 H 0.90377 0.86418 0.76855 0.0
H389 H 0.97176 0.05756 0.66732 0.0
H390 H 0.90386 0.97851 0.81535 0.0
H391 H 0.95582 0.94665 0.609 0.0
H392 H 0.94679 0.02746 0.72151 0.0
H393 H 0.92397 0.89182 0.71045 0.0
C394 C 0.90821 0.89504 0.76671 0.0
C395 C 0.90194 0.91902 0.79695 0.0
C396 C 0.94836 0.00948 0.69693 0.0
C397 C 0.92476 0.95075 0.73054 0.0
C398 C 0.96262 0.02674 0.66582 0.0
C399 C 0.966 0.00464 0.63351 0.0
C400 C 0.93767 0.96945 0.69635 0.0
C401 C 0.9535 0.9648 0.63327 0.0
C402 C 0.91942 0.91075 0.73345 0.0
C403 C 0.90782 0.95878 0.79279 0.0
N404 N 0.94024 0.94836 0.66441 0.0
N405 N 0.91889 0.97324 0.76043 0.0
H406 H 0.62475 0.17252 0.31322 0.0
H407 H 0.52277 0.01639 0.16653 0.0
H408 H 0.60544 0.05483 0.34314 0.0
H409 H 0.60888 0.10933 0.13921 0.0
H410 H 0.54383 0.02902 0.23184 0.0
H411 H 0.60781 0.15073 0.24917 0.0
C412 C 0.6167 0.14206 0.30617 0.0
C413 C 0.61644 0.11536 0.33319 0.0
C414 C 0.55831 0.04606 0.21124 0.0
C415 C 0.59679 0.09023 0.26028 0.0
C416 C 0.54648 0.03881 0.17407 0.0
C417 C 0.56373 0.06219 0.14739 0.0
C418 C 0.58697 0.07721 0.22145 0.0
C419 C 0.59429 0.09092 0.15876 0.0
C420 C 0.60728 0.12963 0.26973 0.0
C421 C 0.60598 0.07615 0.32282 0.0
N422 N 0.60441 0.09804 0.19486 0.0
N423 N 0.59617 0.06463 0.28704 0.0
H424 H 0.36391 0.69265 0.34107 0.0
H425 H 0.38313 0.50084 0.43053 0.0
H426 H 0.30361 0.58141 0.30257 0.0
H427 H 0.44655 0.61114 0.46698 0.0
H428 H 0.33722 0.53268 0.39915 0.0
H429 H 0.37838 0.6667 0.39943 0.0
C430 C 0.3532 0.66279 0.34516 0.0
C431 C 0.33339 0.6386 0.31667 0.0
C432 C 0.36041 0.55007 0.415 0.0
C433 C 0.35008 0.60876 0.38343 0.0
C434 C 0.38636 0.53187 0.43325 0.0
C435 C 0.41869 0.55359 0.45071 0.0
C436 C 0.36772 0.59017 0.4134 0.0
C437 C 0.42193 0.59355 0.45352 0.0
C438 C 0.36132 0.64804 0.37861 0.0
C439 C 0.31947 0.60058 0.32375 0.0
N440 N 0.39731 0.61071 0.43397 0.0
N441 N 0.32878 0.58651 0.3562 0.0
H442 H 0.14876 0.52384 0.74738 0.0
H443 H 0.03426 0.43781 0.91412 0.0
H444 H 0.06676 0.42018 0.74334 0.0
H445 H 0.08551 0.55661 0.91324 0.0
H446 H 0.06904 0.42347 0.86067 0.0
H447 H 0.14339 0.53019 0.81443 0.0
C448 C 0.12954 0.50263 0.76075 0.0
C449 C 0.10744 0.47219 0.74004 0.0
C450 C 0.07378 0.45248 0.87293 0.0
C451 C 0.10238 0.478 0.81611 0.0
C452 C 0.05458 0.46047 0.90395 0.0
C453 C 0.05632 0.49855 0.91723 0.0
C454 C 0.0945 0.48292 0.85532 0.0
C455 C 0.08305 0.52692 0.90326 0.0
C456 C 0.12684 0.50594 0.79882 0.0
C457 C 0.08355 0.44469 0.75829 0.0
N458 N 0.10012 0.51886 0.87197 0.0
N459 N 0.0816 0.44835 0.7953 0.0
H460 H 0.77539 0.90222 0.99442 0.0
H461 H 0.6138 0.02831 0.95833 0.0
H462 H 0.76814 0.96739 0.8986 0.0
H463 H 0.61597 0.95225 0.04658 0.0
H464 H 0.67637 0.01612 0.94181 0.0
H465 H 0.72253 0.92897 0.01922 0.0
C466 C 0.76271 0.92235 0.97879 0.0
C467 C 0.77587 0.93225 0.94445 0.0
C468 C 0.66348 0.00277 0.9653 0.0
C469 C 0.71539 0.96314 0.97234 0.0
C470 C 0.62805 0.01016 0.97497 0.0
C471 C 0.60998 0.99143 0.00397 0.0
C472 C 0.68071 0.97651 0.98483 0.0
C473 C 0.62914 0.96737 0.02412 0.0
C474 C 0.73261 0.93767 0.99286 0.0
C475 C 0.75871 0.95869 0.92515 0.0
N476 N 0.66322 0.96038 0.01404 0.0
N477 N 0.7292 0.97299 0.93926 0.0
H478 H 0.7421 0.15272 0.39152 0.0
H479 H 0.84213 0.02529 0.5184 0.0
H480 H 0.68997 0.10805 0.48819 0.0
H481 H 0.90476 0.1125 0.45631 0.0
H482 H 0.78622 0.05536 0.50965 0.0
H483 H 0.80211 0.138 0.41493 0.0
C484 C 0.74348 0.13998 0.41782 0.0
C485 C 0.7112 0.1312 0.43789 0.0
C486 C 0.81242 0.06852 0.49876 0.0
C487 C 0.77943 0.11401 0.46468 0.0
C488 C 0.84426 0.05151 0.50392 0.0
C489 C 0.87789 0.06689 0.4884 0.0
C490 C 0.81414 0.10023 0.47684 0.0
C491 C 0.8793 0.10026 0.46911 0.0
C492 C 0.77769 0.13185 0.43129 0.0
C493 C 0.71435 0.11508 0.47195 0.0
N494 N 0.84762 0.11546 0.46323 0.0
N495 N 0.7478 0.10637 0.48405 0.0
H496 H 0.28442 0.73018 0.12746 0.0
H497 H 0.15704 0.53598 0.04852 0.0
H498 H 0.30618 0.61696 0.14911 0.0
H499 H 0.12695 0.64774 0.03717 0.0
H500 H 0.21973 0.56636 0.07149 0.0
H501 H 0.23481 0.70162 0.08241 0.0
C502 C 0.27926 0.69932 0.12227 0.0
C503 C 0.29934 0.67589 0.14241 0.0
C504 C 0.19978 0.58435 0.0633 0.0
C505 C 0.24208 0.64298 0.09102 0.0
C506 C 0.16409 0.56702 0.04991 0.0
C507 C 0.13679 0.58945 0.04132 0.0
C508 C 0.20806 0.62445 0.06876 0.0
C509 C 0.14728 0.62948 0.04347 0.0
C510 C 0.25075 0.68304 0.09662 0.0
C511 C 0.291 0.63607 0.13475 0.0
N512 N 0.18194 0.64578 0.05776 0.0
N513 N 0.2628 0.62087 0.10991 0.0
H514 H 0.20155 0.42162 0.6512 0.0
H515 H 0.37373 0.49976 0.52933 0.0
H516 H 0.18534 0.45228 0.53959 0.0
H517 H 0.38018 0.49439 0.64729 0.0
H518 H 0.30661 0.47283 0.52903 0.0
H519 H 0.26907 0.43767 0.64619 0.0
C520 C 0.2124 0.43167 0.62551 0.0
C521 C 0.18803 0.43641 0.59597 0.0
C522 C 0.3229 0.47735 0.55485 0.0
C523 C 0.26543 0.45483 0.58995 0.0
C524 C 0.36116 0.49252 0.55508 0.0
C525 C 0.3825 0.49947 0.58845 0.0
C526 C 0.30617 0.46872 0.58816 0.0
C527 C 0.3648 0.48979 0.62098 0.0
C528 C 0.25093 0.44082 0.62265 0.0
C529 C 0.20339 0.4486 0.56302 0.0
N530 N 0.32771 0.47497 0.61998 0.0
N531 N 0.24134 0.45785 0.56095 0.0
H532 H 0.89921 0.84378 0.95587 0.0
H533 H 0.00954 0.67111 0.91167 0.0
H534 H 0.91781 0.79976 0.84675 0.0
H535 H 0.94521 0.67136 0.00862 0.0
H536 H 0.98921 0.73034 0.89482 0.0
H537 H 0.9255 0.79047 0.98127 0.0
C538 C 0.90858 0.82312 0.93709 0.0
C539 C 0.90629 0.82698 0.89878 0.0
C540 C 0.9799 0.71789 0.92009 0.0
C541 C 0.9377 0.76653 0.92821 0.0
C542 C 0.99183 0.68425 0.92998 0.0
C543 C 0.97902 0.66615 0.96158 0.0
C544 C 0.9548 0.73401 0.94185 0.0
C545 C 0.95601 0.68453 0.9842 0.0
C546 C 0.92386 0.79281 0.95181 0.0
C547 C 0.91971 0.79923 0.87634 0.0
N548 N 0.94423 0.71737 0.97369 0.0
N549 N 0.93493 0.77062 0.89135 0.0
H550 H 0.35767 0.81322 0.22962 0.0
H551 H 0.40062 0.94263 0.09624 0.0
H552 H 0.43429 0.76857 0.15828 0.0
H553 H 0.51582 0.9346 0.12292 0.0
H554 H 0.38166 0.90497 0.1488 0.0
H555 H 0.3862 0.87897 0.2159 0.0
C556 C 0.38112 0.81748 0.21182 0.0
C557 C 0.39354 0.78597 0.19448 0.0
C558 C 0.41131 0.91339 0.14451 0.0
C559 C 0.42641 0.85991 0.17981 0.0
C560 C 0.4221 0.93513 0.11468 0.0
C561 C 0.45965 0.941 0.1053 0.0
C562 C 0.4383 0.89676 0.1637 0.0
C563 C 0.48648 0.93011 0.1294 0.0
C564 C 0.3973 0.8547 0.20423 0.0
C565 C 0.42387 0.79238 0.17173 0.0
N566 N 0.47516 0.90674 0.1566 0.0
N567 N 0.43923 0.82882 0.16484 0.0
H568 H 0.0316 0.33819 0.62005 0.0
H569 H 0.0684 0.17664 0.49402 0.0
H570 H 0.08298 0.365 0.5173 0.0
H571 H 0.97124 0.16379 0.55964 0.0
H572 H 0.06768 0.24561 0.49348 0.0
H573 H 0.00239 0.2765 0.59285 0.0
C574 C 0.03609 0.33195 0.59143 0.0
C575 C 0.06078 0.35724 0.57139 0.0
C576 C 0.0454 0.22755 0.50656 0.0
C577 C 0.0281 0.28474 0.54039 0.0
C578 C 0.0456 0.18811 0.5065 0.0
C579 C 0.01979 0.16481 0.52685 0.0
C580 C 0.01995 0.24353 0.52817 0.0
C581 C 0.99145 0.18101 0.54348 0.0
C582 C 0.01932 0.29619 0.57588 0.0
C583 C 0.06547 0.34615 0.53447 0.0
N584 N 0.99295 0.21965 0.54479 0.0
N585 N 0.05024 0.31031 0.5205 0.0
H586 H 0.54018 0.22546 0.45136 0.0
H587 H 0.56473 0.43076 0.55743 0.0
H588 H 0.63631 0.27114 0.52312 0.0
H589 H 0.47109 0.38246 0.48368 0.0
H590 H 0.5855 0.36808 0.55598 0.0
H591 H 0.50924 0.27798 0.47254 0.0
C592 C 0.55464 0.24643 0.47192 0.0
C593 C 0.59112 0.2444 0.48528 0.0
C594 C 0.55984 0.37093 0.54092 0.0
C595 C 0.55589 0.305 0.5095 0.0
C596 C 0.54773 0.40654 0.5422 0.0
C597 C 0.51616 0.41155 0.52072 0.0
C598 C 0.54018 0.34048 0.5179 0.0
C599 C 0.49564 0.37964 0.50057 0.0
C600 C 0.53693 0.27646 0.4841 0.0
C601 C 0.60829 0.27207 0.51213 0.0
N602 N 0.50825 0.34565 0.49929 0.0
N603 N 0.59078 0.30164 0.52304 0.0
loop_
_geom_bond_atom_site_label_1
_geom_bond_atom_site_label_2
_geom_bond_distance
_geom_bond_site_symmetry_2
_ccdc_geom_bond_type
H0 C5 0.929 . S
H1 C10 0.931 . S
H2 C8 0.930 . S
N3 N4 1.234 . S
N3 C7 1.453 . S
N4 N3 1.234 . S
C5 H0 0.929 . S
C5 C6 1.373 . S
C5 C7 1.368 . S
C6 C5 1.373 . S
C6 C10 1.397 . S
C7 N3 1.453 . S
C7 C5 1.368 . S
C7 C8 1.373 . S
C8 H2 0.930 . S
C8 C7 1.373 . S
C8 C9 1.371 . S
C9 C8 1.371 . S
C9 C10 1.383 . S
C10 H1 0.931 . S
C10 C6 1.397 . S
C10 C9 1.383 . S
H11 C16 0.929 . S
H12 C21 0.931 . S
H13 C19 0.930 . S
N14 N15 1.234 . S
N14 C18 1.453 . S
N15 N14 1.234 . S
C16 H11 0.929 . S
C16 C17 1.373 . S
C16 C18 1.368 . S
C17 C16 1.373 . S
C17 C21 1.397 . S
C18 N14 1.453 . S
C18 C16 1.368 . S
C18 C19 1.373 . S
C19 H13 0.930 . S
C19 C18 1.373 . S
C19 C20 1.371 . S
C20 C19 1.371 . S
C20 C21 1.383 . S
C21 H12 0.931 . S
C21 C17 1.397 . S
C21 C20 1.383 . S
H22 C27 0.929 . S
H23 C32 0.931 . S
H24 C30 0.930 . S
N25 N26 1.234 . S
N25 C29 1.453 . S
N26 N25 1.234 . S
C27 H22 0.929 . S
C27 C28 1.373 . S
C27 C29 1.368 . S
C28 C27 1.373 . S
C28 C32 1.397 . S
C29 N25 1.453 . S
C29 C27 1.368 . S
C29 C30 1.373 . S
C30 H24 0.930 . S
C30 C29 1.373 . S
C30 C31 1.371 . S
C31 C30 1.371 . S
C31 C32 1.383 . S
C32 H23 0.931 . S
C32 C28 1.397 . S
C32 C31 1.383 . S
H33 C38 0.929 . S
H34 C43 0.931 . S
H35 C41 0.930 . S
N36 N37 1.234 . S
N36 C40 1.453 . S
N37 N36 1.234 . S
C38 H33 0.929 . S
C38 C39 1.373 . S
C38 C40 1.368 . S
C39 C38 1.373 . S
C39 C43 1.397 . S
C40 N36 1.453 . S
C40 C38 1.368 . S
C40 C41 1.373 . S
C41 H35 0.930 . S
C41 C40 1.373 . S
C41 C42 1.371 . S
C42 C41 1.371 . S
C42 C43 1.383 . S
C43 H34 0.931 . S
C43 C39 1.397 . S
C43 C42 1.383 . S
H44 C49 0.929 . S
H45 C54 0.931 . S
H46 C52 0.930 . S
N47 N48 1.234 . S
N47 C51 1.453 . S
N48 N47 1.234 . S
C49 H44 0.929 . S
C49 C50 1.373 . S
C49 C51 1.368 . S
C50 C49 1.373 . S
C50 C54 1.397 . S
C51 N47 1.453 . S
C51 C49 1.368 . S
C51 C52 1.373 . S
C52 H46 0.930 . S
C52 C51 1.373 . S
C52 C53 1.371 . S
C53 C52 1.371 . S
C53 C54 1.383 . S
C54 H45 0.931 . S
C54 C50 1.397 . S
C54 C53 1.383 . S
H55 C60 0.929 . S
H56 C65 0.931 . S
H57 C63 0.930 . S
N58 N59 1.234 . S
N58 C62 1.453 . S
N59 N58 1.234 . S
C60 H55 0.929 . S
C60 C61 1.373 . S
C60 C62 1.368 . S
C61 C60 1.373 . S
C61 C65 1.397 . S
C62 N58 1.453 . S
C62 C60 1.368 . S
C62 C63 1.373 . S
C63 H57 0.930 . S
C63 C62 1.373 . S
C63 C64 1.371 . S
C64 C63 1.371 . S
C64 C65 1.383 . S
C65 H56 0.931 . S
C65 C61 1.397 . S
C65 C64 1.383 . S
H66 C71 0.929 . S
H67 C76 0.931 . S
H68 C74 0.930 . S
N69 N70 1.234 . S
N69 C73 1.453 . S
N70 N69 1.234 . S
C71 H66 0.929 . S
C71 C72 1.373 . S
C71 C73 1.368 . S
C72 C71 1.373 . S
C72 C76 1.397 . S
C73 N69 1.453 . S
C73 C71 1.368 . S
C73 C74 1.373 . S
C74 H68 0.930 . S
C74 C73 1.373 . S
C74 C75 1.371 . S
C75 C74 1.371 . S
C75 C76 1.383 . S
C76 H67 0.931 . S
C76 C72 1.397 . S
C76 C75 1.383 . S
H77 C82 0.929 . S
H78 C87 0.931 . S
H79 C85 0.930 . S
N80 N81 1.234 . S
N80 C84 1.453 . S
N81 N80 1.234 . S
C82 H77 0.929 . S
C82 C83 1.373 . S
C82 C84 1.368 . S
C83 C82 1.373 . S
C83 C87 1.397 . S
C84 N80 1.453 . S
C84 C82 1.368 . S
C84 C85 1.373 . S
C85 H79 0.930 . S
C85 C84 1.373 . S
C85 C86 1.371 . S
C86 C85 1.371 . S
C86 C87 1.383 . S
C87 H78 0.931 . S
C87 C83 1.397 . S
C87 C86 1.383 . S
O88 Mg89 1.990 . S
O88 C102 1.253 1_455 S
Mg89 O88 1.990 . S
Mg89 O92 2.180 . S
Mg89 O93 2.117 . S
Mg89 O107 2.030 . S
O90 Mg91 2.072 1_665 S
O90 C102 1.260 1_565 S
Mg91 O90 2.072 1_445 S
Mg91 O92 2.099 . S
Mg91 O94 2.079 . S
Mg91 O95 2.072 1_455 S
Mg91 O97 2.099 1_445 S
Mg91 O108 2.079 . S
O92 Mg89 2.180 . S
O92 Mg91 2.099 . S
O92 C103 1.279 . S
O93 Mg89 2.117 . S
O93 C103 1.250 . S
O94 Mg91 2.079 . S
O94 C104 1.264 . S
O95 Mg91 2.072 1_655 S
O95 C105 1.260 . S
Mg96 O97 2.180 . S
Mg96 O98 2.030 1_565 S
Mg96 O99 1.990 1_565 S
Mg96 O100 2.117 . S
O97 Mg91 2.099 1_665 S
O97 Mg96 2.180 . S
O97 C106 1.279 . S
O98 Mg96 2.030 1_545 S
O98 C104 1.248 1_655 S
O99 Mg96 1.990 1_545 S
O99 C105 1.253 . S
O100 Mg96 2.117 . S
O100 C106 1.250 . S
C101 O107 1.248 . S
C101 O108 1.264 . S
C102 O88 1.253 1_655 S
C102 O90 1.260 1_545 S
C103 O92 1.279 . S
C103 O93 1.250 . S
C104 O94 1.264 . S
C104 O98 1.248 1_455 S
C105 O95 1.260 . S
C105 O99 1.253 . S
C106 O97 1.279 . S
C106 O100 1.250 . S
O107 Mg89 2.030 . S
O107 C101 1.248 . S
O108 Mg91 2.079 . S
O108 C101 1.264 . S
O109 Mg110 1.990 . S
O109 C123 1.253 . S
Mg110 O109 1.990 . S
Mg110 O113 2.180 . S
Mg110 O114 2.117 . S
Mg110 O128 2.030 . S
O111 Mg112 2.072 . S
O111 C123 1.260 . S
Mg112 O111 2.072 . S
Mg112 O113 2.099 . S
Mg112 O115 2.079 . S
Mg112 O116 2.072 1_554 S
Mg112 O118 2.099 1_545 S
Mg112 O129 2.079 . S
O113 Mg110 2.180 . S
O113 Mg112 2.099 . S
O113 C124 1.279 . S
O114 Mg110 2.117 . S
O114 C124 1.250 . S
O115 Mg112 2.079 . S
O115 C125 1.265 1_545 S
O116 Mg112 2.072 1_556 S
O116 C126 1.248 1_545 S
Mg117 O118 2.205 . S
Mg117 O119 2.021 1_554 S
Mg117 O120 1.968 1_554 S
Mg117 O121 2.137 . S
O118 Mg112 2.099 1_565 S
O118 Mg117 2.205 . S
O118 C127 1.279 . S
O119 Mg117 2.021 1_556 S
O119 C125 1.246 1_556 S
O120 Mg117 1.968 1_556 S
O120 C126 1.271 . S
O121 Mg117 2.137 . S
O121 C127 1.250 . S
C122 O128 1.248 . S
C122 O129 1.264 . S
C123 O109 1.253 . S
C123 O111 1.260 . S
C124 O113 1.279 . S
C124 O114 1.250 . S
C125 O115 1.265 1_565 S
C125 O119 1.246 1_554 S
C126 O116 1.248 1_565 S
C126 O120 1.271 . S
C127 O118 1.279 . S
C127 O121 1.250 . S
O128 Mg110 2.030 . S
O128 C122 1.248 . S
O129 Mg112 2.079 . S
O129 C122 1.264 . S
O130 Mg131 1.990 . S
O130 C144 1.253 . S
Mg131 O130 1.990 . S
Mg131 O134 2.180 . S
Mg131 O135 2.117 . S
Mg131 O149 2.030 . S
O132 Mg133 2.072 . S
O132 C144 1.260 . S
Mg133 O132 2.072 . S
Mg133 O134 2.099 . S
Mg133 O136 2.079 . S
Mg133 O137 2.072 . S
Mg133 O139 2.099 . S
Mg133 O150 2.079 . S
O134 Mg131 2.180 . S
O134 Mg133 2.099 . S
O134 C145 1.279 . S
O135 Mg131 2.117 . S
O135 C145 1.250 . S
O136 Mg133 2.079 . S
O136 C146 1.264 . S
O137 Mg133 2.072 . S
O137 C147 1.260 . S
Mg138 O139 2.180 . S
Mg138 O140 2.030 . S
Mg138 O141 1.990 . S
Mg138 O142 2.117 . S
O139 Mg133 2.099 . S
O139 Mg138 2.180 . S
O139 C148 1.279 . S
O140 Mg138 2.030 . S
O140 C146 1.248 . S
O141 Mg138 1.990 . S
O141 C147 1.253 . S
O142 Mg138 2.117 . S
O142 C148 1.250 . S
C143 O149 1.248 . S
C143 O150 1.264 . S
C144 O130 1.253 . S
C144 O132 1.260 . S
C145 O134 1.279 . S
C145 O135 1.250 . S
C146 O136 1.264 . S
C146 O140 1.248 . S
C147 O137 1.260 . S
C147 O141 1.253 . S
C148 O139 1.279 . S
C148 O142 1.250 . S
O149 Mg131 2.030 . S
O149 C143 1.248 . S
O150 Mg133 2.079 . S
O150 C143 1.264 . S
O151 Mg152 1.990 . S
O151 C165 1.253 . S
Mg152 O151 1.990 . S
Mg152 O155 2.180 . S
Mg152 O156 2.117 1_455 S
Mg152 O170 2.030 . S
O153 Mg154 2.072 . S
O153 C165 1.260 . S
Mg154 O153 2.072 . S
Mg154 O155 2.099 . S
Mg154 O157 2.079 1_554 S
Mg154 O158 2.072 1_455 S
Mg154 O160 2.099 1_554 S
Mg154 O171 2.079 . S
O155 Mg152 2.180 . S
O155 Mg154 2.099 . S
O155 C166 1.279 1_455 S
O156 Mg152 2.117 1_655 S
O156 C166 1.250 . S
O157 Mg154 2.079 1_556 S
O157 C167 1.263 1_455 S
O158 Mg154 2.072 1_655 S
O158 C168 1.260 1_554 S
Mg159 O160 2.180 1_655 S
Mg159 O161 2.030 . S
Mg159 O162 1.990 . S
Mg159 O163 2.117 1_655 S
O160 Mg154 2.099 1_556 S
O160 Mg159 2.180 1_455 S
O160 C169 1.279 . S
O161 Mg159 2.030 . S
O161 C167 1.248 . S
O162 Mg159 1.990 . S
O162 C168 1.253 . S
O163 Mg159 2.117 1_455 S
O163 C169 1.250 . S
C164 O170 1.248 . S
C164 O171 1.264 . S
C165 O151 1.253 . S
C165 O153 1.260 . S
C166 O155 1.279 1_655 S
C166 O156 1.250 . S
C167 O157 1.263 1_655 S
C167 O161 1.248 . S
C168 O158 1.260 1_556 S
C168 O162 1.253 . S
C169 O160 1.279 . S
C169 O163 1.250 . S
O170 Mg152 2.030 . S
O170 C164 1.248 . S
O171 Mg154 2.079 . S
O171 C164 1.264 . S
H172 C178 0.930 . S
H173 C182 0.930 . S
H174 C187 0.929 . S
H175 C185 0.929 . S
H176 C180 0.929 . S
H177 C186 0.929 . S
C178 H172 0.930 . S
C178 C179 1.367 . S
C178 C186 1.378 . S
C179 C178 1.367 . S
C179 C187 1.433 . S
C180 H176 0.929 . S
C180 C182 1.378 . S
C180 C184 1.350 . S
C181 C184 1.463 . S
C181 C186 1.350 . S
C181 N189 1.427 . S
C182 H173 0.930 . S
C182 C180 1.378 . S
C182 C183 1.367 . S
C183 C182 1.367 . S
C183 C185 1.433 . S
C184 C180 1.350 . S
C184 C181 1.463 . S
C184 N188 1.427 . S
C185 H175 0.929 . S
C185 C183 1.433 . S
C185 N188 1.384 . S
C186 H177 0.929 . S
C186 C178 1.378 . S
C186 C181 1.350 . S
C187 H174 0.929 . S
C187 C179 1.433 . S
C187 N189 1.384 . S
N188 C184 1.427 . S
N188 C185 1.384 . S
N189 C181 1.427 . S
N189 C187 1.384 . S
H190 C196 0.930 . S
H191 C200 0.930 . S
H192 C205 0.929 . S
H193 C203 0.929 . S
H194 C198 0.929 . S
H195 C204 0.929 . S
C196 H190 0.930 . S
C196 C197 1.367 . S
C196 C204 1.378 . S
C197 C196 1.367 . S
C197 C205 1.433 . S
C198 H194 0.929 . S
C198 C200 1.378 . S
C198 C202 1.350 1_545 S
C199 C202 1.463 . S
C199 C204 1.350 . S
C199 N207 1.427 . S
C200 H191 0.930 . S
C200 C198 1.378 . S
C200 C201 1.367 1_545 S
C201 C200 1.367 1_565 S
C201 C203 1.433 . S
C202 C198 1.350 1_565 S
C202 C199 1.463 . S
C202 N206 1.427 . S
C203 H193 0.929 . S
C203 C201 1.433 . S
C203 N206 1.384 . S
C204 H195 0.929 . S
C204 C196 1.378 . S
C204 C199 1.350 . S
C205 H192 0.929 . S
C205 C197 1.433 . S
C205 N207 1.384 . S
N206 C202 1.427 . S
N206 C203 1.384 . S
N207 C199 1.427 . S
N207 C205 1.384 . S
H208 C214 0.930 . S
H209 C218 0.930 . S
H210 C223 0.929 . S
H211 C221 0.929 . S
H212 C216 0.929 . S
H213 C222 0.929 . S
C214 H208 0.930 . S
C214 C215 1.367 . S
C214 C222 1.378 . S
C215 C214 1.367 . S
C215 C223 1.433 . S
C216 H212 0.929 . S
C216 C218 1.378 . S
C216 C220 1.350 . S
C217 C220 1.463 . S
C217 C222 1.350 . S
C217 N225 1.427 . S
C218 H209 0.930 . S
C218 C216 1.378 . S
C218 C219 1.367 . S
C219 C218 1.367 . S
C219 C221 1.433 . S
C220 C216 1.350 . S
C220 C217 1.463 . S
C220 N224 1.427 . S
C221 H211 0.929 . S
C221 C219 1.433 . S
C221 N224 1.384 . S
C222 H213 0.929 . S
C222 C214 1.378 . S
C222 C217 1.350 . S
C223 H210 0.929 . S
C223 C215 1.433 . S
C223 N225 1.384 . S
N224 C220 1.427 . S
N224 C221 1.384 . S
N225 C217 1.427 . S
N225 C223 1.384 . S
H226 C232 0.930 . S
H227 C236 0.930 . S
H228 C241 0.929 . S
H229 C239 0.929 . S
H230 C234 0.929 . S
H231 C240 0.929 . S
C232 H226 0.930 . S
C232 C233 1.367 . S
C232 C240 1.378 . S
C233 C232 1.367 . S
C233 C241 1.433 . S
C234 H230 0.929 . S
C234 C236 1.378 . S
C234 C238 1.350 . S
C235 C238 1.463 . S
C235 C240 1.350 . S
C235 N243 1.427 . S
C236 H227 0.930 . S
C236 C234 1.378 . S
C236 C237 1.367 . S
C237 C236 1.367 . S
C237 C239 1.433 . S
C238 C234 1.350 . S
C238 C235 1.463 . S
C238 N242 1.427 . S
C239 H229 0.929 . S
C239 C237 1.433 . S
C239 N242 1.384 . S
C240 H231 0.929 . S
C240 C232 1.378 . S
C240 C235 1.350 . S
C241 H228 0.929 . S
C241 C233 1.433 . S
C241 N243 1.384 . S
N242 C238 1.427 . S
N242 C239 1.384 . S
N243 C235 1.427 . S
N243 C241 1.384 . S
H244 C250 0.930 . S
H245 C254 0.930 . S
H246 C259 0.929 . S
H247 C257 0.929 . S
H248 C252 0.929 . S
H249 C258 0.929 . S
C250 H244 0.930 . S
C250 C251 1.367 . S
C250 C258 1.378 . S
C251 C250 1.367 . S
C251 C259 1.433 . S
C252 H248 0.929 . S
C252 C254 1.378 . S
C252 C256 1.350 . S
C253 C256 1.463 . S
C253 C258 1.350 . S
C253 N261 1.427 . S
C254 H245 0.930 . S
C254 C252 1.378 . S
C254 C255 1.367 . S
C255 C254 1.367 . S
C255 C257 1.433 . S
C256 C252 1.350 . S
C256 C253 1.463 . S
C256 N260 1.427 . S
C257 H247 0.929 . S
C257 C255 1.433 . S
C257 N260 1.384 . S
C258 H249 0.929 . S
C258 C250 1.378 . S
C258 C253 1.350 . S
C259 H246 0.929 . S
C259 C251 1.433 . S
C259 N261 1.384 . S
N260 C256 1.427 . S
N260 C257 1.384 . S
N261 C253 1.427 . S
N261 C259 1.384 . S
H262 C268 0.930 . S
H263 C272 0.930 . S
H264 C277 0.929 1_545 S
H265 C275 0.929 . S
H266 C270 0.929 . S
H267 C276 0.929 . S
C268 H262 0.930 . S
C268 C269 1.367 . S
C268 C276 1.378 . S
C269 C268 1.367 . S
C269 C277 1.433 . S
C270 H266 0.929 . S
C270 C272 1.378 . S
C270 C274 1.350 1_545 S
C271 C274 1.463 . S
C271 C276 1.350 . S
C271 N279 1.427 . S
C272 H263 0.930 . S
C272 C270 1.378 . S
C272 C273 1.367 1_545 S
C273 C272 1.367 1_565 S
C273 C275 1.433 . S
C274 C270 1.350 1_565 S
C274 C271 1.463 . S
C274 N278 1.427 . S
C275 H265 0.929 . S
C275 C273 1.433 . S
C275 N278 1.384 . S
C276 H267 0.929 . S
C276 C268 1.378 . S
C276 C271 1.350 . S
C277 H264 0.929 1_565 S
C277 C269 1.433 . S
C277 N279 1.384 . S
N278 C274 1.427 . S
N278 C275 1.384 . S
N279 C271 1.427 . S
N279 C277 1.384 . S
H280 C286 0.930 . S
H281 C290 0.930 1_554 S
H282 C295 0.929 . S
H283 C293 0.929 . S
H284 C288 0.929 . S
H285 C294 0.929 . S
C286 H280 0.930 . S
C286 C287 1.367 . S
C286 C294 1.378 . S
C287 C286 1.367 . S
C287 C295 1.433 . S
C288 H284 0.929 . S
C288 C290 1.378 . S
C288 C292 1.350 . S
C289 C292 1.463 . S
C289 C294 1.350 . S
C289 N297 1.427 . S
C290 H281 0.930 1_556 S
C290 C288 1.378 . S
C290 C291 1.367 . S
C291 C290 1.367 . S
C291 C293 1.433 . S
C292 C288 1.350 . S
C292 C289 1.463 . S
C292 N296 1.427 . S
C293 H283 0.929 . S
C293 C291 1.433 . S
C293 N296 1.384 . S
C294 H285 0.929 . S
C294 C286 1.378 . S
C294 C289 1.350 . S
C295 H282 0.929 . S
C295 C287 1.433 . S
C295 N297 1.384 . S
N296 C292 1.427 . S
N296 C293 1.384 . S
N297 C289 1.427 . S
N297 C295 1.384 . S
H298 C304 0.930 . S
H299 C308 0.930 . S
H300 C313 0.929 . S
H301 C311 0.929 . S
H302 C306 0.929 . S
H303 C312 0.929 . S
C304 H298 0.930 . S
C304 C305 1.367 . S
C304 C312 1.378 . S
C305 C304 1.367 . S
C305 C313 1.433 . S
C306 H302 0.929 . S
C306 C308 1.378 . S
C306 C310 1.350 . S
C307 C310 1.463 . S
C307 C312 1.350 . S
C307 N315 1.427 . S
C308 H299 0.930 . S
C308 C306 1.378 . S
C308 C309 1.367 . S
C309 C308 1.367 . S
C309 C311 1.433 . S
C310 C306 1.350 . S
C310 C307 1.463 . S
C310 N314 1.427 . S
C311 H301 0.929 . S
C311 C309 1.433 . S
C311 N314 1.384 . S
C312 H303 0.929 . S
C312 C304 1.378 . S
C312 C307 1.350 . S
C313 H300 0.929 . S
C313 C305 1.433 . S
C313 N315 1.384 . S
N314 C310 1.427 . S
N314 C311 1.384 . S
N315 C307 1.427 . S
N315 C313 1.384 . S
H316 C322 0.930 . S
H317 C326 0.930 . S
H318 C331 0.929 . S
H319 C329 0.929 1_655 S
H320 C324 0.929 . S
H321 C330 0.929 . S
C322 H316 0.930 . S
C322 C323 1.367 . S
C322 C330 1.378 . S
C323 C322 1.367 . S
C323 C331 1.433 . S
C324 H320 0.929 . S
C324 C326 1.378 . S
C324 C328 1.350 . S
C325 C328 1.463 . S
C325 C330 1.350 . S
C325 N333 1.427 . S
C326 H317 0.930 . S
C326 C324 1.378 . S
C326 C327 1.367 . S
C327 C326 1.367 . S
C327 C329 1.433 . S
C328 C324 1.350 . S
C328 C325 1.463 . S
C328 N332 1.427 . S
C329 H319 0.929 1_455 S
C329 C327 1.433 . S
C329 N332 1.384 . S
C330 H321 0.929 . S
C330 C322 1.378 . S
C330 C325 1.350 . S
C331 H318 0.929 . S
C331 C323 1.433 . S
C331 N333 1.384 . S
N332 C328 1.427 . S
N332 C329 1.384 . S
N333 C325 1.427 . S
N333 C331 1.384 . S
H334 C340 0.930 . S
H335 C344 0.930 . S
H336 C349 0.929 . S
H337 C347 0.929 . S
H338 C342 0.929 . S
H339 C348 0.929 . S
C340 H334 0.930 . S
C340 C341 1.367 . S
C340 C348 1.378 . S
C341 C340 1.367 . S
C341 C349 1.433 . S
C342 H338 0.929 . S
C342 C344 1.378 . S
C342 C346 1.350 . S
C343 C346 1.463 . S
C343 C348 1.350 . S
C343 N351 1.427 . S
C344 H335 0.930 . S
C344 C342 1.378 . S
C344 C345 1.367 . S
C345 C344 1.367 . S
C345 C347 1.433 1_556 S
C346 C342 1.350 . S
C346 C343 1.463 . S
C346 N350 1.427 . S
C347 H337 0.929 . S
C347 C345 1.433 1_554 S
C347 N350 1.384 1_554 S
C348 H339 0.929 . S
C348 C340 1.378 . S
C348 C343 1.350 . S
C349 H336 0.929 . S
C349 C341 1.433 . S
C349 N351 1.384 . S
N350 C346 1.427 . S
N350 C347 1.384 1_556 S
N351 C343 1.427 . S
N351 C349 1.384 . S
H352 C358 0.930 . S
H353 C362 0.930 . S
H354 C367 0.929 . S
H355 C365 0.929 1_455 S
H356 C360 0.929 . S
H357 C366 0.929 . S
C358 H352 0.930 . S
C358 C359 1.367 . S
C358 C366 1.378 . S
C359 C358 1.367 . S
C359 C367 1.433 . S
C360 H356 0.929 . S
C360 C362 1.378 . S
C360 C364 1.350 . S
C361 C364 1.463 . S
C361 C366 1.350 . S
C361 N369 1.427 . S
C362 H353 0.930 . S
C362 C360 1.378 . S
C362 C363 1.367 . S
C363 C362 1.367 . S
C363 C365 1.433 . S
C364 C360 1.350 . S
C364 C361 1.463 . S
C364 N368 1.427 . S
C365 H355 0.929 1_655 S
C365 C363 1.433 . S
C365 N368 1.384 . S
C366 H357 0.929 . S
C366 C358 1.378 . S
C366 C361 1.350 . S
C367 H354 0.929 . S
C367 C359 1.433 . S
C367 N369 1.384 . S
N368 C364 1.427 . S
N368 C365 1.384 . S
N369 C361 1.427 . S
N369 C367 1.384 . S
H370 C376 0.930 . S
H371 C380 0.930 . S
H372 C385 0.929 . S
H373 C383 0.929 . S
H374 C378 0.929 . S
H375 C384 0.929 . S
C376 H370 0.930 . S
C376 C377 1.367 . S
C376 C384 1.378 . S
C377 C376 1.367 . S
C377 C385 1.433 . S
C378 H374 0.929 . S
C378 C380 1.378 . S
C378 C382 1.350 . S
C379 C382 1.463 . S
C379 C384 1.350 . S
C379 N387 1.427 . S
C380 H371 0.930 . S
C380 C378 1.378 . S
C380 C381 1.367 . S
C381 C380 1.367 . S
C381 C383 1.433 . S
C382 C378 1.350 . S
C382 C379 1.463 . S
C382 N386 1.427 . S
C383 H373 0.929 . S
C383 C381 1.433 . S
C383 N386 1.384 . S
C384 H375 0.929 . S
C384 C376 1.378 . S
C384 C379 1.350 . S
C385 H372 0.929 . S
C385 C377 1.433 . S
C385 N387 1.384 . S
N386 C382 1.427 . S
N386 C383 1.384 . S
N387 C379 1.427 . S
N387 C385 1.384 . S
H388 C394 0.930 . S
H389 C398 0.930 . S
H390 C403 0.929 . S
H391 C401 0.929 . S
H392 C396 0.929 1_545 S
H393 C402 0.929 . S
C394 H388 0.930 . S
C394 C395 1.367 . S
C394 C402 1.378 . S
C395 C394 1.367 . S
C395 C403 1.433 . S
C396 H392 0.929 1_565 S
C396 C398 1.378 1_565 S
C396 C400 1.350 . S
C397 C400 1.463 . S
C397 C402 1.350 . S
C397 N405 1.427 . S
C398 H389 0.930 . S
C398 C396 1.378 1_545 S
C398 C399 1.367 1_545 S
C399 C398 1.367 1_565 S
C399 C401 1.433 . S
C400 C396 1.350 . S
C400 C397 1.463 . S
C400 N404 1.427 . S
C401 H391 0.929 . S
C401 C399 1.433 . S
C401 N404 1.384 . S
C402 H393 0.929 . S
C402 C394 1.378 . S
C402 C397 1.350 . S
C403 H390 0.929 . S
C403 C395 1.433 . S
C403 N405 1.384 . S
N404 C400 1.427 . S
N404 C401 1.384 . S
N405 C397 1.427 . S
N405 C403 1.384 . S
H406 C412 0.930 . S
H407 C416 0.930 . S
H408 C421 0.929 . S
H409 C419 0.929 . S
H410 C414 0.929 . S
H411 C420 0.929 . S
C412 H406 0.930 . S
C412 C413 1.367 . S
C412 C420 1.378 . S
C413 C412 1.367 . S
C413 C421 1.433 . S
C414 H410 0.929 . S
C414 C416 1.378 . S
C414 C418 1.350 . S
C415 C418 1.463 . S
C415 C420 1.350 . S
C415 N423 1.427 . S
C416 H407 0.930 . S
C416 C414 1.378 . S
C416 C417 1.367 . S
C417 C416 1.367 . S
C417 C419 1.433 . S
C418 C414 1.350 . S
C418 C415 1.463 . S
C418 N422 1.427 . S
C419 H409 0.929 . S
C419 C417 1.433 . S
C419 N422 1.384 . S
C420 H411 0.929 . S
C420 C412 1.378 . S
C420 C415 1.350 . S
C421 H408 0.929 . S
C421 C413 1.433 . S
C421 N423 1.384 . S
N422 C418 1.427 . S
N422 C419 1.384 . S
N423 C415 1.427 . S
N423 C421 1.384 . S
H424 C430 0.930 . S
H425 C434 0.930 . S
H426 C439 0.929 . S
H427 C437 0.929 . S
H428 C432 0.929 . S
H429 C438 0.929 . S
C430 H424 0.930 . S
C430 C431 1.367 . S
C430 C438 1.378 . S
C431 C430 1.367 . S
C431 C439 1.433 . S
C432 H428 0.929 . S
C432 C434 1.378 . S
C432 C436 1.350 . S
C433 C436 1.463 . S
C433 C438 1.350 . S
C433 N441 1.427 . S
C434 H425 0.930 . S
C434 C432 1.378 . S
C434 C435 1.367 . S
C435 C434 1.367 . S
C435 C437 1.433 . S
C436 C432 1.350 . S
C436 C433 1.463 . S
C436 N440 1.427 . S
C437 H427 0.929 . S
C437 C435 1.433 . S
C437 N440 1.384 . S
C438 H429 0.929 . S
C438 C430 1.378 . S
C438 C433 1.350 . S
C439 H426 0.929 . S
C439 C431 1.433 . S
C439 N441 1.384 . S
N440 C436 1.427 . S
N440 C437 1.384 . S
N441 C433 1.427 . S
N441 C439 1.384 . S
H442 C448 0.930 . S
H443 C452 0.930 . S
H444 C457 0.929 . S
H445 C455 0.929 . S
H446 C450 0.929 . S
H447 C456 0.929 . S
C448 H442 0.930 . S
C448 C449 1.367 . S
C448 C456 1.378 . S
C449 C448 1.367 . S
C449 C457 1.433 . S
C450 H446 0.929 . S
C450 C452 1.378 . S
C450 C454 1.350 . S
C451 C454 1.463 . S
C451 C456 1.350 . S
C451 N459 1.427 . S
C452 H443 0.930 . S
C452 C450 1.378 . S
C452 C453 1.367 . S
C453 C452 1.367 . S
C453 C455 1.433 . S
C454 C450 1.350 . S
C454 C451 1.463 . S
C454 N458 1.427 . S
C455 H445 0.929 . S
C455 C453 1.433 . S
C455 N458 1.384 . S
C456 H447 0.929 . S
C456 C448 1.378 . S
C456 C451 1.350 . S
C457 H444 0.929 . S
C457 C449 1.433 . S
C457 N459 1.384 . S
N458 C454 1.427 . S
N458 C455 1.384 . S
N459 C451 1.427 . S
N459 C457 1.384 . S
H460 C466 0.930 . S
H461 C470 0.930 . S
H462 C475 0.929 . S
H463 C473 0.929 . S
H464 C468 0.929 . S
H465 C474 0.929 . S
C466 H460 0.930 . S
C466 C467 1.367 . S
C466 C474 1.378 . S
C467 C466 1.367 . S
C467 C475 1.433 . S
C468 H464 0.929 . S
C468 C470 1.378 . S
C468 C472 1.350 1_545 S
C469 C472 1.463 . S
C469 C474 1.350 . S
C469 N477 1.427 . S
C470 H461 0.930 . S
C470 C468 1.378 . S
C470 C471 1.364 1_545 S
C471 C470 1.364 1_565 S
C471 C473 1.438 1_556 S
C472 C468 1.350 1_565 S
C472 C469 1.463 . S
C472 N476 1.427 1_556 S
C473 H463 0.929 . S
C473 C471 1.438 1_554 S
C473 N476 1.384 . S
C474 H465 0.929 . S
C474 C466 1.378 . S
C474 C469 1.350 . S
C475 H462 0.929 . S
C475 C467 1.433 . S
C475 N477 1.384 . S
N476 C472 1.427 1_554 S
N476 C473 1.384 . S
N477 C469 1.427 . S
N477 C475 1.384 . S
H478 C484 0.930 . S
H479 C488 0.930 . S
H480 C493 0.929 . S
H481 C491 0.929 . S
H482 C486 0.929 . S
H483 C492 0.929 . S
C484 H478 0.930 . S
C484 C485 1.367 . S
C484 C492 1.378 . S
C485 C484 1.367 . S
C485 C493 1.433 . S
C486 H482 0.929 . S
C486 C488 1.378 . S
C486 C490 1.350 . S
C487 C490 1.463 . S
C487 C492 1.350 . S
C487 N495 1.427 . S
C488 H479 0.930 . S
C488 C486 1.378 . S
C488 C489 1.367 . S
C489 C488 1.367 . S
C489 C491 1.433 . S
C490 C486 1.350 . S
C490 C487 1.463 . S
C490 N494 1.427 . S
C491 H481 0.929 . S
C491 C489 1.433 . S
C491 N494 1.384 . S
C492 H483 0.929 . S
C492 C484 1.378 . S
C492 C487 1.350 . S
C493 H480 0.929 . S
C493 C485 1.433 . S
C493 N495 1.384 . S
N494 C490 1.427 . S
N494 C491 1.384 . S
N495 C487 1.427 . S
N495 C493 1.384 . S
H496 C502 0.930 . S
H497 C506 0.930 . S
H498 C511 0.929 . S
H499 C509 0.929 . S
H500 C504 0.929 . S
H501 C510 0.929 . S
C502 H496 0.930 . S
C502 C503 1.367 . S
C502 C510 1.378 . S
C503 C502 1.367 . S
C503 C511 1.433 . S
C504 H500 0.929 . S
C504 C506 1.378 . S
C504 C508 1.350 . S
C505 C508 1.463 . S
C505 C510 1.350 . S
C505 N513 1.427 . S
C506 H497 0.930 . S
C506 C504 1.378 . S
C506 C507 1.367 . S
C507 C506 1.367 . S
C507 C509 1.433 . S
C508 C504 1.350 . S
C508 C505 1.463 . S
C508 N512 1.427 . S
C509 H499 0.929 . S
C509 C507 1.433 . S
C509 N512 1.384 . S
C510 H501 0.929 . S
C510 C502 1.378 . S
C510 C505 1.350 . S
C511 H498 0.929 . S
C511 C503 1.433 . S
C511 N513 1.384 . S
N512 C508 1.427 . S
N512 C509 1.384 . S
N513 C505 1.427 . S
N513 C511 1.384 . S
H514 C520 0.930 . S
H515 C524 0.930 . S
H516 C529 0.929 . S
H517 C527 0.929 . S
H518 C522 0.929 . S
H519 C528 0.929 . S
C520 H514 0.930 . S
C520 C521 1.367 . S
C520 C528 1.378 . S
C521 C520 1.367 . S
C521 C529 1.433 . S
C522 H518 0.929 . S
C522 C524 1.378 . S
C522 C526 1.350 . S
C523 C526 1.463 . S
C523 C528 1.350 . S
C523 N531 1.427 . S
C524 H515 0.930 . S
C524 C522 1.378 . S
C524 C525 1.367 . S
C525 C524 1.367 . S
C525 C527 1.433 . S
C526 C522 1.350 . S
C526 C523 1.463 . S
C526 N530 1.427 . S
C527 H517 0.929 . S
C527 C525 1.433 . S
C527 N530 1.384 . S
C528 H519 0.929 . S
C528 C520 1.378 . S
C528 C523 1.350 . S
C529 H516 0.929 . S
C529 C521 1.433 . S
C529 N531 1.384 . S
N530 C526 1.427 . S
N530 C527 1.384 . S
N531 C523 1.427 . S
N531 C529 1.384 . S
H532 C538 0.930 . S
H533 C542 0.930 . S
H534 C547 0.929 . S
H535 C545 0.900 1_554 S
H536 C540 0.929 . S
H537 C546 0.929 . S
C538 H532 0.930 . S
C538 C539 1.367 . S
C538 C546 1.378 . S
C539 C538 1.367 . S
C539 C547 1.433 . S
C540 H536 0.929 . S
C540 C542 1.378 . S
C540 C544 1.350 . S
C541 C544 1.463 . S
C541 C546 1.350 . S
C541 N549 1.427 . S
C542 H533 0.930 . S
C542 C540 1.378 . S
C542 C543 1.367 . S
C543 C542 1.367 . S
C543 C545 1.453 . S
C544 C540 1.350 . S
C544 C541 1.463 . S
C544 N548 1.427 . S
C545 H535 0.900 1_556 S
C545 C543 1.453 . S
C545 N548 1.394 . S
C546 H537 0.929 . S
C546 C538 1.378 . S
C546 C541 1.350 . S
C547 H534 0.929 . S
C547 C539 1.433 . S
C547 N549 1.384 . S
N548 C544 1.427 . S
N548 C545 1.394 . S
N549 C541 1.427 . S
N549 C547 1.384 . S
H550 C556 0.930 . S
H551 C560 0.930 . S
H552 C565 0.929 . S
H553 C563 0.929 . S
H554 C558 0.929 . S
H555 C564 0.929 . S
C556 H550 0.930 . S
C556 C557 1.367 . S
C556 C564 1.378 . S
C557 C556 1.367 . S
C557 C565 1.433 . S
C558 H554 0.929 . S
C558 C560 1.378 . S
C558 C562 1.350 . S
C559 C562 1.463 . S
C559 C564 1.350 . S
C559 N567 1.427 . S
C560 H551 0.930 . S
C560 C558 1.378 . S
C560 C561 1.367 . S
C561 C560 1.367 . S
C561 C563 1.433 . S
C562 C558 1.350 . S
C562 C559 1.463 . S
C562 N566 1.427 . S
C563 H553 0.929 . S
C563 C561 1.433 . S
C563 N566 1.384 . S
C564 H555 0.929 . S
C564 C556 1.378 . S
C564 C559 1.350 . S
C565 H552 0.929 . S
C565 C557 1.433 . S
C565 N567 1.384 . S
N566 C562 1.427 . S
N566 C563 1.384 . S
N567 C559 1.427 . S
N567 C565 1.384 . S
H568 C574 0.930 . S
H569 C578 0.930 . S
H570 C583 0.929 . S
H571 C581 0.929 . S
H572 C576 0.929 . S
H573 C582 0.929 . S
C574 H568 0.930 . S
C574 C575 1.367 . S
C574 C582 1.378 . S
C575 C574 1.367 . S
C575 C583 1.433 . S
C576 H572 0.929 . S
C576 C578 1.378 . S
C576 C580 1.350 . S
C577 C580 1.463 . S
C577 C582 1.350 . S
C577 N585 1.427 . S
C578 H569 0.930 . S
C578 C576 1.378 . S
C578 C579 1.367 . S
C579 C578 1.367 . S
C579 C581 1.433 . S
C580 C576 1.350 . S
C580 C577 1.463 . S
C580 N584 1.427 . S
C581 H571 0.929 . S
C581 C579 1.433 . S
C581 N584 1.384 . S
C582 H573 0.929 . S
C582 C574 1.378 . S
C582 C577 1.350 . S
C583 H570 0.929 . S
C583 C575 1.433 . S
C583 N585 1.384 . S
N584 C580 1.427 . S
N584 C581 1.384 . S
N585 C577 1.427 . S
N585 C583 1.384 . S
H586 C592 0.930 . S
H587 C596 0.930 . S
H588 C601 0.929 . S
H589 C599 0.929 . S
H590 C594 0.929 . S
H591 C600 0.929 . S
C592 H586 0.930 . S
C592 C593 1.367 . S
C592 C600 1.378 . S
C593 C592 1.367 . S
C593 C601 1.433 . S
C594 H590 0.929 . S
C594 C596 1.378 . S
C594 C598 1.350 . S
C595 C598 1.463 . S
C595 C600 1.350 . S
C595 N603 1.427 . S
C596 H587 0.930 . S
C596 C594 1.378 . S
C596 C597 1.367 . S
C597 C596 1.367 . S
C597 C599 1.433 . S
C598 C594 1.350 . S
C598 C595 1.463 . S
C598 N602 1.427 . S
C599 H589 0.929 . S
C599 C597 1.433 . S
C599 N602 1.384 . S
C600 H591 0.929 . S
C600 C592 1.378 . S
C600 C595 1.350 . S
C601 H588 0.929 . S
C601 C593 1.433 . S
C601 N603 1.384 . S
N602 C598 1.427 . S
N602 C599 1.384 . S
N603 C595 1.427 . S
N603 C601 1.384 . S
C179 C6 1.752 . S
C183 C104 1.706 . S
C197 C20 1.746 . S
C201 C126 1.699 . S
C219 C145 0.926 . S
C215 N26 1.084 . S
C233 N37 1.592 . S
C237 C166 1.302 . S
C255 C123 2.096 . S
C251 C9 2.174 . S
C273 C101 1.388 1_565 S
C269 N15 1.439 . S
C291 C168 1.193 . S
C287 C31 1.219 . S
C309 C147 1.270 . S
C305 C39 1.354 . S
C323 N4 1.710 . S
C327 C165 1.657 . S
C345 C124 1.393 1_556 S
C341 C28 1.661 . S
C359 C42 1.446 . S
C363 C106 1.262 . S
C377 C17 1.606 . S
C381 C144 1.570 . S
C399 C102 1.784 1_565 S
C395 C50 1.886 . S
C413 C61 1.412 . S
C417 C122 1.397 . S
C431 N70 1.386 . S
C435 C148 1.179 . S
C449 N81 1.369 . S
C453 C169 1.138 . S
C467 N48 1.546 . S
C471 C125 1.513 1_556 S
C489 C105 2.048 . S
C485 C64 2.080 . S
C507 C164 1.094 . S
C503 C75 1.160 . S
C525 C143 1.359 . S
C521 C86 1.382 . S
C539 C53 1.794 . S
C543 C167 1.721 . S
C561 C127 1.031 . S
C557 C72 1.229 . S
C579 C103 1.343 . S
C575 C83 1.528 . S
C593 N59 1.479 . S
C597 C146 1.445 . S
