# Generated by pormake.
# Topology anh, (6,3)-cn, num edge types: 1
# Building blocks:
#     Node 0, Type 0, BuildingBlock: BETGAK_clean_sbu_0, # of connection points: 6
#     Node 1, Type 0, BuildingBlock: BETGAK_clean_sbu_0, # of connection points: 6
#     Node 2, Type 0, BuildingBlock: BETGAK_clean_sbu_0, # of connection points: 6
#     Node 3, Type 1, BuildingBlock: BELTOD_clean_linker_0, # of connection points: 3
#     Node 4, Type 1, BuildingBlock: BELTOD_clean_linker_0, # of connection points: 3
#     Node 5, Type 1, BuildingBlock: BELTOD_clean_linker_0, # of connection points: 3
#     Node 6, Type 1, BuildingBlock: BELTOD_clean_linker_0, # of connection points: 3
#     Node 7, Type 1, BuildingBlock: BELTOD_clean_linker_0, # of connection points: 3
#     Node 8, Type 1, BuildingBlock: BELTOD_clean_linker_0, # of connection points: 3
#     Edge 9, Type (0, 1), None
#     Edge 10, Type (0, 1), None
#     Edge 11, Type (0, 1), None
#     Edge 12, Type (0, 1), None
#     Edge 13, Type (0, 1), None
#     Edge 14, Type (0, 1), None
#     Edge 15, Type (0, 1), None
#     Edge 16, Type (0, 1), None
#     Edge 17, Type (0, 1), None
#     Edge 18, Type (0, 1), None
#     Edge 19, Type (0, 1), None
#     Edge 20, Type (0, 1), None
#     Edge 21, Type (0, 1), None
#     Edge 22, Type (0, 1), None
#     Edge 23, Type (0, 1), None
#     Edge 24, Type (0, 1), None
#     Edge 25, Type (0, 1), None
#     Edge 26, Type (0, 1), None
# Relax obj value: 0.327
# Max RMSD: 0.273
# Mean RMSD: 0.183
data_MOF--net-anh--node1-BETGAK_clean_sbu_0--node2-BELTOD_clean_linker_0--edge1-none
_symmetry_space_group_name_H-M    P1
_symmetry_Int_Tables_number       1
_symmetry_cell_setting            triclinic
loop_
_symmetry_equiv_pos_as_xyz
'x, y, z'
_cell_length_a     19.579857
_cell_length_b     24.190516
_cell_length_c     31.963147
_cell_angle_alpha  92.011859
_cell_angle_beta   89.256683
_cell_angle_gamma 133.86058
loop_
_atom_site_label
_atom_site_type_symbol
_atom_site_fract_x
_atom_site_fract_y
_atom_site_fract_z
_atom_type_partial_charge
La0 La 0.24686 0.59375 0.13559 0.0
La1 La 0.13241 0.62531 0.1604 0.0
C2 C 0.33403 0.56554 0.10019 0.0
C3 C 0.30717 0.49188 0.10006 0.0
C4 C 0.21358 0.42267 0.09004 0.0
C5 C 0.18503 0.35217 0.09538 0.0
C6 C 0.24927 0.34981 0.1112 0.0
C7 C 0.34291 0.41921 0.12096 0.0
C8 C 0.37146 0.48946 0.11544 0.0
C9 C 0.20743 0.57824 0.21619 0.0
C10 C 0.35475 0.77054 0.14985 0.0
C11 C 1.04434 0.65105 0.1991 0.0
C12 C 0.94173 0.59643 0.2057 0.0
C13 C 0.89223 0.61676 0.19613 0.0
C14 C 0.79522 0.55951 0.18729 0.0
C15 C 0.74804 0.48158 0.18619 0.0
C16 C 0.79481 0.46185 0.20226 0.0
C17 C 0.89092 0.51906 0.21238 0.0
C18 C 0.11912 0.58689 0.07926 0.0
C19 C 1.02887 0.451 0.15133 0.0
O20 O 0.2758 0.56521 0.08006 0.0
O21 O 0.36027 0.60139 0.13691 0.0
O22 O 0.21033 0.53402 0.19419 0.0
O23 O 0.22954 0.62973 0.19332 0.0
O24 O 0.36173 0.72063 0.14007 0.0
O25 O 0.2708 0.74607 0.15795 0.0
O26 O 1.07018 0.66938 0.16002 0.0
O27 O 1.08755 0.63477 0.21767 0.0
O28 O 1.04867 0.56505 0.10159 0.0
O29 O 0.19259 0.63053 0.10208 0.0
O30 O 1.03105 0.5008 0.17186 0.0
O31 O 0.10289 0.47686 0.12877 0.0
H32 H 0.16195 0.42273 0.07844 0.0
H33 H 0.11328 0.29969 0.08685 0.0
H34 H 0.39538 0.41945 0.13169 0.0
H35 H 0.44345 0.54194 0.12371 0.0
H36 H 0.92977 0.67616 0.19162 0.0
H37 H 0.75969 0.5764 0.17677 0.0
H38 H 0.76067 0.40264 0.20257 0.0
H39 H 0.92692 0.50191 0.2213 0.0
La40 La 0.76254 0.09309 0.45999 0.0
La41 La 0.63469 0.11351 0.45471 0.0
C42 C 0.84905 0.05537 0.48132 0.0
C43 C 0.82884 0.99098 0.50024 0.0
C44 C 0.90302 0.99497 0.50535 0.0
C45 C 0.8874 0.93636 0.52478 0.0
C46 C 0.79698 0.87237 0.5393 0.0
C47 C 0.72207 0.86778 0.53353 0.0
C48 C 0.73812 0.92712 0.51441 0.0
C49 C 0.74451 0.11926 0.38332 0.0
C50 C 0.53857 0.94417 0.44828 0.0
C51 C 0.5563 0.16193 0.44408 0.0
C52 C 0.57181 0.2241 0.46703 0.0
C53 C 0.597 0.23924 0.50976 0.0
C54 C 0.61631 0.3001 0.53132 0.0
C55 C 0.61209 0.34806 0.51063 0.0
C56 C 0.58716 0.33306 0.46777 0.0
C57 C 0.56687 0.27139 0.4462 0.0
C58 C 0.65943 0.09132 0.53192 0.0
C59 C 0.86225 0.26427 0.45605 0.0
O60 O 0.81445 0.04298 0.44372 0.0
O61 O 0.83899 0.09379 0.50568 0.0
O62 O 0.82249 0.14527 0.39994 0.0
O63 O 0.67754 0.0765 0.40877 0.0
O64 O 0.6203 0.9741 0.46532 0.0
O65 O 0.53186 0.99124 0.43413 0.0
O66 O 0.51934 0.10195 0.46561 0.0
O67 O 0.62731 0.18345 0.42186 0.0
O68 O 0.5808 0.06547 0.51693 0.0
O69 O 0.72222 0.13243 0.50493 0.0
O70 O 0.77521 0.23428 0.4488 0.0
O71 O 0.87461 0.21888 0.46564 0.0
H72 H 0.97347 0.04391 0.49463 0.0
H73 H 0.94615 0.94095 0.52831 0.0
H74 H 0.65188 0.81934 0.54465 0.0
H75 H 0.68031 0.92367 0.5112 0.0
H76 H 0.60322 0.20464 0.52645 0.0
H77 H 0.63726 0.31094 0.56404 0.0
H78 H 0.58331 0.36895 0.45096 0.0
H79 H 0.54852 0.26123 0.41317 0.0
La80 La 0.64077 0.57701 0.86777 0.0
La81 La 0.50998 0.41073 0.8473 0.0
C82 C 0.75458 0.71932 0.85703 0.0
C83 C 0.74121 0.76628 0.83709 0.0
C84 C 0.78497 0.8387 0.85436 0.0
C85 C 0.77254 0.88314 0.83577 0.0
C86 C 0.71627 0.85656 0.7992 0.0
C87 C 0.67224 0.78376 0.78206 0.0
C88 C 0.684 0.73909 0.80088 0.0
C89 C 0.56943 0.48612 0.93184 0.0
C90 C 0.41606 0.48796 0.86367 0.0
C91 C 0.40467 0.26799 0.83958 0.0
C92 C 0.43383 0.22615 0.8296 0.0
C93 C 0.39259 0.17337 0.79531 0.0
C94 C 0.43085 0.14399 0.78108 0.0
C95 C 0.51196 0.16744 0.80056 0.0
C96 C 0.5502 0.21734 0.83608 0.0
C97 C 0.51165 0.24615 0.85046 0.0
C98 C 0.59839 0.49901 0.78344 0.0
C99 C 0.73696 0.50159 0.86341 0.0
O100 O 0.71065 0.68776 0.89231 0.0
O101 O 0.74798 0.67159 0.83202 0.0
O102 O 0.58801 0.54923 0.93316 0.0
O103 O 0.59706 0.48125 0.89802 0.0
O104 O 0.50725 0.55497 0.86305 0.0
O105 O 0.40142 0.42358 0.86066 0.0
O106 O 0.41733 0.30957 0.8095 0.0
O107 O 0.43183 0.30489 0.87605 0.0
O108 O 0.5824 0.43839 0.78881 0.0
O109 O 0.5625 0.50795 0.81277 0.0
O110 O 0.64566 0.43417 0.85743 0.0
O111 O 0.75071 0.56528 0.86727 0.0
H112 H 0.8292 0.86112 0.88224 0.0
H113 H 0.80859 0.93914 0.84971 0.0
H114 H 0.62756 0.76076 0.75431 0.0
H115 H 0.64812 0.68307 0.78705 0.0
H116 H 0.33317 0.15736 0.77839 0.0
H117 H 0.39982 0.10595 0.75354 0.0
H118 H 0.61166 0.23563 0.85226 0.0
H119 H 0.54542 0.2865 0.87699 0.0
P120 P 0.73166 0.1068 0.19241 0.0
H121 H 0.68465 0.97459 0.14781 0.0
H122 H 0.53845 0.84219 0.1338 0.0
H123 H 0.37783 0.89471 0.1755 0.0
H124 H 0.52678 0.02941 0.18969 0.0
H125 H 0.87243 0.1935 0.12502 0.0
H126 H 0.99558 0.33046 0.11149 0.0
H127 H 0.87016 0.37394 0.2014 0.0
H128 H 0.74685 0.23648 0.21488 0.0
H129 H 0.57959 1.00882 0.25647 0.0
H130 H 0.87518 0.21991 0.25413 0.0
O131 O 0.80855 0.09772 0.18768 0.0
H132 H 0.58579 1.015 0.33299 0.0
H133 H 0.8816 0.22501 0.33041 0.0
C134 C 0.61911 1.01408 0.17034 0.0
C135 C 0.61869 0.95916 0.15337 0.0
C136 C 0.53373 0.88202 0.14543 0.0
C137 C 0.44464 0.85579 0.15399 0.0
C138 C 0.44435 0.91165 0.1686 0.0
C139 C 0.53012 0.98953 0.17644 0.0
C140 C 0.79836 0.2027 0.17099 0.0
C141 C 0.86897 0.23171 0.14099 0.0
C142 C 0.94094 0.3111 0.13357 0.0
C143 C 0.94515 0.365 0.15571 0.0
C144 C 0.87069 0.33531 0.18369 0.0
C145 C 0.79871 0.25573 0.19116 0.0
C146 C 0.72664 0.11487 0.24895 0.0
C147 C 0.64514 0.05767 0.27199 0.0
C148 C 0.64861 0.06097 0.31601 0.0
C149 C 0.73419 0.12043 0.33762 0.0
C150 C 0.81459 0.17848 0.31459 0.0
C151 C 0.81079 0.17574 0.27088 0.0
P152 P 0.77077 0.63152 0.61532 0.0
H153 H 0.78618 0.60889 0.52666 0.0
H154 H 0.72519 0.49546 0.48456 0.0
H155 H 0.55919 0.35298 0.58929 0.0
H156 H 0.62023 0.46594 0.63103 0.0
H157 H 0.89392 0.79431 0.63208 0.0
H158 H 0.90597 0.89184 0.60152 0.0
H159 H 0.65542 0.71621 0.52593 0.0
H160 H 0.64359 0.61825 0.55692 0.0
H161 H 0.82108 0.58955 0.68334 0.0
H162 H 0.62898 0.6174 0.66351 0.0
O163 O 0.8839 0.67489 0.61567 0.0
H164 H 0.75224 0.53694 0.75148 0.0
H165 H 0.55976 0.56478 0.73285 0.0
C166 C 0.70802 0.54622 0.58201 0.0
C167 C 0.73481 0.55295 0.54017 0.0
C168 C 0.69984 0.48802 0.51613 0.0
C169 C 0.63812 0.41523 0.53372 0.0
C170 C 0.60776 0.40835 0.575 0.0
C171 C 0.64236 0.47315 0.59889 0.0
C172 C 0.76923 0.69953 0.59602 0.0
C173 C 0.84118 0.77666 0.60912 0.0
C174 C 0.84818 0.83233 0.59156 0.0
C175 C 0.78261 0.81171 0.56082 0.0
C176 C 0.70706 0.73364 0.54947 0.0
C177 C 0.70049 0.67778 0.56698 0.0
C178 C 0.73065 0.60783 0.6685 0.0
C179 C 0.76598 0.58655 0.69419 0.0
C180 C 0.72666 0.55657 0.73317 0.0
C181 C 0.65148 0.5476 0.74739 0.0
C182 C 0.61904 0.57271 0.7228 0.0
C183 C 0.65802 0.60213 0.68319 0.0
P184 P 0.10254 0.52616 0.88812 0.0
H185 H 0.31584 0.62495 0.86977 0.0
H186 H 0.4283 0.61256 0.86216 0.0
H187 H 0.20504 0.36994 0.87627 0.0
H188 H 1.08958 0.38261 0.88452 0.0
H189 H 1.06806 0.63311 0.88712 0.0
H190 H 0.9388 0.62697 0.87918 0.0
H191 H 0.74338 0.38344 0.85855 0.0
H192 H 0.87461 0.38956 0.86638 0.0
H193 H 0.26024 0.62861 0.94964 0.0
H194 H 0.95575 0.44849 0.95427 0.0
O195 O 0.18204 0.6164 0.87252 0.0
H196 H 0.26711 0.65447 0.02516 0.0
H197 H 0.9624 0.47581 0.02955 0.0
C198 C 0.18602 0.50537 0.87675 0.0
C199 C 0.28673 0.56738 0.87067 0.0
C200 C 0.35495 0.56017 0.86641 0.0
C201 C 0.33283 0.48984 0.8678 0.0
C202 C 0.23183 0.42666 0.87413 0.0
C203 C 0.16261 0.43408 0.87879 0.0
C204 C 0.98998 0.51271 0.87619 0.0
C205 C 0.99865 0.57713 0.87993 0.0
C206 C 0.9212 0.57363 0.8756 0.0
C207 C 0.82385 0.50473 0.86757 0.0
C208 C 0.8138 0.43938 0.86429 0.0
C209 C 0.89209 0.44292 0.86864 0.0
C210 C 0.10746 0.53683 0.94556 0.0
C211 C 0.19475 0.59398 0.96678 0.0
C212 C 0.19864 0.60906 0.01014 0.0
C213 C 0.11523 0.56794 0.03355 0.0
C214 C 1.02804 0.50926 0.01255 0.0
C215 C 1.02426 0.49345 0.96928 0.0
P216 P 0.22986 0.59169 0.40736 0.0
H217 H 0.41746 0.69617 0.44997 0.0
H218 H 0.54024 0.83378 0.46275 0.0
H219 H 0.34898 0.85442 0.42388 0.0
H220 H 0.2233 0.71389 0.41163 0.0
H221 H 0.18767 0.48547 0.47074 0.0
H222 H 1.04453 0.35379 0.48691 0.0
H223 H 0.87823 0.36982 0.41159 0.0
H224 H 1.02314 0.50158 0.39421 0.0
H225 H 0.27709 0.70349 0.34462 0.0
H226 H 0.14404 0.46821 0.34482 0.0
O227 O 0.29785 0.57342 0.40907 0.0
H228 H 0.26752 0.6967 0.2687 0.0
H229 H 0.13792 0.46256 0.26815 0.0
C230 C 0.30929 0.6923 0.42897 0.0
C231 C 0.39976 0.72897 0.44475 0.0
C232 C 0.4715 0.80917 0.452 0.0
C233 C 0.45682 0.85717 0.44364 0.0
C234 C 0.36451 0.82038 0.4302 0.0
C235 C 0.29165 0.73924 0.42355 0.0
C236 C 0.11823 0.50556 0.43123 0.0
C237 C 0.12051 0.46205 0.45838 0.0
C238 C 1.03779 0.38557 0.46742 0.0
C239 C 0.94847 0.34949 0.45042 0.0
C240 C 0.94494 0.39477 0.42553 0.0
C241 C 1.02839 0.47113 0.41581 0.0
C242 C 0.20967 0.5858 0.35124 0.0
C243 C 0.24366 0.64965 0.3289 0.0
C244 C 0.23888 0.64603 0.28502 0.0
C245 C 0.20258 0.57928 0.26249 0.0
C246 C 0.16663 0.5149 0.28471 0.0
C247 C 0.16967 0.51805 0.32859 0.0
P248 P 0.72026 0.0856 0.71891 0.0
H249 H 0.78325 0.2277 0.75538 0.0
H250 H 0.70117 0.2604 0.78751 0.0
H251 H 0.43472 0.0247 0.77139 0.0
H252 H 0.51842 0.99152 0.73992 0.0
H253 H 0.71263 0.96718 0.68271 0.0
H254 H 0.7164 0.87887 0.71504 0.0
H255 H 0.69166 0.94566 0.83703 0.0
H256 H 0.68837 0.03381 0.80446 0.0
H257 H 0.85071 0.16122 0.64785 0.0
H258 H 0.54849 0.99605 0.66519 0.0
O259 O 0.83559 0.1612 0.72811 0.0
H260 H 0.82745 0.16612 0.57347 0.0
H261 H 0.52511 1.00114 0.59086 0.0
C262 C 0.6574 0.10688 0.74532 0.0
C263 C 0.70737 0.18245 0.75917 0.0
C264 C 0.66018 0.20124 0.7777 0.0
C265 C 0.56122 0.14519 0.78226 0.0
C266 C 0.5109 0.06934 0.76823 0.0
C267 C 0.55869 0.05028 0.75026 0.0
C268 C 0.69751 1.00587 0.74093 0.0
C269 C 0.70505 0.96111 0.71629 0.0
C270 C 0.70773 0.91075 0.73495 0.0
C271 C 0.70496 0.90511 0.77885 0.0
C272 C 0.69511 0.94884 0.80326 0.0
C273 C 0.69171 0.9986 0.78455 0.0
C274 C 0.70134 0.07889 0.6626 0.0
C275 C 0.77916 0.1253 0.63574 0.0
C276 C 0.76597 0.12824 0.59306 0.0
C277 C 0.67458 0.08481 0.57632 0.0
C278 C 0.5966 0.03602 0.60288 0.0
C279 C 0.60983 0.03287 0.6455 0.0
P280 P 0.41257 0.25413 0.06604 0.0
H281 H 0.4656 0.23336 0.14602 0.0
H282 H 0.59511 0.32553 0.19671 0.0
H283 H 0.71213 0.50823 0.11233 0.0
H284 H 0.58614 0.42014 0.06425 0.0
H285 H 0.23248 0.18831 0.0295 0.0
H286 H 0.16495 0.23989 0.04832 0.0
H287 H 0.28335 0.2956 0.17299 0.0
H288 H 0.35285 0.24621 0.15374 0.0
H289 H 0.50172 0.27829 0.98613 0.0
H290 H 0.39623 0.36437 0.0522 0.0
O291 O 0.39812 0.17976 0.05115 0.0
H292 H 0.57394 0.37746 0.93523 0.0
H293 H 0.46513 0.46204 -2e-05 0.0
C294 C 0.51294 0.319 0.10157 0.0
C295 C 0.51882 0.29358 0.13892 0.0
C296 C 0.59252 0.34632 0.16791 0.0
C297 C 0.66225 0.42501 0.15941 0.0
C298 C 0.65734 0.44911 0.12131 0.0
C299 C 0.58417 0.39721 0.09298 0.0
C300 C 0.30593 0.22149 0.08884 0.0
C301 C 0.23884 0.20691 0.06175 0.0
C302 C 0.19972 0.23639 0.07265 0.0
C303 C 0.22642 0.27749 0.11099 0.0
C304 C 0.26697 0.26812 0.14229 0.0
C305 C 0.30785 0.24046 0.13101 0.0
C306 C 0.4394 0.311 0.02191 0.0
C307 C 0.49041 0.3162 0.9887 0.0
C308 C 0.53263 0.37373 0.9599 0.0
C309 C 0.52441 0.42713 0.96353 0.0
C310 C 0.47208 0.42145 -0.00365 0.0
C311 C 0.43022 0.36398 0.02545 0.0
loop_
_geom_bond_atom_site_label_1
_geom_bond_atom_site_label_2
_geom_bond_distance
_geom_bond_site_symmetry_2
_ccdc_geom_bond_type
La0 C2 2.928 . S
La0 O20 2.521 . S
La0 O21 2.628 . S
La0 O22 2.554 . S
La0 O23 2.757 . S
La0 O24 2.470 . S
La0 O29 2.482 . S
La0 O31 2.503 1_455 S
La1 C11 2.928 . S
La1 O23 2.482 1_655 S
La1 O25 2.503 1_655 S
La1 O26 2.521 . S
La1 O27 2.628 . S
La1 O28 2.554 . S
La1 O29 2.757 1_655 S
La1 O30 2.470 . S
C2 La0 2.928 . S
C2 C3 1.503 . S
C2 O20 1.261 . S
C2 O21 1.243 . S
C3 C2 1.503 . S
C3 C4 1.394 . S
C3 C8 1.373 . S
C4 C3 1.394 . S
C4 C5 1.380 . S
C4 H32 0.930 . S
C5 C4 1.380 . S
C5 C6 1.376 . S
C5 H33 0.930 . S
C6 C5 1.376 . S
C6 C7 1.370 . S
C7 C6 1.370 . S
C7 C8 1.396 . S
C7 H34 0.929 . S
C8 C3 1.373 . S
C8 C7 1.396 . S
C8 H35 0.929 . S
C9 O22 1.240 . S
C9 O23 1.289 . S
C10 O24 1.258 . S
C10 O25 1.256 . S
C11 La1 2.928 . S
C11 C12 1.503 . S
C11 O26 1.261 . S
C11 O27 1.243 . S
C12 C11 1.503 . S
C12 C13 1.394 . S
C12 C17 1.373 . S
C13 C12 1.394 . S
C13 C14 1.380 . S
C13 H36 0.930 . S
C14 C13 1.380 . S
C14 C15 1.376 . S
C14 H37 0.930 . S
C15 C14 1.376 . S
C15 C16 1.370 . S
C16 C15 1.370 . S
C16 C17 1.396 . S
C16 H38 0.929 . S
C17 C12 1.373 . S
C17 C16 1.396 . S
C17 H39 0.929 . S
C18 O28 1.240 1_455 S
C18 O29 1.289 . S
C19 O30 1.258 . S
C19 O31 1.256 . S
O20 La0 2.521 . S
O20 C2 1.261 . S
O21 La0 2.628 . S
O21 C2 1.243 . S
O22 La0 2.554 . S
O22 C9 1.240 . S
O23 La0 2.757 . S
O23 La1 2.482 1_455 S
O23 C9 1.289 . S
O24 La0 2.470 . S
O24 C10 1.258 . S
O25 La1 2.503 1_455 S
O25 C10 1.256 . S
O26 La1 2.521 . S
O26 C11 1.261 . S
O27 La1 2.628 . S
O27 C11 1.243 . S
O28 La1 2.554 . S
O28 C18 1.240 1_655 S
O29 La0 2.482 . S
O29 La1 2.757 1_455 S
O29 C18 1.289 . S
O30 La1 2.470 . S
O30 C19 1.258 . S
O31 La0 2.503 1_655 S
O31 C19 1.256 . S
H32 C4 0.930 . S
H33 C5 0.930 . S
H34 C7 0.929 . S
H35 C8 0.929 . S
H36 C13 0.930 . S
H37 C14 0.930 . S
H38 C16 0.929 . S
H39 C17 0.929 . S
La40 C42 2.928 . S
La40 O60 2.521 . S
La40 O61 2.628 . S
La40 O62 2.554 . S
La40 O63 2.757 1_565 S
La40 O64 2.470 . S
La40 O69 2.482 . S
La40 O71 2.503 1_565 S
La41 C51 2.928 . S
La41 O63 2.482 . S
La41 O65 2.503 1_545 S
La41 O66 2.521 . S
La41 O67 2.628 . S
La41 O68 2.554 . S
La41 O69 2.757 1_545 S
La41 O70 2.470 . S
C42 La40 2.928 . S
C42 C43 1.503 . S
C42 O60 1.261 . S
C42 O61 1.243 . S
C43 C42 1.503 . S
C43 C44 1.394 . S
C43 C48 1.373 . S
C44 C43 1.394 . S
C44 C45 1.380 . S
C44 H72 0.930 . S
C45 C44 1.380 . S
C45 C46 1.376 . S
C45 H73 0.930 . S
C46 C45 1.376 . S
C46 C47 1.370 . S
C47 C46 1.370 . S
C47 C48 1.396 . S
C47 H74 0.929 . S
C48 C43 1.373 . S
C48 C47 1.396 . S
C48 H75 0.929 . S
C49 O62 1.240 1_545 S
C49 O63 1.289 . S
C50 O64 1.258 . S
C50 O65 1.256 . S
C51 La41 2.928 . S
C51 C52 1.503 . S
C51 O66 1.261 . S
C51 O67 1.243 . S
C52 C51 1.503 . S
C52 C53 1.394 . S
C52 C57 1.373 . S
C53 C52 1.394 . S
C53 C54 1.380 . S
C53 H76 0.930 . S
C54 C53 1.380 . S
C54 C55 1.376 . S
C54 H77 0.930 . S
C55 C54 1.376 . S
C55 C56 1.370 . S
C56 C55 1.370 . S
C56 C57 1.396 . S
C56 H78 0.929 . S
C57 C52 1.373 . S
C57 C56 1.396 . S
C57 H79 0.929 . S
C58 O68 1.240 . S
C58 O69 1.289 1_545 S
C59 O70 1.258 . S
C59 O71 1.256 . S
O60 La40 2.521 . S
O60 C42 1.261 . S
O61 La40 2.628 . S
O61 C42 1.243 . S
O62 La40 2.554 . S
O62 C49 1.240 1_565 S
O63 La40 2.757 1_545 S
O63 La41 2.482 . S
O63 C49 1.289 . S
O64 La40 2.470 . S
O64 C50 1.258 . S
O65 La41 2.503 1_565 S
O65 C50 1.256 . S
O66 La41 2.521 . S
O66 C51 1.261 . S
O67 La41 2.628 . S
O67 C51 1.243 . S
O68 La41 2.554 . S
O68 C58 1.240 . S
O69 La40 2.482 . S
O69 La41 2.757 1_565 S
O69 C58 1.289 1_565 S
O70 La41 2.470 . S
O70 C59 1.258 . S
O71 La40 2.503 1_545 S
O71 C59 1.256 . S
H72 C44 0.930 . S
H73 C45 0.930 . S
H74 C47 0.929 . S
H75 C48 0.929 . S
H76 C53 0.930 . S
H77 C54 0.930 . S
H78 C56 0.929 . S
H79 C57 0.929 . S
La80 C82 2.928 . S
La80 O100 2.521 . S
La80 O101 2.628 . S
La80 O102 2.554 . S
La80 O103 2.757 . S
La80 O104 2.470 . S
La80 O109 2.482 . S
La80 O111 2.503 . S
La81 C91 2.928 . S
La81 O103 2.482 . S
La81 O105 2.503 . S
La81 O106 2.521 . S
La81 O107 2.628 . S
La81 O108 2.554 . S
La81 O109 2.757 . S
La81 O110 2.470 . S
C82 La80 2.928 . S
C82 C83 1.503 . S
C82 O100 1.261 . S
C82 O101 1.243 . S
C83 C82 1.503 . S
C83 C84 1.394 . S
C83 C88 1.373 . S
C84 C83 1.394 . S
C84 C85 1.380 . S
C84 H112 0.930 . S
C85 C84 1.380 . S
C85 C86 1.376 . S
C85 H113 0.930 . S
C86 C85 1.376 . S
C86 C87 1.370 . S
C87 C86 1.370 . S
C87 C88 1.396 . S
C87 H114 0.929 . S
C88 C83 1.373 . S
C88 C87 1.396 . S
C88 H115 0.929 . S
C89 O102 1.240 . S
C89 O103 1.289 . S
C90 O104 1.258 . S
C90 O105 1.256 . S
C91 La81 2.928 . S
C91 C92 1.503 . S
C91 O106 1.261 . S
C91 O107 1.243 . S
C92 C91 1.503 . S
C92 C93 1.394 . S
C92 C97 1.373 . S
C93 C92 1.394 . S
C93 C94 1.380 . S
C93 H116 0.930 . S
C94 C93 1.380 . S
C94 C95 1.376 . S
C94 H117 0.930 . S
C95 C94 1.376 . S
C95 C96 1.370 . S
C96 C95 1.370 . S
C96 C97 1.396 . S
C96 H118 0.929 . S
C97 C92 1.373 . S
C97 C96 1.396 . S
C97 H119 0.929 . S
C98 O108 1.240 . S
C98 O109 1.289 . S
C99 O110 1.258 . S
C99 O111 1.256 . S
O100 La80 2.521 . S
O100 C82 1.261 . S
O101 La80 2.628 . S
O101 C82 1.243 . S
O102 La80 2.554 . S
O102 C89 1.240 . S
O103 La80 2.757 . S
O103 La81 2.482 . S
O103 C89 1.289 . S
O104 La80 2.470 . S
O104 C90 1.258 . S
O105 La81 2.503 . S
O105 C90 1.256 . S
O106 La81 2.521 . S
O106 C91 1.261 . S
O107 La81 2.628 . S
O107 C91 1.243 . S
O108 La81 2.554 . S
O108 C98 1.240 . S
O109 La80 2.482 . S
O109 La81 2.757 . S
O109 C98 1.289 . S
O110 La81 2.470 . S
O110 C99 1.258 . S
O111 La80 2.503 . S
O111 C99 1.256 . S
H112 C84 0.930 . S
H113 C85 0.930 . S
H114 C87 0.929 . S
H115 C88 0.929 . S
H116 C93 0.930 . S
H117 C94 0.930 . S
H118 C96 0.929 . S
H119 C97 0.929 . S
P120 O131 1.490 1_545 S
P120 C134 1.812 1_545 S
P120 C140 1.803 . S
P120 C146 1.819 . S
H121 C135 0.941 . S
H122 C136 0.939 . S
H123 C138 0.940 . S
H124 C139 0.940 . S
H125 C141 0.939 . S
H126 C142 0.942 . S
H127 C144 0.940 . S
H128 C145 0.939 . S
H129 C147 0.941 . S
H130 C151 0.939 . S
O131 P120 1.490 1_565 S
H132 C148 0.939 . S
H133 C150 0.940 . S
C134 P120 1.812 1_565 S
C134 C135 1.389 . S
C134 C139 1.391 . S
C135 H121 0.941 . S
C135 C134 1.389 . S
C135 C136 1.397 . S
C136 H122 0.939 . S
C136 C135 1.397 . S
C136 C137 1.378 . S
C137 C136 1.378 . S
C137 C138 1.378 . S
C138 H123 0.940 . S
C138 C137 1.378 . S
C138 C139 1.396 . S
C139 H124 0.940 . S
C139 C134 1.391 . S
C139 C138 1.396 . S
C140 P120 1.803 . S
C140 C141 1.378 . S
C140 C145 1.400 . S
C141 H125 0.939 . S
C141 C140 1.378 . S
C141 C142 1.361 . S
C142 H126 0.942 . S
C142 C141 1.361 . S
C142 C143 1.369 . S
C143 C142 1.369 . S
C143 C144 1.404 . S
C144 H127 0.940 . S
C144 C143 1.404 . S
C144 C145 1.389 . S
C145 H128 0.939 . S
C145 C140 1.400 . S
C145 C144 1.389 . S
C146 P120 1.819 . S
C146 C147 1.391 1_545 S
C146 C151 1.391 . S
C147 H129 0.941 . S
C147 C146 1.391 1_565 S
C147 C148 1.396 . S
C148 H132 0.939 . S
C148 C147 1.396 . S
C148 C149 1.397 1_565 S
C149 C148 1.397 1_545 S
C149 C150 1.385 . S
C150 H133 0.940 . S
C150 C149 1.385 . S
C150 C151 1.388 . S
C151 H130 0.939 . S
C151 C146 1.391 . S
C151 C150 1.388 . S
P152 O163 1.490 . S
P152 C166 1.812 . S
P152 C172 1.803 . S
P152 C178 1.819 . S
H153 C167 0.941 . S
H154 C168 0.939 . S
H155 C170 0.940 . S
H156 C171 0.940 . S
H157 C173 0.939 . S
H158 C174 0.942 . S
H159 C176 0.940 . S
H160 C177 0.939 . S
H161 C179 0.941 . S
H162 C183 0.939 . S
O163 P152 1.490 . S
H164 C180 0.939 . S
H165 C182 0.940 . S
C166 P152 1.812 . S
C166 C167 1.389 . S
C166 C171 1.391 . S
C167 H153 0.941 . S
C167 C166 1.389 . S
C167 C168 1.397 . S
C168 H154 0.939 . S
C168 C167 1.397 . S
C168 C169 1.378 . S
C169 C168 1.378 . S
C169 C170 1.378 . S
C170 H155 0.940 . S
C170 C169 1.378 . S
C170 C171 1.396 . S
C171 H156 0.940 . S
C171 C166 1.391 . S
C171 C170 1.396 . S
C172 P152 1.803 . S
C172 C173 1.378 . S
C172 C177 1.400 . S
C173 H157 0.939 . S
C173 C172 1.378 . S
C173 C174 1.361 . S
C174 H158 0.942 . S
C174 C173 1.361 . S
C174 C175 1.369 . S
C175 C174 1.369 . S
C175 C176 1.404 . S
C176 H159 0.940 . S
C176 C175 1.404 . S
C176 C177 1.389 . S
C177 H160 0.939 . S
C177 C172 1.400 . S
C177 C176 1.389 . S
C178 P152 1.819 . S
C178 C179 1.391 . S
C178 C183 1.391 . S
C179 H161 0.941 . S
C179 C178 1.391 . S
C179 C180 1.396 . S
C180 H164 0.939 . S
C180 C179 1.396 . S
C180 C181 1.397 . S
C181 C180 1.397 . S
C181 C182 1.385 . S
C182 H165 0.940 . S
C182 C181 1.385 . S
C182 C183 1.388 . S
C183 H162 0.939 . S
C183 C178 1.391 . S
C183 C182 1.388 . S
P184 O195 1.490 . S
P184 C198 1.812 . S
P184 C204 1.803 . S
P184 C210 1.819 . S
H185 C199 0.941 . S
H186 C200 0.939 . S
H187 C202 0.940 . S
H188 C203 0.940 . S
H189 C205 0.939 . S
H190 C206 0.942 . S
H191 C208 0.940 . S
H192 C209 0.939 1_455 S
H193 C211 0.941 . S
H194 C215 0.939 1_655 S
O195 P184 1.490 . S
H196 C212 0.939 . S
H197 C214 0.940 1_655 S
C198 P184 1.812 . S
C198 C199 1.389 . S
C198 C203 1.391 . S
C199 H185 0.941 . S
C199 C198 1.389 . S
C199 C200 1.397 . S
C200 H186 0.939 . S
C200 C199 1.397 . S
C200 C201 1.378 . S
C201 C200 1.378 . S
C201 C202 1.378 . S
C202 H187 0.940 . S
C202 C201 1.378 . S
C202 C203 1.396 . S
C203 H188 0.940 . S
C203 C198 1.391 . S
C203 C202 1.396 . S
C204 P184 1.803 . S
C204 C205 1.378 . S
C204 C209 1.400 1_455 S
C205 H189 0.939 . S
C205 C204 1.378 . S
C205 C206 1.361 1_455 S
C206 H190 0.942 . S
C206 C205 1.361 1_655 S
C206 C207 1.369 . S
C207 C206 1.369 . S
C207 C208 1.404 . S
C208 H191 0.940 . S
C208 C207 1.404 . S
C208 C209 1.389 . S
C209 H192 0.939 1_655 S
C209 C204 1.400 1_655 S
C209 C208 1.389 . S
C210 P184 1.819 . S
C210 C211 1.391 . S
C210 C215 1.391 . S
C211 H193 0.941 . S
C211 C210 1.391 . S
C211 C212 1.396 1_556 S
C212 H196 0.939 . S
C212 C211 1.396 1_554 S
C212 C213 1.397 . S
C213 C212 1.397 . S
C213 C214 1.385 . S
C214 H197 0.940 1_455 S
C214 C213 1.385 . S
C214 C215 1.388 1_554 S
C215 H194 0.939 1_455 S
C215 C210 1.391 . S
C215 C214 1.388 1_556 S
P216 O227 1.490 . S
P216 C230 1.812 . S
P216 C236 1.803 1_455 S
P216 C242 1.819 . S
H217 C231 0.941 . S
H218 C232 0.939 . S
H219 C234 0.940 . S
H220 C235 0.940 . S
H221 C237 0.939 . S
H222 C238 0.942 . S
H223 C240 0.940 . S
H224 C241 0.939 . S
H225 C243 0.941 . S
H226 C247 0.939 . S
O227 P216 1.490 . S
H228 C244 0.939 . S
H229 C246 0.940 . S
C230 P216 1.812 . S
C230 C231 1.389 . S
C230 C235 1.391 . S
C231 H217 0.941 . S
C231 C230 1.389 . S
C231 C232 1.397 . S
C232 H218 0.939 . S
C232 C231 1.397 . S
C232 C233 1.378 . S
C233 C232 1.378 . S
C233 C234 1.378 . S
C234 H219 0.940 . S
C234 C233 1.378 . S
C234 C235 1.396 . S
C235 H220 0.940 . S
C235 C230 1.391 . S
C235 C234 1.396 . S
C236 P216 1.803 1_655 S
C236 C237 1.378 . S
C236 C241 1.400 . S
C237 H221 0.939 . S
C237 C236 1.378 . S
C237 C238 1.361 . S
C238 H222 0.942 . S
C238 C237 1.361 . S
C238 C239 1.369 . S
C239 C238 1.369 . S
C239 C240 1.404 . S
C240 H223 0.940 . S
C240 C239 1.404 . S
C240 C241 1.389 . S
C241 H224 0.939 . S
C241 C236 1.400 . S
C241 C240 1.389 . S
C242 P216 1.819 . S
C242 C243 1.391 . S
C242 C247 1.391 1_455 S
C243 H225 0.941 . S
C243 C242 1.391 . S
C243 C244 1.396 . S
C244 H228 0.939 . S
C244 C243 1.396 . S
C244 C245 1.397 . S
C245 C244 1.397 . S
C245 C246 1.385 1_455 S
C246 H229 0.940 . S
C246 C245 1.385 1_655 S
C246 C247 1.388 . S
C247 H226 0.939 . S
C247 C242 1.391 1_655 S
C247 C246 1.388 . S
P248 O259 1.490 . S
P248 C262 1.812 . S
P248 C268 1.803 1_545 S
P248 C274 1.819 . S
H249 C263 0.941 . S
H250 C264 0.939 . S
H251 C266 0.940 . S
H252 C267 0.940 . S
H253 C269 0.939 1_545 S
H254 C270 0.942 . S
H255 C272 0.940 . S
H256 C273 0.939 . S
H257 C275 0.941 . S
H258 C279 0.939 . S
O259 P248 1.490 . S
H260 C276 0.939 . S
H261 C278 0.940 . S
C262 P248 1.812 . S
C262 C263 1.389 . S
C262 C267 1.391 . S
C263 H249 0.941 . S
C263 C262 1.389 . S
C263 C264 1.397 . S
C264 H250 0.939 . S
C264 C263 1.397 . S
C264 C265 1.378 . S
C265 C264 1.378 . S
C265 C266 1.378 . S
C266 H251 0.940 . S
C266 C265 1.378 . S
C266 C267 1.396 . S
C267 H252 0.940 . S
C267 C262 1.391 . S
C267 C266 1.396 . S
C268 P248 1.803 1_565 S
C268 C269 1.378 . S
C268 C273 1.400 . S
C269 H253 0.939 1_565 S
C269 C268 1.378 . S
C269 C270 1.361 . S
C270 H254 0.942 . S
C270 C269 1.361 . S
C270 C271 1.369 . S
C271 C270 1.369 . S
C271 C272 1.404 . S
C272 H255 0.940 . S
C272 C271 1.404 . S
C272 C273 1.389 . S
C273 H256 0.939 . S
C273 C268 1.400 . S
C273 C272 1.389 . S
C274 P248 1.819 . S
C274 C275 1.391 . S
C274 C279 1.391 1_545 S
C275 H257 0.941 . S
C275 C274 1.391 . S
C275 C276 1.396 . S
C276 H260 0.939 . S
C276 C275 1.396 . S
C276 C277 1.397 1_545 S
C277 C276 1.397 1_565 S
C277 C278 1.385 . S
C278 H261 0.940 . S
C278 C277 1.385 . S
C278 C279 1.388 . S
C279 H258 0.939 . S
C279 C274 1.391 1_565 S
C279 C278 1.388 . S
P280 O291 1.490 . S
P280 C294 1.812 . S
P280 C300 1.803 . S
P280 C306 1.819 . S
H281 C295 0.941 . S
H282 C296 0.939 . S
H283 C298 0.940 . S
H284 C299 0.940 . S
H285 C301 0.939 . S
H286 C302 0.942 . S
H287 C304 0.940 . S
H288 C305 0.939 . S
H289 C307 0.941 . S
H290 C311 0.939 1_554 S
O291 P280 1.490 . S
H292 C308 0.939 . S
H293 C310 0.940 . S
C294 P280 1.812 . S
C294 C295 1.389 . S
C294 C299 1.391 . S
C295 H281 0.941 . S
C295 C294 1.389 . S
C295 C296 1.397 . S
C296 H282 0.939 . S
C296 C295 1.397 . S
C296 C297 1.378 . S
C297 C296 1.378 . S
C297 C298 1.378 . S
C298 H283 0.940 . S
C298 C297 1.378 . S
C298 C299 1.396 . S
C299 H284 0.940 . S
C299 C294 1.391 . S
C299 C298 1.396 . S
C300 P280 1.803 . S
C300 C301 1.378 . S
C300 C305 1.400 . S
C301 H285 0.939 . S
C301 C300 1.378 . S
C301 C302 1.361 . S
C302 H286 0.942 . S
C302 C301 1.361 . S
C302 C303 1.369 . S
C303 C302 1.369 . S
C303 C304 1.404 . S
C304 H287 0.940 . S
C304 C303 1.404 . S
C304 C305 1.389 . S
C305 H288 0.939 . S
C305 C300 1.400 . S
C305 C304 1.389 . S
C306 P280 1.819 . S
C306 C307 1.391 1_554 S
C306 C311 1.391 1_554 S
C307 H289 0.941 . S
C307 C306 1.391 1_556 S
C307 C308 1.396 . S
C308 H292 0.939 . S
C308 C307 1.396 . S
C308 C309 1.397 . S
C309 C308 1.397 . S
C309 C310 1.385 . S
C310 H293 0.940 . S
C310 C309 1.385 . S
C310 C311 1.388 . S
C311 H290 0.939 1_556 S
C311 C306 1.391 1_556 S
C311 C310 1.388 . S
C6 C303 3.931 . S
C59 C239 2.561 . S
C86 C271 2.747 . S
C15 C297 2.384 . S
C233 C50 2.889 . S
C265 C95 1.910 . S
C46 C175 2.092 . S
C99 C207 4.844 . S
C10 C137 3.006 . S
C169 C55 2.202 . S
C201 C90 4.889 . S
C19 C143 2.689 . S
C213 C18 2.022 . S
C49 C149 0.991 . S
C98 C181 1.479 . S
C277 C58 1.331 1_565 S
C309 C89 1.891 . S
C9 C245 0.928 . S
