# Generated by pormake.
# Topology eea, (3,6)-cn, num edge types: 1
# Building blocks:
#     Node 0, Type 0, BuildingBlock: BETDAH_clean_linker_0, # of connection points: 3
#     Node 1, Type 0, BuildingBlock: BETDAH_clean_linker_0, # of connection points: 3
#     Node 2, Type 0, BuildingBlock: BETDAH_clean_linker_0, # of connection points: 3
#     Node 3, Type 0, BuildingBlock: BETDAH_clean_linker_0, # of connection points: 3
#     Node 4, Type 0, BuildingBlock: BETDAH_clean_linker_0, # of connection points: 3
#     Node 5, Type 0, BuildingBlock: BETDAH_clean_linker_0, # of connection points: 3
#     Node 6, Type 0, BuildingBlock: BETDAH_clean_linker_0, # of connection points: 3
#     Node 7, Type 0, BuildingBlock: BETDAH_clean_linker_0, # of connection points: 3
#     Node 8, Type 0, BuildingBlock: BETDAH_clean_linker_0, # of connection points: 3
#     Node 9, Type 0, BuildingBlock: BETDAH_clean_linker_0, # of connection points: 3
#     Node 10, Type 0, BuildingBlock: BETDAH_clean_linker_0, # of connection points: 3
#     Node 11, Type 0, BuildingBlock: BETDAH_clean_linker_0, # of connection points: 3
#     Node 12, Type 0, BuildingBlock: BETDAH_clean_linker_0, # of connection points: 3
#     Node 13, Type 0, BuildingBlock: BETDAH_clean_linker_0, # of connection points: 3
#     Node 14, Type 0, BuildingBlock: BETDAH_clean_linker_0, # of connection points: 3
#     Node 15, Type 0, BuildingBlock: BETDAH_clean_linker_0, # of connection points: 3
#     Node 16, Type 0, BuildingBlock: BETDAH_clean_linker_0, # of connection points: 3
#     Node 17, Type 0, BuildingBlock: BETDAH_clean_linker_0, # of connection points: 3
#     Node 18, Type 1, BuildingBlock: KUMBOL_clean_sbu_0, # of connection points: 6
#     Node 19, Type 1, BuildingBlock: KUMBOL_clean_sbu_0, # of connection points: 6
#     Node 20, Type 1, BuildingBlock: KUMBOL_clean_sbu_0, # of connection points: 6
#     Node 21, Type 1, BuildingBlock: KUMBOL_clean_sbu_0, # of connection points: 6
#     Node 22, Type 1, BuildingBlock: KUMBOL_clean_sbu_0, # of connection points: 6
#     Node 23, Type 1, BuildingBlock: KUMBOL_clean_sbu_0, # of connection points: 6
#     Node 24, Type 1, BuildingBlock: KUMBOL_clean_sbu_0, # of connection points: 6
#     Node 25, Type 1, BuildingBlock: KUMBOL_clean_sbu_0, # of connection points: 6
#     Node 26, Type 1, BuildingBlock: KUMBOL_clean_sbu_0, # of connection points: 6
#     Edge 27, Type (0, 1), BuildingBlock: XUDNAN_clean_linker_2, # of connection points: 2
#     Edge 28, Type (0, 1), BuildingBlock: XUDNAN_clean_linker_2, # of connection points: 2
#     Edge 29, Type (0, 1), BuildingBlock: XUDNAN_clean_linker_2, # of connection points: 2
#     Edge 30, Type (0, 1), BuildingBlock: XUDNAN_clean_linker_2, # of connection points: 2
#     Edge 31, Type (0, 1), BuildingBlock: XUDNAN_clean_linker_2, # of connection points: 2
#     Edge 32, Type (0, 1), BuildingBlock: XUDNAN_clean_linker_2, # of connection points: 2
#     Edge 33, Type (0, 1), BuildingBlock: XUDNAN_clean_linker_2, # of connection points: 2
#     Edge 34, Type (0, 1), BuildingBlock: XUDNAN_clean_linker_2, # of connection points: 2
#     Edge 35, Type (0, 1), BuildingBlock: XUDNAN_clean_linker_2, # of connection points: 2
#     Edge 36, Type (0, 1), BuildingBlock: XUDNAN_clean_linker_2, # of connection points: 2
#     Edge 37, Type (0, 1), BuildingBlock: XUDNAN_clean_linker_2, # of connection points: 2
#     Edge 38, Type (0, 1), BuildingBlock: XUDNAN_clean_linker_2, # of connection points: 2
#     Edge 39, Type (0, 1), BuildingBlock: XUDNAN_clean_linker_2, # of connection points: 2
#     Edge 40, Type (0, 1), BuildingBlock: XUDNAN_clean_linker_2, # of connection points: 2
#     Edge 41, Type (0, 1), BuildingBlock: XUDNAN_clean_linker_2, # of connection points: 2
#     Edge 42, Type (0, 1), BuildingBlock: XUDNAN_clean_linker_2, # of connection points: 2
#     Edge 43, Type (0, 1), BuildingBlock: XUDNAN_clean_linker_2, # of connection points: 2
#     Edge 44, Type (0, 1), BuildingBlock: XUDNAN_clean_linker_2, # of connection points: 2
#     Edge 45, Type (0, 1), BuildingBlock: XUDNAN_clean_linker_2, # of connection points: 2
#     Edge 46, Type (0, 1), BuildingBlock: XUDNAN_clean_linker_2, # of connection points: 2
#     Edge 47, Type (0, 1), BuildingBlock: XUDNAN_clean_linker_2, # of connection points: 2
#     Edge 48, Type (0, 1), BuildingBlock: XUDNAN_clean_linker_2, # of connection points: 2
#     Edge 49, Type (0, 1), BuildingBlock: XUDNAN_clean_linker_2, # of connection points: 2
#     Edge 50, Type (0, 1), BuildingBlock: XUDNAN_clean_linker_2, # of connection points: 2
#     Edge 51, Type (0, 1), BuildingBlock: XUDNAN_clean_linker_2, # of connection points: 2
#     Edge 52, Type (0, 1), BuildingBlock: XUDNAN_clean_linker_2, # of connection points: 2
#     Edge 53, Type (0, 1), BuildingBlock: XUDNAN_clean_linker_2, # of connection points: 2
#     Edge 54, Type (0, 1), BuildingBlock: XUDNAN_clean_linker_2, # of connection points: 2
#     Edge 55, Type (0, 1), BuildingBlock: XUDNAN_clean_linker_2, # of connection points: 2
#     Edge 56, Type (0, 1), BuildingBlock: XUDNAN_clean_linker_2, # of connection points: 2
#     Edge 57, Type (0, 1), BuildingBlock: XUDNAN_clean_linker_2, # of connection points: 2
#     Edge 58, Type (0, 1), BuildingBlock: XUDNAN_clean_linker_2, # of connection points: 2
#     Edge 59, Type (0, 1), BuildingBlock: XUDNAN_clean_linker_2, # of connection points: 2
#     Edge 60, Type (0, 1), BuildingBlock: XUDNAN_clean_linker_2, # of connection points: 2
#     Edge 61, Type (0, 1), BuildingBlock: XUDNAN_clean_linker_2, # of connection points: 2
#     Edge 62, Type (0, 1), BuildingBlock: XUDNAN_clean_linker_2, # of connection points: 2
#     Edge 63, Type (0, 1), BuildingBlock: XUDNAN_clean_linker_2, # of connection points: 2
#     Edge 64, Type (0, 1), BuildingBlock: XUDNAN_clean_linker_2, # of connection points: 2
#     Edge 65, Type (0, 1), BuildingBlock: XUDNAN_clean_linker_2, # of connection points: 2
#     Edge 66, Type (0, 1), BuildingBlock: XUDNAN_clean_linker_2, # of connection points: 2
#     Edge 67, Type (0, 1), BuildingBlock: XUDNAN_clean_linker_2, # of connection points: 2
#     Edge 68, Type (0, 1), BuildingBlock: XUDNAN_clean_linker_2, # of connection points: 2
#     Edge 69, Type (0, 1), BuildingBlock: XUDNAN_clean_linker_2, # of connection points: 2
#     Edge 70, Type (0, 1), BuildingBlock: XUDNAN_clean_linker_2, # of connection points: 2
#     Edge 71, Type (0, 1), BuildingBlock: XUDNAN_clean_linker_2, # of connection points: 2
#     Edge 72, Type (0, 1), BuildingBlock: XUDNAN_clean_linker_2, # of connection points: 2
#     Edge 73, Type (0, 1), BuildingBlock: XUDNAN_clean_linker_2, # of connection points: 2
#     Edge 74, Type (0, 1), BuildingBlock: XUDNAN_clean_linker_2, # of connection points: 2
#     Edge 75, Type (0, 1), BuildingBlock: XUDNAN_clean_linker_2, # of connection points: 2
#     Edge 76, Type (0, 1), BuildingBlock: XUDNAN_clean_linker_2, # of connection points: 2
#     Edge 77, Type (0, 1), BuildingBlock: XUDNAN_clean_linker_2, # of connection points: 2
#     Edge 78, Type (0, 1), BuildingBlock: XUDNAN_clean_linker_2, # of connection points: 2
#     Edge 79, Type (0, 1), BuildingBlock: XUDNAN_clean_linker_2, # of connection points: 2
#     Edge 80, Type (0, 1), BuildingBlock: XUDNAN_clean_linker_2, # of connection points: 2
# Relax obj value: 0.023
# Max RMSD: 0.163
# Mean RMSD: 0.118
data_MOF--net-eea--node1-KUMBOL_clean_sbu_0--node2-BETDAH_clean_linker_0--edge1-XUDNAN_clean_linker_2
_symmetry_space_group_name_H-M    P1
_symmetry_Int_Tables_number       1
_symmetry_cell_setting            triclinic
loop_
_symmetry_equiv_pos_as_xyz
'x, y, z'
_cell_length_a     54.615774
_cell_length_b     55.910916
_cell_length_c     66.407948
_cell_angle_alpha  90.103325
_cell_angle_beta   90.074061
_cell_angle_gamma 119.94472
loop_
_atom_site_label
_atom_site_type_symbol
_atom_site_fract_x
_atom_site_fract_y
_atom_site_fract_z
_atom_type_partial_charge
H0 H 0.24766 0.0772 0.43685 0.0
H1 H 0.27042 0.16177 0.42461 0.0
H2 H 0.23778 0.1017 0.37738 0.0
C3 C 0.24971 0.09308 0.42653 0.0
C4 C 0.24082 0.08593 0.40641 0.0
C5 C 0.26051 0.12048 0.43345 0.0
C6 C 0.26173 0.1405 0.41988 0.0
C7 C 0.25339 0.13352 0.39973 0.0
C8 C 0.24355 0.10657 0.3931 0.0
N9 N 0.25637 0.15356 0.38541 0.0
C10 C 0.24612 0.17157 0.38836 0.0
H11 H 0.94772 0.18743 0.43717 0.0
H12 H 0.88093 0.10454 0.424 0.0
H13 H 0.94313 0.15157 0.37907 0.0
C14 C 0.93735 0.17007 0.4269 0.0
C15 C 0.94863 0.17223 0.40753 0.0
C16 C 0.91312 0.14561 0.43319 0.0
C17 C 0.89997 0.12318 0.4196 0.0
C18 C 0.9107 0.12542 0.39999 0.0
C19 C 0.93511 0.14981 0.39425 0.0
N20 N 0.89695 0.10452 0.3851 0.0
C21 C 0.87609 0.07711 0.38812 0.0
H22 H 0.83794 0.77402 0.43406 0.0
H23 H 0.91291 0.7675 0.42558 0.0
H24 H 0.88058 0.79409 0.37694 0.0
C25 C 0.85484 0.77574 0.42453 0.0
C26 C 0.85696 0.78535 0.40464 0.0
C27 C 0.87499 0.76935 0.43242 0.0
C28 C 0.89765 0.77289 0.42002 0.0
C29 C 0.89957 0.78172 0.39996 0.0
C30 C 0.87912 0.78764 0.39248 0.0
N31 N 0.91996 0.78243 0.38619 0.0
C32 C 0.94821 0.79057 0.39022 0.0
H33 H 0.07341 0.23545 0.60172 0.0
H34 H 0.15162 0.23406 0.60625 0.0
H35 H 0.09361 0.20722 0.65594 0.0
C36 C 0.08783 0.23134 0.61026 0.0
C37 C 0.08028 0.22061 0.62979 0.0
C38 C 0.11341 0.23611 0.60145 0.0
C39 C 0.132 0.23067 0.61283 0.0
C40 C 0.12474 0.22021 0.63256 0.0
C41 C 0.09904 0.21535 0.64078 0.0
N42 N 0.14215 0.21394 0.64487 0.0
C43 C 0.16719 0.2147 0.63952 0.0
H44 H 0.76269 0.83034 0.59785 0.0
H45 H 0.76418 0.907 0.60911 0.0
H46 H 0.76834 0.85944 0.65846 0.0
C47 C 0.76434 0.84612 0.60817 0.0
C48 C 0.76645 0.84259 0.6289 0.0
C49 C 0.76353 0.86928 0.60076 0.0
C50 C 0.76497 0.88914 0.61453 0.0
C51 C 0.76663 0.88552 0.63537 0.0
C52 C 0.76741 0.86231 0.6424 0.0
N53 N 0.76628 0.90417 0.6497 0.0
C54 C 0.77707 0.93211 0.64608 0.0
H55 H 0.1666 0.93159 0.60206 0.0
H56 H 0.09552 0.84953 0.61078 0.0
H57 H 0.12582 0.90766 0.65963 0.0
C58 C 0.15049 0.91605 0.61164 0.0
C59 C 0.14835 0.92293 0.63166 0.0
C60 C 0.13163 0.88961 0.60378 0.0
C61 C 0.10986 0.87014 0.6163 0.0
C62 C 0.10782 0.87676 0.63647 0.0
C63 C 0.12722 0.90294 0.64398 0.0
N64 N 0.08848 0.85693 0.65025 0.0
C65 C 0.06013 0.8381 0.64641 0.0
H66 H 0.91275 0.40399 0.77508 0.0
H67 H 0.91392 0.48004 0.76202 0.0
H68 H 0.8985 0.42169 0.71467 0.0
C69 C 0.91066 0.41757 0.76447 0.0
C70 C 0.90483 0.40955 0.74416 0.0
C71 C 0.91426 0.44304 0.77117 0.0
C72 C 0.91059 0.46007 0.7573 0.0
C73 C 0.90475 0.45223 0.73693 0.0
C74 C 0.90207 0.42714 0.7305 0.0
N75 N 0.90397 0.47013 0.72217 0.0
C76 C 0.8928 0.48738 0.72525 0.0
H77 H 0.60604 0.50466 0.76991 0.0
H78 H 0.52061 0.43774 0.76166 0.0
H79 H 0.57721 0.46754 0.71142 0.0
C80 C 0.58949 0.48949 0.76029 0.0
C81 C 0.59508 0.4879 0.73978 0.0
C82 C 0.56282 0.471 0.76852 0.0
C83 C 0.54159 0.45137 0.75581 0.0
C84 C 0.54678 0.45018 0.73528 0.0
C85 C 0.5735 0.46826 0.72739 0.0
N86 N 0.5242 0.4338 0.72201 0.0
C87 C 0.51444 0.40594 0.7186 0.0
H88 H 0.50914 0.10444 0.76836 0.0
H89 H 0.59679 0.12644 0.76357 0.0
H90 H 0.55696 0.14697 0.71596 0.0
C91 C 0.52895 0.11403 0.7602 0.0
C92 C 0.53019 0.12551 0.74118 0.0
C93 C 0.5529 0.11444 0.7686 0.0
C94 C 0.57821 0.12592 0.75731 0.0
C95 C 0.57981 0.13793 0.73833 0.0
C96 C 0.55582 0.13792 0.7306 0.0
N97 N 0.60522 0.15127 0.72684 0.0
C98 C 0.62757 0.14586 0.72749 0.0
H99 H 0.73628 0.5709 0.92719 0.0
H100 H 0.8117 0.56877 0.94467 0.0
H101 H 0.74341 0.54393 0.98624 0.0
C102 C 0.74839 0.56652 0.93798 0.0
C103 C 0.73643 0.55606 0.957 0.0
C104 C 0.77611 0.57216 0.93329 0.0
C105 C 0.79092 0.56569 0.94791 0.0
C106 C 0.77931 0.55594 0.96708 0.0
C107 C 0.75236 0.55161 0.97149 0.0
N108 N 0.79435 0.55139 0.98274 0.0
C109 C 0.81656 0.54604 0.9805 0.0
H110 H 0.44273 0.17684 0.92094 0.0
H111 H 0.4643 0.26101 0.93242 0.0
H112 H 0.48282 0.21655 0.9767 0.0
C113 C 0.45119 0.1946 0.93087 0.0
C114 C 0.46212 0.19332 0.94979 0.0
C115 C 0.45195 0.21892 0.92435 0.0
C116 C 0.46364 0.24216 0.93715 0.0
C117 C 0.47497 0.2412 0.95594 0.0
C118 C 0.47441 0.21701 0.96201 0.0
N119 N 0.48792 0.26442 0.96893 0.0
C120 C 0.47863 0.28328 0.97139 0.0
H121 H 0.83661 0.27318 0.93191 0.0
H122 H 0.77525 0.18672 0.93869 0.0
H123 H 0.80119 0.24051 0.99004 0.0
C124 C 0.82233 0.25594 0.94124 0.0
C125 C 0.82039 0.26028 0.96187 0.0
C126 C 0.80616 0.22948 0.93263 0.0
C127 C 0.78767 0.20727 0.94498 0.0
C128 C 0.78579 0.21143 0.96564 0.0
C129 C 0.80232 0.23773 0.97397 0.0
N130 N 0.76965 0.18894 0.97866 0.0
C131 C 0.7403 0.17375 0.97821 0.0
H132 H 0.58592 0.74809 0.10541 0.0
H133 H 0.58535 0.82101 0.08601 0.0
H134 H 0.55659 0.75154 0.04585 0.0
C135 C 0.58174 0.75916 0.09375 0.0
C136 C 0.57035 0.74632 0.07521 0.0
C137 C 0.58712 0.78599 0.09768 0.0
C138 C 0.5814 0.80037 0.08283 0.0
C139 C 0.57087 0.78799 0.06391 0.0
C140 C 0.56559 0.76117 0.06023 0.0
N141 N 0.56486 0.80151 0.04826 0.0
C142 C 0.56387 0.82563 0.05076 0.0
H143 H 0.28559 0.84626 0.10416 0.0
H144 H 0.20769 0.76846 0.09718 0.0
H145 H 0.27341 0.79454 0.0531 0.0
C146 C 0.27208 0.82764 0.09572 0.0
C147 C 0.28245 0.82291 0.07772 0.0
C148 C 0.24503 0.80826 0.10311 0.0
C149 C 0.22861 0.78352 0.09208 0.0
C150 C 0.23917 0.77862 0.0741 0.0
C151 C 0.26579 0.79836 0.06714 0.0
N152 N 0.22399 0.75449 0.06213 0.0
C153 C 0.19795 0.73151 0.06633 0.0
H154 H 0.16715 0.44148 0.10587 0.0
H155 H 0.25361 0.46108 0.09725 0.0
H156 H 0.2112 0.48204 0.05189 0.0
C157 C 0.18618 0.45001 0.09686 0.0
C158 C 0.18615 0.46133 0.07798 0.0
C159 C 0.21042 0.45 0.10427 0.0
C160 C 0.23494 0.46137 0.0921 0.0
C161 C 0.23534 0.47311 0.07322 0.0
C162 C 0.21103 0.47338 0.06651 0.0
N163 N 0.25962 0.485 0.06051 0.0
C164 C 0.28313 0.4814 0.06194 0.0
H165 H 0.4077 0.91151 0.26521 0.0
H166 H 0.47552 0.89322 0.26871 0.0
H167 H 0.41834 0.8745 0.31866 0.0
C168 C 0.41912 0.90344 0.2735 0.0
C169 C 0.41032 0.89334 0.29309 0.0
C170 C 0.44231 0.90321 0.26438 0.0
C171 C 0.45767 0.89351 0.27554 0.0
C172 C 0.44888 0.88285 0.29516 0.0
C173 C 0.42496 0.88249 0.30357 0.0
N174 N 0.46256 0.87138 0.30678 0.0
C175 C 0.48976 0.87533 0.3041 0.0
H176 H 0.10796 0.51098 0.27048 0.0
H177 H 0.08343 0.57202 0.28209 0.0
H178 H 0.11151 0.54144 0.33074 0.0
C179 C 0.10478 0.52407 0.28096 0.0
C180 C 0.11178 0.5246 0.30142 0.0
C181 C 0.09472 0.54129 0.27384 0.0
C182 C 0.0915 0.55892 0.28734 0.0
C183 C 0.09731 0.55866 0.30784 0.0
C184 C 0.10716 0.54144 0.31481 0.0
N185 N 0.09193 0.57457 0.32182 0.0
C186 C 0.1075 0.60319 0.32193 0.0
H187 H 0.51905 0.60692 0.26687 0.0
H188 H 0.44875 0.5239 0.27232 0.0
H189 H 0.47523 0.57759 0.3234 0.0
C190 C 0.50207 0.59113 0.27575 0.0
C191 C 0.49965 0.59609 0.29634 0.0
C192 C 0.48377 0.56514 0.26684 0.0
C193 C 0.46249 0.54415 0.27871 0.0
C194 C 0.45968 0.54884 0.2991 0.0
C195 C 0.478 0.57462 0.30763 0.0
N196 N 0.4419 0.52689 0.31217 0.0
C197 C 0.41268 0.51065 0.31032 0.0
Gd198 Gd 0.51186 0.02406 0.04101 0.0
Gd199 Gd 0.49118 0.98955 0.99071 0.0
C200 C 0.40994 0.90669 0.98233 0.0
C201 C 0.42814 0.87643 0.97307 0.0
C202 C 0.4604 0.92514 0.97962 0.0
C203 C 0.43786 0.92903 0.98364 0.0
C204 C 0.45582 0.89896 0.97377 0.0
C205 C 0.40524 0.88027 0.97743 0.0
C206 C 0.38758 0.91168 0.98561 0.0
C207 C 0.39335 0.93857 0.98933 0.0
N208 N 0.44321 0.95487 0.98817 0.0
C209 C 0.4214 0.96008 0.99024 0.0
H210 H 0.42535 0.98063 0.99324 0.0
C211 C 0.5096 0.94513 0.97463 0.0
N212 N 0.48682 0.94728 0.98059 0.0
C213 C 0.50615 0.91964 0.96863 0.0
C214 C 0.47915 0.8964 0.96833 0.0
H215 H 0.53053 0.96305 0.97493 0.0
H216 H 0.38396 0.86281 0.97652 0.0
H217 H 0.57792 0.03397 0.04262 0.0
H218 H 0.36584 0.89505 0.98489 0.0
H219 H 0.37622 0.94274 0.99158 0.0
H220 H 0.42421 0.85609 0.96882 0.0
H221 H 0.47016 0.04927 0.05449 0.0
H222 H 0.63558 0.11986 0.05194 0.0
H223 H 0.62657 0.07235 0.04654 0.0
H224 H 0.57461 0.15764 0.0618 0.0
H225 H 0.52431 0.91793 0.96428 0.0
H226 H 0.47651 0.87667 0.96365 0.0
H227 H 0.61598 0.15162 0.05738 0.0
H228 H 0.47456 0.09438 0.0628 0.0
N229 N 0.55914 0.05925 0.04551 0.0
C230 C 0.61407 0.10301 0.05033 0.0
C231 C 0.60907 0.07623 0.0473 0.0
C232 C 0.59118 0.1076 0.05177 0.0
C233 C 0.56361 0.08493 0.0495 0.0
C234 C 0.58133 0.05445 0.04512 0.0
N235 N 0.51437 0.06574 0.05069 0.0
C236 C 0.54046 0.0883 0.05211 0.0
C237 C 0.49327 0.09298 0.05978 0.0
C238 C 0.51996 0.11664 0.06041 0.0
C239 C 0.49086 0.06746 0.05517 0.0
C240 C 0.54402 0.11444 0.05687 0.0
H241 H 0.52179 0.13638 0.06402 0.0
O242 O 0.48938 0.01144 0.06957 0.0
O243 O 0.48086 0.988 0.02317 0.0
O244 O 0.47283 0.0174 0.99704 0.0
O245 O 0.50329 0.05078 0.01994 0.0
O246 O 0.46431 0.0029 0.04426 0.0
O247 O 0.528 0.01013 0.0656 0.0
O248 O 0.47424 0.00235 0.96595 0.0
O249 O 0.52262 0.02524 0.00864 0.0
O250 O 0.53115 0.99689 0.03475 0.0
O251 O 0.50218 0.96396 0.0109 0.0
O252 O 0.53858 0.01057 0.98678 0.0
O253 O 0.51185 0.99947 0.96145 0.0
C254 C 0.45811 0.9836 0.03123 0.0
C255 C 0.57141 0.13733 0.05832 0.0
C256 C 0.59496 0.13391 0.0558 0.0
C257 C 0.50761 0.00592 0.0779 0.0
C258 C 0.51536 0.01458 0.09909 0.0
C259 C 0.53483 0.04206 0.10391 0.0
C260 C 0.50296 0.99505 0.11472 0.0
C261 C 0.50975 0.00286 0.13519 0.0
C262 C 0.54183 0.04998 0.124 0.0
C263 C 0.52943 0.03068 0.13949 0.0
C264 C 0.48384 0.0421 1.00557 0.0
C265 C 0.54512 0.02919 1.00041 0.0
C266 C 0.49493 0.00714 0.95376 0.0
C267 C 0.50861 0.0341 0.94336 0.0
C268 C 0.51903 0.05857 0.95456 0.0
C269 C 0.51163 0.0356 0.9222 0.0
C270 C 0.52437 0.0614 0.91228 0.0
C271 C 0.5315 0.08407 0.94488 0.0
C272 C 0.53402 0.08553 0.92393 0.0
C273 C 0.52109 0.97258 0.02566 0.0
H274 H 0.54453 0.05736 0.09214 0.0
H275 H 0.48815 0.97377 0.11085 0.0
H276 H 0.55679 0.0713 0.12762 0.0
H277 H 0.53485 0.0378 0.15489 0.0
H278 H 0.51764 0.05796 0.97081 0.0
H279 H 0.50387 0.01675 0.9135 0.0
H280 H 0.53945 0.10281 0.95368 0.0
H281 H 0.54418 0.10565 0.91686 0.0
Gd282 Gd 0.98264 0.49099 0.04952 0.0
Gd283 Gd 0.01541 0.50217 0.99925 0.0
C284 C 0.09503 0.49712 0.98761 0.0
C285 C 0.12944 0.54475 0.9797 0.0
C286 C 0.08103 0.53194 0.98787 0.0
C287 C 0.07442 0.5049 0.99077 0.0
C288 C 0.10845 0.55208 0.98189 0.0
C289 C 0.1227 0.51729 0.98246 0.0
C290 C 0.08695 0.46917 0.98893 0.0
C291 C 0.05864 0.44966 0.99232 0.0
N292 N 0.04727 0.48581 0.99506 0.0
C293 C 0.03888 0.45835 0.99495 0.0
H294 H 0.01704 0.44306 0.99745 0.0
C295 C 0.06457 0.56361 0.98414 0.0
N296 N 0.06006 0.53812 0.98947 0.0
C297 C 0.0915 0.58438 0.97839 0.0
C298 C 0.11363 0.57868 0.97748 0.0
H299 H 0.04748 0.56807 0.98485 0.0
H300 H 0.13888 0.51175 0.98011 0.0
H301 H 0.97845 0.54914 0.0485 0.0
H302 H 0.10218 0.46237 0.98674 0.0
H303 H 0.05202 0.42791 0.99286 0.0
H304 H 0.1507 0.55997 0.97527 0.0
H305 H 0.95194 0.42583 0.06621 0.0
H306 H 0.89228 0.52733 0.05711 0.0
H307 H 0.94211 0.56265 0.05091 0.0
H308 H 0.84644 0.43057 0.07174 0.0
H309 H 0.09516 0.60474 0.97465 0.0
H310 H 0.13442 0.59473 0.97286 0.0
H311 H 0.85664 0.47789 0.06469 0.0
H312 H 0.90458 0.38872 0.0762 0.0
N313 N 0.94967 0.50629 0.05295 0.0
C314 C 0.90821 0.52123 0.05615 0.0
C315 C 0.93631 0.54123 0.05269 0.0
C316 C 0.90117 0.49373 0.05892 0.0
C317 C 0.9227 0.48689 0.05737 0.0
C318 C 0.95692 0.53342 0.05137 0.0
N319 N 0.9385 0.45493 0.06035 0.0
C320 C 0.91693 0.46034 0.06124 0.0
C321 C 0.90773 0.40874 0.07193 0.0
C322 C 0.88502 0.41361 0.07198 0.0
C323 C 0.93456 0.42984 0.06629 0.0
C324 C 0.88952 0.43977 0.06687 0.0
H325 H 0.86426 0.39724 0.07638 0.0
O326 O 0.99788 0.48211 0.07711 0.0
O327 O 0.01766 0.49211 0.03135 0.0
O328 O 0.98126 0.4567 1.004 0.0
O329 O 0.95209 0.45659 0.02982 0.0
O330 O 0.99778 0.46027 0.05176 0.0
O331 O 0.99563 0.51954 0.07483 0.0
O332 O 0.00569 0.51448 0.97068 0.0
O333 O 0.98083 0.50047 0.01743 0.0
O334 O 0.01364 0.53598 0.04318 0.0
O335 O 0.04575 0.53688 0.0198 0.0
O336 O 0.99707 0.53071 0.99604 0.0
O337 O 1.00013 0.4735 0.97404 0.0
C338 C 0.01767 0.47121 0.03861 0.0
C339 C 0.86771 0.44616 0.06764 0.0
C340 C 0.87352 0.47309 0.06364 0.0
C341 C 1.00099 0.50393 0.08644 0.0
C342 C 0.98985 0.49947 0.10704 0.0
C343 C 0.96069 0.48447 0.11065 0.0
C344 C 0.00876 0.5093 0.12335 0.0
C345 C 0.99867 0.50377 0.14325 0.0
C346 C 0.95055 0.47896 0.13037 0.0
C347 C 0.96938 0.48839 0.1466 0.0
C348 C 0.95696 0.445 0.01412 0.0
C349 C 0.9777 0.51925 0.00953 0.0
C350 C 0.99924 0.49126 0.96176 0.0
C351 C 0.01124 0.49344 0.94156 0.0
C352 C 0.03963 0.50078 0.9392 0.0
C353 C 0.99413 0.48832 0.92442 0.0
C354 C 0.00528 0.49047 0.90492 0.0
C355 C 0.05088 0.50309 0.91999 0.0
C356 C 0.03393 0.49803 0.90297 0.0
C357 C 0.03882 0.54834 0.03457 0.0
H358 H 0.94582 0.47685 0.0983 0.0
H359 H 0.03132 0.52076 0.12055 0.0
H360 H 0.92802 0.46729 0.13307 0.0
H361 H 0.96105 0.48401 0.16178 0.0
H362 H 0.05308 0.50473 0.95216 0.0
H363 H 0.97209 0.48232 0.92632 0.0
H364 H 0.07287 0.5089 0.91829 0.0
H365 H 0.04339 0.50038 0.88826 0.0
Gd366 Gd 0.50281 0.51444 0.99683 0.0
Gd367 Gd 0.51801 0.50181 0.04786 0.0
C368 C 0.60752 0.55395 0.07284 0.0
C369 C 0.63163 0.53143 0.05838 0.0
C370 C 0.58166 0.51364 0.05161 0.0
C371 C 0.58244 0.53484 0.06285 0.0
C372 C 0.60619 0.51146 0.0495 0.0
C373 C 0.63231 0.55265 0.07002 0.0
C374 C 0.60654 0.57279 0.08625 0.0
C375 C 0.58067 0.57113 0.09033 0.0
N376 N 0.55807 0.53528 0.06551 0.0
C377 C 0.55638 0.55157 0.08023 0.0
H378 H 0.53624 0.54972 0.08385 0.0
C379 C 0.55432 0.47153 0.03424 0.0
N380 N 0.55656 0.4943 0.04366 0.0
C381 C 0.5781 0.4686 0.03162 0.0
C382 C 0.60425 0.48885 0.03903 0.0
H383 H 0.53443 0.45566 0.02837 0.0
H384 H 0.65185 0.56734 0.07738 0.0
H385 H 0.43892 0.45817 0.99658 0.0
H386 H 0.62531 0.58774 0.09426 0.0
H387 H 0.57936 0.58466 0.10142 0.0
H388 H 0.65069 0.53014 0.05686 0.0
H389 H 0.54143 0.57962 0.98084 0.0
H390 H 0.37719 0.48275 0.9863 0.0
H391 H 0.38904 0.44607 0.99255 0.0
H392 H 0.43364 0.57989 0.97381 0.0
H393 H 0.57625 0.45077 0.02379 0.0
H394 H 0.62263 0.48652 0.03699 0.0
H395 H 0.39408 0.53282 0.97932 0.0
H396 H 0.53427 0.61836 0.97098 0.0
N397 N 0.45498 0.50123 0.99308 0.0
C398 C 0.39909 0.48816 0.98805 0.0
C399 C 0.4057 0.46738 0.99151 0.0
C400 C 0.42089 0.51555 0.98623 0.0
C401 C 0.44901 0.52148 0.98876 0.0
C402 C 0.43397 0.47431 0.99379 0.0
N403 N 0.49791 0.55225 0.98689 0.0
C404 C 0.4712 0.54788 0.98559 0.0
C405 C 0.51636 0.59871 0.9752 0.0
C406 C 0.48912 0.59504 0.97499 0.0
C407 C 0.52035 0.57678 0.98078 0.0
C408 C 0.46604 0.5692 0.97976 0.0
H409 H 0.48605 0.61198 0.97049 0.0
O410 O 0.52941 0.5239 0.97027 0.0
O411 O 0.53252 0.50767 0.01591 0.0
O412 O 0.53616 0.54762 0.04343 0.0
O413 O 0.51085 0.55104 0.01623 0.0
O414 O 0.54972 0.54296 0.99855 0.0
O415 O 0.48632 0.49076 0.96911 0.0
O416 O 0.51277 0.46927 0.06847 0.0
O417 O 0.48355 0.49629 0.02664 0.0
O418 O 0.48963 0.46923 0.99936 0.0
O419 O 0.49284 0.45984 0.03327 0.0
O420 O 0.48531 0.51391 0.05455 0.0
O421 O 0.49657 0.49607 0.0765 0.0
C422 C 0.55574 0.52805 0.01005 0.0
C423 C 0.43807 0.56374 0.97812 0.0
C424 C 0.41554 0.53694 0.98126 0.0
C425 C 0.50962 0.5051 0.95908 0.0
C426 C 0.50711 0.51337 0.93845 0.0
C427 C 0.49628 0.53105 0.935 0.0
C428 C 0.51607 0.50375 0.92199 0.0
C429 C 0.51445 0.51193 0.90214 0.0
C430 C 0.49475 0.53935 0.91546 0.0
C431 C 0.50379 0.52995 0.89914 0.0
C432 C 0.52672 0.56113 0.03254 0.0
C433 C 0.47133 0.5055 0.03795 0.0
C434 C 0.50232 0.47747 0.0828 0.0
C435 C 0.51501 0.48187 0.10329 0.0
C436 C 0.53463 0.47332 0.10773 0.0
C437 C 0.50726 0.49435 0.11871 0.0
C438 C 0.51878 0.49799 0.1383 0.0
C439 C 0.54617 0.477 0.12702 0.0
C440 C 0.53831 0.48913 0.14218 0.0
C441 C 0.48624 0.45215 0.01425 0.0
H442 H 0.48898 0.53842 0.94736 0.0
H443 H 0.52451 0.49013 0.92467 0.0
H444 H 0.48636 0.55301 0.91292 0.0
H445 H 0.50184 0.53634 0.88412 0.0
H446 H 0.5411 0.46375 0.09633 0.0
H447 H 0.49199 0.50086 0.11556 0.0
H448 H 0.56133 0.47041 0.13023 0.0
H449 H 0.54787 0.49194 0.15694 0.0
Gd450 Gd 0.18633 0.36155 0.38024 0.0
Gd451 Gd 0.1632 0.33274 0.32882 0.0
C452 C 0.07524 0.25951 0.31632 0.0
C453 C 0.08592 0.22401 0.30591 0.0
C454 C 0.12383 0.2698 0.31508 0.0
C455 C 0.10433 0.27796 0.3193 0.0
C456 C 0.11493 0.24295 0.30786 0.0
C457 C 0.06611 0.23231 0.31005 0.0
C458 C 0.05633 0.26926 0.31895 0.0
C459 C 0.06673 0.29709 0.3234 0.0
N460 N 0.11399 0.30461 0.3247 0.0
C461 C 0.09582 0.31469 0.32582 0.0
H462 H 0.10354 0.33617 0.32915 0.0
C463 C 0.17169 0.28321 0.30943 0.0
N464 N 0.15164 0.28889 0.31649 0.0
C465 C 0.16397 0.25674 0.30245 0.0
C466 C 0.13547 0.23637 0.30196 0.0
H467 H 0.19375 0.29893 0.3098 0.0
H468 H 0.04383 0.21777 0.30786 0.0
H469 H 0.24605 0.35789 0.37778 0.0
H470 H 0.03381 0.25571 0.31694 0.0
H471 H 0.05236 0.30504 0.32494 0.0
H472 H 0.07863 0.20321 0.30055 0.0
H473 H 0.15682 0.39666 0.399 0.0
H474 H 0.31642 0.43844 0.38842 0.0
H475 H 0.29735 0.38904 0.38042 0.0
H476 H 0.27281 0.4916 0.40638 0.0
H477 H 0.17999 0.25209 0.29744 0.0
H478 H 0.12951 0.21596 0.29637 0.0
H479 H 0.30705 0.47669 0.39795 0.0
H480 H 0.17152 0.44386 0.41085 0.0
N481 N 0.23576 0.3893 0.38377 0.0
C482 C 0.29378 0.42481 0.38734 0.0
C483 C 0.28309 0.39694 0.38287 0.0
C484 C 0.27507 0.43458 0.39095 0.0
C485 C 0.24579 0.416 0.38918 0.0
C486 C 0.25387 0.3793 0.38141 0.0
N487 N 0.19872 0.40558 0.39271 0.0
C488 C 0.22664 0.42442 0.39382 0.0
C489 C 0.18725 0.43871 0.40602 0.0
C490 C 0.21589 0.45872 0.40635 0.0
C491 C 0.179 0.41199 0.39935 0.0
C492 C 0.23604 0.4516 0.40048 0.0
H493 H 0.22223 0.4794 0.41155 0.0
O494 O 0.16265 0.34909 0.40827 0.0
O495 O 0.15108 0.32999 0.36124 0.0
O496 O 0.15365 0.36742 0.33575 0.0
O497 O 0.18416 0.39396 0.36177 0.0
O498 O 0.14086 0.35044 0.38273 0.0
O499 O 0.19896 0.34379 0.40441 0.0
O500 O 0.1865 0.34459 0.30061 0.0
O501 O 0.19737 0.36399 0.34797 0.0
O502 O 0.19612 0.32759 0.37329 0.0
O503 O 0.1668 0.30033 0.34701 0.0
O504 O 0.20993 0.347 0.32578 0.0
O505 O 0.15058 0.35042 0.30449 0.0
C506 C 0.13077 0.33158 0.36902 0.0
C507 C 0.26516 0.47053 0.4015 0.0
C508 C 0.28465 0.46204 0.3967 0.0
C509 C 0.17917 0.34137 0.41661 0.0
C510 C 0.18749 0.34997 0.43766 0.0
C511 C 0.20745 0.37732 0.44242 0.0
C512 C 0.17487 0.33054 0.45323 0.0
C513 C 0.1817 0.33836 0.47364 0.0
C514 C 0.21454 0.38526 0.46249 0.0
C515 C 0.20174 0.36607 0.47799 0.0
C516 C 0.16723 0.39064 0.34642 0.0
C517 C 0.21888 0.36533 0.33988 0.0
C518 C 0.16996 0.35219 0.29214 0.0
C519 C 0.16093 0.34244 0.2713 0.0
C520 C 0.14102 0.31473 0.26756 0.0
C521 C 0.17271 0.36082 0.25495 0.0
C522 C 0.16479 0.3515 0.23487 0.0
C523 C 0.13317 0.3053 0.24787 0.0
C524 C 0.14498 0.32338 0.23167 0.0
C525 C 0.18322 0.30429 0.36287 0.0
H526 H 0.21742 0.39253 0.43066 0.0
H527 H 0.1598 0.30934 0.44935 0.0
H528 H 0.22983 0.40649 0.46609 0.0
H529 H 0.20718 0.37317 0.49338 0.0
H530 H 0.13166 0.30035 0.27985 0.0
H531 H 0.1878 0.38232 0.25795 0.0
H532 H 0.11797 0.28378 0.24512 0.0
H533 H 0.13884 0.31511 0.21659 0.0
Gd534 Gd 0.66594 0.83886 0.37388 0.0
Gd535 Gd 0.69194 0.83854 0.32288 0.0
C536 C 0.76175 0.81709 0.3134 0.0
C537 C 0.79989 0.86005 0.3001 0.0
C538 C 0.75459 0.85603 0.30829 0.0
C539 C 0.74441 0.82914 0.31448 0.0
C540 C 0.78229 0.87168 0.30072 0.0
C541 C 0.78965 0.83282 0.30646 0.0
C542 C 0.75048 0.78954 0.31918 0.0
C543 C 0.72237 0.77452 0.32533 0.0
N544 N 0.71742 0.81462 0.32127 0.0
C545 C 0.70596 0.78731 0.32605 0.0
H546 H 0.68444 0.77527 0.33107 0.0
C547 C 0.74534 0.89227 0.30152 0.0
N548 N 0.73713 0.86667 0.30918 0.0
C549 C 0.77263 0.90863 0.29393 0.0
C550 C 0.7913 0.8984 0.29371 0.0
H551 H 0.731 0.90032 0.30182 0.0
H552 H 0.80334 0.82398 0.30569 0.0
H553 H 0.66664 0.89872 0.36819 0.0
H554 H 0.76315 0.7796 0.3187 0.0
H555 H 0.71335 0.7531 0.32964 0.0
H556 H 0.8213 0.87181 0.29449 0.0
H557 H 0.63542 0.77963 0.3993 0.0
H558 H 0.584 0.88553 0.38065 0.0
H559 H 0.6336 0.91657 0.37053 0.0
H560 H 0.53485 0.79273 0.40528 0.0
H561 H 0.77925 0.92912 0.28829 0.0
H562 H 0.81243 0.91109 0.2878 0.0
H563 H 0.54722 0.83916 0.39362 0.0
H564 H 0.58902 0.7474 0.4143 0.0
N565 N 0.63568 0.8575 0.3756 0.0
C566 C 0.59834 0.87749 0.37941 0.0
C567 C 0.62633 0.89509 0.37376 0.0
C568 C 0.58956 0.85006 0.38431 0.0
C569 C 0.60901 0.84057 0.38225 0.0
C570 C 0.64498 0.88484 0.37239 0.0
N571 N 0.62251 0.80752 0.38877 0.0
C572 C 0.60215 0.81464 0.38902 0.0
C573 C 0.59234 0.76613 0.4071 0.0
C574 C 0.57058 0.77238 0.40644 0.0
C575 C 0.61854 0.78438 0.39859 0.0
C576 C 0.57557 0.79725 0.39783 0.0
H577 H 0.55043 0.75843 0.41332 0.0
O578 O 0.68135 0.83352 0.40276 0.0
O579 O 0.69762 0.83501 0.3555 0.0
O580 O 0.65606 0.79592 0.33084 0.0
O581 O 0.63294 0.79863 0.35971 0.0
O582 O 0.68225 0.80918 0.37977 0.0
O583 O 0.68274 0.872 0.39603 0.0
O584 O 0.68456 0.84931 0.29287 0.0
O585 O 0.65994 0.84311 0.34097 0.0
O586 O 0.70076 0.88224 0.36454 0.0
O587 O 0.72624 0.87504 0.33946 0.0
O588 O 0.68037 0.87156 0.31835 0.0
O589 O 0.66821 0.80639 0.30105 0.0
C590 C 0.7001 0.81688 0.36517 0.0
C591 C 0.55547 0.80588 0.39873 0.0
C592 C 0.56252 0.83232 0.3921 0.0
C593 C 0.68669 0.85746 0.40962 0.0
C594 C 0.67631 0.85753 0.43004 0.0
C595 C 0.64869 0.85226 0.43318 0.0
C596 C 0.69395 0.8618 0.44668 0.0
C597 C 0.68396 0.86008 0.46653 0.0
C598 C 0.6386 0.85066 0.45269 0.0
C599 C 0.65593 0.85428 0.46925 0.0
C600 C 0.63495 0.78522 0.34388 0.0
C601 C 0.66097 0.8635 0.33186 0.0
C602 C 0.67167 0.82374 0.28672 0.0
C603 C 0.67984 0.81825 0.26693 0.0
C604 C 0.69948 0.80918 0.2652 0.0
C605 C 0.66654 0.82071 0.24961 0.0
C606 C 0.67174 0.81305 0.23052 0.0
C607 C 0.70522 0.80201 0.24639 0.0
C608 C 0.69127 0.80357 0.22922 0.0
C609 C 0.7241 0.89042 0.35377 0.0
H610 H 0.63488 0.84919 0.4206 0.0
H611 H 0.71545 0.86643 0.44402 0.0
H612 H 0.61713 0.84625 0.455 0.0
H613 H 0.64705 0.85199 0.48415 0.0
H614 H 0.70996 0.80715 0.27838 0.0
H615 H 0.65194 0.8284 0.25119 0.0
H616 H 0.72011 0.79465 0.24515 0.0
H617 H 0.69542 0.79669 0.21506 0.0
Gd618 Gd 0.17344 0.84987 0.32605 0.0
Gd619 Gd 0.19896 0.84962 0.37761 0.0
C620 C 0.28604 0.86025 0.38996 0.0
C621 C 0.27428 0.81451 0.40154 0.0
C622 C 0.23704 0.82428 0.39239 0.0
C623 C 0.25703 0.85103 0.3874 0.0
C624 C 0.24539 0.80583 0.39984 0.0
C625 C 0.29457 0.84169 0.39665 0.0
C626 C 0.30556 0.88805 0.38635 0.0
C627 C 0.29587 0.90611 0.38123 0.0
N628 N 0.24804 0.86855 0.38137 0.0
C629 C 0.26685 0.89604 0.37914 0.0
H630 H 0.25966 0.91023 0.37521 0.0
C631 C 0.18883 0.79151 0.39762 0.0
N632 N 0.20933 0.81667 0.39079 0.0
C633 C 0.19604 0.77241 0.40496 0.0
C634 C 0.22444 0.77948 0.40587 0.0
H635 H 0.16685 0.78594 0.39682 0.0
H636 H 0.31677 0.84833 0.39852 0.0
H637 H 0.11496 0.78667 0.3316 0.0
H638 H 0.32804 0.89592 0.38804 0.0
H639 H 0.31074 0.92778 0.37887 0.0
H640 H 0.28113 0.80059 0.40708 0.0
H641 H 0.19926 0.91176 0.30478 0.0
H642 H 0.04222 0.79409 0.32024 0.0
H643 H 0.06361 0.76579 0.3297 0.0
H644 H 0.08111 0.88769 0.29837 0.0
H645 H 0.17972 0.75226 0.4099 0.0
H646 H 0.22998 0.76469 0.41165 0.0
H647 H 0.04895 0.83975 0.30881 0.0
H648 H 0.18196 0.94204 0.2917 0.0
N649 N 0.12354 0.82707 0.32354 0.0
C650 C 0.065 0.80348 0.32094 0.0
C651 C 0.077 0.78745 0.32625 0.0
C652 C 0.08258 0.83127 0.31608 0.0
C653 C 0.11212 0.84251 0.31732 0.0
C654 C 0.1064 0.79954 0.3273 0.0
N655 N 0.15826 0.87901 0.3122 0.0
C656 C 0.13009 0.86937 0.3115 0.0
C657 C 0.16713 0.92168 0.29728 0.0
C658 C 0.1382 0.9125 0.29732 0.0
C659 C 0.17683 0.90446 0.3046 0.0
C660 C 0.11923 0.88592 0.30423 0.0
H661 H 0.1307 0.92586 0.29163 0.0
O662 O 0.18871 0.85855 0.29501 0.0
O663 O 0.20989 0.85579 0.34492 0.0
O664 O 0.20946 0.89298 0.36864 0.0
O665 O 0.1779 0.88713 0.34275 0.0
O666 O 0.21903 0.88255 0.32117 0.0
O667 O 0.16823 0.81677 0.30634 0.0
O668 O 0.17712 0.84088 0.40632 0.0
O669 O 0.16385 0.84614 0.35861 0.0
O670 O 0.16368 0.80722 0.33652 0.0
O671 O 0.19818 0.81474 0.36023 0.0
O672 O 0.15193 0.81928 0.38219 0.0
O673 O 0.21322 0.88135 0.40077 0.0
C674 C 0.2299 0.8758 0.33575 0.0
C675 C 0.08987 0.87523 0.30371 0.0
C676 C 0.07157 0.84794 0.30965 0.0
C677 C 0.1791 0.83263 0.29069 0.0
C678 C 0.16379 0.8221 0.27144 0.0
C679 C 0.13417 0.80615 0.27105 0.0
C680 C 0.17899 0.82644 0.25339 0.0
C681 C 0.16476 0.81423 0.23522 0.0
C682 C 0.12001 0.79416 0.25307 0.0
C683 C 0.13517 0.79793 0.2353 0.0
C684 C 0.19549 0.90187 0.35746 0.0
C685 C 0.14251 0.82769 0.36765 0.0
C686 C 0.19455 0.86505 0.41389 0.0
C687 C 0.20474 0.86513 0.43449 0.0
C688 C 0.22911 0.86327 0.43766 0.0
C689 C 0.18956 0.86646 0.45119 0.0
C690 C 0.19864 0.86593 0.47104 0.0
C691 C 0.23819 0.86264 0.45719 0.0
C692 C 0.22312 0.86389 0.47375 0.0
C693 C 0.17916 0.7991 0.34666 0.0
H694 H 0.12199 0.80257 0.28468 0.0
H695 H 0.20186 0.83871 0.25357 0.0
H696 H 0.09719 0.78173 0.25293 0.0
H697 H 0.12374 0.78847 0.22152 0.0
H698 H 0.24107 0.86223 0.42508 0.0
H699 H 0.17088 0.86816 0.44867 0.0
H700 H 0.25693 0.86103 0.45951 0.0
H701 H 0.23047 0.86283 0.48869 0.0
Gd702 Gd 0.83304 0.67701 0.70774 0.0
Gd703 Gd 0.81432 0.64709 0.65612 0.0
C704 C 0.73463 0.56587 0.64031 0.0
C705 C 0.75395 0.53668 0.63065 0.0
C706 C 0.78524 0.58436 0.64069 0.0
C707 C 0.76226 0.58784 0.6439 0.0
C708 C 0.78142 0.55884 0.63379 0.0
C709 C 0.73059 0.54019 0.63391 0.0
C710 C 0.71192 0.57048 0.64302 0.0
C711 C 0.71713 0.59664 0.64874 0.0
N712 N 0.76696 0.61291 0.65013 0.0
C713 C 0.74492 0.61778 0.65202 0.0
H714 H 0.74847 0.63769 0.65666 0.0
C715 C 0.8349 0.60433 0.63951 0.0
N716 N 0.81145 0.60618 0.64391 0.0
C717 C 0.8322 0.57942 0.63274 0.0
C718 C 0.80533 0.5565 0.63001 0.0
H719 H 0.85576 0.62186 0.64166 0.0
H720 H 0.70952 0.52302 0.63119 0.0
H721 H 0.89546 0.67871 0.70893 0.0
H722 H 0.69037 0.55413 0.6405 0.0
H723 H 0.69975 0.60051 0.65074 0.0
H724 H 0.75056 0.51686 0.62546 0.0
H725 H 0.79834 0.70864 0.7237 0.0
H726 H 0.96095 0.76248 0.717 0.0
H727 H 0.94596 0.71316 0.71214 0.0
H728 H 0.90989 0.81051 0.72795 0.0
H729 H 0.85084 0.57792 0.62964 0.0
H730 H 0.80329 0.53723 0.62473 0.0
H731 H 0.94728 0.79881 0.72252 0.0
H732 H 0.80878 0.75589 0.73251 0.0
N733 N 0.88171 0.70813 0.71171 0.0
C734 C 0.93868 0.7474 0.71572 0.0
C735 C 0.9303 0.71958 0.71301 0.0
C736 C 0.91815 0.7553 0.71734 0.0
C737 C 0.88945 0.73485 0.71544 0.0
C738 C 0.90156 0.70007 0.71122 0.0
N739 N 0.84122 0.72088 0.71759 0.0
C740 C 0.86851 0.74148 0.71835 0.0
C741 C 0.82577 0.75215 0.72847 0.0
C742 C 0.85365 0.77394 0.72809 0.0
C743 C 0.81994 0.72547 0.72355 0.0
C744 C 0.87551 0.76867 0.72342 0.0
H745 H 0.85814 0.79457 0.73199 0.0
O746 O 0.80935 0.66575 0.73578 0.0
O747 O 0.80135 0.64332 0.68837 0.0
O748 O 0.79581 0.67436 0.66338 0.0
O749 O 0.82445 0.70535 0.6882 0.0
O750 O 0.78574 0.65836 0.7102 0.0
O751 O 0.84711 0.66276 0.73348 0.0
O752 O 0.83818 0.66216 0.62825 0.0
O753 O 0.8457 0.68072 0.67569 0.0
O754 O 0.8466 0.64464 0.70196 0.0
O755 O 0.81822 0.61657 0.67562 0.0
O756 O 0.86186 0.66582 0.65445 0.0
O757 O 0.79954 0.66335 0.63222 0.0
C758 C 0.77878 0.63998 0.69626 0.0
C759 C 0.90405 0.78942 0.72433 0.0
C760 C 0.92534 0.78275 0.72127 0.0
C761 C 0.82702 0.66053 0.74531 0.0
C762 C 0.83556 0.67269 0.76571 0.0
C763 C 0.85019 0.70147 0.76798 0.0
C764 C 0.82911 0.65582 0.78302 0.0
C765 C 0.83778 0.66792 0.80234 0.0
C766 C 0.85825 0.71343 0.787 0.0
C767 C 0.85218 0.69688 0.80402 0.0
C768 C 0.80567 0.69789 0.67342 0.0
C769 C 0.86847 0.68402 0.66841 0.0
C770 C 0.82011 0.66793 0.61998 0.0
C771 C 0.81235 0.65926 0.59878 0.0
C772 C 0.79178 0.63204 0.59419 0.0
C773 C 0.8255 0.67835 0.58296 0.0
C774 C 0.81796 0.67032 0.56263 0.0
C775 C 0.7843 0.6239 0.5742 0.0
C776 C 0.7972 0.64278 0.55856 0.0
C777 C 0.83476 0.62119 0.69144 0.0
H778 H 0.85541 0.71476 0.75505 0.0
H779 H 0.81807 0.63356 0.78142 0.0
H780 H 0.86946 0.73568 0.78856 0.0
H781 H 0.85891 0.70677 0.81861 0.0
H782 H 0.78149 0.61708 0.60605 0.0
H783 H 0.84128 0.69945 0.58654 0.0
H784 H 0.76846 0.60279 0.57079 0.0
H785 H 0.79121 0.63562 0.54322 0.0
Gd786 Gd 0.33436 0.16194 0.70163 0.0
Gd787 Gd 0.35931 0.15811 0.65099 0.0
C788 C 0.35644 0.08332 0.62059 0.0
C789 C 0.40154 0.08811 0.63038 0.0
C790 C 0.38844 0.12162 0.6417 0.0
C791 C 0.36276 0.10699 0.63204 0.0
C792 C 0.40848 0.11275 0.64055 0.0
C793 C 0.37558 0.07345 0.62034 0.0
C794 C 0.3318 0.07114 0.60892 0.0
C795 C 0.31459 0.08303 0.60845 0.0
N796 N 0.34493 0.11725 0.63245 0.0
C797 C 0.3217 0.10642 0.62015 0.0
H798 H 0.30843 0.11564 0.61958 0.0
C799 C 0.42142 0.16296 0.65784 0.0
N800 N 0.39469 0.1457 0.65086 0.0
C801 C 0.44198 0.15505 0.65712 0.0
C802 C 0.43534 0.12958 0.64881 0.0
H803 H 0.42695 0.18273 0.66431 0.0
H804 H 0.37094 0.05509 0.61185 0.0
H805 H 0.3311 0.21983 0.69666 0.0
H806 H 0.32634 0.05311 0.59974 0.0
H807 H 0.29588 0.07423 0.59904 0.0
H808 H 0.41654 0.08081 0.62952 0.0
H809 H 0.30381 0.09924 0.72345 0.0
H810 H 0.2466 0.20172 0.70829 0.0
H811 H 0.29596 0.23503 0.699 0.0
H812 H 0.2004 0.1074 0.72975 0.0
H813 H 0.46297 0.16865 0.66292 0.0
H814 H 0.45135 0.12355 0.64822 0.0
H815 H 0.21103 0.15396 0.71975 0.0
H816 H 0.25728 0.06457 0.73642 0.0
N817 N 0.30184 0.17794 0.70376 0.0
C818 C 0.26193 0.19486 0.70718 0.0
C819 C 0.28977 0.21373 0.70198 0.0
C820 C 0.25445 0.1676 0.71157 0.0
C821 C 0.2752 0.15972 0.70978 0.0
C822 C 0.30963 0.20496 0.70061 0.0
N823 N 0.29052 0.12776 0.71493 0.0
C824 C 0.26932 0.13374 0.71559 0.0
C825 C 0.26032 0.08388 0.73049 0.0
C826 C 0.23796 0.08924 0.73031 0.0
C827 C 0.28673 0.10366 0.7231 0.0
C828 C 0.24243 0.11464 0.72319 0.0
H829 H 0.21759 0.07398 0.73622 0.0
O830 O 0.3533 0.15923 0.72985 0.0
O831 O 0.36684 0.15766 0.68379 0.0
O832 O 0.32524 0.11491 0.66056 0.0
O833 O 0.30052 0.12436 0.68518 0.0
O834 O 0.34799 0.13061 0.70736 0.0
O835 O 0.34848 0.19445 0.72421 0.0
O836 O 0.3938 0.18583 0.63147 0.0
O837 O 0.33656 0.17422 0.66963 0.0
O838 O 0.36525 0.20475 0.69032 0.0
O839 O 0.39218 0.19722 0.66698 0.0
O840 O 0.31773 0.15496 0.64274 0.0
O841 O 0.35113 0.17394 0.62333 0.0
C842 C 0.36623 0.13768 0.69316 0.0
C843 C 0.22125 0.12186 0.72409 0.0
C844 C 0.22729 0.14835 0.71839 0.0
C845 C 0.35557 0.18173 0.73728 0.0
C846 C 0.34483 0.17985 0.75789 0.0
C847 C 0.31582 0.16865 0.76131 0.0
C848 C 0.36363 0.18898 0.77433 0.0
C849 C 0.35345 0.18669 0.79416 0.0
C850 C 0.30561 0.16634 0.78087 0.0
C851 C 0.32422 0.17523 0.7972 0.0
C852 C 0.30233 0.10784 0.67161 0.0
C853 C 0.31538 0.16733 0.65831 0.0
C854 C 0.37709 0.18516 0.61723 0.0
C855 C 0.38158 0.1775 0.59668 0.0
C856 C 0.40539 0.17494 0.59251 0.0
C857 C 0.36188 0.17236 0.5811 0.0
C858 C 0.36587 0.16474 0.56159 0.0
C859 C 0.40953 0.16753 0.5733 0.0
C860 C 0.39009 0.16257 0.55795 0.0
C861 C 0.38889 0.21332 0.68005 0.0
H862 H 0.30107 0.16175 0.7489 0.0
H863 H 0.38605 0.19748 0.7717 0.0
H864 H 0.28317 0.1577 0.78337 0.0
H865 H 0.31576 0.1735 0.81221 0.0
H866 H 0.42091 0.17863 0.60407 0.0
H867 H 0.34329 0.17394 0.58428 0.0
H868 H 0.42803 0.16576 0.57024 0.0
H869 H 0.39437 0.15748 0.54312 0.0
Gd870 Gd 0.84112 0.18273 0.65852 0.0
Gd871 Gd 0.86109 0.16898 0.7087 0.0
C872 C 0.94308 0.16858 0.72237 0.0
C873 C 0.92581 0.12042 0.7305 0.0
C874 C 0.89281 0.13611 0.72193 0.0
C875 C 0.915 0.16258 0.71928 0.0
C876 C 0.89789 0.11475 0.72784 0.0
C877 C 0.94837 0.14729 0.72775 0.0
C878 C 0.96497 0.19582 0.7201 0.0
C879 C 0.95854 0.21634 0.71528 0.0
N880 N 0.90909 0.18258 0.71397 0.0
C881 C 0.93036 0.20938 0.71248 0.0
H882 H 0.92594 0.22546 0.70849 0.0
C883 C 0.84345 0.10599 0.72327 0.0
N884 N 0.86616 0.13141 0.71925 0.0
C885 C 0.8474 0.0841 0.72904 0.0
C886 C 0.87475 0.08843 0.73119 0.0
H887 H 0.82221 0.10231 0.72158 0.0
H888 H 0.96979 0.15146 0.73005 0.0
H889 H 0.77761 0.12556 0.65559 0.0
H890 H 0.98682 0.20126 0.72222 0.0
H891 H 0.9753 0.23753 0.71359 0.0
H892 H 0.93015 0.10425 0.73491 0.0
H893 H 0.87941 0.24927 0.64565 0.0
H894 H 0.71535 0.14924 0.64505 0.0
H895 H 0.72782 0.11287 0.65066 0.0
H896 H 0.77075 0.2472 0.63606 0.0
H897 H 0.82934 0.06391 0.73183 0.0
H898 H 0.87775 0.07146 0.73571 0.0
H899 H 0.7316 0.19945 0.63955 0.0
H900 H 0.87171 0.28803 0.63698 0.0
N901 N 0.79315 0.16876 0.65378 0.0
C902 C 0.73725 0.15494 0.64734 0.0
C903 C 0.7442 0.13436 0.65045 0.0
C904 C 0.75874 0.18257 0.64652 0.0
C905 C 0.78687 0.18889 0.64978 0.0
C906 C 0.77248 0.14166 0.65328 0.0
N907 N 0.83566 0.22045 0.64934 0.0
C908 C 0.80885 0.21563 0.64756 0.0
C909 C 0.85384 0.26778 0.63996 0.0
C910 C 0.82637 0.26343 0.63891 0.0
C911 C 0.85812 0.24581 0.64482 0.0
C912 C 0.80342 0.23698 0.64231 0.0
H913 H 0.82309 0.28042 0.63496 0.0
O914 O 0.8645 0.1942 0.63041 0.0
O915 O 0.87331 0.17951 0.67674 0.0
O916 O 0.87814 0.21437 0.70259 0.0
O917 O 0.84764 0.21747 0.67962 0.0
O918 O 0.88873 0.21018 0.65553 0.0
O919 O 0.82604 0.15472 0.63283 0.0
O920 O 0.83756 0.15897 0.73673 0.0
O921 O 0.82807 0.17154 0.69045 0.0
O922 O 0.82654 0.13675 0.6632 0.0
O923 O 0.8567 0.13567 0.68778 0.0
O924 O 0.8142 0.13947 0.71067 0.0
O925 O 0.87549 0.1987 0.73323 0.0
C926 C 0.89588 0.19815 0.66892 0.0
C927 C 0.77538 0.23106 0.63996 0.0
C928 C 0.75309 0.20387 0.64194 0.0
C929 C 0.84648 0.17167 0.62107 0.0
C930 C 0.83874 0.17509 0.60044 0.0
C931 C 0.82209 0.1873 0.59708 0.0
C932 C 0.84887 0.16681 0.58386 0.0
C933 C 0.84267 0.17098 0.56396 0.0
C934 C 0.81574 0.19137 0.57746 0.0
C935 C 0.82598 0.18338 0.56101 0.0
C936 C 0.86683 0.22805 0.69416 0.0
C937 C 0.80618 0.15099 0.69751 0.0
C938 C 0.85538 0.18219 0.74536 0.0
C939 C 0.86378 0.18035 0.76606 0.0
C940 C 0.88271 0.17088 0.76997 0.0
C941 C 0.85259 0.18817 0.78215 0.0
C942 C 0.86036 0.18679 0.80219 0.0
C943 C 0.89046 0.16933 0.78975 0.0
C944 C 0.87945 0.17725 0.80576 0.0
C945 C 0.83917 0.12464 0.67238 0.0
H946 H 0.81412 0.19379 0.6096 0.0
H947 H 0.86199 0.15762 0.58648 0.0
H948 H 0.80285 0.20079 0.57497 0.0
H949 H 0.8205 0.18657 0.54597 0.0
H950 H 0.89152 0.16478 0.75777 0.0
H951 H 0.83766 0.19511 0.77901 0.0
H952 H 0.9052 0.16213 0.79268 0.0
H953 H 0.8863 0.17634 0.82091 0.0
H954 H 0.30464 0.8789 0.07347 0.0
H955 H 0.3237 0.8132 0.0636 0.0
H956 H 0.36964 0.8467 0.04869 0.0
H957 H 0.3367 0.91611 0.02728 0.0
H958 H 0.35001 0.94963 0.03867 0.0
H959 H 0.31837 0.92044 0.04828 0.0
H960 H 0.34082 0.92939 0.08394 0.0
H961 H 0.37237 0.95868 0.07442 0.0
H962 H 0.37458 0.93139 0.08719 0.0
H963 H 0.41424 0.88757 0.03605 0.0
H964 H 0.45454 0.93303 0.0272 0.0
H965 H 0.40613 0.97212 0.04406 0.0
C966 C 0.3186 0.87164 0.06831 0.0
C967 C 0.31063 0.84345 0.0697 0.0
C968 C 0.32932 0.83467 0.06254 0.0
C969 C 0.35543 0.85353 0.05405 0.0
C970 C 0.36251 0.8811 0.05268 0.0
C971 C 0.34467 0.89017 0.05961 0.0
C972 C 0.3575 0.92098 0.05649 0.0
C973 C 0.33957 0.92714 0.04181 0.0
C974 C 0.36156 0.93599 0.07671 0.0
C975 C 0.38558 0.92789 0.04717 0.0
C976 C 0.38797 0.90456 0.04496 0.0
C977 C 0.41244 0.90592 0.03745 0.0
C978 C 0.43519 0.93184 0.03229 0.0
C979 C 0.43315 0.956 0.03435 0.0
C980 C 0.40798 0.95388 0.04189 0.0
H981 H 0.17461 0.50213 0.06533 0.0
H982 H 0.13694 0.41359 0.07234 0.0
H983 H 0.09153 0.40699 0.05952 0.0
H984 H 0.11362 0.50509 0.08229 0.0
H985 H 0.11824 0.53189 0.06504 0.0
H986 H 0.14842 0.52964 0.07336 0.0
H987 H 0.16135 0.52796 0.03639 0.0
H988 H 0.13052 0.5287 0.02752 0.0
H989 H 0.1365 0.50092 0.02012 0.0
H990 H 0.04978 0.40957 0.04832 0.0
H991 H 0.0128 0.42123 0.04071 0.0
H992 H 0.07568 0.50827 0.04047 0.0
C993 C 0.15682 0.48139 0.0639 0.0
C994 C 0.1593 0.45828 0.06971 0.0
C995 C 0.13547 0.4315 0.06798 0.0
C996 C 0.10964 0.42756 0.06063 0.0
C997 C 0.10774 0.45064 0.05515 0.0
C998 C 0.13053 0.47708 0.05684 0.0
C999 C 0.12192 0.49827 0.05111 0.0
C1000 C 0.12578 0.51734 0.06902 0.0
C1001 C 0.13855 0.51497 0.03267 0.0
C1002 C 0.09074 0.47955 0.0461 0.0
C1003 C 0.08324 0.45215 0.04845 0.0
C1004 C 0.05545 0.4309 0.04614 0.0
C1005 C 0.03458 0.43771 0.04179 0.0
C1006 C 0.04143 0.46552 0.03949 0.0
C1007 C 0.07001 0.48678 0.04145 0.0
H1008 H 0.57714 0.72177 0.04121 0.0
H1009 H 0.54326 0.70418 0.10194 0.0
H1010 H 0.52783 0.65503 0.09696 0.0
H1011 H 0.52095 0.6589 0.01848 0.0
H1012 H 0.54433 0.6547 1.00159 0.0
H1013 H 0.55275 0.68874 0.00972 0.0
H1014 H 0.60139 0.6977 0.02283 0.0
H1015 H 0.59302 0.66369 0.01473 0.0
H1016 H 0.60275 0.67401 0.04057 0.0
H1017 H 0.51584 0.60839 0.08582 0.0
H1018 H 0.50909 0.56612 0.0692 0.0
H1019 H 0.55054 0.61285 0.01556 0.0
C1020 C 0.56634 0.70753 0.0534 0.0
C1021 C 0.56164 0.71687 0.07204 0.0
C1022 C 0.54761 0.69763 0.08769 0.0
C1023 C 0.53852 0.66963 0.08495 0.0
C1024 C 0.54346 0.66115 0.06644 0.0
C1025 C 0.55702 0.67941 0.05091 0.0
C1026 C 0.55987 0.66467 0.03261 0.0
C1027 C 0.5435 0.66689 0.01453 0.0
C1028 C 0.59112 0.67568 0.02739 0.0
C1029 C 0.54607 0.63536 0.04044 0.0
C1030 C 0.53664 0.63391 0.05997 0.0
C1031 C 0.52332 0.60926 0.0706 0.0
C1032 C 0.51986 0.58546 0.06114 0.0
C1033 C 0.52991 0.58654 0.04137 0.0
C1034 C 0.54274 0.61165 0.03071 0.0
H1035 H 0.87681 0.29884 0.95635 0.0
H1036 H 0.80112 0.28495 0.98772 0.0
H1037 H 0.82797 0.33079 1.00365 0.0
H1038 H 0.92518 0.33407 0.99682 0.0
H1039 H 0.95329 0.35846 0.98092 0.0
H1040 H 0.92815 0.32485 0.97127 0.0
H1041 H 0.91619 0.34756 0.94177 0.0
H1042 H 0.94135 0.38125 0.95132 0.0
H1043 H 0.90517 0.37239 0.94714 0.0
H1044 H 0.8621 0.37704 0.01634 0.0
H1045 H 0.90211 0.42179 0.02587 0.0
H1046 H 0.95734 0.40706 0.98708 0.0
C1047 C 0.86588 0.30562 0.96642 0.0
C1048 C 0.83685 0.28829 0.97086 0.0
C1049 C 0.82337 0.29773 0.98429 0.0
C1050 C 0.8384 0.32378 0.99332 0.0
C1051 C 0.86695 0.34021 0.98879 0.0
C1052 C 0.88067 0.33165 0.97569 0.0
C1053 C 0.91175 0.35337 0.97392 0.0
C1054 C 0.93071 0.342 0.98117 0.0
C1055 C 0.91904 0.36429 0.95225 0.0
C1056 C 0.91328 0.37535 0.98817 0.0
C1057 C 0.88707 0.3672 0.99645 0.0
C1058 C 0.88276 0.38362 0.01005 0.0
C1059 C 0.90584 0.40904 0.01548 0.0
C1060 C 0.93316 0.41794 0.00752 0.0
C1061 C 0.93682 0.40087 0.9935 0.0
H1062 H 0.71794 0.58336 0.98174 0.0
H1063 H 0.68851 0.51075 0.94408 0.0
H1064 H 0.63943 0.49404 0.95557 0.0
H1065 H 0.67169 0.55137 0.02298 0.0
H1066 H 0.66481 0.57919 0.02809 0.0
H1067 H 0.69781 0.58636 0.01688 0.0
H1068 H 0.68957 0.61038 0.98659 0.0
H1069 H 0.65708 0.60447 0.99792 0.0
H1070 H 0.65691 0.59254 0.97265 0.0
H1071 H 0.59377 0.48452 0.97208 0.0
H1072 H 0.55397 0.48568 0.98886 0.0
H1073 H 0.61223 0.56537 0.01486 0.0
C1074 C 0.70101 0.56417 0.97572 0.0
C1075 C 0.70683 0.54838 0.96188 0.0
C1076 C 0.68433 0.52324 0.95447 0.0
C1077 C 0.65647 0.51352 0.96106 0.0
C1078 C 0.65141 0.52932 0.97495 0.0
C1079 C 0.67296 0.55439 0.98189 0.0
C1080 C 0.66162 0.56774 0.99626 0.0
C1081 C 0.67476 0.57138 0.01731 0.0
C1082 C 0.66659 0.59542 0.98785 0.0
C1083 C 0.63038 0.54623 0.9964 0.0
C1084 C 0.62503 0.52406 0.9842 0.0
C1085 C 0.59776 0.50174 0.98171 0.0
C1086 C 0.57531 0.50243 0.99145 0.0
C1087 C 0.58015 0.52522 1.00362 0.0
C1088 C 0.60808 0.54738 1.00609 0.0
H1089 H 0.50137 0.18679 0.97187 0.0
H1090 H 0.41824 0.14052 0.94433 0.0
H1091 H 0.41445 0.0972 0.95647 0.0
H1092 H 0.52406 0.13847 0.96156 0.0
H1093 H 0.54219 0.14316 0.98521 0.0
H1094 H 0.53886 0.17105 0.97463 0.0
H1095 H 0.51514 0.17475 0.00728 0.0
H1096 H 0.51869 0.14715 0.0182 0.0
H1097 H 0.48446 0.14451 0.01688 0.0
H1098 H 0.41988 0.05893 0.9708 0.0
H1099 H 0.43422 0.02793 0.98649 0.0
H1100 H 0.51272 0.09882 1.00646 0.0
C1101 C 0.4822 0.16761 0.96856 0.0
C1102 C 0.46015 0.16718 0.957 0.0
C1103 C 0.43567 0.14147 0.95278 0.0
C1104 C 0.43319 0.11673 0.95979 0.0
C1105 C 0.45522 0.11797 0.97117 0.0
C1106 C 0.47923 0.14271 0.97561 0.0
C1107 C 0.49991 0.13817 0.98802 0.0
C1108 C 0.52791 0.14831 0.97668 0.0
C1109 C 0.50483 0.15197 0.00883 0.0
C1110 C 0.48377 0.107 0.98977 0.0
C1111 C 0.45808 0.09581 0.9799 0.0
C1112 C 0.43984 0.06745 0.97871 0.0
C1113 C 0.4482 0.05001 0.98767 0.0
C1114 C 0.47447 0.06097 0.99783 0.0
C1115 C 0.4923 0.08988 0.99909 0.0
H1116 H 0.71001 0.11818 0.97927 0.0
H1117 H 0.70311 0.19185 0.98372 0.0
H1118 H 0.65188 0.16302 0.99122 0.0
H1119 H 0.64206 0.07459 0.95555 0.0
H1120 H 0.63591 0.04422 0.96916 0.0
H1121 H 0.67149 0.07091 0.96374 0.0
H1122 H 0.68346 0.07427 1.00169 0.0
H1123 H 0.64771 0.04828 0.00753 0.0
H1124 H 0.66324 0.08169 0.01948 0.0
H1125 H 0.60103 0.12537 0.99847 0.0
H1126 H 0.55516 0.0824 1.00342 0.0
H1127 H 0.59623 0.03397 0.99467 0.0
C1128 C 0.69753 0.12812 0.98157 0.0
C1129 C 0.71008 0.15703 0.98072 0.0
C1130 C 0.69351 0.16959 0.9841 0.0
C1131 C 0.66454 0.15341 0.98846 0.0
C1132 C 0.65268 0.12479 0.98943 0.0
C1133 C 0.66868 0.11229 0.98594 0.0
C1134 C 0.65107 0.08125 0.98793 0.0
C1135 C 0.65007 0.06691 0.9679 0.0
C1136 C 0.66202 0.07076 1.00518 0.0
C1137 C 0.62263 0.07814 0.99296 0.0
C1138 C 0.62389 0.10344 0.99387 0.0
C1139 C 0.59992 0.1055 0.99793 0.0
C1140 C 0.57402 0.08106 1.00092 0.0
C1141 C 0.57248 0.05505 1.0 0.0
C1142 C 0.59707 0.0537 0.99588 0.0
H1143 H 0.87426 0.57814 0.98216 0.0
H1144 H 0.805 0.49386 0.98526 0.0
H1145 H 0.83859 0.47789 0.9939 0.0
H1146 H 0.92585 0.56197 0.96003 0.0
H1147 H 0.95507 0.5882 0.97429 0.0
H1148 H 0.92565 0.5928 0.96778 0.0
H1149 H 0.91916 0.60008 1.00545 0.0
H1150 H 0.94806 0.59479 0.01226 0.0
H1151 H 0.91376 0.57376 0.02342 0.0
H1152 H 0.87921 0.4713 1.00373 0.0
H1153 H 0.92459 0.47379 0.01091 0.0
H1154 H 0.96857 0.56214 1.00095 0.0
C1155 C 0.86638 0.55629 0.98427 0.0
C1156 C 0.83717 0.53705 0.98278 0.0
C1157 C 0.82739 0.50875 0.98605 0.0
C1158 C 0.84628 0.49955 0.9911 0.0
C1159 C 0.87494 0.51897 0.99278 0.0
C1160 C 0.88507 0.54672 0.98921 0.0
C1161 C 0.91693 0.56318 0.99209 0.0
C1162 C 0.93175 0.57737 0.97237 0.0
C1163 C 0.92494 0.5842 0.00933 0.0
C1164 C 0.92309 0.54038 0.99772 0.0
C1165 C 0.89848 0.5151 0.99827 0.0
C1166 C 0.8986 0.49099 1.00333 0.0
C1167 C 0.92456 0.49265 0.00762 0.0
C1168 C 0.95015 0.51823 1.00697 0.0
C1169 C 0.94931 0.54236 1.00181 0.0
H1170 H 0.49541 0.33357 0.95504 0.0
H1171 H 0.44532 0.27783 1.00267 0.0
H1172 H 0.43727 0.31411 0.01726 0.0
H1173 H 0.53038 0.3922 0.98465 0.0
H1174 H 0.53068 0.41612 0.96636 0.0
H1175 H 0.5293 0.38481 0.95812 0.0
H1176 H 0.48365 0.37142 0.93779 0.0
H1177 H 0.48503 0.40286 0.9459 0.0
H1178 H 0.45371 0.37004 0.95034 0.0
H1179 H 0.44101 0.35823 0.02942 0.0
H1180 H 0.45331 0.40638 0.03691 0.0
H1181 H 0.49876 0.43294 0.98044 0.0
C1182 C 0.48202 0.32889 0.96816 0.0
C1183 C 0.47055 0.30302 0.97768 0.0
C1184 C 0.45383 0.29754 0.99511 0.0
C1185 C 0.44921 0.31799 1.00348 0.0
C1186 C 0.46131 0.34365 0.99406 0.0
C1187 C 0.47705 0.34906 0.97661 0.0
C1188 C 0.48932 0.37891 0.97029 0.0
C1189 C 0.52183 0.39388 0.96984 0.0
C1190 C 0.47719 0.38092 0.94987 0.0
C1191 C 0.47876 0.38958 0.98721 0.0
C1192 C 0.46263 0.36893 1.00077 0.0
C1193 C 0.45298 0.37444 0.01866 0.0
C1194 C 0.46013 0.40178 0.02284 0.0
C1195 C 0.47643 0.42312 0.00906 0.0
C1196 C 0.48548 0.41681 0.99092 0.0
H1197 H 0.18851 0.68743 0.04442 0.0
H1198 H 0.14935 0.71707 0.08674 0.0
H1199 H 0.10415 0.67266 0.08353 0.0
H1200 H 0.12932 0.65252 0.01151 0.0
H1201 H 0.13582 0.62454 1.00627 0.0
H1202 H 0.16475 0.658 0.01285 0.0
H1203 H 0.17806 0.63555 0.04196 0.0
H1204 H 0.14875 0.6022 0.03537 0.0
H1205 H 0.15189 0.61536 0.06061 0.0
H1206 H 0.06326 0.62589 0.07461 0.0
H1207 H 0.02937 0.57988 0.06152 0.0
H1208 H 0.09534 0.58052 0.0246 0.0
C1209 C 0.17044 0.68429 0.0532 0.0
C1210 C 0.17212 0.70524 0.06597 0.0
C1211 C 0.14825 0.70095 0.07705 0.0
C1212 C 0.12262 0.6759 0.07526 0.0
C1213 C 0.12147 0.65561 0.06231 0.0
C1214 C 0.14479 0.65948 0.05155 0.0
C1215 C 0.1378 0.63478 0.03825 0.0
C1216 C 0.14217 0.64297 0.0159 0.0
C1217 C 0.15515 0.62117 0.04443 0.0
C1218 C 0.10678 0.61637 0.04308 0.0
C1219 C 0.09785 0.62879 0.05702 0.0
C1220 C 0.07006 0.61596 0.06375 0.0
C1221 C 0.05094 0.58975 0.05614 0.0
C1222 C 0.05954 0.57646 0.04187 0.0
C1223 C 0.08794 0.5901 0.0353 0.0
H1224 H 0.33697 0.52363 0.05743 0.0
H1225 H 0.28619 0.43454 0.06028 0.0
H1226 H 0.32865 0.43074 0.05275 0.0
H1227 H 0.37993 0.52645 0.01664 0.0
H1228 H 0.41253 0.55516 0.0258 0.0
H1229 H 0.37915 0.55208 0.03266 0.0
H1230 H 0.38991 0.553 0.07051 0.0
H1231 H 0.42412 0.55772 0.06425 0.0
H1232 H 0.40069 0.52962 0.08033 0.0
H1233 H 0.37705 0.43694 0.04476 0.0
H1234 H 0.4276 0.45262 0.03848 0.0
H1235 H 0.44683 0.53766 0.04027 0.0
C1236 C 0.33498 0.50337 0.05676 0.0
C1237 C 0.30849 0.47932 0.05967 0.0
C1238 C 0.30643 0.45315 0.05834 0.0
C1239 C 0.3304 0.45084 0.05396 0.0
C1240 C 0.35625 0.47494 0.05089 0.0
C1241 C 0.35873 0.50074 0.05243 0.0
C1242 C 0.38888 0.52339 0.04837 0.0
C1243 C 0.39022 0.54029 0.02976 0.0
C1244 C 0.40165 0.54203 0.06697 0.0
C1245 C 0.40303 0.50639 0.04438 0.0
C1246 C 0.38382 0.47846 0.04583 0.0
C1247 C 0.39214 0.45873 0.04337 0.0
C1248 C 0.42081 0.46777 0.03964 0.0
C1249 C 0.44079 0.49625 0.03809 0.0
C1250 C 0.43175 0.51574 0.04064 0.0
H1251 H 0.52298 0.83125 0.033 0.0
H1252 H 0.59885 0.8742 0.06925 0.0
H1253 H 0.59537 0.91683 0.06784 0.0
H1254 H 0.53752 0.88639 1.0 0.0
H1255 H 0.50107 0.87774 0.99836 0.0
H1256 H 0.50958 0.85124 1.00357 0.0
H1257 H 0.47837 0.83883 0.03575 0.0
H1258 H 0.47089 0.86613 0.03044 0.0
H1259 H 0.48605 0.86521 0.05435 0.0
H1260 H 0.58438 0.95491 0.06105 0.0
H1261 H 0.56708 0.9858 0.04963 0.0
H1262 H 0.4987 0.91755 0.01718 0.0
C1263 C 0.53857 0.8496 0.04085 0.0
C1264 C 0.56108 0.84983 0.05131 0.0
C1265 C 0.58141 0.87396 0.06127 0.0
C1266 C 0.57956 0.89811 0.06054 0.0
C1267 C 0.55723 0.89746 0.04981 0.0
C1268 C 0.53701 0.87376 0.04025 0.0
C1269 C 0.5158 0.87869 0.02907 0.0
C1270 C 0.51607 0.87321 1.0064 0.0
C1271 C 0.48602 0.86117 0.03794 0.0
C1272 C 0.52755 0.90904 0.03343 0.0
C1273 C 0.55125 0.91942 0.04559 0.0
C1274 C 0.5658 0.94699 0.05157 0.0
C1275 C 0.55581 0.96438 0.04497 0.0
C1276 C 0.53165 0.95418 0.03237 0.0
C1277 C 0.5174 0.9261 0.0266 0.0
H1278 H 0.99998 0.18111 0.39313 0.0
H1279 H 0.95289 0.22273 0.40652 0.0
H1280 H 0.99291 0.26672 0.39446 0.0
H1281 H 0.06717 0.23692 0.41031 0.0
H1282 H 0.08753 0.23147 0.39137 0.0
H1283 H 0.05454 0.20295 0.39985 0.0
H1284 H 0.03707 0.19315 0.36311 0.0
H1285 H 0.0694 0.22229 0.35429 0.0
H1286 H 0.03579 0.21966 0.34859 0.0
H1287 H 0.03786 0.30615 0.38232 0.0
H1288 H 0.08708 0.34012 0.37369 0.0
H1289 H 0.10701 0.27441 0.36847 0.0
C1290 C 0.99816 0.19953 0.39337 0.0
C1291 C 0.97329 0.19858 0.40064 0.0
C1292 C 0.97174 0.22308 0.40104 0.0
C1293 C 0.99429 0.24808 0.3941 0.0
C1294 C 0.01846 0.24838 0.38698 0.0
C1295 C 0.0208 0.2249 0.38683 0.0
C1296 C 0.05002 0.23153 0.3797 0.0
C1297 C 0.06574 0.22535 0.3963 0.0
C1298 C 0.04796 0.21573 0.36025 0.0
C1299 C 0.0637 0.2624 0.37588 0.0
C1300 C 0.04486 0.27149 0.38004 0.0
C1301 C 0.05269 0.29925 0.37883 0.0
C1302 C 0.08067 0.31839 0.37387 0.0
C1303 C 0.10063 0.30986 0.36999 0.0
C1304 C 0.09194 0.28139 0.37072 0.0
H1305 H 0.79828 0.75837 0.40753 0.0
H1306 H 0.8701 0.83209 0.38348 0.0
H1307 H 0.83795 0.84708 0.36973 0.0
H1308 H 0.75088 0.74764 0.36515 0.0
H1309 H 0.71999 0.73564 0.38075 0.0
H1310 H 0.74852 0.73028 0.38854 0.0
H1311 H 0.75229 0.75524 0.42233 0.0
H1312 H 0.72376 0.76059 0.4146 0.0
H1313 H 0.75723 0.78962 0.42198 0.0
H1314 H 0.79836 0.85554 0.36004 0.0
H1315 H 0.75415 0.85602 0.35433 0.0
H1316 H 0.70684 0.77604 0.38277 0.0
C1317 C 0.80722 0.77769 0.39942 0.0
C1318 C 0.83686 0.794 0.39658 0.0
C1319 C 0.84756 0.81905 0.3857 0.0
C1320 C 0.82944 0.8278 0.37786 0.0
C1321 C 0.80043 0.81125 0.38081 0.0
C1322 C 0.7893 0.78663 0.39122 0.0
C1323 C 0.75722 0.77278 0.39213 0.0
C1324 C 0.74334 0.74493 0.38098 0.0
C1325 C 0.74703 0.76936 0.41406 0.0
C1326 C 0.75218 0.7937 0.381 0.0
C1327 C 0.77744 0.8157 0.37457 0.0
C1328 C 0.77844 0.83816 0.36472 0.0
C1329 C 0.75305 0.83818 0.36136 0.0
C1330 C 0.72673 0.81568 0.36735 0.0
C1331 C 0.7265 0.79325 0.37748 0.0
H1332 H 0.25973 0.04891 0.41263 0.0
H1333 H 0.19388 0.05785 0.38298 0.0
H1334 H 0.17543 0.01203 0.36735 0.0
H1335 H 0.27312 0.0154 0.37231 0.0
H1336 H 0.27842 0.99199 0.38788 0.0
H1337 H 0.28593 0.02499 0.39775 0.0
H1338 H 0.25188 0.00085 0.42756 0.0
H1339 H 0.24451 0.96777 0.41789 0.0
H1340 H 0.21593 0.97443 0.42251 0.0
H1341 H 0.16546 0.96663 0.35349 0.0
H1342 H 0.16256 0.92273 0.34399 0.0
H1343 H 0.23439 0.94224 0.38272 0.0
C1344 C 0.24114 0.04097 0.40313 0.0
C1345 C 0.22837 0.05707 0.3989 0.0
C1346 C 0.20425 0.04607 0.38621 0.0
C1347 C 0.19355 0.02002 0.37731 0.0
C1348 C 0.20703 0.00502 0.38132 0.0
C1349 C 0.23009 0.01486 0.39409 0.0
C1350 C 0.2408 0.99455 0.39552 0.0
C1351 C 0.27138 0.00752 0.38791 0.0
C1352 C 0.23811 0.98376 0.41716 0.0
C1353 C 0.22036 0.97201 0.3814 0.0
C1354 C 0.20109 0.97853 0.37338 0.0
C1355 C 0.18037 0.96122 0.35972 0.0
C1356 C 0.17905 0.93638 0.35428 0.0
C1357 C 0.19835 0.92901 0.36246 0.0
C1358 C 0.21931 0.94721 0.37617 0.0
H1359 H 0.52843 0.64973 0.2807 0.0
H1360 H 0.51924 0.60334 0.33541 0.0
H1361 H 0.54988 0.64641 0.3534 0.0
H1362 H 0.60339 0.6983 0.28884 0.0
H1363 H 0.60182 0.72721 0.27833 0.0
H1364 H 0.57769 0.69271 0.26964 0.0
H1365 H 0.53545 0.69969 0.27832 0.0
H1366 H 0.55947 0.73412 0.28721 0.0
H1367 H 0.53206 0.7097 0.30353 0.0
H1368 H 0.58032 0.69449 0.36628 0.0
H1369 H 0.61375 0.74409 0.37178 0.0
H1370 H 0.60784 0.75997 0.30862 0.0
C1371 C 0.53295 0.64849 0.29641 0.0
C1372 C 0.52027 0.62274 0.30662 0.0
C1373 C 0.52728 0.62252 0.32723 0.0
C1374 C 0.54503 0.647 0.33766 0.0
C1375 C 0.55648 0.67186 0.32732 0.0
C1376 C 0.55126 0.67284 0.30706 0.0
C1377 C 0.56763 0.7024 0.29941 0.0
C1378 C 0.5889 0.70532 0.28309 0.0
C1379 C 0.54744 0.71204 0.29166 0.0
C1380 C 0.58264 0.7177 0.31857 0.0
C1381 C 0.57551 0.69966 0.33454 0.0
C1382 C 0.58611 0.70882 0.35388 0.0
C1383 C 0.60483 0.7371 0.35694 0.0
C1384 C 0.61307 0.75592 0.34075 0.0
C1385 C 0.60181 0.74601 0.3213 0.0
H1386 H 0.36022 0.85236 0.31024 0.0
H1387 H 0.40709 0.93995 0.29711 0.0
H1388 H 0.368 0.94519 0.31068 0.0
H1389 H 0.29327 0.8423 0.29534 0.0
H1390 H 0.27327 0.81757 0.31464 0.0
H1391 H 0.30606 0.82091 0.30597 0.0
H1392 H 0.32453 0.82945 0.34255 0.0
H1393 H 0.29217 0.82699 0.35147 0.0
H1394 H 0.32567 0.85741 0.35682 0.0
H1395 H 0.32299 0.94086 0.3224 0.0
H1396 H 0.27364 0.9269 0.33064 0.0
H1397 H 0.25396 0.84201 0.337 0.0
C1398 C 0.36238 0.87269 0.31062 0.0
C1399 C 0.38689 0.89585 0.3027 0.0
C1400 C 0.38862 0.92198 0.30306 0.0
C1401 C 0.36655 0.92517 0.31085 0.0
C1402 C 0.34259 0.90202 0.31826 0.0
C1403 C 0.34019 0.87622 0.31821 0.0
C1404 C 0.31104 0.85453 0.32572 0.0
C1405 C 0.29497 0.83253 0.30945 0.0
C1406 C 0.31349 0.8413 0.34531 0.0
C1407 C 0.29733 0.87211 0.32952 0.0
C1408 C 0.31619 0.89951 0.3253 0.0
C1409 C 0.30821 0.91958 0.3261 0.0
C1410 C 0.28012 0.91148 0.33084 0.0
C1411 C 0.26018 0.8836 0.33502 0.0
C1412 C 0.26902 0.86365 0.33463 0.0
H1413 H 0.09584 0.47008 0.29386 0.0
H1414 H 0.1576 0.54326 0.32599 0.0
H1415 H 0.17883 0.51708 0.34016 0.0
H1416 H 0.08534 0.42192 0.3327 0.0
H1417 H 0.08211 0.39508 0.31596 0.0
H1418 H 0.07228 0.4197 0.30741 0.0
H1419 H 0.10682 0.43263 0.27737 0.0
H1420 H 0.11667 0.40795 0.28579 0.0
H1421 H 0.14343 0.4435 0.28211 0.0
H1422 H 0.19266 0.48337 0.3516 0.0
H1423 H 0.19867 0.44377 0.35972 0.0
H1424 H 0.12786 0.39147 0.32065 0.0
C1425 C 0.11404 0.48061 0.30368 0.0
C1426 C 0.12499 0.50867 0.30893 0.0
C1427 C 0.14865 0.52169 0.32199 0.0
C1428 C 0.16095 0.50705 0.33003 0.0
C1429 C 0.14943 0.47937 0.32484 0.0
C1430 C 0.12658 0.46621 0.31194 0.0
C1431 C 0.11798 0.43602 0.30936 0.0
C1432 C 0.08763 0.41707 0.3168 0.0
C1433 C 0.12144 0.42966 0.28735 0.0
C1434 C 0.13941 0.43433 0.32296 0.0
C1435 C 0.15738 0.45965 0.33163 0.0
C1436 C 0.17872 0.46341 0.34492 0.0
C1437 C 0.18182 0.44066 0.34954 0.0
C1438 C 0.16354 0.41434 0.34103 0.0
C1439 C 0.14216 0.41127 0.32743 0.0
H1440 H 0.38247 0.45458 0.31024 0.0
H1441 H 0.37543 0.52785 0.31792 0.0
H1442 H 0.32505 0.49868 0.32736 0.0
H1443 H 0.3121 0.41059 0.28911 0.0
H1444 H 0.30711 0.38015 0.30201 0.0
H1445 H 0.34217 0.40686 0.29531 0.0
H1446 H 0.35763 0.41027 0.3326 0.0
H1447 H 0.32247 0.38397 0.33953 0.0
H1448 H 0.33865 0.41716 0.35182 0.0
H1449 H 0.27592 0.46144 0.33723 0.0
H1450 H 0.2308 0.41904 0.34397 0.0
H1451 H 0.26932 0.36956 0.32973 0.0
C1452 C 0.37006 0.46434 0.31352 0.0
C1453 C 0.38246 0.49334 0.31306 0.0
C1454 C 0.366 0.50559 0.31788 0.0
C1455 C 0.33749 0.4892 0.32339 0.0
C1456 C 0.32586 0.4606 0.32403 0.0
C1457 C 0.34153 0.44823 0.31902 0.0
C1458 C 0.324 0.41708 0.32104 0.0
C1459 C 0.32117 0.40283 0.30065 0.0
C1460 C 0.33644 0.40651 0.33721 0.0
C1461 C 0.29598 0.41383 0.3278 0.0
C1462 C 0.29761 0.43921 0.32967 0.0
C1463 C 0.27446 0.44149 0.33583 0.0
C1464 C 0.2489 0.41722 0.33983 0.0
C1465 C 0.24664 0.39096 0.33783 0.0
C1466 C 0.27055 0.38938 0.33165 0.0
H1467 H 0.5023 0.83509 0.31345 0.0
H1468 H 0.54015 0.922 0.29932 0.0
H1469 H 0.58769 0.92821 0.30587 0.0
H1470 H 0.54655 0.84206 0.35335 0.0
H1471 H 0.55099 0.81267 0.34827 0.0
H1472 H 0.51926 0.81241 0.34042 0.0
H1473 H 0.5258 0.80392 0.30346 0.0
H1474 H 0.55639 0.80162 0.31065 0.0
H1475 H 0.55925 0.82548 0.29132 0.0
H1476 H 0.6309 0.92514 0.31426 0.0
H1477 H 0.66737 0.91315 0.32303 0.0
H1478 H 0.60235 0.82826 0.33325 0.0
C1479 C 0.52072 0.85528 0.31137 0.0
C1480 C 0.51772 0.87809 0.30561 0.0
C1481 C 0.5421 0.90429 0.30344 0.0
C1482 C 0.56914 0.90797 0.30723 0.0
C1483 C 0.57146 0.88522 0.31319 0.0
C1484 C 0.54796 0.85928 0.31503 0.0
C1485 C 0.55642 0.83843 0.32201 0.0
C1486 C 0.5425 0.82561 0.34223 0.0
C1487 C 0.54903 0.81604 0.3059 0.0
C1488 C 0.5883 0.85678 0.32417 0.0
C1489 C 0.59642 0.88364 0.31879 0.0
C1490 C 0.62473 0.90424 0.31862 0.0
C1491 C 0.64532 0.89725 0.32367 0.0
C1492 C 0.63777 0.86998 0.32926 0.0
C1493 C 0.60875 0.84945 0.32961 0.0
H1494 H 0.09245 0.64117 0.31217 0.0
H1495 H 0.15948 0.63096 0.33808 0.0
H1496 H 0.18674 0.68103 0.34575 0.0
H1497 H 0.13863 0.71001 0.28992 0.0
H1498 H 0.11423 0.72193 0.29556 0.0
H1499 H 0.1012 0.68584 0.29066 0.0
H1500 H 0.07518 0.67349 0.32497 0.0
H1501 H 0.08826 0.70952 0.33 0.0
H1502 H 0.09492 0.68901 0.3477 0.0
H1503 H 0.20476 0.73123 0.35289 0.0
H1504 H 0.21327 0.7785 0.35796 0.0
H1505 H 0.13455 0.75611 0.32705 0.0
C1506 C 0.11312 0.64972 0.3191 0.0
C1507 C 0.12423 0.63265 0.32444 0.0
C1508 C 0.15098 0.64407 0.33377 0.0
C1509 C 0.16651 0.67238 0.33818 0.0
C1510 C 0.15491 0.6888 0.33302 0.0
C1511 C 0.12893 0.67797 0.32352 0.0
C1512 C 0.12077 0.69992 0.32035 0.0
C1513 C 0.11858 0.7047 0.29778 0.0
C1514 C 0.09315 0.69253 0.33142 0.0
C1515 C 0.14587 0.72457 0.32994 0.0
C1516 C 0.16537 0.71776 0.33708 0.0
C1517 C 0.18975 0.73686 0.34721 0.0
C1518 C 0.1943 0.76362 0.35013 0.0
C1519 C 0.1745 0.77101 0.34302 0.0
C1520 C 0.15015 0.75121 0.33262 0.0
H1521 H 0.81857 0.04679 0.39446 0.0
H1522 H 0.8915 0.0416 0.375 0.0
H1523 H 0.86039 0.99295 0.36507 0.0
H1524 H 0.77826 0.97461 0.41425 0.0
H1525 H 0.7447 0.9699 0.40594 0.0
H1526 H 0.77273 0.00378 0.41298 0.0
H1527 H 0.76885 0.02244 0.37817 0.0
H1528 H 0.74108 0.98857 0.37095 0.0
H1529 H 0.7723 0.00636 0.35561 0.0
H1530 H 0.82196 0.94747 0.35361 0.0
H1531 H 0.77836 0.90481 0.34493 0.0
H1532 H 0.72874 0.93649 0.37354 0.0
C1533 C 0.82788 0.03505 0.38861 0.0
C1534 C 0.85742 0.04764 0.38568 0.0
C1535 C 0.86895 0.03207 0.37758 0.0
C1536 C 0.85145 0.0045 0.37182 0.0
C1537 C 0.82238 0.9927 0.37443 0.0
C1538 C 0.81058 0.00717 0.38297 0.0
C1539 C 0.7785 0.98936 0.38364 0.0
C1540 C 0.76793 0.9841 0.4055 0.0
C1541 C 0.76436 0.00247 0.37136 0.0
C1542 C 0.77423 0.96299 0.3737 0.0
C1543 C 0.79992 0.96561 0.36843 0.0
C1544 C 0.80173 0.94495 0.358 0.0
C1545 C 0.7767 0.92076 0.35304 0.0
C1546 C 0.74998 0.91702 0.35871 0.0
C1547 C 0.74881 0.93853 0.36923 0.0
H1548 H 0.97719 0.76228 0.39396 0.0
H1549 H 0.98736 0.84284 0.38183 0.0
H1550 H 0.03795 0.86094 0.37418 0.0
H1551 H 0.04684 0.78742 0.41774 0.0
H1552 H 0.05168 0.7605 0.40689 0.0
H1553 H 0.01658 0.75422 0.4121 0.0
H1554 H 1.00274 0.73974 0.37498 0.0
H1555 H 0.03796 0.74669 0.36935 0.0
H1556 H 0.02267 0.76346 0.35515 0.0
H1557 H 0.0868 0.86972 0.36602 0.0
H1558 H 0.1315 0.86982 0.36101 0.0
H1559 H 0.09114 0.78406 0.37918 0.0
C1560 C 0.99031 0.78387 0.39014 0.0
C1561 C 0.97859 0.80139 0.3888 0.0
C1562 C 0.99612 0.82929 0.38327 0.0
C1563 C 0.02482 0.83967 0.37876 0.0
C1564 C 0.03577 0.82188 0.37989 0.0
C1565 C 0.01921 0.79466 0.38572 0.0
C1566 C 0.03638 0.78 0.38562 0.0
C1567 C 0.03796 0.76994 0.40685 0.0
C1568 C 0.02421 0.75605 0.37037 0.0
C1569 C 0.06508 0.80319 0.37886 0.0
C1570 C 0.06411 0.82707 0.37543 0.0
C1571 C 0.08777 0.85113 0.36873 0.0
C1572 C 0.11312 0.85093 0.36573 0.0
C1573 C 0.11484 0.82684 0.3693 0.0
C1574 C 0.09043 0.80273 0.37613 0.0
H1575 H 0.23363 0.19275 0.35613 0.0
H1576 H 0.23267 0.1911 0.42134 0.0
H1577 H 0.21288 0.2226 0.42171 0.0
H1578 H 0.25493 0.2638 0.35073 0.0
H1579 H 0.23325 0.25888 0.32889 0.0
H1580 H 0.24584 0.23523 0.33388 0.0
H1581 H 0.1943 0.19441 0.33298 0.0
H1582 H 0.1816 0.21806 0.32816 0.0
H1583 H 0.16827 0.19496 0.34934 0.0
H1584 H 0.19563 0.25583 0.41488 0.0
H1585 H 0.18291 0.28937 0.40161 0.0
H1586 H 0.19496 0.26943 0.34068 0.0
C1587 C 0.22904 0.19898 0.37044 0.0
C1588 C 0.23452 0.18975 0.38874 0.0
C1589 C 0.22851 0.19815 0.40723 0.0
C1590 C 0.21723 0.21589 0.40754 0.0
C1591 C 0.21203 0.22475 0.38921 0.0
C1592 C 0.21774 0.2166 0.37098 0.0
C1593 C 0.21119 0.22991 0.35346 0.0
C1594 C 0.2379 0.24803 0.34101 0.0
C1595 C 0.18742 0.20802 0.3402 0.0
C1596 C 0.20138 0.24722 0.36466 0.0
C1597 C 0.20185 0.24377 0.38526 0.0
C1598 C 0.19497 0.25851 0.3988 0.0
C1599 C 0.18787 0.27758 0.39111 0.0
C1600 C 0.18766 0.28178 0.37009 0.0
C1601 C 0.19411 0.26609 0.35672 0.0
H1602 H 0.62402 0.54457 0.73986 0.0
H1603 H 0.62924 0.47354 0.71958 0.0
H1604 H 0.67587 0.50456 0.70423 0.0
H1605 H 0.65609 0.58599 0.69494 0.0
H1606 H 0.67436 0.618 0.70876 0.0
H1607 H 0.64146 0.59021 0.71811 0.0
H1608 H 0.66563 0.59142 0.75204 0.0
H1609 H 0.69849 0.61931 0.74281 0.0
H1610 H 0.69691 0.58825 0.752 0.0
H1611 H 0.72363 0.5436 0.69338 0.0
H1612 H 0.76753 0.58741 0.6868 0.0
H1613 H 0.72935 0.633 0.71102 0.0
C1614 C 0.63511 0.53565 0.73224 0.0
C1615 C 0.62327 0.50673 0.73101 0.0
C1616 C 0.63808 0.49568 0.72068 0.0
C1617 C 0.6645 0.51312 0.71191 0.0
C1618 C 0.67559 0.54157 0.71327 0.0
C1619 C 0.66125 0.55277 0.72302 0.0
C1620 C 0.67772 0.58402 0.7222 0.0
C1621 C 0.66143 0.59521 0.71029 0.0
C1622 C 0.68513 0.59648 0.74353 0.0
C1623 C 0.70383 0.58867 0.71091 0.0
C1624 C 0.70225 0.56394 0.70592 0.0
C1625 C 0.72479 0.56307 0.6968 0.0
C1626 C 0.74964 0.5881 0.69292 0.0
C1627 C 0.75156 0.61368 0.6976 0.0
C1628 C 0.7282 0.61379 0.70663 0.0
H1629 H 0.51407 0.16491 0.73834 0.0
H1630 H 0.48792 0.08016 0.72302 0.0
H1631 H 0.44454 0.07498 0.70693 0.0
H1632 H 0.44399 0.15211 0.7508 0.0
H1633 H 0.44992 0.18457 0.7409 0.0
H1634 H 0.47915 0.18164 0.75054 0.0
H1635 H 0.50473 0.19992 0.7169 0.0
H1636 H 0.47529 0.2015 0.70608 0.0
H1637 H 0.48884 0.18164 0.69391 0.0
H1638 H 0.4031 0.07847 0.69362 0.0
H1639 H 0.36605 0.09006 0.68498 0.0
H1640 H 0.41864 0.17251 0.70877 0.0
C1641 C 0.49918 0.14536 0.7315 0.0
C1642 C 0.50425 0.1229 0.73178 0.0
C1643 C 0.48431 0.09753 0.72288 0.0
C1644 C 0.4597 0.09446 0.71369 0.0
C1645 C 0.45522 0.11695 0.71361 0.0
C1646 C 0.47429 0.14186 0.72242 0.0
C1647 C 0.4638 0.16238 0.72097 0.0
C1648 C 0.45893 0.17065 0.74206 0.0
C1649 C 0.48436 0.18787 0.70872 0.0
C1650 C 0.436 0.1452 0.70987 0.0
C1651 C 0.43146 0.11903 0.70577 0.0
C1652 C 0.40661 0.09899 0.69653 0.0
C1653 C 0.38574 0.10573 0.6916 0.0
C1654 C 0.39002 0.13239 0.69553 0.0
C1655 C 0.41541 0.15231 0.7049 0.0
H1656 H 0.86564 0.36856 0.71906 0.0
H1657 H 0.94246 0.39284 0.75316 0.0
H1658 H 0.94177 0.35038 0.74235 0.0
H1659 H 0.83237 0.29646 0.73041 0.0
H1660 H 0.8166 0.28477 0.70589 0.0
H1661 H 0.8235 0.31782 0.71527 0.0
H1662 H 0.85307 0.34153 0.68343 0.0
H1663 H 0.84614 0.30846 0.67401 0.0
H1664 H 0.88203 0.33625 0.67677 0.0
H1665 H 0.93259 0.30571 0.72945 0.0
H1666 H 0.91491 0.25952 0.71556 0.0
H1667 H 0.84337 0.26195 0.68904 0.0
C1668 C 0.88241 0.36497 0.72405 0.0
C1669 C 0.90406 0.38394 0.73707 0.0
C1670 C 0.9255 0.37845 0.74345 0.0
C1671 C 0.92541 0.35449 0.73727 0.0
C1672 C 0.90374 0.33614 0.72465 0.0
C1673 C 0.88256 0.34091 0.71807 0.0
C1674 C 0.86122 0.31692 0.70519 0.0
C1675 C 0.83167 0.30318 0.71477 0.0
C1676 C 0.86059 0.32636 0.68356 0.0
C1677 C 0.87367 0.29793 0.70582 0.0
C1678 C 0.89829 0.30974 0.71705 0.0
C1679 C 0.91343 0.29627 0.72052 0.0
C1680 C 0.90307 0.26986 0.71252 0.0
C1681 C 0.8777 0.25689 0.7011 0.0
C1682 C 0.86296 0.27135 0.69751 0.0
H1683 H 0.20644 0.95351 0.6284 0.0
H1684 H 0.1342 0.95592 0.65308 0.0
H1685 H 0.16591 0.00278 0.66637 0.0
H1686 H 0.25421 0.99037 0.67016 0.0
H1687 H 0.28473 0.00856 0.65422 0.0
H1688 H 0.25649 0.97497 0.64687 0.0
H1689 H 0.25007 0.99455 0.61278 0.0
H1690 H 0.27967 0.02698 0.62022 0.0
H1691 H 0.24683 0.02512 0.61325 0.0
H1692 H 0.20482 0.04949 0.67611 0.0
H1693 H 0.24851 0.09327 0.68221 0.0
H1694 H 0.29682 0.06128 0.65207 0.0
C1695 C 0.19735 0.96399 0.63656 0.0
C1696 C 0.16782 0.95108 0.6397 0.0
C1697 C 0.15674 0.96531 0.65065 0.0
C1698 C 0.17458 0.99195 0.6582 0.0
C1699 C 0.20355 0.00408 0.65485 0.0
C1700 C 0.21494 0.99056 0.64443 0.0
C1701 C 0.24686 0.00833 0.64307 0.0
C1702 C 0.26143 0.99474 0.65425 0.0
C1703 C 0.25638 0.01411 0.621 0.0
C1704 C 0.25158 0.03428 0.65389 0.0
C1705 C 0.22623 0.03116 0.66068 0.0
C1706 C 0.22482 0.05209 0.67101 0.0
C1707 C 0.24992 0.07692 0.67453 0.0
C1708 C 0.27633 0.08082 0.66785 0.0
C1709 C 0.27706 0.05908 0.65735 0.0
H1710 H 0.05379 0.25185 0.63019 0.0
H1711 H 0.04306 0.17276 0.64862 0.0
H1712 H 0.99601 0.15957 0.66231 0.0
H1713 H 0.01806 0.26085 0.67394 0.0
H1714 H 1.00205 0.27669 0.65946 0.0
H1715 H 0.03544 0.2805 0.65172 0.0
H1716 H 0.01439 0.26066 0.61653 0.0
H1717 H 0.981 0.25683 0.6242 0.0
H1718 H 0.98267 0.22744 0.61474 0.0
H1719 H 0.94881 0.15335 0.67151 0.0
H1720 H 0.90555 0.15549 0.67711 0.0
H1721 H 0.9467 0.23926 0.65479 0.0
C1722 C 0.04153 0.2318 0.63715 0.0
C1723 C 0.05219 0.21336 0.63839 0.0
C1724 C 0.03553 0.18736 0.64771 0.0
C1725 C 0.00873 0.17964 0.65548 0.0
C1726 C 0.99886 0.19823 0.65402 0.0
C1727 C 0.01477 0.22386 0.64525 0.0
C1728 C 0.99891 0.23976 0.64549 0.0
C1729 C 0.01456 0.26601 0.65842 0.0
C1730 C 0.99395 0.24657 0.62396 0.0
C1731 C 0.97139 0.2188 0.65533 0.0
C1732 C 0.97189 0.19502 0.66012 0.0
C1733 C 0.94843 0.1721 0.66819 0.0
C1734 C 0.92383 0.17351 0.67144 0.0
C1735 C 0.92283 0.19777 0.66715 0.0
C1736 C 0.94703 0.22067 0.65885 0.0
H1737 H 0.80467 0.83909 0.6541 0.0
H1738 H 0.72763 0.78957 0.62001 0.0
H1739 H 0.72774 0.74726 0.63031 0.0
H1740 H 0.8373 0.80032 0.64107 0.0
H1741 H 0.8537 0.80321 0.66521 0.0
H1742 H 0.84634 0.82969 0.65706 0.0
H1743 H 0.81737 0.82312 0.68955 0.0
H1744 H 0.82488 0.79673 0.69776 0.0
H1745 H 0.78881 0.78924 0.69585 0.0
H1746 H 0.73739 0.71119 0.64186 0.0
H1747 H 0.7564 0.68228 0.65358 0.0
H1748 H 0.82817 0.75399 0.6804 0.0
C1749 C 0.78761 0.81924 0.64917 0.0
C1750 C 0.76605 0.81744 0.63632 0.0
C1751 C 0.74433 0.79127 0.62979 0.0
C1752 C 0.74414 0.76718 0.63565 0.0
C1753 C 0.76586 0.76959 0.64805 0.0
C1754 C 0.78724 0.79485 0.65478 0.0
C1755 C 0.80901 0.79146 0.66685 0.0
C1756 C 0.83832 0.8071 0.65695 0.0
C1757 C 0.81007 0.80069 0.68881 0.0
C1758 C 0.79674 0.76044 0.66543 0.0
C1759 C 0.77169 0.74838 0.65468 0.0
C1760 C 0.75684 0.72031 0.65046 0.0
C1761 C 0.76797 0.70404 0.65716 0.0
C1762 C 0.7938 0.71575 0.66799 0.0
C1763 C 0.80819 0.74435 0.67241 0.0
H1764 H 0.03337 0.78201 0.6467 0.0
H1765 H 0.01938 0.85165 0.64957 0.0
H1766 H 0.9685 0.81989 0.65626 0.0
H1767 H 0.96633 0.73385 0.6222 0.0
H1768 H 0.96228 0.70463 0.63637 0.0
H1769 H 0.99709 0.73288 0.63094 0.0
H1770 H 0.00872 0.73795 0.66901 0.0
H1771 H 0.9737 0.71033 0.6748 0.0
H1772 H 0.9868 0.74378 0.68628 0.0
H1773 H 0.91941 0.78039 0.66425 0.0
H1774 H 0.87543 0.7361 0.6702 0.0
H1775 H 0.92123 0.69208 0.66177 0.0
C1776 C 0.01938 0.7904 0.64829 0.0
C1777 C 0.02996 0.81912 0.64728 0.0
C1778 C 0.01139 0.8296 0.64994 0.0
C1779 C 0.98256 0.81174 0.65389 0.0
C1780 C 0.97272 0.78347 0.65513 0.0
C1781 C 0.99051 0.77281 0.65217 0.0
C1782 C 0.97469 0.74168 0.65455 0.0
C1783 C 0.97512 0.72742 0.63484 0.0
C1784 C 0.98669 0.73293 0.67221 0.0
C1785 C 0.94525 0.73646 0.65922 0.0
C1786 C 0.94458 0.76084 0.65969 0.0
C1787 C 0.91973 0.7612 0.6639 0.0
C1788 C 0.89489 0.73598 0.66744 0.0
C1789 C 0.89512 0.71077 0.66689 0.0
C1790 C 0.92062 0.71112 0.66257 0.0
H1791 H 0.17111 0.16861 0.64281 0.0
H1792 H 0.22086 0.25741 0.63663 0.0
H1793 H 0.2648 0.2552 0.64138 0.0
H1794 H 0.21006 0.16255 0.68111 0.0
H1795 H 0.20911 0.13123 0.67308 0.0
H1796 H 0.1808 0.13745 0.66637 0.0
H1797 H 0.1869 0.13314 0.62853 0.0
H1798 H 0.21361 0.12427 0.63435 0.0
H1799 H 0.22147 0.15233 0.61738 0.0
H1800 H 0.3032 0.24309 0.64794 0.0
H1801 H 0.33296 0.22195 0.6547 0.0
H1802 H 0.25794 0.14123 0.65766 0.0
C1803 C 0.19136 0.18745 0.64192 0.0
C1804 C 0.19287 0.21315 0.63897 0.0
C1805 C 0.21949 0.23753 0.63848 0.0
C1806 C 0.24446 0.23644 0.64128 0.0
C1807 C 0.24232 0.21079 0.64459 0.0
C1808 C 0.21643 0.18669 0.64467 0.0
C1809 C 0.21978 0.16189 0.64923 0.0
C1810 C 0.20402 0.14741 0.6686 0.0
C1811 C 0.20986 0.14172 0.6313 0.0
C1812 C 0.25153 0.17578 0.65201 0.0
C1813 C 0.26419 0.20399 0.64915 0.0
C1814 C 0.29345 0.22108 0.65037 0.0
C1815 C 0.31017 0.20899 0.65437 0.0
C1816 C 0.29755 0.18021 0.65747 0.0
C1817 C 0.26792 0.16343 0.65606 0.0
H1818 H 0.75287 0.96449 0.64382 0.0
H1819 H 0.83284 0.96598 0.64741 0.0
H1820 H 0.8579 0.01675 0.65105 0.0
H1821 H 0.78093 0.03205 0.61608 0.0
H1822 H 0.75825 0.04123 0.62968 0.0
H1823 H 0.74681 0.00544 0.62467 0.0
H1824 H 0.73844 0.99492 0.66282 0.0
H1825 H 0.75005 0.03063 0.66794 0.0
H1826 H 0.76703 0.01406 0.68029 0.0
H1827 H 0.87311 0.06484 0.65971 0.0
H1828 H 0.87896 0.10953 0.66995 0.0
H1829 H 0.78997 0.07938 0.65879 0.0
C1830 C 0.77572 0.97577 0.64476 0.0
C1831 C 0.79121 0.96176 0.64511 0.0
C1832 C 0.82089 0.97669 0.64686 0.0
C1833 C 0.83522 0.00543 0.64894 0.0
C1834 C 0.81945 0.01879 0.64901 0.0
C1835 C 0.79042 0.00464 0.64665 0.0
C1836 C 0.7786 0.02406 0.64854 0.0
C1837 C 0.76537 0.0258 0.62855 0.0
C1838 C 0.75728 0.01539 0.66593 0.0
C1839 C 0.80539 0.05103 0.65318 0.0
C1840 C 0.82863 0.04736 0.65329 0.0
C1841 C 0.85527 0.06823 0.65911 0.0
C1842 C 0.85835 0.09357 0.66498 0.0
C1843 C 0.83505 0.09809 0.66476 0.0
C1844 C 0.80825 0.07665 0.65853 0.0
H1845 H 0.46371 0.36364 0.72998 0.0
H1846 H 0.53694 0.38452 0.69306 0.0
H1847 H 0.51345 0.33666 0.67963 0.0
H1848 H 0.44618 0.29225 0.74152 0.0
H1849 H 0.40867 0.27936 0.74037 0.0
H1850 H 0.43229 0.31446 0.74811 0.0
H1851 H 0.41191 0.33185 0.72012 0.0
H1852 H 0.38846 0.29685 0.71217 0.0
H1853 H 0.41233 0.32188 0.69434 0.0
H1854 H 0.48039 0.28709 0.66876 0.0
H1855 H 0.44131 0.23968 0.66215 0.0
H1856 H 0.38973 0.25175 0.70622 0.0
C1857 C 0.47493 0.35784 0.71939 0.0
C1858 C 0.50216 0.37735 0.71267 0.0
C1859 C 0.51616 0.36952 0.69851 0.0
C1860 C 0.50296 0.34248 0.6908 0.0
C1861 C 0.4758 0.32366 0.69746 0.0
C1862 C 0.46204 0.33095 0.71158 0.0
C1863 C 0.43259 0.30722 0.7157 0.0
C1864 C 0.42978 0.29777 0.73773 0.0
C1865 C 0.41 0.31492 0.71025 0.0
C1866 C 0.43168 0.28564 0.70143 0.0
C1867 C 0.45682 0.29539 0.69111 0.0
C1868 C 0.46067 0.2792 0.67686 0.0
C1869 C 0.4383 0.25231 0.67315 0.0
C1870 C 0.41236 0.24191 0.6836 0.0
C1871 C 0.4092 0.25896 0.69791 0.0
H1872 H 0.68267 0.1853 0.72166 0.0
H1873 H 0.62597 0.09695 0.72474 0.0
H1874 H 0.66528 0.08911 0.71518 0.0
H1875 H 0.72136 0.18498 0.67923 0.0
H1876 H 0.75588 0.21144 0.68763 0.0
H1877 H 0.72464 0.21167 0.69607 0.0
H1878 H 0.73693 0.21062 0.73328 0.0
H1879 H 0.76932 0.21227 0.72551 0.0
H1880 H 0.7452 0.18487 0.74182 0.0
H1881 H 0.71035 0.09077 0.70556 0.0
H1882 H 0.75906 0.10149 0.69824 0.0
H1883 H 0.78747 0.189 0.70007 0.0
C1884 C 0.67877 0.16434 0.72061 0.0
C1885 C 0.65145 0.14162 0.72416 0.0
C1886 C 0.64685 0.11452 0.72232 0.0
C1887 C 0.66901 0.10993 0.71678 0.0
C1888 C 0.69565 0.13271 0.71307 0.0
C1889 C 0.70077 0.15942 0.71512 0.0
C1890 C 0.73148 0.18016 0.7103 0.0
C1891 C 0.73348 0.19814 0.69222 0.0
C1892 C 0.74663 0.19803 0.72883 0.0
C1893 C 0.7428 0.16095 0.70513 0.0
C1894 C 0.72165 0.13367 0.70687 0.0
C1895 C 0.72697 0.11202 0.70396 0.0
C1896 C 0.75468 0.1183 0.69973 0.0
C1897 C 0.77684 0.14598 0.69805 0.0
C1898 C 0.77075 0.16764 0.70057 0.0
H1899 H 0.91547 0.54308 0.73007 0.0
H1900 H 0.8382 0.46684 0.71681 0.0
H1901 H 0.81408 0.49318 0.7091 0.0
H1902 H 0.88006 0.57983 0.75277 0.0
H1903 H 0.90554 0.61253 0.74209 0.0
H1904 H 0.91597 0.58765 0.74883 0.0
H1905 H 0.934 0.5895 0.7125 0.0
H1906 H 0.92335 0.6141 0.7056 0.0
H1907 H 0.91021 0.58237 0.69158 0.0
H1908 H 0.80074 0.52706 0.6979 0.0
H1909 H 0.79641 0.56685 0.68749 0.0
H1910 H 0.8809 0.62256 0.71004 0.0
C1911 C 0.89324 0.53206 0.72615 0.0
C1912 C 0.87836 0.50302 0.72425 0.0
C1913 C 0.84962 0.48908 0.7186 0.0
C1914 C 0.83584 0.50386 0.71414 0.0
C1915 C 0.85112 0.53255 0.71564 0.0
C1916 C 0.87901 0.54659 0.72186 0.0
C1917 C 0.8907 0.57762 0.72125 0.0
C1918 C 0.89853 0.59015 0.7425 0.0
C1919 C 0.91606 0.59171 0.70687 0.0
C1920 C 0.86531 0.57873 0.71304 0.0
C1921 C 0.84281 0.55241 0.70991 0.0
C1922 C 0.81789 0.54777 0.70078 0.0
C1923 C 0.81571 0.57059 0.69484 0.0
C1924 C 0.83812 0.59784 0.69828 0.0
C1925 C 0.86321 0.60196 0.70766 0.0
H1926 H 0.49354 0.94193 0.24755 0.0
H1927 H 0.40582 0.8851 0.23272 0.0
H1928 H 0.41423 0.90235 0.1978 0.0
H1929 H 0.49956 0.99801 0.21905 0.0
H1930 H 0.53521 0.01013 0.21064 0.0
H1931 H 0.52328 0.99169 0.23405 0.0
H1932 H 0.53719 0.95614 0.22169 0.0
H1933 H 0.54935 0.9746 0.19827 0.0
H1934 H 0.52327 0.93838 0.19812 0.0
H1935 H 0.43096 0.92791 0.16513 0.0
H1936 H 0.45489 0.95975 0.13699 0.0
H1937 H 0.53242 1.00005 0.17212 0.0
C1938 C 0.47633 0.93276 0.2368 0.0
C1939 C 0.449 0.91206 0.24289 0.0
C1940 C 0.42688 0.90098 0.22845 0.0
C1941 C 0.43147 0.91062 0.20854 0.0
C1942 C 0.45838 0.93143 0.20311 0.0
C1943 C 0.48052 0.94233 0.21675 0.0
C1944 C 0.50699 0.96557 0.20715 0.0
C1945 C 0.51683 0.99297 0.21839 0.0
C1946 C 0.5306 0.95823 0.20625 0.0
C1947 C 0.4961 0.96628 0.18617 0.0
C1948 C 0.46805 0.94626 0.18415 0.0
C1949 C 0.45305 0.94344 0.16645 0.0
C1950 C 0.46696 0.9616 0.15042 0.0
C1951 C 0.49574 0.98253 0.15203 0.0
C1952 C 0.51041 0.98455 0.17024 0.0
H1953 H 0.05686 0.49646 0.25208 0.0
H1954 H 0.11395 0.58466 0.24783 0.0
H1955 H 0.09801 0.5841 0.21281 0.0
H1956 H 0.06245 0.47877 0.19944 0.0
H1957 H 0.02545 0.45329 0.19786 0.0
H1958 H 0.0437 0.46021 0.22166 0.0
H1959 H 0.0067 0.4705 0.23772 0.0
H1960 H 0.98844 0.46377 0.21399 0.0
H1961 H 1.00038 0.49633 0.2266 0.0
H1962 H 0.0743 0.57416 0.17884 0.0
H1963 H 0.04267 0.55613 0.14918 0.0
H1964 H 0.99935 0.47485 0.17632 0.0
C1965 C 0.06639 0.5155 0.24356 0.0
C1966 C 0.08685 0.54056 0.25243 0.0
C1967 C 0.09835 0.56527 0.24115 0.0
C1968 C 0.0895 0.56511 0.22128 0.0
C1969 C 0.06895 0.5401 0.21303 0.0
C1970 C 0.05745 0.51576 0.22384 0.0
C1971 C 0.0341 0.49212 0.21208 0.0
C1972 C 0.0419 0.46978 0.20749 0.0
C1973 C 0.00573 0.47998 0.22327 0.0
C1974 C 0.03394 0.50703 0.19311 0.0
C1975 C 0.05451 0.53459 0.1938 0.0
C1976 C 0.0582 0.55259 0.17809 0.0
C1977 C 0.04022 0.54218 0.16131 0.0
C1978 C 0.01858 0.51417 0.16052 0.0
C1979 C 0.01561 0.4964 0.1766 0.0
H1980 H 0.48553 0.52003 0.25208 0.0
H1981 H 0.49208 0.59727 0.23342 0.0
H1982 H 0.49945 0.58769 0.19816 0.0
H1983 H 0.53966 0.52417 0.2198 0.0
H1984 H 0.52205 0.48762 0.21474 0.0
H1985 H 0.51591 0.50005 0.23815 0.0
H1986 H 0.46206 0.47373 0.231 0.0
H1987 H 0.46804 0.46125 0.20754 0.0
H1988 H 0.44899 0.47987 0.20777 0.0
H1989 H 0.50619 0.56916 0.16455 0.0
H1990 H 0.51517 0.54529 0.13647 0.0
H1991 H 0.50536 0.48091 0.17757 0.0
C1992 C 0.48815 0.53478 0.24054 0.0
C1993 C 0.48795 0.55932 0.24551 0.0
C1994 C 0.49217 0.57837 0.23 0.0
C1995 C 0.49623 0.57302 0.20991 0.0
C1996 C 0.49627 0.5486 0.20553 0.0
C1997 C 0.49255 0.5299 0.22049 0.0
C1998 C 0.49476 0.50581 0.21207 0.0
C1999 C 0.51957 0.50434 0.22176 0.0
C2000 C 0.46679 0.47855 0.21475 0.0
C2001 C 0.5004 0.51384 0.19006 0.0
C2002 C 0.50091 0.53843 0.18649 0.0
C2003 C 0.50581 0.54989 0.16722 0.0
C2004 C 0.51072 0.53611 0.15132 0.0
C2005 C 0.51103 0.51125 0.15477 0.0
C2006 C 0.50549 0.49998 0.17443 0.0
H2007 H 0.95374 0.43733 0.79287 0.0
H2008 H 0.89691 0.47032 0.79709 0.0
H2009 H 0.91332 0.48565 0.83203 0.0
H2010 H 0.94404 0.4114 0.84363 0.0
H2011 H 0.98042 0.42016 0.8464 0.0
H2012 H 0.96406 0.41198 0.82188 0.0
H2013 H 1.00369 0.45888 0.80833 0.0
H2014 H 0.02015 0.46724 0.8328 0.0
H2015 H 0.01069 0.49038 0.82076 0.0
H2016 H 0.93649 0.49733 0.86688 0.0
H2017 H 0.96494 0.50535 0.89779 0.0
H2018 H 1.00508 0.46314 0.87044 0.0
C2019 C 0.94438 0.44743 0.80118 0.0
C2020 C 0.9238 0.45239 0.79224 0.0
C2021 C 0.91277 0.46639 0.80355 0.0
C2022 C 0.92186 0.47503 0.82344 0.0
C2023 C 0.94204 0.46958 0.8318 0.0
C2024 C 0.95314 0.45611 0.82096 0.0
C2025 C 0.97479 0.45295 0.83315 0.0
C2026 C 0.96525 0.4223 0.83646 0.0
C2027 C 1.00406 0.46828 0.82316 0.0
C2028 C 0.97427 0.46681 0.8526 0.0
C2029 C 0.95523 0.47624 0.85161 0.0
C2030 C 0.95136 0.48993 0.86781 0.0
C2031 C 0.96751 0.49423 0.88537 0.0
C2032 C 0.98734 0.48493 0.88661 0.0
C2033 C 0.99044 0.47087 0.86996 0.0
H2034 H 0.57283 0.51666 0.79071 0.0
H2035 H 0.53815 0.42818 0.79511 0.0
H2036 H 0.52503 0.42951 0.83055 0.0
H2037 H 0.60027 0.53409 0.84253 0.0
H2038 H 0.59062 0.56042 0.84513 0.0
H2039 H 0.59952 0.55286 0.82072 0.0
H2040 H 0.5514 0.54398 0.80668 0.0
H2041 H 0.54233 0.55142 0.83103 0.0
H2042 H 0.51921 0.51897 0.81883 0.0
H2043 H 0.51376 0.44016 0.86512 0.0
H2044 H 0.50315 0.4589 0.89551 0.0
H2045 H 0.54435 0.54039 0.86853 0.0
C2046 C 0.56296 0.49768 0.79928 0.0
C2047 C 0.55667 0.47232 0.79021 0.0
C2048 C 0.54312 0.4478 0.80176 0.0
C2049 C 0.53571 0.44838 0.82192 0.0
C2050 C 0.54186 0.47364 0.83035 0.0
C2051 C 0.55512 0.49785 0.81939 0.0
C2052 C 0.55769 0.52195 0.83162 0.0
C2053 C 0.58888 0.54361 0.83521 0.0
C2054 C 0.5417 0.53483 0.82143 0.0
C2055 C 0.54344 0.50745 0.85104 0.0
C2056 C 0.53479 0.47966 0.8501 0.0
C2057 C 0.52061 0.46193 0.86607 0.0
C2058 C 0.51481 0.4728 0.88333 0.0
C2059 C 0.5229 0.50112 0.88448 0.0
C2060 C 0.53769 0.51862 0.86811 0.0
H2061 H 0.53097 0.12429 0.80275 0.0
H2062 H 0.57099 0.07894 0.78114 0.0
H2063 H 0.56641 0.05884 0.81513 0.0
H2064 H 0.56438 0.14075 0.85151 0.0
H2065 H 0.53377 0.13748 0.8643 0.0
H2066 H 0.53967 0.14753 0.83823 0.0
H2067 H 0.49008 0.10685 0.82919 0.0
H2068 H 0.48408 0.09657 0.85523 0.0
H2069 H 0.48093 0.07221 0.83615 0.0
H2070 H 0.55605 0.04271 0.85179 0.0
H2071 H 0.54518 0.03562 0.88824 0.0
H2072 H 0.51347 0.09285 0.88588 0.0
C2073 C 0.53865 0.11002 0.80514 0.0
C2074 C 0.55118 0.10304 0.78922 0.0
C2075 C 0.56142 0.08467 0.7931 0.0
C2076 C 0.55875 0.07303 0.81233 0.0
C2077 C 0.54604 0.08017 0.82765 0.0
C2078 C 0.53648 0.09852 0.82429 0.0
C2079 C 0.52456 0.10364 0.84339 0.0
C2080 C 0.54162 0.13416 0.84973 0.0
C2081 C 0.49304 0.09425 0.84083 0.0
C2082 C 0.52882 0.08527 0.85807 0.0
C2083 C 0.54095 0.07165 0.84869 0.0
C2084 C 0.54662 0.05336 0.85925 0.0
C2085 C 0.5402 0.0493 0.87993 0.0
C2086 C 0.52852 0.06368 0.88997 0.0
C2087 C 0.52258 0.08169 0.87871 0.0
H2088 H 0.16408 0.27642 0.58527 0.0
H2089 H 0.07706 0.21804 0.56938 0.0
H2090 H 0.08566 0.23644 0.53484 0.0
H2091 H 0.16995 0.33265 0.55726 0.0
H2092 H 0.20579 0.34512 0.54915 0.0
H2093 H 0.19357 0.32634 0.5724 0.0
H2094 H 0.20803 0.29119 0.55999 0.0
H2095 H 0.2205 0.31 0.53673 0.0
H2096 H 0.19461 0.27374 0.53626 0.0
H2097 H 0.10241 0.26324 0.50276 0.0
H2098 H 0.12664 0.29562 0.47501 0.0
H2099 H 0.20379 0.33531 0.51062 0.0
C2100 C 0.14699 0.26719 0.57442 0.0
C2101 C 0.11979 0.24591 0.58016 0.0
C2102 C 0.09794 0.23465 0.56551 0.0
C2103 C 0.10265 0.24485 0.54577 0.0
C2104 C 0.12944 0.26621 0.54073 0.0
C2105 C 0.15136 0.27712 0.55454 0.0
C2106 C 0.1779 0.30057 0.54528 0.0
C2107 C 0.18734 0.32778 0.5567 0.0
C2108 C 0.20166 0.29344 0.54452 0.0
C2109 C 0.16727 0.30144 0.52429 0.0
C2110 C 0.1393 0.28135 0.52199 0.0
C2111 C 0.12448 0.27878 0.50427 0.0
C2112 C 0.13857 0.29723 0.48847 0.0
C2113 C 0.16735 0.31807 0.49034 0.0
C2114 C 0.18179 0.31988 0.50857 0.0
H2115 H 0.72953 0.8862 0.58234 0.0
H2116 H 0.78789 0.85675 0.56937 0.0
H2117 H 0.77617 0.85405 0.53326 0.0
H2118 H 0.67712 0.84436 0.54867 0.0
H2119 H 0.668 0.86979 0.54082 0.0
H2120 H 0.68291 0.87214 0.56542 0.0
H2121 H 0.72317 0.92179 0.55777 0.0
H2122 H 0.70816 0.91975 0.5332 0.0
H2123 H 0.74447 0.9281 0.53556 0.0
H2124 H 0.75371 0.84893 0.49941 0.0
H2125 H 0.72485 0.84502 0.4698 0.0
H2126 H 0.68424 0.88191 0.50405 0.0
C2127 C 0.74051 0.87997 0.57187 0.0
C2128 C 0.75951 0.8715 0.57878 0.0
C2129 C 0.77291 0.86292 0.56453 0.0
C2130 C 0.76654 0.86149 0.54395 0.0
C2131 C 0.74706 0.86914 0.53775 0.0
C2132 C 0.7346 0.87868 0.55123 0.0
C2133 C 0.71347 0.8845 0.54073 0.0
C2134 C 0.68362 0.86663 0.54943 0.0
C2135 C 0.72289 0.91537 0.54188 0.0
C2136 C 0.71534 0.87589 0.51939 0.0
C2137 C 0.73489 0.86717 0.51799 0.0
C2138 C 0.73885 0.85636 0.50018 0.0
C2139 C 0.72239 0.8544 0.48334 0.0
C2140 C 0.70229 0.86342 0.48429 0.0
C2141 C 0.69914 0.8746 0.50264 0.0
H2142 H 0.18152 0.9047 0.58405 0.0
H2143 H 0.09055 0.8583 0.57568 0.0
H2144 H 0.09744 0.84746 0.54071 0.0
H2145 H 0.1982 0.93489 0.53454 0.0
H2146 H 0.23008 0.93297 0.53254 0.0
H2147 H 0.21776 0.93653 0.55689 0.0
H2148 H 0.21771 0.89253 0.56915 0.0
H2149 H 0.23002 0.88881 0.54484 0.0
H2150 H 0.19808 0.86078 0.55519 0.0
H2151 H 0.11483 0.84191 0.5062 0.0
H2152 H 0.14089 0.84125 0.47597 0.0
H2153 H 0.22024 0.89325 0.50696 0.0
C2154 C 0.16295 0.8925 0.57487 0.0
C2155 C 0.13544 0.88248 0.58272 0.0
C2156 C 0.11184 0.86603 0.57017 0.0
C2157 C 0.11555 0.85991 0.55022 0.0
C2158 C 0.143 0.8704 0.54296 0.0
C2159 C 0.16627 0.88634 0.55496 0.0
C2160 C 0.19356 0.89515 0.5437 0.0
C2161 C 0.21091 0.92676 0.54181 0.0
C2162 C 0.21085 0.88362 0.55383 0.0
C2163 C 0.1821 0.88159 0.52347 0.0
C2164 C 0.1529 0.86743 0.52327 0.0
C2165 C 0.1377 0.85305 0.50621 0.0
C2166 C 0.15272 0.85297 0.48902 0.0
C2167 C 0.1827 0.86717 0.48896 0.0
C2168 C 0.19738 0.88183 0.50647 0.0
H2169 H 0.63985 0.80508 0.11294 0.0
H2170 H 0.55659 0.79105 0.12787 0.0
H2171 H 0.57072 0.80117 0.16375 0.0
H2172 H 0.64877 0.77323 0.15366 0.0
H2173 H 0.68581 0.79709 0.15774 0.0
H2174 H 0.67087 0.79318 0.13299 0.0
H2175 H 0.68864 0.84563 0.13138 0.0
H2176 H 0.70415 0.84985 0.15604 0.0
H2177 H 0.6795 0.86175 0.15126 0.0
H2178 H 0.59113 0.80423 0.19816 0.0
H2179 H 0.61751 0.80491 0.22831 0.0
H2180 H 0.68963 0.82183 0.19082 0.0
C2181 C 0.62507 0.80525 0.12373 0.0
C2182 C 0.59737 0.79783 0.11783 0.0
C2183 C 0.57809 0.7973 0.13223 0.0
C2184 C 0.58591 0.80289 0.15257 0.0
C2185 C 0.61321 0.80937 0.15809 0.0
C2186 C 0.63272 0.81121 0.14401 0.0
C2187 C 0.66003 0.81681 0.15399 0.0
C2188 C 0.66674 0.7937 0.14931 0.0
C2189 C 0.68453 0.8452 0.1478 0.0
C2190 C 0.65242 0.81657 0.17593 0.0
C2191 C 0.62537 0.81231 0.17798 0.0
C2192 C 0.61269 0.80851 0.19677 0.0
C2193 C 0.62805 0.80913 0.2139 0.0
C2194 C 0.65607 0.81386 0.21226 0.0
C2195 C 0.66834 0.81802 0.19288 0.0
H2196 H 0.20983 0.77147 0.13234 0.0
H2197 H 0.25541 0.85881 0.11744 0.0
H2198 H 0.24177 0.86957 0.14993 0.0
H2199 H 0.15063 0.77377 0.15584 0.0
H2200 H 0.14548 0.74848 0.17465 0.0
H2201 H 0.15968 0.74753 0.15039 0.0
H2202 H 0.20317 0.74965 0.16783 0.0
H2203 H 0.18925 0.7509 0.19214 0.0
H2204 H 0.22413 0.77758 0.18497 0.0
H2205 H 0.22529 0.87147 0.18492 0.0
H2206 H 0.20173 0.86353 0.21806 0.0
H2207 H 0.16285 0.77516 0.20907 0.0
C2208 C 0.21671 0.79286 0.13569 0.0
C2209 C 0.23444 0.81426 0.12226 0.0
C2210 C 0.24279 0.84195 0.12756 0.0
C2211 C 0.23493 0.84835 0.14601 0.0
C2212 C 0.21809 0.82688 0.15899 0.0
C2213 C 0.20855 0.79964 0.15393 0.0
C2214 C 0.18966 0.78044 0.17034 0.0
C2215 C 0.15958 0.76144 0.16232 0.0
C2216 C 0.20232 0.76366 0.17935 0.0
C2217 C 0.19033 0.80118 0.18545 0.0
C2218 C 0.20717 0.82788 0.1787 0.0
C2219 C 0.21183 0.85064 0.19028 0.0
C2220 C 0.19853 0.84598 0.20911 0.0
C2221 C 0.18046 0.8188 0.21604 0.0
C2222 C 0.17643 0.79616 0.20404 0.0
H2223 H 0.16601 0.40498 0.12286 0.0
H2224 H 0.2534 0.46852 0.13246 0.0
H2225 H 0.25165 0.45047 0.16667 0.0
H2226 H 0.14221 0.40851 0.17255 0.0
H2227 H 0.11767 0.37195 0.17391 0.0
H2228 H 0.12637 0.38906 0.14987 0.0
H2229 H 0.14165 0.3548 0.13674 0.0
H2230 H 0.13297 0.33757 0.16073 0.0
H2231 H 0.16789 0.35081 0.15045 0.0
H2232 H 0.23975 0.42535 0.20056 0.0
H2233 H 0.21917 0.39537 0.23028 0.0
H2234 H 0.13868 0.35091 0.19901 0.0
C2235 C 0.18482 0.41537 0.13212 0.0
C2236 C 0.20988 0.43832 0.12473 0.0
C2237 C 0.23404 0.45069 0.13745 0.0
C2238 C 0.23318 0.44071 0.15705 0.0
C2239 C 0.20798 0.41837 0.16388 0.0
C2240 C 0.18425 0.40589 0.15175 0.0
C2241 C 0.15958 0.38253 0.16269 0.0
C2242 C 0.13501 0.38837 0.16489 0.0
C2243 C 0.14997 0.35479 0.15202 0.0
C2244 C 0.17309 0.38372 0.1829 0.0
C2245 C 0.20104 0.40445 0.18332 0.0
C2246 C 0.21783 0.40915 0.20038 0.0
C2247 C 0.20583 0.3921 0.21731 0.0
C2248 C 0.17719 0.37057 0.21721 0.0
C2249 C 0.16073 0.36675 0.19969 0.0
H2250 H 0.75202 0.56964 0.89535 0.0
H2251 H 0.83277 0.60805 0.92684 0.0
H2252 H 0.85662 0.63154 0.89582 0.0
H2253 H 0.77754 0.56244 0.84603 0.0
H2254 H 0.75522 0.57189 0.83221 0.0
H2255 H 0.74401 0.55521 0.85634 0.0
H2256 H 0.73776 0.5955 0.86937 0.0
H2257 H 0.74874 0.61218 0.84526 0.0
H2258 H 0.76697 0.63035 0.86783 0.0
H2259 H 0.87232 0.65303 0.86229 0.0
H2260 H 0.87828 0.67414 0.82882 0.0
H2261 H 0.78795 0.6253 0.81842 0.0
C2262 C 0.77471 0.58291 0.89585 0.0
C2263 C 0.7903 0.58612 0.91384 0.0
C2264 C 0.82007 0.60398 0.9134 0.0
C2265 C 0.83398 0.61778 0.89576 0.0
C2266 C 0.81804 0.61407 0.87847 0.0
C2267 C 0.78905 0.59734 0.87833 0.0
C2268 C 0.77693 0.59873 0.85795 0.0
C2269 C 0.76257 0.57038 0.84752 0.0
C2270 C 0.75639 0.60986 0.86025 0.0
C2271 C 0.80366 0.61918 0.84684 0.0
C2272 C 0.8271 0.62737 0.859 0.0
C2273 C 0.85414 0.64671 0.85261 0.0
C2274 C 0.85732 0.65859 0.83355 0.0
C2275 C 0.83366 0.65137 0.82096 0.0
C2276 C 0.80648 0.63091 0.82757 0.0
H2277 H 0.40302 0.17971 0.90617 0.0
H2278 H 0.47656 0.26036 0.89639 0.0
H2279 H 0.45978 0.26095 0.86186 0.0
H2280 H 0.40034 0.15277 0.8568 0.0
H2281 H 0.36229 0.13407 0.85553 0.0
H2282 H 0.37983 0.14037 0.87955 0.0
H2283 H 0.3521 0.16376 0.89247 0.0
H2284 H 0.33438 0.15743 0.86852 0.0
H2285 H 0.35351 0.19204 0.87849 0.0
H2286 H 0.4355 0.25174 0.82778 0.0
H2287 H 0.4042 0.23487 0.79788 0.0
H2288 H 0.34683 0.16031 0.83023 0.0
C2289 C 0.41563 0.19749 0.89676 0.0
C2290 C 0.44114 0.21999 0.90398 0.0
C2291 C 0.45681 0.24302 0.89126 0.0
C2292 C 0.44754 0.24345 0.87159 0.0
C2293 C 0.42248 0.22075 0.86487 0.0
C2294 C 0.40665 0.19831 0.87715 0.0
C2295 C 0.38041 0.17659 0.86642 0.0
C2296 C 0.38075 0.14935 0.86446 0.0
C2297 C 0.35351 0.17221 0.87712 0.0
C2298 C 0.38396 0.19026 0.84614 0.0
C2299 C 0.40842 0.21565 0.84547 0.0
C2300 C 0.41627 0.23191 0.82817 0.0
C2301 C 0.39847 0.22209 0.81122 0.0
C2302 C 0.37303 0.19633 0.81173 0.0
C2303 C 0.36594 0.18024 0.82944 0.0
H2304 H 0.81243 0.188 0.91572 0.0
H2305 H 0.8088 0.26165 0.90071 0.0
H2306 H 0.81962 0.25725 0.86524 0.0
H2307 H 0.8701 0.20181 0.88517 0.0
H2308 H 0.85724 0.16655 0.87756 0.0
H2309 H 0.84659 0.17387 0.90135 0.0
H2310 H 0.79393 0.14364 0.89128 0.0
H2311 H 0.8044 0.136 0.86749 0.0
H2312 H 0.78152 0.15061 0.86806 0.0
H2313 H 0.83441 0.24687 0.83203 0.0
H2314 H 0.85143 0.23098 0.80343 0.0
H2315 H 0.84425 0.1633 0.83982 0.0
C2316 C 0.81323 0.20281 0.90487 0.0
C2317 C 0.80972 0.22515 0.91097 0.0
C2318 C 0.81161 0.24448 0.89639 0.0
C2319 C 0.8176 0.24208 0.8762 0.0
C2320 C 0.82155 0.22015 0.87078 0.0
C2321 C 0.81926 0.20074 0.88465 0.0
C2322 C 0.8259 0.17998 0.87512 0.0
C2323 C 0.85148 0.18061 0.88541 0.0
C2324 C 0.79988 0.15083 0.87551 0.0
C2325 C 0.83287 0.19109 0.85385 0.0
C2326 C 0.83002 0.21414 0.85161 0.0
C2327 C 0.83633 0.2286 0.83352 0.0
C2328 C 0.84587 0.21931 0.81731 0.0
C2329 C 0.84909 0.19577 0.81925 0.0
C2330 C 0.84224 0.18146 0.83781 0.0
H2331 H 0.2901 0.10198 0.4561 0.0
H2332 H 0.25598 0.15737 0.4586 0.0
H2333 H 0.27708 0.17308 0.49233 0.0
H2334 H 0.27901 0.0828 0.50972 0.0
H2335 H 0.31115 0.08129 0.51142 0.0
H2336 H 0.2921 0.07346 0.48793 0.0
H2337 H 0.33727 0.11071 0.4701 0.0
H2338 H 0.3564 0.11878 0.49353 0.0
H2339 H 0.35489 0.14563 0.47957 0.0
H2340 H 0.30485 0.18509 0.52502 0.0
H2341 H 0.33617 0.19174 0.55389 0.0
H2342 H 0.3494 0.12628 0.53092 0.0
C2343 C 0.28647 0.11696 0.46386 0.0
C2344 C 0.27137 0.12845 0.45452 0.0
C2345 C 0.26778 0.1485 0.46519 0.0
C2346 C 0.27952 0.15743 0.48447 0.0
C2347 C 0.29459 0.14595 0.49306 0.0
C2348 C 0.29786 0.12597 0.48316 0.0
C2349 C 0.31571 0.1175 0.49543 0.0
C2350 C 0.29846 0.08695 0.50149 0.0
C2351 C 0.34266 0.12353 0.48397 0.0
C2352 C 0.32252 0.1363 0.51357 0.0
C2353 C 0.31005 0.15246 0.51199 0.0
C2354 C 0.31438 0.17224 0.52654 0.0
C2355 C 0.33212 0.17575 0.54299 0.0
C2356 C 0.34538 0.15957 0.54486 0.0
C2357 C 0.33999 0.1393 0.52997 0.0
H2358 H 0.90568 0.18479 0.45301 0.0
H2359 H 0.89395 0.10259 0.46 0.0
H2360 H 0.87553 0.10027 0.49443 0.0
H2361 H 0.92833 0.20807 0.50383 0.0
H2362 H 0.90998 0.22732 0.50529 0.0
H2363 H 0.92233 0.22244 0.48133 0.0
H2364 H 0.87162 0.20101 0.46679 0.0
H2365 H 0.85912 0.20586 0.49068 0.0
H2366 H 0.84295 0.17203 0.47936 0.0
H2367 H 0.85916 0.10757 0.52866 0.0
H2368 H 0.84357 0.12263 0.5587 0.0
H2369 H 0.86571 0.19983 0.52898 0.0
C2370 C 0.89943 0.16635 0.46182 0.0
C2371 C 0.90141 0.1439 0.45379 0.0
C2372 C 0.89248 0.11997 0.46574 0.0
C2373 C 0.88214 0.11854 0.48536 0.0
C2374 C 0.88067 0.14114 0.49283 0.0
C2375 C 0.8889 0.16451 0.48135 0.0
C2376 C 0.88468 0.18574 0.49268 0.0
C2377 C 0.91302 0.21247 0.49598 0.0
C2378 C 0.86332 0.19149 0.48172 0.0
C2379 C 0.87278 0.17071 0.51236 0.0
C2380 C 0.87081 0.14509 0.51224 0.0
C2381 C 0.86061 0.12759 0.52887 0.0
C2382 C 0.85195 0.13638 0.54593 0.0
C2383 C 0.85331 0.16238 0.54624 0.0
C2384 C 0.86407 0.17972 0.52918 0.0
H2385 H 0.82641 0.73153 0.45206 0.0
H2386 H 0.91695 0.78269 0.46062 0.0
H2387 H 0.91224 0.76453 0.49519 0.0
H2388 H 0.80609 0.7386 0.50291 0.0
H2389 H 0.77747 0.70342 0.50393 0.0
H2390 H 0.78798 0.72108 0.48013 0.0
H2391 H 0.79533 0.68201 0.46575 0.0
H2392 H 0.78486 0.66425 0.4895 0.0
H2393 H 0.81852 0.67286 0.47869 0.0
H2394 H 0.89739 0.73994 0.52913 0.0
H2395 H 0.87414 0.70984 0.55845 0.0
H2396 H 0.7933 0.67532 0.52773 0.0
C2397 C 0.84525 0.73922 0.46126 0.0
C2398 C 0.87209 0.75867 0.4535 0.0
C2399 C 0.89619 0.76766 0.46604 0.0
C2400 C 0.89369 0.75757 0.48579 0.0
C2401 C 0.86693 0.73841 0.49291 0.0
C2402 C 0.84314 0.7293 0.48097 0.0
C2403 C 0.81692 0.70801 0.49196 0.0
C2404 C 0.79587 0.7184 0.49491 0.0
C2405 C 0.8031 0.68013 0.48081 0.0
C2406 C 0.82965 0.70638 0.51188 0.0
C2407 C 0.85849 0.7242 0.51223 0.0
C2408 C 0.87478 0.726 0.529 0.0
C2409 C 0.86133 0.70891 0.54568 0.0
C2410 C 0.83183 0.69006 0.54553 0.0
C2411 C 0.81591 0.6892 0.52837 0.0
loop_
_geom_bond_atom_site_label_1
_geom_bond_atom_site_label_2
_geom_bond_distance
_geom_bond_site_symmetry_2
_ccdc_geom_bond_type
H0 C3 0.929 . S
H1 C6 0.929 . S
H2 C8 0.930 . S
C3 H0 0.929 . S
C3 C4 1.398 . S
C3 C5 1.396 . S
C4 C3 1.398 . S
C4 C8 1.407 . S
C5 C3 1.396 . S
C5 C6 1.394 . S
C6 H1 0.929 . S
C6 C5 1.394 . S
C6 C7 1.382 . S
C7 C6 1.382 . S
C7 C8 1.392 . S
C7 N9 1.420 . S
C8 H2 0.930 . S
C8 C4 1.407 . S
C8 C7 1.392 . S
N9 C7 1.420 . S
N9 C10 1.244 . S
C10 N9 1.244 . S
H11 C14 0.929 . S
H12 C17 0.929 . S
H13 C19 0.930 . S
C14 H11 0.929 . S
C14 C15 1.398 . S
C14 C16 1.396 . S
C15 C14 1.398 . S
C15 C19 1.407 . S
C16 C14 1.396 . S
C16 C17 1.394 . S
C17 H12 0.929 . S
C17 C16 1.394 . S
C17 C18 1.382 . S
C18 C17 1.382 . S
C18 C19 1.392 . S
C18 N20 1.420 . S
C19 H13 0.930 . S
C19 C15 1.407 . S
C19 C18 1.392 . S
N20 C18 1.420 . S
N20 C21 1.244 . S
C21 N20 1.244 . S
H22 C25 0.929 . S
H23 C28 0.929 . S
H24 C30 0.930 . S
C25 H22 0.929 . S
C25 C26 1.398 . S
C25 C27 1.396 . S
C26 C25 1.398 . S
C26 C30 1.407 . S
C27 C25 1.396 . S
C27 C28 1.394 . S
C28 H23 0.929 . S
C28 C27 1.394 . S
C28 C29 1.382 . S
C29 C28 1.382 . S
C29 C30 1.392 . S
C29 N31 1.420 . S
C30 H24 0.930 . S
C30 C26 1.407 . S
C30 C29 1.392 . S
N31 C29 1.420 . S
N31 C32 1.244 . S
C32 N31 1.244 . S
H33 C36 0.929 . S
H34 C39 0.929 . S
H35 C41 0.930 . S
C36 H33 0.929 . S
C36 C37 1.398 . S
C36 C38 1.396 . S
C37 C36 1.398 . S
C37 C41 1.407 . S
C38 C36 1.396 . S
C38 C39 1.394 . S
C39 H34 0.929 . S
C39 C38 1.394 . S
C39 C40 1.382 . S
C40 C39 1.382 . S
C40 C41 1.392 . S
C40 N42 1.420 . S
C41 H35 0.930 . S
C41 C37 1.407 . S
C41 C40 1.392 . S
N42 C40 1.420 . S
N42 C43 1.244 . S
C43 N42 1.244 . S
H44 C47 0.929 . S
H45 C50 0.929 . S
H46 C52 0.930 . S
C47 H44 0.929 . S
C47 C48 1.398 . S
C47 C49 1.396 . S
C48 C47 1.398 . S
C48 C52 1.407 . S
C49 C47 1.396 . S
C49 C50 1.394 . S
C50 H45 0.929 . S
C50 C49 1.394 . S
C50 C51 1.382 . S
C51 C50 1.382 . S
C51 C52 1.392 . S
C51 N53 1.420 . S
C52 H46 0.930 . S
C52 C48 1.407 . S
C52 C51 1.392 . S
N53 C51 1.420 . S
N53 C54 1.244 . S
C54 N53 1.244 . S
H55 C58 0.929 . S
H56 C61 0.929 . S
H57 C63 0.930 . S
C58 H55 0.929 . S
C58 C59 1.398 . S
C58 C60 1.396 . S
C59 C58 1.398 . S
C59 C63 1.407 . S
C60 C58 1.396 . S
C60 C61 1.394 . S
C61 H56 0.929 . S
C61 C60 1.394 . S
C61 C62 1.382 . S
C62 C61 1.382 . S
C62 C63 1.392 . S
C62 N64 1.420 . S
C63 H57 0.930 . S
C63 C59 1.407 . S
C63 C62 1.392 . S
N64 C62 1.420 . S
N64 C65 1.244 . S
C65 N64 1.244 . S
H66 C69 0.929 . S
H67 C72 0.929 . S
H68 C74 0.930 . S
C69 H66 0.929 . S
C69 C70 1.398 . S
C69 C71 1.396 . S
C70 C69 1.398 . S
C70 C74 1.407 . S
C71 C69 1.396 . S
C71 C72 1.394 . S
C72 H67 0.929 . S
C72 C71 1.394 . S
C72 C73 1.382 . S
C73 C72 1.382 . S
C73 C74 1.392 . S
C73 N75 1.420 . S
C74 H68 0.930 . S
C74 C70 1.407 . S
C74 C73 1.392 . S
N75 C73 1.420 . S
N75 C76 1.244 . S
C76 N75 1.244 . S
H77 C80 0.929 . S
H78 C83 0.929 . S
H79 C85 0.930 . S
C80 H77 0.929 . S
C80 C81 1.398 . S
C80 C82 1.396 . S
C81 C80 1.398 . S
C81 C85 1.407 . S
C82 C80 1.396 . S
C82 C83 1.394 . S
C83 H78 0.929 . S
C83 C82 1.394 . S
C83 C84 1.382 . S
C84 C83 1.382 . S
C84 C85 1.392 . S
C84 N86 1.420 . S
C85 H79 0.930 . S
C85 C81 1.407 . S
C85 C84 1.392 . S
N86 C84 1.420 . S
N86 C87 1.244 . S
C87 N86 1.244 . S
H88 C91 0.929 . S
H89 C94 0.929 . S
H90 C96 0.930 . S
C91 H88 0.929 . S
C91 C92 1.398 . S
C91 C93 1.396 . S
C92 C91 1.398 . S
C92 C96 1.407 . S
C93 C91 1.396 . S
C93 C94 1.394 . S
C94 H89 0.929 . S
C94 C93 1.394 . S
C94 C95 1.382 . S
C95 C94 1.382 . S
C95 C96 1.392 . S
C95 N97 1.420 . S
C96 H90 0.930 . S
C96 C92 1.407 . S
C96 C95 1.392 . S
N97 C95 1.420 . S
N97 C98 1.244 . S
C98 N97 1.244 . S
H99 C102 0.929 . S
H100 C105 0.929 . S
H101 C107 0.930 . S
C102 H99 0.929 . S
C102 C103 1.398 . S
C102 C104 1.396 . S
C103 C102 1.398 . S
C103 C107 1.407 . S
C104 C102 1.396 . S
C104 C105 1.394 . S
C105 H100 0.929 . S
C105 C104 1.394 . S
C105 C106 1.382 . S
C106 C105 1.382 . S
C106 C107 1.392 . S
C106 N108 1.420 . S
C107 H101 0.930 . S
C107 C103 1.407 . S
C107 C106 1.392 . S
N108 C106 1.420 . S
N108 C109 1.244 . S
C109 N108 1.244 . S
H110 C113 0.929 . S
H111 C116 0.929 . S
H112 C118 0.930 . S
C113 H110 0.929 . S
C113 C114 1.398 . S
C113 C115 1.396 . S
C114 C113 1.398 . S
C114 C118 1.407 . S
C115 C113 1.396 . S
C115 C116 1.394 . S
C116 H111 0.929 . S
C116 C115 1.394 . S
C116 C117 1.382 . S
C117 C116 1.382 . S
C117 C118 1.392 . S
C117 N119 1.420 . S
C118 H112 0.930 . S
C118 C114 1.407 . S
C118 C117 1.392 . S
N119 C117 1.420 . S
N119 C120 1.244 . S
C120 N119 1.244 . S
H121 C124 0.929 . S
H122 C127 0.929 . S
H123 C129 0.930 . S
C124 H121 0.929 . S
C124 C125 1.398 . S
C124 C126 1.396 . S
C125 C124 1.398 . S
C125 C129 1.407 . S
C126 C124 1.396 . S
C126 C127 1.394 . S
C127 H122 0.929 . S
C127 C126 1.394 . S
C127 C128 1.382 . S
C128 C127 1.382 . S
C128 C129 1.392 . S
C128 N130 1.420 . S
C129 H123 0.930 . S
C129 C125 1.407 . S
C129 C128 1.392 . S
N130 C128 1.420 . S
N130 C131 1.244 . S
C131 N130 1.244 . S
H132 C135 0.929 . S
H133 C138 0.929 . S
H134 C140 0.930 . S
C135 H132 0.929 . S
C135 C136 1.398 . S
C135 C137 1.396 . S
C136 C135 1.398 . S
C136 C140 1.407 . S
C137 C135 1.396 . S
C137 C138 1.394 . S
C138 H133 0.929 . S
C138 C137 1.394 . S
C138 C139 1.382 . S
C139 C138 1.382 . S
C139 C140 1.392 . S
C139 N141 1.420 . S
C140 H134 0.930 . S
C140 C136 1.407 . S
C140 C139 1.392 . S
N141 C139 1.420 . S
N141 C142 1.244 . S
C142 N141 1.244 . S
H143 C146 0.929 . S
H144 C149 0.929 . S
H145 C151 0.930 . S
C146 H143 0.929 . S
C146 C147 1.398 . S
C146 C148 1.396 . S
C147 C146 1.398 . S
C147 C151 1.407 . S
C148 C146 1.396 . S
C148 C149 1.394 . S
C149 H144 0.929 . S
C149 C148 1.394 . S
C149 C150 1.382 . S
C150 C149 1.382 . S
C150 C151 1.392 . S
C150 N152 1.420 . S
C151 H145 0.930 . S
C151 C147 1.407 . S
C151 C150 1.392 . S
N152 C150 1.420 . S
N152 C153 1.244 . S
C153 N152 1.244 . S
H154 C157 0.929 . S
H155 C160 0.929 . S
H156 C162 0.930 . S
C157 H154 0.929 . S
C157 C158 1.398 . S
C157 C159 1.396 . S
C158 C157 1.398 . S
C158 C162 1.407 . S
C159 C157 1.396 . S
C159 C160 1.394 . S
C160 H155 0.929 . S
C160 C159 1.394 . S
C160 C161 1.382 . S
C161 C160 1.382 . S
C161 C162 1.392 . S
C161 N163 1.420 . S
C162 H156 0.930 . S
C162 C158 1.407 . S
C162 C161 1.392 . S
N163 C161 1.420 . S
N163 C164 1.244 . S
C164 N163 1.244 . S
H165 C168 0.929 . S
H166 C171 0.929 . S
H167 C173 0.930 . S
C168 H165 0.929 . S
C168 C169 1.398 . S
C168 C170 1.396 . S
C169 C168 1.398 . S
C169 C173 1.407 . S
C170 C168 1.396 . S
C170 C171 1.394 . S
C171 H166 0.929 . S
C171 C170 1.394 . S
C171 C172 1.382 . S
C172 C171 1.382 . S
C172 C173 1.392 . S
C172 N174 1.420 . S
C173 H167 0.930 . S
C173 C169 1.407 . S
C173 C172 1.392 . S
N174 C172 1.420 . S
N174 C175 1.244 . S
C175 N174 1.244 . S
H176 C179 0.929 . S
H177 C182 0.929 . S
H178 C184 0.930 . S
C179 H176 0.929 . S
C179 C180 1.398 . S
C179 C181 1.396 . S
C180 C179 1.398 . S
C180 C184 1.407 . S
C181 C179 1.396 . S
C181 C182 1.394 . S
C182 H177 0.929 . S
C182 C181 1.394 . S
C182 C183 1.382 . S
C183 C182 1.382 . S
C183 C184 1.392 . S
C183 N185 1.420 . S
C184 H178 0.930 . S
C184 C180 1.407 . S
C184 C183 1.392 . S
N185 C183 1.420 . S
N185 C186 1.244 . S
C186 N185 1.244 . S
H187 C190 0.929 . S
H188 C193 0.929 . S
H189 C195 0.930 . S
C190 H187 0.929 . S
C190 C191 1.398 . S
C190 C192 1.396 . S
C191 C190 1.398 . S
C191 C195 1.407 . S
C192 C190 1.396 . S
C192 C193 1.394 . S
C193 H188 0.929 . S
C193 C192 1.394 . S
C193 C194 1.382 . S
C194 C193 1.382 . S
C194 C195 1.392 . S
C194 N196 1.420 . S
C195 H189 0.930 . S
C195 C191 1.407 . S
C195 C194 1.392 . S
N196 C194 1.420 . S
N196 C197 1.244 . S
C197 N196 1.244 . S
Gd198 N229 2.661 . S
Gd198 N235 2.601 . S
Gd198 O242 2.545 . S
Gd198 O243 2.606 1_545 S
Gd198 O245 2.429 . S
Gd198 O246 2.545 1_545 S
Gd198 O247 2.412 1_545 S
Gd198 O249 2.362 . S
Gd198 O250 2.324 1_545 S
Gd198 C257 2.828 . S
Gd199 N208 2.661 . S
Gd199 N212 2.601 . S
Gd199 O243 2.362 1_556 S
Gd199 O244 2.324 1_565 S
Gd199 O248 2.545 . S
Gd199 O249 2.606 1_566 S
Gd199 O251 2.428 . S
Gd199 O252 2.545 1_565 S
Gd199 O253 2.412 1_565 S
Gd199 C266 2.828 1_565 S
C200 C203 1.417 . S
C200 C205 1.431 . S
C200 C206 1.412 . S
C201 C204 1.437 . S
C201 C205 1.317 . S
C201 H220 0.929 . S
C202 C203 1.426 . S
C202 C204 1.413 . S
C202 N212 1.359 . S
C203 C200 1.417 . S
C203 C202 1.426 . S
C203 N208 1.350 . S
C204 C201 1.437 . S
C204 C202 1.413 . S
C204 C214 1.391 . S
C205 C200 1.431 . S
C205 C201 1.317 . S
C205 H216 0.930 . S
C206 C200 1.412 . S
C206 C207 1.355 . S
C206 H218 0.930 . S
C207 C206 1.355 . S
C207 C209 1.402 . S
C207 H219 0.930 . S
N208 Gd199 2.661 . S
N208 C203 1.350 . S
N208 C209 1.307 . S
C209 C207 1.402 . S
C209 N208 1.307 . S
C209 H210 0.930 . S
H210 C209 0.930 . S
C211 N212 1.334 . S
C211 C213 1.394 . S
C211 H215 0.930 . S
N212 Gd199 2.601 . S
N212 C202 1.359 . S
N212 C211 1.334 . S
C213 C211 1.394 . S
C213 C214 1.359 . S
C213 H225 0.930 . S
C214 C204 1.391 . S
C214 C213 1.359 . S
C214 H226 0.929 . S
H215 C211 0.930 . S
H216 C205 0.930 . S
H217 C234 0.930 . S
H218 C206 0.930 . S
H219 C207 0.930 . S
H220 C201 0.929 . S
H221 C239 0.930 . S
H222 C230 0.930 . S
H223 C231 0.930 . S
H224 C255 0.929 . S
H225 C213 0.930 . S
H226 C214 0.929 . S
H227 C256 0.930 . S
H228 C237 0.930 . S
N229 Gd198 2.661 . S
N229 C233 1.350 . S
N229 C234 1.307 . S
C230 H222 0.930 . S
C230 C231 1.355 . S
C230 C232 1.412 . S
C231 H223 0.930 . S
C231 C230 1.355 . S
C231 C234 1.402 . S
C232 C230 1.412 . S
C232 C233 1.417 . S
C232 C256 1.431 . S
C233 N229 1.350 . S
C233 C232 1.417 . S
C233 C236 1.426 . S
C234 H217 0.930 . S
C234 N229 1.307 . S
C234 C231 1.402 . S
N235 Gd198 2.601 . S
N235 C236 1.359 . S
N235 C239 1.334 . S
C236 C233 1.426 . S
C236 N235 1.359 . S
C236 C240 1.413 . S
C237 H228 0.930 . S
C237 C238 1.359 . S
C237 C239 1.394 . S
C238 C237 1.359 . S
C238 C240 1.391 . S
C238 H241 0.929 . S
C239 H221 0.930 . S
C239 N235 1.334 . S
C239 C237 1.394 . S
C240 C236 1.413 . S
C240 C238 1.391 . S
C240 C255 1.437 . S
H241 C238 0.929 . S
O242 Gd198 2.545 . S
O242 C257 1.258 . S
O243 Gd198 2.606 1_565 S
O243 Gd199 2.362 1_554 S
O243 C254 1.284 . S
O244 Gd199 2.324 1_545 S
O244 C264 1.254 1_556 S
O245 Gd198 2.429 . S
O245 C264 1.268 . S
O246 Gd198 2.545 1_565 S
O246 C254 1.250 . S
O247 Gd198 2.412 1_565 S
O247 C257 1.252 1_565 S
O248 Gd199 2.545 . S
O248 C266 1.250 1_565 S
O249 Gd198 2.362 . S
O249 Gd199 2.606 1_544 S
O249 C265 1.284 1_554 S
O250 Gd198 2.324 1_565 S
O250 C273 1.254 . S
O251 Gd199 2.428 . S
O251 C273 1.271 1_556 S
O252 Gd199 2.545 1_545 S
O252 C265 1.250 . S
O253 Gd199 2.412 1_545 S
O253 C266 1.258 . S
C254 O243 1.284 . S
C254 O246 1.250 . S
C255 H224 0.929 . S
C255 C240 1.437 . S
C255 C256 1.317 . S
C256 H227 0.930 . S
C256 C232 1.431 . S
C256 C255 1.317 . S
C257 Gd198 2.828 . S
C257 O242 1.258 . S
C257 O247 1.252 1_545 S
C257 C258 1.497 . S
C258 C257 1.497 . S
C258 C259 1.395 . S
C258 C260 1.380 1_545 S
C259 C258 1.395 . S
C259 C262 1.398 . S
C259 H274 0.930 . S
C260 C258 1.380 1_565 S
C260 C261 1.391 . S
C260 H275 0.930 . S
C261 C260 1.391 . S
C261 C263 1.387 . S
C262 C259 1.398 . S
C262 C263 1.380 1_545 S
C262 H276 0.930 . S
C263 C261 1.387 . S
C263 C262 1.380 1_565 S
C263 H277 0.930 . S
C264 O244 1.254 1_554 S
C264 O245 1.268 . S
C265 O249 1.284 1_556 S
C265 O252 1.250 . S
C266 Gd199 2.828 1_545 S
C266 O248 1.250 1_545 S
C266 O253 1.258 . S
C266 C267 1.498 . S
C267 C266 1.498 . S
C267 C268 1.395 1_545 S
C267 C269 1.380 . S
C268 C267 1.395 1_565 S
C268 C271 1.398 . S
C268 H278 0.930 . S
C269 C267 1.380 . S
C269 C270 1.391 . S
C269 H279 0.930 . S
C270 C269 1.391 . S
C270 C272 1.387 . S
C271 C268 1.398 . S
C271 C272 1.380 1_565 S
C271 H280 0.930 . S
C272 C270 1.387 . S
C272 C271 1.380 1_545 S
C272 H281 0.930 . S
C273 O250 1.254 . S
C273 O251 1.271 1_554 S
H274 C259 0.930 . S
H275 C260 0.930 . S
H276 C262 0.930 . S
H277 C263 0.930 . S
H278 C268 0.930 . S
H279 C269 0.930 . S
H280 C271 0.930 . S
H281 C272 0.930 . S
Gd282 N313 2.661 . S
Gd282 N319 2.601 . S
Gd282 O326 2.545 . S
Gd282 O327 2.606 1_655 S
Gd282 O329 2.429 . S
Gd282 O330 2.545 1_655 S
Gd282 O331 2.412 1_655 S
Gd282 O333 2.362 . S
Gd282 O334 2.324 1_655 S
Gd282 C341 2.828 . S
Gd283 N292 2.661 . S
Gd283 N296 2.601 . S
Gd283 O327 2.362 1_556 S
Gd283 O328 2.324 1_455 S
Gd283 O332 2.545 . S
Gd283 O333 2.606 1_456 S
Gd283 O335 2.403 1_556 S
Gd283 O336 2.545 1_455 S
Gd283 O337 2.413 . S
Gd283 C350 2.828 . S
C284 C287 1.417 . S
C284 C289 1.431 . S
C284 C290 1.412 . S
C285 C288 1.437 . S
C285 C289 1.317 . S
C285 H304 0.929 . S
C286 C287 1.426 . S
C286 C288 1.413 . S
C286 N296 1.359 . S
C287 C284 1.417 . S
C287 C286 1.426 . S
C287 N292 1.350 . S
C288 C285 1.437 . S
C288 C286 1.413 . S
C288 C298 1.391 . S
C289 C284 1.431 . S
C289 C285 1.317 . S
C289 H300 0.930 . S
C290 C284 1.412 . S
C290 C291 1.355 . S
C290 H302 0.930 . S
C291 C290 1.355 . S
C291 C293 1.402 . S
C291 H303 0.930 . S
N292 Gd283 2.661 . S
N292 C287 1.350 . S
N292 C293 1.307 . S
C293 C291 1.402 . S
C293 N292 1.307 . S
C293 H294 0.930 . S
H294 C293 0.930 . S
C295 N296 1.334 . S
C295 C297 1.394 . S
C295 H299 0.930 . S
N296 Gd283 2.601 . S
N296 C286 1.359 . S
N296 C295 1.334 . S
C297 C295 1.394 . S
C297 C298 1.359 . S
C297 H309 0.930 . S
C298 C288 1.391 . S
C298 C297 1.359 . S
C298 H310 0.929 . S
H299 C295 0.930 . S
H300 C289 0.930 . S
H301 C318 0.930 . S
H302 C290 0.930 . S
H303 C291 0.930 . S
H304 C285 0.929 . S
H305 C323 0.930 . S
H306 C314 0.930 . S
H307 C315 0.930 . S
H308 C339 0.929 . S
H309 C297 0.930 . S
H310 C298 0.929 . S
H311 C340 0.930 . S
H312 C321 0.930 . S
N313 Gd282 2.661 . S
N313 C317 1.350 . S
N313 C318 1.307 . S
C314 H306 0.930 . S
C314 C315 1.355 . S
C314 C316 1.412 . S
C315 H307 0.930 . S
C315 C314 1.355 . S
C315 C318 1.402 . S
C316 C314 1.412 . S
C316 C317 1.417 . S
C316 C340 1.431 . S
C317 N313 1.350 . S
C317 C316 1.417 . S
C317 C320 1.426 . S
C318 H301 0.930 . S
C318 N313 1.307 . S
C318 C315 1.402 . S
N319 Gd282 2.601 . S
N319 C320 1.359 . S
N319 C323 1.334 . S
C320 C317 1.426 . S
C320 N319 1.359 . S
C320 C324 1.413 . S
C321 H312 0.930 . S
C321 C322 1.359 . S
C321 C323 1.394 . S
C322 C321 1.359 . S
C322 C324 1.391 . S
C322 H325 0.929 . S
C323 H305 0.930 . S
C323 N319 1.334 . S
C323 C321 1.394 . S
C324 C320 1.413 . S
C324 C322 1.391 . S
C324 C339 1.437 . S
H325 C322 0.929 . S
O326 Gd282 2.545 . S
O326 C341 1.258 . S
O327 Gd282 2.606 1_455 S
O327 Gd283 2.362 1_554 S
O327 C338 1.284 . S
O328 Gd283 2.324 1_655 S
O328 C348 1.254 1_556 S
O329 Gd282 2.429 . S
O329 C348 1.268 . S
O330 Gd282 2.545 1_455 S
O330 C338 1.250 . S
O331 Gd282 2.412 1_455 S
O331 C341 1.252 1_455 S
O332 Gd283 2.545 . S
O332 C350 1.258 . S
O333 Gd282 2.362 . S
O333 Gd283 2.606 1_654 S
O333 C349 1.284 1_554 S
O334 Gd282 2.324 1_455 S
O334 C357 1.254 . S
O335 Gd283 2.403 1_554 S
O335 C357 1.320 . S
O336 Gd283 2.545 1_655 S
O336 C349 1.250 . S
O337 Gd283 2.413 . S
O337 C350 1.251 . S
C338 O327 1.284 . S
C338 O330 1.250 . S
C339 H308 0.929 . S
C339 C324 1.437 . S
C339 C340 1.317 . S
C340 H311 0.930 . S
C340 C316 1.431 . S
C340 C339 1.317 . S
C341 Gd282 2.828 . S
C341 O326 1.258 . S
C341 O331 1.252 1_655 S
C341 C342 1.497 1_655 S
C342 C341 1.497 1_455 S
C342 C343 1.395 1_455 S
C342 C344 1.380 . S
C343 C342 1.395 1_655 S
C343 C346 1.398 . S
C343 H358 0.930 . S
C344 C342 1.380 . S
C344 C345 1.391 . S
C344 H359 0.930 . S
C345 C344 1.391 . S
C345 C347 1.387 . S
C346 C343 1.398 . S
C346 C347 1.380 1_655 S
C346 H360 0.930 . S
C347 C345 1.387 . S
C347 C346 1.380 1_455 S
C347 H361 0.930 . S
C348 O328 1.254 1_554 S
C348 O329 1.268 . S
C349 O333 1.284 1_556 S
C349 O336 1.250 . S
C350 Gd283 2.828 . S
C350 O332 1.258 . S
C350 O337 1.251 . S
C350 C351 1.497 . S
C351 C350 1.497 . S
C351 C352 1.395 . S
C351 C353 1.380 1_455 S
C352 C351 1.395 . S
C352 C355 1.398 . S
C352 H362 0.930 . S
C353 C351 1.380 1_655 S
C353 C354 1.391 . S
C353 H363 0.930 . S
C354 C353 1.391 . S
C354 C356 1.387 . S
C355 C352 1.398 . S
C355 C356 1.380 1_455 S
C355 H364 0.930 . S
C356 C354 1.387 . S
C356 C355 1.380 1_655 S
C356 H365 0.930 . S
C357 O334 1.254 . S
C357 O335 1.320 . S
H358 C343 0.930 . S
H359 C344 0.930 . S
H360 C346 0.930 . S
H361 C347 0.930 . S
H362 C352 0.930 . S
H363 C353 0.930 . S
H364 C355 0.930 . S
H365 C356 0.930 . S
Gd366 N397 2.661 . S
Gd366 N403 2.601 . S
Gd366 O410 2.545 . S
Gd366 O411 2.606 1_556 S
Gd366 O413 2.429 1_556 S
Gd366 O414 2.545 . S
Gd366 O415 2.412 . S
Gd366 O417 2.362 1_556 S
Gd366 O418 2.324 . S
Gd366 C425 2.828 . S
Gd367 N376 2.661 . S
Gd367 N380 2.601 . S
Gd367 O411 2.362 . S
Gd367 O412 2.324 . S
Gd367 O416 2.545 . S
Gd367 O417 2.606 . S
Gd367 O419 2.429 . S
Gd367 O420 2.545 . S
Gd367 O421 2.412 . S
Gd367 C434 2.828 . S
C368 C371 1.417 . S
C368 C373 1.431 . S
C368 C374 1.412 . S
C369 C372 1.437 . S
C369 C373 1.317 . S
C369 H388 0.929 . S
C370 C371 1.426 . S
C370 C372 1.413 . S
C370 N380 1.359 . S
C371 C368 1.417 . S
C371 C370 1.426 . S
C371 N376 1.350 . S
C372 C369 1.437 . S
C372 C370 1.413 . S
C372 C382 1.391 . S
C373 C368 1.431 . S
C373 C369 1.317 . S
C373 H384 0.930 . S
C374 C368 1.412 . S
C374 C375 1.355 . S
C374 H386 0.930 . S
C375 C374 1.355 . S
C375 C377 1.402 . S
C375 H387 0.930 . S
N376 Gd367 2.661 . S
N376 C371 1.350 . S
N376 C377 1.307 . S
C377 C375 1.402 . S
C377 N376 1.307 . S
C377 H378 0.930 . S
H378 C377 0.930 . S
C379 N380 1.334 . S
C379 C381 1.394 . S
C379 H383 0.930 . S
N380 Gd367 2.601 . S
N380 C370 1.359 . S
N380 C379 1.334 . S
C381 C379 1.394 . S
C381 C382 1.359 . S
C381 H393 0.930 . S
C382 C372 1.391 . S
C382 C381 1.359 . S
C382 H394 0.929 . S
H383 C379 0.930 . S
H384 C373 0.930 . S
H385 C402 0.930 . S
H386 C374 0.930 . S
H387 C375 0.930 . S
H388 C369 0.929 . S
H389 C407 0.930 . S
H390 C398 0.930 . S
H391 C399 0.930 . S
H392 C423 0.929 . S
H393 C381 0.930 . S
H394 C382 0.929 . S
H395 C424 0.930 . S
H396 C405 0.930 . S
N397 Gd366 2.661 . S
N397 C401 1.350 . S
N397 C402 1.307 . S
C398 H390 0.930 . S
C398 C399 1.355 . S
C398 C400 1.412 . S
C399 H391 0.930 . S
C399 C398 1.355 . S
C399 C402 1.402 . S
C400 C398 1.412 . S
C400 C401 1.417 . S
C400 C424 1.431 . S
C401 N397 1.350 . S
C401 C400 1.417 . S
C401 C404 1.426 . S
C402 H385 0.930 . S
C402 N397 1.307 . S
C402 C399 1.402 . S
N403 Gd366 2.601 . S
N403 C404 1.359 . S
N403 C407 1.334 . S
C404 C401 1.426 . S
C404 N403 1.359 . S
C404 C408 1.413 . S
C405 H396 0.930 . S
C405 C406 1.359 . S
C405 C407 1.394 . S
C406 C405 1.359 . S
C406 C408 1.391 . S
C406 H409 0.929 . S
C407 H389 0.930 . S
C407 N403 1.334 . S
C407 C405 1.394 . S
C408 C404 1.413 . S
C408 C406 1.391 . S
C408 C423 1.437 . S
H409 C406 0.929 . S
O410 Gd366 2.545 . S
O410 C425 1.258 . S
O411 Gd366 2.606 1_554 S
O411 Gd367 2.362 . S
O411 C422 1.284 1_554 S
O412 Gd367 2.324 . S
O412 C432 1.254 . S
O413 Gd366 2.429 1_554 S
O413 C432 1.268 . S
O414 Gd366 2.545 . S
O414 C422 1.250 . S
O415 Gd366 2.412 . S
O415 C425 1.252 . S
O416 Gd367 2.545 . S
O416 C434 1.258 . S
O417 Gd366 2.362 1_554 S
O417 Gd367 2.606 . S
O417 C433 1.284 . S
O418 Gd366 2.324 . S
O418 C441 1.254 1_556 S
O419 Gd367 2.429 . S
O419 C441 1.268 . S
O420 Gd367 2.545 . S
O420 C433 1.250 . S
O421 Gd367 2.412 . S
O421 C434 1.252 . S
C422 O411 1.284 1_556 S
C422 O414 1.250 . S
C423 H392 0.929 . S
C423 C408 1.437 . S
C423 C424 1.317 . S
C424 H395 0.930 . S
C424 C400 1.431 . S
C424 C423 1.317 . S
C425 Gd366 2.828 . S
C425 O410 1.258 . S
C425 O415 1.252 . S
C425 C426 1.497 . S
C426 C425 1.497 . S
C426 C427 1.395 . S
C426 C428 1.380 . S
C427 C426 1.395 . S
C427 C430 1.398 . S
C427 H442 0.930 . S
C428 C426 1.380 . S
C428 C429 1.391 . S
C428 H443 0.930 . S
C429 C428 1.391 . S
C429 C431 1.387 . S
C430 C427 1.398 . S
C430 C431 1.380 . S
C430 H444 0.930 . S
C431 C429 1.387 . S
C431 C430 1.380 . S
C431 H445 0.930 . S
C432 O412 1.254 . S
C432 O413 1.268 . S
C433 O417 1.284 . S
C433 O420 1.250 . S
C434 Gd367 2.828 . S
C434 O416 1.258 . S
C434 O421 1.252 . S
C434 C435 1.497 . S
C435 C434 1.497 . S
C435 C436 1.395 . S
C435 C437 1.380 . S
C436 C435 1.395 . S
C436 C439 1.398 . S
C436 H446 0.930 . S
C437 C435 1.380 . S
C437 C438 1.391 . S
C437 H447 0.930 . S
C438 C437 1.391 . S
C438 C440 1.387 . S
C439 C436 1.398 . S
C439 C440 1.380 . S
C439 H448 0.930 . S
C440 C438 1.387 . S
C440 C439 1.380 . S
C440 H449 0.930 . S
C441 O418 1.254 1_554 S
C441 O419 1.268 . S
H442 C427 0.930 . S
H443 C428 0.930 . S
H444 C430 0.930 . S
H445 C431 0.930 . S
H446 C436 0.930 . S
H447 C437 0.930 . S
H448 C439 0.930 . S
H449 C440 0.930 . S
Gd450 N481 2.661 . S
Gd450 N487 2.601 . S
Gd450 O494 2.545 . S
Gd450 O495 2.606 . S
Gd450 O497 2.429 . S
Gd450 O498 2.545 . S
Gd450 O499 2.412 . S
Gd450 O501 2.362 . S
Gd450 O502 2.324 . S
Gd450 C509 2.828 . S
Gd451 N460 2.661 . S
Gd451 N464 2.601 . S
Gd451 O495 2.362 . S
Gd451 O496 2.324 . S
Gd451 O500 2.545 . S
Gd451 O501 2.606 . S
Gd451 O503 2.429 . S
Gd451 O504 2.545 . S
Gd451 O505 2.412 . S
Gd451 C518 2.828 . S
C452 C455 1.417 . S
C452 C457 1.431 . S
C452 C458 1.412 . S
C453 C456 1.437 . S
C453 C457 1.317 . S
C453 H472 0.929 . S
C454 C455 1.426 . S
C454 C456 1.413 . S
C454 N464 1.359 . S
C455 C452 1.417 . S
C455 C454 1.426 . S
C455 N460 1.350 . S
C456 C453 1.437 . S
C456 C454 1.413 . S
C456 C466 1.391 . S
C457 C452 1.431 . S
C457 C453 1.317 . S
C457 H468 0.930 . S
C458 C452 1.412 . S
C458 C459 1.355 . S
C458 H470 0.945 . S
C459 C458 1.355 . S
C459 C461 1.402 . S
C459 H471 0.930 . S
N460 Gd451 2.661 . S
N460 C455 1.350 . S
N460 C461 1.307 . S
C461 C459 1.402 . S
C461 N460 1.307 . S
C461 H462 0.930 . S
H462 C461 0.930 . S
C463 N464 1.334 . S
C463 C465 1.394 . S
C463 H467 0.930 . S
N464 Gd451 2.601 . S
N464 C454 1.359 . S
N464 C463 1.334 . S
C465 C463 1.394 . S
C465 C466 1.359 . S
C465 H477 0.930 . S
C466 C456 1.391 . S
C466 C465 1.359 . S
C466 H478 0.929 . S
H467 C463 0.930 . S
H468 C457 0.930 . S
H469 C486 0.930 . S
H470 C458 0.945 . S
H471 C459 0.930 . S
H472 C453 0.929 . S
H473 C491 0.930 . S
H474 C482 0.930 . S
H475 C483 0.930 . S
H476 C507 0.929 . S
H477 C465 0.930 . S
H478 C466 0.929 . S
H479 C508 0.930 . S
H480 C489 0.930 . S
N481 Gd450 2.661 . S
N481 C485 1.350 . S
N481 C486 1.307 . S
C482 H474 0.930 . S
C482 C483 1.355 . S
C482 C484 1.412 . S
C483 H475 0.930 . S
C483 C482 1.355 . S
C483 C486 1.402 . S
C484 C482 1.412 . S
C484 C485 1.417 . S
C484 C508 1.431 . S
C485 N481 1.350 . S
C485 C484 1.417 . S
C485 C488 1.426 . S
C486 H469 0.930 . S
C486 N481 1.307 . S
C486 C483 1.402 . S
N487 Gd450 2.601 . S
N487 C488 1.359 . S
N487 C491 1.334 . S
C488 C485 1.426 . S
C488 N487 1.359 . S
C488 C492 1.413 . S
C489 H480 0.930 . S
C489 C490 1.359 . S
C489 C491 1.394 . S
C490 C489 1.359 . S
C490 C492 1.391 . S
C490 H493 0.929 . S
C491 H473 0.930 . S
C491 N487 1.334 . S
C491 C489 1.394 . S
C492 C488 1.413 . S
C492 C490 1.391 . S
C492 C507 1.437 . S
H493 C490 0.929 . S
O494 Gd450 2.545 . S
O494 C509 1.258 . S
O495 Gd450 2.606 . S
O495 Gd451 2.362 . S
O495 C506 1.284 . S
O496 Gd451 2.324 . S
O496 C516 1.254 . S
O497 Gd450 2.429 . S
O497 C516 1.268 . S
O498 Gd450 2.545 . S
O498 C506 1.250 . S
O499 Gd450 2.412 . S
O499 C509 1.252 . S
O500 Gd451 2.545 . S
O500 C518 1.258 . S
O501 Gd450 2.362 . S
O501 Gd451 2.606 . S
O501 C517 1.284 . S
O502 Gd450 2.324 . S
O502 C525 1.254 . S
O503 Gd451 2.429 . S
O503 C525 1.268 . S
O504 Gd451 2.545 . S
O504 C517 1.250 . S
O505 Gd451 2.412 . S
O505 C518 1.252 . S
C506 O495 1.284 . S
C506 O498 1.250 . S
C507 H476 0.929 . S
C507 C492 1.437 . S
C507 C508 1.317 . S
C508 H479 0.930 . S
C508 C484 1.431 . S
C508 C507 1.317 . S
C509 Gd450 2.828 . S
C509 O494 1.258 . S
C509 O499 1.252 . S
C509 C510 1.497 . S
C510 C509 1.497 . S
C510 C511 1.395 . S
C510 C512 1.380 . S
C511 C510 1.395 . S
C511 C514 1.398 . S
C511 H526 0.930 . S
C512 C510 1.380 . S
C512 C513 1.391 . S
C512 H527 0.930 . S
C513 C512 1.391 . S
C513 C515 1.387 . S
C514 C511 1.398 . S
C514 C515 1.380 . S
C514 H528 0.930 . S
C515 C513 1.387 . S
C515 C514 1.380 . S
C515 H529 0.930 . S
C516 O496 1.254 . S
C516 O497 1.268 . S
C517 O501 1.284 . S
C517 O504 1.250 . S
C518 Gd451 2.828 . S
C518 O500 1.258 . S
C518 O505 1.252 . S
C518 C519 1.497 . S
C519 C518 1.497 . S
C519 C520 1.395 . S
C519 C521 1.380 . S
C520 C519 1.395 . S
C520 C523 1.398 . S
C520 H530 0.930 . S
C521 C519 1.380 . S
C521 C522 1.391 . S
C521 H531 0.930 . S
C522 C521 1.391 . S
C522 C524 1.387 . S
C523 C520 1.398 . S
C523 C524 1.380 . S
C523 H532 0.930 . S
C524 C522 1.387 . S
C524 C523 1.380 . S
C524 H533 0.930 . S
C525 O502 1.254 . S
C525 O503 1.268 . S
H526 C511 0.930 . S
H527 C512 0.930 . S
H528 C514 0.930 . S
H529 C515 0.930 . S
H530 C520 0.930 . S
H531 C521 0.930 . S
H532 C523 0.930 . S
H533 C524 0.930 . S
Gd534 N565 2.661 . S
Gd534 N571 2.601 . S
Gd534 O578 2.545 . S
Gd534 O579 2.606 . S
Gd534 O581 2.429 . S
Gd534 O582 2.545 . S
Gd534 O583 2.412 . S
Gd534 O585 2.362 . S
Gd534 O586 2.324 . S
Gd534 C593 2.828 . S
Gd535 N544 2.661 . S
Gd535 N548 2.601 . S
Gd535 O579 2.362 . S
Gd535 O580 2.324 . S
Gd535 O584 2.545 . S
Gd535 O585 2.606 . S
Gd535 O587 2.429 . S
Gd535 O588 2.545 . S
Gd535 O589 2.412 . S
Gd535 C602 2.828 . S
C536 C539 1.417 . S
C536 C541 1.431 . S
C536 C542 1.412 . S
C537 C540 1.437 . S
C537 C541 1.317 . S
C537 H556 0.929 . S
C538 C539 1.426 . S
C538 C540 1.413 . S
C538 N548 1.359 . S
C539 C536 1.417 . S
C539 C538 1.426 . S
C539 N544 1.350 . S
C540 C537 1.437 . S
C540 C538 1.413 . S
C540 C550 1.391 . S
C541 C536 1.431 . S
C541 C537 1.317 . S
C541 H552 0.930 . S
C542 C536 1.412 . S
C542 C543 1.355 . S
C542 H554 0.930 . S
C543 C542 1.355 . S
C543 C545 1.402 . S
C543 H555 0.930 . S
N544 Gd535 2.661 . S
N544 C539 1.350 . S
N544 C545 1.307 . S
C545 C543 1.402 . S
C545 N544 1.307 . S
C545 H546 0.930 . S
H546 C545 0.930 . S
C547 N548 1.334 . S
C547 C549 1.394 . S
C547 H551 0.930 . S
N548 Gd535 2.601 . S
N548 C538 1.359 . S
N548 C547 1.334 . S
C549 C547 1.394 . S
C549 C550 1.359 . S
C549 H561 0.930 . S
C550 C540 1.391 . S
C550 C549 1.359 . S
C550 H562 0.929 . S
H551 C547 0.930 . S
H552 C541 0.930 . S
H553 C570 0.930 . S
H554 C542 0.930 . S
H555 C543 0.930 . S
H556 C537 0.929 . S
H557 C575 0.930 . S
H558 C566 0.930 . S
H559 C567 0.930 . S
H560 C591 0.929 . S
H561 C549 0.930 . S
H562 C550 0.929 . S
H563 C592 0.930 . S
H564 C573 0.930 . S
N565 Gd534 2.661 . S
N565 C569 1.350 . S
N565 C570 1.307 . S
C566 H558 0.930 . S
C566 C567 1.355 . S
C566 C568 1.412 . S
C567 H559 0.930 . S
C567 C566 1.355 . S
C567 C570 1.402 . S
C568 C566 1.412 . S
C568 C569 1.417 . S
C568 C592 1.431 . S
C569 N565 1.350 . S
C569 C568 1.417 . S
C569 C572 1.426 . S
C570 H553 0.930 . S
C570 N565 1.307 . S
C570 C567 1.402 . S
N571 Gd534 2.601 . S
N571 C572 1.359 . S
N571 C575 1.334 . S
C572 C569 1.426 . S
C572 N571 1.359 . S
C572 C576 1.413 . S
C573 H564 0.930 . S
C573 C574 1.359 . S
C573 C575 1.394 . S
C574 C573 1.359 . S
C574 C576 1.391 . S
C574 H577 0.929 . S
C575 H557 0.930 . S
C575 N571 1.334 . S
C575 C573 1.394 . S
C576 C572 1.413 . S
C576 C574 1.391 . S
C576 C591 1.437 . S
H577 C574 0.929 . S
O578 Gd534 2.545 . S
O578 C593 1.258 . S
O579 Gd534 2.606 . S
O579 Gd535 2.362 . S
O579 C590 1.284 . S
O580 Gd535 2.324 . S
O580 C600 1.254 . S
O581 Gd534 2.429 . S
O581 C600 1.268 . S
O582 Gd534 2.545 . S
O582 C590 1.250 . S
O583 Gd534 2.412 . S
O583 C593 1.252 . S
O584 Gd535 2.545 . S
O584 C602 1.258 . S
O585 Gd534 2.362 . S
O585 Gd535 2.606 . S
O585 C601 1.284 . S
O586 Gd534 2.324 . S
O586 C609 1.254 . S
O587 Gd535 2.429 . S
O587 C609 1.268 . S
O588 Gd535 2.545 . S
O588 C601 1.250 . S
O589 Gd535 2.412 . S
O589 C602 1.252 . S
C590 O579 1.284 . S
C590 O582 1.250 . S
C591 H560 0.929 . S
C591 C576 1.437 . S
C591 C592 1.317 . S
C592 H563 0.930 . S
C592 C568 1.431 . S
C592 C591 1.317 . S
C593 Gd534 2.828 . S
C593 O578 1.258 . S
C593 O583 1.252 . S
C593 C594 1.497 . S
C594 C593 1.497 . S
C594 C595 1.395 . S
C594 C596 1.380 . S
C595 C594 1.395 . S
C595 C598 1.398 . S
C595 H610 0.930 . S
C596 C594 1.380 . S
C596 C597 1.391 . S
C596 H611 0.930 . S
C597 C596 1.391 . S
C597 C599 1.387 . S
C598 C595 1.398 . S
C598 C599 1.380 . S
C598 H612 0.930 . S
C599 C597 1.387 . S
C599 C598 1.380 . S
C599 H613 0.930 . S
C600 O580 1.254 . S
C600 O581 1.268 . S
C601 O585 1.284 . S
C601 O588 1.250 . S
C602 Gd535 2.828 . S
C602 O584 1.258 . S
C602 O589 1.252 . S
C602 C603 1.497 . S
C603 C602 1.497 . S
C603 C604 1.395 . S
C603 C605 1.380 . S
C604 C603 1.395 . S
C604 C607 1.398 . S
C604 H614 0.930 . S
C605 C603 1.380 . S
C605 C606 1.391 . S
C605 H615 0.930 . S
C606 C605 1.391 . S
C606 C608 1.387 . S
C607 C604 1.398 . S
C607 C608 1.380 . S
C607 H616 0.930 . S
C608 C606 1.387 . S
C608 C607 1.380 . S
C608 H617 0.930 . S
C609 O586 1.254 . S
C609 O587 1.268 . S
H610 C595 0.930 . S
H611 C596 0.930 . S
H612 C598 0.930 . S
H613 C599 0.930 . S
H614 C604 0.930 . S
H615 C605 0.930 . S
H616 C607 0.930 . S
H617 C608 0.930 . S
Gd618 N649 2.661 . S
Gd618 N655 2.601 . S
Gd618 O662 2.545 . S
Gd618 O663 2.606 . S
Gd618 O665 2.429 . S
Gd618 O666 2.545 . S
Gd618 O667 2.412 . S
Gd618 O669 2.362 . S
Gd618 O670 2.324 . S
Gd618 C677 2.828 . S
Gd619 N628 2.661 . S
Gd619 N632 2.601 . S
Gd619 O663 2.362 . S
Gd619 O664 2.324 . S
Gd619 O668 2.545 . S
Gd619 O669 2.606 . S
Gd619 O671 2.429 . S
Gd619 O672 2.545 . S
Gd619 O673 2.412 . S
Gd619 C686 2.828 . S
C620 C623 1.417 . S
C620 C625 1.431 . S
C620 C626 1.412 . S
C621 C624 1.437 . S
C621 C625 1.317 . S
C621 H640 0.929 . S
C622 C623 1.426 . S
C622 C624 1.413 . S
C622 N632 1.359 . S
C623 C620 1.417 . S
C623 C622 1.426 . S
C623 N628 1.350 . S
C624 C621 1.437 . S
C624 C622 1.413 . S
C624 C634 1.391 . S
C625 C620 1.431 . S
C625 C621 1.317 . S
C625 H636 0.930 . S
C626 C620 1.412 . S
C626 C627 1.355 . S
C626 H638 0.930 . S
C627 C626 1.355 . S
C627 C629 1.402 . S
C627 H639 0.930 . S
N628 Gd619 2.661 . S
N628 C623 1.350 . S
N628 C629 1.307 . S
C629 C627 1.402 . S
C629 N628 1.307 . S
C629 H630 0.930 . S
H630 C629 0.930 . S
C631 N632 1.334 . S
C631 C633 1.394 . S
C631 H635 0.930 . S
N632 Gd619 2.601 . S
N632 C622 1.359 . S
N632 C631 1.334 . S
C633 C631 1.394 . S
C633 C634 1.359 . S
C633 H645 0.930 . S
C634 C624 1.391 . S
C634 C633 1.359 . S
C634 H646 0.929 . S
H635 C631 0.930 . S
H636 C625 0.930 . S
H637 C654 0.930 . S
H638 C626 0.930 . S
H639 C627 0.930 . S
H640 C621 0.929 . S
H641 C659 0.930 . S
H642 C650 0.930 . S
H643 C651 0.930 . S
H644 C675 0.929 . S
H645 C633 0.930 . S
H646 C634 0.929 . S
H647 C676 0.930 . S
H648 C657 0.930 . S
N649 Gd618 2.661 . S
N649 C653 1.350 . S
N649 C654 1.307 . S
C650 H642 0.930 . S
C650 C651 1.355 . S
C650 C652 1.412 . S
C651 H643 0.930 . S
C651 C650 1.355 . S
C651 C654 1.402 . S
C652 C650 1.412 . S
C652 C653 1.417 . S
C652 C676 1.431 . S
C653 N649 1.350 . S
C653 C652 1.417 . S
C653 C656 1.426 . S
C654 H637 0.930 . S
C654 N649 1.307 . S
C654 C651 1.402 . S
N655 Gd618 2.601 . S
N655 C656 1.359 . S
N655 C659 1.334 . S
C656 C653 1.426 . S
C656 N655 1.359 . S
C656 C660 1.413 . S
C657 H648 0.930 . S
C657 C658 1.359 . S
C657 C659 1.394 . S
C658 C657 1.359 . S
C658 C660 1.391 . S
C658 H661 0.929 . S
C659 H641 0.930 . S
C659 N655 1.334 . S
C659 C657 1.394 . S
C660 C656 1.413 . S
C660 C658 1.391 . S
C660 C675 1.437 . S
H661 C658 0.929 . S
O662 Gd618 2.545 . S
O662 C677 1.258 . S
O663 Gd618 2.606 . S
O663 Gd619 2.362 . S
O663 C674 1.284 . S
O664 Gd619 2.324 . S
O664 C684 1.254 . S
O665 Gd618 2.429 . S
O665 C684 1.268 . S
O666 Gd618 2.545 . S
O666 C674 1.250 . S
O667 Gd618 2.412 . S
O667 C677 1.252 . S
O668 Gd619 2.545 . S
O668 C686 1.258 . S
O669 Gd618 2.362 . S
O669 Gd619 2.606 . S
O669 C685 1.284 . S
O670 Gd618 2.324 . S
O670 C693 1.254 . S
O671 Gd619 2.429 . S
O671 C693 1.268 . S
O672 Gd619 2.545 . S
O672 C685 1.250 . S
O673 Gd619 2.412 . S
O673 C686 1.252 . S
C674 O663 1.284 . S
C674 O666 1.250 . S
C675 H644 0.929 . S
C675 C660 1.437 . S
C675 C676 1.317 . S
C676 H647 0.930 . S
C676 C652 1.431 . S
C676 C675 1.317 . S
C677 Gd618 2.828 . S
C677 O662 1.258 . S
C677 O667 1.252 . S
C677 C678 1.497 . S
C678 C677 1.497 . S
C678 C679 1.395 . S
C678 C680 1.380 . S
C679 C678 1.395 . S
C679 C682 1.398 . S
C679 H694 0.930 . S
C680 C678 1.380 . S
C680 C681 1.391 . S
C680 H695 0.930 . S
C681 C680 1.391 . S
C681 C683 1.387 . S
C682 C679 1.398 . S
C682 C683 1.380 . S
C682 H696 0.930 . S
C683 C681 1.387 . S
C683 C682 1.380 . S
C683 H697 0.930 . S
C684 O664 1.254 . S
C684 O665 1.268 . S
C685 O669 1.284 . S
C685 O672 1.250 . S
C686 Gd619 2.828 . S
C686 O668 1.258 . S
C686 O673 1.252 . S
C686 C687 1.497 . S
C687 C686 1.497 . S
C687 C688 1.395 . S
C687 C689 1.380 . S
C688 C687 1.395 . S
C688 C691 1.398 . S
C688 H698 0.930 . S
C689 C687 1.380 . S
C689 C690 1.391 . S
C689 H699 0.930 . S
C690 C689 1.391 . S
C690 C692 1.387 . S
C691 C688 1.398 . S
C691 C692 1.380 . S
C691 H700 0.930 . S
C692 C690 1.387 . S
C692 C691 1.380 . S
C692 H701 0.930 . S
C693 O670 1.254 . S
C693 O671 1.268 . S
H694 C679 0.930 . S
H695 C680 0.930 . S
H696 C682 0.930 . S
H697 C683 0.930 . S
H698 C688 0.930 . S
H699 C689 0.930 . S
H700 C691 0.930 . S
H701 C692 0.930 . S
Gd702 N733 2.661 . S
Gd702 N739 2.601 . S
Gd702 O746 2.545 . S
Gd702 O747 2.606 . S
Gd702 O749 2.429 . S
Gd702 O750 2.545 . S
Gd702 O751 2.412 . S
Gd702 O753 2.362 . S
Gd702 O754 2.324 . S
Gd702 C761 2.828 . S
Gd703 N712 2.661 . S
Gd703 N716 2.601 . S
Gd703 O747 2.362 . S
Gd703 O748 2.324 . S
Gd703 O752 2.545 . S
Gd703 O753 2.606 . S
Gd703 O755 2.429 . S
Gd703 O756 2.545 . S
Gd703 O757 2.412 . S
Gd703 C770 2.828 . S
C704 C707 1.417 . S
C704 C709 1.431 . S
C704 C710 1.412 . S
C705 C708 1.437 . S
C705 C709 1.317 . S
C705 H724 0.929 . S
C706 C707 1.426 . S
C706 C708 1.413 . S
C706 N716 1.359 . S
C707 C704 1.417 . S
C707 C706 1.426 . S
C707 N712 1.350 . S
C708 C705 1.437 . S
C708 C706 1.413 . S
C708 C718 1.391 . S
C709 C704 1.431 . S
C709 C705 1.317 . S
C709 H720 0.930 . S
C710 C704 1.412 . S
C710 C711 1.355 . S
C710 H722 0.930 . S
C711 C710 1.355 . S
C711 C713 1.402 . S
C711 H723 0.930 . S
N712 Gd703 2.661 . S
N712 C707 1.350 . S
N712 C713 1.307 . S
C713 C711 1.402 . S
C713 N712 1.307 . S
C713 H714 0.930 . S
H714 C713 0.930 . S
C715 N716 1.334 . S
C715 C717 1.394 . S
C715 H719 0.930 . S
N716 Gd703 2.601 . S
N716 C706 1.359 . S
N716 C715 1.334 . S
C717 C715 1.394 . S
C717 C718 1.359 . S
C717 H729 0.930 . S
C718 C708 1.391 . S
C718 C717 1.359 . S
C718 H730 0.929 . S
H719 C715 0.930 . S
H720 C709 0.930 . S
H721 C738 0.930 . S
H722 C710 0.930 . S
H723 C711 0.930 . S
H724 C705 0.929 . S
H725 C743 0.930 . S
H726 C734 0.930 . S
H727 C735 0.930 . S
H728 C759 0.929 . S
H729 C717 0.930 . S
H730 C718 0.929 . S
H731 C760 0.930 . S
H732 C741 0.930 . S
N733 Gd702 2.661 . S
N733 C737 1.350 . S
N733 C738 1.307 . S
C734 H726 0.930 . S
C734 C735 1.355 . S
C734 C736 1.412 . S
C735 H727 0.930 . S
C735 C734 1.355 . S
C735 C738 1.402 . S
C736 C734 1.412 . S
C736 C737 1.417 . S
C736 C760 1.431 . S
C737 N733 1.350 . S
C737 C736 1.417 . S
C737 C740 1.426 . S
C738 H721 0.930 . S
C738 N733 1.307 . S
C738 C735 1.402 . S
N739 Gd702 2.601 . S
N739 C740 1.359 . S
N739 C743 1.334 . S
C740 C737 1.426 . S
C740 N739 1.359 . S
C740 C744 1.413 . S
C741 H732 0.930 . S
C741 C742 1.359 . S
C741 C743 1.394 . S
C742 C741 1.359 . S
C742 C744 1.391 . S
C742 H745 0.929 . S
C743 H725 0.930 . S
C743 N739 1.334 . S
C743 C741 1.394 . S
C744 C740 1.413 . S
C744 C742 1.391 . S
C744 C759 1.437 . S
H745 C742 0.929 . S
O746 Gd702 2.545 . S
O746 C761 1.258 . S
O747 Gd702 2.606 . S
O747 Gd703 2.362 . S
O747 C758 1.284 . S
O748 Gd703 2.324 . S
O748 C768 1.254 . S
O749 Gd702 2.429 . S
O749 C768 1.268 . S
O750 Gd702 2.545 . S
O750 C758 1.250 . S
O751 Gd702 2.412 . S
O751 C761 1.252 . S
O752 Gd703 2.545 . S
O752 C770 1.258 . S
O753 Gd702 2.362 . S
O753 Gd703 2.606 . S
O753 C769 1.284 . S
O754 Gd702 2.324 . S
O754 C777 1.254 . S
O755 Gd703 2.429 . S
O755 C777 1.268 . S
O756 Gd703 2.545 . S
O756 C769 1.250 . S
O757 Gd703 2.412 . S
O757 C770 1.252 . S
C758 O747 1.284 . S
C758 O750 1.250 . S
C759 H728 0.929 . S
C759 C744 1.437 . S
C759 C760 1.317 . S
C760 H731 0.930 . S
C760 C736 1.431 . S
C760 C759 1.317 . S
C761 Gd702 2.828 . S
C761 O746 1.258 . S
C761 O751 1.252 . S
C761 C762 1.497 . S
C762 C761 1.497 . S
C762 C763 1.395 . S
C762 C764 1.380 . S
C763 C762 1.395 . S
C763 C766 1.398 . S
C763 H778 0.930 . S
C764 C762 1.380 . S
C764 C765 1.391 . S
C764 H779 0.930 . S
C765 C764 1.391 . S
C765 C767 1.387 . S
C766 C763 1.398 . S
C766 C767 1.380 . S
C766 H780 0.930 . S
C767 C765 1.387 . S
C767 C766 1.380 . S
C767 H781 0.930 . S
C768 O748 1.254 . S
C768 O749 1.268 . S
C769 O753 1.284 . S
C769 O756 1.250 . S
C770 Gd703 2.828 . S
C770 O752 1.258 . S
C770 O757 1.252 . S
C770 C771 1.497 . S
C771 C770 1.497 . S
C771 C772 1.395 . S
C771 C773 1.380 . S
C772 C771 1.395 . S
C772 C775 1.398 . S
C772 H782 0.930 . S
C773 C771 1.380 . S
C773 C774 1.391 . S
C773 H783 0.930 . S
C774 C773 1.391 . S
C774 C776 1.387 . S
C775 C772 1.398 . S
C775 C776 1.380 . S
C775 H784 0.930 . S
C776 C774 1.387 . S
C776 C775 1.380 . S
C776 H785 0.930 . S
C777 O754 1.254 . S
C777 O755 1.268 . S
H778 C763 0.930 . S
H779 C764 0.930 . S
H780 C766 0.930 . S
H781 C767 0.930 . S
H782 C772 0.930 . S
H783 C773 0.930 . S
H784 C775 0.930 . S
H785 C776 0.930 . S
Gd786 N817 2.661 . S
Gd786 N823 2.601 . S
Gd786 O830 2.545 . S
Gd786 O831 2.606 . S
Gd786 O833 2.429 . S
Gd786 O834 2.545 . S
Gd786 O835 2.412 . S
Gd786 O837 2.362 . S
Gd786 O838 2.324 . S
Gd786 C845 2.828 . S
Gd787 N796 2.661 . S
Gd787 N800 2.601 . S
Gd787 O831 2.362 . S
Gd787 O832 2.324 . S
Gd787 O836 2.545 . S
Gd787 O837 2.606 . S
Gd787 O839 2.429 . S
Gd787 O840 2.545 . S
Gd787 O841 2.412 . S
Gd787 C854 2.828 . S
C788 C791 1.417 . S
C788 C793 1.431 . S
C788 C794 1.412 . S
C789 C792 1.437 . S
C789 C793 1.317 . S
C789 H808 0.929 . S
C790 C791 1.426 . S
C790 C792 1.413 . S
C790 N800 1.359 . S
C791 C788 1.417 . S
C791 C790 1.426 . S
C791 N796 1.350 . S
C792 C789 1.437 . S
C792 C790 1.413 . S
C792 C802 1.391 . S
C793 C788 1.431 . S
C793 C789 1.317 . S
C793 H804 0.930 . S
C794 C788 1.412 . S
C794 C795 1.355 . S
C794 H806 0.930 . S
C795 C794 1.355 . S
C795 C797 1.402 . S
C795 H807 0.930 . S
N796 Gd787 2.661 . S
N796 C791 1.350 . S
N796 C797 1.307 . S
C797 C795 1.402 . S
C797 N796 1.307 . S
C797 H798 0.930 . S
H798 C797 0.930 . S
C799 N800 1.334 . S
C799 C801 1.394 . S
C799 H803 0.930 . S
N800 Gd787 2.601 . S
N800 C790 1.359 . S
N800 C799 1.334 . S
C801 C799 1.394 . S
C801 C802 1.359 . S
C801 H813 0.930 . S
C802 C792 1.391 . S
C802 C801 1.359 . S
C802 H814 0.929 . S
H803 C799 0.930 . S
H804 C793 0.930 . S
H805 C822 0.930 . S
H806 C794 0.930 . S
H807 C795 0.930 . S
H808 C789 0.929 . S
H809 C827 0.930 . S
H810 C818 0.930 . S
H811 C819 0.930 . S
H812 C843 0.929 . S
H813 C801 0.930 . S
H814 C802 0.929 . S
H815 C844 0.930 . S
H816 C825 0.930 . S
N817 Gd786 2.661 . S
N817 C821 1.350 . S
N817 C822 1.307 . S
C818 H810 0.930 . S
C818 C819 1.355 . S
C818 C820 1.412 . S
C819 H811 0.930 . S
C819 C818 1.355 . S
C819 C822 1.402 . S
C820 C818 1.412 . S
C820 C821 1.417 . S
C820 C844 1.431 . S
C821 N817 1.350 . S
C821 C820 1.417 . S
C821 C824 1.426 . S
C822 H805 0.930 . S
C822 N817 1.307 . S
C822 C819 1.402 . S
N823 Gd786 2.601 . S
N823 C824 1.359 . S
N823 C827 1.334 . S
C824 C821 1.426 . S
C824 N823 1.359 . S
C824 C828 1.413 . S
C825 H816 0.930 . S
C825 C826 1.359 . S
C825 C827 1.394 . S
C826 C825 1.359 . S
C826 C828 1.391 . S
C826 H829 0.929 . S
C827 H809 0.930 . S
C827 N823 1.334 . S
C827 C825 1.394 . S
C828 C824 1.413 . S
C828 C826 1.391 . S
C828 C843 1.437 . S
H829 C826 0.929 . S
O830 Gd786 2.545 . S
O830 C845 1.258 . S
O831 Gd786 2.606 . S
O831 Gd787 2.362 . S
O831 C842 1.284 . S
O832 Gd787 2.324 . S
O832 C852 1.254 . S
O833 Gd786 2.429 . S
O833 C852 1.268 . S
O834 Gd786 2.545 . S
O834 C842 1.250 . S
O835 Gd786 2.412 . S
O835 C845 1.252 . S
O836 Gd787 2.545 . S
O836 C854 1.258 . S
O837 Gd786 2.362 . S
O837 Gd787 2.606 . S
O837 C853 1.284 . S
O838 Gd786 2.324 . S
O838 C861 1.254 . S
O839 Gd787 2.429 . S
O839 C861 1.268 . S
O840 Gd787 2.545 . S
O840 C853 1.250 . S
O841 Gd787 2.412 . S
O841 C854 1.252 . S
C842 O831 1.284 . S
C842 O834 1.250 . S
C843 H812 0.929 . S
C843 C828 1.437 . S
C843 C844 1.317 . S
C844 H815 0.930 . S
C844 C820 1.431 . S
C844 C843 1.317 . S
C845 Gd786 2.828 . S
C845 O830 1.258 . S
C845 O835 1.252 . S
C845 C846 1.497 . S
C846 C845 1.497 . S
C846 C847 1.395 . S
C846 C848 1.380 . S
C847 C846 1.395 . S
C847 C850 1.398 . S
C847 H862 0.930 . S
C848 C846 1.380 . S
C848 C849 1.391 . S
C848 H863 0.930 . S
C849 C848 1.391 . S
C849 C851 1.387 . S
C850 C847 1.398 . S
C850 C851 1.380 . S
C850 H864 0.930 . S
C851 C849 1.387 . S
C851 C850 1.380 . S
C851 H865 0.930 . S
C852 O832 1.254 . S
C852 O833 1.268 . S
C853 O837 1.284 . S
C853 O840 1.250 . S
C854 Gd787 2.828 . S
C854 O836 1.258 . S
C854 O841 1.252 . S
C854 C855 1.497 . S
C855 C854 1.497 . S
C855 C856 1.395 . S
C855 C857 1.380 . S
C856 C855 1.395 . S
C856 C859 1.398 . S
C856 H866 0.930 . S
C857 C855 1.380 . S
C857 C858 1.391 . S
C857 H867 0.930 . S
C858 C857 1.391 . S
C858 C860 1.387 . S
C859 C856 1.398 . S
C859 C860 1.380 . S
C859 H868 0.930 . S
C860 C858 1.387 . S
C860 C859 1.380 . S
C860 H869 0.930 . S
C861 O838 1.254 . S
C861 O839 1.268 . S
H862 C847 0.930 . S
H863 C848 0.930 . S
H864 C850 0.930 . S
H865 C851 0.930 . S
H866 C856 0.930 . S
H867 C857 0.930 . S
H868 C859 0.930 . S
H869 C860 0.930 . S
Gd870 N901 2.661 . S
Gd870 N907 2.601 . S
Gd870 O914 2.545 . S
Gd870 O915 2.606 . S
Gd870 O917 2.429 . S
Gd870 O918 2.545 . S
Gd870 O919 2.412 . S
Gd870 O921 2.362 . S
Gd870 O922 2.324 . S
Gd870 C929 2.828 . S
Gd871 N880 2.661 . S
Gd871 N884 2.601 . S
Gd871 O915 2.362 . S
Gd871 O916 2.324 . S
Gd871 O920 2.545 . S
Gd871 O921 2.606 . S
Gd871 O923 2.429 . S
Gd871 O924 2.545 . S
Gd871 O925 2.412 . S
Gd871 C938 2.828 . S
C872 C875 1.417 . S
C872 C877 1.431 . S
C872 C878 1.412 . S
C873 C876 1.437 . S
C873 C877 1.317 . S
C873 H892 0.929 . S
C874 C875 1.426 . S
C874 C876 1.413 . S
C874 N884 1.359 . S
C875 C872 1.417 . S
C875 C874 1.426 . S
C875 N880 1.350 . S
C876 C873 1.437 . S
C876 C874 1.413 . S
C876 C886 1.391 . S
C877 C872 1.431 . S
C877 C873 1.317 . S
C877 H888 0.930 1_655 S
C878 C872 1.412 . S
C878 C879 1.355 . S
C878 H890 0.930 1_655 S
C879 C878 1.355 . S
C879 C881 1.402 . S
C879 H891 0.930 . S
N880 Gd871 2.661 . S
N880 C875 1.350 . S
N880 C881 1.307 . S
C881 C879 1.402 . S
C881 N880 1.307 . S
C881 H882 0.930 . S
H882 C881 0.930 . S
C883 N884 1.334 . S
C883 C885 1.394 . S
C883 H887 0.930 . S
N884 Gd871 2.601 . S
N884 C874 1.359 . S
N884 C883 1.334 . S
C885 C883 1.394 . S
C885 C886 1.359 . S
C885 H897 0.930 . S
C886 C876 1.391 . S
C886 C885 1.359 . S
C886 H898 0.929 . S
H887 C883 0.930 . S
H888 C877 0.930 1_455 S
H889 C906 0.930 . S
H890 C878 0.930 1_455 S
H891 C879 0.930 . S
H892 C873 0.929 . S
H893 C911 0.930 . S
H894 C902 0.930 . S
H895 C903 0.930 . S
H896 C927 0.929 . S
H897 C885 0.930 . S
H898 C886 0.929 . S
H899 C928 0.930 . S
H900 C909 0.930 . S
N901 Gd870 2.661 . S
N901 C905 1.350 . S
N901 C906 1.307 . S
C902 H894 0.930 . S
C902 C903 1.355 . S
C902 C904 1.412 . S
C903 H895 0.930 . S
C903 C902 1.355 . S
C903 C906 1.402 . S
C904 C902 1.412 . S
C904 C905 1.417 . S
C904 C928 1.431 . S
C905 N901 1.350 . S
C905 C904 1.417 . S
C905 C908 1.426 . S
C906 H889 0.930 . S
C906 N901 1.307 . S
C906 C903 1.402 . S
N907 Gd870 2.601 . S
N907 C908 1.359 . S
N907 C911 1.334 . S
C908 C905 1.426 . S
C908 N907 1.359 . S
C908 C912 1.413 . S
C909 H900 0.930 . S
C909 C910 1.359 . S
C909 C911 1.394 . S
C910 C909 1.359 . S
C910 C912 1.391 . S
C910 H913 0.929 . S
C911 H893 0.930 . S
C911 N907 1.334 . S
C911 C909 1.394 . S
C912 C908 1.413 . S
C912 C910 1.391 . S
C912 C927 1.437 . S
H913 C910 0.929 . S
O914 Gd870 2.545 . S
O914 C929 1.258 . S
O915 Gd870 2.606 . S
O915 Gd871 2.362 . S
O915 C926 1.284 . S
O916 Gd871 2.324 . S
O916 C936 1.254 . S
O917 Gd870 2.429 . S
O917 C936 1.268 . S
O918 Gd870 2.545 . S
O918 C926 1.250 . S
O919 Gd870 2.412 . S
O919 C929 1.252 . S
O920 Gd871 2.545 . S
O920 C938 1.258 . S
O921 Gd870 2.362 . S
O921 Gd871 2.606 . S
O921 C937 1.284 . S
O922 Gd870 2.324 . S
O922 C945 1.254 . S
O923 Gd871 2.429 . S
O923 C945 1.268 . S
O924 Gd871 2.545 . S
O924 C937 1.250 . S
O925 Gd871 2.412 . S
O925 C938 1.252 . S
C926 O915 1.284 . S
C926 O918 1.250 . S
C927 H896 0.929 . S
C927 C912 1.437 . S
C927 C928 1.317 . S
C928 H899 0.930 . S
C928 C904 1.431 . S
C928 C927 1.317 . S
C929 Gd870 2.828 . S
C929 O914 1.258 . S
C929 O919 1.252 . S
C929 C930 1.497 . S
C930 C929 1.497 . S
C930 C931 1.395 . S
C930 C932 1.380 . S
C931 C930 1.395 . S
C931 C934 1.398 . S
C931 H946 0.930 . S
C932 C930 1.380 . S
C932 C933 1.391 . S
C932 H947 0.930 . S
C933 C932 1.391 . S
C933 C935 1.387 . S
C934 C931 1.398 . S
C934 C935 1.380 . S
C934 H948 0.930 . S
C935 C933 1.387 . S
C935 C934 1.380 . S
C935 H949 0.930 . S
C936 O916 1.254 . S
C936 O917 1.268 . S
C937 O921 1.284 . S
C937 O924 1.250 . S
C938 Gd871 2.828 . S
C938 O920 1.258 . S
C938 O925 1.252 . S
C938 C939 1.497 . S
C939 C938 1.497 . S
C939 C940 1.395 . S
C939 C941 1.380 . S
C940 C939 1.395 . S
C940 C943 1.398 . S
C940 H950 0.930 . S
C941 C939 1.380 . S
C941 C942 1.391 . S
C941 H951 0.930 . S
C942 C941 1.391 . S
C942 C944 1.387 . S
C943 C940 1.398 . S
C943 C944 1.380 . S
C943 H952 0.930 . S
C944 C942 1.387 . S
C944 C943 1.380 . S
C944 H953 0.930 . S
C945 O922 1.254 . S
C945 O923 1.268 . S
H946 C931 0.930 . S
H947 C932 0.930 . S
H948 C934 0.930 . S
H949 C935 0.930 . S
H950 C940 0.930 . S
H951 C941 0.930 . S
H952 C943 0.930 . S
H953 C944 0.930 . S
H954 C966 0.930 . S
H955 C968 0.930 . S
H956 C969 0.930 . S
H957 C973 0.959 . S
H958 C973 0.959 . S
H959 C973 0.961 . S
H960 C974 0.960 . S
H961 C974 0.961 . S
H962 C974 0.959 . S
H963 C977 0.929 . S
H964 C978 0.931 . S
H965 C980 0.930 . S
C966 H954 0.930 . S
C966 C967 1.399 . S
C966 C971 1.399 . S
C967 C966 1.399 . S
C967 C968 1.376 . S
C968 H955 0.930 . S
C968 C967 1.376 . S
C968 C969 1.388 . S
C969 H956 0.930 . S
C969 C968 1.388 . S
C969 C970 1.390 . S
C970 C969 1.390 . S
C970 C971 1.394 . S
C970 C976 1.465 . S
C971 C966 1.399 . S
C971 C970 1.394 . S
C971 C972 1.516 . S
C972 C971 1.516 . S
C972 C973 1.502 . S
C972 C974 1.561 . S
C972 C975 1.526 . S
C973 H957 0.959 . S
C973 H958 0.959 . S
C973 H959 0.961 . S
C973 C972 1.502 . S
C974 H960 0.960 . S
C974 H961 0.961 . S
C974 H962 0.959 . S
C974 C972 1.561 . S
C975 C972 1.526 . S
C975 C976 1.396 . S
C975 C980 1.390 . S
C976 C970 1.465 . S
C976 C975 1.396 . S
C976 C977 1.399 . S
C977 H963 0.929 . S
C977 C976 1.399 . S
C977 C978 1.385 . S
C978 H964 0.931 . S
C978 C977 1.385 . S
C978 C979 1.389 . S
C979 C978 1.389 . S
C979 C980 1.387 . S
C980 H965 0.930 . S
C980 C975 1.390 . S
C980 C979 1.387 . S
H981 C993 0.930 . S
H982 C995 0.930 . S
H983 C996 0.930 . S
H984 C1000 0.959 . S
H985 C1000 0.959 . S
H986 C1000 0.961 . S
H987 C1001 0.960 . S
H988 C1001 0.961 . S
H989 C1001 0.959 . S
H990 C1004 0.929 . S
H991 C1005 0.931 . S
H992 C1007 0.930 . S
C993 H981 0.930 . S
C993 C994 1.399 . S
C993 C998 1.399 . S
C994 C993 1.399 . S
C994 C995 1.376 . S
C995 H982 0.930 . S
C995 C994 1.376 . S
C995 C996 1.388 . S
C996 H983 0.930 . S
C996 C995 1.388 . S
C996 C997 1.390 . S
C997 C996 1.390 . S
C997 C998 1.394 . S
C997 C1003 1.465 . S
C998 C993 1.399 . S
C998 C997 1.394 . S
C998 C999 1.516 . S
C999 C998 1.516 . S
C999 C1000 1.502 . S
C999 C1001 1.561 . S
C999 C1002 1.526 . S
C1000 H984 0.959 . S
C1000 H985 0.959 . S
C1000 H986 0.961 . S
C1000 C999 1.502 . S
C1001 H987 0.960 . S
C1001 H988 0.961 . S
C1001 H989 0.959 . S
C1001 C999 1.561 . S
C1002 C999 1.526 . S
C1002 C1003 1.396 . S
C1002 C1007 1.390 . S
C1003 C997 1.465 . S
C1003 C1002 1.396 . S
C1003 C1004 1.399 . S
C1004 H990 0.929 . S
C1004 C1003 1.399 . S
C1004 C1005 1.385 . S
C1005 H991 0.931 . S
C1005 C1004 1.385 . S
C1005 C1006 1.389 . S
C1006 C1005 1.389 . S
C1006 C1007 1.387 . S
C1007 H992 0.930 . S
C1007 C1002 1.390 . S
C1007 C1006 1.387 . S
H1008 C1020 0.930 . S
H1009 C1022 0.930 . S
H1010 C1023 0.930 . S
H1011 C1027 0.959 . S
H1012 C1027 0.959 1_556 S
H1013 C1027 0.961 1_556 S
H1014 C1028 0.960 . S
H1015 C1028 0.961 1_556 S
H1016 C1028 0.959 . S
H1017 C1031 0.929 . S
H1018 C1032 0.931 . S
H1019 C1034 0.930 . S
C1020 H1008 0.930 . S
C1020 C1021 1.399 . S
C1020 C1025 1.399 . S
C1021 C1020 1.399 . S
C1021 C1022 1.376 . S
C1022 H1009 0.930 . S
C1022 C1021 1.376 . S
C1022 C1023 1.388 . S
C1023 H1010 0.930 . S
C1023 C1022 1.388 . S
C1023 C1024 1.390 . S
C1024 C1023 1.390 . S
C1024 C1025 1.394 . S
C1024 C1030 1.465 . S
C1025 C1020 1.399 . S
C1025 C1024 1.394 . S
C1025 C1026 1.516 . S
C1026 C1025 1.516 . S
C1026 C1027 1.502 . S
C1026 C1028 1.561 . S
C1026 C1029 1.526 . S
C1027 H1011 0.959 . S
C1027 H1012 0.959 1_554 S
C1027 H1013 0.961 1_554 S
C1027 C1026 1.502 . S
C1028 H1014 0.960 . S
C1028 H1015 0.961 1_554 S
C1028 H1016 0.959 . S
C1028 C1026 1.561 . S
C1029 C1026 1.526 . S
C1029 C1030 1.396 . S
C1029 C1034 1.390 . S
C1030 C1024 1.465 . S
C1030 C1029 1.396 . S
C1030 C1031 1.399 . S
C1031 H1017 0.929 . S
C1031 C1030 1.399 . S
C1031 C1032 1.385 . S
C1032 H1018 0.931 . S
C1032 C1031 1.385 . S
C1032 C1033 1.389 . S
C1033 C1032 1.389 . S
C1033 C1034 1.387 . S
C1034 H1019 0.930 . S
C1034 C1029 1.390 . S
C1034 C1033 1.387 . S
H1035 C1047 0.930 . S
H1036 C1049 0.930 . S
H1037 C1050 0.930 . S
H1038 C1054 0.959 . S
H1039 C1054 0.959 . S
H1040 C1054 0.961 . S
H1041 C1055 0.960 . S
H1042 C1055 0.961 . S
H1043 C1055 0.959 . S
H1044 C1058 0.955 . S
H1045 C1059 0.931 . S
H1046 C1061 0.930 . S
C1047 H1035 0.930 . S
C1047 C1048 1.399 . S
C1047 C1052 1.399 . S
C1048 C1047 1.399 . S
C1048 C1049 1.376 . S
C1049 H1036 0.930 . S
C1049 C1048 1.376 . S
C1049 C1050 1.388 . S
C1050 H1037 0.930 . S
C1050 C1049 1.388 . S
C1050 C1051 1.390 . S
C1051 C1050 1.390 . S
C1051 C1052 1.394 . S
C1051 C1057 1.465 . S
C1052 C1047 1.399 . S
C1052 C1051 1.394 . S
C1052 C1053 1.516 . S
C1053 C1052 1.516 . S
C1053 C1054 1.502 . S
C1053 C1055 1.561 . S
C1053 C1056 1.526 . S
C1054 H1038 0.959 . S
C1054 H1039 0.959 . S
C1054 H1040 0.961 . S
C1054 C1053 1.502 . S
C1055 H1041 0.960 . S
C1055 H1042 0.961 . S
C1055 H1043 0.959 . S
C1055 C1053 1.561 . S
C1056 C1053 1.526 . S
C1056 C1057 1.396 . S
C1056 C1061 1.390 . S
C1057 C1051 1.465 . S
C1057 C1056 1.396 . S
C1057 C1058 1.364 1_556 S
C1058 H1044 0.955 . S
C1058 C1057 1.364 1_554 S
C1058 C1059 1.396 . S
C1059 H1045 0.931 . S
C1059 C1058 1.396 . S
C1059 C1060 1.389 1_554 S
C1060 C1059 1.389 1_556 S
C1060 C1061 1.387 . S
C1061 H1046 0.930 . S
C1061 C1056 1.390 . S
C1061 C1060 1.387 . S
H1062 C1074 0.930 . S
H1063 C1076 0.930 . S
H1064 C1077 0.930 . S
H1065 C1081 0.959 1_554 S
H1066 C1081 0.959 . S
H1067 C1081 0.961 . S
H1068 C1082 0.960 . S
H1069 C1082 0.961 . S
H1070 C1082 0.959 . S
H1071 C1085 0.929 . S
H1072 C1086 0.931 . S
H1073 C1088 0.930 . S
C1074 H1062 0.930 . S
C1074 C1075 1.399 . S
C1074 C1079 1.399 . S
C1075 C1074 1.399 . S
C1075 C1076 1.376 . S
C1076 H1063 0.930 . S
C1076 C1075 1.376 . S
C1076 C1077 1.388 . S
C1077 H1064 0.930 . S
C1077 C1076 1.388 . S
C1077 C1078 1.390 . S
C1078 C1077 1.390 . S
C1078 C1079 1.394 . S
C1078 C1084 1.465 . S
C1079 C1074 1.399 . S
C1079 C1078 1.394 . S
C1079 C1080 1.516 . S
C1080 C1079 1.516 . S
C1080 C1081 1.502 . S
C1080 C1082 1.561 . S
C1080 C1083 1.526 . S
C1081 H1065 0.959 1_556 S
C1081 H1066 0.959 . S
C1081 H1067 0.961 . S
C1081 C1080 1.502 . S
C1082 H1068 0.960 . S
C1082 H1069 0.961 . S
C1082 H1070 0.959 . S
C1082 C1080 1.561 . S
C1083 C1080 1.526 . S
C1083 C1084 1.396 . S
C1083 C1088 1.390 . S
C1084 C1078 1.465 . S
C1084 C1083 1.396 . S
C1084 C1085 1.399 . S
C1085 H1071 0.929 . S
C1085 C1084 1.399 . S
C1085 C1086 1.385 . S
C1086 H1072 0.931 . S
C1086 C1085 1.385 . S
C1086 C1087 1.389 . S
C1087 C1086 1.389 . S
C1087 C1088 1.387 . S
C1088 H1073 0.930 . S
C1088 C1083 1.390 . S
C1088 C1087 1.387 . S
H1089 C1101 0.930 . S
H1090 C1103 0.930 . S
H1091 C1104 0.930 . S
H1092 C1108 0.964 1_556 S
H1093 C1108 0.956 . S
H1094 C1108 0.960 . S
H1095 C1109 0.960 . S
H1096 C1109 0.961 . S
H1097 C1109 0.959 . S
H1098 C1112 0.929 . S
H1099 C1113 0.931 . S
H1100 C1115 0.930 . S
C1101 H1089 0.930 . S
C1101 C1102 1.399 . S
C1101 C1106 1.399 . S
C1102 C1101 1.399 . S
C1102 C1103 1.376 . S
C1103 H1090 0.930 . S
C1103 C1102 1.376 . S
C1103 C1104 1.388 . S
C1104 H1091 0.930 . S
C1104 C1103 1.388 . S
C1104 C1105 1.390 . S
C1105 C1104 1.390 . S
C1105 C1106 1.394 . S
C1105 C1111 1.465 . S
C1106 C1101 1.399 . S
C1106 C1105 1.394 . S
C1106 C1107 1.524 . S
C1107 C1106 1.524 . S
C1107 C1108 1.502 1_556 S
C1107 C1109 1.551 1_556 S
C1107 C1110 1.528 . S
C1108 H1092 0.964 1_554 S
C1108 H1093 0.956 . S
C1108 H1094 0.960 . S
C1108 C1107 1.502 1_554 S
C1109 H1095 0.960 . S
C1109 H1096 0.961 . S
C1109 H1097 0.959 . S
C1109 C1107 1.551 1_554 S
C1110 C1107 1.528 . S
C1110 C1111 1.396 . S
C1110 C1115 1.390 1_556 S
C1111 C1105 1.465 . S
C1111 C1110 1.396 . S
C1111 C1112 1.399 . S
C1112 H1098 0.929 . S
C1112 C1111 1.399 . S
C1112 C1113 1.385 . S
C1113 H1099 0.931 . S
C1113 C1112 1.385 . S
C1113 C1114 1.389 . S
C1114 C1113 1.389 . S
C1114 C1115 1.387 1_556 S
C1115 H1100 0.930 . S
C1115 C1110 1.390 1_554 S
C1115 C1114 1.387 1_554 S
H1116 C1128 0.930 . S
H1117 C1130 0.930 . S
H1118 C1131 0.930 . S
H1119 C1135 0.959 1_556 S
H1120 C1135 0.959 . S
H1121 C1135 0.961 . S
H1122 C1136 0.960 . S
H1123 C1136 0.961 . S
H1124 C1136 0.959 . S
H1125 C1139 0.929 . S
H1126 C1140 0.931 . S
H1127 C1142 0.930 . S
C1128 H1116 0.930 . S
C1128 C1129 1.399 . S
C1128 C1133 1.399 . S
C1129 C1128 1.399 . S
C1129 C1130 1.376 . S
C1130 H1117 0.930 . S
C1130 C1129 1.376 . S
C1130 C1131 1.388 . S
C1131 H1118 0.930 . S
C1131 C1130 1.388 . S
C1131 C1132 1.390 . S
C1132 C1131 1.390 . S
C1132 C1133 1.394 . S
C1132 C1138 1.465 . S
C1133 C1128 1.399 . S
C1133 C1132 1.394 . S
C1133 C1134 1.516 1_556 S
C1134 C1133 1.516 1_554 S
C1134 C1135 1.502 . S
C1134 C1136 1.561 . S
C1134 C1137 1.526 1_554 S
C1135 H1119 0.959 1_554 S
C1135 H1120 0.959 . S
C1135 H1121 0.961 . S
C1135 C1134 1.502 . S
C1136 H1122 0.960 . S
C1136 H1123 0.961 . S
C1136 H1124 0.959 . S
C1136 C1134 1.561 . S
C1137 C1134 1.526 1_556 S
C1137 C1138 1.396 . S
C1137 C1142 1.390 1_556 S
C1138 C1132 1.465 . S
C1138 C1137 1.396 . S
C1138 C1139 1.399 . S
C1139 H1125 0.929 . S
C1139 C1138 1.399 . S
C1139 C1140 1.385 . S
C1140 H1126 0.931 . S
C1140 C1139 1.385 . S
C1140 C1141 1.389 . S
C1141 C1140 1.389 . S
C1141 C1142 1.387 1_556 S
C1142 H1127 0.930 . S
C1142 C1137 1.390 1_554 S
C1142 C1141 1.387 1_554 S
H1143 C1155 0.930 . S
H1144 C1157 0.930 . S
H1145 C1158 0.930 . S
H1146 C1162 0.959 1_556 S
H1147 C1162 0.959 . S
H1148 C1162 0.961 . S
H1149 C1163 0.960 . S
H1150 C1163 0.961 . S
H1151 C1163 0.959 . S
H1152 C1166 0.929 . S
H1153 C1167 0.931 . S
H1154 C1169 0.930 . S
C1155 H1143 0.930 . S
C1155 C1156 1.399 . S
C1155 C1160 1.399 . S
C1156 C1155 1.399 . S
C1156 C1157 1.376 . S
C1157 H1144 0.930 . S
C1157 C1156 1.376 . S
C1157 C1158 1.388 . S
C1158 H1145 0.930 . S
C1158 C1157 1.388 . S
C1158 C1159 1.390 . S
C1159 C1158 1.390 . S
C1159 C1160 1.394 . S
C1159 C1165 1.465 . S
C1160 C1155 1.399 . S
C1160 C1159 1.394 . S
C1160 C1161 1.516 1_556 S
C1161 C1160 1.516 1_554 S
C1161 C1162 1.502 . S
C1161 C1163 1.561 . S
C1161 C1164 1.526 1_554 S
C1162 H1146 0.959 1_554 S
C1162 H1147 0.959 . S
C1162 H1148 0.961 . S
C1162 C1161 1.502 . S
C1163 H1149 0.960 . S
C1163 H1150 0.961 . S
C1163 H1151 0.959 . S
C1163 C1161 1.561 . S
C1164 C1161 1.526 1_556 S
C1164 C1165 1.396 . S
C1164 C1169 1.390 1_556 S
C1165 C1159 1.465 . S
C1165 C1164 1.396 . S
C1165 C1166 1.399 . S
C1166 H1152 0.929 . S
C1166 C1165 1.399 . S
C1166 C1167 1.385 . S
C1167 H1153 0.931 . S
C1167 C1166 1.385 . S
C1167 C1168 1.389 . S
C1168 C1167 1.389 . S
C1168 C1169 1.387 1_556 S
C1169 H1154 0.930 . S
C1169 C1164 1.390 1_554 S
C1169 C1168 1.387 1_554 S
H1170 C1182 0.930 . S
H1171 C1184 0.930 . S
H1172 C1185 0.930 . S
H1173 C1189 0.959 . S
H1174 C1189 0.959 . S
H1175 C1189 0.961 . S
H1176 C1190 0.960 . S
H1177 C1190 0.961 . S
H1178 C1190 0.959 . S
H1179 C1193 0.938 . S
H1180 C1194 0.931 . S
H1181 C1196 0.930 . S
C1182 H1170 0.930 . S
C1182 C1183 1.399 . S
C1182 C1187 1.399 . S
C1183 C1182 1.399 . S
C1183 C1184 1.376 . S
C1184 H1171 0.930 . S
C1184 C1183 1.376 . S
C1184 C1185 1.388 . S
C1185 H1172 0.930 . S
C1185 C1184 1.388 . S
C1185 C1186 1.390 . S
C1186 C1185 1.390 . S
C1186 C1187 1.394 . S
C1186 C1192 1.465 . S
C1187 C1182 1.399 . S
C1187 C1186 1.394 . S
C1187 C1188 1.516 . S
C1188 C1187 1.516 . S
C1188 C1189 1.502 . S
C1188 C1190 1.561 . S
C1188 C1191 1.526 . S
C1189 H1173 0.959 . S
C1189 H1174 0.959 . S
C1189 H1175 0.961 . S
C1189 C1188 1.502 . S
C1190 H1176 0.960 . S
C1190 H1177 0.961 . S
C1190 H1178 0.959 . S
C1190 C1188 1.561 . S
C1191 C1188 1.526 . S
C1191 C1192 1.396 . S
C1191 C1196 1.390 . S
C1192 C1186 1.465 . S
C1192 C1191 1.396 . S
C1192 C1193 1.387 1_556 S
C1193 H1179 0.938 . S
C1193 C1192 1.387 1_554 S
C1193 C1194 1.389 . S
C1194 H1180 0.931 . S
C1194 C1193 1.389 . S
C1194 C1195 1.389 1_554 S
C1195 C1194 1.389 1_556 S
C1195 C1196 1.387 . S
C1196 H1181 0.930 . S
C1196 C1191 1.390 . S
C1196 C1195 1.387 . S
H1197 C1209 0.930 . S
H1198 C1211 0.930 . S
H1199 C1212 0.930 . S
H1200 C1216 0.959 . S
H1201 C1216 0.959 1_556 S
H1202 C1216 0.961 1_556 S
H1203 C1217 0.946 1_556 S
H1204 C1217 0.961 1_556 S
H1205 C1217 0.959 . S
H1206 C1220 0.929 . S
H1207 C1221 0.931 . S
H1208 C1223 0.930 . S
C1209 H1197 0.930 . S
C1209 C1210 1.399 . S
C1209 C1214 1.399 . S
C1210 C1209 1.399 . S
C1210 C1211 1.376 . S
C1211 H1198 0.930 . S
C1211 C1210 1.376 . S
C1211 C1212 1.388 . S
C1212 H1199 0.930 . S
C1212 C1211 1.388 . S
C1212 C1213 1.390 . S
C1213 C1212 1.390 . S
C1213 C1214 1.394 . S
C1213 C1219 1.465 . S
C1214 C1209 1.399 . S
C1214 C1213 1.394 . S
C1214 C1215 1.516 . S
C1215 C1214 1.516 . S
C1215 C1216 1.502 . S
C1215 C1217 1.561 . S
C1215 C1218 1.526 . S
C1216 H1200 0.959 . S
C1216 H1201 0.959 1_554 S
C1216 H1202 0.961 1_554 S
C1216 C1215 1.502 . S
C1217 H1203 0.946 1_554 S
C1217 H1204 0.961 1_554 S
C1217 H1205 0.959 . S
C1217 C1215 1.561 . S
C1218 C1215 1.526 . S
C1218 C1219 1.396 . S
C1218 C1223 1.390 . S
C1219 C1213 1.465 . S
C1219 C1218 1.396 . S
C1219 C1220 1.399 . S
C1220 H1206 0.929 . S
C1220 C1219 1.399 . S
C1220 C1221 1.385 . S
C1221 H1207 0.931 . S
C1221 C1220 1.385 . S
C1221 C1222 1.389 . S
C1222 C1221 1.389 . S
C1222 C1223 1.387 . S
C1223 H1208 0.930 . S
C1223 C1218 1.390 . S
C1223 C1222 1.387 . S
H1224 C1236 0.930 . S
H1225 C1238 0.930 . S
H1226 C1239 0.930 . S
H1227 C1243 0.959 . S
H1228 C1243 0.959 1_556 S
H1229 C1243 0.955 1_556 S
H1230 C1244 0.960 . S
H1231 C1244 0.961 . S
H1232 C1244 0.959 . S
H1233 C1247 0.929 . S
H1234 C1248 0.931 . S
H1235 C1250 0.930 . S
C1236 H1224 0.930 . S
C1236 C1237 1.399 . S
C1236 C1241 1.399 . S
C1237 C1236 1.399 . S
C1237 C1238 1.376 . S
C1238 H1225 0.930 . S
C1238 C1237 1.376 . S
C1238 C1239 1.388 . S
C1239 H1226 0.930 . S
C1239 C1238 1.388 . S
C1239 C1240 1.390 . S
C1240 C1239 1.390 . S
C1240 C1241 1.394 . S
C1240 C1246 1.465 . S
C1241 C1236 1.399 . S
C1241 C1240 1.394 . S
C1241 C1242 1.516 . S
C1242 C1241 1.516 . S
C1242 C1243 1.502 . S
C1242 C1244 1.561 . S
C1242 C1245 1.526 . S
C1243 H1227 0.959 . S
C1243 H1228 0.959 1_554 S
C1243 H1229 0.955 1_554 S
C1243 C1242 1.502 . S
C1244 H1230 0.960 . S
C1244 H1231 0.961 . S
C1244 H1232 0.959 . S
C1244 C1242 1.561 . S
C1245 C1242 1.526 . S
C1245 C1246 1.396 . S
C1245 C1250 1.390 . S
C1246 C1240 1.465 . S
C1246 C1245 1.396 . S
C1246 C1247 1.399 . S
C1247 H1233 0.929 . S
C1247 C1246 1.399 . S
C1247 C1248 1.385 . S
C1248 H1234 0.931 . S
C1248 C1247 1.385 . S
C1248 C1249 1.389 . S
C1249 C1248 1.389 . S
C1249 C1250 1.387 . S
C1250 H1235 0.930 . S
C1250 C1245 1.390 . S
C1250 C1249 1.387 . S
H1251 C1263 0.930 . S
H1252 C1265 0.930 . S
H1253 C1266 0.930 . S
H1254 C1270 0.959 . S
H1255 C1270 0.959 . S
H1256 C1270 0.961 . S
H1257 C1271 0.960 . S
H1258 C1271 0.961 . S
H1259 C1271 0.959 . S
H1260 C1274 0.929 . S
H1261 C1275 0.931 . S
H1262 C1277 0.930 . S
C1263 H1251 0.930 . S
C1263 C1264 1.399 . S
C1263 C1268 1.399 . S
C1264 C1263 1.399 . S
C1264 C1265 1.376 . S
C1265 H1252 0.930 . S
C1265 C1264 1.376 . S
C1265 C1266 1.388 . S
C1266 H1253 0.930 . S
C1266 C1265 1.388 . S
C1266 C1267 1.390 . S
C1267 C1266 1.390 . S
C1267 C1268 1.394 . S
C1267 C1273 1.465 . S
C1268 C1263 1.399 . S
C1268 C1267 1.394 . S
C1268 C1269 1.516 . S
C1269 C1268 1.516 . S
C1269 C1270 1.502 . S
C1269 C1271 1.561 . S
C1269 C1272 1.526 . S
C1270 H1254 0.959 . S
C1270 H1255 0.959 . S
C1270 H1256 0.961 . S
C1270 C1269 1.502 . S
C1271 H1257 0.960 . S
C1271 H1258 0.961 . S
C1271 H1259 0.959 . S
C1271 C1269 1.561 . S
C1272 C1269 1.526 . S
C1272 C1273 1.396 . S
C1272 C1277 1.390 . S
C1273 C1267 1.465 . S
C1273 C1272 1.396 . S
C1273 C1274 1.399 . S
C1274 H1260 0.929 . S
C1274 C1273 1.399 . S
C1274 C1275 1.385 . S
C1275 H1261 0.931 . S
C1275 C1274 1.385 . S
C1275 C1276 1.389 . S
C1276 C1275 1.389 . S
C1276 C1277 1.387 . S
C1277 H1262 0.930 . S
C1277 C1272 1.390 . S
C1277 C1276 1.387 . S
H1278 C1290 0.930 . S
H1279 C1292 0.930 . S
H1280 C1293 0.930 . S
H1281 C1297 0.959 . S
H1282 C1297 0.959 . S
H1283 C1297 0.961 . S
H1284 C1298 0.960 . S
H1285 C1298 0.984 . S
H1286 C1298 0.959 . S
H1287 C1301 0.929 . S
H1288 C1302 0.931 . S
H1289 C1304 0.930 . S
C1290 H1278 0.930 . S
C1290 C1291 1.399 . S
C1290 C1295 1.399 . S
C1291 C1290 1.399 . S
C1291 C1292 1.376 . S
C1292 H1279 0.930 . S
C1292 C1291 1.376 . S
C1292 C1293 1.388 . S
C1293 H1280 0.930 . S
C1293 C1292 1.388 . S
C1293 C1294 1.390 . S
C1294 C1293 1.390 . S
C1294 C1295 1.394 . S
C1294 C1300 1.465 1_655 S
C1295 C1290 1.399 . S
C1295 C1294 1.394 . S
C1295 C1296 1.516 1_655 S
C1296 C1295 1.516 1_455 S
C1296 C1297 1.502 . S
C1296 C1298 1.561 1_455 S
C1296 C1299 1.526 . S
C1297 H1281 0.959 . S
C1297 H1282 0.959 . S
C1297 H1283 0.961 . S
C1297 C1296 1.502 . S
C1298 H1284 0.960 . S
C1298 H1285 0.984 . S
C1298 H1286 0.959 . S
C1298 C1296 1.561 1_655 S
C1299 C1296 1.526 . S
C1299 C1300 1.396 . S
C1299 C1304 1.390 . S
C1300 C1294 1.465 1_455 S
C1300 C1299 1.396 . S
C1300 C1301 1.399 . S
C1301 H1287 0.929 . S
C1301 C1300 1.399 . S
C1301 C1302 1.385 . S
C1302 H1288 0.931 . S
C1302 C1301 1.385 . S
C1302 C1303 1.389 . S
C1303 C1302 1.389 . S
C1303 C1304 1.387 . S
C1304 H1289 0.930 . S
C1304 C1299 1.390 . S
C1304 C1303 1.387 . S
H1305 C1317 0.930 . S
H1306 C1319 0.930 . S
H1307 C1320 0.930 . S
H1308 C1324 0.959 . S
H1309 C1324 0.959 . S
H1310 C1324 0.961 . S
H1311 C1325 0.960 . S
H1312 C1325 0.961 . S
H1313 C1325 0.959 . S
H1314 C1328 0.929 . S
H1315 C1329 0.931 . S
H1316 C1331 0.930 . S
C1317 H1305 0.930 . S
C1317 C1318 1.399 . S
C1317 C1322 1.399 . S
C1318 C1317 1.399 . S
C1318 C1319 1.376 . S
C1319 H1306 0.930 . S
C1319 C1318 1.376 . S
C1319 C1320 1.388 . S
C1320 H1307 0.930 . S
C1320 C1319 1.388 . S
C1320 C1321 1.390 . S
C1321 C1320 1.390 . S
C1321 C1322 1.394 . S
C1321 C1327 1.465 . S
C1322 C1317 1.399 . S
C1322 C1321 1.394 . S
C1322 C1323 1.516 . S
C1323 C1322 1.516 . S
C1323 C1324 1.502 . S
C1323 C1325 1.561 . S
C1323 C1326 1.526 . S
C1324 H1308 0.959 . S
C1324 H1309 0.959 . S
C1324 H1310 0.961 . S
C1324 C1323 1.502 . S
C1325 H1311 0.960 . S
C1325 H1312 0.961 . S
C1325 H1313 0.959 . S
C1325 C1323 1.561 . S
C1326 C1323 1.526 . S
C1326 C1327 1.396 . S
C1326 C1331 1.390 . S
C1327 C1321 1.465 . S
C1327 C1326 1.396 . S
C1327 C1328 1.399 . S
C1328 H1314 0.929 . S
C1328 C1327 1.399 . S
C1328 C1329 1.385 . S
C1329 H1315 0.931 . S
C1329 C1328 1.385 . S
C1329 C1330 1.389 . S
C1330 C1329 1.389 . S
C1330 C1331 1.387 . S
C1331 H1316 0.930 . S
C1331 C1326 1.390 . S
C1331 C1330 1.387 . S
H1332 C1344 0.930 . S
H1333 C1346 0.930 . S
H1334 C1347 0.930 . S
H1335 C1351 0.959 . S
H1336 C1351 0.959 1_565 S
H1337 C1351 0.961 . S
H1338 C1352 0.960 . S
H1339 C1352 0.961 . S
H1340 C1352 0.959 . S
H1341 C1355 0.929 . S
H1342 C1356 0.931 . S
H1343 C1358 0.930 . S
C1344 H1332 0.930 . S
C1344 C1345 1.399 . S
C1344 C1349 1.399 . S
C1345 C1344 1.399 . S
C1345 C1346 1.376 . S
C1346 H1333 0.930 . S
C1346 C1345 1.376 . S
C1346 C1347 1.388 . S
C1347 H1334 0.930 . S
C1347 C1346 1.388 . S
C1347 C1348 1.390 . S
C1348 C1347 1.390 . S
C1348 C1349 1.394 . S
C1348 C1354 1.465 1_545 S
C1349 C1344 1.399 . S
C1349 C1348 1.394 . S
C1349 C1350 1.518 1_545 S
C1350 C1349 1.518 1_565 S
C1350 C1351 1.501 1_565 S
C1350 C1352 1.561 . S
C1350 C1353 1.525 . S
C1351 H1335 0.959 . S
C1351 H1336 0.959 1_545 S
C1351 H1337 0.961 . S
C1351 C1350 1.501 1_545 S
C1352 H1338 0.960 . S
C1352 H1339 0.961 . S
C1352 H1340 0.959 . S
C1352 C1350 1.561 . S
C1353 C1350 1.525 . S
C1353 C1354 1.396 . S
C1353 C1358 1.390 . S
C1354 C1348 1.465 1_565 S
C1354 C1353 1.396 . S
C1354 C1355 1.399 . S
C1355 H1341 0.929 . S
C1355 C1354 1.399 . S
C1355 C1356 1.385 . S
C1356 H1342 0.931 . S
C1356 C1355 1.385 . S
C1356 C1357 1.389 . S
C1357 C1356 1.389 . S
C1357 C1358 1.387 . S
C1358 H1343 0.930 . S
C1358 C1353 1.390 . S
C1358 C1357 1.387 . S
H1359 C1371 0.930 . S
H1360 C1373 0.930 . S
H1361 C1374 0.930 . S
H1362 C1378 0.959 . S
H1363 C1378 0.959 . S
H1364 C1378 0.961 . S
H1365 C1379 0.960 . S
H1366 C1379 0.961 . S
H1367 C1379 0.959 . S
H1368 C1382 0.929 . S
H1369 C1383 0.931 . S
H1370 C1385 0.930 . S
C1371 H1359 0.930 . S
C1371 C1372 1.399 . S
C1371 C1376 1.399 . S
C1372 C1371 1.399 . S
C1372 C1373 1.376 . S
C1373 H1360 0.930 . S
C1373 C1372 1.376 . S
C1373 C1374 1.388 . S
C1374 H1361 0.930 . S
C1374 C1373 1.388 . S
C1374 C1375 1.390 . S
C1375 C1374 1.390 . S
C1375 C1376 1.394 . S
C1375 C1381 1.465 . S
C1376 C1371 1.399 . S
C1376 C1375 1.394 . S
C1376 C1377 1.516 . S
C1377 C1376 1.516 . S
C1377 C1378 1.502 . S
C1377 C1379 1.561 . S
C1377 C1380 1.526 . S
C1378 H1362 0.959 . S
C1378 H1363 0.959 . S
C1378 H1364 0.961 . S
C1378 C1377 1.502 . S
C1379 H1365 0.960 . S
C1379 H1366 0.961 . S
C1379 H1367 0.959 . S
C1379 C1377 1.561 . S
C1380 C1377 1.526 . S
C1380 C1381 1.396 . S
C1380 C1385 1.390 . S
C1381 C1375 1.465 . S
C1381 C1380 1.396 . S
C1381 C1382 1.399 . S
C1382 H1368 0.929 . S
C1382 C1381 1.399 . S
C1382 C1383 1.385 . S
C1383 H1369 0.931 . S
C1383 C1382 1.385 . S
C1383 C1384 1.389 . S
C1384 C1383 1.389 . S
C1384 C1385 1.387 . S
C1385 H1370 0.930 . S
C1385 C1380 1.390 . S
C1385 C1384 1.387 . S
H1386 C1398 0.930 . S
H1387 C1400 0.930 . S
H1388 C1401 0.930 . S
H1389 C1405 0.959 . S
H1390 C1405 0.959 . S
H1391 C1405 0.961 . S
H1392 C1406 0.960 . S
H1393 C1406 0.961 . S
H1394 C1406 0.959 . S
H1395 C1409 0.929 . S
H1396 C1410 0.931 . S
H1397 C1412 0.930 . S
C1398 H1386 0.930 . S
C1398 C1399 1.399 . S
C1398 C1403 1.399 . S
C1399 C1398 1.399 . S
C1399 C1400 1.376 . S
C1400 H1387 0.930 . S
C1400 C1399 1.376 . S
C1400 C1401 1.388 . S
C1401 H1388 0.930 . S
C1401 C1400 1.388 . S
C1401 C1402 1.390 . S
C1402 C1401 1.390 . S
C1402 C1403 1.394 . S
C1402 C1408 1.465 . S
C1403 C1398 1.399 . S
C1403 C1402 1.394 . S
C1403 C1404 1.516 . S
C1404 C1403 1.516 . S
C1404 C1405 1.502 . S
C1404 C1406 1.561 . S
C1404 C1407 1.526 . S
C1405 H1389 0.959 . S
C1405 H1390 0.959 . S
C1405 H1391 0.961 . S
C1405 C1404 1.502 . S
C1406 H1392 0.960 . S
C1406 H1393 0.961 . S
C1406 H1394 0.959 . S
C1406 C1404 1.561 . S
C1407 C1404 1.526 . S
C1407 C1408 1.396 . S
C1407 C1412 1.390 . S
C1408 C1402 1.465 . S
C1408 C1407 1.396 . S
C1408 C1409 1.399 . S
C1409 H1395 0.929 . S
C1409 C1408 1.399 . S
C1409 C1410 1.385 . S
C1410 H1396 0.931 . S
C1410 C1409 1.385 . S
C1410 C1411 1.389 . S
C1411 C1410 1.389 . S
C1411 C1412 1.387 . S
C1412 H1397 0.930 . S
C1412 C1407 1.390 . S
C1412 C1411 1.387 . S
H1413 C1425 0.930 . S
H1414 C1427 0.930 . S
H1415 C1428 0.930 . S
H1416 C1432 0.959 . S
H1417 C1432 0.959 . S
H1418 C1432 0.961 . S
H1419 C1433 0.960 . S
H1420 C1433 0.961 . S
H1421 C1433 0.959 . S
H1422 C1436 0.929 . S
H1423 C1437 0.931 . S
H1424 C1439 0.930 . S
C1425 H1413 0.930 . S
C1425 C1426 1.399 . S
C1425 C1430 1.399 . S
C1426 C1425 1.399 . S
C1426 C1427 1.376 . S
C1427 H1414 0.930 . S
C1427 C1426 1.376 . S
C1427 C1428 1.388 . S
C1428 H1415 0.930 . S
C1428 C1427 1.388 . S
C1428 C1429 1.390 . S
C1429 C1428 1.390 . S
C1429 C1430 1.394 . S
C1429 C1435 1.465 . S
C1430 C1425 1.399 . S
C1430 C1429 1.394 . S
C1430 C1431 1.516 . S
C1431 C1430 1.516 . S
C1431 C1432 1.502 . S
C1431 C1433 1.561 . S
C1431 C1434 1.526 . S
C1432 H1416 0.959 . S
C1432 H1417 0.959 . S
C1432 H1418 0.961 . S
C1432 C1431 1.502 . S
C1433 H1419 0.960 . S
C1433 H1420 0.961 . S
C1433 H1421 0.959 . S
C1433 C1431 1.561 . S
C1434 C1431 1.526 . S
C1434 C1435 1.396 . S
C1434 C1439 1.390 . S
C1435 C1429 1.465 . S
C1435 C1434 1.396 . S
C1435 C1436 1.399 . S
C1436 H1422 0.929 . S
C1436 C1435 1.399 . S
C1436 C1437 1.385 . S
C1437 H1423 0.931 . S
C1437 C1436 1.385 . S
C1437 C1438 1.389 . S
C1438 C1437 1.389 . S
C1438 C1439 1.387 . S
C1439 H1424 0.930 . S
C1439 C1434 1.390 . S
C1439 C1438 1.387 . S
H1440 C1452 0.930 . S
H1441 C1454 0.930 . S
H1442 C1455 0.930 . S
H1443 C1459 0.959 . S
H1444 C1459 0.959 . S
H1445 C1459 0.961 . S
H1446 C1460 0.960 . S
H1447 C1460 0.961 . S
H1448 C1460 0.959 . S
H1449 C1463 0.929 . S
H1450 C1464 0.931 . S
H1451 C1466 0.930 . S
C1452 H1440 0.930 . S
C1452 C1453 1.399 . S
C1452 C1457 1.399 . S
C1453 C1452 1.399 . S
C1453 C1454 1.376 . S
C1454 H1441 0.930 . S
C1454 C1453 1.376 . S
C1454 C1455 1.388 . S
C1455 H1442 0.930 . S
C1455 C1454 1.388 . S
C1455 C1456 1.390 . S
C1456 C1455 1.390 . S
C1456 C1457 1.394 . S
C1456 C1462 1.465 . S
C1457 C1452 1.399 . S
C1457 C1456 1.394 . S
C1457 C1458 1.516 . S
C1458 C1457 1.516 . S
C1458 C1459 1.502 . S
C1458 C1460 1.561 . S
C1458 C1461 1.526 . S
C1459 H1443 0.959 . S
C1459 H1444 0.959 . S
C1459 H1445 0.961 . S
C1459 C1458 1.502 . S
C1460 H1446 0.960 . S
C1460 H1447 0.961 . S
C1460 H1448 0.959 . S
C1460 C1458 1.561 . S
C1461 C1458 1.526 . S
C1461 C1462 1.396 . S
C1461 C1466 1.390 . S
C1462 C1456 1.465 . S
C1462 C1461 1.396 . S
C1462 C1463 1.399 . S
C1463 H1449 0.929 . S
C1463 C1462 1.399 . S
C1463 C1464 1.385 . S
C1464 H1450 0.931 . S
C1464 C1463 1.385 . S
C1464 C1465 1.389 . S
C1465 C1464 1.389 . S
C1465 C1466 1.387 . S
C1466 H1451 0.930 . S
C1466 C1461 1.390 . S
C1466 C1465 1.387 . S
H1467 C1479 0.930 . S
H1468 C1481 0.930 . S
H1469 C1482 0.930 . S
H1470 C1486 0.959 . S
H1471 C1486 0.959 . S
H1472 C1486 0.961 . S
H1473 C1487 0.960 . S
H1474 C1487 0.961 . S
H1475 C1487 0.959 . S
H1476 C1490 0.929 . S
H1477 C1491 0.931 . S
H1478 C1493 0.930 . S
C1479 H1467 0.930 . S
C1479 C1480 1.399 . S
C1479 C1484 1.399 . S
C1480 C1479 1.399 . S
C1480 C1481 1.376 . S
C1481 H1468 0.930 . S
C1481 C1480 1.376 . S
C1481 C1482 1.388 . S
C1482 H1469 0.930 . S
C1482 C1481 1.388 . S
C1482 C1483 1.390 . S
C1483 C1482 1.390 . S
C1483 C1484 1.394 . S
C1483 C1489 1.465 . S
C1484 C1479 1.399 . S
C1484 C1483 1.394 . S
C1484 C1485 1.516 . S
C1485 C1484 1.516 . S
C1485 C1486 1.502 . S
C1485 C1487 1.561 . S
C1485 C1488 1.526 . S
C1486 H1470 0.959 . S
C1486 H1471 0.959 . S
C1486 H1472 0.961 . S
C1486 C1485 1.502 . S
C1487 H1473 0.960 . S
C1487 H1474 0.961 . S
C1487 H1475 0.959 . S
C1487 C1485 1.561 . S
C1488 C1485 1.526 . S
C1488 C1489 1.396 . S
C1488 C1493 1.390 . S
C1489 C1483 1.465 . S
C1489 C1488 1.396 . S
C1489 C1490 1.399 . S
C1490 H1476 0.929 . S
C1490 C1489 1.399 . S
C1490 C1491 1.385 . S
C1491 H1477 0.931 . S
C1491 C1490 1.385 . S
C1491 C1492 1.389 . S
C1492 C1491 1.389 . S
C1492 C1493 1.387 . S
C1493 H1478 0.930 . S
C1493 C1488 1.390 . S
C1493 C1492 1.387 . S
H1494 C1506 0.930 . S
H1495 C1508 0.930 . S
H1496 C1509 0.930 . S
H1497 C1513 0.959 . S
H1498 C1513 0.959 . S
H1499 C1513 0.961 . S
H1500 C1514 0.960 . S
H1501 C1514 0.961 . S
H1502 C1514 0.959 . S
H1503 C1517 0.929 . S
H1504 C1518 0.931 . S
H1505 C1520 0.930 . S
C1506 H1494 0.930 . S
C1506 C1507 1.399 . S
C1506 C1511 1.399 . S
C1507 C1506 1.399 . S
C1507 C1508 1.376 . S
C1508 H1495 0.930 . S
C1508 C1507 1.376 . S
C1508 C1509 1.388 . S
C1509 H1496 0.930 . S
C1509 C1508 1.388 . S
C1509 C1510 1.390 . S
C1510 C1509 1.390 . S
C1510 C1511 1.394 . S
C1510 C1516 1.465 . S
C1511 C1506 1.399 . S
C1511 C1510 1.394 . S
C1511 C1512 1.516 . S
C1512 C1511 1.516 . S
C1512 C1513 1.502 . S
C1512 C1514 1.561 . S
C1512 C1515 1.526 . S
C1513 H1497 0.959 . S
C1513 H1498 0.959 . S
C1513 H1499 0.961 . S
C1513 C1512 1.502 . S
C1514 H1500 0.960 . S
C1514 H1501 0.961 . S
C1514 H1502 0.959 . S
C1514 C1512 1.561 . S
C1515 C1512 1.526 . S
C1515 C1516 1.396 . S
C1515 C1520 1.390 . S
C1516 C1510 1.465 . S
C1516 C1515 1.396 . S
C1516 C1517 1.399 . S
C1517 H1503 0.929 . S
C1517 C1516 1.399 . S
C1517 C1518 1.385 . S
C1518 H1504 0.931 . S
C1518 C1517 1.385 . S
C1518 C1519 1.389 . S
C1519 C1518 1.389 . S
C1519 C1520 1.387 . S
C1520 H1505 0.930 . S
C1520 C1515 1.390 . S
C1520 C1519 1.387 . S
H1521 C1533 0.925 1_545 S
H1522 C1535 0.930 . S
H1523 C1536 0.930 . S
H1524 C1540 0.959 . S
H1525 C1540 0.959 . S
H1526 C1540 0.961 . S
H1527 C1541 0.960 . S
H1528 C1541 0.961 . S
H1529 C1541 0.959 . S
H1530 C1544 0.929 . S
H1531 C1545 0.931 . S
H1532 C1547 0.930 . S
C1533 H1521 0.925 1_565 S
C1533 C1534 1.384 1_565 S
C1533 C1538 1.420 . S
C1534 C1533 1.384 1_545 S
C1534 C1535 1.376 . S
C1535 H1522 0.930 . S
C1535 C1534 1.376 . S
C1535 C1536 1.388 1_545 S
C1536 H1523 0.930 . S
C1536 C1535 1.388 1_565 S
C1536 C1537 1.390 . S
C1537 C1536 1.390 . S
C1537 C1538 1.394 . S
C1537 C1543 1.465 . S
C1538 C1533 1.420 . S
C1538 C1537 1.394 . S
C1538 C1539 1.516 . S
C1539 C1538 1.516 . S
C1539 C1540 1.502 . S
C1539 C1541 1.561 . S
C1539 C1542 1.526 . S
C1540 H1524 0.959 . S
C1540 H1525 0.959 . S
C1540 H1526 0.961 . S
C1540 C1539 1.502 . S
C1541 H1527 0.960 . S
C1541 H1528 0.961 . S
C1541 H1529 0.959 . S
C1541 C1539 1.561 . S
C1542 C1539 1.526 . S
C1542 C1543 1.396 . S
C1542 C1547 1.390 . S
C1543 C1537 1.465 . S
C1543 C1542 1.396 . S
C1543 C1544 1.399 . S
C1544 H1530 0.929 . S
C1544 C1543 1.399 . S
C1544 C1545 1.385 . S
C1545 H1531 0.931 . S
C1545 C1544 1.385 . S
C1545 C1546 1.389 . S
C1546 C1545 1.389 . S
C1546 C1547 1.387 . S
C1547 H1532 0.930 . S
C1547 C1542 1.390 . S
C1547 C1546 1.387 . S
H1548 C1560 0.930 1_655 S
H1549 C1562 0.939 . S
H1550 C1563 0.930 . S
H1551 C1567 0.959 . S
H1552 C1567 0.959 . S
H1553 C1567 0.961 . S
H1554 C1568 0.960 . S
H1555 C1568 0.961 . S
H1556 C1568 0.959 . S
H1557 C1571 0.929 . S
H1558 C1572 0.931 . S
H1559 C1574 0.930 . S
C1560 H1548 0.930 1_455 S
C1560 C1561 1.399 1_455 S
C1560 C1565 1.399 . S
C1561 C1560 1.399 1_655 S
C1561 C1562 1.376 1_655 S
C1562 H1549 0.939 . S
C1562 C1561 1.376 1_455 S
C1562 C1563 1.388 . S
C1563 H1550 0.930 . S
C1563 C1562 1.388 . S
C1563 C1564 1.390 . S
C1564 C1563 1.390 . S
C1564 C1565 1.394 . S
C1564 C1570 1.465 . S
C1565 C1560 1.399 . S
C1565 C1564 1.394 . S
C1565 C1566 1.516 . S
C1566 C1565 1.516 . S
C1566 C1567 1.502 . S
C1566 C1568 1.561 . S
C1566 C1569 1.526 . S
C1567 H1551 0.959 . S
C1567 H1552 0.959 . S
C1567 H1553 0.961 . S
C1567 C1566 1.502 . S
C1568 H1554 0.960 . S
C1568 H1555 0.961 . S
C1568 H1556 0.959 . S
C1568 C1566 1.561 . S
C1569 C1566 1.526 . S
C1569 C1570 1.396 . S
C1569 C1574 1.390 . S
C1570 C1564 1.465 . S
C1570 C1569 1.396 . S
C1570 C1571 1.399 . S
C1571 H1557 0.929 . S
C1571 C1570 1.399 . S
C1571 C1572 1.385 . S
C1572 H1558 0.931 . S
C1572 C1571 1.385 . S
C1572 C1573 1.389 . S
C1573 C1572 1.389 . S
C1573 C1574 1.387 . S
C1574 H1559 0.930 . S
C1574 C1569 1.390 . S
C1574 C1573 1.387 . S
H1575 C1587 0.930 . S
H1576 C1589 0.930 . S
H1577 C1590 0.930 . S
H1578 C1594 0.959 . S
H1579 C1594 0.959 . S
H1580 C1594 0.961 . S
H1581 C1595 0.960 . S
H1582 C1595 0.961 . S
H1583 C1595 0.959 . S
H1584 C1598 0.929 . S
H1585 C1599 0.931 . S
H1586 C1601 0.930 . S
C1587 H1575 0.930 . S
C1587 C1588 1.399 . S
C1587 C1592 1.399 . S
C1588 C1587 1.399 . S
C1588 C1589 1.376 . S
C1589 H1576 0.930 . S
C1589 C1588 1.376 . S
C1589 C1590 1.388 . S
C1590 H1577 0.930 . S
C1590 C1589 1.388 . S
C1590 C1591 1.390 . S
C1591 C1590 1.390 . S
C1591 C1592 1.394 . S
C1591 C1597 1.465 . S
C1592 C1587 1.399 . S
C1592 C1591 1.394 . S
C1592 C1593 1.516 . S
C1593 C1592 1.516 . S
C1593 C1594 1.502 . S
C1593 C1595 1.561 . S
C1593 C1596 1.526 . S
C1594 H1578 0.959 . S
C1594 H1579 0.959 . S
C1594 H1580 0.961 . S
C1594 C1593 1.502 . S
C1595 H1581 0.960 . S
C1595 H1582 0.961 . S
C1595 H1583 0.959 . S
C1595 C1593 1.561 . S
C1596 C1593 1.526 . S
C1596 C1597 1.396 . S
C1596 C1601 1.390 . S
C1597 C1591 1.465 . S
C1597 C1596 1.396 . S
C1597 C1598 1.399 . S
C1598 H1584 0.929 . S
C1598 C1597 1.399 . S
C1598 C1599 1.385 . S
C1599 H1585 0.931 . S
C1599 C1598 1.385 . S
C1599 C1600 1.389 . S
C1600 C1599 1.389 . S
C1600 C1601 1.387 . S
C1601 H1586 0.930 . S
C1601 C1596 1.390 . S
C1601 C1600 1.387 . S
H1602 C1614 0.930 . S
H1603 C1616 0.930 . S
H1604 C1617 0.930 . S
H1605 C1621 0.959 . S
H1606 C1621 0.959 . S
H1607 C1621 0.961 . S
H1608 C1622 0.960 . S
H1609 C1622 0.961 . S
H1610 C1622 0.959 . S
H1611 C1625 0.929 . S
H1612 C1626 0.931 . S
H1613 C1628 0.930 . S
C1614 H1602 0.930 . S
C1614 C1615 1.399 . S
C1614 C1619 1.399 . S
C1615 C1614 1.399 . S
C1615 C1616 1.376 . S
C1616 H1603 0.930 . S
C1616 C1615 1.376 . S
C1616 C1617 1.388 . S
C1617 H1604 0.930 . S
C1617 C1616 1.388 . S
C1617 C1618 1.390 . S
C1618 C1617 1.390 . S
C1618 C1619 1.394 . S
C1618 C1624 1.465 . S
C1619 C1614 1.399 . S
C1619 C1618 1.394 . S
C1619 C1620 1.516 . S
C1620 C1619 1.516 . S
C1620 C1621 1.502 . S
C1620 C1622 1.561 . S
C1620 C1623 1.526 . S
C1621 H1605 0.959 . S
C1621 H1606 0.959 . S
C1621 H1607 0.961 . S
C1621 C1620 1.502 . S
C1622 H1608 0.960 . S
C1622 H1609 0.961 . S
C1622 H1610 0.959 . S
C1622 C1620 1.561 . S
C1623 C1620 1.526 . S
C1623 C1624 1.396 . S
C1623 C1628 1.390 . S
C1624 C1618 1.465 . S
C1624 C1623 1.396 . S
C1624 C1625 1.399 . S
C1625 H1611 0.929 . S
C1625 C1624 1.399 . S
C1625 C1626 1.385 . S
C1626 H1612 0.931 . S
C1626 C1625 1.385 . S
C1626 C1627 1.389 . S
C1627 C1626 1.389 . S
C1627 C1628 1.387 . S
C1628 H1613 0.930 . S
C1628 C1623 1.390 . S
C1628 C1627 1.387 . S
H1629 C1641 0.930 . S
H1630 C1643 0.930 . S
H1631 C1644 0.930 . S
H1632 C1648 0.959 . S
H1633 C1648 0.959 . S
H1634 C1648 0.961 . S
H1635 C1649 0.960 . S
H1636 C1649 0.961 . S
H1637 C1649 0.959 . S
H1638 C1652 0.929 . S
H1639 C1653 0.931 . S
H1640 C1655 0.930 . S
C1641 H1629 0.930 . S
C1641 C1642 1.399 . S
C1641 C1646 1.399 . S
C1642 C1641 1.399 . S
C1642 C1643 1.376 . S
C1643 H1630 0.930 . S
C1643 C1642 1.376 . S
C1643 C1644 1.388 . S
C1644 H1631 0.930 . S
C1644 C1643 1.388 . S
C1644 C1645 1.390 . S
C1645 C1644 1.390 . S
C1645 C1646 1.394 . S
C1645 C1651 1.465 . S
C1646 C1641 1.399 . S
C1646 C1645 1.394 . S
C1646 C1647 1.516 . S
C1647 C1646 1.516 . S
C1647 C1648 1.502 . S
C1647 C1649 1.561 . S
C1647 C1650 1.526 . S
C1648 H1632 0.959 . S
C1648 H1633 0.959 . S
C1648 H1634 0.961 . S
C1648 C1647 1.502 . S
C1649 H1635 0.960 . S
C1649 H1636 0.961 . S
C1649 H1637 0.959 . S
C1649 C1647 1.561 . S
C1650 C1647 1.526 . S
C1650 C1651 1.396 . S
C1650 C1655 1.390 . S
C1651 C1645 1.465 . S
C1651 C1650 1.396 . S
C1651 C1652 1.399 . S
C1652 H1638 0.929 . S
C1652 C1651 1.399 . S
C1652 C1653 1.385 . S
C1653 H1639 0.931 . S
C1653 C1652 1.385 . S
C1653 C1654 1.389 . S
C1654 C1653 1.389 . S
C1654 C1655 1.387 . S
C1655 H1640 0.930 . S
C1655 C1650 1.390 . S
C1655 C1654 1.387 . S
H1656 C1668 0.930 . S
H1657 C1670 0.930 . S
H1658 C1671 0.930 . S
H1659 C1675 0.959 . S
H1660 C1675 0.959 . S
H1661 C1675 0.961 . S
H1662 C1676 0.960 . S
H1663 C1676 0.961 . S
H1664 C1676 0.959 . S
H1665 C1679 0.929 . S
H1666 C1680 0.931 . S
H1667 C1682 0.930 . S
C1668 H1656 0.930 . S
C1668 C1669 1.399 . S
C1668 C1673 1.399 . S
C1669 C1668 1.399 . S
C1669 C1670 1.376 . S
C1670 H1657 0.930 . S
C1670 C1669 1.376 . S
C1670 C1671 1.388 . S
C1671 H1658 0.930 . S
C1671 C1670 1.388 . S
C1671 C1672 1.390 . S
C1672 C1671 1.390 . S
C1672 C1673 1.394 . S
C1672 C1678 1.465 . S
C1673 C1668 1.399 . S
C1673 C1672 1.394 . S
C1673 C1674 1.516 . S
C1674 C1673 1.516 . S
C1674 C1675 1.502 . S
C1674 C1676 1.561 . S
C1674 C1677 1.526 . S
C1675 H1659 0.959 . S
C1675 H1660 0.959 . S
C1675 H1661 0.961 . S
C1675 C1674 1.502 . S
C1676 H1662 0.960 . S
C1676 H1663 0.961 . S
C1676 H1664 0.959 . S
C1676 C1674 1.561 . S
C1677 C1674 1.526 . S
C1677 C1678 1.396 . S
C1677 C1682 1.390 . S
C1678 C1672 1.465 . S
C1678 C1677 1.396 . S
C1678 C1679 1.399 . S
C1679 H1665 0.929 . S
C1679 C1678 1.399 . S
C1679 C1680 1.385 . S
C1680 H1666 0.931 . S
C1680 C1679 1.385 . S
C1680 C1681 1.389 . S
C1681 C1680 1.389 . S
C1681 C1682 1.387 . S
C1682 H1667 0.930 . S
C1682 C1677 1.390 . S
C1682 C1681 1.387 . S
H1683 C1695 0.930 . S
H1684 C1697 0.930 . S
H1685 C1698 0.930 . S
H1686 C1702 0.959 . S
H1687 C1702 0.957 1_545 S
H1688 C1702 0.961 . S
H1689 C1703 0.971 . S
H1690 C1703 0.961 . S
H1691 C1703 0.959 . S
H1692 C1706 0.929 . S
H1693 C1707 0.931 . S
H1694 C1709 0.930 . S
C1695 H1683 0.930 . S
C1695 C1696 1.399 . S
C1695 C1700 1.399 . S
C1696 C1695 1.399 . S
C1696 C1697 1.376 . S
C1697 H1684 0.930 . S
C1697 C1696 1.376 . S
C1697 C1698 1.388 . S
C1698 H1685 0.930 . S
C1698 C1697 1.388 . S
C1698 C1699 1.390 . S
C1699 C1698 1.390 . S
C1699 C1700 1.394 . S
C1699 C1705 1.465 1_565 S
C1700 C1695 1.399 . S
C1700 C1699 1.394 . S
C1700 C1701 1.516 1_565 S
C1701 C1700 1.516 1_545 S
C1701 C1702 1.502 1_545 S
C1701 C1703 1.561 . S
C1701 C1704 1.526 . S
C1702 H1686 0.959 . S
C1702 H1687 0.957 1_565 S
C1702 H1688 0.961 . S
C1702 C1701 1.502 1_565 S
C1703 H1689 0.971 . S
C1703 H1690 0.961 . S
C1703 H1691 0.959 . S
C1703 C1701 1.561 . S
C1704 C1701 1.526 . S
C1704 C1705 1.396 . S
C1704 C1709 1.390 . S
C1705 C1699 1.465 1_545 S
C1705 C1704 1.396 . S
C1705 C1706 1.399 . S
C1706 H1692 0.929 . S
C1706 C1705 1.399 . S
C1706 C1707 1.385 . S
C1707 H1693 0.931 . S
C1707 C1706 1.385 . S
C1707 C1708 1.389 . S
C1708 C1707 1.389 . S
C1708 C1709 1.387 . S
C1709 H1694 0.930 . S
C1709 C1704 1.390 . S
C1709 C1708 1.387 . S
H1710 C1722 0.930 . S
H1711 C1724 0.930 . S
H1712 C1725 0.930 1_655 S
H1713 C1729 0.959 . S
H1714 C1729 0.959 . S
H1715 C1729 0.961 . S
H1716 C1730 0.960 . S
H1717 C1730 0.961 . S
H1718 C1730 0.952 1_655 S
H1719 C1733 0.929 . S
H1720 C1734 0.931 . S
H1721 C1736 0.930 . S
C1722 H1710 0.930 . S
C1722 C1723 1.399 . S
C1722 C1727 1.399 . S
C1723 C1722 1.399 . S
C1723 C1724 1.376 . S
C1724 H1711 0.930 . S
C1724 C1723 1.376 . S
C1724 C1725 1.388 . S
C1725 H1712 0.930 1_455 S
C1725 C1724 1.388 . S
C1725 C1726 1.390 . S
C1726 C1725 1.390 . S
C1726 C1727 1.394 . S
C1726 C1732 1.465 1_455 S
C1727 C1722 1.399 . S
C1727 C1726 1.394 . S
C1727 C1728 1.516 . S
C1728 C1727 1.516 . S
C1728 C1729 1.502 . S
C1728 C1730 1.561 . S
C1728 C1731 1.526 1_455 S
C1729 H1713 0.959 . S
C1729 H1714 0.959 . S
C1729 H1715 0.961 . S
C1729 C1728 1.502 . S
C1730 H1716 0.960 . S
C1730 H1717 0.961 . S
C1730 H1718 0.952 1_455 S
C1730 C1728 1.561 . S
C1731 C1728 1.526 1_655 S
C1731 C1732 1.396 . S
C1731 C1736 1.390 . S
C1732 C1726 1.465 1_655 S
C1732 C1731 1.396 . S
C1732 C1733 1.399 . S
C1733 H1719 0.929 . S
C1733 C1732 1.399 . S
C1733 C1734 1.385 . S
C1734 H1720 0.931 . S
C1734 C1733 1.385 . S
C1734 C1735 1.389 . S
C1735 C1734 1.389 . S
C1735 C1736 1.387 . S
C1736 H1721 0.930 . S
C1736 C1731 1.390 . S
C1736 C1735 1.387 . S
H1737 C1749 0.930 . S
H1738 C1751 0.930 . S
H1739 C1752 0.930 . S
H1740 C1756 0.959 . S
H1741 C1756 0.959 . S
H1742 C1756 0.961 . S
H1743 C1757 0.960 . S
H1744 C1757 0.961 . S
H1745 C1757 0.959 . S
H1746 C1760 0.929 . S
H1747 C1761 0.931 . S
H1748 C1763 0.930 . S
C1749 H1737 0.930 . S
C1749 C1750 1.399 . S
C1749 C1754 1.399 . S
C1750 C1749 1.399 . S
C1750 C1751 1.376 . S
C1751 H1738 0.930 . S
C1751 C1750 1.376 . S
C1751 C1752 1.388 . S
C1752 H1739 0.930 . S
C1752 C1751 1.388 . S
C1752 C1753 1.390 . S
C1753 C1752 1.390 . S
C1753 C1754 1.394 . S
C1753 C1759 1.465 . S
C1754 C1749 1.399 . S
C1754 C1753 1.394 . S
C1754 C1755 1.516 . S
C1755 C1754 1.516 . S
C1755 C1756 1.502 . S
C1755 C1757 1.561 . S
C1755 C1758 1.526 . S
C1756 H1740 0.959 . S
C1756 H1741 0.959 . S
C1756 H1742 0.961 . S
C1756 C1755 1.502 . S
C1757 H1743 0.960 . S
C1757 H1744 0.961 . S
C1757 H1745 0.959 . S
C1757 C1755 1.561 . S
C1758 C1755 1.526 . S
C1758 C1759 1.396 . S
C1758 C1763 1.390 . S
C1759 C1753 1.465 . S
C1759 C1758 1.396 . S
C1759 C1760 1.399 . S
C1760 H1746 0.929 . S
C1760 C1759 1.399 . S
C1760 C1761 1.385 . S
C1761 H1747 0.931 . S
C1761 C1760 1.385 . S
C1761 C1762 1.389 . S
C1762 C1761 1.389 . S
C1762 C1763 1.387 . S
C1763 H1748 0.930 . S
C1763 C1758 1.390 . S
C1763 C1762 1.387 . S
H1764 C1776 0.930 . S
H1765 C1778 0.930 1_455 S
H1766 C1779 0.930 . S
H1767 C1783 0.959 . S
H1768 C1783 0.959 . S
H1769 C1783 0.961 . S
H1770 C1784 0.960 . S
H1771 C1784 0.961 . S
H1772 C1784 0.959 . S
H1773 C1787 0.929 . S
H1774 C1788 0.931 . S
H1775 C1790 0.930 . S
C1776 H1764 0.930 . S
C1776 C1777 1.399 . S
C1776 C1781 1.399 1_455 S
C1777 C1776 1.399 . S
C1777 C1778 1.376 1_455 S
C1778 H1765 0.930 1_655 S
C1778 C1777 1.376 1_655 S
C1778 C1779 1.388 . S
C1779 H1766 0.930 . S
C1779 C1778 1.388 . S
C1779 C1780 1.390 . S
C1780 C1779 1.390 . S
C1780 C1781 1.394 . S
C1780 C1786 1.465 . S
C1781 C1776 1.399 1_655 S
C1781 C1780 1.394 . S
C1781 C1782 1.516 . S
C1782 C1781 1.516 . S
C1782 C1783 1.502 . S
C1782 C1784 1.561 . S
C1782 C1785 1.526 . S
C1783 H1767 0.959 . S
C1783 H1768 0.959 . S
C1783 H1769 0.961 . S
C1783 C1782 1.502 . S
C1784 H1770 0.960 . S
C1784 H1771 0.961 . S
C1784 H1772 0.959 . S
C1784 C1782 1.561 . S
C1785 C1782 1.526 . S
C1785 C1786 1.396 . S
C1785 C1790 1.390 . S
C1786 C1780 1.465 . S
C1786 C1785 1.396 . S
C1786 C1787 1.399 . S
C1787 H1773 0.929 . S
C1787 C1786 1.399 . S
C1787 C1788 1.385 . S
C1788 H1774 0.931 . S
C1788 C1787 1.385 . S
C1788 C1789 1.389 . S
C1789 C1788 1.389 . S
C1789 C1790 1.387 . S
C1790 H1775 0.930 . S
C1790 C1785 1.390 . S
C1790 C1789 1.387 . S
H1791 C1803 0.930 . S
H1792 C1805 0.930 . S
H1793 C1806 0.930 . S
H1794 C1810 0.959 . S
H1795 C1810 0.959 . S
H1796 C1810 0.961 . S
H1797 C1811 0.960 . S
H1798 C1811 0.961 . S
H1799 C1811 0.959 . S
H1800 C1814 0.929 . S
H1801 C1815 0.931 . S
H1802 C1817 0.930 . S
C1803 H1791 0.930 . S
C1803 C1804 1.399 . S
C1803 C1808 1.399 . S
C1804 C1803 1.399 . S
C1804 C1805 1.376 . S
C1805 H1792 0.930 . S
C1805 C1804 1.376 . S
C1805 C1806 1.388 . S
C1806 H1793 0.930 . S
C1806 C1805 1.388 . S
C1806 C1807 1.390 . S
C1807 C1806 1.390 . S
C1807 C1808 1.394 . S
C1807 C1813 1.465 . S
C1808 C1803 1.399 . S
C1808 C1807 1.394 . S
C1808 C1809 1.516 . S
C1809 C1808 1.516 . S
C1809 C1810 1.502 . S
C1809 C1811 1.561 . S
C1809 C1812 1.526 . S
C1810 H1794 0.959 . S
C1810 H1795 0.959 . S
C1810 H1796 0.961 . S
C1810 C1809 1.502 . S
C1811 H1797 0.960 . S
C1811 H1798 0.961 . S
C1811 H1799 0.959 . S
C1811 C1809 1.561 . S
C1812 C1809 1.526 . S
C1812 C1813 1.396 . S
C1812 C1817 1.390 . S
C1813 C1807 1.465 . S
C1813 C1812 1.396 . S
C1813 C1814 1.399 . S
C1814 H1800 0.929 . S
C1814 C1813 1.399 . S
C1814 C1815 1.385 . S
C1815 H1801 0.931 . S
C1815 C1814 1.385 . S
C1815 C1816 1.389 . S
C1816 C1815 1.389 . S
C1816 C1817 1.387 . S
C1817 H1802 0.930 . S
C1817 C1812 1.390 . S
C1817 C1816 1.387 . S
H1818 C1830 0.930 . S
H1819 C1832 0.930 . S
H1820 C1833 0.930 . S
H1821 C1837 0.959 . S
H1822 C1837 0.959 . S
H1823 C1837 0.961 . S
H1824 C1838 0.960 . S
H1825 C1838 0.961 . S
H1826 C1838 0.959 . S
H1827 C1841 0.929 . S
H1828 C1842 0.931 . S
H1829 C1844 0.930 . S
C1830 H1818 0.930 . S
C1830 C1831 1.399 1_545 S
C1830 C1835 1.399 . S
C1831 C1830 1.399 1_565 S
C1831 C1832 1.376 . S
C1832 H1819 0.930 . S
C1832 C1831 1.376 . S
C1832 C1833 1.388 1_565 S
C1833 H1820 0.930 . S
C1833 C1832 1.388 1_545 S
C1833 C1834 1.390 . S
C1834 C1833 1.390 . S
C1834 C1835 1.394 . S
C1834 C1840 1.465 . S
C1835 C1830 1.399 . S
C1835 C1834 1.394 . S
C1835 C1836 1.516 . S
C1836 C1835 1.516 . S
C1836 C1837 1.502 . S
C1836 C1838 1.561 . S
C1836 C1839 1.526 . S
C1837 H1821 0.959 . S
C1837 H1822 0.959 . S
C1837 H1823 0.961 . S
C1837 C1836 1.502 . S
C1838 H1824 0.960 . S
C1838 H1825 0.961 . S
C1838 H1826 0.959 . S
C1838 C1836 1.561 . S
C1839 C1836 1.526 . S
C1839 C1840 1.396 . S
C1839 C1844 1.390 . S
C1840 C1834 1.465 . S
C1840 C1839 1.396 . S
C1840 C1841 1.399 . S
C1841 H1827 0.929 . S
C1841 C1840 1.399 . S
C1841 C1842 1.385 . S
C1842 H1828 0.931 . S
C1842 C1841 1.385 . S
C1842 C1843 1.389 . S
C1843 C1842 1.389 . S
C1843 C1844 1.387 . S
C1844 H1829 0.930 . S
C1844 C1839 1.390 . S
C1844 C1843 1.387 . S
H1845 C1857 0.930 . S
H1846 C1859 0.930 . S
H1847 C1860 0.930 . S
H1848 C1864 0.959 . S
H1849 C1864 0.959 . S
H1850 C1864 0.961 . S
H1851 C1865 0.960 . S
H1852 C1865 0.961 . S
H1853 C1865 0.959 . S
H1854 C1868 0.929 . S
H1855 C1869 0.931 . S
H1856 C1871 0.930 . S
C1857 H1845 0.930 . S
C1857 C1858 1.399 . S
C1857 C1862 1.399 . S
C1858 C1857 1.399 . S
C1858 C1859 1.376 . S
C1859 H1846 0.930 . S
C1859 C1858 1.376 . S
C1859 C1860 1.388 . S
C1860 H1847 0.930 . S
C1860 C1859 1.388 . S
C1860 C1861 1.390 . S
C1861 C1860 1.390 . S
C1861 C1862 1.394 . S
C1861 C1867 1.465 . S
C1862 C1857 1.399 . S
C1862 C1861 1.394 . S
C1862 C1863 1.516 . S
C1863 C1862 1.516 . S
C1863 C1864 1.502 . S
C1863 C1865 1.561 . S
C1863 C1866 1.526 . S
C1864 H1848 0.959 . S
C1864 H1849 0.959 . S
C1864 H1850 0.961 . S
C1864 C1863 1.502 . S
C1865 H1851 0.960 . S
C1865 H1852 0.961 . S
C1865 H1853 0.959 . S
C1865 C1863 1.561 . S
C1866 C1863 1.526 . S
C1866 C1867 1.396 . S
C1866 C1871 1.390 . S
C1867 C1861 1.465 . S
C1867 C1866 1.396 . S
C1867 C1868 1.399 . S
C1868 H1854 0.929 . S
C1868 C1867 1.399 . S
C1868 C1869 1.385 . S
C1869 H1855 0.931 . S
C1869 C1868 1.385 . S
C1869 C1870 1.389 . S
C1870 C1869 1.389 . S
C1870 C1871 1.387 . S
C1871 H1856 0.930 . S
C1871 C1866 1.390 . S
C1871 C1870 1.387 . S
H1872 C1884 0.930 . S
H1873 C1886 0.930 . S
H1874 C1887 0.930 . S
H1875 C1891 0.959 . S
H1876 C1891 0.959 . S
H1877 C1891 0.961 . S
H1878 C1892 0.960 . S
H1879 C1892 0.961 . S
H1880 C1892 0.959 . S
H1881 C1895 0.929 . S
H1882 C1896 0.931 . S
H1883 C1898 0.930 . S
C1884 H1872 0.930 . S
C1884 C1885 1.399 . S
C1884 C1889 1.399 . S
C1885 C1884 1.399 . S
C1885 C1886 1.376 . S
C1886 H1873 0.930 . S
C1886 C1885 1.376 . S
C1886 C1887 1.388 . S
C1887 H1874 0.930 . S
C1887 C1886 1.388 . S
C1887 C1888 1.390 . S
C1888 C1887 1.390 . S
C1888 C1889 1.394 . S
C1888 C1894 1.465 . S
C1889 C1884 1.399 . S
C1889 C1888 1.394 . S
C1889 C1890 1.516 . S
C1890 C1889 1.516 . S
C1890 C1891 1.502 . S
C1890 C1892 1.561 . S
C1890 C1893 1.526 . S
C1891 H1875 0.959 . S
C1891 H1876 0.959 . S
C1891 H1877 0.961 . S
C1891 C1890 1.502 . S
C1892 H1878 0.960 . S
C1892 H1879 0.961 . S
C1892 H1880 0.959 . S
C1892 C1890 1.561 . S
C1893 C1890 1.526 . S
C1893 C1894 1.396 . S
C1893 C1898 1.390 . S
C1894 C1888 1.465 . S
C1894 C1893 1.396 . S
C1894 C1895 1.399 . S
C1895 H1881 0.929 . S
C1895 C1894 1.399 . S
C1895 C1896 1.385 . S
C1896 H1882 0.931 . S
C1896 C1895 1.385 . S
C1896 C1897 1.389 . S
C1897 C1896 1.389 . S
C1897 C1898 1.387 . S
C1898 H1883 0.930 . S
C1898 C1893 1.390 . S
C1898 C1897 1.387 . S
H1899 C1911 0.930 . S
H1900 C1913 0.930 . S
H1901 C1914 0.930 . S
H1902 C1918 0.959 . S
H1903 C1918 0.959 . S
H1904 C1918 0.961 . S
H1905 C1919 0.960 . S
H1906 C1919 0.961 . S
H1907 C1919 0.959 . S
H1908 C1922 0.929 . S
H1909 C1923 0.931 . S
H1910 C1925 0.930 . S
C1911 H1899 0.930 . S
C1911 C1912 1.399 . S
C1911 C1916 1.399 . S
C1912 C1911 1.399 . S
C1912 C1913 1.376 . S
C1913 H1900 0.930 . S
C1913 C1912 1.376 . S
C1913 C1914 1.388 . S
C1914 H1901 0.930 . S
C1914 C1913 1.388 . S
C1914 C1915 1.390 . S
C1915 C1914 1.390 . S
C1915 C1916 1.394 . S
C1915 C1921 1.465 . S
C1916 C1911 1.399 . S
C1916 C1915 1.394 . S
C1916 C1917 1.516 . S
C1917 C1916 1.516 . S
C1917 C1918 1.502 . S
C1917 C1919 1.561 . S
C1917 C1920 1.526 . S
C1918 H1902 0.959 . S
C1918 H1903 0.959 . S
C1918 H1904 0.961 . S
C1918 C1917 1.502 . S
C1919 H1905 0.960 . S
C1919 H1906 0.961 . S
C1919 H1907 0.959 . S
C1919 C1917 1.561 . S
C1920 C1917 1.526 . S
C1920 C1921 1.396 . S
C1920 C1925 1.390 . S
C1921 C1915 1.465 . S
C1921 C1920 1.396 . S
C1921 C1922 1.399 . S
C1922 H1908 0.929 . S
C1922 C1921 1.399 . S
C1922 C1923 1.385 . S
C1923 H1909 0.931 . S
C1923 C1922 1.385 . S
C1923 C1924 1.389 . S
C1924 C1923 1.389 . S
C1924 C1925 1.387 . S
C1925 H1910 0.930 . S
C1925 C1920 1.390 . S
C1925 C1924 1.387 . S
H1926 C1938 0.930 . S
H1927 C1940 0.930 . S
H1928 C1941 0.930 . S
H1929 C1945 0.959 . S
H1930 C1945 0.959 . S
H1931 C1945 0.961 . S
H1932 C1946 0.960 . S
H1933 C1946 0.961 . S
H1934 C1946 0.959 . S
H1935 C1949 0.929 . S
H1936 C1950 0.931 . S
H1937 C1952 0.930 . S
C1938 H1926 0.930 . S
C1938 C1939 1.399 . S
C1938 C1943 1.399 . S
C1939 C1938 1.399 . S
C1939 C1940 1.376 . S
C1940 H1927 0.930 . S
C1940 C1939 1.376 . S
C1940 C1941 1.388 . S
C1941 H1928 0.930 . S
C1941 C1940 1.388 . S
C1941 C1942 1.390 . S
C1942 C1941 1.390 . S
C1942 C1943 1.394 . S
C1942 C1948 1.465 . S
C1943 C1938 1.399 . S
C1943 C1942 1.394 . S
C1943 C1944 1.516 . S
C1944 C1943 1.516 . S
C1944 C1945 1.502 . S
C1944 C1946 1.561 . S
C1944 C1947 1.526 . S
C1945 H1929 0.959 . S
C1945 H1930 0.959 . S
C1945 H1931 0.961 . S
C1945 C1944 1.502 . S
C1946 H1932 0.960 . S
C1946 H1933 0.961 . S
C1946 H1934 0.959 . S
C1946 C1944 1.561 . S
C1947 C1944 1.526 . S
C1947 C1948 1.396 . S
C1947 C1952 1.390 . S
C1948 C1942 1.465 . S
C1948 C1947 1.396 . S
C1948 C1949 1.399 . S
C1949 H1935 0.929 . S
C1949 C1948 1.399 . S
C1949 C1950 1.385 . S
C1950 H1936 0.931 . S
C1950 C1949 1.385 . S
C1950 C1951 1.389 . S
C1951 C1950 1.389 . S
C1951 C1952 1.387 . S
C1952 H1937 0.930 . S
C1952 C1947 1.390 . S
C1952 C1951 1.387 . S
H1953 C1965 0.930 . S
H1954 C1967 0.930 . S
H1955 C1968 0.930 . S
H1956 C1972 0.959 . S
H1957 C1972 0.959 . S
H1958 C1972 0.961 . S
H1959 C1973 0.960 . S
H1960 C1973 0.961 . S
H1961 C1973 0.959 . S
H1962 C1976 0.929 . S
H1963 C1977 0.931 . S
H1964 C1979 0.930 . S
C1965 H1953 0.930 . S
C1965 C1966 1.399 . S
C1965 C1970 1.399 . S
C1966 C1965 1.399 . S
C1966 C1967 1.376 . S
C1967 H1954 0.930 . S
C1967 C1966 1.376 . S
C1967 C1968 1.388 . S
C1968 H1955 0.930 . S
C1968 C1967 1.388 . S
C1968 C1969 1.390 . S
C1969 C1968 1.390 . S
C1969 C1970 1.394 . S
C1969 C1975 1.465 . S
C1970 C1965 1.399 . S
C1970 C1969 1.394 . S
C1970 C1971 1.516 . S
C1971 C1970 1.516 . S
C1971 C1972 1.502 . S
C1971 C1973 1.561 . S
C1971 C1974 1.526 . S
C1972 H1956 0.959 . S
C1972 H1957 0.959 . S
C1972 H1958 0.961 . S
C1972 C1971 1.502 . S
C1973 H1959 0.960 . S
C1973 H1960 0.961 . S
C1973 H1961 0.959 . S
C1973 C1971 1.561 . S
C1974 C1971 1.526 . S
C1974 C1975 1.396 . S
C1974 C1979 1.390 . S
C1975 C1969 1.465 . S
C1975 C1974 1.396 . S
C1975 C1976 1.399 . S
C1976 H1962 0.929 . S
C1976 C1975 1.399 . S
C1976 C1977 1.385 . S
C1977 H1963 0.931 . S
C1977 C1976 1.385 . S
C1977 C1978 1.389 . S
C1978 C1977 1.389 . S
C1978 C1979 1.387 . S
C1979 H1964 0.930 . S
C1979 C1974 1.390 . S
C1979 C1978 1.387 . S
H1980 C1992 0.930 . S
H1981 C1994 0.930 . S
H1982 C1995 0.930 . S
H1983 C1999 0.959 . S
H1984 C1999 0.959 . S
H1985 C1999 0.961 . S
H1986 C2000 0.960 . S
H1987 C2000 0.961 . S
H1988 C2000 0.959 . S
H1989 C2003 0.929 . S
H1990 C2004 0.931 . S
H1991 C2006 0.930 . S
C1992 H1980 0.930 . S
C1992 C1993 1.399 . S
C1992 C1997 1.399 . S
C1993 C1992 1.399 . S
C1993 C1994 1.376 . S
C1994 H1981 0.930 . S
C1994 C1993 1.376 . S
C1994 C1995 1.388 . S
C1995 H1982 0.930 . S
C1995 C1994 1.388 . S
C1995 C1996 1.390 . S
C1996 C1995 1.390 . S
C1996 C1997 1.394 . S
C1996 C2002 1.465 . S
C1997 C1992 1.399 . S
C1997 C1996 1.394 . S
C1997 C1998 1.516 . S
C1998 C1997 1.516 . S
C1998 C1999 1.502 . S
C1998 C2000 1.561 . S
C1998 C2001 1.526 . S
C1999 H1983 0.959 . S
C1999 H1984 0.959 . S
C1999 H1985 0.961 . S
C1999 C1998 1.502 . S
C2000 H1986 0.960 . S
C2000 H1987 0.961 . S
C2000 H1988 0.959 . S
C2000 C1998 1.561 . S
C2001 C1998 1.526 . S
C2001 C2002 1.396 . S
C2001 C2006 1.390 . S
C2002 C1996 1.465 . S
C2002 C2001 1.396 . S
C2002 C2003 1.399 . S
C2003 H1989 0.929 . S
C2003 C2002 1.399 . S
C2003 C2004 1.385 . S
C2004 H1990 0.931 . S
C2004 C2003 1.385 . S
C2004 C2005 1.389 . S
C2005 C2004 1.389 . S
C2005 C2006 1.387 . S
C2006 H1991 0.930 . S
C2006 C2001 1.390 . S
C2006 C2005 1.387 . S
H2007 C2019 0.930 . S
H2008 C2021 0.930 . S
H2009 C2022 0.930 . S
H2010 C2026 0.959 . S
H2011 C2026 0.939 1_455 S
H2012 C2026 0.961 . S
H2013 C2027 0.960 . S
H2014 C2027 0.961 . S
H2015 C2027 0.959 . S
H2016 C2030 0.929 . S
H2017 C2031 0.931 . S
H2018 C2033 0.930 . S
C2019 H2007 0.930 . S
C2019 C2020 1.399 . S
C2019 C2024 1.399 . S
C2020 C2019 1.399 . S
C2020 C2021 1.376 . S
C2021 H2008 0.930 . S
C2021 C2020 1.376 . S
C2021 C2022 1.388 . S
C2022 H2009 0.930 . S
C2022 C2021 1.388 . S
C2022 C2023 1.390 . S
C2023 C2022 1.390 . S
C2023 C2024 1.394 . S
C2023 C2029 1.465 . S
C2024 C2019 1.399 . S
C2024 C2023 1.394 . S
C2024 C2025 1.516 . S
C2025 C2024 1.516 . S
C2025 C2026 1.502 . S
C2025 C2027 1.561 . S
C2025 C2028 1.526 . S
C2026 H2010 0.959 . S
C2026 H2011 0.939 1_655 S
C2026 H2012 0.961 . S
C2026 C2025 1.502 . S
C2027 H2013 0.960 . S
C2027 H2014 0.961 . S
C2027 H2015 0.959 . S
C2027 C2025 1.561 . S
C2028 C2025 1.526 . S
C2028 C2029 1.396 . S
C2028 C2033 1.390 . S
C2029 C2023 1.465 . S
C2029 C2028 1.396 . S
C2029 C2030 1.399 . S
C2030 H2016 0.929 . S
C2030 C2029 1.399 . S
C2030 C2031 1.385 . S
C2031 H2017 0.931 . S
C2031 C2030 1.385 . S
C2031 C2032 1.389 . S
C2032 C2031 1.389 . S
C2032 C2033 1.387 . S
C2033 H2018 0.930 . S
C2033 C2028 1.390 . S
C2033 C2032 1.387 . S
H2034 C2046 0.930 . S
H2035 C2048 0.930 . S
H2036 C2049 0.930 . S
H2037 C2053 0.959 . S
H2038 C2053 0.959 . S
H2039 C2053 0.961 . S
H2040 C2054 0.960 . S
H2041 C2054 0.961 . S
H2042 C2054 0.959 . S
H2043 C2057 0.929 . S
H2044 C2058 0.931 . S
H2045 C2060 0.930 . S
C2046 H2034 0.930 . S
C2046 C2047 1.399 . S
C2046 C2051 1.399 . S
C2047 C2046 1.399 . S
C2047 C2048 1.376 . S
C2048 H2035 0.930 . S
C2048 C2047 1.376 . S
C2048 C2049 1.388 . S
C2049 H2036 0.930 . S
C2049 C2048 1.388 . S
C2049 C2050 1.390 . S
C2050 C2049 1.390 . S
C2050 C2051 1.394 . S
C2050 C2056 1.465 . S
C2051 C2046 1.399 . S
C2051 C2050 1.394 . S
C2051 C2052 1.516 . S
C2052 C2051 1.516 . S
C2052 C2053 1.502 . S
C2052 C2054 1.561 . S
C2052 C2055 1.526 . S
C2053 H2037 0.959 . S
C2053 H2038 0.959 . S
C2053 H2039 0.961 . S
C2053 C2052 1.502 . S
C2054 H2040 0.960 . S
C2054 H2041 0.961 . S
C2054 H2042 0.959 . S
C2054 C2052 1.561 . S
C2055 C2052 1.526 . S
C2055 C2056 1.396 . S
C2055 C2060 1.390 . S
C2056 C2050 1.465 . S
C2056 C2055 1.396 . S
C2056 C2057 1.399 . S
C2057 H2043 0.929 . S
C2057 C2056 1.399 . S
C2057 C2058 1.385 . S
C2058 H2044 0.931 . S
C2058 C2057 1.385 . S
C2058 C2059 1.389 . S
C2059 C2058 1.389 . S
C2059 C2060 1.387 . S
C2060 H2045 0.930 . S
C2060 C2055 1.390 . S
C2060 C2059 1.387 . S
H2061 C2073 0.930 . S
H2062 C2075 0.930 . S
H2063 C2076 0.930 . S
H2064 C2080 0.959 . S
H2065 C2080 0.959 . S
H2066 C2080 0.961 . S
H2067 C2081 0.960 . S
H2068 C2081 0.961 . S
H2069 C2081 0.959 . S
H2070 C2084 0.929 . S
H2071 C2085 0.931 . S
H2072 C2087 0.930 . S
C2073 H2061 0.930 . S
C2073 C2074 1.399 . S
C2073 C2078 1.399 . S
C2074 C2073 1.399 . S
C2074 C2075 1.376 . S
C2075 H2062 0.930 . S
C2075 C2074 1.376 . S
C2075 C2076 1.388 . S
C2076 H2063 0.930 . S
C2076 C2075 1.388 . S
C2076 C2077 1.390 . S
C2077 C2076 1.390 . S
C2077 C2078 1.394 . S
C2077 C2083 1.465 . S
C2078 C2073 1.399 . S
C2078 C2077 1.394 . S
C2078 C2079 1.516 . S
C2079 C2078 1.516 . S
C2079 C2080 1.502 . S
C2079 C2081 1.561 . S
C2079 C2082 1.526 . S
C2080 H2064 0.959 . S
C2080 H2065 0.959 . S
C2080 H2066 0.961 . S
C2080 C2079 1.502 . S
C2081 H2067 0.960 . S
C2081 H2068 0.961 . S
C2081 H2069 0.959 . S
C2081 C2079 1.561 . S
C2082 C2079 1.526 . S
C2082 C2083 1.396 . S
C2082 C2087 1.390 . S
C2083 C2077 1.465 . S
C2083 C2082 1.396 . S
C2083 C2084 1.399 . S
C2084 H2070 0.929 . S
C2084 C2083 1.399 . S
C2084 C2085 1.385 . S
C2085 H2071 0.931 . S
C2085 C2084 1.385 . S
C2085 C2086 1.389 . S
C2086 C2085 1.389 . S
C2086 C2087 1.387 . S
C2087 H2072 0.930 . S
C2087 C2082 1.390 . S
C2087 C2086 1.387 . S
H2088 C2100 0.930 . S
H2089 C2102 0.930 . S
H2090 C2103 0.930 . S
H2091 C2107 0.959 . S
H2092 C2107 0.959 . S
H2093 C2107 0.961 . S
H2094 C2108 0.960 . S
H2095 C2108 0.961 . S
H2096 C2108 0.959 . S
H2097 C2111 0.929 . S
H2098 C2112 0.931 . S
H2099 C2114 0.930 . S
C2100 H2088 0.930 . S
C2100 C2101 1.399 . S
C2100 C2105 1.399 . S
C2101 C2100 1.399 . S
C2101 C2102 1.376 . S
C2102 H2089 0.930 . S
C2102 C2101 1.376 . S
C2102 C2103 1.388 . S
C2103 H2090 0.930 . S
C2103 C2102 1.388 . S
C2103 C2104 1.390 . S
C2104 C2103 1.390 . S
C2104 C2105 1.394 . S
C2104 C2110 1.465 . S
C2105 C2100 1.399 . S
C2105 C2104 1.394 . S
C2105 C2106 1.516 . S
C2106 C2105 1.516 . S
C2106 C2107 1.502 . S
C2106 C2108 1.561 . S
C2106 C2109 1.526 . S
C2107 H2091 0.959 . S
C2107 H2092 0.959 . S
C2107 H2093 0.961 . S
C2107 C2106 1.502 . S
C2108 H2094 0.960 . S
C2108 H2095 0.961 . S
C2108 H2096 0.959 . S
C2108 C2106 1.561 . S
C2109 C2106 1.526 . S
C2109 C2110 1.396 . S
C2109 C2114 1.390 . S
C2110 C2104 1.465 . S
C2110 C2109 1.396 . S
C2110 C2111 1.399 . S
C2111 H2097 0.929 . S
C2111 C2110 1.399 . S
C2111 C2112 1.385 . S
C2112 H2098 0.931 . S
C2112 C2111 1.385 . S
C2112 C2113 1.389 . S
C2113 C2112 1.389 . S
C2113 C2114 1.387 . S
C2114 H2099 0.930 . S
C2114 C2109 1.390 . S
C2114 C2113 1.387 . S
H2115 C2127 0.930 . S
H2116 C2129 0.930 . S
H2117 C2130 0.930 . S
H2118 C2134 0.959 . S
H2119 C2134 0.959 . S
H2120 C2134 0.961 . S
H2121 C2135 0.960 . S
H2122 C2135 0.961 . S
H2123 C2135 0.959 . S
H2124 C2138 0.929 . S
H2125 C2139 0.931 . S
H2126 C2141 0.930 . S
C2127 H2115 0.930 . S
C2127 C2128 1.399 . S
C2127 C2132 1.399 . S
C2128 C2127 1.399 . S
C2128 C2129 1.376 . S
C2129 H2116 0.930 . S
C2129 C2128 1.376 . S
C2129 C2130 1.388 . S
C2130 H2117 0.930 . S
C2130 C2129 1.388 . S
C2130 C2131 1.390 . S
C2131 C2130 1.390 . S
C2131 C2132 1.394 . S
C2131 C2137 1.465 . S
C2132 C2127 1.399 . S
C2132 C2131 1.394 . S
C2132 C2133 1.516 . S
C2133 C2132 1.516 . S
C2133 C2134 1.502 . S
C2133 C2135 1.561 . S
C2133 C2136 1.526 . S
C2134 H2118 0.959 . S
C2134 H2119 0.959 . S
C2134 H2120 0.961 . S
C2134 C2133 1.502 . S
C2135 H2121 0.960 . S
C2135 H2122 0.961 . S
C2135 H2123 0.959 . S
C2135 C2133 1.561 . S
C2136 C2133 1.526 . S
C2136 C2137 1.396 . S
C2136 C2141 1.390 . S
C2137 C2131 1.465 . S
C2137 C2136 1.396 . S
C2137 C2138 1.399 . S
C2138 H2124 0.929 . S
C2138 C2137 1.399 . S
C2138 C2139 1.385 . S
C2139 H2125 0.931 . S
C2139 C2138 1.385 . S
C2139 C2140 1.389 . S
C2140 C2139 1.389 . S
C2140 C2141 1.387 . S
C2141 H2126 0.930 . S
C2141 C2136 1.390 . S
C2141 C2140 1.387 . S
H2142 C2154 0.930 . S
H2143 C2156 0.930 . S
H2144 C2157 0.930 . S
H2145 C2161 0.959 . S
H2146 C2161 0.959 . S
H2147 C2161 0.961 . S
H2148 C2162 0.960 . S
H2149 C2162 0.961 . S
H2150 C2162 0.959 . S
H2151 C2165 0.929 . S
H2152 C2166 0.931 . S
H2153 C2168 0.930 . S
C2154 H2142 0.930 . S
C2154 C2155 1.399 . S
C2154 C2159 1.399 . S
C2155 C2154 1.399 . S
C2155 C2156 1.376 . S
C2156 H2143 0.930 . S
C2156 C2155 1.376 . S
C2156 C2157 1.388 . S
C2157 H2144 0.930 . S
C2157 C2156 1.388 . S
C2157 C2158 1.390 . S
C2158 C2157 1.390 . S
C2158 C2159 1.394 . S
C2158 C2164 1.465 . S
C2159 C2154 1.399 . S
C2159 C2158 1.394 . S
C2159 C2160 1.516 . S
C2160 C2159 1.516 . S
C2160 C2161 1.502 . S
C2160 C2162 1.561 . S
C2160 C2163 1.526 . S
C2161 H2145 0.959 . S
C2161 H2146 0.959 . S
C2161 H2147 0.961 . S
C2161 C2160 1.502 . S
C2162 H2148 0.960 . S
C2162 H2149 0.961 . S
C2162 H2150 0.959 . S
C2162 C2160 1.561 . S
C2163 C2160 1.526 . S
C2163 C2164 1.396 . S
C2163 C2168 1.390 . S
C2164 C2158 1.465 . S
C2164 C2163 1.396 . S
C2164 C2165 1.399 . S
C2165 H2151 0.929 . S
C2165 C2164 1.399 . S
C2165 C2166 1.385 . S
C2166 H2152 0.931 . S
C2166 C2165 1.385 . S
C2166 C2167 1.389 . S
C2167 C2166 1.389 . S
C2167 C2168 1.387 . S
C2168 H2153 0.930 . S
C2168 C2163 1.390 . S
C2168 C2167 1.387 . S
H2169 C2181 0.930 . S
H2170 C2183 0.930 . S
H2171 C2184 0.930 . S
H2172 C2188 0.959 . S
H2173 C2188 0.959 . S
H2174 C2188 0.961 . S
H2175 C2189 0.960 . S
H2176 C2189 0.961 . S
H2177 C2189 0.959 . S
H2178 C2192 0.929 . S
H2179 C2193 0.931 . S
H2180 C2195 0.930 . S
C2181 H2169 0.930 . S
C2181 C2182 1.399 . S
C2181 C2186 1.399 . S
C2182 C2181 1.399 . S
C2182 C2183 1.376 . S
C2183 H2170 0.930 . S
C2183 C2182 1.376 . S
C2183 C2184 1.388 . S
C2184 H2171 0.930 . S
C2184 C2183 1.388 . S
C2184 C2185 1.390 . S
C2185 C2184 1.390 . S
C2185 C2186 1.394 . S
C2185 C2191 1.465 . S
C2186 C2181 1.399 . S
C2186 C2185 1.394 . S
C2186 C2187 1.516 . S
C2187 C2186 1.516 . S
C2187 C2188 1.502 . S
C2187 C2189 1.561 . S
C2187 C2190 1.526 . S
C2188 H2172 0.959 . S
C2188 H2173 0.959 . S
C2188 H2174 0.961 . S
C2188 C2187 1.502 . S
C2189 H2175 0.960 . S
C2189 H2176 0.961 . S
C2189 H2177 0.959 . S
C2189 C2187 1.561 . S
C2190 C2187 1.526 . S
C2190 C2191 1.396 . S
C2190 C2195 1.390 . S
C2191 C2185 1.465 . S
C2191 C2190 1.396 . S
C2191 C2192 1.399 . S
C2192 H2178 0.929 . S
C2192 C2191 1.399 . S
C2192 C2193 1.385 . S
C2193 H2179 0.931 . S
C2193 C2192 1.385 . S
C2193 C2194 1.389 . S
C2194 C2193 1.389 . S
C2194 C2195 1.387 . S
C2195 H2180 0.930 . S
C2195 C2190 1.390 . S
C2195 C2194 1.387 . S
H2196 C2208 0.930 . S
H2197 C2210 0.930 . S
H2198 C2211 0.930 . S
H2199 C2215 0.959 . S
H2200 C2215 0.959 . S
H2201 C2215 0.961 . S
H2202 C2216 0.960 . S
H2203 C2216 0.961 . S
H2204 C2216 0.959 . S
H2205 C2219 0.929 . S
H2206 C2220 0.931 . S
H2207 C2222 0.930 . S
C2208 H2196 0.930 . S
C2208 C2209 1.399 . S
C2208 C2213 1.399 . S
C2209 C2208 1.399 . S
C2209 C2210 1.376 . S
C2210 H2197 0.930 . S
C2210 C2209 1.376 . S
C2210 C2211 1.388 . S
C2211 H2198 0.930 . S
C2211 C2210 1.388 . S
C2211 C2212 1.390 . S
C2212 C2211 1.390 . S
C2212 C2213 1.394 . S
C2212 C2218 1.465 . S
C2213 C2208 1.399 . S
C2213 C2212 1.394 . S
C2213 C2214 1.516 . S
C2214 C2213 1.516 . S
C2214 C2215 1.502 . S
C2214 C2216 1.561 . S
C2214 C2217 1.526 . S
C2215 H2199 0.959 . S
C2215 H2200 0.959 . S
C2215 H2201 0.961 . S
C2215 C2214 1.502 . S
C2216 H2202 0.960 . S
C2216 H2203 0.961 . S
C2216 H2204 0.959 . S
C2216 C2214 1.561 . S
C2217 C2214 1.526 . S
C2217 C2218 1.396 . S
C2217 C2222 1.390 . S
C2218 C2212 1.465 . S
C2218 C2217 1.396 . S
C2218 C2219 1.399 . S
C2219 H2205 0.929 . S
C2219 C2218 1.399 . S
C2219 C2220 1.385 . S
C2220 H2206 0.931 . S
C2220 C2219 1.385 . S
C2220 C2221 1.389 . S
C2221 C2220 1.389 . S
C2221 C2222 1.387 . S
C2222 H2207 0.930 . S
C2222 C2217 1.390 . S
C2222 C2221 1.387 . S
H2223 C2235 0.930 . S
H2224 C2237 0.930 . S
H2225 C2238 0.930 . S
H2226 C2242 0.959 . S
H2227 C2242 0.959 . S
H2228 C2242 0.961 . S
H2229 C2243 0.960 . S
H2230 C2243 0.961 . S
H2231 C2243 0.959 . S
H2232 C2246 0.929 . S
H2233 C2247 0.931 . S
H2234 C2249 0.930 . S
C2235 H2223 0.930 . S
C2235 C2236 1.399 . S
C2235 C2240 1.399 . S
C2236 C2235 1.399 . S
C2236 C2237 1.376 . S
C2237 H2224 0.930 . S
C2237 C2236 1.376 . S
C2237 C2238 1.388 . S
C2238 H2225 0.930 . S
C2238 C2237 1.388 . S
C2238 C2239 1.390 . S
C2239 C2238 1.390 . S
C2239 C2240 1.394 . S
C2239 C2245 1.465 . S
C2240 C2235 1.399 . S
C2240 C2239 1.394 . S
C2240 C2241 1.516 . S
C2241 C2240 1.516 . S
C2241 C2242 1.502 . S
C2241 C2243 1.561 . S
C2241 C2244 1.526 . S
C2242 H2226 0.959 . S
C2242 H2227 0.959 . S
C2242 H2228 0.961 . S
C2242 C2241 1.502 . S
C2243 H2229 0.960 . S
C2243 H2230 0.961 . S
C2243 H2231 0.959 . S
C2243 C2241 1.561 . S
C2244 C2241 1.526 . S
C2244 C2245 1.396 . S
C2244 C2249 1.390 . S
C2245 C2239 1.465 . S
C2245 C2244 1.396 . S
C2245 C2246 1.399 . S
C2246 H2232 0.929 . S
C2246 C2245 1.399 . S
C2246 C2247 1.385 . S
C2247 H2233 0.931 . S
C2247 C2246 1.385 . S
C2247 C2248 1.389 . S
C2248 C2247 1.389 . S
C2248 C2249 1.387 . S
C2249 H2234 0.930 . S
C2249 C2244 1.390 . S
C2249 C2248 1.387 . S
H2250 C2262 0.930 . S
H2251 C2264 0.930 . S
H2252 C2265 0.930 . S
H2253 C2269 0.959 . S
H2254 C2269 0.959 . S
H2255 C2269 0.961 . S
H2256 C2270 0.960 . S
H2257 C2270 0.961 . S
H2258 C2270 0.959 . S
H2259 C2273 0.929 . S
H2260 C2274 0.931 . S
H2261 C2276 0.930 . S
C2262 H2250 0.930 . S
C2262 C2263 1.399 . S
C2262 C2267 1.399 . S
C2263 C2262 1.399 . S
C2263 C2264 1.376 . S
C2264 H2251 0.930 . S
C2264 C2263 1.376 . S
C2264 C2265 1.388 . S
C2265 H2252 0.930 . S
C2265 C2264 1.388 . S
C2265 C2266 1.390 . S
C2266 C2265 1.390 . S
C2266 C2267 1.394 . S
C2266 C2272 1.465 . S
C2267 C2262 1.399 . S
C2267 C2266 1.394 . S
C2267 C2268 1.516 . S
C2268 C2267 1.516 . S
C2268 C2269 1.502 . S
C2268 C2270 1.561 . S
C2268 C2271 1.526 . S
C2269 H2253 0.959 . S
C2269 H2254 0.959 . S
C2269 H2255 0.961 . S
C2269 C2268 1.502 . S
C2270 H2256 0.960 . S
C2270 H2257 0.961 . S
C2270 H2258 0.959 . S
C2270 C2268 1.561 . S
C2271 C2268 1.526 . S
C2271 C2272 1.396 . S
C2271 C2276 1.390 . S
C2272 C2266 1.465 . S
C2272 C2271 1.396 . S
C2272 C2273 1.399 . S
C2273 H2259 0.929 . S
C2273 C2272 1.399 . S
C2273 C2274 1.385 . S
C2274 H2260 0.931 . S
C2274 C2273 1.385 . S
C2274 C2275 1.389 . S
C2275 C2274 1.389 . S
C2275 C2276 1.387 . S
C2276 H2261 0.930 . S
C2276 C2271 1.390 . S
C2276 C2275 1.387 . S
H2277 C2289 0.930 . S
H2278 C2291 0.930 . S
H2279 C2292 0.930 . S
H2280 C2296 0.959 . S
H2281 C2296 0.959 . S
H2282 C2296 0.961 . S
H2283 C2297 0.960 . S
H2284 C2297 0.961 . S
H2285 C2297 0.959 . S
H2286 C2300 0.929 . S
H2287 C2301 0.931 . S
H2288 C2303 0.930 . S
C2289 H2277 0.930 . S
C2289 C2290 1.399 . S
C2289 C2294 1.399 . S
C2290 C2289 1.399 . S
C2290 C2291 1.376 . S
C2291 H2278 0.930 . S
C2291 C2290 1.376 . S
C2291 C2292 1.388 . S
C2292 H2279 0.930 . S
C2292 C2291 1.388 . S
C2292 C2293 1.390 . S
C2293 C2292 1.390 . S
C2293 C2294 1.394 . S
C2293 C2299 1.465 . S
C2294 C2289 1.399 . S
C2294 C2293 1.394 . S
C2294 C2295 1.516 . S
C2295 C2294 1.516 . S
C2295 C2296 1.502 . S
C2295 C2297 1.561 . S
C2295 C2298 1.526 . S
C2296 H2280 0.959 . S
C2296 H2281 0.959 . S
C2296 H2282 0.961 . S
C2296 C2295 1.502 . S
C2297 H2283 0.960 . S
C2297 H2284 0.961 . S
C2297 H2285 0.959 . S
C2297 C2295 1.561 . S
C2298 C2295 1.526 . S
C2298 C2299 1.396 . S
C2298 C2303 1.390 . S
C2299 C2293 1.465 . S
C2299 C2298 1.396 . S
C2299 C2300 1.399 . S
C2300 H2286 0.929 . S
C2300 C2299 1.399 . S
C2300 C2301 1.385 . S
C2301 H2287 0.931 . S
C2301 C2300 1.385 . S
C2301 C2302 1.389 . S
C2302 C2301 1.389 . S
C2302 C2303 1.387 . S
C2303 H2288 0.930 . S
C2303 C2298 1.390 . S
C2303 C2302 1.387 . S
H2304 C2316 0.930 . S
H2305 C2318 0.930 . S
H2306 C2319 0.930 . S
H2307 C2323 0.959 . S
H2308 C2323 0.959 . S
H2309 C2323 0.961 . S
H2310 C2324 0.960 . S
H2311 C2324 0.961 . S
H2312 C2324 0.959 . S
H2313 C2327 0.929 . S
H2314 C2328 0.931 . S
H2315 C2330 0.930 . S
C2316 H2304 0.930 . S
C2316 C2317 1.399 . S
C2316 C2321 1.399 . S
C2317 C2316 1.399 . S
C2317 C2318 1.376 . S
C2318 H2305 0.930 . S
C2318 C2317 1.376 . S
C2318 C2319 1.388 . S
C2319 H2306 0.930 . S
C2319 C2318 1.388 . S
C2319 C2320 1.390 . S
C2320 C2319 1.390 . S
C2320 C2321 1.394 . S
C2320 C2326 1.465 . S
C2321 C2316 1.399 . S
C2321 C2320 1.394 . S
C2321 C2322 1.516 . S
C2322 C2321 1.516 . S
C2322 C2323 1.502 . S
C2322 C2324 1.561 . S
C2322 C2325 1.526 . S
C2323 H2307 0.959 . S
C2323 H2308 0.959 . S
C2323 H2309 0.961 . S
C2323 C2322 1.502 . S
C2324 H2310 0.960 . S
C2324 H2311 0.961 . S
C2324 H2312 0.959 . S
C2324 C2322 1.561 . S
C2325 C2322 1.526 . S
C2325 C2326 1.396 . S
C2325 C2330 1.390 . S
C2326 C2320 1.465 . S
C2326 C2325 1.396 . S
C2326 C2327 1.399 . S
C2327 H2313 0.929 . S
C2327 C2326 1.399 . S
C2327 C2328 1.385 . S
C2328 H2314 0.931 . S
C2328 C2327 1.385 . S
C2328 C2329 1.389 . S
C2329 C2328 1.389 . S
C2329 C2330 1.387 . S
C2330 H2315 0.930 . S
C2330 C2325 1.390 . S
C2330 C2329 1.387 . S
H2331 C2343 0.930 . S
H2332 C2345 0.930 . S
H2333 C2346 0.930 . S
H2334 C2350 0.959 . S
H2335 C2350 0.959 . S
H2336 C2350 0.961 . S
H2337 C2351 0.960 . S
H2338 C2351 0.961 . S
H2339 C2351 0.959 . S
H2340 C2354 0.929 . S
H2341 C2355 0.931 . S
H2342 C2357 0.930 . S
C2343 H2331 0.930 . S
C2343 C2344 1.399 . S
C2343 C2348 1.399 . S
C2344 C2343 1.399 . S
C2344 C2345 1.376 . S
C2345 H2332 0.930 . S
C2345 C2344 1.376 . S
C2345 C2346 1.388 . S
C2346 H2333 0.930 . S
C2346 C2345 1.388 . S
C2346 C2347 1.390 . S
C2347 C2346 1.390 . S
C2347 C2348 1.394 . S
C2347 C2353 1.465 . S
C2348 C2343 1.399 . S
C2348 C2347 1.394 . S
C2348 C2349 1.516 . S
C2349 C2348 1.516 . S
C2349 C2350 1.502 . S
C2349 C2351 1.561 . S
C2349 C2352 1.526 . S
C2350 H2334 0.959 . S
C2350 H2335 0.959 . S
C2350 H2336 0.961 . S
C2350 C2349 1.502 . S
C2351 H2337 0.960 . S
C2351 H2338 0.961 . S
C2351 H2339 0.959 . S
C2351 C2349 1.561 . S
C2352 C2349 1.526 . S
C2352 C2353 1.396 . S
C2352 C2357 1.390 . S
C2353 C2347 1.465 . S
C2353 C2352 1.396 . S
C2353 C2354 1.399 . S
C2354 H2340 0.929 . S
C2354 C2353 1.399 . S
C2354 C2355 1.385 . S
C2355 H2341 0.931 . S
C2355 C2354 1.385 . S
C2355 C2356 1.389 . S
C2356 C2355 1.389 . S
C2356 C2357 1.387 . S
C2357 H2342 0.930 . S
C2357 C2352 1.390 . S
C2357 C2356 1.387 . S
H2358 C2370 0.930 . S
H2359 C2372 0.930 . S
H2360 C2373 0.930 . S
H2361 C2377 0.959 . S
H2362 C2377 0.959 . S
H2363 C2377 0.961 . S
H2364 C2378 0.960 . S
H2365 C2378 0.961 . S
H2366 C2378 0.959 . S
H2367 C2381 0.929 . S
H2368 C2382 0.931 . S
H2369 C2384 0.930 . S
C2370 H2358 0.930 . S
C2370 C2371 1.399 . S
C2370 C2375 1.399 . S
C2371 C2370 1.399 . S
C2371 C2372 1.376 . S
C2372 H2359 0.930 . S
C2372 C2371 1.376 . S
C2372 C2373 1.388 . S
C2373 H2360 0.930 . S
C2373 C2372 1.388 . S
C2373 C2374 1.390 . S
C2374 C2373 1.390 . S
C2374 C2375 1.394 . S
C2374 C2380 1.465 . S
C2375 C2370 1.399 . S
C2375 C2374 1.394 . S
C2375 C2376 1.516 . S
C2376 C2375 1.516 . S
C2376 C2377 1.502 . S
C2376 C2378 1.561 . S
C2376 C2379 1.526 . S
C2377 H2361 0.959 . S
C2377 H2362 0.959 . S
C2377 H2363 0.961 . S
C2377 C2376 1.502 . S
C2378 H2364 0.960 . S
C2378 H2365 0.961 . S
C2378 H2366 0.959 . S
C2378 C2376 1.561 . S
C2379 C2376 1.526 . S
C2379 C2380 1.396 . S
C2379 C2384 1.390 . S
C2380 C2374 1.465 . S
C2380 C2379 1.396 . S
C2380 C2381 1.399 . S
C2381 H2367 0.929 . S
C2381 C2380 1.399 . S
C2381 C2382 1.385 . S
C2382 H2368 0.931 . S
C2382 C2381 1.385 . S
C2382 C2383 1.389 . S
C2383 C2382 1.389 . S
C2383 C2384 1.387 . S
C2384 H2369 0.930 . S
C2384 C2379 1.390 . S
C2384 C2383 1.387 . S
H2385 C2397 0.930 . S
H2386 C2399 0.930 . S
H2387 C2400 0.930 . S
H2388 C2404 0.959 . S
H2389 C2404 0.959 . S
H2390 C2404 0.961 . S
H2391 C2405 0.960 . S
H2392 C2405 0.961 . S
H2393 C2405 0.959 . S
H2394 C2408 0.929 . S
H2395 C2409 0.931 . S
H2396 C2411 0.930 . S
C2397 H2385 0.930 . S
C2397 C2398 1.399 . S
C2397 C2402 1.399 . S
C2398 C2397 1.399 . S
C2398 C2399 1.376 . S
C2399 H2386 0.930 . S
C2399 C2398 1.376 . S
C2399 C2400 1.388 . S
C2400 H2387 0.930 . S
C2400 C2399 1.388 . S
C2400 C2401 1.390 . S
C2401 C2400 1.390 . S
C2401 C2402 1.394 . S
C2401 C2407 1.465 . S
C2402 C2397 1.399 . S
C2402 C2401 1.394 . S
C2402 C2403 1.516 . S
C2403 C2402 1.516 . S
C2403 C2404 1.502 . S
C2403 C2405 1.561 . S
C2403 C2406 1.526 . S
C2404 H2388 0.959 . S
C2404 H2389 0.959 . S
C2404 H2390 0.961 . S
C2404 C2403 1.502 . S
C2405 H2391 0.960 . S
C2405 H2392 0.961 . S
C2405 H2393 0.959 . S
C2405 C2403 1.561 . S
C2406 C2403 1.526 . S
C2406 C2407 1.396 . S
C2406 C2411 1.390 . S
C2407 C2401 1.465 . S
C2407 C2406 1.396 . S
C2407 C2408 1.399 . S
C2408 H2394 0.929 . S
C2408 C2407 1.399 . S
C2408 C2409 1.385 . S
C2409 H2395 0.931 . S
C2409 C2408 1.385 . S
C2409 C2410 1.389 . S
C2410 C2409 1.389 . S
C2410 C2411 1.387 . S
C2411 H2396 0.930 . S
C2411 C2406 1.390 . S
C2411 C2410 1.387 . S
C967 C147 1.436 . S
C979 C254 1.362 . S
C994 C158 1.465 . S
C1006 C338 1.414 . S
C1021 C136 1.425 . S
C1033 C432 1.441 . S
C1048 C125 1.435 . S
C1060 C348 1.429 1_556 S
C1087 C422 1.370 . S
C1075 C103 1.433 . S
C1102 C114 1.391 . S
C1114 C264 1.385 1_556 S
C1141 C265 1.432 . S
C1129 C131 1.484 . S
C1168 C349 1.448 . S
C1156 C109 1.506 . S
C1183 C120 1.515 . S
C1195 C441 1.435 1_556 S
C1210 C153 1.463 . S
C1222 C357 1.469 . S
C1237 C164 1.451 . S
C1249 C433 1.366 . S
C1276 C273 1.391 . S
C1264 C142 1.458 . S
C1303 C506 1.347 . S
C1291 C15 1.432 . S
C1318 C26 1.470 . S
C1330 C590 1.407 . S
C1345 C4 1.456 . S
C1357 C684 1.433 . S
C1372 C191 1.439 . S
C1384 C600 1.413 . S
C1399 C169 1.434 . S
C1411 C674 1.398 . S
C1426 C180 1.414 . S
C1438 C516 1.402 . S
C1453 C197 1.497 . S
C1465 C517 1.457 . S
C1480 C175 1.520 . S
C1492 C601 1.452 . S
C1519 C693 1.451 . S
C1507 C186 1.531 . S
C1534 C21 1.505 . S
C1546 C609 1.437 . S
C1573 C685 1.443 . S
C1561 C32 1.481 . S
C1588 C10 1.445 . S
C1600 C525 1.458 . S
C1627 C758 1.426 . S
C1615 C81 1.457 . S
C1642 C92 1.480 . S
C1654 C842 1.453 . S
C1681 C936 1.423 . S
C1669 C70 1.432 . S
C1708 C852 1.427 . S
C1696 C59 1.436 . S
C1735 C926 1.374 . S
C1723 C37 1.434 . S
C1750 C48 1.391 . S
C1762 C768 1.385 . S
C1777 C65 1.475 . S
C1789 C769 1.406 . S
C1804 C43 1.515 . S
C1816 C853 1.442 . S
C1843 C945 1.449 . S
C1831 C54 1.531 . S
C1858 C87 1.503 . S
C1870 C861 1.424 . S
C1885 C98 1.452 . S
C1897 C937 1.372 . S
C1912 C76 1.476 . S
C1924 C777 1.454 . S
C1939 C170 1.543 . S
C1951 C261 1.458 . S
C1978 C345 1.480 . S
C1966 C181 1.625 . S
C1993 C192 1.555 . S
C2005 C438 1.444 . S
C2020 C71 1.586 . S
C2032 C354 1.444 . S
C2047 C82 1.586 . S
C2059 C429 1.447 . S
C2086 C270 1.301 . S
C2074 C93 1.511 . S
C2101 C38 1.562 . S
C2113 C513 1.488 . S
C2128 C49 1.590 . S
C2140 C597 1.477 . S
C2155 C60 1.572 . S
C2167 C690 1.334 . S
C2182 C137 1.566 . S
C2194 C606 1.447 . S
C2221 C681 1.418 . S
C2209 C148 1.550 . S
C2236 C159 1.542 . S
C2248 C522 1.386 . S
C2263 C104 1.532 . S
C2275 C765 1.379 . S
C2290 C115 1.625 . S
C2302 C849 1.481 . S
C2329 C942 1.444 . S
C2317 C126 1.558 . S
C2344 C5 1.594 . S
C2356 C858 1.417 . S
C2371 C16 1.587 . S
C2383 C933 1.456 . S
C2398 C27 1.540 . S
C2410 C774 1.397 . S
