# Generated by pormake.
# Topology ctn, (3,4)-cn, num edge types: 1
# Building blocks:
#     Node 0, Type 0, BuildingBlock: BETDIP_clean_linker_0, # of connection points: 3
#     Node 1, Type 0, BuildingBlock: BETDIP_clean_linker_0, # of connection points: 3
#     Node 2, Type 0, BuildingBlock: BETDIP_clean_linker_0, # of connection points: 3
#     Node 3, Type 0, BuildingBlock: BETDIP_clean_linker_0, # of connection points: 3
#     Node 4, Type 0, BuildingBlock: BETDIP_clean_linker_0, # of connection points: 3
#     Node 5, Type 0, BuildingBlock: BETDIP_clean_linker_0, # of connection points: 3
#     Node 6, Type 0, BuildingBlock: BETDIP_clean_linker_0, # of connection points: 3
#     Node 7, Type 0, BuildingBlock: BETDIP_clean_linker_0, # of connection points: 3
#     Node 8, Type 0, BuildingBlock: BETDIP_clean_linker_0, # of connection points: 3
#     Node 9, Type 0, BuildingBlock: BETDIP_clean_linker_0, # of connection points: 3
#     Node 10, Type 0, BuildingBlock: BETDIP_clean_linker_0, # of connection points: 3
#     Node 11, Type 0, BuildingBlock: BETDIP_clean_linker_0, # of connection points: 3
#     Node 12, Type 0, BuildingBlock: BETDIP_clean_linker_0, # of connection points: 3
#     Node 13, Type 0, BuildingBlock: BETDIP_clean_linker_0, # of connection points: 3
#     Node 14, Type 0, BuildingBlock: BETDIP_clean_linker_0, # of connection points: 3
#     Node 15, Type 0, BuildingBlock: BETDIP_clean_linker_0, # of connection points: 3
#     Node 16, Type 1, BuildingBlock: UXUYUI_clean_sbu_0, # of connection points: 4
#     Node 17, Type 1, BuildingBlock: UXUYUI_clean_sbu_0, # of connection points: 4
#     Node 18, Type 1, BuildingBlock: UXUYUI_clean_sbu_0, # of connection points: 4
#     Node 19, Type 1, BuildingBlock: UXUYUI_clean_sbu_0, # of connection points: 4
#     Node 20, Type 1, BuildingBlock: UXUYUI_clean_sbu_0, # of connection points: 4
#     Node 21, Type 1, BuildingBlock: UXUYUI_clean_sbu_0, # of connection points: 4
#     Node 22, Type 1, BuildingBlock: UXUYUI_clean_sbu_0, # of connection points: 4
#     Node 23, Type 1, BuildingBlock: UXUYUI_clean_sbu_0, # of connection points: 4
#     Node 24, Type 1, BuildingBlock: UXUYUI_clean_sbu_0, # of connection points: 4
#     Node 25, Type 1, BuildingBlock: UXUYUI_clean_sbu_0, # of connection points: 4
#     Node 26, Type 1, BuildingBlock: UXUYUI_clean_sbu_0, # of connection points: 4
#     Node 27, Type 1, BuildingBlock: UXUYUI_clean_sbu_0, # of connection points: 4
#     Edge 28, Type (0, 1), BuildingBlock: XIVTED_clean_linker_0, # of connection points: 2
#     Edge 29, Type (0, 1), BuildingBlock: XIVTED_clean_linker_0, # of connection points: 2
#     Edge 30, Type (0, 1), BuildingBlock: XIVTED_clean_linker_0, # of connection points: 2
#     Edge 31, Type (0, 1), BuildingBlock: XIVTED_clean_linker_0, # of connection points: 2
#     Edge 32, Type (0, 1), BuildingBlock: XIVTED_clean_linker_0, # of connection points: 2
#     Edge 33, Type (0, 1), BuildingBlock: XIVTED_clean_linker_0, # of connection points: 2
#     Edge 34, Type (0, 1), BuildingBlock: XIVTED_clean_linker_0, # of connection points: 2
#     Edge 35, Type (0, 1), BuildingBlock: XIVTED_clean_linker_0, # of connection points: 2
#     Edge 36, Type (0, 1), BuildingBlock: XIVTED_clean_linker_0, # of connection points: 2
#     Edge 37, Type (0, 1), BuildingBlock: XIVTED_clean_linker_0, # of connection points: 2
#     Edge 38, Type (0, 1), BuildingBlock: XIVTED_clean_linker_0, # of connection points: 2
#     Edge 39, Type (0, 1), BuildingBlock: XIVTED_clean_linker_0, # of connection points: 2
#     Edge 40, Type (0, 1), BuildingBlock: XIVTED_clean_linker_0, # of connection points: 2
#     Edge 41, Type (0, 1), BuildingBlock: XIVTED_clean_linker_0, # of connection points: 2
#     Edge 42, Type (0, 1), BuildingBlock: XIVTED_clean_linker_0, # of connection points: 2
#     Edge 43, Type (0, 1), BuildingBlock: XIVTED_clean_linker_0, # of connection points: 2
#     Edge 44, Type (0, 1), BuildingBlock: XIVTED_clean_linker_0, # of connection points: 2
#     Edge 45, Type (0, 1), BuildingBlock: XIVTED_clean_linker_0, # of connection points: 2
#     Edge 46, Type (0, 1), BuildingBlock: XIVTED_clean_linker_0, # of connection points: 2
#     Edge 47, Type (0, 1), BuildingBlock: XIVTED_clean_linker_0, # of connection points: 2
#     Edge 48, Type (0, 1), BuildingBlock: XIVTED_clean_linker_0, # of connection points: 2
#     Edge 49, Type (0, 1), BuildingBlock: XIVTED_clean_linker_0, # of connection points: 2
#     Edge 50, Type (0, 1), BuildingBlock: XIVTED_clean_linker_0, # of connection points: 2
#     Edge 51, Type (0, 1), BuildingBlock: XIVTED_clean_linker_0, # of connection points: 2
#     Edge 52, Type (0, 1), BuildingBlock: XIVTED_clean_linker_0, # of connection points: 2
#     Edge 53, Type (0, 1), BuildingBlock: XIVTED_clean_linker_0, # of connection points: 2
#     Edge 54, Type (0, 1), BuildingBlock: XIVTED_clean_linker_0, # of connection points: 2
#     Edge 55, Type (0, 1), BuildingBlock: XIVTED_clean_linker_0, # of connection points: 2
#     Edge 56, Type (0, 1), BuildingBlock: XIVTED_clean_linker_0, # of connection points: 2
#     Edge 57, Type (0, 1), BuildingBlock: XIVTED_clean_linker_0, # of connection points: 2
#     Edge 58, Type (0, 1), BuildingBlock: XIVTED_clean_linker_0, # of connection points: 2
#     Edge 59, Type (0, 1), BuildingBlock: XIVTED_clean_linker_0, # of connection points: 2
#     Edge 60, Type (0, 1), BuildingBlock: XIVTED_clean_linker_0, # of connection points: 2
#     Edge 61, Type (0, 1), BuildingBlock: XIVTED_clean_linker_0, # of connection points: 2
#     Edge 62, Type (0, 1), BuildingBlock: XIVTED_clean_linker_0, # of connection points: 2
#     Edge 63, Type (0, 1), BuildingBlock: XIVTED_clean_linker_0, # of connection points: 2
#     Edge 64, Type (0, 1), BuildingBlock: XIVTED_clean_linker_0, # of connection points: 2
#     Edge 65, Type (0, 1), BuildingBlock: XIVTED_clean_linker_0, # of connection points: 2
#     Edge 66, Type (0, 1), BuildingBlock: XIVTED_clean_linker_0, # of connection points: 2
#     Edge 67, Type (0, 1), BuildingBlock: XIVTED_clean_linker_0, # of connection points: 2
#     Edge 68, Type (0, 1), BuildingBlock: XIVTED_clean_linker_0, # of connection points: 2
#     Edge 69, Type (0, 1), BuildingBlock: XIVTED_clean_linker_0, # of connection points: 2
#     Edge 70, Type (0, 1), BuildingBlock: XIVTED_clean_linker_0, # of connection points: 2
#     Edge 71, Type (0, 1), BuildingBlock: XIVTED_clean_linker_0, # of connection points: 2
#     Edge 72, Type (0, 1), BuildingBlock: XIVTED_clean_linker_0, # of connection points: 2
#     Edge 73, Type (0, 1), BuildingBlock: XIVTED_clean_linker_0, # of connection points: 2
#     Edge 74, Type (0, 1), BuildingBlock: XIVTED_clean_linker_0, # of connection points: 2
#     Edge 75, Type (0, 1), BuildingBlock: XIVTED_clean_linker_0, # of connection points: 2
# Relax obj value: 0.068
# Max RMSD: 0.193
# Mean RMSD: 0.117
data_MOF--net-ctn--node1-UXUYUI_clean_sbu_0--node2-BETDIP_clean_linker_0--edge1-XIVTED_clean_linker_0
_symmetry_space_group_name_H-M    P1
_symmetry_Int_Tables_number       1
_symmetry_cell_setting            triclinic
loop_
_symmetry_equiv_pos_as_xyz
'x, y, z'
_cell_length_a     65.598856
_cell_length_b     65.86315
_cell_length_c     72.170005
_cell_angle_alpha  93.465724
_cell_angle_beta   93.680232
_cell_angle_gamma 92.902109
loop_
_atom_site_label
_atom_site_type_symbol
_atom_site_fract_x
_atom_site_fract_y
_atom_site_fract_z
_atom_type_partial_charge
H0 H 0.03432 0.06466 0.05926 0.0
H1 H 0.0799 0.04068 0.02532 0.0
H2 H 0.06393 0.01037 0.07391 0.0
H3 H 0.08525 0.07487 0.02083 0.0
C4 C 0.06952 0.07903 0.01844 0.0
C5 C 0.04534 0.05329 0.05665 0.0
C6 C 0.04783 0.03747 0.06871 0.0
C7 C 0.05706 0.05473 0.04121 0.0
C8 C 0.07101 0.03977 0.03739 0.0
C9 C 0.07354 0.0236 0.04903 0.0
C10 C 0.06194 0.02265 0.06474 0.0
N11 N 0.0542 0.07112 0.02952 0.0
H12 H 0.26991 0.69763 0.19769 0.0
H13 H 0.32693 0.73115 0.21316 0.0
H14 H 0.30687 0.68245 0.24584 0.0
H15 H 0.32593 0.73499 0.18193 0.0
C16 C 0.30994 0.73766 0.17863 0.0
C17 C 0.28361 0.70013 0.20694 0.0
C18 C 0.28665 0.68803 0.22215 0.0
C19 C 0.29816 0.71544 0.20342 0.0
C20 C 0.31576 0.71911 0.21557 0.0
C21 C 0.31903 0.70726 0.23094 0.0
C22 C 0.3044 0.69173 0.23408 0.0
N23 N 0.29443 0.72712 0.18774 0.0
H24 H 0.95996 0.49164 0.01012 0.0
H25 H 0.00611 0.46583 0.04479 0.0
H26 H 0.97481 0.51717 0.06603 0.0
H27 H 0.01929 0.45926 0.0163 0.0
C28 C 0.00543 0.4536 0.00818 0.0
C29 C 0.96894 0.49186 0.02328 0.0
C30 C 0.96546 0.50619 0.03783 0.0
C31 C 0.98393 0.47768 0.0255 0.0
C32 C 0.99522 0.47741 0.04268 0.0
C33 C 0.992 0.49153 0.05746 0.0
C34 C 0.97707 0.5059 0.0549 0.0
N35 N 0.98686 0.46342 0.01045 0.0
H36 H 0.71869 0.77204 0.19765 0.0
H37 H 0.73874 0.82462 0.23366 0.0
H38 H 0.76718 0.81303 0.18248 0.0
H39 H 0.72571 0.8066 0.25561 0.0
C40 C 0.7126 0.79776 0.24883 0.0
C41 C 0.72882 0.7855 0.20068 0.0
C42 C 0.74299 0.79119 0.18786 0.0
C43 C 0.72745 0.79713 0.21742 0.0
C44 C 0.74019 0.81495 0.22121 0.0
C45 C 0.75444 0.82086 0.20857 0.0
C46 C 0.75578 0.80885 0.192 0.0
N47 N 0.71265 0.79082 0.22978 0.0
H48 H 0.02928 0.96011 0.44779 0.0
H49 H 0.08013 0.98115 0.48577 0.0
H50 H 0.06982 0.00961 0.43422 0.0
H51 H 0.0582 0.96881 0.50674 0.0
C52 C 0.05262 0.95447 0.4995 0.0
C53 C 0.04261 0.97036 0.45118 0.0
C54 C 0.04787 0.98541 0.43906 0.0
C55 C 0.05399 0.96888 0.46811 0.0
C56 C 0.07116 0.98232 0.4728 0.0
C57 C 0.07686 0.99728 0.46074 0.0
C58 C 0.06518 0.99856 0.44387 0.0
N59 N 0.04801 0.95345 0.47993 0.0
H60 H 0.22415 0.74284 0.80564 0.0
H61 H 0.24652 0.69458 0.77137 0.0
H62 H 0.2761 0.71083 0.82546 0.0
H63 H 0.22725 0.70572 0.74885 0.0
C64 C 0.21567 0.71497 0.75457 0.0
C65 C 0.23522 0.73138 0.80358 0.0
C66 C 0.25052 0.72861 0.8176 0.0
C67 C 0.23374 0.71944 0.78683 0.0
C68 C 0.24752 0.70405 0.78417 0.0
C69 C 0.26282 0.70073 0.79808 0.0
C70 C 0.26429 0.71318 0.81473 0.0
N71 N 0.21791 0.72326 0.77329 0.0
H72 H 0.99553 0.5692 0.46373 0.0
H73 H 0.9612 0.51244 0.44999 0.0
H74 H 0.94789 0.54991 0.49808 0.0
H75 H 0.96905 0.51882 0.42085 0.0
C76 C 0.98459 0.52548 0.42269 0.0
C77 C 0.98349 0.55824 0.46672 0.0
C78 C 0.97241 0.56149 0.48255 0.0
C79 C 0.97921 0.5409 0.45465 0.0
C80 C 0.96394 0.52637 0.45872 0.0
C81 C 0.95255 0.52942 0.47441 0.0
C82 C 0.95692 0.54707 0.48623 0.0
N83 N 0.99087 0.5383 0.43882 0.0
H84 H 0.79524 0.81309 0.76801 0.0
H85 H 0.81972 0.76947 0.80393 0.0
H86 H 0.7667 0.80129 0.81863 0.0
H87 H 0.85002 0.78228 0.79174 0.0
C88 C 0.84491 0.78252 0.77714 0.0
C89 C 0.79459 0.80512 0.78069 0.0
C90 C 0.77917 0.80895 0.79285 0.0
C91 C 0.80946 0.79132 0.78478 0.0
C92 C 0.80864 0.78069 0.80105 0.0
C93 C 0.79307 0.78396 0.81328 0.0
C94 C 0.77837 0.79815 0.80904 0.0
N95 N 0.82483 0.78825 0.77206 0.0
H96 H 0.29425 0.3149 0.26981 0.0
H97 H 0.31971 0.27193 0.30591 0.0
H98 H 0.26488 0.30117 0.31949 0.0
H99 H 0.33455 0.26056 0.2805 0.0
C100 C 0.33697 0.27362 0.27228 0.0
C101 C 0.29343 0.30647 0.28221 0.0
C102 C 0.27783 0.30983 0.29428 0.0
C103 C 0.30827 0.29253 0.28601 0.0
C104 C 0.30774 0.28199 0.30238 0.0
C105 C 0.29214 0.28498 0.31466 0.0
C106 C 0.27724 0.29898 0.31043 0.0
N107 N 0.32381 0.2901 0.27332 0.0
H108 H 0.45424 0.9904 0.50923 0.0
H109 H 0.50094 0.9648 0.54346 0.0
H110 H 0.46823 0.01489 0.56554 0.0
H111 H 0.51429 0.96055 0.51351 0.0
C112 C 0.5003 0.95357 0.50646 0.0
C113 C 0.46314 0.99038 0.52242 0.0
C114 C 0.45943 0.00435 0.53714 0.0
C115 C 0.4783 0.9764 0.5245 0.0
C116 C 0.48971 0.97613 0.54162 0.0
C117 C 0.48619 0.9899 0.55659 0.0
C118 C 0.47086 0.00391 0.55426 0.0
N119 N 0.4813 0.96226 0.50941 0.0
H120 H 0.21659 0.27985 0.6922 0.0
H121 H 0.23954 0.32922 0.73065 0.0
H122 H 0.26895 0.31774 0.67997 0.0
H123 H 0.22722 0.30827 0.75169 0.0
C124 C 0.21304 0.30165 0.74473 0.0
C125 C 0.22775 0.29235 0.69592 0.0
C126 C 0.24283 0.29743 0.68369 0.0
C127 C 0.22692 0.30321 0.71313 0.0
C128 C 0.24074 0.32003 0.71786 0.0
C129 C 0.25568 0.32559 0.70574 0.0
C130 C 0.25681 0.31401 0.68888 0.0
N131 N 0.2117 0.29711 0.72516 0.0
H132 H 0.76742 0.19829 0.7025 0.0
H133 H 0.82316 0.23329 0.71978 0.0
H134 H 0.80528 0.18137 0.74941 0.0
H135 H 0.80766 0.25788 0.70532 0.0
C136 C 0.79892 0.25012 0.69344 0.0
C137 C 0.78101 0.20084 0.71188 0.0
C138 C 0.78456 0.18789 0.72639 0.0
C139 C 0.79458 0.21745 0.70957 0.0
C140 C 0.81229 0.22081 0.72165 0.0
C141 C 0.81619 0.20796 0.73619 0.0
C142 C 0.80216 0.19162 0.73851 0.0
N143 N 0.79019 0.23009 0.69469 0.0
H144 H 0.53453 0.56179 0.56035 0.0
H145 H 0.57878 0.53843 0.52465 0.0
H146 H 0.56749 0.50957 0.57517 0.0
H147 H 0.58343 0.57174 0.51918 0.0
C148 C 0.56778 0.57645 0.51797 0.0
C149 C 0.54588 0.55083 0.55746 0.0
C150 C 0.54939 0.5352 0.56954 0.0
C151 C 0.55691 0.5525 0.54163 0.0
C152 C 0.57115 0.53794 0.53748 0.0
C153 C 0.57529 0.52242 0.54951 0.0
C154 C 0.56422 0.52114 0.56552 0.0
N155 N 0.55324 0.56877 0.52995 0.0
H156 H 0.53228 0.46178 0.95161 0.0
H157 H 0.58664 0.47905 0.98661 0.0
H158 H 0.5736 0.51017 0.93697 0.0
H159 H 0.56639 0.46758 0.00897 0.0
C160 C 0.55879 0.45394 0.00193 0.0
C161 C 0.54621 0.47134 0.95445 0.0
C162 C 0.55142 0.48633 0.94226 0.0
C163 C 0.55848 0.46899 0.97072 0.0
C164 C 0.57659 0.48135 0.97453 0.0
C165 C 0.58221 0.4962 0.96235 0.0
C166 C 0.56945 0.49863 0.94634 0.0
N167 N 0.55246 0.45373 0.9827 0.0
H168 H 0.72505 0.2434 0.30766 0.0
H169 H 0.74716 0.19614 0.27191 0.0
H170 H 0.77786 0.2116 0.32571 0.0
H171 H 0.71391 0.19366 0.26048 0.0
C172 C 0.70956 0.20936 0.26079 0.0
C173 C 0.73593 0.23184 0.30523 0.0
C174 C 0.75161 0.22892 0.31885 0.0
C175 C 0.73396 0.21991 0.28847 0.0
C176 C 0.74813 0.20506 0.28506 0.0
C177 C 0.76411 0.20208 0.29838 0.0
C178 C 0.76585 0.21417 0.31521 0.0
N179 N 0.7178 0.2236 0.27524 0.0
H180 H 0.4974 0.06753 0.96344 0.0
H181 H 0.45897 0.01375 0.94711 0.0
H182 H 0.44824 0.04949 0.99681 0.0
H183 H 0.48658 0.00406 0.93305 0.0
C184 C 0.49359 0.01786 0.92817 0.0
C185 C 0.48466 0.05718 0.96597 0.0
C186 C 0.47342 0.06068 0.9817 0.0
C187 C 0.48 0.04004 0.95369 0.0
C188 C 0.46332 0.02666 0.95678 0.0
C189 C 0.45202 0.0299 0.97246 0.0
C190 C 0.45726 0.04679 0.98493 0.0
N191 N 0.49223 0.03688 0.9383 0.0
Li192 Li 0.27666 0.89148 0.00369 0.0
Li193 Li 0.26241 0.86455 0.02201 0.0
Li194 Li 0.25515 0.86395 0.98826 0.0
Li195 Li 0.24007 0.88884 0.00939 0.0
C196 C 0.29007 0.84661 0.99287 0.0
N197 N 0.3045 0.8141 0.97258 0.0
C198 C 0.28828 0.82701 0.99922 0.0
C199 C 0.29931 0.84971 0.97628 0.0
C200 C 0.29567 0.81077 0.98875 0.0
C201 C 0.30645 0.83306 0.96619 0.0
C202 C 0.27083 0.8962 0.04576 0.0
C203 C 0.26587 0.89203 0.07816 0.0
N204 N 0.28586 0.89792 0.08249 0.0
C205 C 0.2913 0.90229 0.05053 0.0
C206 C 0.25796 0.89112 0.05967 0.0
C207 C 0.29862 0.90305 0.06919 0.0
C208 C 0.29762 0.93016 0.00284 0.0
N209 N 0.29978 0.9097 0.00165 0.0
C210 C 0.33529 0.91471 0.99666 0.0
C211 C 0.31819 0.90183 0.99892 0.0
C212 C 0.33329 0.93584 0.99703 0.0
C213 C 0.31421 0.94358 1.00026 0.0
H214 H 0.28291 0.93602 0.00549 0.0
H215 H 0.31958 0.88553 0.9984 0.0
C216 C 0.25342 0.83572 0.0484 0.0
N217 N 0.26834 0.84819 0.04229 0.0
C218 C 0.25773 0.82369 0.0633 0.0
C219 C 0.2927 0.83752 0.06525 0.0
C220 C 0.28775 0.84913 0.05022 0.0
C221 C 0.2776 0.82452 0.072 0.0
H222 H 0.23821 0.83498 0.04162 0.0
H223 H 0.29936 0.85902 0.04489 0.0
C224 C 0.25761 0.91013 0.9763 0.0
N225 N 0.26861 0.94459 0.95844 0.0
C226 C 0.2475 0.92808 0.97942 0.0
C227 C 0.27326 0.90969 0.96403 0.0
C228 C 0.25328 0.94533 0.97026 0.0
C229 C 0.27863 0.92728 0.95517 0.0
C230 C 0.2153 0.85594 0.00805 0.0
C231 C 0.20337 0.85067 0.99156 0.0
C232 C 0.20583 0.8592 0.02471 0.0
C233 C 0.18209 0.84885 0.99199 0.0
C234 C 0.18451 0.85728 0.02455 0.0
N235 N 0.17319 0.85219 0.00833 0.0
C236 C 0.24722 0.82614 0.96742 0.0
C237 C 0.25399 0.85434 0.94945 0.0
C238 C 0.24633 0.81281 0.95152 0.0
N239 N 0.25127 0.84644 0.96612 0.0
C240 C 0.25332 0.8416 0.93324 0.0
C241 C 0.24962 0.82048 0.93412 0.0
H242 H 0.24508 0.82027 0.98088 0.0
H243 H 0.25712 0.87051 0.94877 0.0
C244 C 0.21759 0.91641 0.03 0.0
N245 N 0.21686 0.90437 0.01399 0.0
C246 C 0.20117 0.92816 0.03414 0.0
C247 C 0.18352 0.91507 0.00513 0.0
C248 C 0.20038 0.90366 0.00149 0.0
C249 C 0.18374 0.92756 0.02168 0.0
H250 H 0.23103 0.91708 0.03951 0.0
H251 H 0.20034 0.89422 0.9887 0.0
O252 O 0.28242 0.86262 0.00265 0.0
O253 O 0.26346 0.89504 0.02754 0.0
O254 O 0.25222 0.89311 0.98523 0.0
O255 O 0.23612 0.85803 0.00788 0.0
H256 H 0.28105 0.82431 0.01197 0.0
H257 H 0.30065 0.86477 0.9711 0.0
H258 H 0.2943 0.79549 0.99343 0.0
H259 H 0.31348 0.83521 0.95324 0.0
H260 H 0.25612 0.88799 0.08906 0.0
H261 H 0.30149 0.90625 0.03994 0.0
H262 H 0.24209 0.88627 0.0562 0.0
H263 H 0.31445 0.90765 0.07308 0.0
H264 H 0.3498 0.90822 0.99422 0.0
H265 H 0.31219 0.95983 1.00088 0.0
H266 H 0.24569 0.81361 0.06773 0.0
H267 H 0.30815 0.8389 0.0716 0.0
H268 H 0.23538 0.92873 0.98888 0.0
H269 H 0.28149 0.89605 0.96167 0.0
H270 H 0.24562 0.95933 0.97258 0.0
H271 H 0.29083 0.92721 0.94578 0.0
H272 H 0.21044 0.84818 0.97854 0.0
H273 H 0.21484 0.86343 0.03757 0.0
H274 H 0.17266 0.84485 0.97932 0.0
H275 H 0.17697 0.8599 0.03731 0.0
H276 H 0.24311 0.79671 0.95287 0.0
H277 H 0.25623 0.84823 0.92023 0.0
H278 H 0.20232 0.9379 0.04684 0.0
H279 H 0.1704 0.91399 0.99515 0.0
Li280 Li 0.11895 0.49778 0.26848 0.0
Li281 Li 0.14363 0.4762 0.25364 0.0
Li282 Li 0.14472 0.51353 0.2505 0.0
Li283 Li 0.11768 0.49223 0.23415 0.0
C284 C 0.15655 0.51172 0.28825 0.0
N285 N 0.17147 0.53828 0.3177 0.0
C286 C 0.17489 0.50819 0.2982 0.0
C287 C 0.14576 0.52869 0.29339 0.0
C288 C 0.18219 0.52181 0.31301 0.0
C289 C 0.15355 0.54196 0.30828 0.0
C290 C 0.10766 0.45639 0.26394 0.0
C291 C 0.08482 0.42823 0.27039 0.0
N292 N 0.09619 0.42595 0.28649 0.0
C293 C 0.11911 0.45379 0.28056 0.0
C294 C 0.09037 0.44354 0.2588 0.0
C295 C 0.11307 0.43831 0.29176 0.0
C296 C 0.08301 0.50647 0.28567 0.0
N297 N 0.10238 0.50062 0.28908 0.0
C298 C 0.09736 0.49917 0.32149 0.0
C299 C 0.10968 0.49679 0.30652 0.0
C300 C 0.07731 0.50538 0.31844 0.0
C301 C 0.07014 0.50896 0.30022 0.0
H302 H 0.07762 0.50931 0.27163 0.0
H303 H 0.12507 0.49191 0.30882 0.0
C304 C 0.17917 0.45724 0.26451 0.0
N305 N 0.15987 0.45329 0.25671 0.0
C306 C 0.19157 0.44129 0.26862 0.0
C307 C 0.16434 0.41743 0.25583 0.0
C308 C 0.15237 0.43388 0.2521 0.0
C309 C 0.18412 0.42106 0.26446 0.0
H310 H 0.18484 0.47283 0.26769 0.0
H311 H 0.137 0.43116 0.24579 0.0
C312 C 0.11255 0.5377 0.24614 0.0
N313 N 0.10818 0.57819 0.2395 0.0
C314 C 0.11774 0.54508 0.22921 0.0
C315 C 0.10484 0.55085 0.25959 0.0
C316 C 0.11551 0.56561 0.22615 0.0
C317 C 0.10282 0.57129 0.256 0.0
C318 C 0.14991 0.48575 0.21303 0.0
C319 C 0.14914 0.5002 0.19964 0.0
C320 C 0.15319 0.46549 0.20768 0.0
C321 C 0.15123 0.49405 0.18102 0.0
C322 C 0.15525 0.45994 0.18892 0.0
N323 N 0.15419 0.47421 0.17609 0.0
C324 C 0.17836 0.53426 0.23682 0.0
C325 C 0.16054 0.55513 0.25745 0.0
C326 C 0.19185 0.55062 0.2338 0.0
N327 N 0.16296 0.5368 0.24834 0.0
C328 C 0.17372 0.5719 0.25488 0.0
C329 C 0.18955 0.56979 0.24281 0.0
H330 H 0.18013 0.51951 0.22989 0.0
H331 H 0.14821 0.55693 0.2665 0.0
C332 C 0.08581 0.50366 0.20959 0.0
N333 N 0.09958 0.48916 0.21213 0.0
C334 C 0.07301 0.50305 0.19335 0.0
C335 C 0.08812 0.47207 0.18283 0.0
C336 C 0.10055 0.47322 0.19938 0.0
C337 C 0.07426 0.48727 0.17957 0.0
H338 H 0.08482 0.51585 0.22013 0.0
H339 H 0.11106 0.46145 0.20199 0.0
O340 O 0.14915 0.49849 0.27373 0.0
O341 O 0.11319 0.47148 0.25274 0.0
O342 O 0.11477 0.51765 0.24945 0.0
O343 O 0.14784 0.49145 0.23134 0.0
H344 H 0.18339 0.49505 0.29458 0.0
H345 H 0.13152 0.53159 0.28595 0.0
H346 H 0.19638 0.51927 0.3208 0.0
H347 H 0.14534 0.55517 0.31234 0.0
H348 H 0.07148 0.41815 0.26658 0.0
H349 H 0.13256 0.46356 0.28476 0.0
H350 H 0.08134 0.44538 0.24598 0.0
H351 H 0.1218 0.43612 0.30465 0.0
H352 H 0.10339 0.49595 0.33526 0.0
H353 H 0.05485 0.51395 0.29727 0.0
H354 H 0.20687 0.44477 0.27495 0.0
H355 H 0.158 0.40205 0.25244 0.0
H356 H 0.12347 0.53506 0.21859 0.0
H357 H 0.1005 0.54538 0.27269 0.0
H358 H 0.11959 0.57153 0.21315 0.0
H359 H 0.09698 0.58166 0.26632 0.0
H360 H 0.14702 0.51601 0.20356 0.0
H361 H 0.15396 0.45412 0.21785 0.0
H362 H 0.15054 0.50506 0.1705 0.0
H363 H 0.15765 0.44429 0.18457 0.0
H364 H 0.20405 0.54823 0.22461 0.0
H365 H 0.17125 0.58644 0.26196 0.0
H366 H 0.0626 0.51511 0.19143 0.0
H367 H 0.08928 0.4594 0.17274 0.0
Li368 Li 0.76156 0.64087 0.99435 0.0
Li369 Li 0.77649 0.66873 0.0158 0.0
Li370 Li 0.78222 0.66743 0.98133 0.0
Li371 Li 0.79964 0.6444 0.00204 0.0
C372 C 0.73577 0.67062 0.98994 0.0
N373 N 0.69405 0.67033 0.98157 0.0
C374 C 0.7228 0.67692 0.00353 0.0
C375 C 0.72755 0.66448 0.97201 0.0
C376 C 0.70174 0.67659 0.99905 0.0
C377 C 0.70642 0.66434 0.96808 0.0
C378 C 0.77805 0.63447 0.03681 0.0
C379 C 0.79686 0.63384 0.06659 0.0
N380 N 0.77996 0.62543 0.07377 0.0
C381 C 0.76095 0.62557 0.04442 0.0
C382 C 0.79622 0.63843 0.04793 0.0
C383 C 0.76219 0.62122 0.06315 0.0
C384 C 0.73911 0.60664 0.97646 0.0
N385 N 0.73875 0.62177 0.99007 0.0
C386 C 0.70586 0.60927 0.99815 0.0
C387 C 0.72266 0.62324 1.00095 0.0
C388 C 0.70571 0.59348 0.98413 0.0
C389 C 0.72268 0.59227 0.97322 0.0
H390 H 0.75226 0.60561 0.96824 0.0
H391 H 0.72288 0.63527 0.01185 0.0
C392 C 0.78265 0.7033 0.04155 0.0
N393 N 0.77165 0.68537 0.03745 0.0
C394 C 0.77932 0.71531 0.0576 0.0
C395 C 0.75307 0.69041 0.06463 0.0
C396 C 0.75689 0.67893 0.04846 0.0
C397 C 0.76443 0.70883 0.06946 0.0
H398 H 0.79404 0.70828 0.03239 0.0
H399 H 0.74789 0.66496 0.04458 0.0
C400 C 0.7892 0.63374 0.95969 0.0
N401 N 0.79941 0.62698 0.92336 0.0
C402 C 0.80929 0.62977 0.95589 0.0
C403 C 0.77424 0.63399 0.94503 0.0
C404 C 0.81416 0.62645 0.93743 0.0
C405 C 0.77972 0.63063 0.92675 0.0
C406 C 0.82158 0.68216 0.00862 0.0
C407 C 0.83456 0.6893 0.99554 0.0
C408 C 0.82852 0.6829 0.02738 0.0
C409 C 0.85444 0.69662 0.00139 0.0
C410 C 0.8485 0.69032 0.03269 0.0
N411 N 0.86095 0.69695 0.01969 0.0
C412 C 0.76948 0.69608 0.95599 0.0
C413 C 0.80076 0.68172 0.9493 0.0
C414 C 0.77003 0.70746 0.94029 0.0
N415 N 0.78458 0.68335 0.96008 0.0
C416 C 0.80192 0.69279 0.93345 0.0
C417 C 0.78635 0.70581 0.92868 0.0
H418 H 0.75696 0.69743 0.96493 0.0
H419 H 0.81273 0.67172 0.95292 0.0
C420 C 0.8195 0.61085 0.0146 0.0
N421 N 0.82312 0.62896 0.00698 0.0
C422 C 0.83553 0.59833 0.01862 0.0
C423 C 0.85877 0.62302 0.00645 0.0
C424 C 0.84228 0.63514 0.00275 0.0
C425 C 0.85551 0.60435 0.01455 0.0
H426 H 0.80407 0.60604 0.01744 0.0
H427 H 0.84477 0.64927 0.99623 0.0
O428 O 0.75641 0.67057 0.99413 0.0
O429 O 0.77706 0.63895 0.0185 0.0
O430 O 0.78418 0.63716 0.97769 0.0
O431 O 0.80207 0.67494 0.00311 0.0
H432 H 0.72889 0.68195 0.01741 0.0
H433 H 0.73739 0.65981 0.96128 0.0
H434 H 0.69151 0.68131 0.00947 0.0
H435 H 0.69985 0.65949 0.95429 0.0
H436 H 0.81082 0.63688 0.07535 0.0
H437 H 0.74684 0.62217 0.03599 0.0
H438 H 0.80975 0.64475 0.04217 0.0
H439 H 0.74902 0.61448 0.06925 0.0
H440 H 0.69306 0.61097 0.00676 0.0
H441 H 0.72343 0.58017 0.96249 0.0
H442 H 0.78851 0.72935 0.06081 0.0
H443 H 0.74112 0.68505 0.07311 0.0
H444 H 0.82103 0.6294 0.96705 0.0
H445 H 0.75858 0.63676 0.94771 0.0
H446 H 0.82967 0.62348 0.93428 0.0
H447 H 0.76832 0.6309 0.91527 0.0
H448 H 0.8294 0.6891 0.98101 0.0
H449 H 0.81855 0.67801 0.03778 0.0
H450 H 0.86468 0.70206 0.99138 0.0
H451 H 0.85408 0.6909 0.04715 0.0
H452 H 0.75789 0.71759 0.9374 0.0
H453 H 0.81471 0.69087 0.92486 0.0
H454 H 0.83222 0.58388 0.0245 0.0
H455 H 0.87393 0.62828 0.0031 0.0
Li456 Li 0.90038 0.0384 0.25141 0.0
Li457 Li 0.92611 0.01494 0.26476 0.0
Li458 Li 0.92492 0.0218 0.23228 0.0
Li459 Li 0.89888 1.00019 0.24345 0.0
C460 C 0.94574 0.05409 0.24852 0.0
N461 N 0.97688 0.07798 0.23557 0.0
C462 C 0.96588 0.04814 0.25023 0.0
C463 C 0.94141 0.07222 0.24036 0.0
C464 C 0.98142 0.06042 0.24355 0.0
C465 C 0.95738 0.08409 0.23388 0.0
C466 C 0.89485 0.01416 0.28657 0.0
C467 C 0.89801 0.9955 0.31428 0.0
N468 N 0.89365 0.01245 0.32467 0.0
C469 C 0.89026 0.03135 0.29752 0.0
C470 C 0.89861 0.99603 0.29501 0.0
C471 C 0.88976 0.03019 0.31675 0.0
C472 C 0.86444 0.05948 0.25026 0.0
N473 N 0.88443 0.06105 0.25658 0.0
C474 C 0.88 0.09344 0.27217 0.0
C475 C 0.89244 0.07763 0.26722 0.0
C476 C 0.85914 0.0922 0.26601 0.0
C477 C 0.85153 0.07501 0.25465 0.0
H478 H 0.85849 0.04604 0.2419 0.0
H479 H 0.90836 0.0783 0.27229 0.0
C480 C 0.95474 0.99497 0.28766 0.0
N481 N 0.94328 0.01153 0.28656 0.0
C482 C 0.96648 0.99196 0.30401 0.0
C483 C 0.95491 0.02345 0.31755 0.0
C484 C 0.94349 0.02589 0.30092 0.0
C485 C 0.96652 0.00621 0.31933 0.0
H486 H 0.95478 0.98408 0.27587 0.0
H487 H 0.93448 0.03909 0.29954 0.0
C488 C 0.89261 0.02829 0.20889 0.0
N489 N 0.88825 0.0391 0.17249 0.0
C490 C 0.89659 0.01443 0.1943 0.0
C491 C 0.88637 0.04765 0.20495 0.0
C492 C 0.89434 0.02019 0.17599 0.0
C493 C 0.88425 0.05281 0.18646 0.0
C494 C 0.92695 0.97497 0.23832 0.0
C495 C 0.92798 0.96806 0.21971 0.0
C496 C 0.92366 0.96087 0.25169 0.0
C497 C 0.92571 0.94718 0.21481 0.0
C498 C 0.92141 0.94012 0.24623 0.0
N499 N 0.92248 0.93376 0.22806 0.0
C500 C 0.95748 0.01304 0.20982 0.0
C501 C 0.94006 0.04186 0.20085 0.0
C502 C 0.96994 0.01442 0.19492 0.0
N503 N 0.94243 0.02622 0.21217 0.0
C504 C 0.9522 0.04384 0.18578 0.0
C505 C 0.96714 0.02975 0.18243 0.0
H506 H 0.95973 0.00129 0.21946 0.0
H507 H 0.92858 0.05269 0.20335 0.0
C508 C 0.86845 0.97117 0.25251 0.0
N509 N 0.87965 0.97729 0.23845 0.0
C510 C 0.85435 0.9545 0.24961 0.0
C511 C 0.86333 0.95081 0.2177 0.0
C512 C 0.87717 0.96762 0.22121 0.0
C513 C 0.85168 0.94402 0.23201 0.0
H514 H 0.87031 0.97933 0.26599 0.0
H515 H 0.88605 0.97279 0.21018 0.0
O516 O 0.93028 0.04204 0.25456 0.0
O517 O 0.89577 0.01511 0.26773 0.0
O518 O 0.89464 0.02294 0.22692 0.0
O519 O 0.92885 0.9954 0.24339 0.0
H520 H 0.96941 0.03409 0.25648 0.0
H521 H 0.92585 0.07694 0.23884 0.0
H522 H 0.99707 0.05597 0.24466 0.0
H523 H 0.95426 0.09811 0.22743 0.0
H524 H 0.90105 0.98161 0.32099 0.0
H525 H 0.88719 0.04547 0.29128 0.0
H526 H 0.90214 0.98257 0.28679 0.0
H527 H 0.88632 0.04342 0.32539 0.0
H528 H 0.88655 0.10618 0.28117 0.0
H529 H 0.83572 0.07348 0.24922 0.0
H530 H 0.97556 0.97871 0.30457 0.0
H531 H 0.95431 0.03477 0.329 0.0
H532 H 0.90181 0.99956 0.19706 0.0
H533 H 0.8834 0.05866 0.21604 0.0
H534 H 0.89753 0.00966 0.16459 0.0
H535 H 0.8795 0.06776 0.18322 0.0
H536 H 0.93014 0.97867 0.20907 0.0
H537 H 0.92268 0.96587 0.26612 0.0
H538 H 0.92638 0.94166 0.20045 0.0
H539 H 0.91876 0.92908 0.25644 0.0
H540 H 0.98166 0.00358 0.19322 0.0
H541 H 0.94953 0.05596 0.17658 0.0
H542 H 0.84544 0.95008 0.26098 0.0
H543 H 0.86197 0.9431 0.20396 0.0
Li544 Li 0.27453 0.16828 0.51506 0.0
Li545 Li 0.25784 0.13961 0.49612 0.0
Li546 Li 0.29432 0.14276 0.50111 0.0
Li547 Li 0.27741 0.16725 0.48159 0.0
C548 C 0.28441 0.12951 0.53321 0.0
N549 N 0.30715 0.10948 0.55923 0.0
C550 C 0.27952 0.10906 0.53595 0.0
C551 C 0.30075 0.13984 0.54382 0.0
C552 C 0.29123 0.09919 0.54915 0.0
C553 C 0.31209 0.12942 0.55687 0.0
C554 C 0.23911 0.18144 0.50321 0.0
C555 C 0.22477 0.21427 0.50736 0.0
N556 N 0.21409 0.20736 0.52146 0.0
C557 C 0.22787 0.1746 0.51765 0.0
C558 C 0.23749 0.20139 0.49794 0.0
C559 C 0.21536 0.18796 0.52675 0.0
C560 C 0.27341 0.20652 0.53559 0.0
N561 N 0.27145 0.18597 0.53652 0.0
C562 C 0.26232 0.18972 0.568 0.0
C563 C 0.26601 0.17746 0.55228 0.0
C564 C 0.26376 0.21105 0.56746 0.0
C565 C 0.26947 0.21941 0.55092 0.0
H566 H 0.27751 0.21287 0.52277 0.0
H567 H 0.26419 0.16109 0.55259 0.0
C568 C 0.23746 0.10049 0.49303 0.0
N569 N 0.23468 0.12078 0.49279 0.0
C570 C 0.22074 0.08641 0.49003 0.0
C571 C 0.19863 0.11442 0.4868 0.0
C572 C 0.21578 0.12791 0.48964 0.0
C573 C 0.20094 0.09331 0.48687 0.0
H574 H 0.25273 0.09524 0.49523 0.0
H575 H 0.21402 0.14409 0.48918 0.0
C576 C 0.31732 0.17848 0.49404 0.0
N577 N 0.35305 0.1895 0.47801 0.0
C578 C 0.32301 0.16747 0.47818 0.0
C579 C 0.32977 0.19513 0.50169 0.0
C580 C 0.34114 0.17327 0.4703 0.0
C581 C 0.34779 0.20044 0.4934 0.0
C582 C 0.26786 0.12451 0.46365 0.0
C583 C 0.27412 0.10492 0.45933 0.0
C584 C 0.25015 0.1311 0.45457 0.0
C585 C 0.26242 0.09215 0.44609 0.0
C586 C 0.23886 0.11786 0.44144 0.0
N587 N 0.24517 0.09882 0.43752 0.0
C588 C 0.31367 0.10596 0.50295 0.0
C589 C 0.33633 0.13476 0.51103 0.0
C590 C 0.32916 0.09284 0.50704 0.0
N591 N 0.31746 0.12648 0.50502 0.0
C592 C 0.35239 0.12219 0.51494 0.0
C593 C 0.34881 0.10095 0.5131 0.0
H594 H 0.29839 0.09979 0.49866 0.0
H595 H 0.33888 0.15107 0.51326 0.0
C596 C 0.28152 0.20378 0.46302 0.0
N597 N 0.27979 0.18314 0.46044 0.0
C598 C 0.28354 0.21579 0.44783 0.0
C599 C 0.28227 0.18505 0.42767 0.0
C600 C 0.28044 0.17367 0.44324 0.0
C601 C 0.28383 0.20645 0.42979 0.0
H602 H 0.28151 0.21091 0.47692 0.0
H603 H 0.27966 0.15726 0.44155 0.0
O604 O 0.27355 0.13928 0.51995 0.0
O605 O 0.25188 0.16875 0.49449 0.0
O606 O 0.29954 0.17333 0.50197 0.0
O607 O 0.27878 0.13708 0.47692 0.0
H608 H 0.2669 0.10087 0.52788 0.0
H609 H 0.30482 0.15564 0.54176 0.0
H610 H 0.28769 0.08333 0.55135 0.0
H611 H 0.32488 0.13717 0.56507 0.0
H612 H 0.22343 0.22978 0.50348 0.0
H613 H 0.22909 0.15924 0.522 0.0
H614 H 0.24602 0.2069 0.48675 0.0
H615 H 0.20672 0.18293 0.53806 0.0
H616 H 0.2584 0.18245 0.58045 0.0
H617 H 0.27047 0.23571 0.54962 0.0
H618 H 0.22338 0.07031 0.48985 0.0
H619 H 0.18371 0.12054 0.48469 0.0
H620 H 0.31361 0.15456 0.47201 0.0
H621 H 0.32553 0.20385 0.51391 0.0
H622 H 0.34573 0.16488 0.45805 0.0
H623 H 0.35758 0.21328 0.49919 0.0
H624 H 0.28786 0.09962 0.4661 0.0
H625 H 0.24504 0.1462 0.45782 0.0
H626 H 0.26706 0.07692 0.44265 0.0
H627 H 0.22504 0.12271 0.43441 0.0
H628 H 0.32582 0.07653 0.50545 0.0
H629 H 0.36729 0.12898 0.51984 0.0
H630 H 0.28513 0.2322 0.45026 0.0
H631 H 0.28222 0.17709 0.4141 0.0
Li632 Li 0.42924 0.5176 0.76866 0.0
Li633 Li 0.40464 0.54028 0.75493 0.0
Li634 Li 0.40176 0.5024 0.74776 0.0
Li635 Li 0.42839 0.52316 0.73431 0.0
C636 C 0.39784 0.51725 0.79046 0.0
N637 N 0.39553 0.51588 0.82847 0.0
C638 C 0.39462 0.53495 0.80133 0.0
C639 C 0.39972 0.49883 0.79891 0.0
C640 C 0.39352 0.53394 0.82053 0.0
C641 C 0.39858 0.49846 0.81815 0.0
C642 C 0.44312 0.56286 0.75623 0.0
C643 C 0.45209 0.59275 0.74009 0.0
N644 N 0.45938 0.60245 0.75653 0.0
C645 C 0.45084 0.5731 0.77294 0.0
C646 C 0.44386 0.57273 0.73964 0.0
C647 C 0.45894 0.59312 0.77281 0.0
C648 C 0.45746 0.49699 0.79128 0.0
N649 N 0.44624 0.51375 0.79051 0.0
C650 C 0.45747 0.52448 0.82189 0.0
C651 C 0.44625 0.52752 0.80531 0.0
C652 C 0.469 0.50715 0.82324 0.0
C653 C 0.46899 0.49336 0.80759 0.0
H654 H 0.45738 0.48637 0.77926 0.0
H655 H 0.4372 0.54071 0.80438 0.0
C656 C 0.36826 0.55774 0.76177 0.0
N657 N 0.38824 0.56303 0.75969 0.0
C658 C 0.35462 0.5726 0.7662 0.0
C659 C 0.38222 0.59825 0.76589 0.0
C660 C 0.39537 0.58286 0.76158 0.0
C661 C 0.36153 0.59321 0.76839 0.0
H662 H 0.36302 0.54185 0.7603 0.0
H663 H 0.41121 0.58687 0.75982 0.0
C664 C 0.43105 0.47709 0.74247 0.0
N665 N 0.42912 0.43584 0.73246 0.0
C666 C 0.43549 0.47018 0.72456 0.0
C667 C 0.42587 0.463 0.75536 0.0
C668 C 0.43438 0.44926 0.71976 0.0
C669 C 0.42489 0.44222 0.75001 0.0
C670 C 0.39146 0.53314 0.71474 0.0
C671 C 0.38097 0.52111 0.70021 0.0
C672 C 0.39467 0.55406 0.71308 0.0
C673 C 0.37425 0.53017 0.68407 0.0
C674 C 0.3877 0.56256 0.69673 0.0
N675 N 0.37774 0.55053 0.68267 0.0
C676 C 0.37001 0.47403 0.75559 0.0
C677 C 0.38218 0.4694 0.72549 0.0
C678 C 0.35604 0.45734 0.75193 0.0
N679 N 0.38278 0.47962 0.74247 0.0
C680 C 0.36849 0.4526 0.72124 0.0
C681 C 0.35514 0.44636 0.73455 0.0
H682 H 0.37054 0.48264 0.76885 0.0
H683 H 0.39241 0.47427 0.71526 0.0
C684 C 0.46373 0.53367 0.71547 0.0
N685 N 0.44429 0.52529 0.71313 0.0
C686 C 0.47571 0.53521 0.70023 0.0
C687 C 0.44774 0.51873 0.68055 0.0
C688 C 0.43624 0.51771 0.69613 0.0
C689 C 0.46773 0.52765 0.68247 0.0
H690 H 0.46995 0.53914 0.72921 0.0
H691 H 0.421 0.51055 0.6947 0.0
O692 O 0.39918 0.51797 0.77166 0.0
O693 O 0.43526 0.54319 0.75611 0.0
O694 O 0.43171 0.49753 0.74734 0.0
O695 O 0.39812 0.52448 0.73064 0.0
H696 H 0.39327 0.54938 0.7951 0.0
H697 H 0.40219 0.48499 0.79073 0.0
H698 H 0.39116 0.54754 0.82912 0.0
H699 H 0.40014 0.48433 0.82488 0.0
H700 H 0.45269 0.60056 0.72736 0.0
H701 H 0.45058 0.56571 0.78588 0.0
H702 H 0.43816 0.56507 0.72654 0.0
H703 H 0.46489 0.60123 0.78566 0.0
H704 H 0.45676 0.53539 0.83363 0.0
H705 H 0.47792 0.47998 0.80787 0.0
H706 H 0.33892 0.56788 0.76826 0.0
H707 H 0.3882 0.61393 0.76713 0.0
H708 H 0.43966 0.48084 0.71445 0.0
H709 H 0.42247 0.46808 0.76929 0.0
H710 H 0.43768 0.44371 0.70591 0.0
H711 H 0.42075 0.43117 0.7598 0.0
H712 H 0.37814 0.50492 0.70133 0.0
H713 H 0.40231 0.56369 0.72432 0.0
H714 H 0.36623 0.52101 0.67266 0.0
H715 H 0.39015 0.57873 0.69525 0.0
H716 H 0.34581 0.45332 0.76248 0.0
H717 H 0.36851 0.44448 0.70775 0.0
H718 H 0.49117 0.54189 0.70238 0.0
H719 H 0.44099 0.51275 0.66711 0.0
Li720 Li 0.77777 0.38952 0.5066 0.0
Li721 Li 0.76312 0.36372 0.52585 0.0
Li722 Li 0.75778 0.36052 0.49186 0.0
Li723 Li 0.74092 0.38639 0.51073 0.0
C724 C 0.80443 0.36091 0.50761 0.0
N725 N 0.84667 0.36384 0.50885 0.0
C726 C 0.81586 0.35858 0.52429 0.0
C727 C 0.81448 0.36462 0.49153 0.0
C728 C 0.83721 0.36012 0.52463 0.0
C729 C 0.83584 0.3661 0.49247 0.0
C730 C 0.75717 0.41005 0.53956 0.0
C731 C 0.73433 0.42493 0.56082 0.0
N732 N 0.7425 0.44377 0.55791 0.0
C733 C 0.76539 0.42955 0.53684 0.0
C734 C 0.74158 0.40769 0.55172 0.0
C735 C 0.75776 0.44641 0.54624 0.0
C736 C 0.80047 0.41844 0.48809 0.0
N737 N 0.80037 0.40817 0.50385 0.0
C738 C 0.83317 0.42348 0.51453 0.0
C739 C 0.81605 0.41073 0.51717 0.0
C740 C 0.83396 0.43391 0.49812 0.0
C741 C 0.81715 0.43145 0.48494 0.0
H742 H 0.7876 0.4165 0.47792 0.0
H743 H 0.81542 0.4026 0.52971 0.0
C744 C 0.77239 0.32891 0.54514 0.0
N745 N 0.76794 0.34881 0.54735 0.0
C746 C 0.77566 0.31751 0.56065 0.0
C747 C 0.77011 0.34741 0.5804 0.0
C748 C 0.76689 0.35821 0.56451 0.0
C749 C 0.77453 0.32676 0.57859 0.0
H750 H 0.7734 0.32192 0.5313 0.0
H751 H 0.76356 0.37409 0.56588 0.0
C752 C 0.74862 0.38938 0.46919 0.0
N753 N 0.73538 0.38697 0.43197 0.0
C754 C 0.72808 0.39191 0.46389 0.0
C755 C 0.76245 0.38573 0.45557 0.0
C756 C 0.72169 0.39063 0.44499 0.0
C757 C 0.75544 0.38451 0.43683 0.0
C758 C 0.72985 0.34002 0.51895 0.0
C759 C 0.73221 0.32038 0.5112 0.0
C760 C 0.72078 0.34261 0.53588 0.0
C761 C 0.72556 0.30361 0.52062 0.0
C762 C 0.71438 0.32545 0.54488 0.0
N763 N 0.71689 0.30647 0.53713 0.0
C764 C 0.77204 0.33119 0.46661 0.0
C765 C 0.73778 0.33932 0.45945 0.0
C766 C 0.77163 0.31807 0.45066 0.0
N767 N 0.75542 0.34176 0.47051 0.0
C768 C 0.73672 0.32644 0.44325 0.0
C769 C 0.75389 0.31574 0.43856 0.0
H770 H 0.7857 0.33297 0.47586 0.0
H771 H 0.72466 0.34765 0.46304 0.0
C772 C 0.71925 0.42203 0.51043 0.0
N773 N 0.71725 0.40178 0.51298 0.0
C774 C 0.70312 0.43451 0.51366 0.0
C775 C 0.68268 0.40485 0.52094 0.0
C776 C 0.69936 0.39298 0.51785 0.0
C777 C 0.68449 0.42602 0.51914 0.0
H778 H 0.73363 0.42859 0.50643 0.0
H779 H 0.69811 0.37678 0.51955 0.0
O780 O 0.78352 0.35973 0.50704 0.0
O781 O 0.76421 0.39339 0.53025 0.0
O782 O 0.75514 0.39038 0.48763 0.0
O783 O 0.73664 0.35661 0.51013 0.0
H784 H 0.80836 0.3558 0.53688 0.0
H785 H 0.80585 0.36662 0.47854 0.0
H786 H 0.84626 0.35843 0.53746 0.0
H787 H 0.84381 0.36912 0.48017 0.0
H788 H 0.72215 0.42333 0.57013 0.0
H789 H 0.77742 0.43169 0.52745 0.0
H790 H 0.73489 0.39272 0.55384 0.0
H791 H 0.76392 0.4616 0.5442 0.0
H792 H 0.84578 0.42479 0.52504 0.0
H793 H 0.8168 0.43956 0.47232 0.0
H794 H 0.77933 0.30172 0.55861 0.0
H795 H 0.76891 0.35511 0.59394 0.0
H796 H 0.71716 0.39469 0.47424 0.0
H797 H 0.77837 0.38359 0.45945 0.0
H798 H 0.70583 0.3925 0.44067 0.0
H799 H 0.76594 0.38155 0.42615 0.0
H800 H 0.73925 0.31811 0.49813 0.0
H801 H 0.71899 0.35771 0.54213 0.0
H802 H 0.72736 0.28832 0.51483 0.0
H803 H 0.70749 0.32722 0.55806 0.0
H804 H 0.78505 0.30976 0.44792 0.0
H805 H 0.72275 0.32525 0.43432 0.0
H806 H 0.7055 0.45072 0.51235 0.0
H807 H 0.66856 0.39748 0.52473 0.0
Li808 Li 0.64135 0.97281 0.75159 0.0
Li809 Li 0.6175 0.99542 0.76576 0.0
Li810 Li 0.61622 0.98911 0.73085 0.0
Li811 Li 0.64354 0.01075 0.74798 0.0
C812 C 0.60372 0.94956 0.74781 0.0
N813 N 0.5891 0.90936 0.74277 0.0
C814 C 0.59624 0.93951 0.7627 0.0
C815 C 0.60334 0.93927 0.73027 0.0
C816 C 0.58905 0.91915 0.7599 0.0
C817 C 0.596 0.91893 0.72802 0.0
C818 C 0.65055 0.99821 0.78975 0.0
C819 C 0.65138 0.01959 0.81816 0.0
N820 N 0.6554 0.0032 0.82811 0.0
C821 C 0.65492 0.98163 0.80025 0.0
C822 C 0.64898 0.0174 0.79876 0.0
C823 C 0.65724 0.98444 0.81963 0.0
C824 C 0.67555 0.94922 0.74733 0.0
N825 N 0.65725 0.94963 0.75513 0.0
C826 C 0.66371 0.91886 0.76998 0.0
C827 C 0.65115 0.93485 0.76625 0.0
C828 C 0.6828 0.91808 0.76221 0.0
C829 C 0.6885 0.93344 0.75052 0.0
H830 H 0.68026 0.96137 0.73885 0.0
H831 H 0.6369 0.93587 0.77286 0.0
C832 C 0.58938 0.01518 0.78807 0.0
N833 N 0.60153 0.9991 0.78673 0.0
C834 C 0.57767 0.01805 0.80342 0.0
C835 C 0.59106 0.98768 0.81564 0.0
C836 C 0.6025 0.98541 0.80007 0.0
C837 C 0.5784 0.00417 0.81747 0.0
H838 H 0.58864 0.02568 0.77715 0.0
H839 H 0.61222 0.97273 0.79864 0.0
C840 C 0.65224 0.98054 0.71231 0.0
N841 N 0.66444 0.96542 0.67844 0.0
C842 C 0.66158 0.99358 0.7004 0.0
C843 C 0.6495 0.95975 0.70713 0.0
C844 C 0.66751 0.98567 0.68329 0.0
C845 C 0.65567 0.95241 0.68992 0.0
C846 C 0.61242 0.03527 0.74337 0.0
C847 C 0.60578 0.04159 0.72596 0.0
C848 C 0.61788 0.04983 0.75797 0.0
C849 C 0.60513 0.0624 0.72335 0.0
C850 C 0.61706 0.0705 0.75481 0.0
N851 N 0.61078 0.07631 0.73769 0.0
C852 C 0.58002 0.97777 0.70779 0.0
C853 C 0.60643 0.99505 0.69305 0.0
C854 C 0.56728 0.97691 0.69142 0.0
N855 N 0.59924 0.98664 0.70825 0.0
C856 C 0.59426 0.99454 0.67645 0.0
C857 C 0.57437 0.9854 0.67545 0.0
H858 H 0.57452 0.97153 0.72018 0.0
H859 H 0.62139 0.00279 0.69398 0.0
C860 C 0.67635 0.03958 0.75928 0.0
N861 N 0.6616 0.03385 0.74562 0.0
C862 C 0.68971 0.05644 0.75746 0.0
C863 C 0.67247 0.06111 0.72753 0.0
C864 C 0.65953 0.04413 0.7299 0.0
C865 C 0.68788 0.06746 0.74139 0.0
H866 H 0.67788 0.03094 0.77151 0.0
H867 H 0.6478 0.03912 0.71916 0.0
O868 O 0.61079 0.96953 0.75032 0.0
O869 O 0.64795 0.99569 0.77076 0.0
O870 O 0.64634 0.98808 0.72913 0.0
O871 O 0.61344 0.01494 0.74612 0.0
H872 H 0.59611 0.94728 0.7763 0.0
H873 H 0.6084 0.94694 0.71844 0.0
H874 H 0.58339 0.91115 0.77135 0.0
H875 H 0.5957 0.91078 0.71452 0.0
H876 H 0.65007 0.03434 0.82531 0.0
H877 H 0.65638 0.96672 0.79354 0.0
H878 H 0.64594 0.03046 0.79088 0.0
H879 H 0.66049 0.9717 0.82792 0.0
H880 H 0.65881 0.90767 0.77938 0.0
H881 H 0.70291 0.9334 0.744 0.0
H882 H 0.56789 0.0308 0.80412 0.0
H883 H 0.59229 0.97674 0.82621 0.0
H884 H 0.66412 0.00966 0.70427 0.0
H885 H 0.64301 0.9493 0.7164 0.0
H886 H 0.6746 0.99563 0.67389 0.0
H887 H 0.65359 0.93635 0.68574 0.0
H888 H 0.60122 0.03059 0.71456 0.0
H889 H 0.62276 0.04524 0.77159 0.0
H890 H 0.60014 0.0675 0.70991 0.0
H891 H 0.62139 0.08191 0.76596 0.0
H892 H 0.55208 0.96964 0.69127 0.0
H893 H 0.6002 0.00174 0.66467 0.0
H894 H 0.70157 0.06055 0.76837 0.0
H895 H 0.6703 0.06924 0.71502 0.0
Li896 Li 0.04182 0.2548 0.86053 0.0
Li897 Li 0.02023 0.27097 0.88307 0.0
Li898 Li 0.02697 0.23373 0.88408 0.0
Li899 Li 0.00368 0.24636 0.85989 0.0
C900 C 0.06705 0.25881 0.89323 0.0
N901 N 0.10845 0.26036 0.90351 0.0
C902 C 0.07696 0.27698 0.90086 0.0
C903 C 0.07814 0.24135 0.89114 0.0
C904 C 0.09791 0.27749 0.90588 0.0
C905 C 0.09907 0.24246 0.89634 0.0
C906 C 0.01533 0.29259 0.85322 0.0
C907 C 0.99303 0.32061 0.8535 0.0
N908 N 0.00882 0.33327 0.84921 0.0
C909 C 0.03127 0.30583 0.8486 0.0
C910 C 0.99599 0.29999 0.8555 0.0
C911 C 0.0277 0.32636 0.8467 0.0
C912 C 0.06592 0.24727 0.82987 0.0
N913 N 0.06457 0.25918 0.84575 0.0
C914 C 0.09507 0.27855 0.84 0.0
C915 C 0.07867 0.27466 0.8509 0.0
C916 C 0.09699 0.26644 0.82355 0.0
C917 C 0.08213 0.25057 0.81856 0.0
H918 H 0.05432 0.23527 0.82591 0.0
H919 H 0.07691 0.28434 0.86325 0.0
C920 C 0.00188 0.29639 0.90958 0.0
N921 N 0.01724 0.29547 0.89784 0.0
C922 C 0.99964 0.31411 0.92073 0.0
C923 C 0.02915 0.32958 0.90757 0.0
C924 C 0.03078 0.31158 0.89665 0.0
C925 C 0.01346 0.33099 0.91987 0.0
H926 H 0.99152 0.28326 0.9105 0.0
H927 H 0.04293 0.31041 0.88728 0.0
C928 C 0.03107 0.20818 0.85207 0.0
N929 N 0.0404 0.16854 0.84281 0.0
C930 C 0.01546 0.19337 0.84669 0.0
C931 C 0.05145 0.2029 0.85235 0.0
C932 C 0.02047 0.17339 0.84217 0.0
C933 C 0.05585 0.18276 0.84773 0.0
C934 C 0.98098 0.24225 0.88956 0.0
C935 C 0.97554 0.22322 0.89592 0.0
C936 C 0.96576 0.25575 0.88553 0.0
C937 C 0.95493 0.21787 0.89781 0.0
C938 C 0.94532 0.24982 0.88758 0.0
N939 N 0.94037 0.23115 0.89361 0.0
C940 C 0.04354 0.21741 0.91649 0.0
C941 C 0.02358 0.19317 0.89651 0.0
C942 C 0.04765 0.20269 0.92914 0.0
N943 N 0.03192 0.2124 0.90042 0.0
C944 C 0.0271 0.178 0.90889 0.0
C945 C 0.03938 0.18267 0.9254 0.0
H946 H 0.04951 0.23292 0.91958 0.0
H947 H 0.01385 0.18966 0.88399 0.0
C948 C 0.97587 0.25263 0.82979 0.0
N949 N 0.97961 0.24017 0.84381 0.0
C950 C 0.95836 0.24916 0.81775 0.0
C951 C 0.94896 0.21988 0.83461 0.0
C952 C 0.9667 0.22389 0.84629 0.0
C953 C 0.94458 0.23263 0.82011 0.0
H954 H 0.98648 0.26532 0.82794 0.0
H955 H 0.97015 0.21397 0.85731 0.0
O956 O 0.04655 0.25809 0.88809 0.0
O957 O 0.01861 0.27249 0.85541 0.0
O958 O 0.02641 0.22784 0.85651 0.0
O959 O 0.00108 0.24769 0.88748 0.0
H960 H 0.0686 0.29059 0.90281 0.0
H961 H 0.07063 0.22705 0.88579 0.0
H962 H 0.1058 0.29149 0.91167 0.0
H963 H 0.10783 0.22906 0.89475 0.0
H964 H 0.97816 0.32655 0.85535 0.0
H965 H 0.04627 0.30037 0.84659 0.0
H966 H 0.98341 0.28991 0.85876 0.0
H967 H 0.03994 0.3368 0.84326 0.0
H968 H 0.10584 0.29124 0.8442 0.0
H969 H 0.08304 0.24075 0.80609 0.0
H970 H 0.98752 0.31442 0.93023 0.0
H971 H 0.04003 0.34227 0.90634 0.0
H972 H 0.99963 0.19719 0.84616 0.0
H973 H 0.06378 0.21425 0.85587 0.0
H974 H 0.00852 0.16175 0.83815 0.0
H975 H 0.07156 0.17847 0.84796 0.0
H976 H 0.98708 0.21267 0.89931 0.0
H977 H 0.96968 0.27062 0.88084 0.0
H978 H 0.95052 0.20314 0.90262 0.0
H979 H 0.9334 0.26007 0.88439 0.0
H980 H 0.05688 0.20702 0.94188 0.0
H981 H 0.0204 0.16275 0.9055 0.0
H982 H 0.95552 0.25948 0.80686 0.0
H983 H 0.93894 0.20678 0.83675 0.0
Li984 Li 0.53861 0.75134 0.36145 0.0
Li985 Li 0.51737 0.76944 0.38456 0.0
Li986 Li 0.52347 0.7318 0.38442 0.0
Li987 Li 0.50208 0.74454 0.36066 0.0
C988 C 0.56352 0.76317 0.39076 0.0
N989 N 0.60358 0.77883 0.39299 0.0
C990 C 0.56807 0.78379 0.39588 0.0
C991 C 0.57941 0.75047 0.38699 0.0
C992 C 0.5884 0.79142 0.39689 0.0
C993 C 0.59953 0.75869 0.38812 0.0
C994 C 0.50834 0.77772 0.34169 0.0
C995 C 0.48484 0.79903 0.32604 0.0
N996 N 0.48926 0.79009 0.30939 0.0
C997 C 0.51274 0.7688 0.32444 0.0
C998 C 0.49436 0.79301 0.34254 0.0
C999 C 0.50289 0.77524 0.30826 0.0
C1000 C 0.56812 0.74077 0.33567 0.0
N1001 N 0.56116 0.75613 0.34657 0.0
C1002 C 0.58609 0.77982 0.33619 0.0
C1003 C 0.56956 0.77544 0.34681 0.0
C1004 C 0.59385 0.76422 0.32499 0.0
C1005 C 0.58457 0.74449 0.32474 0.0
H1006 H 0.56084 0.72566 0.33535 0.0
H1007 H 0.56337 0.78746 0.35527 0.0
C1008 C 0.50877 0.7923 0.41696 0.0
N1009 N 0.51437 0.79375 0.39927 0.0
C1010 C 0.50637 0.80988 0.42823 0.0
C1011 C 0.51623 0.8301 0.40304 0.0
C1012 C 0.51812 0.81211 0.39215 0.0
C1013 C 0.51018 0.82907 0.42129 0.0
H1014 H 0.50608 0.77745 0.42225 0.0
H1015 H 0.52275 0.81275 0.37806 0.0
C1016 C 0.52614 0.70436 0.35842 0.0
N1017 N 0.53174 0.66347 0.36235 0.0
C1018 C 0.50937 0.69025 0.35662 0.0
C1019 C 0.54577 0.69763 0.36214 0.0
C1020 C 0.51251 0.66965 0.35865 0.0
C1021 C 0.54828 0.67692 0.36412 0.0
C1022 C 0.47695 0.74364 0.38816 0.0
C1023 C 0.46684 0.72489 0.38248 0.0
C1024 C 0.46563 0.75994 0.39414 0.0
C1025 C 0.44557 0.72277 0.38279 0.0
C1026 C 0.44438 0.7572 0.39429 0.0
N1027 N 0.43487 0.73883 0.38865 0.0
C1028 C 0.54638 0.7109 0.41092 0.0
C1029 C 0.513 0.69612 0.40344 0.0
C1030 C 0.55046 0.69602 0.42341 0.0
N1031 N 0.52794 0.71065 0.40115 0.0
C1032 C 0.51642 0.6809 0.41577 0.0
C1033 C 0.53538 0.68071 0.42597 0.0
H1034 H 0.5579 0.72278 0.40915 0.0
H1035 H 0.49844 0.69622 0.39563 0.0
C1036 C 0.47832 0.72536 0.32964 0.0
N1037 N 0.47832 0.74013 0.34363 0.0
C1038 C 0.4614 0.72186 0.31688 0.0
C1039 C 0.4451 0.7494 0.33268 0.0
C1040 C 0.46232 0.75234 0.34512 0.0
C1041 C 0.44442 0.73388 0.31838 0.0
H1042 H 0.49158 0.71644 0.32823 0.0
H1043 H 0.46295 0.76448 0.35592 0.0
O1044 O 0.54364 0.75549 0.38935 0.0
O1045 O 0.5174 0.77123 0.35769 0.0
O1046 O 0.52334 0.72468 0.35688 0.0
O1047 O 0.49779 0.74605 0.38793 0.0
H1048 H 0.55606 0.79383 0.39897 0.0
H1049 H 0.57623 0.7345 0.383 0.0
H1050 H 0.59211 0.80737 0.40075 0.0
H1051 H 0.61193 0.74907 0.38508 0.0
H1052 H 0.47389 0.81076 0.32647 0.0
H1053 H 0.52343 0.75684 0.32359 0.0
H1054 H 0.4907 0.79995 0.35581 0.0
H1055 H 0.50603 0.76839 0.29482 0.0
H1056 H 0.59251 0.79533 0.33654 0.0
H1057 H 0.59009 0.732 0.31634 0.0
H1058 H 0.5019 0.80849 0.44231 0.0
H1059 H 0.51925 0.84464 0.39722 0.0
H1060 H 0.49403 0.69511 0.35393 0.0
H1061 H 0.55892 0.70829 0.36371 0.0
H1062 H 0.49965 0.6586 0.35738 0.0
H1063 H 0.56338 0.67154 0.36712 0.0
H1064 H 0.47523 0.71224 0.37747 0.0
H1065 H 0.47309 0.77462 0.39841 0.0
H1066 H 0.43755 0.70839 0.37828 0.0
H1067 H 0.43544 0.76971 0.39883 0.0
H1068 H 0.56517 0.69672 0.4312 0.0
H1069 H 0.50441 0.6693 0.41715 0.0
H1070 H 0.46176 0.71007 0.3058 0.0
H1071 H 0.43237 0.75903 0.33439 0.0
Li1072 Li 0.01835 0.77967 0.61371 0.0
Li1073 Li 0.99799 0.76446 0.6373 0.0
Li1074 Li 0.03438 0.75843 0.63579 0.0
Li1075 Li 0.00903 0.74318 0.61202 0.0
C1076 C 0.02383 0.80506 0.64361 0.0
N1077 N 0.02743 0.84712 0.64697 0.0
C1078 C 0.00748 0.81613 0.64934 0.0
C1079 C 0.04206 0.81537 0.6397 0.0
C1080 C 0.0096 0.8374 0.65095 0.0
C1081 C 0.04356 0.83664 0.64143 0.0
C1082 C 0.9782 0.75914 0.59539 0.0
C1083 C 0.95041 0.73696 0.5812 0.0
N1084 N 0.95477 0.74324 0.56421 0.0
C1085 C 0.98237 0.76543 0.57781 0.0
C1086 C 0.96206 0.74486 0.59714 0.0
C1087 C 0.97034 0.7572 0.56221 0.0
C1088 C 0.03714 0.80274 0.58709 0.0
N1089 N 0.02204 0.80264 0.59913 0.0
C1090 C 0.01194 0.83515 0.58999 0.0
C1091 C 0.0093 0.81823 0.60056 0.0
C1092 C 0.02754 0.83575 0.57755 0.0
C1093 C 0.04016 0.81921 0.57609 0.0
H1094 H 0.04678 0.78997 0.58594 0.0
H1095 H 0.99708 0.81752 0.60989 0.0
C1096 C 0.98326 0.77011 0.67273 0.0
N1097 N 0.97732 0.76873 0.6543 0.0
C1098 C 0.96878 0.77184 0.68599 0.0
C1099 C 0.9424 0.77194 0.66104 0.0
C1100 C 0.9574 0.76984 0.64824 0.0
C1101 C 0.94795 0.77271 0.68027 0.0
H1102 H 0.99927 0.76941 0.67713 0.0
H1103 H 0.95314 0.769 0.63349 0.0
C1104 C 0.05532 0.75119 0.6069 0.0
N1105 N 0.09494 0.73903 0.60572 0.0
C1106 C 0.05895 0.73072 0.60286 0.0
C1107 C 0.07183 0.76549 0.61028 0.0
C1108 C 0.0791 0.72488 0.60232 0.0
C1109 C 0.09175 0.75903 0.60965 0.0
C1110 C 0.00294 0.7296 0.65308 0.0
C1111 C 0.0141 0.72906 0.6702 0.0
C1112 C 0.98258 0.72197 0.65116 0.0
C1113 C 0.00467 0.72095 0.68513 0.0
C1114 C 0.97369 0.71404 0.66644 0.0
N1115 N 0.98482 0.71369 0.68297 0.0
C1116 C 0.06893 0.76947 0.66061 0.0
C1117 C 0.06527 0.73452 0.65036 0.0
C1118 C 0.08653 0.76609 0.67166 0.0
N1119 N 0.05875 0.75378 0.65027 0.0
C1120 C 0.08284 0.73045 0.66115 0.0
C1121 C 0.09366 0.74634 0.67208 0.0
H1122 H 0.06329 0.78459 0.66043 0.0
H1123 H 0.05665 0.72228 0.64221 0.0
C1124 C 0.00847 0.72091 0.57746 0.0
N1125 N 0.00274 0.72001 0.59517 0.0
C1126 C 0.00509 0.70398 0.56484 0.0
C1127 C 0.98965 0.68563 0.58884 0.0
C1128 C 0.99347 0.70287 0.60102 0.0
C1129 C 0.99567 0.68594 0.5705 0.0
H1130 H 0.01601 0.73471 0.57326 0.0
H1131 H 0.98923 0.70248 0.6152 0.0
O1132 O 0.02198 0.78425 0.64174 0.0
O1133 O 0.99017 0.76656 0.61075 0.0
O1134 O 0.03573 0.75715 0.60791 0.0
O1135 O 0.01183 0.73775 0.63836 0.0
H1136 H 0.99324 0.80843 0.65238 0.0
H1137 H 0.05482 0.80704 0.63512 0.0
H1138 H 0.99705 0.84617 0.6553 0.0
H1139 H 0.05752 0.84482 0.63832 0.0
H1140 H 0.93796 0.72579 0.58233 0.0
H1141 H 0.99488 0.77638 0.57619 0.0
H1142 H 0.95873 0.73971 0.61063 0.0
H1143 H 0.97345 0.76185 0.5485 0.0
H1144 H 0.00169 0.84746 0.59132 0.0
H1145 H 0.0524 0.81911 0.5667 0.0
H1146 H 0.97392 0.77203 0.70055 0.0
H1147 H 0.92666 0.77302 0.65588 0.0
H1148 H 0.04638 0.7194 0.60041 0.0
H1149 H 0.0693 0.78136 0.61359 0.0
H1150 H 0.08214 0.70907 0.59929 0.0
H1151 H 0.10467 0.7699 0.61235 0.0
H1152 H 0.02981 0.73503 0.67202 0.0
H1153 H 0.9736 0.72257 0.63813 0.0
H1154 H 0.0131 0.7205 0.69847 0.0
H1155 H 0.9579 0.70825 0.66519 0.0
H1156 H 0.0945 0.7788 0.67975 0.0
H1157 H 0.0876 0.71495 0.66128 0.0
H1158 H 0.01028 0.70489 0.55096 0.0
H1159 H 0.98206 0.67221 0.59377 0.0
Li1160 Li 0.51779 0.27968 0.11543 0.0
Li1161 Li 0.49654 0.2628 0.13756 0.0
Li1162 Li 0.53413 0.2573 0.13678 0.0
Li1163 Li 0.50998 0.24152 0.11218 0.0
C1164 C 0.52277 0.30303 0.14828 0.0
N1165 N 0.52758 0.34423 0.1583 0.0
C1166 C 0.50626 0.31357 0.15445 0.0
C1167 C 0.54179 0.31337 0.14744 0.0
C1168 C 0.50899 0.33442 0.15941 0.0
C1169 C 0.54389 0.33423 0.15248 0.0
C1170 C 0.47093 0.26644 0.10484 0.0
C1171 C 0.43648 0.25238 0.09755 0.0
N1172 N 0.43037 0.27128 0.09405 0.0
C1173 C 0.46435 0.28569 0.10098 0.0
C1174 C 0.45693 0.2496 0.10293 0.0
C1175 C 0.44377 0.28784 0.09562 0.0
C1176 C 0.53342 0.30104 0.08651 0.0
N1177 N 0.52191 0.30317 0.10145 0.0
C1178 C 0.51695 0.33798 0.09546 0.0
C1179 C 0.51348 0.32113 0.10592 0.0
C1180 C 0.52893 0.33624 0.08005 0.0
C1181 C 0.53714 0.31743 0.07558 0.0
H1182 H 0.5397 0.28654 0.08304 0.0
H1183 H 0.50388 0.32236 0.11748 0.0
C1184 C 0.47777 0.25574 0.17033 0.0
N1185 N 0.47495 0.26497 0.15408 0.0
C1186 C 0.46295 0.25633 0.18337 0.0
C1187 C 0.44264 0.27625 0.16291 0.0
C1188 C 0.45789 0.27528 0.15027 0.0
C1189 C 0.44502 0.26663 0.17972 0.0
H1190 H 0.49163 0.24794 0.17319 0.0
H1191 H 0.45612 0.28295 0.13754 0.0
C1192 C 0.55638 0.25549 0.10696 0.0
N1193 N 0.59757 0.25161 0.10263 0.0
C1194 C 0.56331 0.23707 0.09984 0.0
C1195 C 0.57034 0.27202 0.11162 0.0
C1196 C 0.58421 0.23539 0.09782 0.0
C1197 C 0.59112 0.26973 0.1094 0.0
C1198 C 0.50278 0.21842 0.14247 0.0
C1199 C 0.51522 0.20334 0.14885 0.0
C1200 C 0.48166 0.21431 0.13971 0.0
C1201 C 0.50635 0.18425 0.15204 0.0
C1202 C 0.47336 0.19504 0.14309 0.0
N1203 N 0.48577 0.18052 0.14911 0.0
C1204 C 0.56505 0.26555 0.16599 0.0
C1205 C 0.56759 0.23477 0.14774 0.0
C1206 C 0.58219 0.26138 0.17735 0.0
N1207 N 0.55815 0.25228 0.15154 0.0
C1208 C 0.58487 0.23008 0.15859 0.0
C1209 C 0.59233 0.24337 0.17377 0.0
H1210 H 0.55702 0.27919 0.16892 0.0
H1211 H 0.56154 0.22431 0.13636 0.0
C1212 C 0.49259 0.21916 0.07963 0.0
N1213 N 0.50498 0.21822 0.09535 0.0
C1214 C 0.48913 0.2021 0.06713 0.0
C1215 C 0.51152 0.18359 0.08711 0.0
C1216 C 0.51458 0.201 0.09917 0.0
C1217 C 0.49862 0.18398 0.07084 0.0
H1218 H 0.48545 0.23317 0.07676 0.0
H1219 H 0.52488 0.20088 0.11145 0.0
O1220 O 0.52038 0.28262 0.14338 0.0
O1221 O 0.49105 0.26407 0.11004 0.0
O1222 O 0.53602 0.25736 0.10928 0.0
O1223 O 0.51125 0.23716 0.13916 0.0
H1224 H 0.49147 0.30579 0.15529 0.0
H1225 H 0.55479 0.3054 0.14295 0.0
H1226 H 0.49632 0.34279 0.16411 0.0
H1227 H 0.55849 0.34245 0.15181 0.0
H1228 H 0.42547 0.23949 0.09607 0.0
H1229 H 0.47498 0.29885 0.10224 0.0
H1230 H 0.46181 0.23452 0.10541 0.0
H1231 H 0.43845 0.30267 0.09271 0.0
H1232 H 0.51003 0.35211 0.09919 0.0
H1233 H 0.54656 0.31545 0.06388 0.0
H1234 H 0.46567 0.24903 0.19628 0.0
H1235 H 0.42905 0.28428 0.15944 0.0
H1236 H 0.5527 0.22418 0.09602 0.0
H1237 H 0.56518 0.28644 0.1169 0.0
H1238 H 0.58981 0.22118 0.09244 0.0
H1239 H 0.6021 0.28237 0.11305 0.0
H1240 H 0.53158 0.20632 0.15121 0.0
H1241 H 0.47177 0.22591 0.13517 0.0
H1242 H 0.51581 0.1724 0.15687 0.0
H1243 H 0.45704 0.19165 0.14097 0.0
H1244 H 0.58709 0.2719 0.18908 0.0
H1245 H 0.59227 0.21616 0.1551 0.0
H1246 H 0.47899 0.20304 0.0548 0.0
H1247 H 0.51949 0.1701 0.09032 0.0
H1248 H 0.25902 0.71808 0.85359 0.0
H1249 H 0.23471 0.82721 0.89873 0.0
H1250 H 0.24504 0.76957 0.82164 0.0
H1251 H 0.26429 0.78207 0.93038 0.0
H1252 H 0.23597 0.80501 0.87063 0.0
H1253 H 0.2592 0.74017 0.88217 0.0
C1254 C 0.25617 0.73403 0.85254 0.0
C1255 C 0.25184 0.7419 0.83513 0.0
C1256 C 0.24222 0.79996 0.88372 0.0
C1257 C 0.25166 0.76714 0.86781 0.0
C1258 C 0.24158 0.81268 0.8998 0.0
C1259 C 0.24952 0.80662 0.91702 0.0
C1260 C 0.25072 0.78089 0.88477 0.0
C1261 C 0.25776 0.78733 0.9175 0.0
C1262 C 0.25615 0.7466 0.86888 0.0
C1263 C 0.24801 0.76267 0.83471 0.0
N1264 N 0.25814 0.77516 0.90162 0.0
N1265 N 0.2479 0.7745 0.85077 0.0
H1266 H 0.97554 0.50477 0.38934 0.0
H1267 H 0.08765 0.52305 0.35337 0.0
H1268 H 0.02491 0.53892 0.42151 0.0
H1269 H 0.03658 0.49411 0.31932 0.0
H1270 H 0.06537 0.52768 0.379 0.0
H1271 H 0.99809 0.49951 0.36394 0.0
C1272 C 0.99114 0.51116 0.39102 0.0
C1273 C 0.99836 0.52233 0.40747 0.0
C1274 C 0.05903 0.52032 0.36592 0.0
C1275 C 0.02428 0.51636 0.37858 0.0
C1276 C 0.07178 0.51756 0.35132 0.0
C1277 C 0.06397 0.50818 0.33416 0.0
C1278 C 0.03832 0.51357 0.36341 0.0
C1279 C 0.0432 0.50164 0.33222 0.0
C1280 C 0.004 0.50817 0.37654 0.0
C1281 C 0.0187 0.53026 0.40902 0.0
N1282 N 0.03112 0.50443 0.34667 0.0
N1283 N 0.03096 0.52711 0.39475 0.0
H1284 H 0.825 0.77539 0.83751 0.0
H1285 H 0.75453 0.71361 0.90395 0.0
H1286 H 0.75938 0.76685 0.82836 0.0
H1287 H 0.81978 0.72472 0.91455 0.0
H1288 H 0.75601 0.7329 0.87617 0.0
H1289 H 0.82344 0.75645 0.86551 0.0
C1290 C 0.81026 0.76945 0.84134 0.0
C1291 C 0.79229 0.77269 0.83051 0.0
C1292 C 0.77001 0.73114 0.88458 0.0
C1293 C 0.79038 0.7511 0.86272 0.0
C1294 C 0.76916 0.72021 0.90053 0.0
C1295 C 0.78706 0.71752 0.91168 0.0
C1296 C 0.78889 0.73948 0.87966 0.0
C1297 C 0.80562 0.72614 0.90629 0.0
C1298 C 0.80937 0.75872 0.8574 0.0
C1299 C 0.7736 0.76491 0.83636 0.0
N1300 N 0.80605 0.73672 0.89069 0.0
N1301 N 0.77314 0.75445 0.85203 0.0
H1302 H 0.02966 0.95555 0.41411 0.0
H1303 H 0.98832 0.03499 0.34282 0.0
H1304 H 0.0371 0.02088 0.42411 0.0
H1305 H 0.97225 0.97044 0.33629 0.0
H1306 H 0.00745 0.02977 0.37206 0.0
H1307 H 0.00954 0.96032 0.38507 0.0
C1308 C 0.02698 0.97088 0.41028 0.0
C1309 C 0.03522 0.98783 0.42155 0.0
C1310 C 0.99973 0.01673 0.36426 0.0
C1311 C 0.01243 0.99339 0.38823 0.0
C1312 C 0.98869 0.01972 0.34756 0.0
C1313 C 0.97856 0.00315 0.33704 0.0
C1314 C 1.00077 0.99701 0.37052 0.0
C1315 C 0.98001 0.98365 0.34378 0.0
C1316 C 0.01558 0.97359 0.39365 0.0
C1317 C 0.03142 0.00735 0.41573 0.0
N1318 N 0.9909 0.98112 0.36008 0.0
N1319 N 0.02038 0.00957 0.39949 0.0
H1320 H 0.25409 0.31088 0.65017 0.0
H1321 H 0.23559 0.20374 0.59334 0.0
H1322 H 0.23503 0.25614 0.67599 0.0
H1323 H 0.28129 0.24894 0.57949 0.0
H1324 H 0.22967 0.22486 0.6212 0.0
H1325 H 0.25856 0.29033 0.62156 0.0
C1326 C 0.2509 0.29457 0.64993 0.0
C1327 C 0.24435 0.28528 0.66574 0.0
C1328 C 0.24096 0.23011 0.612 0.0
C1329 C 0.24888 0.26182 0.6327 0.0
C1330 C 0.24451 0.218 0.59613 0.0
C1331 C 0.25922 0.22434 0.58402 0.0
C1332 C 0.25187 0.24891 0.6157 0.0
C1333 C 0.26967 0.24341 0.5882 0.0
C1334 C 0.25336 0.2829 0.63352 0.0
C1335 C 0.23986 0.26411 0.66422 0.0
N1336 N 0.26578 0.25502 0.60367 0.0
N1337 N 0.24218 0.25312 0.648 0.0
H1338 H 0.53144 0.50104 0.58285 0.0
H1339 H 0.49205 0.55996 0.67298 0.0
H1340 H 0.54081 0.56596 0.5947 0.0
H1341 H 0.47191 0.49821 0.65466 0.0
H1342 H 0.51239 0.56174 0.64579 0.0
H1343 H 0.51195 0.499 0.61056 0.0
C1344 C 0.52948 0.51485 0.59135 0.0
C1345 C 0.53772 0.53371 0.58644 0.0
C1346 C 0.5035 0.54781 0.64771 0.0
C1347 C 0.5154 0.5315 0.61814 0.0
C1348 C 0.49199 0.54674 0.66328 0.0
C1349 C 0.48024 0.52892 0.66608 0.0
C1350 C 0.50343 0.53086 0.6349 0.0
C1351 C 0.48056 0.51233 0.65294 0.0
C1352 C 0.51826 0.51369 0.60709 0.0
C1353 C 0.53453 0.55114 0.59785 0.0
N1354 N 0.49201 0.51368 0.63797 0.0
N1355 N 0.52368 0.54961 0.61318 0.0
H1356 H 0.81227 0.28873 0.68785 0.0
H1357 H 0.76126 0.28744 0.5838 0.0
H1358 H 0.77735 0.23689 0.66053 0.0
H1359 H 0.79585 0.33929 0.61156 0.0
H1360 H 0.76723 0.26849 0.61157 0.0
H1361 H 0.8065 0.30745 0.65988 0.0
C1362 C 0.80337 0.28132 0.67594 0.0
C1363 C 0.79526 0.2613 0.67649 0.0
C1364 C 0.77351 0.28402 0.61159 0.0
C1365 C 0.78858 0.28253 0.64444 0.0
C1366 C 0.77021 0.29481 0.5957 0.0
C1367 C 0.77805 0.31501 0.59534 0.0
C1368 C 0.78479 0.29346 0.62726 0.0
C1369 C 0.78927 0.32386 0.61128 0.0
C1370 C 0.80008 0.29198 0.65998 0.0
C1371 C 0.78386 0.25234 0.66071 0.0
N1372 N 0.79231 0.31304 0.62656 0.0
N1373 N 0.78086 0.26303 0.64531 0.0
H1374 H 0.47374 0.9941 0.59227 0.0
H1375 H 0.58526 0.97861 0.63968 0.0
H1376 H 0.52735 0.98513 0.5617 0.0
H1377 H 0.53325 0.99176 0.67123 0.0
H1378 H 0.56377 0.97996 0.611 0.0
H1379 H 0.49484 0.99272 0.62139 0.0
C1380 C 0.48995 0.99197 0.59167 0.0
C1381 C 0.49875 0.98964 0.57448 0.0
C1382 C 0.55701 0.98253 0.62418 0.0
C1383 C 0.52293 0.98781 0.60773 0.0
C1384 C 0.56931 0.98184 0.64059 0.0
C1385 C 0.5611 0.98518 0.65793 0.0
C1386 C 0.53626 0.98659 0.62502 0.0
C1387 C 0.54021 0.9889 0.65819 0.0
C1388 C 0.50196 0.99105 0.60829 0.0
C1389 C 0.5198 0.98666 0.57458 0.0
N1390 N 0.52852 0.98957 0.64199 0.0
N1391 N 0.53113 0.98582 0.5909 0.0
H1392 H 0.82012 0.2056 0.77407 0.0
H1393 H 0.94042 0.23545 0.78232 0.0
H1394 H 0.8552 0.21821 0.72708 0.0
H1395 H 0.90591 0.22097 0.82919 0.0
H1396 H 0.90925 0.22953 0.76193 0.0
H1397 H 0.85132 0.21119 0.79451 0.0
C1398 C 0.8344 0.20945 0.76803 0.0
C1399 C 0.83502 0.21145 0.74881 0.0
C1400 C 0.90848 0.22762 0.77667 0.0
C1401 C 0.8708 0.21807 0.77218 0.0
C1402 C 0.92626 0.23111 0.78834 0.0
C1403 C 0.92579 0.22875 0.80752 0.0
C1404 C 0.89002 0.22175 0.78419 0.0
C1405 C 0.90705 0.22276 0.81448 0.0
C1406 C 0.8522 0.21274 0.77973 0.0
C1407 C 0.85392 0.21677 0.74182 0.0
N1408 N 0.88992 0.21951 0.80283 0.0
N1409 N 0.87103 0.21988 0.7535 0.0
H1410 H 0.53446 0.93916 0.49235 0.0
H1411 H 0.47838 0.83861 0.4423 0.0
H1412 H 0.46902 0.92768 0.49046 0.0
H1413 H 0.53721 0.86216 0.4273 0.0
H1414 H 0.47557 0.86948 0.46249 0.0
H1415 H 0.53679 0.90923 0.47081 0.0
C1416 C 0.5206 0.93035 0.48732 0.0
C1417 C 0.50155 0.93589 0.49308 0.0
C1418 C 0.48905 0.86792 0.45471 0.0
C1419 C 0.50406 0.90162 0.46874 0.0
C1420 C 0.4907 0.8503 0.44329 0.0
C1421 C 0.50806 0.84788 0.43315 0.0
C1422 C 0.50502 0.88307 0.45624 0.0
C1423 C 0.52352 0.86353 0.43479 0.0
C1424 C 0.52192 0.91335 0.47503 0.0
C1425 C 0.48401 0.92399 0.48627 0.0
N1426 N 0.52171 0.88041 0.44624 0.0
N1427 N 0.48571 0.90731 0.47454 0.0
H1428 H 0.21294 0.30524 0.78231 0.0
H1429 H 0.09614 0.26456 0.78532 0.0
H1430 H 0.17448 0.2852 0.73324 0.0
H1431 H 0.13702 0.27806 0.83432 0.0
H1432 H 0.12436 0.27239 0.76597 0.0
H1433 H 0.18495 0.29607 0.80157 0.0
C1434 C 0.19858 0.29888 0.77562 0.0
C1435 C 0.19602 0.29595 0.7562 0.0
C1436 C 0.12716 0.27359 0.78095 0.0
C1437 C 0.16388 0.28545 0.77808 0.0
C1438 C 0.11107 0.269 0.79204 0.0
C1439 C 0.11414 0.27066 0.81153 0.0
C1440 C 0.1465 0.27997 0.78938 0.0
C1441 C 0.13379 0.27685 0.81938 0.0
C1442 C 0.18262 0.29362 0.7866 0.0
C1443 C 0.17712 0.28768 0.74818 0.0
N1444 N 0.14918 0.2813 0.8083 0.0
N1445 N 0.16175 0.28276 0.75917 0.0
H1446 H 0.59289 0.59327 0.49418 0.0
H1447 H 0.5093 0.66426 0.45012 0.0
H1448 H 0.53094 0.59397 0.51084 0.0
H1449 H 0.57066 0.66085 0.43226 0.0
H1450 H 0.51663 0.63852 0.47232 0.0
H1451 H 0.58486 0.61825 0.4715 0.0
C1452 C 0.57758 0.59873 0.49304 0.0
C1453 C 0.56258 0.59161 0.50438 0.0
C1454 C 0.52847 0.6434 0.46352 0.0
C1455 C 0.5532 0.62019 0.47846 0.0
C1456 C 0.52427 0.65801 0.45076 0.0
C1457 C 0.53941 0.6648 0.43931 0.0
C1458 C 0.54796 0.63549 0.46487 0.0
C1459 C 0.55861 0.65635 0.44098 0.0
C1460 C 0.57298 0.61297 0.48009 0.0
C1461 C 0.54297 0.5991 0.50237 0.0
N1462 N 0.56233 0.64218 0.45351 0.0
N1463 N 0.53884 0.61303 0.48964 0.0
H1464 H 0.8863 0.78443 0.78277 0.0
H1465 H 0.90823 0.75631 0.67745 0.0
H1466 H 0.83783 0.77567 0.7393 0.0
H1467 H 0.95152 0.79236 0.71527 0.0
H1468 H 0.88297 0.75858 0.70081 0.0
H1469 H 0.91148 0.78208 0.75909 0.0
C1470 C 0.881 0.78193 0.76824 0.0
C1471 C 0.86003 0.78038 0.76293 0.0
C1472 C 0.89802 0.76599 0.70391 0.0
C1473 C 0.88858 0.77745 0.73591 0.0
C1474 C 0.91246 0.76485 0.69054 0.0
C1475 C 0.9322 0.77416 0.69426 0.0
C1476 C 0.90338 0.77621 0.72129 0.0
C1477 C 0.93675 0.78456 0.71177 0.0
C1478 C 0.89532 0.78069 0.75477 0.0
C1479 C 0.85388 0.77712 0.74395 0.0
N1480 N 0.92251 0.78519 0.72464 0.0
N1481 N 0.86811 0.77566 0.7311 0.0
H1482 H 0.04221 0.91478 0.48693 0.0
H1483 H 0.02806 0.87629 0.58861 0.0
H1484 H 0.05325 0.95386 0.53709 0.0
H1485 H 0.03398 0.83551 0.54042 0.0
H1486 H 0.0336 0.9053 0.56949 0.0
H1487 H 0.0356 0.88586 0.50589 0.0
C1488 C 0.04317 0.91729 0.50193 0.0
C1489 C 0.04825 0.93673 0.51051 0.0
C1490 C 0.0337 0.89 0.56311 0.0
C1491 C 0.04066 0.90377 0.53224 0.0
C1492 C 0.03041 0.87346 0.57398 0.0
C1493 C 0.03061 0.85347 0.56608 0.0
C1494 C 0.03696 0.88655 0.54415 0.0
C1495 C 0.03394 0.85067 0.5471 0.0
C1496 C 0.03946 0.90077 0.51274 0.0
C1497 C 0.04937 0.93909 0.52998 0.0
N1498 N 0.03691 0.86702 0.53676 0.0
N1499 N 0.04554 0.92282 0.54021 0.0
H1500 H 0.20699 0.7016 0.71843 0.0
H1501 H 0.10407 0.76165 0.70775 0.0
H1502 H 0.18395 0.73903 0.7627 0.0
H1503 H 0.12481 0.72159 0.66414 0.0
H1504 H 0.13394 0.75439 0.72769 0.0
H1505 H 0.17752 0.70937 0.69796 0.0
C1506 C 0.19572 0.71145 0.72381 0.0
C1507 C 0.19789 0.71967 0.74224 0.0
C1508 C 0.13199 0.74719 0.71376 0.0
C1509 C 0.16422 0.72865 0.719 0.0
C1510 C 0.11499 0.75144 0.70231 0.0
C1511 C 0.11194 0.74224 0.68422 0.0
C1512 C 0.14611 0.73365 0.70709 0.0
C1513 C 0.12644 0.72885 0.67805 0.0
C1514 C 0.17892 0.71588 0.71215 0.0
C1515 C 0.18289 0.73234 0.74858 0.0
N1516 N 0.1429 0.72498 0.68946 0.0
N1517 N 0.16671 0.73645 0.73697 0.0
H1518 H 0.97803 0.60102 0.47325 0.0
H1519 H 0.99924 0.64599 0.57852 0.0
H1520 H 0.97657 0.56408 0.52057 0.0
H1521 H 0.98529 0.68353 0.53282 0.0
H1522 H 0.99402 0.61581 0.55713 0.0
H1523 H 0.98421 0.63147 0.49451 0.0
C1524 C 0.97916 0.59933 0.48811 0.0
C1525 C 0.97675 0.58003 0.49518 0.0
C1526 C 0.99207 0.63066 0.55179 0.0
C1527 C 0.98372 0.61472 0.51953 0.0
C1528 C 0.99492 0.64793 0.56403 0.0
C1529 C 0.99259 0.66742 0.55753 0.0
C1530 C 0.98701 0.63281 0.53285 0.0
C1531 C 0.98749 0.66889 0.53846 0.0
C1532 C 0.98254 0.6167 0.50023 0.0
C1533 C 0.97813 0.5787 0.51455 0.0
N1534 N 0.98489 0.65183 0.5268 0.0
N1535 N 0.98156 0.5958 0.52605 0.0
H1536 H 0.7755 0.834 0.24153 0.0
H1537 H 0.82611 0.93374 0.20088 0.0
H1538 H 0.76441 0.85018 0.18485 0.0
H1539 H 0.84311 0.91368 0.25532 0.0
H1540 H 0.80206 0.90418 0.19536 0.0
H1541 H 0.79861 0.86435 0.2476 0.0
C1542 C 0.77782 0.84402 0.2304 0.0
C1543 C 0.76806 0.83952 0.21264 0.0
C1544 C 0.81105 0.90624 0.20852 0.0
C1545 C 0.7946 0.87419 0.21944 0.0
C1546 C 0.82489 0.92307 0.21165 0.0
C1547 C 0.83676 0.92621 0.22858 0.0
C1548 C 0.80895 0.89241 0.22243 0.0
C1549 C 0.83415 0.91205 0.24215 0.0
C1550 C 0.79111 0.86127 0.23384 0.0
C1551 C 0.77181 0.85292 0.19868 0.0
N1552 N 0.82055 0.89577 0.23877 0.0
N1553 N 0.78477 0.86963 0.20238 0.0
H1554 H 0.80604 0.20514 0.30276 0.0
H1555 H 0.81878 0.08774 0.27388 0.0
H1556 H 0.75524 0.16254 0.28572 0.0
H1557 H 0.86774 0.1337 0.27139 0.0
H1558 H 0.79601 0.11437 0.2823 0.0
H1559 H 0.82968 0.17841 0.29563 0.0
C1560 C 0.79989 0.19013 0.29763 0.0
C1561 C 0.77868 0.18603 0.29473 0.0
C1562 C 0.81174 0.11861 0.27989 0.0
C1563 C 0.80551 0.1555 0.28666 0.0
C1564 C 0.82477 0.10341 0.27494 0.0
C1565 C 0.84527 0.10839 0.27167 0.0
C1566 C 0.81921 0.13902 0.28184 0.0
C1567 C 0.85217 0.12903 0.27391 0.0
C1568 C 0.81335 0.17496 0.29347 0.0
C1569 C 0.77149 0.16638 0.28796 0.0
N1570 N 0.83917 0.14357 0.27886 0.0
N1571 N 0.78486 0.15184 0.28421 0.0
H1572 H 0.41935 0.01737 0.94841 0.0
H1573 H 0.37174 0.93735 0.01419 0.0
H1574 H 0.44513 0.01047 0.004 0.0
H1575 H 0.33494 0.96558 0.97237 0.0
H1576 H 0.40097 0.96023 0.0082 0.0
H1577 H 0.39023 0.99436 0.95441 0.0
C1578 C 0.41889 0.0109 0.96183 0.0
C1579 C 0.43456 0.01577 0.97576 0.0
C1580 C 0.38647 0.96142 1.00038 0.0
C1581 C 0.40157 0.98947 0.98265 0.0
C1582 C 0.36987 0.94836 0.00374 0.0
C1583 C 0.35097 0.94969 0.99379 0.0
C1584 C 0.38421 0.9756 0.98673 0.0
C1585 C 0.34925 0.96424 0.98043 0.0
C1586 C 0.40227 0.99791 0.96528 0.0
C1587 C 0.43324 0.00714 0.99297 0.0
N1588 N 0.36572 0.97655 0.97718 0.0
N1589 N 0.41707 0.99428 0.99591 0.0
H1590 H 0.25693 0.31496 0.26093 0.0
H1591 H 0.20706 0.41702 0.29689 0.0
H1592 H 0.26381 0.33924 0.31799 0.0
H1593 H 0.19015 0.38609 0.24329 0.0
H1594 H 0.22875 0.38919 0.30454 0.0
H1595 H 0.23313 0.34131 0.25386 0.0
C1596 C 0.2534 0.32583 0.27197 0.0
C1597 C 0.26242 0.32496 0.29006 0.0
C1598 C 0.22024 0.38843 0.29113 0.0
C1599 C 0.23523 0.35517 0.28207 0.0
C1600 C 0.20797 0.40438 0.28671 0.0
C1601 C 0.19687 0.40392 0.26938 0.0
C1602 C 0.22163 0.37195 0.27808 0.0
C1603 C 0.19836 0.387 0.25684 0.0
C1604 C 0.23975 0.34081 0.26795 0.0
C1605 C 0.2571 0.33927 0.30389 0.0
N1606 N 0.21062 0.37176 0.26138 0.0
N1607 N 0.24398 0.35387 0.29957 0.0
H1608 H 0.0807 0.03795 0.45471 0.0
H1609 H 0.1936 0.05675 0.50263 0.0
H1610 H 0.11421 0.98962 0.47794 0.0
H1611 H 0.16683 0.09632 0.46326 0.0
H1612 H 0.1635 0.03321 0.4968 0.0
H1613 H 0.11088 0.06102 0.46119 0.0
C1614 C 0.09443 0.03212 0.46109 0.0
C1615 C 0.09492 0.01168 0.46558 0.0
C1616 C 0.16428 0.04707 0.48946 0.0
C1617 C 0.1295 0.03826 0.47338 0.0
C1618 C 0.18151 0.06049 0.49269 0.0
C1619 C 0.18283 0.07867 0.48347 0.0
C1620 C 0.14814 0.05193 0.47709 0.0
C1621 C 0.16642 0.08276 0.471 0.0
C1622 C 0.11163 0.04536 0.46485 0.0
C1623 C 0.11302 0.00525 0.47434 0.0
N1624 N 0.14978 0.06956 0.46824 0.0
N1625 N 0.12961 0.01849 0.47794 0.0
H1626 H 0.77017 0.1752 0.75882 0.0
H1627 H 0.70496 0.07852 0.70949 0.0
H1628 H 0.76588 0.16071 0.69953 0.0
H1629 H 0.70329 0.0971 0.76776 0.0
H1630 H 0.72802 0.108 0.70574 0.0
H1631 H 0.74666 0.14596 0.76259 0.0
C1632 C 0.76433 0.16582 0.7466 0.0
C1633 C 0.77002 0.17039 0.72883 0.0
C1634 C 0.72259 0.10565 0.71935 0.0
C1635 C 0.74301 0.13695 0.73303 0.0
C1636 C 0.70931 0.08886 0.72149 0.0
C1637 C 0.70208 0.0853 0.73897 0.0
C1638 C 0.7288 0.11901 0.7348 0.0
C1639 C 0.70864 0.09905 0.75407 0.0
C1640 C 0.75082 0.14919 0.74875 0.0
C1641 C 0.76175 0.15787 0.71346 0.0
N1642 N 0.72162 0.11528 0.75164 0.0
N1643 N 0.74872 0.1417 0.71592 0.0
H1644 H 0.45574 0.0301 0.50909 0.0
H1645 H 0.34764 0.06857 0.53507 0.0
H1646 H 0.42781 0.01313 0.55879 0.0
H1647 H 0.38767 0.10232 0.50145 0.0
H1648 H 0.37515 0.04569 0.54187 0.0
H1649 H 0.42922 0.05441 0.50391 0.0
C1650 C 0.44399 0.03153 0.5189 0.0
C1651 C 0.44388 0.01961 0.53436 0.0
C1652 C 0.37792 0.05816 0.53308 0.0
C1653 C 0.41347 0.0472 0.52847 0.0
C1654 C 0.36223 0.07111 0.52911 0.0
C1655 C 0.36543 0.08729 0.51765 0.0
C1656 C 0.3968 0.0612 0.52526 0.0
C1657 C 0.38464 0.09007 0.51042 0.0
C1658 C 0.42895 0.04545 0.516 0.0
C1659 C 0.42844 0.02213 0.54675 0.0
N1660 N 0.39956 0.07704 0.51421 0.0
N1661 N 0.41371 0.03553 0.54344 0.0
H1662 H 0.61169 0.53026 0.53381 0.0
H1663 H 0.65615 0.42177 0.54552 0.0
H1664 H 0.57606 0.48147 0.55593 0.0
H1665 H 0.67355 0.46073 0.50243 0.0
H1666 H 0.62907 0.44455 0.5528 0.0
H1667 H 0.63728 0.50629 0.52588 0.0
C1668 C 0.60908 0.51449 0.53688 0.0
C1669 C 0.59141 0.50792 0.54536 0.0
C1670 C 0.63882 0.448 0.54172 0.0
C1671 C 0.62119 0.48044 0.53674 0.0
C1672 C 0.65423 0.43494 0.53744 0.0
C1673 C 0.66736 0.43927 0.52333 0.0
C1674 C 0.63668 0.4657 0.53208 0.0
C1675 C 0.66423 0.4569 0.51369 0.0
C1676 C 0.62382 0.50083 0.53242 0.0
C1677 C 0.58944 0.48735 0.54955 0.0
N1678 N 0.64936 0.46951 0.51833 0.0
N1679 N 0.60417 0.47435 0.54524 0.0
H1680 H 0.78535 0.24784 0.33836 0.0
H1681 H 0.72208 0.29063 0.4223 0.0
H1682 H 0.72011 0.23738 0.3406 0.0
H1683 H 0.7847 0.31027 0.41498 0.0
H1684 H 0.72171 0.26909 0.39352 0.0
H1685 H 0.7862 0.26848 0.36786 0.0
C1686 C 0.77124 0.2498 0.34512 0.0
C1687 C 0.75262 0.241 0.33697 0.0
C1688 C 0.73554 0.27811 0.39823 0.0
C1689 C 0.75344 0.26459 0.37063 0.0
C1690 C 0.73573 0.29053 0.41463 0.0
C1691 C 0.75344 0.30236 0.42114 0.0
C1692 C 0.75321 0.27741 0.38825 0.0
C1693 C 0.77078 0.30122 0.41071 0.0
C1694 C 0.7717 0.26166 0.36188 0.0
C1695 C 0.73476 0.24414 0.34625 0.0
N1696 N 0.77023 0.28899 0.39481 0.0
N1697 N 0.73562 0.25565 0.36257 0.0
H1698 H 0.50043 0.98338 0.90766 0.0
H1699 H 0.57107 0.0395 0.83757 0.0
H1700 H 0.5148 0.04819 0.91147 0.0
H1701 H 0.55709 0.97458 0.83459 0.0
H1702 H 0.55024 0.04318 0.86436 0.0
H1703 H 0.52097 0.97998 0.88064 0.0
C1704 C 0.50793 0.99689 0.90277 0.0
C1705 C 0.50596 0.01605 0.91179 0.0
C1706 C 0.55174 0.02813 0.85785 0.0
C1707 C 0.52948 0.01235 0.8809 0.0
C1708 C 0.56354 0.02603 0.84248 0.0
C1709 C 0.56586 0.00669 0.8338 0.0
C1710 C 0.54212 0.01078 0.86459 0.0
C1711 C 0.55598 0.98975 0.84097 0.0
C1712 C 0.51965 0.99496 0.88736 0.0
C1713 C 0.51595 0.0331 0.90493 0.0
N1714 N 0.54455 0.9922 0.85591 0.0
N1715 N 0.52729 0.03085 0.88989 0.0
H1716 H 0.30154 0.24529 0.31923 0.0
H1717 H 0.26744 0.24328 0.42329 0.0
H1718 H 0.28098 0.29827 0.34935 0.0
H1719 H 0.30446 0.19798 0.39844 0.0
H1720 H 0.27005 0.26279 0.39571 0.0
H1721 H 0.30038 0.22676 0.34743 0.0
C1722 C 0.29693 0.25312 0.33178 0.0
C1723 C 0.29141 0.27347 0.33182 0.0
C1724 C 0.27764 0.24859 0.39635 0.0
C1725 C 0.28964 0.25206 0.36418 0.0
C1726 C 0.27627 0.23747 0.41215 0.0
C1727 C 0.28568 0.21884 0.41328 0.0
C1728 C 0.28836 0.241 0.38143 0.0
C1729 C 0.29658 0.21201 0.39815 0.0
C1730 C 0.29617 0.24246 0.34787 0.0
C1731 C 0.28509 0.28255 0.34849 0.0
N1732 N 0.29753 0.22302 0.38287 0.0
N1733 N 0.28433 0.27178 0.36396 0.0
H1734 H 0.54074 0.52237 0.9284 0.0
H1735 H 0.4742 0.47084 0.83942 0.0
H1736 H 0.53173 0.45727 0.91747 0.0
H1737 H 0.49085 0.5352 0.84739 0.0
H1738 H 0.49359 0.46545 0.86864 0.0
H1739 H 0.52055 0.52727 0.89964 0.0
C1740 C 0.53457 0.50908 0.91991 0.0
C1741 C 0.53813 0.48936 0.92529 0.0
C1742 C 0.49298 0.48074 0.86397 0.0
C1743 C 0.51472 0.49488 0.89233 0.0
C1744 C 0.48202 0.48383 0.84723 0.0
C1745 C 0.48086 0.50352 0.84089 0.0
C1746 C 0.50283 0.49747 0.87451 0.0
C1747 C 0.49103 0.51979 0.85181 0.0
C1748 C 0.52296 0.51189 0.9035 0.0
C1749 C 0.52929 0.47274 0.91393 0.0
N1750 N 0.50155 0.5164 0.86805 0.0
N1751 N 0.51805 0.47587 0.89795 0.0
H1752 H 0.74207 0.74949 0.18257 0.0
H1753 H 0.76334 0.7504 0.07449 0.0
H1754 H 0.74804 0.80431 0.15302 0.0
H1755 H 0.75695 0.69544 0.10378 0.0
H1756 H 0.75734 0.77037 0.10307 0.0
H1757 H 0.74647 0.72934 0.15366 0.0
C1758 C 0.74412 0.75729 0.16997 0.0
C1759 C 0.74476 0.77865 0.17026 0.0
C1760 C 0.75722 0.75394 0.10325 0.0
C1761 C 0.75007 0.75566 0.13714 0.0
C1762 C 0.76078 0.74253 0.08695 0.0
C1763 C 0.76069 0.72119 0.08671 0.0
C1764 C 0.75358 0.74398 0.11949 0.0
C1765 C 0.75693 0.71182 0.10323 0.0
C1766 C 0.74677 0.74578 0.15349 0.0
C1767 C 0.74775 0.78791 0.15354 0.0
N1768 N 0.75357 0.72327 0.11894 0.0
N1769 N 0.75033 0.77638 0.1377 0.0
H1770 H 0.03874 0.06912 0.09277 0.0
H1771 H 0.97816 0.99806 0.15949 0.0
H1772 H 0.0298 0.00385 0.08319 0.0
H1773 H 0.98396 0.06363 0.1674 0.0
H1774 H 0.99792 0.99985 0.13205 0.0
H1775 H 0.01922 0.06741 0.12039 0.0
C1776 C 0.03257 0.05443 0.09639 0.0
C1777 C 0.03591 0.0366 0.08557 0.0
C1778 C 0.9949 0.01386 0.13978 0.0
C1779 C 0.01373 0.03451 0.11741 0.0
C1780 C 0.98372 0.01284 0.15555 0.0
C1781 C 0.97941 0.03072 0.16584 0.0
C1782 C 0.0019 0.03289 0.1342 0.0
C1783 C 0.98672 0.04946 0.15981 0.0
C1784 C 0.02151 0.05346 0.11225 0.0
C1785 C 0.02784 0.01797 0.0912 0.0
N1786 N 0.99761 0.05005 0.14442 0.0
N1787 N 0.01713 0.01742 0.1067 0.0
H1788 H 0.27217 0.7506 0.16725 0.0
H1789 H 0.31303 0.80523 0.07988 0.0
H1790 H 0.33571 0.75419 0.15502 0.0
H1791 H 0.25356 0.81461 0.10035 0.0
H1792 H 0.32093 0.78454 0.10604 0.0
H1793 H 0.26428 0.77192 0.14139 0.0
C1794 C 0.28446 0.75585 0.1591 0.0
C1795 C 0.30464 0.7506 0.16319 0.0
C1796 C 0.30617 0.79117 0.10482 0.0
C1797 C 0.29571 0.77492 0.13361 0.0
C1798 C 0.30166 0.8031 0.08992 0.0
C1799 C 0.28259 0.81179 0.08786 0.0
C1800 C 0.29146 0.78769 0.11773 0.0
C1801 C 0.26835 0.80802 0.10116 0.0
C1802 C 0.27995 0.76807 0.14438 0.0
C1803 C 0.31996 0.7579 0.15226 0.0
N1804 N 0.27306 0.79623 0.11549 0.0
N1805 N 0.31518 0.76963 0.13791 0.0
H1806 H 0.03288 0.4853 0.06316 0.0
H1807 H 0.03386 0.49586 0.17431 0.0
H1808 H 0.97919 0.49686 0.09291 0.0
H1809 H 0.08566 0.47833 0.14426 0.0
H1810 H 0.01374 0.49708 0.14472 0.0
H1811 H 0.05258 0.48349 0.09279 0.0
C1812 C 0.02519 0.48737 0.07592 0.0
C1813 C 0.00428 0.49114 0.07549 0.0
C1814 C 0.02948 0.4929 0.1446 0.0
C1815 C 0.0269 0.48932 0.10958 0.0
C1816 C 0.04101 0.49228 0.16148 0.0
C1817 C 0.0615 0.48702 0.16177 0.0
C1818 C 0.03852 0.48835 0.12783 0.0
C1819 C 0.06986 0.48225 0.14472 0.0
C1820 C 0.03649 0.48641 0.09286 0.0
C1821 C 0.99529 0.49412 0.09253 0.0
N1822 N 0.05837 0.48311 0.12846 0.0
N1823 N 0.00664 0.49312 0.10887 0.0
H1824 H 0.34351 0.67908 0.24592 0.0
H1825 H 0.421 0.76224 0.30219 0.0
H1826 H 0.33727 0.74393 0.24486 0.0
H1827 H 0.42613 0.69733 0.30436 0.0
H1828 H 0.39057 0.75589 0.28088 0.0
H1829 H 0.37406 0.6855 0.26705 0.0
C1830 C 0.34851 0.69468 0.25021 0.0
C1831 C 0.33777 0.71099 0.24364 0.0
C1832 C 0.39836 0.74303 0.286 0.0
C1833 C 0.37291 0.71848 0.2677 0.0
C1834 C 0.41568 0.74664 0.29826 0.0
C1835 C 0.42614 0.73029 0.30513 0.0
C1836 C 0.39139 0.72291 0.28055 0.0
C1837 C 0.41872 0.71041 0.29926 0.0
C1838 C 0.36603 0.69834 0.26219 0.0
C1839 C 0.34518 0.73089 0.24941 0.0
N1840 N 0.4018 0.70728 0.28735 0.0
N1841 N 0.36226 0.73407 0.26113 0.0
H1842 H 0.03921 0.43412 0.99948 0.0
H1843 H 0.97881 0.35014 0.92869 0.0
H1844 H 0.97419 0.43349 0.98581 0.0
H1845 H 0.04447 0.35441 0.93907 0.0
H1846 H 0.97661 0.38043 0.94968 0.0
H1847 H 0.04133 0.40475 0.97741 0.0
C1848 C 0.0254 0.4278 0.99176 0.0
C1849 C 0.00654 0.43621 0.99444 0.0
C1850 C 0.9915 0.37478 0.94731 0.0
C1851 C 0.00875 0.40258 0.96923 0.0
C1852 C 0.99276 0.35743 0.93541 0.0
C1853 C 0.01186 0.34971 0.93212 0.0
C1854 C 0.00946 0.38443 0.95609 0.0
C1855 C 0.02944 0.35994 0.94101 0.0
C1856 C 0.02659 0.41106 0.97917 0.0
C1857 C 0.98906 0.42748 0.98414 0.0
N1858 N 0.02781 0.37671 0.95263 0.0
N1859 N 0.99058 0.41108 0.97201 0.0
H1860 H 0.70848 0.8091 0.28505 0.0
H1861 H 0.59912 0.75006 0.28913 0.0
H1862 H 0.67731 0.77432 0.23811 0.0
H1863 H 0.62864 0.78834 0.33475 0.0
H1864 H 0.62811 0.75767 0.27055 0.0
H1865 H 0.67979 0.80071 0.30378 0.0
C1866 C 0.69558 0.79966 0.27872 0.0
C1867 C 0.69525 0.7924 0.26004 0.0
C1868 C 0.62825 0.76441 0.28463 0.0
C1869 C 0.66236 0.78272 0.28133 0.0
C1870 C 0.61175 0.75997 0.29529 0.0
C1871 C 0.61142 0.76858 0.31354 0.0
C1872 C 0.64461 0.7775 0.29227 0.0
C1873 C 0.6281 0.78156 0.32067 0.0
C1874 C 0.6792 0.79489 0.28939 0.0
C1875 C 0.67819 0.78025 0.25247 0.0
N1876 N 0.644 0.78559 0.31004 0.0
N1877 N 0.66242 0.77578 0.26315 0.0
H1878 H 0.09669 0.10094 0.9999 0.0
H1879 H 0.0121 0.15451 0.93784 0.0
H1880 H 0.03193 0.09139 0.00563 0.0
H1881 H 0.07585 0.17496 0.94345 0.0
H1882 H 0.01916 0.12897 0.9604 0.0
H1883 H 0.08943 0.12597 0.97697 0.0
C1884 C 0.08094 0.10416 0.99632 0.0
C1885 C 0.06491 0.0942 0.00471 0.0
C1886 C 0.03158 0.13906 0.9567 0.0
C1887 C 0.05643 0.12265 0.97842 0.0
C1888 C 0.0276 0.15353 0.94374 0.0
C1889 C 0.04342 0.16688 0.93879 0.0
C1890 C 0.05158 0.13778 0.96459 0.0
C1891 C 0.06317 0.16511 0.94702 0.0
C1892 C 0.0768 0.11845 0.98327 0.0
C1893 C 0.04476 0.09883 0.99957 0.0
N1894 N 0.0667 0.15079 0.95946 0.0
N1895 N 0.04108 0.11269 0.98669 0.0
H1896 H 0.34834 0.30324 0.24907 0.0
H1897 H 0.4316 0.23634 0.20128 0.0
H1898 H 0.3619 0.24291 0.26463 0.0
H1899 H 0.42191 0.29876 0.18952 0.0
H1900 H 0.40563 0.23815 0.224 0.0
H1901 H 0.3746 0.30154 0.22659 0.0
C1902 C 0.35685 0.28962 0.24776 0.0
C1903 C 0.35293 0.27314 0.2587 0.0
C1904 C 0.40919 0.25145 0.21645 0.0
C1905 C 0.38303 0.27109 0.23296 0.0
C1906 C 0.42411 0.25048 0.20353 0.0
C1907 C 0.42903 0.26744 0.19344 0.0
C1908 C 0.39901 0.26951 0.21934 0.0
C1909 C 0.41848 0.28521 0.19675 0.0
C1910 C 0.37187 0.28867 0.23492 0.0
C1911 C 0.36447 0.25593 0.25643 0.0
N1912 N 0.404 0.28577 0.2094 0.0
N1913 N 0.37897 0.25532 0.2438 0.0
H1914 H 0.54194 0.41598 0.98967 0.0
H1915 H 0.53874 0.37599 0.09213 0.0
H1916 H 0.56422 0.45212 0.03936 0.0
H1917 H 0.52794 0.33671 0.04204 0.0
H1918 H 0.54546 0.40479 0.0731 0.0
H1919 H 0.5342 0.38741 0.0087 0.0
C1920 C 0.54515 0.41792 0.0046 0.0
C1921 C 0.55371 0.43643 0.01301 0.0
C1922 C 0.54163 0.38987 0.06627 0.0
C1923 C 0.54487 0.40385 0.03484 0.0
C1924 C 0.53767 0.37345 0.07712 0.0
C1925 C 0.53281 0.35391 0.06866 0.0
C1926 C 0.54056 0.38678 0.04679 0.0
C1927 C 0.53187 0.35147 0.04915 0.0
C1928 C 0.54077 0.40159 0.01545 0.0
C1929 C 0.55762 0.43807 0.03238 0.0
N1930 N 0.53566 0.36771 0.03888 0.0
N1931 N 0.55313 0.42201 0.04266 0.0
H1932 H 0.69607 0.24743 0.25485 0.0
H1933 H 0.60231 0.20567 0.18473 0.0
H1934 H 0.6855 0.18399 0.23654 0.0
H1935 H 0.62305 0.26917 0.1911 0.0
H1936 H 0.63143 0.19748 0.2051 0.0
H1937 H 0.66799 0.25579 0.23315 0.0
C1938 C 0.68783 0.23526 0.24626 0.0
C1939 C 0.69301 0.21495 0.24751 0.0
C1940 C 0.62965 0.2132 0.20197 0.0
C1941 C 0.66087 0.22441 0.22274 0.0
C1942 C 0.61306 0.2179 0.19023 0.0
C1943 C 0.61017 0.23817 0.18607 0.0
C1944 C 0.6434 0.22886 0.20983 0.0
C1945 C 0.62443 0.25337 0.19408 0.0
C1946 C 0.67185 0.24005 0.23384 0.0
C1947 C 0.68193 0.19982 0.23598 0.0
N1948 N 0.64037 0.24841 0.20561 0.0
N1949 N 0.66628 0.20483 0.22415 0.0
H1950 H 0.48266 0.09994 0.97307 0.0
H1951 H 0.49278 0.1442 0.07933 0.0
H1952 H 0.47517 0.063 0.01982 0.0
H1953 H 0.49679 0.18187 0.03266 0.0
H1954 H 0.48764 0.11413 0.05772 0.0
H1955 H 0.48941 0.12996 0.99466 0.0
C1956 C 0.4826 0.09812 0.98789 0.0
C1957 C 0.47829 0.07893 0.99464 0.0
C1958 C 0.48964 0.12897 0.05219 0.0
C1959 C 0.48579 0.11325 0.01943 0.0
C1960 C 0.49268 0.14615 0.06453 0.0
C1961 C 0.49523 0.16561 0.05781 0.0
C1962 C 0.48919 0.1312 0.03294 0.0
C1963 C 0.49465 0.1672 0.03846 0.0
C1964 C 0.48632 0.11528 1.0002 0.0
C1965 C 0.47815 0.07752 0.01397 0.0
N1966 N 0.49172 0.15023 0.02671 0.0
N1967 N 0.48182 0.09444 0.02567 0.0
H1968 H 0.27604 0.3373 0.73946 0.0
H1969 H 0.33249 0.43583 0.70179 0.0
H1970 H 0.26807 0.35488 0.68291 0.0
H1971 H 0.34369 0.41659 0.7575 0.0
H1972 H 0.30825 0.40662 0.69491 0.0
H1973 H 0.29995 0.36687 0.74676 0.0
C1974 C 0.27923 0.34744 0.72861 0.0
C1975 C 0.27008 0.34357 0.71053 0.0
C1976 C 0.31601 0.40877 0.70865 0.0
C1977 C 0.29754 0.37735 0.71874 0.0
C1978 C 0.32997 0.4254 0.71256 0.0
C1979 C 0.34024 0.42868 0.73025 0.0
C1980 C 0.31221 0.39526 0.72252 0.0
C1981 C 0.33598 0.41483 0.74374 0.0
C1982 C 0.29297 0.36425 0.73275 0.0
C1983 C 0.27498 0.35709 0.69697 0.0
N1984 N 0.32232 0.39872 0.73959 0.0
N1985 N 0.28835 0.37335 0.70135 0.0
H1986 H 0.25411 0.66219 0.78212 0.0
H1987 H 0.36934 0.62786 0.7916 0.0
H1988 H 0.30433 0.70165 0.80698 0.0
H1989 H 0.32107 0.59526 0.75658 0.0
H1990 H 0.34549 0.65385 0.7996 0.0
H1991 H 0.27809 0.63611 0.77524 0.0
C1992 C 0.2702 0.66542 0.78609 0.0
C1993 C 0.27721 0.68427 0.79497 0.0
C1994 C 0.34015 0.641 0.79017 0.0
C1995 C 0.3048 0.65425 0.78733 0.0
C1996 C 0.35379 0.62619 0.78548 0.0
C1997 C 0.34727 0.60927 0.77336 0.0
C1998 C 0.31978 0.63885 0.78278 0.0
C1999 C 0.32678 0.60781 0.7662 0.0
C2000 C 0.28389 0.65046 0.78221 0.0
C2001 C 0.2982 0.68732 0.80021 0.0
N2002 N 0.3138 0.62236 0.77103 0.0
N2003 N 0.31126 0.67249 0.79626 0.0
H2004 H 0.94199 0.51661 0.50827 0.0
H2005 H 0.85151 0.43875 0.46505 0.0
H2006 H 0.92493 0.50801 0.44941 0.0
H2007 H 0.85816 0.45925 0.52322 0.0
H2008 H 0.88073 0.46134 0.45936 0.0
H2009 H 0.91363 0.49293 0.51428 0.0
C2010 C 0.93227 0.50982 0.4966 0.0
C2011 C 0.93586 0.51443 0.47829 0.0
C2012 C 0.87579 0.4609 0.47337 0.0
C2013 C 0.90355 0.48702 0.4851 0.0
C2014 C 0.85901 0.44808 0.47663 0.0
C2015 C 0.85218 0.44717 0.49464 0.0
C2016 C 0.886 0.47285 0.48822 0.0
C2017 C 0.86294 0.45926 0.50915 0.0
C2018 C 0.91613 0.49623 0.50005 0.0
C2019 C 0.92297 0.50477 0.46373 0.0
N2020 N 0.87929 0.47161 0.50561 0.0
N2021 N 0.90741 0.49155 0.46745 0.0
H2022 H 0.73743 0.8068 0.79503 0.0
H2023 H 0.72466 0.92162 0.76775 0.0
H2024 H 0.78748 0.84719 0.78172 0.0
H2025 H 0.67351 0.87762 0.76756 0.0
H2026 H 0.74777 0.8951 0.77531 0.0
H2027 H 0.71362 0.83326 0.78782 0.0
C2028 C 0.7434 0.82126 0.79067 0.0
C2029 C 0.76444 0.82478 0.78887 0.0
C2030 C 0.73149 0.89121 0.77357 0.0
C2031 C 0.73738 0.85503 0.78063 0.0
C2032 C 0.71824 0.90635 0.76911 0.0
C2033 C 0.69702 0.9019 0.76683 0.0
C2034 C 0.72356 0.87142 0.77597 0.0
C2035 C 0.6897 0.88187 0.76934 0.0
C2036 C 0.72981 0.83629 0.78645 0.0
C2037 C 0.77135 0.84373 0.78304 0.0
N2038 N 0.70294 0.86738 0.77378 0.0
N2039 N 0.75788 0.85813 0.77918 0.0
H2040 H 0.59815 0.51426 0.99585 0.0
H2041 H 0.68838 0.5764 0.95081 0.0
H2042 H 0.60988 0.50805 0.93766 0.0
H2043 H 0.68257 0.5761 0.01005 0.0
H2044 H 0.65928 0.55172 0.94578 0.0
H2045 H 0.62879 0.53712 0.00148 0.0
C2046 C 0.60725 0.51755 0.98429 0.0
C2047 C 0.60133 0.50931 0.96623 0.0
C2048 C 0.6644 0.557 0.95989 0.0
C2049 C 0.63625 0.53569 0.97252 0.0
C2050 C 0.68111 0.57105 0.96279 0.0
C2051 C 0.688 0.57838 0.98089 0.0
C2052 C 0.65438 0.55025 0.97519 0.0
C2053 C 0.67764 0.57113 0.99583 0.0
C2054 C 0.62468 0.53069 0.98749 0.0
C2055 C 0.61361 0.51433 0.95174 0.0
N2056 N 0.66134 0.5575 0.99265 0.0
N2057 N 0.63041 0.52724 0.9552 0.0
H2058 H 0.272 0.67758 0.25524 0.0
H2059 H 0.20399 0.58061 0.20979 0.0
H2060 H 0.26699 0.6602 0.19644 0.0
H2061 H 0.20678 0.5994 0.26828 0.0
H2062 H 0.22712 0.60966 0.20466 0.0
H2063 H 0.24809 0.64908 0.26033 0.0
C2064 C 0.26589 0.66774 0.2434 0.0
C2065 C 0.27154 0.67126 0.22539 0.0
C2066 C 0.22266 0.60745 0.21862 0.0
C2067 C 0.24408 0.63865 0.2311 0.0
C2068 C 0.20955 0.59079 0.22158 0.0
C2069 C 0.20348 0.58751 0.23951 0.0
C2070 C 0.22985 0.62096 0.2337 0.0
C2071 C 0.2109 0.60143 0.2542 0.0
C2072 C 0.25217 0.65153 0.24631 0.0
C2073 C 0.26291 0.6582 0.21054 0.0
N2074 N 0.22373 0.6175 0.25098 0.0
N2075 N 0.24968 0.64244 0.21373 0.0
H2076 H 0.93738 0.51889 0.06203 0.0
H2077 H 0.88696 0.59567 0.99257 0.0
H2078 H 0.95789 0.52837 0.00742 0.0
H2079 H 0.86313 0.58242 0.04514 0.0
H2080 H 0.91438 0.5727 0.99865 0.0
H2081 H 0.91137 0.54368 0.05695 0.0
C2082 C 0.9365 0.52628 0.04901 0.0
C2083 C 0.9498 0.52148 0.0351 0.0
C2084 C 0.90318 0.57484 0.00888 0.0
C2085 C 0.91996 0.54979 0.02913 0.0
C2086 C 0.88759 0.58807 0.00547 0.0
C2087 C 0.87267 0.59096 0.01834 0.0
C2088 C 0.90395 0.56444 0.02532 0.0
C2089 C 0.87413 0.58045 0.03471 0.0
C2090 C 0.92157 0.54035 0.04608 0.0
C2091 C 0.94778 0.53137 0.01843 0.0
N2092 N 0.88946 0.56767 0.03772 0.0
N2093 N 0.93316 0.54503 0.01592 0.0
H2094 H 0.08145 0.00591 0.01497 0.0
H2095 H 0.16802 0.93622 0.0555 0.0
H2096 H 0.09978 0.00549 0.07348 0.0
H2097 H 0.15935 0.94789 0.99736 0.0
H2098 H 0.14046 0.95854 0.06223 0.0
H2099 H 0.10731 0.98163 0.00821 0.0
C2100 C 0.09094 1.00078 0.02641 0.0
C2101 C 0.08849 0.00794 0.04484 0.0
C2102 C 0.14457 0.95617 0.048 0.0
C2103 C 0.11797 0.97981 0.03716 0.0
C2104 C 0.1604 0.9435 0.04413 0.0
C2105 C 0.16621 0.94023 0.02582 0.0
C2106 C 0.13432 0.9656 0.03346 0.0
C2107 C 0.15533 0.94973 0.01165 0.0
C2108 C 0.10564 0.98682 0.02253 0.0
C2109 C 0.10094 1.0003 0.05909 0.0
N2110 N 0.13997 0.962 0.01577 0.0
N2111 N 0.11516 0.9867 0.05495 0.0
loop_
_geom_bond_atom_site_label_1
_geom_bond_atom_site_label_2
_geom_bond_distance
_geom_bond_site_symmetry_2
_ccdc_geom_bond_type
H0 C5 0.930 . S
H1 C8 0.930 . S
H2 C10 0.930 . S
H3 C4 0.997 1_556 S
C4 H3 0.997 1_554 S
C4 N11 1.323 . S
C5 H0 0.930 . S
C5 C6 1.397 . S
C5 C7 1.361 . S
C6 C5 1.397 . S
C6 C10 1.390 . S
C7 C5 1.361 . S
C7 C8 1.393 . S
C7 N11 1.413 . S
C8 H1 0.930 . S
C8 C7 1.393 . S
C8 C9 1.399 . S
C9 C8 1.399 . S
C9 C10 1.381 . S
C10 H2 0.930 . S
C10 C6 1.390 . S
C10 C9 1.381 . S
N11 C4 1.323 . S
N11 C7 1.413 . S
H12 C17 0.930 . S
H13 C20 0.930 . S
H14 C22 0.930 . S
H15 C16 1.016 . S
C16 H15 1.016 . S
C16 N23 1.286 . S
C17 H12 0.930 . S
C17 C18 1.397 . S
C17 C19 1.361 . S
C18 C17 1.397 . S
C18 C22 1.390 . S
C19 C17 1.361 . S
C19 C20 1.393 . S
C19 N23 1.413 . S
C20 H13 0.930 . S
C20 C19 1.393 . S
C20 C21 1.399 . S
C21 C20 1.399 . S
C21 C22 1.381 . S
C22 H14 0.930 . S
C22 C18 1.390 . S
C22 C21 1.381 . S
N23 C16 1.286 . S
N23 C19 1.413 . S
H24 C29 0.930 . S
H25 C32 0.930 . S
H26 C34 0.930 . S
H27 C28 1.016 1_455 S
C28 H27 1.016 1_655 S
C28 N35 1.286 . S
C29 H24 0.930 . S
C29 C30 1.397 . S
C29 C31 1.361 . S
C30 C29 1.397 . S
C30 C34 1.390 . S
C31 C29 1.361 . S
C31 C32 1.393 . S
C31 N35 1.413 . S
C32 H25 0.930 . S
C32 C31 1.393 . S
C32 C33 1.399 . S
C33 C32 1.399 . S
C33 C34 1.381 . S
C34 H26 0.930 . S
C34 C30 1.390 . S
C34 C33 1.381 . S
N35 C28 1.286 . S
N35 C31 1.413 . S
H36 C41 0.930 . S
H37 C44 0.930 . S
H38 C46 0.930 . S
H39 C40 1.016 . S
C40 H39 1.016 . S
C40 N47 1.286 . S
C41 H36 0.930 . S
C41 C42 1.397 . S
C41 C43 1.361 . S
C42 C41 1.397 . S
C42 C46 1.390 . S
C43 C41 1.361 . S
C43 C44 1.393 . S
C43 N47 1.413 . S
C44 H37 0.930 . S
C44 C43 1.393 . S
C44 C45 1.399 . S
C45 C44 1.399 . S
C45 C46 1.381 . S
C46 H38 0.930 . S
C46 C42 1.390 . S
C46 C45 1.381 . S
N47 C40 1.286 . S
N47 C43 1.413 . S
H48 C53 0.930 . S
H49 C56 0.930 . S
H50 C58 0.930 1_545 S
H51 C52 1.016 . S
C52 H51 1.016 . S
C52 N59 1.286 . S
C53 H48 0.930 . S
C53 C54 1.397 . S
C53 C55 1.361 . S
C54 C53 1.397 . S
C54 C58 1.390 . S
C55 C53 1.361 . S
C55 C56 1.393 . S
C55 N59 1.413 . S
C56 H49 0.930 . S
C56 C55 1.393 . S
C56 C57 1.399 . S
C57 C56 1.399 . S
C57 C58 1.381 . S
C58 H50 0.930 1_565 S
C58 C54 1.390 . S
C58 C57 1.381 . S
N59 C52 1.286 . S
N59 C55 1.413 . S
H60 C65 0.930 . S
H61 C68 0.930 . S
H62 C70 0.930 . S
H63 C64 1.016 . S
C64 H63 1.016 . S
C64 N71 1.286 . S
C65 H60 0.930 . S
C65 C66 1.397 . S
C65 C67 1.361 . S
C66 C65 1.397 . S
C66 C70 1.390 . S
C67 C65 1.361 . S
C67 C68 1.393 . S
C67 N71 1.413 . S
C68 H61 0.930 . S
C68 C67 1.393 . S
C68 C69 1.399 . S
C69 C68 1.399 . S
C69 C70 1.381 . S
C70 H62 0.930 . S
C70 C66 1.390 . S
C70 C69 1.381 . S
N71 C64 1.286 . S
N71 C67 1.413 . S
H72 C77 0.901 1_455 S
H73 C80 0.930 . S
H74 C82 0.930 . S
H75 C76 1.016 . S
C76 H75 1.016 . S
C76 N83 1.286 . S
C77 H72 0.901 1_655 S
C77 C78 1.423 . S
C77 C79 1.366 . S
C78 C77 1.423 . S
C78 C82 1.390 . S
C79 C77 1.366 . S
C79 C80 1.393 . S
C79 N83 1.413 1_655 S
C80 H73 0.930 . S
C80 C79 1.393 . S
C80 C81 1.399 . S
C81 C80 1.399 . S
C81 C82 1.381 . S
C82 H74 0.930 . S
C82 C78 1.390 . S
C82 C81 1.381 . S
N83 C76 1.286 . S
N83 C79 1.413 1_455 S
H84 C89 0.930 . S
H85 C92 0.930 . S
H86 C94 0.930 . S
H87 C88 1.016 . S
C88 H87 1.016 . S
C88 N95 1.286 . S
C89 H84 0.930 . S
C89 C90 1.397 . S
C89 C91 1.361 . S
C90 C89 1.397 . S
C90 C94 1.390 . S
C91 C89 1.361 . S
C91 C92 1.393 . S
C91 N95 1.413 . S
C92 H85 0.930 . S
C92 C91 1.393 . S
C92 C93 1.399 . S
C93 C92 1.399 . S
C93 C94 1.381 . S
C94 H86 0.930 . S
C94 C90 1.390 . S
C94 C93 1.381 . S
N95 C88 1.286 . S
N95 C91 1.413 . S
H96 C101 0.930 . S
H97 C104 0.930 . S
H98 C106 0.930 . S
H99 C100 1.016 . S
C100 H99 1.016 . S
C100 N107 1.286 . S
C101 H96 0.930 . S
C101 C102 1.397 . S
C101 C103 1.361 . S
C102 C101 1.397 . S
C102 C106 1.390 . S
C103 C101 1.361 . S
C103 C104 1.393 . S
C103 N107 1.413 . S
C104 H97 0.930 . S
C104 C103 1.393 . S
C104 C105 1.399 . S
C105 C104 1.399 . S
C105 C106 1.381 . S
C106 H98 0.930 . S
C106 C102 1.390 . S
C106 C105 1.381 . S
N107 C100 1.286 . S
N107 C103 1.413 . S
H108 C113 0.930 . S
H109 C116 0.930 . S
H110 C118 0.904 1_545 S
H111 C112 1.016 . S
C112 H111 1.016 . S
C112 N119 1.286 . S
C113 H108 0.930 . S
C113 C114 1.397 . S
C113 C115 1.361 . S
C114 C113 1.397 . S
C114 C118 1.391 . S
C115 C113 1.361 . S
C115 C116 1.393 . S
C115 N119 1.413 . S
C116 H109 0.930 . S
C116 C115 1.393 . S
C116 C117 1.399 . S
C117 C116 1.399 . S
C117 C118 1.407 . S
C118 H110 0.904 1_565 S
C118 C114 1.391 . S
C118 C117 1.407 . S
N119 C112 1.286 . S
N119 C115 1.413 . S
H120 C125 0.930 . S
H121 C128 0.930 . S
H122 C130 0.930 . S
H123 C124 1.016 . S
C124 H123 1.016 . S
C124 N131 1.286 . S
C125 H120 0.930 . S
C125 C126 1.397 . S
C125 C127 1.361 . S
C126 C125 1.397 . S
C126 C130 1.390 . S
C127 C125 1.361 . S
C127 C128 1.393 . S
C127 N131 1.413 . S
C128 H121 0.930 . S
C128 C127 1.393 . S
C128 C129 1.399 . S
C129 C128 1.399 . S
C129 C130 1.381 . S
C130 H122 0.930 . S
C130 C126 1.390 . S
C130 C129 1.381 . S
N131 C124 1.286 . S
N131 C127 1.413 . S
H132 C137 0.930 . S
H133 C140 0.930 . S
H134 C142 0.930 . S
H135 C136 1.016 . S
C136 H135 1.016 . S
C136 N143 1.286 . S
C137 H132 0.930 . S
C137 C138 1.397 . S
C137 C139 1.361 . S
C138 C137 1.397 . S
C138 C142 1.390 . S
C139 C137 1.361 . S
C139 C140 1.393 . S
C139 N143 1.413 . S
C140 H133 0.930 . S
C140 C139 1.393 . S
C140 C141 1.399 . S
C141 C140 1.399 . S
C141 C142 1.381 . S
C142 H134 0.930 . S
C142 C138 1.390 . S
C142 C141 1.381 . S
N143 C136 1.286 . S
N143 C139 1.413 . S
H144 C149 0.930 . S
H145 C152 0.930 . S
H146 C154 0.930 . S
H147 C148 1.016 . S
C148 H147 1.016 . S
C148 N155 1.286 . S
C149 H144 0.930 . S
C149 C150 1.397 . S
C149 C151 1.361 . S
C150 C149 1.397 . S
C150 C154 1.390 . S
C151 C149 1.361 . S
C151 C152 1.393 . S
C151 N155 1.413 . S
C152 H145 0.930 . S
C152 C151 1.393 . S
C152 C153 1.399 . S
C153 C152 1.399 . S
C153 C154 1.381 . S
C154 H146 0.930 . S
C154 C150 1.390 . S
C154 C153 1.381 . S
N155 C148 1.286 . S
N155 C151 1.413 . S
H156 C161 0.930 . S
H157 C164 0.930 . S
H158 C166 0.930 . S
H159 C160 1.007 1_554 S
C160 H159 1.007 1_556 S
C160 N167 1.303 . S
C161 H156 0.930 . S
C161 C162 1.397 . S
C161 C163 1.361 . S
C162 C161 1.397 . S
C162 C166 1.390 . S
C163 C161 1.361 . S
C163 C164 1.393 . S
C163 N167 1.413 . S
C164 H157 0.930 . S
C164 C163 1.393 . S
C164 C165 1.399 . S
C165 C164 1.399 . S
C165 C166 1.381 . S
C166 H158 0.930 . S
C166 C162 1.390 . S
C166 C165 1.381 . S
N167 C160 1.303 . S
N167 C163 1.413 . S
H168 C173 0.930 . S
H169 C176 0.930 . S
H170 C178 0.930 . S
H171 C172 1.016 . S
C172 H171 1.016 . S
C172 N179 1.286 . S
C173 H168 0.930 . S
C173 C174 1.397 . S
C173 C175 1.361 . S
C174 C173 1.397 . S
C174 C178 1.390 . S
C175 C173 1.361 . S
C175 C176 1.393 . S
C175 N179 1.413 . S
C176 H169 0.930 . S
C176 C175 1.393 . S
C176 C177 1.399 . S
C177 C176 1.399 . S
C177 C178 1.381 . S
C178 H170 0.930 . S
C178 C174 1.390 . S
C178 C177 1.381 . S
N179 C172 1.286 . S
N179 C175 1.413 . S
H180 C185 0.930 . S
H181 C188 0.930 . S
H182 C190 0.930 . S
H183 C184 1.016 . S
C184 H183 1.016 . S
C184 N191 1.286 . S
C185 H180 0.930 . S
C185 C186 1.397 . S
C185 C187 1.361 . S
C186 C185 1.397 . S
C186 C190 1.390 . S
C187 C185 1.361 . S
C187 C188 1.393 . S
C187 N191 1.413 . S
C188 H181 0.930 . S
C188 C187 1.393 . S
C188 C189 1.399 . S
C189 C188 1.399 . S
C189 C190 1.381 . S
C190 H182 0.930 . S
C190 C186 1.390 . S
C190 C189 1.381 . S
N191 C184 1.286 . S
N191 C187 1.413 . S
Li192 N209 1.990 . S
Li192 O252 1.956 . S
Li192 O253 1.970 . S
Li192 O254 1.961 1_554 S
Li193 N217 1.990 . S
Li193 O252 1.970 . S
Li193 O253 1.956 . S
Li193 O255 1.961 . S
Li194 N239 1.990 . S
Li194 O252 1.961 1_556 S
Li194 O254 1.956 . S
Li194 O255 1.970 1_556 S
Li195 N245 1.990 . S
Li195 O253 1.961 . S
Li195 O254 1.970 1_554 S
Li195 O255 1.956 . S
C196 C198 1.348 . S
C196 C199 1.356 1_554 S
C196 O252 1.325 . S
N197 C200 1.368 . S
N197 C201 1.235 1_554 S
C198 C196 1.348 . S
C198 C200 1.353 . S
C198 H256 0.929 . S
C199 C196 1.356 1_556 S
C199 C201 1.358 . S
C199 H257 0.930 . S
C200 N197 1.368 . S
C200 C198 1.353 . S
C200 H258 0.930 . S
C201 N197 1.235 1_556 S
C201 C199 1.358 . S
C201 H259 0.930 . S
C202 C205 1.348 . S
C202 C206 1.356 . S
C202 O253 1.325 . S
C203 N204 1.279 . S
C203 C206 1.358 . S
C203 H260 0.930 . S
N204 C203 1.279 . S
N204 C207 1.314 . S
C205 C202 1.348 . S
C205 C207 1.353 . S
C205 H261 0.929 . S
C206 C202 1.356 . S
C206 C203 1.358 . S
C206 H262 0.930 . S
C207 N204 1.314 . S
C207 C205 1.353 . S
C207 H263 0.930 . S
C208 N209 1.314 . S
C208 C213 1.358 . S
C208 H214 0.929 1_554 S
N209 Li192 1.990 . S
N209 C208 1.314 . S
N209 C211 1.279 . S
C210 C211 1.358 . S
C210 C212 1.356 . S
C210 H264 0.930 . S
C211 N209 1.279 . S
C211 C210 1.358 . S
C211 H215 0.930 . S
C212 C210 1.356 . S
C212 C213 1.352 . S
C213 C208 1.358 . S
C213 C212 1.352 . S
C213 H265 0.921 1_554 S
H214 C208 0.929 1_556 S
H215 C211 0.930 . S
C216 N217 1.314 . S
C216 C218 1.353 . S
C216 H222 0.930 . S
N217 Li193 1.990 . S
N217 C216 1.314 . S
N217 C220 1.279 . S
C218 C216 1.353 . S
C218 C221 1.348 . S
C218 H266 0.929 . S
C219 C220 1.358 . S
C219 C221 1.356 . S
C219 H267 0.930 . S
C220 N217 1.279 . S
C220 C219 1.358 . S
C220 H223 0.930 . S
C221 C218 1.348 . S
C221 C219 1.356 . S
H222 C216 0.930 . S
H223 C220 0.930 . S
C224 C226 1.348 . S
C224 C227 1.356 . S
C224 O254 1.325 . S
N225 C228 1.314 . S
N225 C229 1.279 . S
C226 C224 1.348 . S
C226 C228 1.353 . S
C226 H268 0.929 . S
C227 C224 1.356 . S
C227 C229 1.358 . S
C227 H269 0.930 . S
C228 N225 1.314 . S
C228 C226 1.353 . S
C228 H270 0.930 . S
C229 N225 1.279 . S
C229 C227 1.358 . S
C229 H271 0.930 . S
C230 C231 1.348 1_554 S
C230 C232 1.356 . S
C230 O255 1.325 . S
C231 C230 1.348 1_556 S
C231 C233 1.345 1_556 S
C231 H272 0.929 . S
C232 C230 1.356 . S
C232 C234 1.358 . S
C232 H273 0.930 . S
C233 C231 1.345 1_554 S
C233 N235 1.349 . S
C233 H274 0.900 1_554 S
C234 C232 1.358 . S
C234 N235 1.279 . S
C234 H275 0.930 . S
N235 C233 1.349 . S
N235 C234 1.279 . S
C236 C238 1.353 . S
C236 N239 1.314 . S
C236 H242 0.930 . S
C237 N239 1.279 . S
C237 C240 1.358 . S
C237 H243 0.930 . S
C238 C236 1.353 . S
C238 C241 1.348 . S
C238 H276 0.929 . S
N239 Li194 1.990 . S
N239 C236 1.314 . S
N239 C237 1.279 . S
C240 C237 1.358 . S
C240 C241 1.356 . S
C240 H277 0.930 . S
C241 C238 1.348 . S
C241 C240 1.356 . S
H242 C236 0.930 . S
H243 C237 0.930 . S
C244 N245 1.314 . S
C244 C246 1.353 . S
C244 H250 0.930 . S
N245 Li195 1.990 . S
N245 C244 1.314 . S
N245 C248 1.279 . S
C246 C244 1.353 . S
C246 C249 1.348 . S
C246 H278 0.929 . S
C247 C248 1.358 . S
C247 C249 1.356 . S
C247 H279 0.930 . S
C248 N245 1.279 . S
C248 C247 1.358 . S
C248 H251 0.930 . S
C249 C246 1.348 . S
C249 C247 1.356 . S
H250 C244 0.930 . S
H251 C248 0.930 . S
O252 Li192 1.956 . S
O252 Li193 1.970 . S
O252 Li194 1.961 1_554 S
O252 C196 1.325 . S
O253 Li192 1.970 . S
O253 Li193 1.956 . S
O253 Li195 1.961 . S
O253 C202 1.325 . S
O254 Li192 1.961 1_556 S
O254 Li194 1.956 . S
O254 Li195 1.970 1_556 S
O254 C224 1.325 . S
O255 Li193 1.961 . S
O255 Li194 1.970 1_554 S
O255 Li195 1.956 . S
O255 C230 1.325 . S
H256 C198 0.929 . S
H257 C199 0.930 . S
H258 C200 0.930 . S
H259 C201 0.930 . S
H260 C203 0.930 . S
H261 C205 0.929 . S
H262 C206 0.930 . S
H263 C207 0.930 . S
H264 C210 0.930 . S
H265 C213 0.921 1_556 S
H266 C218 0.929 . S
H267 C219 0.930 . S
H268 C226 0.929 . S
H269 C227 0.930 . S
H270 C228 0.930 . S
H271 C229 0.930 . S
H272 C231 0.929 . S
H273 C232 0.930 . S
H274 C233 0.900 1_556 S
H275 C234 0.930 . S
H276 C238 0.929 . S
H277 C240 0.930 . S
H278 C246 0.929 . S
H279 C247 0.930 . S
Li280 N297 1.990 . S
Li280 O340 1.956 . S
Li280 O341 1.970 . S
Li280 O342 1.961 . S
Li281 N305 1.990 . S
Li281 O340 1.970 . S
Li281 O341 1.956 . S
Li281 O343 1.961 . S
Li282 N327 1.990 . S
Li282 O340 1.961 . S
Li282 O342 1.956 . S
Li282 O343 1.970 . S
Li283 N333 1.990 . S
Li283 O341 1.961 . S
Li283 O342 1.970 . S
Li283 O343 1.956 . S
C284 C286 1.348 . S
C284 C287 1.356 . S
C284 O340 1.325 . S
N285 C288 1.314 . S
N285 C289 1.279 . S
C286 C284 1.348 . S
C286 C288 1.353 . S
C286 H344 0.929 . S
C287 C284 1.356 . S
C287 C289 1.358 . S
C287 H345 0.930 . S
C288 N285 1.314 . S
C288 C286 1.353 . S
C288 H346 0.930 . S
C289 N285 1.279 . S
C289 C287 1.358 . S
C289 H347 0.930 . S
C290 C293 1.348 . S
C290 C294 1.356 . S
C290 O341 1.325 . S
C291 N292 1.279 . S
C291 C294 1.358 . S
C291 H348 0.930 . S
N292 C291 1.279 . S
N292 C295 1.314 . S
C293 C290 1.348 . S
C293 C295 1.353 . S
C293 H349 0.929 . S
C294 C290 1.356 . S
C294 C291 1.358 . S
C294 H350 0.930 . S
C295 N292 1.314 . S
C295 C293 1.353 . S
C295 H351 0.930 . S
C296 N297 1.314 . S
C296 C301 1.353 . S
C296 H302 0.930 . S
N297 Li280 1.990 . S
N297 C296 1.314 . S
N297 C299 1.279 . S
C298 C299 1.358 . S
C298 C300 1.356 . S
C298 H352 0.930 . S
C299 N297 1.279 . S
C299 C298 1.358 . S
C299 H303 0.930 . S
C300 C298 1.356 . S
C300 C301 1.348 . S
C301 C296 1.353 . S
C301 C300 1.348 . S
C301 H353 0.929 . S
H302 C296 0.930 . S
H303 C299 0.930 . S
C304 N305 1.314 . S
C304 C306 1.353 . S
C304 H310 0.930 . S
N305 Li281 1.990 . S
N305 C304 1.314 . S
N305 C308 1.279 . S
C306 C304 1.353 . S
C306 C309 1.348 . S
C306 H354 0.929 . S
C307 C308 1.358 . S
C307 C309 1.356 . S
C307 H355 0.930 . S
C308 N305 1.279 . S
C308 C307 1.358 . S
C308 H311 0.930 . S
C309 C306 1.348 . S
C309 C307 1.356 . S
H310 C304 0.930 . S
H311 C308 0.930 . S
C312 C314 1.348 . S
C312 C315 1.356 . S
C312 O342 1.325 . S
N313 C316 1.314 . S
N313 C317 1.279 . S
C314 C312 1.348 . S
C314 C316 1.353 . S
C314 H356 0.929 . S
C315 C312 1.356 . S
C315 C317 1.358 . S
C315 H357 0.930 . S
C316 N313 1.314 . S
C316 C314 1.353 . S
C316 H358 0.930 . S
C317 N313 1.279 . S
C317 C315 1.358 . S
C317 H359 0.930 . S
C318 C319 1.348 . S
C318 C320 1.356 . S
C318 O343 1.325 . S
C319 C318 1.348 . S
C319 C321 1.353 . S
C319 H360 0.929 . S
C320 C318 1.356 . S
C320 C322 1.358 . S
C320 H361 0.930 . S
C321 C319 1.353 . S
C321 N323 1.314 . S
C321 H362 0.930 . S
C322 C320 1.358 . S
C322 N323 1.279 . S
C322 H363 0.930 . S
N323 C321 1.314 . S
N323 C322 1.279 . S
C324 C326 1.353 . S
C324 N327 1.314 . S
C324 H330 0.930 . S
C325 N327 1.279 . S
C325 C328 1.358 . S
C325 H331 0.930 . S
C326 C324 1.353 . S
C326 C329 1.348 . S
C326 H364 0.929 . S
N327 Li282 1.990 . S
N327 C324 1.314 . S
N327 C325 1.279 . S
C328 C325 1.358 . S
C328 C329 1.356 . S
C328 H365 0.930 . S
C329 C326 1.348 . S
C329 C328 1.356 . S
H330 C324 0.930 . S
H331 C325 0.930 . S
C332 N333 1.314 . S
C332 C334 1.353 . S
C332 H338 0.930 . S
N333 Li283 1.990 . S
N333 C332 1.314 . S
N333 C336 1.279 . S
C334 C332 1.353 . S
C334 C337 1.348 . S
C334 H366 0.929 . S
C335 C336 1.358 . S
C335 C337 1.356 . S
C335 H367 0.930 . S
C336 N333 1.279 . S
C336 C335 1.358 . S
C336 H339 0.930 . S
C337 C334 1.348 . S
C337 C335 1.356 . S
H338 C332 0.930 . S
H339 C336 0.930 . S
O340 Li280 1.956 . S
O340 Li281 1.970 . S
O340 Li282 1.961 . S
O340 C284 1.325 . S
O341 Li280 1.970 . S
O341 Li281 1.956 . S
O341 Li283 1.961 . S
O341 C290 1.325 . S
O342 Li280 1.961 . S
O342 Li282 1.956 . S
O342 Li283 1.970 . S
O342 C312 1.325 . S
O343 Li281 1.961 . S
O343 Li282 1.970 . S
O343 Li283 1.956 . S
O343 C318 1.325 . S
H344 C286 0.929 . S
H345 C287 0.930 . S
H346 C288 0.930 . S
H347 C289 0.930 . S
H348 C291 0.930 . S
H349 C293 0.929 . S
H350 C294 0.930 . S
H351 C295 0.930 . S
H352 C298 0.930 . S
H353 C301 0.929 . S
H354 C306 0.929 . S
H355 C307 0.930 . S
H356 C314 0.929 . S
H357 C315 0.930 . S
H358 C316 0.930 . S
H359 C317 0.930 . S
H360 C319 0.929 . S
H361 C320 0.930 . S
H362 C321 0.930 . S
H363 C322 0.930 . S
H364 C326 0.929 . S
H365 C328 0.930 . S
H366 C334 0.929 . S
H367 C335 0.930 . S
Li368 N385 1.990 . S
Li368 O428 1.956 . S
Li368 O429 1.970 1_556 S
Li368 O430 1.961 . S
Li369 N393 1.990 . S
Li369 O428 1.970 1_554 S
Li369 O429 1.956 . S
Li369 O431 1.961 . S
Li370 N415 1.990 . S
Li370 O428 1.961 . S
Li370 O430 1.956 . S
Li370 O431 1.970 1_556 S
Li371 N421 1.990 . S
Li371 O429 1.961 . S
Li371 O430 1.970 1_554 S
Li371 O431 1.956 . S
C372 C374 1.348 1_556 S
C372 C375 1.356 . S
C372 O428 1.325 . S
N373 C376 1.314 1_556 S
N373 C377 1.279 . S
C374 C372 1.348 1_554 S
C374 C376 1.353 . S
C374 H432 0.929 . S
C375 C372 1.356 . S
C375 C377 1.358 . S
C375 H433 0.930 . S
C376 N373 1.314 1_554 S
C376 C374 1.353 . S
C376 H434 0.930 . S
C377 N373 1.279 . S
C377 C375 1.358 . S
C377 H435 0.930 . S
C378 C381 1.348 . S
C378 C382 1.356 . S
C378 O429 1.325 . S
C379 N380 1.279 . S
C379 C382 1.358 . S
C379 H436 0.930 . S
N380 C379 1.279 . S
N380 C383 1.314 . S
C381 C378 1.348 . S
C381 C383 1.353 . S
C381 H437 0.929 . S
C382 C378 1.356 . S
C382 C379 1.358 . S
C382 H438 0.930 . S
C383 N380 1.314 . S
C383 C381 1.353 . S
C383 H439 0.930 . S
C384 N385 1.314 . S
C384 C389 1.353 . S
C384 H390 0.930 . S
N385 Li368 1.990 . S
N385 C384 1.314 . S
N385 C387 1.279 . S
C386 C387 1.358 . S
C386 C388 1.356 . S
C386 H440 0.930 . S
C387 N385 1.279 . S
C387 C386 1.358 . S
C387 H391 0.930 . S
C388 C386 1.356 . S
C388 C389 1.348 . S
C389 C384 1.353 . S
C389 C388 1.348 . S
C389 H441 0.929 . S
H390 C384 0.930 . S
H391 C387 0.930 . S
C392 N393 1.314 . S
C392 C394 1.353 . S
C392 H398 0.930 . S
N393 Li369 1.990 . S
N393 C392 1.314 . S
N393 C396 1.279 . S
C394 C392 1.353 . S
C394 C397 1.348 . S
C394 H442 0.929 . S
C395 C396 1.358 . S
C395 C397 1.356 . S
C395 H443 0.930 . S
C396 N393 1.279 . S
C396 C395 1.358 . S
C396 H399 0.930 . S
C397 C394 1.348 . S
C397 C395 1.356 . S
H398 C392 0.930 . S
H399 C396 0.930 . S
C400 C402 1.348 . S
C400 C403 1.356 . S
C400 O430 1.325 . S
N401 C404 1.314 . S
N401 C405 1.279 . S
C402 C400 1.348 . S
C402 C404 1.353 . S
C402 H444 0.929 . S
C403 C400 1.356 . S
C403 C405 1.358 . S
C403 H445 0.930 . S
C404 N401 1.314 . S
C404 C402 1.353 . S
C404 H446 0.930 . S
C405 N401 1.279 . S
C405 C403 1.358 . S
C405 H447 0.930 . S
C406 C407 1.348 1_554 S
C406 C408 1.356 . S
C406 O431 1.325 . S
C407 C406 1.348 1_556 S
C407 C409 1.353 . S
C407 H448 0.929 . S
C408 C406 1.356 . S
C408 C410 1.358 . S
C408 H449 0.930 . S
C409 C407 1.353 . S
C409 N411 1.314 1_556 S
C409 H450 0.930 . S
C410 C408 1.358 . S
C410 N411 1.279 . S
C410 H451 0.930 . S
N411 C409 1.314 1_554 S
N411 C410 1.279 . S
C412 C414 1.353 . S
C412 N415 1.314 . S
C412 H418 0.930 . S
C413 N415 1.279 . S
C413 C416 1.358 . S
C413 H419 0.930 . S
C414 C412 1.353 . S
C414 C417 1.348 . S
C414 H452 0.929 . S
N415 Li370 1.990 . S
N415 C412 1.314 . S
N415 C413 1.279 . S
C416 C413 1.358 . S
C416 C417 1.356 . S
C416 H453 0.930 . S
C417 C414 1.348 . S
C417 C416 1.356 . S
H418 C412 0.930 . S
H419 C413 0.930 . S
C420 N421 1.314 . S
C420 C422 1.353 . S
C420 H426 0.930 . S
N421 Li371 1.990 . S
N421 C420 1.314 . S
N421 C424 1.279 . S
C422 C420 1.353 . S
C422 C425 1.348 . S
C422 H454 0.929 . S
C423 C424 1.358 . S
C423 C425 1.356 . S
C423 H455 0.930 . S
C424 N421 1.279 . S
C424 C423 1.358 . S
C424 H427 0.930 . S
C425 C422 1.348 . S
C425 C423 1.356 . S
H426 C420 0.930 . S
H427 C424 0.930 . S
O428 Li368 1.956 . S
O428 Li369 1.970 1_556 S
O428 Li370 1.961 . S
O428 C372 1.325 . S
O429 Li368 1.970 1_554 S
O429 Li369 1.956 . S
O429 Li371 1.961 . S
O429 C378 1.325 . S
O430 Li368 1.961 . S
O430 Li370 1.956 . S
O430 Li371 1.970 1_556 S
O430 C400 1.325 . S
O431 Li369 1.961 . S
O431 Li370 1.970 1_554 S
O431 Li371 1.956 . S
O431 C406 1.325 . S
H432 C374 0.929 . S
H433 C375 0.930 . S
H434 C376 0.930 . S
H435 C377 0.930 . S
H436 C379 0.930 . S
H437 C381 0.929 . S
H438 C382 0.930 . S
H439 C383 0.930 . S
H440 C386 0.930 . S
H441 C389 0.929 . S
H442 C394 0.929 . S
H443 C395 0.930 . S
H444 C402 0.929 . S
H445 C403 0.930 . S
H446 C404 0.930 . S
H447 C405 0.930 . S
H448 C407 0.929 . S
H449 C408 0.930 . S
H450 C409 0.930 . S
H451 C410 0.930 . S
H452 C414 0.929 . S
H453 C416 0.930 . S
H454 C422 0.929 . S
H455 C423 0.930 . S
Li456 N473 1.990 . S
Li456 O516 1.956 . S
Li456 O517 1.970 . S
Li456 O518 1.961 . S
Li457 N481 1.990 . S
Li457 O516 1.970 . S
Li457 O517 1.956 . S
Li457 O519 1.961 1_545 S
Li458 N503 1.990 . S
Li458 O516 1.961 . S
Li458 O518 1.956 . S
Li458 O519 1.970 1_545 S
Li459 N509 1.990 . S
Li459 O517 1.961 1_565 S
Li459 O518 1.970 1_565 S
Li459 O519 1.956 . S
C460 C462 1.348 . S
C460 C463 1.356 . S
C460 O516 1.325 . S
N461 C464 1.314 . S
N461 C465 1.279 . S
C462 C460 1.348 . S
C462 C464 1.353 . S
C462 H520 0.929 . S
C463 C460 1.356 . S
C463 C465 1.358 . S
C463 H521 0.930 . S
C464 N461 1.314 . S
C464 C462 1.353 . S
C464 H522 0.930 . S
C465 N461 1.279 . S
C465 C463 1.358 . S
C465 H523 0.930 . S
C466 C469 1.348 . S
C466 C470 1.356 1_545 S
C466 O517 1.325 . S
C467 N468 1.279 1_565 S
C467 C470 1.358 . S
C467 H524 0.930 . S
N468 C467 1.279 1_545 S
N468 C471 1.314 . S
C469 C466 1.348 . S
C469 C471 1.353 . S
C469 H525 0.929 . S
C470 C466 1.356 1_565 S
C470 C467 1.358 . S
C470 H526 0.930 . S
C471 N468 1.314 . S
C471 C469 1.353 . S
C471 H527 0.930 . S
C472 N473 1.314 . S
C472 C477 1.353 . S
C472 H478 0.930 . S
N473 Li456 1.990 . S
N473 C472 1.314 . S
N473 C475 1.279 . S
C474 C475 1.358 . S
C474 C476 1.356 . S
C474 H528 0.930 . S
C475 N473 1.279 . S
C475 C474 1.358 . S
C475 H479 0.930 . S
C476 C474 1.356 . S
C476 C477 1.348 . S
C477 C472 1.353 . S
C477 C476 1.348 . S
C477 H529 0.929 . S
H478 C472 0.930 . S
H479 C475 0.930 . S
C480 N481 1.314 . S
C480 C482 1.353 . S
C480 H486 0.930 . S
N481 Li457 1.990 . S
N481 C480 1.314 . S
N481 C484 1.279 . S
C482 C480 1.353 . S
C482 C485 1.348 . S
C482 H530 0.929 1_655 S
C483 C484 1.358 . S
C483 C485 1.356 . S
C483 H531 0.930 . S
C484 N481 1.279 . S
C484 C483 1.358 . S
C484 H487 0.930 . S
C485 C482 1.348 . S
C485 C483 1.356 . S
H486 C480 0.930 . S
H487 C484 0.930 . S
C488 C490 1.348 . S
C488 C491 1.356 . S
C488 O518 1.325 . S
N489 C492 1.314 . S
N489 C493 1.279 . S
C490 C488 1.348 . S
C490 C492 1.353 . S
C490 H532 0.929 1_545 S
C491 C488 1.356 . S
C491 C493 1.358 . S
C491 H533 0.930 . S
C492 N489 1.314 . S
C492 C490 1.353 . S
C492 H534 0.894 1_545 S
C493 N489 1.279 . S
C493 C491 1.358 . S
C493 H535 0.930 . S
C494 C495 1.348 . S
C494 C496 1.356 . S
C494 O519 1.325 . S
C495 C494 1.348 . S
C495 C497 1.353 . S
C495 H536 0.929 . S
C496 C494 1.356 . S
C496 C498 1.358 . S
C496 H537 0.930 . S
C497 C495 1.353 . S
C497 N499 1.314 . S
C497 H538 0.930 . S
C498 C496 1.358 . S
C498 N499 1.279 . S
C498 H539 0.930 . S
N499 C497 1.314 . S
N499 C498 1.279 . S
C500 C502 1.353 . S
C500 N503 1.314 . S
C500 H506 0.930 . S
C501 N503 1.279 . S
C501 C504 1.358 . S
C501 H507 0.930 . S
C502 C500 1.353 . S
C502 C505 1.348 . S
C502 H540 0.929 . S
N503 Li458 1.990 . S
N503 C500 1.314 . S
N503 C501 1.279 . S
C504 C501 1.358 . S
C504 C505 1.356 . S
C504 H541 0.930 . S
C505 C502 1.348 . S
C505 C504 1.356 . S
H506 C500 0.930 . S
H507 C501 0.930 . S
C508 N509 1.314 . S
C508 C510 1.353 . S
C508 H514 0.930 . S
N509 Li459 1.990 . S
N509 C508 1.314 . S
N509 C512 1.279 . S
C510 C508 1.353 . S
C510 C513 1.348 . S
C510 H542 0.929 . S
C511 C512 1.358 . S
C511 C513 1.356 . S
C511 H543 0.930 . S
C512 N509 1.279 . S
C512 C511 1.358 . S
C512 H515 0.930 . S
C513 C510 1.348 . S
C513 C511 1.356 . S
H514 C508 0.930 . S
H515 C512 0.930 . S
O516 Li456 1.956 . S
O516 Li457 1.970 . S
O516 Li458 1.961 . S
O516 C460 1.325 . S
O517 Li456 1.970 . S
O517 Li457 1.956 . S
O517 Li459 1.961 1_545 S
O517 C466 1.325 . S
O518 Li456 1.961 . S
O518 Li458 1.956 . S
O518 Li459 1.970 1_545 S
O518 C488 1.325 . S
O519 Li457 1.961 1_565 S
O519 Li458 1.970 1_565 S
O519 Li459 1.956 . S
O519 C494 1.325 . S
H520 C462 0.929 . S
H521 C463 0.930 . S
H522 C464 0.930 . S
H523 C465 0.930 . S
H524 C467 0.930 . S
H525 C469 0.929 . S
H526 C470 0.930 . S
H527 C471 0.930 . S
H528 C474 0.930 . S
H529 C477 0.929 . S
H530 C482 0.929 1_455 S
H531 C483 0.930 . S
H532 C490 0.929 1_565 S
H533 C491 0.930 . S
H534 C492 0.894 1_565 S
H535 C493 0.930 . S
H536 C495 0.929 . S
H537 C496 0.930 . S
H538 C497 0.930 . S
H539 C498 0.930 . S
H540 C502 0.929 . S
H541 C504 0.930 . S
H542 C510 0.929 . S
H543 C511 0.930 . S
Li544 N561 1.990 . S
Li544 O604 1.956 . S
Li544 O605 1.970 . S
Li544 O606 1.961 . S
Li545 N569 1.990 . S
Li545 O604 1.970 . S
Li545 O605 1.956 . S
Li545 O607 1.961 . S
Li546 N591 1.990 . S
Li546 O604 1.961 . S
Li546 O606 1.956 . S
Li546 O607 1.970 . S
Li547 N597 1.990 . S
Li547 O605 1.961 . S
Li547 O606 1.970 . S
Li547 O607 1.956 . S
C548 C550 1.348 . S
C548 C551 1.356 . S
C548 O604 1.325 . S
N549 C552 1.314 . S
N549 C553 1.279 . S
C550 C548 1.348 . S
C550 C552 1.353 . S
C550 H608 0.929 . S
C551 C548 1.356 . S
C551 C553 1.358 . S
C551 H609 0.930 . S
C552 N549 1.314 . S
C552 C550 1.353 . S
C552 H610 0.930 . S
C553 N549 1.279 . S
C553 C551 1.358 . S
C553 H611 0.930 . S
C554 C557 1.348 . S
C554 C558 1.356 . S
C554 O605 1.325 . S
C555 N556 1.279 . S
C555 C558 1.358 . S
C555 H612 0.930 . S
N556 C555 1.279 . S
N556 C559 1.314 . S
C557 C554 1.348 . S
C557 C559 1.353 . S
C557 H613 0.929 . S
C558 C554 1.356 . S
C558 C555 1.358 . S
C558 H614 0.930 . S
C559 N556 1.314 . S
C559 C557 1.353 . S
C559 H615 0.930 . S
C560 N561 1.314 . S
C560 C565 1.353 . S
C560 H566 0.930 . S
N561 Li544 1.990 . S
N561 C560 1.314 . S
N561 C563 1.279 . S
C562 C563 1.358 . S
C562 C564 1.356 . S
C562 H616 0.930 . S
C563 N561 1.279 . S
C563 C562 1.358 . S
C563 H567 0.930 . S
C564 C562 1.356 . S
C564 C565 1.348 . S
C565 C560 1.353 . S
C565 C564 1.348 . S
C565 H617 0.929 . S
H566 C560 0.930 . S
H567 C563 0.930 . S
C568 N569 1.314 . S
C568 C570 1.353 . S
C568 H574 0.930 . S
N569 Li545 1.990 . S
N569 C568 1.314 . S
N569 C572 1.279 . S
C570 C568 1.353 . S
C570 C573 1.348 . S
C570 H618 0.929 . S
C571 C572 1.358 . S
C571 C573 1.356 . S
C571 H619 0.930 . S
C572 N569 1.279 . S
C572 C571 1.358 . S
C572 H575 0.930 . S
C573 C570 1.348 . S
C573 C571 1.356 . S
H574 C568 0.930 . S
H575 C572 0.930 . S
C576 C578 1.348 . S
C576 C579 1.356 . S
C576 O606 1.325 . S
N577 C580 1.314 . S
N577 C581 1.279 . S
C578 C576 1.348 . S
C578 C580 1.353 . S
C578 H620 0.929 . S
C579 C576 1.356 . S
C579 C581 1.358 . S
C579 H621 0.930 . S
C580 N577 1.314 . S
C580 C578 1.353 . S
C580 H622 0.930 . S
C581 N577 1.279 . S
C581 C579 1.358 . S
C581 H623 0.930 . S
C582 C583 1.348 . S
C582 C584 1.356 . S
C582 O607 1.325 . S
C583 C582 1.348 . S
C583 C585 1.353 . S
C583 H624 0.929 . S
C584 C582 1.356 . S
C584 C586 1.358 . S
C584 H625 0.930 . S
C585 C583 1.353 . S
C585 N587 1.314 . S
C585 H626 0.930 . S
C586 C584 1.358 . S
C586 N587 1.279 . S
C586 H627 0.930 . S
N587 C585 1.314 . S
N587 C586 1.279 . S
C588 C590 1.353 . S
C588 N591 1.314 . S
C588 H594 0.930 . S
C589 N591 1.279 . S
C589 C592 1.358 . S
C589 H595 0.930 . S
C590 C588 1.353 . S
C590 C593 1.348 . S
C590 H628 0.929 . S
N591 Li546 1.990 . S
N591 C588 1.314 . S
N591 C589 1.279 . S
C592 C589 1.358 . S
C592 C593 1.356 . S
C592 H629 0.930 . S
C593 C590 1.348 . S
C593 C592 1.356 . S
H594 C588 0.930 . S
H595 C589 0.930 . S
C596 N597 1.314 . S
C596 C598 1.353 . S
C596 H602 0.930 . S
N597 Li547 1.990 . S
N597 C596 1.314 . S
N597 C600 1.279 . S
C598 C596 1.353 . S
C598 C601 1.348 . S
C598 H630 0.929 . S
C599 C600 1.358 . S
C599 C601 1.356 . S
C599 H631 0.930 . S
C600 N597 1.279 . S
C600 C599 1.358 . S
C600 H603 0.930 . S
C601 C598 1.348 . S
C601 C599 1.356 . S
H602 C596 0.930 . S
H603 C600 0.930 . S
O604 Li544 1.956 . S
O604 Li545 1.970 . S
O604 Li546 1.961 . S
O604 C548 1.325 . S
O605 Li544 1.970 . S
O605 Li545 1.956 . S
O605 Li547 1.961 . S
O605 C554 1.325 . S
O606 Li544 1.961 . S
O606 Li546 1.956 . S
O606 Li547 1.970 . S
O606 C576 1.325 . S
O607 Li545 1.961 . S
O607 Li546 1.970 . S
O607 Li547 1.956 . S
O607 C582 1.325 . S
H608 C550 0.929 . S
H609 C551 0.930 . S
H610 C552 0.930 . S
H611 C553 0.930 . S
H612 C555 0.930 . S
H613 C557 0.929 . S
H614 C558 0.930 . S
H615 C559 0.930 . S
H616 C562 0.930 . S
H617 C565 0.929 . S
H618 C570 0.929 . S
H619 C571 0.930 . S
H620 C578 0.929 . S
H621 C579 0.930 . S
H622 C580 0.930 . S
H623 C581 0.930 . S
H624 C583 0.929 . S
H625 C584 0.930 . S
H626 C585 0.930 . S
H627 C586 0.930 . S
H628 C590 0.929 . S
H629 C592 0.930 . S
H630 C598 0.929 . S
H631 C599 0.930 . S
Li632 N649 1.990 . S
Li632 O692 1.956 . S
Li632 O693 1.970 . S
Li632 O694 1.961 . S
Li633 N657 1.990 . S
Li633 O692 1.970 . S
Li633 O693 1.956 . S
Li633 O695 1.961 . S
Li634 N679 1.990 . S
Li634 O692 1.961 . S
Li634 O694 1.956 . S
Li634 O695 1.970 . S
Li635 N685 1.990 . S
Li635 O693 1.961 . S
Li635 O694 1.970 . S
Li635 O695 1.956 . S
C636 C638 1.348 . S
C636 C639 1.356 . S
C636 O692 1.325 . S
N637 C640 1.314 . S
N637 C641 1.279 . S
C638 C636 1.348 . S
C638 C640 1.353 . S
C638 H696 0.929 . S
C639 C636 1.356 . S
C639 C641 1.358 . S
C639 H697 0.930 . S
C640 N637 1.314 . S
C640 C638 1.353 . S
C640 H698 0.930 . S
C641 N637 1.279 . S
C641 C639 1.358 . S
C641 H699 0.930 . S
C642 C645 1.348 . S
C642 C646 1.356 . S
C642 O693 1.325 . S
C643 N644 1.279 . S
C643 C646 1.358 . S
C643 H700 0.930 . S
N644 C643 1.279 . S
N644 C647 1.314 . S
C645 C642 1.348 . S
C645 C647 1.353 . S
C645 H701 0.929 . S
C646 C642 1.356 . S
C646 C643 1.358 . S
C646 H702 0.930 . S
C647 N644 1.314 . S
C647 C645 1.353 . S
C647 H703 0.930 . S
C648 N649 1.314 . S
C648 C653 1.353 . S
C648 H654 0.930 . S
N649 Li632 1.990 . S
N649 C648 1.314 . S
N649 C651 1.279 . S
C650 C651 1.358 . S
C650 C652 1.356 . S
C650 H704 0.930 . S
C651 N649 1.279 . S
C651 C650 1.358 . S
C651 H655 0.930 . S
C652 C650 1.356 . S
C652 C653 1.348 . S
C653 C648 1.353 . S
C653 C652 1.348 . S
C653 H705 0.929 . S
H654 C648 0.930 . S
H655 C651 0.930 . S
C656 N657 1.314 . S
C656 C658 1.353 . S
C656 H662 0.930 . S
N657 Li633 1.990 . S
N657 C656 1.314 . S
N657 C660 1.279 . S
C658 C656 1.353 . S
C658 C661 1.348 . S
C658 H706 0.929 . S
C659 C660 1.358 . S
C659 C661 1.356 . S
C659 H707 0.930 . S
C660 N657 1.279 . S
C660 C659 1.358 . S
C660 H663 0.930 . S
C661 C658 1.348 . S
C661 C659 1.356 . S
H662 C656 0.930 . S
H663 C660 0.930 . S
C664 C666 1.348 . S
C664 C667 1.356 . S
C664 O694 1.325 . S
N665 C668 1.314 . S
N665 C669 1.279 . S
C666 C664 1.348 . S
C666 C668 1.353 . S
C666 H708 0.929 . S
C667 C664 1.356 . S
C667 C669 1.358 . S
C667 H709 0.930 . S
C668 N665 1.314 . S
C668 C666 1.353 . S
C668 H710 0.930 . S
C669 N665 1.279 . S
C669 C667 1.358 . S
C669 H711 0.930 . S
C670 C671 1.348 . S
C670 C672 1.356 . S
C670 O695 1.325 . S
C671 C670 1.348 . S
C671 C673 1.353 . S
C671 H712 0.929 . S
C672 C670 1.356 . S
C672 C674 1.358 . S
C672 H713 0.930 . S
C673 C671 1.353 . S
C673 N675 1.314 . S
C673 H714 0.930 . S
C674 C672 1.358 . S
C674 N675 1.279 . S
C674 H715 0.930 . S
N675 C673 1.314 . S
N675 C674 1.279 . S
C676 C678 1.353 . S
C676 N679 1.314 . S
C676 H682 0.930 . S
C677 N679 1.279 . S
C677 C680 1.358 . S
C677 H683 0.930 . S
C678 C676 1.353 . S
C678 C681 1.348 . S
C678 H716 0.929 . S
N679 Li634 1.990 . S
N679 C676 1.314 . S
N679 C677 1.279 . S
C680 C677 1.358 . S
C680 C681 1.356 . S
C680 H717 0.930 . S
C681 C678 1.348 . S
C681 C680 1.356 . S
H682 C676 0.930 . S
H683 C677 0.930 . S
C684 N685 1.314 . S
C684 C686 1.353 . S
C684 H690 0.930 . S
N685 Li635 1.990 . S
N685 C684 1.314 . S
N685 C688 1.279 . S
C686 C684 1.353 . S
C686 C689 1.348 . S
C686 H718 0.929 . S
C687 C688 1.358 . S
C687 C689 1.356 . S
C687 H719 0.930 . S
C688 N685 1.279 . S
C688 C687 1.358 . S
C688 H691 0.930 . S
C689 C686 1.348 . S
C689 C687 1.356 . S
H690 C684 0.930 . S
H691 C688 0.930 . S
O692 Li632 1.956 . S
O692 Li633 1.970 . S
O692 Li634 1.961 . S
O692 C636 1.325 . S
O693 Li632 1.970 . S
O693 Li633 1.956 . S
O693 Li635 1.961 . S
O693 C642 1.325 . S
O694 Li632 1.961 . S
O694 Li634 1.956 . S
O694 Li635 1.970 . S
O694 C664 1.325 . S
O695 Li633 1.961 . S
O695 Li634 1.970 . S
O695 Li635 1.956 . S
O695 C670 1.325 . S
H696 C638 0.929 . S
H697 C639 0.930 . S
H698 C640 0.930 . S
H699 C641 0.930 . S
H700 C643 0.930 . S
H701 C645 0.929 . S
H702 C646 0.930 . S
H703 C647 0.930 . S
H704 C650 0.930 . S
H705 C653 0.929 . S
H706 C658 0.929 . S
H707 C659 0.930 . S
H708 C666 0.929 . S
H709 C667 0.930 . S
H710 C668 0.930 . S
H711 C669 0.930 . S
H712 C671 0.929 . S
H713 C672 0.930 . S
H714 C673 0.930 . S
H715 C674 0.930 . S
H716 C678 0.929 . S
H717 C680 0.930 . S
H718 C686 0.929 . S
H719 C687 0.930 . S
Li720 N737 1.990 . S
Li720 O780 1.956 . S
Li720 O781 1.970 . S
Li720 O782 1.961 . S
Li721 N745 1.990 . S
Li721 O780 1.970 . S
Li721 O781 1.956 . S
Li721 O783 1.961 . S
Li722 N767 1.990 . S
Li722 O780 1.961 . S
Li722 O782 1.956 . S
Li722 O783 1.970 . S
Li723 N773 1.990 . S
Li723 O781 1.961 . S
Li723 O782 1.970 . S
Li723 O783 1.956 . S
C724 C726 1.348 . S
C724 C727 1.356 . S
C724 O780 1.325 . S
N725 C728 1.314 . S
N725 C729 1.279 . S
C726 C724 1.348 . S
C726 C728 1.353 . S
C726 H784 0.929 . S
C727 C724 1.356 . S
C727 C729 1.358 . S
C727 H785 0.930 . S
C728 N725 1.314 . S
C728 C726 1.353 . S
C728 H786 0.930 . S
C729 N725 1.279 . S
C729 C727 1.358 . S
C729 H787 0.930 . S
C730 C733 1.348 . S
C730 C734 1.356 . S
C730 O781 1.325 . S
C731 N732 1.279 . S
C731 C734 1.358 . S
C731 H788 0.930 . S
N732 C731 1.279 . S
N732 C735 1.314 . S
C733 C730 1.348 . S
C733 C735 1.353 . S
C733 H789 0.929 . S
C734 C730 1.356 . S
C734 C731 1.358 . S
C734 H790 0.930 . S
C735 N732 1.314 . S
C735 C733 1.353 . S
C735 H791 0.930 . S
C736 N737 1.314 . S
C736 C741 1.353 . S
C736 H742 0.930 . S
N737 Li720 1.990 . S
N737 C736 1.314 . S
N737 C739 1.279 . S
C738 C739 1.358 . S
C738 C740 1.356 . S
C738 H792 0.930 . S
C739 N737 1.279 . S
C739 C738 1.358 . S
C739 H743 0.930 . S
C740 C738 1.356 . S
C740 C741 1.348 . S
C741 C736 1.353 . S
C741 C740 1.348 . S
C741 H793 0.929 . S
H742 C736 0.930 . S
H743 C739 0.930 . S
C744 N745 1.314 . S
C744 C746 1.353 . S
C744 H750 0.930 . S
N745 Li721 1.990 . S
N745 C744 1.314 . S
N745 C748 1.279 . S
C746 C744 1.353 . S
C746 C749 1.348 . S
C746 H794 0.929 . S
C747 C748 1.358 . S
C747 C749 1.356 . S
C747 H795 0.930 . S
C748 N745 1.279 . S
C748 C747 1.358 . S
C748 H751 0.930 . S
C749 C746 1.348 . S
C749 C747 1.356 . S
H750 C744 0.930 . S
H751 C748 0.930 . S
C752 C754 1.348 . S
C752 C755 1.356 . S
C752 O782 1.325 . S
N753 C756 1.314 . S
N753 C757 1.279 . S
C754 C752 1.348 . S
C754 C756 1.353 . S
C754 H796 0.929 . S
C755 C752 1.356 . S
C755 C757 1.358 . S
C755 H797 0.930 . S
C756 N753 1.314 . S
C756 C754 1.353 . S
C756 H798 0.930 . S
C757 N753 1.279 . S
C757 C755 1.358 . S
C757 H799 0.930 . S
C758 C759 1.348 . S
C758 C760 1.356 . S
C758 O783 1.325 . S
C759 C758 1.348 . S
C759 C761 1.353 . S
C759 H800 0.929 . S
C760 C758 1.356 . S
C760 C762 1.358 . S
C760 H801 0.930 . S
C761 C759 1.353 . S
C761 N763 1.314 . S
C761 H802 0.930 . S
C762 C760 1.358 . S
C762 N763 1.279 . S
C762 H803 0.930 . S
N763 C761 1.314 . S
N763 C762 1.279 . S
C764 C766 1.353 . S
C764 N767 1.314 . S
C764 H770 0.930 . S
C765 N767 1.279 . S
C765 C768 1.358 . S
C765 H771 0.930 . S
C766 C764 1.353 . S
C766 C769 1.348 . S
C766 H804 0.929 . S
N767 Li722 1.990 . S
N767 C764 1.314 . S
N767 C765 1.279 . S
C768 C765 1.358 . S
C768 C769 1.356 . S
C768 H805 0.930 . S
C769 C766 1.348 . S
C769 C768 1.356 . S
H770 C764 0.930 . S
H771 C765 0.930 . S
C772 N773 1.314 . S
C772 C774 1.353 . S
C772 H778 0.930 . S
N773 Li723 1.990 . S
N773 C772 1.314 . S
N773 C776 1.279 . S
C774 C772 1.353 . S
C774 C777 1.348 . S
C774 H806 0.929 . S
C775 C776 1.358 . S
C775 C777 1.356 . S
C775 H807 0.930 . S
C776 N773 1.279 . S
C776 C775 1.358 . S
C776 H779 0.930 . S
C777 C774 1.348 . S
C777 C775 1.356 . S
H778 C772 0.930 . S
H779 C776 0.930 . S
O780 Li720 1.956 . S
O780 Li721 1.970 . S
O780 Li722 1.961 . S
O780 C724 1.325 . S
O781 Li720 1.970 . S
O781 Li721 1.956 . S
O781 Li723 1.961 . S
O781 C730 1.325 . S
O782 Li720 1.961 . S
O782 Li722 1.956 . S
O782 Li723 1.970 . S
O782 C752 1.325 . S
O783 Li721 1.961 . S
O783 Li722 1.970 . S
O783 Li723 1.956 . S
O783 C758 1.325 . S
H784 C726 0.929 . S
H785 C727 0.930 . S
H786 C728 0.930 . S
H787 C729 0.930 . S
H788 C731 0.930 . S
H789 C733 0.929 . S
H790 C734 0.930 . S
H791 C735 0.930 . S
H792 C738 0.930 . S
H793 C741 0.929 . S
H794 C746 0.929 . S
H795 C747 0.930 . S
H796 C754 0.929 . S
H797 C755 0.930 . S
H798 C756 0.930 . S
H799 C757 0.930 . S
H800 C759 0.929 . S
H801 C760 0.930 . S
H802 C761 0.930 . S
H803 C762 0.930 . S
H804 C766 0.929 . S
H805 C768 0.930 . S
H806 C774 0.929 . S
H807 C775 0.930 . S
Li808 N825 1.990 . S
Li808 O868 1.956 . S
Li808 O869 1.970 1_565 S
Li808 O870 1.961 . S
Li809 N833 1.990 . S
Li809 O868 1.970 1_545 S
Li809 O869 1.956 . S
Li809 O871 1.961 . S
Li810 N855 1.990 . S
Li810 O868 1.961 . S
Li810 O870 1.956 . S
Li810 O871 1.970 1_565 S
Li811 N861 1.990 . S
Li811 O869 1.961 . S
Li811 O870 1.970 1_545 S
Li811 O871 1.956 . S
C812 C814 1.348 . S
C812 C815 1.356 . S
C812 O868 1.325 . S
N813 C816 1.314 . S
N813 C817 1.279 . S
C814 C812 1.348 . S
C814 C816 1.353 . S
C814 H872 0.929 . S
C815 C812 1.356 . S
C815 C817 1.358 . S
C815 H873 0.930 . S
C816 N813 1.314 . S
C816 C814 1.353 . S
C816 H874 0.930 . S
C817 N813 1.279 . S
C817 C815 1.358 . S
C817 H875 0.930 . S
C818 C821 1.348 1_545 S
C818 C822 1.356 . S
C818 O869 1.325 . S
C819 N820 1.279 . S
C819 C822 1.358 . S
C819 H876 0.930 . S
N820 C819 1.279 . S
N820 C823 1.314 1_545 S
C821 C818 1.348 1_565 S
C821 C823 1.353 . S
C821 H877 0.929 . S
C822 C818 1.356 . S
C822 C819 1.358 . S
C822 H878 0.930 . S
C823 N820 1.314 1_565 S
C823 C821 1.353 . S
C823 H879 0.930 . S
C824 N825 1.314 . S
C824 C829 1.353 . S
C824 H830 0.930 . S
N825 Li808 1.990 . S
N825 C824 1.314 . S
N825 C827 1.279 . S
C826 C827 1.358 . S
C826 C828 1.356 . S
C826 H880 0.930 . S
C827 N825 1.279 . S
C827 C826 1.358 . S
C827 H831 0.930 . S
C828 C826 1.356 . S
C828 C829 1.348 . S
C829 C824 1.353 . S
C829 C828 1.348 . S
C829 H881 0.929 . S
H830 C824 0.930 . S
H831 C827 0.930 . S
C832 N833 1.314 . S
C832 C834 1.353 . S
C832 H838 0.930 . S
N833 Li809 1.990 . S
N833 C832 1.314 . S
N833 C836 1.279 . S
C834 C832 1.353 . S
C834 C837 1.348 . S
C834 H882 0.929 . S
C835 C836 1.358 . S
C835 C837 1.356 . S
C835 H883 0.930 . S
C836 N833 1.279 . S
C836 C835 1.358 . S
C836 H839 0.930 . S
C837 C834 1.348 . S
C837 C835 1.356 . S
H838 C832 0.930 . S
H839 C836 0.930 . S
C840 C842 1.348 1_565 S
C840 C843 1.356 . S
C840 O870 1.325 . S
N841 C844 1.314 1_565 S
N841 C845 1.279 . S
C842 C840 1.348 1_545 S
C842 C844 1.353 . S
C842 H884 0.929 . S
C843 C840 1.356 . S
C843 C845 1.358 . S
C843 H885 0.930 . S
C844 N841 1.314 1_545 S
C844 C842 1.353 . S
C844 H886 0.930 . S
C845 N841 1.279 . S
C845 C843 1.358 . S
C845 H887 0.930 . S
C846 C847 1.348 . S
C846 C848 1.356 . S
C846 O871 1.325 . S
C847 C846 1.348 . S
C847 C849 1.353 . S
C847 H888 0.929 . S
C848 C846 1.356 . S
C848 C850 1.358 . S
C848 H889 0.930 . S
C849 C847 1.353 . S
C849 N851 1.314 . S
C849 H890 0.930 . S
C850 C848 1.358 . S
C850 N851 1.279 . S
C850 H891 0.930 . S
N851 C849 1.314 . S
N851 C850 1.279 . S
C852 C854 1.353 . S
C852 N855 1.314 . S
C852 H858 0.930 . S
C853 N855 1.279 . S
C853 C856 1.358 . S
C853 H859 0.930 . S
C854 C852 1.353 . S
C854 C857 1.348 . S
C854 H892 0.929 . S
N855 Li810 1.990 . S
N855 C852 1.314 . S
N855 C853 1.279 . S
C856 C853 1.358 . S
C856 C857 1.356 . S
C856 H893 0.930 . S
C857 C854 1.348 . S
C857 C856 1.356 . S
H858 C852 0.930 . S
H859 C853 0.930 . S
C860 N861 1.314 . S
C860 C862 1.353 . S
C860 H866 0.930 . S
N861 Li811 1.990 . S
N861 C860 1.314 . S
N861 C864 1.279 . S
C862 C860 1.353 . S
C862 C865 1.348 . S
C862 H894 0.929 . S
C863 C864 1.358 . S
C863 C865 1.356 . S
C863 H895 0.930 . S
C864 N861 1.279 . S
C864 C863 1.358 . S
C864 H867 0.930 . S
C865 C862 1.348 . S
C865 C863 1.356 . S
H866 C860 0.930 . S
H867 C864 0.930 . S
O868 Li808 1.956 . S
O868 Li809 1.970 1_565 S
O868 Li810 1.961 . S
O868 C812 1.325 . S
O869 Li808 1.970 1_545 S
O869 Li809 1.956 . S
O869 Li811 1.961 . S
O869 C818 1.325 . S
O870 Li808 1.961 . S
O870 Li810 1.956 . S
O870 Li811 1.970 1_565 S
O870 C840 1.325 . S
O871 Li809 1.961 . S
O871 Li810 1.970 1_545 S
O871 Li811 1.956 . S
O871 C846 1.325 . S
H872 C814 0.929 . S
H873 C815 0.930 . S
H874 C816 0.930 . S
H875 C817 0.930 . S
H876 C819 0.930 . S
H877 C821 0.929 . S
H878 C822 0.930 . S
H879 C823 0.930 . S
H880 C826 0.930 . S
H881 C829 0.929 . S
H882 C834 0.929 . S
H883 C835 0.930 . S
H884 C842 0.929 . S
H885 C843 0.930 . S
H886 C844 0.930 . S
H887 C845 0.930 . S
H888 C847 0.929 . S
H889 C848 0.930 . S
H890 C849 0.930 . S
H891 C850 0.930 . S
H892 C854 0.929 . S
H893 C856 0.930 . S
H894 C862 0.929 . S
H895 C863 0.930 . S
Li896 N913 1.990 . S
Li896 O956 1.956 . S
Li896 O957 1.970 . S
Li896 O958 1.961 . S
Li897 N921 1.983 1_455 S
Li897 O956 1.970 . S
Li897 O957 1.956 . S
Li897 O959 1.961 1_455 S
Li898 N943 1.990 . S
Li898 O956 1.961 . S
Li898 O958 1.956 . S
Li898 O959 1.970 1_455 S
Li899 N949 1.990 . S
Li899 O957 1.961 1_655 S
Li899 O958 1.970 1_655 S
Li899 O959 1.956 . S
C900 C902 1.348 . S
C900 C903 1.356 . S
C900 O956 1.325 . S
N901 C904 1.314 . S
N901 C905 1.279 . S
C902 C900 1.348 . S
C902 C904 1.353 . S
C902 H960 0.929 . S
C903 C900 1.356 . S
C903 C905 1.358 . S
C903 H961 0.930 . S
C904 N901 1.314 . S
C904 C902 1.353 . S
C904 H962 0.930 . S
C905 N901 1.279 . S
C905 C903 1.358 . S
C905 H963 0.930 . S
C906 C909 1.363 . S
C906 C910 1.337 1_455 S
C906 O957 1.328 . S
C907 N908 1.279 . S
C907 C910 1.358 . S
C907 H964 0.930 . S
N908 C907 1.279 . S
N908 C911 1.314 1_655 S
C909 C906 1.363 . S
C909 C911 1.353 . S
C909 H965 0.929 . S
C910 C906 1.337 1_655 S
C910 C907 1.358 . S
C910 H966 0.930 . S
C911 N908 1.314 1_455 S
C911 C909 1.353 . S
C911 H967 0.930 . S
C912 N913 1.314 . S
C912 C917 1.353 . S
C912 H918 0.930 . S
N913 Li896 1.990 . S
N913 C912 1.314 . S
N913 C915 1.279 . S
C914 C915 1.358 . S
C914 C916 1.356 . S
C914 H968 0.930 . S
C915 N913 1.279 . S
C915 C914 1.358 . S
C915 H919 0.930 . S
C916 C914 1.356 . S
C916 C917 1.348 . S
C917 C912 1.353 . S
C917 C916 1.348 . S
C917 H969 0.929 . S
H918 C912 0.930 . S
H919 C915 0.930 . S
C920 N921 1.323 . S
C920 C922 1.353 . S
C920 H926 0.930 . S
N921 Li897 1.983 1_655 S
N921 C920 1.323 . S
N921 C924 1.277 1_655 S
C922 C920 1.353 . S
C922 C925 1.348 . S
C922 H970 0.929 . S
C923 C924 1.358 . S
C923 C925 1.357 1_455 S
C923 H971 0.929 . S
C924 N921 1.277 1_455 S
C924 C923 1.358 . S
C924 H927 0.930 . S
C925 C922 1.348 . S
C925 C923 1.357 1_655 S
H926 C920 0.930 . S
H927 C924 0.930 . S
C928 C930 1.348 1_455 S
C928 C931 1.356 . S
C928 O958 1.325 . S
N929 C932 1.314 1_455 S
N929 C933 1.279 . S
C930 C928 1.348 1_655 S
C930 C932 1.353 . S
C930 H972 0.929 . S
C931 C928 1.356 . S
C931 C933 1.358 . S
C931 H973 0.930 . S
C932 N929 1.314 1_655 S
C932 C930 1.353 . S
C932 H974 0.930 . S
C933 N929 1.279 . S
C933 C931 1.358 . S
C933 H975 0.930 . S
C934 C935 1.348 . S
C934 C936 1.356 . S
C934 O959 1.325 . S
C935 C934 1.348 . S
C935 C937 1.353 . S
C935 H976 0.929 . S
C936 C934 1.356 . S
C936 C938 1.358 . S
C936 H977 0.930 . S
C937 C935 1.353 . S
C937 N939 1.314 . S
C937 H978 0.930 . S
C938 C936 1.358 . S
C938 N939 1.279 . S
C938 H979 0.930 . S
N939 C937 1.314 . S
N939 C938 1.279 . S
C940 C942 1.353 . S
C940 N943 1.314 . S
C940 H946 0.930 . S
C941 N943 1.279 . S
C941 C944 1.358 . S
C941 H947 0.930 . S
C942 C940 1.353 . S
C942 C945 1.348 . S
C942 H980 0.929 . S
N943 Li898 1.990 . S
N943 C940 1.314 . S
N943 C941 1.279 . S
C944 C941 1.358 . S
C944 C945 1.356 . S
C944 H981 0.930 . S
C945 C942 1.348 . S
C945 C944 1.356 . S
H946 C940 0.930 . S
H947 C941 0.930 . S
C948 N949 1.314 . S
C948 C950 1.353 . S
C948 H954 0.930 . S
N949 Li899 1.990 . S
N949 C948 1.314 . S
N949 C952 1.279 . S
C950 C948 1.353 . S
C950 C953 1.348 . S
C950 H982 0.929 . S
C951 C952 1.358 . S
C951 C953 1.356 . S
C951 H983 0.930 . S
C952 N949 1.279 . S
C952 C951 1.358 . S
C952 H955 0.930 . S
C953 C950 1.348 . S
C953 C951 1.356 . S
H954 C948 0.930 . S
H955 C952 0.930 . S
O956 Li896 1.956 . S
O956 Li897 1.970 . S
O956 Li898 1.961 . S
O956 C900 1.325 . S
O957 Li896 1.970 . S
O957 Li897 1.956 . S
O957 Li899 1.961 1_455 S
O957 C906 1.328 . S
O958 Li896 1.961 . S
O958 Li898 1.956 . S
O958 Li899 1.970 1_455 S
O958 C928 1.325 . S
O959 Li897 1.961 1_655 S
O959 Li898 1.970 1_655 S
O959 Li899 1.956 . S
O959 C934 1.325 . S
H960 C902 0.929 . S
H961 C903 0.930 . S
H962 C904 0.930 . S
H963 C905 0.930 . S
H964 C907 0.930 . S
H965 C909 0.929 . S
H966 C910 0.930 . S
H967 C911 0.930 . S
H968 C914 0.930 . S
H969 C917 0.929 . S
H970 C922 0.929 . S
H971 C923 0.929 . S
H972 C930 0.929 . S
H973 C931 0.930 . S
H974 C932 0.930 . S
H975 C933 0.930 . S
H976 C935 0.929 . S
H977 C936 0.930 . S
H978 C937 0.930 . S
H979 C938 0.930 . S
H980 C942 0.929 . S
H981 C944 0.930 . S
H982 C950 0.929 . S
H983 C951 0.930 . S
Li984 N1001 1.990 . S
Li984 O1044 1.956 . S
Li984 O1045 1.970 . S
Li984 O1046 1.961 . S
Li985 N1009 1.990 . S
Li985 O1044 1.970 . S
Li985 O1045 1.956 . S
Li985 O1047 1.961 . S
Li986 N1031 1.990 . S
Li986 O1044 1.961 . S
Li986 O1046 1.956 . S
Li986 O1047 1.970 . S
Li987 N1037 1.990 . S
Li987 O1045 1.961 . S
Li987 O1046 1.970 . S
Li987 O1047 1.956 . S
C988 C990 1.348 . S
C988 C991 1.356 . S
C988 O1044 1.325 . S
N989 C992 1.314 . S
N989 C993 1.279 . S
C990 C988 1.348 . S
C990 C992 1.353 . S
C990 H1048 0.929 . S
C991 C988 1.356 . S
C991 C993 1.358 . S
C991 H1049 0.930 . S
C992 N989 1.314 . S
C992 C990 1.353 . S
C992 H1050 0.930 . S
C993 N989 1.279 . S
C993 C991 1.358 . S
C993 H1051 0.930 . S
C994 C997 1.348 . S
C994 C998 1.356 . S
C994 O1045 1.325 . S
C995 N996 1.279 . S
C995 C998 1.358 . S
C995 H1052 0.930 . S
N996 C995 1.279 . S
N996 C999 1.314 . S
C997 C994 1.348 . S
C997 C999 1.353 . S
C997 H1053 0.929 . S
C998 C994 1.356 . S
C998 C995 1.358 . S
C998 H1054 0.930 . S
C999 N996 1.314 . S
C999 C997 1.353 . S
C999 H1055 0.930 . S
C1000 N1001 1.314 . S
C1000 C1005 1.353 . S
C1000 H1006 0.930 . S
N1001 Li984 1.990 . S
N1001 C1000 1.314 . S
N1001 C1003 1.279 . S
C1002 C1003 1.358 . S
C1002 C1004 1.356 . S
C1002 H1056 0.930 . S
C1003 N1001 1.279 . S
C1003 C1002 1.358 . S
C1003 H1007 0.930 . S
C1004 C1002 1.356 . S
C1004 C1005 1.348 . S
C1005 C1000 1.353 . S
C1005 C1004 1.348 . S
C1005 H1057 0.929 . S
H1006 C1000 0.930 . S
H1007 C1003 0.930 . S
C1008 N1009 1.314 . S
C1008 C1010 1.353 . S
C1008 H1014 0.930 . S
N1009 Li985 1.990 . S
N1009 C1008 1.314 . S
N1009 C1012 1.279 . S
C1010 C1008 1.353 . S
C1010 C1013 1.348 . S
C1010 H1058 0.929 . S
C1011 C1012 1.358 . S
C1011 C1013 1.356 . S
C1011 H1059 0.930 . S
C1012 N1009 1.279 . S
C1012 C1011 1.358 . S
C1012 H1015 0.930 . S
C1013 C1010 1.348 . S
C1013 C1011 1.356 . S
H1014 C1008 0.930 . S
H1015 C1012 0.930 . S
C1016 C1018 1.348 . S
C1016 C1019 1.356 . S
C1016 O1046 1.325 . S
N1017 C1020 1.314 . S
N1017 C1021 1.279 . S
C1018 C1016 1.348 . S
C1018 C1020 1.353 . S
C1018 H1060 0.929 . S
C1019 C1016 1.356 . S
C1019 C1021 1.358 . S
C1019 H1061 0.930 . S
C1020 N1017 1.314 . S
C1020 C1018 1.353 . S
C1020 H1062 0.930 . S
C1021 N1017 1.279 . S
C1021 C1019 1.358 . S
C1021 H1063 0.930 . S
C1022 C1023 1.348 . S
C1022 C1024 1.356 . S
C1022 O1047 1.325 . S
C1023 C1022 1.348 . S
C1023 C1025 1.353 . S
C1023 H1064 0.929 . S
C1024 C1022 1.356 . S
C1024 C1026 1.358 . S
C1024 H1065 0.930 . S
C1025 C1023 1.353 . S
C1025 N1027 1.314 . S
C1025 H1066 0.930 . S
C1026 C1024 1.358 . S
C1026 N1027 1.279 . S
C1026 H1067 0.930 . S
N1027 C1025 1.314 . S
N1027 C1026 1.279 . S
C1028 C1030 1.353 . S
C1028 N1031 1.314 . S
C1028 H1034 0.930 . S
C1029 N1031 1.279 . S
C1029 C1032 1.358 . S
C1029 H1035 0.930 . S
C1030 C1028 1.353 . S
C1030 C1033 1.348 . S
C1030 H1068 0.929 . S
N1031 Li986 1.990 . S
N1031 C1028 1.314 . S
N1031 C1029 1.279 . S
C1032 C1029 1.358 . S
C1032 C1033 1.356 . S
C1032 H1069 0.930 . S
C1033 C1030 1.348 . S
C1033 C1032 1.356 . S
H1034 C1028 0.930 . S
H1035 C1029 0.930 . S
C1036 N1037 1.314 . S
C1036 C1038 1.353 . S
C1036 H1042 0.930 . S
N1037 Li987 1.990 . S
N1037 C1036 1.314 . S
N1037 C1040 1.279 . S
C1038 C1036 1.353 . S
C1038 C1041 1.348 . S
C1038 H1070 0.929 . S
C1039 C1040 1.358 . S
C1039 C1041 1.356 . S
C1039 H1071 0.930 . S
C1040 N1037 1.279 . S
C1040 C1039 1.358 . S
C1040 H1043 0.930 . S
C1041 C1038 1.348 . S
C1041 C1039 1.356 . S
H1042 C1036 0.930 . S
H1043 C1040 0.930 . S
O1044 Li984 1.956 . S
O1044 Li985 1.970 . S
O1044 Li986 1.961 . S
O1044 C988 1.325 . S
O1045 Li984 1.970 . S
O1045 Li985 1.956 . S
O1045 Li987 1.961 . S
O1045 C994 1.325 . S
O1046 Li984 1.961 . S
O1046 Li986 1.956 . S
O1046 Li987 1.970 . S
O1046 C1016 1.325 . S
O1047 Li985 1.961 . S
O1047 Li986 1.970 . S
O1047 Li987 1.956 . S
O1047 C1022 1.325 . S
H1048 C990 0.929 . S
H1049 C991 0.930 . S
H1050 C992 0.930 . S
H1051 C993 0.930 . S
H1052 C995 0.930 . S
H1053 C997 0.929 . S
H1054 C998 0.930 . S
H1055 C999 0.930 . S
H1056 C1002 0.930 . S
H1057 C1005 0.929 . S
H1058 C1010 0.929 . S
H1059 C1011 0.930 . S
H1060 C1018 0.929 . S
H1061 C1019 0.930 . S
H1062 C1020 0.930 . S
H1063 C1021 0.930 . S
H1064 C1023 0.929 . S
H1065 C1024 0.930 . S
H1066 C1025 0.930 . S
H1067 C1026 0.930 . S
H1068 C1030 0.929 . S
H1069 C1032 0.930 . S
H1070 C1038 0.929 . S
H1071 C1039 0.930 . S
Li1072 N1089 1.990 . S
Li1072 O1132 1.956 . S
Li1072 O1133 1.970 1_455 S
Li1072 O1134 1.961 . S
Li1073 N1097 1.990 . S
Li1073 O1132 1.970 1_655 S
Li1073 O1133 1.956 . S
Li1073 O1135 1.961 1_655 S
Li1074 N1119 1.990 . S
Li1074 O1132 1.961 . S
Li1074 O1134 1.956 . S
Li1074 O1135 1.970 . S
Li1075 N1125 1.997 . S
Li1075 O1133 1.961 1_455 S
Li1075 O1134 1.970 . S
Li1075 O1135 1.956 . S
C1076 C1078 1.348 . S
C1076 C1079 1.356 . S
C1076 O1132 1.325 . S
N1077 C1080 1.314 . S
N1077 C1081 1.279 . S
C1078 C1076 1.348 . S
C1078 C1080 1.353 . S
C1078 H1136 0.929 1_455 S
C1079 C1076 1.356 . S
C1079 C1081 1.358 . S
C1079 H1137 0.930 . S
C1080 N1077 1.314 . S
C1080 C1078 1.353 . S
C1080 H1138 0.930 1_455 S
C1081 N1077 1.279 . S
C1081 C1079 1.358 . S
C1081 H1139 0.930 . S
C1082 C1085 1.348 . S
C1082 C1086 1.356 . S
C1082 O1133 1.325 . S
C1083 N1084 1.279 . S
C1083 C1086 1.358 . S
C1083 H1140 0.930 . S
N1084 C1083 1.279 . S
N1084 C1087 1.314 . S
C1085 C1082 1.348 . S
C1085 C1087 1.353 . S
C1085 H1141 0.929 . S
C1086 C1082 1.356 . S
C1086 C1083 1.358 . S
C1086 H1142 0.930 . S
C1087 N1084 1.314 . S
C1087 C1085 1.353 . S
C1087 H1143 0.930 . S
C1088 N1089 1.314 . S
C1088 C1093 1.353 . S
C1088 H1094 0.930 . S
N1089 Li1072 1.990 . S
N1089 C1088 1.314 . S
N1089 C1091 1.279 . S
C1090 C1091 1.358 . S
C1090 C1092 1.356 . S
C1090 H1144 0.930 . S
C1091 N1089 1.279 . S
C1091 C1090 1.358 . S
C1091 H1095 0.930 . S
C1092 C1090 1.356 . S
C1092 C1093 1.348 . S
C1093 C1088 1.353 . S
C1093 C1092 1.348 . S
C1093 H1145 0.929 . S
H1094 C1088 0.930 . S
H1095 C1091 0.930 . S
C1096 N1097 1.314 . S
C1096 C1098 1.353 . S
C1096 H1102 0.930 . S
N1097 Li1073 1.990 . S
N1097 C1096 1.314 . S
N1097 C1100 1.279 . S
C1098 C1096 1.353 . S
C1098 C1101 1.348 . S
C1098 H1146 0.929 . S
C1099 C1100 1.358 . S
C1099 C1101 1.356 . S
C1099 H1147 0.930 . S
C1100 N1097 1.279 . S
C1100 C1099 1.358 . S
C1100 H1103 0.930 . S
C1101 C1098 1.348 . S
C1101 C1099 1.356 . S
H1102 C1096 0.930 . S
H1103 C1100 0.930 . S
C1104 C1106 1.348 . S
C1104 C1107 1.356 . S
C1104 O1134 1.325 . S
N1105 C1108 1.314 . S
N1105 C1109 1.279 . S
C1106 C1104 1.348 . S
C1106 C1108 1.353 . S
C1106 H1148 0.929 . S
C1107 C1104 1.356 . S
C1107 C1109 1.358 . S
C1107 H1149 0.930 . S
C1108 N1105 1.314 . S
C1108 C1106 1.353 . S
C1108 H1150 0.930 . S
C1109 N1105 1.279 . S
C1109 C1107 1.358 . S
C1109 H1151 0.930 . S
C1110 C1111 1.348 . S
C1110 C1112 1.356 1_455 S
C1110 O1135 1.325 . S
C1111 C1110 1.348 . S
C1111 C1113 1.353 . S
C1111 H1152 0.929 . S
C1112 C1110 1.356 1_655 S
C1112 C1114 1.358 . S
C1112 H1153 0.930 . S
C1113 C1111 1.353 . S
C1113 N1115 1.314 1_455 S
C1113 H1154 0.930 . S
C1114 C1112 1.358 . S
C1114 N1115 1.279 . S
C1114 H1155 0.930 . S
N1115 C1113 1.314 1_655 S
N1115 C1114 1.279 . S
C1116 C1118 1.353 . S
C1116 N1119 1.314 . S
C1116 H1122 0.930 . S
C1117 N1119 1.279 . S
C1117 C1120 1.358 . S
C1117 H1123 0.930 . S
C1118 C1116 1.353 . S
C1118 C1121 1.348 . S
C1118 H1156 0.929 . S
N1119 Li1074 1.990 . S
N1119 C1116 1.314 . S
N1119 C1117 1.279 . S
C1120 C1117 1.358 . S
C1120 C1121 1.356 . S
C1120 H1157 0.930 . S
C1121 C1118 1.348 . S
C1121 C1120 1.356 . S
H1122 C1116 0.930 . S
H1123 C1117 0.930 . S
C1124 N1125 1.307 1_655 S
C1124 C1126 1.353 . S
C1124 H1130 0.930 . S
N1125 Li1075 1.997 . S
N1125 C1124 1.307 1_455 S
N1125 C1128 1.287 . S
C1126 C1124 1.353 . S
C1126 C1129 1.348 . S
C1126 H1158 0.929 . S
C1127 C1128 1.358 . S
C1127 C1129 1.356 1_455 S
C1127 H1159 0.927 . S
C1128 N1125 1.287 . S
C1128 C1127 1.358 . S
C1128 H1131 0.930 . S
C1129 C1126 1.348 . S
C1129 C1127 1.356 1_655 S
H1130 C1124 0.930 . S
H1131 C1128 0.930 . S
O1132 Li1072 1.956 . S
O1132 Li1073 1.970 1_455 S
O1132 Li1074 1.961 . S
O1132 C1076 1.325 . S
O1133 Li1072 1.970 1_655 S
O1133 Li1073 1.956 . S
O1133 Li1075 1.961 1_655 S
O1133 C1082 1.325 . S
O1134 Li1072 1.961 . S
O1134 Li1074 1.956 . S
O1134 Li1075 1.970 . S
O1134 C1104 1.325 . S
O1135 Li1073 1.961 1_455 S
O1135 Li1074 1.970 . S
O1135 Li1075 1.956 . S
O1135 C1110 1.325 . S
H1136 C1078 0.929 1_655 S
H1137 C1079 0.930 . S
H1138 C1080 0.930 1_655 S
H1139 C1081 0.930 . S
H1140 C1083 0.930 . S
H1141 C1085 0.929 . S
H1142 C1086 0.930 . S
H1143 C1087 0.930 . S
H1144 C1090 0.930 . S
H1145 C1093 0.929 . S
H1146 C1098 0.929 . S
H1147 C1099 0.930 . S
H1148 C1106 0.929 . S
H1149 C1107 0.930 . S
H1150 C1108 0.930 . S
H1151 C1109 0.930 . S
H1152 C1111 0.929 . S
H1153 C1112 0.930 . S
H1154 C1113 0.930 . S
H1155 C1114 0.930 . S
H1156 C1118 0.929 . S
H1157 C1120 0.930 . S
H1158 C1126 0.929 . S
H1159 C1127 0.927 . S
Li1160 N1177 1.990 . S
Li1160 O1220 1.956 . S
Li1160 O1221 1.970 . S
Li1160 O1222 1.961 . S
Li1161 N1185 1.990 . S
Li1161 O1220 1.970 . S
Li1161 O1221 1.956 . S
Li1161 O1223 1.961 . S
Li1162 N1207 1.990 . S
Li1162 O1220 1.961 . S
Li1162 O1222 1.956 . S
Li1162 O1223 1.970 . S
Li1163 N1213 1.990 . S
Li1163 O1221 1.961 . S
Li1163 O1222 1.970 . S
Li1163 O1223 1.956 . S
C1164 C1166 1.348 . S
C1164 C1167 1.356 . S
C1164 O1220 1.325 . S
N1165 C1168 1.314 . S
N1165 C1169 1.279 . S
C1166 C1164 1.348 . S
C1166 C1168 1.353 . S
C1166 H1224 0.929 . S
C1167 C1164 1.356 . S
C1167 C1169 1.358 . S
C1167 H1225 0.930 . S
C1168 N1165 1.314 . S
C1168 C1166 1.353 . S
C1168 H1226 0.930 . S
C1169 N1165 1.279 . S
C1169 C1167 1.358 . S
C1169 H1227 0.930 . S
C1170 C1173 1.348 . S
C1170 C1174 1.356 . S
C1170 O1221 1.325 . S
C1171 N1172 1.279 . S
C1171 C1174 1.358 . S
C1171 H1228 0.930 . S
N1172 C1171 1.279 . S
N1172 C1175 1.314 . S
C1173 C1170 1.348 . S
C1173 C1175 1.353 . S
C1173 H1229 0.929 . S
C1174 C1170 1.356 . S
C1174 C1171 1.358 . S
C1174 H1230 0.930 . S
C1175 N1172 1.314 . S
C1175 C1173 1.353 . S
C1175 H1231 0.930 . S
C1176 N1177 1.314 . S
C1176 C1181 1.353 . S
C1176 H1182 0.930 . S
N1177 Li1160 1.990 . S
N1177 C1176 1.314 . S
N1177 C1179 1.279 . S
C1178 C1179 1.358 . S
C1178 C1180 1.356 . S
C1178 H1232 0.930 . S
C1179 N1177 1.279 . S
C1179 C1178 1.358 . S
C1179 H1183 0.930 . S
C1180 C1178 1.356 . S
C1180 C1181 1.348 . S
C1181 C1176 1.353 . S
C1181 C1180 1.348 . S
C1181 H1233 0.929 . S
H1182 C1176 0.930 . S
H1183 C1179 0.930 . S
C1184 N1185 1.314 . S
C1184 C1186 1.353 . S
C1184 H1190 0.930 . S
N1185 Li1161 1.990 . S
N1185 C1184 1.314 . S
N1185 C1188 1.279 . S
C1186 C1184 1.353 . S
C1186 C1189 1.348 . S
C1186 H1234 0.929 . S
C1187 C1188 1.358 . S
C1187 C1189 1.356 . S
C1187 H1235 0.930 . S
C1188 N1185 1.279 . S
C1188 C1187 1.358 . S
C1188 H1191 0.930 . S
C1189 C1186 1.348 . S
C1189 C1187 1.356 . S
H1190 C1184 0.930 . S
H1191 C1188 0.930 . S
C1192 C1194 1.348 . S
C1192 C1195 1.356 . S
C1192 O1222 1.325 . S
N1193 C1196 1.314 . S
N1193 C1197 1.279 . S
C1194 C1192 1.348 . S
C1194 C1196 1.353 . S
C1194 H1236 0.929 . S
C1195 C1192 1.356 . S
C1195 C1197 1.358 . S
C1195 H1237 0.930 . S
C1196 N1193 1.314 . S
C1196 C1194 1.353 . S
C1196 H1238 0.930 . S
C1197 N1193 1.279 . S
C1197 C1195 1.358 . S
C1197 H1239 0.930 . S
C1198 C1199 1.348 . S
C1198 C1200 1.356 . S
C1198 O1223 1.325 . S
C1199 C1198 1.348 . S
C1199 C1201 1.353 . S
C1199 H1240 0.929 . S
C1200 C1198 1.356 . S
C1200 C1202 1.358 . S
C1200 H1241 0.930 . S
C1201 C1199 1.353 . S
C1201 N1203 1.314 . S
C1201 H1242 0.930 . S
C1202 C1200 1.358 . S
C1202 N1203 1.279 . S
C1202 H1243 0.930 . S
N1203 C1201 1.314 . S
N1203 C1202 1.279 . S
C1204 C1206 1.353 . S
C1204 N1207 1.314 . S
C1204 H1210 0.930 . S
C1205 N1207 1.279 . S
C1205 C1208 1.358 . S
C1205 H1211 0.930 . S
C1206 C1204 1.353 . S
C1206 C1209 1.348 . S
C1206 H1244 0.929 . S
N1207 Li1162 1.990 . S
N1207 C1204 1.314 . S
N1207 C1205 1.279 . S
C1208 C1205 1.358 . S
C1208 C1209 1.356 . S
C1208 H1245 0.930 . S
C1209 C1206 1.348 . S
C1209 C1208 1.356 . S
H1210 C1204 0.930 . S
H1211 C1205 0.930 . S
C1212 N1213 1.314 . S
C1212 C1214 1.353 . S
C1212 H1218 0.930 . S
N1213 Li1163 1.990 . S
N1213 C1212 1.314 . S
N1213 C1216 1.279 . S
C1214 C1212 1.353 . S
C1214 C1217 1.348 . S
C1214 H1246 0.929 . S
C1215 C1216 1.358 . S
C1215 C1217 1.356 . S
C1215 H1247 0.930 . S
C1216 N1213 1.279 . S
C1216 C1215 1.358 . S
C1216 H1219 0.930 . S
C1217 C1214 1.348 . S
C1217 C1215 1.356 . S
H1218 C1212 0.930 . S
H1219 C1216 0.930 . S
O1220 Li1160 1.956 . S
O1220 Li1161 1.970 . S
O1220 Li1162 1.961 . S
O1220 C1164 1.325 . S
O1221 Li1160 1.970 . S
O1221 Li1161 1.956 . S
O1221 Li1163 1.961 . S
O1221 C1170 1.325 . S
O1222 Li1160 1.961 . S
O1222 Li1162 1.956 . S
O1222 Li1163 1.970 . S
O1222 C1192 1.325 . S
O1223 Li1161 1.961 . S
O1223 Li1162 1.970 . S
O1223 Li1163 1.956 . S
O1223 C1198 1.325 . S
H1224 C1166 0.929 . S
H1225 C1167 0.930 . S
H1226 C1168 0.930 . S
H1227 C1169 0.930 . S
H1228 C1171 0.930 . S
H1229 C1173 0.929 . S
H1230 C1174 0.930 . S
H1231 C1175 0.930 . S
H1232 C1178 0.930 . S
H1233 C1181 0.929 . S
H1234 C1186 0.929 . S
H1235 C1187 0.930 . S
H1236 C1194 0.929 . S
H1237 C1195 0.930 . S
H1238 C1196 0.930 . S
H1239 C1197 0.930 . S
H1240 C1199 0.929 . S
H1241 C1200 0.930 . S
H1242 C1201 0.930 . S
H1243 C1202 0.930 . S
H1244 C1206 0.929 . S
H1245 C1208 0.930 . S
H1246 C1214 0.929 . S
H1247 C1215 0.930 . S
H1248 C1254 0.930 . S
H1249 C1258 0.930 . S
H1250 C1263 0.929 . S
H1251 C1261 0.929 . S
H1252 C1256 0.929 . S
H1253 C1262 0.929 . S
C1254 H1248 0.930 . S
C1254 C1255 1.367 . S
C1254 C1262 1.378 . S
C1255 C1254 1.367 . S
C1255 C1263 1.433 . S
C1256 H1252 0.929 . S
C1256 C1258 1.378 . S
C1256 C1260 1.350 . S
C1257 C1260 1.463 . S
C1257 C1262 1.350 . S
C1257 N1265 1.427 . S
C1258 H1249 0.930 . S
C1258 C1256 1.378 . S
C1258 C1259 1.367 . S
C1259 C1258 1.367 . S
C1259 C1261 1.433 . S
C1260 C1256 1.350 . S
C1260 C1257 1.463 . S
C1260 N1264 1.427 . S
C1261 H1251 0.929 . S
C1261 C1259 1.433 . S
C1261 N1264 1.384 . S
C1262 H1253 0.929 . S
C1262 C1254 1.378 . S
C1262 C1257 1.350 . S
C1263 H1250 0.929 . S
C1263 C1255 1.433 . S
C1263 N1265 1.384 . S
N1264 C1260 1.427 . S
N1264 C1261 1.384 . S
N1265 C1257 1.427 . S
N1265 C1263 1.384 . S
H1266 C1272 0.930 1_655 S
H1267 C1276 0.930 . S
H1268 C1281 0.929 . S
H1269 C1279 0.929 . S
H1270 C1274 0.929 . S
H1271 C1280 0.929 . S
C1272 H1266 0.930 1_455 S
C1272 C1273 1.367 . S
C1272 C1280 1.378 . S
C1273 C1272 1.367 . S
C1273 C1281 1.433 . S
C1274 H1270 0.929 . S
C1274 C1276 1.378 . S
C1274 C1278 1.350 . S
C1275 C1278 1.463 . S
C1275 C1280 1.350 . S
C1275 N1283 1.427 . S
C1276 H1267 0.930 . S
C1276 C1274 1.378 . S
C1276 C1277 1.367 . S
C1277 C1276 1.367 . S
C1277 C1279 1.433 . S
C1278 C1274 1.350 . S
C1278 C1275 1.463 . S
C1278 N1282 1.427 . S
C1279 H1269 0.929 . S
C1279 C1277 1.433 . S
C1279 N1282 1.384 . S
C1280 H1271 0.929 . S
C1280 C1272 1.378 . S
C1280 C1275 1.350 . S
C1281 H1268 0.929 . S
C1281 C1273 1.433 . S
C1281 N1283 1.384 . S
N1282 C1278 1.427 . S
N1282 C1279 1.384 . S
N1283 C1275 1.427 . S
N1283 C1281 1.384 . S
H1284 C1290 0.930 . S
H1285 C1294 0.930 . S
H1286 C1299 0.929 . S
H1287 C1297 0.929 . S
H1288 C1292 0.929 . S
H1289 C1298 0.929 . S
C1290 H1284 0.930 . S
C1290 C1291 1.367 . S
C1290 C1298 1.378 . S
C1291 C1290 1.367 . S
C1291 C1299 1.433 . S
C1292 H1288 0.929 . S
C1292 C1294 1.378 . S
C1292 C1296 1.350 . S
C1293 C1296 1.463 . S
C1293 C1298 1.350 . S
C1293 N1301 1.427 . S
C1294 H1285 0.930 . S
C1294 C1292 1.378 . S
C1294 C1295 1.367 . S
C1295 C1294 1.367 . S
C1295 C1297 1.433 . S
C1296 C1292 1.350 . S
C1296 C1293 1.463 . S
C1296 N1300 1.427 . S
C1297 H1287 0.929 . S
C1297 C1295 1.433 . S
C1297 N1300 1.384 . S
C1298 H1289 0.929 . S
C1298 C1290 1.378 . S
C1298 C1293 1.350 . S
C1299 H1286 0.929 . S
C1299 C1291 1.433 . S
C1299 N1301 1.384 . S
N1300 C1296 1.427 . S
N1300 C1297 1.384 . S
N1301 C1293 1.427 . S
N1301 C1299 1.384 . S
H1302 C1308 0.930 . S
H1303 C1312 0.930 . S
H1304 C1317 0.929 . S
H1305 C1315 0.929 . S
H1306 C1310 0.929 . S
H1307 C1316 0.929 . S
C1308 H1302 0.930 . S
C1308 C1309 1.367 . S
C1308 C1316 1.378 . S
C1309 C1308 1.367 . S
C1309 C1317 1.433 1_565 S
C1310 H1306 0.929 . S
C1310 C1312 1.378 . S
C1310 C1314 1.350 . S
C1311 C1314 1.463 1_565 S
C1311 C1316 1.350 . S
C1311 N1319 1.427 1_565 S
C1312 H1303 0.930 . S
C1312 C1310 1.378 . S
C1312 C1313 1.367 1_455 S
C1313 C1312 1.367 1_655 S
C1313 C1315 1.433 1_545 S
C1314 C1310 1.350 . S
C1314 C1311 1.463 1_545 S
C1314 N1318 1.427 1_445 S
C1315 H1305 0.929 . S
C1315 C1313 1.433 1_565 S
C1315 N1318 1.384 . S
C1316 H1307 0.929 . S
C1316 C1308 1.378 . S
C1316 C1311 1.350 . S
C1317 H1304 0.929 . S
C1317 C1309 1.433 1_545 S
C1317 N1319 1.384 . S
N1318 C1314 1.427 1_665 S
N1318 C1315 1.384 . S
N1319 C1311 1.427 1_545 S
N1319 C1317 1.384 . S
H1320 C1326 0.930 . S
H1321 C1330 0.930 . S
H1322 C1335 0.929 . S
H1323 C1333 0.929 . S
H1324 C1328 0.929 . S
H1325 C1334 0.929 . S
C1326 H1320 0.930 . S
C1326 C1327 1.367 . S
C1326 C1334 1.378 . S
C1327 C1326 1.367 . S
C1327 C1335 1.433 . S
C1328 H1324 0.929 . S
C1328 C1330 1.378 . S
C1328 C1332 1.350 . S
C1329 C1332 1.463 . S
C1329 C1334 1.350 . S
C1329 N1337 1.427 . S
C1330 H1321 0.930 . S
C1330 C1328 1.378 . S
C1330 C1331 1.367 . S
C1331 C1330 1.367 . S
C1331 C1333 1.433 . S
C1332 C1328 1.350 . S
C1332 C1329 1.463 . S
C1332 N1336 1.427 . S
C1333 H1323 0.929 . S
C1333 C1331 1.433 . S
C1333 N1336 1.384 . S
C1334 H1325 0.929 . S
C1334 C1326 1.378 . S
C1334 C1329 1.350 . S
C1335 H1322 0.929 . S
C1335 C1327 1.433 . S
C1335 N1337 1.384 . S
N1336 C1332 1.427 . S
N1336 C1333 1.384 . S
N1337 C1329 1.427 . S
N1337 C1335 1.384 . S
H1338 C1344 0.930 . S
H1339 C1348 0.930 . S
H1340 C1353 0.929 . S
H1341 C1351 0.929 . S
H1342 C1346 0.929 . S
H1343 C1352 0.929 . S
C1344 H1338 0.930 . S
C1344 C1345 1.367 . S
C1344 C1352 1.378 . S
C1345 C1344 1.367 . S
C1345 C1353 1.433 . S
C1346 H1342 0.929 . S
C1346 C1348 1.378 . S
C1346 C1350 1.350 . S
C1347 C1350 1.463 . S
C1347 C1352 1.350 . S
C1347 N1355 1.427 . S
C1348 H1339 0.930 . S
C1348 C1346 1.378 . S
C1348 C1349 1.367 . S
C1349 C1348 1.367 . S
C1349 C1351 1.433 . S
C1350 C1346 1.350 . S
C1350 C1347 1.463 . S
C1350 N1354 1.427 . S
C1351 H1341 0.929 . S
C1351 C1349 1.433 . S
C1351 N1354 1.384 . S
C1352 H1343 0.929 . S
C1352 C1344 1.378 . S
C1352 C1347 1.350 . S
C1353 H1340 0.929 . S
C1353 C1345 1.433 . S
C1353 N1355 1.384 . S
N1354 C1350 1.427 . S
N1354 C1351 1.384 . S
N1355 C1347 1.427 . S
N1355 C1353 1.384 . S
H1356 C1362 0.930 . S
H1357 C1366 0.930 . S
H1358 C1371 0.929 . S
H1359 C1369 0.929 . S
H1360 C1364 0.929 . S
H1361 C1370 0.929 . S
C1362 H1356 0.930 . S
C1362 C1363 1.367 . S
C1362 C1370 1.378 . S
C1363 C1362 1.367 . S
C1363 C1371 1.433 . S
C1364 H1360 0.929 . S
C1364 C1366 1.378 . S
C1364 C1368 1.350 . S
C1365 C1368 1.463 . S
C1365 C1370 1.350 . S
C1365 N1373 1.427 . S
C1366 H1357 0.930 . S
C1366 C1364 1.378 . S
C1366 C1367 1.367 . S
C1367 C1366 1.367 . S
C1367 C1369 1.433 . S
C1368 C1364 1.350 . S
C1368 C1365 1.463 . S
C1368 N1372 1.427 . S
C1369 H1359 0.929 . S
C1369 C1367 1.433 . S
C1369 N1372 1.384 . S
C1370 H1361 0.929 . S
C1370 C1362 1.378 . S
C1370 C1365 1.350 . S
C1371 H1358 0.929 . S
C1371 C1363 1.433 . S
C1371 N1373 1.384 . S
N1372 C1368 1.427 . S
N1372 C1369 1.384 . S
N1373 C1365 1.427 . S
N1373 C1371 1.384 . S
H1374 C1380 0.930 . S
H1375 C1384 0.930 . S
H1376 C1389 0.929 . S
H1377 C1387 0.929 . S
H1378 C1382 0.929 . S
H1379 C1388 0.929 . S
C1380 H1374 0.930 . S
C1380 C1381 1.367 . S
C1380 C1388 1.378 . S
C1381 C1380 1.367 . S
C1381 C1389 1.433 . S
C1382 H1378 0.929 . S
C1382 C1384 1.378 . S
C1382 C1386 1.350 . S
C1383 C1386 1.463 . S
C1383 C1388 1.350 . S
C1383 N1391 1.427 . S
C1384 H1375 0.930 . S
C1384 C1382 1.378 . S
C1384 C1385 1.367 . S
C1385 C1384 1.367 . S
C1385 C1387 1.433 . S
C1386 C1382 1.350 . S
C1386 C1383 1.463 . S
C1386 N1390 1.427 . S
C1387 H1377 0.929 . S
C1387 C1385 1.433 . S
C1387 N1390 1.384 . S
C1388 H1379 0.929 . S
C1388 C1380 1.378 . S
C1388 C1383 1.350 . S
C1389 H1376 0.929 . S
C1389 C1381 1.433 . S
C1389 N1391 1.384 . S
N1390 C1386 1.427 . S
N1390 C1387 1.384 . S
N1391 C1383 1.427 . S
N1391 C1389 1.384 . S
H1392 C1398 0.930 . S
H1393 C1402 0.930 . S
H1394 C1407 0.929 . S
H1395 C1405 0.929 . S
H1396 C1400 0.929 . S
H1397 C1406 0.929 . S
C1398 H1392 0.930 . S
C1398 C1399 1.367 . S
C1398 C1406 1.378 . S
C1399 C1398 1.367 . S
C1399 C1407 1.433 . S
C1400 H1396 0.929 . S
C1400 C1402 1.378 . S
C1400 C1404 1.350 . S
C1401 C1404 1.463 . S
C1401 C1406 1.350 . S
C1401 N1409 1.427 . S
C1402 H1393 0.930 . S
C1402 C1400 1.378 . S
C1402 C1403 1.367 . S
C1403 C1402 1.367 . S
C1403 C1405 1.433 . S
C1404 C1400 1.350 . S
C1404 C1401 1.463 . S
C1404 N1408 1.427 . S
C1405 H1395 0.929 . S
C1405 C1403 1.433 . S
C1405 N1408 1.384 . S
C1406 H1397 0.929 . S
C1406 C1398 1.378 . S
C1406 C1401 1.350 . S
C1407 H1394 0.929 . S
C1407 C1399 1.433 . S
C1407 N1409 1.384 . S
N1408 C1404 1.427 . S
N1408 C1405 1.384 . S
N1409 C1401 1.427 . S
N1409 C1407 1.384 . S
H1410 C1416 0.930 . S
H1411 C1420 0.930 . S
H1412 C1425 0.929 . S
H1413 C1423 0.929 . S
H1414 C1418 0.929 . S
H1415 C1424 0.929 . S
C1416 H1410 0.930 . S
C1416 C1417 1.367 . S
C1416 C1424 1.378 . S
C1417 C1416 1.367 . S
C1417 C1425 1.433 . S
C1418 H1414 0.929 . S
C1418 C1420 1.378 . S
C1418 C1422 1.350 . S
C1419 C1422 1.463 . S
C1419 C1424 1.350 . S
C1419 N1427 1.427 . S
C1420 H1411 0.930 . S
C1420 C1418 1.378 . S
C1420 C1421 1.367 . S
C1421 C1420 1.367 . S
C1421 C1423 1.433 . S
C1422 C1418 1.350 . S
C1422 C1419 1.463 . S
C1422 N1426 1.427 . S
C1423 H1413 0.929 . S
C1423 C1421 1.433 . S
C1423 N1426 1.384 . S
C1424 H1415 0.929 . S
C1424 C1416 1.378 . S
C1424 C1419 1.350 . S
C1425 H1412 0.929 . S
C1425 C1417 1.433 . S
C1425 N1427 1.384 . S
N1426 C1422 1.427 . S
N1426 C1423 1.384 . S
N1427 C1419 1.427 . S
N1427 C1425 1.384 . S
H1428 C1434 0.930 . S
H1429 C1438 0.930 . S
H1430 C1443 0.929 . S
H1431 C1441 0.929 . S
H1432 C1436 0.929 . S
H1433 C1442 0.929 . S
C1434 H1428 0.930 . S
C1434 C1435 1.367 . S
C1434 C1442 1.378 . S
C1435 C1434 1.367 . S
C1435 C1443 1.433 . S
C1436 H1432 0.929 . S
C1436 C1438 1.378 . S
C1436 C1440 1.350 . S
C1437 C1440 1.463 . S
C1437 C1442 1.350 . S
C1437 N1445 1.427 . S
C1438 H1429 0.930 . S
C1438 C1436 1.378 . S
C1438 C1439 1.367 . S
C1439 C1438 1.367 . S
C1439 C1441 1.433 . S
C1440 C1436 1.350 . S
C1440 C1437 1.463 . S
C1440 N1444 1.427 . S
C1441 H1431 0.929 . S
C1441 C1439 1.433 . S
C1441 N1444 1.384 . S
C1442 H1433 0.929 . S
C1442 C1434 1.378 . S
C1442 C1437 1.350 . S
C1443 H1430 0.929 . S
C1443 C1435 1.433 . S
C1443 N1445 1.384 . S
N1444 C1440 1.427 . S
N1444 C1441 1.384 . S
N1445 C1437 1.427 . S
N1445 C1443 1.384 . S
H1446 C1452 0.930 . S
H1447 C1456 0.930 . S
H1448 C1461 0.929 . S
H1449 C1459 0.929 . S
H1450 C1454 0.929 . S
H1451 C1460 0.929 . S
C1452 H1446 0.930 . S
C1452 C1453 1.367 . S
C1452 C1460 1.378 . S
C1453 C1452 1.367 . S
C1453 C1461 1.433 . S
C1454 H1450 0.929 . S
C1454 C1456 1.378 . S
C1454 C1458 1.350 . S
C1455 C1458 1.463 . S
C1455 C1460 1.350 . S
C1455 N1463 1.427 . S
C1456 H1447 0.930 . S
C1456 C1454 1.378 . S
C1456 C1457 1.367 . S
C1457 C1456 1.367 . S
C1457 C1459 1.433 . S
C1458 C1454 1.350 . S
C1458 C1455 1.463 . S
C1458 N1462 1.427 . S
C1459 H1449 0.929 . S
C1459 C1457 1.433 . S
C1459 N1462 1.384 . S
C1460 H1451 0.929 . S
C1460 C1452 1.378 . S
C1460 C1455 1.350 . S
C1461 H1448 0.929 . S
C1461 C1453 1.433 . S
C1461 N1463 1.384 . S
N1462 C1458 1.427 . S
N1462 C1459 1.384 . S
N1463 C1455 1.427 . S
N1463 C1461 1.384 . S
H1464 C1470 0.930 . S
H1465 C1474 0.930 . S
H1466 C1479 0.929 . S
H1467 C1477 0.929 . S
H1468 C1472 0.929 . S
H1469 C1478 0.929 . S
C1470 H1464 0.930 . S
C1470 C1471 1.367 . S
C1470 C1478 1.378 . S
C1471 C1470 1.367 . S
C1471 C1479 1.433 . S
C1472 H1468 0.929 . S
C1472 C1474 1.378 . S
C1472 C1476 1.350 . S
C1473 C1476 1.463 . S
C1473 C1478 1.350 . S
C1473 N1481 1.427 . S
C1474 H1465 0.930 . S
C1474 C1472 1.378 . S
C1474 C1475 1.367 . S
C1475 C1474 1.367 . S
C1475 C1477 1.433 . S
C1476 C1472 1.350 . S
C1476 C1473 1.463 . S
C1476 N1480 1.427 . S
C1477 H1467 0.929 . S
C1477 C1475 1.433 . S
C1477 N1480 1.384 . S
C1478 H1469 0.929 . S
C1478 C1470 1.378 . S
C1478 C1473 1.350 . S
C1479 H1466 0.929 . S
C1479 C1471 1.433 . S
C1479 N1481 1.384 . S
N1480 C1476 1.427 . S
N1480 C1477 1.384 . S
N1481 C1473 1.427 . S
N1481 C1479 1.384 . S
H1482 C1488 0.930 . S
H1483 C1492 0.930 . S
H1484 C1497 0.929 . S
H1485 C1495 0.950 . S
H1486 C1490 0.929 . S
H1487 C1496 0.929 . S
C1488 H1482 0.930 . S
C1488 C1489 1.367 . S
C1488 C1496 1.378 . S
C1489 C1488 1.367 . S
C1489 C1497 1.433 . S
C1490 H1486 0.929 . S
C1490 C1492 1.378 . S
C1490 C1494 1.350 . S
C1491 C1494 1.463 . S
C1491 C1496 1.350 . S
C1491 N1499 1.427 . S
C1492 H1483 0.930 . S
C1492 C1490 1.378 . S
C1492 C1493 1.367 . S
C1493 C1492 1.367 . S
C1493 C1495 1.433 . S
C1494 C1490 1.350 . S
C1494 C1491 1.463 . S
C1494 N1498 1.427 . S
C1495 H1485 0.950 . S
C1495 C1493 1.433 . S
C1495 N1498 1.384 . S
C1496 H1487 0.929 . S
C1496 C1488 1.378 . S
C1496 C1491 1.350 . S
C1497 H1484 0.929 . S
C1497 C1489 1.433 . S
C1497 N1499 1.384 . S
N1498 C1494 1.427 . S
N1498 C1495 1.384 . S
N1499 C1491 1.427 . S
N1499 C1497 1.384 . S
H1500 C1506 0.930 . S
H1501 C1510 0.930 . S
H1502 C1515 0.929 . S
H1503 C1513 0.929 . S
H1504 C1508 0.929 . S
H1505 C1514 0.929 . S
C1506 H1500 0.930 . S
C1506 C1507 1.367 . S
C1506 C1514 1.378 . S
C1507 C1506 1.367 . S
C1507 C1515 1.433 . S
C1508 H1504 0.929 . S
C1508 C1510 1.378 . S
C1508 C1512 1.350 . S
C1509 C1512 1.463 . S
C1509 C1514 1.350 . S
C1509 N1517 1.427 . S
C1510 H1501 0.930 . S
C1510 C1508 1.378 . S
C1510 C1511 1.367 . S
C1511 C1510 1.367 . S
C1511 C1513 1.433 . S
C1512 C1508 1.350 . S
C1512 C1509 1.463 . S
C1512 N1516 1.427 . S
C1513 H1503 0.929 . S
C1513 C1511 1.433 . S
C1513 N1516 1.384 . S
C1514 H1505 0.929 . S
C1514 C1506 1.378 . S
C1514 C1509 1.350 . S
C1515 H1502 0.929 . S
C1515 C1507 1.433 . S
C1515 N1517 1.384 . S
N1516 C1512 1.427 . S
N1516 C1513 1.384 . S
N1517 C1509 1.427 . S
N1517 C1515 1.384 . S
H1518 C1524 0.930 . S
H1519 C1528 0.926 1_455 S
H1520 C1533 0.933 . S
H1521 C1531 0.929 . S
H1522 C1526 0.929 1_455 S
H1523 C1532 0.929 . S
C1524 H1518 0.930 . S
C1524 C1525 1.367 . S
C1524 C1532 1.378 . S
C1525 C1524 1.367 . S
C1525 C1533 1.433 . S
C1526 H1522 0.929 1_655 S
C1526 C1528 1.377 . S
C1526 C1530 1.350 . S
C1527 C1530 1.463 . S
C1527 C1532 1.350 . S
C1527 N1535 1.427 . S
C1528 H1519 0.926 1_655 S
C1528 C1526 1.377 . S
C1528 C1529 1.374 . S
C1529 C1528 1.374 . S
C1529 C1531 1.433 . S
C1530 C1526 1.350 . S
C1530 C1527 1.463 . S
C1530 N1534 1.427 . S
C1531 H1521 0.929 . S
C1531 C1529 1.433 . S
C1531 N1534 1.384 . S
C1532 H1523 0.929 . S
C1532 C1524 1.378 . S
C1532 C1527 1.350 . S
C1533 H1520 0.933 . S
C1533 C1525 1.433 . S
C1533 N1535 1.384 . S
N1534 C1530 1.427 . S
N1534 C1531 1.384 . S
N1535 C1527 1.427 . S
N1535 C1533 1.384 . S
H1536 C1542 0.930 . S
H1537 C1546 0.930 . S
H1538 C1551 0.929 . S
H1539 C1549 0.929 . S
H1540 C1544 0.929 . S
H1541 C1550 0.929 . S
C1542 H1536 0.930 . S
C1542 C1543 1.367 . S
C1542 C1550 1.378 . S
C1543 C1542 1.367 . S
C1543 C1551 1.433 . S
C1544 H1540 0.929 . S
C1544 C1546 1.378 . S
C1544 C1548 1.350 . S
C1545 C1548 1.463 . S
C1545 C1550 1.350 . S
C1545 N1553 1.427 . S
C1546 H1537 0.930 . S
C1546 C1544 1.378 . S
C1546 C1547 1.367 . S
C1547 C1546 1.367 . S
C1547 C1549 1.433 . S
C1548 C1544 1.350 . S
C1548 C1545 1.463 . S
C1548 N1552 1.427 . S
C1549 H1539 0.929 . S
C1549 C1547 1.433 . S
C1549 N1552 1.384 . S
C1550 H1541 0.929 . S
C1550 C1542 1.378 . S
C1550 C1545 1.350 . S
C1551 H1538 0.929 . S
C1551 C1543 1.433 . S
C1551 N1553 1.384 . S
N1552 C1548 1.427 . S
N1552 C1549 1.384 . S
N1553 C1545 1.427 . S
N1553 C1551 1.384 . S
H1554 C1560 0.930 . S
H1555 C1564 0.930 . S
H1556 C1569 0.929 . S
H1557 C1567 0.929 . S
H1558 C1562 0.929 . S
H1559 C1568 0.929 . S
C1560 H1554 0.930 . S
C1560 C1561 1.367 . S
C1560 C1568 1.378 . S
C1561 C1560 1.367 . S
C1561 C1569 1.433 . S
C1562 H1558 0.929 . S
C1562 C1564 1.378 . S
C1562 C1566 1.350 . S
C1563 C1566 1.463 . S
C1563 C1568 1.350 . S
C1563 N1571 1.427 . S
C1564 H1555 0.930 . S
C1564 C1562 1.378 . S
C1564 C1565 1.367 . S
C1565 C1564 1.367 . S
C1565 C1567 1.433 . S
C1566 C1562 1.350 . S
C1566 C1563 1.463 . S
C1566 N1570 1.427 . S
C1567 H1557 0.929 . S
C1567 C1565 1.433 . S
C1567 N1570 1.384 . S
C1568 H1559 0.929 . S
C1568 C1560 1.378 . S
C1568 C1563 1.350 . S
C1569 H1556 0.929 . S
C1569 C1561 1.433 . S
C1569 N1571 1.384 . S
N1570 C1566 1.427 . S
N1570 C1567 1.384 . S
N1571 C1563 1.427 . S
N1571 C1569 1.384 . S
H1572 C1578 0.930 . S
H1573 C1582 0.930 . S
H1574 C1587 0.929 1_554 S
H1575 C1585 0.929 . S
H1576 C1580 0.929 . S
H1577 C1586 0.929 . S
C1578 H1572 0.930 . S
C1578 C1579 1.367 . S
C1578 C1586 1.378 1_545 S
C1579 C1578 1.367 . S
C1579 C1587 1.433 1_545 S
C1580 H1576 0.929 . S
C1580 C1582 1.378 . S
C1580 C1584 1.350 1_554 S
C1581 C1584 1.463 . S
C1581 C1586 1.350 . S
C1581 N1589 1.427 . S
C1582 H1573 0.930 . S
C1582 C1580 1.378 . S
C1582 C1583 1.367 . S
C1583 C1582 1.367 . S
C1583 C1585 1.433 1_554 S
C1584 C1580 1.350 1_556 S
C1584 C1581 1.463 . S
C1584 N1588 1.427 . S
C1585 H1575 0.929 . S
C1585 C1583 1.433 1_556 S
C1585 N1588 1.384 . S
C1586 H1577 0.929 . S
C1586 C1578 1.378 1_565 S
C1586 C1581 1.350 . S
C1587 H1574 0.929 1_556 S
C1587 C1579 1.433 1_565 S
C1587 N1589 1.384 . S
N1588 C1584 1.427 . S
N1588 C1585 1.384 . S
N1589 C1581 1.427 . S
N1589 C1587 1.384 . S
H1590 C1596 0.930 . S
H1591 C1600 0.930 . S
H1592 C1605 0.929 . S
H1593 C1603 0.929 . S
H1594 C1598 0.929 . S
H1595 C1604 0.929 . S
C1596 H1590 0.930 . S
C1596 C1597 1.367 . S
C1596 C1604 1.378 . S
C1597 C1596 1.367 . S
C1597 C1605 1.433 . S
C1598 H1594 0.929 . S
C1598 C1600 1.378 . S
C1598 C1602 1.350 . S
C1599 C1602 1.463 . S
C1599 C1604 1.350 . S
C1599 N1607 1.427 . S
C1600 H1591 0.930 . S
C1600 C1598 1.378 . S
C1600 C1601 1.367 . S
C1601 C1600 1.367 . S
C1601 C1603 1.433 . S
C1602 C1598 1.350 . S
C1602 C1599 1.463 . S
C1602 N1606 1.427 . S
C1603 H1593 0.929 . S
C1603 C1601 1.433 . S
C1603 N1606 1.384 . S
C1604 H1595 0.929 . S
C1604 C1596 1.378 . S
C1604 C1599 1.350 . S
C1605 H1592 0.929 . S
C1605 C1597 1.433 . S
C1605 N1607 1.384 . S
N1606 C1602 1.427 . S
N1606 C1603 1.384 . S
N1607 C1599 1.427 . S
N1607 C1605 1.384 . S
H1608 C1614 0.930 . S
H1609 C1618 0.930 . S
H1610 C1623 0.929 . S
H1611 C1621 0.929 . S
H1612 C1616 0.929 . S
H1613 C1622 0.929 . S
C1614 H1608 0.930 . S
C1614 C1615 1.367 . S
C1614 C1622 1.378 . S
C1615 C1614 1.367 . S
C1615 C1623 1.433 . S
C1616 H1612 0.929 . S
C1616 C1618 1.378 . S
C1616 C1620 1.350 . S
C1617 C1620 1.463 . S
C1617 C1622 1.350 . S
C1617 N1625 1.427 . S
C1618 H1609 0.930 . S
C1618 C1616 1.378 . S
C1618 C1619 1.367 . S
C1619 C1618 1.367 . S
C1619 C1621 1.433 . S
C1620 C1616 1.350 . S
C1620 C1617 1.463 . S
C1620 N1624 1.427 . S
C1621 H1611 0.929 . S
C1621 C1619 1.433 . S
C1621 N1624 1.384 . S
C1622 H1613 0.929 . S
C1622 C1614 1.378 . S
C1622 C1617 1.350 . S
C1623 H1610 0.929 . S
C1623 C1615 1.433 . S
C1623 N1625 1.384 . S
N1624 C1620 1.427 . S
N1624 C1621 1.384 . S
N1625 C1617 1.427 . S
N1625 C1623 1.384 . S
H1626 C1632 0.930 . S
H1627 C1636 0.930 . S
H1628 C1641 0.929 . S
H1629 C1639 0.929 . S
H1630 C1634 0.929 . S
H1631 C1640 0.929 . S
C1632 H1626 0.930 . S
C1632 C1633 1.367 . S
C1632 C1640 1.378 . S
C1633 C1632 1.367 . S
C1633 C1641 1.433 . S
C1634 H1630 0.929 . S
C1634 C1636 1.378 . S
C1634 C1638 1.350 . S
C1635 C1638 1.463 . S
C1635 C1640 1.350 . S
C1635 N1643 1.427 . S
C1636 H1627 0.930 . S
C1636 C1634 1.378 . S
C1636 C1637 1.367 . S
C1637 C1636 1.367 . S
C1637 C1639 1.433 . S
C1638 C1634 1.350 . S
C1638 C1635 1.463 . S
C1638 N1642 1.427 . S
C1639 H1629 0.929 . S
C1639 C1637 1.433 . S
C1639 N1642 1.384 . S
C1640 H1631 0.929 . S
C1640 C1632 1.378 . S
C1640 C1635 1.350 . S
C1641 H1628 0.929 . S
C1641 C1633 1.433 . S
C1641 N1643 1.384 . S
N1642 C1638 1.427 . S
N1642 C1639 1.384 . S
N1643 C1635 1.427 . S
N1643 C1641 1.384 . S
H1644 C1650 0.930 . S
H1645 C1654 0.930 . S
H1646 C1659 0.929 . S
H1647 C1657 0.929 . S
H1648 C1652 0.929 . S
H1649 C1658 0.929 . S
C1650 H1644 0.930 . S
C1650 C1651 1.367 . S
C1650 C1658 1.378 . S
C1651 C1650 1.367 . S
C1651 C1659 1.433 . S
C1652 H1648 0.929 . S
C1652 C1654 1.378 . S
C1652 C1656 1.350 . S
C1653 C1656 1.463 . S
C1653 C1658 1.350 . S
C1653 N1661 1.427 . S
C1654 H1645 0.930 . S
C1654 C1652 1.378 . S
C1654 C1655 1.367 . S
C1655 C1654 1.367 . S
C1655 C1657 1.433 . S
C1656 C1652 1.350 . S
C1656 C1653 1.463 . S
C1656 N1660 1.427 . S
C1657 H1647 0.929 . S
C1657 C1655 1.433 . S
C1657 N1660 1.384 . S
C1658 H1649 0.929 . S
C1658 C1650 1.378 . S
C1658 C1653 1.350 . S
C1659 H1646 0.929 . S
C1659 C1651 1.433 . S
C1659 N1661 1.384 . S
N1660 C1656 1.427 . S
N1660 C1657 1.384 . S
N1661 C1653 1.427 . S
N1661 C1659 1.384 . S
H1662 C1668 0.930 . S
H1663 C1672 0.930 . S
H1664 C1677 0.929 . S
H1665 C1675 0.929 . S
H1666 C1670 0.929 . S
H1667 C1676 0.929 . S
C1668 H1662 0.930 . S
C1668 C1669 1.367 . S
C1668 C1676 1.378 . S
C1669 C1668 1.367 . S
C1669 C1677 1.433 . S
C1670 H1666 0.929 . S
C1670 C1672 1.378 . S
C1670 C1674 1.350 . S
C1671 C1674 1.463 . S
C1671 C1676 1.350 . S
C1671 N1679 1.427 . S
C1672 H1663 0.930 . S
C1672 C1670 1.378 . S
C1672 C1673 1.367 . S
C1673 C1672 1.367 . S
C1673 C1675 1.433 . S
C1674 C1670 1.350 . S
C1674 C1671 1.463 . S
C1674 N1678 1.427 . S
C1675 H1665 0.929 . S
C1675 C1673 1.433 . S
C1675 N1678 1.384 . S
C1676 H1667 0.929 . S
C1676 C1668 1.378 . S
C1676 C1671 1.350 . S
C1677 H1664 0.929 . S
C1677 C1669 1.433 . S
C1677 N1679 1.384 . S
N1678 C1674 1.427 . S
N1678 C1675 1.384 . S
N1679 C1671 1.427 . S
N1679 C1677 1.384 . S
H1680 C1686 0.930 . S
H1681 C1690 0.930 . S
H1682 C1695 0.929 . S
H1683 C1693 0.929 . S
H1684 C1688 0.929 . S
H1685 C1694 0.929 . S
C1686 H1680 0.930 . S
C1686 C1687 1.367 . S
C1686 C1694 1.378 . S
C1687 C1686 1.367 . S
C1687 C1695 1.433 . S
C1688 H1684 0.929 . S
C1688 C1690 1.378 . S
C1688 C1692 1.350 . S
C1689 C1692 1.463 . S
C1689 C1694 1.350 . S
C1689 N1697 1.427 . S
C1690 H1681 0.930 . S
C1690 C1688 1.378 . S
C1690 C1691 1.367 . S
C1691 C1690 1.367 . S
C1691 C1693 1.433 . S
C1692 C1688 1.350 . S
C1692 C1689 1.463 . S
C1692 N1696 1.427 . S
C1693 H1683 0.929 . S
C1693 C1691 1.433 . S
C1693 N1696 1.384 . S
C1694 H1685 0.929 . S
C1694 C1686 1.378 . S
C1694 C1689 1.350 . S
C1695 H1682 0.929 . S
C1695 C1687 1.433 . S
C1695 N1697 1.384 . S
N1696 C1692 1.427 . S
N1696 C1693 1.384 . S
N1697 C1689 1.427 . S
N1697 C1695 1.384 . S
H1698 C1704 0.930 . S
H1699 C1708 0.930 . S
H1700 C1713 0.929 . S
H1701 C1711 0.929 . S
H1702 C1706 0.929 . S
H1703 C1712 0.929 . S
C1704 H1698 0.930 . S
C1704 C1705 1.367 1_565 S
C1704 C1712 1.378 . S
C1705 C1704 1.367 1_545 S
C1705 C1713 1.433 . S
C1706 H1702 0.929 . S
C1706 C1708 1.378 . S
C1706 C1710 1.350 . S
C1707 C1710 1.463 . S
C1707 C1712 1.350 1_545 S
C1707 N1715 1.427 . S
C1708 H1699 0.930 . S
C1708 C1706 1.378 . S
C1708 C1709 1.367 . S
C1709 C1708 1.367 . S
C1709 C1711 1.433 1_545 S
C1710 C1706 1.350 . S
C1710 C1707 1.463 . S
C1710 N1714 1.427 1_545 S
C1711 H1701 0.929 . S
C1711 C1709 1.433 1_565 S
C1711 N1714 1.384 . S
C1712 H1703 0.929 . S
C1712 C1704 1.378 . S
C1712 C1707 1.350 1_565 S
C1713 H1700 0.929 . S
C1713 C1705 1.433 . S
C1713 N1715 1.384 . S
N1714 C1710 1.427 1_565 S
N1714 C1711 1.384 . S
N1715 C1707 1.427 . S
N1715 C1713 1.384 . S
H1716 C1722 0.930 . S
H1717 C1726 0.930 . S
H1718 C1731 0.929 . S
H1719 C1729 0.929 . S
H1720 C1724 0.929 . S
H1721 C1730 0.929 . S
C1722 H1716 0.930 . S
C1722 C1723 1.367 . S
C1722 C1730 1.378 . S
C1723 C1722 1.367 . S
C1723 C1731 1.433 . S
C1724 H1720 0.929 . S
C1724 C1726 1.378 . S
C1724 C1728 1.350 . S
C1725 C1728 1.463 . S
C1725 C1730 1.350 . S
C1725 N1733 1.427 . S
C1726 H1717 0.930 . S
C1726 C1724 1.378 . S
C1726 C1727 1.367 . S
C1727 C1726 1.367 . S
C1727 C1729 1.433 . S
C1728 C1724 1.350 . S
C1728 C1725 1.463 . S
C1728 N1732 1.427 . S
C1729 H1719 0.929 . S
C1729 C1727 1.433 . S
C1729 N1732 1.384 . S
C1730 H1721 0.929 . S
C1730 C1722 1.378 . S
C1730 C1725 1.350 . S
C1731 H1718 0.929 . S
C1731 C1723 1.433 . S
C1731 N1733 1.384 . S
N1732 C1728 1.427 . S
N1732 C1729 1.384 . S
N1733 C1725 1.427 . S
N1733 C1731 1.384 . S
H1734 C1740 0.930 . S
H1735 C1744 0.930 . S
H1736 C1749 0.929 . S
H1737 C1747 0.929 . S
H1738 C1742 0.929 . S
H1739 C1748 0.929 . S
C1740 H1734 0.930 . S
C1740 C1741 1.367 . S
C1740 C1748 1.378 . S
C1741 C1740 1.367 . S
C1741 C1749 1.433 . S
C1742 H1738 0.929 . S
C1742 C1744 1.378 . S
C1742 C1746 1.350 . S
C1743 C1746 1.463 . S
C1743 C1748 1.350 . S
C1743 N1751 1.427 . S
C1744 H1735 0.930 . S
C1744 C1742 1.378 . S
C1744 C1745 1.367 . S
C1745 C1744 1.367 . S
C1745 C1747 1.433 . S
C1746 C1742 1.350 . S
C1746 C1743 1.463 . S
C1746 N1750 1.427 . S
C1747 H1737 0.929 . S
C1747 C1745 1.433 . S
C1747 N1750 1.384 . S
C1748 H1739 0.929 . S
C1748 C1740 1.378 . S
C1748 C1743 1.350 . S
C1749 H1736 0.929 . S
C1749 C1741 1.433 . S
C1749 N1751 1.384 . S
N1750 C1746 1.427 . S
N1750 C1747 1.384 . S
N1751 C1743 1.427 . S
N1751 C1749 1.384 . S
H1752 C1758 0.930 . S
H1753 C1762 0.930 . S
H1754 C1767 0.929 . S
H1755 C1765 0.929 . S
H1756 C1760 0.929 . S
H1757 C1766 0.929 . S
C1758 H1752 0.930 . S
C1758 C1759 1.367 . S
C1758 C1766 1.378 . S
C1759 C1758 1.367 . S
C1759 C1767 1.433 . S
C1760 H1756 0.929 . S
C1760 C1762 1.378 . S
C1760 C1764 1.350 . S
C1761 C1764 1.463 . S
C1761 C1766 1.350 . S
C1761 N1769 1.427 . S
C1762 H1753 0.930 . S
C1762 C1760 1.378 . S
C1762 C1763 1.367 . S
C1763 C1762 1.367 . S
C1763 C1765 1.433 . S
C1764 C1760 1.350 . S
C1764 C1761 1.463 . S
C1764 N1768 1.427 . S
C1765 H1755 0.929 . S
C1765 C1763 1.433 . S
C1765 N1768 1.384 . S
C1766 H1757 0.929 . S
C1766 C1758 1.378 . S
C1766 C1761 1.350 . S
C1767 H1754 0.929 . S
C1767 C1759 1.433 . S
C1767 N1769 1.384 . S
N1768 C1764 1.427 . S
N1768 C1765 1.384 . S
N1769 C1761 1.427 . S
N1769 C1767 1.384 . S
H1770 C1776 0.930 . S
H1771 C1780 0.930 . S
H1772 C1785 0.929 . S
H1773 C1783 0.929 . S
H1774 C1778 0.929 . S
H1775 C1784 0.922 1_655 S
C1776 H1770 0.930 . S
C1776 C1777 1.367 . S
C1776 C1784 1.378 . S
C1777 C1776 1.367 . S
C1777 C1785 1.433 . S
C1778 H1774 0.929 . S
C1778 C1780 1.378 . S
C1778 C1782 1.350 . S
C1779 C1782 1.463 . S
C1779 C1784 1.350 . S
C1779 N1787 1.427 . S
C1780 H1771 0.930 . S
C1780 C1778 1.378 . S
C1780 C1781 1.367 1_455 S
C1781 C1780 1.367 1_655 S
C1781 C1783 1.433 . S
C1782 C1778 1.350 . S
C1782 C1779 1.463 . S
C1782 N1786 1.427 1_455 S
C1783 H1773 0.929 . S
C1783 C1781 1.433 . S
C1783 N1786 1.384 . S
C1784 H1775 0.922 1_455 S
C1784 C1776 1.378 . S
C1784 C1779 1.350 . S
C1785 H1772 0.929 . S
C1785 C1777 1.433 . S
C1785 N1787 1.384 . S
N1786 C1782 1.427 1_655 S
N1786 C1783 1.384 . S
N1787 C1779 1.427 . S
N1787 C1785 1.384 . S
H1788 C1794 0.930 . S
H1789 C1798 0.930 . S
H1790 C1803 0.929 . S
H1791 C1801 0.929 . S
H1792 C1796 0.929 . S
H1793 C1802 0.929 . S
C1794 H1788 0.930 . S
C1794 C1795 1.367 . S
C1794 C1802 1.378 . S
C1795 C1794 1.367 . S
C1795 C1803 1.433 . S
C1796 H1792 0.929 . S
C1796 C1798 1.378 . S
C1796 C1800 1.350 . S
C1797 C1800 1.463 . S
C1797 C1802 1.350 . S
C1797 N1805 1.427 . S
C1798 H1789 0.930 . S
C1798 C1796 1.378 . S
C1798 C1799 1.367 . S
C1799 C1798 1.367 . S
C1799 C1801 1.433 . S
C1800 C1796 1.350 . S
C1800 C1797 1.463 . S
C1800 N1804 1.427 . S
C1801 H1791 0.929 . S
C1801 C1799 1.433 . S
C1801 N1804 1.384 . S
C1802 H1793 0.929 . S
C1802 C1794 1.378 . S
C1802 C1797 1.350 . S
C1803 H1790 0.929 . S
C1803 C1795 1.433 . S
C1803 N1805 1.384 . S
N1804 C1800 1.427 . S
N1804 C1801 1.384 . S
N1805 C1797 1.427 . S
N1805 C1803 1.384 . S
H1806 C1812 0.930 . S
H1807 C1816 0.930 . S
H1808 C1821 0.929 . S
H1809 C1819 0.929 . S
H1810 C1814 0.929 . S
H1811 C1820 0.929 . S
C1812 H1806 0.930 . S
C1812 C1813 1.367 . S
C1812 C1820 1.378 . S
C1813 C1812 1.367 . S
C1813 C1821 1.433 1_455 S
C1814 H1810 0.929 . S
C1814 C1816 1.378 . S
C1814 C1818 1.350 . S
C1815 C1818 1.463 . S
C1815 C1820 1.350 . S
C1815 N1823 1.427 . S
C1816 H1807 0.930 . S
C1816 C1814 1.378 . S
C1816 C1817 1.367 . S
C1817 C1816 1.367 . S
C1817 C1819 1.433 . S
C1818 C1814 1.350 . S
C1818 C1815 1.463 . S
C1818 N1822 1.427 . S
C1819 H1809 0.929 . S
C1819 C1817 1.433 . S
C1819 N1822 1.384 . S
C1820 H1811 0.929 . S
C1820 C1812 1.378 . S
C1820 C1815 1.350 . S
C1821 H1808 0.929 . S
C1821 C1813 1.433 1_655 S
C1821 N1823 1.384 1_655 S
N1822 C1818 1.427 . S
N1822 C1819 1.384 . S
N1823 C1815 1.427 . S
N1823 C1821 1.384 1_455 S
H1824 C1830 0.930 . S
H1825 C1834 0.930 . S
H1826 C1839 0.929 . S
H1827 C1837 0.929 . S
H1828 C1832 0.929 . S
H1829 C1838 0.929 . S
C1830 H1824 0.930 . S
C1830 C1831 1.367 . S
C1830 C1838 1.378 . S
C1831 C1830 1.367 . S
C1831 C1839 1.433 . S
C1832 H1828 0.929 . S
C1832 C1834 1.378 . S
C1832 C1836 1.350 . S
C1833 C1836 1.463 . S
C1833 C1838 1.350 . S
C1833 N1841 1.427 . S
C1834 H1825 0.930 . S
C1834 C1832 1.378 . S
C1834 C1835 1.367 . S
C1835 C1834 1.367 . S
C1835 C1837 1.433 . S
C1836 C1832 1.350 . S
C1836 C1833 1.463 . S
C1836 N1840 1.427 . S
C1837 H1827 0.929 . S
C1837 C1835 1.433 . S
C1837 N1840 1.384 . S
C1838 H1829 0.929 . S
C1838 C1830 1.378 . S
C1838 C1833 1.350 . S
C1839 H1826 0.929 . S
C1839 C1831 1.433 . S
C1839 N1841 1.384 . S
N1840 C1836 1.427 . S
N1840 C1837 1.384 . S
N1841 C1833 1.427 . S
N1841 C1839 1.384 . S
H1842 C1848 0.918 1_455 S
H1843 C1852 0.930 . S
H1844 C1857 0.929 1_554 S
H1845 C1855 0.929 . S
H1846 C1850 0.929 . S
H1847 C1856 0.929 1_455 S
C1848 H1842 0.918 1_655 S
C1848 C1849 1.367 . S
C1848 C1856 1.378 . S
C1849 C1848 1.367 . S
C1849 C1857 1.433 . S
C1850 H1846 0.929 . S
C1850 C1852 1.378 . S
C1850 C1854 1.350 . S
C1851 C1854 1.463 . S
C1851 C1856 1.350 . S
C1851 N1859 1.427 . S
C1852 H1843 0.930 . S
C1852 C1850 1.378 . S
C1852 C1853 1.367 . S
C1853 C1852 1.367 . S
C1853 C1855 1.433 1_655 S
C1854 C1850 1.350 . S
C1854 C1851 1.463 . S
C1854 N1858 1.403 1_655 S
C1855 H1845 0.929 . S
C1855 C1853 1.433 1_455 S
C1855 N1858 1.394 . S
C1856 H1847 0.929 1_655 S
C1856 C1848 1.378 . S
C1856 C1851 1.350 . S
C1857 H1844 0.929 1_556 S
C1857 C1849 1.433 . S
C1857 N1859 1.384 . S
N1858 C1854 1.403 1_455 S
N1858 C1855 1.394 . S
N1859 C1851 1.427 . S
N1859 C1857 1.384 . S
H1860 C1866 0.930 . S
H1861 C1870 0.930 . S
H1862 C1875 0.929 . S
H1863 C1873 0.929 . S
H1864 C1868 0.929 . S
H1865 C1874 0.929 . S
C1866 H1860 0.930 . S
C1866 C1867 1.367 . S
C1866 C1874 1.378 . S
C1867 C1866 1.367 . S
C1867 C1875 1.433 . S
C1868 H1864 0.929 . S
C1868 C1870 1.378 . S
C1868 C1872 1.350 . S
C1869 C1872 1.463 . S
C1869 C1874 1.350 . S
C1869 N1877 1.427 . S
C1870 H1861 0.930 . S
C1870 C1868 1.378 . S
C1870 C1871 1.367 . S
C1871 C1870 1.367 . S
C1871 C1873 1.433 . S
C1872 C1868 1.350 . S
C1872 C1869 1.463 . S
C1872 N1876 1.427 . S
C1873 H1863 0.929 . S
C1873 C1871 1.433 . S
C1873 N1876 1.384 . S
C1874 H1865 0.929 . S
C1874 C1866 1.378 . S
C1874 C1869 1.350 . S
C1875 H1862 0.929 . S
C1875 C1867 1.433 . S
C1875 N1877 1.384 . S
N1876 C1872 1.427 . S
N1876 C1873 1.384 . S
N1877 C1869 1.427 . S
N1877 C1875 1.384 . S
H1878 C1884 0.930 1_554 S
H1879 C1888 0.930 . S
H1880 C1893 0.929 . S
H1881 C1891 0.929 . S
H1882 C1886 0.929 . S
H1883 C1892 0.929 . S
C1884 H1878 0.930 1_556 S
C1884 C1885 1.367 . S
C1884 C1892 1.378 . S
C1885 C1884 1.367 . S
C1885 C1893 1.433 . S
C1886 H1882 0.929 . S
C1886 C1888 1.378 . S
C1886 C1890 1.350 . S
C1887 C1890 1.463 . S
C1887 C1892 1.350 . S
C1887 N1895 1.427 . S
C1888 H1879 0.930 . S
C1888 C1886 1.378 . S
C1888 C1889 1.367 . S
C1889 C1888 1.367 . S
C1889 C1891 1.433 . S
C1890 C1886 1.350 . S
C1890 C1887 1.463 . S
C1890 N1894 1.427 . S
C1891 H1881 0.929 . S
C1891 C1889 1.433 . S
C1891 N1894 1.384 . S
C1892 H1883 0.929 . S
C1892 C1884 1.378 . S
C1892 C1887 1.350 . S
C1893 H1880 0.929 . S
C1893 C1885 1.433 . S
C1893 N1895 1.384 . S
N1894 C1890 1.427 . S
N1894 C1891 1.384 . S
N1895 C1887 1.427 . S
N1895 C1893 1.384 . S
H1896 C1902 0.930 . S
H1897 C1906 0.930 . S
H1898 C1911 0.929 . S
H1899 C1909 0.929 . S
H1900 C1904 0.929 . S
H1901 C1910 0.929 . S
C1902 H1896 0.930 . S
C1902 C1903 1.367 . S
C1902 C1910 1.378 . S
C1903 C1902 1.367 . S
C1903 C1911 1.433 . S
C1904 H1900 0.929 . S
C1904 C1906 1.378 . S
C1904 C1908 1.350 . S
C1905 C1908 1.463 . S
C1905 C1910 1.350 . S
C1905 N1913 1.427 . S
C1906 H1897 0.930 . S
C1906 C1904 1.378 . S
C1906 C1907 1.367 . S
C1907 C1906 1.367 . S
C1907 C1909 1.433 . S
C1908 C1904 1.350 . S
C1908 C1905 1.463 . S
C1908 N1912 1.427 . S
C1909 H1899 0.929 . S
C1909 C1907 1.433 . S
C1909 N1912 1.384 . S
C1910 H1901 0.929 . S
C1910 C1902 1.378 . S
C1910 C1905 1.350 . S
C1911 H1898 0.929 . S
C1911 C1903 1.433 . S
C1911 N1913 1.384 . S
N1912 C1908 1.427 . S
N1912 C1909 1.384 . S
N1913 C1905 1.427 . S
N1913 C1911 1.384 . S
H1914 C1920 0.930 1_556 S
H1915 C1924 0.930 . S
H1916 C1929 0.929 . S
H1917 C1927 0.929 . S
H1918 C1922 0.929 . S
H1919 C1928 0.929 . S
C1920 H1914 0.930 1_554 S
C1920 C1921 1.367 . S
C1920 C1928 1.378 . S
C1921 C1920 1.367 . S
C1921 C1929 1.433 . S
C1922 H1918 0.929 . S
C1922 C1924 1.378 . S
C1922 C1926 1.350 . S
C1923 C1926 1.463 . S
C1923 C1928 1.350 . S
C1923 N1931 1.427 . S
C1924 H1915 0.930 . S
C1924 C1922 1.378 . S
C1924 C1925 1.367 . S
C1925 C1924 1.367 . S
C1925 C1927 1.433 . S
C1926 C1922 1.350 . S
C1926 C1923 1.463 . S
C1926 N1930 1.427 . S
C1927 H1917 0.929 . S
C1927 C1925 1.433 . S
C1927 N1930 1.384 . S
C1928 H1919 0.929 . S
C1928 C1920 1.378 . S
C1928 C1923 1.350 . S
C1929 H1916 0.929 . S
C1929 C1921 1.433 . S
C1929 N1931 1.384 . S
N1930 C1926 1.427 . S
N1930 C1927 1.384 . S
N1931 C1923 1.427 . S
N1931 C1929 1.384 . S
H1932 C1938 0.930 . S
H1933 C1942 0.930 . S
H1934 C1947 0.929 . S
H1935 C1945 0.929 . S
H1936 C1940 0.929 . S
H1937 C1946 0.929 . S
C1938 H1932 0.930 . S
C1938 C1939 1.367 . S
C1938 C1946 1.378 . S
C1939 C1938 1.367 . S
C1939 C1947 1.433 . S
C1940 H1936 0.929 . S
C1940 C1942 1.378 . S
C1940 C1944 1.350 . S
C1941 C1944 1.463 . S
C1941 C1946 1.350 . S
C1941 N1949 1.427 . S
C1942 H1933 0.930 . S
C1942 C1940 1.378 . S
C1942 C1943 1.367 . S
C1943 C1942 1.367 . S
C1943 C1945 1.433 . S
C1944 C1940 1.350 . S
C1944 C1941 1.463 . S
C1944 N1948 1.427 . S
C1945 H1935 0.929 . S
C1945 C1943 1.433 . S
C1945 N1948 1.384 . S
C1946 H1937 0.929 . S
C1946 C1938 1.378 . S
C1946 C1941 1.350 . S
C1947 H1934 0.929 . S
C1947 C1939 1.433 . S
C1947 N1949 1.384 . S
N1948 C1944 1.427 . S
N1948 C1945 1.384 . S
N1949 C1941 1.427 . S
N1949 C1947 1.384 . S
H1950 C1956 0.930 . S
H1951 C1960 0.930 . S
H1952 C1965 0.929 . S
H1953 C1963 0.929 . S
H1954 C1958 0.929 . S
H1955 C1964 0.944 . S
C1956 H1950 0.930 . S
C1956 C1957 1.367 . S
C1956 C1964 1.378 1_556 S
C1957 C1956 1.367 . S
C1957 C1965 1.433 1_556 S
C1958 H1954 0.929 . S
C1958 C1960 1.378 . S
C1958 C1962 1.350 . S
C1959 C1962 1.463 . S
C1959 C1964 1.350 . S
C1959 N1967 1.427 . S
C1960 H1951 0.930 . S
C1960 C1958 1.378 . S
C1960 C1961 1.367 . S
C1961 C1960 1.367 . S
C1961 C1963 1.433 . S
C1962 C1958 1.350 . S
C1962 C1959 1.463 . S
C1962 N1966 1.427 . S
C1963 H1953 0.929 . S
C1963 C1961 1.433 . S
C1963 N1966 1.384 . S
C1964 H1955 0.944 . S
C1964 C1956 1.378 1_554 S
C1964 C1959 1.350 . S
C1965 H1952 0.929 . S
C1965 C1957 1.433 1_554 S
C1965 N1967 1.384 . S
N1966 C1962 1.427 . S
N1966 C1963 1.384 . S
N1967 C1959 1.427 . S
N1967 C1965 1.384 . S
H1968 C1974 0.930 . S
H1969 C1978 0.930 . S
H1970 C1983 0.929 . S
H1971 C1981 0.929 . S
H1972 C1976 0.929 . S
H1973 C1982 0.929 . S
C1974 H1968 0.930 . S
C1974 C1975 1.367 . S
C1974 C1982 1.378 . S
C1975 C1974 1.367 . S
C1975 C1983 1.433 . S
C1976 H1972 0.929 . S
C1976 C1978 1.378 . S
C1976 C1980 1.350 . S
C1977 C1980 1.463 . S
C1977 C1982 1.350 . S
C1977 N1985 1.427 . S
C1978 H1969 0.930 . S
C1978 C1976 1.378 . S
C1978 C1979 1.367 . S
C1979 C1978 1.367 . S
C1979 C1981 1.433 . S
C1980 C1976 1.350 . S
C1980 C1977 1.463 . S
C1980 N1984 1.427 . S
C1981 H1971 0.929 . S
C1981 C1979 1.433 . S
C1981 N1984 1.384 . S
C1982 H1973 0.929 . S
C1982 C1974 1.378 . S
C1982 C1977 1.350 . S
C1983 H1970 0.929 . S
C1983 C1975 1.433 . S
C1983 N1985 1.384 . S
N1984 C1980 1.427 . S
N1984 C1981 1.384 . S
N1985 C1977 1.427 . S
N1985 C1983 1.384 . S
H1986 C1992 0.930 . S
H1987 C1996 0.930 . S
H1988 C2001 0.929 . S
H1989 C1999 0.929 . S
H1990 C1994 0.929 . S
H1991 C2000 0.929 . S
C1992 H1986 0.930 . S
C1992 C1993 1.367 . S
C1992 C2000 1.378 . S
C1993 C1992 1.367 . S
C1993 C2001 1.433 . S
C1994 H1990 0.929 . S
C1994 C1996 1.378 . S
C1994 C1998 1.350 . S
C1995 C1998 1.463 . S
C1995 C2000 1.350 . S
C1995 N2003 1.427 . S
C1996 H1987 0.930 . S
C1996 C1994 1.378 . S
C1996 C1997 1.367 . S
C1997 C1996 1.367 . S
C1997 C1999 1.433 . S
C1998 C1994 1.350 . S
C1998 C1995 1.463 . S
C1998 N2002 1.427 . S
C1999 H1989 0.929 . S
C1999 C1997 1.433 . S
C1999 N2002 1.384 . S
C2000 H1991 0.929 . S
C2000 C1992 1.378 . S
C2000 C1995 1.350 . S
C2001 H1988 0.929 . S
C2001 C1993 1.433 . S
C2001 N2003 1.384 . S
N2002 C1998 1.427 . S
N2002 C1999 1.384 . S
N2003 C1995 1.427 . S
N2003 C2001 1.384 . S
H2004 C2010 0.930 . S
H2005 C2014 0.930 . S
H2006 C2019 0.929 . S
H2007 C2017 0.929 . S
H2008 C2012 0.929 . S
H2009 C2018 0.929 . S
C2010 H2004 0.930 . S
C2010 C2011 1.367 . S
C2010 C2018 1.378 . S
C2011 C2010 1.367 . S
C2011 C2019 1.433 . S
C2012 H2008 0.929 . S
C2012 C2014 1.378 . S
C2012 C2016 1.350 . S
C2013 C2016 1.463 . S
C2013 C2018 1.350 . S
C2013 N2021 1.427 . S
C2014 H2005 0.930 . S
C2014 C2012 1.378 . S
C2014 C2015 1.367 . S
C2015 C2014 1.367 . S
C2015 C2017 1.433 . S
C2016 C2012 1.350 . S
C2016 C2013 1.463 . S
C2016 N2020 1.427 . S
C2017 H2007 0.929 . S
C2017 C2015 1.433 . S
C2017 N2020 1.384 . S
C2018 H2009 0.929 . S
C2018 C2010 1.378 . S
C2018 C2013 1.350 . S
C2019 H2006 0.929 . S
C2019 C2011 1.433 . S
C2019 N2021 1.384 . S
N2020 C2016 1.427 . S
N2020 C2017 1.384 . S
N2021 C2013 1.427 . S
N2021 C2019 1.384 . S
H2022 C2028 0.930 . S
H2023 C2032 0.930 . S
H2024 C2037 0.929 . S
H2025 C2035 0.929 . S
H2026 C2030 0.929 . S
H2027 C2036 0.929 . S
C2028 H2022 0.930 . S
C2028 C2029 1.367 . S
C2028 C2036 1.378 . S
C2029 C2028 1.367 . S
C2029 C2037 1.433 . S
C2030 H2026 0.929 . S
C2030 C2032 1.378 . S
C2030 C2034 1.350 . S
C2031 C2034 1.463 . S
C2031 C2036 1.350 . S
C2031 N2039 1.427 . S
C2032 H2023 0.930 . S
C2032 C2030 1.378 . S
C2032 C2033 1.367 . S
C2033 C2032 1.367 . S
C2033 C2035 1.433 . S
C2034 C2030 1.350 . S
C2034 C2031 1.463 . S
C2034 N2038 1.427 . S
C2035 H2025 0.929 . S
C2035 C2033 1.433 . S
C2035 N2038 1.384 . S
C2036 H2027 0.929 . S
C2036 C2028 1.378 . S
C2036 C2031 1.350 . S
C2037 H2024 0.929 . S
C2037 C2029 1.433 . S
C2037 N2039 1.384 . S
N2038 C2034 1.427 . S
N2038 C2035 1.384 . S
N2039 C2031 1.427 . S
N2039 C2037 1.384 . S
H2040 C2046 0.930 1_554 S
H2041 C2050 0.930 . S
H2042 C2055 0.929 . S
H2043 C2053 0.929 . S
H2044 C2048 0.929 . S
H2045 C2054 0.929 1_554 S
C2046 H2040 0.930 1_556 S
C2046 C2047 1.367 . S
C2046 C2054 1.378 . S
C2047 C2046 1.367 . S
C2047 C2055 1.433 . S
C2048 H2044 0.929 . S
C2048 C2050 1.378 . S
C2048 C2052 1.350 . S
C2049 C2052 1.463 . S
C2049 C2054 1.350 . S
C2049 N2057 1.427 . S
C2050 H2041 0.930 . S
C2050 C2048 1.378 . S
C2050 C2051 1.367 . S
C2051 C2050 1.367 . S
C2051 C2053 1.433 1_556 S
C2052 C2048 1.350 . S
C2052 C2049 1.463 . S
C2052 N2056 1.468 . S
C2053 H2043 0.929 . S
C2053 C2051 1.433 1_554 S
C2053 N2056 1.384 1_554 S
C2054 H2045 0.929 1_556 S
C2054 C2046 1.378 . S
C2054 C2049 1.350 . S
C2055 H2042 0.929 . S
C2055 C2047 1.433 . S
C2055 N2057 1.384 . S
N2056 C2052 1.468 . S
N2056 C2053 1.384 1_556 S
N2057 C2049 1.427 . S
N2057 C2055 1.384 . S
H2058 C2064 0.930 . S
H2059 C2068 0.930 . S
H2060 C2073 0.929 . S
H2061 C2071 0.929 . S
H2062 C2066 0.929 . S
H2063 C2072 0.929 . S
C2064 H2058 0.930 . S
C2064 C2065 1.367 . S
C2064 C2072 1.378 . S
C2065 C2064 1.367 . S
C2065 C2073 1.433 . S
C2066 H2062 0.929 . S
C2066 C2068 1.378 . S
C2066 C2070 1.350 . S
C2067 C2070 1.463 . S
C2067 C2072 1.350 . S
C2067 N2075 1.427 . S
C2068 H2059 0.930 . S
C2068 C2066 1.378 . S
C2068 C2069 1.367 . S
C2069 C2068 1.367 . S
C2069 C2071 1.433 . S
C2070 C2066 1.350 . S
C2070 C2067 1.463 . S
C2070 N2074 1.427 . S
C2071 H2061 0.929 . S
C2071 C2069 1.433 . S
C2071 N2074 1.384 . S
C2072 H2063 0.929 . S
C2072 C2064 1.378 . S
C2072 C2067 1.350 . S
C2073 H2060 0.929 . S
C2073 C2065 1.433 . S
C2073 N2075 1.384 . S
N2074 C2070 1.427 . S
N2074 C2071 1.384 . S
N2075 C2067 1.427 . S
N2075 C2073 1.384 . S
H2076 C2082 0.930 . S
H2077 C2086 0.930 . S
H2078 C2091 0.945 . S
H2079 C2089 0.929 . S
H2080 C2084 0.929 1_556 S
H2081 C2090 0.929 . S
C2082 H2076 0.930 . S
C2082 C2083 1.367 . S
C2082 C2090 1.378 . S
C2083 C2082 1.367 . S
C2083 C2091 1.433 . S
C2084 H2080 0.929 1_554 S
C2084 C2086 1.378 1_554 S
C2084 C2088 1.350 . S
C2085 C2088 1.463 . S
C2085 C2090 1.350 . S
C2085 N2093 1.427 . S
C2086 H2077 0.930 . S
C2086 C2084 1.378 1_556 S
C2086 C2087 1.367 1_556 S
C2087 C2086 1.367 1_554 S
C2087 C2089 1.433 . S
C2088 C2084 1.350 . S
C2088 C2085 1.463 . S
C2088 N2092 1.427 . S
C2089 H2079 0.929 . S
C2089 C2087 1.433 . S
C2089 N2092 1.384 . S
C2090 H2081 0.929 . S
C2090 C2082 1.378 . S
C2090 C2085 1.350 . S
C2091 H2078 0.945 . S
C2091 C2083 1.433 . S
C2091 N2093 1.384 . S
N2092 C2088 1.427 . S
N2092 C2089 1.384 . S
N2093 C2085 1.427 . S
N2093 C2091 1.384 . S
H2094 C2100 0.972 . S
H2095 C2104 0.930 . S
H2096 C2109 0.929 . S
H2097 C2107 0.929 1_556 S
H2098 C2102 0.929 . S
H2099 C2108 0.929 1_556 S
C2100 H2094 0.972 . S
C2100 C2101 1.367 . S
C2100 C2108 1.378 1_545 S
C2101 C2100 1.367 . S
C2101 C2109 1.433 . S
C2102 H2098 0.929 . S
C2102 C2104 1.378 . S
C2102 C2106 1.350 . S
C2103 C2106 1.463 . S
C2103 C2108 1.350 . S
C2103 N2111 1.427 . S
C2104 H2095 0.930 . S
C2104 C2102 1.378 . S
C2104 C2105 1.367 . S
C2105 C2104 1.367 . S
C2105 C2107 1.433 . S
C2106 C2102 1.350 . S
C2106 C2103 1.463 . S
C2106 N2110 1.427 . S
C2107 H2097 0.929 1_554 S
C2107 C2105 1.433 . S
C2107 N2110 1.384 . S
C2108 H2099 0.929 1_554 S
C2108 C2100 1.378 1_565 S
C2108 C2103 1.350 . S
C2109 H2096 0.929 . S
C2109 C2101 1.433 . S
C2109 N2111 1.384 1_545 S
N2110 C2106 1.427 . S
N2110 C2107 1.384 . S
N2111 C2103 1.427 . S
N2111 C2109 1.384 1_565 S
C1259 C241 1.778 . S
C1255 C66 1.776 . S
C1277 C300 1.101 . S
C1273 C76 1.097 . S
C1291 C93 1.894 . S
C1295 C417 1.886 . S
C1313 C485 1.506 . S
C1309 C54 1.518 . S
C1331 C564 1.518 . S
C1327 C126 1.527 . S
C1349 C689 1.872 . S
C1345 C150 1.883 . S
C1363 C136 1.107 . S
C1367 C749 1.116 . S
C1385 C857 1.816 . S
C1381 C117 1.819 . S
C1399 C141 1.287 . S
C1403 C953 1.291 . S
C1421 C1013 1.316 . S
C1417 C112 1.312 . S
C1435 C124 1.561 . S
C1439 C916 1.562 . S
C1457 C1033 1.260 . S
C1453 C148 1.252 . S
C1471 C88 1.264 . S
C1475 C1101 1.269 . S
C1489 C52 1.630 . S
C1493 C1092 1.631 . S
C1507 C64 1.221 . S
C1511 C1121 1.226 . S
C1525 C78 1.180 . S
C1529 C1129 1.188 . S
C1543 C45 1.760 . S
C1547 C513 1.768 . S
C1561 C177 1.938 . S
C1565 C476 1.935 . S
C1583 C212 1.386 . S
C1579 C189 1.380 . S
C1601 C309 1.631 . S
C1597 C102 1.629 . S
C1615 C57 1.775 1_545 S
C1619 C573 1.788 . S
C1637 C865 1.451 . S
C1633 C138 1.453 . S
C1655 C593 1.855 . S
C1651 C114 1.864 1_545 S
C1673 C777 1.751 . S
C1669 C153 1.752 . S
C1691 C769 1.781 . S
C1687 C174 1.778 . S
C1705 C184 1.100 . S
C1709 C837 1.104 . S
C1723 C105 1.896 . S
C1727 C601 1.888 . S
C1745 C652 1.503 . S
C1741 C162 1.517 . S
C1759 C42 1.532 . S
C1763 C397 1.524 . S
C1781 C505 1.872 . S
C1777 C6 1.881 . S
C1799 C221 1.120 . S
C1795 C16 1.117 . S
C1817 C337 1.821 . S
C1813 C33 1.824 1_455 S
C1831 C21 1.281 . S
C1835 C1041 1.287 . S
C1849 C28 1.312 1_556 S
C1853 C925 1.316 . S
C1867 C40 1.559 . S
C1871 C1004 1.563 . S
C1885 C4 1.214 1_556 S
C1889 C945 1.260 . S
C1907 C1189 1.267 . S
C1903 C100 1.267 . S
C1925 C1180 1.631 . S
C1921 C160 1.610 1_554 S
C1943 C1209 1.227 . S
C1939 C172 1.225 . S
C1957 C186 1.183 . S
C1961 C1217 1.189 . S
C1975 C129 1.760 . S
C1979 C681 1.768 . S
C1997 C661 1.938 . S
C1993 C69 1.940 . S
C2015 C740 1.380 . S
C2011 C81 1.377 . S
C2033 C828 1.631 . S
C2029 C90 1.631 . S
C2047 C165 1.780 . S
C2051 C388 1.789 . S
C2069 C329 1.451 . S
C2065 C18 1.453 . S
C2083 C30 1.864 . S
C2087 C425 1.857 . S
C2105 C249 1.751 . S
C2101 C9 1.752 . S
