# Generated by pormake.
# Topology ctn, (3,4)-cn, num edge types: 1
# Building blocks:
#     Node 0, Type 0, BuildingBlock: PAMTOO_clean_linker_0, # of connection points: 3
#     Node 1, Type 0, BuildingBlock: PAMTOO_clean_linker_0, # of connection points: 3
#     Node 2, Type 0, BuildingBlock: PAMTOO_clean_linker_0, # of connection points: 3
#     Node 3, Type 0, BuildingBlock: PAMTOO_clean_linker_0, # of connection points: 3
#     Node 4, Type 0, BuildingBlock: PAMTOO_clean_linker_0, # of connection points: 3
#     Node 5, Type 0, BuildingBlock: PAMTOO_clean_linker_0, # of connection points: 3
#     Node 6, Type 0, BuildingBlock: PAMTOO_clean_linker_0, # of connection points: 3
#     Node 7, Type 0, BuildingBlock: PAMTOO_clean_linker_0, # of connection points: 3
#     Node 8, Type 0, BuildingBlock: PAMTOO_clean_linker_0, # of connection points: 3
#     Node 9, Type 0, BuildingBlock: PAMTOO_clean_linker_0, # of connection points: 3
#     Node 10, Type 0, BuildingBlock: PAMTOO_clean_linker_0, # of connection points: 3
#     Node 11, Type 0, BuildingBlock: PAMTOO_clean_linker_0, # of connection points: 3
#     Node 12, Type 0, BuildingBlock: PAMTOO_clean_linker_0, # of connection points: 3
#     Node 13, Type 0, BuildingBlock: PAMTOO_clean_linker_0, # of connection points: 3
#     Node 14, Type 0, BuildingBlock: PAMTOO_clean_linker_0, # of connection points: 3
#     Node 15, Type 0, BuildingBlock: PAMTOO_clean_linker_0, # of connection points: 3
#     Node 16, Type 1, BuildingBlock: UXUYUI_clean_sbu_0, # of connection points: 4
#     Node 17, Type 1, BuildingBlock: UXUYUI_clean_sbu_0, # of connection points: 4
#     Node 18, Type 1, BuildingBlock: UXUYUI_clean_sbu_0, # of connection points: 4
#     Node 19, Type 1, BuildingBlock: UXUYUI_clean_sbu_0, # of connection points: 4
#     Node 20, Type 1, BuildingBlock: UXUYUI_clean_sbu_0, # of connection points: 4
#     Node 21, Type 1, BuildingBlock: UXUYUI_clean_sbu_0, # of connection points: 4
#     Node 22, Type 1, BuildingBlock: UXUYUI_clean_sbu_0, # of connection points: 4
#     Node 23, Type 1, BuildingBlock: UXUYUI_clean_sbu_0, # of connection points: 4
#     Node 24, Type 1, BuildingBlock: UXUYUI_clean_sbu_0, # of connection points: 4
#     Node 25, Type 1, BuildingBlock: UXUYUI_clean_sbu_0, # of connection points: 4
#     Node 26, Type 1, BuildingBlock: UXUYUI_clean_sbu_0, # of connection points: 4
#     Node 27, Type 1, BuildingBlock: UXUYUI_clean_sbu_0, # of connection points: 4
#     Edge 28, Type (0, 1), BuildingBlock: AJUNOK_clean_linker_0, # of connection points: 2
#     Edge 29, Type (0, 1), BuildingBlock: AJUNOK_clean_linker_0, # of connection points: 2
#     Edge 30, Type (0, 1), BuildingBlock: AJUNOK_clean_linker_0, # of connection points: 2
#     Edge 31, Type (0, 1), BuildingBlock: AJUNOK_clean_linker_0, # of connection points: 2
#     Edge 32, Type (0, 1), BuildingBlock: AJUNOK_clean_linker_0, # of connection points: 2
#     Edge 33, Type (0, 1), BuildingBlock: AJUNOK_clean_linker_0, # of connection points: 2
#     Edge 34, Type (0, 1), BuildingBlock: AJUNOK_clean_linker_0, # of connection points: 2
#     Edge 35, Type (0, 1), BuildingBlock: AJUNOK_clean_linker_0, # of connection points: 2
#     Edge 36, Type (0, 1), BuildingBlock: AJUNOK_clean_linker_0, # of connection points: 2
#     Edge 37, Type (0, 1), BuildingBlock: AJUNOK_clean_linker_0, # of connection points: 2
#     Edge 38, Type (0, 1), BuildingBlock: AJUNOK_clean_linker_0, # of connection points: 2
#     Edge 39, Type (0, 1), BuildingBlock: AJUNOK_clean_linker_0, # of connection points: 2
#     Edge 40, Type (0, 1), BuildingBlock: AJUNOK_clean_linker_0, # of connection points: 2
#     Edge 41, Type (0, 1), BuildingBlock: AJUNOK_clean_linker_0, # of connection points: 2
#     Edge 42, Type (0, 1), BuildingBlock: AJUNOK_clean_linker_0, # of connection points: 2
#     Edge 43, Type (0, 1), BuildingBlock: AJUNOK_clean_linker_0, # of connection points: 2
#     Edge 44, Type (0, 1), BuildingBlock: AJUNOK_clean_linker_0, # of connection points: 2
#     Edge 45, Type (0, 1), BuildingBlock: AJUNOK_clean_linker_0, # of connection points: 2
#     Edge 46, Type (0, 1), BuildingBlock: AJUNOK_clean_linker_0, # of connection points: 2
#     Edge 47, Type (0, 1), BuildingBlock: AJUNOK_clean_linker_0, # of connection points: 2
#     Edge 48, Type (0, 1), BuildingBlock: AJUNOK_clean_linker_0, # of connection points: 2
#     Edge 49, Type (0, 1), BuildingBlock: AJUNOK_clean_linker_0, # of connection points: 2
#     Edge 50, Type (0, 1), BuildingBlock: AJUNOK_clean_linker_0, # of connection points: 2
#     Edge 51, Type (0, 1), BuildingBlock: AJUNOK_clean_linker_0, # of connection points: 2
#     Edge 52, Type (0, 1), BuildingBlock: AJUNOK_clean_linker_0, # of connection points: 2
#     Edge 53, Type (0, 1), BuildingBlock: AJUNOK_clean_linker_0, # of connection points: 2
#     Edge 54, Type (0, 1), BuildingBlock: AJUNOK_clean_linker_0, # of connection points: 2
#     Edge 55, Type (0, 1), BuildingBlock: AJUNOK_clean_linker_0, # of connection points: 2
#     Edge 56, Type (0, 1), BuildingBlock: AJUNOK_clean_linker_0, # of connection points: 2
#     Edge 57, Type (0, 1), BuildingBlock: AJUNOK_clean_linker_0, # of connection points: 2
#     Edge 58, Type (0, 1), BuildingBlock: AJUNOK_clean_linker_0, # of connection points: 2
#     Edge 59, Type (0, 1), BuildingBlock: AJUNOK_clean_linker_0, # of connection points: 2
#     Edge 60, Type (0, 1), BuildingBlock: AJUNOK_clean_linker_0, # of connection points: 2
#     Edge 61, Type (0, 1), BuildingBlock: AJUNOK_clean_linker_0, # of connection points: 2
#     Edge 62, Type (0, 1), BuildingBlock: AJUNOK_clean_linker_0, # of connection points: 2
#     Edge 63, Type (0, 1), BuildingBlock: AJUNOK_clean_linker_0, # of connection points: 2
#     Edge 64, Type (0, 1), BuildingBlock: AJUNOK_clean_linker_0, # of connection points: 2
#     Edge 65, Type (0, 1), BuildingBlock: AJUNOK_clean_linker_0, # of connection points: 2
#     Edge 66, Type (0, 1), BuildingBlock: AJUNOK_clean_linker_0, # of connection points: 2
#     Edge 67, Type (0, 1), BuildingBlock: AJUNOK_clean_linker_0, # of connection points: 2
#     Edge 68, Type (0, 1), BuildingBlock: AJUNOK_clean_linker_0, # of connection points: 2
#     Edge 69, Type (0, 1), BuildingBlock: AJUNOK_clean_linker_0, # of connection points: 2
#     Edge 70, Type (0, 1), BuildingBlock: AJUNOK_clean_linker_0, # of connection points: 2
#     Edge 71, Type (0, 1), BuildingBlock: AJUNOK_clean_linker_0, # of connection points: 2
#     Edge 72, Type (0, 1), BuildingBlock: AJUNOK_clean_linker_0, # of connection points: 2
#     Edge 73, Type (0, 1), BuildingBlock: AJUNOK_clean_linker_0, # of connection points: 2
#     Edge 74, Type (0, 1), BuildingBlock: AJUNOK_clean_linker_0, # of connection points: 2
#     Edge 75, Type (0, 1), BuildingBlock: AJUNOK_clean_linker_0, # of connection points: 2
# Relax obj value: 0.066
# Max RMSD: 0.181
# Mean RMSD: 0.115
data_MOF--net-ctn--node1-UXUYUI_clean_sbu_0--node2-PAMTOO_clean_linker_0--edge1-AJUNOK_clean_linker_0
_symmetry_space_group_name_H-M    P1
_symmetry_Int_Tables_number       1
_symmetry_cell_setting            triclinic
loop_
_symmetry_equiv_pos_as_xyz
'x, y, z'
_cell_length_a     51.579861
_cell_length_b     51.925516
_cell_length_c     52.896957
_cell_angle_alpha  85.338489
_cell_angle_beta   92.291533
_cell_angle_gamma 96.985112
loop_
_atom_site_label
_atom_site_type_symbol
_atom_site_fract_x
_atom_site_fract_y
_atom_site_fract_z
_atom_type_partial_charge
H0 H 0.01788 0.09799 0.07915 0.0
H1 H 0.05595 0.03018 0.10297 0.0
H2 H 0.07773 0.07523 0.03405 0.0
H3 H 0.06892 0.01813 0.03198 0.0
C4 C 0.0785 0.01236 0.05047 0.0
O5 O 0.0857 0.03408 0.06371 0.0
H6 H 0.06413 0.99857 0.06145 0.0
C7 C 0.03211 0.08488 0.07616 0.0
C8 C 0.04791 0.0897 0.05484 0.0
C9 C 0.0345 0.06329 0.09362 0.0
C10 C 0.05318 0.04655 0.08952 0.0
C11 C 0.06848 0.05079 0.06796 0.0
C12 C 0.0659 0.07232 0.05075 0.0
H13 H 0.32857 0.69093 0.29088 0.0
H14 H 0.2857 0.71161 0.22201 0.0
H15 H 0.3485 0.765 0.24917 0.0
H16 H 0.30175 0.78945 0.22931 0.0
C17 C 0.29445 0.77536 0.21513 0.0
O18 O 0.31201 0.75751 0.21392 0.0
H19 H 0.27519 0.76534 0.22138 0.0
C20 C 0.32545 0.70443 0.27463 0.0
C21 C 0.34109 0.7286 0.27218 0.0
C22 C 0.30529 0.69805 0.25667 0.0
C23 C 0.30101 0.71615 0.23615 0.0
C24 C 0.31641 0.74026 0.23367 0.0
C25 C 0.33645 0.74641 0.25154 0.0
H26 H 0.98275 0.52427 0.11535 0.0
H27 H 0.95623 0.49015 0.04595 0.0
H28 H 0.02133 0.46296 0.08844 0.0
H29 H 0.02467 0.47435 0.0311 0.0
C30 C 1.00516 0.46398 0.02626 0.0
O31 O 0.9911 0.45736 0.04797 0.0
H32 H 0.99476 0.47758 0.01335 0.0
C33 C 0.98481 0.51069 0.10125 0.0
C34 C 1.00438 0.49388 0.10458 0.0
C35 C 0.96721 0.50942 0.08024 0.0
C36 C 0.96943 0.49124 0.06239 0.0
C37 C 0.98901 0.47468 0.06534 0.0
C38 C 1.00629 0.47592 0.0864 0.0
H39 H 0.7204 0.84311 0.28575 0.0
H40 H 0.69656 0.77241 0.24914 0.0
H41 H 0.7668 0.8205 0.22733 0.0
H42 H 0.73841 0.80025 0.18643 0.0
C43 C 0.72948 0.7809 0.19451 0.0
O44 O 0.73676 0.77736 0.21984 0.0
H45 H 0.70784 0.7803 0.1928 0.0
C46 C 0.72344 0.82967 0.27181 0.0
C47 C 0.74529 0.83496 0.25638 0.0
C48 C 0.70579 0.80699 0.26972 0.0
C49 C 0.71024 0.78961 0.25173 0.0
C50 C 0.73235 0.79439 0.23674 0.0
C51 C 0.74995 0.81685 0.23928 0.0
H52 H 0.1082 0.96604 0.54053 0.0
H53 H 0.03815 0.94737 0.49539 0.0
H54 H 0.08972 0.01646 0.47516 0.0
H55 H 0.03555 0.02362 0.46954 0.0
C56 C 0.02679 1.0038 0.46505 0.0
O57 O 0.04628 0.98815 0.46306 0.0
H58 H 0.01384 0.9956 0.48081 0.0
C59 C 0.0952 0.97093 0.52473 0.0
C60 C 0.10171 0.99359 0.50872 0.0
C61 C 0.07224 0.95421 0.5202 0.0
C62 C 0.05599 0.95999 0.49911 0.0
C63 C 0.06235 0.98241 0.48298 0.0
C64 C 0.0852 0.99904 0.48767 0.0
H65 H 0.19557 0.77833 0.82583 0.0
H66 H 0.21889 0.71672 0.78512 0.0
H67 H 0.26289 0.74064 0.85144 0.0
H68 H 0.29624 0.72836 0.81193 0.0
C69 C 0.2818 0.71553 0.80105 0.0
O70 O 0.25941 0.70918 0.81479 0.0
H71 H 0.27713 0.72655 0.78284 0.0
C72 C 0.20889 0.76414 0.82345 0.0
C73 C 0.22966 0.76148 0.84113 0.0
C74 C 0.20467 0.74793 0.80327 0.0
C75 C 0.22171 0.72923 0.80068 0.0
C76 C 0.24277 0.72682 0.81787 0.0
C77 C 0.24656 0.7427 0.8382 0.0
H78 H 0.95583 0.56593 0.53926 0.0
H79 H 0.98118 0.52857 0.47622 0.0
H80 H 0.02981 0.59277 0.50531 0.0
H81 H 0.02845 0.59248 0.44971 0.0
C82 C 0.02407 0.57123 0.44776 0.0
O83 O 0.02528 0.55831 0.47155 0.0
H84 H 1.00401 0.56752 0.43924 0.0
C85 C 0.97025 0.56425 0.52533 0.0
C86 C 0.99296 0.58228 0.52405 0.0
C87 C 0.96582 0.54435 0.50851 0.0
C88 C 0.98451 0.54284 0.49019 0.0
C89 C 1.00747 0.56019 0.48919 0.0
C90 C 1.0118 0.57965 0.50621 0.0
H91 H 0.77318 0.81593 0.86759 0.0
H92 H 0.83069 0.77263 0.83933 0.0
H93 H 0.8042 0.8363 0.79317 0.0
H94 H 0.81595 0.79513 0.76329 0.0
C95 C 0.8294 0.7854 0.77685 0.0
O96 O 0.83637 0.80094 0.79655 0.0
H97 H 0.81869 0.76655 0.7842 0.0
C98 C 0.78569 0.81233 0.85261 0.0
C99 C 0.78655 0.8287 0.82997 0.0
C100 C 0.80144 0.79187 0.85627 0.0
C101 C 0.81839 0.78821 0.83704 0.0
C102 C 0.81948 0.80436 0.81455 0.0
C103 C 0.8035 0.82437 0.81096 0.0
H104 H 0.27079 0.31285 0.36687 0.0
H105 H 0.33469 0.27695 0.34072 0.0
H106 H 0.3059 0.3401 0.29538 0.0
H107 H 0.31922 0.29848 0.26493 0.0
C108 C 0.33356 0.28996 0.27842 0.0
O109 O 0.33931 0.30591 0.29803 0.0
H110 H 0.32447 0.2704 0.28584 0.0
C111 C 0.28542 0.31207 0.3529 0.0
C112 C 0.28623 0.3293 0.33084 0.0
C113 C 0.303 0.29331 0.3568 0.0
C114 C 0.32102 0.2913 0.33806 0.0
C115 C 0.32178 0.30798 0.31589 0.0
C116 C 0.30465 0.32702 0.31243 0.0
H117 H 0.48705 0.02659 0.61689 0.0
H118 H 0.45808 0.99222 0.54807 0.0
H119 H 0.52102 0.96188 0.59116 0.0
H120 H 0.5255 0.97518 0.53352 0.0
C121 C 0.50598 0.96494 0.52847 0.0
O122 O 0.49157 0.95834 0.54997 0.0
H123 H 0.49586 0.97869 0.51546 0.0
C124 C 0.48771 0.0123 0.60315 0.0
C125 C 0.50558 0.99378 0.6071 0.0
C126 C 0.47061 0.01232 0.58166 0.0
C127 C 0.47155 0.99332 0.56429 0.0
C128 C 0.48997 0.97556 0.56754 0.0
C129 C 0.50684 0.97575 0.58889 0.0
H130 H 0.22154 0.34199 0.78822 0.0
H131 H 0.19326 0.27199 0.75223 0.0
H132 H 0.26535 0.31616 0.72948 0.0
H133 H 0.23352 0.29761 0.68938 0.0
C134 C 0.22554 0.27789 0.69738 0.0
O135 O 0.23314 0.27436 0.72262 0.0
H136 H 0.20383 0.2763 0.69589 0.0
C137 C 0.22357 0.32826 0.77425 0.0
C138 C 0.24562 0.33197 0.75903 0.0
C139 C 0.20435 0.30687 0.77187 0.0
C140 C 0.20781 0.28862 0.75442 0.0
C141 C 0.22992 0.29192 0.73941 0.0
C142 C 0.24873 0.31352 0.74172 0.0
H143 H 0.82064 0.19257 0.79205 0.0
H144 H 0.77626 0.211 0.72364 0.0
H145 H 0.8409 0.26465 0.74693 0.0
H146 H 0.79235 0.2876 0.72926 0.0
C147 C 0.78592 0.27439 0.71408 0.0
O148 O 0.80323 0.25628 0.71302 0.0
H149 H 0.76624 0.26436 0.71902 0.0
C150 C 0.81714 0.20573 0.77562 0.0
C151 C 0.83327 0.2295 0.77182 0.0
C152 C 0.79648 0.19888 0.75839 0.0
C153 C 0.7922 0.2159 0.73704 0.0
C154 C 0.80797 0.2397 0.73322 0.0
C155 C 0.82854 0.24638 0.75043 0.0
H156 H 0.51234 0.59542 0.57922 0.0
H157 H 0.55012 0.5275 0.60215 0.0
H158 H 0.57798 0.57802 0.53835 0.0
H159 H 0.56673 0.51939 0.53329 0.0
C160 C 0.57741 0.51356 0.55114 0.0
O161 O 0.58351 0.53466 0.56546 0.0
H162 H 0.56415 0.49842 0.56192 0.0
C163 C 0.5275 0.58326 0.57664 0.0
C164 C 0.54524 0.59005 0.55698 0.0
C165 C 0.52924 0.56095 0.59323 0.0
C166 C 0.54859 0.54489 0.58965 0.0
C167 C 0.56566 0.55081 0.5695 0.0
C168 C 0.56418 0.57343 0.55344 0.0
H169 H 0.60854 0.46516 0.04004 0.0
H170 H 0.53639 0.44658 0.9978 0.0
H171 H 0.58873 0.51384 0.97389 0.0
H172 H 0.53505 0.52287 0.96972 0.0
C173 C 0.52532 0.50296 0.96684 0.0
O174 O 0.54398 0.48646 0.96446 0.0
H175 H 0.51355 0.49608 0.98377 0.0
C176 C 0.59526 0.46947 0.02428 0.0
C177 C 0.60174 0.49131 1.00723 0.0
C178 C 0.57165 0.45323 0.02116 0.0
C179 C 0.55454 0.45901 1.00072 0.0
C180 C 0.56077 0.4808 0.98378 0.0
C181 C 0.58434 0.49681 0.98694 0.0
H182 H 0.69799 0.27936 0.32692 0.0
H183 H 0.72258 0.21653 0.2889 0.0
H184 H 0.76643 0.24409 0.35379 0.0
H185 H 0.79938 0.23258 0.31176 0.0
C186 C 0.78528 0.21767 0.30299 0.0
O187 O 0.76386 0.21168 0.31815 0.0
H188 H 0.7792 0.22599 0.28392 0.0
C189 C 0.71127 0.26491 0.32552 0.0
C190 C 0.73223 0.26343 0.34324 0.0
C191 C 0.70762 0.24827 0.30564 0.0
C192 C 0.72531 0.23002 0.30363 0.0
C193 C 0.74668 0.22893 0.32067 0.0
C194 C 0.75007 0.24549 0.34045 0.0
H195 H 0.44771 0.07099 0.03642 0.0
H196 H 0.4767 0.03235 0.97613 0.0
H197 H 0.52398 0.09676 1.00691 0.0
H198 H 0.53286 0.09543 0.9519 0.0
C199 C 0.52289 0.07546 0.94981 0.0
O200 O 0.52124 0.06192 0.97336 0.0
H201 H 0.50298 0.0774 0.94145 0.0
C202 C 0.46305 0.06897 0.02354 0.0
C203 C 0.48636 0.0861 0.02399 0.0
C204 C 0.45914 0.04971 1.00609 0.0
C205 C 0.47903 0.04746 0.9893 0.0
C206 C 0.50225 0.06445 0.98956 0.0
C207 C 0.50587 0.08377 1.0068 0.0
Li208 Li 0.28807 0.91714 0.01279 0.0
Li209 Li 0.26617 0.88132 0.04017 0.0
Li210 Li 0.25816 0.88283 0.99288 0.0
Li211 Li 0.23917 0.91229 0.01938 0.0
C212 C 0.31444 0.87515 1.00323 0.0
N213 N 0.36118 0.86696 0.98323 0.0
C214 C 0.33325 0.86368 0.01858 0.0
C215 C 0.31927 0.88208 0.97763 0.0
C216 C 0.35681 0.85982 1.00815 0.0
C217 C 0.34304 0.87787 0.96788 0.0
C218 C 0.27395 0.92048 0.06965 0.0
C219 C 0.2599 0.91405 0.11291 0.0
N220 N 0.2848 0.92132 0.1212 0.0
C221 C 0.29935 0.92816 0.0786 0.0
C222 C 0.254 0.91363 0.08693 0.0
C223 C 0.30446 0.92837 0.10473 0.0
C224 C 0.31794 0.96495 0.99704 0.0
N225 N 0.31912 0.94109 1.00939 0.0
C226 C 0.36454 0.95192 0.01948 0.0
C227 C 0.34177 0.93439 0.02062 0.0
C228 C 0.36398 0.97662 1.0067 0.0
C229 C 0.34029 0.9831 0.99537 0.0
H230 H 0.29954 0.97003 0.98879 0.0
H231 H 0.34205 0.91565 0.03101 0.0
C232 C 0.25142 0.84289 0.08016 0.0
N233 N 0.2715 0.85959 0.07031 0.0
C234 C 0.25497 0.82816 0.10306 0.0
C235 C 0.29994 0.84767 0.10494 0.0
C236 C 0.2955 0.86203 0.08204 0.0
C237 C 0.27949 0.83051 0.11577 0.0
H238 H 0.23255 0.84125 0.07043 0.0
H239 H 0.31111 0.87552 0.07382 0.0
C240 C 0.25666 0.93033 0.96252 0.0
N241 N 0.25223 0.94864 0.91216 0.0
C242 C 0.23232 0.93504 0.95179 0.0
C243 C 0.27884 0.93548 0.94774 0.0
C244 C 0.23045 0.94413 0.92627 0.0
C245 C 0.27618 0.94458 0.92229 0.0
C246 C 0.20627 0.86779 0.02224 0.0
C247 C 0.19125 0.85903 1.00137 0.0
C248 C 0.194 0.87077 0.04473 0.0
C249 C 0.16415 0.85379 1.00322 0.0
C250 C 0.16685 0.86538 0.04582 0.0
N251 N 0.1526 0.85709 0.02521 0.0
C252 C 0.2662 0.84064 0.96486 0.0
C253 C 0.23578 0.86698 0.9449 0.0
C254 C 0.26305 0.82419 0.94506 0.0
N255 N 0.25284 0.86172 0.96438 0.0
C256 C 0.23174 0.85081 0.92485 0.0
C257 C 0.24537 0.82896 0.92481 0.0
H258 H 0.27929 0.83648 0.98073 0.0
H259 H 0.22474 0.8833 0.9452 0.0
C260 C 0.21296 0.94903 0.04149 0.0
N261 N 0.21016 0.93133 0.02369 0.0
C262 C 0.19228 0.96281 0.04632 0.0
C263 C 0.16635 0.94049 0.01391 0.0
C264 C 0.18753 0.92711 1.00973 0.0
C265 C 0.1685 0.95839 0.03263 0.0
H266 H 0.23127 0.95247 0.05202 0.0
H267 H 0.18576 0.91314 0.99552 0.0
O268 O 0.29137 0.87934 0.01322 0.0
O269 O 0.26867 0.91954 0.04415 0.0
O270 O 0.25884 0.92159 0.98756 0.0
O271 O 0.23284 0.87319 0.02069 0.0
H272 H 0.32976 0.8579 0.03837 0.0
H273 H 0.30467 0.89027 0.96534 0.0
H274 H 0.3716 0.85111 0.01985 0.0
H275 H 0.34701 0.88319 0.9481 0.0
H276 H 0.24467 0.9086 0.12648 0.0
H277 H 0.31499 0.93371 0.06556 0.0
H278 H 0.2342 0.90793 0.08036 0.0
H279 H 0.32407 0.93409 0.11191 0.0
H280 H 0.38239 0.94625 0.02856 0.0
H281 H 0.33893 1.00217 0.98585 0.0
H282 H 0.23855 0.81553 0.11101 0.0
H283 H 0.31914 0.84999 0.11412 0.0
H284 H 0.215 0.93148 0.96296 0.0
H285 H 0.29797 0.9328 0.95584 0.0
H286 H 0.21168 0.94761 0.91769 0.0
H287 H 0.29318 0.94855 0.91064 0.0
H288 H 0.20038 0.85632 0.98391 0.0
H289 H 0.20527 0.87736 0.06112 0.0
H290 H 0.15229 0.84711 0.98716 0.0
H291 H 0.1571 0.86781 0.06306 0.0
H292 H 0.27444 0.80796 0.94561 0.0
H293 H 0.21771 0.85509 0.90977 0.0
H294 H 0.19493 0.97691 0.0605 0.0
H295 H 0.14834 0.93658 1.00291 0.0
Li296 Li 0.13828 0.50952 0.30875 0.0
Li297 Li 0.1667 0.47947 0.29268 0.0
Li298 Li 0.17289 0.52767 0.27972 0.0
Li299 Li 0.13538 0.49955 0.26292 0.0
C300 C 0.18148 0.51262 0.33924 0.0
N301 N 0.19054 0.51937 0.39027 0.0
C302 C 0.18578 0.49142 0.35625 0.0
C303 C 0.18211 0.53732 0.34815 0.0
C304 C 0.19027 0.49521 0.38198 0.0
C305 C 0.18661 0.54031 0.37402 0.0
C306 C 0.11919 0.44966 0.29583 0.0
C307 C 0.11576 0.40752 0.27913 0.0
N308 N 0.10301 0.39687 0.3002 0.0
C309 C 0.10608 0.43835 0.31732 0.0
C310 C 0.1241 0.4342 0.27656 0.0
C311 C 0.09803 0.4116 0.31917 0.0
C312 C 0.101 0.53532 0.33002 0.0
N313 N 0.11766 0.51723 0.33604 0.0
C314 C 0.1051 0.51373 0.37944 0.0
C315 C 0.11942 0.50584 0.36007 0.0
C316 C 0.08884 0.53341 0.37388 0.0
C317 C 0.08647 0.54381 0.3487 0.0
H318 H 0.09907 0.54335 0.31066 0.0
H319 H 0.13209 0.49086 0.3643 0.0
C320 C 0.20816 0.4501 0.28812 0.0
N321 N 0.1857 0.45 0.30077 0.0
C322 C 0.22369 0.42989 0.29294 0.0
C323 C 0.19337 0.41022 0.32459 0.0
C324 C 0.17812 0.43061 0.31881 0.0
C325 C 0.21643 0.40974 0.31149 0.0
H326 H 0.21417 0.46606 0.27438 0.0
H327 H 0.16053 0.43119 0.32907 0.0
C328 C 0.13637 0.55984 0.27172 0.0
N329 N 0.13842 0.61284 0.25955 0.0
C330 C 0.13116 0.5694 0.24678 0.0
C331 C 0.14247 0.57728 0.29047 0.0
C332 C 0.13231 0.59625 0.24102 0.0
C333 C 0.14347 0.60398 0.28394 0.0
C334 C 0.17511 0.49419 0.23312 0.0
C335 C 0.17067 0.51425 0.2148 0.0
C336 C 0.18082 0.47039 0.22548 0.0
C337 C 0.17216 0.51025 0.18913 0.0
C338 C 0.1822 0.46718 0.19961 0.0
N339 N 0.17788 0.487 0.18213 0.0
C340 C 0.21825 0.56136 0.2913 0.0
C341 C 0.19775 0.57352 0.25203 0.0
C342 C 0.23673 0.58337 0.28873 0.0
N343 N 0.19895 0.55707 0.27331 0.0
C344 C 0.2157 0.59582 0.24876 0.0
C345 C 0.23539 0.60105 0.26734 0.0
H346 H 0.21914 0.54786 0.30787 0.0
H347 H 0.18265 0.56969 0.23772 0.0
C348 C 0.09124 0.51092 0.2334 0.0
N349 N 0.11053 0.49513 0.23483 0.0
C350 C 0.07343 0.51088 0.2128 0.0
C351 C 0.09447 0.47708 0.19614 0.0
C352 C 0.11194 0.47781 0.21708 0.0
C353 C 0.07525 0.49418 0.19354 0.0
H354 H 0.08988 0.52389 0.24816 0.0
H355 H 0.12681 0.46481 0.21885 0.0
O356 O 0.17692 0.50925 0.31398 0.0
O357 O 0.12767 0.47569 0.29395 0.0
O358 O 0.13548 0.53359 0.27776 0.0
O359 O 0.17358 0.49773 0.25835 0.0
H360 H 0.18553 0.47223 0.34971 0.0
H361 H 0.17923 0.55401 0.33524 0.0
H362 H 0.1935 0.47895 0.39536 0.0
H363 H 0.18702 0.55929 0.38118 0.0
H364 H 0.11953 0.39527 0.26442 0.0
H365 H 0.10229 0.4501 0.33246 0.0
H366 H 0.13462 0.44264 0.26003 0.0
H367 H 0.08789 0.40253 0.33571 0.0
H368 H 0.10712 0.50497 0.3986 0.0
H369 H 0.07348 0.5584 0.3435 0.0
H370 H 0.24151 0.43029 0.28267 0.0
H371 H 0.18721 0.39498 0.33906 0.0
H372 H 0.12676 0.55631 0.2319 0.0
H373 H 0.14634 0.57028 0.30987 0.0
H374 H 0.12849 0.6039 0.22177 0.0
H375 H 0.14823 0.61766 0.29827 0.0
H376 H 0.16554 0.53248 0.22032 0.0
H377 H 0.18378 0.45442 0.23929 0.0
H378 H 0.16861 0.52558 0.17477 0.0
H379 H 0.18656 0.44886 0.19344 0.0
H380 H 0.25149 0.58684 0.3036 0.0
H381 H 0.21417 0.60892 0.23188 0.0
H382 H 0.05838 0.5238 0.21193 0.0
H383 H 0.09636 0.46369 0.18183 0.0
Li384 Li 0.76986 0.62249 0.03851 0.0
Li385 Li 0.788 0.65631 0.06637 0.0
Li386 Li 0.79704 0.66208 0.02003 0.0
Li387 Li 0.81728 0.62982 0.04989 0.0
C388 C 0.74259 0.66624 0.02212 0.0
N389 N 0.70172 0.68103 0.99119 0.0
C390 C 0.72666 0.68373 0.03012 0.0
C391 C 0.73773 0.6562 0.99845 0.0
C392 C 0.70609 0.69099 0.01419 0.0
C393 C 0.71698 0.66394 0.98307 0.0
C394 C 0.78028 0.61362 0.09682 0.0
C395 C 0.78967 0.61781 0.14143 0.0
N396 N 0.76512 0.60638 0.14665 0.0
C397 C 0.75522 0.60173 0.10263 0.0
C398 C 0.79774 0.62154 0.11637 0.0
C399 C 0.7479 0.5983 0.12795 0.0
C400 C 0.74268 0.57459 0.02276 0.0
N401 N 0.74004 0.59766 0.03229 0.0
C402 C 0.69374 0.58634 0.03426 0.0
C403 C 0.71619 0.6036 0.03836 0.0
C404 C 0.69586 0.56273 0.02381 0.0
C405 C 0.72073 0.55682 0.01822 0.0
H406 H 0.76177 0.56975 0.01892 0.0
H407 H 0.7146 0.62172 0.04657 0.0
C408 C 0.79656 0.6957 0.10086 0.0
N409 N 0.77945 0.67546 0.09354 0.0
C410 C 0.78955 0.71163 0.11891 0.0
C411 C 0.74776 0.68512 0.12204 0.0
C412 C 0.75539 0.67001 0.10362 0.0
C413 C 0.76482 0.70647 0.12976 0.0
H414 H 0.81531 0.70002 0.09206 0.0
H415 H 0.74189 0.65424 0.09693 0.0
C416 C 0.80084 0.60708 0.9987 0.0
N417 N 0.80198 0.56998 0.96426 0.0
C418 C 0.81163 0.58403 1.00585 0.0
C419 C 0.79086 0.61133 0.97396 0.0
C420 C 0.81197 0.5655 0.98818 0.0
C421 C 0.79153 0.59231 0.95685 0.0
C422 C 0.84799 0.67399 0.05227 0.0
C423 C 0.86286 0.68267 0.03106 0.0
C424 C 0.86043 0.67014 0.076 0.0
C425 C 0.89004 0.6871 0.03391 0.0
C426 C 0.88766 0.67474 0.07806 0.0
N427 N 0.90178 0.68303 0.05715 0.0
C428 C 0.78777 0.70833 0.99124 0.0
C429 C 0.81346 0.68207 0.97049 0.0
C430 C 0.78772 0.72601 0.96988 0.0
N431 N 0.80012 0.68665 0.99101 0.0
C432 C 0.8142 0.69946 0.9488 0.0
C433 C 0.80083 0.72152 0.94822 0.0
H434 H 0.77766 0.71174 1.00794 0.0
H435 H 0.82331 0.6648 0.97088 0.0
C436 C 0.84596 0.59319 0.07693 0.0
N437 N 0.84726 0.61138 0.05687 0.0
C438 C 0.8657 0.57711 0.08169 0.0
C439 C 0.8883 0.59914 0.04547 0.0
C440 C 0.86792 0.61465 0.04122 0.0
C441 C 0.88703 0.57975 0.06566 0.0
H442 H 0.82918 0.59059 0.08884 0.0
H443 H 0.86821 0.62877 0.02501 0.0
O444 O 0.7629 0.65911 0.03744 0.0
O445 O 0.7877 0.61741 0.07214 0.0
O446 O 0.80063 0.62562 0.01563 0.0
O447 O 0.8214 0.66922 0.04981 0.0
H448 H 0.73021 0.69165 0.04843 0.0
H449 H 0.74979 0.64253 0.99212 0.0
H450 H 0.6936 0.70454 0.02011 0.0
H451 H 0.71299 0.65634 0.96469 0.0
H452 H 0.80292 0.62401 0.15673 0.0
H453 H 0.74153 0.59532 0.08777 0.0
H454 H 0.81723 0.63067 0.11219 0.0
H455 H 0.72853 0.58925 0.13272 0.0
H456 H 0.67488 0.59149 0.03899 0.0
H457 H 0.72323 0.53848 1.01077 0.0
H458 H 0.80302 0.72837 0.12355 0.0
H459 H 0.72851 0.68043 0.12983 0.0
H460 H 0.81929 0.58027 0.02493 0.0
H461 H 0.78274 0.62916 0.96794 0.0
H462 H 0.82011 0.54752 0.9935 0.0
H463 H 0.78381 0.59534 0.93767 0.0
H464 H 0.85352 0.68578 0.01258 0.0
H465 H 0.84918 0.66355 0.09262 0.0
H466 H 0.90182 0.6937 0.01764 0.0
H467 H 0.89756 0.6717 0.09628 0.0
H468 H 0.77758 0.74305 0.97029 0.0
H469 H 0.82461 0.69543 0.93245 0.0
H470 H 0.86415 0.56249 0.09755 0.0
H471 H 0.90439 0.60159 0.03261 0.0
Li472 Li 0.88072 0.05393 0.27592 0.0
Li473 Li 0.91152 0.02667 0.29787 0.0
Li474 Li 0.91068 0.03553 0.24983 0.0
Li475 Li 0.87573 1.00579 0.27095 0.0
C476 C 0.9246 0.08605 0.27989 0.0
N477 N 0.93312 0.13871 0.2863 0.0
C478 C 0.9293 0.09471 0.30417 0.0
C479 C 0.92463 0.10414 0.25884 0.0
C480 C 0.93346 0.12143 0.30702 0.0
C481 C 0.92887 0.13069 0.26248 0.0
C482 C 0.86576 0.01211 0.32502 0.0
C483 C 0.86233 0.97377 0.35422 0.0
N484 N 0.8513 0.98701 0.3713 0.0
C485 C 0.85416 0.02527 0.34276 0.0
C486 C 0.86969 0.98611 0.33071 0.0
C487 C 0.84708 0.01227 0.36609 0.0
C488 C 0.8483 0.09378 0.26071 0.0
N489 N 0.86251 0.0832 0.28022 0.0
C490 C 0.85114 0.11422 0.30767 0.0
C491 C 0.86407 0.09291 0.30341 0.0
C492 C 0.83631 0.12558 0.28789 0.0
C493 C 0.83511 0.11517 0.2641 0.0
H494 H 0.84715 0.08563 0.24252 0.0
H495 H 0.87542 0.0841 0.31864 0.0
C496 C 0.9556 0.01106 0.3261 0.0
N497 N 0.93323 0.02221 0.32755 0.0
C498 C 0.97166 1.00743 0.3477 0.0
C499 C 0.94155 0.02721 0.37176 0.0
C500 C 0.92617 0.03055 0.3497 0.0
C501 C 0.96463 0.01554 0.37091 0.0
H502 H 0.96093 1.00491 0.30816 0.0
H503 H 0.9087 0.04001 0.35023 0.0
C504 C 0.86652 0.03925 0.21951 0.0
N505 N 0.85603 0.04744 0.16804 0.0
C506 C 0.85282 0.01944 0.20621 0.0
C507 C 0.87467 0.06329 0.20669 0.0
C508 C 0.84775 0.02395 0.18018 0.0
C509 C 0.86925 0.06703 0.18065 0.0
C510 C 0.92027 0.97795 0.2692 0.0
C511 C 0.92549 0.96973 0.2456 0.0
C512 C 0.92251 0.96115 0.29101 0.0
C513 C 0.93216 0.94463 0.24412 0.0
C514 C 0.92925 0.9362 0.28875 0.0
N515 N 0.93385 0.9285 0.26554 0.0
C516 C 0.95593 0.05556 0.223 0.0
C517 C 0.92485 0.02935 0.1991 0.0
C518 C 0.97301 0.05907 0.2028 0.0
N519 N 0.93238 0.04086 0.22084 0.0
C520 C 0.94112 0.03266 0.17833 0.0
C521 C 0.96577 0.04736 0.18012 0.0
H522 H 0.96161 0.06426 0.24059 0.0
H523 H 0.90634 0.01728 0.19792 0.0
C524 C 0.82958 0.97159 0.2815 0.0
N525 N 0.85146 0.97518 0.26749 0.0
C526 C 0.81181 0.9492 0.27986 0.0
C527 C 0.83882 0.93499 0.24868 0.0
C528 C 0.8561 0.95763 0.25099 0.0
C529 C 0.81634 0.93054 0.26327 0.0
H530 H 0.82594 0.98607 0.29406 0.0
H531 H 0.87302 0.96134 0.23932 0.0
O532 O 0.91996 0.06 0.27676 0.0
O533 O 0.87315 0.02467 0.30221 0.0
O534 O 0.87178 0.03509 0.24497 0.0
O535 O 0.91389 1.00257 0.27098 0.0
H536 H 0.92944 0.08096 0.32065 0.0
H537 H 0.92144 0.09775 0.2399 0.0
H538 H 0.93691 0.12841 0.32572 0.0
H539 H 0.9288 0.14491 0.24636 0.0
H540 H 0.86529 0.95364 0.35885 0.0
H541 H 0.85071 0.04533 0.33862 0.0
H542 H 0.87802 0.97549 0.31698 0.0
H543 H 0.83821 0.02226 0.38004 0.0
H544 H 0.85253 0.12159 0.32631 0.0
H545 H 0.82437 0.12365 0.24818 0.0
H546 H 0.98918 0.99813 0.34635 0.0
H547 H 0.93566 0.03399 0.38924 0.0
H548 H 0.84618 1.00079 0.21585 0.0
H549 H 0.8852 0.07885 0.21669 0.0
H550 H 0.83724 1.00876 0.16963 0.0
H551 H 0.87557 0.0855 0.17047 0.0
H552 H 0.92411 0.98247 0.22855 0.0
H553 H 0.9194 0.96734 0.30954 0.0
H554 H 0.93599 0.93797 0.22593 0.0
H555 H 0.93095 0.923 0.30548 0.0
H556 H 0.99186 0.07049 0.20505 0.0
H557 H 0.93438 0.02382 0.16104 0.0
H558 H 0.79486 0.94638 0.29165 0.0
H559 H 0.84281 0.92127 0.23539 0.0
Li560 Li 0.28857 0.15752 0.56765 0.0
Li561 Li 0.27117 0.12371 0.5395 0.0
Li562 Li 0.3188 0.13132 0.55074 0.0
Li563 Li 0.2977 0.16347 0.52065 0.0
C564 C 0.28497 0.11343 0.59827 0.0
N565 N 0.27637 0.10278 0.64946 0.0
C566 C 0.2607 0.1014 0.60642 0.0
C567 C 0.30497 0.11973 0.6161 0.0
C568 C 0.25671 0.09626 0.6324 0.0
C569 C 0.30021 0.11428 0.64191 0.0
C570 C 0.24109 0.16504 0.52582 0.0
C571 C 0.21245 0.16255 0.48873 0.0
N572 N 0.19463 0.17401 0.50083 0.0
C573 C 0.22254 0.17681 0.53789 0.0
C574 C 0.23606 0.15785 0.50106 0.0
C575 C 0.19915 0.18118 0.52493 0.0
C576 C 0.29531 0.19808 0.6009 0.0
N577 N 0.2798 0.17613 0.59515 0.0
C578 C 0.24888 0.18317 0.62562 0.0
C579 C 0.25691 0.16853 0.607 0.0
C580 C 0.26427 0.2062 0.63177 0.0
C581 C 0.28783 0.21354 0.61914 0.0
H582 H 0.31304 0.20408 0.59069 0.0
H583 H 0.24451 0.15147 0.60148 0.0
C584 C 0.24245 0.07741 0.52087 0.0
N585 N 0.24122 0.09885 0.53374 0.0
C586 C 0.22006 0.05992 0.51709 0.0
C587 C 0.19554 0.08668 0.54005 0.0
C588 C 0.21841 0.10353 0.54352 0.0
C589 C 0.19621 0.06443 0.52679 0.0
H590 H 0.26075 0.07364 0.51367 0.0
H591 H 0.21797 0.1204 0.55412 0.0
C592 C 0.34778 0.1788 0.55435 0.0
N593 N 0.40031 0.19526 0.56168 0.0
C594 C 0.3627 0.18992 0.5339 0.0
C595 C 0.35946 0.17636 0.57858 0.0
C596 C 0.38926 0.19806 0.53799 0.0
C597 C 0.38608 0.1847 0.58188 0.0
C598 C 0.30198 0.10944 0.4987 0.0
C599 C 0.3131 0.08635 0.50455 0.0
C600 C 0.29143 0.11468 0.47434 0.0
C601 C 0.31319 0.06872 0.48597 0.0
C602 C 0.29189 0.09654 0.45629 0.0
N603 N 0.30265 0.07413 0.46244 0.0
C604 C 0.34588 0.0909 0.57296 0.0
C605 C 0.37234 0.1215 0.54656 0.0
C606 C 0.36632 0.07558 0.57742 0.0
N607 N 0.34912 0.11332 0.55765 0.0
C608 C 0.3935 0.10704 0.55093 0.0
C609 C 0.39051 0.0834 0.56614 0.0
H610 H 0.32711 0.08446 0.58116 0.0
H611 H 0.37438 0.139 0.53397 0.0
C612 C 0.28625 0.20817 0.49051 0.0
N613 N 0.30069 0.18786 0.49155 0.0
C614 C 0.28666 0.22588 0.46915 0.0
C615 C 0.31741 0.20192 0.45053 0.0
C616 C 0.31618 0.18448 0.47218 0.0
C617 C 0.3025 0.22298 0.4488 0.0
H618 H 0.27408 0.21043 0.50617 0.0
H619 H 0.32749 0.16816 0.47351 0.0
O620 O 0.28918 0.11883 0.57293 0.0
O621 O 0.26393 0.16035 0.53835 0.0
O622 O 0.32178 0.17069 0.5507 0.0
O623 O 0.30192 0.12705 0.51657 0.0
H624 H 0.24507 0.09622 0.59285 0.0
H625 H 0.32396 0.1287 0.61006 0.0
H626 H 0.23797 0.08709 0.63901 0.0
H627 H 0.31548 0.11915 0.65593 0.0
H628 H 0.20827 0.15704 0.46957 0.0
H629 H 0.22615 0.18244 0.5571 0.0
H630 H 0.25019 0.14862 0.49155 0.0
H631 H 0.18458 0.19023 0.53405 0.0
H632 H 0.23055 0.1768 0.63478 0.0
H633 H 0.29989 0.23156 0.62254 0.0
H634 H 0.22146 0.04288 0.50692 0.0
H635 H 0.17749 0.09119 0.54746 0.0
H636 H 0.35391 0.1921 0.51506 0.0
H637 H 0.3481 0.16816 0.59466 0.0
H638 H 0.40109 0.20657 0.52231 0.0
H639 H 0.39542 0.18281 0.60051 0.0
H640 H 0.32135 0.08196 0.52328 0.0
H641 H 0.28307 0.13259 0.46935 0.0
H642 H 0.32161 0.05072 0.49027 0.0
H643 H 0.28373 0.10032 0.43739 0.0
H644 H 0.36295 0.05742 0.58906 0.0
H645 H 0.41192 0.11427 0.54232 0.0
H646 H 0.27432 0.24137 0.46842 0.0
H647 H 0.32996 0.199 0.43533 0.0
Li648 Li 0.40994 0.52447 0.79952 0.0
Li649 Li 0.37908 0.55202 0.77751 0.0
Li650 Li 0.37493 0.50332 0.7729 0.0
Li651 Li 0.40939 0.53284 0.75162 0.0
C652 C 0.36591 0.51716 0.82865 0.0
N653 N 0.35531 0.50676 0.87953 0.0
C654 C 0.35943 0.53687 0.84289 0.0
C655 C 0.36646 0.49205 0.8402 0.0
C656 C 0.35428 0.53126 0.86861 0.0
C657 C 0.3612 0.4872 0.86596 0.0
C658 C 0.4267 0.58362 0.77897 0.0
C659 C 0.43296 0.62703 0.75843 0.0
N660 N 0.44374 0.63606 0.78038 0.0
C661 C 0.43814 0.59327 0.80123 0.0
C662 C 0.42434 0.60057 0.75732 0.0
C663 C 0.44652 0.61986 0.80159 0.0
C664 C 0.45039 0.50431 0.8302 0.0
N665 N 0.43137 0.52037 0.82949 0.0
C666 C 0.44213 0.53051 0.87221 0.0
C667 C 0.42736 0.53377 0.84975 0.0
C668 C 0.46143 0.51356 0.87369 0.0
C669 C 0.46578 0.50063 0.85225 0.0
H670 H 0.4536 0.49433 0.81366 0.0
H671 H 0.41282 0.54715 0.84843 0.0
C672 C 0.33861 0.58427 0.76633 0.0
N673 N 0.36055 0.58133 0.78088 0.0
C674 C 0.32468 0.60539 0.76878 0.0
C675 C 0.35597 0.61988 0.80137 0.0
C676 C 0.36918 0.59845 0.79838 0.0
C677 C 0.33347 0.62367 0.78637 0.0
H678 H 0.33178 0.57008 0.75296 0.0
H679 H 0.38614 0.59529 0.81032 0.0
C680 C 0.4161 0.47427 0.77274 0.0
N681 N 0.42155 0.42202 0.77207 0.0
C682 C 0.42376 0.46452 0.75069 0.0
C683 C 0.41175 0.45752 0.79458 0.0
C684 C 0.42627 0.43803 0.75068 0.0
C685 C 0.41445 0.43115 0.79383 0.0
C686 C 0.36526 0.53871 0.72159 0.0
C687 C 0.35587 0.51923 0.70567 0.0
C688 C 0.36869 0.56466 0.71178 0.0
C689 C 0.35073 0.52599 0.68002 0.0
C690 C 0.3633 0.57064 0.68603 0.0
N691 N 0.35455 0.55134 0.6708 0.0
C692 C 0.33112 0.46686 0.7856 0.0
C693 C 0.35512 0.45631 0.75137 0.0
C694 C 0.31405 0.44396 0.78407 0.0
N695 N 0.35136 0.4724 0.76959 0.0
C696 C 0.33864 0.43313 0.74927 0.0
C697 C 0.31792 0.42665 0.76591 0.0
H698 H 0.32823 0.48021 0.79959 0.0
H699 H 0.37086 0.46151 0.73837 0.0
C700 C 0.45228 0.55531 0.72198 0.0
N701 N 0.43035 0.53788 0.72225 0.0
C702 C 0.46815 0.55881 0.70088 0.0
C703 C 0.43892 0.52596 0.68091 0.0
C704 C 0.42362 0.52313 0.70237 0.0
C705 C 0.46143 0.54412 0.67993 0.0
H706 H 0.45761 0.56635 0.73825 0.0
H707 H 0.40663 0.50875 0.70338 0.0
O708 O 0.37128 0.52239 0.80348 0.0
O709 O 0.41818 0.55766 0.77836 0.0
O710 O 0.41317 0.50011 0.77298 0.0
O711 O 0.3706 0.53242 0.74673 0.0
H712 H 0.35856 0.55633 0.83425 0.0
H713 H 0.37068 0.47639 0.82937 0.0
H714 H 0.34946 0.54639 0.87988 0.0
H715 H 0.3617 0.46787 0.87515 0.0
H716 H 0.43116 0.64037 0.74183 0.0
H717 H 0.4404 0.58042 0.81808 0.0
H718 H 0.41617 0.59335 0.73978 0.0
H719 H 0.45523 0.62762 0.81874 0.0
H720 H 0.4387 0.54136 0.88816 0.0
H721 H 0.48068 0.48758 0.85266 0.0
H722 H 0.30704 0.60718 0.75731 0.0
H723 H 0.36338 0.63343 0.81521 0.0
H724 H 0.42758 0.47721 0.7337 0.0
H725 H 0.40652 0.46481 0.81198 0.0
H726 H 0.43197 0.4302 0.73368 0.0
H727 H 0.411 0.41796 0.81059 0.0
H728 H 0.3528 0.49908 0.71299 0.0
H729 H 0.37521 0.58005 0.72394 0.0
H730 H 0.34368 0.51108 0.66744 0.0
H731 H 0.36598 0.59065 0.67817 0.0
H732 H 0.29817 0.43968 0.79712 0.0
H733 H 0.34184 0.42057 0.73461 0.0
H734 H 0.48543 0.57293 0.70089 0.0
H735 H 0.43346 0.51373 0.66546 0.0
Li736 Li 0.78848 0.4196 0.51449 0.0
Li737 Li 0.76377 0.38401 0.54011 0.0
Li738 Li 0.75848 0.3863 0.49377 0.0
Li739 Li 0.73925 0.41618 0.51862 0.0
C740 C 0.80993 0.37562 0.50027 0.0
N741 N 0.84833 0.36269 0.47033 0.0
C742 C 0.82154 0.3529 0.50648 0.0
C743 C 0.81783 0.39176 0.47884 0.0
C744 C 0.84093 0.3467 0.4911 0.0
C745 C 0.83727 0.38489 0.46394 0.0
C746 C 0.77236 0.42078 0.57074 0.0
C747 C 0.75701 0.41224 0.61347 0.0
N748 N 0.78209 0.41603 0.6226 0.0
C749 C 0.79795 0.42484 0.58058 0.0
C750 C 0.75169 0.41465 0.58733 0.0
C751 C 0.80248 0.42228 0.60684 0.0
C752 C 0.82156 0.46623 0.50069 0.0
N753 N 0.82062 0.44204 0.51277 0.0
C754 C 0.86612 0.44924 0.52405 0.0
C755 C 0.84226 0.43333 0.5243 0.0
C756 C 0.86798 0.47411 0.51108 0.0
C757 C 0.84519 0.48254 0.49934 0.0
H758 H 0.80393 0.47289 0.49215 0.0
H759 H 0.84086 0.41412 0.53411 0.0
C760 C 0.74657 0.34898 0.58226 0.0
N761 N 0.7677 0.3614 0.56992 0.0
C762 C 0.74989 0.33424 0.60519 0.0
C763 C 0.79666 0.3445 0.60175 0.0
C764 C 0.79243 0.3591 0.57893 0.0
C765 C 0.77518 0.33223 0.61541 0.0
H766 H 0.72715 0.35089 0.57458 0.0
H767 H 0.80888 0.36908 0.5686 0.0
C768 C 0.75451 0.43082 0.46265 0.0
N769 N 0.74194 0.44175 0.41192 0.0
C770 C 0.73009 0.42131 0.45258 0.0
C771 C 0.77264 0.44574 0.44683 0.0
C772 C 0.72408 0.42706 0.42692 0.0
C773 C 0.76589 0.4511 0.42126 0.0
C774 C 0.70432 0.37427 0.51934 0.0
C775 C 0.68998 0.3674 0.4974 0.0
C776 C 0.6911 0.37801 0.54108 0.0
C777 C 0.6627 0.36458 0.49753 0.0
C778 C 0.66381 0.37505 0.54044 0.0
N779 N 0.65028 0.36845 0.51886 0.0
C780 C 0.74264 0.34031 0.47012 0.0
C781 C 0.7644 0.37316 0.44221 0.0
C782 C 0.73874 0.32335 0.45076 0.0
N783 N 0.75476 0.3649 0.46545 0.0
C784 C 0.76086 0.35687 0.42227 0.0
C785 C 0.74753 0.33172 0.42633 0.0
H786 H 0.73589 0.3339 0.48895 0.0
H787 H 0.77489 0.39236 0.43903 0.0
C788 C 0.71266 0.45234 0.54146 0.0
N789 N 0.71089 0.43669 0.52189 0.0
C790 C 0.69213 0.46642 0.54607 0.0
C791 C 0.66863 0.44897 0.50966 0.0
C792 C 0.68953 0.43509 0.50587 0.0
C793 C 0.66973 0.46474 0.53009 0.0
H794 H 0.72995 0.45375 0.55371 0.0
H795 H 0.68827 0.42256 0.4905 0.0
O796 O 0.79081 0.38182 0.51507 0.0
O797 O 0.76762 0.42219 0.54502 0.0
O798 O 0.76083 0.42517 0.48771 0.0
O799 O 0.7311 0.37723 0.51958 0.0
H800 H 0.81559 0.34019 0.52301 0.0
H801 H 0.80896 0.40935 0.47369 0.0
H802 H 0.8501 0.32916 0.49567 0.0
H803 H 0.84354 0.39719 0.44728 0.0
H804 H 0.7412 0.40728 0.62648 0.0
H805 H 0.81418 0.42969 0.56813 0.0
H806 H 0.73176 0.41149 0.58013 0.0
H807 H 0.82222 0.42517 0.61468 0.0
H808 H 0.88276 0.44222 0.5343 0.0
H809 H 0.8456 0.50153 0.48915 0.0
H810 H 0.73283 0.32504 0.61513 0.0
H811 H 0.81649 0.34291 0.60866 0.0
H812 H 0.71623 0.40903 0.46427 0.0
H813 H 0.79182 0.45289 0.45407 0.0
H814 H 0.70528 0.41969 0.41889 0.0
H815 H 0.77973 0.46261 0.40882 0.0
H816 H 0.69971 0.36452 0.48033 0.0
H817 H 0.70176 0.38352 0.55817 0.0
H818 H 0.6514 0.35939 0.48064 0.0
H819 H 0.65338 0.37809 0.55708 0.0
H820 H 0.72913 0.30382 0.45494 0.0
H821 H 0.76821 0.36398 0.40378 0.0
H822 H 0.69373 0.4785 0.56195 0.0
H823 H 0.6515 0.44686 0.49714 0.0
Li824 Li 0.66428 0.97814 0.79777 0.0
Li825 Li 0.63464 1.00527 0.81449 0.0
Li826 Li 0.63305 0.99739 0.76745 0.0
Li827 Li 0.66971 0.02543 0.78733 0.0
C828 C 0.61847 0.94712 0.80701 0.0
N829 N 0.60575 0.89623 0.82606 0.0
C830 C 0.62477 0.93963 0.83225 0.0
C831 C 0.60555 0.92881 0.79147 0.0
C832 C 0.61823 0.91379 0.84152 0.0
C833 C 0.59931 0.90315 0.80146 0.0
C834 C 0.67681 0.00962 0.84628 0.0
C835 C 0.68005 0.03721 0.88113 0.0
N836 N 0.68399 0.01638 0.89751 0.0
C837 C 0.68099 0.9885 0.86347 0.0
C838 C 0.67648 0.03421 0.85517 0.0
C839 C 0.68458 0.99232 0.88928 0.0
C840 C 0.70824 0.95484 0.81631 0.0
N841 N 0.6846 0.94928 0.80441 0.0
C842 C 0.6932 0.90538 0.80092 0.0
C843 C 0.67691 0.92511 0.79659 0.0
C844 C 0.71773 0.91061 0.81321 0.0
C845 C 0.725 0.93569 0.82121 0.0
H846 H 0.71419 0.9743 0.82191 0.0
H847 H 0.6584 0.92118 0.78656 0.0
C848 C 0.59488 0.02889 0.83433 0.0
N849 N 0.61266 0.01209 0.84121 0.0
C850 C 0.57951 0.03721 0.85245 0.0
C851 C 0.60003 0.00995 0.88451 0.0
C852 C 0.61492 1.00199 0.86567 0.0
C853 C 0.58238 0.02816 0.878 0.0
H854 H 0.59291 0.03623 0.81474 0.0
H855 H 0.62852 0.98808 0.87074 0.0
C856 C 0.67864 0.98086 0.74764 0.0
N857 N 0.69398 0.94662 0.71546 0.0
C858 C 0.70364 0.98502 0.73776 0.0
C859 C 0.66145 0.95928 0.74123 0.0
C860 C 0.71103 0.96749 0.72148 0.0
C861 C 0.66957 0.94219 0.72492 0.0
C862 C 0.63139 0.05612 0.77776 0.0
C863 C 0.62502 0.06484 0.75286 0.0
C864 C 0.63715 0.0741 0.79606 0.0
C865 C 0.62497 0.09149 0.74657 0.0
C866 C 0.63693 0.10059 0.78902 0.0
N867 N 0.63092 0.10867 0.76462 0.0
C868 C 0.58517 0.98421 0.74096 0.0
C869 C 0.61961 1.00364 0.71483 0.0
C870 C 0.56773 0.9832 0.72004 0.0
N871 N 0.61053 0.99434 0.738 0.0
C872 C 0.6028 1.00317 0.69341 0.0
C873 C 0.57649 0.99284 0.69588 0.0
H874 H 0.5784 0.97732 0.75968 0.0
H875 H 0.63982 0.01187 0.71308 0.0
C876 C 0.71264 0.06209 0.79941 0.0
N877 N 0.69428 0.05567 0.78111 0.0
C878 C 0.72989 0.08491 0.79613 0.0
C879 C 0.70968 0.09367 0.75483 0.0
C880 C 0.69295 0.07054 0.75883 0.0
C881 C 0.72817 0.10133 0.77383 0.0
H882 H 0.71388 0.04952 0.8166 0.0
H883 H 0.67865 0.06463 0.74429 0.0
O884 O 0.62496 0.97225 0.79752 0.0
O885 O 0.67328 1.0063 0.8209 0.0
O886 O 0.67122 0.99767 0.76381 0.0
O887 O 0.63188 0.03012 0.78421 0.0
H888 H 0.63482 0.95356 0.84445 0.0
H889 H 0.60054 0.93431 0.77188 0.0
H890 H 0.62312 0.90768 0.86099 0.0
H891 H 0.58939 0.88873 0.78965 0.0
H892 H 0.6797 0.05611 0.88825 0.0
H893 H 0.68115 0.96928 0.85706 0.0
H894 H 0.67349 0.05081 0.84218 0.0
H895 H 0.6877 0.97612 0.90279 0.0
H896 H 0.68689 0.88639 0.79423 0.0
H897 H 0.74345 0.94051 0.83122 0.0
H898 H 0.56603 0.05118 0.84664 0.0
H899 H 0.60237 1.00206 0.90394 0.0
H900 H 0.71719 1.00161 0.74264 0.0
H901 H 0.64214 0.95561 0.74896 0.0
H902 H 0.73032 0.97046 0.71366 0.0
H903 H 0.65649 0.92537 0.71986 0.0
H904 H 0.62034 0.05121 0.73849 0.0
H905 H 0.64173 0.06767 0.81548 0.0
H906 H 0.62024 0.09852 0.72733 0.0
H907 H 0.6415 0.11473 0.80297 0.0
H908 H 0.54748 0.9755 0.7228 0.0
H909 H 0.61027 0.01079 0.6751 0.0
H910 H 0.74446 0.08962 0.81089 0.0
H911 H 0.70783 0.10567 0.73728 0.0
Li912 Li 0.04494 0.28146 0.89316 0.0
Li913 Li 0.01918 0.30048 0.92357 0.0
Li914 Li 0.02383 0.25228 0.92766 0.0
Li915 Li 0.99575 0.27155 0.89431 0.0
C916 C 0.07746 0.28504 0.9364 0.0
N917 N 0.13047 0.28981 0.94813 0.0
C918 C 0.09073 0.30912 0.94198 0.0
C919 C 0.09109 0.26329 0.93732 0.0
C920 C 0.11754 0.31117 0.94771 0.0
C921 C 0.11789 0.26612 0.94315 0.0
C922 C 0.01592 0.33127 0.8807 0.0
C923 C 0.99135 0.36805 0.87946 0.0
N924 N 0.01282 0.38397 0.87139 0.0
C925 C 0.03766 0.34795 0.87216 0.0
C926 C 0.99249 0.34134 0.88415 0.0
C927 C 0.03573 0.37455 0.86763 0.0
C928 C 0.07377 0.27142 0.85153 0.0
N929 N 0.07411 0.28683 0.87118 0.0
C930 C 0.11531 0.30953 0.85858 0.0
C931 C 0.09424 0.30578 0.87484 0.0
C932 C 0.11561 0.29358 0.83843 0.0
C933 C 0.09458 0.27426 0.83503 0.0
H934 H 0.05725 0.25699 0.84852 0.0
H935 H 0.09382 0.31825 0.89014 0.0
C936 C 0.99817 0.32884 0.95985 0.0
N937 N 0.01703 0.33025 0.94237 0.0
C938 C 0.99599 0.35 0.97405 0.0
C939 C 0.03288 0.37365 0.95225 0.0
C940 C 0.03424 0.3521 0.93837 0.0
C941 C 0.01363 0.3727 0.97045 0.0
H942 H 0.98488 0.3112 0.96293 0.0
H943 H 0.04906 0.35284 0.92438 0.0
C944 C 0.02783 0.22341 0.88578 0.0
N945 N 0.03865 0.17432 0.8762 0.0
C946 C 1.00799 0.20519 0.87703 0.0
C947 C 0.05327 0.21678 0.88919 0.0
C948 C 0.01382 0.18044 0.87243 0.0
C949 C 0.05833 0.19185 0.88437 0.0
C950 C 0.9663 0.26324 0.93547 0.0
C951 C 0.95724 0.23806 0.94519 0.0
C952 C 0.94851 0.28123 0.92942 0.0
C953 C 0.93046 0.23116 0.94827 0.0
C954 C 0.92188 0.27358 0.93274 0.0
N955 N 0.91347 0.2489 0.94199 0.0
C956 C 0.04264 0.2261 0.9723 0.0
C957 C 0.01565 0.19871 0.94579 0.0
C958 C 0.04657 0.20488 0.98942 0.0
N959 N 0.02772 0.22261 0.95079 0.0
C960 C 0.01906 0.17696 0.96237 0.0
C961 C 0.03494 0.17987 0.98437 0.0
H962 H 0.05151 0.24539 0.97617 0.0
H963 H 1.00318 0.19651 0.92905 0.0
C964 C 0.96001 0.28244 0.85402 0.0
N965 N 0.96478 0.26486 0.87362 0.0
C966 C 0.93812 0.27774 0.8379 0.0
C967 C 0.92646 0.23689 0.86235 0.0
C968 C 0.94857 0.24238 0.87799 0.0
C969 C 0.92102 0.2547 0.84198 0.0
H970 H 0.97346 0.29991 0.85061 0.0
H971 H 0.95299 0.2285 0.89342 0.0
O972 O 0.05119 0.28272 0.93064 0.0
O973 O 0.01752 0.3052 0.88551 0.0
O974 O 0.02241 0.24769 0.89061 0.0
O975 O 0.99244 0.27027 0.93208 0.0
H976 H 0.08052 0.32609 0.94173 0.0
H977 H 0.08107 0.24436 0.93389 0.0
H978 H 0.12807 0.32974 0.95184 0.0
H979 H 0.12866 0.24944 0.94383 0.0
H980 H 0.97339 0.37612 0.8822 0.0
H981 H 0.05586 0.34049 0.86915 0.0
H982 H 0.9754 0.32868 0.89041 0.0
H983 H 0.05245 0.3877 0.86116 0.0
H984 H 0.13125 0.32463 0.86179 0.0
H985 H 0.09405 0.2618 0.81951 0.0
H986 H 0.98093 0.34851 0.98797 0.0
H987 H 0.04658 0.39097 0.94864 0.0
H988 H 0.98828 0.21003 0.87393 0.0
H989 H 0.06902 0.23084 0.89515 0.0
H990 H 0.9986 0.16611 0.86583 0.0
H991 H 0.07792 0.18647 0.88701 0.0
H992 H 0.97072 0.22396 0.95022 0.0
H993 H 0.95519 0.30088 0.9222 0.0
H994 H 0.92317 0.21169 0.95564 0.0
H995 H 0.90789 0.28727 0.92797 0.0
H996 H 0.05835 0.20807 1.00654 0.0
H997 H 1.00955 0.15803 0.95792 0.0
H998 H 0.93496 0.29168 0.82204 0.0
H999 H 0.91378 0.21888 0.86609 0.0
Li1000 Li 0.54941 0.7835 0.39531 0.0
Li1001 Li 0.52484 0.80361 0.42412 0.0
Li1002 Li 0.5297 0.75514 0.43042 0.0
Li1003 Li 0.50234 0.77465 0.39492 0.0
C1004 C 0.58333 0.79204 0.43486 0.0
N1005 N 0.6369 0.8046 0.43946 0.0
C1006 C 0.59516 0.81607 0.42466 0.0
C1007 C 0.59884 0.77432 0.4473 0.0
C1008 C 0.62224 0.82207 0.42718 0.0
C1009 C 0.62585 0.78106 0.44948 0.0
C1010 C 0.52308 0.83446 0.38276 0.0
C1011 C 0.49979 0.87205 0.38267 0.0
N1012 N 0.52214 0.88773 0.37677 0.0
C1013 C 0.54578 0.85095 0.37652 0.0
C1014 C 0.49984 0.84508 0.38568 0.0
C1015 C 0.54492 0.87782 0.37362 0.0
C1016 C 0.57494 0.7993 0.34933 0.0
N1017 N 0.57834 0.78704 0.37273 0.0
C1018 C 0.62102 0.77845 0.36229 0.0
C1019 C 0.60064 0.77622 0.3792 0.0
C1020 C 0.61815 0.79119 0.33806 0.0
C1021 C 0.59469 0.80168 0.33166 0.0
H1022 H 0.5567 0.80697 0.34425 0.0
H1023 H 0.6026 0.76553 0.39738 0.0
C1024 C 0.50081 0.83218 0.45814 0.0
N1025 N 0.52178 0.83326 0.4431 0.0
C1026 C 0.49774 0.85288 0.47266 0.0
C1027 C 0.53804 0.87541 0.45627 0.0
C1028 C 0.54025 0.85436 0.44196 0.0
C1029 C 0.51664 0.87474 0.47199 0.0
H1030 H 0.48654 0.81514 0.45908 0.0
H1031 H 0.55669 0.85502 0.42991 0.0
C1032 C 0.54144 0.73615 0.37912 0.0
N1033 N 0.57105 0.71204 0.34793 0.0
C1034 C 0.53723 0.7387 0.35282 0.0
C1035 C 0.56054 0.72119 0.3896 0.0
C1036 C 0.55247 0.72641 0.33736 0.0
C1037 C 0.57533 0.70917 0.37349 0.0
C1038 C 0.47161 0.76559 0.43416 0.0
C1039 C 0.46285 0.74014 0.44331 0.0
C1040 C 0.45342 0.7827 0.42629 0.0
C1041 C 0.43602 0.73211 0.44408 0.0
C1042 C 0.42676 0.77393 0.42731 0.0
N1043 N 0.41868 0.74902 0.43608 0.0
C1044 C 0.5451 0.72922 0.47665 0.0
C1045 C 0.5218 0.70198 0.44752 0.0
C1046 C 0.54802 0.7078 0.49381 0.0
N1047 N 0.53245 0.7259 0.45393 0.0
C1048 C 0.52353 0.68012 0.46444 0.0
C1049 C 0.5368 0.68281 0.48801 0.0
H1050 H 0.55319 0.74851 0.48133 0.0
H1051 H 0.51175 0.69996 0.42931 0.0
C1052 C 0.46465 0.78507 0.3561 0.0
N1053 N 0.472 0.76673 0.37385 0.0
C1054 C 0.44279 0.7794 0.34018 0.0
C1055 C 0.43659 0.73599 0.36095 0.0
C1056 C 0.45869 0.74244 0.37634 0.0
C1057 C 0.42831 0.75463 0.34263 0.0
H1058 H 0.47597 0.804 0.35404 0.0
H1059 H 0.4653 0.72806 0.39028 0.0
O1060 O 0.5568 0.78584 0.43264 0.0
O1061 O 0.52357 0.80809 0.38601 0.0
O1062 O 0.52732 0.7487 0.3945 0.0
O1063 O 0.49783 0.77365 0.43276 0.0
H1064 H 0.58368 0.8297 0.41439 0.0
H1065 H 0.59025 0.7554 0.45485 0.0
H1066 H 0.63161 0.84057 0.41923 0.0
H1067 H 0.63805 0.7675 0.459 0.0
H1068 H 0.48197 0.88052 0.38505 0.0
H1069 H 0.56396 0.84317 0.37412 0.0
H1070 H 0.48206 0.83267 0.39037 0.0
H1071 H 0.56238 0.8908 0.36892 0.0
H1072 H 0.6389 0.77045 0.36826 0.0
H1073 H 0.59152 0.81139 0.31309 0.0
H1074 H 0.481 0.85163 0.48462 0.0
H1075 H 0.5528 0.89214 0.4549 0.0
H1076 H 0.52256 0.75032 0.34447 0.0
H1077 H 0.56418 0.71924 0.40991 0.0
H1078 H 0.54958 0.72835 0.31696 0.0
H1079 H 0.59032 0.69769 0.38131 0.0
H1080 H 0.47659 0.72669 0.44968 0.0
H1081 H 0.45981 0.80249 0.4193 0.0
H1082 H 0.42898 0.71242 0.451 0.0
H1083 H 0.41249 0.78692 0.42109 0.0
H1084 H 0.55923 0.71085 0.51126 0.0
H1085 H 0.5144 0.66134 0.45917 0.0
H1086 H 0.4376 0.79408 0.32577 0.0
H1087 H 0.42605 0.71664 0.36339 0.0
Li1088 Li 0.02595 0.78582 0.6414 0.0
Li1089 Li 0.99487 0.76353 0.67273 0.0
Li1090 Li 0.04328 0.75893 0.67625 0.0
Li1091 Li 0.01531 0.73687 0.64383 0.0
C1092 C 0.02878 0.8167 0.68007 0.0
N1093 N 0.03592 0.87009 0.68236 0.0
C1094 C 1.00764 0.83001 0.68457 0.0
C1095 C 0.05362 0.8305 0.67714 0.0
C1096 C 1.01164 0.85702 0.68558 0.0
C1097 C 0.05681 0.8575 0.67823 0.0
C1098 C 0.96686 0.76249 0.62561 0.0
C1099 C 0.92482 0.73741 0.61979 0.0
N1100 N 0.91591 0.75841 0.60675 0.0
C1101 C 0.95737 0.78374 0.61192 0.0
C1102 C 0.95054 0.73907 0.62939 0.0
C1103 C 0.93152 0.78132 0.60263 0.0
C1104 C 0.05322 0.81755 0.60271 0.0
N1105 N 0.03314 0.81628 0.61883 0.0
C1106 C 0.02412 0.85896 0.60341 0.0
C1107 C 0.01832 0.8362 0.61912 0.0
C1108 C 0.04509 0.86098 0.58697 0.0
C1109 C 0.05952 0.83982 0.58646 0.0
H1110 H 0.0644 0.80128 0.60247 0.0
H1111 H 1.00202 0.83446 0.6316 0.0
C1112 C 0.96336 0.75584 0.71585 0.0
N1113 N 0.96452 0.76664 0.69156 0.0
C1114 C 0.942 0.75819 0.73063 0.0
C1115 C 0.92347 0.78289 0.69521 0.0
C1116 C 0.94527 0.78025 0.68122 0.0
C1117 C 0.92155 0.7717 0.72025 0.0
H1118 H 0.9792 0.74559 0.72383 0.0
H1119 H 0.94695 0.78947 0.66224 0.0
C1120 C 0.07554 0.75582 0.63819 0.0
N1121 N 0.12797 0.74991 0.63675 0.0
C1122 C 0.08322 0.73218 0.63225 0.0
C1123 C 0.09453 0.77656 0.64304 0.0
C1124 C 0.10983 0.72955 0.63169 0.0
C1125 C 0.12093 0.77316 0.64233 0.0
C1126 C 1.00364 0.70672 0.68933 0.0
C1127 C 0.02107 0.68928 0.69849 0.0
C1128 C 0.97681 0.69853 0.68884 0.0
C1129 C 1.01137 0.66372 0.7064 0.0
C1130 C 0.96788 0.67283 0.69695 0.0
N1131 N 0.9852 0.65608 0.70545 0.0
C1132 C 0.07747 0.77449 0.71667 0.0
C1133 C 0.08743 0.73655 0.69894 0.0
C1134 C 0.0989 0.77383 0.73362 0.0
N1135 N 0.07232 0.75619 0.6996 0.0
C1136 C 0.10919 0.73526 0.7154 0.0
C1137 C 0.11531 0.75421 0.7329 0.0
H1138 H 0.06489 0.78961 0.71719 0.0
H1139 H 0.08274 0.72198 0.68548 0.0
C1140 C 0.99704 0.71035 0.60089 0.0
N1141 N 1.00998 0.7074 0.62366 0.0
C1142 C 0.99373 0.69019 0.58469 0.0
C1143 C 0.01755 0.66431 0.61532 0.0
C1144 C 0.02017 0.68491 0.63108 0.0
C1145 C 1.00444 0.66691 0.59162 0.0
H1146 H 0.98959 0.72855 0.59509 0.0
H1147 H 0.03107 0.68323 0.64886 0.0
O1148 O 0.02517 0.7903 0.67866 0.0
O1149 O 0.99207 0.7646 0.63496 0.0
O1150 O 0.04956 0.75866 0.63912 0.0
O1151 O 0.01281 0.73185 0.68163 0.0
H1152 H 0.98833 0.81966 0.68706 0.0
H1153 H 0.07025 0.8205 0.67401 0.0
H1154 H 0.99542 0.86758 0.68887 0.0
H1155 H 0.07589 0.86843 0.6758 0.0
H1156 H 0.91198 0.7194 0.62262 0.0
H1157 H 0.9698 0.80194 0.60863 0.0
H1158 H 0.95775 0.72226 0.63937 0.0
H1159 H 0.92388 0.79765 0.59214 0.0
H1160 H 1.01222 0.87471 0.60393 0.0
H1161 H 0.07574 0.84068 0.57391 0.0
H1162 H 0.94174 0.74991 0.75008 0.0
H1163 H 0.90824 0.79357 0.68648 0.0
H1164 H 0.06883 0.71601 0.62822 0.0
H1165 H 0.08894 0.79506 0.64736 0.0
H1166 H 0.11605 0.71132 0.62726 0.0
H1167 H 0.13582 0.789 0.64622 0.0
H1168 H 0.04187 0.69537 0.69929 0.0
H1169 H 0.96299 0.71192 0.68252 0.0
H1170 H 0.02466 0.64997 0.71333 0.0
H1171 H 0.94716 0.66622 0.69659 0.0
H1172 H 0.1024 0.78836 0.74732 0.0
H1173 H 0.12127 0.71976 0.71424 0.0
H1174 H 0.98296 0.69287 0.56687 0.0
H1175 H 0.02628 0.64679 0.62133 0.0
Li1176 Li 0.529 0.286 0.14453 0.0
Li1177 Li 0.49878 0.26174 0.17722 0.0
Li1178 Li 0.54509 0.25762 0.17917 0.0
Li1179 Li 0.51754 0.23666 0.14767 0.0
C1180 C 0.54008 0.3008 0.20145 0.0
N1181 N 0.56601 0.32147 0.24322 0.0
C1182 C 0.53282 0.29112 0.22589 0.0
C1183 C 0.56038 0.32108 0.1982 0.0
C1184 C 0.54621 0.30181 0.24678 0.0
C1185 C 0.57328 0.33125 0.21958 0.0
C1186 C 0.46949 0.27104 0.13623 0.0
C1187 C 0.42281 0.25904 0.13575 0.0
N1188 N 0.41923 0.28459 0.13181 0.0
C1189 C 0.46535 0.29717 0.13198 0.0
C1190 C 0.44806 0.25179 0.13794 0.0
C1191 C 0.4398 0.30363 0.12986 0.0
C1192 C 0.54404 0.3143 0.09867 0.0
N1193 N 0.5362 0.31656 0.12254 0.0
C1194 C 0.53872 0.36278 0.1149 0.0
C1195 C 0.53346 0.34013 0.13089 0.0
C1196 C 0.54691 0.36107 0.09015 0.0
C1197 C 0.5497 0.33647 0.08211 0.0
H1198 H 0.54597 0.29526 0.09256 0.0
H1199 H 0.52711 0.3413 0.14997 0.0
C1200 C 0.45596 0.24587 0.21021 0.0
N1201 N 0.46916 0.26625 0.1965 0.0
C1202 C 0.4345 0.24962 0.22424 0.0
C1203 C 0.44091 0.29533 0.21023 0.0
C1204 C 0.46225 0.2907 0.19649 0.0
C1205 C 0.42676 0.27463 0.22442 0.0
H1206 H 0.4621 0.22672 0.2104 0.0
H1207 H 0.47338 0.30666 0.1858 0.0
C1208 C 0.57752 0.25455 0.14134 0.0
N1209 N 0.62971 0.24759 0.1401 0.0
C1210 C 0.58614 0.23137 0.15177 0.0
C1211 C 0.59542 0.27416 0.13019 0.0
C1212 C 0.61261 0.22825 0.15101 0.0
C1213 C 0.62172 0.27026 0.12976 0.0
C1214 C 0.50918 0.20332 0.18672 0.0
C1215 C 0.52773 0.18657 0.19458 0.0
C1216 C 0.48391 0.19288 0.17965 0.0
C1217 C 0.52067 0.15969 0.19522 0.0
C1218 C 0.47763 0.16589 0.18048 0.0
N1219 N 0.49598 0.14999 0.18819 0.0
C1220 C 0.573 0.23953 0.22342 0.0
C1221 C 0.59704 0.27272 0.1976 0.0
C1222 C 0.59445 0.23799 0.24026 0.0
N1223 N 0.57486 0.25625 0.20224 0.0
C1224 C 0.61889 0.27194 0.21396 0.0
C1225 C 0.61792 0.25408 0.2354 0.0
H1226 H 0.55481 0.22748 0.22736 0.0
H1227 H 0.59772 0.28667 0.18126 0.0
C1228 C 0.49288 0.20935 0.10726 0.0
N1229 N 0.51128 0.20799 0.12633 0.0
C1230 C 0.48806 0.1895 0.09072 0.0
C1231 C 0.5211 0.16706 0.11374 0.0
C1232 C 0.52555 0.1875 0.12958 0.0
C1233 C 0.50217 0.16795 0.09402 0.0
H1234 H 0.48211 0.22602 0.10469 0.0
H1235 H 0.54051 0.18699 0.14437 0.0
O1236 O 0.52768 0.29011 0.1808 0.0
O1237 O 0.49437 0.2644 0.13901 0.0
O1238 O 0.55173 0.25813 0.14216 0.0
O1239 O 0.51573 0.22975 0.18574 0.0
H1240 H 0.51721 0.27532 0.22868 0.0
H1241 H 0.56635 0.32864 0.17938 0.0
H1242 H 0.54093 0.29442 0.26583 0.0
H1243 H 0.58915 0.34685 0.21738 0.0
H1244 H 0.40606 0.24434 0.13716 0.0
H1245 H 0.48167 0.31232 0.13063 0.0
H1246 H 0.45087 0.23147 0.14096 0.0
H1247 H 0.43632 0.32379 0.12675 0.0
H1248 H 0.5367 0.38145 0.12188 0.0
H1249 H 0.55592 0.3344 0.06314 0.0
H1250 H 0.4239 0.23305 0.2346 0.0
H1251 H 0.4357 0.31493 0.20998 0.0
H1252 H 0.57268 0.21625 0.16093 0.0
H1253 H 0.58912 0.29228 0.12217 0.0
H1254 H 0.61959 0.2105 0.15923 0.0
H1255 H 0.63581 0.2853 0.12126 0.0
H1256 H 0.54751 0.19415 0.19969 0.0
H1257 H 0.46937 0.20547 0.17332 0.0
H1258 H 0.53487 0.14653 0.20114 0.0
H1259 H 0.45818 0.1576 0.17493 0.0
H1260 H 0.59276 0.2242 0.25677 0.0
H1261 H 0.63624 0.2854 0.21001 0.0
H1262 H 0.4734 0.1909 0.0756 0.0
H1263 H 0.53271 0.15096 0.11657 0.0
C1264 C 0.23613 0.8055 0.85822 0.0
C1265 C 0.23358 0.77826 0.8627 0.0
C1266 C 0.23994 0.82172 0.87836 0.0
C1267 C 0.24113 0.8113 0.90377 0.0
H1268 H 0.2355 0.81434 0.83897 0.0
H1269 H 0.24231 0.84259 0.87396 0.0
S1270 S 0.23294 0.74102 0.92553 0.0
N1271 N 0.23111 0.74149 0.89427 0.0
N1272 N 0.23758 0.7718 0.93218 0.0
C1273 C 0.23802 0.78401 0.90845 0.0
C1274 C 0.23442 0.76755 0.88792 0.0
C1275 C 0.04219 0.53496 0.42753 0.0
C1276 C 0.04283 0.56178 0.43034 0.0
C1277 C 0.05779 0.52579 0.40984 0.0
C1278 C 0.07422 0.54316 0.39403 0.0
H1279 H 0.02914 0.52102 0.43876 0.0
H1280 H 0.05632 0.50505 0.40793 0.0
S1281 S 0.08387 0.61509 0.39456 0.0
N1282 N 0.06191 0.60548 0.4163 0.0
N1283 N 0.09113 0.58827 0.38313 0.0
C1284 C 0.07539 0.56995 0.39699 0.0
C1285 C 0.05968 0.57926 0.41507 0.0
C1286 C 0.82413 0.76784 0.89213 0.0
C1287 C 0.80066 0.77442 0.88015 0.0
C1288 C 0.82403 0.75072 0.91408 0.0
C1289 C 0.80048 0.73972 0.92508 0.0
H1290 H 0.8428 0.77606 0.88455 0.0
H1291 H 0.84255 0.74623 0.92265 0.0
S1292 S 0.73368 0.7493 0.90061 0.0
N1293 N 0.75317 0.7675 0.88049 0.0
N1294 N 0.75308 0.73584 0.92206 0.0
C1295 C 0.77689 0.7461 0.91341 0.0
C1296 C 0.77695 0.76333 0.89091 0.0
C1297 C 0.98444 0.99719 0.43932 0.0
C1298 C 1.01134 1.00593 0.44032 0.0
C1299 C 0.96957 1.00017 0.41673 0.0
C1300 C 0.98108 0.01182 0.39428 0.0
H1301 H 0.97475 0.98823 0.45618 0.0
H1302 H 0.94888 0.99328 0.41682 0.0
S1303 S 0.05074 0.03818 0.38708 0.0
N1304 N 0.04887 0.02679 0.41711 0.0
N1305 N 0.02095 0.03236 0.37456 0.0
C1306 C 1.00801 0.0204 0.39498 0.0
C1307 C 0.02311 0.01749 0.41803 0.0
C1308 C 0.21919 0.24548 0.66392 0.0
C1309 C 0.23567 0.25806 0.6821 0.0
C1310 C 0.22851 0.22844 0.64814 0.0
C1311 C 0.25476 0.22335 0.64981 0.0
H1312 H 0.19897 0.24917 0.66155 0.0
H1313 H 0.21514 0.21974 0.63405 0.0
S1314 S 0.30585 0.25115 0.69468 0.0
N1315 N 0.27953 0.26448 0.70083 0.0
N1316 N 0.29692 0.23175 0.67183 0.0
C1317 C 0.27142 0.23563 0.66813 0.0
C1318 C 0.26193 0.25317 0.68406 0.0
C1319 C 0.52166 0.55101 0.63963 0.0
C1320 C 0.51136 0.55509 0.61481 0.0
C1321 C 0.50538 0.54738 0.66055 0.0
C1322 C 0.47816 0.54745 0.6574 0.0
H1323 H 0.54255 0.55126 0.64297 0.0
H1324 H 0.51417 0.54449 0.67935 0.0
S1325 S 0.44139 0.55642 0.59621 0.0
N1326 N 0.47219 0.55809 0.58815 0.0
N1327 N 0.44161 0.55165 0.62747 0.0
C1328 C 0.46757 0.55104 0.63263 0.0
C1329 C 0.48415 0.5548 0.61135 0.0
C1330 C 0.76792 0.27884 0.66916 0.0
C1331 C 0.78403 0.28953 0.68866 0.0
C1332 C 0.76531 0.29268 0.64548 0.0
C1333 C 0.77897 0.31761 0.64036 0.0
H1334 H 0.75705 0.25971 0.67235 0.0
H1335 H 0.75257 0.28375 0.63104 0.0
S1336 S 0.82416 0.35393 0.68499 0.0
N1337 N 0.81443 0.32612 0.70117 0.0
N1338 N 0.80925 0.35237 0.65684 0.0
C1339 C 0.79552 0.32831 0.6596 0.0
C1340 C 0.79818 0.31419 0.68369 0.0
C1341 C 0.53895 0.01597 0.63654 0.0
C1342 C 0.52312 0.99328 0.63012 0.0
C1343 C 0.55629 0.01562 0.6577 0.0
C1344 C 0.55816 0.99266 0.67344 0.0
H1345 H 0.53823 0.03403 0.62489 0.0
H1346 H 0.56817 0.03352 0.66193 0.0
S1347 S 0.52058 0.92817 0.6651 0.0
N1348 N 0.51012 0.94734 0.6414 0.0
N1349 N 0.54269 0.94668 0.68108 0.0
C1350 C 0.54225 0.96992 0.66734 0.0
C1351 C 0.52478 0.97022 0.6457 0.0
C1352 C 0.87277 0.2182 0.79744 0.0
C1353 C 0.85526 0.23637 0.78999 0.0
C1354 C 0.89384 0.22424 0.81436 0.0
C1355 C 0.89821 0.24869 0.82448 0.0
H1356 H 0.8704 0.19927 0.78984 0.0
H1357 H 0.90706 0.20979 0.81924 0.0
S1358 S 0.8568 0.30231 0.81267 0.0
N1359 N 0.84284 0.27929 0.79511 0.0
N1360 N 0.88248 0.29066 0.82691 0.0
C1361 C 0.88063 0.2669 0.81749 0.0
C1362 C 0.85917 0.26074 0.80026 0.0
C1363 C 0.48815 0.93021 0.49955 0.0
C1364 C 0.50882 0.94092 0.51505 0.0
C1365 C 0.49066 0.90854 0.48599 0.0
C1366 C 0.51396 0.89686 0.48743 0.0
H1367 H 0.47007 0.93893 0.4976 0.0
H1368 H 0.47446 0.90122 0.47386 0.0
S1369 S 0.57277 0.91578 0.52749 0.0
N1370 N 0.55254 0.93699 0.53264 0.0
N1371 N 0.55733 0.89639 0.50706 0.0
C1372 C 0.53444 0.90686 0.50353 0.0
C1373 C 0.53181 0.92879 0.51745 0.0
C1374 C 0.17273 0.27934 0.80074 0.0
C1375 C 0.1809 0.30361 0.78788 0.0
C1376 C 0.15143 0.27617 0.81687 0.0
C1377 C 0.13767 0.29719 0.82087 0.0
H1378 H 0.1832 0.26279 0.79875 0.0
H1379 H 0.14599 0.25726 0.82668 0.0
S1380 S 0.14931 0.36396 0.78976 0.0
N1381 N 0.17205 0.34845 0.7787 0.0
N1382 N 0.13247 0.34255 0.80946 0.0
C1383 C 0.14521 0.32136 0.80773 0.0
C1384 C 0.1667 0.32456 0.79113 0.0
C1385 C 0.54622 0.61371 0.51361 0.0
C1386 C 0.5437 0.61421 0.53996 0.0
C1387 C 0.54414 0.63594 0.49709 0.0
C1388 C 0.53915 0.65958 0.50615 0.0
H1389 H 0.5495 0.5959 0.50557 0.0
H1390 H 0.54659 0.63455 0.47703 0.0
S1391 S 0.53121 0.67136 0.5736 0.0
N1392 N 0.53717 0.64079 0.57448 0.0
N1393 N 0.53123 0.6819 0.54333 0.0
C1394 C 0.53653 0.66034 0.53248 0.0
C1395 C 0.53922 0.63785 0.54936 0.0
C1396 C 0.86706 0.80228 0.74878 0.0
C1397 C 0.8535 0.78127 0.7631 0.0
C1398 C 0.88911 0.79905 0.73521 0.0
C1399 C 0.89852 0.77466 0.73546 0.0
H1400 H 0.86042 0.82135 0.74796 0.0
H1401 H 0.89894 0.81585 0.72451 0.0
S1402 S 0.86988 0.71339 0.77009 0.0
N1403 N 0.85118 0.73531 0.77707 0.0
N1404 N 0.89224 0.72905 0.75115 0.0
C1405 C 0.88523 0.75352 0.74993 0.0
C1406 C 0.86283 0.75687 0.76383 0.0
C1407 C 0.05994 0.90613 0.52786 0.0
C1408 C 0.0652 0.93073 0.53755 0.0
C1409 C 0.05359 0.88363 0.54399 0.0
C1410 C 0.05186 0.88501 0.57031 0.0
H1411 H 0.06106 0.90426 0.50769 0.0
H1412 H 0.04977 0.86503 0.5358 0.0
S1413 S 0.06352 0.94474 0.60507 0.0
N1414 N 0.06808 0.95517 0.57505 0.0
N1415 N 0.05603 0.91288 0.60535 0.0
C1416 C 0.05689 0.90949 0.5802 0.0
C1417 C 0.06364 0.93234 0.56384 0.0
C1418 C 0.16472 0.72786 0.78051 0.0
C1419 C 0.18217 0.75008 0.78516 0.0
C1420 C 0.14321 0.72938 0.76361 0.0
C1421 C 0.13839 0.75316 0.75061 0.0
H1422 H 0.16753 0.7092 0.79028 0.0
H1423 H 0.13005 0.71183 0.76098 0.0
S1424 S 0.17965 0.81657 0.75457 0.0
N1425 N 0.19404 0.79629 0.77458 0.0
N1426 N 0.15388 0.79915 0.74248 0.0
C1427 C 0.156 0.77546 0.7548 0.0
C1428 C 0.1778 0.77391 0.77214 0.0
C1429 C 0.99181 0.59934 0.56712 0.0
C1430 C 0.99664 0.60408 0.54103 0.0
C1431 C 0.9946 0.61967 0.58335 0.0
C1432 C 1.00219 0.64559 0.57413 0.0
H1433 H 0.98592 0.57972 0.5751 0.0
H1434 H 0.99039 0.61508 0.60321 0.0
S1435 S 0.01753 0.66841 0.50745 0.0
N1436 N 1.00922 0.63675 0.50673 0.0
N1437 N 0.01535 0.67472 0.53732 0.0
C1438 C 1.00735 0.65056 0.54814 0.0
C1439 C 1.00441 0.62989 0.53161 0.0
C1440 C 0.79025 0.85904 0.26071 0.0
C1441 C 0.76307 0.85955 0.25795 0.0
C1442 C 0.80732 0.88207 0.26235 0.0
C1443 C 0.79785 0.90647 0.26124 0.0
H1444 H 0.79834 0.84066 0.26195 0.0
H1445 H 0.82808 0.88074 0.26485 0.0
S1446 S 0.72857 0.91851 0.25172 0.0
N1447 N 0.72761 0.88655 0.25264 0.0
N1448 N 0.75968 0.92982 0.25562 0.0
C1449 C 0.77076 0.90726 0.25802 0.0
C1450 C 0.75339 0.88383 0.25639 0.0
C1451 C 0.82382 0.1916 0.30801 0.0
C1452 C 0.79782 0.19342 0.29969 0.0
C1453 C 0.83601 0.16954 0.30427 0.0
C1454 C 0.82268 0.14849 0.29202 0.0
H1455 H 0.83492 0.20744 0.31727 0.0
H1456 H 0.85619 0.16916 0.31064 0.0
S1457 S 0.75382 0.14331 0.26785 0.0
N1458 N 0.75891 0.17223 0.27928 0.0
N1459 N 0.78156 0.13051 0.27262 0.0
C1460 C 0.79652 0.14997 0.28394 0.0
C1461 C 0.78417 0.17247 0.28771 0.0
C1462 C 0.42521 0.01836 0.02846 0.0
C1463 C 0.43449 0.03165 1.00575 0.0
C1464 C 0.40242 1.00064 0.02856 0.0
C1465 C 0.3879 0.99572 1.006 0.0
H1466 H 0.43588 0.02139 0.04624 0.0
H1467 H 0.39602 0.9908 0.04648 0.0
S1468 S 0.40355 0.02591 0.9416 0.0
N1469 N 0.4271 0.03914 0.9602 0.0
N1470 N 0.38441 1.00559 0.96037 0.0
C1471 C 0.39681 1.00907 0.98321 0.0
C1472 C 0.42009 0.02704 0.98309 0.0
C1473 C 0.25584 0.35407 0.3026 0.0
C1474 C 0.26778 0.34945 0.32673 0.0
C1475 C 0.23907 0.37339 0.29792 0.0
C1476 C 0.23323 0.38861 0.31725 0.0
H1477 H 0.25943 0.34263 0.28715 0.0
H1478 H 0.23053 0.37642 0.27902 0.0
S1479 S 0.26002 0.38547 0.38332 0.0
N1480 N 0.27325 0.36279 0.3699 0.0
N1481 N 0.24099 0.3984 0.36117 0.0
C1482 C 0.24475 0.38417 0.34146 0.0
C1483 C 0.26216 0.36477 0.34619 0.0
C1484 C 0.14277 0.02071 0.49415 0.0
C1485 C 0.12573 0.01156 0.51389 0.0
C1486 C 0.16557 0.03761 0.49853 0.0
C1487 C 0.17214 0.04615 0.5228 0.0
H1488 H 0.13859 0.01458 0.47517 0.0
H1489 H 0.17799 0.0443 0.4827 0.0
S1490 S 0.13408 0.02789 0.58098 0.0
N1491 N 0.11681 0.0126 0.55858 0.0
N1492 N 0.16 0.04374 0.56697 0.0
C1493 C 0.15531 0.03709 0.54274 0.0
C1494 C 0.13207 0.01992 0.53826 0.0
C1495 C 0.77482 0.15668 0.7436 0.0
C1496 C 0.77914 0.17408 0.76279 0.0
C1497 C 0.75839 0.13319 0.74733 0.0
C1498 C 0.74558 0.1263 0.77035 0.0
H1499 H 0.78443 0.16116 0.72567 0.0
H1500 H 0.75592 0.1202 0.73217 0.0
S1501 S 0.74865 0.16634 0.82566 0.0
N1502 N 0.76833 0.18355 0.80506 0.0
N1503 N 0.73715 0.13962 0.812 0.0
C1504 C 0.74943 0.14378 0.78952 0.0
C1505 C 0.76627 0.1676 0.78576 0.0
C1506 C 0.43648 0.0372 0.59771 0.0
C1507 C 0.45142 0.03174 0.57753 0.0
C1508 C 0.41725 0.05422 0.59395 0.0
C1509 C 0.41208 0.06651 0.56984 0.0
H1510 H 0.43921 0.02778 0.6165 0.0
H1511 H 0.40625 0.05767 0.61011 0.0
S1512 S 0.44646 0.05958 0.51081 0.0
N1513 N 0.4607 0.04119 0.53278 0.0
N1514 N 0.42374 0.07198 0.52544 0.0
C1515 C 0.42717 0.06152 0.54956 0.0
C1516 C 0.44696 0.04442 0.55346 0.0
C1517 C 0.61408 0.48694 0.56447 0.0
C1518 C 0.60197 0.50229 0.54546 0.0
C1519 C 0.63631 0.4753 0.55948 0.0
C1520 C 0.64717 0.47855 0.53528 0.0
H1521 H 0.60603 0.48361 0.58322 0.0
H1522 H 0.64469 0.46315 0.57451 0.0
S1523 S 0.62434 0.51898 0.47974 0.0
N1524 N 0.60357 0.5217 0.50207 0.0
N1525 N 0.64523 0.49965 0.49265 0.0
C1526 C 0.63572 0.49451 0.51634 0.0
C1527 C 0.61321 0.50651 0.52147 0.0
C1528 C 0.76021 0.29453 0.36981 0.0
C1529 C 0.73564 0.28071 0.36454 0.0
C1530 C 0.76385 0.31105 0.3897 0.0
C1531 C 0.74312 0.31424 0.40523 0.0
H1532 H 0.77672 0.29276 0.3583 0.0
H1533 H 0.78314 0.32119 0.39311 0.0
S1534 S 0.67493 0.28244 0.39943 0.0
N1535 N 0.69032 0.27107 0.37673 0.0
N1536 N 0.69702 0.30254 0.41369 0.0
C1537 C 0.71845 0.30056 0.40016 0.0
C1538 C 0.71474 0.28375 0.37991 0.0
C1539 C 0.52591 0.05029 0.91123 0.0
C1540 C 0.53825 0.06176 0.93245 0.0
C1541 C 0.54023 0.03891 0.89405 0.0
C1542 C 0.56734 0.03832 0.8976 0.0
H1543 H 0.50512 0.05054 0.90762 0.0
H1544 H 0.53003 0.03071 0.87771 0.0
S1545 S 0.60865 0.06512 0.95058 0.0
N1546 N 0.57889 0.07132 0.95645 0.0
N1547 N 0.60588 0.04991 0.92418 0.0
C1548 C 0.57977 0.04911 0.91912 0.0
C1549 C 0.5652 0.06082 0.93653 0.0
C1550 C 0.30133 0.2487 0.37924 0.0
C1551 C 0.3027 0.27579 0.38048 0.0
C1552 C 0.30135 0.23184 0.40136 0.0
C1553 C 0.30293 0.24141 0.42562 0.0
H1554 H 0.29994 0.24046 0.36099 0.0
H1555 H 0.29976 0.21109 0.39943 0.0
S1556 S 0.30922 0.31104 0.43904 0.0
N1557 N 0.30696 0.31157 0.40779 0.0
N1558 N 0.30752 0.28001 0.44937 0.0
C1559 C 0.30477 0.26855 0.42706 0.0
C1560 C 0.30454 0.28568 0.40452 0.0
C1561 C 0.51994 0.511 0.91936 0.0
C1562 C 0.50832 0.50428 0.94298 0.0
C1563 C 0.50467 0.51348 0.89695 0.0
C1564 C 0.47722 0.50974 0.89744 0.0
H1565 H 0.54102 0.51457 0.91827 0.0
H1566 H 0.51439 0.51892 0.87919 0.0
S1567 S 0.4372 0.49128 0.95422 0.0
N1568 N 0.46769 0.49347 0.96539 0.0
N1569 N 0.43903 0.49828 0.92328 0.0
C1570 C 0.46536 0.50287 0.92087 0.0
C1571 C 0.48089 0.50014 0.94365 0.0
C1572 C 0.72232 0.74976 0.16004 0.0
C1573 C 0.7386 0.76027 0.17952 0.0
C1574 C 0.73081 0.73208 0.14445 0.0
C1575 C 0.75603 0.72425 0.14759 0.0
H1576 H 0.70295 0.75557 0.15652 0.0
H1577 H 0.7177 0.72505 0.12934 0.0
S1578 S 0.80624 0.74601 0.19608 0.0
N1579 N 0.78129 0.76194 0.20093 0.0
N1580 N 0.79695 0.72791 0.17232 0.0
C1581 C 0.77247 0.73448 0.16718 0.0
C1582 C 0.76387 0.75271 0.1829 0.0
C1583 C 0.01331 0.07921 0.13037 0.0
C1584 C 0.01746 0.05846 0.11603 0.0
C1585 C 0.9968 0.0754 0.15112 0.0
C1586 C 0.98375 0.05067 0.15843 0.0
H1587 H 0.02295 0.09861 0.12556 0.0
H1588 H 0.99394 0.09208 0.16127 0.0
S1589 S 0.98842 0.9897 0.12763 0.0
N1590 N 1.00701 0.01224 0.11061 0.0
N1591 N 0.97696 1.00486 0.15025 0.0
C1592 C 0.98804 0.02965 0.14451 0.0
C1593 C 1.00468 0.03358 0.12324 0.0
C1594 C 0.2994 0.81586 0.18492 0.0
C1595 C 0.29084 0.78917 0.18929 0.0
C1596 C 0.2958 0.82899 0.16105 0.0
C1597 C 0.28356 0.8159 0.14067 0.0
H1598 H 0.30876 0.82672 0.20011 0.0
H1599 H 0.3023 0.84965 0.15864 0.0
S1600 S 0.25917 0.74557 0.14207 0.0
N1601 N 0.2705 0.74987 0.17126 0.0
N1602 N 0.26405 0.7744 0.12622 0.0
C1603 C 0.27532 0.78909 0.14473 0.0
C1604 C 0.27894 0.77576 0.16906 0.0
C1605 C 0.027 0.47123 0.14135 0.0
C1606 C 0.0225 0.49455 0.12724 0.0
C1607 C 0.04406 0.47126 0.1627 0.0
C1608 C 0.05724 0.49461 0.17084 0.0
H1609 H 0.01702 0.4528 0.13601 0.0
H1610 H 0.0467 0.45287 0.17311 0.0
S1611 S 0.05392 0.56072 0.13939 0.0
N1612 N 0.03376 0.54148 0.12219 0.0
N1613 N 0.0657 0.54154 0.16234 0.0
C1614 C 0.05316 0.51803 0.15676 0.0
C1615 C 0.03583 0.518 0.13499 0.0
C1616 C 0.38149 0.71812 0.29673 0.0
C1617 C 0.36249 0.73515 0.291 0.0
C1618 C 0.40253 0.72444 0.31364 0.0
C1619 C 0.40527 0.74796 0.32554 0.0
H1620 H 0.38039 0.70005 0.28764 0.0
H1621 H 0.41706 0.71104 0.31697 0.0
S1622 S 0.3591 0.7978 0.31899 0.0
N1623 N 0.3467 0.77562 0.29978 0.0
N1624 N 0.38599 0.78736 0.33184 0.0
C1625 C 0.38593 0.76478 0.32051 0.0
C1626 C 0.36462 0.75841 0.30319 0.0
C1627 C 0.98591 0.42751 0.99998 0.0
C1628 C 1.00777 0.4399 0.0128 0.0
C1629 C 0.98786 0.40558 0.9866 0.0
C1630 C 1.0118 0.39535 0.98547 0.0
H1631 H 0.96723 0.43504 1.00008 0.0
H1632 H 0.97064 0.39688 0.97666 0.0
S1633 S 0.07428 0.41927 0.01765 0.0
N1634 N 0.05368 0.43934 0.02488 0.0
N1635 N 0.0574 0.39828 0.99962 0.0
C1636 C 0.03364 0.40718 0.99874 0.0
C1637 C 0.0316 0.42937 0.0125 0.0
C1638 C 0.6679 0.82224 0.29012 0.0
C1639 C 0.68273 0.80191 0.28628 0.0
C1640 C 0.64687 0.81846 0.30653 0.0
C1641 C 0.63974 0.79418 0.31979 0.0
H1642 H 0.67264 0.84132 0.28041 0.0
H1643 H 0.63648 0.83489 0.30925 0.0
S1644 S 0.67145 0.73425 0.31566 0.0
N1645 N 0.68857 0.75648 0.29696 0.0
N1646 N 0.64835 0.74909 0.32694 0.0
C1647 C 0.65398 0.7735 0.31568 0.0
C1648 C 0.67556 0.7774 0.2991 0.0
C1649 C 0.0203 0.11785 0.02729 0.0
C1650 C 0.0452 0.11269 0.0367 0.0
C1651 C 0.01719 0.13949 1.01028 0.0
C1652 C 0.03884 0.15693 1.00218 0.0
H1653 H 1.00307 0.10493 0.03298 0.0
H1654 H 0.99762 0.14277 1.00366 0.0
S1655 S 0.10824 0.15214 0.02111 0.0
N1656 N 0.09189 0.12689 0.03678 0.0
N1657 N 0.08609 0.16731 1.00446 0.0
C1658 C 0.06386 0.15196 0.01138 0.0
C1659 C 0.06703 0.12989 0.02866 0.0
C1660 C 0.36211 0.29715 0.24 0.0
C1661 C 0.35823 0.28677 0.26515 0.0
C1662 C 0.38445 0.29339 0.22711 0.0
C1663 C 0.40374 0.27909 0.23887 0.0
H1664 H 0.34761 0.30797 0.23009 0.0
H1665 H 0.38637 0.3013 0.20759 0.0
S1666 S 0.40364 0.24967 0.30522 0.0
N1667 N 0.37595 0.26273 0.30176 0.0
N1668 N 0.41813 0.25589 0.27773 0.0
C1669 C 0.40035 0.26916 0.26424 0.0
C1670 C 0.37759 0.273 0.27733 0.0
C1671 C 0.58294 0.41182 0.04419 0.0
C1672 C 0.56502 0.43009 0.0391 0.0
C1673 C 0.57687 0.38949 0.06062 0.0
C1674 C 0.55282 0.38481 0.07282 0.0
H1675 H 0.60165 0.41463 0.03513 0.0
H1676 H 0.5912 0.37587 0.06398 0.0
S1677 S 0.49934 0.42684 0.06612 0.0
N1678 N 0.52238 0.44221 0.04776 0.0
N1679 N 0.51095 0.40021 0.0786 0.0
C1680 C 0.53482 0.40302 0.06803 0.0
C1681 C 0.5409 0.42564 0.05115 0.0
C1682 C 0.65991 0.25087 0.29613 0.0
C1683 C 0.68511 0.2498 0.28728 0.0
C1684 C 0.63833 0.25214 0.27927 0.0
C1685 C 0.6411 0.25251 0.25288 0.0
H1686 H 0.65678 0.25047 0.3163 0.0
H1687 H 0.61935 0.2531 0.28697 0.0
S1688 S 0.70285 0.25013 0.21992 0.0
N1689 N 0.71163 0.24963 0.2503 0.0
N1690 N 0.67097 0.25124 0.2187 0.0
C1691 C 0.66617 0.25141 0.24376 0.0
C1692 C 0.68816 0.25018 0.26092 0.0
C1693 C 0.49643 0.13286 0.03335 0.0
C1694 C 0.4902 0.10663 0.04221 0.0
C1695 C 0.49988 0.15263 0.0502 0.0
C1696 C 0.49766 0.1468 0.07652 0.0
H1697 H 0.49841 0.13815 0.01323 0.0
H1698 H 0.50469 0.17258 0.04262 0.0
S1699 S 0.48181 0.08124 0.10932 0.0
N1700 N 0.48195 0.07589 0.07897 0.0
N1701 N 0.4887 0.11302 0.11064 0.0
C1702 C 0.49154 0.12066 0.08562 0.0
C1703 C 0.4877 0.10059 0.06845 0.0
C1704 C 0.25553 0.3802 0.76082 0.0
C1705 C 0.26466 0.35573 0.76067 0.0
C1706 C 0.27288 0.40298 0.76254 0.0
C1707 C 0.30004 0.40221 0.76403 0.0
H1708 H 0.23476 0.3818 0.75935 0.0
H1709 H 0.26497 0.42139 0.76241 0.0
S1710 S 0.33402 0.34308 0.7659 0.0
N1711 N 0.30269 0.33205 0.76328 0.0
N1712 N 0.33532 0.37499 0.76622 0.0
C1713 C 0.30949 0.37793 0.764 0.0
C1714 C 0.29181 0.35468 0.76238 0.0
C1715 C 0.30156 0.67504 0.81732 0.0
C1716 C 0.29374 0.6912 0.79649 0.0
C1717 C 0.31404 0.65309 0.81386 0.0
C1718 C 0.31925 0.64647 0.78941 0.0
H1719 H 0.29823 0.67959 0.83646 0.0
H1720 H 0.31967 0.6412 0.83048 0.0
S1721 S 0.30334 0.6829 0.7286 0.0
N1722 N 0.29225 0.69923 0.75056 0.0
N1723 N 0.31606 0.65826 0.74405 0.0
C1724 C 0.31143 0.66244 0.76841 0.0
C1725 C 0.29865 0.68475 0.77195 0.0
C1726 C 0.91715 0.53505 0.51286 0.0
C1727 C 0.94127 0.52585 0.50948 0.0
C1728 C 0.89372 0.51824 0.51341 0.0
C1729 C 0.89327 0.4915 0.51031 0.0
H1730 H 0.91626 0.55552 0.51483 0.0
H1731 H 0.87581 0.52631 0.51648 0.0
S1732 S 0.95103 0.45746 0.50069 0.0
N1733 N 0.9633 0.48794 0.50378 0.0
N1734 N 0.91914 0.45675 0.50298 0.0
C1735 C 0.91723 0.48204 0.5067 0.0
C1736 C 0.94118 0.49909 0.50665 0.0
C1737 C 0.74278 0.84521 0.83146 0.0
C1738 C 0.76953 0.85007 0.82605 0.0
C1739 C 0.72619 0.86479 0.82717 0.0
C1740 C 0.7357 0.89009 0.81746 0.0
H1741 H 0.73449 0.826 0.83872 0.0
H1742 H 0.70578 0.86012 0.8317 0.0
S1743 S 0.80425 0.91303 0.80039 0.0
N1744 N 0.80486 0.88232 0.81102 0.0
N1745 N 0.77363 0.91877 0.80221 0.0
C1746 C 0.76243 0.89522 0.81203 0.0
C1747 C 0.77932 0.87532 0.81647 0.0
C1748 C 0.63197 0.51919 0.0348 0.0
C1749 C 0.62622 0.50892 0.01113 0.0
C1750 C 0.65448 0.53664 0.03871 0.0
C1751 C 0.67223 0.54418 0.0192 0.0
H1752 H 0.61872 0.51404 0.05028 0.0
H1753 H 0.65811 0.54415 0.0572 0.0
S1754 S 0.66638 0.52251 0.95389 0.0
N1755 N 0.64027 0.50723 0.96805 0.0
N1756 N 0.68254 0.54009 0.97537 0.0
C1757 C 0.66684 0.53386 0.99553 0.0
C1758 C 0.64383 0.51626 0.99149 0.0
C1759 C 0.26076 0.67272 0.25688 0.0
C1760 C 0.28804 0.67294 0.25963 0.0
C1761 C 0.24396 0.6494 0.25935 0.0
C1762 C 0.25376 0.62537 0.26476 0.0
H1763 H 0.25227 0.69077 0.25304 0.0
H1764 H 0.22308 0.65021 0.2573 0.0
S1765 S 0.32363 0.61504 0.27219 0.0
N1766 N 0.32413 0.64689 0.26696 0.0
N1767 N 0.29247 0.60304 0.27185 0.0
C1768 C 0.28097 0.62524 0.26744 0.0
C1769 C 0.29812 0.64901 0.26483 0.0
C1770 C 0.95307 0.55421 0.07639 0.0
C1771 C 0.94649 0.52705 0.07689 0.0
C1772 C 0.9338 0.57121 0.07247 0.0
C1773 C 0.90725 0.56161 0.06941 0.0
H1774 H 0.9733 0.56236 0.07868 0.0
H1775 H 0.93966 0.59199 0.0721 0.0
S1776 S 0.87982 0.49217 0.0695 0.0
N1777 N 0.91158 0.4914 0.07414 0.0
N1778 N 0.87542 0.52327 0.067 0.0
C1779 C 0.90043 0.53451 0.07006 0.0
C1780 C 0.92003 0.51726 0.07372 0.0
C1781 C 0.11127 0.99817 0.02167 0.0
C1782 C 0.10219 0.99898 0.04629 0.0
C1783 C 0.13272 0.98503 0.01743 0.0
C1784 C 0.14604 0.97246 0.03767 0.0
H1785 H 0.10159 1.00757 1.00554 0.0
H1786 H 0.13905 0.98485 0.99817 0.0
S1787 S 0.12974 0.9688 0.10567 0.0
N1788 N 0.10798 0.98615 0.0911 0.0
N1789 N 0.14832 0.96143 0.08322 0.0
C1790 C 0.13726 0.97334 0.0624 0.0
C1791 C 0.11534 0.98661 0.06667 0.0
loop_
_geom_bond_atom_site_label_1
_geom_bond_atom_site_label_2
_geom_bond_distance
_geom_bond_site_symmetry_2
_ccdc_geom_bond_type
H0 C7 0.929 . S
H1 C10 0.930 . S
H2 C12 0.929 1_556 S
H3 C4 0.969 . S
C4 H3 0.969 . S
C4 O5 1.550 1_565 S
C4 H6 0.973 . S
O5 C4 1.550 1_545 S
O5 C11 1.412 . S
H6 C4 0.973 . S
C7 H0 0.929 . S
C7 C8 1.400 1_655 S
C7 C9 1.364 1_655 S
C8 C7 1.400 1_455 S
C8 C12 1.377 . S
C9 C7 1.364 1_455 S
C9 C10 1.374 . S
C10 H1 0.930 . S
C10 C9 1.374 . S
C10 C11 1.383 . S
C11 O5 1.412 . S
C11 C10 1.383 . S
C11 C12 1.394 . S
C12 H2 0.929 1_554 S
C12 C8 1.377 . S
C12 C11 1.394 . S
H13 C20 0.929 . S
H14 C23 0.930 . S
H15 C25 0.929 . S
H16 C17 0.969 . S
C17 H16 0.969 . S
C17 O18 1.550 . S
C17 H19 0.973 . S
O18 C17 1.550 . S
O18 C24 1.412 . S
H19 C17 0.973 . S
C20 H13 0.929 . S
C20 C21 1.400 . S
C20 C22 1.364 . S
C21 C20 1.400 . S
C21 C25 1.377 . S
C22 C20 1.364 . S
C22 C23 1.374 . S
C23 H14 0.930 . S
C23 C22 1.374 . S
C23 C24 1.383 . S
C24 O18 1.412 . S
C24 C23 1.383 . S
C24 C25 1.394 . S
C25 H15 0.929 . S
C25 C21 1.377 . S
C25 C24 1.394 . S
H26 C33 0.929 . S
H27 C36 0.930 . S
H28 C38 0.929 . S
H29 C30 0.969 . S
C30 H29 0.969 . S
C30 O31 1.550 . S
C30 H32 0.973 . S
O31 C30 1.550 . S
O31 C37 1.412 . S
H32 C30 0.973 . S
C33 H26 0.929 . S
C33 C34 1.400 . S
C33 C35 1.364 . S
C34 C33 1.400 . S
C34 C38 1.377 1_655 S
C35 C33 1.364 . S
C35 C36 1.374 . S
C36 H27 0.930 . S
C36 C35 1.374 . S
C36 C37 1.383 . S
C37 O31 1.412 . S
C37 C36 1.383 . S
C37 C38 1.394 1_655 S
C38 H28 0.929 . S
C38 C34 1.377 1_455 S
C38 C37 1.394 1_455 S
H39 C46 0.929 . S
H40 C49 0.930 . S
H41 C51 0.929 . S
H42 C43 0.969 . S
C43 H42 0.969 . S
C43 O44 1.550 . S
C43 H45 0.973 . S
O44 C43 1.550 . S
O44 C50 1.412 . S
H45 C43 0.973 . S
C46 H39 0.929 . S
C46 C47 1.400 . S
C46 C48 1.364 . S
C47 C46 1.400 . S
C47 C51 1.377 . S
C48 C46 1.364 . S
C48 C49 1.374 . S
C49 H40 0.930 . S
C49 C48 1.374 . S
C49 C50 1.383 . S
C50 O44 1.412 . S
C50 C49 1.383 . S
C50 C51 1.394 . S
C51 H41 0.929 . S
C51 C47 1.377 . S
C51 C50 1.394 . S
H52 C59 0.929 . S
H53 C62 0.930 . S
H54 C64 0.929 . S
H55 C56 0.969 1_655 S
C56 H55 0.969 1_455 S
C56 O57 1.550 . S
C56 H58 0.973 1_455 S
O57 C56 1.550 . S
O57 C63 1.412 . S
H58 C56 0.973 1_655 S
C59 H52 0.929 . S
C59 C60 1.400 . S
C59 C61 1.364 . S
C60 C59 1.400 . S
C60 C64 1.377 1_565 S
C61 C59 1.364 . S
C61 C62 1.374 . S
C62 H53 0.930 . S
C62 C61 1.374 . S
C62 C63 1.383 . S
C63 O57 1.412 . S
C63 C62 1.383 . S
C63 C64 1.394 1_565 S
C64 H54 0.929 . S
C64 C60 1.377 1_545 S
C64 C63 1.394 1_545 S
H65 C72 0.929 . S
H66 C75 0.930 . S
H67 C77 0.929 . S
H68 C69 0.969 . S
C69 H68 0.969 . S
C69 O70 1.550 . S
C69 H71 0.973 . S
O70 C69 1.550 . S
O70 C76 1.412 . S
H71 C69 0.973 . S
C72 H65 0.929 . S
C72 C73 1.400 . S
C72 C74 1.364 . S
C73 C72 1.400 . S
C73 C77 1.377 . S
C74 C72 1.364 . S
C74 C75 1.374 . S
C75 H66 0.930 . S
C75 C74 1.374 . S
C75 C76 1.383 . S
C76 O70 1.412 . S
C76 C75 1.383 . S
C76 C77 1.394 . S
C77 H67 0.929 . S
C77 C73 1.377 . S
C77 C76 1.394 . S
H78 C85 0.929 . S
H79 C88 0.930 . S
H80 C90 0.929 . S
H81 C82 0.969 . S
C82 H81 0.969 . S
C82 O83 1.550 . S
C82 H84 0.973 . S
O83 C82 1.550 . S
O83 C89 1.393 1_455 S
H84 C82 0.973 . S
C85 H78 0.929 . S
C85 C86 1.400 . S
C85 C87 1.364 . S
C86 C85 1.400 . S
C86 C90 1.377 1_655 S
C87 C85 1.364 . S
C87 C88 1.374 . S
C88 H79 0.930 . S
C88 C87 1.374 . S
C88 C89 1.399 . S
C89 O83 1.393 1_655 S
C89 C88 1.399 . S
C89 C90 1.395 1_655 S
C90 H80 0.929 . S
C90 C86 1.377 1_455 S
C90 C89 1.395 1_455 S
H91 C98 0.929 . S
H92 C101 0.930 . S
H93 C103 0.929 . S
H94 C95 0.969 . S
C95 H94 0.969 . S
C95 O96 1.550 . S
C95 H97 0.973 . S
O96 C95 1.550 . S
O96 C102 1.412 . S
H97 C95 0.973 . S
C98 H91 0.929 . S
C98 C99 1.400 . S
C98 C100 1.364 . S
C99 C98 1.400 . S
C99 C103 1.377 . S
C100 C98 1.364 . S
C100 C101 1.374 . S
C101 H92 0.930 . S
C101 C100 1.374 . S
C101 C102 1.383 . S
C102 O96 1.412 . S
C102 C101 1.383 . S
C102 C103 1.394 . S
C103 H93 0.929 . S
C103 C99 1.377 . S
C103 C102 1.394 . S
H104 C111 0.929 . S
H105 C114 0.930 . S
H106 C116 0.929 . S
H107 C108 0.969 . S
C108 H107 0.969 . S
C108 O109 1.550 . S
C108 H110 0.973 . S
O109 C108 1.550 . S
O109 C115 1.412 . S
H110 C108 0.973 . S
C111 H104 0.929 . S
C111 C112 1.400 . S
C111 C113 1.364 . S
C112 C111 1.400 . S
C112 C116 1.377 . S
C113 C111 1.364 . S
C113 C114 1.374 . S
C114 H105 0.930 . S
C114 C113 1.374 . S
C114 C115 1.383 . S
C115 O109 1.412 . S
C115 C114 1.383 . S
C115 C116 1.394 . S
C116 H106 0.929 . S
C116 C112 1.377 . S
C116 C115 1.394 . S
H117 C124 0.929 . S
H118 C127 0.930 . S
H119 C129 0.929 . S
H120 C121 0.969 . S
C121 H120 0.969 . S
C121 O122 1.550 . S
C121 H123 0.973 . S
O122 C121 1.550 . S
O122 C128 1.412 . S
H123 C121 0.973 . S
C124 H117 0.929 . S
C124 C125 1.400 . S
C124 C126 1.364 . S
C125 C124 1.400 . S
C125 C129 1.377 . S
C126 C124 1.364 . S
C126 C127 1.374 . S
C127 H118 0.930 . S
C127 C126 1.374 . S
C127 C128 1.383 . S
C128 O122 1.412 . S
C128 C127 1.383 . S
C128 C129 1.394 . S
C129 H119 0.929 . S
C129 C125 1.377 . S
C129 C128 1.394 . S
H130 C137 0.929 . S
H131 C140 0.930 . S
H132 C142 0.929 . S
H133 C134 0.969 . S
C134 H133 0.969 . S
C134 O135 1.550 . S
C134 H136 0.973 . S
O135 C134 1.550 . S
O135 C141 1.412 . S
H136 C134 0.973 . S
C137 H130 0.929 . S
C137 C138 1.400 . S
C137 C139 1.364 . S
C138 C137 1.400 . S
C138 C142 1.377 . S
C139 C137 1.364 . S
C139 C140 1.374 . S
C140 H131 0.930 . S
C140 C139 1.374 . S
C140 C141 1.383 . S
C141 O135 1.412 . S
C141 C140 1.383 . S
C141 C142 1.394 . S
C142 H132 0.929 . S
C142 C138 1.377 . S
C142 C141 1.394 . S
H143 C150 0.929 . S
H144 C153 0.930 . S
H145 C155 0.929 . S
H146 C147 0.969 . S
C147 H146 0.969 . S
C147 O148 1.550 . S
C147 H149 0.973 . S
O148 C147 1.550 . S
O148 C154 1.412 . S
H149 C147 0.973 . S
C150 H143 0.929 . S
C150 C151 1.400 . S
C150 C152 1.364 . S
C151 C150 1.400 . S
C151 C155 1.377 . S
C152 C150 1.364 . S
C152 C153 1.374 . S
C153 H144 0.930 . S
C153 C152 1.374 . S
C153 C154 1.383 . S
C154 O148 1.412 . S
C154 C153 1.383 . S
C154 C155 1.394 . S
C155 H145 0.929 . S
C155 C151 1.377 . S
C155 C154 1.394 . S
H156 C163 0.929 . S
H157 C166 0.930 . S
H158 C168 0.929 . S
H159 C160 0.969 . S
C160 H159 0.969 . S
C160 O161 1.550 . S
C160 H162 0.973 . S
O161 C160 1.550 . S
O161 C167 1.412 . S
H162 C160 0.973 . S
C163 H156 0.929 . S
C163 C164 1.400 . S
C163 C165 1.364 . S
C164 C163 1.400 . S
C164 C168 1.377 . S
C165 C163 1.364 . S
C165 C166 1.374 . S
C166 H157 0.930 . S
C166 C165 1.374 . S
C166 C167 1.383 . S
C167 O161 1.412 . S
C167 C166 1.383 . S
C167 C168 1.394 . S
C168 H158 0.929 . S
C168 C164 1.377 . S
C168 C167 1.394 . S
H169 C176 0.929 . S
H170 C179 0.930 . S
H171 C181 0.929 . S
H172 C173 0.969 . S
C173 H172 0.969 . S
C173 O174 1.550 . S
C173 H175 0.973 . S
O174 C173 1.550 . S
O174 C180 1.412 . S
H175 C173 0.973 . S
C176 H169 0.929 . S
C176 C177 1.400 1_554 S
C176 C178 1.352 1_554 S
C177 C176 1.400 1_556 S
C177 C181 1.377 . S
C178 C176 1.352 1_556 S
C178 C179 1.408 . S
C179 H170 0.930 . S
C179 C178 1.408 . S
C179 C180 1.383 . S
C180 O174 1.412 . S
C180 C179 1.383 . S
C180 C181 1.394 . S
C181 H171 0.929 . S
C181 C177 1.377 . S
C181 C180 1.394 . S
H182 C189 0.929 . S
H183 C192 0.930 . S
H184 C194 0.929 . S
H185 C186 0.969 . S
C186 H185 0.969 . S
C186 O187 1.550 . S
C186 H188 0.973 . S
O187 C186 1.550 . S
O187 C193 1.412 . S
H188 C186 0.973 . S
C189 H182 0.929 . S
C189 C190 1.400 . S
C189 C191 1.364 . S
C190 C189 1.400 . S
C190 C194 1.377 . S
C191 C189 1.364 . S
C191 C192 1.374 . S
C192 H183 0.930 . S
C192 C191 1.374 . S
C192 C193 1.383 . S
C193 O187 1.412 . S
C193 C192 1.383 . S
C193 C194 1.394 . S
C194 H184 0.929 . S
C194 C190 1.377 . S
C194 C193 1.394 . S
H195 C202 0.929 . S
H196 C205 0.930 . S
H197 C207 0.929 . S
H198 C199 0.969 . S
C199 H198 0.969 . S
C199 O200 1.550 . S
C199 H201 0.973 . S
O200 C199 1.550 . S
O200 C206 1.412 . S
H201 C199 0.973 . S
C202 H195 0.929 . S
C202 C203 1.400 . S
C202 C204 1.364 . S
C203 C202 1.400 . S
C203 C207 1.377 . S
C204 C202 1.364 . S
C204 C205 1.374 1_554 S
C205 H196 0.930 . S
C205 C204 1.374 1_556 S
C205 C206 1.383 . S
C206 O200 1.412 . S
C206 C205 1.383 . S
C206 C207 1.394 1_556 S
C207 H197 0.929 . S
C207 C203 1.377 . S
C207 C206 1.394 1_554 S
Li208 N225 1.990 . S
Li208 O268 1.956 . S
Li208 O269 1.970 1_556 S
Li208 O270 1.961 . S
Li209 N233 1.990 . S
Li209 O268 1.973 1_554 S
Li209 O269 1.956 . S
Li209 O271 1.961 . S
Li210 N255 1.990 . S
Li210 O268 1.959 . S
Li210 O270 1.956 . S
Li210 O271 1.970 1_556 S
Li211 N261 1.990 . S
Li211 O269 1.961 . S
Li211 O270 1.970 1_554 S
Li211 O271 1.956 . S
C212 C214 1.348 1_556 S
C212 C215 1.356 . S
C212 O268 1.324 . S
N213 C216 1.314 1_556 S
N213 C217 1.279 . S
C214 C212 1.348 1_554 S
C214 C216 1.353 . S
C214 H272 0.929 . S
C215 C212 1.356 . S
C215 C217 1.358 . S
C215 H273 0.930 . S
C216 N213 1.314 1_554 S
C216 C214 1.353 . S
C216 H274 0.930 . S
C217 N213 1.279 . S
C217 C215 1.358 . S
C217 H275 0.930 . S
C218 C221 1.348 . S
C218 C222 1.356 . S
C218 O269 1.325 . S
C219 N220 1.279 . S
C219 C222 1.358 . S
C219 H276 0.930 . S
N220 C219 1.279 . S
N220 C223 1.314 . S
C221 C218 1.348 . S
C221 C223 1.353 . S
C221 H277 0.929 . S
C222 C218 1.356 . S
C222 C219 1.358 . S
C222 H278 0.930 . S
C223 N220 1.314 . S
C223 C221 1.353 . S
C223 H279 0.930 . S
C224 N225 1.314 . S
C224 C229 1.353 . S
C224 H230 0.930 . S
N225 Li208 1.990 . S
N225 C224 1.314 . S
N225 C227 1.279 . S
C226 C227 1.358 . S
C226 C228 1.356 . S
C226 H280 0.930 . S
C227 N225 1.279 . S
C227 C226 1.358 . S
C227 H231 0.930 1_556 S
C228 C226 1.356 . S
C228 C229 1.348 . S
C229 C224 1.353 . S
C229 C228 1.348 . S
C229 H281 0.929 1_565 S
H230 C224 0.930 . S
H231 C227 0.930 1_554 S
C232 N233 1.314 . S
C232 C234 1.353 . S
C232 H238 0.930 . S
N233 Li209 1.990 . S
N233 C232 1.314 . S
N233 C236 1.279 . S
C234 C232 1.353 . S
C234 C237 1.348 . S
C234 H282 0.929 . S
C235 C236 1.358 . S
C235 C237 1.356 . S
C235 H283 0.930 . S
C236 N233 1.279 . S
C236 C235 1.358 . S
C236 H239 0.930 . S
C237 C234 1.348 . S
C237 C235 1.356 . S
H238 C232 0.930 . S
H239 C236 0.930 . S
C240 C242 1.348 . S
C240 C243 1.356 . S
C240 O270 1.325 . S
N241 C244 1.314 . S
N241 C245 1.279 . S
C242 C240 1.348 . S
C242 C244 1.353 . S
C242 H284 0.929 . S
C243 C240 1.356 . S
C243 C245 1.358 . S
C243 H285 0.930 . S
C244 N241 1.314 . S
C244 C242 1.353 . S
C244 H286 0.930 . S
C245 N241 1.279 . S
C245 C243 1.358 . S
C245 H287 0.930 . S
C246 C247 1.348 1_554 S
C246 C248 1.356 . S
C246 O271 1.325 . S
C247 C246 1.348 1_556 S
C247 C249 1.353 . S
C247 H288 0.929 . S
C248 C246 1.356 . S
C248 C250 1.358 . S
C248 H289 0.930 . S
C249 C247 1.353 . S
C249 N251 1.314 1_556 S
C249 H290 0.930 . S
C250 C248 1.358 . S
C250 N251 1.279 . S
C250 H291 0.930 . S
N251 C249 1.314 1_554 S
N251 C250 1.279 . S
C252 C254 1.353 . S
C252 N255 1.314 . S
C252 H258 0.930 . S
C253 N255 1.279 . S
C253 C256 1.358 . S
C253 H259 0.930 . S
C254 C252 1.353 . S
C254 C257 1.348 . S
C254 H292 0.929 . S
N255 Li210 1.990 . S
N255 C252 1.314 . S
N255 C253 1.279 . S
C256 C253 1.358 . S
C256 C257 1.356 . S
C256 H293 0.930 . S
C257 C254 1.348 . S
C257 C256 1.356 . S
H258 C252 0.930 . S
H259 C253 0.930 . S
C260 N261 1.314 . S
C260 C262 1.353 . S
C260 H266 0.930 . S
N261 Li211 1.990 . S
N261 C260 1.314 . S
N261 C264 1.279 . S
C262 C260 1.353 . S
C262 C265 1.348 . S
C262 H294 0.929 . S
C263 C264 1.358 . S
C263 C265 1.356 . S
C263 H295 0.930 . S
C264 N261 1.279 . S
C264 C263 1.358 . S
C264 H267 0.921 1_554 S
C265 C262 1.348 . S
C265 C263 1.356 . S
H266 C260 0.930 . S
H267 C264 0.921 1_556 S
O268 Li208 1.956 . S
O268 Li209 1.973 1_556 S
O268 Li210 1.959 . S
O268 C212 1.324 . S
O269 Li208 1.970 1_554 S
O269 Li209 1.956 . S
O269 Li211 1.961 . S
O269 C218 1.325 . S
O270 Li208 1.961 . S
O270 Li210 1.956 . S
O270 Li211 1.970 1_556 S
O270 C240 1.325 . S
O271 Li209 1.961 . S
O271 Li210 1.970 1_554 S
O271 Li211 1.956 . S
O271 C246 1.325 . S
H272 C214 0.929 . S
H273 C215 0.930 . S
H274 C216 0.930 . S
H275 C217 0.930 . S
H276 C219 0.930 . S
H277 C221 0.929 . S
H278 C222 0.930 . S
H279 C223 0.930 . S
H280 C226 0.930 . S
H281 C229 0.929 1_545 S
H282 C234 0.929 . S
H283 C235 0.930 . S
H284 C242 0.929 . S
H285 C243 0.930 . S
H286 C244 0.930 . S
H287 C245 0.930 . S
H288 C247 0.929 . S
H289 C248 0.930 . S
H290 C249 0.930 . S
H291 C250 0.930 . S
H292 C254 0.929 . S
H293 C256 0.930 . S
H294 C262 0.929 . S
H295 C263 0.930 . S
Li296 N313 1.990 . S
Li296 O356 1.956 . S
Li296 O357 1.970 . S
Li296 O358 1.961 . S
Li297 N321 1.990 . S
Li297 O356 1.970 . S
Li297 O357 1.956 . S
Li297 O359 1.961 . S
Li298 N343 1.990 . S
Li298 O356 1.961 . S
Li298 O358 1.956 . S
Li298 O359 1.970 . S
Li299 N349 1.990 . S
Li299 O357 1.961 . S
Li299 O358 1.970 . S
Li299 O359 1.956 . S
C300 C302 1.348 . S
C300 C303 1.356 . S
C300 O356 1.325 . S
N301 C304 1.314 . S
N301 C305 1.279 . S
C302 C300 1.348 . S
C302 C304 1.353 . S
C302 H360 0.929 . S
C303 C300 1.356 . S
C303 C305 1.358 . S
C303 H361 0.930 . S
C304 N301 1.314 . S
C304 C302 1.353 . S
C304 H362 0.930 . S
C305 N301 1.279 . S
C305 C303 1.358 . S
C305 H363 0.930 . S
C306 C309 1.348 . S
C306 C310 1.356 . S
C306 O357 1.325 . S
C307 N308 1.279 . S
C307 C310 1.358 . S
C307 H364 0.930 . S
N308 C307 1.279 . S
N308 C311 1.314 . S
C309 C306 1.348 . S
C309 C311 1.353 . S
C309 H365 0.929 . S
C310 C306 1.356 . S
C310 C307 1.358 . S
C310 H366 0.930 . S
C311 N308 1.314 . S
C311 C309 1.353 . S
C311 H367 0.930 . S
C312 N313 1.314 . S
C312 C317 1.353 . S
C312 H318 0.930 . S
N313 Li296 1.990 . S
N313 C312 1.314 . S
N313 C315 1.279 . S
C314 C315 1.358 . S
C314 C316 1.356 . S
C314 H368 0.930 . S
C315 N313 1.279 . S
C315 C314 1.358 . S
C315 H319 0.930 . S
C316 C314 1.356 . S
C316 C317 1.348 . S
C317 C312 1.353 . S
C317 C316 1.348 . S
C317 H369 0.929 . S
H318 C312 0.930 . S
H319 C315 0.930 . S
C320 N321 1.314 . S
C320 C322 1.353 . S
C320 H326 0.930 . S
N321 Li297 1.990 . S
N321 C320 1.314 . S
N321 C324 1.279 . S
C322 C320 1.353 . S
C322 C325 1.348 . S
C322 H370 0.929 . S
C323 C324 1.358 . S
C323 C325 1.356 . S
C323 H371 0.930 . S
C324 N321 1.279 . S
C324 C323 1.358 . S
C324 H327 0.930 . S
C325 C322 1.348 . S
C325 C323 1.356 . S
H326 C320 0.930 . S
H327 C324 0.930 . S
C328 C330 1.348 . S
C328 C331 1.356 . S
C328 O358 1.325 . S
N329 C332 1.314 . S
N329 C333 1.279 . S
C330 C328 1.348 . S
C330 C332 1.353 . S
C330 H372 0.929 . S
C331 C328 1.356 . S
C331 C333 1.358 . S
C331 H373 0.930 . S
C332 N329 1.314 . S
C332 C330 1.353 . S
C332 H374 0.930 . S
C333 N329 1.279 . S
C333 C331 1.358 . S
C333 H375 0.930 . S
C334 C335 1.348 . S
C334 C336 1.356 . S
C334 O359 1.325 . S
C335 C334 1.348 . S
C335 C337 1.353 . S
C335 H376 0.929 . S
C336 C334 1.356 . S
C336 C338 1.358 . S
C336 H377 0.930 . S
C337 C335 1.353 . S
C337 N339 1.314 . S
C337 H378 0.930 . S
C338 C336 1.358 . S
C338 N339 1.279 . S
C338 H379 0.930 . S
N339 C337 1.314 . S
N339 C338 1.279 . S
C340 C342 1.353 . S
C340 N343 1.314 . S
C340 H346 0.930 . S
C341 N343 1.279 . S
C341 C344 1.358 . S
C341 H347 0.930 . S
C342 C340 1.353 . S
C342 C345 1.348 . S
C342 H380 0.929 . S
N343 Li298 1.990 . S
N343 C340 1.314 . S
N343 C341 1.279 . S
C344 C341 1.358 . S
C344 C345 1.356 . S
C344 H381 0.930 . S
C345 C342 1.348 . S
C345 C344 1.356 . S
H346 C340 0.930 . S
H347 C341 0.930 . S
C348 N349 1.314 . S
C348 C350 1.353 . S
C348 H354 0.930 . S
N349 Li299 1.990 . S
N349 C348 1.314 . S
N349 C352 1.279 . S
C350 C348 1.353 . S
C350 C353 1.348 . S
C350 H382 0.929 . S
C351 C352 1.358 . S
C351 C353 1.356 . S
C351 H383 0.930 . S
C352 N349 1.279 . S
C352 C351 1.358 . S
C352 H355 0.930 . S
C353 C350 1.348 . S
C353 C351 1.356 . S
H354 C348 0.930 . S
H355 C352 0.930 . S
O356 Li296 1.956 . S
O356 Li297 1.970 . S
O356 Li298 1.961 . S
O356 C300 1.325 . S
O357 Li296 1.970 . S
O357 Li297 1.956 . S
O357 Li299 1.961 . S
O357 C306 1.325 . S
O358 Li296 1.961 . S
O358 Li298 1.956 . S
O358 Li299 1.970 . S
O358 C328 1.325 . S
O359 Li297 1.961 . S
O359 Li298 1.970 . S
O359 Li299 1.956 . S
O359 C334 1.325 . S
H360 C302 0.929 . S
H361 C303 0.930 . S
H362 C304 0.930 . S
H363 C305 0.930 . S
H364 C307 0.930 . S
H365 C309 0.929 . S
H366 C310 0.930 . S
H367 C311 0.930 . S
H368 C314 0.930 . S
H369 C317 0.929 . S
H370 C322 0.929 . S
H371 C323 0.930 . S
H372 C330 0.929 . S
H373 C331 0.930 . S
H374 C332 0.930 . S
H375 C333 0.930 . S
H376 C335 0.929 . S
H377 C336 0.930 . S
H378 C337 0.930 . S
H379 C338 0.930 . S
H380 C342 0.929 . S
H381 C344 0.930 . S
H382 C350 0.929 . S
H383 C351 0.930 . S
Li384 N401 1.990 . S
Li384 O444 1.956 . S
Li384 O445 1.970 . S
Li384 O446 1.961 . S
Li385 N409 1.990 . S
Li385 O444 1.970 . S
Li385 O445 1.956 . S
Li385 O447 1.961 . S
Li386 N431 1.990 1_554 S
Li386 O444 1.961 . S
Li386 O446 1.956 . S
Li386 O447 1.970 . S
Li387 N437 1.990 . S
Li387 O445 1.961 . S
Li387 O446 1.970 . S
Li387 O447 1.956 . S
C388 C390 1.348 . S
C388 C391 1.356 . S
C388 O444 1.325 . S
N389 C392 1.314 . S
N389 C393 1.279 . S
C390 C388 1.348 . S
C390 C392 1.353 . S
C390 H448 0.929 . S
C391 C388 1.356 . S
C391 C393 1.358 . S
C391 H449 0.930 1_554 S
C392 N389 1.314 . S
C392 C390 1.353 . S
C392 H450 0.930 . S
C393 N389 1.279 . S
C393 C391 1.358 . S
C393 H451 0.930 1_554 S
C394 C397 1.348 . S
C394 C398 1.356 . S
C394 O445 1.325 . S
C395 N396 1.279 . S
C395 C398 1.358 . S
C395 H452 0.930 . S
N396 C395 1.279 . S
N396 C399 1.314 . S
C397 C394 1.348 . S
C397 C399 1.353 . S
C397 H453 0.929 . S
C398 C394 1.356 . S
C398 C395 1.358 . S
C398 H454 0.930 . S
C399 N396 1.314 . S
C399 C397 1.353 . S
C399 H455 0.930 . S
C400 N401 1.314 . S
C400 C405 1.353 . S
C400 H406 0.930 . S
N401 Li384 1.990 . S
N401 C400 1.314 . S
N401 C403 1.279 . S
C402 C403 1.358 . S
C402 C404 1.356 . S
C402 H456 0.930 . S
C403 N401 1.279 . S
C403 C402 1.358 . S
C403 H407 0.930 . S
C404 C402 1.356 . S
C404 C405 1.348 . S
C405 C400 1.353 . S
C405 C404 1.348 . S
C405 H457 0.929 . S
H406 C400 0.930 . S
H407 C403 0.930 . S
C408 N409 1.314 . S
C408 C410 1.353 . S
C408 H414 0.930 . S
N409 Li385 1.990 . S
N409 C408 1.314 . S
N409 C412 1.279 . S
C410 C408 1.353 . S
C410 C413 1.348 . S
C410 H458 0.929 . S
C411 C412 1.358 . S
C411 C413 1.356 . S
C411 H459 0.930 . S
C412 N409 1.279 . S
C412 C411 1.358 . S
C412 H415 0.930 . S
C413 C410 1.348 . S
C413 C411 1.356 . S
H414 C408 0.930 . S
H415 C412 0.930 . S
C416 C418 1.348 . S
C416 C419 1.356 . S
C416 O446 1.325 1_556 S
N417 C420 1.314 . S
N417 C421 1.279 . S
C418 C416 1.348 . S
C418 C420 1.353 . S
C418 H460 0.929 1_556 S
C419 C416 1.356 . S
C419 C421 1.358 . S
C419 H461 0.930 . S
C420 N417 1.314 . S
C420 C418 1.353 . S
C420 H462 0.930 . S
C421 N417 1.279 . S
C421 C419 1.358 . S
C421 H463 0.930 . S
C422 C423 1.348 . S
C422 C424 1.356 . S
C422 O447 1.325 . S
C423 C422 1.348 . S
C423 C425 1.353 . S
C423 H464 0.929 . S
C424 C422 1.356 . S
C424 C426 1.358 . S
C424 H465 0.930 . S
C425 C423 1.353 . S
C425 N427 1.314 . S
C425 H466 0.930 . S
C426 C424 1.358 . S
C426 N427 1.279 . S
C426 H467 0.930 . S
N427 C425 1.314 . S
N427 C426 1.279 . S
C428 C430 1.353 . S
C428 N431 1.314 . S
C428 H434 0.930 1_556 S
C429 N431 1.279 . S
C429 C432 1.358 . S
C429 H435 0.930 . S
C430 C428 1.353 . S
C430 C433 1.348 . S
C430 H468 0.929 . S
N431 Li386 1.990 1_556 S
N431 C428 1.314 . S
N431 C429 1.279 . S
C432 C429 1.358 . S
C432 C433 1.356 . S
C432 H469 0.930 . S
C433 C430 1.348 . S
C433 C432 1.356 . S
H434 C428 0.930 1_554 S
H435 C429 0.930 . S
C436 N437 1.314 . S
C436 C438 1.353 . S
C436 H442 0.930 . S
N437 Li387 1.990 . S
N437 C436 1.314 . S
N437 C440 1.279 . S
C438 C436 1.353 . S
C438 C441 1.348 . S
C438 H470 0.929 . S
C439 C440 1.358 . S
C439 C441 1.356 . S
C439 H471 0.930 . S
C440 N437 1.279 . S
C440 C439 1.358 . S
C440 H443 0.930 . S
C441 C438 1.348 . S
C441 C439 1.356 . S
H442 C436 0.930 . S
H443 C440 0.930 . S
O444 Li384 1.956 . S
O444 Li385 1.970 . S
O444 Li386 1.961 . S
O444 C388 1.325 . S
O445 Li384 1.970 . S
O445 Li385 1.956 . S
O445 Li387 1.961 . S
O445 C394 1.325 . S
O446 Li384 1.961 . S
O446 Li386 1.956 . S
O446 Li387 1.970 . S
O446 C416 1.325 1_554 S
O447 Li385 1.961 . S
O447 Li386 1.970 . S
O447 Li387 1.956 . S
O447 C422 1.325 . S
H448 C390 0.929 . S
H449 C391 0.930 1_556 S
H450 C392 0.930 . S
H451 C393 0.930 1_556 S
H452 C395 0.930 . S
H453 C397 0.929 . S
H454 C398 0.930 . S
H455 C399 0.930 . S
H456 C402 0.930 . S
H457 C405 0.929 . S
H458 C410 0.929 . S
H459 C411 0.930 . S
H460 C418 0.929 1_554 S
H461 C419 0.930 . S
H462 C420 0.930 . S
H463 C421 0.930 . S
H464 C423 0.929 . S
H465 C424 0.930 . S
H466 C425 0.930 . S
H467 C426 0.930 . S
H468 C430 0.929 . S
H469 C432 0.930 . S
H470 C438 0.929 . S
H471 C439 0.930 . S
Li472 N489 1.990 . S
Li472 O532 1.956 . S
Li472 O533 1.970 . S
Li472 O534 1.961 . S
Li473 N497 1.990 . S
Li473 O532 1.970 . S
Li473 O533 1.956 . S
Li473 O535 1.961 1_545 S
Li474 N519 1.990 . S
Li474 O532 1.961 . S
Li474 O534 1.956 . S
Li474 O535 1.970 1_545 S
Li475 N525 1.990 . S
Li475 O533 1.961 1_565 S
Li475 O534 1.970 1_565 S
Li475 O535 1.956 . S
C476 C478 1.348 . S
C476 C479 1.356 . S
C476 O532 1.325 . S
N477 C480 1.314 . S
N477 C481 1.279 . S
C478 C476 1.348 . S
C478 C480 1.353 . S
C478 H536 0.929 . S
C479 C476 1.356 . S
C479 C481 1.358 . S
C479 H537 0.930 . S
C480 N477 1.314 . S
C480 C478 1.353 . S
C480 H538 0.930 . S
C481 N477 1.279 . S
C481 C479 1.358 . S
C481 H539 0.930 . S
C482 C485 1.348 . S
C482 C486 1.356 1_545 S
C482 O533 1.325 . S
C483 N484 1.279 1_565 S
C483 C486 1.358 . S
C483 H540 0.930 . S
N484 C483 1.279 1_545 S
N484 C487 1.314 . S
C485 C482 1.348 . S
C485 C487 1.353 . S
C485 H541 0.929 . S
C486 C482 1.356 1_565 S
C486 C483 1.358 . S
C486 H542 0.930 . S
C487 N484 1.314 . S
C487 C485 1.353 . S
C487 H543 0.930 . S
C488 N489 1.314 . S
C488 C493 1.353 . S
C488 H494 0.930 . S
N489 Li472 1.990 . S
N489 C488 1.314 . S
N489 C491 1.279 . S
C490 C491 1.358 . S
C490 C492 1.356 . S
C490 H544 0.930 . S
C491 N489 1.279 . S
C491 C490 1.358 . S
C491 H495 0.930 . S
C492 C490 1.356 . S
C492 C493 1.348 . S
C493 C488 1.353 . S
C493 C492 1.348 . S
C493 H545 0.929 . S
H494 C488 0.930 . S
H495 C491 0.930 . S
C496 N497 1.314 . S
C496 C498 1.353 . S
C496 H502 0.930 . S
N497 Li473 1.990 . S
N497 C496 1.314 . S
N497 C500 1.279 . S
C498 C496 1.353 . S
C498 C501 1.348 . S
C498 H546 0.914 1_545 S
C499 C500 1.358 . S
C499 C501 1.356 . S
C499 H547 0.930 . S
C500 N497 1.279 . S
C500 C499 1.358 . S
C500 H503 0.930 . S
C501 C498 1.348 . S
C501 C499 1.356 . S
H502 C496 0.930 . S
H503 C500 0.930 . S
C504 C506 1.348 . S
C504 C507 1.356 . S
C504 O534 1.325 . S
N505 C508 1.314 . S
N505 C509 1.279 . S
C506 C504 1.348 . S
C506 C508 1.353 . S
C506 H548 0.929 1_545 S
C507 C504 1.356 . S
C507 C509 1.358 . S
C507 H549 0.930 . S
C508 N505 1.314 . S
C508 C506 1.353 . S
C508 H550 0.930 1_545 S
C509 N505 1.279 . S
C509 C507 1.358 . S
C509 H551 0.930 . S
C510 C511 1.348 . S
C510 C512 1.356 . S
C510 O535 1.325 . S
C511 C510 1.348 . S
C511 C513 1.353 . S
C511 H552 0.929 . S
C512 C510 1.356 . S
C512 C514 1.358 . S
C512 H553 0.930 . S
C513 C511 1.353 . S
C513 N515 1.314 . S
C513 H554 0.930 . S
C514 C512 1.358 . S
C514 N515 1.279 . S
C514 H555 0.930 . S
N515 C513 1.314 . S
N515 C514 1.279 . S
C516 C518 1.353 . S
C516 N519 1.314 . S
C516 H522 0.930 . S
C517 N519 1.279 . S
C517 C520 1.358 . S
C517 H523 0.930 . S
C518 C516 1.353 . S
C518 C521 1.348 . S
C518 H556 0.929 . S
N519 Li474 1.990 . S
N519 C516 1.314 . S
N519 C517 1.279 . S
C520 C517 1.358 . S
C520 C521 1.356 . S
C520 H557 0.930 . S
C521 C518 1.348 . S
C521 C520 1.356 . S
H522 C516 0.930 . S
H523 C517 0.930 . S
C524 N525 1.314 . S
C524 C526 1.353 . S
C524 H530 0.930 . S
N525 Li475 1.990 . S
N525 C524 1.314 . S
N525 C528 1.279 . S
C526 C524 1.353 . S
C526 C529 1.348 . S
C526 H558 0.929 . S
C527 C528 1.358 . S
C527 C529 1.356 . S
C527 H559 0.930 . S
C528 N525 1.279 . S
C528 C527 1.358 . S
C528 H531 0.930 . S
C529 C526 1.348 . S
C529 C527 1.356 . S
H530 C524 0.930 . S
H531 C528 0.930 . S
O532 Li472 1.956 . S
O532 Li473 1.970 . S
O532 Li474 1.961 . S
O532 C476 1.325 . S
O533 Li472 1.970 . S
O533 Li473 1.956 . S
O533 Li475 1.961 1_545 S
O533 C482 1.325 . S
O534 Li472 1.961 . S
O534 Li474 1.956 . S
O534 Li475 1.970 1_545 S
O534 C504 1.325 . S
O535 Li473 1.961 1_565 S
O535 Li474 1.970 1_565 S
O535 Li475 1.956 . S
O535 C510 1.325 . S
H536 C478 0.929 . S
H537 C479 0.930 . S
H538 C480 0.930 . S
H539 C481 0.930 . S
H540 C483 0.930 . S
H541 C485 0.929 . S
H542 C486 0.930 . S
H543 C487 0.930 . S
H544 C490 0.930 . S
H545 C493 0.929 . S
H546 C498 0.914 1_565 S
H547 C499 0.930 . S
H548 C506 0.929 1_565 S
H549 C507 0.930 . S
H550 C508 0.930 1_565 S
H551 C509 0.930 . S
H552 C511 0.929 . S
H553 C512 0.930 . S
H554 C513 0.930 . S
H555 C514 0.930 . S
H556 C518 0.929 . S
H557 C520 0.930 . S
H558 C526 0.929 . S
H559 C527 0.930 . S
Li560 N577 1.990 . S
Li560 O620 1.956 . S
Li560 O621 1.970 . S
Li560 O622 1.961 . S
Li561 N585 1.990 . S
Li561 O620 1.970 . S
Li561 O621 1.956 . S
Li561 O623 1.961 . S
Li562 N607 1.990 . S
Li562 O620 1.961 . S
Li562 O622 1.956 . S
Li562 O623 1.970 . S
Li563 N613 1.990 . S
Li563 O621 1.961 . S
Li563 O622 1.970 . S
Li563 O623 1.956 . S
C564 C566 1.348 . S
C564 C567 1.356 . S
C564 O620 1.325 . S
N565 C568 1.314 . S
N565 C569 1.279 . S
C566 C564 1.348 . S
C566 C568 1.353 . S
C566 H624 0.929 . S
C567 C564 1.356 . S
C567 C569 1.358 . S
C567 H625 0.930 . S
C568 N565 1.314 . S
C568 C566 1.353 . S
C568 H626 0.930 . S
C569 N565 1.279 . S
C569 C567 1.358 . S
C569 H627 0.930 . S
C570 C573 1.348 . S
C570 C574 1.356 . S
C570 O621 1.325 . S
C571 N572 1.279 . S
C571 C574 1.358 . S
C571 H628 0.930 . S
N572 C571 1.279 . S
N572 C575 1.314 . S
C573 C570 1.348 . S
C573 C575 1.353 . S
C573 H629 0.929 . S
C574 C570 1.356 . S
C574 C571 1.358 . S
C574 H630 0.930 . S
C575 N572 1.314 . S
C575 C573 1.353 . S
C575 H631 0.930 . S
C576 N577 1.314 . S
C576 C581 1.353 . S
C576 H582 0.930 . S
N577 Li560 1.990 . S
N577 C576 1.314 . S
N577 C579 1.279 . S
C578 C579 1.358 . S
C578 C580 1.356 . S
C578 H632 0.930 . S
C579 N577 1.279 . S
C579 C578 1.358 . S
C579 H583 0.930 . S
C580 C578 1.356 . S
C580 C581 1.348 . S
C581 C576 1.353 . S
C581 C580 1.348 . S
C581 H633 0.929 . S
H582 C576 0.930 . S
H583 C579 0.930 . S
C584 N585 1.314 . S
C584 C586 1.353 . S
C584 H590 0.930 . S
N585 Li561 1.990 . S
N585 C584 1.314 . S
N585 C588 1.279 . S
C586 C584 1.353 . S
C586 C589 1.348 . S
C586 H634 0.929 . S
C587 C588 1.358 . S
C587 C589 1.356 . S
C587 H635 0.930 . S
C588 N585 1.279 . S
C588 C587 1.358 . S
C588 H591 0.930 . S
C589 C586 1.348 . S
C589 C587 1.356 . S
H590 C584 0.930 . S
H591 C588 0.930 . S
C592 C594 1.348 . S
C592 C595 1.356 . S
C592 O622 1.325 . S
N593 C596 1.314 . S
N593 C597 1.279 . S
C594 C592 1.348 . S
C594 C596 1.353 . S
C594 H636 0.929 . S
C595 C592 1.356 . S
C595 C597 1.358 . S
C595 H637 0.930 . S
C596 N593 1.314 . S
C596 C594 1.353 . S
C596 H638 0.930 . S
C597 N593 1.279 . S
C597 C595 1.358 . S
C597 H639 0.930 . S
C598 C599 1.348 . S
C598 C600 1.356 . S
C598 O623 1.325 . S
C599 C598 1.348 . S
C599 C601 1.353 . S
C599 H640 0.929 . S
C600 C598 1.356 . S
C600 C602 1.358 . S
C600 H641 0.930 . S
C601 C599 1.353 . S
C601 N603 1.314 . S
C601 H642 0.930 . S
C602 C600 1.358 . S
C602 N603 1.279 . S
C602 H643 0.930 . S
N603 C601 1.314 . S
N603 C602 1.279 . S
C604 C606 1.353 . S
C604 N607 1.314 . S
C604 H610 0.930 . S
C605 N607 1.279 . S
C605 C608 1.358 . S
C605 H611 0.930 . S
C606 C604 1.353 . S
C606 C609 1.348 . S
C606 H644 0.929 . S
N607 Li562 1.990 . S
N607 C604 1.314 . S
N607 C605 1.279 . S
C608 C605 1.358 . S
C608 C609 1.356 . S
C608 H645 0.930 . S
C609 C606 1.348 . S
C609 C608 1.356 . S
H610 C604 0.930 . S
H611 C605 0.930 . S
C612 N613 1.314 . S
C612 C614 1.353 . S
C612 H618 0.930 . S
N613 Li563 1.990 . S
N613 C612 1.314 . S
N613 C616 1.279 . S
C614 C612 1.353 . S
C614 C617 1.348 . S
C614 H646 0.929 . S
C615 C616 1.358 . S
C615 C617 1.356 . S
C615 H647 0.930 . S
C616 N613 1.279 . S
C616 C615 1.358 . S
C616 H619 0.930 . S
C617 C614 1.348 . S
C617 C615 1.356 . S
H618 C612 0.930 . S
H619 C616 0.930 . S
O620 Li560 1.956 . S
O620 Li561 1.970 . S
O620 Li562 1.961 . S
O620 C564 1.325 . S
O621 Li560 1.970 . S
O621 Li561 1.956 . S
O621 Li563 1.961 . S
O621 C570 1.325 . S
O622 Li560 1.961 . S
O622 Li562 1.956 . S
O622 Li563 1.970 . S
O622 C592 1.325 . S
O623 Li561 1.961 . S
O623 Li562 1.970 . S
O623 Li563 1.956 . S
O623 C598 1.325 . S
H624 C566 0.929 . S
H625 C567 0.930 . S
H626 C568 0.930 . S
H627 C569 0.930 . S
H628 C571 0.930 . S
H629 C573 0.929 . S
H630 C574 0.930 . S
H631 C575 0.930 . S
H632 C578 0.930 . S
H633 C581 0.929 . S
H634 C586 0.929 . S
H635 C587 0.930 . S
H636 C594 0.929 . S
H637 C595 0.930 . S
H638 C596 0.930 . S
H639 C597 0.930 . S
H640 C599 0.929 . S
H641 C600 0.930 . S
H642 C601 0.930 . S
H643 C602 0.930 . S
H644 C606 0.929 . S
H645 C608 0.930 . S
H646 C614 0.929 . S
H647 C615 0.930 . S
Li648 N665 1.990 . S
Li648 O708 1.956 . S
Li648 O709 1.970 . S
Li648 O710 1.961 . S
Li649 N673 1.990 . S
Li649 O708 1.970 . S
Li649 O709 1.956 . S
Li649 O711 1.961 . S
Li650 N695 1.990 . S
Li650 O708 1.961 . S
Li650 O710 1.956 . S
Li650 O711 1.970 . S
Li651 N701 1.990 . S
Li651 O709 1.961 . S
Li651 O710 1.970 . S
Li651 O711 1.956 . S
C652 C654 1.348 . S
C652 C655 1.356 . S
C652 O708 1.325 . S
N653 C656 1.314 . S
N653 C657 1.279 . S
C654 C652 1.348 . S
C654 C656 1.353 . S
C654 H712 0.929 . S
C655 C652 1.356 . S
C655 C657 1.358 . S
C655 H713 0.930 . S
C656 N653 1.314 . S
C656 C654 1.353 . S
C656 H714 0.930 . S
C657 N653 1.279 . S
C657 C655 1.358 . S
C657 H715 0.930 . S
C658 C661 1.348 . S
C658 C662 1.356 . S
C658 O709 1.325 . S
C659 N660 1.279 . S
C659 C662 1.358 . S
C659 H716 0.930 . S
N660 C659 1.279 . S
N660 C663 1.314 . S
C661 C658 1.348 . S
C661 C663 1.353 . S
C661 H717 0.929 . S
C662 C658 1.356 . S
C662 C659 1.358 . S
C662 H718 0.930 . S
C663 N660 1.314 . S
C663 C661 1.353 . S
C663 H719 0.930 . S
C664 N665 1.314 . S
C664 C669 1.353 . S
C664 H670 0.930 . S
N665 Li648 1.990 . S
N665 C664 1.314 . S
N665 C667 1.279 . S
C666 C667 1.358 . S
C666 C668 1.356 . S
C666 H720 0.930 . S
C667 N665 1.279 . S
C667 C666 1.358 . S
C667 H671 0.930 . S
C668 C666 1.356 . S
C668 C669 1.348 . S
C669 C664 1.353 . S
C669 C668 1.348 . S
C669 H721 0.929 . S
H670 C664 0.930 . S
H671 C667 0.930 . S
C672 N673 1.314 . S
C672 C674 1.353 . S
C672 H678 0.930 . S
N673 Li649 1.990 . S
N673 C672 1.314 . S
N673 C676 1.279 . S
C674 C672 1.353 . S
C674 C677 1.348 . S
C674 H722 0.929 . S
C675 C676 1.358 . S
C675 C677 1.356 . S
C675 H723 0.930 . S
C676 N673 1.279 . S
C676 C675 1.358 . S
C676 H679 0.930 . S
C677 C674 1.348 . S
C677 C675 1.356 . S
H678 C672 0.930 . S
H679 C676 0.930 . S
C680 C682 1.348 . S
C680 C683 1.356 . S
C680 O710 1.325 . S
N681 C684 1.314 . S
N681 C685 1.279 . S
C682 C680 1.348 . S
C682 C684 1.353 . S
C682 H724 0.929 . S
C683 C680 1.356 . S
C683 C685 1.358 . S
C683 H725 0.930 . S
C684 N681 1.314 . S
C684 C682 1.353 . S
C684 H726 0.930 . S
C685 N681 1.279 . S
C685 C683 1.358 . S
C685 H727 0.930 . S
C686 C687 1.348 . S
C686 C688 1.356 . S
C686 O711 1.325 . S
C687 C686 1.348 . S
C687 C689 1.353 . S
C687 H728 0.929 . S
C688 C686 1.356 . S
C688 C690 1.358 . S
C688 H729 0.930 . S
C689 C687 1.353 . S
C689 N691 1.314 . S
C689 H730 0.930 . S
C690 C688 1.358 . S
C690 N691 1.279 . S
C690 H731 0.930 . S
N691 C689 1.314 . S
N691 C690 1.279 . S
C692 C694 1.353 . S
C692 N695 1.314 . S
C692 H698 0.930 . S
C693 N695 1.279 . S
C693 C696 1.358 . S
C693 H699 0.930 . S
C694 C692 1.353 . S
C694 C697 1.348 . S
C694 H732 0.929 . S
N695 Li650 1.990 . S
N695 C692 1.314 . S
N695 C693 1.279 . S
C696 C693 1.358 . S
C696 C697 1.356 . S
C696 H733 0.930 . S
C697 C694 1.348 . S
C697 C696 1.356 . S
H698 C692 0.930 . S
H699 C693 0.930 . S
C700 N701 1.314 . S
C700 C702 1.353 . S
C700 H706 0.930 . S
N701 Li651 1.990 . S
N701 C700 1.314 . S
N701 C704 1.279 . S
C702 C700 1.353 . S
C702 C705 1.348 . S
C702 H734 0.929 . S
C703 C704 1.358 . S
C703 C705 1.356 . S
C703 H735 0.930 . S
C704 N701 1.279 . S
C704 C703 1.358 . S
C704 H707 0.930 . S
C705 C702 1.348 . S
C705 C703 1.356 . S
H706 C700 0.930 . S
H707 C704 0.930 . S
O708 Li648 1.956 . S
O708 Li649 1.970 . S
O708 Li650 1.961 . S
O708 C652 1.325 . S
O709 Li648 1.970 . S
O709 Li649 1.956 . S
O709 Li651 1.961 . S
O709 C658 1.325 . S
O710 Li648 1.961 . S
O710 Li650 1.956 . S
O710 Li651 1.970 . S
O710 C680 1.325 . S
O711 Li649 1.961 . S
O711 Li650 1.970 . S
O711 Li651 1.956 . S
O711 C686 1.325 . S
H712 C654 0.929 . S
H713 C655 0.930 . S
H714 C656 0.930 . S
H715 C657 0.930 . S
H716 C659 0.930 . S
H717 C661 0.929 . S
H718 C662 0.930 . S
H719 C663 0.930 . S
H720 C666 0.930 . S
H721 C669 0.929 . S
H722 C674 0.929 . S
H723 C675 0.930 . S
H724 C682 0.929 . S
H725 C683 0.930 . S
H726 C684 0.930 . S
H727 C685 0.930 . S
H728 C687 0.929 . S
H729 C688 0.930 . S
H730 C689 0.930 . S
H731 C690 0.930 . S
H732 C694 0.929 . S
H733 C696 0.930 . S
H734 C702 0.929 . S
H735 C703 0.930 . S
Li736 N753 1.990 . S
Li736 O796 1.956 . S
Li736 O797 1.970 . S
Li736 O798 1.961 . S
Li737 N761 1.990 . S
Li737 O796 1.970 . S
Li737 O797 1.956 . S
Li737 O799 1.961 . S
Li738 N783 1.990 . S
Li738 O796 1.961 . S
Li738 O798 1.956 . S
Li738 O799 1.970 . S
Li739 N789 1.990 . S
Li739 O797 1.961 . S
Li739 O798 1.970 . S
Li739 O799 1.956 . S
C740 C742 1.348 . S
C740 C743 1.356 . S
C740 O796 1.325 . S
N741 C744 1.314 . S
N741 C745 1.279 . S
C742 C740 1.348 . S
C742 C744 1.353 . S
C742 H800 0.929 . S
C743 C740 1.356 . S
C743 C745 1.358 . S
C743 H801 0.930 . S
C744 N741 1.314 . S
C744 C742 1.353 . S
C744 H802 0.930 . S
C745 N741 1.279 . S
C745 C743 1.358 . S
C745 H803 0.930 . S
C746 C749 1.348 . S
C746 C750 1.356 . S
C746 O797 1.325 . S
C747 N748 1.279 . S
C747 C750 1.358 . S
C747 H804 0.930 . S
N748 C747 1.279 . S
N748 C751 1.314 . S
C749 C746 1.348 . S
C749 C751 1.353 . S
C749 H805 0.929 . S
C750 C746 1.356 . S
C750 C747 1.358 . S
C750 H806 0.930 . S
C751 N748 1.314 . S
C751 C749 1.353 . S
C751 H807 0.930 . S
C752 N753 1.314 . S
C752 C757 1.353 . S
C752 H758 0.930 . S
N753 Li736 1.990 . S
N753 C752 1.314 . S
N753 C755 1.279 . S
C754 C755 1.358 . S
C754 C756 1.356 . S
C754 H808 0.930 . S
C755 N753 1.279 . S
C755 C754 1.358 . S
C755 H759 0.930 . S
C756 C754 1.356 . S
C756 C757 1.348 . S
C757 C752 1.353 . S
C757 C756 1.348 . S
C757 H809 0.929 . S
H758 C752 0.930 . S
H759 C755 0.930 . S
C760 N761 1.314 . S
C760 C762 1.353 . S
C760 H766 0.930 . S
N761 Li737 1.990 . S
N761 C760 1.314 . S
N761 C764 1.279 . S
C762 C760 1.353 . S
C762 C765 1.348 . S
C762 H810 0.929 . S
C763 C764 1.358 . S
C763 C765 1.356 . S
C763 H811 0.930 . S
C764 N761 1.279 . S
C764 C763 1.358 . S
C764 H767 0.930 . S
C765 C762 1.348 . S
C765 C763 1.356 . S
H766 C760 0.930 . S
H767 C764 0.930 . S
C768 C770 1.348 . S
C768 C771 1.356 . S
C768 O798 1.325 . S
N769 C772 1.314 . S
N769 C773 1.279 . S
C770 C768 1.348 . S
C770 C772 1.353 . S
C770 H812 0.929 . S
C771 C768 1.356 . S
C771 C773 1.358 . S
C771 H813 0.930 . S
C772 N769 1.314 . S
C772 C770 1.353 . S
C772 H814 0.930 . S
C773 N769 1.279 . S
C773 C771 1.358 . S
C773 H815 0.930 . S
C774 C775 1.348 . S
C774 C776 1.356 . S
C774 O799 1.325 . S
C775 C774 1.348 . S
C775 C777 1.353 . S
C775 H816 0.929 . S
C776 C774 1.356 . S
C776 C778 1.358 . S
C776 H817 0.930 . S
C777 C775 1.353 . S
C777 N779 1.314 . S
C777 H818 0.930 . S
C778 C776 1.358 . S
C778 N779 1.279 . S
C778 H819 0.930 . S
N779 C777 1.314 . S
N779 C778 1.279 . S
C780 C782 1.353 . S
C780 N783 1.314 . S
C780 H786 0.930 . S
C781 N783 1.279 . S
C781 C784 1.358 . S
C781 H787 0.930 . S
C782 C780 1.353 . S
C782 C785 1.348 . S
C782 H820 0.929 . S
N783 Li738 1.990 . S
N783 C780 1.314 . S
N783 C781 1.279 . S
C784 C781 1.358 . S
C784 C785 1.356 . S
C784 H821 0.930 . S
C785 C782 1.348 . S
C785 C784 1.356 . S
H786 C780 0.930 . S
H787 C781 0.930 . S
C788 N789 1.314 . S
C788 C790 1.353 . S
C788 H794 0.930 . S
N789 Li739 1.990 . S
N789 C788 1.314 . S
N789 C792 1.279 . S
C790 C788 1.353 . S
C790 C793 1.348 . S
C790 H822 0.929 . S
C791 C792 1.358 . S
C791 C793 1.356 . S
C791 H823 0.930 . S
C792 N789 1.279 . S
C792 C791 1.358 . S
C792 H795 0.930 . S
C793 C790 1.348 . S
C793 C791 1.356 . S
H794 C788 0.930 . S
H795 C792 0.930 . S
O796 Li736 1.956 . S
O796 Li737 1.970 . S
O796 Li738 1.961 . S
O796 C740 1.325 . S
O797 Li736 1.970 . S
O797 Li737 1.956 . S
O797 Li739 1.961 . S
O797 C746 1.325 . S
O798 Li736 1.961 . S
O798 Li738 1.956 . S
O798 Li739 1.970 . S
O798 C768 1.325 . S
O799 Li737 1.961 . S
O799 Li738 1.970 . S
O799 Li739 1.956 . S
O799 C774 1.325 . S
H800 C742 0.929 . S
H801 C743 0.930 . S
H802 C744 0.930 . S
H803 C745 0.930 . S
H804 C747 0.930 . S
H805 C749 0.929 . S
H806 C750 0.930 . S
H807 C751 0.930 . S
H808 C754 0.930 . S
H809 C757 0.929 . S
H810 C762 0.929 . S
H811 C763 0.930 . S
H812 C770 0.929 . S
H813 C771 0.930 . S
H814 C772 0.930 . S
H815 C773 0.930 . S
H816 C775 0.929 . S
H817 C776 0.930 . S
H818 C777 0.930 . S
H819 C778 0.930 . S
H820 C782 0.929 . S
H821 C784 0.930 . S
H822 C790 0.929 . S
H823 C791 0.930 . S
Li824 N841 1.990 . S
Li824 O884 1.956 . S
Li824 O885 1.970 1_565 S
Li824 O886 1.961 . S
Li825 N849 1.990 . S
Li825 O884 1.970 1_545 S
Li825 O885 1.956 . S
Li825 O887 1.961 . S
Li826 N871 1.990 . S
Li826 O884 1.961 . S
Li826 O886 1.956 . S
Li826 O887 1.970 1_565 S
Li827 N877 1.990 . S
Li827 O885 1.961 . S
Li827 O886 1.970 1_545 S
Li827 O887 1.956 . S
C828 C830 1.348 . S
C828 C831 1.356 . S
C828 O884 1.325 . S
N829 C832 1.314 . S
N829 C833 1.279 . S
C830 C828 1.348 . S
C830 C832 1.353 . S
C830 H888 0.929 . S
C831 C828 1.356 . S
C831 C833 1.358 . S
C831 H889 0.930 . S
C832 N829 1.314 . S
C832 C830 1.353 . S
C832 H890 0.930 . S
C833 N829 1.279 . S
C833 C831 1.358 . S
C833 H891 0.930 . S
C834 C837 1.348 1_545 S
C834 C838 1.356 . S
C834 O885 1.325 . S
C835 N836 1.279 . S
C835 C838 1.358 . S
C835 H892 0.930 . S
N836 C835 1.279 . S
N836 C839 1.314 . S
C837 C834 1.348 1_565 S
C837 C839 1.353 1_565 S
C837 H893 0.929 . S
C838 C834 1.356 . S
C838 C835 1.358 . S
C838 H894 0.930 . S
C839 N836 1.314 . S
C839 C837 1.353 1_545 S
C839 H895 0.930 1_545 S
C840 N841 1.314 . S
C840 C845 1.353 . S
C840 H846 0.930 . S
N841 Li824 1.990 . S
N841 C840 1.314 . S
N841 C843 1.279 . S
C842 C843 1.358 . S
C842 C844 1.356 . S
C842 H896 0.930 . S
C843 N841 1.279 . S
C843 C842 1.358 . S
C843 H847 0.930 . S
C844 C842 1.356 . S
C844 C845 1.348 . S
C845 C840 1.353 . S
C845 C844 1.348 . S
C845 H897 0.929 . S
H846 C840 0.930 . S
H847 C843 0.930 . S
C848 N849 1.314 . S
C848 C850 1.353 . S
C848 H854 0.930 . S
N849 Li825 1.990 . S
N849 C848 1.314 . S
N849 C852 1.279 . S
C850 C848 1.353 . S
C850 C853 1.348 . S
C850 H898 0.929 . S
C851 C852 1.358 . S
C851 C853 1.356 . S
C851 H899 0.930 . S
C852 N849 1.279 . S
C852 C851 1.358 . S
C852 H855 0.930 . S
C853 C850 1.348 . S
C853 C851 1.356 . S
H854 C848 0.930 . S
H855 C852 0.930 . S
C856 C858 1.348 1_565 S
C856 C859 1.356 . S
C856 O886 1.325 . S
N857 C860 1.314 1_565 S
N857 C861 1.279 . S
C858 C856 1.348 1_545 S
C858 C860 1.353 . S
C858 H900 0.929 . S
C859 C856 1.356 . S
C859 C861 1.358 . S
C859 H901 0.930 . S
C860 N857 1.314 1_545 S
C860 C858 1.353 . S
C860 H902 0.930 . S
C861 N857 1.279 . S
C861 C859 1.358 . S
C861 H903 0.930 . S
C862 C863 1.348 . S
C862 C864 1.356 . S
C862 O887 1.325 . S
C863 C862 1.348 . S
C863 C865 1.353 . S
C863 H904 0.929 . S
C864 C862 1.356 . S
C864 C866 1.358 . S
C864 H905 0.930 . S
C865 C863 1.353 . S
C865 N867 1.314 . S
C865 H906 0.930 . S
C866 C864 1.358 . S
C866 N867 1.279 . S
C866 H907 0.930 . S
N867 C865 1.314 . S
N867 C866 1.279 . S
C868 C870 1.353 . S
C868 N871 1.314 . S
C868 H874 0.930 . S
C869 N871 1.279 . S
C869 C872 1.358 . S
C869 H875 0.930 . S
C870 C868 1.353 . S
C870 C873 1.348 . S
C870 H908 0.929 . S
N871 Li826 1.990 . S
N871 C868 1.314 . S
N871 C869 1.279 . S
C872 C869 1.358 . S
C872 C873 1.356 . S
C872 H909 0.930 . S
C873 C870 1.348 . S
C873 C872 1.356 . S
H874 C868 0.930 . S
H875 C869 0.930 . S
C876 N877 1.314 . S
C876 C878 1.353 . S
C876 H882 0.930 . S
N877 Li827 1.990 . S
N877 C876 1.314 . S
N877 C880 1.279 . S
C878 C876 1.353 . S
C878 C881 1.348 . S
C878 H910 0.929 . S
C879 C880 1.358 . S
C879 C881 1.356 . S
C879 H911 0.930 . S
C880 N877 1.279 . S
C880 C879 1.358 . S
C880 H883 0.930 . S
C881 C878 1.348 . S
C881 C879 1.356 . S
H882 C876 0.930 . S
H883 C880 0.930 . S
O884 Li824 1.956 . S
O884 Li825 1.970 1_565 S
O884 Li826 1.961 . S
O884 C828 1.325 . S
O885 Li824 1.970 1_545 S
O885 Li825 1.956 . S
O885 Li827 1.961 . S
O885 C834 1.325 . S
O886 Li824 1.961 . S
O886 Li826 1.956 . S
O886 Li827 1.970 1_565 S
O886 C856 1.325 . S
O887 Li825 1.961 . S
O887 Li826 1.970 1_545 S
O887 Li827 1.956 . S
O887 C862 1.325 . S
H888 C830 0.929 . S
H889 C831 0.930 . S
H890 C832 0.930 . S
H891 C833 0.930 . S
H892 C835 0.930 . S
H893 C837 0.929 . S
H894 C838 0.930 . S
H895 C839 0.930 1_565 S
H896 C842 0.930 . S
H897 C845 0.929 . S
H898 C850 0.929 . S
H899 C851 0.930 . S
H900 C858 0.929 . S
H901 C859 0.930 . S
H902 C860 0.930 . S
H903 C861 0.930 . S
H904 C863 0.929 . S
H905 C864 0.930 . S
H906 C865 0.930 . S
H907 C866 0.930 . S
H908 C870 0.929 . S
H909 C872 0.930 . S
H910 C878 0.929 . S
H911 C879 0.930 . S
Li912 N929 1.990 . S
Li912 O972 1.956 . S
Li912 O973 1.946 1_455 S
Li912 O974 1.987 . S
Li913 N937 1.990 . S
Li913 O972 1.970 1_655 S
Li913 O973 1.958 . S
Li913 O975 1.961 . S
Li914 N959 1.990 . S
Li914 O972 1.961 . S
Li914 O974 1.956 . S
Li914 O975 1.970 1_455 S
Li915 N965 1.990 . S
Li915 O973 1.978 . S
Li915 O974 1.934 1_655 S
Li915 O975 1.956 . S
C916 C918 1.348 . S
C916 C919 1.356 . S
C916 O972 1.325 . S
N917 C920 1.314 . S
N917 C921 1.279 . S
C918 C916 1.348 . S
C918 C920 1.353 . S
C918 H976 0.929 . S
C919 C916 1.356 . S
C919 C921 1.358 . S
C919 H977 0.930 . S
C920 N917 1.314 . S
C920 C918 1.353 . S
C920 H978 0.930 . S
C921 N917 1.279 . S
C921 C919 1.358 . S
C921 H979 0.930 . S
C922 C925 1.348 1_655 S
C922 C926 1.356 . S
C922 O973 1.330 . S
C923 N924 1.279 . S
C923 C926 1.358 . S
C923 H980 0.930 . S
N924 C923 1.279 . S
N924 C927 1.314 1_655 S
C925 C922 1.348 1_455 S
C925 C927 1.353 . S
C925 H981 0.929 . S
C926 C922 1.356 . S
C926 C923 1.358 . S
C926 H982 0.930 . S
C927 N924 1.314 1_455 S
C927 C925 1.353 . S
C927 H983 0.930 . S
C928 N929 1.314 . S
C928 C933 1.353 . S
C928 H934 0.930 . S
N929 Li912 1.990 . S
N929 C928 1.314 . S
N929 C931 1.279 . S
C930 C931 1.358 . S
C930 C932 1.356 . S
C930 H984 0.930 . S
C931 N929 1.279 . S
C931 C930 1.358 . S
C931 H935 0.930 . S
C932 C930 1.356 . S
C932 C933 1.348 . S
C933 C928 1.353 . S
C933 C932 1.348 . S
C933 H985 0.929 . S
H934 C928 0.930 . S
H935 C931 0.930 . S
C936 N937 1.314 . S
C936 C938 1.353 . S
C936 H942 0.930 . S
N937 Li913 1.990 . S
N937 C936 1.314 . S
N937 C940 1.277 1_655 S
C938 C936 1.353 . S
C938 C941 1.348 . S
C938 H986 0.929 . S
C939 C940 1.357 . S
C939 C941 1.353 1_455 S
C939 H987 0.931 . S
C940 N937 1.277 1_455 S
C940 C939 1.357 . S
C940 H943 0.937 . S
C941 C938 1.348 . S
C941 C939 1.353 1_655 S
H942 C936 0.930 . S
H943 C940 0.937 . S
C944 C946 1.348 1_455 S
C944 C947 1.356 . S
C944 O974 1.334 . S
N945 C948 1.314 1_455 S
N945 C949 1.279 . S
C946 C944 1.348 1_655 S
C946 C948 1.353 . S
C946 H988 0.929 . S
C947 C944 1.356 . S
C947 C949 1.358 . S
C947 H989 0.930 . S
C948 N945 1.314 1_655 S
C948 C946 1.353 . S
C948 H990 0.930 . S
C949 N945 1.279 . S
C949 C947 1.358 . S
C949 H991 0.930 . S
C950 C951 1.348 . S
C950 C952 1.356 . S
C950 O975 1.325 . S
C951 C950 1.348 . S
C951 C953 1.353 . S
C951 H992 0.929 . S
C952 C950 1.356 . S
C952 C954 1.358 . S
C952 H993 0.930 . S
C953 C951 1.353 . S
C953 N955 1.314 . S
C953 H994 0.930 . S
C954 C952 1.358 . S
C954 N955 1.279 . S
C954 H995 0.930 . S
N955 C953 1.314 . S
N955 C954 1.279 . S
C956 C958 1.353 . S
C956 N959 1.314 . S
C956 H962 0.930 . S
C957 N959 1.278 1_655 S
C957 C960 1.358 . S
C957 H963 0.935 . S
C958 C956 1.353 . S
C958 C961 1.348 . S
C958 H996 0.929 . S
N959 Li914 1.990 . S
N959 C956 1.314 . S
N959 C957 1.278 1_455 S
C960 C957 1.358 . S
C960 C961 1.354 1_655 S
C960 H997 0.930 . S
C961 C958 1.348 . S
C961 C960 1.354 1_455 S
H962 C956 0.930 . S
H963 C957 0.935 . S
C964 N965 1.314 . S
C964 C966 1.353 . S
C964 H970 0.930 . S
N965 Li915 1.990 . S
N965 C964 1.314 . S
N965 C968 1.279 . S
C966 C964 1.353 . S
C966 C969 1.348 . S
C966 H998 0.929 . S
C967 C968 1.358 . S
C967 C969 1.356 . S
C967 H999 0.930 . S
C968 N965 1.279 . S
C968 C967 1.358 . S
C968 H971 0.930 . S
C969 C966 1.348 . S
C969 C967 1.356 . S
H970 C964 0.930 . S
H971 C968 0.930 . S
O972 Li912 1.956 . S
O972 Li913 1.970 1_455 S
O972 Li914 1.961 . S
O972 C916 1.325 . S
O973 Li912 1.946 1_655 S
O973 Li913 1.958 . S
O973 Li915 1.978 . S
O973 C922 1.330 . S
O974 Li912 1.987 . S
O974 Li914 1.956 . S
O974 Li915 1.934 1_455 S
O974 C944 1.334 . S
O975 Li913 1.961 . S
O975 Li914 1.970 1_655 S
O975 Li915 1.956 . S
O975 C950 1.325 . S
H976 C918 0.929 . S
H977 C919 0.930 . S
H978 C920 0.930 . S
H979 C921 0.930 . S
H980 C923 0.930 . S
H981 C925 0.929 . S
H982 C926 0.930 . S
H983 C927 0.930 . S
H984 C930 0.930 . S
H985 C933 0.929 . S
H986 C938 0.929 . S
H987 C939 0.931 . S
H988 C946 0.929 . S
H989 C947 0.930 . S
H990 C948 0.930 . S
H991 C949 0.930 . S
H992 C951 0.929 . S
H993 C952 0.930 . S
H994 C953 0.930 . S
H995 C954 0.930 . S
H996 C958 0.929 . S
H997 C960 0.930 . S
H998 C966 0.929 . S
H999 C967 0.930 . S
Li1000 N1017 1.990 . S
Li1000 O1060 1.956 . S
Li1000 O1061 1.970 . S
Li1000 O1062 1.961 . S
Li1001 N1025 1.990 . S
Li1001 O1060 1.970 . S
Li1001 O1061 1.956 . S
Li1001 O1063 1.961 . S
Li1002 N1047 1.990 . S
Li1002 O1060 1.961 . S
Li1002 O1062 1.956 . S
Li1002 O1063 1.970 . S
Li1003 N1053 1.990 . S
Li1003 O1061 1.961 . S
Li1003 O1062 1.970 . S
Li1003 O1063 1.956 . S
C1004 C1006 1.348 . S
C1004 C1007 1.356 . S
C1004 O1060 1.325 . S
N1005 C1008 1.314 . S
N1005 C1009 1.279 . S
C1006 C1004 1.348 . S
C1006 C1008 1.353 . S
C1006 H1064 0.929 . S
C1007 C1004 1.356 . S
C1007 C1009 1.358 . S
C1007 H1065 0.930 . S
C1008 N1005 1.314 . S
C1008 C1006 1.353 . S
C1008 H1066 0.930 . S
C1009 N1005 1.279 . S
C1009 C1007 1.358 . S
C1009 H1067 0.930 . S
C1010 C1013 1.348 . S
C1010 C1014 1.356 . S
C1010 O1061 1.325 . S
C1011 N1012 1.279 . S
C1011 C1014 1.358 . S
C1011 H1068 0.930 . S
N1012 C1011 1.279 . S
N1012 C1015 1.314 . S
C1013 C1010 1.348 . S
C1013 C1015 1.353 . S
C1013 H1069 0.929 . S
C1014 C1010 1.356 . S
C1014 C1011 1.358 . S
C1014 H1070 0.930 . S
C1015 N1012 1.314 . S
C1015 C1013 1.353 . S
C1015 H1071 0.930 . S
C1016 N1017 1.314 . S
C1016 C1021 1.353 . S
C1016 H1022 0.930 . S
N1017 Li1000 1.990 . S
N1017 C1016 1.314 . S
N1017 C1019 1.279 . S
C1018 C1019 1.358 . S
C1018 C1020 1.356 . S
C1018 H1072 0.930 . S
C1019 N1017 1.279 . S
C1019 C1018 1.358 . S
C1019 H1023 0.930 . S
C1020 C1018 1.356 . S
C1020 C1021 1.348 . S
C1021 C1016 1.353 . S
C1021 C1020 1.348 . S
C1021 H1073 0.929 . S
H1022 C1016 0.930 . S
H1023 C1019 0.930 . S
C1024 N1025 1.314 . S
C1024 C1026 1.353 . S
C1024 H1030 0.930 . S
N1025 Li1001 1.990 . S
N1025 C1024 1.314 . S
N1025 C1028 1.279 . S
C1026 C1024 1.353 . S
C1026 C1029 1.348 . S
C1026 H1074 0.929 . S
C1027 C1028 1.358 . S
C1027 C1029 1.356 . S
C1027 H1075 0.930 . S
C1028 N1025 1.279 . S
C1028 C1027 1.358 . S
C1028 H1031 0.930 . S
C1029 C1026 1.348 . S
C1029 C1027 1.356 . S
H1030 C1024 0.930 . S
H1031 C1028 0.930 . S
C1032 C1034 1.348 . S
C1032 C1035 1.356 . S
C1032 O1062 1.325 . S
N1033 C1036 1.314 . S
N1033 C1037 1.279 . S
C1034 C1032 1.348 . S
C1034 C1036 1.353 . S
C1034 H1076 0.929 . S
C1035 C1032 1.356 . S
C1035 C1037 1.358 . S
C1035 H1077 0.930 . S
C1036 N1033 1.314 . S
C1036 C1034 1.353 . S
C1036 H1078 0.930 . S
C1037 N1033 1.279 . S
C1037 C1035 1.358 . S
C1037 H1079 0.930 . S
C1038 C1039 1.348 . S
C1038 C1040 1.356 . S
C1038 O1063 1.325 . S
C1039 C1038 1.348 . S
C1039 C1041 1.353 . S
C1039 H1080 0.929 . S
C1040 C1038 1.356 . S
C1040 C1042 1.358 . S
C1040 H1081 0.930 . S
C1041 C1039 1.353 . S
C1041 N1043 1.314 . S
C1041 H1082 0.930 . S
C1042 C1040 1.358 . S
C1042 N1043 1.279 . S
C1042 H1083 0.930 . S
N1043 C1041 1.314 . S
N1043 C1042 1.279 . S
C1044 C1046 1.353 . S
C1044 N1047 1.314 . S
C1044 H1050 0.930 . S
C1045 N1047 1.279 . S
C1045 C1048 1.358 . S
C1045 H1051 0.930 . S
C1046 C1044 1.353 . S
C1046 C1049 1.348 . S
C1046 H1084 0.929 . S
N1047 Li1002 1.990 . S
N1047 C1044 1.314 . S
N1047 C1045 1.279 . S
C1048 C1045 1.358 . S
C1048 C1049 1.356 . S
C1048 H1085 0.930 . S
C1049 C1046 1.348 . S
C1049 C1048 1.356 . S
H1050 C1044 0.930 . S
H1051 C1045 0.930 . S
C1052 N1053 1.314 . S
C1052 C1054 1.353 . S
C1052 H1058 0.930 . S
N1053 Li1003 1.990 . S
N1053 C1052 1.314 . S
N1053 C1056 1.279 . S
C1054 C1052 1.353 . S
C1054 C1057 1.348 . S
C1054 H1086 0.929 . S
C1055 C1056 1.358 . S
C1055 C1057 1.356 . S
C1055 H1087 0.930 . S
C1056 N1053 1.279 . S
C1056 C1055 1.358 . S
C1056 H1059 0.930 . S
C1057 C1054 1.348 . S
C1057 C1055 1.356 . S
H1058 C1052 0.930 . S
H1059 C1056 0.930 . S
O1060 Li1000 1.956 . S
O1060 Li1001 1.970 . S
O1060 Li1002 1.961 . S
O1060 C1004 1.325 . S
O1061 Li1000 1.970 . S
O1061 Li1001 1.956 . S
O1061 Li1003 1.961 . S
O1061 C1010 1.325 . S
O1062 Li1000 1.961 . S
O1062 Li1002 1.956 . S
O1062 Li1003 1.970 . S
O1062 C1032 1.325 . S
O1063 Li1001 1.961 . S
O1063 Li1002 1.970 . S
O1063 Li1003 1.956 . S
O1063 C1038 1.325 . S
H1064 C1006 0.929 . S
H1065 C1007 0.930 . S
H1066 C1008 0.930 . S
H1067 C1009 0.930 . S
H1068 C1011 0.930 . S
H1069 C1013 0.929 . S
H1070 C1014 0.930 . S
H1071 C1015 0.930 . S
H1072 C1018 0.930 . S
H1073 C1021 0.929 . S
H1074 C1026 0.929 . S
H1075 C1027 0.930 . S
H1076 C1034 0.929 . S
H1077 C1035 0.930 . S
H1078 C1036 0.930 . S
H1079 C1037 0.930 . S
H1080 C1039 0.929 . S
H1081 C1040 0.930 . S
H1082 C1041 0.930 . S
H1083 C1042 0.930 . S
H1084 C1046 0.929 . S
H1085 C1048 0.930 . S
H1086 C1054 0.929 . S
H1087 C1055 0.930 . S
Li1088 N1105 1.990 . S
Li1088 O1148 1.956 . S
Li1088 O1149 1.970 1_455 S
Li1088 O1150 1.961 . S
Li1089 N1113 1.990 . S
Li1089 O1148 1.970 1_655 S
Li1089 O1149 1.956 . S
Li1089 O1151 1.961 1_655 S
Li1090 N1135 1.990 . S
Li1090 O1148 1.961 . S
Li1090 O1150 1.956 . S
Li1090 O1151 1.970 . S
Li1091 N1141 1.990 . S
Li1091 O1149 1.961 1_455 S
Li1091 O1150 1.970 . S
Li1091 O1151 1.956 . S
C1092 C1094 1.348 . S
C1092 C1095 1.356 . S
C1092 O1148 1.325 . S
N1093 C1096 1.314 . S
N1093 C1097 1.279 . S
C1094 C1092 1.348 . S
C1094 C1096 1.353 . S
C1094 H1152 0.929 1_455 S
C1095 C1092 1.356 . S
C1095 C1097 1.358 . S
C1095 H1153 0.930 . S
C1096 N1093 1.314 . S
C1096 C1094 1.353 . S
C1096 H1154 0.930 . S
C1097 N1093 1.279 . S
C1097 C1095 1.358 . S
C1097 H1155 0.930 . S
C1098 C1101 1.348 . S
C1098 C1102 1.356 . S
C1098 O1149 1.325 . S
C1099 N1100 1.279 . S
C1099 C1102 1.358 . S
C1099 H1156 0.930 . S
N1100 C1099 1.279 . S
N1100 C1103 1.314 . S
C1101 C1098 1.348 . S
C1101 C1103 1.353 . S
C1101 H1157 0.929 . S
C1102 C1098 1.356 . S
C1102 C1099 1.358 . S
C1102 H1158 0.930 . S
C1103 N1100 1.314 . S
C1103 C1101 1.353 . S
C1103 H1159 0.930 . S
C1104 N1105 1.314 . S
C1104 C1109 1.353 . S
C1104 H1110 0.930 . S
N1105 Li1088 1.990 . S
N1105 C1104 1.314 . S
N1105 C1107 1.279 . S
C1106 C1107 1.358 . S
C1106 C1108 1.356 . S
C1106 H1160 0.930 . S
C1107 N1105 1.279 . S
C1107 C1106 1.358 . S
C1107 H1111 0.930 . S
C1108 C1106 1.356 . S
C1108 C1109 1.348 . S
C1109 C1104 1.353 . S
C1109 C1108 1.348 . S
C1109 H1161 0.929 . S
H1110 C1104 0.930 . S
H1111 C1107 0.930 . S
C1112 N1113 1.314 . S
C1112 C1114 1.353 . S
C1112 H1118 0.930 . S
N1113 Li1089 1.990 . S
N1113 C1112 1.314 . S
N1113 C1116 1.279 . S
C1114 C1112 1.353 . S
C1114 C1117 1.348 . S
C1114 H1162 0.929 . S
C1115 C1116 1.358 . S
C1115 C1117 1.356 . S
C1115 H1163 0.930 . S
C1116 N1113 1.279 . S
C1116 C1115 1.358 . S
C1116 H1119 0.930 . S
C1117 C1114 1.348 . S
C1117 C1115 1.356 . S
H1118 C1112 0.930 . S
H1119 C1116 0.930 . S
C1120 C1122 1.348 . S
C1120 C1123 1.356 . S
C1120 O1150 1.325 . S
N1121 C1124 1.314 . S
N1121 C1125 1.279 . S
C1122 C1120 1.348 . S
C1122 C1124 1.353 . S
C1122 H1164 0.929 . S
C1123 C1120 1.356 . S
C1123 C1125 1.358 . S
C1123 H1165 0.930 . S
C1124 N1121 1.314 . S
C1124 C1122 1.353 . S
C1124 H1166 0.930 . S
C1125 N1121 1.279 . S
C1125 C1123 1.358 . S
C1125 H1167 0.930 . S
C1126 C1127 1.348 . S
C1126 C1128 1.356 1_455 S
C1126 O1151 1.325 . S
C1127 C1126 1.348 . S
C1127 C1129 1.353 . S
C1127 H1168 0.929 . S
C1128 C1126 1.356 1_655 S
C1128 C1130 1.358 . S
C1128 H1169 0.930 . S
C1129 C1127 1.353 . S
C1129 N1131 1.314 . S
C1129 H1170 0.930 . S
C1130 C1128 1.358 . S
C1130 N1131 1.279 1_655 S
C1130 H1171 0.930 . S
N1131 C1129 1.314 . S
N1131 C1130 1.279 1_455 S
C1132 C1134 1.353 . S
C1132 N1135 1.314 . S
C1132 H1138 0.930 . S
C1133 N1135 1.279 . S
C1133 C1136 1.358 . S
C1133 H1139 0.930 . S
C1134 C1132 1.353 . S
C1134 C1137 1.348 . S
C1134 H1172 0.929 . S
N1135 Li1090 1.990 . S
N1135 C1132 1.314 . S
N1135 C1133 1.279 . S
C1136 C1133 1.358 . S
C1136 C1137 1.356 . S
C1136 H1173 0.930 . S
C1137 C1134 1.348 . S
C1137 C1136 1.356 . S
H1138 C1132 0.930 . S
H1139 C1133 0.930 . S
C1140 N1141 1.314 1_655 S
C1140 C1142 1.353 . S
C1140 H1146 0.930 . S
N1141 Li1091 1.990 . S
N1141 C1140 1.314 1_455 S
N1141 C1144 1.279 . S
C1142 C1140 1.353 . S
C1142 C1145 1.348 . S
C1142 H1174 0.929 . S
C1143 C1144 1.361 . S
C1143 C1145 1.348 1_455 S
C1143 H1175 0.937 . S
C1144 N1141 1.279 . S
C1144 C1143 1.361 . S
C1144 H1147 0.930 . S
C1145 C1142 1.348 . S
C1145 C1143 1.348 1_655 S
H1146 C1140 0.930 . S
H1147 C1144 0.930 . S
O1148 Li1088 1.956 . S
O1148 Li1089 1.970 1_455 S
O1148 Li1090 1.961 . S
O1148 C1092 1.325 . S
O1149 Li1088 1.970 1_655 S
O1149 Li1089 1.956 . S
O1149 Li1091 1.961 1_655 S
O1149 C1098 1.325 . S
O1150 Li1088 1.961 . S
O1150 Li1090 1.956 . S
O1150 Li1091 1.970 . S
O1150 C1120 1.325 . S
O1151 Li1089 1.961 1_455 S
O1151 Li1090 1.970 . S
O1151 Li1091 1.956 . S
O1151 C1126 1.325 . S
H1152 C1094 0.929 1_655 S
H1153 C1095 0.930 . S
H1154 C1096 0.930 . S
H1155 C1097 0.930 . S
H1156 C1099 0.930 . S
H1157 C1101 0.929 . S
H1158 C1102 0.930 . S
H1159 C1103 0.930 . S
H1160 C1106 0.930 . S
H1161 C1109 0.929 . S
H1162 C1114 0.929 . S
H1163 C1115 0.930 . S
H1164 C1122 0.929 . S
H1165 C1123 0.930 . S
H1166 C1124 0.930 . S
H1167 C1125 0.930 . S
H1168 C1127 0.929 . S
H1169 C1128 0.930 . S
H1170 C1129 0.930 . S
H1171 C1130 0.930 . S
H1172 C1134 0.929 . S
H1173 C1136 0.930 . S
H1174 C1142 0.929 . S
H1175 C1143 0.937 . S
Li1176 N1193 1.990 . S
Li1176 O1236 1.956 . S
Li1176 O1237 1.970 . S
Li1176 O1238 1.961 . S
Li1177 N1201 1.990 . S
Li1177 O1236 1.970 . S
Li1177 O1237 1.956 . S
Li1177 O1239 1.961 . S
Li1178 N1223 1.990 . S
Li1178 O1236 1.961 . S
Li1178 O1238 1.956 . S
Li1178 O1239 1.970 . S
Li1179 N1229 1.990 . S
Li1179 O1237 1.961 . S
Li1179 O1238 1.970 . S
Li1179 O1239 1.956 . S
C1180 C1182 1.348 . S
C1180 C1183 1.356 . S
C1180 O1236 1.325 . S
N1181 C1184 1.314 . S
N1181 C1185 1.279 . S
C1182 C1180 1.348 . S
C1182 C1184 1.353 . S
C1182 H1240 0.929 . S
C1183 C1180 1.356 . S
C1183 C1185 1.358 . S
C1183 H1241 0.930 . S
C1184 N1181 1.314 . S
C1184 C1182 1.353 . S
C1184 H1242 0.930 . S
C1185 N1181 1.279 . S
C1185 C1183 1.358 . S
C1185 H1243 0.930 . S
C1186 C1189 1.348 . S
C1186 C1190 1.356 . S
C1186 O1237 1.325 . S
C1187 N1188 1.279 . S
C1187 C1190 1.358 . S
C1187 H1244 0.930 . S
N1188 C1187 1.279 . S
N1188 C1191 1.314 . S
C1189 C1186 1.348 . S
C1189 C1191 1.353 . S
C1189 H1245 0.929 . S
C1190 C1186 1.356 . S
C1190 C1187 1.358 . S
C1190 H1246 0.930 . S
C1191 N1188 1.314 . S
C1191 C1189 1.353 . S
C1191 H1247 0.930 . S
C1192 N1193 1.314 . S
C1192 C1197 1.353 . S
C1192 H1198 0.930 . S
N1193 Li1176 1.990 . S
N1193 C1192 1.314 . S
N1193 C1195 1.279 . S
C1194 C1195 1.358 . S
C1194 C1196 1.356 . S
C1194 H1248 0.930 . S
C1195 N1193 1.279 . S
C1195 C1194 1.358 . S
C1195 H1199 0.930 . S
C1196 C1194 1.356 . S
C1196 C1197 1.348 . S
C1197 C1192 1.353 . S
C1197 C1196 1.348 . S
C1197 H1249 0.929 . S
H1198 C1192 0.930 . S
H1199 C1195 0.930 . S
C1200 N1201 1.314 . S
C1200 C1202 1.353 . S
C1200 H1206 0.930 . S
N1201 Li1177 1.990 . S
N1201 C1200 1.314 . S
N1201 C1204 1.279 . S
C1202 C1200 1.353 . S
C1202 C1205 1.348 . S
C1202 H1250 0.929 . S
C1203 C1204 1.358 . S
C1203 C1205 1.356 . S
C1203 H1251 0.930 . S
C1204 N1201 1.279 . S
C1204 C1203 1.358 . S
C1204 H1207 0.930 . S
C1205 C1202 1.348 . S
C1205 C1203 1.356 . S
H1206 C1200 0.930 . S
H1207 C1204 0.930 . S
C1208 C1210 1.348 . S
C1208 C1211 1.356 . S
C1208 O1238 1.325 . S
N1209 C1212 1.314 . S
N1209 C1213 1.279 . S
C1210 C1208 1.348 . S
C1210 C1212 1.353 . S
C1210 H1252 0.929 . S
C1211 C1208 1.356 . S
C1211 C1213 1.358 . S
C1211 H1253 0.930 . S
C1212 N1209 1.314 . S
C1212 C1210 1.353 . S
C1212 H1254 0.930 . S
C1213 N1209 1.279 . S
C1213 C1211 1.358 . S
C1213 H1255 0.930 . S
C1214 C1215 1.348 . S
C1214 C1216 1.356 . S
C1214 O1239 1.325 . S
C1215 C1214 1.348 . S
C1215 C1217 1.353 . S
C1215 H1256 0.929 . S
C1216 C1214 1.356 . S
C1216 C1218 1.358 . S
C1216 H1257 0.930 . S
C1217 C1215 1.353 . S
C1217 N1219 1.314 . S
C1217 H1258 0.930 . S
C1218 C1216 1.358 . S
C1218 N1219 1.279 . S
C1218 H1259 0.930 . S
N1219 C1217 1.314 . S
N1219 C1218 1.279 . S
C1220 C1222 1.353 . S
C1220 N1223 1.314 . S
C1220 H1226 0.930 . S
C1221 N1223 1.279 . S
C1221 C1224 1.358 . S
C1221 H1227 0.930 . S
C1222 C1220 1.353 . S
C1222 C1225 1.348 . S
C1222 H1260 0.929 . S
N1223 Li1178 1.990 . S
N1223 C1220 1.314 . S
N1223 C1221 1.279 . S
C1224 C1221 1.358 . S
C1224 C1225 1.356 . S
C1224 H1261 0.930 . S
C1225 C1222 1.348 . S
C1225 C1224 1.356 . S
H1226 C1220 0.930 . S
H1227 C1221 0.930 . S
C1228 N1229 1.314 . S
C1228 C1230 1.353 . S
C1228 H1234 0.930 . S
N1229 Li1179 1.990 . S
N1229 C1228 1.314 . S
N1229 C1232 1.279 . S
C1230 C1228 1.353 . S
C1230 C1233 1.348 . S
C1230 H1262 0.929 . S
C1231 C1232 1.358 . S
C1231 C1233 1.356 . S
C1231 H1263 0.930 . S
C1232 N1229 1.279 . S
C1232 C1231 1.358 . S
C1232 H1235 0.930 . S
C1233 C1230 1.348 . S
C1233 C1231 1.356 . S
H1234 C1228 0.930 . S
H1235 C1232 0.930 . S
O1236 Li1176 1.956 . S
O1236 Li1177 1.970 . S
O1236 Li1178 1.961 . S
O1236 C1180 1.325 . S
O1237 Li1176 1.970 . S
O1237 Li1177 1.956 . S
O1237 Li1179 1.961 . S
O1237 C1186 1.325 . S
O1238 Li1176 1.961 . S
O1238 Li1178 1.956 . S
O1238 Li1179 1.970 . S
O1238 C1208 1.325 . S
O1239 Li1177 1.961 . S
O1239 Li1178 1.970 . S
O1239 Li1179 1.956 . S
O1239 C1214 1.325 . S
H1240 C1182 0.929 . S
H1241 C1183 0.930 . S
H1242 C1184 0.930 . S
H1243 C1185 0.930 . S
H1244 C1187 0.930 . S
H1245 C1189 0.929 . S
H1246 C1190 0.930 . S
H1247 C1191 0.930 . S
H1248 C1194 0.930 . S
H1249 C1197 0.929 . S
H1250 C1202 0.929 . S
H1251 C1203 0.930 . S
H1252 C1210 0.929 . S
H1253 C1211 0.930 . S
H1254 C1212 0.930 . S
H1255 C1213 0.930 . S
H1256 C1215 0.929 . S
H1257 C1216 0.930 . S
H1258 C1217 0.930 . S
H1259 C1218 0.930 . S
H1260 C1222 0.929 . S
H1261 C1224 0.930 . S
H1262 C1230 0.929 . S
H1263 C1231 0.930 . S
C1264 C1265 1.369 . S
C1264 C1266 1.419 . S
C1264 H1268 0.930 . S
C1265 C1264 1.369 . S
C1265 C1274 1.429 . S
C1266 C1264 1.419 . S
C1266 C1267 1.363 . S
C1266 H1269 0.929 . S
C1267 C1266 1.363 . S
C1267 C1273 1.428 . S
H1268 C1264 0.930 . S
H1269 C1266 0.929 . S
S1270 N1271 1.613 . S
S1270 N1272 1.610 . S
N1271 S1270 1.613 . S
N1271 C1274 1.350 . S
N1272 S1270 1.610 . S
N1272 C1273 1.351 . S
C1273 C1267 1.428 . S
C1273 N1272 1.351 . S
C1273 C1274 1.434 . S
C1274 C1265 1.429 . S
C1274 N1271 1.350 . S
C1274 C1273 1.434 . S
C1275 C1276 1.369 . S
C1275 C1277 1.419 . S
C1275 H1279 0.930 . S
C1276 C1275 1.369 . S
C1276 C1285 1.429 . S
C1277 C1275 1.419 . S
C1277 C1278 1.363 . S
C1277 H1280 0.929 . S
C1278 C1277 1.363 . S
C1278 C1284 1.428 . S
H1279 C1275 0.930 . S
H1280 C1277 0.929 . S
S1281 N1282 1.613 . S
S1281 N1283 1.610 . S
N1282 S1281 1.613 . S
N1282 C1285 1.350 . S
N1283 S1281 1.610 . S
N1283 C1284 1.351 . S
C1284 C1278 1.428 . S
C1284 N1283 1.351 . S
C1284 C1285 1.434 . S
C1285 C1276 1.429 . S
C1285 N1282 1.350 . S
C1285 C1284 1.434 . S
C1286 C1287 1.369 . S
C1286 C1288 1.419 . S
C1286 H1290 0.930 . S
C1287 C1286 1.369 . S
C1287 C1296 1.429 . S
C1288 C1286 1.419 . S
C1288 C1289 1.363 . S
C1288 H1291 0.929 . S
C1289 C1288 1.363 . S
C1289 C1295 1.428 . S
H1290 C1286 0.930 . S
H1291 C1288 0.929 . S
S1292 N1293 1.613 . S
S1292 N1294 1.610 . S
N1293 S1292 1.613 . S
N1293 C1296 1.350 . S
N1294 S1292 1.610 . S
N1294 C1295 1.351 . S
C1295 C1289 1.428 . S
C1295 N1294 1.351 . S
C1295 C1296 1.434 . S
C1296 C1287 1.429 . S
C1296 N1293 1.350 . S
C1296 C1295 1.434 . S
C1297 C1298 1.369 . S
C1297 C1299 1.419 . S
C1297 H1301 0.930 . S
C1298 C1297 1.369 . S
C1298 C1307 1.429 1_665 S
C1299 C1297 1.419 . S
C1299 C1300 1.363 1_565 S
C1299 H1302 0.929 . S
C1300 C1299 1.363 1_545 S
C1300 C1306 1.428 . S
H1301 C1297 0.930 . S
H1302 C1299 0.929 . S
S1303 N1304 1.613 . S
S1303 N1305 1.610 . S
N1304 S1303 1.613 . S
N1304 C1307 1.350 . S
N1305 S1303 1.610 . S
N1305 C1306 1.351 1_455 S
C1306 C1300 1.428 . S
C1306 N1305 1.351 1_655 S
C1306 C1307 1.434 1_655 S
C1307 C1298 1.429 1_445 S
C1307 N1304 1.350 . S
C1307 C1306 1.434 1_455 S
C1308 C1309 1.369 . S
C1308 C1310 1.419 . S
C1308 H1312 0.930 . S
C1309 C1308 1.369 . S
C1309 C1318 1.429 . S
C1310 C1308 1.419 . S
C1310 C1311 1.363 . S
C1310 H1313 0.929 . S
C1311 C1310 1.363 . S
C1311 C1317 1.428 . S
H1312 C1308 0.930 . S
H1313 C1310 0.929 . S
S1314 N1315 1.613 . S
S1314 N1316 1.610 . S
N1315 S1314 1.613 . S
N1315 C1318 1.350 . S
N1316 S1314 1.610 . S
N1316 C1317 1.351 . S
C1317 C1311 1.428 . S
C1317 N1316 1.351 . S
C1317 C1318 1.434 . S
C1318 C1309 1.429 . S
C1318 N1315 1.350 . S
C1318 C1317 1.434 . S
C1319 C1320 1.369 . S
C1319 C1321 1.419 . S
C1319 H1323 0.930 . S
C1320 C1319 1.369 . S
C1320 C1329 1.429 . S
C1321 C1319 1.419 . S
C1321 C1322 1.363 . S
C1321 H1324 0.929 . S
C1322 C1321 1.363 . S
C1322 C1328 1.428 . S
H1323 C1319 0.930 . S
H1324 C1321 0.929 . S
S1325 N1326 1.613 . S
S1325 N1327 1.610 . S
N1326 S1325 1.613 . S
N1326 C1329 1.350 . S
N1327 S1325 1.610 . S
N1327 C1328 1.351 . S
C1328 C1322 1.428 . S
C1328 N1327 1.351 . S
C1328 C1329 1.434 . S
C1329 C1320 1.429 . S
C1329 N1326 1.350 . S
C1329 C1328 1.434 . S
C1330 C1331 1.369 . S
C1330 C1332 1.419 . S
C1330 H1334 0.930 . S
C1331 C1330 1.369 . S
C1331 C1340 1.429 . S
C1332 C1330 1.419 . S
C1332 C1333 1.363 . S
C1332 H1335 0.929 . S
C1333 C1332 1.363 . S
C1333 C1339 1.428 . S
H1334 C1330 0.930 . S
H1335 C1332 0.929 . S
S1336 N1337 1.613 . S
S1336 N1338 1.610 . S
N1337 S1336 1.613 . S
N1337 C1340 1.350 . S
N1338 S1336 1.610 . S
N1338 C1339 1.351 . S
C1339 C1333 1.428 . S
C1339 N1338 1.351 . S
C1339 C1340 1.434 . S
C1340 C1331 1.429 . S
C1340 N1337 1.350 . S
C1340 C1339 1.434 . S
C1341 C1342 1.369 . S
C1341 C1343 1.419 . S
C1341 H1345 0.930 1_565 S
C1342 C1341 1.369 . S
C1342 C1351 1.429 . S
C1343 C1341 1.419 . S
C1343 C1344 1.363 . S
C1343 H1346 0.929 1_565 S
C1344 C1343 1.363 . S
C1344 C1350 1.428 . S
H1345 C1341 0.930 1_545 S
H1346 C1343 0.929 1_545 S
S1347 N1348 1.613 . S
S1347 N1349 1.610 . S
N1348 S1347 1.613 . S
N1348 C1351 1.350 . S
N1349 S1347 1.610 . S
N1349 C1350 1.351 . S
C1350 C1344 1.428 . S
C1350 N1349 1.351 . S
C1350 C1351 1.434 . S
C1351 C1342 1.429 . S
C1351 N1348 1.350 . S
C1351 C1350 1.434 . S
C1352 C1353 1.369 . S
C1352 C1354 1.419 . S
C1352 H1356 0.930 . S
C1353 C1352 1.369 . S
C1353 C1362 1.429 . S
C1354 C1352 1.419 . S
C1354 C1355 1.363 . S
C1354 H1357 0.929 . S
C1355 C1354 1.363 . S
C1355 C1361 1.428 . S
H1356 C1352 0.930 . S
H1357 C1354 0.929 . S
S1358 N1359 1.613 . S
S1358 N1360 1.610 . S
N1359 S1358 1.613 . S
N1359 C1362 1.350 . S
N1360 S1358 1.610 . S
N1360 C1361 1.351 . S
C1361 C1355 1.428 . S
C1361 N1360 1.351 . S
C1361 C1362 1.434 . S
C1362 C1353 1.429 . S
C1362 N1359 1.350 . S
C1362 C1361 1.434 . S
C1363 C1364 1.369 . S
C1363 C1365 1.419 . S
C1363 H1367 0.930 . S
C1364 C1363 1.369 . S
C1364 C1373 1.429 . S
C1365 C1363 1.419 . S
C1365 C1366 1.363 . S
C1365 H1368 0.929 . S
C1366 C1365 1.363 . S
C1366 C1372 1.428 . S
H1367 C1363 0.930 . S
H1368 C1365 0.929 . S
S1369 N1370 1.613 . S
S1369 N1371 1.610 . S
N1370 S1369 1.613 . S
N1370 C1373 1.350 . S
N1371 S1369 1.610 . S
N1371 C1372 1.351 . S
C1372 C1366 1.428 . S
C1372 N1371 1.351 . S
C1372 C1373 1.434 . S
C1373 C1364 1.429 . S
C1373 N1370 1.350 . S
C1373 C1372 1.434 . S
C1374 C1375 1.369 . S
C1374 C1376 1.419 . S
C1374 H1378 0.930 . S
C1375 C1374 1.369 . S
C1375 C1384 1.429 . S
C1376 C1374 1.419 . S
C1376 C1377 1.363 . S
C1376 H1379 0.929 . S
C1377 C1376 1.363 . S
C1377 C1383 1.428 . S
H1378 C1374 0.930 . S
H1379 C1376 0.929 . S
S1380 N1381 1.613 . S
S1380 N1382 1.610 . S
N1381 S1380 1.613 . S
N1381 C1384 1.350 . S
N1382 S1380 1.610 . S
N1382 C1383 1.351 . S
C1383 C1377 1.428 . S
C1383 N1382 1.351 . S
C1383 C1384 1.434 . S
C1384 C1375 1.429 . S
C1384 N1381 1.350 . S
C1384 C1383 1.434 . S
C1385 C1386 1.369 . S
C1385 C1387 1.419 . S
C1385 H1389 0.930 . S
C1386 C1385 1.369 . S
C1386 C1395 1.429 . S
C1387 C1385 1.419 . S
C1387 C1388 1.363 . S
C1387 H1390 0.929 . S
C1388 C1387 1.363 . S
C1388 C1394 1.428 . S
H1389 C1385 0.930 . S
H1390 C1387 0.929 . S
S1391 N1392 1.613 . S
S1391 N1393 1.610 . S
N1392 S1391 1.613 . S
N1392 C1395 1.350 . S
N1393 S1391 1.610 . S
N1393 C1394 1.351 . S
C1394 C1388 1.428 . S
C1394 N1393 1.351 . S
C1394 C1395 1.434 . S
C1395 C1386 1.429 . S
C1395 N1392 1.350 . S
C1395 C1394 1.434 . S
C1396 C1397 1.369 . S
C1396 C1398 1.419 . S
C1396 H1400 0.930 . S
C1397 C1396 1.369 . S
C1397 C1406 1.429 . S
C1398 C1396 1.419 . S
C1398 C1399 1.363 . S
C1398 H1401 0.929 . S
C1399 C1398 1.363 . S
C1399 C1405 1.428 . S
H1400 C1396 0.930 . S
H1401 C1398 0.929 . S
S1402 N1403 1.613 . S
S1402 N1404 1.610 . S
N1403 S1402 1.613 . S
N1403 C1406 1.350 . S
N1404 S1402 1.610 . S
N1404 C1405 1.351 . S
C1405 C1399 1.428 . S
C1405 N1404 1.351 . S
C1405 C1406 1.434 . S
C1406 C1397 1.429 . S
C1406 N1403 1.350 . S
C1406 C1405 1.434 . S
C1407 C1408 1.369 . S
C1407 C1409 1.419 . S
C1407 H1411 0.930 . S
C1408 C1407 1.369 . S
C1408 C1417 1.429 . S
C1409 C1407 1.419 . S
C1409 C1410 1.363 . S
C1409 H1412 0.929 . S
C1410 C1409 1.363 . S
C1410 C1416 1.428 . S
H1411 C1407 0.930 . S
H1412 C1409 0.929 . S
S1413 N1414 1.613 . S
S1413 N1415 1.610 . S
N1414 S1413 1.613 . S
N1414 C1417 1.350 . S
N1415 S1413 1.610 . S
N1415 C1416 1.351 . S
C1416 C1410 1.428 . S
C1416 N1415 1.351 . S
C1416 C1417 1.434 . S
C1417 C1408 1.429 . S
C1417 N1414 1.350 . S
C1417 C1416 1.434 . S
C1418 C1419 1.369 . S
C1418 C1420 1.419 . S
C1418 H1422 0.930 . S
C1419 C1418 1.369 . S
C1419 C1428 1.429 . S
C1420 C1418 1.419 . S
C1420 C1421 1.363 . S
C1420 H1423 0.929 . S
C1421 C1420 1.363 . S
C1421 C1427 1.428 . S
H1422 C1418 0.930 . S
H1423 C1420 0.929 . S
S1424 N1425 1.613 . S
S1424 N1426 1.610 . S
N1425 S1424 1.613 . S
N1425 C1428 1.350 . S
N1426 S1424 1.610 . S
N1426 C1427 1.351 . S
C1427 C1421 1.428 . S
C1427 N1426 1.351 . S
C1427 C1428 1.434 . S
C1428 C1419 1.429 . S
C1428 N1425 1.350 . S
C1428 C1427 1.434 . S
C1429 C1430 1.369 . S
C1429 C1431 1.419 . S
C1429 H1433 0.930 . S
C1430 C1429 1.369 . S
C1430 C1439 1.429 . S
C1431 C1429 1.419 . S
C1431 C1432 1.363 . S
C1431 H1434 0.929 . S
C1432 C1431 1.363 . S
C1432 C1438 1.428 . S
H1433 C1429 0.930 . S
H1434 C1431 0.929 . S
S1435 N1436 1.613 . S
S1435 N1437 1.610 . S
N1436 S1435 1.613 . S
N1436 C1439 1.350 . S
N1437 S1435 1.610 . S
N1437 C1438 1.351 . S
C1438 C1432 1.428 . S
C1438 N1437 1.351 . S
C1438 C1439 1.434 . S
C1439 C1430 1.429 . S
C1439 N1436 1.350 . S
C1439 C1438 1.434 . S
C1440 C1441 1.369 . S
C1440 C1442 1.419 . S
C1440 H1444 0.930 . S
C1441 C1440 1.369 . S
C1441 C1450 1.429 . S
C1442 C1440 1.419 . S
C1442 C1443 1.363 . S
C1442 H1445 0.929 . S
C1443 C1442 1.363 . S
C1443 C1449 1.428 . S
H1444 C1440 0.930 . S
H1445 C1442 0.929 . S
S1446 N1447 1.613 . S
S1446 N1448 1.610 . S
N1447 S1446 1.613 . S
N1447 C1450 1.350 . S
N1448 S1446 1.610 . S
N1448 C1449 1.351 . S
C1449 C1443 1.428 . S
C1449 N1448 1.351 . S
C1449 C1450 1.434 . S
C1450 C1441 1.429 . S
C1450 N1447 1.350 . S
C1450 C1449 1.434 . S
C1451 C1452 1.369 . S
C1451 C1453 1.419 . S
C1451 H1455 0.930 . S
C1452 C1451 1.369 . S
C1452 C1461 1.429 . S
C1453 C1451 1.419 . S
C1453 C1454 1.363 . S
C1453 H1456 0.929 . S
C1454 C1453 1.363 . S
C1454 C1460 1.428 . S
H1455 C1451 0.930 . S
H1456 C1453 0.929 . S
S1457 N1458 1.613 . S
S1457 N1459 1.610 . S
N1458 S1457 1.613 . S
N1458 C1461 1.350 . S
N1459 S1457 1.610 . S
N1459 C1460 1.351 . S
C1460 C1454 1.428 . S
C1460 N1459 1.351 . S
C1460 C1461 1.434 . S
C1461 C1452 1.429 . S
C1461 N1458 1.350 . S
C1461 C1460 1.434 . S
C1462 C1463 1.369 . S
C1462 C1464 1.419 . S
C1462 H1466 0.930 . S
C1463 C1462 1.369 . S
C1463 C1472 1.429 1_554 S
C1464 C1462 1.419 . S
C1464 C1465 1.363 1_544 S
C1464 H1467 0.929 . S
C1465 C1464 1.363 1_566 S
C1465 C1471 1.428 . S
H1466 C1462 0.930 . S
H1467 C1464 0.929 . S
S1468 N1469 1.599 1_565 S
S1468 N1470 1.614 . S
N1469 S1468 1.599 1_545 S
N1469 C1472 1.350 . S
N1470 S1468 1.614 . S
N1470 C1471 1.351 . S
C1471 C1465 1.428 . S
C1471 N1470 1.351 . S
C1471 C1472 1.434 1_565 S
C1472 C1463 1.429 1_556 S
C1472 N1469 1.350 . S
C1472 C1471 1.434 1_545 S
C1473 C1474 1.369 . S
C1473 C1475 1.419 . S
C1473 H1477 0.930 . S
C1474 C1473 1.369 . S
C1474 C1483 1.429 . S
C1475 C1473 1.419 . S
C1475 C1476 1.363 . S
C1475 H1478 0.929 . S
C1476 C1475 1.363 . S
C1476 C1482 1.428 . S
H1477 C1473 0.930 . S
H1478 C1475 0.929 . S
S1479 N1480 1.613 . S
S1479 N1481 1.610 . S
N1480 S1479 1.613 . S
N1480 C1483 1.350 . S
N1481 S1479 1.610 . S
N1481 C1482 1.351 . S
C1482 C1476 1.428 . S
C1482 N1481 1.351 . S
C1482 C1483 1.434 . S
C1483 C1474 1.429 . S
C1483 N1480 1.350 . S
C1483 C1482 1.434 . S
C1484 C1485 1.369 . S
C1484 C1486 1.419 . S
C1484 H1488 0.930 . S
C1485 C1484 1.369 . S
C1485 C1494 1.429 . S
C1486 C1484 1.419 . S
C1486 C1487 1.363 . S
C1486 H1489 0.929 . S
C1487 C1486 1.363 . S
C1487 C1493 1.428 . S
H1488 C1484 0.930 . S
H1489 C1486 0.929 . S
S1490 N1491 1.613 1_545 S
S1490 N1492 1.610 . S
N1491 S1490 1.613 1_565 S
N1491 C1494 1.350 1_565 S
N1492 S1490 1.610 . S
N1492 C1493 1.351 . S
C1493 C1487 1.428 . S
C1493 N1492 1.351 . S
C1493 C1494 1.434 . S
C1494 C1485 1.429 . S
C1494 N1491 1.350 1_545 S
C1494 C1493 1.434 . S
C1495 C1496 1.369 . S
C1495 C1497 1.419 . S
C1495 H1499 0.930 . S
C1496 C1495 1.369 . S
C1496 C1505 1.429 . S
C1497 C1495 1.419 . S
C1497 C1498 1.363 . S
C1497 H1500 0.929 . S
C1498 C1497 1.363 . S
C1498 C1504 1.428 . S
H1499 C1495 0.930 . S
H1500 C1497 0.929 . S
S1501 N1502 1.613 . S
S1501 N1503 1.610 . S
N1502 S1501 1.613 . S
N1502 C1505 1.350 . S
N1503 S1501 1.610 . S
N1503 C1504 1.351 . S
C1504 C1498 1.428 . S
C1504 N1503 1.351 . S
C1504 C1505 1.434 . S
C1505 C1496 1.429 . S
C1505 N1502 1.350 . S
C1505 C1504 1.434 . S
C1506 C1507 1.395 . S
C1506 C1508 1.419 . S
C1506 H1510 0.930 . S
C1507 C1506 1.395 . S
C1507 C1516 1.434 . S
C1508 C1506 1.419 . S
C1508 C1509 1.363 . S
C1508 H1511 0.929 . S
C1509 C1508 1.363 . S
C1509 C1515 1.428 . S
H1510 C1506 0.930 . S
H1511 C1508 0.929 . S
S1512 N1513 1.613 1_545 S
S1512 N1514 1.610 . S
N1513 S1512 1.613 1_565 S
N1513 C1516 1.350 1_565 S
N1514 S1512 1.610 . S
N1514 C1515 1.351 . S
C1515 C1509 1.428 . S
C1515 N1514 1.351 . S
C1515 C1516 1.434 . S
C1516 C1507 1.434 . S
C1516 N1513 1.350 1_545 S
C1516 C1515 1.434 . S
C1517 C1518 1.369 . S
C1517 C1519 1.419 . S
C1517 H1521 0.930 . S
C1518 C1517 1.369 . S
C1518 C1527 1.429 . S
C1519 C1517 1.419 . S
C1519 C1520 1.363 . S
C1519 H1522 0.929 . S
C1520 C1519 1.363 . S
C1520 C1526 1.428 . S
H1521 C1517 0.930 . S
H1522 C1519 0.929 . S
S1523 N1524 1.613 . S
S1523 N1525 1.610 . S
N1524 S1523 1.613 . S
N1524 C1527 1.350 . S
N1525 S1523 1.610 . S
N1525 C1526 1.351 . S
C1526 C1520 1.428 . S
C1526 N1525 1.351 . S
C1526 C1527 1.434 . S
C1527 C1518 1.429 . S
C1527 N1524 1.350 . S
C1527 C1526 1.434 . S
C1528 C1529 1.369 . S
C1528 C1530 1.419 . S
C1528 H1532 0.930 . S
C1529 C1528 1.369 . S
C1529 C1538 1.429 . S
C1530 C1528 1.419 . S
C1530 C1531 1.363 . S
C1530 H1533 0.929 . S
C1531 C1530 1.363 . S
C1531 C1537 1.428 . S
H1532 C1528 0.930 . S
H1533 C1530 0.929 . S
S1534 N1535 1.613 . S
S1534 N1536 1.610 . S
N1535 S1534 1.613 . S
N1535 C1538 1.350 . S
N1536 S1534 1.610 . S
N1536 C1537 1.351 . S
C1537 C1531 1.428 . S
C1537 N1536 1.351 . S
C1537 C1538 1.434 . S
C1538 C1529 1.429 . S
C1538 N1535 1.350 . S
C1538 C1537 1.434 . S
C1539 C1540 1.369 . S
C1539 C1541 1.419 . S
C1539 H1543 0.930 . S
C1540 C1539 1.369 . S
C1540 C1549 1.429 . S
C1541 C1539 1.419 . S
C1541 C1542 1.363 . S
C1541 H1544 0.929 . S
C1542 C1541 1.363 . S
C1542 C1548 1.428 . S
H1543 C1539 0.930 . S
H1544 C1541 0.929 . S
S1545 N1546 1.613 . S
S1545 N1547 1.610 . S
N1546 S1545 1.613 . S
N1546 C1549 1.350 . S
N1547 S1545 1.610 . S
N1547 C1548 1.351 . S
C1548 C1542 1.428 . S
C1548 N1547 1.351 . S
C1548 C1549 1.434 . S
C1549 C1540 1.429 . S
C1549 N1546 1.350 . S
C1549 C1548 1.434 . S
C1550 C1551 1.369 . S
C1550 C1552 1.419 . S
C1550 H1554 0.930 . S
C1551 C1550 1.369 . S
C1551 C1560 1.429 . S
C1552 C1550 1.419 . S
C1552 C1553 1.363 . S
C1552 H1555 0.929 . S
C1553 C1552 1.363 . S
C1553 C1559 1.428 . S
H1554 C1550 0.930 . S
H1555 C1552 0.929 . S
S1556 N1557 1.613 . S
S1556 N1558 1.610 . S
N1557 S1556 1.613 . S
N1557 C1560 1.350 . S
N1558 S1556 1.610 . S
N1558 C1559 1.351 . S
C1559 C1553 1.428 . S
C1559 N1558 1.351 . S
C1559 C1560 1.434 . S
C1560 C1551 1.429 . S
C1560 N1557 1.350 . S
C1560 C1559 1.434 . S
C1561 C1562 1.369 . S
C1561 C1563 1.419 . S
C1561 H1565 0.930 . S
C1562 C1561 1.369 . S
C1562 C1571 1.429 . S
C1563 C1561 1.419 . S
C1563 C1564 1.363 . S
C1563 H1566 0.929 . S
C1564 C1563 1.363 . S
C1564 C1570 1.428 . S
H1565 C1561 0.930 . S
H1566 C1563 0.929 . S
S1567 N1568 1.613 . S
S1567 N1569 1.610 . S
N1568 S1567 1.613 . S
N1568 C1571 1.350 . S
N1569 S1567 1.610 . S
N1569 C1570 1.351 . S
C1570 C1564 1.428 . S
C1570 N1569 1.351 . S
C1570 C1571 1.434 . S
C1571 C1562 1.429 . S
C1571 N1568 1.350 . S
C1571 C1570 1.434 . S
C1572 C1573 1.369 . S
C1572 C1574 1.419 . S
C1572 H1576 0.930 . S
C1573 C1572 1.369 . S
C1573 C1582 1.429 . S
C1574 C1572 1.419 . S
C1574 C1575 1.363 . S
C1574 H1577 0.929 . S
C1575 C1574 1.363 . S
C1575 C1581 1.428 . S
H1576 C1572 0.930 . S
H1577 C1574 0.929 . S
S1578 N1579 1.613 . S
S1578 N1580 1.610 . S
N1579 S1578 1.613 . S
N1579 C1582 1.350 . S
N1580 S1578 1.610 . S
N1580 C1581 1.351 . S
C1581 C1575 1.428 . S
C1581 N1580 1.351 . S
C1581 C1582 1.434 . S
C1582 C1573 1.429 . S
C1582 N1579 1.350 . S
C1582 C1581 1.434 . S
C1583 C1584 1.369 . S
C1583 C1585 1.419 . S
C1583 H1587 0.930 . S
C1584 C1583 1.369 . S
C1584 C1593 1.429 . S
C1585 C1583 1.419 . S
C1585 C1586 1.363 . S
C1585 H1588 0.929 . S
C1586 C1585 1.363 . S
C1586 C1592 1.428 . S
H1587 C1583 0.930 . S
H1588 C1585 0.929 . S
S1589 N1590 1.613 . S
S1589 N1591 1.610 . S
N1590 S1589 1.613 . S
N1590 C1593 1.350 1_565 S
N1591 S1589 1.610 . S
N1591 C1592 1.351 1_565 S
C1592 C1586 1.428 . S
C1592 N1591 1.351 1_545 S
C1592 C1593 1.434 . S
C1593 C1584 1.429 . S
C1593 N1590 1.350 1_545 S
C1593 C1592 1.434 . S
C1594 C1595 1.369 . S
C1594 C1596 1.419 . S
C1594 H1598 0.930 . S
C1595 C1594 1.369 . S
C1595 C1604 1.429 . S
C1596 C1594 1.419 . S
C1596 C1597 1.363 . S
C1596 H1599 0.929 . S
C1597 C1596 1.363 . S
C1597 C1603 1.428 . S
H1598 C1594 0.930 . S
H1599 C1596 0.929 . S
S1600 N1601 1.613 . S
S1600 N1602 1.610 . S
N1601 S1600 1.613 . S
N1601 C1604 1.350 . S
N1602 S1600 1.610 . S
N1602 C1603 1.351 . S
C1603 C1597 1.428 . S
C1603 N1602 1.351 . S
C1603 C1604 1.434 . S
C1604 C1595 1.429 . S
C1604 N1601 1.350 . S
C1604 C1603 1.434 . S
C1605 C1606 1.369 . S
C1605 C1607 1.419 . S
C1605 H1609 0.930 . S
C1606 C1605 1.369 . S
C1606 C1615 1.429 . S
C1607 C1605 1.419 . S
C1607 C1608 1.363 . S
C1607 H1610 0.929 . S
C1608 C1607 1.363 . S
C1608 C1614 1.428 . S
H1609 C1605 0.930 . S
H1610 C1607 0.929 . S
S1611 N1612 1.614 . S
S1611 N1613 1.610 . S
N1612 S1611 1.614 . S
N1612 C1615 1.352 . S
N1613 S1611 1.610 . S
N1613 C1614 1.351 . S
C1614 C1608 1.428 . S
C1614 N1613 1.351 . S
C1614 C1615 1.434 . S
C1615 C1606 1.429 . S
C1615 N1612 1.352 . S
C1615 C1614 1.434 . S
C1616 C1617 1.369 . S
C1616 C1618 1.419 . S
C1616 H1620 0.930 . S
C1617 C1616 1.369 . S
C1617 C1626 1.429 . S
C1618 C1616 1.419 . S
C1618 C1619 1.363 . S
C1618 H1621 0.929 . S
C1619 C1618 1.363 . S
C1619 C1625 1.428 . S
H1620 C1616 0.930 . S
H1621 C1618 0.929 . S
S1622 N1623 1.613 . S
S1622 N1624 1.610 . S
N1623 S1622 1.613 . S
N1623 C1626 1.350 . S
N1624 S1622 1.610 . S
N1624 C1625 1.351 . S
C1625 C1619 1.428 . S
C1625 N1624 1.351 . S
C1625 C1626 1.434 . S
C1626 C1617 1.429 . S
C1626 N1623 1.350 . S
C1626 C1625 1.434 . S
C1627 C1628 1.369 . S
C1627 C1629 1.419 . S
C1627 H1631 0.930 . S
C1628 C1627 1.369 . S
C1628 C1637 1.432 1_554 S
C1629 C1627 1.419 . S
C1629 C1630 1.363 1_554 S
C1629 H1632 0.929 . S
C1630 C1629 1.363 1_556 S
C1630 C1636 1.428 1_655 S
H1631 C1627 0.930 . S
H1632 C1629 0.929 . S
S1633 N1634 1.613 . S
S1633 N1635 1.610 . S
N1634 S1633 1.613 . S
N1634 C1637 1.348 1_455 S
N1635 S1633 1.610 . S
N1635 C1636 1.351 . S
C1636 C1630 1.428 1_455 S
C1636 N1635 1.351 . S
C1636 C1637 1.432 1_455 S
C1637 C1628 1.432 1_556 S
C1637 N1634 1.348 1_655 S
C1637 C1636 1.432 1_655 S
C1638 C1639 1.369 . S
C1638 C1640 1.419 . S
C1638 H1642 0.930 . S
C1639 C1638 1.369 . S
C1639 C1648 1.429 . S
C1640 C1638 1.419 . S
C1640 C1641 1.363 . S
C1640 H1643 0.929 . S
C1641 C1640 1.363 . S
C1641 C1647 1.428 . S
H1642 C1638 0.930 . S
H1643 C1640 0.929 . S
S1644 N1645 1.613 . S
S1644 N1646 1.610 . S
N1645 S1644 1.613 . S
N1645 C1648 1.350 . S
N1646 S1644 1.610 . S
N1646 C1647 1.351 . S
C1647 C1641 1.428 . S
C1647 N1646 1.351 . S
C1647 C1648 1.434 . S
C1648 C1639 1.429 . S
C1648 N1645 1.350 . S
C1648 C1647 1.434 . S
C1649 C1650 1.369 1_656 S
C1649 C1651 1.419 . S
C1649 H1653 0.930 . S
C1650 C1649 1.369 1_454 S
C1650 C1659 1.429 . S
C1651 C1649 1.419 . S
C1651 C1652 1.363 1_655 S
C1651 H1654 0.929 . S
C1652 C1651 1.363 1_455 S
C1652 C1658 1.428 . S
H1653 C1649 0.930 . S
H1654 C1651 0.929 . S
S1655 N1656 1.613 . S
S1655 N1657 1.619 . S
N1656 S1655 1.613 . S
N1656 C1659 1.350 . S
N1657 S1655 1.619 . S
N1657 C1658 1.347 1_554 S
C1658 C1652 1.428 . S
C1658 N1657 1.347 1_556 S
C1658 C1659 1.434 1_556 S
C1659 C1650 1.429 . S
C1659 N1656 1.350 . S
C1659 C1658 1.434 1_554 S
C1660 C1661 1.369 . S
C1660 C1662 1.419 . S
C1660 H1664 0.930 . S
C1661 C1660 1.369 . S
C1661 C1670 1.429 . S
C1662 C1660 1.419 . S
C1662 C1663 1.363 . S
C1662 H1665 0.929 . S
C1663 C1662 1.363 . S
C1663 C1669 1.428 . S
H1664 C1660 0.930 . S
H1665 C1662 0.929 . S
S1666 N1667 1.613 . S
S1666 N1668 1.610 . S
N1667 S1666 1.613 . S
N1667 C1670 1.350 . S
N1668 S1666 1.610 . S
N1668 C1669 1.351 . S
C1669 C1663 1.428 . S
C1669 N1668 1.351 . S
C1669 C1670 1.434 . S
C1670 C1661 1.429 . S
C1670 N1667 1.350 . S
C1670 C1669 1.434 . S
C1671 C1672 1.369 . S
C1671 C1673 1.419 . S
C1671 H1675 0.930 . S
C1672 C1671 1.369 . S
C1672 C1681 1.429 . S
C1673 C1671 1.419 . S
C1673 C1674 1.363 . S
C1673 H1676 0.929 . S
C1674 C1673 1.363 . S
C1674 C1680 1.428 . S
H1675 C1671 0.930 . S
H1676 C1673 0.929 . S
S1677 N1678 1.613 . S
S1677 N1679 1.610 . S
N1678 S1677 1.613 . S
N1678 C1681 1.350 . S
N1679 S1677 1.610 . S
N1679 C1680 1.351 . S
C1680 C1674 1.428 . S
C1680 N1679 1.351 . S
C1680 C1681 1.434 . S
C1681 C1672 1.429 . S
C1681 N1678 1.350 . S
C1681 C1680 1.434 . S
C1682 C1683 1.369 . S
C1682 C1684 1.419 . S
C1682 H1686 0.930 . S
C1683 C1682 1.369 . S
C1683 C1692 1.429 . S
C1684 C1682 1.419 . S
C1684 C1685 1.363 . S
C1684 H1687 0.929 . S
C1685 C1684 1.363 . S
C1685 C1691 1.428 . S
H1686 C1682 0.930 . S
H1687 C1684 0.929 . S
S1688 N1689 1.613 . S
S1688 N1690 1.610 . S
N1689 S1688 1.613 . S
N1689 C1692 1.350 . S
N1690 S1688 1.610 . S
N1690 C1691 1.351 . S
C1691 C1685 1.428 . S
C1691 N1690 1.351 . S
C1691 C1692 1.434 . S
C1692 C1683 1.429 . S
C1692 N1689 1.350 . S
C1692 C1691 1.434 . S
C1693 C1694 1.369 . S
C1693 C1695 1.419 . S
C1693 H1697 0.930 . S
C1694 C1693 1.369 . S
C1694 C1703 1.429 . S
C1695 C1693 1.419 . S
C1695 C1696 1.363 . S
C1695 H1698 0.929 . S
C1696 C1695 1.363 . S
C1696 C1702 1.428 . S
H1697 C1693 0.930 . S
H1698 C1695 0.929 . S
S1699 N1700 1.613 . S
S1699 N1701 1.610 . S
N1700 S1699 1.613 . S
N1700 C1703 1.350 . S
N1701 S1699 1.610 . S
N1701 C1702 1.351 . S
C1702 C1696 1.428 . S
C1702 N1701 1.351 . S
C1702 C1703 1.434 . S
C1703 C1694 1.429 . S
C1703 N1700 1.350 . S
C1703 C1702 1.434 . S
C1704 C1705 1.369 . S
C1704 C1706 1.419 . S
C1704 H1708 0.930 . S
C1705 C1704 1.369 . S
C1705 C1714 1.429 . S
C1706 C1704 1.419 . S
C1706 C1707 1.363 . S
C1706 H1709 0.929 . S
C1707 C1706 1.363 . S
C1707 C1713 1.428 . S
H1708 C1704 0.930 . S
H1709 C1706 0.929 . S
S1710 N1711 1.613 . S
S1710 N1712 1.610 . S
N1711 S1710 1.613 . S
N1711 C1714 1.350 . S
N1712 S1710 1.610 . S
N1712 C1713 1.351 . S
C1713 C1707 1.428 . S
C1713 N1712 1.351 . S
C1713 C1714 1.434 . S
C1714 C1705 1.429 . S
C1714 N1711 1.350 . S
C1714 C1713 1.434 . S
C1715 C1716 1.369 . S
C1715 C1717 1.419 . S
C1715 H1719 0.930 . S
C1716 C1715 1.369 . S
C1716 C1725 1.429 . S
C1717 C1715 1.419 . S
C1717 C1718 1.363 . S
C1717 H1720 0.929 . S
C1718 C1717 1.363 . S
C1718 C1724 1.428 . S
H1719 C1715 0.930 . S
H1720 C1717 0.929 . S
S1721 N1722 1.613 . S
S1721 N1723 1.610 . S
N1722 S1721 1.613 . S
N1722 C1725 1.350 . S
N1723 S1721 1.610 . S
N1723 C1724 1.351 . S
C1724 C1718 1.428 . S
C1724 N1723 1.351 . S
C1724 C1725 1.434 . S
C1725 C1716 1.429 . S
C1725 N1722 1.350 . S
C1725 C1724 1.434 . S
C1726 C1727 1.369 . S
C1726 C1728 1.419 . S
C1726 H1730 0.930 . S
C1727 C1726 1.369 . S
C1727 C1736 1.429 . S
C1728 C1726 1.419 . S
C1728 C1729 1.363 . S
C1728 H1731 0.929 . S
C1729 C1728 1.363 . S
C1729 C1735 1.428 . S
H1730 C1726 0.930 . S
H1731 C1728 0.929 . S
S1732 N1733 1.613 . S
S1732 N1734 1.610 . S
N1733 S1732 1.613 . S
N1733 C1736 1.350 . S
N1734 S1732 1.610 . S
N1734 C1735 1.351 . S
C1735 C1729 1.428 . S
C1735 N1734 1.351 . S
C1735 C1736 1.434 . S
C1736 C1727 1.429 . S
C1736 N1733 1.350 . S
C1736 C1735 1.434 . S
C1737 C1738 1.369 . S
C1737 C1739 1.419 . S
C1737 H1741 0.930 . S
C1738 C1737 1.369 . S
C1738 C1747 1.429 . S
C1739 C1737 1.419 . S
C1739 C1740 1.363 . S
C1739 H1742 0.929 . S
C1740 C1739 1.363 . S
C1740 C1746 1.428 . S
H1741 C1737 0.930 . S
H1742 C1739 0.929 . S
S1743 N1744 1.613 . S
S1743 N1745 1.610 . S
N1744 S1743 1.613 . S
N1744 C1747 1.350 . S
N1745 S1743 1.610 . S
N1745 C1746 1.351 . S
C1746 C1740 1.428 . S
C1746 N1745 1.351 . S
C1746 C1747 1.434 . S
C1747 C1738 1.429 . S
C1747 N1744 1.350 . S
C1747 C1746 1.434 . S
C1748 C1749 1.369 1_554 S
C1748 C1750 1.419 . S
C1748 H1752 0.930 . S
C1749 C1748 1.369 1_556 S
C1749 C1758 1.429 . S
C1750 C1748 1.419 . S
C1750 C1751 1.363 . S
C1750 H1753 0.929 . S
C1751 C1750 1.363 . S
C1751 C1757 1.428 . S
H1752 C1748 0.930 . S
H1753 C1750 0.929 . S
S1754 N1755 1.613 . S
S1754 N1756 1.610 1_556 S
N1755 S1754 1.613 . S
N1755 C1758 1.350 . S
N1756 S1754 1.610 1_554 S
N1756 C1757 1.351 . S
C1757 C1751 1.428 . S
C1757 N1756 1.351 . S
C1757 C1758 1.434 1_554 S
C1758 C1749 1.429 . S
C1758 N1755 1.350 . S
C1758 C1757 1.434 1_556 S
C1759 C1760 1.369 . S
C1759 C1761 1.419 . S
C1759 H1763 0.930 . S
C1760 C1759 1.369 . S
C1760 C1769 1.429 . S
C1761 C1759 1.419 . S
C1761 C1762 1.363 . S
C1761 H1764 0.929 . S
C1762 C1761 1.363 . S
C1762 C1768 1.428 . S
H1763 C1759 0.930 . S
H1764 C1761 0.929 . S
S1765 N1766 1.613 . S
S1765 N1767 1.610 . S
N1766 S1765 1.613 . S
N1766 C1769 1.350 . S
N1767 S1765 1.610 . S
N1767 C1768 1.351 . S
C1768 C1762 1.428 . S
C1768 N1767 1.351 . S
C1768 C1769 1.434 . S
C1769 C1760 1.429 . S
C1769 N1766 1.350 . S
C1769 C1768 1.434 . S
C1770 C1771 1.369 . S
C1770 C1772 1.419 . S
C1770 H1774 0.930 . S
C1771 C1770 1.369 . S
C1771 C1780 1.429 . S
C1772 C1770 1.419 . S
C1772 C1773 1.363 . S
C1772 H1775 0.929 . S
C1773 C1772 1.363 . S
C1773 C1779 1.428 . S
H1774 C1770 0.930 . S
H1775 C1772 0.929 . S
S1776 N1777 1.613 . S
S1776 N1778 1.610 . S
N1777 S1776 1.613 . S
N1777 C1780 1.350 . S
N1778 S1776 1.610 . S
N1778 C1779 1.351 . S
C1779 C1773 1.428 . S
C1779 N1778 1.351 . S
C1779 C1780 1.434 . S
C1780 C1771 1.429 . S
C1780 N1777 1.350 . S
C1780 C1779 1.434 . S
C1781 C1782 1.369 . S
C1781 C1783 1.428 . S
C1781 H1785 0.935 . S
C1782 C1781 1.369 . S
C1782 C1791 1.429 . S
C1783 C1781 1.428 . S
C1783 C1784 1.374 . S
C1783 H1786 0.909 1_554 S
C1784 C1783 1.374 . S
C1784 C1790 1.428 . S
H1785 C1781 0.935 . S
H1786 C1783 0.909 1_556 S
S1787 N1788 1.613 . S
S1787 N1789 1.610 1_545 S
N1788 S1787 1.613 . S
N1788 C1791 1.350 1_545 S
N1789 S1787 1.610 1_565 S
N1789 C1790 1.351 . S
C1790 C1784 1.428 . S
C1790 N1789 1.351 . S
C1790 C1791 1.434 . S
C1791 C1782 1.429 . S
C1791 N1788 1.350 1_565 S
C1791 C1790 1.434 . S
C1267 C257 1.803 . S
C1265 C73 1.802 . S
C1278 C316 1.312 . S
C1276 C82 1.258 . S
C1287 C100 1.842 . S
C1289 C433 1.828 . S
C1300 C501 1.352 . S
C1298 C56 1.334 1_655 S
C1311 C580 1.423 . S
C1309 C134 1.422 . S
C1322 C705 1.785 . S
C1320 C165 1.762 . S
C1331 C147 1.190 . S
C1333 C765 1.234 . S
C1344 C873 1.811 . S
C1342 C125 1.811 . S
C1353 C151 1.418 . S
C1355 C969 1.420 . S
C1366 C1029 1.461 . S
C1364 C121 1.414 . S
C1375 C139 1.788 . S
C1377 C932 1.800 . S
C1388 C1049 1.319 . S
C1386 C164 1.318 . S
C1397 C95 1.302 . S
C1399 C1117 1.365 . S
C1408 C61 1.500 . S
C1410 C1108 1.512 . S
C1419 C74 1.457 . S
C1421 C1137 1.463 . S
C1430 C86 1.764 . S
C1432 C1145 1.766 . S
C1441 C47 1.436 . S
C1443 C529 1.440 . S
C1452 C186 1.329 . S
C1454 C492 1.388 . S
C1465 C228 1.574 . S
C1463 C204 1.575 . S
C1476 C325 1.848 . S
C1474 C112 1.852 . S
C1485 C60 1.394 1_545 S
C1487 C589 1.390 . S
C1498 C881 1.446 . S
C1496 C152 1.436 . S
C1509 C609 1.903 . S
C1507 C126 1.872 1_545 S
C1520 C793 1.354 . S
C1518 C160 1.367 . S
C1531 C785 1.803 . S
C1529 C190 1.803 . S
C1540 C199 1.266 . S
C1542 C853 1.314 . S
C1551 C113 1.841 . S
C1553 C617 1.830 . S
C1564 C668 1.349 . S
C1562 C173 1.329 . S
C1573 C43 1.421 . S
C1575 C413 1.423 . S
C1586 C521 1.783 . S
C1584 C9 1.766 1_655 S
C1597 C237 1.234 . S
C1595 C17 1.196 . S
C1608 C353 1.809 . S
C1606 C34 1.813 1_455 S
C1617 C21 1.418 . S
C1619 C1057 1.418 . S
C1628 C30 1.412 . S
C1630 C941 1.461 . S
C1639 C48 1.793 . S
C1641 C1020 1.798 . S
C1650 C8 1.316 . S
C1652 C961 1.318 . S
C1663 C1205 1.364 . S
C1661 C108 1.310 . S
C1674 C1196 1.513 . S
C1672 C178 1.479 1_554 S
C1685 C1225 1.463 . S
C1683 C191 1.459 . S
C1694 C203 1.765 . S
C1696 C1233 1.766 . S
C1705 C138 1.440 . S
C1707 C697 1.436 . S
C1718 C677 1.389 . S
C1716 C69 1.321 . S
C1729 C756 1.572 . S
C1727 C87 1.578 . S
C1740 C844 1.847 . S
C1738 C99 1.852 . S
C1749 C177 1.393 . S
C1751 C404 1.390 . S
C1762 C345 1.447 . S
C1760 C22 1.437 . S
C1771 C35 1.899 . S
C1773 C441 1.903 . S
C1784 C265 1.354 . S
C1782 C4 1.369 . S
