# Generated by pormake.
# Topology pto, (3,4)-cn, num edge types: 1
# Building blocks:
#     Node 0, Type 0, BuildingBlock: OLANEW_clean_sbu_2, # of connection points: 3
#     Node 1, Type 0, BuildingBlock: OLANEW_clean_sbu_2, # of connection points: 3
#     Node 2, Type 0, BuildingBlock: OLANEW_clean_sbu_2, # of connection points: 3
#     Node 3, Type 0, BuildingBlock: OLANEW_clean_sbu_2, # of connection points: 3
#     Node 4, Type 0, BuildingBlock: OLANEW_clean_sbu_2, # of connection points: 3
#     Node 5, Type 0, BuildingBlock: OLANEW_clean_sbu_2, # of connection points: 3
#     Node 6, Type 0, BuildingBlock: OLANEW_clean_sbu_2, # of connection points: 3
#     Node 7, Type 0, BuildingBlock: OLANEW_clean_sbu_2, # of connection points: 3
#     Node 8, Type 1, BuildingBlock: NAWXER_clean_linker_0, # of connection points: 4
#     Node 9, Type 1, BuildingBlock: NAWXER_clean_linker_0, # of connection points: 4
#     Node 10, Type 1, BuildingBlock: NAWXER_clean_linker_0, # of connection points: 4
#     Node 11, Type 1, BuildingBlock: NAWXER_clean_linker_0, # of connection points: 4
#     Node 12, Type 1, BuildingBlock: NAWXER_clean_linker_0, # of connection points: 4
#     Node 13, Type 1, BuildingBlock: NAWXER_clean_linker_0, # of connection points: 4
#     Edge 14, Type (0, 1), BuildingBlock: EZIPEK_clean_linker_0, # of connection points: 2
#     Edge 15, Type (0, 1), BuildingBlock: EZIPEK_clean_linker_0, # of connection points: 2
#     Edge 16, Type (0, 1), BuildingBlock: EZIPEK_clean_linker_0, # of connection points: 2
#     Edge 17, Type (0, 1), BuildingBlock: EZIPEK_clean_linker_0, # of connection points: 2
#     Edge 18, Type (0, 1), BuildingBlock: EZIPEK_clean_linker_0, # of connection points: 2
#     Edge 19, Type (0, 1), BuildingBlock: EZIPEK_clean_linker_0, # of connection points: 2
#     Edge 20, Type (0, 1), BuildingBlock: EZIPEK_clean_linker_0, # of connection points: 2
#     Edge 21, Type (0, 1), BuildingBlock: EZIPEK_clean_linker_0, # of connection points: 2
#     Edge 22, Type (0, 1), BuildingBlock: EZIPEK_clean_linker_0, # of connection points: 2
#     Edge 23, Type (0, 1), BuildingBlock: EZIPEK_clean_linker_0, # of connection points: 2
#     Edge 24, Type (0, 1), BuildingBlock: EZIPEK_clean_linker_0, # of connection points: 2
#     Edge 25, Type (0, 1), BuildingBlock: EZIPEK_clean_linker_0, # of connection points: 2
#     Edge 26, Type (0, 1), BuildingBlock: EZIPEK_clean_linker_0, # of connection points: 2
#     Edge 27, Type (0, 1), BuildingBlock: EZIPEK_clean_linker_0, # of connection points: 2
#     Edge 28, Type (0, 1), BuildingBlock: EZIPEK_clean_linker_0, # of connection points: 2
#     Edge 29, Type (0, 1), BuildingBlock: EZIPEK_clean_linker_0, # of connection points: 2
#     Edge 30, Type (0, 1), BuildingBlock: EZIPEK_clean_linker_0, # of connection points: 2
#     Edge 31, Type (0, 1), BuildingBlock: EZIPEK_clean_linker_0, # of connection points: 2
#     Edge 32, Type (0, 1), BuildingBlock: EZIPEK_clean_linker_0, # of connection points: 2
#     Edge 33, Type (0, 1), BuildingBlock: EZIPEK_clean_linker_0, # of connection points: 2
#     Edge 34, Type (0, 1), BuildingBlock: EZIPEK_clean_linker_0, # of connection points: 2
#     Edge 35, Type (0, 1), BuildingBlock: EZIPEK_clean_linker_0, # of connection points: 2
#     Edge 36, Type (0, 1), BuildingBlock: EZIPEK_clean_linker_0, # of connection points: 2
#     Edge 37, Type (0, 1), BuildingBlock: EZIPEK_clean_linker_0, # of connection points: 2
# Relax obj value: 0.009
# Max RMSD: 0.122
# Mean RMSD: 0.052
data_MOF--net-pto--node1-OLANEW_clean_sbu_2--node2-NAWXER_clean_linker_0--edge1-EZIPEK_clean_linker_0
_symmetry_space_group_name_H-M    P1
_symmetry_Int_Tables_number       1
_symmetry_cell_setting            triclinic
loop_
_symmetry_equiv_pos_as_xyz
'x, y, z'
_cell_length_a     33.143026
_cell_length_b     47.517991
_cell_length_c     40.3653
_cell_angle_alpha  92.327641
_cell_angle_beta   89.526505
_cell_angle_gamma 105.84761
loop_
_atom_site_label
_atom_site_type_symbol
_atom_site_fract_x
_atom_site_fract_y
_atom_site_fract_z
_atom_type_partial_charge
O0 O 0.34913 0.31555 0.26714 0.0
Cd1 Cd 0.32491 0.32119 0.32371 0.0
O2 O 0.35416 0.36122 0.25507 0.0
Cd3 Cd 0.32328 0.37176 0.30003 0.0
O4 O 0.27758 0.39107 0.32456 0.0
C5 C 0.26562 0.40905 0.30725 0.0
O6 O 0.28096 0.41435 0.27733 0.0
C7 C 0.35906 0.33623 0.24704 0.0
C8 C 0.3385 0.2776 0.36269 0.0
O9 O 0.36667 0.30201 0.36032 0.0
O10 O 0.30391 0.27384 0.34692 0.0
O11 O 0.32357 0.8435 0.76472 0.0
Cd12 Cd 0.27078 0.84304 0.72266 0.0
O13 O 0.36036 0.8218 0.73183 0.0
Cd14 Cd 0.30877 0.80972 0.69633 0.0
O15 O 0.24279 0.78727 0.68726 0.0
C16 C 0.22243 0.77747 0.71309 0.0
O17 O 0.24376 0.78018 0.74087 0.0
C18 C 0.35572 0.83421 0.75957 0.0
C19 C 0.29835 0.8885 0.67957 0.0
O20 O 0.30706 0.86408 0.67412 0.0
O21 O 0.27683 0.89154 0.70533 0.0
O22 O 0.8141 0.79403 0.33644 0.0
Cd23 Cd 0.79086 0.74846 0.30285 0.0
O24 O 0.75328 0.80355 0.32936 0.0
Cd25 Cd 0.72596 0.76779 0.29396 0.0
O26 O 0.69049 0.76183 0.24783 0.0
C27 C 0.68746 0.78586 0.23684 0.0
O28 O 0.705 0.81042 0.25354 0.0
C29 C 0.78971 0.81017 0.34216 0.0
C30 C 0.83975 0.7102 0.31172 0.0
O31 O 0.84913 0.72939 0.28949 0.0
O32 O 0.80757 0.70907 0.32995 0.0
O33 O 0.75628 0.31155 0.61825 0.0
Cd34 Cd 0.70312 0.26489 0.62304 0.0
O35 O 0.756 0.32207 0.67198 0.0
Cd36 Cd 0.70299 0.28569 0.68514 0.0
O37 O 0.65163 0.27192 0.72031 0.0
C38 C 0.65492 0.28924 0.74558 0.0
O39 O 0.68707 0.31262 0.74794 0.0
C40 C 0.77057 0.3284 0.64319 0.0
C41 C 0.73938 0.21896 0.61282 0.0
O42 O 0.72447 0.22941 0.58844 0.0
O43 O 0.73697 0.22999 0.64203 0.0
O44 O 0.75522 0.80495 0.64779 0.0
Cd45 Cd 0.74027 0.76371 0.68459 0.0
O46 O 0.80991 0.82977 0.67742 0.0
Cd47 Cd 0.79213 0.80148 0.71919 0.0
O48 O 0.75435 0.79468 0.76408 0.0
C49 C 0.71727 0.79707 0.76141 0.0
O50 O 0.70335 0.8013 0.73215 0.0
C51 C 0.78655 0.82727 0.65203 0.0
C52 C 0.7921 0.72677 0.6741 0.0
O53 O 0.80413 0.75032 0.69221 0.0
O54 O 0.75584 0.72082 0.6604 0.0
O55 O 0.83401 0.298 0.29395 0.0
Cd56 Cd 0.78026 0.25192 0.28274 0.0
O57 O 0.78949 0.3243 0.2868 0.0
Cd58 Cd 0.73783 0.28882 0.26676 0.0
O59 O 0.68994 0.27443 0.22813 0.0
C60 C 0.68025 0.29509 0.21394 0.0
O61 O 0.69766 0.32228 0.22416 0.0
C62 C 0.82586 0.32265 0.29454 0.0
C63 C 0.78935 0.20811 0.32348 0.0
O64 O 0.80653 0.21114 0.29481 0.0
O65 O 0.76793 0.22568 0.333 0.0
O66 O 0.23771 0.3479 0.79039 0.0
Cd67 Cd 0.18679 0.34317 0.7454 0.0
O68 O 0.27853 0.34079 0.74995 0.0
Cd69 Cd 0.33295 0.32895 0.72951 0.0
O70 O 0.36135 0.30155 0.6978 0.0
C71 C 0.33498 0.28215 0.68062 0.0
O72 O 0.29497 0.28096 0.68263 0.0
C73 C 0.27217 0.34348 0.78084 0.0
C74 C 0.1553 0.39019 0.73284 0.0
O75 O 0.13717 0.37111 0.75362 0.0
O76 O 0.18922 0.38782 0.71897 0.0
O77 O 0.35399 0.84809 0.25708 0.0
Cd78 Cd 0.30432 0.84538 0.30289 0.0
O79 O 0.30794 0.85161 0.21944 0.0
Cd80 Cd 0.25658 0.84237 0.25493 0.0
O81 O 0.21135 0.80859 0.28124 0.0
C82 C 0.22288 0.7855 0.28493 0.0
O83 O 0.26033 0.78466 0.27483 0.0
C84 C 0.34482 0.85101 0.2271 0.0
C85 C 0.33483 0.88669 0.35382 0.0
O86 O 0.34007 0.86098 0.3545 0.0
O87 O 0.31555 0.89307 0.32905 0.0
C88 C 0.98387 0.44363 0.30566 0.0
C89 C 0.94766 0.43352 0.32479 0.0
C90 C 0.0091 0.47229 0.31051 0.0
C91 C -0.00092 0.49107 0.33515 0.0
C92 C 0.93787 0.452 0.34971 0.0
C93 C 0.96335 0.48059 0.35479 0.0
C94 C 0.02269 0.52243 0.33799 0.0
C95 C 0.1158 0.47195 0.35926 0.0
C96 C 0.1474 0.4753 0.33521 0.0
C97 C 0.08955 0.49058 0.3603 0.0
C98 C 0.09463 0.5127 0.33725 0.0
C99 C 0.153 0.49769 0.31267 0.0
C100 C 0.12701 0.51637 0.31382 0.0
C101 C 0.06699 0.53245 0.33739 0.0
C102 C 0.09775 0.66426 0.35039 0.0
C103 C 0.12728 0.67231 0.32499 0.0
C104 C 0.07734 0.63471 0.35459 0.0
C105 C 0.08603 0.61297 0.33322 0.0
C106 C 0.13691 0.65061 0.30436 0.0
C107 C 0.11662 0.62114 0.30857 0.0
C108 C 0.06295 0.58174 0.3357 0.0
C109 C 0.97159 0.62898 0.30269 0.0
C110 C 0.94053 0.62952 0.32629 0.0
C111 C -0.00321 0.60999 0.30578 0.0
C112 C 0.99159 0.59153 0.33276 0.0
C113 C 0.93457 0.61065 0.35283 0.0
C114 C 0.95981 0.59162 0.35593 0.0
C115 C 0.01875 0.57179 0.33646 0.0
H116 H 0.99156 0.42973 0.28605 0.0
H117 H 0.03542 0.48004 0.29407 0.0
H118 H 0.90982 0.44458 0.36449 0.0
H119 H 0.95463 0.49476 0.37359 0.0
H120 H 0.11132 0.45482 0.37694 0.0
H121 H 0.06535 0.48773 0.37904 0.0
H122 H 0.17738 0.50058 0.29406 0.0
H123 H 0.13167 0.53338 0.29595 0.0
H124 H 0.09018 0.68083 0.36657 0.0
H125 H 0.05447 0.62887 0.37422 0.0
H126 H 0.15977 0.65656 0.28471 0.0
H127 H 0.12395 0.60475 0.29194 0.0
H128 H 0.97632 0.64329 0.28194 0.0
H129 H 0.02038 0.60975 0.28712 0.0
H130 H 0.91051 0.61075 0.37112 0.0
H131 H 0.955 0.57732 0.37668 0.0
N132 N 0.00033 0.54256 0.3378 0.0
N133 N 0.08532 0.56169 0.336 0.0
C134 C 0.92796 0.45164 0.63148 0.0
C135 C 0.88828 0.44238 0.64615 0.0
C136 C 0.9524 0.48052 0.63669 0.0
C137 C 0.93754 0.50036 0.65688 0.0
C138 C 0.87308 0.46228 0.66572 0.0
C139 C 0.89746 0.49108 0.67094 0.0
C140 C 0.96279 0.53104 0.66273 0.0
C141 C 0.03322 0.4758 0.71168 0.0
C142 C 0.07255 0.47732 0.69768 0.0
C143 C 0.0113 0.49573 0.70312 0.0
C144 C 0.02824 0.51727 0.68014 0.0
C145 C 0.08993 0.49908 0.67519 0.0
C146 C 0.06802 0.51907 0.66665 0.0
C147 C 0.00564 0.5389 0.67158 0.0
C148 C 0.04531 0.668 0.70527 0.0
C149 C 0.08543 0.67673 0.69117 0.0
C150 C 0.01968 0.63961 0.69908 0.0
C151 C 0.03312 0.61998 0.67753 0.0
C152 C 0.09919 0.65703 0.67017 0.0
C153 C 0.07322 0.62892 0.66336 0.0
C154 C 0.00735 0.58946 0.67133 0.0
C155 C 0.92998 0.64911 0.64273 0.0
C156 C 0.89193 0.64408 0.66007 0.0
C157 C 0.95305 0.62842 0.6426 0.0
C158 C 0.93898 0.6029 0.66073 0.0
C159 C 0.87676 0.61786 0.67654 0.0
C160 C 0.90008 0.59749 0.67689 0.0
C161 C 0.96402 0.58157 0.66347 0.0
H162 H 0.93989 0.43655 0.61604 0.0
H163 H 0.98273 0.48737 0.62479 0.0
H164 H 0.84238 0.45543 0.67705 0.0
H165 H 0.88519 0.50604 0.68633 0.0
H166 H 0.01953 0.45918 0.72919 0.0
H167 H 0.98128 0.49446 0.71467 0.0
H168 H 0.12034 0.50051 0.66425 0.0
H169 H 0.08191 0.53575 0.64926 0.0
H170 H 0.03438 0.6829 0.72177 0.0
H171 H 0.98965 0.63295 0.71144 0.0
H172 H 0.13015 0.6634 0.65921 0.0
H173 H 0.08454 0.61405 0.64709 0.0
H174 H 0.942 0.66916 0.6297 0.0
H175 H 0.98222 0.63266 0.62896 0.0
H176 H 0.84736 0.61357 0.68991 0.0
H177 H 0.88824 0.57783 0.69066 0.0
N178 N 0.9436 0.55266 0.65947 0.0
N179 N 0.02634 0.56776 0.67501 0.0
C180 C 0.33037 0.17328 0.46583 0.0
C181 C 0.36064 0.18381 0.44158 0.0
C182 C 0.33313 0.15015 0.4851 0.0
C183 C 0.36641 0.13732 0.48059 0.0
C184 C 0.39372 0.17088 0.43676 0.0
C185 C 0.39638 0.14759 0.45598 0.0
C186 C 0.36886 0.11253 0.50076 0.0
C187 C 0.39486 0.19165 0.57044 0.0
C188 C 0.36388 0.19013 0.59469 0.0
C189 C 0.39542 0.16674 0.55097 0.0
C190 C 0.36489 0.14007 0.55552 0.0
C191 C 0.33375 0.16347 0.59952 0.0
C192 C 0.33441 0.13858 0.58022 0.0
C193 C 0.36528 0.11332 0.53563 0.0
C194 C 0.37846 0.99407 0.57294 0.0
C195 C 0.34512 0.98751 0.59554 0.0
C196 C 0.38506 0.01882 0.55381 0.0
C197 C 0.35777 0.03687 0.55659 0.0
C198 C 0.3187 0.00595 0.59905 0.0
C199 C 0.32504 0.03047 0.57978 0.0
C200 C 0.36303 0.06277 0.53614 0.0
C201 C 0.33862 0.98344 0.46807 0.0
C202 C 0.37282 0.98275 0.44702 0.0
C203 C 0.3366 0.00908 0.48532 0.0
C204 C 0.36813 0.0352 0.4816 0.0
C205 C 0.40113 0.01021 0.44036 0.0
C206 C 0.39933 0.03581 0.45792 0.0
C207 C 0.36791 0.06213 0.50127 0.0
H208 H 0.30448 0.18288 0.46967 0.0
H209 H 0.309 0.1421 0.50332 0.0
H210 H 0.41723 0.17872 0.41801 0.0
H211 H 0.42202 0.13779 0.45189 0.0
H212 H 0.41847 0.21208 0.56662 0.0
H213 H 0.41987 0.16823 0.53263 0.0
H214 H 0.30973 0.16198 0.61825 0.0
H215 H 0.31081 0.11821 0.58432 0.0
H216 H 0.39925 0.98006 0.57018 0.0
H217 H 0.41126 0.02377 0.5368 0.0
H218 H 0.29291 0.00115 0.61647 0.0
H219 H 0.30386 0.0442 0.58258 0.0
H220 H 0.31246 0.96436 0.47109 0.0
H221 H 0.31024 0.00846 0.5016 0.0
H222 H 0.42448 0.01291 0.42123 0.0
H223 H 0.42262 0.05617 0.45306 0.0
N224 N 0.37069 0.08709 0.48491 0.0
N225 N 0.36195 0.08835 0.55187 0.0
C226 C 0.50066 0.85301 0.88005 0.0
C227 C 0.45782 0.83903 0.87569 0.0
C228 C 0.5205 0.85097 0.90997 0.0
C229 C 0.49791 0.83431 0.93553 0.0
C230 C 0.43493 0.82344 0.90166 0.0
C231 C 0.45479 0.82117 0.93137 0.0
C232 C 0.51849 0.83028 0.96672 0.0
C233 C 0.57941 0.79113 0.8837 0.0
C234 C 0.62197 0.80586 0.88011 0.0
C235 C 0.55793 0.79592 0.9124 0.0
C236 C 0.57869 0.81581 0.93759 0.0
C237 C 0.64304 0.82496 0.90566 0.0
C238 C 0.62159 0.82977 0.93431 0.0
C239 C 0.55628 0.82194 0.96765 0.0
C240 C 0.56319 0.78831 0.1084 0.0
C241 C 0.60553 0.80136 0.1161 0.0
C242 C 0.54599 0.79505 0.07929 0.0
C243 C 0.57091 0.81502 0.0576 0.0
C244 C 0.63065 0.82083 0.09415 0.0
C245 C 0.6135 0.82746 0.06495 0.0
C246 C 0.55308 0.82217 0.02665 0.0
C247 C 0.49359 0.85968 0.11119 0.0
C248 C 0.45052 0.8462 0.11408 0.0
C249 C 0.5149 0.85513 0.08231 0.0
C250 C 0.49343 0.83683 0.05611 0.0
C251 C 0.42883 0.82859 0.08766 0.0
C252 C 0.45009 0.8241 0.05877 0.0
C253 C 0.51573 0.83097 0.02581 0.0
H254 H 0.51871 0.86519 0.86024 0.0
H255 H 0.55351 0.8621 0.91295 0.0
H256 H 0.40181 0.81256 0.89866 0.0
H257 H 0.43664 0.80848 0.95081 0.0
H258 H 0.5628 0.77628 0.86416 0.0
H259 H 0.52507 0.78434 0.9148 0.0
H260 H 0.67592 0.83646 0.90318 0.0
H261 H 0.63826 0.84492 0.9536 0.0
H262 H 0.54351 0.77307 0.12502 0.0
H263 H 0.51331 0.78458 0.07365 0.0
H264 H 0.66345 0.83097 0.09974 0.0
H265 H 0.63332 0.84263 0.04834 0.0
H266 H 0.51066 0.87339 0.1314 0.0
H267 H 0.54815 0.86577 0.08049 0.0
H268 H 0.39553 0.81809 0.08958 0.0
H269 H 0.43286 0.81013 0.0388 0.0
N270 N 0.4996 0.83435 -0.00414 0.0
N271 N 0.57221 0.81835 -0.00241 0.0
C272 C 0.77273 0.10523 0.4312 0.0
C273 C 0.80484 0.11645 0.40857 0.0
C274 C 0.77539 0.08283 0.45172 0.0
C275 C 0.81028 0.07139 0.44991 0.0
C276 C 0.8396 0.10499 0.40655 0.0
C277 C 0.84211 0.0824 0.4269 0.0
C278 C 0.81269 0.04709 0.47088 0.0
C279 C 0.82634 0.12572 0.54045 0.0
C280 C 0.79711 0.12261 0.56683 0.0
C281 C 0.82981 0.10162 0.52073 0.0
C282 C 0.80239 0.07385 0.52511 0.0
C283 C 0.76769 0.0948 0.56895 0.0
C284 C 0.77102 0.07077 0.54912 0.0
C285 C 0.80665 0.04771 0.50563 0.0
C286 C 0.83941 0.93522 0.54558 0.0
C287 C 0.80442 0.92417 0.56573 0.0
C288 C 0.84143 0.95941 0.52641 0.0
C289 C 0.80861 0.97292 0.52736 0.0
C290 C 0.77166 0.93768 0.56665 0.0
C291 C 0.77393 0.96206 0.54783 0.0
C292 C 0.81016 -0.00165 0.50705 0.0
C293 C 0.78441 0.91962 0.43836 0.0
C294 C 0.81842 0.91894 0.41779 0.0
C295 C 0.78379 0.9453 0.45608 0.0
C296 C 0.81732 0.97067 0.45363 0.0
C297 C 0.85206 0.94423 0.41531 0.0
C298 C 0.85131 0.97006 0.43292 0.0
C299 C 0.8164 -0.00223 0.47249 0.0
H300 H 0.74559 0.11376 0.43285 0.0
H301 H 0.74998 0.07419 0.46872 0.0
H302 H 0.86451 0.11337 0.38904 0.0
H303 H 0.86903 0.07366 0.42489 0.0
H304 H 0.84642 0.14662 0.53383 0.0
H305 H 0.85414 0.10482 0.50207 0.0
H306 H 0.74099 0.09114 0.58526 0.0
H307 H 0.74845 0.04973 0.55224 0.0
H308 H 0.86514 0.92523 0.54489 0.0
H309 H 0.86875 0.96773 0.5111 0.0
H310 H 0.74458 0.92952 0.58228 0.0
H311 H 0.74836 0.97221 0.54891 0.0
H312 H 0.75808 0.90036 0.44032 0.0
H313 H 0.75691 0.94545 0.47147 0.0
H314 H 0.87843 0.94403 0.39936 0.0
H315 H 0.87734 0.98946 0.43064 0.0
N316 N 0.81762 0.02217 0.45563 0.0
N317 N 0.80534 0.02321 0.52231 0.0
C318 C 0.42729 0.33685 0.8825 0.0
C319 C 0.38411 0.32307 0.88082 0.0
C320 C 0.45158 0.33063 0.90793 0.0
C321 C 0.43306 0.31028 0.93179 0.0
C322 C 0.36551 0.30299 0.90474 0.0
C323 C 0.38976 0.29678 0.93015 0.0
C324 C 0.45796 0.30417 0.95957 0.0
C325 C 0.5101 0.27151 0.86669 0.0
C326 C 0.55188 0.28688 0.86062 0.0
C327 C 0.49182 0.27503 0.89741 0.0
C328 C 0.51516 0.29399 0.9223 0.0
C329 C 0.57528 0.30555 0.88553 0.0
C330 C 0.55714 0.30893 0.91622 0.0
C331 C 0.49687 0.29762 0.9552 0.0
C332 C 0.53409 0.26952 0.09468 0.0
C333 C 0.57576 0.28654 0.09835 0.0
C334 C 0.51101 0.27195 0.06665 0.0
C335 C 0.52924 0.29158 0.04204 0.0
C336 C 0.59456 0.30518 0.07315 0.0
C337 C 0.5715 0.30756 0.04508 0.0
C338 C 0.504 0.29633 0.01379 0.0
C339 C 0.45917 0.33407 0.10527 0.0
C340 C 0.41957 0.31731 0.11528 0.0
C341 C 0.47384 0.32974 0.07349 0.0
C342 C 0.44914 0.30852 0.05131 0.0
C343 C 0.39455 0.29646 0.09296 0.0
C344 C 0.40913 0.29227 0.06105 0.0
C345 C 0.46536 0.30308 0.01817 0.0
H346 H 0.44204 0.3525 0.86428 0.0
H347 H 0.48467 0.34201 0.9092 0.0
H348 H 0.33218 0.29223 0.90378 0.0
H349 H 0.37473 0.2813 0.94846 0.0
H350 H 0.49179 0.25687 0.84771 0.0
H351 H 0.45968 0.26275 0.90182 0.0
H352 H 0.60764 0.31744 0.88119 0.0
H353 H 0.57579 0.32345 0.93515 0.0
H354 H 0.51928 0.25487 0.11383 0.0
H355 H 0.47871 0.2589 0.06446 0.0
H356 H 0.62679 0.31833 0.07558 0.0
H357 H 0.58621 0.32266 0.0263 0.0
H358 H 0.4787 0.3504 0.12212 0.0
H359 H 0.50455 0.34285 0.06624 0.0
H360 H 0.3638 0.28347 0.10031 0.0
H361 H 0.38959 0.27593 0.04422 0.0
N362 N 0.44358 0.30649 0.99095 0.0
N363 N 0.51852 0.29413 0.98251 0.0
C364 C 0.19264 0.41411 0.30366 0.0
C365 C 0.23265 0.42259 0.31922 0.0
C366 C 0.21431 0.4633 0.34919 0.0
C367 C 0.17476 0.45527 0.33294 0.0
N368 N 0.12243 0.42036 0.30017 0.0
N369 N 0.27917 0.45117 0.36121 0.0
C370 C 0.16268 0.42971 0.31195 0.0
C371 C 0.24259 0.4458 0.34361 0.0
N372 N 0.1838 0.39153 0.28036 0.0
N373 N 0.22534 0.48836 0.36885 0.0
H374 H 0.3012 0.43942 0.35695 0.0
H375 H 0.28659 0.4658 0.38156 0.0
H376 H 0.20472 0.50096 0.37454 0.0
H377 H 0.25535 0.49755 0.37833 0.0
H378 H 0.15754 0.38643 0.265 0.0
H379 H 0.2038 0.37833 0.27538 0.0
H380 H 0.11012 0.40045 0.28736 0.0
H381 H 0.09999 0.43163 0.30529 0.0
C382 C 0.15599 0.75391 0.6802 0.0
C383 C 0.17826 0.75822 0.71068 0.0
C384 C 0.13183 0.71313 0.73106 0.0
C385 C 0.11385 0.70629 0.69894 0.0
N386 N 0.10432 0.72109 0.64377 0.0
N387 N 0.16861 0.75176 0.76942 0.0
C388 C 0.12422 0.7272 0.67381 0.0
C389 C 0.16047 0.74089 0.73762 0.0
N390 N 0.16315 0.77627 0.65878 0.0
N391 N 0.12365 0.69263 0.75481 0.0
H392 H 0.18466 0.77358 0.7748 0.0
H393 H 0.15398 0.74075 0.78996 0.0
H394 H 0.10344 0.6717 0.75109 0.0
H395 H 0.13983 0.69561 0.77728 0.0
H396 H 0.14687 0.7755 0.6367 0.0
H397 H 0.1822 0.79714 0.66516 0.0
H398 H 0.1134 0.73356 0.62303 0.0
H399 H 0.07897 0.70275 0.63923 0.0
C400 C 0.85652 0.66323 0.29576 0.0
C401 C 0.86516 0.6894 0.31584 0.0
C402 C 0.92458 0.67705 0.34153 0.0
C403 C 0.91418 0.64997 0.32308 0.0
N404 N 0.86735 0.61506 0.28619 0.0
N405 N 0.90328 0.71991 0.36073 0.0
C406 C 0.87931 0.64243 0.30114 0.0
C407 C 0.89799 0.69592 0.33963 0.0
N408 N 0.82705 0.65856 0.27113 0.0
N409 N 0.96064 0.68512 0.35999 0.0
H410 H 0.8852 0.73469 0.35936 0.0
H411 H 0.9235 0.72415 0.38104 0.0
H412 H 0.98058 0.6717 0.36232 0.0
H413 H 0.97253 0.70589 0.37104 0.0
H414 H 0.82257 0.64164 0.25317 0.0
H415 H 0.80875 0.67284 0.26719 0.0
H416 H 0.83962 0.60699 0.27279 0.0
H417 H 0.88365 0.5994 0.28923 0.0
C418 C 0.84215 0.36064 0.65674 0.0
C419 C 0.80385 0.35604 0.63918 0.0
C420 C 0.82703 0.40596 0.61936 0.0
C421 C 0.86195 0.41184 0.6411 0.0
N422 N 0.9021 0.39573 0.6823 0.0
N423 N 0.75758 0.375 0.60602 0.0
C424 C 0.86964 0.38936 0.66007 0.0
C425 C 0.79586 0.37874 0.62065 0.0
N426 N 0.85254 0.33737 0.66963 0.0
N427 N 0.82389 0.42639 0.59736 0.0
H428 H 0.73366 0.35553 0.60649 0.0
H429 H 0.74827 0.39193 0.5956 0.0
H430 H 0.84618 0.44662 0.59594 0.0
H431 H 0.80146 0.4223 0.57856 0.0
H432 H 0.88175 0.33877 0.67993 0.0
H433 H 0.8333 0.31597 0.66713 0.0
H434 H 0.90631 0.38112 0.69963 0.0
H435 H 0.9234 0.41638 0.68503 0.0
C436 C 0.35529 0.25919 0.41703 0.0
C437 C 0.34594 0.25399 0.38268 0.0
C438 C 0.34438 0.20242 0.38728 0.0
C439 C 0.35706 0.20818 0.42093 0.0
N440 N 0.38219 0.24297 0.46635 0.0
N441 N 0.34064 0.22244 0.33356 0.0
C442 C 0.36485 0.23689 0.43537 0.0
C443 C 0.34302 0.22609 0.36734 0.0
N444 N 0.35306 0.28484 0.43253 0.0
N445 N 0.33217 0.17423 0.37466 0.0
H446 H 0.34059 0.2394 0.31797 0.0
H447 H 0.34291 0.20342 0.32084 0.0
H448 H 0.33264 0.15623 0.38845 0.0
H449 H 0.31815 0.16847 0.35146 0.0
H450 H 0.35504 0.28854 0.45814 0.0
H451 H 0.34537 0.30153 0.42017 0.0
H452 H 0.39265 0.2641 0.47681 0.0
H453 H 0.38961 0.22718 0.48052 0.0
C454 C 0.40428 0.86372 0.80337 0.0
C455 C 0.3862 0.83627 0.78682 0.0
C456 C 0.42433 0.81288 0.82384 0.0
C457 C 0.43676 0.83921 0.84346 0.0
N458 N 0.43539 0.88927 0.85407 0.0
N459 N 0.37349 0.78356 0.78497 0.0
C460 C 0.42615 0.86465 0.83372 0.0
C461 C 0.39504 0.81052 0.79776 0.0
N462 N 0.40148 0.88894 0.78962 0.0
N463 N 0.4408 0.79017 0.83 0.0
H464 H 0.35032 0.78043 0.76683 0.0
H465 H 0.37555 0.76403 0.79472 0.0
H466 H 0.46261 0.79124 0.84884 0.0
H467 H 0.43607 0.77154 0.8144 0.0
H468 H 0.41744 0.90975 0.7989 0.0
H469 H 0.38656 0.8891 0.76699 0.0
H470 H 0.4242 0.90732 0.85005 0.0
H471 H 0.45164 0.89086 0.87638 0.0
C472 C 0.80641 0.86451 0.34439 0.0
C473 C 0.80441 0.83844 0.361 0.0
C474 C 0.82183 0.86679 0.41353 0.0
C475 C 0.81736 0.89192 0.39769 0.0
N476 N 0.80058 0.91415 0.34875 0.0
N477 N 0.8077 0.81386 0.41157 0.0
C478 C 0.80876 0.89075 0.36321 0.0
C479 C 0.81198 0.83933 0.39561 0.0
N480 N 0.80677 0.86422 0.31049 0.0
N481 N 0.83586 0.86934 0.44556 0.0
H482 H 0.80111 0.79343 0.39915 0.0
H483 H 0.80796 0.81269 0.43727 0.0
H484 H 0.84328 0.88917 0.4593 0.0
H485 H 0.84352 0.85252 0.4576 0.0
H486 H 0.8124 0.8831 0.29696 0.0
H487 H 0.80568 0.84539 0.29588 0.0
H488 H 0.78923 0.91326 0.32463 0.0
H489 H 0.80176 0.93384 0.36159 0.0
C490 C 0.59703 0.3044 0.77492 0.0
C491 C 0.62214 0.28456 0.77146 0.0
C492 C 0.59589 0.26305 0.8243 0.0
C493 C 0.5719 0.28355 0.82825 0.0
N494 N 0.54231 0.3195 0.80531 0.0
N495 N 0.63974 0.24138 0.78865 0.0
C496 C 0.57006 0.30284 0.80278 0.0
C497 C 0.61946 0.26255 0.79474 0.0
N498 N 0.59991 0.3252 0.75188 0.0
N499 N 0.59741 0.24495 0.84949 0.0
H500 H 0.65839 0.24096 0.76781 0.0
H501 H 0.63591 0.22305 0.80284 0.0
H502 H 0.57915 0.2439 0.87082 0.0
H503 H 0.61802 0.23194 0.85018 0.0
H504 H 0.5867 0.34265 0.75476 0.0
H505 H 0.61705 0.32565 0.73002 0.0
H506 H 0.53632 0.33202 0.78637 0.0
H507 H 0.52271 0.31922 0.82572 0.0
C508 C 0.297 0.91016 0.62405 0.0
C509 C 0.3132 0.9129 0.65687 0.0
C510 C 0.35604 0.96285 0.64706 0.0
C511 C 0.33694 0.96101 0.61545 0.0
N512 N 0.28904 0.93412 0.57336 0.0
N513 N 0.35774 0.94111 0.70029 0.0
C514 C 0.30767 0.93486 0.60365 0.0
C515 C 0.34275 0.93904 0.66853 0.0
N516 N 0.2712 0.88399 0.61251 0.0
N517 N 0.38737 0.98726 0.65618 0.0
H518 H 0.35136 0.92346 0.71587 0.0
H519 H 0.37526 0.96048 0.71191 0.0
H520 H 0.39723 0.00528 0.64127 0.0
H521 H 0.40567 0.98917 0.67739 0.0
H522 H 0.26211 0.87934 0.58784 0.0
H523 H 0.2602 0.86604 0.62731 0.0
H524 H 0.2639 0.9172 0.56461 0.0
H525 H 0.29754 0.9513 0.55714 0.0
C526 C 0.67551 0.77597 0.17547 0.0
C527 C 0.66343 0.78661 0.2063 0.0
C528 C 0.61324 0.80693 0.17798 0.0
C529 C 0.62372 0.79496 0.14741 0.0
N530 N 0.65759 0.7627 0.11775 0.0
N531 N 0.61393 0.80568 0.23787 0.0
C532 C 0.65261 0.77774 0.14639 0.0
C533 C 0.63019 0.80014 0.20784 0.0
N534 N 0.71018 0.76565 0.1736 0.0
N535 N 0.58848 0.82573 0.17842 0.0
H536 H 0.62485 0.8003 0.26027 0.0
H537 H 0.58696 0.8128 0.24041 0.0
H538 H 0.5754 0.83133 0.15709 0.0
H539 H 0.58371 0.83769 0.19958 0.0
H540 H 0.72319 0.76077 0.15126 0.0
H541 H 0.72819 0.76426 0.1942 0.0
H542 H 0.67491 0.74741 0.1164 0.0
H543 H 0.64126 0.76349 0.09597 0.0
C544 C 0.79832 0.20074 0.58924 0.0
C545 C 0.76011 0.19529 0.60722 0.0
C546 C 0.76328 0.14514 0.61471 0.0
C547 C 0.7935 0.14852 0.58909 0.0
N548 N 0.85942 0.18347 0.57862 0.0
N549 N 0.7071 0.16216 0.63929 0.0
C550 C 0.81724 0.17757 0.58348 0.0
C551 C 0.74322 0.1676 0.62121 0.0
N552 N 0.81674 0.22789 0.5778 0.0
N553 N 0.758 0.12251 0.63549 0.0
H554 H 0.6911 0.17791 0.64447 0.0
H555 H 0.69152 0.1413 0.64696 0.0
H556 H 0.77693 0.10817 0.6337 0.0
H557 H 0.73917 0.12039 0.65656 0.0
H558 H 0.84215 0.23188 0.56157 0.0
H559 H 0.80543 0.24599 0.58325 0.0
H560 H 0.87914 0.20464 0.57735 0.0
H561 H 0.87502 0.16728 0.58088 0.0
C562 C 0.35292 0.33646 0.1852 0.0
C563 C 0.37447 0.33091 0.21342 0.0
C564 C 0.42284 0.31332 0.17706 0.0
C565 C 0.40406 0.32192 0.14911 0.0
N566 N 0.35657 0.34694 0.12693 0.0
N567 N 0.43448 0.31895 0.23642 0.0
C568 C 0.37061 0.33501 0.15327 0.0
C569 C 0.41068 0.3206 0.20945 0.0
N570 N 0.31456 0.3418 0.18869 0.0
N571 N 0.45143 0.29749 0.17267 0.0
H572 H 0.42711 0.32463 0.26049 0.0
H573 H 0.46358 0.3146 0.23463 0.0
H574 H 0.46088 0.29153 0.14932 0.0
H575 H 0.463 0.28808 0.19202 0.0
H576 H 0.29557 0.34295 0.16863 0.0
H577 H 0.29967 0.34208 0.2115 0.0
H578 H 0.33541 0.35957 0.12931 0.0
H579 H 0.36897 0.34659 0.10312 0.0
C580 C 0.82727 0.69604 0.63788 0.0
C581 C 0.81899 0.70646 0.67002 0.0
C582 C 0.86533 0.68042 0.69417 0.0
C583 C 0.86868 0.66676 0.66276 0.0
N584 N 0.84749 0.65814 0.60535 0.0
N585 N 0.82324 0.70325 0.72952 0.0
C586 C 0.84822 0.67364 0.63471 0.0
C587 C 0.83627 0.69732 0.69843 0.0
N588 N 0.81673 0.70833 0.61035 0.0
N589 N 0.89054 0.67775 0.71982 0.0
H590 H 0.8003 0.71419 0.73393 0.0
H591 H 0.8318 0.69448 0.75074 0.0
H592 H 0.91288 0.666 0.7175 0.0
H593 H 0.89228 0.68965 0.74227 0.0
H594 H 0.82576 0.70355 0.58647 0.0
H595 H 0.80279 0.72554 0.61158 0.0
H596 H 0.8292 0.6601 0.58516 0.0
H597 H 0.86228 0.64147 0.60208 0.0
C598 C 0.88112 0.35476 0.33258 0.0
C599 C 0.85934 0.35004 0.30181 0.0
C600 C 0.89375 0.40045 0.28721 0.0
C601 C 0.91795 0.4045 0.31673 0.0
N602 N 0.94054 0.38411 0.36462 0.0
N603 N 0.85294 0.36585 0.24645 0.0
C604 C 0.91342 0.38119 0.33858 0.0
C605 C 0.86801 0.37216 0.27812 0.0
N606 N 0.8697 0.33469 0.35665 0.0
N607 N 0.89407 0.42383 0.26845 0.0
H608 H 0.8351 0.34508 0.23839 0.0
H609 H 0.86185 0.3803 0.2273 0.0
H610 H 0.91209 0.44509 0.27437 0.0
H611 H 0.87349 0.42264 0.24874 0.0
H612 H 0.88133 0.33842 0.38079 0.0
H613 H 0.84591 0.31524 0.3534 0.0
H614 H 0.94163 0.36686 0.37938 0.0
H615 H 0.96446 0.4032 0.36974 0.0
C616 C 0.11457 0.4103 0.69248 0.0
C617 C 0.13582 0.41325 0.72338 0.0
C618 C 0.11922 0.45981 0.73582 0.0
C619 C 0.09518 0.45562 0.70619 0.0
N620 N 0.06517 0.42559 0.65821 0.0
N621 N 0.15566 0.43888 0.77602 0.0
C622 C 0.09169 0.43056 0.68493 0.0
C623 C 0.13734 0.43747 0.74554 0.0
N624 N 0.11639 0.38814 0.67027 0.0
N625 N 0.12555 0.4855 0.75415 0.0
H626 H 0.17101 0.42367 0.78331 0.0
H627 H 0.15367 0.45406 0.79485 0.0
H628 H 0.11226 0.50213 0.74796 0.0
H629 H 0.14628 0.49136 0.77407 0.0
H630 H 0.10596 0.38682 0.64586 0.0
H631 H 0.13087 0.3719 0.67547 0.0
H632 H 0.05728 0.40612 0.64394 0.0
H633 H 0.04841 0.44017 0.65155 0.0
C634 C 0.15661 0.7442 0.2818 0.0
C635 C 0.19422 0.75907 0.29882 0.0
C636 C 0.18544 0.71818 0.33581 0.0
C637 C 0.14774 0.70351 0.31898 0.0
N638 N 0.09196 0.70493 0.28177 0.0
N639 N 0.2391 0.76386 0.34654 0.0
C640 C 0.13146 0.71742 0.29393 0.0
C641 C 0.20696 0.74716 0.32731 0.0
N642 N 0.1463 0.75455 0.25283 0.0
N643 N 0.20143 0.704 0.35905 0.0
H644 H 0.25503 0.78535 0.34119 0.0
H645 H 0.24741 0.75755 0.36933 0.0
H646 H 0.18576 0.68314 0.36669 0.0
H647 H 0.23125 0.71211 0.36934 0.0
H648 H 0.12206 0.74281 0.23731 0.0
H649 H 0.16393 0.7739 0.24276 0.0
H650 H 0.07659 0.71542 0.26597 0.0
H651 H 0.07296 0.68509 0.28984 0.0
C652 C 0.79683 0.84742 0.59485 0.0
C653 C 0.79301 0.85201 0.62958 0.0
C654 C 0.80443 0.90449 0.62222 0.0
C655 C 0.80273 0.89936 0.58737 0.0
N656 N 0.79148 0.86532 0.54009 0.0
N657 N 0.78342 0.88402 0.67542 0.0
C658 C 0.79744 0.87063 0.57348 0.0
C659 C 0.79431 0.88033 0.6431 0.0
N660 N 0.80121 0.82124 0.58239 0.0
N661 N 0.81654 0.93248 0.63544 0.0
H662 H 0.77353 0.86678 0.69139 0.0
H663 H 0.7797 0.90373 0.68537 0.0
H664 H 0.82491 0.95084 0.62092 0.0
H665 H 0.82239 0.93732 0.66065 0.0
H666 H 0.80832 0.81763 0.55767 0.0
H667 H 0.80164 0.80394 0.59737 0.0
H668 H 0.78306 0.84435 0.52902 0.0
H669 H 0.79155 0.88172 0.52366 0.0
C670 C 0.66023 0.27576 0.15565 0.0
C671 C 0.65051 0.28916 0.18564 0.0
C672 C 0.59089 0.30017 0.15865 0.0
C673 C 0.59959 0.2857 0.1291 0.0
N674 N 0.63616 0.25413 0.10141 0.0
N675 N 0.60132 0.30777 0.21806 0.0
C676 C 0.63226 0.27168 0.12825 0.0
C677 C 0.61416 0.29942 0.18785 0.0
N678 N 0.6973 0.26849 0.15261 0.0
N679 N 0.56166 0.31568 0.15848 0.0
H680 H 0.61729 0.30703 0.24003 0.0
H681 H 0.57279 0.31265 0.2218 0.0
H682 H 0.54389 0.3168 0.13762 0.0
H683 H 0.55726 0.32931 0.17823 0.0
H684 H 0.70825 0.26186 0.13018 0.0
H685 H 0.71896 0.27132 0.17187 0.0
H686 H 0.65656 0.24089 0.10076 0.0
H687 H 0.61623 0.25075 0.08088 0.0
C688 C 0.36673 0.24014 0.6706 0.0
C689 C 0.34854 0.26131 0.65791 0.0
C690 C 0.34471 0.23758 0.60241 0.0
C691 C 0.36253 0.21634 0.61537 0.0
N692 N 0.39498 0.19903 0.66081 0.0
N693 N 0.32976 0.2846 0.61072 0.0
C694 C 0.37534 0.21841 0.64899 0.0
C695 C 0.34039 0.26134 0.62344 0.0
N696 N 0.37521 0.23944 0.70348 0.0
N697 N 0.33003 0.23422 0.57051 0.0
H698 H 0.32699 0.30257 0.62539 0.0
H699 H 0.32751 0.28749 0.58545 0.0
H700 H 0.33325 0.21741 0.55417 0.0
H701 H 0.31219 0.24689 0.56078 0.0
H702 H 0.36917 0.25399 0.72169 0.0
H703 H 0.36917 0.25399 0.72169 0.0
H704 H 0.40449 0.19973 0.6855 0.0
H705 H 0.40282 0.18294 0.64577 0.0
C706 C 0.3873 0.87564 0.17945 0.0
C707 C 0.37604 0.85152 0.20049 0.0
C708 C 0.42148 0.82742 0.16871 0.0
C709 C 0.42793 0.84953 0.14519 0.0
N710 N 0.41517 0.8938 0.12627 0.0
N711 N 0.37765 0.80239 0.2126 0.0
C712 C 0.41054 0.87353 0.15011 0.0
C713 C 0.39222 0.82696 0.19471 0.0
N714 N 0.37673 0.90083 0.18807 0.0
N715 N 0.44351 0.80693 0.16624 0.0
H716 H 0.35546 0.80066 0.23139 0.0
H717 H 0.3847 0.7827 0.20687 0.0
H718 H 0.46478 0.80636 0.14719 0.0
H719 H 0.44358 0.79219 0.18463 0.0
H720 H 0.38748 0.92018 0.17555 0.0
H721 H 0.36026 0.90321 0.20967 0.0
H722 H 0.39918 0.90986 0.12652 0.0
H723 H 0.43307 0.89342 0.10496 0.0
C724 C 0.81539 0.1922 0.37582 0.0
C725 C 0.79387 0.18467 0.34507 0.0
C726 C 0.78316 0.13248 0.35467 0.0
C727 C 0.80163 0.13999 0.38653 0.0
N728 N 0.83099 0.17638 0.4295 0.0
N729 N 0.75164 0.14802 0.30719 0.0
C730 C 0.81647 0.16971 0.39773 0.0
C731 C 0.77639 0.15489 0.33491 0.0
N732 N 0.83631 0.22075 0.38341 0.0
N733 N 0.77254 0.10393 0.34316 0.0
H734 H 0.74563 0.16379 0.29219 0.0
H735 H 0.73415 0.12685 0.30047 0.0
H736 H 0.77555 0.08677 0.35737 0.0
H737 H 0.76357 0.09742 0.31876 0.0
H738 H 0.85634 0.22734 0.4037 0.0
H739 H 0.83651 0.23781 0.36789 0.0
H740 H 0.83762 0.19735 0.44048 0.0
H741 H 0.83374 0.16055 0.44586 0.0
C742 C 0.31438 0.31238 0.80459 0.0
C743 C 0.30281 0.3391 0.80538 0.0
C744 C 0.34421 0.35527 0.8562 0.0
C745 C 0.358 0.3295 0.85396 0.0
N746 N 0.36355 0.28652 0.8225 0.0
N747 N 0.31316 0.38836 0.82793 0.0
C748 C 0.3454 0.309 0.82699 0.0
C749 C 0.31956 0.36126 0.83008 0.0
N750 N 0.29407 0.28955 0.7838 0.0
N751 N 0.35357 0.37358 0.88375 0.0
H752 H 0.29587 0.3937 0.80886 0.0
H753 H 0.32814 0.4063 0.84321 0.0
H754 H 0.37212 0.37019 0.90313 0.0
H755 H 0.34042 0.39087 0.88857 0.0
H756 H 0.29814 0.26862 0.78469 0.0
H757 H 0.27014 0.29058 0.7677 0.0
H758 H 0.35906 0.2728 0.80128 0.0
H759 H 0.38619 0.28324 0.83859 0.0
C760 C 0.33248 0.90501 0.41287 0.0
C761 C 0.35103 0.90862 0.38093 0.0
C762 C 0.4013 0.95355 0.40172 0.0
C763 C 0.37504 0.95421 0.42943 0.0
N764 N 0.34025 0.92111 0.47075 0.0
N765 N 0.40624 0.93544 0.34549 0.0
C766 C 0.34767 0.92698 0.43812 0.0
C767 C 0.38648 0.93261 0.37547 0.0
N768 N 0.29919 0.8815 0.41873 0.0
N769 N 0.44261 0.96869 0.40331 0.0
H770 H 0.39771 0.91981 0.32606 0.0
H771 H 0.42963 0.9542 0.33963 0.0
H772 H 0.45612 0.97896 0.42548 0.0
H773 H 0.46414 0.96706 0.38486 0.0
H774 H 0.2818 0.87967 0.44055 0.0
H775 H 0.28717 0.86485 0.40091 0.0
H776 H 0.32359 0.90067 0.47889 0.0
H777 H 0.3554 0.93588 0.48957 0.0
C778 C 0.67883 0.82435 0.79863 0.0
C779 C 0.69184 0.79866 0.7914 0.0
C780 C 0.66008 0.7778 0.84316 0.0
C781 C 0.64435 0.8025 0.84889 0.0
N782 N 0.63132 0.84644 0.82917 0.0
N783 N 0.68896 0.74886 0.80351 0.0
C784 C 0.65141 0.82489 0.82567 0.0
C785 C 0.68087 0.77477 0.81278 0.0
N786 N 0.69448 0.84885 0.78085 0.0
N787 N 0.65616 0.75771 0.86711 0.0
H788 H 0.70379 0.74576 0.7813 0.0
H789 H 0.67783 0.72971 0.81634 0.0
H790 H 0.64043 0.75895 0.88938 0.0
H791 H 0.67106 0.74103 0.86601 0.0
H792 H 0.6896 0.8691 0.78734 0.0
H793 H 0.71584 0.84985 0.76153 0.0
H794 H 0.63164 0.8615 0.81106 0.0
H795 H 0.61113 0.84768 0.84881 0.0
loop_
_geom_bond_atom_site_label_1
_geom_bond_atom_site_label_2
_geom_bond_distance
_geom_bond_site_symmetry_2
_ccdc_geom_bond_type
O0 Cd1 2.300 . S
O0 C7 1.275 . S
Cd1 O0 2.300 . S
Cd1 O9 2.381 . S
Cd1 O10 2.378 . S
O2 Cd3 2.385 . S
O2 C7 1.255 . S
Cd3 O2 2.385 . S
Cd3 O4 2.317 . S
O4 Cd3 2.317 . S
O4 C5 1.232 . S
C5 O4 1.232 . S
C5 O6 1.218 . S
O6 C5 1.218 . S
C7 O0 1.275 . S
C7 O2 1.255 . S
C8 O9 1.258 . S
C8 O10 1.256 . S
O9 Cd1 2.381 . S
O9 C8 1.258 . S
O10 Cd1 2.378 . S
O10 C8 1.256 . S
O11 Cd12 2.300 . S
O11 C18 1.275 . S
Cd12 O11 2.300 . S
Cd12 O20 2.381 . S
Cd12 O21 2.378 . S
O13 Cd14 2.385 . S
O13 C18 1.255 . S
Cd14 O13 2.385 . S
Cd14 O15 2.317 . S
O15 Cd14 2.317 . S
O15 C16 1.232 . S
C16 O15 1.232 . S
C16 O17 1.218 . S
O17 C16 1.218 . S
C18 O11 1.275 . S
C18 O13 1.255 . S
C19 O20 1.258 . S
C19 O21 1.256 . S
O20 Cd12 2.381 . S
O20 C19 1.258 . S
O21 Cd12 2.378 . S
O21 C19 1.256 . S
O22 Cd23 2.300 . S
O22 C29 1.275 . S
Cd23 O22 2.300 . S
Cd23 O31 2.381 . S
Cd23 O32 2.378 . S
O24 Cd25 2.385 . S
O24 C29 1.255 . S
Cd25 O24 2.385 . S
Cd25 O26 2.317 . S
O26 Cd25 2.317 . S
O26 C27 1.232 . S
C27 O26 1.232 . S
C27 O28 1.218 . S
O28 C27 1.218 . S
C29 O22 1.275 . S
C29 O24 1.255 . S
C30 O31 1.258 . S
C30 O32 1.256 . S
O31 Cd23 2.381 . S
O31 C30 1.258 . S
O32 Cd23 2.378 . S
O32 C30 1.256 . S
O33 Cd34 2.300 . S
O33 C40 1.275 . S
Cd34 O33 2.300 . S
Cd34 O42 2.381 . S
Cd34 O43 2.378 . S
O35 Cd36 2.385 . S
O35 C40 1.255 . S
Cd36 O35 2.385 . S
Cd36 O37 2.317 . S
O37 Cd36 2.317 . S
O37 C38 1.232 . S
C38 O37 1.232 . S
C38 O39 1.218 . S
O39 C38 1.218 . S
C40 O33 1.275 . S
C40 O35 1.255 . S
C41 O42 1.258 . S
C41 O43 1.256 . S
O42 Cd34 2.381 . S
O42 C41 1.258 . S
O43 Cd34 2.378 . S
O43 C41 1.256 . S
O44 Cd45 2.300 . S
O44 C51 1.275 . S
Cd45 O44 2.300 . S
Cd45 O53 2.381 . S
Cd45 O54 2.378 . S
O46 Cd47 2.385 . S
O46 C51 1.255 . S
Cd47 O46 2.385 . S
Cd47 O48 2.317 . S
O48 Cd47 2.317 . S
O48 C49 1.232 . S
C49 O48 1.232 . S
C49 O50 1.218 . S
O50 C49 1.218 . S
C51 O44 1.275 . S
C51 O46 1.255 . S
C52 O53 1.258 . S
C52 O54 1.256 . S
O53 Cd45 2.381 . S
O53 C52 1.258 . S
O54 Cd45 2.378 . S
O54 C52 1.256 . S
O55 Cd56 2.300 . S
O55 C62 1.275 . S
Cd56 O55 2.300 . S
Cd56 O64 2.381 . S
Cd56 O65 2.378 . S
O57 Cd58 2.385 . S
O57 C62 1.255 . S
Cd58 O57 2.385 . S
Cd58 O59 2.317 . S
O59 Cd58 2.317 . S
O59 C60 1.232 . S
C60 O59 1.232 . S
C60 O61 1.218 . S
O61 C60 1.218 . S
C62 O55 1.275 . S
C62 O57 1.255 . S
C63 O64 1.258 . S
C63 O65 1.256 . S
O64 Cd56 2.381 . S
O64 C63 1.258 . S
O65 Cd56 2.378 . S
O65 C63 1.256 . S
O66 Cd67 2.300 . S
O66 C73 1.275 . S
Cd67 O66 2.300 . S
Cd67 O75 2.381 . S
Cd67 O76 2.378 . S
O68 Cd69 2.385 . S
O68 C73 1.255 . S
Cd69 O68 2.385 . S
Cd69 O70 2.317 . S
O70 Cd69 2.317 . S
O70 C71 1.232 . S
C71 O70 1.232 . S
C71 O72 1.218 . S
O72 C71 1.218 . S
C73 O66 1.275 . S
C73 O68 1.255 . S
C74 O75 1.258 . S
C74 O76 1.256 . S
O75 Cd67 2.381 . S
O75 C74 1.258 . S
O76 Cd67 2.378 . S
O76 C74 1.256 . S
O77 Cd78 2.300 . S
O77 C84 1.275 . S
Cd78 O77 2.300 . S
Cd78 O86 2.381 . S
Cd78 O87 2.378 . S
O79 Cd80 2.385 . S
O79 C84 1.255 . S
Cd80 O79 2.385 . S
Cd80 O81 2.317 . S
O81 Cd80 2.317 . S
O81 C82 1.232 . S
C82 O81 1.232 . S
C82 O83 1.218 . S
O83 C82 1.218 . S
C84 O77 1.275 . S
C84 O79 1.255 . S
C85 O86 1.258 . S
C85 O87 1.256 . S
O86 Cd78 2.381 . S
O86 C85 1.258 . S
O87 Cd78 2.378 . S
O87 C85 1.256 . S
C88 C89 1.384 . S
C88 C90 1.384 1_655 S
C88 H116 0.931 . S
C89 C88 1.384 . S
C89 C92 1.382 . S
C90 C88 1.384 1_455 S
C90 C91 1.381 1_455 S
C90 H117 0.930 . S
C91 C90 1.381 1_655 S
C91 C93 1.381 . S
C91 C94 1.487 1_655 S
C92 C89 1.382 . S
C92 C93 1.387 . S
C92 H118 0.930 . S
C93 C91 1.381 . S
C93 C92 1.387 . S
C93 H119 0.931 . S
C94 C91 1.487 1_455 S
C94 C101 1.399 . S
C94 N132 1.343 . S
C95 C96 1.384 . S
C95 C97 1.384 . S
C95 H120 0.931 . S
C96 C95 1.384 . S
C96 C99 1.382 . S
C97 C95 1.384 . S
C97 C98 1.381 . S
C97 H121 0.930 . S
C98 C97 1.381 . S
C98 C100 1.381 . S
C98 C101 1.487 . S
C99 C96 1.382 . S
C99 C100 1.387 . S
C99 H122 0.930 . S
C100 C98 1.381 . S
C100 C99 1.387 . S
C100 H123 0.931 . S
C101 C94 1.399 . S
C101 C98 1.487 . S
C101 N133 1.343 . S
C102 C103 1.384 . S
C102 C104 1.384 . S
C102 H124 0.931 . S
C103 C102 1.384 . S
C103 C106 1.382 . S
C104 C102 1.384 . S
C104 C105 1.381 . S
C104 H125 0.930 . S
C105 C104 1.381 . S
C105 C107 1.381 . S
C105 C108 1.487 . S
C106 C103 1.382 . S
C106 C107 1.387 . S
C106 H126 0.930 . S
C107 C105 1.381 . S
C107 C106 1.387 . S
C107 H127 0.931 . S
C108 C105 1.487 . S
C108 C115 1.399 . S
C108 N133 1.343 . S
C109 C110 1.384 . S
C109 C111 1.384 1_655 S
C109 H128 0.931 . S
C110 C109 1.384 . S
C110 C113 1.382 . S
C111 C109 1.384 1_455 S
C111 C112 1.381 1_455 S
C111 H129 0.930 . S
C112 C111 1.381 1_655 S
C112 C114 1.381 . S
C112 C115 1.487 1_655 S
C113 C110 1.382 . S
C113 C114 1.387 . S
C113 H130 0.930 . S
C114 C112 1.381 . S
C114 C113 1.387 . S
C114 H131 0.931 . S
C115 C108 1.399 . S
C115 C112 1.487 1_455 S
C115 N132 1.343 . S
H116 C88 0.931 . S
H117 C90 0.930 . S
H118 C92 0.930 . S
H119 C93 0.931 . S
H120 C95 0.931 . S
H121 C97 0.930 . S
H122 C99 0.930 . S
H123 C100 0.931 . S
H124 C102 0.931 . S
H125 C104 0.930 . S
H126 C106 0.930 . S
H127 C107 0.931 . S
H128 C109 0.931 . S
H129 C111 0.930 . S
H130 C113 0.930 . S
H131 C114 0.931 . S
N132 C94 1.343 . S
N132 C115 1.343 . S
N133 C101 1.343 . S
N133 C108 1.343 . S
C134 C135 1.384 . S
C134 C136 1.384 . S
C134 H162 0.931 . S
C135 C134 1.384 . S
C135 C138 1.382 . S
C136 C134 1.384 . S
C136 C137 1.381 . S
C136 H163 0.930 . S
C137 C136 1.381 . S
C137 C139 1.381 . S
C137 C140 1.487 . S
C138 C135 1.382 . S
C138 C139 1.387 . S
C138 H164 0.930 . S
C139 C137 1.381 . S
C139 C138 1.387 . S
C139 H165 0.931 . S
C140 C137 1.487 . S
C140 C147 1.399 1_655 S
C140 N178 1.343 . S
C141 C142 1.384 . S
C141 C143 1.384 . S
C141 H166 0.931 . S
C142 C141 1.384 . S
C142 C145 1.382 . S
C143 C141 1.384 . S
C143 C144 1.381 . S
C143 H167 0.930 . S
C144 C143 1.381 . S
C144 C146 1.381 . S
C144 C147 1.487 . S
C145 C142 1.382 . S
C145 C146 1.387 . S
C145 H168 0.930 . S
C146 C144 1.381 . S
C146 C145 1.387 . S
C146 H169 0.931 . S
C147 C140 1.399 1_455 S
C147 C144 1.487 . S
C147 N179 1.343 . S
C148 C149 1.384 . S
C148 C150 1.384 . S
C148 H170 0.931 . S
C149 C148 1.384 . S
C149 C152 1.382 . S
C150 C148 1.384 . S
C150 C151 1.381 . S
C150 H171 0.930 . S
C151 C150 1.381 . S
C151 C153 1.381 . S
C151 C154 1.487 . S
C152 C149 1.382 . S
C152 C153 1.387 . S
C152 H172 0.930 . S
C153 C151 1.381 . S
C153 C152 1.387 . S
C153 H173 0.931 . S
C154 C151 1.487 . S
C154 C161 1.399 1_455 S
C154 N179 1.343 . S
C155 C156 1.384 . S
C155 C157 1.384 . S
C155 H174 0.931 . S
C156 C155 1.384 . S
C156 C159 1.382 . S
C157 C155 1.384 . S
C157 C158 1.381 . S
C157 H175 0.930 . S
C158 C157 1.381 . S
C158 C160 1.381 . S
C158 C161 1.487 . S
C159 C156 1.382 . S
C159 C160 1.387 . S
C159 H176 0.930 . S
C160 C158 1.381 . S
C160 C159 1.387 . S
C160 H177 0.931 . S
C161 C154 1.399 1_655 S
C161 C158 1.487 . S
C161 N178 1.343 . S
H162 C134 0.931 . S
H163 C136 0.930 . S
H164 C138 0.930 . S
H165 C139 0.931 . S
H166 C141 0.931 . S
H167 C143 0.930 . S
H168 C145 0.930 . S
H169 C146 0.931 . S
H170 C148 0.931 . S
H171 C150 0.930 . S
H172 C152 0.930 . S
H173 C153 0.931 . S
H174 C155 0.931 . S
H175 C157 0.930 . S
H176 C159 0.930 . S
H177 C160 0.931 . S
N178 C140 1.343 . S
N178 C161 1.343 . S
N179 C147 1.343 . S
N179 C154 1.343 . S
C180 C181 1.384 . S
C180 C182 1.384 . S
C180 H208 0.931 . S
C181 C180 1.384 . S
C181 C184 1.382 . S
C182 C180 1.384 . S
C182 C183 1.381 . S
C182 H209 0.930 . S
C183 C182 1.381 . S
C183 C185 1.381 . S
C183 C186 1.487 . S
C184 C181 1.382 . S
C184 C185 1.387 . S
C184 H210 0.930 . S
C185 C183 1.381 . S
C185 C184 1.387 . S
C185 H211 0.931 . S
C186 C183 1.487 . S
C186 C193 1.399 . S
C186 N224 1.343 . S
C187 C188 1.384 . S
C187 C189 1.384 . S
C187 H212 0.931 . S
C188 C187 1.384 . S
C188 C191 1.382 . S
C189 C187 1.384 . S
C189 C190 1.381 . S
C189 H213 0.930 . S
C190 C189 1.381 . S
C190 C192 1.381 . S
C190 C193 1.487 . S
C191 C188 1.382 . S
C191 C192 1.387 . S
C191 H214 0.930 . S
C192 C190 1.381 . S
C192 C191 1.387 . S
C192 H215 0.931 . S
C193 C186 1.399 . S
C193 C190 1.487 . S
C193 N225 1.343 . S
C194 C195 1.384 . S
C194 C196 1.384 . S
C194 H216 0.931 . S
C195 C194 1.384 . S
C195 C198 1.382 . S
C196 C194 1.384 . S
C196 C197 1.381 . S
C196 H217 0.930 . S
C197 C196 1.381 . S
C197 C199 1.381 . S
C197 C200 1.487 . S
C198 C195 1.382 . S
C198 C199 1.387 . S
C198 H218 0.930 . S
C199 C197 1.381 . S
C199 C198 1.387 . S
C199 H219 0.931 . S
C200 C197 1.487 . S
C200 C207 1.399 . S
C200 N225 1.343 . S
C201 C202 1.384 . S
C201 C203 1.384 . S
C201 H220 0.931 1_545 S
C202 C201 1.384 . S
C202 C205 1.382 . S
C203 C201 1.384 . S
C203 C204 1.381 . S
C203 H221 0.930 . S
C204 C203 1.381 . S
C204 C206 1.381 . S
C204 C207 1.487 . S
C205 C202 1.382 . S
C205 C206 1.387 . S
C205 H222 0.930 . S
C206 C204 1.381 . S
C206 C205 1.387 . S
C206 H223 0.931 . S
C207 C200 1.399 . S
C207 C204 1.487 . S
C207 N224 1.343 . S
H208 C180 0.931 . S
H209 C182 0.930 . S
H210 C184 0.930 . S
H211 C185 0.931 . S
H212 C187 0.931 . S
H213 C189 0.930 . S
H214 C191 0.930 . S
H215 C192 0.931 . S
H216 C194 0.931 . S
H217 C196 0.930 . S
H218 C198 0.930 . S
H219 C199 0.931 . S
H220 C201 0.931 1_565 S
H221 C203 0.930 . S
H222 C205 0.930 . S
H223 C206 0.931 . S
N224 C186 1.343 . S
N224 C207 1.343 . S
N225 C193 1.343 . S
N225 C200 1.343 . S
C226 C227 1.384 . S
C226 C228 1.384 . S
C226 H254 0.931 . S
C227 C226 1.384 . S
C227 C230 1.382 . S
C228 C226 1.384 . S
C228 C229 1.381 . S
C228 H255 0.930 . S
C229 C228 1.381 . S
C229 C231 1.381 . S
C229 C232 1.487 . S
C230 C227 1.382 . S
C230 C231 1.387 . S
C230 H256 0.930 . S
C231 C229 1.381 . S
C231 C230 1.387 . S
C231 H257 0.931 . S
C232 C229 1.487 . S
C232 C239 1.399 . S
C232 N270 1.343 1_556 S
C233 C234 1.384 . S
C233 C235 1.384 . S
C233 H258 0.931 . S
C234 C233 1.384 . S
C234 C237 1.382 . S
C235 C233 1.384 . S
C235 C236 1.381 . S
C235 H259 0.930 . S
C236 C235 1.381 . S
C236 C238 1.381 . S
C236 C239 1.487 . S
C237 C234 1.382 . S
C237 C238 1.387 . S
C237 H260 0.930 . S
C238 C236 1.381 . S
C238 C237 1.387 . S
C238 H261 0.931 . S
C239 C232 1.399 . S
C239 C236 1.487 . S
C239 N271 1.343 1_556 S
C240 C241 1.384 . S
C240 C242 1.384 . S
C240 H262 0.931 . S
C241 C240 1.384 . S
C241 C244 1.382 . S
C242 C240 1.384 . S
C242 C243 1.381 . S
C242 H263 0.930 . S
C243 C242 1.381 . S
C243 C245 1.381 . S
C243 C246 1.487 . S
C244 C241 1.382 . S
C244 C245 1.387 . S
C244 H264 0.930 . S
C245 C243 1.381 . S
C245 C244 1.387 . S
C245 H265 0.931 . S
C246 C243 1.487 . S
C246 C253 1.399 . S
C246 N271 1.343 . S
C247 C248 1.384 . S
C247 C249 1.384 . S
C247 H266 0.931 . S
C248 C247 1.384 . S
C248 C251 1.382 . S
C249 C247 1.384 . S
C249 C250 1.381 . S
C249 H267 0.930 . S
C250 C249 1.381 . S
C250 C252 1.381 . S
C250 C253 1.487 . S
C251 C248 1.382 . S
C251 C252 1.387 . S
C251 H268 0.930 . S
C252 C250 1.381 . S
C252 C251 1.387 . S
C252 H269 0.931 . S
C253 C246 1.399 . S
C253 C250 1.487 . S
C253 N270 1.343 . S
H254 C226 0.931 . S
H255 C228 0.930 . S
H256 C230 0.930 . S
H257 C231 0.931 . S
H258 C233 0.931 . S
H259 C235 0.930 . S
H260 C237 0.930 . S
H261 C238 0.931 . S
H262 C240 0.931 . S
H263 C242 0.930 . S
H264 C244 0.930 . S
H265 C245 0.931 . S
H266 C247 0.931 . S
H267 C249 0.930 . S
H268 C251 0.930 . S
H269 C252 0.931 . S
N270 C232 1.343 1_554 S
N270 C253 1.343 . S
N271 C239 1.343 1_554 S
N271 C246 1.343 . S
C272 C273 1.384 . S
C272 C274 1.384 . S
C272 H300 0.931 . S
C273 C272 1.384 . S
C273 C276 1.382 . S
C274 C272 1.384 . S
C274 C275 1.381 . S
C274 H301 0.930 . S
C275 C274 1.381 . S
C275 C277 1.381 . S
C275 C278 1.487 . S
C276 C273 1.382 . S
C276 C277 1.387 . S
C276 H302 0.930 . S
C277 C275 1.381 . S
C277 C276 1.387 . S
C277 H303 0.931 . S
C278 C275 1.487 . S
C278 C285 1.399 . S
C278 N316 1.343 . S
C279 C280 1.384 . S
C279 C281 1.384 . S
C279 H304 0.931 . S
C280 C279 1.384 . S
C280 C283 1.382 . S
C281 C279 1.384 . S
C281 C282 1.381 . S
C281 H305 0.930 . S
C282 C281 1.381 . S
C282 C284 1.381 . S
C282 C285 1.487 . S
C283 C280 1.382 . S
C283 C284 1.387 . S
C283 H306 0.930 . S
C284 C282 1.381 . S
C284 C283 1.387 . S
C284 H307 0.931 . S
C285 C278 1.399 . S
C285 C282 1.487 . S
C285 N317 1.343 . S
C286 C287 1.384 . S
C286 C288 1.384 . S
C286 H308 0.931 . S
C287 C286 1.384 . S
C287 C290 1.382 . S
C288 C286 1.384 . S
C288 C289 1.381 . S
C288 H309 0.930 . S
C289 C288 1.381 . S
C289 C291 1.381 . S
C289 C292 1.487 . S
C290 C287 1.382 . S
C290 C291 1.387 . S
C290 H310 0.930 . S
C291 C289 1.381 . S
C291 C290 1.387 . S
C291 H311 0.931 . S
C292 C289 1.487 . S
C292 C299 1.399 . S
C292 N317 1.343 1_565 S
C293 C294 1.384 . S
C293 C295 1.384 . S
C293 H312 0.931 . S
C294 C293 1.384 . S
C294 C297 1.382 . S
C295 C293 1.384 . S
C295 C296 1.381 . S
C295 H313 0.930 . S
C296 C295 1.381 . S
C296 C298 1.381 . S
C296 C299 1.487 . S
C297 C294 1.382 . S
C297 C298 1.387 . S
C297 H314 0.930 . S
C298 C296 1.381 . S
C298 C297 1.387 . S
C298 H315 0.931 . S
C299 C292 1.399 . S
C299 C296 1.487 . S
C299 N316 1.343 1_565 S
H300 C272 0.931 . S
H301 C274 0.930 . S
H302 C276 0.930 . S
H303 C277 0.931 . S
H304 C279 0.931 . S
H305 C281 0.930 . S
H306 C283 0.930 . S
H307 C284 0.931 . S
H308 C286 0.931 . S
H309 C288 0.930 . S
H310 C290 0.930 . S
H311 C291 0.931 . S
H312 C293 0.931 . S
H313 C295 0.930 . S
H314 C297 0.930 . S
H315 C298 0.931 . S
N316 C278 1.343 . S
N316 C299 1.343 1_545 S
N317 C285 1.343 . S
N317 C292 1.343 1_545 S
C318 C319 1.384 . S
C318 C320 1.384 . S
C318 H346 0.931 . S
C319 C318 1.384 . S
C319 C322 1.382 . S
C320 C318 1.384 . S
C320 C321 1.381 . S
C320 H347 0.930 . S
C321 C320 1.381 . S
C321 C323 1.381 . S
C321 C324 1.487 . S
C322 C319 1.382 . S
C322 C323 1.387 . S
C322 H348 0.930 . S
C323 C321 1.381 . S
C323 C322 1.387 . S
C323 H349 0.931 . S
C324 C321 1.487 . S
C324 C331 1.399 . S
C324 N362 1.343 1_556 S
C325 C326 1.384 . S
C325 C327 1.384 . S
C325 H350 0.931 . S
C326 C325 1.384 . S
C326 C329 1.382 . S
C327 C325 1.384 . S
C327 C328 1.381 . S
C327 H351 0.930 . S
C328 C327 1.381 . S
C328 C330 1.381 . S
C328 C331 1.487 . S
C329 C326 1.382 . S
C329 C330 1.387 . S
C329 H352 0.930 . S
C330 C328 1.381 . S
C330 C329 1.387 . S
C330 H353 0.931 . S
C331 C324 1.399 . S
C331 C328 1.487 . S
C331 N363 1.343 1_556 S
C332 C333 1.384 . S
C332 C334 1.384 . S
C332 H354 0.931 . S
C333 C332 1.384 . S
C333 C336 1.382 . S
C334 C332 1.384 . S
C334 C335 1.381 . S
C334 H355 0.930 . S
C335 C334 1.381 . S
C335 C337 1.381 . S
C335 C338 1.487 . S
C336 C333 1.382 . S
C336 C337 1.387 . S
C336 H356 0.930 . S
C337 C335 1.381 . S
C337 C336 1.387 . S
C337 H357 0.931 . S
C338 C335 1.487 . S
C338 C345 1.399 . S
C338 N363 1.343 . S
C339 C340 1.384 . S
C339 C341 1.384 . S
C339 H358 0.931 . S
C340 C339 1.384 . S
C340 C343 1.382 . S
C341 C339 1.384 . S
C341 C342 1.381 . S
C341 H359 0.930 . S
C342 C341 1.381 . S
C342 C344 1.381 . S
C342 C345 1.487 . S
C343 C340 1.382 . S
C343 C344 1.387 . S
C343 H360 0.930 . S
C344 C342 1.381 . S
C344 C343 1.387 . S
C344 H361 0.931 . S
C345 C338 1.399 . S
C345 C342 1.487 . S
C345 N362 1.343 . S
H346 C318 0.931 . S
H347 C320 0.930 . S
H348 C322 0.930 . S
H349 C323 0.931 . S
H350 C325 0.931 . S
H351 C327 0.930 . S
H352 C329 0.930 . S
H353 C330 0.931 . S
H354 C332 0.931 . S
H355 C334 0.930 . S
H356 C336 0.930 . S
H357 C337 0.931 . S
H358 C339 0.931 . S
H359 C341 0.930 . S
H360 C343 0.930 . S
H361 C344 0.931 . S
N362 C324 1.343 1_554 S
N362 C345 1.343 . S
N363 C331 1.343 1_554 S
N363 C338 1.343 . S
C364 C365 1.363 . S
C364 C370 1.379 . S
C364 N372 1.356 . S
C365 C364 1.363 . S
C365 C371 1.363 . S
C366 C367 1.363 . S
C366 C371 1.379 . S
C366 N373 1.356 . S
C367 C366 1.363 . S
C367 C370 1.363 . S
N368 C370 1.356 . S
N368 H380 0.984 . S
N368 H381 0.985 . S
N369 C371 1.356 . S
N369 H374 0.984 . S
N369 H375 0.985 . S
C370 C364 1.379 . S
C370 C367 1.363 . S
C370 N368 1.356 . S
C371 C365 1.363 . S
C371 C366 1.379 . S
C371 N369 1.356 . S
N372 C364 1.356 . S
N372 H378 0.984 . S
N372 H379 0.984 . S
N373 C366 1.356 . S
N373 H376 0.984 . S
N373 H377 0.985 . S
H374 N369 0.984 . S
H375 N369 0.985 . S
H376 N373 0.984 . S
H377 N373 0.985 . S
H378 N372 0.984 . S
H379 N372 0.984 . S
H380 N368 0.984 . S
H381 N368 0.985 . S
C382 C383 1.363 . S
C382 C388 1.379 . S
C382 N390 1.356 . S
C383 C382 1.363 . S
C383 C389 1.363 . S
C384 C385 1.363 . S
C384 C389 1.379 . S
C384 N391 1.356 . S
C385 C384 1.363 . S
C385 C388 1.363 . S
N386 C388 1.356 . S
N386 H398 0.984 . S
N386 H399 0.985 . S
N387 C389 1.356 . S
N387 H392 0.984 . S
N387 H393 0.985 . S
C388 C382 1.379 . S
C388 C385 1.363 . S
C388 N386 1.356 . S
C389 C383 1.363 . S
C389 C384 1.379 . S
C389 N387 1.356 . S
N390 C382 1.356 . S
N390 H396 0.984 . S
N390 H397 0.984 . S
N391 C384 1.356 . S
N391 H394 0.984 . S
N391 H395 0.985 . S
H392 N387 0.984 . S
H393 N387 0.985 . S
H394 N391 0.984 . S
H395 N391 0.985 . S
H396 N390 0.984 . S
H397 N390 0.984 . S
H398 N386 0.984 . S
H399 N386 0.985 . S
C400 C401 1.363 . S
C400 C406 1.379 . S
C400 N408 1.356 . S
C401 C400 1.363 . S
C401 C407 1.363 . S
C402 C403 1.363 . S
C402 C407 1.379 . S
C402 N409 1.356 . S
C403 C402 1.363 . S
C403 C406 1.363 . S
N404 C406 1.356 . S
N404 H416 0.984 . S
N404 H417 0.985 . S
N405 C407 1.356 . S
N405 H410 0.984 . S
N405 H411 0.985 . S
C406 C400 1.379 . S
C406 C403 1.363 . S
C406 N404 1.356 . S
C407 C401 1.363 . S
C407 C402 1.379 . S
C407 N405 1.356 . S
N408 C400 1.356 . S
N408 H414 0.984 . S
N408 H415 0.984 . S
N409 C402 1.356 . S
N409 H412 0.984 . S
N409 H413 0.985 . S
H410 N405 0.984 . S
H411 N405 0.985 . S
H412 N409 0.984 . S
H413 N409 0.985 . S
H414 N408 0.984 . S
H415 N408 0.984 . S
H416 N404 0.984 . S
H417 N404 0.985 . S
C418 C419 1.363 . S
C418 C424 1.379 . S
C418 N426 1.356 . S
C419 C418 1.363 . S
C419 C425 1.363 . S
C420 C421 1.363 . S
C420 C425 1.379 . S
C420 N427 1.356 . S
C421 C420 1.363 . S
C421 C424 1.363 . S
N422 C424 1.356 . S
N422 H434 0.984 . S
N422 H435 0.985 . S
N423 C425 1.356 . S
N423 H428 0.984 . S
N423 H429 0.985 . S
C424 C418 1.379 . S
C424 C421 1.363 . S
C424 N422 1.356 . S
C425 C419 1.363 . S
C425 C420 1.379 . S
C425 N423 1.356 . S
N426 C418 1.356 . S
N426 H432 0.984 . S
N426 H433 0.984 . S
N427 C420 1.356 . S
N427 H430 0.984 . S
N427 H431 0.985 . S
H428 N423 0.984 . S
H429 N423 0.985 . S
H430 N427 0.984 . S
H431 N427 0.985 . S
H432 N426 0.984 . S
H433 N426 0.984 . S
H434 N422 0.984 . S
H435 N422 0.985 . S
C436 C437 1.363 . S
C436 C442 1.379 . S
C436 N444 1.356 . S
C437 C436 1.363 . S
C437 C443 1.363 . S
C438 C439 1.363 . S
C438 C443 1.379 . S
C438 N445 1.356 . S
C439 C438 1.363 . S
C439 C442 1.363 . S
N440 C442 1.356 . S
N440 H452 0.984 . S
N440 H453 0.985 . S
N441 C443 1.356 . S
N441 H446 0.984 . S
N441 H447 0.985 . S
C442 C436 1.379 . S
C442 C439 1.363 . S
C442 N440 1.356 . S
C443 C437 1.363 . S
C443 C438 1.379 . S
C443 N441 1.356 . S
N444 C436 1.356 . S
N444 H450 0.984 . S
N444 H451 0.984 . S
N445 C438 1.356 . S
N445 H448 0.984 . S
N445 H449 0.985 . S
H446 N441 0.984 . S
H447 N441 0.985 . S
H448 N445 0.984 . S
H449 N445 0.985 . S
H450 N444 0.984 . S
H451 N444 0.984 . S
H452 N440 0.984 . S
H453 N440 0.985 . S
C454 C455 1.363 . S
C454 C460 1.379 . S
C454 N462 1.356 . S
C455 C454 1.363 . S
C455 C461 1.363 . S
C456 C457 1.363 . S
C456 C461 1.379 . S
C456 N463 1.356 . S
C457 C456 1.363 . S
C457 C460 1.363 . S
N458 C460 1.356 . S
N458 H470 0.984 . S
N458 H471 0.985 . S
N459 C461 1.356 . S
N459 H464 0.984 . S
N459 H465 0.985 . S
C460 C454 1.379 . S
C460 C457 1.363 . S
C460 N458 1.356 . S
C461 C455 1.363 . S
C461 C456 1.379 . S
C461 N459 1.356 . S
N462 C454 1.356 . S
N462 H468 0.984 . S
N462 H469 0.984 . S
N463 C456 1.356 . S
N463 H466 0.984 . S
N463 H467 0.985 . S
H464 N459 0.984 . S
H465 N459 0.985 . S
H466 N463 0.984 . S
H467 N463 0.985 . S
H468 N462 0.984 . S
H469 N462 0.984 . S
H470 N458 0.984 . S
H471 N458 0.985 . S
C472 C473 1.363 . S
C472 C478 1.379 . S
C472 N480 1.356 . S
C473 C472 1.363 . S
C473 C479 1.363 . S
C474 C475 1.363 . S
C474 C479 1.379 . S
C474 N481 1.356 . S
C475 C474 1.363 . S
C475 C478 1.363 . S
N476 C478 1.356 . S
N476 H488 0.984 . S
N476 H489 0.985 . S
N477 C479 1.356 . S
N477 H482 0.984 . S
N477 H483 0.985 . S
C478 C472 1.379 . S
C478 C475 1.363 . S
C478 N476 1.356 . S
C479 C473 1.363 . S
C479 C474 1.379 . S
C479 N477 1.356 . S
N480 C472 1.356 . S
N480 H486 0.984 . S
N480 H487 0.984 . S
N481 C474 1.356 . S
N481 H484 0.984 . S
N481 H485 0.985 . S
H482 N477 0.984 . S
H483 N477 0.985 . S
H484 N481 0.984 . S
H485 N481 0.985 . S
H486 N480 0.984 . S
H487 N480 0.984 . S
H488 N476 0.984 . S
H489 N476 0.985 . S
C490 C491 1.363 . S
C490 C496 1.379 . S
C490 N498 1.356 . S
C491 C490 1.363 . S
C491 C497 1.363 . S
C492 C493 1.363 . S
C492 C497 1.379 . S
C492 N499 1.356 . S
C493 C492 1.363 . S
C493 C496 1.363 . S
N494 C496 1.356 . S
N494 H506 0.984 . S
N494 H507 0.985 . S
N495 C497 1.356 . S
N495 H500 0.984 . S
N495 H501 0.985 . S
C496 C490 1.379 . S
C496 C493 1.363 . S
C496 N494 1.356 . S
C497 C491 1.363 . S
C497 C492 1.379 . S
C497 N495 1.356 . S
N498 C490 1.356 . S
N498 H504 0.984 . S
N498 H505 0.984 . S
N499 C492 1.356 . S
N499 H502 0.984 . S
N499 H503 0.985 . S
H500 N495 0.984 . S
H501 N495 0.985 . S
H502 N499 0.984 . S
H503 N499 0.985 . S
H504 N498 0.984 . S
H505 N498 0.984 . S
H506 N494 0.984 . S
H507 N494 0.985 . S
C508 C509 1.363 . S
C508 C514 1.379 . S
C508 N516 1.356 . S
C509 C508 1.363 . S
C509 C515 1.363 . S
C510 C511 1.363 . S
C510 C515 1.379 . S
C510 N517 1.356 1_565 S
C511 C510 1.363 . S
C511 C514 1.363 . S
N512 C514 1.356 . S
N512 H524 0.984 . S
N512 H525 0.985 . S
N513 C515 1.356 . S
N513 H518 0.984 . S
N513 H519 0.985 . S
C514 C508 1.379 . S
C514 C511 1.363 . S
C514 N512 1.356 . S
C515 C509 1.363 . S
C515 C510 1.379 . S
C515 N513 1.356 . S
N516 C508 1.356 . S
N516 H522 0.984 . S
N516 H523 0.984 . S
N517 C510 1.356 1_545 S
N517 H520 0.984 . S
N517 H521 0.985 . S
H518 N513 0.984 . S
H519 N513 0.985 . S
H520 N517 0.984 . S
H521 N517 0.985 . S
H522 N516 0.984 . S
H523 N516 0.984 . S
H524 N512 0.984 . S
H525 N512 0.985 . S
C526 C527 1.363 . S
C526 C532 1.379 . S
C526 N534 1.356 . S
C527 C526 1.363 . S
C527 C533 1.363 . S
C528 C529 1.363 . S
C528 C533 1.379 . S
C528 N535 1.356 . S
C529 C528 1.363 . S
C529 C532 1.363 . S
N530 C532 1.356 . S
N530 H542 0.984 . S
N530 H543 0.985 . S
N531 C533 1.356 . S
N531 H536 0.984 . S
N531 H537 0.985 . S
C532 C526 1.379 . S
C532 C529 1.363 . S
C532 N530 1.356 . S
C533 C527 1.363 . S
C533 C528 1.379 . S
C533 N531 1.356 . S
N534 C526 1.356 . S
N534 H540 0.984 . S
N534 H541 0.984 . S
N535 C528 1.356 . S
N535 H538 0.984 . S
N535 H539 0.985 . S
H536 N531 0.984 . S
H537 N531 0.985 . S
H538 N535 0.984 . S
H539 N535 0.985 . S
H540 N534 0.984 . S
H541 N534 0.984 . S
H542 N530 0.984 . S
H543 N530 0.985 . S
C544 C545 1.363 . S
C544 C550 1.379 . S
C544 N552 1.356 . S
C545 C544 1.363 . S
C545 C551 1.363 . S
C546 C547 1.363 . S
C546 C551 1.379 . S
C546 N553 1.356 . S
C547 C546 1.363 . S
C547 C550 1.363 . S
N548 C550 1.356 . S
N548 H560 0.984 . S
N548 H561 0.985 . S
N549 C551 1.356 . S
N549 H554 0.984 . S
N549 H555 0.985 . S
C550 C544 1.379 . S
C550 C547 1.363 . S
C550 N548 1.356 . S
C551 C545 1.363 . S
C551 C546 1.379 . S
C551 N549 1.356 . S
N552 C544 1.356 . S
N552 H558 0.984 . S
N552 H559 0.984 . S
N553 C546 1.356 . S
N553 H556 0.984 . S
N553 H557 0.985 . S
H554 N549 0.984 . S
H555 N549 0.985 . S
H556 N553 0.984 . S
H557 N553 0.985 . S
H558 N552 0.984 . S
H559 N552 0.984 . S
H560 N548 0.984 . S
H561 N548 0.985 . S
C562 C563 1.363 . S
C562 C568 1.379 . S
C562 N570 1.356 . S
C563 C562 1.363 . S
C563 C569 1.363 . S
C564 C565 1.363 . S
C564 C569 1.379 . S
C564 N571 1.356 . S
C565 C564 1.363 . S
C565 C568 1.363 . S
N566 C568 1.356 . S
N566 H578 0.984 . S
N566 H579 0.985 . S
N567 C569 1.356 . S
N567 H572 0.984 . S
N567 H573 0.985 . S
C568 C562 1.379 . S
C568 C565 1.363 . S
C568 N566 1.356 . S
C569 C563 1.363 . S
C569 C564 1.379 . S
C569 N567 1.356 . S
N570 C562 1.356 . S
N570 H576 0.984 . S
N570 H577 0.984 . S
N571 C564 1.356 . S
N571 H574 0.984 . S
N571 H575 0.985 . S
H572 N567 0.984 . S
H573 N567 0.985 . S
H574 N571 0.984 . S
H575 N571 0.985 . S
H576 N570 0.984 . S
H577 N570 0.984 . S
H578 N566 0.984 . S
H579 N566 0.985 . S
C580 C581 1.363 . S
C580 C586 1.379 . S
C580 N588 1.356 . S
C581 C580 1.363 . S
C581 C587 1.363 . S
C582 C583 1.363 . S
C582 C587 1.379 . S
C582 N589 1.356 . S
C583 C582 1.363 . S
C583 C586 1.363 . S
N584 C586 1.356 . S
N584 H596 0.984 . S
N584 H597 0.985 . S
N585 C587 1.356 . S
N585 H590 0.984 . S
N585 H591 0.985 . S
C586 C580 1.379 . S
C586 C583 1.363 . S
C586 N584 1.356 . S
C587 C581 1.363 . S
C587 C582 1.379 . S
C587 N585 1.356 . S
N588 C580 1.356 . S
N588 H594 0.984 . S
N588 H595 0.984 . S
N589 C582 1.356 . S
N589 H592 0.984 . S
N589 H593 0.985 . S
H590 N585 0.984 . S
H591 N585 0.985 . S
H592 N589 0.984 . S
H593 N589 0.985 . S
H594 N588 0.984 . S
H595 N588 0.984 . S
H596 N584 0.984 . S
H597 N584 0.985 . S
C598 C599 1.363 . S
C598 C604 1.379 . S
C598 N606 1.356 . S
C599 C598 1.363 . S
C599 C605 1.363 . S
C600 C601 1.363 . S
C600 C605 1.379 . S
C600 N607 1.356 . S
C601 C600 1.363 . S
C601 C604 1.363 . S
N602 C604 1.356 . S
N602 H614 0.984 . S
N602 H615 0.985 . S
N603 C605 1.356 . S
N603 H608 0.984 . S
N603 H609 0.985 . S
C604 C598 1.379 . S
C604 C601 1.363 . S
C604 N602 1.356 . S
C605 C599 1.363 . S
C605 C600 1.379 . S
C605 N603 1.356 . S
N606 C598 1.356 . S
N606 H612 0.984 . S
N606 H613 0.984 . S
N607 C600 1.356 . S
N607 H610 0.984 . S
N607 H611 0.985 . S
H608 N603 0.984 . S
H609 N603 0.985 . S
H610 N607 0.984 . S
H611 N607 0.985 . S
H612 N606 0.984 . S
H613 N606 0.984 . S
H614 N602 0.984 . S
H615 N602 0.985 . S
C616 C617 1.363 . S
C616 C622 1.379 . S
C616 N624 1.356 . S
C617 C616 1.363 . S
C617 C623 1.363 . S
C618 C619 1.363 . S
C618 C623 1.379 . S
C618 N625 1.356 . S
C619 C618 1.363 . S
C619 C622 1.363 . S
N620 C622 1.356 . S
N620 H632 0.984 . S
N620 H633 0.985 . S
N621 C623 1.356 . S
N621 H626 0.984 . S
N621 H627 0.985 . S
C622 C616 1.379 . S
C622 C619 1.363 . S
C622 N620 1.356 . S
C623 C617 1.363 . S
C623 C618 1.379 . S
C623 N621 1.356 . S
N624 C616 1.356 . S
N624 H630 0.984 . S
N624 H631 0.984 . S
N625 C618 1.356 . S
N625 H628 0.984 . S
N625 H629 0.985 . S
H626 N621 0.984 . S
H627 N621 0.985 . S
H628 N625 0.984 . S
H629 N625 0.985 . S
H630 N624 0.984 . S
H631 N624 0.984 . S
H632 N620 0.984 . S
H633 N620 0.985 . S
C634 C635 1.363 . S
C634 C640 1.379 . S
C634 N642 1.356 . S
C635 C634 1.363 . S
C635 C641 1.363 . S
C636 C637 1.363 . S
C636 C641 1.379 . S
C636 N643 1.356 . S
C637 C636 1.363 . S
C637 C640 1.363 . S
N638 C640 1.356 . S
N638 H650 0.984 . S
N638 H651 0.985 . S
N639 C641 1.356 . S
N639 H644 0.984 . S
N639 H645 0.985 . S
C640 C634 1.379 . S
C640 C637 1.363 . S
C640 N638 1.356 . S
C641 C635 1.363 . S
C641 C636 1.379 . S
C641 N639 1.356 . S
N642 C634 1.356 . S
N642 H648 0.984 . S
N642 H649 0.984 . S
N643 C636 1.356 . S
N643 H646 0.984 . S
N643 H647 0.985 . S
H644 N639 0.984 . S
H645 N639 0.985 . S
H646 N643 0.984 . S
H647 N643 0.985 . S
H648 N642 0.984 . S
H649 N642 0.984 . S
H650 N638 0.984 . S
H651 N638 0.985 . S
C652 C653 1.363 . S
C652 C658 1.379 . S
C652 N660 1.356 . S
C653 C652 1.363 . S
C653 C659 1.363 . S
C654 C655 1.363 . S
C654 C659 1.379 . S
C654 N661 1.356 . S
C655 C654 1.363 . S
C655 C658 1.363 . S
N656 C658 1.356 . S
N656 H668 0.984 . S
N656 H669 0.985 . S
N657 C659 1.356 . S
N657 H662 0.984 . S
N657 H663 0.985 . S
C658 C652 1.379 . S
C658 C655 1.363 . S
C658 N656 1.356 . S
C659 C653 1.363 . S
C659 C654 1.379 . S
C659 N657 1.356 . S
N660 C652 1.356 . S
N660 H666 0.984 . S
N660 H667 0.984 . S
N661 C654 1.356 . S
N661 H664 0.984 . S
N661 H665 0.985 . S
H662 N657 0.984 . S
H663 N657 0.985 . S
H664 N661 0.984 . S
H665 N661 0.985 . S
H666 N660 0.984 . S
H667 N660 0.984 . S
H668 N656 0.984 . S
H669 N656 0.985 . S
C670 C671 1.363 . S
C670 C676 1.379 . S
C670 N678 1.356 . S
C671 C670 1.363 . S
C671 C677 1.363 . S
C672 C673 1.363 . S
C672 C677 1.379 . S
C672 N679 1.356 . S
C673 C672 1.363 . S
C673 C676 1.363 . S
N674 C676 1.356 . S
N674 H686 0.984 . S
N674 H687 0.985 . S
N675 C677 1.356 . S
N675 H680 0.984 . S
N675 H681 0.985 . S
C676 C670 1.379 . S
C676 C673 1.363 . S
C676 N674 1.356 . S
C677 C671 1.363 . S
C677 C672 1.379 . S
C677 N675 1.356 . S
N678 C670 1.356 . S
N678 H684 0.984 . S
N678 H685 0.984 . S
N679 C672 1.356 . S
N679 H682 0.984 . S
N679 H683 0.985 . S
H680 N675 0.984 . S
H681 N675 0.985 . S
H682 N679 0.984 . S
H683 N679 0.985 . S
H684 N678 0.984 . S
H685 N678 0.984 . S
H686 N674 0.984 . S
H687 N674 0.985 . S
C688 C689 1.363 . S
C688 C694 1.379 . S
C688 N696 1.356 . S
C689 C688 1.363 . S
C689 C695 1.363 . S
C690 C691 1.363 . S
C690 C695 1.379 . S
C690 N697 1.356 . S
C691 C690 1.363 . S
C691 C694 1.363 . S
N692 C694 1.356 . S
N692 H704 0.984 . S
N692 H705 0.985 . S
N693 C695 1.356 . S
N693 H698 0.984 . S
N693 H699 0.985 . S
C694 C688 1.379 . S
C694 C691 1.363 . S
C694 N692 1.356 . S
C695 C689 1.363 . S
C695 C690 1.379 . S
C695 N693 1.356 . S
N696 C688 1.356 . S
N696 H702 0.984 . S
N696 H703 0.984 . S
N697 C690 1.356 . S
N697 H700 0.984 . S
N697 H701 0.985 . S
H698 N693 0.984 . S
H699 N693 0.985 . S
H700 N697 0.984 . S
H701 N697 0.985 . S
H702 N696 0.984 . S
H703 N696 0.984 . S
H704 N692 0.984 . S
H705 N692 0.985 . S
C706 C707 1.363 . S
C706 C712 1.379 . S
C706 N714 1.356 . S
C707 C706 1.363 . S
C707 C713 1.363 . S
C708 C709 1.363 . S
C708 C713 1.379 . S
C708 N715 1.356 . S
C709 C708 1.363 . S
C709 C712 1.363 . S
N710 C712 1.356 . S
N710 H722 0.984 . S
N710 H723 0.985 . S
N711 C713 1.356 . S
N711 H716 0.984 . S
N711 H717 0.985 . S
C712 C706 1.379 . S
C712 C709 1.363 . S
C712 N710 1.356 . S
C713 C707 1.363 . S
C713 C708 1.379 . S
C713 N711 1.356 . S
N714 C706 1.356 . S
N714 H720 0.984 . S
N714 H721 0.984 . S
N715 C708 1.356 . S
N715 H718 0.984 . S
N715 H719 0.985 . S
H716 N711 0.984 . S
H717 N711 0.985 . S
H718 N715 0.984 . S
H719 N715 0.985 . S
H720 N714 0.984 . S
H721 N714 0.984 . S
H722 N710 0.984 . S
H723 N710 0.985 . S
C724 C725 1.363 . S
C724 C730 1.379 . S
C724 N732 1.356 . S
C725 C724 1.363 . S
C725 C731 1.363 . S
C726 C727 1.363 . S
C726 C731 1.379 . S
C726 N733 1.356 . S
C727 C726 1.363 . S
C727 C730 1.363 . S
N728 C730 1.356 . S
N728 H740 0.984 . S
N728 H741 0.985 . S
N729 C731 1.356 . S
N729 H734 0.984 . S
N729 H735 0.985 . S
C730 C724 1.379 . S
C730 C727 1.363 . S
C730 N728 1.356 . S
C731 C725 1.363 . S
C731 C726 1.379 . S
C731 N729 1.356 . S
N732 C724 1.356 . S
N732 H738 0.984 . S
N732 H739 0.984 . S
N733 C726 1.356 . S
N733 H736 0.984 . S
N733 H737 0.985 . S
H734 N729 0.984 . S
H735 N729 0.985 . S
H736 N733 0.984 . S
H737 N733 0.985 . S
H738 N732 0.984 . S
H739 N732 0.984 . S
H740 N728 0.984 . S
H741 N728 0.985 . S
C742 C743 1.363 . S
C742 C748 1.379 . S
C742 N750 1.356 . S
C743 C742 1.363 . S
C743 C749 1.363 . S
C744 C745 1.363 . S
C744 C749 1.379 . S
C744 N751 1.356 . S
C745 C744 1.363 . S
C745 C748 1.363 . S
N746 C748 1.356 . S
N746 H758 0.984 . S
N746 H759 0.985 . S
N747 C749 1.356 . S
N747 H752 0.984 . S
N747 H753 0.985 . S
C748 C742 1.379 . S
C748 C745 1.363 . S
C748 N746 1.356 . S
C749 C743 1.363 . S
C749 C744 1.379 . S
C749 N747 1.356 . S
N750 C742 1.356 . S
N750 H756 0.984 . S
N750 H757 0.984 . S
N751 C744 1.356 . S
N751 H754 0.984 . S
N751 H755 0.985 . S
H752 N747 0.984 . S
H753 N747 0.985 . S
H754 N751 0.984 . S
H755 N751 0.985 . S
H756 N750 0.984 . S
H757 N750 0.984 . S
H758 N746 0.984 . S
H759 N746 0.985 . S
C760 C761 1.363 . S
C760 C766 1.379 . S
C760 N768 1.356 . S
C761 C760 1.363 . S
C761 C767 1.363 . S
C762 C763 1.363 . S
C762 C767 1.379 . S
C762 N769 1.356 1_565 S
C763 C762 1.363 . S
C763 C766 1.363 . S
N764 C766 1.356 . S
N764 H776 0.984 . S
N764 H777 0.985 1_565 S
N765 C767 1.356 . S
N765 H770 0.984 . S
N765 H771 0.985 . S
C766 C760 1.379 . S
C766 C763 1.363 . S
C766 N764 1.356 . S
C767 C761 1.363 . S
C767 C762 1.379 . S
C767 N765 1.356 . S
N768 C760 1.356 . S
N768 H774 0.984 . S
N768 H775 0.984 . S
N769 C762 1.356 1_545 S
N769 H772 0.984 . S
N769 H773 0.985 . S
H770 N765 0.984 . S
H771 N765 0.985 . S
H772 N769 0.984 . S
H773 N769 0.985 . S
H774 N768 0.984 . S
H775 N768 0.984 . S
H776 N764 0.984 . S
H777 N764 0.985 1_545 S
C778 C779 1.363 . S
C778 C784 1.379 . S
C778 N786 1.356 . S
C779 C778 1.363 . S
C779 C785 1.363 . S
C780 C781 1.363 . S
C780 C785 1.379 . S
C780 N787 1.356 . S
C781 C780 1.363 . S
C781 C784 1.363 . S
N782 C784 1.356 . S
N782 H794 0.984 . S
N782 H795 0.985 . S
N783 C785 1.356 . S
N783 H788 0.984 . S
N783 H789 0.985 . S
C784 C778 1.379 . S
C784 C781 1.363 . S
C784 N782 1.356 . S
C785 C779 1.363 . S
C785 C780 1.379 . S
C785 N783 1.356 . S
N786 C778 1.356 . S
N786 H792 0.984 . S
N786 H793 0.984 . S
N787 C780 1.356 . S
N787 H790 0.984 . S
N787 H791 0.985 . S
H788 N783 0.984 . S
H789 N783 0.985 . S
H790 N787 0.984 . S
H791 N787 0.985 . S
H792 N786 0.984 . S
H793 N786 0.984 . S
H794 N782 0.984 . S
H795 N782 0.985 . S
C367 C96 1.541 . S
C365 C5 1.400 . S
C385 C149 1.547 . S
C383 C16 1.283 . S
C403 C110 1.685 . S
C401 C30 1.691 . S
C421 C135 1.619 . S
C419 C40 1.565 . S
C439 C181 1.524 . S
C437 C8 1.517 . S
C457 C227 1.502 . S
C455 C18 1.433 . S
C473 C29 1.734 . S
C475 C294 1.755 . S
C493 C326 1.552 . S
C491 C38 1.297 . S
C511 C195 1.505 1_565 S
C509 C19 1.495 . S
C527 C27 1.515 . S
C529 C241 1.641 . S
C547 C280 1.581 . S
C545 C41 1.560 . S
C565 C340 1.542 . S
C563 C7 1.514 . S
C581 C52 1.557 . S
C583 C156 1.592 . S
C601 C89 1.593 . S
C599 C62 1.560 . S
C617 C74 1.426 . S
C619 C142 1.440 . S
C635 C82 1.229 . S
C637 C103 1.421 . S
C655 C287 1.804 . S
C653 C51 1.686 . S
C673 C333 1.621 . S
C671 C60 1.330 . S
C691 C188 1.552 . S
C689 C71 1.258 . S
C707 C84 1.464 . S
C709 C248 1.524 . S
C727 C273 1.662 . S
C725 C63 1.663 . S
C745 C319 1.499 . S
C743 C73 1.448 . S
C763 C202 1.585 1_565 S
C761 C85 1.608 . S
C779 C49 1.328 . S
C781 C234 1.669 . S
