# Generated by pormake.
# Topology zzz, (3,6)-cn, num edge types: 1
# Building blocks:
#     Node 0, Type 0, BuildingBlock: KAKCAD_clean_linker_0, # of connection points: 3
#     Node 1, Type 0, BuildingBlock: KAKCAD_clean_linker_0, # of connection points: 3
#     Node 2, Type 0, BuildingBlock: KAKCAD_clean_linker_0, # of connection points: 3
#     Node 3, Type 0, BuildingBlock: KAKCAD_clean_linker_0, # of connection points: 3
#     Node 4, Type 0, BuildingBlock: KAKCAD_clean_linker_0, # of connection points: 3
#     Node 5, Type 0, BuildingBlock: KAKCAD_clean_linker_0, # of connection points: 3
#     Node 6, Type 0, BuildingBlock: KAKCAD_clean_linker_0, # of connection points: 3
#     Node 7, Type 0, BuildingBlock: KAKCAD_clean_linker_0, # of connection points: 3
#     Node 8, Type 1, BuildingBlock: NUHQIS_clean_sbu_0, # of connection points: 6
#     Node 9, Type 1, BuildingBlock: NUHQIS_clean_sbu_0, # of connection points: 6
#     Node 10, Type 1, BuildingBlock: NUHQIS_clean_sbu_0, # of connection points: 6
#     Node 11, Type 1, BuildingBlock: NUHQIS_clean_sbu_0, # of connection points: 6
#     Edge 12, Type (0, 1), BuildingBlock: CIFDUS_clean_linker_0, # of connection points: 2
#     Edge 13, Type (0, 1), BuildingBlock: CIFDUS_clean_linker_0, # of connection points: 2
#     Edge 14, Type (0, 1), BuildingBlock: CIFDUS_clean_linker_0, # of connection points: 2
#     Edge 15, Type (0, 1), BuildingBlock: CIFDUS_clean_linker_0, # of connection points: 2
#     Edge 16, Type (0, 1), BuildingBlock: CIFDUS_clean_linker_0, # of connection points: 2
#     Edge 17, Type (0, 1), BuildingBlock: CIFDUS_clean_linker_0, # of connection points: 2
#     Edge 18, Type (0, 1), BuildingBlock: CIFDUS_clean_linker_0, # of connection points: 2
#     Edge 19, Type (0, 1), BuildingBlock: CIFDUS_clean_linker_0, # of connection points: 2
#     Edge 20, Type (0, 1), BuildingBlock: CIFDUS_clean_linker_0, # of connection points: 2
#     Edge 21, Type (0, 1), BuildingBlock: CIFDUS_clean_linker_0, # of connection points: 2
#     Edge 22, Type (0, 1), BuildingBlock: CIFDUS_clean_linker_0, # of connection points: 2
#     Edge 23, Type (0, 1), BuildingBlock: CIFDUS_clean_linker_0, # of connection points: 2
#     Edge 24, Type (0, 1), BuildingBlock: CIFDUS_clean_linker_0, # of connection points: 2
#     Edge 25, Type (0, 1), BuildingBlock: CIFDUS_clean_linker_0, # of connection points: 2
#     Edge 26, Type (0, 1), BuildingBlock: CIFDUS_clean_linker_0, # of connection points: 2
#     Edge 27, Type (0, 1), BuildingBlock: CIFDUS_clean_linker_0, # of connection points: 2
#     Edge 28, Type (0, 1), BuildingBlock: CIFDUS_clean_linker_0, # of connection points: 2
#     Edge 29, Type (0, 1), BuildingBlock: CIFDUS_clean_linker_0, # of connection points: 2
#     Edge 30, Type (0, 1), BuildingBlock: CIFDUS_clean_linker_0, # of connection points: 2
#     Edge 31, Type (0, 1), BuildingBlock: CIFDUS_clean_linker_0, # of connection points: 2
#     Edge 32, Type (0, 1), BuildingBlock: CIFDUS_clean_linker_0, # of connection points: 2
#     Edge 33, Type (0, 1), BuildingBlock: CIFDUS_clean_linker_0, # of connection points: 2
#     Edge 34, Type (0, 1), BuildingBlock: CIFDUS_clean_linker_0, # of connection points: 2
#     Edge 35, Type (0, 1), BuildingBlock: CIFDUS_clean_linker_0, # of connection points: 2
# Relax obj value: 0.438
# Max RMSD: 0.253
# Mean RMSD: 0.232
data_MOF--net-zzz--node1-NUHQIS_clean_sbu_0--node2-KAKCAD_clean_linker_0--edge1-CIFDUS_clean_linker_0
_symmetry_space_group_name_H-M    P1
_symmetry_Int_Tables_number       1
_symmetry_cell_setting            triclinic
loop_
_symmetry_equiv_pos_as_xyz
'x, y, z'
_cell_length_a     53.653024
_cell_length_b     53.62507
_cell_length_c     17.180135
_cell_angle_alpha  89.815247
_cell_angle_beta   89.783683
_cell_angle_gamma 90.021871
loop_
_atom_site_label
_atom_site_type_symbol
_atom_site_fract_x
_atom_site_fract_y
_atom_site_fract_z
_atom_type_partial_charge
C0 C 0.76492 0.44698 0.98312 0.0
C1 C 0.78489 0.43048 0.9954 0.0
C2 C 0.75284 0.45818 0.04604 0.0
C3 C 0.75998 0.45266 0.12298 0.0
C4 C 0.77843 0.43451 0.13527 0.0
C5 C 0.79089 0.42375 0.0724 0.0
C6 C 0.74927 0.46683 0.18958 0.0
C7 C 0.72447 0.4748 0.18787 0.0
C8 C 0.71449 0.48969 0.24713 0.0
C9 C 0.72959 0.4963 0.31133 0.0
C10 C 0.75455 0.48771 0.31503 0.0
C11 C 0.76409 0.47334 0.25357 0.0
C12 C 0.77166 0.49291 0.3813 0.0
C13 C 0.78378 0.51604 0.38756 0.0
C14 C 0.78021 0.47294 0.4272 0.0
C15 C 0.80099 0.47566 0.47578 0.0
C16 C 0.81408 0.49841 0.4793 0.0
C17 C 0.68803 0.49723 0.2374 0.0
C18 C 0.68237 0.51755 0.18852 0.0
C19 C 0.66937 0.47944 0.25221 0.0
C20 C 0.64647 0.48061 0.21329 0.0
C21 C 0.64166 0.49962 0.15864 0.0
C22 C 0.65933 0.51884 0.14995 0.0
C23 C 0.80473 0.51877 0.43598 0.0
H24 H 0.75939 0.45223 0.92479 0.0
H25 H 0.73877 0.4721 0.03385 0.0
H26 H 0.78393 0.42921 0.19359 0.0
H27 H 0.80628 0.41133 0.08485 0.0
H28 H 0.7126 0.46939 0.13982 0.0
H29 H 0.78349 0.4677 0.25523 0.0
H30 H 0.72198 0.50758 0.35788 0.0
H31 H 0.77798 0.53159 0.35156 0.0
H32 H 0.77161 0.45473 0.42212 0.0
H33 H 0.80762 0.45944 0.50712 0.0
H34 H 0.69666 0.5311 0.17417 0.0
H35 H 0.67342 0.46325 0.28787 0.0
H36 H 0.81404 0.53668 0.43771 0.0
H37 H 0.65632 0.53365 0.108 0.0
H38 H 0.63318 0.46563 0.22187 0.0
C39 C 0.09403 0.77387 0.10288 0.0
C40 C 0.11043 0.78819 0.14823 0.0
C41 C 0.07748 0.75729 0.13849 0.0
C42 C 0.07711 0.75481 0.21984 0.0
C43 C 0.09615 0.76598 0.2635 0.0
C44 C 0.11285 0.78245 0.22778 0.0
C45 C 0.05402 0.74599 0.25862 0.0
C46 C 0.04163 0.7247 0.23277 0.0
C47 C 0.01734 0.71911 0.25823 0.0
C48 C 1.00521 0.73558 0.31094 0.0
C49 C 0.01809 0.75673 0.34017 0.0
C50 C 0.04235 0.7615 0.31297 0.0
C51 C 1.00707 0.77547 0.39527 0.0
C52 C 0.98452 0.78773 0.37921 0.0
C53 C 0.02185 0.78471 0.45634 0.0
C54 C 0.01558 0.80676 0.49524 0.0
C55 C 0.9939 0.82023 0.476 0.0
C56 C 1.00535 0.6966 0.22365 0.0
C57 C 0.98547 0.69903 0.17124 0.0
C58 C 0.01771 0.67349 0.22815 0.0
C59 C 0.01164 0.65393 0.17769 0.0
C60 C 0.99304 0.65688 0.12083 0.0
C61 C 0.97937 0.67941 0.12049 0.0
C62 C 0.97794 0.80971 0.41934 0.0
H63 H 0.09167 0.77769 0.04141 0.0
H64 H 0.06308 0.74883 0.10325 0.0
H65 H 0.09657 0.76391 0.32623 0.0
H66 H 0.12575 0.79274 0.26387 0.0
H67 H 0.05062 0.71291 0.18982 0.0
H68 H 0.05168 0.77852 0.33049 0.0
H69 H 0.98629 0.73179 0.32969 0.0
H70 H 0.97271 0.78124 0.33245 0.0
H71 H 0.03933 0.77571 0.47067 0.0
H72 H 0.02874 0.81384 0.53723 0.0
H73 H 0.97585 0.7167 0.16552 0.0
H74 H 0.03335 0.67116 0.26725 0.0
H75 H 0.96067 0.81883 0.40383 0.0
H76 H 0.96459 0.68231 0.07868 0.0
H77 H 0.02279 0.63712 0.1799 0.0
C78 C 0.74101 0.10065 0.13261 0.0
C79 C 0.71981 0.11115 0.16823 0.0
C80 C 0.75581 0.08363 0.17316 0.0
C81 C 0.75053 0.0778 0.2515 0.0
C82 C 0.73295 0.09264 0.29095 0.0
C83 C 0.71737 0.10873 0.24957 0.0
C84 C 0.75919 0.05367 0.28605 0.0
C85 C 0.78123 0.04213 0.26047 0.0
C86 C 0.7862 0.01695 0.27753 0.0
C87 C 0.76927 1.00337 0.32493 0.0
C88 C 0.74801 0.01536 0.35609 0.0
C89 C 0.74316 0.04016 0.33547 0.0
C90 C 0.72917 1.0028 0.40666 0.0
C91 C 0.71024 0.98828 0.37333 0.0
C92 C 0.72617 0.01085 0.48392 0.0
C93 C 0.70426 1.00558 0.52568 0.0
C94 C 0.68453 0.99235 0.49101 0.0
C95 C 0.80796 1.00523 0.2377 0.0
C96 C 0.80414 0.98773 0.17825 0.0
C97 C 0.83191 0.01551 0.24661 0.0
C98 C 0.85123 0.00953 0.19465 0.0
C99 C 0.84695 0.99345 0.13154 0.0
C100 C 0.82337 0.982 0.12551 0.0
C101 C 0.68822 0.98306 0.41501 0.0
H102 H 0.74466 0.10339 0.07117 0.0
H103 H 0.76961 0.07336 0.14026 0.0
H104 H 0.72942 0.09003 0.35252 0.0
H105 H 0.7019 0.11698 0.2807 0.0
H106 H 0.79405 0.05229 0.22323 0.0
H107 H 0.72573 0.04828 0.35479 0.0
H108 H 0.77265 0.98386 0.33756 0.0
H109 H 0.7117 0.98251 0.31311 0.0
H110 H 0.74022 0.02254 0.51047 0.0
H111 H 0.70248 0.01264 0.5844 0.0
H112 H 0.78579 0.97986 0.16909 0.0
H113 H 0.83527 0.02935 0.29116 0.0
H114 H 0.67349 0.97303 0.38571 0.0
H115 H 0.81949 0.96938 0.07799 0.0
H116 H 0.86902 0.01884 0.20085 0.0
C117 C 0.47625 0.69466 0.4351 0.0
C118 C 0.49641 0.68636 0.48062 0.0
C119 C 0.47879 0.71509 0.38465 0.0
C120 C 0.50151 0.728 0.37797 0.0
C121 C 0.52139 0.72067 0.42595 0.0
C122 C 0.51888 0.70008 0.47665 0.0
C123 C 0.50544 0.74517 0.31036 0.0
C124 C 0.51046 0.77106 0.31791 0.0
C125 C 0.5126 0.78621 0.25033 0.0
C126 C 0.50945 0.77542 0.17688 0.0
C127 C 0.50407 0.75015 0.16903 0.0
C128 C 0.50251 0.73508 0.23554 0.0
C129 C 0.49762 0.73998 0.09191 0.0
C130 C 0.47929 0.75172 0.04644 0.0
C131 C 0.50828 0.71764 0.066 0.0
C132 C 0.4998 0.70649 0.99782 0.0
C133 C 0.48028 0.71734 0.95507 0.0
C134 C 0.5153 0.8138 0.25097 0.0
C135 C 0.4939 0.82845 0.26195 0.0
C136 C 0.53598 0.82458 0.21298 0.0
C137 C 0.53431 0.84836 0.17904 0.0
C138 C 0.51183 0.86182 0.18192 0.0
C139 C 0.49218 0.8522 0.22782 0.0
C140 C 0.47055 0.74039 0.97878 0.0
H141 H 0.45876 0.6846 0.4351 0.0
H142 H 0.46326 0.72004 0.34755 0.0
H143 H 0.53925 0.72998 0.42115 0.0
H144 H 0.53476 0.69455 0.51135 0.0
H145 H 0.51208 0.77933 0.3751 0.0
H146 H 0.49801 0.71546 0.22924 0.0
H147 H 0.5103 0.78706 0.12511 0.0
H148 H 0.47071 0.76894 0.06555 0.0
H149 H 0.52255 0.70837 0.09992 0.0
H150 H 0.50735 0.6885 0.98152 0.0
H151 H 0.47752 0.8205 0.28949 0.0
H152 H 0.55251 0.8135 0.20215 0.0
H153 H 0.4554 0.749 0.94702 0.0
H154 H 0.47473 0.86224 0.23242 0.0
H155 H 0.54979 0.85505 0.14416 0.0
C156 C 0.23562 0.58283 0.4321 0.0
C157 C 0.21593 0.571 0.47173 0.0
C158 C 0.2469 0.57122 0.36817 0.0
C159 C 0.23815 0.54802 0.34222 0.0
C160 C 0.21895 0.53597 0.38284 0.0
C161 C 0.20806 0.54726 0.44737 0.0
C162 C 0.24854 0.5364 0.27181 0.0
C163 C 0.27309 0.52806 0.27125 0.0
C164 C 0.28289 0.51554 0.20659 0.0
C165 C 0.26769 0.51184 0.14005 0.0
C166 C 0.24282 0.52099 0.1395 0.0
C167 C 0.23353 0.53283 0.20647 0.0
C168 C 0.22578 0.51941 0.07085 0.0
C169 C 0.21457 0.54137 0.04288 0.0
C170 C 0.21704 0.49643 0.04264 0.0
C171 C 0.1968 0.49551 0.99041 0.0
C172 C 0.18484 0.51756 0.965 0.0
C173 C 0.30907 0.50678 0.21397 0.0
C174 C 0.32859 0.52396 0.20342 0.0
C175 C 0.31386 0.48483 0.25621 0.0
C176 C 0.33708 0.48097 0.29173 0.0
C177 C 0.35608 0.49907 0.28636 0.0
C178 C 0.35185 0.5201 0.23875 0.0
C179 C 0.19451 0.54049 0.99108 0.0
H180 H 0.24179 0.60122 0.44936 0.0
H181 H 0.2618 0.5807 0.3373 0.0
H182 H 0.2121 0.518 0.36373 0.0
H183 H 0.19256 0.53795 0.47578 0.0
H184 H 0.28454 0.53081 0.32251 0.0
H185 H 0.21443 0.53946 0.20776 0.0
H186 H 0.27518 0.50244 0.0894 0.0
H187 H 0.22063 0.55937 0.06422 0.0
H188 H 0.225 0.47917 0.06399 0.0
H189 H 0.19023 0.47747 0.97116 0.0
H190 H 0.32518 0.54143 0.17344 0.0
H191 H 0.29897 0.47161 0.2672 0.0
H192 H 0.18583 0.55793 0.97455 0.0
H193 H 0.36584 0.53458 0.23353 0.0
H194 H 0.33971 0.46435 0.32669 0.0
C195 C 0.06562 0.21509 0.37534 0.0
C196 C 0.07838 0.1946 0.3436 0.0
C197 C 0.06173 0.23645 0.33052 0.0
C198 C 0.07069 0.23756 0.25366 0.0
C199 C 0.08744 0.21914 0.22809 0.0
C200 C 0.09123 0.1977 0.27283 0.0
C201 C 0.05718 0.25316 0.19625 0.0
C202 C 0.04983 0.2775 0.21398 0.0
C203 C 0.03211 0.29016 0.16834 0.0
C204 C 0.02147 0.27772 0.10335 0.0
C205 C 0.02972 0.25343 0.08306 0.0
C206 C 0.04754 0.24168 0.12986 0.0
C207 C 0.01977 0.23826 0.01719 0.0
C208 C 0.99592 0.22741 0.02192 0.0
C209 C 0.03676 0.2286 0.96239 0.0
C210 C 0.03095 0.2074 0.91849 0.0
C211 C 1.00784 0.19534 0.92732 0.0
C212 C 0.02447 0.31561 0.19486 0.0
C213 C 0.99966 0.32086 0.21551 0.0
C214 C 0.04295 0.33315 0.21439 0.0
C215 C 0.03717 0.35439 0.25822 0.0
C216 C 0.01264 0.35888 0.28396 0.0
C217 C 0.99381 0.34222 0.25947 0.0
C218 C 0.98995 0.20627 0.97697 0.0
H219 H 0.05563 0.21341 0.43003 0.0
H220 H 0.04894 0.25042 0.35235 0.0
H221 H 0.09517 0.2199 0.16977 0.0
H222 H 0.1017 0.18238 0.2479 0.0
H223 H 0.05708 0.28621 0.26611 0.0
H224 H 0.05257 0.22252 0.11724 0.0
H225 H 1.00732 0.28687 0.06875 0.0
H226 H 0.98265 0.23395 0.0649 0.0
H227 H 0.05542 0.23624 0.95827 0.0
H228 H 0.04505 0.19973 0.88015 0.0
H229 H 0.98502 0.30766 0.20209 0.0
H230 H 0.06228 0.32963 0.19961 0.0
H231 H 0.97198 0.19743 0.9853 0.0
H232 H 0.9746 0.3452 0.27654 0.0
H233 H 0.05231 0.36642 0.27586 0.0
C234 C 0.27941 0.04663 0.44185 0.0
C235 C 0.30233 0.05848 0.42873 0.0
C236 C 0.26011 0.04964 0.38853 0.0
C237 C 0.2636 0.06475 0.32221 0.0
C238 C 0.28463 0.08037 0.31857 0.0
C239 C 0.30406 0.07706 0.37129 0.0
C240 C 0.24964 0.05878 0.25025 0.0
C241 C 0.22451 0.05208 0.25373 0.0
C242 C 0.213 0.03977 0.19153 0.0
C243 C 0.22689 0.03475 0.12284 0.0
C244 C 0.25205 0.0427 0.11724 0.0
C245 C 0.26294 0.05465 0.18112 0.0
C246 C 0.26895 0.03757 0.04987 0.0
C247 C 0.27917 0.01362 0.03928 0.0
C248 C 0.28072 0.05789 0.01295 0.0
C249 C 0.30329 0.05479 0.97285 0.0
C250 C 0.31464 0.03123 0.96774 0.0
C251 C 0.18728 0.03058 0.2063 0.0
C252 C 0.18407 0.01038 0.25773 0.0
C253 C 0.16677 0.04611 0.19103 0.0
C254 C 0.14397 0.04241 0.23011 0.0
C255 C 0.14145 0.02342 0.28643 0.0
C256 C 0.16148 1.00688 0.29745 0.0
C257 C 0.30175 0.01046 0.99812 0.0
H258 H 0.27769 0.03225 0.48604 0.0
H259 H 0.24407 0.03748 0.39383 0.0
H260 H 0.28744 0.09277 0.26941 0.0
H261 H 0.32158 0.08658 0.36084 0.0
H262 H 0.21413 0.05514 0.3072 0.0
H263 H 0.28268 0.059 0.17864 0.0
H264 H 0.21842 0.02463 0.07534 0.0
H265 H 0.27095 0.99771 0.06873 0.0
H266 H 0.27362 0.07661 0.02131 0.0
H267 H 0.31271 0.07113 0.95 0.0
H268 H 0.19975 0.99853 0.2722 0.0
H269 H 0.16896 0.06227 0.15363 0.0
H270 H 0.31013 0.9921 0.99567 0.0
H271 H 0.16008 0.99191 0.33972 0.0
H272 H 0.12894 0.05554 0.22049 0.0
C273 C 0.48108 0.30817 0.03069 0.0
C274 C 0.49949 0.31507 0.97574 0.0
C275 C 0.4842 0.28705 0.07867 0.0
C276 C 0.50576 0.27231 0.07278 0.0
C277 C 0.52364 0.27857 0.01602 0.0
C278 C 0.52052 0.29952 0.96799 0.0
C279 C 0.51263 0.25443 0.13582 0.0
C280 C 0.50211 0.23031 0.14369 0.0
C281 C 0.51079 0.21406 0.20282 0.0
C282 C 0.5295 0.22219 0.2535 0.0
C283 C 0.53911 0.24643 0.24906 0.0
C284 C 0.53067 0.26227 0.18941 0.0
C285 C 0.55636 0.25588 0.31013 0.0
C286 C 0.5537 0.24814 0.38816 0.0
C287 C 0.57407 0.27438 0.29256 0.0
C288 C 0.58658 0.28682 0.35198 0.0
C289 C 0.5822 0.28062 0.43062 0.0
C290 C 0.50058 0.1887 0.21758 0.0
C291 C 0.47923 0.18588 0.26435 0.0
C292 C 0.51608 0.16791 0.20602 0.0
C293 C 0.51131 0.1453 0.2445 0.0
C294 C 0.491 0.14293 0.29626 0.0
C295 C 0.47445 0.16325 0.30312 0.0
C296 C 0.56679 0.26007 0.44741 0.0
H297 H 0.46449 0.31943 0.038 0.0
H298 H 0.4704 0.28303 0.12318 0.0
H299 H 0.54075 0.26793 0.01159 0.0
H300 H 0.53532 0.30423 0.92755 0.0
H301 H 0.48776 0.22418 0.10392 0.0
H302 H 0.53755 0.28124 0.18544 0.0
H303 H 0.53619 0.2095 0.29802 0.0
H304 H 0.54033 0.23395 0.40469 0.0
H305 H 0.57739 0.28024 0.23305 0.0
H306 H 0.59822 0.3025 0.33586 0.0
H307 H 0.46732 0.20177 0.27588 0.0
H308 H 0.53304 0.16977 0.17208 0.0
H309 H 0.56351 0.25418 0.50691 0.0
H310 H 0.4584 0.16207 0.34134 0.0
H311 H 0.52466 0.13031 0.238 0.0
Tb312 Tb 0.02246 0.99658 0.79377 0.0
Eu313 Eu 0.98001 0.01143 0.66509 0.0
C314 C 0.0381 0.01394 0.62616 0.0
C315 C 1.00547 0.05291 0.77766 0.0
C316 C 0.06831 0.96402 0.9269 0.0
C317 C 0.10333 0.93628 0.95078 0.0
C318 C 0.09268 0.95611 0.90989 0.0
C319 C 0.05481 0.95199 0.98623 0.0
C320 C 0.06553 0.9323 0.02752 0.0
C321 C 0.08986 0.92424 0.01012 0.0
C322 C 0.05793 0.98537 0.88386 0.0
O323 O 0.98772 0.98584 0.85241 0.0
O324 O 0.95812 1.00523 0.77576 0.0
O325 O 0.9782 0.96941 0.66953 0.0
O326 O 0.01586 0.96194 0.72927 0.0
C327 C 0.96468 0.99354 0.84001 0.0
O328 O 0.95013 0.03578 0.62426 0.0
O329 O 0.96297 1.00569 0.55137 0.0
O330 O 0.0163 1.00732 0.59963 0.0
O331 O 0.04137 0.01722 0.70102 0.0
O332 O 0.01318 0.03486 0.82344 0.0
O333 O 0.99583 0.04828 0.70884 0.0
C334 C 0.99632 0.95422 0.68958 0.0
O335 O 0.05922 0.98414 0.8083 0.0
O336 O 0.03671 0.99457 0.90733 0.0
C337 C 0.96029 0.04558 0.49396 0.0
C338 C 0.99194 0.07982 0.41856 0.0
C339 C 0.97427 0.08814 0.47304 0.0
C340 C 0.9584 0.07121 0.50995 0.0
C341 C 0.97586 0.0378 0.4324 0.0
C342 C 0.99165 0.05481 0.39513 0.0
C343 C 0.95185 0.02731 0.55324 0.0
H344 H 0.12212 0.93047 0.93642 0.0
H345 H 0.10351 0.96531 0.86485 0.0
H346 H 0.036 0.9577 1.00071 0.0
H347 H 0.05457 0.92304 0.07214 0.0
H348 H 0.97371 0.10755 0.49033 0.0
H349 H 0.94635 0.0779 0.5561 0.0
H350 H 0.97758 0.01824 0.41778 0.0
H351 H 1.00493 0.04804 0.35248 0.0
Tb352 Tb 0.50815 0.02868 0.80948 0.0
Eu353 Eu 0.49623 0.98347 0.69047 0.0
C354 C 0.49035 0.04092 0.64066 0.0
C355 C 0.45247 0.00956 0.79023 0.0
C356 C 0.54526 0.07285 0.92231 0.0
C357 C 0.5738 0.10642 0.95454 0.0
C358 C 0.54963 0.09808 0.93845 0.0
C359 C 0.56516 0.05595 0.92336 0.0
C360 C 0.58918 0.06419 0.93972 0.0
C361 C 0.59389 0.08958 0.95421 0.0
C362 C 0.52071 0.06463 0.89542 0.0
O363 O 0.52262 0.99521 0.86746 0.0
O364 O 0.49662 0.96691 0.81102 0.0
O365 O 0.53804 0.9833 0.70224 0.0
O366 O 0.54136 0.02437 0.73563 0.0
C367 C 0.51139 0.9734 0.86804 0.0
O368 O 0.47897 0.94745 0.66734 0.0
O369 O 0.50008 0.9658 0.57677 0.0
O370 O 0.49802 0.01887 0.61784 0.0
O371 O 0.48699 0.0455 0.71494 0.0
O372 O 0.4696 0.01831 0.83789 0.0
O373 O 0.45863 0.99964 0.72283 0.0
C374 C 0.55134 1.00373 0.70816 0.0
O375 O 0.51767 0.06641 0.82058 0.0
O376 O 0.51277 0.04324 0.9221 0.0
C377 C 0.4611 0.94886 0.54244 0.0
C378 C 0.41703 0.9668 0.47527 0.0
C379 C 0.41593 0.95113 0.54078 0.0
C380 C 0.43781 0.94207 0.57392 0.0
C381 C 0.46187 0.96131 0.47036 0.0
C382 C 0.43998 0.97037 0.43722 0.0
C383 C 0.48336 0.94884 0.59274 0.0
H384 H 0.57683 0.12608 0.9652 0.0
H385 H 0.53448 0.11142 0.93658 0.0
H386 H 0.56221 0.03644 0.90993 0.0
H387 H 0.60409 0.05058 0.94085 0.0
H388 H 0.39833 0.94747 0.5698 0.0
H389 H 0.43652 0.93191 0.62839 0.0
H390 H 0.47951 0.96636 0.44371 0.0
H391 H 0.44138 0.98217 0.38611 0.0
Tb392 Tb 0.47455 0.51137 0.78886 0.0
Eu393 Eu 0.51749 0.49135 0.67246 0.0
C394 C 0.46108 0.49408 0.6206 0.0
C395 C 0.49135 0.45483 0.80008 0.0
C396 C 0.42418 0.55133 0.85397 0.0
C397 C 0.40864 0.59014 0.90649 0.0
C398 C 0.4154 0.56523 0.91711 0.0
C399 C 0.42336 0.56161 0.77868 0.0
C400 C 0.41672 0.58653 0.76808 0.0
C401 C 0.41093 0.60142 0.83269 0.0
C402 C 0.439 0.52885 0.8683 0.0
O403 O 0.50999 0.52047 0.84604 0.0
O404 O 0.53419 0.48993 0.79243 0.0
O405 O 0.52023 0.53336 0.67129 0.0
O406 O 0.48012 0.54217 0.70604 0.0
C407 C 0.53012 0.50642 0.84716 0.0
O408 O 0.55591 0.49372 0.63164 0.0
O409 O 0.53012 0.46832 0.57579 0.0
O410 O 0.48375 0.49945 0.59728 0.0
O411 O 0.45664 0.49081 0.69502 0.0
O412 O 0.48336 0.47475 0.83733 0.0
O413 O 0.50135 0.45654 0.72995 0.0
C414 C 0.50152 0.54908 0.67517 0.0
O415 O 0.43645 0.51093 0.81818 0.0
O416 O 0.46238 0.5332 0.88283 0.0
C417 C 0.57162 0.45546 0.58732 0.0
C418 C 0.60013 0.41155 0.58927 0.0
C419 C 0.58877 0.42024 0.65795 0.0
C420 C 0.57447 0.442 0.65686 0.0
C421 C 0.58462 0.44811 0.52058 0.0
C422 C 0.59884 0.42634 0.5215 0.0
C423 C 0.55327 0.47556 0.58206 0.0
H424 H 0.40444 0.60122 0.95751 0.0
H425 H 0.416 0.5576 0.97555 0.0
H426 H 0.43001 0.5511 0.72901 0.0
H427 H 0.41855 0.59477 0.71067 0.0
H428 H 0.58958 0.40936 0.71112 0.0
H429 H 0.56458 0.44757 0.7091 0.0
H430 H 0.58259 0.45839 0.46655 0.0
H431 H 0.60704 0.42006 0.46729 0.0
Tb432 Tb 0.99337 0.48609 0.75667 0.0
Eu433 Eu 0.01144 0.5316 0.64406 0.0
C434 C 1.00828 0.47496 0.58243 0.0
C435 C 0.04965 0.50514 0.7623 0.0
C436 C 0.95868 0.43186 0.8286 0.0
C437 C 0.92815 0.40468 0.88866 0.0
C438 C 0.95071 0.41757 0.89216 0.0
C439 C 0.94508 0.43143 0.75901 0.0
C440 C 0.92253 0.4185 0.75535 0.0
C441 C 0.9132 0.40609 0.82155 0.0
C442 C 0.97908 0.44966 0.83835 0.0
O443 O 0.99929 0.5175 0.83591 0.0
O444 O 0.99381 0.54946 0.74954 0.0
O445 O 0.97354 0.52082 0.59979 0.0
O446 O 0.95835 0.50104 0.70875 0.0
C447 C 0.99511 0.54124 0.82137 0.0
O448 O 1.00674 0.56996 0.60355 0.0
O449 O 0.03561 0.54678 0.5536 0.0
O450 O 0.02113 0.49584 0.58047 0.0
O451 O 0.99264 0.47036 0.63962 0.0
O452 O 0.03416 0.48606 0.76505 0.0
O453 O 0.04333 0.52614 0.72809 0.0
C454 C 0.95483 0.51145 0.63993 0.0
O455 O 0.997 0.44833 0.78715 0.0
O456 O 0.97201 0.47261 0.85013 0.0
C457 C 0.04521 0.58869 0.57198 0.0
C458 C 0.09009 0.61508 0.58925 0.0
C459 C 0.07745 0.60572 0.65507 0.0
C460 C 0.05525 0.5924 0.64638 0.0
C461 C 0.05611 0.60045 0.50763 0.0
C462 C 0.07834 0.61363 0.51612 0.0
C463 C 0.02652 0.56924 0.55936 0.0
H464 H 0.92141 0.39559 0.94104 0.0
H465 H 0.96104 0.41776 0.94624 0.0
H466 H 0.95107 0.4424 0.70924 0.0
H467 H 0.91152 0.41978 0.70276 0.0
H468 H 0.08579 0.60683 0.71228 0.0
H469 H 0.04699 0.58341 0.69685 0.0
H470 H 0.04858 0.5977 0.44984 0.0
H471 H 0.08751 0.62035 0.46387 0.0
H472 H 0.14083 0.01982 0.44411 0.0
H473 H 0.09185 0.02508 0.24657 0.0
H474 H 0.05547 0.02312 0.33353 0.0
H475 H 0.03759 0.01897 0.46659 0.0
H476 H 0.08737 0.0155 0.66322 0.0
H477 H 0.12323 0.01771 0.57602 0.0
C478 C 0.12219 0.02032 0.41996 0.0
C479 C 0.1191 0.02221 0.33872 0.0
C480 C 0.10143 0.01957 0.47037 0.0
C481 C 0.09478 0.02352 0.30873 0.0
C482 C 0.07397 0.02237 0.35851 0.0
C483 C 0.05629 0.01876 0.49036 0.0
C484 C 0.05966 0.01694 0.57172 0.0
C485 C 0.07705 0.02027 0.43956 0.0
C486 C 0.08408 0.01695 0.6012 0.0
C487 C 0.10469 0.01811 0.55123 0.0
H488 H 0.47729 0.14123 0.44983 0.0
H489 H 0.50009 0.09369 0.26035 0.0
H490 H 0.50096 0.05784 0.34855 0.0
H491 H 0.49746 0.04025 0.48171 0.0
H492 H 0.47434 0.0883 0.66982 0.0
H493 H 0.47098 0.12327 0.57983 0.0
C494 C 0.48194 0.12297 0.42711 0.0
C495 C 0.4887 0.1204 0.34807 0.0
C496 C 0.48248 0.10236 0.47831 0.0
C497 C 0.49512 0.09648 0.32084 0.0
C498 C 0.49555 0.07587 0.37135 0.0
C499 C 0.49146 0.0583 0.50297 0.0
C500 C 0.48633 0.06147 0.58301 0.0
C501 C 0.48967 0.07863 0.4506 0.0
C502 C 0.47854 0.08512 0.60895 0.0
C503 C 0.47662 0.10526 0.55738 0.0
H504 H 0.3594 0.48343 0.43747 0.0
H505 H 0.40457 0.51146 0.24829 0.0
H506 H 0.44115 0.51169 0.33307 0.0
H507 H 0.46018 0.50531 0.46344 0.0
H508 H 0.41405 0.47759 0.6512 0.0
H509 H 0.37841 0.47557 0.56446 0.0
C510 C 0.3773 0.48916 0.41402 0.0
C511 C 0.37904 0.49733 0.33603 0.0
C512 C 0.39827 0.4894 0.46329 0.0
C513 C 0.40246 0.50523 0.30797 0.0
C514 C 0.42348 0.50532 0.35653 0.0
C515 C 0.4424 0.49862 0.4852 0.0
C516 C 0.44002 0.49164 0.56426 0.0
C517 C 0.4216 0.49768 0.4347 0.0
C518 C 0.41665 0.48316 0.59106 0.0
C519 C 0.39612 0.48199 0.54135 0.0
H520 H 0.03388 0.40576 0.29289 0.0
H521 H 0.97969 0.35841 0.40677 0.0
H522 H 0.97308 0.39002 0.50619 0.0
H523 H 0.9839 0.43035 0.56534 0.0
H524 H 0.03897 0.4773 0.45426 0.0
H525 H 0.04421 0.44652 0.35092 0.0
C526 C 0.02066 0.40222 0.33946 0.0
C527 C 1.00732 0.37945 0.34131 0.0
C528 C 0.01722 0.42042 0.39794 0.0
C529 C 0.98998 0.37572 0.40209 0.0
C530 C 0.98634 0.39376 0.45987 0.0
C531 C 0.99705 0.43395 0.51854 0.0
C532 C 0.01108 0.45626 0.51834 0.0
C533 C 1.00003 0.41608 0.45897 0.0
C534 C 0.02792 0.46041 0.4566 0.0
C535 C 0.03094 0.44275 0.39719 0.0
H536 H 0.89748 0.98569 0.14448 0.0
H537 H 0.83929 0.99617 0.97496 0.0
H538 H 0.87014 0.99613 0.8702 0.0
H539 H 0.91389 0.99549 0.82655 0.0
H540 H 0.97225 0.9838 0.99485 0.0
H541 H 0.94126 0.98187 0.09939 0.0
C542 C 0.89156 0.9878 0.08455 0.0
C543 C 0.86599 0.99092 0.06798 0.0
C544 C 0.9095 0.98767 0.02405 0.0
C545 C 0.85871 0.99342 0.98971 0.0
C546 C 0.87641 0.99359 0.92959 0.0
C547 C 0.91987 0.99235 0.886 0.0
C548 C 0.94551 0.98997 0.90245 0.0
C549 C 0.90188 0.99106 0.94605 0.0
C550 C 0.95273 0.98565 0.98003 0.0
C551 C 0.93498 0.98465 0.04011 0.0
H552 H 0.54298 0.90139 0.14583 0.0
H553 H 0.47105 0.86988 0.09199 0.0
H554 H 0.46461 0.9015 0.99235 0.0
H555 H 0.47988 0.93684 0.91542 0.0
H556 H 0.55091 0.97002 0.96931 0.0
H557 H 0.55723 0.93913 0.07321 0.0
C558 C 0.52583 0.90159 0.11269 0.0
C559 C 0.50748 0.88322 0.12726 0.0
C560 C 0.52215 0.92004 0.05473 0.0
C561 C 0.48533 0.88392 0.08361 0.0
C562 C 0.4817 0.90191 0.0258 0.0
C563 C 0.49678 0.93737 0.94985 0.0
C564 C 0.51503 0.95557 0.93379 0.0
C565 C 0.50006 0.91985 0.01014 0.0
C566 C 0.53658 0.95619 0.98013 0.0
C567 C 0.5402 0.93848 0.03953 0.0
H568 H 0.60722 0.53505 0.11324 0.0
H569 H 0.62893 0.45855 0.07622 0.0
H570 H 0.59669 0.45393 0.97781 0.0
H571 H 0.56302 0.47166 0.89897 0.0
H572 H 0.5392 0.54734 0.9386 0.0
H573 H 0.5713 0.55221 0.03868 0.0
C574 C 0.60474 0.51736 0.08389 0.0
C575 C 0.62047 0.49713 0.10272 0.0
C576 C 0.58579 0.51468 0.02737 0.0
C577 C 0.61693 0.47431 0.06406 0.0
C578 C 0.59856 0.47168 1.0072 0.0
C579 C 0.56481 0.48924 0.92951 0.0
C580 C 0.54881 0.50917 0.91064 0.0
C581 C 0.583 0.49175 0.98794 0.0
C582 C 0.55122 0.53167 0.95181 0.0
C583 C 0.56965 0.53449 1.009 0.0
H584 H 0.99587 0.60553 0.13188 0.0
H585 H 0.98367 0.66489 0.96592 0.0
H586 H 0.9821 0.63465 0.86061 0.0
H587 H 0.98648 0.59159 0.81341 0.0
H588 H 0.99963 0.53213 0.9781 0.0
H589 H 0.99882 0.5621 0.08495 0.0
C590 C 0.99286 0.61193 0.07275 0.0
C591 C 0.98984 0.63771 0.05776 0.0
C592 C 0.99235 0.59435 0.01156 0.0
C593 C 0.98562 0.64532 0.98032 0.0
C594 C 0.98497 0.62798 0.91952 0.0
C595 C 0.98903 0.58507 0.87265 0.0
C596 C 0.9932 0.55946 0.88707 0.0
C597 C 0.98861 0.60248 0.93419 0.0
C598 C 0.99641 0.55161 0.96467 0.0
C599 C 0.99598 0.5688 0.02607 0.0
H600 H 0.06342 0.15609 0.25508 0.0
H601 H 0.07644 0.17702 0.49384 0.0
H602 H 0.05203 0.1411 0.53841 0.0
H603 H 0.02169 0.10816 0.50836 0.0
H604 H 1.00729 0.08872 0.26936 0.0
H605 H 0.03789 0.11968 0.22553 0.0
C606 C 0.06182 0.15229 0.31695 0.0
C607 C 0.07161 0.16928 0.37119 0.0
C608 C 0.04698 0.1323 0.34181 0.0
C609 C 0.06897 0.16425 0.4511 0.0
C610 C 0.05483 0.14389 0.47648 0.0
C611 C 0.02537 0.11071 0.44669 0.0
C612 C 0.01189 0.0968 0.39183 0.0
C613 C 0.04276 0.12859 0.42222 0.0
C614 C 0.01728 0.09954 0.31233 0.0
C615 C 0.03474 0.11717 0.28742 0.0
H616 H 0.33465 0.03655 0.33395 0.0
H617 H 0.31907 0.04911 0.5769 0.0
H618 H 0.35333 0.0209 0.61287 0.0
H619 H 0.38667 0.99199 0.57366 0.0
H620 H 0.39973 0.97755 0.3297 0.0
H621 H 0.36707 1.00726 0.29505 0.0
C622 C 0.3392 0.03356 0.39479 0.0
C623 C 0.32505 0.04531 0.45297 0.0
C624 C 0.35797 0.01669 0.41441 0.0
C625 C 0.33026 0.04063 0.53155 0.0
C626 C 0.34957 0.02435 0.55183 0.0
C627 C 0.38204 0.99497 0.51293 0.0
C628 C 0.39542 0.98245 0.45417 0.0
C629 C 0.36326 0.01201 0.49359 0.0
C630 C 0.38967 0.98699 0.37578 0.0
C631 C 0.3711 1.004 0.35602 0.0
H632 H 0.6242 0.30993 0.43885 0.0
H633 H 0.55649 0.29183 0.5643 0.0
H634 H 0.56097 0.32893 0.64223 0.0
H635 H 0.57676 0.37123 0.64868 0.0
H636 H 0.64102 0.39264 0.51236 0.0
H637 H 0.64499 0.34991 0.46441 0.0
C638 C 0.61057 0.31391 0.48387 0.0
C639 C 0.58959 0.29834 0.49319 0.0
C640 C 0.61225 0.33634 0.52545 0.0
C641 C 0.57283 0.30327 0.55464 0.0
C642 C 0.57515 0.32482 0.599 0.0
C643 C 0.59232 0.36641 0.61114 0.0
C644 C 0.60823 0.3852 0.58269 0.0
C645 C 0.59374 0.34223 0.58112 0.0
C646 C 0.62821 0.37856 0.53378 0.0
C647 C 0.63041 0.35417 0.50613 0.0
H648 H 0.19555 0.61683 0.45748 0.0
H649 H 0.20157 0.55448 0.61524 0.0
H650 H 0.16437 0.56834 0.68473 0.0
H651 H 0.12476 0.59011 0.67327 0.0
H652 H 0.11698 0.65085 0.50969 0.0
H653 H 0.16057 0.64616 0.4712 0.0
C654 C 0.18935 0.60698 0.5093 0.0
C655 C 0.20074 0.58434 0.53018 0.0
C656 C 0.16728 0.61442 0.54659 0.0
C657 C 0.19269 0.57172 0.59745 0.0
C658 C 0.17133 0.57955 0.63679 0.0
C659 C 0.13277 0.6032 0.63196 0.0
C660 C 0.11733 0.62015 0.59207 0.0
C661 C 0.1575 0.59972 0.60796 0.0
C662 C 0.12828 0.63706 0.53933 0.0
C663 C 0.15319 0.6343 0.51701 0.0
H664 H 0.1081 0.83217 0.22336 0.0
H665 H 0.12988 0.79973 1.00385 0.0
H666 H 0.12892 0.84102 0.94277 0.0
H667 H 0.11367 0.88436 0.94715 0.0
H668 H 0.08967 0.9155 0.1662 0.0
H669 H 0.09997 0.87656 0.23254 0.0
C670 C 0.11371 0.83412 0.16294 0.0
C671 C 0.11873 0.8128 0.11798 0.0
C672 C 0.11208 0.85762 0.12776 0.0
C673 C 0.12563 0.81582 0.03947 0.0
C674 C 0.1249 0.83939 1.00444 0.0
C675 C 0.11136 0.8828 0.00972 0.0
C676 C 0.10048 0.90252 0.05165 0.0
C677 C 0.1168 0.86016 0.04715 0.0
C678 C 0.09751 0.90032 0.13261 0.0
C679 C 0.10347 0.87812 0.17053 0.0
H680 H 0.70709 0.09403 0.02426 0.0
H681 H 0.68197 0.14478 0.20329 0.0
H682 H 0.64032 0.14459 0.14692 0.0
H683 H 0.60974 0.1236 0.06184 0.0
H684 H 0.63635 0.0747 0.8804 0.0
H685 H 0.67908 0.08118 0.92257 0.0
C686 C 0.69307 0.106 0.04998 0.0
C687 C 0.69777 0.11861 0.12034 0.0
C688 C 0.66919 0.10575 0.01765 0.0
C689 C 0.67884 0.13394 0.15121 0.0
C690 C 0.65493 0.1339 0.11888 0.0
C691 C 0.62492 0.11491 0.03017 0.0
C692 C 0.61977 0.09793 0.96993 0.0
C693 C 0.6496 0.11875 0.05464 0.0
C694 C 0.63972 0.08707 0.92898 0.0
C695 C 0.66419 0.09089 0.95267 0.0
H696 H 0.4311 0.70769 0.94798 0.0
H697 H 0.50085 0.69245 0.8321 0.0
H698 H 0.48188 0.65725 0.76428 0.0
H699 H 0.44954 0.62536 0.76753 0.0
H700 H 0.38118 0.63815 0.89371 0.0
H701 H 0.3953 0.68014 0.92736 0.0
C702 C 0.44182 0.6973 0.90536 0.0
C703 C 0.46738 0.70227 0.89576 0.0
C704 C 0.43113 0.67641 0.86989 0.0
C705 C 0.4812 0.68864 0.84093 0.0
C706 C 0.4704 0.66848 0.8026 0.0
C707 C 0.43712 0.63782 0.79863 0.0
C708 C 0.41441 0.62873 0.82842 0.0
C709 C 0.4459 0.6613 0.82072 0.0
C710 C 0.3988 0.64479 0.87066 0.0
C711 C 0.40697 0.66868 0.89033 0.0
H712 H 0.81082 0.38688 0.97484 0.0
H713 H 0.79799 0.459 0.86911 0.0
H714 H 0.83423 0.45356 0.78673 0.0
H715 H 0.87486 0.43431 0.77177 0.0
H716 H 0.89119 0.36498 0.88901 0.0
H717 H 0.84858 0.36346 0.94 0.0
C718 C 0.81575 0.40128 0.93308 0.0
C719 C 0.802 0.42364 0.93044 0.0
C720 C 0.83768 0.39881 0.88901 0.0
C721 C 0.80808 0.44158 0.87335 0.0
C722 C 0.82912 0.43866 0.82653 0.0
C723 C 0.86888 0.41826 0.80564 0.0
C724 C 0.88631 0.40006 0.82803 0.0
C725 C 0.84488 0.41818 0.83771 0.0
C726 C 0.87819 0.37948 0.87227 0.0
C727 C 0.85389 0.37869 0.90174 0.0
H728 H 0.03846 0.15501 0.9307 0.0
H729 H 0.96736 0.17917 0.84272 0.0
H730 H 0.96074 0.13799 0.78389 0.0
H731 H 0.9751 0.09427 0.75952 0.0
H732 H 0.04499 0.07031 0.8578 0.0
H733 H 0.05223 0.11198 0.90925 0.0
C734 C 0.02159 0.15136 0.89802 0.0
C735 C 1.00356 0.17034 0.89052 0.0
C736 C 0.0177 0.1275 0.86593 0.0
C737 C 0.98157 0.16499 0.84943 0.0
C738 C 0.97782 0.14141 0.8156 0.0
C739 C 0.99197 0.0983 0.79164 0.0
C740 C 0.00954 0.0791 0.80436 0.0
C741 C 0.99574 0.1224 0.82357 0.0
C742 C 0.03113 0.0846 0.8472 0.0
C743 C 0.03531 0.1085 0.87675 0.0
H744 H 0.33513 1.00275 0.84985 0.0
H745 H 0.35408 0.05553 0.02878 0.0
H746 H 0.39797 0.05335 0.99135 0.0
H747 H 0.43127 0.03665 0.90795 0.0
H748 H 0.41266 0.98559 0.72351 0.0
H749 H 0.36876 0.98706 0.76205 0.0
C750 C 0.34892 0.01372 0.88046 0.0
C751 C 0.34127 0.02932 0.94208 0.0
C752 C 0.37432 0.01275 0.85745 0.0
C753 C 0.3594 0.04354 0.98088 0.0
C754 C 0.38455 0.04225 0.9596 0.0
C755 C 0.41767 0.02578 0.87614 0.0
C756 C 0.42552 0.01091 0.8131 0.0
C757 C 0.39228 0.02697 0.89796 0.0
C758 C 0.40736 0.99721 0.77231 0.0
C759 C 0.38214 0.99799 0.79446 0.0
H760 H 0.48188 0.36065 0.02369 0.0
H761 H 0.51344 0.3237 0.82354 0.0
H762 H 0.51374 0.36308 0.75184 0.0
H763 H 0.50596 0.40859 0.74631 0.0
H764 H 0.47374 0.44503 0.94656 0.0
H765 H 0.47254 0.40549 0.01642 0.0
C766 C 0.48844 0.36102 0.96395 0.0
C767 C 0.4977 0.33896 0.92971 0.0
C768 C 0.48853 0.38385 0.92259 0.0
C769 C 0.50651 0.34025 0.85236 0.0
C770 C 0.50661 0.36284 0.81094 0.0
C771 C 0.49855 0.40791 0.80507 0.0
C772 C 0.48999 0.43005 0.84062 0.0
C773 C 0.49787 0.38487 0.8456 0.0
C774 C 0.48049 0.42853 0.9171 0.0
C775 C 0.47979 0.40581 0.95746 0.0
H776 H 0.14603 0.48368 0.96637 0.0
H777 H 0.17124 0.55052 0.84935 0.0
H778 H 0.13212 0.55277 0.77812 0.0
H779 H 0.09002 0.53662 0.75052 0.0
H780 H 0.06552 0.46875 0.86276 0.0
H781 H 0.10504 0.46593 0.93217 0.0
C782 C 0.14329 0.49851 0.92427 0.0
C783 C 0.1618 0.51708 0.91479 0.0
C784 C 0.12069 0.49959 0.88205 0.0
C785 C 0.15738 0.53623 0.86 0.0
C786 C 0.13497 0.53748 0.81847 0.0
C787 C 0.09332 0.52112 0.78987 0.0
C788 C 0.07454 0.50299 0.8012 0.0
C789 C 0.11633 0.51945 0.82959 0.0
C790 C 0.07945 0.48301 0.85234 0.0
C791 C 0.10213 0.48138 0.89242 0.0
H792 H 1.00834 0.83881 0.61961 0.0
H793 H 0.96915 0.86042 0.41056 0.0
H794 H 0.96444 0.90248 0.46087 0.0
H795 H 0.97401 0.93453 0.55994 0.0
H796 H 0.01729 0.91388 0.76106 0.0
H797 H 0.01835 0.8706 0.71699 0.0
C798 C 0.99899 0.8526 0.584 0.0
C799 C 0.98923 0.8458 0.51051 0.0
C800 C 0.99725 0.87734 0.61177 0.0
C801 C 0.97655 0.86436 0.46769 0.0
C802 C 0.97406 0.88876 0.49611 0.0
C803 C 0.98345 0.92051 0.59455 0.0
C804 C 0.99547 0.92758 0.6641 0.0
C805 C 0.98465 0.89561 0.56756 0.0
C806 C 1.00792 0.90911 0.70738 0.0
C807 C 1.00853 0.88428 0.68215 0.0
H808 H 0.66045 0.0265 0.58329 0.0
H809 H 0.6523 0.95229 0.49021 0.0
H810 H 0.61107 0.94892 0.55029 0.0
H811 H 0.57659 0.96745 0.62671 0.0
H812 H 0.58531 0.04154 0.72045 0.0
H813 H 0.62703 0.04419 0.66419 0.0
C814 C 0.64994 0.00936 0.57706 0.0
C815 C 0.65977 0.98969 0.5318 0.0
C816 C 0.62616 1.00749 0.61208 0.0
C817 C 0.64532 0.96792 0.52356 0.0
C818 C 0.62169 0.96591 0.55837 0.0
C819 C 0.58766 0.98412 0.63545 0.0
C820 C 0.57754 1.0043 0.67784 0.0
C821 C 0.61179 0.98565 0.6023 0.0
C822 C 0.59234 0.02572 0.68802 0.0
C823 C 0.6163 0.02729 0.65572 0.0
H824 H 0.53172 0.64995 0.50428 0.0
H825 H 0.45576 0.66885 0.56277 0.0
H826 H 0.4504 0.62851 0.62641 0.0
H827 H 0.46705 0.5872 0.66519 0.0
H828 H 0.54328 0.56892 0.60768 0.0
H829 H 0.54879 0.60966 0.54712 0.0
C830 C 0.51413 0.64558 0.53244 0.0
C831 C 0.49418 0.66268 0.52771 0.0
C832 C 0.51119 0.62229 0.57019 0.0
C833 C 0.47143 0.65614 0.56384 0.0
C834 C 0.46837 0.63303 0.60112 0.0
C835 C 0.48491 0.59213 0.63975 0.0
C836 C 0.50465 0.57469 0.64113 0.0
C837 C 0.48805 0.61581 0.60431 0.0
C838 C 0.52765 0.58168 0.6077 0.0
C839 C 0.53088 0.60511 0.57283 0.0
H840 H 0.85686 0.52301 0.43713 0.0
H841 H 0.82612 0.47731 0.62101 0.0
H842 H 0.86635 0.4774 0.68746 0.0
H843 H 0.91103 0.48956 0.69192 0.0
H844 H 0.94095 0.5355 0.50689 0.0
H845 H 0.90049 0.53636 0.44389 0.0
C846 C 0.85872 0.51341 0.49244 0.0
C847 C 0.83821 0.50018 0.5235 0.0
C848 C 0.882 0.51348 0.53052 0.0
C849 C 0.84146 0.48746 0.59475 0.0
C850 C 0.86454 0.48756 0.63315 0.0
C851 C 0.90868 0.49991 0.63814 0.0
C852 C 0.92932 0.51241 0.60463 0.0
C853 C 0.88508 0.50032 0.6013 0.0
C854 C 0.92568 0.52559 0.53448 0.0
C855 C 0.90242 0.52615 0.49808 0.0
loop_
_geom_bond_atom_site_label_1
_geom_bond_atom_site_label_2
_geom_bond_distance
_geom_bond_site_symmetry_2
_ccdc_geom_bond_type
C0 C1 1.386 . S
C0 C2 1.397 . S
C0 H24 0.931 . S
C1 C0 1.386 . S
C1 C5 1.397 . S
C2 C0 1.397 . S
C2 C3 1.384 . S
C2 H25 0.930 . S
C3 C2 1.384 . S
C3 C4 1.377 . S
C3 C6 1.481 . S
C4 C3 1.377 . S
C4 C5 1.389 . S
C4 H26 0.929 . S
C5 C1 1.397 . S
C5 C4 1.389 . S
C5 H27 0.931 . S
C6 C3 1.481 . S
C6 C7 1.387 . S
C6 C11 1.390 . S
C7 C6 1.387 . S
C7 C8 1.401 . S
C7 H28 0.930 . S
C8 C7 1.401 . S
C8 C9 1.376 . S
C8 C17 1.511 . S
C9 C8 1.376 . S
C9 C10 1.392 . S
C9 H30 0.931 . S
C10 C9 1.392 . S
C10 C11 1.361 . S
C10 C12 1.500 . S
C11 C6 1.390 . S
C11 C10 1.361 . S
C11 H29 0.931 . S
C12 C10 1.500 . S
C12 C13 1.371 . S
C12 C14 1.365 . S
C13 C12 1.371 . S
C13 C23 1.386 . S
C13 H31 0.931 . S
C14 C12 1.365 . S
C14 C15 1.409 . S
C14 H32 0.929 . S
C15 C14 1.409 . S
C15 C16 1.380 . S
C15 H33 0.930 . S
C16 C15 1.380 . S
C16 C23 1.357 . S
C17 C8 1.511 . S
C17 C18 1.341 . S
C17 C19 1.371 . S
C18 C17 1.341 . S
C18 C22 1.394 . S
C18 H34 0.930 . S
C19 C17 1.371 . S
C19 C20 1.392 . S
C19 H35 0.931 . S
C20 C19 1.392 . S
C20 C21 1.331 . S
C20 H38 0.932 . S
C21 C20 1.331 . S
C21 C22 1.336 . S
C22 C18 1.394 . S
C22 C21 1.336 . S
C22 H37 0.929 . S
C23 C13 1.386 . S
C23 C16 1.357 . S
C23 H36 0.928 . S
H24 C0 0.931 . S
H25 C2 0.930 . S
H26 C4 0.929 . S
H27 C5 0.931 . S
H28 C7 0.930 . S
H29 C11 0.931 . S
H30 C9 0.931 . S
H31 C13 0.931 . S
H32 C14 0.929 . S
H33 C15 0.930 . S
H34 C18 0.930 . S
H35 C19 0.931 . S
H36 C23 0.928 . S
H37 C22 0.929 . S
H38 C20 0.932 . S
C39 C40 1.394 . S
C39 C41 1.397 . S
C39 H63 0.931 . S
C40 C39 1.394 . S
C40 C44 1.389 1_655 S
C41 C39 1.397 . S
C41 C42 1.389 . S
C41 H64 0.930 . S
C42 C41 1.389 . S
C42 C43 1.373 1_655 S
C42 C45 1.480 . S
C43 C42 1.373 1_455 S
C43 C44 1.389 . S
C43 H65 0.929 . S
C44 C40 1.389 1_455 S
C44 C43 1.389 . S
C44 H66 0.931 . S
C45 C42 1.480 . S
C45 C46 1.388 . S
C45 C50 1.390 . S
C46 C45 1.388 . S
C46 C47 1.402 . S
C46 H67 0.930 . S
C47 C46 1.402 . S
C47 C48 1.376 . S
C47 C56 1.513 . S
C48 C47 1.376 . S
C48 C49 1.392 . S
C48 H69 0.934 . S
C49 C48 1.392 . S
C49 C50 1.361 . S
C49 C51 1.499 1_655 S
C50 C45 1.390 . S
C50 C49 1.361 . S
C50 H68 0.931 . S
C51 C49 1.499 1_455 S
C51 C52 1.362 1_455 S
C51 C53 1.375 . S
C52 C51 1.362 1_655 S
C52 C62 1.386 . S
C52 H70 0.931 . S
C53 C51 1.375 . S
C53 C54 1.409 . S
C53 H71 0.929 . S
C54 C53 1.409 . S
C54 C55 1.379 . S
C54 H72 0.930 . S
C55 C54 1.379 . S
C55 C62 1.358 1_455 S
C56 C47 1.513 . S
C56 C57 1.341 . S
C56 C58 1.371 1_655 S
C57 C56 1.341 . S
C57 C61 1.394 . S
C57 H73 0.930 . S
C58 C56 1.371 1_455 S
C58 C59 1.392 . S
C58 H74 0.931 . S
C59 C58 1.392 . S
C59 C60 1.322 1_455 S
C59 H77 0.932 . S
C60 C59 1.322 1_655 S
C60 C61 1.345 . S
C61 C57 1.394 . S
C61 C60 1.345 . S
C61 H76 0.929 . S
C62 C52 1.386 . S
C62 C55 1.358 1_655 S
C62 H75 0.928 . S
H63 C39 0.931 . S
H64 C41 0.930 . S
H65 C43 0.929 . S
H66 C44 0.931 . S
H67 C46 0.930 . S
H68 C50 0.931 . S
H69 C48 0.934 . S
H70 C52 0.931 . S
H71 C53 0.929 . S
H72 C54 0.930 . S
H73 C57 0.930 . S
H74 C58 0.931 . S
H75 C62 0.928 . S
H76 C61 0.929 . S
H77 C59 0.932 . S
C78 C79 1.394 . S
C78 C80 1.397 . S
C78 H102 0.931 . S
C79 C78 1.394 . S
C79 C83 1.389 1_565 S
C80 C78 1.397 . S
C80 C81 1.389 . S
C80 H103 0.930 . S
C81 C80 1.389 . S
C81 C82 1.373 1_565 S
C81 C84 1.481 . S
C82 C81 1.373 1_545 S
C82 C83 1.389 . S
C82 H104 0.929 . S
C83 C79 1.389 1_545 S
C83 C82 1.389 . S
C83 H105 0.931 . S
C84 C81 1.481 . S
C84 C85 1.388 . S
C84 C89 1.390 . S
C85 C84 1.388 . S
C85 C86 1.402 . S
C85 H106 0.930 . S
C86 C85 1.402 . S
C86 C87 1.376 . S
C86 C95 1.513 . S
C87 C86 1.376 . S
C87 C88 1.391 . S
C87 H108 0.934 . S
C88 C87 1.391 . S
C88 C89 1.361 . S
C88 C90 1.499 1_565 S
C89 C84 1.390 . S
C89 C88 1.361 . S
C89 H107 0.931 . S
C90 C88 1.499 1_545 S
C90 C91 1.362 1_545 S
C90 C92 1.375 . S
C91 C90 1.362 1_565 S
C91 C101 1.386 . S
C91 H109 0.931 . S
C92 C90 1.375 . S
C92 C93 1.409 . S
C92 H110 0.929 . S
C93 C92 1.409 . S
C93 C94 1.379 . S
C93 H111 0.930 . S
C94 C93 1.379 . S
C94 C101 1.358 1_545 S
C95 C86 1.513 . S
C95 C96 1.341 . S
C95 C97 1.371 1_565 S
C96 C95 1.341 . S
C96 C100 1.394 . S
C96 H112 0.930 . S
C97 C95 1.371 1_545 S
C97 C98 1.392 . S
C97 H113 0.931 . S
C98 C97 1.392 . S
C98 C99 1.322 1_545 S
C98 H116 0.932 . S
C99 C98 1.322 1_565 S
C99 C100 1.345 . S
C100 C96 1.394 . S
C100 C99 1.345 . S
C100 H115 0.929 . S
C101 C91 1.386 . S
C101 C94 1.358 1_565 S
C101 H114 0.928 . S
H102 C78 0.931 . S
H103 C80 0.930 . S
H104 C82 0.929 . S
H105 C83 0.931 . S
H106 C85 0.930 . S
H107 C89 0.931 . S
H108 C87 0.934 . S
H109 C91 0.931 . S
H110 C92 0.929 . S
H111 C93 0.930 . S
H112 C96 0.930 . S
H113 C97 0.931 . S
H114 C101 0.928 . S
H115 C100 0.929 . S
H116 C98 0.932 . S
C117 C118 1.386 . S
C117 C119 1.397 . S
C117 H141 0.931 . S
C118 C117 1.386 . S
C118 C122 1.397 . S
C119 C117 1.397 . S
C119 C120 1.384 . S
C119 H142 0.930 . S
C120 C119 1.384 . S
C120 C121 1.377 . S
C120 C123 1.481 . S
C121 C120 1.377 . S
C121 C122 1.389 . S
C121 H143 0.929 . S
C122 C118 1.397 . S
C122 C121 1.389 . S
C122 H144 0.931 . S
C123 C120 1.481 . S
C123 C124 1.387 . S
C123 C128 1.390 . S
C124 C123 1.387 . S
C124 C125 1.401 . S
C124 H145 0.930 . S
C125 C124 1.401 . S
C125 C126 1.376 . S
C125 C134 1.511 . S
C126 C125 1.376 . S
C126 C127 1.392 . S
C126 H147 0.931 . S
C127 C126 1.392 . S
C127 C128 1.361 . S
C127 C129 1.500 . S
C128 C123 1.390 . S
C128 C127 1.361 . S
C128 H146 0.931 . S
C129 C127 1.500 . S
C129 C130 1.371 . S
C129 C131 1.365 . S
C130 C129 1.371 . S
C130 C140 1.386 . S
C130 H148 0.931 . S
C131 C129 1.365 . S
C131 C132 1.409 . S
C131 H149 0.929 . S
C132 C131 1.409 . S
C132 C133 1.380 . S
C132 H150 0.930 . S
C133 C132 1.380 . S
C133 C140 1.357 . S
C134 C125 1.511 . S
C134 C135 1.341 . S
C134 C136 1.371 . S
C135 C134 1.341 . S
C135 C139 1.394 . S
C135 H151 0.930 . S
C136 C134 1.371 . S
C136 C137 1.392 . S
C136 H152 0.931 . S
C137 C136 1.392 . S
C137 C138 1.331 . S
C137 H155 0.932 . S
C138 C137 1.331 . S
C138 C139 1.336 . S
C139 C135 1.394 . S
C139 C138 1.336 . S
C139 H154 0.929 . S
C140 C130 1.386 . S
C140 C133 1.357 . S
C140 H153 0.928 . S
H141 C117 0.931 . S
H142 C119 0.930 . S
H143 C121 0.929 . S
H144 C122 0.931 . S
H145 C124 0.930 . S
H146 C128 0.931 . S
H147 C126 0.931 . S
H148 C130 0.931 . S
H149 C131 0.929 . S
H150 C132 0.930 . S
H151 C135 0.930 . S
H152 C136 0.931 . S
H153 C140 0.928 . S
H154 C139 0.929 . S
H155 C137 0.932 . S
C156 C157 1.386 . S
C156 C158 1.397 . S
C156 H180 0.931 . S
C157 C156 1.386 . S
C157 C161 1.397 . S
C158 C156 1.397 . S
C158 C159 1.384 . S
C158 H181 0.930 . S
C159 C158 1.384 . S
C159 C160 1.377 . S
C159 C162 1.481 . S
C160 C159 1.377 . S
C160 C161 1.389 . S
C160 H182 0.929 . S
C161 C157 1.397 . S
C161 C160 1.389 . S
C161 H183 0.931 . S
C162 C159 1.481 . S
C162 C163 1.387 . S
C162 C167 1.390 . S
C163 C162 1.387 . S
C163 C164 1.401 . S
C163 H184 0.930 . S
C164 C163 1.401 . S
C164 C165 1.376 1_554 S
C164 C173 1.511 . S
C165 C164 1.376 1_556 S
C165 C166 1.392 . S
C165 H186 0.931 . S
C166 C165 1.392 . S
C166 C167 1.361 1_556 S
C166 C168 1.500 . S
C167 C162 1.390 . S
C167 C166 1.361 1_554 S
C167 H185 0.931 . S
C168 C166 1.500 . S
C168 C169 1.371 . S
C168 C170 1.365 . S
C169 C168 1.371 . S
C169 C179 1.386 . S
C169 H187 0.931 . S
C170 C168 1.365 . S
C170 C171 1.409 . S
C170 H188 0.929 . S
C171 C170 1.409 . S
C171 C172 1.380 . S
C171 H189 0.930 . S
C172 C171 1.380 . S
C172 C179 1.357 . S
C173 C164 1.511 . S
C173 C174 1.341 . S
C173 C175 1.371 . S
C174 C173 1.341 . S
C174 C178 1.394 . S
C174 H190 0.930 . S
C175 C173 1.371 . S
C175 C176 1.392 . S
C175 H191 0.931 1_554 S
C176 C175 1.392 . S
C176 C177 1.331 . S
C176 H194 0.932 . S
C177 C176 1.331 . S
C177 C178 1.336 . S
C178 C174 1.394 . S
C178 C177 1.336 . S
C178 H193 0.929 . S
C179 C169 1.386 . S
C179 C172 1.357 . S
C179 H192 0.928 . S
H180 C156 0.931 . S
H181 C158 0.930 . S
H182 C160 0.929 . S
H183 C161 0.931 . S
H184 C163 0.930 . S
H185 C167 0.931 . S
H186 C165 0.931 . S
H187 C169 0.931 . S
H188 C170 0.929 . S
H189 C171 0.930 . S
H190 C174 0.930 . S
H191 C175 0.931 1_556 S
H192 C179 0.928 . S
H193 C178 0.929 . S
H194 C176 0.932 . S
C195 C196 1.388 . S
C195 C197 1.397 . S
C195 H219 0.931 . S
C196 C195 1.388 . S
C196 C200 1.395 1_655 S
C197 C195 1.397 . S
C197 C198 1.382 . S
C197 H220 0.930 . S
C198 C197 1.382 . S
C198 C199 1.379 1_655 S
C198 C201 1.480 . S
C199 C198 1.379 1_455 S
C199 C200 1.389 . S
C199 H221 0.929 . S
C200 C196 1.395 1_455 S
C200 C199 1.389 . S
C200 H222 0.931 . S
C201 C198 1.480 . S
C201 C202 1.388 . S
C201 C206 1.390 . S
C202 C201 1.388 . S
C202 C203 1.402 . S
C202 H223 0.930 . S
C203 C202 1.402 . S
C203 C204 1.376 1_554 S
C203 C212 1.512 . S
C204 C203 1.376 1_556 S
C204 C205 1.392 1_655 S
C204 H225 0.933 . S
C205 C204 1.392 1_455 S
C205 C206 1.361 1_456 S
C205 C207 1.499 . S
C206 C201 1.390 . S
C206 C205 1.361 1_654 S
C206 H224 0.931 . S
C207 C205 1.499 . S
C207 C208 1.357 1_455 S
C207 C209 1.380 . S
C208 C207 1.357 1_655 S
C208 C218 1.386 . S
C208 H226 0.931 . S
C209 C207 1.380 . S
C209 C210 1.409 . S
C209 H227 0.929 . S
C210 C209 1.409 . S
C210 C211 1.384 . S
C210 H228 0.930 . S
C211 C210 1.384 . S
C211 C218 1.353 1_455 S
C212 C203 1.512 . S
C212 C213 1.341 . S
C212 C214 1.371 1_655 S
C213 C212 1.341 . S
C213 C217 1.394 . S
C213 H229 0.930 . S
C214 C212 1.371 1_455 S
C214 C215 1.392 . S
C214 H230 0.931 1_554 S
C215 C214 1.392 . S
C215 C216 1.325 1_455 S
C215 H233 0.932 . S
C216 C215 1.325 1_655 S
C216 C217 1.342 . S
C217 C213 1.394 . S
C217 C216 1.342 . S
C217 H232 0.929 . S
C218 C208 1.386 . S
C218 C211 1.353 1_655 S
C218 H231 0.928 . S
H219 C195 0.931 . S
H220 C197 0.930 . S
H221 C199 0.929 . S
H222 C200 0.931 . S
H223 C202 0.930 . S
H224 C206 0.931 . S
H225 C204 0.933 . S
H226 C208 0.931 . S
H227 C209 0.929 . S
H228 C210 0.930 . S
H229 C213 0.930 . S
H230 C214 0.931 1_556 S
H231 C218 0.928 . S
H232 C217 0.929 . S
H233 C215 0.932 . S
C234 C235 1.388 . S
C234 C236 1.397 . S
C234 H258 0.931 . S
C235 C234 1.388 . S
C235 C239 1.395 1_565 S
C236 C234 1.397 . S
C236 C237 1.382 . S
C236 H259 0.930 . S
C237 C236 1.382 . S
C237 C238 1.379 1_565 S
C237 C240 1.480 . S
C238 C237 1.379 1_545 S
C238 C239 1.389 . S
C238 H260 0.929 . S
C239 C235 1.395 1_545 S
C239 C238 1.389 . S
C239 H261 0.931 . S
C240 C237 1.480 . S
C240 C241 1.388 . S
C240 C245 1.390 . S
C241 C240 1.388 . S
C241 C242 1.402 . S
C241 H262 0.930 . S
C242 C241 1.402 . S
C242 C243 1.376 1_554 S
C242 C251 1.512 . S
C243 C242 1.376 1_556 S
C243 C244 1.392 1_565 S
C243 H264 0.933 . S
C244 C243 1.392 1_545 S
C244 C245 1.361 1_546 S
C244 C246 1.499 . S
C245 C240 1.390 . S
C245 C244 1.361 1_564 S
C245 H263 0.931 . S
C246 C244 1.499 . S
C246 C247 1.357 1_545 S
C246 C248 1.380 . S
C247 C246 1.357 1_565 S
C247 C257 1.386 . S
C247 H265 0.931 . S
C248 C246 1.380 . S
C248 C249 1.409 . S
C248 H266 0.929 . S
C249 C248 1.409 . S
C249 C250 1.384 . S
C249 H267 0.930 . S
C250 C249 1.384 . S
C250 C257 1.353 1_545 S
C251 C242 1.512 . S
C251 C252 1.341 . S
C251 C253 1.371 1_565 S
C252 C251 1.341 . S
C252 C256 1.394 . S
C252 H268 0.930 . S
C253 C251 1.371 1_545 S
C253 C254 1.392 . S
C253 H269 0.931 1_554 S
C254 C253 1.392 . S
C254 C255 1.325 1_545 S
C254 H272 0.932 . S
C255 C254 1.325 1_565 S
C255 C256 1.342 . S
C256 C252 1.394 . S
C256 C255 1.342 . S
C256 H271 0.929 . S
C257 C247 1.386 . S
C257 C250 1.353 1_565 S
C257 H270 0.928 . S
H258 C234 0.931 . S
H259 C236 0.930 . S
H260 C238 0.929 . S
H261 C239 0.931 . S
H262 C241 0.930 . S
H263 C245 0.931 . S
H264 C243 0.933 . S
H265 C247 0.931 . S
H266 C248 0.929 . S
H267 C249 0.930 . S
H268 C252 0.930 . S
H269 C253 0.931 1_556 S
H270 C257 0.928 . S
H271 C256 0.929 . S
H272 C254 0.932 . S
C273 C274 1.386 . S
C273 C275 1.397 . S
C273 H297 0.931 . S
C274 C273 1.386 . S
C274 C278 1.397 . S
C275 C273 1.397 . S
C275 C276 1.384 . S
C275 H298 0.930 . S
C276 C275 1.384 . S
C276 C277 1.377 . S
C276 C279 1.481 . S
C277 C276 1.377 . S
C277 C278 1.389 . S
C277 H299 0.929 . S
C278 C274 1.397 . S
C278 C277 1.389 . S
C278 H300 0.931 . S
C279 C276 1.481 . S
C279 C280 1.387 . S
C279 C284 1.390 1_556 S
C280 C279 1.387 . S
C280 C281 1.401 1_556 S
C280 H301 0.930 . S
C281 C280 1.401 1_554 S
C281 C282 1.376 . S
C281 C290 1.511 . S
C282 C281 1.376 . S
C282 C283 1.392 . S
C282 H303 0.931 . S
C283 C282 1.392 . S
C283 C284 1.361 . S
C283 C285 1.500 . S
C284 C279 1.390 1_554 S
C284 C283 1.361 . S
C284 H302 0.931 . S
C285 C283 1.500 . S
C285 C286 1.371 . S
C285 C287 1.365 . S
C286 C285 1.371 . S
C286 C296 1.386 . S
C286 H304 0.931 . S
C287 C285 1.365 . S
C287 C288 1.409 . S
C287 H305 0.929 . S
C288 C287 1.409 . S
C288 C289 1.380 . S
C288 H306 0.930 . S
C289 C288 1.380 . S
C289 C296 1.357 . S
C290 C281 1.511 . S
C290 C291 1.341 . S
C290 C292 1.371 . S
C291 C290 1.341 . S
C291 C295 1.394 . S
C291 H307 0.930 1_554 S
C292 C290 1.371 . S
C292 C293 1.392 . S
C292 H308 0.931 . S
C293 C292 1.392 . S
C293 C294 1.331 . S
C293 H311 0.932 . S
C294 C293 1.331 . S
C294 C295 1.336 . S
C295 C291 1.394 . S
C295 C294 1.336 . S
C295 H310 0.929 . S
C296 C286 1.386 . S
C296 C289 1.357 . S
C296 H309 0.928 . S
H297 C273 0.931 . S
H298 C275 0.930 . S
H299 C277 0.929 . S
H300 C278 0.931 . S
H301 C280 0.930 . S
H302 C284 0.931 . S
H303 C282 0.931 . S
H304 C286 0.931 . S
H305 C287 0.929 . S
H306 C288 0.930 . S
H307 C291 0.930 1_556 S
H308 C292 0.931 . S
H309 C296 0.928 . S
H310 C295 0.929 . S
H311 C293 0.932 . S
Tb312 C322 2.825 . S
Tb312 O323 2.347 1_455 S
Tb312 O326 2.366 . S
Tb312 O331 2.418 . S
Tb312 O332 2.384 1_565 S
Tb312 O335 2.479 . S
Tb312 O336 2.471 . S
Eu313 O324 2.418 . S
Eu313 O325 2.384 1_545 S
Eu313 O328 2.479 . S
Eu313 O329 2.471 . S
Eu313 O330 2.347 1_655 S
Eu313 O333 2.366 . S
Eu313 C343 2.825 . S
C314 O330 1.259 1_565 S
C314 O331 1.265 . S
C315 O332 1.255 . S
C315 O333 1.265 1_455 S
C316 C318 1.380 . S
C316 C319 1.374 . S
C316 C322 1.507 . S
C317 C318 1.384 . S
C317 C321 1.387 . S
C317 H344 0.930 . S
C318 C316 1.380 . S
C318 C317 1.384 . S
C318 H345 0.931 . S
C319 C316 1.374 . S
C319 C320 1.390 . S
C319 H346 0.930 1_455 S
C320 C319 1.390 . S
C320 C321 1.391 . S
C320 H347 0.930 1_455 S
C321 C317 1.387 . S
C321 C320 1.391 . S
C322 Tb312 2.825 . S
C322 C316 1.507 . S
C322 O335 1.238 . S
C322 O336 1.247 . S
O323 Tb312 2.347 1_655 S
O323 C327 1.259 1_565 S
O324 Eu313 2.418 . S
O324 C327 1.265 . S
O325 Eu313 2.384 1_565 S
O325 C334 1.255 . S
O326 Tb312 2.366 . S
O326 C334 1.265 1_455 S
C327 O323 1.259 1_545 S
C327 O324 1.265 . S
O328 Eu313 2.479 . S
O328 C343 1.238 . S
O329 Eu313 2.471 . S
O329 C343 1.247 . S
O330 Eu313 2.347 1_455 S
O330 C314 1.259 1_545 S
O331 Tb312 2.418 . S
O331 C314 1.265 . S
O332 Tb312 2.384 1_545 S
O332 C315 1.255 . S
O333 Eu313 2.366 . S
O333 C315 1.265 1_655 S
C334 O325 1.255 . S
C334 O326 1.265 1_655 S
O335 Tb312 2.479 . S
O335 C322 1.238 . S
O336 Tb312 2.471 . S
O336 C322 1.247 . S
C337 C340 1.380 . S
C337 C341 1.374 . S
C337 C343 1.507 . S
C338 C339 1.387 . S
C338 C342 1.391 . S
C339 C338 1.387 . S
C339 C340 1.384 . S
C339 H348 0.930 . S
C340 C337 1.380 . S
C340 C339 1.384 . S
C340 H349 0.931 . S
C341 C337 1.374 . S
C341 C342 1.390 . S
C341 H350 0.930 1_655 S
C342 C338 1.391 . S
C342 C341 1.390 . S
C342 H351 0.930 1_655 S
C343 Eu313 2.825 . S
C343 O328 1.238 . S
C343 O329 1.247 . S
C343 C337 1.507 . S
H344 C317 0.930 . S
H345 C318 0.931 . S
H346 C319 0.930 1_655 S
H347 C320 0.930 1_655 S
H348 C339 0.930 . S
H349 C340 0.931 . S
H350 C341 0.930 1_455 S
H351 C342 0.930 1_455 S
Tb352 C362 2.825 . S
Tb352 O363 2.347 1_545 S
Tb352 O366 2.366 . S
Tb352 O371 2.418 . S
Tb352 O372 2.384 . S
Tb352 O375 2.479 . S
Tb352 O376 2.471 . S
Eu353 O364 2.418 . S
Eu353 O365 2.384 . S
Eu353 O368 2.479 . S
Eu353 O369 2.471 . S
Eu353 O370 2.347 1_565 S
Eu353 O373 2.366 . S
Eu353 C383 2.825 . S
C354 O370 1.259 . S
C354 O371 1.265 . S
C355 O372 1.255 . S
C355 O373 1.265 1_545 S
C356 C358 1.380 . S
C356 C359 1.374 . S
C356 C362 1.507 . S
C357 C358 1.384 . S
C357 C361 1.387 . S
C357 H384 0.930 . S
C358 C356 1.380 . S
C358 C357 1.384 . S
C358 H385 0.931 . S
C359 C356 1.374 . S
C359 C360 1.390 . S
C359 H386 0.930 1_545 S
C360 C359 1.390 . S
C360 C361 1.391 . S
C360 H387 0.930 1_545 S
C361 C357 1.387 . S
C361 C360 1.391 . S
C362 Tb352 2.825 . S
C362 C356 1.507 . S
C362 O375 1.238 . S
C362 O376 1.247 . S
O363 Tb352 2.347 1_565 S
O363 C367 1.259 . S
O364 Eu353 2.418 . S
O364 C367 1.265 . S
O365 Eu353 2.384 . S
O365 C374 1.255 . S
O366 Tb352 2.366 . S
O366 C374 1.265 1_545 S
C367 O363 1.259 . S
C367 O364 1.265 . S
O368 Eu353 2.479 . S
O368 C383 1.238 . S
O369 Eu353 2.471 . S
O369 C383 1.247 . S
O370 Eu353 2.347 1_545 S
O370 C354 1.259 . S
O371 Tb352 2.418 . S
O371 C354 1.265 . S
O372 Tb352 2.384 . S
O372 C355 1.255 . S
O373 Eu353 2.366 . S
O373 C355 1.265 1_565 S
C374 O365 1.255 . S
C374 O366 1.265 1_565 S
O375 Tb352 2.479 . S
O375 C362 1.238 . S
O376 Tb352 2.471 . S
O376 C362 1.247 . S
C377 C380 1.380 . S
C377 C381 1.374 . S
C377 C383 1.507 . S
C378 C379 1.387 . S
C378 C382 1.391 . S
C379 C378 1.387 . S
C379 C380 1.384 . S
C379 H388 0.930 . S
C380 C377 1.380 . S
C380 C379 1.384 . S
C380 H389 0.931 . S
C381 C377 1.374 . S
C381 C382 1.390 . S
C381 H390 0.930 1_565 S
C382 C378 1.391 . S
C382 C381 1.390 . S
C382 H391 0.930 1_565 S
C383 Eu353 2.825 . S
C383 O368 1.238 . S
C383 O369 1.247 . S
C383 C377 1.507 . S
H384 C357 0.930 . S
H385 C358 0.931 . S
H386 C359 0.930 1_565 S
H387 C360 0.930 1_565 S
H388 C379 0.930 . S
H389 C380 0.931 . S
H390 C381 0.930 1_545 S
H391 C382 0.930 1_545 S
Tb392 C402 2.825 . S
Tb392 O403 2.347 . S
Tb392 O406 2.366 . S
Tb392 O411 2.418 . S
Tb392 O412 2.384 . S
Tb392 O415 2.479 . S
Tb392 O416 2.471 . S
Eu393 O404 2.418 . S
Eu393 O405 2.384 . S
Eu393 O408 2.479 . S
Eu393 O409 2.471 . S
Eu393 O410 2.347 . S
Eu393 O413 2.366 . S
Eu393 C423 2.825 . S
C394 O410 1.259 . S
C394 O411 1.265 . S
C395 O412 1.255 . S
C395 O413 1.265 . S
C396 C398 1.380 . S
C396 C399 1.374 . S
C396 C402 1.507 . S
C397 C398 1.384 . S
C397 C401 1.387 . S
C397 H424 0.930 . S
C398 C396 1.380 . S
C398 C397 1.384 . S
C398 H425 0.931 . S
C399 C396 1.374 . S
C399 C400 1.390 . S
C399 H426 0.930 . S
C400 C399 1.390 . S
C400 C401 1.391 . S
C400 H427 0.930 . S
C401 C397 1.387 . S
C401 C400 1.391 . S
C402 Tb392 2.825 . S
C402 C396 1.507 . S
C402 O415 1.238 . S
C402 O416 1.247 . S
O403 Tb392 2.347 . S
O403 C407 1.259 . S
O404 Eu393 2.418 . S
O404 C407 1.265 . S
O405 Eu393 2.384 . S
O405 C414 1.255 . S
O406 Tb392 2.366 . S
O406 C414 1.265 . S
C407 O403 1.259 . S
C407 O404 1.265 . S
O408 Eu393 2.479 . S
O408 C423 1.238 . S
O409 Eu393 2.471 . S
O409 C423 1.247 . S
O410 Eu393 2.347 . S
O410 C394 1.259 . S
O411 Tb392 2.418 . S
O411 C394 1.265 . S
O412 Tb392 2.384 . S
O412 C395 1.255 . S
O413 Eu393 2.366 . S
O413 C395 1.265 . S
C414 O405 1.255 . S
C414 O406 1.265 . S
O415 Tb392 2.479 . S
O415 C402 1.238 . S
O416 Tb392 2.471 . S
O416 C402 1.247 . S
C417 C420 1.380 . S
C417 C421 1.374 . S
C417 C423 1.507 . S
C418 C419 1.387 . S
C418 C422 1.391 . S
C419 C418 1.387 . S
C419 C420 1.384 . S
C419 H428 0.930 . S
C420 C417 1.380 . S
C420 C419 1.384 . S
C420 H429 0.931 . S
C421 C417 1.374 . S
C421 C422 1.390 . S
C421 H430 0.930 . S
C422 C418 1.391 . S
C422 C421 1.390 . S
C422 H431 0.930 . S
C423 Eu393 2.825 . S
C423 O408 1.238 . S
C423 O409 1.247 . S
C423 C417 1.507 . S
H424 C397 0.930 . S
H425 C398 0.931 . S
H426 C399 0.930 . S
H427 C400 0.930 . S
H428 C419 0.930 . S
H429 C420 0.931 . S
H430 C421 0.930 . S
H431 C422 0.930 . S
Tb432 C442 2.825 . S
Tb432 O443 2.347 . S
Tb432 O446 2.366 . S
Tb432 O451 2.418 . S
Tb432 O452 2.384 1_655 S
Tb432 O455 2.479 . S
Tb432 O456 2.471 . S
Eu433 O444 2.418 . S
Eu433 O445 2.384 1_455 S
Eu433 O448 2.479 . S
Eu433 O449 2.471 . S
Eu433 O450 2.347 . S
Eu433 O453 2.366 . S
Eu433 C463 2.825 . S
C434 O450 1.259 1_655 S
C434 O451 1.265 . S
C435 O452 1.255 . S
C435 O453 1.265 . S
C436 C438 1.380 . S
C436 C439 1.374 . S
C436 C442 1.507 . S
C437 C438 1.384 . S
C437 C441 1.387 . S
C437 H464 0.930 . S
C438 C436 1.380 . S
C438 C437 1.384 . S
C438 H465 0.931 . S
C439 C436 1.374 . S
C439 C440 1.390 . S
C439 H466 0.930 . S
C440 C439 1.390 . S
C440 C441 1.391 . S
C440 H467 0.930 . S
C441 C437 1.387 . S
C441 C440 1.391 . S
C442 Tb432 2.825 . S
C442 C436 1.507 . S
C442 O455 1.238 . S
C442 O456 1.247 . S
O443 Tb432 2.347 . S
O443 C447 1.259 1_655 S
O444 Eu433 2.418 . S
O444 C447 1.265 . S
O445 Eu433 2.384 1_655 S
O445 C454 1.255 . S
O446 Tb432 2.366 . S
O446 C454 1.265 . S
C447 O443 1.259 1_455 S
C447 O444 1.265 . S
O448 Eu433 2.479 . S
O448 C463 1.238 . S
O449 Eu433 2.471 . S
O449 C463 1.247 . S
O450 Eu433 2.347 . S
O450 C434 1.259 1_455 S
O451 Tb432 2.418 . S
O451 C434 1.265 . S
O452 Tb432 2.384 1_455 S
O452 C435 1.255 . S
O453 Eu433 2.366 . S
O453 C435 1.265 . S
C454 O445 1.255 . S
C454 O446 1.265 . S
O455 Tb432 2.479 . S
O455 C442 1.238 . S
O456 Tb432 2.471 . S
O456 C442 1.247 . S
C457 C460 1.380 . S
C457 C461 1.374 . S
C457 C463 1.507 . S
C458 C459 1.387 . S
C458 C462 1.391 . S
C459 C458 1.387 . S
C459 C460 1.384 . S
C459 H468 0.930 . S
C460 C457 1.380 . S
C460 C459 1.384 . S
C460 H469 0.931 . S
C461 C457 1.374 . S
C461 C462 1.390 . S
C461 H470 0.930 . S
C462 C458 1.391 . S
C462 C461 1.390 . S
C462 H471 0.930 . S
C463 Eu433 2.825 . S
C463 O448 1.238 . S
C463 O449 1.247 . S
C463 C457 1.507 . S
H464 C437 0.930 . S
H465 C438 0.931 . S
H466 C439 0.930 . S
H467 C440 0.930 . S
H468 C459 0.930 . S
H469 C460 0.931 . S
H470 C461 0.930 . S
H471 C462 0.930 . S
H472 C478 0.930 . S
H473 C481 0.930 . S
H474 C482 0.930 . S
H475 C483 0.930 . S
H476 C486 0.930 . S
H477 C487 0.930 . S
C478 H472 0.930 . S
C478 C479 1.356 . S
C478 C480 1.417 . S
C479 C478 1.356 . S
C479 C481 1.418 1_565 S
C480 C478 1.417 . S
C480 C485 1.423 1_565 S
C480 C487 1.410 . S
C481 H473 0.930 . S
C481 C479 1.418 1_545 S
C481 C482 1.362 . S
C482 H474 0.930 . S
C482 C481 1.362 . S
C482 C485 1.409 . S
C483 H475 0.930 . S
C483 C484 1.358 . S
C483 C485 1.415 . S
C484 C483 1.358 . S
C484 C486 1.416 1_545 S
C485 C480 1.423 1_545 S
C485 C482 1.409 . S
C485 C483 1.415 . S
C486 H476 0.930 . S
C486 C484 1.416 1_565 S
C486 C487 1.362 . S
C487 H477 0.930 . S
C487 C480 1.410 . S
C487 C486 1.362 . S
H488 C494 0.930 . S
H489 C497 0.930 . S
H490 C498 0.930 . S
H491 C499 0.930 . S
H492 C502 0.930 . S
H493 C503 0.930 . S
C494 H488 0.930 . S
C494 C495 1.355 . S
C494 C496 1.415 . S
C495 C494 1.355 . S
C495 C497 1.419 . S
C496 C494 1.415 . S
C496 C501 1.425 . S
C496 C503 1.409 . S
C497 H489 0.930 . S
C497 C495 1.419 . S
C497 C498 1.362 . S
C498 H490 0.930 . S
C498 C497 1.362 . S
C498 C501 1.409 . S
C499 H491 0.930 . S
C499 C500 1.355 . S
C499 C501 1.415 . S
C500 C499 1.355 . S
C500 C502 1.419 . S
C501 C496 1.425 . S
C501 C498 1.409 . S
C501 C499 1.415 . S
C502 H492 0.930 . S
C502 C500 1.419 . S
C502 C503 1.362 . S
C503 H493 0.930 . S
C503 C496 1.409 . S
C503 C502 1.362 . S
H504 C510 0.930 . S
H505 C513 0.930 . S
H506 C514 0.930 . S
H507 C515 0.930 . S
H508 C518 0.930 . S
H509 C519 0.930 . S
C510 H504 0.930 . S
C510 C511 1.355 . S
C510 C512 1.415 . S
C511 C510 1.355 . S
C511 C513 1.419 . S
C512 C510 1.415 . S
C512 C517 1.425 . S
C512 C519 1.409 . S
C513 H505 0.930 . S
C513 C511 1.419 . S
C513 C514 1.362 . S
C514 H506 0.930 . S
C514 C513 1.362 . S
C514 C517 1.409 . S
C515 H507 0.930 . S
C515 C516 1.355 . S
C515 C517 1.415 . S
C516 C515 1.355 . S
C516 C518 1.419 . S
C517 C512 1.425 . S
C517 C514 1.409 . S
C517 C515 1.415 . S
C518 H508 0.930 . S
C518 C516 1.419 . S
C518 C519 1.362 . S
C519 H509 0.930 . S
C519 C512 1.409 . S
C519 C518 1.362 . S
H520 C526 0.930 . S
H521 C529 0.930 . S
H522 C530 0.930 . S
H523 C531 0.930 . S
H524 C534 0.930 . S
H525 C535 0.930 . S
C526 H520 0.930 . S
C526 C527 1.355 1_655 S
C526 C528 1.415 . S
C527 C526 1.355 1_455 S
C527 C529 1.419 . S
C528 C526 1.415 . S
C528 C533 1.425 1_655 S
C528 C535 1.409 . S
C529 H521 0.930 . S
C529 C527 1.419 . S
C529 C530 1.362 . S
C530 H522 0.930 . S
C530 C529 1.362 . S
C530 C533 1.409 . S
C531 H523 0.930 . S
C531 C532 1.352 1_455 S
C531 C533 1.415 . S
C532 C531 1.352 1_655 S
C532 C534 1.423 . S
C533 C528 1.425 1_455 S
C533 C530 1.409 . S
C533 C531 1.415 . S
C534 H524 0.930 . S
C534 C532 1.423 . S
C534 C535 1.362 . S
C535 H525 0.930 . S
C535 C528 1.409 . S
C535 C534 1.362 . S
H536 C542 0.930 . S
H537 C545 0.930 . S
H538 C546 0.930 . S
H539 C547 0.930 . S
H540 C550 0.930 . S
H541 C551 0.930 . S
C542 H536 0.930 . S
C542 C543 1.355 1_565 S
C542 C544 1.415 . S
C543 C542 1.355 1_545 S
C543 C545 1.419 . S
C544 C542 1.415 . S
C544 C549 1.425 1_565 S
C544 C551 1.409 . S
C545 H537 0.930 . S
C545 C543 1.419 . S
C545 C546 1.362 . S
C546 H538 0.930 . S
C546 C545 1.362 . S
C546 C549 1.409 . S
C547 H539 0.930 . S
C547 C548 1.355 1_545 S
C547 C549 1.415 1_556 S
C548 C547 1.355 1_565 S
C548 C550 1.419 . S
C549 C544 1.425 1_545 S
C549 C546 1.409 . S
C549 C547 1.415 1_554 S
C550 H540 0.930 . S
C550 C548 1.419 . S
C550 C551 1.362 1_556 S
C551 H541 0.930 . S
C551 C544 1.409 . S
C551 C550 1.362 1_554 S
H552 C558 0.930 . S
H553 C561 0.930 . S
H554 C562 0.930 . S
H555 C563 0.930 . S
H556 C566 0.930 . S
H557 C567 0.930 . S
C558 H552 0.930 . S
C558 C559 1.355 . S
C558 C560 1.415 . S
C559 C558 1.355 . S
C559 C561 1.419 . S
C560 C558 1.415 . S
C560 C565 1.425 . S
C560 C567 1.409 . S
C561 H553 0.930 . S
C561 C559 1.419 . S
C561 C562 1.362 . S
C562 H554 0.930 . S
C562 C561 1.362 . S
C562 C565 1.409 . S
C563 H555 0.930 . S
C563 C564 1.355 . S
C563 C565 1.415 1_556 S
C564 C563 1.355 . S
C564 C566 1.419 . S
C565 C560 1.425 . S
C565 C562 1.409 . S
C565 C563 1.415 1_554 S
C566 H556 0.930 . S
C566 C564 1.419 . S
C566 C567 1.362 1_556 S
C567 H557 0.930 . S
C567 C560 1.409 . S
C567 C566 1.362 1_554 S
H568 C574 0.930 . S
H569 C577 0.930 . S
H570 C578 0.930 . S
H571 C579 0.930 . S
H572 C582 0.930 . S
H573 C583 0.930 . S
C574 H568 0.930 . S
C574 C575 1.355 . S
C574 C576 1.415 . S
C575 C574 1.355 . S
C575 C577 1.419 . S
C576 C574 1.415 . S
C576 C581 1.425 . S
C576 C583 1.409 . S
C577 H569 0.930 . S
C577 C575 1.419 . S
C577 C578 1.362 . S
C578 H570 0.930 . S
C578 C577 1.362 . S
C578 C581 1.409 . S
C579 H571 0.930 . S
C579 C580 1.355 . S
C579 C581 1.415 1_556 S
C580 C579 1.355 . S
C580 C582 1.419 . S
C581 C576 1.425 . S
C581 C578 1.409 . S
C581 C579 1.415 1_554 S
C582 H572 0.930 . S
C582 C580 1.419 . S
C582 C583 1.362 1_556 S
C583 H573 0.930 . S
C583 C576 1.409 . S
C583 C582 1.362 1_554 S
H584 C590 0.930 . S
H585 C593 0.930 . S
H586 C594 0.930 . S
H587 C595 0.930 . S
H588 C598 0.930 . S
H589 C599 0.930 . S
C590 H584 0.930 . S
C590 C591 1.354 1_455 S
C590 C592 1.415 . S
C591 C590 1.354 1_655 S
C591 C593 1.420 . S
C592 C590 1.415 . S
C592 C597 1.425 1_455 S
C592 C599 1.409 . S
C593 H585 0.930 . S
C593 C591 1.420 . S
C593 C594 1.362 . S
C594 H586 0.930 . S
C594 C593 1.362 . S
C594 C597 1.409 . S
C595 H587 0.930 . S
C595 C596 1.355 . S
C595 C597 1.415 1_556 S
C596 C595 1.355 . S
C596 C598 1.419 1_655 S
C597 C592 1.425 1_655 S
C597 C594 1.409 . S
C597 C595 1.415 1_554 S
C598 H588 0.930 . S
C598 C596 1.419 1_455 S
C598 C599 1.362 1_556 S
C599 H589 0.930 . S
C599 C592 1.409 . S
C599 C598 1.362 1_554 S
H600 C606 0.930 . S
H601 C609 0.930 . S
H602 C610 0.930 . S
H603 C611 0.930 . S
H604 C614 0.930 . S
H605 C615 0.930 . S
C606 H600 0.930 . S
C606 C607 1.361 . S
C606 C608 1.415 1_455 S
C607 C606 1.361 . S
C607 C609 1.404 1_455 S
C608 C606 1.415 1_655 S
C608 C613 1.425 . S
C608 C615 1.409 1_655 S
C609 H601 0.930 . S
C609 C607 1.404 1_655 S
C609 C610 1.362 . S
C610 H602 0.930 . S
C610 C609 1.362 . S
C610 C613 1.409 . S
C611 H603 0.930 . S
C611 C612 1.355 . S
C611 C613 1.415 . S
C612 C611 1.355 . S
C612 C614 1.419 . S
C613 C608 1.425 . S
C613 C610 1.409 . S
C613 C611 1.415 . S
C614 H604 0.930 . S
C614 C612 1.419 . S
C614 C615 1.362 1_655 S
C615 H605 0.930 . S
C615 C608 1.409 1_455 S
C615 C614 1.362 1_455 S
H616 C622 0.930 . S
H617 C625 0.930 . S
H618 C626 0.930 . S
H619 C627 0.930 . S
H620 C630 0.930 . S
H621 C631 0.930 1_545 S
C622 H616 0.930 . S
C622 C623 1.358 . S
C622 C624 1.415 1_545 S
C623 C622 1.358 . S
C623 C625 1.402 1_545 S
C624 C622 1.415 1_565 S
C624 C629 1.425 . S
C624 C631 1.409 . S
C625 H617 0.930 . S
C625 C623 1.402 1_565 S
C625 C626 1.362 . S
C626 H618 0.930 . S
C626 C625 1.362 . S
C626 C629 1.409 . S
C627 H619 0.930 . S
C627 C628 1.355 . S
C627 C629 1.415 . S
C628 C627 1.355 . S
C628 C630 1.419 . S
C629 C624 1.425 . S
C629 C626 1.409 . S
C629 C627 1.415 . S
C630 H620 0.930 . S
C630 C628 1.419 . S
C630 C631 1.362 . S
C631 H621 0.930 1_565 S
C631 C624 1.409 . S
C631 C630 1.362 . S
H632 C638 0.930 . S
H633 C641 0.930 . S
H634 C642 0.930 . S
H635 C643 0.930 . S
H636 C646 0.930 . S
H637 C647 0.930 . S
C638 H632 0.930 . S
C638 C639 1.355 . S
C638 C640 1.415 . S
C639 C638 1.355 . S
C639 C641 1.419 . S
C640 C638 1.415 . S
C640 C645 1.425 . S
C640 C647 1.409 . S
C641 H633 0.930 . S
C641 C639 1.419 . S
C641 C642 1.362 . S
C642 H634 0.930 . S
C642 C641 1.362 . S
C642 C645 1.409 . S
C643 H635 0.930 . S
C643 C644 1.355 . S
C643 C645 1.415 . S
C644 C643 1.355 . S
C644 C646 1.419 . S
C645 C640 1.425 . S
C645 C642 1.409 . S
C645 C643 1.415 . S
C646 H636 0.930 . S
C646 C644 1.419 . S
C646 C647 1.362 . S
C647 H637 0.930 . S
C647 C640 1.409 . S
C647 C646 1.362 . S
H648 C654 0.930 . S
H649 C657 0.930 . S
H650 C658 0.930 . S
H651 C659 0.930 . S
H652 C662 0.930 . S
H653 C663 0.930 . S
C654 H648 0.930 . S
C654 C655 1.355 . S
C654 C656 1.415 . S
C655 C654 1.355 . S
C655 C657 1.419 . S
C656 C654 1.415 . S
C656 C661 1.425 . S
C656 C663 1.409 . S
C657 H649 0.930 . S
C657 C655 1.419 . S
C657 C658 1.362 . S
C658 H650 0.930 . S
C658 C657 1.362 . S
C658 C661 1.409 . S
C659 H651 0.930 . S
C659 C660 1.355 . S
C659 C661 1.415 . S
C660 C659 1.355 . S
C660 C662 1.419 . S
C661 C656 1.425 . S
C661 C658 1.409 . S
C661 C659 1.415 . S
C662 H652 0.930 . S
C662 C660 1.419 . S
C662 C663 1.362 . S
C663 H653 0.930 . S
C663 C656 1.409 . S
C663 C662 1.362 . S
H664 C670 0.930 . S
H665 C673 0.930 . S
H666 C674 0.930 1_556 S
H667 C675 0.930 . S
H668 C678 0.930 . S
H669 C679 0.930 1_655 S
C670 H664 0.930 . S
C670 C671 1.355 . S
C670 C672 1.415 1_655 S
C671 C670 1.355 . S
C671 C673 1.419 1_655 S
C672 C670 1.415 1_455 S
C672 C677 1.425 . S
C672 C679 1.409 . S
C673 H665 0.930 . S
C673 C671 1.419 1_455 S
C673 C674 1.362 . S
C674 H666 0.930 1_554 S
C674 C673 1.362 . S
C674 C677 1.409 . S
C675 H667 0.930 . S
C675 C676 1.355 1_556 S
C675 C677 1.415 1_556 S
C676 C675 1.355 1_554 S
C676 C678 1.419 . S
C677 C672 1.425 . S
C677 C674 1.409 . S
C677 C675 1.415 1_554 S
C678 H668 0.930 . S
C678 C676 1.419 . S
C678 C679 1.362 . S
C679 H669 0.930 1_455 S
C679 C672 1.409 . S
C679 C678 1.362 . S
H680 C686 0.930 . S
H681 C689 0.930 . S
H682 C690 0.930 . S
H683 C691 0.930 . S
H684 C694 0.930 . S
H685 C695 0.954 . S
C686 H680 0.930 . S
C686 C687 1.355 . S
C686 C688 1.415 1_565 S
C687 C686 1.355 . S
C687 C689 1.419 1_565 S
C688 C686 1.415 1_545 S
C688 C693 1.425 . S
C688 C695 1.401 1_544 S
C689 H681 0.930 . S
C689 C687 1.419 1_545 S
C689 C690 1.362 . S
C690 H682 0.930 . S
C690 C689 1.362 . S
C690 C693 1.409 . S
C691 H683 0.930 . S
C691 C692 1.355 1_554 S
C691 C693 1.415 . S
C692 C691 1.355 1_556 S
C692 C694 1.419 . S
C693 C688 1.425 . S
C693 C690 1.409 . S
C693 C691 1.415 . S
C694 H684 0.930 . S
C694 C692 1.419 . S
C694 C695 1.347 1_545 S
C695 H685 0.954 . S
C695 C688 1.401 1_566 S
C695 C694 1.347 1_565 S
H696 C702 0.930 . S
H697 C705 0.930 . S
H698 C706 0.930 . S
H699 C707 0.930 . S
H700 C710 0.930 . S
H701 C711 0.930 . S
C702 H696 0.930 . S
C702 C703 1.355 . S
C702 C704 1.415 . S
C703 C702 1.355 . S
C703 C705 1.419 . S
C704 C702 1.415 . S
C704 C709 1.425 . S
C704 C711 1.409 1_554 S
C705 H697 0.930 . S
C705 C703 1.419 . S
C705 C706 1.362 . S
C706 H698 0.930 . S
C706 C705 1.362 . S
C706 C709 1.409 . S
C707 H699 0.930 . S
C707 C708 1.355 1_554 S
C707 C709 1.415 . S
C708 C707 1.355 1_556 S
C708 C710 1.419 . S
C709 C704 1.425 . S
C709 C706 1.409 . S
C709 C707 1.415 . S
C710 H700 0.930 . S
C710 C708 1.419 . S
C710 C711 1.362 . S
C711 H701 0.930 . S
C711 C704 1.409 1_556 S
C711 C710 1.362 . S
H712 C718 0.930 . S
H713 C721 0.930 . S
H714 C722 0.930 . S
H715 C723 0.930 . S
H716 C726 0.930 1_556 S
H717 C727 0.930 . S
C718 H712 0.930 . S
C718 C719 1.355 . S
C718 C720 1.415 . S
C719 C718 1.355 . S
C719 C721 1.419 . S
C720 C718 1.415 . S
C720 C725 1.425 . S
C720 C727 1.409 . S
C721 H713 0.930 . S
C721 C719 1.419 . S
C721 C722 1.362 . S
C722 H714 0.930 . S
C722 C721 1.362 . S
C722 C725 1.409 . S
C723 H715 0.930 . S
C723 C724 1.355 1_554 S
C723 C725 1.415 . S
C724 C723 1.355 1_556 S
C724 C726 1.419 1_556 S
C725 C720 1.425 . S
C725 C722 1.409 . S
C725 C723 1.415 . S
C726 H716 0.930 1_554 S
C726 C724 1.419 1_554 S
C726 C727 1.362 . S
C727 H717 0.930 . S
C727 C720 1.409 . S
C727 C726 1.362 . S
H728 C734 0.930 . S
H729 C737 0.930 . S
H730 C738 0.930 . S
H731 C739 0.930 . S
H732 C742 0.930 . S
H733 C743 0.930 . S
C734 H728 0.930 . S
C734 C735 1.373 . S
C734 C736 1.415 . S
C735 C734 1.373 . S
C735 C737 1.398 1_455 S
C736 C734 1.415 . S
C736 C741 1.425 1_455 S
C736 C743 1.409 . S
C737 H729 0.930 . S
C737 C735 1.398 1_655 S
C737 C738 1.362 . S
C738 H730 0.930 . S
C738 C737 1.362 . S
C738 C741 1.409 . S
C739 H731 0.930 . S
C739 C740 1.355 1_655 S
C739 C741 1.415 . S
C740 C739 1.355 1_455 S
C740 C742 1.419 . S
C741 C736 1.425 1_655 S
C741 C738 1.409 . S
C741 C739 1.415 . S
C742 H732 0.930 . S
C742 C740 1.419 . S
C742 C743 1.362 . S
C743 H733 0.930 . S
C743 C736 1.409 . S
C743 C742 1.362 . S
H744 C750 0.930 . S
H745 C753 0.930 . S
H746 C754 0.930 . S
H747 C755 0.930 . S
H748 C758 0.930 . S
H749 C759 0.930 . S
C750 H744 0.930 . S
C750 C751 1.355 1_565 S
C750 C752 1.415 . S
C751 C750 1.355 1_545 S
C751 C753 1.419 . S
C752 C750 1.415 . S
C752 C757 1.425 1_565 S
C752 C759 1.409 . S
C753 H745 0.930 . S
C753 C751 1.419 . S
C753 C754 1.362 . S
C754 H746 0.930 . S
C754 C753 1.362 . S
C754 C757 1.409 . S
C755 H747 0.930 . S
C755 C756 1.355 . S
C755 C757 1.415 . S
C756 C755 1.355 . S
C756 C758 1.419 1_545 S
C757 C752 1.425 1_545 S
C757 C754 1.409 . S
C757 C755 1.415 . S
C758 H748 0.930 . S
C758 C756 1.419 1_565 S
C758 C759 1.362 . S
C759 H749 0.930 . S
C759 C752 1.409 . S
C759 C758 1.362 . S
H760 C766 0.930 . S
H761 C769 0.930 . S
H762 C770 0.930 . S
H763 C771 0.930 . S
H764 C774 0.930 . S
H765 C775 0.930 . S
C766 H760 0.930 . S
C766 C767 1.355 . S
C766 C768 1.415 . S
C767 C766 1.355 . S
C767 C769 1.419 . S
C768 C766 1.415 . S
C768 C773 1.425 . S
C768 C775 1.409 . S
C769 H761 0.930 . S
C769 C767 1.419 . S
C769 C770 1.362 . S
C770 H762 0.930 . S
C770 C769 1.362 . S
C770 C773 1.409 . S
C771 H763 0.930 . S
C771 C772 1.355 . S
C771 C773 1.415 . S
C772 C771 1.355 . S
C772 C774 1.419 . S
C773 C768 1.425 . S
C773 C770 1.409 . S
C773 C771 1.415 . S
C774 H764 0.930 . S
C774 C772 1.419 . S
C774 C775 1.362 . S
C775 H765 0.930 . S
C775 C768 1.409 . S
C775 C774 1.362 . S
H776 C782 0.930 . S
H777 C785 0.930 . S
H778 C786 0.930 . S
H779 C787 0.930 . S
H780 C790 0.930 . S
H781 C791 0.930 . S
C782 H776 0.930 . S
C782 C783 1.355 . S
C782 C784 1.415 . S
C783 C782 1.355 . S
C783 C785 1.419 . S
C784 C782 1.415 . S
C784 C789 1.425 . S
C784 C791 1.409 . S
C785 H777 0.930 . S
C785 C783 1.419 . S
C785 C786 1.362 . S
C786 H778 0.930 . S
C786 C785 1.362 . S
C786 C789 1.409 . S
C787 H779 0.930 . S
C787 C788 1.355 . S
C787 C789 1.415 . S
C788 C787 1.355 . S
C788 C790 1.419 . S
C789 C784 1.425 . S
C789 C786 1.409 . S
C789 C787 1.415 . S
C790 H780 0.930 . S
C790 C788 1.419 . S
C790 C791 1.362 . S
C791 H781 0.930 . S
C791 C784 1.409 . S
C791 C790 1.362 . S
H792 C798 0.930 . S
H793 C801 0.930 . S
H794 C802 0.930 . S
H795 C803 0.930 . S
H796 C806 0.930 . S
H797 C807 0.930 . S
C798 H792 0.930 . S
C798 C799 1.355 1_455 S
C798 C800 1.415 . S
C799 C798 1.355 1_655 S
C799 C801 1.419 . S
C800 C798 1.415 . S
C800 C805 1.425 1_455 S
C800 C807 1.409 . S
C801 H793 0.930 . S
C801 C799 1.419 . S
C801 C802 1.362 . S
C802 H794 0.930 . S
C802 C801 1.362 . S
C802 C805 1.409 . S
C803 H795 0.930 . S
C803 C804 1.355 . S
C803 C805 1.415 . S
C804 C803 1.355 . S
C804 C806 1.419 1_655 S
C805 C800 1.425 1_655 S
C805 C802 1.409 . S
C805 C803 1.415 . S
C806 H796 0.930 . S
C806 C804 1.419 1_455 S
C806 C807 1.362 . S
C807 H797 0.930 . S
C807 C800 1.409 . S
C807 C806 1.362 . S
H808 C814 0.926 1_545 S
H809 C817 0.930 . S
H810 C818 0.930 . S
H811 C819 0.930 . S
H812 C822 0.930 . S
H813 C823 0.928 1_545 S
C814 H808 0.926 1_565 S
C814 C815 1.356 . S
C814 C816 1.417 . S
C815 C814 1.356 . S
C815 C817 1.419 . S
C816 C814 1.417 . S
C816 C821 1.425 . S
C816 C823 1.409 . S
C817 H809 0.930 . S
C817 C815 1.419 . S
C817 C818 1.362 . S
C818 H810 0.930 . S
C818 C817 1.362 . S
C818 C821 1.409 . S
C819 H811 0.930 . S
C819 C820 1.355 . S
C819 C821 1.415 . S
C820 C819 1.355 . S
C820 C822 1.419 . S
C821 C816 1.425 . S
C821 C818 1.409 . S
C821 C819 1.415 . S
C822 H812 0.930 . S
C822 C820 1.419 . S
C822 C823 1.362 . S
C823 H813 0.928 1_565 S
C823 C816 1.409 . S
C823 C822 1.362 . S
H824 C830 0.930 . S
H825 C833 0.930 . S
H826 C834 0.930 . S
H827 C835 0.930 . S
H828 C838 0.930 . S
H829 C839 0.930 . S
C830 H824 0.930 . S
C830 C831 1.355 . S
C830 C832 1.415 . S
C831 C830 1.355 . S
C831 C833 1.419 . S
C832 C830 1.415 . S
C832 C837 1.425 . S
C832 C839 1.409 . S
C833 H825 0.930 . S
C833 C831 1.419 . S
C833 C834 1.362 . S
C834 H826 0.930 . S
C834 C833 1.362 . S
C834 C837 1.409 . S
C835 H827 0.930 . S
C835 C836 1.355 . S
C835 C837 1.415 . S
C836 C835 1.355 . S
C836 C838 1.419 . S
C837 C832 1.425 . S
C837 C834 1.409 . S
C837 C835 1.415 . S
C838 H828 0.930 . S
C838 C836 1.419 . S
C838 C839 1.362 . S
C839 H829 0.930 . S
C839 C832 1.409 . S
C839 C838 1.362 . S
H840 C846 0.930 . S
H841 C849 0.930 . S
H842 C850 0.930 . S
H843 C851 0.930 . S
H844 C854 0.930 . S
H845 C855 0.930 . S
C846 H840 0.930 . S
C846 C847 1.355 . S
C846 C848 1.415 . S
C847 C846 1.355 . S
C847 C849 1.419 . S
C848 C846 1.415 . S
C848 C853 1.425 . S
C848 C855 1.409 . S
C849 H841 0.930 . S
C849 C847 1.419 . S
C849 C850 1.362 . S
C850 H842 0.930 . S
C850 C849 1.362 . S
C850 C853 1.409 . S
C851 H843 0.930 . S
C851 C852 1.355 . S
C851 C853 1.415 . S
C852 C851 1.355 . S
C852 C854 1.419 . S
C853 C848 1.425 . S
C853 C850 1.409 . S
C853 C851 1.415 . S
C854 H844 0.930 . S
C854 C852 1.419 . S
C854 C855 1.362 . S
C855 H845 0.930 . S
C855 C848 1.409 . S
C855 C854 1.362 . S
C479 C255 2.359 . S
C484 C314 2.567 1_545 S
C500 C354 2.598 . S
C495 C294 2.332 . S
C516 C394 2.587 . S
C511 C177 2.350 . S
C532 C434 2.555 . S
C527 C216 2.305 1_455 S
C548 C327 2.556 1_565 S
C543 C99 2.302 1_545 S
C559 C138 2.316 . S
C564 C367 2.595 . S
C575 C21 2.312 . S
C580 C407 2.571 . S
C591 C60 2.298 . S
C596 C447 2.559 1_655 S
C612 C338 0.404 . S
C607 C196 0.424 1_455 S
C628 C378 0.435 . S
C623 C235 0.504 1_545 S
C644 C418 0.534 . S
C639 C289 0.589 . S
C655 C157 0.541 . S
C660 C458 0.456 . S
C671 C40 0.557 . S
C676 C321 0.480 1_554 S
C692 C361 0.421 . S
C687 C79 0.422 . S
C708 C401 0.506 . S
C703 C133 0.439 . S
C719 C1 0.513 . S
C724 C441 0.569 . S
C735 C211 2.975 . S
C740 C315 3.421 . S
C751 C250 2.919 . S
C756 C355 3.373 . S
C772 C395 3.393 . S
C767 C274 2.958 . S
C788 C435 3.418 . S
C783 C172 2.980 . S
C799 C55 2.968 1_655 S
C804 C334 3.416 . S
C820 C374 3.398 . S
C815 C94 2.975 1_565 S
C836 C414 3.394 . S
C831 C118 2.976 . S
C847 C16 2.995 . S
C852 C454 3.423 . S
