# Generated by pormake.
# Topology llk, (3,12)-cn, num edge types: 1
# Building blocks:
#     Node 0, Type 0, BuildingBlock: BETDIP_clean_linker_0, # of connection points: 3
#     Node 1, Type 0, BuildingBlock: BETDIP_clean_linker_0, # of connection points: 3
#     Node 2, Type 0, BuildingBlock: BETDIP_clean_linker_0, # of connection points: 3
#     Node 3, Type 0, BuildingBlock: BETDIP_clean_linker_0, # of connection points: 3
#     Node 4, Type 0, BuildingBlock: BETDIP_clean_linker_0, # of connection points: 3
#     Node 5, Type 0, BuildingBlock: BETDIP_clean_linker_0, # of connection points: 3
#     Node 6, Type 0, BuildingBlock: BETDIP_clean_linker_0, # of connection points: 3
#     Node 7, Type 0, BuildingBlock: BETDIP_clean_linker_0, # of connection points: 3
#     Node 8, Type 0, BuildingBlock: BETDIP_clean_linker_0, # of connection points: 3
#     Node 9, Type 0, BuildingBlock: BETDIP_clean_linker_0, # of connection points: 3
#     Node 10, Type 0, BuildingBlock: BETDIP_clean_linker_0, # of connection points: 3
#     Node 11, Type 0, BuildingBlock: BETDIP_clean_linker_0, # of connection points: 3
#     Node 12, Type 0, BuildingBlock: BETDIP_clean_linker_0, # of connection points: 3
#     Node 13, Type 0, BuildingBlock: BETDIP_clean_linker_0, # of connection points: 3
#     Node 14, Type 0, BuildingBlock: BETDIP_clean_linker_0, # of connection points: 3
#     Node 15, Type 0, BuildingBlock: BETDIP_clean_linker_0, # of connection points: 3
#     Node 16, Type 0, BuildingBlock: BETDIP_clean_linker_0, # of connection points: 3
#     Node 17, Type 0, BuildingBlock: BETDIP_clean_linker_0, # of connection points: 3
#     Node 18, Type 0, BuildingBlock: BETDIP_clean_linker_0, # of connection points: 3
#     Node 19, Type 0, BuildingBlock: BETDIP_clean_linker_0, # of connection points: 3
#     Node 20, Type 0, BuildingBlock: BETDIP_clean_linker_0, # of connection points: 3
#     Node 21, Type 0, BuildingBlock: BETDIP_clean_linker_0, # of connection points: 3
#     Node 22, Type 0, BuildingBlock: BETDIP_clean_linker_0, # of connection points: 3
#     Node 23, Type 0, BuildingBlock: BETDIP_clean_linker_0, # of connection points: 3
#     Node 24, Type 1, BuildingBlock: EZIPEK_clean_sbu_0, # of connection points: 12
#     Node 25, Type 1, BuildingBlock: EZIPEK_clean_sbu_0, # of connection points: 12
#     Node 26, Type 1, BuildingBlock: EZIPEK_clean_sbu_0, # of connection points: 12
#     Node 27, Type 1, BuildingBlock: EZIPEK_clean_sbu_0, # of connection points: 12
#     Node 28, Type 1, BuildingBlock: EZIPEK_clean_sbu_0, # of connection points: 12
#     Node 29, Type 1, BuildingBlock: EZIPEK_clean_sbu_0, # of connection points: 12
#     Edge 30, Type (0, 1), BuildingBlock: OJICUG_clean_linker_0, # of connection points: 2
#     Edge 31, Type (0, 1), BuildingBlock: OJICUG_clean_linker_0, # of connection points: 2
#     Edge 32, Type (0, 1), BuildingBlock: OJICUG_clean_linker_0, # of connection points: 2
#     Edge 33, Type (0, 1), BuildingBlock: OJICUG_clean_linker_0, # of connection points: 2
#     Edge 34, Type (0, 1), BuildingBlock: OJICUG_clean_linker_0, # of connection points: 2
#     Edge 35, Type (0, 1), BuildingBlock: OJICUG_clean_linker_0, # of connection points: 2
#     Edge 36, Type (0, 1), BuildingBlock: OJICUG_clean_linker_0, # of connection points: 2
#     Edge 37, Type (0, 1), BuildingBlock: OJICUG_clean_linker_0, # of connection points: 2
#     Edge 38, Type (0, 1), BuildingBlock: OJICUG_clean_linker_0, # of connection points: 2
#     Edge 39, Type (0, 1), BuildingBlock: OJICUG_clean_linker_0, # of connection points: 2
#     Edge 40, Type (0, 1), BuildingBlock: OJICUG_clean_linker_0, # of connection points: 2
#     Edge 41, Type (0, 1), BuildingBlock: OJICUG_clean_linker_0, # of connection points: 2
#     Edge 42, Type (0, 1), BuildingBlock: OJICUG_clean_linker_0, # of connection points: 2
#     Edge 43, Type (0, 1), BuildingBlock: OJICUG_clean_linker_0, # of connection points: 2
#     Edge 44, Type (0, 1), BuildingBlock: OJICUG_clean_linker_0, # of connection points: 2
#     Edge 45, Type (0, 1), BuildingBlock: OJICUG_clean_linker_0, # of connection points: 2
#     Edge 46, Type (0, 1), BuildingBlock: OJICUG_clean_linker_0, # of connection points: 2
#     Edge 47, Type (0, 1), BuildingBlock: OJICUG_clean_linker_0, # of connection points: 2
#     Edge 48, Type (0, 1), BuildingBlock: OJICUG_clean_linker_0, # of connection points: 2
#     Edge 49, Type (0, 1), BuildingBlock: OJICUG_clean_linker_0, # of connection points: 2
#     Edge 50, Type (0, 1), BuildingBlock: OJICUG_clean_linker_0, # of connection points: 2
#     Edge 51, Type (0, 1), BuildingBlock: OJICUG_clean_linker_0, # of connection points: 2
#     Edge 52, Type (0, 1), BuildingBlock: OJICUG_clean_linker_0, # of connection points: 2
#     Edge 53, Type (0, 1), BuildingBlock: OJICUG_clean_linker_0, # of connection points: 2
#     Edge 54, Type (0, 1), BuildingBlock: OJICUG_clean_linker_0, # of connection points: 2
#     Edge 55, Type (0, 1), BuildingBlock: OJICUG_clean_linker_0, # of connection points: 2
#     Edge 56, Type (0, 1), BuildingBlock: OJICUG_clean_linker_0, # of connection points: 2
#     Edge 57, Type (0, 1), BuildingBlock: OJICUG_clean_linker_0, # of connection points: 2
#     Edge 58, Type (0, 1), BuildingBlock: OJICUG_clean_linker_0, # of connection points: 2
#     Edge 59, Type (0, 1), BuildingBlock: OJICUG_clean_linker_0, # of connection points: 2
#     Edge 60, Type (0, 1), BuildingBlock: OJICUG_clean_linker_0, # of connection points: 2
#     Edge 61, Type (0, 1), BuildingBlock: OJICUG_clean_linker_0, # of connection points: 2
#     Edge 62, Type (0, 1), BuildingBlock: OJICUG_clean_linker_0, # of connection points: 2
#     Edge 63, Type (0, 1), BuildingBlock: OJICUG_clean_linker_0, # of connection points: 2
#     Edge 64, Type (0, 1), BuildingBlock: OJICUG_clean_linker_0, # of connection points: 2
#     Edge 65, Type (0, 1), BuildingBlock: OJICUG_clean_linker_0, # of connection points: 2
#     Edge 66, Type (0, 1), BuildingBlock: OJICUG_clean_linker_0, # of connection points: 2
#     Edge 67, Type (0, 1), BuildingBlock: OJICUG_clean_linker_0, # of connection points: 2
#     Edge 68, Type (0, 1), BuildingBlock: OJICUG_clean_linker_0, # of connection points: 2
#     Edge 69, Type (0, 1), BuildingBlock: OJICUG_clean_linker_0, # of connection points: 2
#     Edge 70, Type (0, 1), BuildingBlock: OJICUG_clean_linker_0, # of connection points: 2
#     Edge 71, Type (0, 1), BuildingBlock: OJICUG_clean_linker_0, # of connection points: 2
#     Edge 72, Type (0, 1), BuildingBlock: OJICUG_clean_linker_0, # of connection points: 2
#     Edge 73, Type (0, 1), BuildingBlock: OJICUG_clean_linker_0, # of connection points: 2
#     Edge 74, Type (0, 1), BuildingBlock: OJICUG_clean_linker_0, # of connection points: 2
#     Edge 75, Type (0, 1), BuildingBlock: OJICUG_clean_linker_0, # of connection points: 2
#     Edge 76, Type (0, 1), BuildingBlock: OJICUG_clean_linker_0, # of connection points: 2
#     Edge 77, Type (0, 1), BuildingBlock: OJICUG_clean_linker_0, # of connection points: 2
#     Edge 78, Type (0, 1), BuildingBlock: OJICUG_clean_linker_0, # of connection points: 2
#     Edge 79, Type (0, 1), BuildingBlock: OJICUG_clean_linker_0, # of connection points: 2
#     Edge 80, Type (0, 1), BuildingBlock: OJICUG_clean_linker_0, # of connection points: 2
#     Edge 81, Type (0, 1), BuildingBlock: OJICUG_clean_linker_0, # of connection points: 2
#     Edge 82, Type (0, 1), BuildingBlock: OJICUG_clean_linker_0, # of connection points: 2
#     Edge 83, Type (0, 1), BuildingBlock: OJICUG_clean_linker_0, # of connection points: 2
#     Edge 84, Type (0, 1), BuildingBlock: OJICUG_clean_linker_0, # of connection points: 2
#     Edge 85, Type (0, 1), BuildingBlock: OJICUG_clean_linker_0, # of connection points: 2
#     Edge 86, Type (0, 1), BuildingBlock: OJICUG_clean_linker_0, # of connection points: 2
#     Edge 87, Type (0, 1), BuildingBlock: OJICUG_clean_linker_0, # of connection points: 2
#     Edge 88, Type (0, 1), BuildingBlock: OJICUG_clean_linker_0, # of connection points: 2
#     Edge 89, Type (0, 1), BuildingBlock: OJICUG_clean_linker_0, # of connection points: 2
#     Edge 90, Type (0, 1), BuildingBlock: OJICUG_clean_linker_0, # of connection points: 2
#     Edge 91, Type (0, 1), BuildingBlock: OJICUG_clean_linker_0, # of connection points: 2
#     Edge 92, Type (0, 1), BuildingBlock: OJICUG_clean_linker_0, # of connection points: 2
#     Edge 93, Type (0, 1), BuildingBlock: OJICUG_clean_linker_0, # of connection points: 2
#     Edge 94, Type (0, 1), BuildingBlock: OJICUG_clean_linker_0, # of connection points: 2
#     Edge 95, Type (0, 1), BuildingBlock: OJICUG_clean_linker_0, # of connection points: 2
#     Edge 96, Type (0, 1), BuildingBlock: OJICUG_clean_linker_0, # of connection points: 2
#     Edge 97, Type (0, 1), BuildingBlock: OJICUG_clean_linker_0, # of connection points: 2
#     Edge 98, Type (0, 1), BuildingBlock: OJICUG_clean_linker_0, # of connection points: 2
#     Edge 99, Type (0, 1), BuildingBlock: OJICUG_clean_linker_0, # of connection points: 2
#     Edge 100, Type (0, 1), BuildingBlock: OJICUG_clean_linker_0, # of connection points: 2
#     Edge 101, Type (0, 1), BuildingBlock: OJICUG_clean_linker_0, # of connection points: 2
# Relax obj value: 0.076
# Max RMSD: 0.174
# Mean RMSD: 0.135
data_MOF--net-llk--node1-EZIPEK_clean_sbu_0--node2-BETDIP_clean_linker_0--edge1-OJICUG_clean_linker_0
_symmetry_space_group_name_H-M    P1
_symmetry_Int_Tables_number       1
_symmetry_cell_setting            triclinic
loop_
_symmetry_equiv_pos_as_xyz
'x, y, z'
_cell_length_a     35.433806
_cell_length_b     35.580423
_cell_length_c     35.728209
_cell_angle_alpha  89.941098
_cell_angle_beta   89.982188
_cell_angle_gamma 89.990452
loop_
_atom_site_label
_atom_site_type_symbol
_atom_site_fract_x
_atom_site_fract_y
_atom_site_fract_z
_atom_type_partial_charge
H0 H 0.00514 0.25579 0.21088 0.0
H1 H 0.01812 0.26593 0.33051 0.0
H2 H 1.00064 0.36439 0.26429 0.0
H3 H 0.06962 0.21903 0.3066 0.0
C4 C 0.04414 0.20252 0.30235 0.0
C5 C 0.00601 0.27303 0.23582 0.0
C6 C 1.00147 0.31263 0.23302 0.0
C7 C 0.01225 0.25601 0.27128 0.0
C8 C 0.01344 0.27866 0.30334 0.0
C9 C 0.00951 0.3175 0.3008 0.0
C10 C 0.0034 0.3341 0.26588 0.0
N11 N 0.01771 0.21643 0.27544 0.0
H12 H 0.81787 0.00792 0.26394 0.0
H13 H 0.69723 0.99729 0.27679 0.0
H14 H 0.76601 0.01839 0.37263 0.0
H15 H 0.71913 0.94434 0.23148 0.0
C16 C 0.72415 0.96889 0.214 0.0
C17 C 0.79298 0.00829 0.28154 0.0
C18 C 0.79648 0.01456 0.3206 0.0
C19 C 0.7569 1.00189 0.26555 0.0
C20 C 0.72491 1.00213 0.28872 0.0
C21 C 0.72824 0.00777 0.32715 0.0
C22 C 0.76378 0.01421 0.34266 0.0
N23 N 0.75213 0.99493 0.2265 0.0
H24 H 0.00525 0.81374 0.26496 0.0
H25 H 0.01861 0.69366 0.27581 0.0
H26 H 1.00213 0.76075 0.37353 0.0
H27 H 0.06859 0.71669 0.22798 0.0
C28 C 0.04305 0.7215 0.21178 0.0
C29 C 0.00641 0.78878 0.28229 0.0
C30 C 1.00243 0.79177 0.32175 0.0
C31 C 0.01245 0.75309 0.26553 0.0
C32 C 0.01409 0.72101 0.28833 0.0
C33 C 0.01066 0.72379 0.32706 0.0
C34 C 0.00465 0.75893 0.34335 0.0
N35 N 0.01711 0.74874 0.22604 0.0
H36 H 0.20455 0.01538 0.26454 0.0
H37 H 0.326 0.0098 0.27227 0.0
H38 H 0.25905 0.99814 0.37105 0.0
H39 H 0.30445 0.0683 0.2291 0.0
C40 C 0.29865 0.04395 0.21163 0.0
C41 C 0.22983 0.011 0.28101 0.0
C42 C 0.22731 0.00727 0.32047 0.0
C43 C 0.26577 0.01178 0.26341 0.0
C44 C 0.29843 0.00808 0.28531 0.0
C45 C 0.29596 1.00423 0.324 0.0
C46 C 0.26058 1.00209 0.34097 0.0
N47 N 0.26992 0.01883 0.22432 0.0
H48 H 0.00931 0.76028 0.82235 0.0
H49 H 0.02382 0.74941 0.70292 0.0
H50 H 0.00951 0.65105 0.77003 0.0
H51 H 0.07277 0.79873 0.72595 0.0
C52 C 0.04671 0.81427 0.73039 0.0
C53 C 0.01128 0.74284 0.79761 0.0
C54 C 0.00817 0.70315 0.80072 0.0
C55 C 0.01733 0.75971 0.76206 0.0
C56 C 0.01962 0.7368 0.73023 0.0
C57 C 0.01695 0.69786 0.73311 0.0
C58 C 0.01136 0.6814 0.76815 0.0
N59 N 0.02106 0.79945 0.75755 0.0
H60 H 0.20436 0.99609 0.77067 0.0
H61 H 0.32491 0.00686 0.75726 0.0
H62 H 0.25241 0.02014 0.6625 0.0
H63 H 0.30948 0.94765 0.79921 0.0
C64 C 0.3023 0.97039 0.81826 0.0
C65 C 0.2286 1.00227 0.75325 0.0
C66 C 0.22402 0.00754 0.71418 0.0
C67 C 0.26536 1.00238 0.76903 0.0
C68 C 0.2967 0.00815 0.74565 0.0
C69 C 0.29212 0.01349 0.70726 0.0
C70 C 0.25584 0.0151 0.69228 0.0
N71 N 0.27171 0.99429 0.80765 0.0
H72 H 0.02109 0.20154 0.76943 0.0
H73 H 0.01044 0.32192 0.75876 0.0
H74 H 0.99548 0.25195 0.66271 0.0
H75 H 0.07085 0.30458 0.79969 0.0
C76 C 0.04794 0.29772 0.8188 0.0
C77 C 0.01467 0.22606 0.75261 0.0
C78 C 0.00893 0.22234 0.71347 0.0
C79 C 0.01475 0.26235 0.76923 0.0
C80 C 0.00884 0.29408 0.74659 0.0
C81 C 0.00304 0.29039 0.7082 0.0
C82 C 1.00099 0.25459 0.69247 0.0
N83 N 0.02326 0.26789 0.80792 0.0
H84 H 0.76453 0.01113 0.8223 0.0
H85 H 0.75113 0.99598 0.70328 0.0
H86 H 0.65394 0.01352 0.77185 0.0
H87 H 0.80018 0.9467 0.72538 0.0
C88 C 0.8162 0.97244 0.72954 0.0
C89 C 0.74653 0.0095 0.79786 0.0
C90 C 0.70687 0.01364 0.8016 0.0
C91 C 0.76266 1.00281 0.76214 0.0
C92 C 0.73905 1.00081 0.73072 0.0
C93 C 0.70007 1.00452 0.73419 0.0
C94 C 0.68432 0.01087 0.76944 0.0
N95 N 0.80235 0.9981 0.75707 0.0
H96 H 0.20401 0.25441 0.01057 0.0
H97 H 0.32504 0.26593 0.01743 0.0
H98 H 0.25468 0.3626 0.03073 0.0
H99 H 0.30657 0.22335 0.95908 0.0
C100 C 0.30027 0.20482 0.98251 0.0
C101 C 0.2287 0.27159 0.01565 0.0
C102 C 0.22491 0.31098 0.02024 0.0
C103 C 0.26518 0.25513 0.01489 0.0
C104 C 0.29707 0.27811 0.01929 0.0
C105 C 0.29332 0.31679 0.02395 0.0
C106 C 0.25737 0.33255 0.02626 0.0
N107 N 0.27064 0.21618 1.00714 0.0
H108 H 0.20422 0.76022 0.02779 0.0
H109 H 0.32554 0.75192 0.02116 0.0
H110 H 0.25797 0.65311 1.00968 0.0
H111 H 0.30468 0.79533 0.07969 0.0
C112 C 0.29871 0.81283 0.05541 0.0
C113 C 0.22938 0.74358 0.02318 0.0
C114 C 0.22667 0.70404 0.01935 0.0
C115 C 0.26537 0.76104 0.02372 0.0
C116 C 0.29792 0.73893 0.01966 0.0
C117 C 0.29527 0.7001 0.0156 0.0
C118 C 0.25976 0.68326 0.0138 0.0
N119 N 0.26965 0.80023 0.03078 0.0
H120 H 0.76478 0.20127 1.00657 0.0
H121 H 0.75356 0.32185 0.01212 0.0
H122 H 0.65669 0.2521 0.02861 0.0
H123 H 0.79561 0.30215 0.9526 0.0
C124 C 0.81413 0.29652 0.97623 0.0
C125 C 0.74766 0.22594 0.01175 0.0
C126 C 0.70828 0.2223 0.01731 0.0
C127 C 0.76418 0.26218 0.01007 0.0
C128 C 0.7413 0.29407 0.01463 0.0
C129 C 0.70256 0.2905 0.02035 0.0
C130 C 0.68675 0.25472 0.02341 0.0
N131 N 0.80307 0.26728 1.00132 0.0
H132 H 0.76415 0.8142 0.01115 0.0
H133 H 0.75594 0.6941 0.02533 0.0
H134 H 0.65598 0.7588 1.00744 0.0
H135 H 0.80316 0.72073 0.07678 0.0
C136 C 0.81894 0.72426 0.05089 0.0
C137 C 0.74723 0.78888 0.01221 0.0
C138 C 0.70753 0.79096 1.00781 0.0
C139 C 0.76482 0.75375 0.01879 0.0
C140 C 0.7427 0.72109 0.02034 0.0
C141 C 0.70365 0.72293 0.01651 0.0
C142 C 0.68643 0.75767 0.01004 0.0
N143 N 0.8045 0.75072 0.02451 0.0
H144 H 0.50636 0.75485 0.71084 0.0
H145 H 0.52102 0.76737 0.83008 0.0
H146 H 0.5036 0.86458 0.76208 0.0
H147 H 0.57116 0.71939 0.80765 0.0
C148 C 0.54565 0.70295 0.80331 0.0
C149 C 0.50785 0.77258 0.73541 0.0
C150 C 0.50355 0.81214 0.73193 0.0
C151 C 0.51452 0.75624 0.7711 0.0
C152 C 0.51628 0.77955 0.80267 0.0
C153 C 0.51254 0.81837 0.79939 0.0
C154 C 0.50625 0.8343 0.76425 0.0
N155 N 0.51952 0.71669 0.77603 0.0
H156 H 0.31787 0.5084 0.76378 0.0
H157 H 0.19736 0.49713 0.77717 0.0
H158 H 0.26654 0.51803 0.87278 0.0
H159 H 0.21899 0.44477 0.73134 0.0
C160 C 0.22398 0.46943 0.714 0.0
C161 C 0.29307 0.50852 0.7815 0.0
C162 C 0.29674 0.51458 0.82058 0.0
C163 C 0.25695 0.50204 0.76567 0.0
C164 C 0.22508 0.502 0.78899 0.0
C165 C 0.22856 0.50748 0.82744 0.0
C166 C 0.26416 0.51396 0.84281 0.0
N167 N 0.25201 0.49537 0.72658 0.0
H168 H 0.50652 0.31398 0.76379 0.0
H169 H 0.51834 0.19395 0.77689 0.0
H170 H 0.50089 0.26286 0.87315 0.0
H171 H 0.569 0.21504 0.72947 0.0
C172 C 0.54387 0.22016 0.71274 0.0
C173 C 0.5071 0.28929 0.78153 0.0
C174 C 0.50245 0.29297 0.82086 0.0
C175 C 0.51301 0.25325 0.76547 0.0
C176 C 0.51392 0.22157 0.78885 0.0
C177 C 0.50986 0.22506 0.82747 0.0
C178 C 0.50393 0.26051 0.84305 0.0
N179 N 0.51822 0.24813 0.72613 0.0
H180 H 0.70453 0.51707 0.76527 0.0
H181 H 0.82602 0.51105 0.77204 0.0
H182 H 0.75977 0.4986 0.87119 0.0
H183 H 0.80384 0.57038 0.72955 0.0
C184 C 0.79813 0.54607 0.71201 0.0
C185 C 0.72991 0.51244 0.7815 0.0
C186 C 0.72768 0.50832 0.82093 0.0
C187 C 0.76571 0.51327 0.76366 0.0
C188 C 0.79854 0.50925 0.78526 0.0
C189 C 0.79633 0.50502 0.82392 0.0
C190 C 0.76108 0.50282 0.84114 0.0
N191 N 0.76954 0.52077 0.72463 0.0
H192 H 0.50966 0.26047 0.32223 0.0
H193 H 0.52408 0.24766 0.20299 0.0
H194 H 0.50844 0.15049 0.27154 0.0
H195 H 0.57292 0.29697 0.22454 0.0
C196 C 0.5471 0.31285 0.22922 0.0
C197 C 0.51143 0.24266 0.29774 0.0
C198 C 0.50786 0.20306 0.30141 0.0
C199 C 0.51765 0.25893 0.26195 0.0
C200 C 0.51972 0.23551 0.23047 0.0
C201 C 0.51655 0.19663 0.23392 0.0
C202 C 0.51074 0.18078 0.26919 0.0
N203 N 0.52164 0.29857 0.25684 0.0
H204 H 0.70423 0.49565 0.27091 0.0
H205 H 0.82469 0.50683 0.25715 0.0
H206 H 0.75184 0.51977 0.16258 0.0
H207 H 0.80959 0.44759 0.29907 0.0
C208 C 0.8023 0.47021 0.31823 0.0
C209 C 0.72839 0.50189 0.25341 0.0
C210 C 0.72367 0.50711 0.21436 0.0
C211 C 0.76519 0.50213 0.26908 0.0
C212 C 0.79644 0.508 0.2456 0.0
C213 C 0.79174 0.51334 0.20722 0.0
C214 C 0.7554 0.51476 0.19234 0.0
N215 N 0.77167 0.49409 0.30769 0.0
H216 H 0.52068 0.70158 0.26986 0.0
H217 H 0.51151 0.8218 0.25655 0.0
H218 H 0.497 0.74992 0.16178 0.0
H219 H 0.57076 0.80554 0.29838 0.0
C220 C 0.54791 0.79865 0.31755 0.0
C221 C 0.51476 0.72582 0.25247 0.0
C222 C 0.50933 0.72136 0.21339 0.0
C223 C 0.51518 0.76243 0.26829 0.0
C224 C 0.50981 0.79374 0.24492 0.0
C225 C 0.50429 0.78931 0.20654 0.0
C226 C 0.50215 0.75321 0.19154 0.0
N227 N 0.52335 0.76864 0.30693 0.0
H228 H 0.26426 0.49778 0.32215 0.0
H229 H 0.25054 0.50543 0.20246 0.0
H230 H 0.15498 0.52008 0.27415 0.0
H231 H 0.293 0.44641 0.2192 0.0
C232 C 0.3119 0.46966 0.22546 0.0
C233 C 0.24661 0.50328 0.29802 0.0
C234 C 0.20724 0.50856 0.30256 0.0
C235 C 0.2624 0.50238 0.26155 0.0
C236 C 0.2388 0.50737 0.2304 0.0
C237 C 0.2001 0.51278 0.23481 0.0
C238 C 0.185 0.51509 0.27081 0.0
N239 N 0.30129 0.49407 0.25538 0.0
H240 H 0.70411 0.75434 0.50871 0.0
H241 H 0.82505 0.76605 0.51649 0.0
H242 H 0.75435 0.86247 0.5301 0.0
H243 H 0.80692 0.72387 0.45759 0.0
C244 C 0.8005 0.70517 0.48085 0.0
C245 C 0.72872 0.77154 0.51411 0.0
C246 C 0.72482 0.81086 0.51899 0.0
C247 C 0.76522 0.75517 0.51346 0.0
C248 C 0.79704 0.77816 0.51828 0.0
C249 C 0.79319 0.81681 0.52325 0.0
C250 C 0.75717 0.83246 0.52542 0.0
N251 N 0.77076 0.7163 0.50543 0.0
H252 H 0.7039 0.25975 0.52873 0.0
H253 H 0.82526 0.25213 0.52183 0.0
H254 H 0.75823 0.15297 0.51026 0.0
H255 H 0.80398 0.29516 0.58078 0.0
C256 C 0.79805 0.31272 0.55654 0.0
C257 C 0.72915 0.24326 0.52403 0.0
C258 C 0.72664 0.2037 0.5201 0.0
C259 C 0.76504 0.26091 0.52454 0.0
C260 C 0.79771 0.23899 0.52034 0.0
C261 C 0.79526 0.20017 0.5162 0.0
C262 C 0.75984 0.18313 0.51445 0.0
N263 N 0.76913 0.30009 0.53175 0.0
H264 H 0.26451 0.70127 0.50609 0.0
H265 H 0.25321 0.82181 0.51208 0.0
H266 H 0.1566 0.75188 0.5294 0.0
H267 H 0.2948 0.80241 0.45227 0.0
C268 C 0.31353 0.79663 0.4757 0.0
C269 C 0.24743 0.7259 0.51155 0.0
C270 C 0.20812 0.7222 0.5175 0.0
C271 C 0.26388 0.76215 0.50984 0.0
C272 C 0.24101 0.79401 0.51468 0.0
C273 C 0.20233 0.79038 0.52077 0.0
C274 C 0.18661 0.75457 0.52394 0.0
N275 N 0.30269 0.76728 0.50073 0.0
H276 H 0.26345 0.314 0.52562 0.0
H277 H 0.25627 0.19312 0.51986 0.0
H278 H 0.157 0.25961 0.50427 0.0
H279 H 0.29833 0.21535 0.57965 0.0
C280 C 0.31618 0.22084 0.55548 0.0
C281 C 0.24711 0.2888 0.52049 0.0
C282 C 0.20757 0.29118 0.51542 0.0
C283 C 0.26488 0.25315 0.52181 0.0
C284 C 0.24308 0.22049 0.51747 0.0
C285 C 0.2042 0.22279 0.51222 0.0
C286 C 0.18716 0.25804 0.50929 0.0
N287 N 0.30398 0.24942 0.53021 0.0
C288 C 0.01328 0.9176 0.60894 0.0
C289 C 0.00635 0.91635 0.42533 0.0
C290 C 0.01183 0.09906 0.60806 0.0
C291 C 0.01492 0.09791 0.42399 0.0
C292 C 0.92142 0.09972 0.51801 0.0
C293 C 0.91851 0.9187 0.51702 0.0
C294 C 0.10349 0.09697 0.51772 0.0
C295 C 0.10039 0.9156 0.5155 0.0
C296 C 0.10274 0.00746 0.42519 0.0
C297 C 0.92093 0.01178 0.42418 0.0
C298 C 0.1008 1.00592 0.60929 0.0
C299 C 0.91893 1.00562 0.60756 0.0
Eu300 Eu 0.00963 0.93662 0.51706 0.0
O301 O 0.97716 0.97467 0.48309 0.0
O302 O 0.04325 0.97454 0.55009 0.0
Eu303 Eu 0.93982 0.00888 0.51611 0.0
Eu304 Eu 0.08256 0.00662 0.51703 0.0
O305 O 0.97671 0.97515 0.55006 0.0
O306 O 0.04449 0.9733 0.48352 0.0
Eu307 Eu 0.01019 0.00849 0.58767 0.0
Eu308 Eu 0.01163 0.00697 0.4453 0.0
O309 O 0.97758 0.04227 0.54955 0.0
O310 O 0.97855 0.0413 0.48269 0.0
O311 O 0.04502 0.04016 0.48334 0.0
O312 O 0.04476 0.04092 0.54985 0.0
Eu313 Eu 0.01204 0.07905 0.51601 0.0
O314 O 0.01407 0.90573 0.57331 0.0
O315 O 0.00443 0.90525 0.46119 0.0
O316 O 0.01374 0.11033 0.57222 0.0
O317 O 0.01577 0.10983 0.45962 0.0
O318 O 0.90979 0.06419 0.51981 0.0
O319 O 0.90799 0.95442 0.51306 0.0
O320 O 0.11523 0.06135 0.51736 0.0
O321 O 0.11314 0.95082 0.5173 0.0
O322 O 0.06703 1.00569 0.4136 0.0
O323 O 0.95659 0.00761 0.41308 0.0
O324 O 0.06499 0.00908 0.6202 0.0
O325 O 0.95466 0.00826 0.61892 0.0
O326 O 0.06782 0.10872 0.5174 0.0
O327 O 0.95704 0.11143 0.51496 0.0
O328 O 0.06437 0.90497 0.5142 0.0
O329 O 0.95377 0.90622 0.52088 0.0
O330 O 0.01059 0.95172 0.41373 0.0
O331 O 0.01254 0.06207 0.4132 0.0
O332 O 0.01065 0.9534 0.61977 0.0
O333 O 0.00924 0.0635 0.6195 0.0
O334 O 0.90759 1.00457 0.57174 0.0
O335 O 0.90919 0.01388 0.45982 0.0
O336 O 0.11276 1.00393 0.57371 0.0
O337 O 0.114 0.00853 0.46101 0.0
C338 C 0.51005 0.91375 0.10425 0.0
C339 C 0.51596 0.09479 0.10973 0.0
C340 C 0.5144 0.91966 0.92398 0.0
C341 C 0.5124 0.1005 0.92941 0.0
C342 C 0.60493 0.0131 0.92738 0.0
C343 C 0.6039 1.00023 0.10807 0.0
C344 C 0.42011 1.00454 0.92595 0.0
C345 C 0.41928 0.01007 0.10707 0.0
C346 C 0.4199 0.09843 0.01518 0.0
C347 C 0.60486 0.09726 0.01814 0.0
C348 C 0.41926 0.91676 0.01914 0.0
C349 C 0.60393 0.91608 0.01126 0.0
Eu350 Eu 0.51173 1.00476 0.0878 0.0
O351 O 0.54569 0.03934 0.05147 0.0
O352 O 0.47824 0.97306 0.04878 0.0
Eu353 Eu 0.58389 0.00673 0.01762 0.0
Eu354 Eu 0.44033 0.00751 0.0166 0.0
O355 O 0.54544 0.97229 0.04937 0.0
O356 O 0.47834 0.03959 0.05111 0.0
Eu357 Eu 0.51165 0.93612 0.01458 0.0
Eu358 Eu 0.51221 0.07817 0.01912 0.0
O359 O 0.54558 0.97504 0.98303 0.0
O360 O 0.54574 0.04103 0.98536 0.0
O361 O 0.4785 0.04186 0.98445 0.0
O362 O 0.47828 0.97499 0.98238 0.0
Eu363 Eu 0.51231 0.00957 0.94618 0.0
O364 O 0.5068 0.94874 0.11714 0.0
O365 O 0.5172 0.05879 0.11996 0.0
O366 O 0.5174 0.95561 0.91398 0.0
O367 O 0.50968 0.06549 0.91649 0.0
O368 O 0.61627 0.00858 0.96272 0.0
O369 O 0.61541 1.00449 0.07277 0.0
O370 O 0.40856 0.00649 0.96146 0.0
O371 O 0.40813 0.00814 0.07145 0.0
O372 O 0.45596 0.10989 0.01599 0.0
O373 O 0.56886 0.1088 0.01748 0.0
O374 O 0.4552 0.90496 0.01856 0.0
O375 O 0.56784 0.90492 1.00966 0.0
O376 O 0.45621 1.00488 0.91466 0.0
O377 O 0.56895 0.0151 0.91593 0.0
O378 O 0.45526 0.00992 0.11876 0.0
O379 O 0.5678 0.99855 0.11923 0.0
O380 O 0.51251 0.10785 0.07491 0.0
O381 O 0.51446 0.11068 0.96522 0.0
O382 O 0.51401 0.90369 0.06855 0.0
O383 O 0.50974 0.90667 0.95868 0.0
O384 O 0.61566 0.95143 0.01551 0.0
O385 O 0.61636 0.06161 0.0195 0.0
O386 O 0.4081 0.95254 0.01761 0.0
O387 O 0.40848 0.06272 0.016 0.0
C388 C 0.00373 0.41643 0.10819 0.0
C389 C 0.0162 0.41552 0.92727 0.0
C390 C 0.01194 0.60087 0.10682 0.0
C391 C 0.00914 0.59994 0.92571 0.0
C392 C 0.91965 0.60063 0.01799 0.0
C393 C 0.91864 0.41684 0.01092 0.0
C394 C 0.10166 0.59979 0.01974 0.0
C395 C 0.10043 0.41542 0.01895 0.0
C396 C 0.10363 0.50787 0.92957 0.0
C397 C 0.92182 0.50946 0.92437 0.0
C398 C 0.098 0.50685 0.11019 0.0
C399 C 0.91636 0.50979 0.10457 0.0
Eu400 Eu 0.00968 0.43668 0.01782 0.0
O401 O 0.97762 0.47464 0.98308 0.0
O402 O 0.04241 0.47452 0.05201 0.0
Eu403 Eu 0.93904 0.5086 0.01504 0.0
Eu404 Eu 0.08119 0.50777 0.01938 0.0
O405 O 0.97521 0.47486 0.04981 0.0
O406 O 0.04381 0.4747 0.98541 0.0
Eu407 Eu 0.00764 0.50859 0.08803 0.0
Eu408 Eu 0.01209 0.50779 0.9459 0.0
O409 O 0.97615 0.54219 0.04886 0.0
O410 O 0.97789 0.54172 0.98247 0.0
O411 O 0.04503 0.54145 0.9841 0.0
O412 O 0.04221 0.54151 0.05082 0.0
Eu413 Eu 0.01068 0.57973 0.01615 0.0
O414 O 0.00765 0.40483 0.07291 0.0
O415 O 0.01269 0.40448 0.96287 0.0
O416 O 0.0105 0.61185 0.07109 0.0
O417 O 0.01127 0.61161 0.9611 0.0
O418 O 0.90776 0.56487 0.01904 0.0
O419 O 0.9073 0.45277 1.00941 0.0
O420 O 0.11278 0.56381 0.02175 0.0
O421 O 0.1121 0.45127 0.01806 0.0
O422 O 0.06844 0.5096 0.91649 0.0
O423 O 0.95746 0.50505 0.91324 0.0
O424 O 0.06186 0.5057 0.12039 0.0
O425 O 0.95147 0.51302 0.11748 0.0
O426 O 0.06609 0.61148 0.01646 0.0
O427 O 0.95552 0.61165 0.01554 0.0
O428 O 0.06459 0.40414 0.02018 0.0
O429 O 0.9542 0.40538 0.01522 0.0
O430 O 0.01694 0.45133 0.91555 0.0
O431 O 0.00848 0.56395 0.91458 0.0
O432 O 1.00218 0.45244 0.11925 0.0
O433 O 0.01185 0.56506 0.11867 0.0
O434 O 0.90628 0.50604 0.06885 0.0
O435 O 0.90988 0.51281 0.95954 0.0
O436 O 0.11114 0.50824 0.07524 0.0
O437 O 0.11387 0.50688 0.96545 0.0
C438 C 0.51337 0.41672 0.10828 0.0
C439 C 0.51106 0.59805 0.10873 0.0
C440 C 0.50684 0.41702 0.92455 0.0
C441 C 0.51541 0.59843 0.9247 0.0
C442 C 0.60321 0.50826 0.92576 0.0
C443 C 0.60028 0.5052 0.10974 0.0
C444 C 0.4214 0.51206 0.92376 0.0
C445 C 0.41839 0.50384 0.10684 0.0
C446 C 0.42123 0.59936 0.01801 0.0
C447 C 0.60312 0.59711 0.02062 0.0
C448 C 0.41874 0.41836 0.0162 0.0
C449 C 0.60066 0.41569 0.01502 0.0
Eu450 Eu 0.50976 0.50771 0.08761 0.0
O451 O 0.5444 0.54048 0.05021 0.0
O452 O 0.47663 0.47458 0.0495 0.0
Eu453 Eu 0.58253 0.50665 0.01746 0.0
Eu454 Eu 0.43988 0.50858 0.01569 0.0
O455 O 0.54315 0.4741 0.04997 0.0
O456 O 0.47724 0.54182 0.04965 0.0
Eu457 Eu 0.50982 0.43634 0.01651 0.0
Eu458 Eu 0.51188 0.57888 0.01657 0.0
O459 O 0.54469 0.47349 0.9835 0.0
O460 O 0.54523 0.54042 0.98371 0.0
O461 O 0.47866 0.54135 0.98274 0.0
O462 O 0.47751 0.47465 0.98268 0.0
Eu463 Eu 0.51203 0.50741 0.94533 0.0
O464 O 0.51051 0.45243 0.11933 0.0
O465 O 0.50836 0.56242 0.1199 0.0
O466 O 0.51124 0.45247 0.91329 0.0
O467 O 0.51296 0.56269 0.91366 0.0
O468 O 0.61429 0.50925 0.96165 0.0
O469 O 0.61241 0.50332 0.07423 0.0
O470 O 0.40949 0.51383 0.95935 0.0
O471 O 0.40731 0.50353 0.07095 0.0
O472 O 0.45685 0.61115 0.01526 0.0
O473 O 0.56745 0.60881 0.01957 0.0
O474 O 0.454 0.40591 0.02018 0.0
O475 O 0.56469 0.40494 0.01344 0.0
O476 O 0.45714 0.50814 0.91279 0.0
O477 O 0.56758 0.50637 0.91398 0.0
O478 O 0.45402 0.50642 0.11851 0.0
O479 O 0.5644 0.50838 0.12048 0.0
O480 O 0.51319 0.60963 0.07302 0.0
O481 O 0.5162 0.6101 0.96042 0.0
O482 O 0.5143 0.40509 0.07257 0.0
O483 O 0.50469 0.40557 0.9603 0.0
O484 O 0.61328 0.45093 0.01728 0.0
O485 O 0.61493 0.56151 0.01964 0.0
O486 O 0.40818 0.45407 0.01218 0.0
O487 O 0.40966 0.5638 0.01961 0.0
C488 C 0.00856 0.41543 0.60682 0.0
C489 C 0.01317 0.41763 0.42635 0.0
C490 C 0.01615 0.59648 0.60876 0.0
C491 C 0.01368 0.59872 0.42826 0.0
C492 C 0.91966 0.59854 0.51425 0.0
C493 C 0.91855 0.41695 0.52076 0.0
C494 C 0.10449 0.5974 0.51788 0.0
C495 C 0.10339 0.41612 0.51759 0.0
C496 C 0.10457 0.5073 0.42778 0.0
C497 C 0.91962 0.5039 0.42661 0.0
C498 C 0.10348 0.50123 0.60855 0.0
C499 C 0.91878 0.51178 0.60765 0.0
Eu500 Eu 0.01099 0.43618 0.51676 0.0
O501 O 0.9777 0.47433 0.4837 0.0
O502 O 0.04476 0.47335 0.55046 0.0
Eu503 Eu 0.93985 0.50759 0.51725 0.0
Eu504 Eu 0.08339 0.50696 0.51801 0.0
O505 O 0.97755 0.47371 0.55032 0.0
O506 O 0.04513 0.47423 0.48433 0.0
Eu507 Eu 0.01122 0.50609 0.58861 0.0
Eu508 Eu 0.01187 0.50799 0.44683 0.0
O509 O 0.97796 0.54027 0.55119 0.0
O510 O 0.97821 0.54118 0.48453 0.0
O511 O 0.04545 0.5407 0.48499 0.0
O512 O 0.04519 0.53993 0.55153 0.0
Eu513 Eu 0.01189 0.57822 0.51843 0.0
O514 O 0.01156 0.40478 0.57123 0.0
O515 O 0.01064 0.40513 0.46148 0.0
O516 O 0.01246 0.60897 0.57375 0.0
O517 O 0.01447 0.60957 0.46392 0.0
O518 O 0.90816 0.56287 0.51577 0.0
O519 O 0.90745 0.45272 0.51887 0.0
O520 O 0.11593 0.56176 0.51972 0.0
O521 O 0.11521 0.45167 0.51627 0.0
O522 O 0.06857 0.50648 0.41628 0.0
O523 O 0.95573 0.50409 0.41535 0.0
O524 O 0.0674 0.49992 0.61986 0.0
O525 O 0.95475 0.51197 0.61937 0.0
O526 O 0.06849 0.60892 0.51674 0.0
O527 O 0.95573 0.60995 0.51476 0.0
O528 O 0.06728 0.40494 0.5184 0.0
O529 O 0.95448 0.40513 0.52046 0.0
O530 O 0.01437 0.45344 0.41562 0.0
O531 O 0.01157 0.56344 0.41589 0.0
O532 O 0.00637 0.45067 0.61926 0.0
O533 O 0.0172 0.56066 0.6196 0.0
O534 O 0.90765 0.50912 0.57208 0.0
O535 O 0.90806 0.506 0.46212 0.0
O536 O 0.11493 0.50504 0.57318 0.0
O537 O 0.11598 0.5087 0.46331 0.0
C538 C 0.50372 0.91536 0.60721 0.0
C539 C 0.51593 0.91589 0.4264 0.0
C540 C 0.51261 0.0998 0.60742 0.0
C541 C 0.50867 0.10028 0.42639 0.0
C542 C 0.4196 0.10009 0.51977 0.0
C543 C 0.41846 0.91654 0.51042 0.0
C544 C 0.60169 0.09925 0.52025 0.0
C545 C 0.60021 0.91498 0.51754 0.0
C546 C 0.60325 0.00819 0.42914 0.0
C547 C 0.42141 0.00957 0.42455 0.0
C548 C 0.59817 1.00255 0.60966 0.0
C549 C 0.41668 0.009 0.60474 0.0
Eu550 Eu 0.5095 0.93629 0.51706 0.0
O551 O 0.47737 0.97449 0.48269 0.0
O552 O 0.54225 0.97393 0.55132 0.0
Eu553 Eu 0.43901 0.0082 0.51513 0.0
Eu554 Eu 0.58108 0.00728 0.519 0.0
O555 O 0.47524 0.97421 0.54956 0.0
O556 O 0.54358 0.97453 0.48487 0.0
Eu557 Eu 0.50786 0.00764 0.58794 0.0
Eu558 Eu 0.51177 0.00797 0.44575 0.0
O559 O 0.4763 0.04144 0.54907 0.0
O560 O 0.47773 0.04165 0.48272 0.0
O561 O 0.54483 0.04128 0.48415 0.0
O562 O 0.54247 0.04095 0.55103 0.0
Eu563 Eu 0.51068 0.07933 0.51665 0.0
O564 O 0.50778 0.90404 0.57187 0.0
O565 O 0.51238 0.90457 0.46189 0.0
O566 O 0.51083 0.11103 0.57179 0.0
O567 O 0.51092 0.11167 0.46187 0.0
O568 O 0.40778 0.06431 0.52005 0.0
O569 O 0.40715 0.95249 0.50924 0.0
O570 O 0.61275 0.06325 0.5222 0.0
O571 O 0.61191 0.95081 0.51664 0.0
O572 O 0.56803 0.01 0.41614 0.0
O573 O 0.45702 1.00526 0.4133 0.0
O574 O 0.56208 1.0024 0.62007 0.0
O575 O 0.45183 0.01223 0.61755 0.0
O576 O 0.56614 0.11099 0.51689 0.0
O577 O 0.45544 0.11123 0.51724 0.0
O578 O 0.56439 0.90371 0.51909 0.0
O579 O 0.45402 0.90502 0.51446 0.0
O580 O 0.51671 0.95179 0.41494 0.0
O581 O 0.50801 0.06439 0.41495 0.0
O582 O 0.50198 0.95126 0.61858 0.0
O583 O 0.51271 0.06389 0.61901 0.0
O584 O 0.40649 1.00527 0.56904 0.0
O585 O 0.4096 0.01284 0.45978 0.0
O586 O 0.61115 1.00506 0.57471 0.0
O587 O 0.61357 0.007 0.46498 0.0
C588 C 0.18983 0.1553 0.49651 0.0
C589 C 0.18031 0.18893 0.51488 0.0
H590 H 0.17264 0.09893 0.48328 0.0
C591 C 0.14743 0.19042 0.53674 0.0
H592 H 0.21522 0.15341 0.47973 0.0
C593 C 0.12333 0.15985 0.53843 0.0
C594 C 0.13184 0.12683 0.51888 0.0
H595 H 0.14006 0.21545 0.55237 0.0
H596 H 0.09767 0.16226 0.55471 0.0
C597 C 0.16569 0.12424 0.49863 0.0
C598 C 0.86208 0.18533 0.49775 0.0
C599 C 0.82931 0.17648 0.51811 0.0
H600 H 0.91779 0.16758 0.48192 0.0
C601 C 0.8288 0.14431 0.54085 0.0
H602 H 0.86317 0.21017 0.48022 0.0
C603 C 0.85947 0.12019 0.54157 0.0
C604 C 0.89154 0.12798 0.51998 0.0
H605 H 0.80441 0.13751 0.55787 0.0
H606 H 0.85787 0.0951 0.55872 0.0
C607 C 0.89321 0.16117 0.49879 0.0
C608 C 0.86007 0.8331 0.54007 0.0
C609 C 0.82634 0.84178 0.52129 0.0
H610 H 0.91633 0.85095 0.55329 0.0
C611 C 0.82429 0.87454 0.49944 0.0
H612 H 0.86237 0.80791 0.55696 0.0
C613 C 0.85465 0.89902 0.49765 0.0
C614 C 0.88796 0.89102 0.5172 0.0
H615 H 0.79913 0.88131 0.48356 0.0
H616 H 0.85198 0.92429 0.48089 0.0
C617 C 0.89084 0.85758 0.53791 0.0
C618 C 0.18682 0.85745 0.5367 0.0
C619 C 0.17732 0.8235 0.51897 0.0
H620 H 0.16964 0.91387 0.54928 0.0
C621 C 0.14373 0.82123 0.49825 0.0
H622 H 0.21265 0.85993 0.55272 0.0
C623 C 0.11928 0.8516 0.4966 0.0
C624 C 0.12815 0.88514 0.51512 0.0
H625 H 0.13627 0.7959 0.48316 0.0
H626 H 0.09332 0.84877 0.48081 0.0
C627 C 0.16238 0.88822 0.53465 0.0
C628 C 0.5389 0.13814 0.20266 0.0
C629 C 0.51898 0.17219 0.20069 0.0
H630 H 0.55342 0.08689 0.17523 0.0
C631 C 0.50008 0.18181 0.16745 0.0
H632 H 0.55451 0.13044 0.22758 0.0
C633 C 0.50007 0.15713 0.13716 0.0
C634 C 0.5185 0.12236 0.13999 0.0
H635 H 0.48426 0.20777 0.16528 0.0
H636 H 0.48447 0.16461 0.11216 0.0
C637 C 0.53839 0.1133 0.1727 0.0
C638 C 0.82216 0.49153 0.1485 0.0
C639 C 0.82445 0.5126 0.18166 0.0
H640 H 0.84948 0.47424 0.09829 0.0
C641 C 0.85809 0.53162 0.19025 0.0
H642 H 0.79711 0.47547 0.14171 0.0
C643 C 0.88861 0.53018 0.16553 0.0
C644 C 0.88559 0.51003 0.13189 0.0
H645 H 0.86058 0.54799 0.21567 0.0
H646 H 0.91413 0.54551 0.17227 0.0
C647 C 0.85225 0.49056 0.12374 0.0
C648 C 0.52683 0.81948 0.14796 0.0
C649 C 0.50564 0.82198 0.1811 0.0
H650 H 0.54479 0.8466 0.09787 0.0
C651 C 0.48711 0.85577 0.1898 0.0
H652 H 0.54253 0.79428 0.14109 0.0
C653 C 0.48912 0.88625 0.16519 0.0
C654 C 0.50937 0.88304 0.13156 0.0
H655 H 0.47066 0.85842 0.21522 0.0
H656 H 0.47411 0.91187 0.17201 0.0
C657 C 0.5284 0.84955 0.12332 0.0
C658 C 0.18396 0.5291 0.16823 0.0
C659 C 0.1746 0.51133 0.20215 0.0
H660 H 0.16688 0.54126 0.11193 0.0
C661 C 0.14094 0.49061 0.20462 0.0
H662 H 0.20974 0.54524 0.16557 0.0
C663 C 0.11649 0.48876 0.17438 0.0
C664 C 0.12546 0.50699 0.14077 0.0
H665 H 0.13353 0.4755 0.22991 0.0
H666 H 0.09055 0.47288 0.1773 0.0
C667 C 0.15959 0.52675 0.13761 0.0
C668 C 0.49674 0.83311 0.86602 0.0
C669 C 0.51536 0.8427 0.83263 0.0
H670 H 0.48194 0.8502 0.92156 0.0
C671 C 0.53566 0.87649 0.83056 0.0
H672 H 0.4807 0.80729 0.86823 0.0
C673 C 0.53587 0.90113 0.86067 0.0
C674 C 0.51622 0.89217 0.89358 0.0
H675 H 0.55107 0.8841 0.80548 0.0
H676 H 0.55126 0.92732 0.85807 0.0
C677 C 0.49735 0.85763 0.89643 0.0
C678 C 0.19798 0.48715 0.88679 0.0
C679 C 0.19527 0.50563 0.85216 0.0
H680 H 0.17115 0.47386 0.93848 0.0
C681 C 0.16121 0.52321 0.84214 0.0
H682 H 0.22349 0.47244 0.89483 0.0
C683 C 0.13078 0.52326 0.86694 0.0
C684 C 0.13433 0.50621 0.9022 0.0
H685 H 0.15845 0.53781 0.81566 0.0
H686 H 0.10502 0.53763 0.85906 0.0
C687 C 0.16796 0.4878 0.91171 0.0
C688 C 0.49462 0.15795 0.84253 0.0
C689 C 0.51251 0.19187 0.85208 0.0
H690 H 0.48071 0.10195 0.85977 0.0
C691 C 0.53209 0.1945 0.88612 0.0
H692 H 0.47914 0.15526 0.81654 0.0
C693 C 0.53221 0.16454 0.91099 0.0
C694 C 0.51353 0.13104 0.90196 0.0
H695 H 0.54705 0.21991 0.89377 0.0
H696 H 0.54686 0.16772 0.93738 0.0
C697 C 0.49538 0.12758 0.86725 0.0
C698 C 0.82973 0.53159 0.8786 0.0
C699 C 0.83039 0.50778 0.84733 0.0
H700 H 0.85853 0.55091 0.92717 0.0
C701 C 0.86317 0.48712 0.83922 0.0
H702 H 0.80528 0.54882 0.88475 0.0
C703 C 0.89414 0.48877 0.86343 0.0
C704 C 0.89228 0.51094 0.89586 0.0
H705 H 0.86432 0.46885 0.81502 0.0
H706 H 0.9187 0.47157 0.85771 0.0
C707 C 0.86026 0.53298 0.90272 0.0
C708 C 0.64655 0.69072 0.04101 0.0
C709 C 0.68026 0.68886 0.02054 0.0
H710 H 0.59578 0.66299 0.05677 0.0
C711 C 0.69046 0.65493 1.00304 0.0
H712 H 0.63852 0.7161 0.05573 0.0
C713 C 0.66621 0.62398 1.00449 0.0
C714 C 0.63145 0.62694 0.02304 0.0
H715 H 0.71635 0.6528 0.98707 0.0
H716 H 0.67376 0.59853 0.98964 0.0
C717 C 0.62224 0.66022 0.0419 0.0
C718 C 0.32843 0.64395 0.0402 0.0
C719 C 0.3292 0.67623 0.0176 0.0
H720 H 0.35725 0.59459 0.05809 0.0
C721 C 0.36215 0.68507 0.99751 0.0
H722 H 0.30391 0.63715 0.05703 0.0
C723 C 0.39321 0.66085 0.99872 0.0
C724 C 0.3913 0.62758 0.01978 0.0
H725 H 0.36344 0.70996 0.98009 0.0
H726 H 0.41795 0.66728 0.98208 0.0
C727 C 0.35903 0.61975 0.04104 0.0
C728 C 0.36032 0.33307 0.04019 0.0
C729 C 0.32651 0.34165 0.02152 0.0
H730 H 0.41668 0.35092 0.05296 0.0
C731 C 0.32442 0.37418 0.99933 0.0
H732 H 0.36265 0.30805 0.05733 0.0
C733 C 0.35483 0.39856 0.99712 0.0
C734 C 0.38822 0.39067 0.01658 0.0
H735 H 0.29918 0.38085 0.98354 0.0
H736 H 0.35213 0.42368 0.98015 0.0
C737 C 0.39113 0.35744 0.03761 0.0
C738 C 0.64426 0.32153 0.99735 0.0
C739 C 0.67765 0.32367 0.0184 0.0
H740 H 0.59401 0.34918 0.97965 0.0
C741 C 0.687 0.3575 0.03642 0.0
H742 H 0.63694 0.29628 0.98206 0.0
C743 C 0.66258 0.38828 0.03435 0.0
C744 C 0.62851 0.38532 0.01451 0.0
H745 H 0.71267 0.35988 0.05269 0.0
H746 H 0.66968 0.41383 0.04924 0.0
C747 C 0.61983 0.35191 0.99567 0.0
C748 C 0.04037 0.64031 0.70104 0.0
C749 C 0.01974 0.67394 0.69954 0.0
H750 H 0.05532 0.58941 0.67324 0.0
C751 C 1.00036 0.68348 0.66654 0.0
H752 H 0.05638 0.63274 0.72576 0.0
C753 C 1.00033 0.65891 0.63613 0.0
C754 C 0.01925 0.62439 0.63864 0.0
H755 H 0.98407 0.70918 0.66474 0.0
H756 H 0.9842 0.66617 0.6114 0.0
C757 C 0.03987 0.61561 0.67099 0.0
C758 C 0.35855 0.03139 0.69031 0.0
C759 C 0.32486 0.01244 0.6818 0.0
H760 H 0.41463 0.04502 0.67227 0.0
C761 C 0.32252 0.99114 0.64879 0.0
H762 H 0.36106 0.04792 0.71563 0.0
C763 C 0.35262 0.9899 0.62407 0.0
C764 C 0.38599 0.00935 0.63211 0.0
H765 H 0.29742 0.97513 0.64209 0.0
H766 H 0.34981 0.97344 0.59871 0.0
C767 C 0.38908 0.0297 0.66563 0.0
C768 C 0.9859 0.35718 0.69232 0.0
C769 C 0.00454 0.3235 0.68336 0.0
H770 H 0.97271 0.41342 0.6748 0.0
C771 C 0.02605 0.32144 0.65041 0.0
H772 H 0.96932 0.35951 0.71769 0.0
C773 C 0.02759 0.35167 0.62606 0.0
C774 C 0.00825 0.38497 0.63436 0.0
H775 H 0.0419 0.29637 0.64339 0.0
H776 H 0.04406 0.34894 0.60066 0.0
C777 C 0.98789 0.38791 0.66795 0.0
C778 C 0.68535 0.01952 0.66729 0.0
C779 C 0.67548 1.00162 0.701 0.0
H780 H 0.66841 0.03359 0.61148 0.0
C781 C 0.64129 0.98184 0.70331 0.0
H782 H 0.71144 0.0352 0.66485 0.0
C783 C 0.61658 0.98147 0.67314 0.0
C784 C 0.62589 1.00035 0.63992 0.0
H785 H 0.63341 0.96697 0.72861 0.0
H786 H 0.59002 0.96662 0.67592 0.0
C787 C 0.66078 0.01867 0.63683 0.0
C788 C 0.03295 0.37514 0.33246 0.0
C789 C 0.01281 0.34127 0.33446 0.0
H790 H 0.04847 0.42581 0.35998 0.0
C791 C 0.99512 0.33109 0.36824 0.0
H792 H 0.0478 0.38322 0.30719 0.0
C793 C 0.99638 0.35523 0.39902 0.0
C794 C 0.01487 0.38995 0.39608 0.0
H795 H 0.9793 0.30514 0.37047 0.0
H796 H 0.98163 0.34747 0.42444 0.0
C797 C 0.03362 0.39938 0.3628 0.0
C798 C 0.6975 0.98732 0.38631 0.0
C799 C 0.69488 1.00593 0.35176 0.0
H800 H 0.67061 0.97394 0.43792 0.0
C801 C 0.66088 0.02362 0.34173 0.0
H802 H 0.72296 0.97251 0.39434 0.0
C803 C 0.63042 0.02369 0.36651 0.0
C804 C 0.6339 0.00654 0.40173 0.0
H805 H 0.65821 0.03829 0.31528 0.0
H806 H 0.6047 0.03815 0.35866 0.0
C807 C 0.66747 0.98798 0.41119 0.0
C808 C 0.034 0.69248 0.38488 0.0
C809 C 0.01402 0.69017 0.35106 0.0
H810 H 0.04898 0.66541 0.43588 0.0
C811 C 0.99622 0.65623 0.34132 0.0
H812 H 0.04894 0.71786 0.39265 0.0
C813 C 0.99719 0.62564 0.36581 0.0
C814 C 0.01546 0.62893 0.40048 0.0
H815 H 0.98048 0.65375 0.31546 0.0
H816 H 0.9824 0.60008 0.35835 0.0
C817 C 0.0343 0.66235 0.40951 0.0
C818 C 0.36286 0.98677 0.33949 0.0
C819 C 0.32989 0.00713 0.3476 0.0
H820 H 0.41854 0.97174 0.35791 0.0
C821 C 0.329 0.03084 0.37894 0.0
H822 H 0.36422 0.96855 0.31526 0.0
C823 C 0.35952 0.03247 0.40307 0.0
C824 C 0.39178 0.01081 0.39613 0.0
H825 H 0.3044 0.04786 0.3851 0.0
H826 H 0.35763 0.05034 0.42756 0.0
C827 C 0.39382 0.98869 0.36368 0.0
C828 C 0.04895 0.18302 0.36931 0.0
C829 C 0.0333 0.17696 0.33362 0.0
H830 H 0.05463 0.16363 0.42591 0.0
C831 C 0.00949 0.14589 0.32838 0.0
H832 H 0.06736 0.20684 0.37418 0.0
C833 C 1.00286 0.12053 0.35794 0.0
C834 C 0.01901 0.12638 0.39359 0.0
H835 H 0.99715 0.14046 0.30119 0.0
H836 H 0.98535 0.09612 0.35282 0.0
C837 C 0.04149 0.1584 0.39904 0.0
C838 C 0.83563 0.04551 0.37018 0.0
C839 C 0.83319 0.01919 0.34074 0.0
H840 H 0.86419 0.06269 0.42023 0.0
C841 C 0.8625 0.99286 0.33667 0.0
H842 H 0.81389 0.0666 0.37383 0.0
C843 C 0.89198 0.99126 0.36304 0.0
C844 C 0.89209 0.01535 0.39433 0.0
H845 H 0.86138 0.97203 0.31462 0.0
H846 H 0.91353 0.96986 0.36011 0.0
C847 C 0.86421 0.04312 0.39701 0.0
C848 C 0.02301 0.85824 0.33704 0.0
C849 C 0.99798 0.82806 0.34258 0.0
H850 H 0.04533 0.91003 0.35901 0.0
C851 C 0.97327 0.82955 0.37355 0.0
H852 H 0.04262 0.85792 0.31379 0.0
C853 C 0.976 0.85823 0.40014 0.0
C854 C 1.00249 0.88713 0.39585 0.0
H855 H 0.95313 0.80717 0.3784 0.0
H856 H 0.95761 0.85753 0.42438 0.0
C857 C 0.02493 0.88775 0.36325 0.0
C858 C 0.15945 0.98995 0.33586 0.0
C859 C 0.19175 0.01185 0.34258 0.0
H860 H 0.10561 0.97131 0.35696 0.0
C861 C 0.19257 0.03459 0.3749 0.0
H862 H 0.15799 0.97205 0.31141 0.0
C863 C 0.16367 0.03308 0.40139 0.0
C864 C 0.13234 0.00979 0.39582 0.0
H865 H 0.2167 0.05238 0.38065 0.0
H866 H 0.16603 0.05 0.42648 0.0
C867 C 0.12976 0.98923 0.36215 0.0
C868 C 0.01009 0.86976 0.70467 0.0
C869 C 0.0346 0.83926 0.69917 0.0
H870 H 0.98444 0.91888 0.68044 0.0
C871 C 0.04978 0.83336 0.66325 0.0
H872 H 0.9981 0.87503 0.73205 0.0
C873 C 0.04126 0.85766 0.63356 0.0
C874 C 0.01814 0.88919 0.63926 0.0
H875 H 0.06871 0.80998 0.65819 0.0
H876 H 0.05414 0.85264 0.60651 0.0
C877 C 1.00239 0.89482 0.67512 0.0
C878 C 0.18849 0.97725 0.66227 0.0
C879 C 0.18803 1.00157 0.69341 0.0
H880 H 0.16218 0.96057 0.61094 0.0
C881 C 0.15653 0.02493 0.69867 0.0
H882 H 0.21235 0.95879 0.65752 0.0
C883 C 0.12728 0.02549 0.67198 0.0
C884 C 0.12963 1.00337 0.63929 0.0
H885 H 0.1556 0.04426 0.72205 0.0
H886 H 0.10382 0.04462 0.6759 0.0
C887 C 0.16005 0.97858 0.6353 0.0
C888 C 0.99326 0.1544 0.69799 0.0
C889 C 0.01483 0.18693 0.69169 0.0
H890 H 0.97534 0.10081 0.67629 0.0
C891 C 0.03771 0.18846 0.65939 0.0
H892 H 0.97512 0.15248 0.72232 0.0
C893 C 0.03666 0.15998 0.63256 0.0
C894 C 0.01372 0.12836 0.63771 0.0
H895 H 0.055 0.21297 0.65382 0.0
H896 H 0.05357 0.16294 0.60749 0.0
C897 C 0.99304 0.12514 0.67137 0.0
C898 C 0.83522 0.9684 0.6624 0.0
C899 C 0.84092 0.98432 0.698 0.0
H900 H 0.85457 0.96352 0.60567 0.0
C901 C 0.87078 0.00972 0.7029 0.0
H902 H 0.81227 0.94882 0.6578 0.0
C903 C 0.89554 0.01757 0.67314 0.0
C904 C 0.89023 1.00101 0.63764 0.0
H905 H 0.87583 0.02236 0.73001 0.0
H906 H 0.91921 0.03619 0.67803 0.0
C907 C 0.85925 0.97702 0.63244 0.0
C908 C 0.32294 0.00889 0.15488 0.0
C909 C 0.32947 0.03214 0.18591 0.0
H910 H 0.34627 0.98394 0.10521 0.0
C911 C 0.36616 0.04589 0.19206 0.0
H912 H 0.29494 0.99796 0.14947 0.0
C913 C 0.39567 0.03716 0.16749 0.0
C914 C 0.389 0.01524 0.13552 0.0
H915 H 0.37202 0.06377 0.21589 0.0
H916 H 0.42338 0.04888 0.17274 0.0
C917 C 0.35233 1.00096 0.1296 0.0
C918 C 0.02114 0.32793 0.16637 0.0
C919 C 0.99673 0.33372 0.19691 0.0
H920 H 0.04249 0.34963 0.11417 0.0
C921 C 0.97209 0.36489 0.19563 0.0
H922 H 0.04066 0.30451 0.16645 0.0
C923 C 0.97429 0.3914 0.16677 0.0
C924 C 1.00015 0.38685 0.13746 0.0
H925 H 0.95231 0.36993 0.21821 0.0
H926 H 0.95599 0.41579 0.16766 0.0
C927 C 0.02252 0.35407 0.13671 0.0
C928 C 0.65744 0.96336 0.19246 0.0
C929 C 0.6934 0.97945 0.18767 0.0
H930 H 0.60085 0.95805 0.17185 0.0
C931 C 0.69924 1.00417 0.15759 0.0
H932 H 0.6521 0.9443 0.21554 0.0
C933 C 0.66996 0.01147 0.13201 0.0
C934 C 0.63402 0.99503 0.13666 0.0
H935 H 0.72664 0.01693 0.15322 0.0
H936 H 0.67551 0.02985 0.10845 0.0
C937 C 0.62798 0.97143 0.16759 0.0
C938 C 0.00824 0.69666 0.15497 0.0
C939 C 0.03159 0.69057 0.18613 0.0
H940 H 0.98408 0.67307 0.105 0.0
C941 C 0.04627 0.65433 0.19216 0.0
H942 H 0.99667 0.72432 0.14958 0.0
C943 C 0.03834 0.62486 0.16742 0.0
C944 C 0.01636 0.63112 0.13532 0.0
H945 H 0.06431 0.64881 0.21603 0.0
H946 H 0.05076 0.59752 0.17264 0.0
C947 C 1.00116 0.66733 0.12948 0.0
C948 C 0.32436 1.00396 0.87685 0.0
C949 C 0.33214 0.98195 0.84518 0.0
H950 H 0.3461 0.02812 0.9276 0.0
C951 C 0.36932 0.96943 0.8393 0.0
H952 H 0.29597 0.01394 0.88209 0.0
C953 C 0.39811 0.97824 0.86462 0.0
C954 C 0.39028 0.99904 0.89709 0.0
H955 H 0.37616 0.95253 0.81501 0.0
H956 H 0.42624 0.96751 0.85943 0.0
C957 C 0.35308 0.012 0.90284 0.0
C958 C 0.01505 0.32005 0.87795 0.0
C959 C 0.03726 0.32743 0.84621 0.0
H960 H 0.9913 0.34203 0.92887 0.0
C961 C 0.05093 0.36414 0.84069 0.0
H962 H 0.00421 0.29204 0.88297 0.0
C963 C 0.0429 0.39284 0.86626 0.0
C964 C 0.02172 0.38545 0.89867 0.0
H965 H 0.06806 0.37071 0.81641 0.0
H966 H 0.05437 0.4206 0.86116 0.0
C967 C 0.00777 0.34869 0.9042 0.0
C968 C 0.6929 0.99483 0.86858 0.0
C969 C 0.68689 0.01915 0.8381 0.0
H970 H 0.67155 0.97384 0.92106 0.0
C971 C 0.65619 0.04434 0.83982 0.0
H972 H 0.71601 0.97491 0.86808 0.0
C973 C 0.63011 0.04269 0.86912 0.0
C974 C 0.63468 0.01675 0.89831 0.0
H975 H 0.65103 0.06395 0.81717 0.0
H976 H 0.60588 0.06128 0.86855 0.0
C977 C 0.66718 0.99391 0.89865 0.0
C978 C 0.97855 0.65102 0.83783 0.0
C979 C 0.003 0.68232 0.83684 0.0
H980 H 0.96241 0.6001 0.86568 0.0
C981 C 0.02695 0.68838 0.86766 0.0
H982 H 0.95919 0.64579 0.81495 0.0
C983 C 0.0281 0.66232 0.89739 0.0
C984 C 0.00598 0.6294 0.89635 0.0
H985 H 0.0463 0.71193 0.86775 0.0
H986 H 0.04768 0.66693 0.92021 0.0
C987 C 0.98054 0.62461 0.86674 0.0
C988 C 0.15724 0.3262 0.03793 0.0
C989 C 0.18895 0.33222 0.01507 0.0
H990 H 0.1039 0.34808 0.05711 0.0
C991 C 0.18922 0.36382 0.99123 0.0
H992 H 0.15634 0.30235 0.05677 0.0
C993 C 0.16038 0.39045 0.99253 0.0
C994 C 0.12971 0.38571 0.01677 0.0
H995 H 0.21306 0.36907 0.97294 0.0
H996 H 0.16232 0.41509 0.97481 0.0
C997 C 0.12757 0.35261 0.03845 0.0
C998 C 0.15876 0.68913 1.00232 0.0
C999 C 0.19102 0.68214 0.0241 0.0
H1000 H 0.10484 0.66831 0.98377 0.0
C1001 C 0.19167 0.64973 0.04686 0.0
H1002 H 0.15747 0.71367 0.9844 0.0
C1003 C 0.16257 0.62338 0.0455 0.0
C1004 C 0.13128 0.62917 0.02227 0.0
H1005 H 0.21582 0.64379 0.06451 0.0
H1006 H 0.16478 0.59817 0.06241 0.0
C1007 C 0.12892 0.66296 1.00168 0.0
C1008 C 0.36769 0.18489 0.98089 0.0
C1009 C 0.33079 0.17853 0.99398 0.0
H1010 H 0.42485 0.16532 0.97817 0.0
C1011 C 0.32382 0.14684 0.01635 0.0
H1012 H 0.37388 0.20923 0.96369 0.0
C1013 C 0.353 0.12117 0.02407 0.0
C1014 C 0.38988 0.12731 0.01044 0.0
H1015 H 0.29567 0.14126 0.02677 0.0
H1016 H 0.34662 0.09629 0.04038 0.0
C1017 C 0.39697 0.1599 0.98941 0.0
C1018 C 0.87013 0.32133 0.01233 0.0
C1019 C 0.84007 0.32728 0.98747 0.0
H1020 H 0.91884 0.3451 0.0391 0.0
C1021 C 0.83471 0.3634 0.97233 0.0
H1022 H 0.87486 0.29381 0.02443 0.0
C1023 C 0.85914 0.39294 0.98139 0.0
C1024 C 0.8901 0.38681 1.00512 0.0
H1025 H 0.81158 0.3688 0.95323 0.0
H1026 H 0.8546 0.42022 0.96864 0.0
C1027 C 0.89521 0.35071 0.02068 0.0
C1028 C 0.6545 0.82811 0.9795 0.0
C1029 C 0.6862 0.82698 1.00335 0.0
H1030 H 0.60331 0.85631 0.96425 0.0
C1031 C 0.69271 0.85778 0.02714 0.0
H1032 H 0.64898 0.80532 0.96018 0.0
C1033 C 0.6667 0.88762 0.0288 0.0
C1034 C 0.63341 0.88676 1.00726 0.0
H1035 H 0.71662 0.85778 0.04602 0.0
H1036 H 0.67163 0.91037 0.04833 0.0
C1037 C 0.62814 0.85721 0.98192 0.0
C1038 C 0.87253 0.69659 0.01341 0.0
C1039 C 0.8432 0.69226 0.03943 0.0
H1040 H 0.92011 0.67081 0.98639 0.0
C1041 C 0.83743 0.65683 0.05597 0.0
H1042 H 0.87754 0.72358 1.00027 0.0
C1043 C 0.86092 0.62642 0.04728 0.0
C1044 C 0.89139 0.63107 0.02262 0.0
H1045 H 0.81483 0.65272 0.076 0.0
H1046 H 0.85628 0.59976 0.06122 0.0
C1047 C 0.89678 0.66639 1.0055 0.0
C1048 C 0.36631 0.83212 0.05645 0.0
C1049 C 0.32951 0.83832 0.04304 0.0
H1050 H 0.42362 0.85129 0.05855 0.0
C1051 C 0.32288 0.86914 0.0194 0.0
H1052 H 0.37222 0.80843 0.07461 0.0
C1053 C 0.35229 0.89422 0.01076 0.0
C1054 C 0.38905 0.88828 0.02472 0.0
H1055 H 0.2948 0.87455 1.0087 0.0
H1056 H 0.34617 0.91852 0.99351 0.0
C1057 C 0.39583 0.85649 0.04702 0.0
C1058 C 0.65486 0.18638 0.98975 0.0
C1059 C 0.68704 0.18641 0.01289 0.0
H1060 H 0.60358 0.15891 0.97423 0.0
C1061 C 0.69408 0.15478 0.03544 0.0
H1062 H 0.64888 0.21011 0.97164 0.0
C1063 C 0.66805 0.12484 0.03638 0.0
C1064 C 0.63439 0.12663 0.01539 0.0
H1065 H 0.71847 0.15411 0.05368 0.0
H1066 H 0.6733 0.10124 0.05483 0.0
C1067 C 0.62866 0.15724 0.99142 0.0
C1068 C 0.55011 0.68343 0.87029 0.0
C1069 C 0.53452 0.67749 0.83455 0.0
H1070 H 0.55549 0.66395 0.9269 0.0
C1071 C 0.51045 0.64664 0.82923 0.0
H1072 H 0.56871 0.70709 0.87522 0.0
C1073 C 0.50353 0.62134 0.85876 0.0
C1074 C 0.51966 0.62702 0.89444 0.0
H1075 H 0.49814 0.64133 0.80201 0.0
H1076 H 0.48585 0.59707 0.85357 0.0
C1077 C 0.54237 0.65885 0.89999 0.0
C1078 C 0.33599 0.54569 0.86994 0.0
C1079 C 0.33353 0.51937 0.84052 0.0
H1080 H 0.36465 0.56291 0.91991 0.0
C1081 C 0.36293 0.49316 0.8363 0.0
H1082 H 0.31416 0.56668 0.87371 0.0
C1083 C 0.39252 0.49164 0.86256 0.0
C1084 C 0.39263 0.51571 0.89386 0.0
H1085 H 0.36179 0.47233 0.81424 0.0
H1086 H 0.41411 0.4703 0.85956 0.0
C1087 C 0.36468 0.54338 0.89665 0.0
C1088 C 0.47238 0.33179 0.87123 0.0
C1089 C 0.49808 0.32955 0.84111 0.0
H1090 H 0.4561 0.36004 0.92172 0.0
C1091 C 0.5243 0.35887 0.83651 0.0
H1092 H 0.45143 0.31 0.87538 0.0
C1093 C 0.52636 0.3882 0.86292 0.0
C1094 C 0.50289 0.38816 0.89479 0.0
H1095 H 0.5447 0.3579 0.81396 0.0
H1096 H 0.54765 0.40978 0.85947 0.0
C1097 C 0.47524 0.36022 0.89806 0.0
C1098 C 0.65977 0.49136 0.83628 0.0
C1099 C 0.69229 0.51282 0.84329 0.0
H1100 H 0.60576 0.473 0.85712 0.0
C1101 C 0.6934 0.53507 0.87594 0.0
H1102 H 0.65808 0.47386 0.81156 0.0
C1103 C 0.66449 0.5335 0.90242 0.0
C1104 C 0.6329 0.51065 0.89651 0.0
H1105 H 0.7177 0.55255 0.88191 0.0
H1106 H 0.66703 0.55006 0.92774 0.0
C1107 C 0.63011 0.49058 0.86257 0.0
C1108 C 0.55016 0.33233 0.16219 0.0
C1109 C 0.535 0.33804 0.19814 0.0
H1110 H 0.5544 0.35187 0.10552 0.0
C1111 C 0.51043 0.36845 0.2038 0.0
H1112 H 0.56912 0.30902 0.157 0.0
C1113 C 0.50262 0.39361 0.17437 0.0
C1114 C 0.51834 0.38818 0.13846 0.0
H1115 H 0.49843 0.37358 0.23121 0.0
H1116 H 0.4846 0.41759 0.17981 0.0
C1117 C 0.54154 0.35674 0.1326 0.0
C1118 C 0.65609 0.52434 0.19905 0.0
C1119 C 0.68762 0.50102 0.19374 0.0
H1120 H 0.60329 0.54391 0.17637 0.0
C1121 C 0.68801 0.4766 0.16268 0.0
H1122 H 0.65521 0.54373 0.22238 0.0
C1123 C 0.65946 0.47781 0.13581 0.0
C1124 C 0.62903 0.50258 0.13982 0.0
H1125 H 0.71189 0.45818 0.15789 0.0
H1126 H 0.66157 0.45977 0.11147 0.0
C1127 C 0.62673 0.52478 0.17245 0.0
C1128 C 0.49149 0.65411 0.19787 0.0
C1129 C 0.51498 0.68547 0.19251 0.0
H1130 H 0.47182 0.60146 0.17534 0.0
C1131 C 0.53934 0.68581 0.16131 0.0
H1132 H 0.47212 0.65323 0.22131 0.0
C1133 C 0.538 0.65739 0.13446 0.0
C1134 C 0.5132 0.62706 0.13855 0.0
H1135 H 0.55795 0.7095 0.15646 0.0
H1136 H 0.5561 0.65944 0.11016 0.0
C1137 C 0.49096 0.62485 0.17127 0.0
C1138 C 0.36927 0.50479 0.20181 0.0
C1139 C 0.33829 0.48116 0.19517 0.0
H1140 H 0.41918 0.53034 0.179 0.0
C1141 C 0.33256 0.46719 0.15878 0.0
H1142 H 0.37434 0.51596 0.22954 0.0
C1143 C 0.3575 0.4761 0.12969 0.0
C1144 C 0.38937 0.49849 0.13649 0.0
H1145 H 0.30876 0.44904 0.15283 0.0
H1146 H 0.35262 0.46419 0.10221 0.0
C1147 C 0.39486 0.51297 0.17285 0.0
C1148 C 0.86552 0.54856 0.69212 0.0
C1149 C 0.82894 0.5344 0.68625 0.0
H1150 H 0.92268 0.55171 0.67266 0.0
C1151 C 0.82252 0.51071 0.65553 0.0
H1152 H 0.87129 0.56678 0.71573 0.0
C1153 C 0.85191 0.50266 0.63031 0.0
C1154 C 0.88848 0.51729 0.63598 0.0
H1155 H 0.79461 0.49944 0.65035 0.0
H1156 H 0.84595 0.48523 0.60619 0.0
C1157 C 0.89504 0.53972 0.66761 0.0
C1158 C 0.52247 0.82711 0.66514 0.0
C1159 C 0.49795 0.83251 0.69563 0.0
H1160 H 0.54351 0.84922 0.613 0.0
C1161 C 0.47263 0.86312 0.6943 0.0
H1162 H 0.54252 0.80414 0.66534 0.0
C1163 C 0.47433 0.88963 0.66544 0.0
C1164 C 0.50038 0.88558 0.63622 0.0
H1165 H 0.45288 0.86785 0.71697 0.0
H1166 H 0.45561 0.9137 0.66631 0.0
C1167 C 0.52337 0.85323 0.63547 0.0
C1168 C 0.19896 0.50493 0.65778 0.0
C1169 C 0.19314 0.4802 0.68786 0.0
H1170 H 0.17514 0.53071 0.60873 0.0
C1171 C 0.15714 0.46426 0.69279 0.0
H1172 H 0.22639 0.51758 0.65331 0.0
C1173 C 0.12761 0.47245 0.66804 0.0
C1174 C 0.13363 0.49603 0.63709 0.0
H1175 H 0.15183 0.44519 0.71586 0.0
H1176 H 0.10045 0.45916 0.67237 0.0
C1177 C 0.16961 0.51236 0.63232 0.0
C1178 C 0.50915 0.1955 0.65577 0.0
C1179 C 0.53244 0.18931 0.68695 0.0
H1180 H 0.48495 0.17206 0.60577 0.0
C1181 C 0.54699 0.153 0.69296 0.0
H1182 H 0.49766 0.22319 0.6504 0.0
C1183 C 0.53901 0.12358 0.66816 0.0
C1184 C 0.51709 0.12995 0.63604 0.0
H1185 H 0.56496 0.14739 0.71686 0.0
H1186 H 0.55133 0.0962 0.67336 0.0
C1187 C 0.502 0.16622 0.63025 0.0
C1188 C 0.82403 0.50344 0.37715 0.0
C1189 C 0.83196 0.48159 0.34542 0.0
H1190 H 0.84554 0.52739 0.42811 0.0
C1191 C 0.86916 0.46907 0.33967 0.0
H1192 H 0.79562 0.51342 0.38229 0.0
C1193 C 0.89782 0.47775 0.36517 0.0
C1194 C 0.88985 0.49843 0.39768 0.0
H1195 H 0.87612 0.45227 0.31534 0.0
H1196 H 0.92597 0.46703 0.36005 0.0
C1197 C 0.85262 0.51136 0.40333 0.0
C1198 C 0.5147 0.8208 0.37654 0.0
C1199 C 0.53729 0.82823 0.34508 0.0
H1200 H 0.49055 0.84262 0.42732 0.0
C1201 C 0.55123 0.86488 0.33988 0.0
H1202 H 0.50364 0.79283 0.38129 0.0
C1203 C 0.54309 0.89349 0.36551 0.0
C1204 C 0.52152 0.88603 0.39765 0.0
H1205 H 0.56864 0.87148 0.31581 0.0
H1206 H 0.55477 0.92121 0.36071 0.0
C1207 C 0.50731 0.84932 0.40285 0.0
C1208 C 0.19331 0.52623 0.37 0.0
C1209 C 0.18665 0.50336 0.33863 0.0
H1210 H 0.17232 0.54542 0.42334 0.0
C1211 C 0.15499 0.4794 0.33898 0.0
H1212 H 0.21723 0.54517 0.37041 0.0
C1213 C 0.1289 0.48059 0.36816 0.0
C1214 C 0.13419 0.50487 0.3985 0.0
H1215 H 0.14925 0.46113 0.31541 0.0
H1216 H 0.10416 0.46283 0.36668 0.0
C1217 C 0.1674 0.52667 0.39998 0.0
C1218 C 0.52714 0.18839 0.36817 0.0
C1219 C 0.50252 0.18281 0.33779 0.0
H1220 H 0.5484 0.1665 0.42034 0.0
C1221 C 0.47734 0.15212 0.33929 0.0
H1222 H 0.54707 0.21146 0.36782 0.0
C1223 C 0.47927 0.1257 0.36819 0.0
C1224 C 0.50541 0.12992 0.39728 0.0
H1225 H 0.45753 0.14725 0.31671 0.0
H1226 H 0.46063 0.10156 0.36747 0.0
C1227 C 0.52826 0.16235 0.39791 0.0
C1228 C 0.68917 0.86366 0.48992 0.0
C1229 C 0.68886 0.83199 0.51367 0.0
H1230 H 0.66221 0.91489 0.47353 0.0
C1231 C 0.65705 0.82579 0.53634 0.0
H1232 H 0.71311 0.86903 0.47179 0.0
C1233 C 0.62731 0.85211 0.5368 0.0
C1234 C 0.62948 0.88528 0.51523 0.0
H1235 H 0.65613 0.80189 0.55511 0.0
H1236 H 0.60358 0.84748 0.55536 0.0
C1237 C 0.66024 0.89019 0.49114 0.0
C1238 C 0.69191 0.14898 0.54722 0.0
C1239 C 0.69108 0.18161 0.52477 0.0
H1240 H 0.66515 0.09726 0.5625 0.0
C1241 C 0.65867 0.18877 0.50328 0.0
H1242 H 0.71616 0.14291 0.56468 0.0
C1243 C 0.62885 0.16258 0.50259 0.0
C1244 C 0.63135 0.12861 0.52287 0.0
H1245 H 0.65722 0.21348 0.48561 0.0
H1246 H 0.60465 0.16809 0.4849 0.0
C1247 C 0.66281 0.12261 0.54582 0.0
C1248 C 0.82378 0.64726 0.51495 0.0
C1249 C 0.83085 0.6787 0.49225 0.0
H1250 H 0.8464 0.59689 0.53949 0.0
C1251 C 0.86773 0.68474 0.47898 0.0
H1252 H 0.79563 0.64194 0.52553 0.0
C1253 C 0.89691 0.6597 0.48769 0.0
C1254 C 0.88972 0.6274 0.50911 0.0
H1255 H 0.87401 0.70889 0.46155 0.0
H1256 H 0.9248 0.66489 0.47635 0.0
C1257 C 0.85284 0.62155 0.52287 0.0
C1258 C 0.33428 0.86346 0.47191 0.0
C1259 C 0.33963 0.82727 0.48687 0.0
H1260 H 0.35427 0.92025 0.4684 0.0
C1261 C 0.3698 0.82114 0.51154 0.0
H1262 H 0.31107 0.869 0.45295 0.0
C1263 C 0.39498 0.85042 0.51992 0.0
C1264 C 0.38985 0.8866 0.50456 0.0
H1265 H 0.37453 0.79355 0.5235 0.0
H1266 H 0.41868 0.84467 0.53821 0.0
C1267 C 0.35881 0.89291 0.48099 0.0
C1268 C 0.19305 0.35934 0.49984 0.0
C1269 C 0.18527 0.32643 0.52023 0.0
H1270 H 0.17298 0.41395 0.48294 0.0
C1271 C 0.15223 0.32515 0.54219 0.0
H1272 H 0.21816 0.36115 0.48265 0.0
C1273 C 0.12609 0.35439 0.54137 0.0
C1274 C 0.13269 0.38642 0.51954 0.0
H1275 H 0.14574 0.30056 0.55891 0.0
H1276 H 0.10043 0.35174 0.55764 0.0
C1277 C 0.16704 0.3893 0.49976 0.0
C1278 C 0.33576 0.15363 0.55817 0.0
C1279 C 0.34165 0.18992 0.54368 0.0
H1280 H 0.35505 0.09659 0.56109 0.0
C1281 C 0.37192 0.19597 0.51909 0.0
H1282 H 0.31244 0.14819 0.57704 0.0
C1283 C 0.3968 0.16649 0.51047 0.0
C1284 C 0.39118 0.13023 0.52543 0.0
H1285 H 0.37704 0.22365 0.50752 0.0
H1286 H 0.4207 0.17214 0.4924 0.0
C1287 C 0.35994 0.124 0.54878 0.0
C1288 C 0.86556 0.33225 0.55794 0.0
C1289 C 0.82882 0.33835 0.54436 0.0
H1290 H 0.92282 0.35154 0.56029 0.0
C1291 C 0.8222 0.36919 0.52074 0.0
H1292 H 0.87147 0.30855 0.57609 0.0
C1293 C 0.85159 0.39436 0.51225 0.0
C1294 C 0.88831 0.38849 0.52634 0.0
H1295 H 0.79416 0.37454 0.50992 0.0
H1296 H 0.84549 0.41865 0.49497 0.0
C1297 C 0.89506 0.3567 0.54866 0.0
C1298 C 0.1547 0.68649 0.48977 0.0
C1299 C 0.18687 0.68637 0.51293 0.0
H1300 H 0.10337 0.65922 0.47418 0.0
C1301 C 0.19383 0.65467 0.53539 0.0
H1302 H 0.14878 0.71031 0.47176 0.0
C1303 C 0.16772 0.62479 0.53623 0.0
C1304 C 0.13408 0.62671 0.51522 0.0
H1305 H 0.2182 0.6539 0.55365 0.0
H1306 H 0.17292 0.60112 0.55461 0.0
C1307 C 0.12844 0.65741 0.49135 0.0
loop_
_geom_bond_atom_site_label_1
_geom_bond_atom_site_label_2
_geom_bond_distance
_geom_bond_site_symmetry_2
_ccdc_geom_bond_type
H0 C5 0.930 1_655 S
H1 C8 0.929 1_655 S
H2 C10 0.930 . S
H3 C4 1.016 . S
C4 H3 1.016 . S
C4 N11 1.286 1_455 S
C5 H0 0.930 1_455 S
C5 C6 1.396 . S
C5 C7 1.361 1_455 S
C6 C5 1.396 . S
C6 C10 1.390 . S
C7 C5 1.361 1_655 S
C7 C8 1.393 1_655 S
C7 N11 1.413 . S
C8 H1 0.929 1_455 S
C8 C7 1.393 1_455 S
C8 C9 1.399 . S
C9 C8 1.399 . S
C9 C10 1.381 . S
C10 H2 0.930 . S
C10 C6 1.390 . S
C10 C9 1.381 . S
N11 C4 1.286 1_655 S
N11 C7 1.413 . S
H12 C17 0.930 . S
H13 C20 0.930 . S
H14 C22 0.930 . S
H15 C16 1.024 . S
C16 H15 1.024 . S
C16 N23 1.275 1_565 S
C17 H12 0.930 . S
C17 C18 1.397 . S
C17 C19 1.361 . S
C18 C17 1.397 . S
C18 C22 1.390 1_545 S
C19 C17 1.361 . S
C19 C20 1.393 . S
C19 N23 1.413 . S
C20 H13 0.930 . S
C20 C19 1.393 . S
C20 C21 1.399 . S
C21 C20 1.399 . S
C21 C22 1.381 1_545 S
C22 H14 0.930 . S
C22 C18 1.390 1_565 S
C22 C21 1.381 1_565 S
N23 C16 1.275 1_545 S
N23 C19 1.413 . S
H24 C29 0.931 . S
H25 C32 0.931 . S
H26 C34 0.930 . S
H27 C28 1.016 . S
C28 H27 1.016 . S
C28 N35 1.286 1_455 S
C29 H24 0.931 . S
C29 C30 1.395 1_655 S
C29 C31 1.362 . S
C30 C29 1.395 1_455 S
C30 C34 1.390 . S
C31 C29 1.362 . S
C31 C32 1.393 1_655 S
C31 N35 1.413 . S
C32 H25 0.931 . S
C32 C31 1.393 1_455 S
C32 C33 1.399 . S
C33 C32 1.399 . S
C33 C34 1.381 . S
C34 H26 0.930 . S
C34 C30 1.390 . S
C34 C33 1.381 . S
N35 C28 1.286 1_655 S
N35 C31 1.413 . S
H36 C41 0.930 . S
H37 C44 0.930 . S
H38 C46 0.930 . S
H39 C40 1.016 . S
C40 H39 1.016 . S
C40 N47 1.286 1_545 S
C41 H36 0.930 . S
C41 C42 1.397 . S
C41 C43 1.361 . S
C42 C41 1.397 . S
C42 C46 1.390 1_565 S
C43 C41 1.361 . S
C43 C44 1.393 . S
C43 N47 1.413 . S
C44 H37 0.930 . S
C44 C43 1.393 . S
C44 C45 1.401 . S
C45 C44 1.401 . S
C45 C46 1.379 1_565 S
C46 H38 0.930 . S
C46 C42 1.390 1_545 S
C46 C45 1.379 1_545 S
N47 C40 1.286 1_565 S
N47 C43 1.413 . S
H48 C53 0.929 1_655 S
H49 C56 0.929 1_655 S
H50 C58 0.930 . S
H51 C52 1.016 . S
C52 H51 1.016 . S
C52 N59 1.286 1_455 S
C53 H48 0.929 1_455 S
C53 C54 1.397 . S
C53 C55 1.361 1_455 S
C54 C53 1.397 . S
C54 C58 1.390 . S
C55 C53 1.361 1_655 S
C55 C56 1.393 1_655 S
C55 N59 1.413 . S
C56 H49 0.929 1_455 S
C56 C55 1.393 1_455 S
C56 C57 1.399 . S
C57 C56 1.399 . S
C57 C58 1.381 . S
C58 H50 0.930 . S
C58 C54 1.390 . S
C58 C57 1.381 . S
N59 C52 1.286 1_655 S
N59 C55 1.413 . S
H60 C65 0.930 . S
H61 C68 0.930 . S
H62 C70 0.930 . S
H63 C64 1.021 . S
C64 H63 1.021 . S
C64 N71 1.279 1_565 S
C65 H60 0.930 . S
C65 C66 1.397 . S
C65 C67 1.361 . S
C66 C65 1.397 . S
C66 C70 1.390 1_545 S
C67 C65 1.361 . S
C67 C68 1.393 . S
C67 N71 1.413 . S
C68 H61 0.930 . S
C68 C67 1.393 . S
C68 C69 1.399 . S
C69 C68 1.399 . S
C69 C70 1.381 1_545 S
C70 H62 0.930 . S
C70 C66 1.390 1_565 S
C70 C69 1.381 1_565 S
N71 C64 1.279 1_545 S
N71 C67 1.413 . S
H72 C77 0.930 . S
H73 C80 0.931 . S
H74 C82 0.930 . S
H75 C76 1.016 . S
C76 H75 1.016 . S
C76 N83 1.286 1_455 S
C77 H72 0.930 . S
C77 C78 1.397 1_655 S
C77 C79 1.361 . S
C78 C77 1.397 1_455 S
C78 C82 1.390 . S
C79 C77 1.361 . S
C79 C80 1.393 1_655 S
C79 N83 1.413 . S
C80 H73 0.931 . S
C80 C79 1.393 1_455 S
C80 C81 1.399 . S
C81 C80 1.399 . S
C81 C82 1.381 . S
C82 H74 0.930 . S
C82 C78 1.390 . S
C82 C81 1.381 . S
N83 C76 1.286 1_655 S
N83 C79 1.413 . S
H84 C89 0.930 . S
H85 C92 0.930 . S
H86 C94 0.930 . S
H87 C88 1.022 . S
C88 H87 1.022 . S
C88 N95 1.278 1_565 S
C89 H84 0.930 . S
C89 C90 1.397 . S
C89 C91 1.361 . S
C90 C89 1.397 . S
C90 C94 1.390 1_545 S
C91 C89 1.361 . S
C91 C92 1.393 . S
C91 N95 1.413 . S
C92 H85 0.930 . S
C92 C91 1.393 . S
C92 C93 1.399 . S
C93 C92 1.399 . S
C93 C94 1.381 1_545 S
C94 H86 0.930 . S
C94 C90 1.390 1_565 S
C94 C93 1.381 1_565 S
N95 C88 1.278 1_545 S
N95 C91 1.413 . S
H96 C101 0.930 . S
H97 C104 0.930 . S
H98 C106 0.929 1_556 S
H99 C100 1.016 1_556 S
C100 H99 1.016 1_554 S
C100 N107 1.286 . S
C101 H96 0.930 . S
C101 C102 1.397 . S
C101 C103 1.361 . S
C102 C101 1.397 . S
C102 C106 1.390 . S
C103 C101 1.361 . S
C103 C104 1.393 . S
C103 N107 1.413 . S
C104 H97 0.930 . S
C104 C103 1.393 . S
C104 C105 1.399 . S
C105 C104 1.399 . S
C105 C106 1.381 . S
C106 H98 0.929 1_554 S
C106 C102 1.390 . S
C106 C105 1.381 . S
N107 C100 1.286 . S
N107 C103 1.413 . S
H108 C113 0.930 . S
H109 C116 0.930 1_556 S
H110 C118 0.930 . S
H111 C112 1.016 . S
C112 H111 1.016 . S
C112 N119 1.286 1_554 S
C113 H108 0.930 . S
C113 C114 1.397 1_556 S
C113 C115 1.361 . S
C114 C113 1.397 1_554 S
C114 C118 1.390 . S
C115 C113 1.361 . S
C115 C116 1.393 1_556 S
C115 N119 1.413 . S
C116 H109 0.930 1_554 S
C116 C115 1.393 1_554 S
C116 C117 1.398 . S
C117 C116 1.398 . S
C117 C118 1.381 . S
C118 H110 0.930 . S
C118 C114 1.390 . S
C118 C117 1.381 . S
N119 C112 1.286 1_556 S
N119 C115 1.413 . S
H120 C125 0.930 . S
H121 C128 0.930 . S
H122 C130 0.930 1_556 S
H123 C124 1.016 1_556 S
C124 H123 1.016 1_554 S
C124 N131 1.286 . S
C125 H120 0.930 . S
C125 C126 1.397 . S
C125 C127 1.361 . S
C126 C125 1.397 . S
C126 C130 1.390 . S
C127 C125 1.361 . S
C127 C128 1.393 . S
C127 N131 1.413 . S
C128 H121 0.930 . S
C128 C127 1.393 . S
C128 C129 1.399 . S
C129 C128 1.399 . S
C129 C130 1.381 . S
C130 H122 0.930 1_554 S
C130 C126 1.390 . S
C130 C129 1.381 . S
N131 C124 1.286 . S
N131 C127 1.413 . S
H132 C137 0.930 . S
H133 C140 0.929 1_556 S
H134 C142 0.930 . S
H135 C136 1.016 . S
C136 H135 1.016 . S
C136 N143 1.286 1_554 S
C137 H132 0.930 . S
C137 C138 1.397 1_556 S
C137 C139 1.361 . S
C138 C137 1.397 1_554 S
C138 C142 1.390 . S
C139 C137 1.361 . S
C139 C140 1.392 1_556 S
C139 N143 1.413 . S
C140 H133 0.929 1_554 S
C140 C139 1.392 1_554 S
C140 C141 1.401 . S
C141 C140 1.401 . S
C141 C142 1.381 . S
C142 H134 0.930 . S
C142 C138 1.390 . S
C142 C141 1.381 . S
N143 C136 1.286 1_556 S
N143 C139 1.413 . S
H144 C149 0.930 . S
H145 C152 0.930 . S
H146 C154 0.930 . S
H147 C148 1.016 . S
C148 H147 1.016 . S
C148 N155 1.286 . S
C149 H144 0.930 . S
C149 C150 1.397 . S
C149 C151 1.361 . S
C150 C149 1.397 . S
C150 C154 1.390 . S
C151 C149 1.361 . S
C151 C152 1.393 . S
C151 N155 1.413 . S
C152 H145 0.930 . S
C152 C151 1.393 . S
C152 C153 1.399 . S
C153 C152 1.399 . S
C153 C154 1.381 . S
C154 H146 0.930 . S
C154 C150 1.390 . S
C154 C153 1.381 . S
N155 C148 1.286 . S
N155 C151 1.413 . S
H156 C161 0.930 . S
H157 C164 0.930 . S
H158 C166 0.930 . S
H159 C160 1.016 . S
C160 H159 1.016 . S
C160 N167 1.286 . S
C161 H156 0.930 . S
C161 C162 1.397 . S
C161 C163 1.361 . S
C162 C161 1.397 . S
C162 C166 1.390 . S
C163 C161 1.361 . S
C163 C164 1.393 . S
C163 N167 1.413 . S
C164 H157 0.930 . S
C164 C163 1.393 . S
C164 C165 1.399 . S
C165 C164 1.399 . S
C165 C166 1.381 . S
C166 H158 0.930 . S
C166 C162 1.390 . S
C166 C165 1.381 . S
N167 C160 1.286 . S
N167 C163 1.413 . S
H168 C173 0.930 . S
H169 C176 0.930 . S
H170 C178 0.930 . S
H171 C172 1.016 . S
C172 H171 1.016 . S
C172 N179 1.286 . S
C173 H168 0.930 . S
C173 C174 1.397 . S
C173 C175 1.361 . S
C174 C173 1.397 . S
C174 C178 1.390 . S
C175 C173 1.361 . S
C175 C176 1.393 . S
C175 N179 1.413 . S
C176 H169 0.930 . S
C176 C175 1.393 . S
C176 C177 1.399 . S
C177 C176 1.399 . S
C177 C178 1.381 . S
C178 H170 0.930 . S
C178 C174 1.390 . S
C178 C177 1.381 . S
N179 C172 1.286 . S
N179 C175 1.413 . S
H180 C185 0.930 . S
H181 C188 0.930 . S
H182 C190 0.930 . S
H183 C184 1.016 . S
C184 H183 1.016 . S
C184 N191 1.286 . S
C185 H180 0.930 . S
C185 C186 1.397 . S
C185 C187 1.361 . S
C186 C185 1.397 . S
C186 C190 1.390 . S
C187 C185 1.361 . S
C187 C188 1.393 . S
C187 N191 1.413 . S
C188 H181 0.930 . S
C188 C187 1.393 . S
C188 C189 1.399 . S
C189 C188 1.399 . S
C189 C190 1.381 . S
C190 H182 0.930 . S
C190 C186 1.390 . S
C190 C189 1.381 . S
N191 C184 1.286 . S
N191 C187 1.413 . S
H192 C197 0.930 . S
H193 C200 0.930 . S
H194 C202 0.930 . S
H195 C196 1.016 . S
C196 H195 1.016 . S
C196 N203 1.286 . S
C197 H192 0.930 . S
C197 C198 1.397 . S
C197 C199 1.361 . S
C198 C197 1.397 . S
C198 C202 1.390 . S
C199 C197 1.361 . S
C199 C200 1.393 . S
C199 N203 1.413 . S
C200 H193 0.930 . S
C200 C199 1.393 . S
C200 C201 1.399 . S
C201 C200 1.399 . S
C201 C202 1.381 . S
C202 H194 0.930 . S
C202 C198 1.390 . S
C202 C201 1.381 . S
N203 C196 1.286 . S
N203 C199 1.413 . S
H204 C209 0.930 . S
H205 C212 0.930 . S
H206 C214 0.930 . S
H207 C208 1.016 . S
C208 H207 1.016 . S
C208 N215 1.286 . S
C209 H204 0.930 . S
C209 C210 1.397 . S
C209 C211 1.361 . S
C210 C209 1.397 . S
C210 C214 1.390 . S
C211 C209 1.361 . S
C211 C212 1.393 . S
C211 N215 1.413 . S
C212 H205 0.930 . S
C212 C211 1.393 . S
C212 C213 1.399 . S
C213 C212 1.399 . S
C213 C214 1.381 . S
C214 H206 0.930 . S
C214 C210 1.390 . S
C214 C213 1.381 . S
N215 C208 1.286 . S
N215 C211 1.413 . S
H216 C221 0.930 . S
H217 C224 0.930 . S
H218 C226 0.930 . S
H219 C220 1.016 . S
C220 H219 1.016 . S
C220 N227 1.286 . S
C221 H216 0.930 . S
C221 C222 1.397 . S
C221 C223 1.361 . S
C222 C221 1.397 . S
C222 C226 1.390 . S
C223 C221 1.361 . S
C223 C224 1.393 . S
C223 N227 1.413 . S
C224 H217 0.930 . S
C224 C223 1.393 . S
C224 C225 1.399 . S
C225 C224 1.399 . S
C225 C226 1.381 . S
C226 H218 0.930 . S
C226 C222 1.390 . S
C226 C225 1.381 . S
N227 C220 1.286 . S
N227 C223 1.413 . S
H228 C233 0.930 . S
H229 C236 0.930 . S
H230 C238 0.930 . S
H231 C232 1.016 . S
C232 H231 1.016 . S
C232 N239 1.286 . S
C233 H228 0.930 . S
C233 C234 1.397 . S
C233 C235 1.361 . S
C234 C233 1.397 . S
C234 C238 1.390 . S
C235 C233 1.361 . S
C235 C236 1.393 . S
C235 N239 1.413 . S
C236 H229 0.930 . S
C236 C235 1.393 . S
C236 C237 1.399 . S
C237 C236 1.399 . S
C237 C238 1.381 . S
C238 H230 0.930 . S
C238 C234 1.390 . S
C238 C237 1.381 . S
N239 C232 1.286 . S
N239 C235 1.413 . S
H240 C245 0.930 . S
H241 C248 0.930 . S
H242 C250 0.930 . S
H243 C244 1.016 . S
C244 H243 1.016 . S
C244 N251 1.286 . S
C245 H240 0.930 . S
C245 C246 1.397 . S
C245 C247 1.361 . S
C246 C245 1.397 . S
C246 C250 1.390 . S
C247 C245 1.361 . S
C247 C248 1.393 . S
C247 N251 1.413 . S
C248 H241 0.930 . S
C248 C247 1.393 . S
C248 C249 1.399 . S
C249 C248 1.399 . S
C249 C250 1.381 . S
C250 H242 0.930 . S
C250 C246 1.390 . S
C250 C249 1.381 . S
N251 C244 1.286 . S
N251 C247 1.413 . S
H252 C257 0.930 . S
H253 C260 0.930 . S
H254 C262 0.930 . S
H255 C256 1.016 . S
C256 H255 1.016 . S
C256 N263 1.286 . S
C257 H252 0.930 . S
C257 C258 1.397 . S
C257 C259 1.361 . S
C258 C257 1.397 . S
C258 C262 1.390 . S
C259 C257 1.361 . S
C259 C260 1.393 . S
C259 N263 1.413 . S
C260 H253 0.930 . S
C260 C259 1.393 . S
C260 C261 1.399 . S
C261 C260 1.399 . S
C261 C262 1.381 . S
C262 H254 0.930 . S
C262 C258 1.390 . S
C262 C261 1.381 . S
N263 C256 1.286 . S
N263 C259 1.413 . S
H264 C269 0.930 . S
H265 C272 0.930 . S
H266 C274 0.930 . S
H267 C268 1.016 . S
C268 H267 1.016 . S
C268 N275 1.286 . S
C269 H264 0.930 . S
C269 C270 1.397 . S
C269 C271 1.361 . S
C270 C269 1.397 . S
C270 C274 1.390 . S
C271 C269 1.361 . S
C271 C272 1.393 . S
C271 N275 1.413 . S
C272 H265 0.930 . S
C272 C271 1.393 . S
C272 C273 1.399 . S
C273 C272 1.399 . S
C273 C274 1.381 . S
C274 H266 0.930 . S
C274 C270 1.390 . S
C274 C273 1.381 . S
N275 C268 1.286 . S
N275 C271 1.413 . S
H276 C281 0.930 . S
H277 C284 0.930 . S
H278 C286 0.930 . S
H279 C280 1.016 . S
C280 H279 1.016 . S
C280 N287 1.286 . S
C281 H276 0.930 . S
C281 C282 1.397 . S
C281 C283 1.361 . S
C282 C281 1.397 . S
C282 C286 1.390 . S
C283 C281 1.361 . S
C283 C284 1.393 . S
C283 N287 1.413 . S
C284 H277 0.930 . S
C284 C283 1.393 . S
C284 C285 1.399 . S
C285 C284 1.399 . S
C285 C286 1.381 . S
C286 H278 0.930 . S
C286 C282 1.390 . S
C286 C285 1.381 . S
N287 C280 1.286 . S
N287 C283 1.413 . S
C288 O314 1.283 . S
C288 O332 1.283 . S
C289 O315 1.283 . S
C289 O330 1.283 . S
C290 O316 1.283 . S
C290 O333 1.283 . S
C291 O317 1.283 . S
C291 O331 1.283 . S
C292 O318 1.283 . S
C292 O327 1.283 . S
C293 O319 1.283 . S
C293 O329 1.283 . S
C294 O320 1.283 . S
C294 O326 1.283 . S
C295 O321 1.283 . S
C295 O328 1.283 . S
C296 O322 1.283 . S
C296 O337 1.283 . S
C297 O323 1.283 . S
C297 O335 1.283 . S
C298 O324 1.283 . S
C298 O336 1.283 . S
C299 O325 1.283 . S
C299 O334 1.283 . S
Eu300 O301 2.370 1_455 S
Eu300 O302 2.370 . S
Eu300 O305 2.370 1_455 S
Eu300 O306 2.370 . S
Eu300 O314 2.363 . S
Eu300 O315 2.363 . S
Eu300 O328 2.363 . S
Eu300 O329 2.363 1_455 S
O301 Eu300 2.370 1_655 S
O301 Eu303 2.363 1_565 S
O301 Eu308 2.363 1_665 S
O302 Eu300 2.370 . S
O302 Eu304 2.363 1_565 S
O302 Eu307 2.362 1_565 S
Eu303 O301 2.363 1_545 S
Eu303 O305 2.363 1_545 S
Eu303 O309 2.378 . S
Eu303 O310 2.378 . S
Eu303 O318 2.376 . S
Eu303 O319 2.350 1_545 S
Eu303 O334 2.363 . S
Eu303 O335 2.363 . S
Eu304 O302 2.363 1_545 S
Eu304 O306 2.363 1_545 S
Eu304 O311 2.378 . S
Eu304 O312 2.378 . S
Eu304 O320 2.375 . S
Eu304 O321 2.350 1_545 S
Eu304 O336 2.363 . S
Eu304 O337 2.363 . S
O305 Eu300 2.370 1_655 S
O305 Eu303 2.363 1_565 S
O305 Eu307 2.362 1_665 S
O306 Eu300 2.370 . S
O306 Eu304 2.363 1_565 S
O306 Eu308 2.363 1_565 S
Eu307 O302 2.362 1_545 S
Eu307 O305 2.362 1_445 S
Eu307 O309 2.378 1_455 S
Eu307 O312 2.378 . S
Eu307 O324 2.363 . S
Eu307 O325 2.363 1_455 S
Eu307 O332 2.350 1_545 S
Eu307 O333 2.376 . S
Eu308 O301 2.363 1_445 S
Eu308 O306 2.363 1_545 S
Eu308 O310 2.377 1_455 S
Eu308 O311 2.377 . S
Eu308 O322 2.363 . S
Eu308 O323 2.363 1_455 S
Eu308 O330 2.351 1_545 S
Eu308 O331 2.375 . S
O309 Eu303 2.378 . S
O309 Eu307 2.378 1_655 S
O309 Eu313 2.370 1_655 S
O310 Eu303 2.378 . S
O310 Eu308 2.377 1_655 S
O310 Eu313 2.370 1_655 S
O311 Eu304 2.378 . S
O311 Eu308 2.377 . S
O311 Eu313 2.370 . S
O312 Eu304 2.378 . S
O312 Eu307 2.378 . S
O312 Eu313 2.370 . S
Eu313 O309 2.370 1_455 S
Eu313 O310 2.370 1_455 S
Eu313 O311 2.370 . S
Eu313 O312 2.370 . S
Eu313 O316 2.363 . S
Eu313 O317 2.363 . S
Eu313 O326 2.363 . S
Eu313 O327 2.363 1_455 S
O314 C288 1.283 . S
O314 Eu300 2.363 . S
O315 C289 1.283 . S
O315 Eu300 2.363 . S
O316 C290 1.283 . S
O316 Eu313 2.363 . S
O317 C291 1.283 . S
O317 Eu313 2.363 . S
O318 C292 1.283 . S
O318 Eu303 2.376 . S
O319 C293 1.283 . S
O319 Eu303 2.350 1_565 S
O320 C294 1.283 . S
O320 Eu304 2.375 . S
O321 C295 1.283 . S
O321 Eu304 2.350 1_565 S
O322 C296 1.283 . S
O322 Eu308 2.363 . S
O323 C297 1.283 . S
O323 Eu308 2.363 1_655 S
O324 C298 1.283 . S
O324 Eu307 2.363 . S
O325 C299 1.283 . S
O325 Eu307 2.363 1_655 S
O326 C294 1.283 . S
O326 Eu313 2.363 . S
O327 C292 1.283 . S
O327 Eu313 2.363 1_655 S
O328 C295 1.283 . S
O328 Eu300 2.363 . S
O329 C293 1.283 . S
O329 Eu300 2.363 1_655 S
O330 C289 1.283 . S
O330 Eu308 2.351 1_565 S
O331 C291 1.283 . S
O331 Eu308 2.375 . S
O332 C288 1.283 . S
O332 Eu307 2.350 1_565 S
O333 C290 1.283 . S
O333 Eu307 2.376 . S
O334 C299 1.283 . S
O334 Eu303 2.363 . S
O335 C297 1.283 . S
O335 Eu303 2.363 . S
O336 C298 1.283 . S
O336 Eu304 2.363 . S
O337 C296 1.283 . S
O337 Eu304 2.363 . S
C338 O364 1.283 . S
C338 O382 1.283 . S
C339 O365 1.283 . S
C339 O380 1.283 . S
C340 O366 1.283 . S
C340 O383 1.283 . S
C341 O367 1.283 . S
C341 O381 1.283 . S
C342 O368 1.283 . S
C342 O377 1.283 . S
C343 O369 1.283 . S
C343 O379 1.283 . S
C344 O370 1.283 . S
C344 O376 1.283 . S
C345 O371 1.283 . S
C345 O378 1.283 . S
C346 O372 1.283 . S
C346 O387 1.283 . S
C347 O373 1.283 . S
C347 O385 1.283 . S
C348 O374 1.283 . S
C348 O386 1.283 . S
C349 O375 1.283 . S
C349 O384 1.283 . S
Eu350 O351 2.372 . S
Eu350 O352 2.368 1_545 S
Eu350 O355 2.368 1_545 S
Eu350 O356 2.372 . S
Eu350 O364 2.360 1_545 S
Eu350 O365 2.366 . S
Eu350 O378 2.363 . S
Eu350 O379 2.363 . S
O351 Eu350 2.372 . S
O351 Eu353 2.377 . S
O351 Eu358 2.370 . S
O352 Eu350 2.368 1_565 S
O352 Eu354 2.363 1_565 S
O352 Eu357 2.370 . S
Eu353 O351 2.377 . S
Eu353 O355 2.363 1_545 S
Eu353 O359 2.363 1_544 S
Eu353 O360 2.377 1_554 S
Eu353 O368 2.363 1_554 S
Eu353 O369 2.363 . S
Eu353 O384 2.351 1_545 S
Eu353 O385 2.375 . S
Eu354 O352 2.363 1_545 S
Eu354 O356 2.377 . S
Eu354 O361 2.377 1_554 S
Eu354 O362 2.363 1_544 S
Eu354 O370 2.363 1_554 S
Eu354 O371 2.363 . S
Eu354 O386 2.351 1_545 S
Eu354 O387 2.375 . S
O355 Eu350 2.368 1_565 S
O355 Eu353 2.363 1_565 S
O355 Eu357 2.370 . S
O356 Eu350 2.372 . S
O356 Eu354 2.377 . S
O356 Eu358 2.370 . S
Eu357 O352 2.370 . S
Eu357 O355 2.370 . S
Eu357 O359 2.370 1_554 S
Eu357 O362 2.370 1_554 S
Eu357 O374 2.363 . S
Eu357 O375 2.363 . S
Eu357 O382 2.363 . S
Eu357 O383 2.363 1_554 S
Eu358 O351 2.370 . S
Eu358 O356 2.370 . S
Eu358 O360 2.370 1_554 S
Eu358 O361 2.370 1_554 S
Eu358 O372 2.363 . S
Eu358 O373 2.363 . S
Eu358 O380 2.363 . S
Eu358 O381 2.363 1_554 S
O359 Eu353 2.363 1_566 S
O359 Eu357 2.370 1_556 S
O359 Eu363 2.358 1_565 S
O360 Eu353 2.377 1_556 S
O360 Eu358 2.370 1_556 S
O360 Eu363 2.382 . S
O361 Eu354 2.377 1_556 S
O361 Eu358 2.370 1_556 S
O361 Eu363 2.382 . S
O362 Eu354 2.363 1_566 S
O362 Eu357 2.370 1_556 S
O362 Eu363 2.358 1_565 S
Eu363 O359 2.358 1_545 S
Eu363 O360 2.382 . S
Eu363 O361 2.382 . S
Eu363 O362 2.358 1_545 S
Eu363 O366 2.342 1_545 S
Eu363 O367 2.384 . S
Eu363 O376 2.363 . S
Eu363 O377 2.363 . S
O364 C338 1.283 . S
O364 Eu350 2.360 1_565 S
O365 C339 1.283 . S
O365 Eu350 2.366 . S
O366 C340 1.283 . S
O366 Eu363 2.342 1_565 S
O367 C341 1.283 . S
O367 Eu363 2.384 . S
O368 C342 1.283 . S
O368 Eu353 2.363 1_556 S
O369 C343 1.283 . S
O369 Eu353 2.363 . S
O370 C344 1.283 . S
O370 Eu354 2.363 1_556 S
O371 C345 1.283 . S
O371 Eu354 2.363 . S
O372 C346 1.283 . S
O372 Eu358 2.363 . S
O373 C347 1.283 . S
O373 Eu358 2.363 . S
O374 C348 1.283 . S
O374 Eu357 2.363 . S
O375 C349 1.283 . S
O375 Eu357 2.363 . S
O376 C344 1.283 . S
O376 Eu363 2.363 . S
O377 C342 1.283 . S
O377 Eu363 2.363 . S
O378 C345 1.283 . S
O378 Eu350 2.363 . S
O379 C343 1.283 . S
O379 Eu350 2.363 . S
O380 C339 1.283 . S
O380 Eu358 2.363 . S
O381 C341 1.283 . S
O381 Eu358 2.363 1_556 S
O382 C338 1.283 . S
O382 Eu357 2.363 . S
O383 C340 1.283 . S
O383 Eu357 2.363 1_556 S
O384 C349 1.283 . S
O384 Eu353 2.351 1_565 S
O385 C347 1.283 . S
O385 Eu353 2.375 . S
O386 C348 1.283 . S
O386 Eu354 2.351 1_565 S
O387 C346 1.283 . S
O387 Eu354 2.375 . S
C388 O414 1.283 . S
C388 O432 1.283 . S
C389 O415 1.283 . S
C389 O430 1.283 . S
C390 O416 1.283 . S
C390 O433 1.283 . S
C391 O417 1.283 . S
C391 O431 1.283 . S
C392 O418 1.283 . S
C392 O427 1.283 . S
C393 O419 1.283 . S
C393 O429 1.283 . S
C394 O420 1.283 . S
C394 O426 1.283 . S
C395 O421 1.283 . S
C395 O428 1.283 . S
C396 O422 1.283 . S
C396 O437 1.283 . S
C397 O423 1.283 . S
C397 O435 1.283 . S
C398 O424 1.283 . S
C398 O436 1.283 . S
C399 O425 1.283 . S
C399 O434 1.283 . S
Eu400 O401 2.370 1_454 S
Eu400 O402 2.370 . S
Eu400 O405 2.370 1_455 S
Eu400 O406 2.370 1_554 S
Eu400 O414 2.363 . S
Eu400 O415 2.363 1_554 S
Eu400 O428 2.363 . S
Eu400 O429 2.363 1_455 S
O401 Eu400 2.370 1_656 S
O401 Eu403 2.370 1_556 S
O401 Eu408 2.370 1_655 S
O402 Eu400 2.370 . S
O402 Eu404 2.370 . S
O402 Eu407 2.370 . S
Eu403 O401 2.370 1_554 S
Eu403 O405 2.370 . S
Eu403 O409 2.370 . S
Eu403 O410 2.370 1_554 S
Eu403 O418 2.363 . S
Eu403 O419 2.363 . S
Eu403 O434 2.363 . S
Eu403 O435 2.363 1_554 S
Eu404 O402 2.370 . S
Eu404 O406 2.370 1_554 S
Eu404 O411 2.370 1_554 S
Eu404 O412 2.370 . S
Eu404 O420 2.363 . S
Eu404 O421 2.363 . S
Eu404 O436 2.363 . S
Eu404 O437 2.363 1_554 S
O405 Eu400 2.370 1_655 S
O405 Eu403 2.370 . S
O405 Eu407 2.370 1_655 S
O406 Eu400 2.370 1_556 S
O406 Eu404 2.370 1_556 S
O406 Eu408 2.370 . S
Eu407 O402 2.370 . S
Eu407 O405 2.370 1_455 S
Eu407 O409 2.370 1_455 S
Eu407 O412 2.370 . S
Eu407 O424 2.363 . S
Eu407 O425 2.363 1_455 S
Eu407 O432 2.363 . S
Eu407 O433 2.363 . S
Eu408 O401 2.370 1_455 S
Eu408 O406 2.370 . S
Eu408 O410 2.370 1_455 S
Eu408 O411 2.370 . S
Eu408 O422 2.363 . S
Eu408 O423 2.363 1_455 S
Eu408 O430 2.363 . S
Eu408 O431 2.363 . S
O409 Eu403 2.370 . S
O409 Eu407 2.370 1_655 S
O409 Eu413 2.370 1_655 S
O410 Eu403 2.370 1_556 S
O410 Eu408 2.370 1_655 S
O410 Eu413 2.370 1_656 S
O411 Eu404 2.370 1_556 S
O411 Eu408 2.370 . S
O411 Eu413 2.370 1_556 S
O412 Eu404 2.370 . S
O412 Eu407 2.370 . S
O412 Eu413 2.370 . S
Eu413 O409 2.370 1_455 S
Eu413 O410 2.370 1_454 S
Eu413 O411 2.370 1_554 S
Eu413 O412 2.370 . S
Eu413 O416 2.363 . S
Eu413 O417 2.363 1_554 S
Eu413 O426 2.363 . S
Eu413 O427 2.363 1_455 S
O414 C388 1.283 . S
O414 Eu400 2.363 . S
O415 C389 1.283 . S
O415 Eu400 2.363 1_556 S
O416 C390 1.283 . S
O416 Eu413 2.363 . S
O417 C391 1.283 . S
O417 Eu413 2.363 1_556 S
O418 C392 1.283 . S
O418 Eu403 2.363 . S
O419 C393 1.283 . S
O419 Eu403 2.363 . S
O420 C394 1.283 . S
O420 Eu404 2.363 . S
O421 C395 1.283 . S
O421 Eu404 2.363 . S
O422 C396 1.283 . S
O422 Eu408 2.363 . S
O423 C397 1.283 . S
O423 Eu408 2.363 1_655 S
O424 C398 1.283 . S
O424 Eu407 2.363 . S
O425 C399 1.283 . S
O425 Eu407 2.363 1_655 S
O426 C394 1.283 . S
O426 Eu413 2.363 . S
O427 C392 1.283 . S
O427 Eu413 2.363 1_655 S
O428 C395 1.283 . S
O428 Eu400 2.363 . S
O429 C393 1.283 . S
O429 Eu400 2.363 1_655 S
O430 C389 1.283 . S
O430 Eu408 2.363 . S
O431 C391 1.283 . S
O431 Eu408 2.363 . S
O432 C388 1.283 . S
O432 Eu407 2.363 . S
O433 C390 1.283 . S
O433 Eu407 2.363 . S
O434 C399 1.283 . S
O434 Eu403 2.363 . S
O435 C397 1.283 . S
O435 Eu403 2.363 1_556 S
O436 C398 1.283 . S
O436 Eu404 2.363 . S
O437 C396 1.283 . S
O437 Eu404 2.363 1_556 S
C438 O464 1.283 . S
C438 O482 1.283 . S
C439 O465 1.283 . S
C439 O480 1.283 . S
C440 O466 1.283 . S
C440 O483 1.283 . S
C441 O467 1.283 . S
C441 O481 1.283 . S
C442 O468 1.283 . S
C442 O477 1.283 . S
C443 O469 1.283 . S
C443 O479 1.283 . S
C444 O470 1.283 . S
C444 O476 1.283 . S
C445 O471 1.283 . S
C445 O478 1.283 . S
C446 O472 1.283 . S
C446 O487 1.283 . S
C447 O473 1.283 . S
C447 O485 1.283 . S
C448 O474 1.283 . S
C448 O486 1.283 . S
C449 O475 1.283 . S
C449 O484 1.283 . S
Eu450 O451 2.370 . S
Eu450 O452 2.370 . S
Eu450 O455 2.370 . S
Eu450 O456 2.370 . S
Eu450 O464 2.363 . S
Eu450 O465 2.363 . S
Eu450 O478 2.363 . S
Eu450 O479 2.363 . S
O451 Eu450 2.370 . S
O451 Eu453 2.370 . S
O451 Eu458 2.370 . S
O452 Eu450 2.370 . S
O452 Eu454 2.370 . S
O452 Eu457 2.370 . S
Eu453 O451 2.370 . S
Eu453 O455 2.370 . S
Eu453 O459 2.370 1_554 S
Eu453 O460 2.370 1_554 S
Eu453 O468 2.363 1_554 S
Eu453 O469 2.363 . S
Eu453 O484 2.363 . S
Eu453 O485 2.363 . S
Eu454 O452 2.370 . S
Eu454 O456 2.370 . S
Eu454 O461 2.370 1_554 S
Eu454 O462 2.370 1_554 S
Eu454 O470 2.363 1_554 S
Eu454 O471 2.363 . S
Eu454 O486 2.363 . S
Eu454 O487 2.363 . S
O455 Eu450 2.370 . S
O455 Eu453 2.370 . S
O455 Eu457 2.370 . S
O456 Eu450 2.370 . S
O456 Eu454 2.370 . S
O456 Eu458 2.370 . S
Eu457 O452 2.370 . S
Eu457 O455 2.370 . S
Eu457 O459 2.370 1_554 S
Eu457 O462 2.370 1_554 S
Eu457 O474 2.363 . S
Eu457 O475 2.363 . S
Eu457 O482 2.363 . S
Eu457 O483 2.363 1_554 S
Eu458 O451 2.370 . S
Eu458 O456 2.370 . S
Eu458 O460 2.370 1_554 S
Eu458 O461 2.370 1_554 S
Eu458 O472 2.363 . S
Eu458 O473 2.363 . S
Eu458 O480 2.363 . S
Eu458 O481 2.363 1_554 S
O459 Eu453 2.370 1_556 S
O459 Eu457 2.370 1_556 S
O459 Eu463 2.370 . S
O460 Eu453 2.370 1_556 S
O460 Eu458 2.370 1_556 S
O460 Eu463 2.370 . S
O461 Eu454 2.370 1_556 S
O461 Eu458 2.370 1_556 S
O461 Eu463 2.370 . S
O462 Eu454 2.370 1_556 S
O462 Eu457 2.370 1_556 S
O462 Eu463 2.370 . S
Eu463 O459 2.370 . S
Eu463 O460 2.370 . S
Eu463 O461 2.370 . S
Eu463 O462 2.370 . S
Eu463 O466 2.363 . S
Eu463 O467 2.363 . S
Eu463 O476 2.363 . S
Eu463 O477 2.363 . S
O464 C438 1.283 . S
O464 Eu450 2.363 . S
O465 C439 1.283 . S
O465 Eu450 2.363 . S
O466 C440 1.283 . S
O466 Eu463 2.363 . S
O467 C441 1.283 . S
O467 Eu463 2.363 . S
O468 C442 1.283 . S
O468 Eu453 2.363 1_556 S
O469 C443 1.283 . S
O469 Eu453 2.363 . S
O470 C444 1.283 . S
O470 Eu454 2.363 1_556 S
O471 C445 1.283 . S
O471 Eu454 2.363 . S
O472 C446 1.283 . S
O472 Eu458 2.363 . S
O473 C447 1.283 . S
O473 Eu458 2.363 . S
O474 C448 1.283 . S
O474 Eu457 2.363 . S
O475 C449 1.283 . S
O475 Eu457 2.363 . S
O476 C444 1.283 . S
O476 Eu463 2.363 . S
O477 C442 1.283 . S
O477 Eu463 2.363 . S
O478 C445 1.283 . S
O478 Eu450 2.363 . S
O479 C443 1.283 . S
O479 Eu450 2.363 . S
O480 C439 1.283 . S
O480 Eu458 2.363 . S
O481 C441 1.283 . S
O481 Eu458 2.363 1_556 S
O482 C438 1.283 . S
O482 Eu457 2.363 . S
O483 C440 1.283 . S
O483 Eu457 2.363 1_556 S
O484 C449 1.283 . S
O484 Eu453 2.363 . S
O485 C447 1.283 . S
O485 Eu453 2.363 . S
O486 C448 1.283 . S
O486 Eu454 2.363 . S
O487 C446 1.283 . S
O487 Eu454 2.363 . S
C488 O514 1.283 . S
C488 O532 1.283 . S
C489 O515 1.283 . S
C489 O530 1.283 . S
C490 O516 1.283 . S
C490 O533 1.283 . S
C491 O517 1.283 . S
C491 O531 1.283 . S
C492 O518 1.283 . S
C492 O527 1.283 . S
C493 O519 1.283 . S
C493 O529 1.283 . S
C494 O520 1.283 . S
C494 O526 1.283 . S
C495 O521 1.283 . S
C495 O528 1.283 . S
C496 O522 1.283 . S
C496 O537 1.283 . S
C497 O523 1.283 . S
C497 O535 1.283 . S
C498 O524 1.283 . S
C498 O536 1.283 . S
C499 O525 1.283 . S
C499 O534 1.283 . S
Eu500 O501 2.370 1_455 S
Eu500 O502 2.370 . S
Eu500 O505 2.370 1_455 S
Eu500 O506 2.370 . S
Eu500 O514 2.363 . S
Eu500 O515 2.363 . S
Eu500 O528 2.363 . S
Eu500 O529 2.363 1_455 S
O501 Eu500 2.370 1_655 S
O501 Eu503 2.370 . S
O501 Eu508 2.370 1_655 S
O502 Eu500 2.370 . S
O502 Eu504 2.370 . S
O502 Eu507 2.370 . S
Eu503 O501 2.370 . S
Eu503 O505 2.370 . S
Eu503 O509 2.370 . S
Eu503 O510 2.370 . S
Eu503 O518 2.363 . S
Eu503 O519 2.363 . S
Eu503 O534 2.363 . S
Eu503 O535 2.363 . S
Eu504 O502 2.370 . S
Eu504 O506 2.370 . S
Eu504 O511 2.370 . S
Eu504 O512 2.370 . S
Eu504 O520 2.363 . S
Eu504 O521 2.363 . S
Eu504 O536 2.363 . S
Eu504 O537 2.363 . S
O505 Eu500 2.370 1_655 S
O505 Eu503 2.370 . S
O505 Eu507 2.370 1_655 S
O506 Eu500 2.370 . S
O506 Eu504 2.370 . S
O506 Eu508 2.370 . S
Eu507 O502 2.370 . S
Eu507 O505 2.370 1_455 S
Eu507 O509 2.370 1_455 S
Eu507 O512 2.370 . S
Eu507 O524 2.363 . S
Eu507 O525 2.363 1_455 S
Eu507 O532 2.363 . S
Eu507 O533 2.363 . S
Eu508 O501 2.370 1_455 S
Eu508 O506 2.370 . S
Eu508 O510 2.370 1_455 S
Eu508 O511 2.370 . S
Eu508 O522 2.363 . S
Eu508 O523 2.363 1_455 S
Eu508 O530 2.363 . S
Eu508 O531 2.363 . S
O509 Eu503 2.370 . S
O509 Eu507 2.370 1_655 S
O509 Eu513 2.370 1_655 S
O510 Eu503 2.370 . S
O510 Eu508 2.370 1_655 S
O510 Eu513 2.370 1_655 S
O511 Eu504 2.370 . S
O511 Eu508 2.370 . S
O511 Eu513 2.370 . S
O512 Eu504 2.370 . S
O512 Eu507 2.370 . S
O512 Eu513 2.370 . S
Eu513 O509 2.370 1_455 S
Eu513 O510 2.370 1_455 S
Eu513 O511 2.370 . S
Eu513 O512 2.370 . S
Eu513 O516 2.363 . S
Eu513 O517 2.363 . S
Eu513 O526 2.363 . S
Eu513 O527 2.363 1_455 S
O514 C488 1.283 . S
O514 Eu500 2.363 . S
O515 C489 1.283 . S
O515 Eu500 2.363 . S
O516 C490 1.283 . S
O516 Eu513 2.363 . S
O517 C491 1.283 . S
O517 Eu513 2.363 . S
O518 C492 1.283 . S
O518 Eu503 2.363 . S
O519 C493 1.283 . S
O519 Eu503 2.363 . S
O520 C494 1.283 . S
O520 Eu504 2.363 . S
O521 C495 1.283 . S
O521 Eu504 2.363 . S
O522 C496 1.283 . S
O522 Eu508 2.363 . S
O523 C497 1.283 . S
O523 Eu508 2.363 1_655 S
O524 C498 1.283 . S
O524 Eu507 2.363 . S
O525 C499 1.283 . S
O525 Eu507 2.363 1_655 S
O526 C494 1.283 . S
O526 Eu513 2.363 . S
O527 C492 1.283 . S
O527 Eu513 2.363 1_655 S
O528 C495 1.283 . S
O528 Eu500 2.363 . S
O529 C493 1.283 . S
O529 Eu500 2.363 1_655 S
O530 C489 1.283 . S
O530 Eu508 2.363 . S
O531 C491 1.283 . S
O531 Eu508 2.363 . S
O532 C488 1.283 . S
O532 Eu507 2.363 . S
O533 C490 1.283 . S
O533 Eu507 2.363 . S
O534 C499 1.283 . S
O534 Eu503 2.363 . S
O535 C497 1.283 . S
O535 Eu503 2.363 . S
O536 C498 1.283 . S
O536 Eu504 2.363 . S
O537 C496 1.283 . S
O537 Eu504 2.363 . S
C538 O564 1.283 . S
C538 O582 1.283 . S
C539 O565 1.283 . S
C539 O580 1.283 . S
C540 O566 1.283 . S
C540 O583 1.283 . S
C541 O567 1.283 . S
C541 O581 1.283 . S
C542 O568 1.283 . S
C542 O577 1.283 . S
C543 O569 1.283 . S
C543 O579 1.283 . S
C544 O570 1.283 . S
C544 O576 1.283 . S
C545 O571 1.283 . S
C545 O578 1.283 . S
C546 O572 1.283 . S
C546 O587 1.283 . S
C547 O573 1.283 . S
C547 O585 1.283 . S
C548 O574 1.283 . S
C548 O586 1.283 . S
C549 O575 1.283 . S
C549 O584 1.283 . S
Eu550 O551 2.370 . S
Eu550 O552 2.370 . S
Eu550 O555 2.370 . S
Eu550 O556 2.370 . S
Eu550 O564 2.363 . S
Eu550 O565 2.363 . S
Eu550 O578 2.363 . S
Eu550 O579 2.363 . S
O551 Eu550 2.370 . S
O551 Eu553 2.363 1_565 S
O551 Eu558 2.364 1_565 S
O552 Eu550 2.370 . S
O552 Eu554 2.363 1_565 S
O552 Eu557 2.363 1_565 S
Eu553 O551 2.363 1_545 S
Eu553 O555 2.363 1_545 S
Eu553 O559 2.377 . S
Eu553 O560 2.377 . S
Eu553 O568 2.375 . S
Eu553 O569 2.351 1_545 S
Eu553 O584 2.363 . S
Eu553 O585 2.363 . S
Eu554 O552 2.363 1_545 S
Eu554 O556 2.363 1_545 S
Eu554 O561 2.377 . S
Eu554 O562 2.377 . S
Eu554 O570 2.375 . S
Eu554 O571 2.351 1_545 S
Eu554 O586 2.363 . S
Eu554 O587 2.363 . S
O555 Eu550 2.370 . S
O555 Eu553 2.363 1_565 S
O555 Eu557 2.363 1_565 S
O556 Eu550 2.370 . S
O556 Eu554 2.363 1_565 S
O556 Eu558 2.364 1_565 S
Eu557 O552 2.363 1_545 S
Eu557 O555 2.363 1_545 S
Eu557 O559 2.378 . S
Eu557 O562 2.378 . S
Eu557 O574 2.363 . S
Eu557 O575 2.363 . S
Eu557 O582 2.350 1_545 S
Eu557 O583 2.376 . S
Eu558 O551 2.364 1_545 S
Eu558 O556 2.364 1_545 S
Eu558 O560 2.376 . S
Eu558 O561 2.376 . S
Eu558 O572 2.363 . S
Eu558 O573 2.363 . S
Eu558 O580 2.352 1_545 S
Eu558 O581 2.374 . S
O559 Eu553 2.377 . S
O559 Eu557 2.378 . S
O559 Eu563 2.370 . S
O560 Eu553 2.377 . S
O560 Eu558 2.376 . S
O560 Eu563 2.370 . S
O561 Eu554 2.377 . S
O561 Eu558 2.376 . S
O561 Eu563 2.370 . S
O562 Eu554 2.377 . S
O562 Eu557 2.378 . S
O562 Eu563 2.370 . S
Eu563 O559 2.370 . S
Eu563 O560 2.370 . S
Eu563 O561 2.370 . S
Eu563 O562 2.370 . S
Eu563 O566 2.363 . S
Eu563 O567 2.363 . S
Eu563 O576 2.363 . S
Eu563 O577 2.363 . S
O564 C538 1.283 . S
O564 Eu550 2.363 . S
O565 C539 1.283 . S
O565 Eu550 2.363 . S
O566 C540 1.283 . S
O566 Eu563 2.363 . S
O567 C541 1.283 . S
O567 Eu563 2.363 . S
O568 C542 1.283 . S
O568 Eu553 2.375 . S
O569 C543 1.283 . S
O569 Eu553 2.351 1_565 S
O570 C544 1.283 . S
O570 Eu554 2.375 . S
O571 C545 1.283 . S
O571 Eu554 2.351 1_565 S
O572 C546 1.283 . S
O572 Eu558 2.363 . S
O573 C547 1.283 . S
O573 Eu558 2.363 . S
O574 C548 1.283 . S
O574 Eu557 2.363 . S
O575 C549 1.283 . S
O575 Eu557 2.363 . S
O576 C544 1.283 . S
O576 Eu563 2.363 . S
O577 C542 1.283 . S
O577 Eu563 2.363 . S
O578 C545 1.283 . S
O578 Eu550 2.363 . S
O579 C543 1.283 . S
O579 Eu550 2.363 . S
O580 C539 1.283 . S
O580 Eu558 2.352 1_565 S
O581 C541 1.283 . S
O581 Eu558 2.374 . S
O582 C538 1.283 . S
O582 Eu557 2.350 1_565 S
O583 C540 1.283 . S
O583 Eu557 2.376 . S
O584 C549 1.283 . S
O584 Eu553 2.363 . S
O585 C547 1.283 . S
O585 Eu553 2.363 . S
O586 C548 1.283 . S
O586 Eu554 2.363 . S
O587 C546 1.283 . S
O587 Eu554 2.363 . S
C588 C589 1.387 . S
C588 H592 0.950 . S
C588 C597 1.390 . S
C589 C588 1.387 . S
C589 C591 1.387 . S
H590 C597 0.950 . S
C591 C589 1.387 . S
C591 C593 1.390 . S
C591 H595 0.950 . S
H592 C588 0.950 . S
C593 C591 1.390 . S
C593 C594 1.387 . S
C593 H596 0.950 . S
C594 C593 1.387 . S
C594 C597 1.387 . S
H595 C591 0.950 . S
H596 C593 0.950 . S
C597 C588 1.390 . S
C597 H590 0.950 . S
C597 C594 1.387 . S
C598 C599 1.387 . S
C598 H602 0.950 . S
C598 C607 1.390 . S
C599 C598 1.387 . S
C599 C601 1.387 . S
H600 C607 0.950 . S
C601 C599 1.387 . S
C601 C603 1.390 . S
C601 H605 0.950 . S
H602 C598 0.950 . S
C603 C601 1.390 . S
C603 C604 1.387 . S
C603 H606 0.950 . S
C604 C603 1.387 . S
C604 C607 1.387 . S
H605 C601 0.950 . S
H606 C603 0.950 . S
C607 C598 1.390 . S
C607 H600 0.950 . S
C607 C604 1.387 . S
C608 C609 1.387 . S
C608 H612 0.950 . S
C608 C617 1.390 . S
C609 C608 1.387 . S
C609 C611 1.387 . S
H610 C617 0.950 . S
C611 C609 1.387 . S
C611 C613 1.390 . S
C611 H615 0.950 . S
H612 C608 0.950 . S
C613 C611 1.390 . S
C613 C614 1.387 . S
C613 H616 0.950 . S
C614 C613 1.387 . S
C614 C617 1.387 . S
H615 C611 0.950 . S
H616 C613 0.950 . S
C617 C608 1.390 . S
C617 H610 0.950 . S
C617 C614 1.387 . S
C618 C619 1.387 . S
C618 H622 0.950 . S
C618 C627 1.390 . S
C619 C618 1.387 . S
C619 C621 1.387 . S
H620 C627 0.950 . S
C621 C619 1.387 . S
C621 C623 1.390 . S
C621 H625 0.950 . S
H622 C618 0.950 . S
C623 C621 1.390 . S
C623 C624 1.387 . S
C623 H626 0.950 . S
C624 C623 1.387 . S
C624 C627 1.387 . S
H625 C621 0.950 . S
H626 C623 0.950 . S
C627 C618 1.390 . S
C627 H620 0.950 . S
C627 C624 1.387 . S
C628 C629 1.387 . S
C628 H632 0.950 . S
C628 C637 1.390 . S
C629 C628 1.387 . S
C629 C631 1.387 . S
H630 C637 0.950 . S
C631 C629 1.387 . S
C631 C633 1.390 . S
C631 H635 0.950 . S
H632 C628 0.950 . S
C633 C631 1.390 . S
C633 C634 1.387 . S
C633 H636 0.950 . S
C634 C633 1.387 . S
C634 C637 1.387 . S
H635 C631 0.950 . S
H636 C633 0.950 . S
C637 C628 1.390 . S
C637 H630 0.950 . S
C637 C634 1.387 . S
C638 C639 1.387 . S
C638 H642 0.950 . S
C638 C647 1.390 . S
C639 C638 1.387 . S
C639 C641 1.387 . S
H640 C647 0.950 . S
C641 C639 1.387 . S
C641 C643 1.390 . S
C641 H645 0.950 . S
H642 C638 0.950 . S
C643 C641 1.390 . S
C643 C644 1.387 . S
C643 H646 0.950 . S
C644 C643 1.387 . S
C644 C647 1.387 . S
H645 C641 0.950 . S
H646 C643 0.950 . S
C647 C638 1.390 . S
C647 H640 0.950 . S
C647 C644 1.387 . S
C648 C649 1.387 . S
C648 H652 0.950 . S
C648 C657 1.390 . S
C649 C648 1.387 . S
C649 C651 1.387 . S
H650 C657 0.950 . S
C651 C649 1.387 . S
C651 C653 1.390 . S
C651 H655 0.950 . S
H652 C648 0.950 . S
C653 C651 1.390 . S
C653 C654 1.387 . S
C653 H656 0.950 . S
C654 C653 1.387 . S
C654 C657 1.387 . S
H655 C651 0.950 . S
H656 C653 0.950 . S
C657 C648 1.390 . S
C657 H650 0.950 . S
C657 C654 1.387 . S
C658 C659 1.387 . S
C658 H662 0.950 . S
C658 C667 1.390 . S
C659 C658 1.387 . S
C659 C661 1.387 . S
H660 C667 0.950 . S
C661 C659 1.387 . S
C661 C663 1.390 . S
C661 H665 0.950 . S
H662 C658 0.950 . S
C663 C661 1.390 . S
C663 C664 1.387 . S
C663 H666 0.950 . S
C664 C663 1.387 . S
C664 C667 1.387 . S
H665 C661 0.950 . S
H666 C663 0.950 . S
C667 C658 1.390 . S
C667 H660 0.950 . S
C667 C664 1.387 . S
C668 C669 1.387 . S
C668 H672 0.950 . S
C668 C677 1.390 . S
C669 C668 1.387 . S
C669 C671 1.387 . S
H670 C677 0.950 . S
C671 C669 1.387 . S
C671 C673 1.390 . S
C671 H675 0.950 . S
H672 C668 0.950 . S
C673 C671 1.390 . S
C673 C674 1.387 . S
C673 H676 0.950 . S
C674 C673 1.387 . S
C674 C677 1.387 . S
H675 C671 0.950 . S
H676 C673 0.950 . S
C677 C668 1.390 . S
C677 H670 0.950 . S
C677 C674 1.387 . S
C678 C679 1.387 . S
C678 H682 0.950 . S
C678 C687 1.390 . S
C679 C678 1.387 . S
C679 C681 1.387 . S
H680 C687 0.950 . S
C681 C679 1.387 . S
C681 C683 1.390 . S
C681 H685 0.950 . S
H682 C678 0.950 . S
C683 C681 1.390 . S
C683 C684 1.387 . S
C683 H686 0.950 . S
C684 C683 1.387 . S
C684 C687 1.387 . S
H685 C681 0.950 . S
H686 C683 0.950 . S
C687 C678 1.390 . S
C687 H680 0.950 . S
C687 C684 1.387 . S
C688 C689 1.387 . S
C688 H692 0.950 . S
C688 C697 1.390 . S
C689 C688 1.387 . S
C689 C691 1.387 . S
H690 C697 0.950 . S
C691 C689 1.387 . S
C691 C693 1.390 . S
C691 H695 0.950 . S
H692 C688 0.950 . S
C693 C691 1.390 . S
C693 C694 1.387 . S
C693 H696 0.950 . S
C694 C693 1.387 . S
C694 C697 1.387 . S
H695 C691 0.950 . S
H696 C693 0.950 . S
C697 C688 1.390 . S
C697 H690 0.950 . S
C697 C694 1.387 . S
C698 C699 1.387 . S
C698 H702 0.950 . S
C698 C707 1.390 . S
C699 C698 1.387 . S
C699 C701 1.387 . S
H700 C707 0.950 . S
C701 C699 1.387 . S
C701 C703 1.390 . S
C701 H705 0.950 . S
H702 C698 0.950 . S
C703 C701 1.390 . S
C703 C704 1.387 . S
C703 H706 0.950 . S
C704 C703 1.387 . S
C704 C707 1.387 . S
H705 C701 0.950 . S
H706 C703 0.950 . S
C707 C698 1.390 . S
C707 H700 0.950 . S
C707 C704 1.387 . S
C708 C709 1.387 . S
C708 H712 0.950 . S
C708 C717 1.390 . S
C709 C708 1.387 . S
C709 C711 1.387 1_554 S
H710 C717 0.950 . S
C711 C709 1.387 1_556 S
C711 C713 1.390 . S
C711 H715 0.950 . S
H712 C708 0.950 . S
C713 C711 1.390 . S
C713 C714 1.387 1_556 S
C713 H716 0.950 . S
C714 C713 1.387 1_554 S
C714 C717 1.387 . S
H715 C711 0.950 . S
H716 C713 0.950 . S
C717 C708 1.390 . S
C717 H710 0.950 . S
C717 C714 1.387 . S
C718 C719 1.387 . S
C718 H722 0.950 . S
C718 C727 1.390 . S
C719 C718 1.387 . S
C719 C721 1.387 1_554 S
H720 C727 0.950 . S
C721 C719 1.387 1_556 S
C721 C723 1.390 . S
C721 H725 0.950 . S
H722 C718 0.950 . S
C723 C721 1.390 . S
C723 C724 1.387 1_556 S
C723 H726 0.950 . S
C724 C723 1.387 1_554 S
C724 C727 1.387 . S
H725 C721 0.950 . S
H726 C723 0.950 . S
C727 C718 1.390 . S
C727 H720 0.950 . S
C727 C724 1.387 . S
C728 C729 1.387 . S
C728 H732 0.950 . S
C728 C737 1.390 . S
C729 C728 1.387 . S
C729 C731 1.387 1_554 S
H730 C737 0.950 . S
C731 C729 1.387 1_556 S
C731 C733 1.390 . S
C731 H735 0.950 . S
H732 C728 0.950 . S
C733 C731 1.390 . S
C733 C734 1.387 1_556 S
C733 H736 0.950 . S
C734 C733 1.387 1_554 S
C734 C737 1.387 . S
H735 C731 0.950 . S
H736 C733 0.950 . S
C737 C728 1.390 . S
C737 H730 0.950 . S
C737 C734 1.387 . S
C738 C739 1.387 1_556 S
C738 H742 0.950 . S
C738 C747 1.390 . S
C739 C738 1.387 1_554 S
C739 C741 1.387 . S
H740 C747 0.950 . S
C741 C739 1.387 . S
C741 C743 1.390 . S
C741 H745 0.950 . S
H742 C738 0.950 . S
C743 C741 1.390 . S
C743 C744 1.387 . S
C743 H746 0.950 . S
C744 C743 1.387 . S
C744 C747 1.387 1_554 S
H745 C741 0.950 . S
H746 C743 0.950 . S
C747 C738 1.390 . S
C747 H740 0.950 . S
C747 C744 1.387 1_556 S
C748 C749 1.387 . S
C748 H752 0.950 . S
C748 C757 1.390 . S
C749 C748 1.387 . S
C749 C751 1.387 1_455 S
H750 C757 0.950 . S
C751 C749 1.387 1_655 S
C751 C753 1.390 . S
C751 H755 0.950 . S
H752 C748 0.950 . S
C753 C751 1.390 . S
C753 C754 1.387 1_655 S
C753 H756 0.950 . S
C754 C753 1.387 1_455 S
C754 C757 1.387 . S
H755 C751 0.950 . S
H756 C753 0.950 . S
C757 C748 1.390 . S
C757 H750 0.950 . S
C757 C754 1.387 . S
C758 C759 1.403 . S
C758 H762 0.950 . S
C758 C767 1.390 . S
C759 C758 1.403 . S
C759 C761 1.372 1_545 S
H760 C767 0.950 . S
C761 C759 1.372 1_565 S
C761 C763 1.390 . S
C761 H765 0.950 . S
H762 C758 0.950 . S
C763 C761 1.390 . S
C763 C764 1.374 1_565 S
C763 H766 0.950 . S
C764 C763 1.374 1_545 S
C764 C767 1.401 . S
H765 C761 0.950 . S
H766 C763 0.950 . S
C767 C758 1.390 . S
C767 H760 0.950 . S
C767 C764 1.401 . S
C768 C769 1.387 1_655 S
C768 H772 0.950 . S
C768 C777 1.390 . S
C769 C768 1.387 1_455 S
C769 C771 1.387 . S
H770 C777 0.950 . S
C771 C769 1.387 . S
C771 C773 1.390 . S
C771 H775 0.950 . S
H772 C768 0.950 . S
C773 C771 1.390 . S
C773 C774 1.387 . S
C773 H776 0.950 . S
C774 C773 1.387 . S
C774 C777 1.387 1_455 S
H775 C771 0.950 . S
H776 C773 0.950 . S
C777 C768 1.390 . S
C777 H770 0.950 . S
C777 C774 1.387 1_655 S
C778 C779 1.400 . S
C778 H782 0.950 . S
C778 C787 1.390 . S
C779 C778 1.400 . S
C779 C781 1.375 1_545 S
H780 C787 0.950 . S
C781 C779 1.375 1_565 S
C781 C783 1.390 . S
C781 H785 0.950 . S
H782 C778 0.950 . S
C783 C781 1.390 . S
C783 C784 1.375 1_565 S
C783 H786 0.950 . S
C784 C783 1.375 1_545 S
C784 C787 1.400 . S
H785 C781 0.950 . S
H786 C783 0.950 . S
C787 C778 1.390 . S
C787 H780 0.950 . S
C787 C784 1.400 . S
C788 C789 1.387 . S
C788 H792 0.950 . S
C788 C797 1.390 . S
C789 C788 1.387 . S
C789 C791 1.387 1_455 S
H790 C797 0.950 . S
C791 C789 1.387 1_655 S
C791 C793 1.390 . S
C791 H795 0.950 . S
H792 C788 0.950 . S
C793 C791 1.390 . S
C793 C794 1.387 1_655 S
C793 H796 0.950 . S
C794 C793 1.387 1_455 S
C794 C797 1.387 . S
H795 C791 0.950 . S
H796 C793 0.950 . S
C797 C788 1.390 . S
C797 H790 0.950 . S
C797 C794 1.387 . S
C798 C799 1.379 1_565 S
C798 H802 0.950 . S
C798 C807 1.390 . S
C799 C798 1.379 1_545 S
C799 C801 1.396 . S
H800 C807 0.950 . S
C801 C799 1.396 . S
C801 C803 1.390 . S
C801 H805 0.950 . S
H802 C798 0.950 . S
C803 C801 1.390 . S
C803 C804 1.397 . S
C803 H806 0.950 . S
C804 C803 1.397 . S
C804 C807 1.378 1_545 S
H805 C801 0.950 . S
H806 C803 0.950 . S
C807 C798 1.390 . S
C807 H800 0.950 . S
C807 C804 1.378 1_565 S
C808 C809 1.387 . S
C808 H812 0.950 . S
C808 C817 1.390 . S
C809 C808 1.387 . S
C809 C811 1.387 1_455 S
H810 C817 0.950 . S
C811 C809 1.387 1_655 S
C811 C813 1.390 . S
C811 H815 0.950 . S
H812 C808 0.950 . S
C813 C811 1.390 . S
C813 C814 1.387 1_655 S
C813 H816 0.950 . S
C814 C813 1.387 1_455 S
C814 C817 1.387 . S
H815 C811 0.950 . S
H816 C813 0.950 . S
C817 C808 1.390 . S
C817 H810 0.950 . S
C817 C814 1.387 . S
C818 C819 1.380 1_565 S
C818 H822 0.950 . S
C818 C827 1.390 . S
C819 C818 1.380 1_545 S
C819 C821 1.395 . S
H820 C827 0.950 . S
C821 C819 1.395 . S
C821 C823 1.390 . S
C821 H825 0.950 . S
H822 C818 0.950 . S
C823 C821 1.390 . S
C823 C824 1.397 . S
C823 H826 0.950 . S
C824 C823 1.397 . S
C824 C827 1.378 1_545 S
H825 C821 0.950 . S
H826 C823 0.950 . S
C827 C818 1.390 . S
C827 H820 0.950 . S
C827 C824 1.378 1_565 S
C828 C829 1.387 . S
C828 H832 0.950 . S
C828 C837 1.390 . S
C829 C828 1.387 . S
C829 C831 1.387 1_455 S
H830 C837 0.950 . S
C831 C829 1.387 1_655 S
C831 C833 1.390 . S
C831 H835 0.950 . S
H832 C828 0.950 . S
C833 C831 1.390 . S
C833 C834 1.387 1_655 S
C833 H836 0.950 . S
C834 C833 1.387 1_455 S
C834 C837 1.387 . S
H835 C831 0.950 . S
H836 C833 0.950 . S
C837 C828 1.390 . S
C837 H830 0.950 . S
C837 C834 1.387 . S
C838 C839 1.396 . S
C838 H842 0.950 . S
C838 C847 1.390 . S
C839 C838 1.396 . S
C839 C841 1.379 1_545 S
H840 C847 0.950 . S
C841 C839 1.379 1_565 S
C841 C843 1.390 . S
C841 H845 0.950 . S
H842 C838 0.950 . S
C843 C841 1.390 . S
C843 C844 1.377 1_565 S
C843 H846 0.950 . S
C844 C843 1.377 1_545 S
C844 C847 1.398 . S
H845 C841 0.950 . S
H846 C843 0.950 . S
C847 C838 1.390 . S
C847 H840 0.950 . S
C847 C844 1.398 . S
C848 C849 1.387 . S
C848 H852 0.950 . S
C848 C857 1.390 . S
C849 C848 1.387 . S
C849 C851 1.387 1_455 S
H850 C857 0.950 . S
C851 C849 1.387 1_655 S
C851 C853 1.390 . S
C851 H855 0.950 . S
H852 C848 0.950 . S
C853 C851 1.390 . S
C853 C854 1.387 1_655 S
C853 H856 0.950 . S
C854 C853 1.387 1_455 S
C854 C857 1.387 . S
H855 C851 0.950 . S
H856 C853 0.950 . S
C857 C848 1.390 . S
C857 H850 0.950 . S
C857 C854 1.387 . S
C858 C859 1.379 1_565 S
C858 H862 0.950 . S
C858 C867 1.390 . S
C859 C858 1.379 1_545 S
C859 C861 1.396 . S
H860 C867 0.950 . S
C861 C859 1.396 . S
C861 C863 1.390 . S
C861 H865 0.950 . S
H862 C858 0.950 . S
C863 C861 1.390 . S
C863 C864 1.398 . S
C863 H866 0.950 . S
C864 C863 1.398 . S
C864 C867 1.377 1_545 S
H865 C861 0.950 . S
H866 C863 0.950 . S
C867 C858 1.390 . S
C867 H860 0.950 . S
C867 C864 1.377 1_565 S
C868 C869 1.387 1_655 S
C868 H872 0.950 . S
C868 C877 1.390 . S
C869 C868 1.387 1_455 S
C869 C871 1.387 . S
H870 C877 0.950 . S
C871 C869 1.387 . S
C871 C873 1.390 . S
C871 H875 0.950 . S
H872 C868 0.950 . S
C873 C871 1.390 . S
C873 C874 1.387 . S
C873 H876 0.950 . S
C874 C873 1.387 . S
C874 C877 1.387 1_455 S
H875 C871 0.950 . S
H876 C873 0.950 . S
C877 C868 1.390 . S
C877 H870 0.950 . S
C877 C874 1.387 1_655 S
C878 C879 1.372 1_565 S
C878 H882 0.950 . S
C878 C887 1.390 . S
C879 C878 1.372 1_545 S
C879 C881 1.403 . S
H880 C887 0.950 . S
C881 C879 1.403 . S
C881 C883 1.390 . S
C881 H885 0.950 . S
H882 C878 0.950 . S
C883 C881 1.390 . S
C883 C884 1.401 . S
C883 H886 0.950 . S
C884 C883 1.401 . S
C884 C887 1.374 1_545 S
H885 C881 0.950 . S
H886 C883 0.950 . S
C887 C878 1.390 . S
C887 H880 0.950 . S
C887 C884 1.374 1_565 S
C888 C889 1.387 1_655 S
C888 H892 0.950 . S
C888 C897 1.390 . S
C889 C888 1.387 1_455 S
C889 C891 1.387 . S
H890 C897 0.950 . S
C891 C889 1.387 . S
C891 C893 1.390 . S
C891 H895 0.950 . S
H892 C888 0.950 . S
C893 C891 1.390 . S
C893 C894 1.387 . S
C893 H896 0.950 . S
C894 C893 1.387 . S
C894 C897 1.387 1_455 S
H895 C891 0.950 . S
H896 C893 0.950 . S
C897 C888 1.390 . S
C897 H890 0.950 . S
C897 C894 1.387 1_655 S
C898 C899 1.375 1_565 S
C898 H902 0.950 . S
C898 C907 1.390 . S
C899 C898 1.375 1_545 S
C899 C901 1.400 . S
H900 C907 0.950 . S
C901 C899 1.400 . S
C901 C903 1.390 . S
C901 H905 0.950 . S
H902 C898 0.950 . S
C903 C901 1.390 . S
C903 C904 1.400 . S
C903 H906 0.950 . S
C904 C903 1.400 . S
C904 C907 1.375 1_545 S
H905 C901 0.950 . S
H906 C903 0.950 . S
C907 C898 1.390 . S
C907 H900 0.950 . S
C907 C904 1.375 1_565 S
C908 C909 1.381 1_565 S
C908 H912 0.950 . S
C908 C917 1.390 . S
C909 C908 1.381 1_545 S
C909 C911 1.394 . S
H910 C917 0.950 . S
C911 C909 1.394 . S
C911 C913 1.390 . S
C911 H915 0.950 . S
H912 C908 0.950 . S
C913 C911 1.390 . S
C913 C914 1.389 . S
C913 H916 0.950 . S
C914 C913 1.389 . S
C914 C917 1.386 1_545 S
H915 C911 0.950 . S
H916 C913 0.950 . S
C917 C908 1.390 . S
C917 H910 0.950 . S
C917 C914 1.386 1_565 S
C918 C919 1.387 . S
C918 H922 0.950 . S
C918 C927 1.390 . S
C919 C918 1.387 . S
C919 C921 1.387 1_455 S
H920 C927 0.950 . S
C921 C919 1.387 1_655 S
C921 C923 1.390 . S
C921 H925 0.950 . S
H922 C918 0.950 . S
C923 C921 1.390 . S
C923 C924 1.387 1_655 S
C923 H926 0.950 . S
C924 C923 1.387 1_455 S
C924 C927 1.387 . S
H925 C921 0.950 . S
H926 C923 0.950 . S
C927 C918 1.390 . S
C927 H920 0.950 . S
C927 C924 1.387 . S
C928 C929 1.381 1_565 S
C928 H932 0.950 . S
C928 C937 1.390 . S
C929 C928 1.381 1_545 S
C929 C931 1.394 . S
H930 C937 0.950 . S
C931 C929 1.394 . S
C931 C933 1.390 . S
C931 H935 0.950 . S
H932 C928 0.950 . S
C933 C931 1.390 . S
C933 C934 1.389 . S
C933 H936 0.950 . S
C934 C933 1.389 . S
C934 C937 1.386 1_545 S
H935 C931 0.950 . S
H936 C933 0.950 . S
C937 C928 1.390 . S
C937 H930 0.950 . S
C937 C934 1.386 1_565 S
C938 C939 1.387 1_655 S
C938 H942 0.950 . S
C938 C947 1.390 . S
C939 C938 1.387 1_455 S
C939 C941 1.387 . S
H940 C947 0.950 . S
C941 C939 1.387 . S
C941 C943 1.390 . S
C941 H945 0.950 . S
H942 C938 0.950 . S
C943 C941 1.390 . S
C943 C944 1.387 . S
C943 H946 0.950 . S
C944 C943 1.387 . S
C944 C947 1.387 1_455 S
H945 C941 0.950 . S
H946 C943 0.950 . S
C947 C938 1.390 . S
C947 H940 0.950 . S
C947 C944 1.387 1_655 S
C948 C949 1.405 . S
C948 H952 0.950 . S
C948 C957 1.390 . S
C949 C948 1.405 . S
C949 C951 1.370 1_545 S
H950 C957 0.950 . S
C951 C949 1.370 1_565 S
C951 C953 1.390 . S
C951 H955 0.950 . S
H952 C948 0.950 . S
C953 C951 1.390 . S
C953 C954 1.365 1_565 S
C953 H956 0.950 . S
C954 C953 1.365 1_545 S
C954 C957 1.410 . S
H955 C951 0.950 . S
H956 C953 0.950 . S
C957 C948 1.390 . S
C957 H950 0.950 . S
C957 C954 1.410 . S
C958 C959 1.387 . S
C958 H962 0.950 . S
C958 C967 1.390 . S
C959 C958 1.387 . S
C959 C961 1.387 1_455 S
H960 C967 0.950 . S
C961 C959 1.387 1_655 S
C961 C963 1.390 . S
C961 H965 0.950 . S
H962 C958 0.950 . S
C963 C961 1.390 . S
C963 C964 1.387 1_655 S
C963 H966 0.950 . S
C964 C963 1.387 1_455 S
C964 C967 1.387 . S
H965 C961 0.950 . S
H966 C963 0.950 . S
C967 C958 1.390 . S
C967 H960 0.950 . S
C967 C964 1.387 . S
C968 C969 1.373 1_565 S
C968 H972 0.950 . S
C968 C977 1.390 . S
C969 C968 1.373 1_545 S
C969 C971 1.402 . S
H970 C977 0.950 . S
C971 C969 1.402 . S
C971 C973 1.390 . S
C971 H975 0.950 . S
H972 C968 0.950 . S
C973 C971 1.390 . S
C973 C974 1.408 . S
C973 H976 0.950 . S
C974 C973 1.408 . S
C974 C977 1.367 1_545 S
H975 C971 0.950 . S
H976 C973 0.950 . S
C977 C968 1.390 . S
C977 H970 0.950 . S
C977 C974 1.367 1_565 S
C978 C979 1.387 1_655 S
C978 H982 0.950 . S
C978 C987 1.390 . S
C979 C978 1.387 1_455 S
C979 C981 1.387 . S
H980 C987 0.950 . S
C981 C979 1.387 . S
C981 C983 1.390 . S
C981 H985 0.950 . S
H982 C978 0.950 . S
C983 C981 1.390 . S
C983 C984 1.387 . S
C983 H986 0.950 . S
C984 C983 1.387 . S
C984 C987 1.387 1_455 S
H985 C981 0.950 . S
H986 C983 0.950 . S
C987 C978 1.390 . S
C987 H980 0.950 . S
C987 C984 1.387 1_655 S
C988 C989 1.387 . S
C988 H992 0.950 . S
C988 C997 1.390 . S
C989 C988 1.387 . S
C989 C991 1.387 1_554 S
H990 C997 0.950 . S
C991 C989 1.387 1_556 S
C991 C993 1.390 . S
C991 H995 0.950 . S
H992 C988 0.950 . S
C993 C991 1.390 . S
C993 C994 1.387 1_556 S
C993 H996 0.950 . S
C994 C993 1.387 1_554 S
C994 C997 1.387 . S
H995 C991 0.950 . S
H996 C993 0.950 . S
C997 C988 1.390 . S
C997 H990 0.950 . S
C997 C994 1.387 . S
C998 C999 1.387 1_556 S
C998 H1002 0.950 . S
C998 C1007 1.390 . S
C999 C998 1.387 1_554 S
C999 C1001 1.387 . S
H1000 C1007 0.950 . S
C1001 C999 1.387 . S
C1001 C1003 1.390 . S
C1001 H1005 0.950 . S
H1002 C998 0.950 . S
C1003 C1001 1.390 . S
C1003 C1004 1.387 . S
C1003 H1006 0.950 . S
C1004 C1003 1.387 . S
C1004 C1007 1.387 1_554 S
H1005 C1001 0.950 . S
H1006 C1003 0.950 . S
C1007 C998 1.390 . S
C1007 H1000 0.950 . S
C1007 C1004 1.387 1_556 S
C1008 C1009 1.387 1_556 S
C1008 H1012 0.950 . S
C1008 C1017 1.390 . S
C1009 C1008 1.387 1_554 S
C1009 C1011 1.387 . S
H1010 C1017 0.950 . S
C1011 C1009 1.387 . S
C1011 C1013 1.390 . S
C1011 H1015 0.950 . S
H1012 C1008 0.950 . S
C1013 C1011 1.390 . S
C1013 C1014 1.387 . S
C1013 H1016 0.950 . S
C1014 C1013 1.387 . S
C1014 C1017 1.387 1_554 S
H1015 C1011 0.950 . S
H1016 C1013 0.950 . S
C1017 C1008 1.390 . S
C1017 H1010 0.950 . S
C1017 C1014 1.387 1_556 S
C1018 C1019 1.387 . S
C1018 H1022 0.950 . S
C1018 C1027 1.390 . S
C1019 C1018 1.387 . S
C1019 C1021 1.387 1_554 S
H1020 C1027 0.950 . S
C1021 C1019 1.387 1_556 S
C1021 C1023 1.390 . S
C1021 H1025 0.950 . S
H1022 C1018 0.950 . S
C1023 C1021 1.390 . S
C1023 C1024 1.387 1_556 S
C1023 H1026 0.950 . S
C1024 C1023 1.387 1_554 S
C1024 C1027 1.387 . S
H1025 C1021 0.950 . S
H1026 C1023 0.950 . S
C1027 C1018 1.390 . S
C1027 H1020 0.950 . S
C1027 C1024 1.387 . S
C1028 C1029 1.387 1_556 S
C1028 H1032 0.950 . S
C1028 C1037 1.390 . S
C1029 C1028 1.387 1_554 S
C1029 C1031 1.387 . S
H1030 C1037 0.950 . S
C1031 C1029 1.387 . S
C1031 C1033 1.390 . S
C1031 H1035 0.950 . S
H1032 C1028 0.950 . S
C1033 C1031 1.390 . S
C1033 C1034 1.387 . S
C1033 H1036 0.950 . S
C1034 C1033 1.387 . S
C1034 C1037 1.387 1_554 S
H1035 C1031 0.950 . S
H1036 C1033 0.950 . S
C1037 C1028 1.390 . S
C1037 H1030 0.950 . S
C1037 C1034 1.387 1_556 S
C1038 C1039 1.387 1_556 S
C1038 H1042 0.950 . S
C1038 C1047 1.390 . S
C1039 C1038 1.387 1_554 S
C1039 C1041 1.387 . S
H1040 C1047 0.950 . S
C1041 C1039 1.387 . S
C1041 C1043 1.390 . S
C1041 H1045 0.950 . S
H1042 C1038 0.950 . S
C1043 C1041 1.390 . S
C1043 C1044 1.387 . S
C1043 H1046 0.950 . S
C1044 C1043 1.387 . S
C1044 C1047 1.387 1_554 S
H1045 C1041 0.950 . S
H1046 C1043 0.950 . S
C1047 C1038 1.390 . S
C1047 H1040 0.950 . S
C1047 C1044 1.387 1_556 S
C1048 C1049 1.387 . S
C1048 H1052 0.950 . S
C1048 C1057 1.390 . S
C1049 C1048 1.387 . S
C1049 C1051 1.387 1_554 S
H1050 C1057 0.950 . S
C1051 C1049 1.387 1_556 S
C1051 C1053 1.390 . S
C1051 H1055 0.950 . S
H1052 C1048 0.950 . S
C1053 C1051 1.390 . S
C1053 C1054 1.387 1_556 S
C1053 H1056 0.950 . S
C1054 C1053 1.387 1_554 S
C1054 C1057 1.387 . S
H1055 C1051 0.950 . S
H1056 C1053 0.950 . S
C1057 C1048 1.390 . S
C1057 H1050 0.950 . S
C1057 C1054 1.387 . S
C1058 C1059 1.387 1_556 S
C1058 H1062 0.950 . S
C1058 C1067 1.390 . S
C1059 C1058 1.387 1_554 S
C1059 C1061 1.387 . S
H1060 C1067 0.950 . S
C1061 C1059 1.387 . S
C1061 C1063 1.390 . S
C1061 H1065 0.950 . S
H1062 C1058 0.950 . S
C1063 C1061 1.390 . S
C1063 C1064 1.387 . S
C1063 H1066 0.950 . S
C1064 C1063 1.387 . S
C1064 C1067 1.387 1_554 S
H1065 C1061 0.950 . S
H1066 C1063 0.950 . S
C1067 C1058 1.390 . S
C1067 H1060 0.950 . S
C1067 C1064 1.387 1_556 S
C1068 C1069 1.387 . S
C1068 H1072 0.950 . S
C1068 C1077 1.390 . S
C1069 C1068 1.387 . S
C1069 C1071 1.387 . S
H1070 C1077 0.950 . S
C1071 C1069 1.387 . S
C1071 C1073 1.390 . S
C1071 H1075 0.950 . S
H1072 C1068 0.950 . S
C1073 C1071 1.390 . S
C1073 C1074 1.387 . S
C1073 H1076 0.950 . S
C1074 C1073 1.387 . S
C1074 C1077 1.387 . S
H1075 C1071 0.950 . S
H1076 C1073 0.950 . S
C1077 C1068 1.390 . S
C1077 H1070 0.950 . S
C1077 C1074 1.387 . S
C1078 C1079 1.387 . S
C1078 H1082 0.950 . S
C1078 C1087 1.390 . S
C1079 C1078 1.387 . S
C1079 C1081 1.387 . S
H1080 C1087 0.950 . S
C1081 C1079 1.387 . S
C1081 C1083 1.390 . S
C1081 H1085 0.950 . S
H1082 C1078 0.950 . S
C1083 C1081 1.390 . S
C1083 C1084 1.387 . S
C1083 H1086 0.950 . S
C1084 C1083 1.387 . S
C1084 C1087 1.387 . S
H1085 C1081 0.950 . S
H1086 C1083 0.950 . S
C1087 C1078 1.390 . S
C1087 H1080 0.950 . S
C1087 C1084 1.387 . S
C1088 C1089 1.387 . S
C1088 H1092 0.950 . S
C1088 C1097 1.390 . S
C1089 C1088 1.387 . S
C1089 C1091 1.387 . S
H1090 C1097 0.950 . S
C1091 C1089 1.387 . S
C1091 C1093 1.390 . S
C1091 H1095 0.950 . S
H1092 C1088 0.950 . S
C1093 C1091 1.390 . S
C1093 C1094 1.387 . S
C1093 H1096 0.950 . S
C1094 C1093 1.387 . S
C1094 C1097 1.387 . S
H1095 C1091 0.950 . S
H1096 C1093 0.950 . S
C1097 C1088 1.390 . S
C1097 H1090 0.950 . S
C1097 C1094 1.387 . S
C1098 C1099 1.387 . S
C1098 H1102 0.950 . S
C1098 C1107 1.390 . S
C1099 C1098 1.387 . S
C1099 C1101 1.387 . S
H1100 C1107 0.950 . S
C1101 C1099 1.387 . S
C1101 C1103 1.390 . S
C1101 H1105 0.950 . S
H1102 C1098 0.950 . S
C1103 C1101 1.390 . S
C1103 C1104 1.387 . S
C1103 H1106 0.950 . S
C1104 C1103 1.387 . S
C1104 C1107 1.387 . S
H1105 C1101 0.950 . S
H1106 C1103 0.950 . S
C1107 C1098 1.390 . S
C1107 H1100 0.950 . S
C1107 C1104 1.387 . S
C1108 C1109 1.387 . S
C1108 H1112 0.950 . S
C1108 C1117 1.390 . S
C1109 C1108 1.387 . S
C1109 C1111 1.387 . S
H1110 C1117 0.950 . S
C1111 C1109 1.387 . S
C1111 C1113 1.390 . S
C1111 H1115 0.950 . S
H1112 C1108 0.950 . S
C1113 C1111 1.390 . S
C1113 C1114 1.387 . S
C1113 H1116 0.950 . S
C1114 C1113 1.387 . S
C1114 C1117 1.387 . S
H1115 C1111 0.950 . S
H1116 C1113 0.950 . S
C1117 C1108 1.390 . S
C1117 H1110 0.950 . S
C1117 C1114 1.387 . S
C1118 C1119 1.387 . S
C1118 H1122 0.950 . S
C1118 C1127 1.390 . S
C1119 C1118 1.387 . S
C1119 C1121 1.387 . S
H1120 C1127 0.950 . S
C1121 C1119 1.387 . S
C1121 C1123 1.390 . S
C1121 H1125 0.950 . S
H1122 C1118 0.950 . S
C1123 C1121 1.390 . S
C1123 C1124 1.387 . S
C1123 H1126 0.950 . S
C1124 C1123 1.387 . S
C1124 C1127 1.387 . S
H1125 C1121 0.950 . S
H1126 C1123 0.950 . S
C1127 C1118 1.390 . S
C1127 H1120 0.950 . S
C1127 C1124 1.387 . S
C1128 C1129 1.387 . S
C1128 H1132 0.950 . S
C1128 C1137 1.390 . S
C1129 C1128 1.387 . S
C1129 C1131 1.387 . S
H1130 C1137 0.950 . S
C1131 C1129 1.387 . S
C1131 C1133 1.390 . S
C1131 H1135 0.950 . S
H1132 C1128 0.950 . S
C1133 C1131 1.390 . S
C1133 C1134 1.387 . S
C1133 H1136 0.950 . S
C1134 C1133 1.387 . S
C1134 C1137 1.387 . S
H1135 C1131 0.950 . S
H1136 C1133 0.950 . S
C1137 C1128 1.390 . S
C1137 H1130 0.950 . S
C1137 C1134 1.387 . S
C1138 C1139 1.387 . S
C1138 H1142 0.950 . S
C1138 C1147 1.390 . S
C1139 C1138 1.387 . S
C1139 C1141 1.387 . S
H1140 C1147 0.950 . S
C1141 C1139 1.387 . S
C1141 C1143 1.390 . S
C1141 H1145 0.950 . S
H1142 C1138 0.950 . S
C1143 C1141 1.390 . S
C1143 C1144 1.387 . S
C1143 H1146 0.950 . S
C1144 C1143 1.387 . S
C1144 C1147 1.387 . S
H1145 C1141 0.950 . S
H1146 C1143 0.950 . S
C1147 C1138 1.390 . S
C1147 H1140 0.950 . S
C1147 C1144 1.387 . S
C1148 C1149 1.387 . S
C1148 H1152 0.950 . S
C1148 C1157 1.390 . S
C1149 C1148 1.387 . S
C1149 C1151 1.387 . S
H1150 C1157 0.950 . S
C1151 C1149 1.387 . S
C1151 C1153 1.390 . S
C1151 H1155 0.950 . S
H1152 C1148 0.950 . S
C1153 C1151 1.390 . S
C1153 C1154 1.387 . S
C1153 H1156 0.950 . S
C1154 C1153 1.387 . S
C1154 C1157 1.387 . S
H1155 C1151 0.950 . S
H1156 C1153 0.950 . S
C1157 C1148 1.390 . S
C1157 H1150 0.950 . S
C1157 C1154 1.387 . S
C1158 C1159 1.387 . S
C1158 H1162 0.950 . S
C1158 C1167 1.390 . S
C1159 C1158 1.387 . S
C1159 C1161 1.387 . S
H1160 C1167 0.950 . S
C1161 C1159 1.387 . S
C1161 C1163 1.390 . S
C1161 H1165 0.950 . S
H1162 C1158 0.950 . S
C1163 C1161 1.390 . S
C1163 C1164 1.387 . S
C1163 H1166 0.950 . S
C1164 C1163 1.387 . S
C1164 C1167 1.387 . S
H1165 C1161 0.950 . S
H1166 C1163 0.950 . S
C1167 C1158 1.390 . S
C1167 H1160 0.950 . S
C1167 C1164 1.387 . S
C1168 C1169 1.387 . S
C1168 H1172 0.950 . S
C1168 C1177 1.390 . S
C1169 C1168 1.387 . S
C1169 C1171 1.387 . S
H1170 C1177 0.950 . S
C1171 C1169 1.387 . S
C1171 C1173 1.390 . S
C1171 H1175 0.950 . S
H1172 C1168 0.950 . S
C1173 C1171 1.390 . S
C1173 C1174 1.387 . S
C1173 H1176 0.950 . S
C1174 C1173 1.387 . S
C1174 C1177 1.387 . S
H1175 C1171 0.950 . S
H1176 C1173 0.950 . S
C1177 C1168 1.390 . S
C1177 H1170 0.950 . S
C1177 C1174 1.387 . S
C1178 C1179 1.387 . S
C1178 H1182 0.950 . S
C1178 C1187 1.390 . S
C1179 C1178 1.387 . S
C1179 C1181 1.387 . S
H1180 C1187 0.950 . S
C1181 C1179 1.387 . S
C1181 C1183 1.390 . S
C1181 H1185 0.950 . S
H1182 C1178 0.950 . S
C1183 C1181 1.390 . S
C1183 C1184 1.387 . S
C1183 H1186 0.950 . S
C1184 C1183 1.387 . S
C1184 C1187 1.387 . S
H1185 C1181 0.950 . S
H1186 C1183 0.950 . S
C1187 C1178 1.390 . S
C1187 H1180 0.950 . S
C1187 C1184 1.387 . S
C1188 C1189 1.387 . S
C1188 H1192 0.950 . S
C1188 C1197 1.390 . S
C1189 C1188 1.387 . S
C1189 C1191 1.387 . S
H1190 C1197 0.950 . S
C1191 C1189 1.387 . S
C1191 C1193 1.390 . S
C1191 H1195 0.950 . S
H1192 C1188 0.950 . S
C1193 C1191 1.390 . S
C1193 C1194 1.387 . S
C1193 H1196 0.950 . S
C1194 C1193 1.387 . S
C1194 C1197 1.387 . S
H1195 C1191 0.950 . S
H1196 C1193 0.950 . S
C1197 C1188 1.390 . S
C1197 H1190 0.950 . S
C1197 C1194 1.387 . S
C1198 C1199 1.387 . S
C1198 H1202 0.950 . S
C1198 C1207 1.390 . S
C1199 C1198 1.387 . S
C1199 C1201 1.387 . S
H1200 C1207 0.950 . S
C1201 C1199 1.387 . S
C1201 C1203 1.390 . S
C1201 H1205 0.950 . S
H1202 C1198 0.950 . S
C1203 C1201 1.390 . S
C1203 C1204 1.387 . S
C1203 H1206 0.950 . S
C1204 C1203 1.387 . S
C1204 C1207 1.387 . S
H1205 C1201 0.950 . S
H1206 C1203 0.950 . S
C1207 C1198 1.390 . S
C1207 H1200 0.950 . S
C1207 C1204 1.387 . S
C1208 C1209 1.387 . S
C1208 H1212 0.950 . S
C1208 C1217 1.390 . S
C1209 C1208 1.387 . S
C1209 C1211 1.387 . S
H1210 C1217 0.950 . S
C1211 C1209 1.387 . S
C1211 C1213 1.390 . S
C1211 H1215 0.950 . S
H1212 C1208 0.950 . S
C1213 C1211 1.390 . S
C1213 C1214 1.387 . S
C1213 H1216 0.950 . S
C1214 C1213 1.387 . S
C1214 C1217 1.387 . S
H1215 C1211 0.950 . S
H1216 C1213 0.950 . S
C1217 C1208 1.390 . S
C1217 H1210 0.950 . S
C1217 C1214 1.387 . S
C1218 C1219 1.387 . S
C1218 H1222 0.950 . S
C1218 C1227 1.390 . S
C1219 C1218 1.387 . S
C1219 C1221 1.387 . S
H1220 C1227 0.950 . S
C1221 C1219 1.387 . S
C1221 C1223 1.390 . S
C1221 H1225 0.950 . S
H1222 C1218 0.950 . S
C1223 C1221 1.390 . S
C1223 C1224 1.387 . S
C1223 H1226 0.950 . S
C1224 C1223 1.387 . S
C1224 C1227 1.387 . S
H1225 C1221 0.950 . S
H1226 C1223 0.950 . S
C1227 C1218 1.390 . S
C1227 H1220 0.950 . S
C1227 C1224 1.387 . S
C1228 C1229 1.387 . S
C1228 H1232 0.950 . S
C1228 C1237 1.390 . S
C1229 C1228 1.387 . S
C1229 C1231 1.387 . S
H1230 C1237 0.950 . S
C1231 C1229 1.387 . S
C1231 C1233 1.390 . S
C1231 H1235 0.950 . S
H1232 C1228 0.950 . S
C1233 C1231 1.390 . S
C1233 C1234 1.387 . S
C1233 H1236 0.950 . S
C1234 C1233 1.387 . S
C1234 C1237 1.387 . S
H1235 C1231 0.950 . S
H1236 C1233 0.950 . S
C1237 C1228 1.390 . S
C1237 H1230 0.950 . S
C1237 C1234 1.387 . S
C1238 C1239 1.387 . S
C1238 H1242 0.950 . S
C1238 C1247 1.390 . S
C1239 C1238 1.387 . S
C1239 C1241 1.387 . S
H1240 C1247 0.950 . S
C1241 C1239 1.387 . S
C1241 C1243 1.390 . S
C1241 H1245 0.950 . S
H1242 C1238 0.950 . S
C1243 C1241 1.390 . S
C1243 C1244 1.387 . S
C1243 H1246 0.950 . S
C1244 C1243 1.387 . S
C1244 C1247 1.387 . S
H1245 C1241 0.950 . S
H1246 C1243 0.950 . S
C1247 C1238 1.390 . S
C1247 H1240 0.950 . S
C1247 C1244 1.387 . S
C1248 C1249 1.387 . S
C1248 H1252 0.950 . S
C1248 C1257 1.390 . S
C1249 C1248 1.387 . S
C1249 C1251 1.387 . S
H1250 C1257 0.950 . S
C1251 C1249 1.387 . S
C1251 C1253 1.390 . S
C1251 H1255 0.950 . S
H1252 C1248 0.950 . S
C1253 C1251 1.390 . S
C1253 C1254 1.387 . S
C1253 H1256 0.950 . S
C1254 C1253 1.387 . S
C1254 C1257 1.387 . S
H1255 C1251 0.950 . S
H1256 C1253 0.950 . S
C1257 C1248 1.390 . S
C1257 H1250 0.950 . S
C1257 C1254 1.387 . S
C1258 C1259 1.387 . S
C1258 H1262 0.950 . S
C1258 C1267 1.390 . S
C1259 C1258 1.387 . S
C1259 C1261 1.387 . S
H1260 C1267 0.950 . S
C1261 C1259 1.387 . S
C1261 C1263 1.390 . S
C1261 H1265 0.950 . S
H1262 C1258 0.950 . S
C1263 C1261 1.390 . S
C1263 C1264 1.387 . S
C1263 H1266 0.950 . S
C1264 C1263 1.387 . S
C1264 C1267 1.387 . S
H1265 C1261 0.950 . S
H1266 C1263 0.950 . S
C1267 C1258 1.390 . S
C1267 H1260 0.950 . S
C1267 C1264 1.387 . S
C1268 C1269 1.387 . S
C1268 H1272 0.950 . S
C1268 C1277 1.390 . S
C1269 C1268 1.387 . S
C1269 C1271 1.387 . S
H1270 C1277 0.950 . S
C1271 C1269 1.387 . S
C1271 C1273 1.390 . S
C1271 H1275 0.950 . S
H1272 C1268 0.950 . S
C1273 C1271 1.390 . S
C1273 C1274 1.387 . S
C1273 H1276 0.950 . S
C1274 C1273 1.387 . S
C1274 C1277 1.387 . S
H1275 C1271 0.950 . S
H1276 C1273 0.950 . S
C1277 C1268 1.390 . S
C1277 H1270 0.950 . S
C1277 C1274 1.387 . S
C1278 C1279 1.387 . S
C1278 H1282 0.950 . S
C1278 C1287 1.390 . S
C1279 C1278 1.387 . S
C1279 C1281 1.387 . S
H1280 C1287 0.950 . S
C1281 C1279 1.387 . S
C1281 C1283 1.390 . S
C1281 H1285 0.950 . S
H1282 C1278 0.950 . S
C1283 C1281 1.390 . S
C1283 C1284 1.387 . S
C1283 H1286 0.950 . S
C1284 C1283 1.387 . S
C1284 C1287 1.387 . S
H1285 C1281 0.950 . S
H1286 C1283 0.950 . S
C1287 C1278 1.390 . S
C1287 H1280 0.950 . S
C1287 C1284 1.387 . S
C1288 C1289 1.387 . S
C1288 H1292 0.950 . S
C1288 C1297 1.390 . S
C1289 C1288 1.387 . S
C1289 C1291 1.387 . S
H1290 C1297 0.950 . S
C1291 C1289 1.387 . S
C1291 C1293 1.390 . S
C1291 H1295 0.950 . S
H1292 C1288 0.950 . S
C1293 C1291 1.390 . S
C1293 C1294 1.387 . S
C1293 H1296 0.950 . S
C1294 C1293 1.387 . S
C1294 C1297 1.387 . S
H1295 C1291 0.950 . S
H1296 C1293 0.950 . S
C1297 C1288 1.390 . S
C1297 H1290 0.950 . S
C1297 C1294 1.387 . S
C1298 C1299 1.387 . S
C1298 H1302 0.950 . S
C1298 C1307 1.390 . S
C1299 C1298 1.387 . S
C1299 C1301 1.387 . S
H1300 C1307 0.950 . S
C1301 C1299 1.387 . S
C1301 C1303 1.390 . S
C1301 H1305 0.950 . S
H1302 C1298 0.950 . S
C1303 C1301 1.390 . S
C1303 C1304 1.387 . S
C1303 H1306 0.950 . S
C1304 C1303 1.387 . S
C1304 C1307 1.387 . S
H1305 C1301 0.950 . S
H1306 C1303 0.950 . S
C1307 C1298 1.390 . S
C1307 H1300 0.950 . S
C1307 C1304 1.387 . S
C594 C294 1.564 . S
C589 C285 1.565 . S
C599 C261 1.483 . S
C604 C292 1.482 . S
C614 C293 1.482 . S
C609 C249 1.483 . S
C619 C273 1.566 . S
C624 C295 1.564 . S
C634 C339 1.607 . S
C629 C201 1.611 . S
C644 C399 1.550 . S
C639 C213 1.554 . S
C649 C225 1.594 . S
C654 C338 1.593 . S
C664 C398 1.474 . S
C659 C237 1.477 . S
C669 C153 1.524 . S
C674 C340 1.522 . S
C684 C396 1.535 . S
C679 C165 1.536 . S
C689 C177 1.530 . S
C694 C341 1.527 . S
C699 C189 1.616 . S
C704 C397 1.613 . S
C714 C447 1.563 . S
C709 C141 1.565 . S
C719 C117 1.484 . S
C724 C446 1.482 . S
C729 C105 1.484 . S
C734 C448 1.482 . S
C744 C449 1.563 . S
C739 C129 1.565 . S
C749 C57 1.611 . S
C754 C490 1.608 . S
C759 C69 1.555 . S
C764 C549 1.551 . S
C769 C81 1.595 . S
C774 C488 1.593 . S
C779 C93 1.477 . S
C784 C548 1.474 . S
C794 C489 1.522 . S
C789 C9 1.524 . S
C804 C546 1.535 . S
C799 C21 1.536 . S
C809 C33 1.530 . S
C814 C491 1.526 . S
C824 C547 1.614 . S
C819 C45 1.615 1_545 S
C834 C291 1.501 . S
C829 C4 1.348 . S
C839 C18 1.502 . S
C844 C297 1.552 . S
C849 C30 1.582 . S
C854 C289 1.627 . S
C859 C42 1.628 1_545 S
C864 C296 1.670 . S
C869 C52 1.353 . S
C874 C288 1.511 . S
C884 C298 1.629 . S
C879 C66 1.586 . S
C889 C78 1.598 . S
C894 C290 1.641 . S
C904 C299 1.415 . S
C899 C88 1.252 1_545 S
C914 C345 1.501 . S
C909 C40 1.361 . S
C919 C6 1.569 . S
C924 C388 1.614 . S
C934 C343 1.517 . S
C929 C16 1.379 1_545 S
C944 C390 1.490 . S
C939 C28 1.331 . S
C949 C64 1.315 1_545 S
C954 C344 1.471 . S
C964 C389 1.551 . S
C959 C76 1.410 . S
C974 C342 1.612 . S
C969 C90 1.567 . S
C984 C391 1.705 . S
C979 C54 1.672 . S
C994 C395 1.554 . S
C989 C102 1.504 . S
C999 C114 1.506 . S
C1004 C394 1.555 . S
C1014 C346 1.430 . S
C1009 C100 1.283 . S
C1024 C393 1.444 . S
C1019 C124 1.296 . S
C1029 C138 1.583 . S
C1034 C349 1.624 . S
C1039 C136 1.295 . S
C1044 C392 1.444 . S
C1054 C348 1.430 . S
C1049 C112 1.285 . S
C1064 C347 1.624 . S
C1059 C126 1.581 . S
C1074 C441 1.502 . S
C1069 C148 1.348 . S
C1084 C444 1.552 . S
C1079 C162 1.502 . S
C1089 C174 1.584 . S
C1094 C440 1.628 . S
C1104 C442 1.670 . S
C1099 C186 1.629 . S
C1114 C438 1.512 . S
C1109 C196 1.358 . S
C1119 C210 1.587 . S
C1124 C443 1.629 . S
C1129 C222 1.598 . S
C1134 C439 1.641 . S
C1144 C445 1.413 . S
C1139 C232 1.247 . S
C1154 C499 1.502 . S
C1149 C184 1.366 . S
C1159 C150 1.569 . S
C1164 C538 1.614 . S
C1174 C498 1.516 . S
C1169 C160 1.375 . S
C1184 C540 1.491 . S
C1179 C172 1.332 . S
C1194 C497 1.471 . S
C1189 C208 1.315 . S
C1199 C220 1.405 . S
C1204 C539 1.550 . S
C1214 C496 1.612 . S
C1209 C234 1.569 . S
C1224 C541 1.706 . S
C1219 C198 1.670 . S
C1234 C545 1.553 . S
C1229 C246 1.501 . S
C1239 C258 1.503 . S
C1244 C544 1.554 . S
C1254 C492 1.428 . S
C1249 C244 1.278 . S
C1259 C268 1.301 . S
C1264 C543 1.446 . S
C1274 C495 1.624 . S
C1269 C282 1.583 . S
C1284 C542 1.446 . S
C1279 C280 1.300 . S
C1294 C493 1.430 . S
C1289 C256 1.285 . S
C1299 C270 1.581 . S
C1304 C494 1.624 . S
